drugbank_target|Q96QD8 Sodium-coupled neutral amino acid transporter 2 (DB00174)
 OpenBabel12092121233D

  0  0  0     0  0            999 V3000
M  V30 BEGIN CTAB
M  V30 COUNTS 8017 8113 0 0 0
M  V30 BEGIN ATOM
M  V30 1 H -0.908 1.98254 -0.117106 0
M  V30 2 N 0 1.576 0 0
M  V30 3 C 0.933 2.03868 1.02534 0
M  V30 4 C 1.911 0.928543 1.3348 0
M  V30 5 O 3.095 1.19667 1.45644 0
M  V30 6 C 0.222 2.43627 2.35294 0
M  V30 7 C -0.732 3.65373 2.2001 0
M  V30 8 S 0.101 5.13292 1.52614 0
M  V30 9 C 1.257 5.56322 2.86805 0
M  V30 10 H 1.49 2.90518 0.631377 0
M  V30 11 H -0.977 1.52953 0.210867 0
M  V30 12 H 0.981 2.67203 3.11629 0
M  V30 13 H -0.358 1.57376 2.7183 0
M  V30 14 H -1.165 3.90944 3.18086 0
M  V30 15 H -1.563 3.418 1.51819 0
M  V30 16 H 0.729 5.58782 3.83104 0
M  V30 17 H 1.672 6.56266 2.65933 0
M  V30 18 H 2.08 4.83886 2.90714 0
M  V30 19 N 1.4781 -0.272755 1.55222 0
M  V30 20 C 2.4251 -1.33716 1.88119 0
M  V30 21 C 3.3951 -1.49066 0.73271 0
M  V30 22 O 4.5801 -1.63469 0.984002 0
M  V30 23 C 1.7201 -2.69238 2.15882 0
M  V30 24 C 0.8331 -2.62108 3.43399 0
M  V30 25 C -0.0319 -3.89811 3.60861 0
M  V30 26 C -0.9929 -3.77193 4.8207 0
M  V30 27 N -1.8559 -4.9673 4.96189 0
M  V30 28 H 2.9841 -1.04962 2.78903 0
M  V30 29 H 0.5211 -0.507088 1.38083 0
M  V30 30 H 2.4791 -3.48089 2.29978 0
M  V30 31 H 1.1091 -2.96194 1.28331 0
M  V30 32 H 0.1611 -1.74967 3.37773 0
M  V30 33 H 1.4731 -2.48685 4.32386 0
M  V30 34 H 0.6271 -4.77103 3.74777 0
M  V30 35 H -0.6339 -4.06102 2.7006 0
M  V30 36 H -1.6289 -2.88284 4.68159 0
M  V30 37 H -0.4039 -3.62421 5.74307 0
M  V30 38 H -2.4579 -5.13431 4.08319 0
M  V30 39 H -2.5409 -4.85839 5.79221 0
M  V30 40 H -1.2729 -5.85594 5.1449 0
M  V30 41 N 2.9562 -1.48159 -0.537278 0
M  V30 42 C 3.9032 -1.62138 -1.64256 0
M  V30 43 C 4.8732 -0.463668 -1.59497 0
M  V30 44 O 6.0582 -0.686241 -1.78032 0
M  V30 45 C 3.1982 -1.66028 -3.02537 0
M  V30 46 C 2.3112 -2.92855 -3.17585 0
M  V30 47 C 1.4462 -2.87952 -4.46382 0
M  V30 48 C 0.4852 -4.09516 -4.54932 0
M  V30 49 N -0.3778 -4.02733 -5.75109 0
M  V30 50 H 4.4622 -2.56529 -1.51647 0
M  V30 51 H 1.9992 -1.27224 -0.738414 0
M  V30 52 H 3.9572 -1.66265 -3.82638 0
M  V30 53 H 2.5872 -0.751331 -3.13934 0
M  V30 54 H 1.6392 -3.02395 -2.30784 0
M  V30 55 H 2.9512 -3.82822 -3.19764 0
M  V30 56 H 2.1052 -2.8655 -5.34765 0
M  V30 57 H 0.8442 -1.95702 -4.46712 0
M  V30 58 H -0.1508 -4.11201 -3.64957 0
M  V30 59 H 1.0742 -5.02917 -4.56346 0
M  V30 60 H -0.9798 -3.13299 -5.76351 0
M  V30 61 H -1.0628 -4.86397 -5.78752 0
M  V30 62 H 0.2052 -4.05379 -6.65799 0
M  V30 63 N 4.4343 0.785586 -1.36625 0
M  V30 64 C 5.3973 1.87999 -1.31107 0
M  V30 65 C 6.3973 1.59316 -0.217959 0
M  V30 66 O 7.5873 1.67656 -0.472977 0
M  V30 67 C 4.7193 3.24861 -1.03334 0
M  V30 68 H 5.9123 1.94307 -2.2844 0
M  V30 69 H 3.4653 0.983813 -1.21453 0
M  V30 70 H 4.2003 3.24235 -0.0647432 0
M  V30 71 H 3.9853 3.4707 -1.82441 0
M  V30 72 H 5.4753 4.04929 -1.02088 0
M  V30 73 N 5.9124 1.20967 1.01018 0
M  V30 74 C 6.8224 0.980157 2.13143 0
M  V30 75 C 7.8384 -0.0660665 1.73875 0
M  V30 76 O 9.0144 0.122821 2.01025 0
M  V30 77 C 6.0794 0.54216 3.42435 0
M  V30 78 C 5.1404 1.65999 3.95908 0
M  V30 79 C 4.3734 1.2428 5.19028 0
M  V30 80 O 4.5964 0.114196 5.70286 0
M  V30 81 O 3.5304 2.05271 5.65816 0
M  V30 82 H 7.3564 1.91913 2.35379 0
M  V30 83 H 4.9414 0.994099 1.11526 0
M  V30 84 H 6.8234 0.30744 4.20277 0
M  V30 85 H 5.4984 -0.36815 3.216 0
M  V30 86 H 4.4054 1.94906 3.19316 0
M  V30 87 H 5.7384 2.54753 4.21143 0
M  V30 88 N 7.3905 -1.2043 1.01659 0
M  V30 89 C 8.3235 -2.21924 0.531521 0
M  V30 90 C 9.3015 -1.57054 -0.421032 0
M  V30 91 O 10.4855 -1.85389 -0.341035 0
M  V30 92 C 7.6125 -3.37942 -0.226496 0
M  V30 93 C 6.6585 -4.21115 0.67561 0
M  V30 94 S 7.4915 -4.90674 2.14475 0
M  V30 95 C 8.6475 -6.10113 1.3969 0
M  V30 96 H 8.8805 -2.62725 1.3915 0
M  V30 97 H 6.4135 -1.30481 0.825479 0
M  V30 98 H 8.3715 -4.05196 -0.657738 0
M  V30 99 H 7.0325 -2.956 -1.06205 0
M  V30 100 H 6.2255 -5.03918 0.091108 0
M  V30 101 H 5.8275 -3.59115 1.04463 0
M  V30 102 H 8.1195 -6.7411 0.676897 0
M  V30 103 H 9.0625 -6.73022 2.20107 0
M  V30 104 H 9.4705 -5.57283 0.899786 0
M  V30 105 N 8.8686 -0.792821 -1.36206 0
M  V30 106 C 10.1166 -0.366062 -1.98757 0
M  V30 107 C 10.4376 1.0668 -1.63231 0
M  V30 108 O 9.7076 1.73587 -0.907978 0
M  V30 109 H 8.2876 -0.132364 -0.735179 0
M  V30 110 H 10.9496 -1.01562 -1.66347 0
M  V30 111 H 10.0456 -0.460638 -3.08682 0
M  V30 112 N 10.3467 1.47872 -0.545128 0
M  V30 113 C 11.7627 1.5829 -0.204032 0
M  V30 114 C 11.9627 1.54529 1.29317 0
M  V30 115 O 11.0187 1.44232 2.07252 0
M  V30 116 C 12.3317 2.89304 -0.819987 0
M  V30 117 C 13.8797 3.02864 -0.790105 0
M  V30 118 C 14.3547 4.3656 -1.38491 0
M  V30 119 N 15.8457 4.43165 -1.34755 0
M  V30 120 C 16.5807 5.45153 -1.77753 0
M  V30 121 N 16.0767 6.54016 -2.2855 0
M  V30 122 N 17.8697 5.36125 -1.68897 0
M  V30 123 H 10.0207 1.4856 -1.51802 0
M  V30 124 H 12.2837 0.706305 -0.632327 0
M  V30 125 H 11.9897 2.97757 -1.87173 0
M  V30 126 H 11.8637 3.75957 -0.305915 0
M  V30 127 H 14.2507 2.94014 0.252913 0
M  V30 128 H 14.3317 2.17782 -1.34181 0
M  V30 129 H 13.9757 4.46164 -2.42693 0
M  V30 130 H 13.9057 5.20353 -0.808754 0
M  V30 131 H 16.3967 3.65083 -0.975855 0
M  V30 132 H 16.7097 7.27994 -2.59314 0
M  V30 133 H 15.0547 6.54938 -2.32553 0
M  V30 134 H 18.2457 4.49975 -1.28998 0
M  V30 135 H 18.4187 6.15472 -2.02726 0
M  V30 136 N 11.8248 0.280983 1.55075 0
M  V30 137 C 13.0718 -0.334115 1.99725 0
M  V30 138 C 13.3998 -1.5542 1.1694 0
M  V30 139 O 12.6548 -1.94361 0.228531 0
M  V30 140 C 12.9538 -0.754656 3.49342 0
M  V30 141 C 12.6198 0.361445 4.49449 0
M  V30 142 C 11.2818 0.667893 4.76542 0
M  V30 143 C 13.6338 1.11322 5.09173 0
M  V30 144 C 10.9618 1.7296 5.60626 0
M  V30 145 C 13.3138 2.1647 5.9441 0
M  V30 146 C 11.9778 2.47742 6.19822 0
M  V30 147 H 11.2478 -0.122261 0.730844 0
M  V30 148 H 13.8948 0.395917 1.87363 0
M  V30 149 H 12.1998 -1.56446 3.5921 0
M  V30 150 H 13.8968 -1.24142 3.813 0
M  V30 151 H 10.4868 0.112481 4.28452 0
M  V30 152 H 14.6708 0.88973 4.8826 0
M  V30 153 H 9.9268 1.97684 5.78559 0
M  V30 154 H 14.1008 2.75193 6.3972 0
M  V30 155 H 11.7278 3.30145 6.84769 0
M  V30 156 N 13.3029 -1.57598 0.00835791 0
M  V30 157 C 14.5279 -1.95617 -0.689103 0
M  V30 158 C 14.9529 -0.883753 -1.66046 0
M  V30 159 O 14.3109 0.157352 -1.80616 0
M  V30 160 C 14.3589 -3.32736 -1.38994 0
M  V30 161 O 13.4629 -3.27631 -2.50463 0
M  V30 162 H 12.8039 -0.638379 -0.182668 0
M  V30 163 H 15.3339 -2.045 0.064036 0
M  V30 164 H 15.3439 -3.68494 -1.75147 0
M  V30 165 H 14.0189 -4.1034 -0.677778 0
M  V30 166 H 12.5959 -3.03561 -2.16576 0
M  V30 167 N 14.781 0.264519 -1.55364 0
M  V30 168 C 16.03 0.992812 -1.75574 0
M  V30 169 C 16.343 1.87142 -0.568979 0
M  V30 170 O 17.549 2.63513 -0.653682 0
M  V30 171 C 16.005 1.81519 -3.10771 0
M  V30 172 C 15.613 0.984839 -4.37041 0
M  V30 173 C 17.357 2.53727 -3.40327 0
M  V30 174 C 15.264 1.80209 -5.63275 0
M  V30 175 H 14.194 0.374412 -0.65447 0
M  V30 176 H 16.845 0.248138 -1.81815 0
M  V30 177 H 15.227 2.60115 -2.98591 0
M  V30 178 H 16.401 0.242455 -4.60162 0
M  V30 179 H 14.716 0.37691 -4.14691 0
M  V30 180 H 17.313 3.15292 -4.3185 0
M  V30 181 H 17.656 3.24447 -2.60845 0
M  V30 182 H 18.189 1.82156 -3.53644 0
M  V30 183 H 14.928 1.13896 -6.45529 0
M  V30 184 H 14.448 2.52022 -5.44284 0
M  V30 185 H 16.127 2.37364 -6.01887 0
M  V30 186 N 16.2591 1.48442 0.529413 0
M  V30 187 C 17.4841 1.60406 1.31471 0
M  V30 188 C 17.9091 0.264738 1.86228 0
M  V30 189 O 17.2671 -0.763668 1.64432 0
M  V30 190 C 17.3151 2.65419 2.44101 0
M  V30 191 O 16.4191 2.22618 3.47153 0
M  V30 192 H 15.7601 0.537863 0.389357 0
M  V30 193 H 18.2901 1.94432 0.636965 0
M  V30 194 H 18.3001 2.86709 2.90279 0
M  V30 195 H 16.9751 3.62652 2.03608 0
M  V30 196 H 15.5521 2.11543 3.0709 0
M  V30 197 N 17.7372 -0.778329 1.37039 0
M  V30 198 C 19.1482 -1.35421 1.28523 0
M  V30 199 C 19.4992 -1.96075 -0.0700901 0
M  V30 200 O 18.6242 -1.93352 -0.971801 0
M  V30 201 C 19.2192 -2.46211 2.32735 0
M  V30 202 C 17.7782 -2.99585 2.27873 0
M  V30 203 C 16.9252 -1.72748 2.16918 0
M  V30 204 H 19.8762 -0.5791 1.47757 0
M  V30 205 H 19.8972 -3.2552 1.9702 0
M  V30 206 H 19.4092 -2.02036 3.31365 0
M  V30 207 H 17.5102 -3.48152 1.32745 0
M  V30 208 H 17.6232 -3.55646 3.21018 0
M  V30 209 H 15.9872 -1.95416 1.63354 0
M  V30 210 H 16.7702 -1.30686 3.17452 0
M  V30 211 N 19.2153 -1.21501 -1.00376 0
M  V30 212 C 20.4923 -0.941745 -1.71437 0
M  V30 213 C 20.8723 0.546114 -2.03914 0
M  V30 214 O 20.2203 1.51128 -1.71384 0
M  V30 215 C 20.4303 -1.82812 -2.97289 0
M  V30 216 C 21.7783 -2.07771 -3.70292 0
M  V30 217 O 22.8023 -1.80171 -3.07273 0
M  V30 218 O 21.6613 -2.54456 -4.83647 0
M  V30 219 H 18.7553 -0.353243 -0.747762 0
M  V30 220 H 21.3013 -1.32436 -1.06108 0
M  V30 221 H 20.0733 -2.83501 -2.69709 0
M  V30 222 H 19.6963 -1.4464 -3.70358 0
M  V30 223 N 20.6934 1.19889 -1.02296 0
M  V30 224 C 21.6034 2.26571 -0.608508 0
M  V30 225 C 22.6194 1.70299 0.356964 0
M  V30 226 O 23.7954 2.00235 0.216326 0
M  V30 227 C 20.8604 3.46677 0.0402814 0
M  V30 228 C 19.9214 4.18153 -0.97194 0
M  V30 229 C 19.1544 5.32525 -0.354016 0
M  V30 230 O 19.3774 5.64112 0.844604 0
M  V30 231 O 18.3114 5.92242 -1.07391 0
M  V30 232 H 22.1374 2.64251 -1.49684 0
M  V30 233 H 19.7224 1.26629 -0.792809 0
M  V30 234 H 21.6044 4.19475 0.402324 0
M  V30 235 H 20.2794 3.10858 0.902707 0
M  V30 236 H 19.1864 3.47499 -1.38546 0
M  V30 237 H 20.5194 4.57927 -1.80454 0
M  V30 238 N 22.1715 0.800033 1.35784 0
M  V30 239 C 23.4485 0.30088 1.93272 0
M  V30 240 C 23.8285 -1.20857 1.73081 0
M  V30 241 O 23.1765 -2.00502 1.09596 0
M  V30 242 C 23.3865 0.70511 3.41803 0
M  V30 243 C 24.7345 0.690871 4.18942 0
M  V30 244 O 25.7585 0.646244 3.50289 0
M  V30 245 O 24.6175 0.74332 5.41421 0
M  V30 246 H 21.7115 0.0771605 0.823393 0
M  V30 247 H 24.2575 0.88329 1.449 0
M  V30 248 H 23.0295 1.74571 3.50201 0
M  V30 249 H 22.6525 0.0971541 3.97481 0
M  V30 250 N 23.6496 -1.47581 0.552962 0
M  V30 251 C 24.8746 -2.07378 0.0300593 0
M  V30 252 C 25.2996 -1.40355 -1.25229 0
M  V30 253 O 24.6576 -0.477099 -1.7491 0
M  V30 254 C 24.7056 -3.60274 -0.153231 0
M  V30 255 O 23.8096 -3.94041 -1.21678 0
M  V30 256 H 23.1506 -0.662158 0.0494182 0
M  V30 257 H 25.6806 -1.89662 0.767434 0
M  V30 258 H 25.6906 -4.0633 -0.368761 0
M  V30 259 H 24.3656 -4.08455 0.783397 0
M  V30 260 H 22.9426 -3.59735 -0.982079 0
M  V30 261 N 25.1277 -0.289203 -1.54924 0
M  V30 262 C 26.3527 0.329299 -2.04769 0
M  V30 263 C 26.7777 1.4763 -1.16564 0
M  V30 264 O 26.1357 1.80527 -0.167186 0
M  V30 265 C 26.1837 0.774438 -3.52186 0
M  V30 266 O 25.2877 1.88038 -3.67036 0
M  V30 267 H 24.6287 0.0659259 -0.660719 0
M  V30 268 H 27.1587 -0.42761 -2.00082 0
M  V30 269 H 27.1687 1.06642 -3.93816 0
M  V30 270 H 25.8437 -0.0646707 -4.1585 0
M  V30 271 H 24.4207 1.58985 -3.3731 0
M  V30 272 N 26.6058 1.57591 -0.0167156 0
M  V30 273 C 27.8308 1.9598 0.67872 0
M  V30 274 C 28.2558 0.892546 1.65575 0
M  V30 275 O 27.6138 -0.147772 1.80697 0
M  V30 276 C 27.6618 3.33468 1.37227 0
M  V30 277 O 26.7658 3.28954 2.48722 0
M  V30 278 H 26.1068 0.639339 0.17928 0
M  V30 279 H 28.6368 2.04463 -0.0748802 0
M  V30 280 H 28.6468 3.69417 1.7319 0
M  V30 281 H 27.3218 4.10694 0.656007 0
M  V30 282 H 25.8988 3.04705 2.14963 0
M  V30 283 N 28.0839 -0.256276 1.55502 0
M  V30 284 C 29.3139 -1.00196 1.80677 0
M  V30 285 C 29.7219 -1.79805 0.588797 0
M  V30 286 O 29.0649 -1.78055 -0.451883 0
M  V30 287 C 29.1269 -1.99515 2.99055 0
M  V30 288 C 28.7909 -1.38688 4.35448 0
M  V30 289 C 29.7879 -0.794079 5.138 0
M  V30 290 C 27.4729 -1.40906 4.82132 0
M  V30 291 C 29.4669 -0.231562 6.36979 0
M  V30 292 C 27.1539 -0.842684 6.05262 0
M  V30 293 C 28.1519 -0.254953 6.82524 0
M  V30 294 O 27.8399 0.3027 8.0333 0
M  V30 295 H 27.5719 -0.300919 0.60533 0
M  V30 296 H 30.1259 -0.287307 2.03381 0
M  V30 297 H 28.3559 -2.74785 2.72084 0
M  V30 298 H 30.0449 -2.60349 3.11405 0
M  V30 299 H 30.8109 -0.769519 4.78856 0
M  V30 300 H 26.6899 -1.85591 4.21992 0
M  V30 301 H 30.2339 0.227816 6.97228 0
M  V30 302 H 26.1309 -0.86454 6.39684 0
M  V30 303 H 26.8989 0.193662 8.18271 0
M  V30 304 N 29.562 -1.4872 -0.521534 0
M  V30 305 C 30.787 -1.61101 -1.30618 0
M  V30 306 C 31.212 -0.274611 -1.86085 0
M  V30 307 O 30.57 0.754937 -1.64834 0
M  V30 308 C 30.618 -2.66709 -2.4269 0
M  V30 309 O 29.722 -2.24456 -3.45967 0
M  V30 310 H 29.063 -0.539921 -0.386499 0
M  V30 311 H 31.593 -1.94767 -0.626645 0
M  V30 312 H 31.603 -2.88245 -2.88754 0
M  V30 313 H 30.278 -3.63727 -2.01682 0
M  V30 314 H 28.855 -2.13168 -3.05964 0
M  V30 315 N 31.0401 0.771051 -1.3745 0
M  V30 316 C 32.2651 1.56529 -1.36065 0
M  V30 317 C 32.6901 1.88029 0.0515859 0
M  V30 318 O 32.0481 1.49282 1.02882 0
M  V30 319 C 32.0961 2.85187 -2.20683 0
M  V30 320 O 31.2001 3.79593 -1.61193 0
M  V30 321 H 30.5411 0.47411 -0.464883 0
M  V30 322 H 33.0711 0.954269 -1.80983 0
M  V30 323 H 33.0811 3.34283 -2.33921 0
M  V30 324 H 31.7561 2.61588 -3.23334 0
M  V30 325 H 30.3331 3.38239 -1.56999 0
M  V30 326 N 32.5182 1.22032 0.997298 0
M  V30 327 C 33.4662 0.983634 2.10778 0
M  V30 328 C 34.4602 -0.0717564 1.69248 0
M  V30 329 O 35.6662 0.080304 1.79821 0
M  V30 330 H 32.0412 0.300877 0.689186 0
M  V30 331 H 34.0122 1.92606 2.27916 0
M  V30 332 C 32.7612 0.57326 3.42942 0
M  V30 333 H 32.0842 1.37702 3.75338 0
M  V30 334 H 33.5242 0.447031 4.21637 0
M  V30 335 C 31.9832 -0.7167 3.29188 0
M  V30 336 O 32.5132 -1.77027 3.60589 0
M  V30 337 N 30.7192 -0.686167 2.82383 0
M  V30 338 H 30.2662 0.171507 2.57028 0
M  V30 339 H 30.2242 -1.54955 2.73562 0
M  V30 340 N 33.9963 -1.19345 1.0293 0
M  V30 341 C 35.2213 -1.93538 0.745511 0
M  V30 342 C 35.6463 -1.75007 -0.689511 0
M  V30 343 O 35.0043 -1.05265 -1.47611 0
M  V30 344 C 35.0523 -3.43336 1.10239 0
M  V30 345 O 34.1563 -4.11806 0.221289 0
M  V30 346 H 33.4973 -0.604193 0.275404 0
M  V30 347 H 36.0273 -1.5141 1.37609 0
M  V30 348 H 36.0373 -3.94004 1.05947 0
M  V30 349 H 34.7123 -3.56146 2.14786 0
M  V30 350 H 33.2893 -3.715 0.322842 0
M  V30 351 N 35.4744 -0.807222 -1.35358 0
M  V30 352 C 36.7514 -0.311126 -1.9311 0
M  V30 353 C 37.1314 1.19937 -1.73719 0
M  V30 354 O 36.4794 1.99918 -1.10657 0
M  V30 355 C 36.6894 -0.723226 -3.41424 0
M  V30 356 C 38.0374 -0.713078 -4.18569 0
M  V30 357 O 39.0614 -0.664811 -3.49941 0
M  V30 358 O 37.9204 -0.772022 -5.41019 0
M  V30 359 H 35.0144 -0.081526 -0.822972 0
M  V30 360 H 37.5604 -0.890962 -1.4443 0
M  V30 361 H 36.3324 -1.76426 -3.4927 0
M  V30 362 H 35.9554 -0.118232 -3.97424 0
M  V30 363 N 36.9525 1.47285 -0.560781 0
M  V30 364 C 38.1995 2.02464 -0.038062 0
M  V30 365 C 38.5275 1.43474 1.31322 0
M  V30 366 O 37.7825 0.581311 1.86867 0
M  V30 367 C 38.0815 3.57258 0.100784 0
M  V30 368 C 37.7475 4.35184 -1.18007 0
M  V30 369 C 36.4095 4.56194 -1.53103 0
M  V30 370 C 38.7615 4.80098 -2.02867 0
M  V30 371 C 36.0895 5.19367 -2.729 0
M  V30 372 C 38.4415 5.44593 -3.21871 0
M  V30 373 C 37.1055 5.63835 -3.57276 0
M  V30 374 H 36.3755 0.740869 -0.0139279 0
M  V30 375 H 39.0225 1.76916 -0.733012 0
M  V30 376 H 37.3275 3.81819 0.878724 0
M  V30 377 H 39.0245 3.97606 0.520639 0
M  V30 378 H 35.6145 4.19113 -0.8968 0
M  V30 379 H 39.7985 4.63642 -1.7706 0
M  V30 380 H 35.0545 5.32459 -3.00496 0
M  V30 381 H 39.2285 5.78358 -3.87911 0
M  V30 382 H 36.8555 6.12557 -4.50197 0
M  V30 383 N 38.4306 0.297415 1.54768 0
M  V30 384 C 39.3786 -0.596051 2.24833 0
M  V30 385 C 40.3726 -1.13992 1.25308 0
M  V30 386 O 41.5786 -1.09098 1.4317 0
M  V30 387 H 37.9536 -0.210814 0.721846 0
M  V30 388 H 39.9246 0.0174667 2.98395 0
M  V30 389 C 38.6736 -1.75818 2.99972 0
M  V30 390 H 37.9966 -1.3489 3.76357 0
M  V30 391 H 39.4366 -2.35949 3.52284 0
M  V30 392 C 37.8956 -2.66014 2.06732 0
M  V30 393 O 38.4256 -3.67009 1.63302 0
M  V30 394 N 36.6316 -2.33669 1.72763 0
M  V30 395 H 36.1786 -1.51586 2.08277 0
M  V30 396 H 36.1366 -2.94285 1.10652 0
M  V30 397 N 39.9087 -1.5758 0.0250728 0
M  V30 398 C 41.1387 -1.95646 -0.663783 0
M  V30 399 C 41.5467 -0.899935 -1.66427 0
M  V30 400 O 40.8897 0.127191 -1.83259 0
M  V30 401 C 40.9517 -3.29835 -1.43 0
M  V30 402 C 40.6157 -4.53197 -0.588305 0
M  V30 403 C 41.6127 -5.19726 0.13469 0
M  V30 404 C 39.2977 -4.99529 -0.526897 0
M  V30 405 C 41.2917 -6.30902 0.90781 0
M  V30 406 C 38.9787 -6.10589 0.24993 0
M  V30 407 C 39.9767 -6.76134 0.965994 0
M  V30 408 O 39.6647 -7.85062 1.7301 0
M  V30 409 H 39.3967 -0.649282 -0.188174 0
M  V30 410 H 41.9507 -2.05245 0.0799006 0
M  V30 411 H 40.1807 -3.16716 -2.21873 0
M  V30 412 H 41.8697 -3.52833 -2.00658 0
M  V30 413 H 42.6357 -4.84904 0.0965562 0
M  V30 414 H 38.5147 -4.48319 -1.07381 0
M  V30 415 H 42.0587 -6.81995 1.46724 0
M  V30 416 H 37.9557 -6.44849 0.289795 0
M  V30 417 H 38.7237 -8.01708 1.64944 0
M  V30 418 N 41.3868 0.248026 -1.55636 0
M  V30 419 C 42.6118 0.998028 -1.81808 0
M  V30 420 C 43.0368 1.78207 -0.601979 0
M  V30 421 O 42.3948 1.75653 0.448961 0
M  V30 422 C 42.4428 1.9125 -3.05705 0
M  V30 423 O 41.5468 3.00406 -2.82542 0
M  V30 424 H 40.8878 0.284045 -0.600179 0
M  V30 425 H 43.4178 0.269357 -2.02819 0
M  V30 426 H 43.4278 2.32737 -3.35108 0
M  V30 427 H 42.1028 1.33602 -3.93857 0
M  V30 428 H 40.6798 2.63056 -2.64303 0
M  V30 429 N 42.8649 1.48995 0.513639 0
M  V30 430 C 44.0949 1.61297 1.291 0
M  V30 431 C 44.5029 0.278656 1.87137 0
M  V30 432 O 43.8459 -0.744325 1.67945 0
M  V30 433 C 43.9079 2.61326 2.46879 0
M  V30 434 C 43.5719 4.05993 2.09807 0
M  V30 435 C 44.5689 4.93183 1.64519 0
M  V30 436 C 42.2539 4.51642 2.19829 0
M  V30 437 C 44.2479 6.24056 1.2974 0
M  V30 438 C 41.9349 5.82532 1.84662 0
M  V30 439 C 42.9329 6.68562 1.3969 0
M  V30 440 O 42.6209 7.97014 1.04992 0
M  V30 441 H 42.3529 0.546236 0.39825 0
M  V30 442 H 44.9069 1.95673 0.62459 0
M  V30 443 H 43.1369 2.22104 3.16554 0
M  V30 444 H 44.8259 2.6329 3.08923 0
M  V30 445 H 45.5919 4.59147 1.56233 0
M  V30 446 H 41.4709 3.84855 2.53786 0
M  V30 447 H 45.0149 6.91161 0.945659 0
M  V30 448 H 40.9119 6.16099 1.92594 0
M  V30 449 H 41.6799 8.09913 1.18249 0
M  V30 450 N 44.343 -0.763751 1.37857 0
M  V30 451 C 45.754 -1.3405 1.29952 0
M  V30 452 C 46.105 -1.96138 -0.0492898 0
M  V30 453 O 45.23 -1.94372 -0.951239 0
M  V30 454 C 45.825 -2.43729 2.35333 0
M  V30 455 C 44.384 -2.97151 2.31037 0
M  V30 456 C 43.531 -1.70438 2.18738 0
M  V30 457 H 46.482 -0.563396 1.48363 0
M  V30 458 H 46.503 -3.23412 2.00462 0
M  V30 459 H 46.015 -1.9851 3.33489 0
M  V30 460 H 44.116 -3.46724 1.3643 0
M  V30 461 H 44.229 -3.52221 3.24772 0
M  V30 462 H 42.593 -1.93673 1.65418 0
M  V30 463 H 43.376 -1.27312 3.18821 0
M  V30 464 N 45.8211 -1.22559 -0.990812 0
M  V30 465 C 47.0491 -1.07779 -1.76611 0
M  V30 466 C 47.4641 0.371513 -1.85109 0
M  V30 467 O 46.8211 1.25737 -1.32274 0
M  V30 468 C 46.8721 -1.68512 -3.19822 0
M  V30 469 O 46.5931 -3.07774 -3.1178 0
M  V30 470 C 48.0941 -1.59035 -4.13791 0
M  V30 471 H 45.3141 -0.377729 -0.554583 0
M  V30 472 H 47.8581 -1.62195 -1.24551 0
M  V30 473 H 46.0131 -1.18154 -3.68942 0
M  V30 474 H 46.4271 -3.37062 -4.01858 0
M  V30 475 H 47.9011 -2.0625 -5.1202 0
M  V30 476 H 48.3781 -0.547273 -4.35777 0
M  V30 477 H 48.9841 -2.08709 -3.70568 0
M  V30 478 N 47.2992 1.18797 -1.03562 0
M  V30 479 C 48.2462 2.22253 -0.622259 0
M  V30 480 C 49.2162 1.61987 0.36736 0
M  V30 481 O 50.4012 1.88986 0.262492 0
M  V30 482 C 47.5412 3.45097 0.0138462 0
M  V30 483 C 46.6542 4.19722 -1.02263 0
M  V30 484 C 45.7892 5.30009 -0.355573 0
M  V30 485 C 44.8282 5.96399 -1.37749 0
M  V30 486 N 43.9652 6.98234 -0.735766 0
M  V30 487 H 48.8052 2.56968 -1.50903 0
M  V30 488 H 46.3422 1.26245 -0.755017 0
M  V30 489 H 48.3002 4.15279 0.399948 0
M  V30 490 H 46.9302 3.11018 0.864158 0
M  V30 491 H 45.9822 3.48418 -1.52673 0
M  V30 492 H 47.2942 4.65227 -1.79903 0
M  V30 493 H 46.4482 6.0664 0.0850095 0
M  V30 494 H 45.1872 4.85592 0.452967 0
M  V30 495 H 44.1922 5.18512 -1.82826 0
M  V30 496 H 45.4172 6.42899 -2.18764 0
M  V30 497 H 43.3632 6.55979 0.0525597 0
M  V30 498 H 43.2802 7.41965 -1.44995 0
M  V30 499 H 44.5482 7.78845 -0.31941 0
M  V30 500 N 48.7773 0.814389 1.34928 0
M  V30 501 C 49.7093 0.187834 2.28429 0
M  V30 502 C 50.7223 -0.617374 1.5064 0
M  V30 503 O 51.9113 -0.448454 1.72775 0
M  V30 504 C 49.0113 -0.755962 3.30361 0
M  V30 505 C 48.1843 0.00456686 4.374 0
M  V30 506 C 47.2433 -0.858876 5.19143 0
M  V30 507 O 46.2693 -0.306968 5.68372 0
M  V30 508 N 47.4713 -2.17988 5.38016 0
M  V30 509 H 50.2363 0.991105 2.82838 0
M  V30 510 H 47.7973 0.670561 1.4736 0
M  V30 511 H 49.7893 -1.338 3.81942 0
M  V30 512 H 48.3593 -1.46001 2.7641 0
M  V30 513 H 47.5793 0.767865 3.86649 0
M  V30 514 H 48.8673 0.528422 5.06049 0
M  V30 515 H 48.2653 -2.65212 4.99679 0
M  V30 516 H 46.8223 -2.71098 5.92747 0
M  V30 517 N 50.2554 -1.46986 0.568584 0
M  V30 518 C 51.2184 -2.28624 -0.162366 0
M  V30 519 C 52.2184 -1.37596 -0.832103 0
M  V30 520 O 53.4084 -1.60115 -0.68622 0
M  V30 521 C 50.5404 -3.17596 -1.23878 0
M  V30 522 H 51.7334 -2.94722 0.554899 0
M  V30 523 H 49.2864 -1.52863 0.325976 0
M  V30 524 H 50.0214 -2.56214 -1.98808 0
M  V30 525 H 49.8064 -3.846 -0.763219 0
M  V30 526 H 51.2964 -3.79078 -1.75185 0
M  V30 527 N 51.7335 -0.305618 -1.54608 0
M  V30 528 C 52.6965 0.555591 -2.22364 0
M  V30 529 C 53.6965 1.05768 -1.21119 0
M  V30 530 O 54.8865 0.952972 -1.45822 0
M  V30 531 C 52.0185 1.76974 -2.91364 0
M  V30 532 H 53.2115 -0.0364572 -2.99878 0
M  V30 533 H 50.7645 -0.0565007 -1.56198 0
M  V30 534 H 51.4995 2.40151 -2.17941 0
M  V30 535 H 51.2845 1.41732 -3.65588 0
M  V30 536 H 52.7745 2.38148 -3.43038 0
M  V30 537 N 53.2116 1.57565 -0.0334293 0
M  V30 538 C 54.1416 2.13511 0.945265 0
M  V30 539 C 55.1226 1.05231 1.33643 0
M  V30 540 O 56.3076 1.33084 1.41429 0
M  V30 541 C 53.4376 2.6657 2.22616 0
M  V30 542 C 52.3916 3.79676 1.97561 0
M  V30 543 C 51.7176 4.1918 3.31952 0
M  V30 544 C 53.0176 5.0557 1.31135 0
M  V30 545 H 54.7116 2.95538 0.479325 0
M  V30 546 H 52.2576 1.42166 0.229115 0
M  V30 547 H 54.2106 3.04344 2.91466 0
M  V30 548 H 52.9346 1.8171 2.71384 0
M  V30 549 H 51.5936 3.42347 1.31127 0
M  V30 550 H 51.2416 3.31296 3.78487 0
M  V30 551 H 50.9416 4.95402 3.15992 0
M  V30 552 H 52.4656 4.59541 4.02063 0
M  V30 553 H 53.8796 5.40903 1.89992 0
M  V30 554 H 52.2766 5.86818 1.25559 0
M  V30 555 H 53.3466 4.84062 0.284894 0
M  V30 556 N 54.6897 -0.239769 1.55765 0
M  V30 557 C 55.6367 -1.29696 1.90913 0
M  V30 558 C 56.6067 -1.47478 0.764164 0
M  V30 559 O 57.7917 -1.61345 1.01845 0
M  V30 560 C 54.9317 -2.64598 2.21544 0
M  V30 561 C 54.0447 -2.54765 3.48882 0
M  V30 562 C 53.1797 -3.82069 3.69049 0
M  V30 563 C 52.2187 -3.66883 4.89963 0
M  V30 564 N 51.3557 -4.86094 5.06614 0
M  V30 565 H 56.1957 -0.990224 2.81067 0
M  V30 566 H 53.7327 -0.477684 1.39128 0
M  V30 567 H 55.6907 -3.43132 2.3731 0
M  V30 568 H 54.3207 -2.93405 1.34585 0
M  V30 569 H 53.3727 -1.67763 3.41409 0
M  V30 570 H 54.6847 -2.39457 4.37563 0
M  V30 571 H 53.8387 -4.69046 3.84812 0
M  V30 572 H 52.5777 -4.00282 2.78614 0
M  V30 573 H 51.5827 -2.78289 4.74168 0
M  V30 574 H 52.8077 -3.50157 5.81865 0
M  V30 575 H 50.7537 -5.04655 4.19117 0
M  V30 576 H 50.6707 -4.73443 5.89396 0
M  V30 577 H 51.9387 -5.74549 5.26795 0
M  V30 578 N 56.1678 -1.49265 -0.50573 0
M  V30 579 C 57.3928 -1.62478 -1.28902 0
M  V30 580 C 57.8178 -0.294332 -1.85783 0
M  V30 581 O 57.1758 0.737412 -1.65626 0
M  V30 582 C 57.2238 -2.69268 -2.39848 0
M  V30 583 O 56.3278 -2.28113 -3.43567 0
M  V30 584 H 55.6688 -0.54399 -0.380751 0
M  V30 585 H 58.1988 -1.95421 -0.605952 0
M  V30 586 H 58.2088 -2.91291 -2.85681 0
M  V30 587 H 56.8838 -3.65846 -1.97812 0
M  V30 588 H 55.4608 -2.16401 -3.03685 0
M  V30 589 N 57.6459 0.756429 -1.3826 0
M  V30 590 C 58.5959 1.86069 -1.31766 0
M  V30 591 C 59.5799 1.59621 -0.202483 0
M  V30 592 O 60.7719 1.7149 -0.438211 0
M  V30 593 C 57.9009 3.23742 -1.1422 0
M  V30 594 C 56.9869 3.56091 -2.30348 0
M  V30 595 N 57.3779 3.59517 -3.55783 0
M  V30 596 C 55.6759 3.86341 -2.22838 0
M  V30 597 C 56.3769 3.89052 -4.32451 0
M  V30 598 N 55.3529 4.05736 -3.61772 0
M  V30 599 H 59.1549 1.86992 -2.26741 0
M  V30 600 H 56.6689 0.953643 -1.31451 0
M  V30 601 H 58.6659 4.02761 -1.07652 0
M  V30 602 H 57.3259 3.24073 -0.201763 0
M  V30 603 H 58.3369 3.41347 -3.89491 0
M  V30 604 H 55.0139 3.94404 -1.36937 0
M  V30 605 H 56.4039 3.98349 -5.4108 0
M  V30 606 N 59.124 1.23083 0.984299 0
M  V30 607 C 60.354 1.08556 1.75781 0
M  V30 608 C 60.762 -0.366171 1.85623 0
M  V30 609 O 60.105 -1.26524 1.33182 0
M  V30 610 C 60.167 1.63208 3.20318 0
M  V30 611 C 59.831 3.11922 3.33997 0
M  V30 612 C 60.828 4.09259 3.2063 0
M  V30 613 C 58.513 3.51552 3.58771 0
M  V30 614 C 60.507 5.4421 3.31835 0
M  V30 615 C 58.194 4.86649 3.69616 0
M  V30 616 C 59.192 5.82787 3.56157 0
M  V30 617 O 58.88 7.15431 3.66626 0
M  V30 618 H 58.612 0.380713 0.5586 0
M  V30 619 H 61.166 1.63321 1.2456 0
M  V30 620 H 59.396 1.0286 3.72769 0
M  V30 621 H 61.085 1.44216 3.79416 0
M  V30 622 H 61.851 3.79984 3.01392 0
M  V30 623 H 57.73 2.77239 3.6832 0
M  V30 624 H 61.274 6.1923 3.21247 0
M  V30 625 H 57.171 5.15601 3.88363 0
M  V30 626 H 57.939 7.23127 3.83445 0
M  V30 627 N 60.6021 -1.18246 1.0419 0
M  V30 628 C 61.5651 -2.20128 0.638452 0
M  V30 629 C 62.5651 -1.57885 -0.304805 0
M  V30 630 O 63.7551 -1.73967 -0.0900369 0
M  V30 631 C 60.8871 -3.4084 -0.0637751 0
M  V30 632 H 62.0801 -2.57336 1.54007 0
M  V30 633 H 59.6331 -1.32152 0.834598 0
M  V30 634 H 60.3681 -3.09166 -0.979136 0
M  V30 635 H 60.1531 -3.8726 0.614198 0
M  V30 636 H 61.6431 -4.16274 -0.332512 0
M  V30 637 N 62.0802 -0.821533 -1.34494 0
M  V30 638 C 63.3572 -0.33159 -1.92769 0
M  V30 639 C 63.7372 1.18088 -1.74981 0
M  V30 640 O 63.0852 1.98733 -1.12772 0
M  V30 641 C 63.2952 -0.759398 -3.40638 0
M  V30 642 C 64.6432 -0.757433 -4.1779 0
M  V30 643 O 65.6672 -0.70189 -3.49216 0
M  V30 644 O 64.5262 -0.829361 -5.4017 0
M  V30 645 H 61.6202 -0.0902502 -0.822061 0
M  V30 646 H 64.1662 -0.906231 -1.43477 0
M  V30 647 H 62.9382 -1.8012 -3.47379 0
M  V30 648 H 62.5612 -0.160378 -3.97276 0
M  V30 649 N 63.5583 1.46682 -0.576371 0
M  V30 650 C 64.8043 2.02712 -0.0596221 0
M  V30 651 C 65.1373 1.44765 1.29448 0
M  V30 652 O 64.4123 0.610355 1.84675 0
M  V30 653 C 64.6953 3.60098 0.0129503 0
M  V30 654 C 64.5483 4.28441 -1.3696 0
M  V30 655 C 65.8673 4.34224 0.71678 0
M  V30 656 H 62.9863 0.736637 -0.0231407 0
M  V30 657 H 65.6283 1.74898 -0.742351 0
M  V30 658 H 63.7783 3.83926 0.594378 0
M  V30 659 H 65.4503 4.15896 -1.9957 0
M  V30 660 H 63.6933 3.8805 -1.93907 0
M  V30 661 H 64.3643 5.3716 -1.27135 0
M  V30 662 H 66.8403 4.15503 0.222908 0
M  V30 663 H 65.7163 5.43936 0.73657 0
M  V30 664 H 65.9773 4.04823 1.77682 0
M  V30 665 N 65.0364 0.313813 1.54444 0
M  V30 666 C 66.3134 -0.345447 1.92525 0
M  V30 667 C 66.6934 -1.70667 1.24242 0
M  V30 668 O 66.0414 -2.25273 0.382654 0
M  V30 669 C 66.2514 -0.44737 3.46121 0
M  V30 670 C 67.5994 -0.712238 4.18584 0
M  V30 671 O 68.6234 -0.530678 3.52225 0
M  V30 672 O 67.4824 -1.06183 5.36085 0
M  V30 673 H 64.5764 -0.195407 0.803583 0
M  V30 674 H 67.1224 0.362813 1.65776 0
M  V30 675 H 65.8944 0.509043 3.87975 0
M  V30 676 H 65.5174 -1.20359 3.78945 0
M  V30 677 N 66.5145 -1.57545 0.0417849 0
M  V30 678 C 67.9255 -1.80011 -0.495259 0
M  V30 679 C 68.2765 -0.953199 -1.71489 0
M  V30 680 O 67.4015 -0.167138 -2.15754 0
M  V30 681 C 67.9965 -3.26482 -0.905265 0
M  V30 682 C 66.5555 -3.499 -1.38734 0
M  V30 683 C 65.7025 -2.74979 -0.358056 0
M  V30 684 H 68.6535 -1.56425 0.267736 0
M  V30 685 H 68.6745 -3.36887 -1.76882 0
M  V30 686 H 68.1865 -3.88096 -0.017401 0
M  V30 687 H 66.2875 -2.93553 -2.29471 0
M  V30 688 H 66.4005 -4.58615 -1.38598 0
M  V30 689 H 64.7645 -2.40834 -0.828912 0
M  V30 690 H 65.5475 -3.39315 0.521561 0
M  V30 691 N 67.9926 0.231505 -1.5589 0
M  V30 692 C 68.9026 1.308 -1.94752 0
M  V30 693 C 69.9186 1.51826 -0.849989 0
M  V30 694 O 71.0946 1.6515 -1.15271 0
M  V30 695 C 68.1596 2.63968 -2.24771 0
M  V30 696 C 67.2206 2.51331 -3.48039 0
M  V30 697 C 66.4536 3.78148 -3.76616 0
M  V30 698 O 66.6766 4.80722 -3.07022 0
M  V30 699 O 65.6106 3.75857 -4.70123 0
M  V30 700 H 69.4366 1.0083 -2.86474 0
M  V30 701 H 67.0216 0.433547 -1.42971 0
M  V30 702 H 68.9036 3.42633 -2.45318 0
M  V30 703 H 67.5786 2.9364 -1.36225 0
M  V30 704 H 66.4856 1.709 -3.32782 0
M  V30 705 H 67.8186 2.26601 -4.36936 0
M  V30 706 N 69.4707 1.49531 0.497807 0
M  V30 707 C 70.4187 1.66926 1.61983 0
M  V30 708 C 71.4127 0.535167 1.60724 0
M  V30 709 O 72.6187 0.714896 1.65195 0
M  V30 710 H 68.9937 0.526415 0.537021 0
M  V30 711 H 70.9647 2.61098 1.44465 0
M  V30 712 C 69.7137 1.75602 3.00099 0
M  V30 713 H 69.0367 2.62244 3.01775 0
M  V30 714 H 70.4767 1.91807 3.78135 0
M  V30 715 C 68.9357 0.501543 3.33146 0
M  V30 716 O 69.4657 -0.371342 3.9998 0
M  V30 717 N 67.6717 0.363531 2.88317 0
M  V30 718 H 67.2187 1.07485 2.34104 0
M  V30 719 H 67.1767 -0.474728 3.10795 0
M  V30 720 N 70.9488 -0.749086 1.3866 0
M  V30 721 C 71.8808 -1.87273 1.32142 0
M  V30 722 C 72.8938 -1.61127 0.232787 0
M  V30 723 O 74.0828 -1.71623 0.49069 0
M  V30 724 C 71.1828 -3.23005 1.02571 0
M  V30 725 C 70.3558 -3.7662 2.22433 0
M  V30 726 C 69.4148 -4.90879 1.89537 0
M  V30 727 O 68.4408 -5.05276 2.62078 0
M  V30 728 N 69.6428 -5.74198 0.853031 0
M  V30 729 H 72.4078 -1.93373 2.28969 0
M  V30 730 H 69.9688 -0.929216 1.32579 0
M  V30 731 H 71.9608 -3.96992 0.786085 0
M  V30 732 H 70.5308 -3.12262 0.145249 0
M  V30 733 H 69.7508 -2.94147 2.62434 0
M  V30 734 H 71.0388 -4.09173 3.02415 0
M  V30 735 H 70.4368 -5.6514 0.25155 0
M  V30 736 H 68.9938 -6.48313 0.67329 0
M  V30 737 N 72.4269 -1.23603 -0.977757 0
M  V30 738 C 73.3749 -1.01704 -2.09187 0
M  V30 739 C 74.3689 0.0448214 -1.69341 0
M  V30 740 O 75.5749 -0.108902 -1.7967 0
M  V30 741 H 71.9499 -0.311803 -0.684312 0
M  V30 742 H 73.9209 -1.96207 -2.24823 0
M  V30 743 C 72.6699 -0.627746 -3.41986 0
M  V30 744 H 71.9929 -1.43656 -3.73099 0
M  V30 745 H 73.4329 -0.514053 -4.20872 0
M  V30 746 C 71.8919 0.664238 -3.30287 0
M  V30 747 O 72.4219 1.71268 -3.6336 0
M  V30 748 N 70.6279 0.641156 -2.83439 0
M  V30 749 H 70.1749 -0.212376 -2.56723 0
M  V30 750 H 70.1329 1.50583 -2.75993 0
M  V30 751 N 73.905 1.17692 -1.04816 0
M  V30 752 C 75.152 1.87859 -0.75599 0
M  V30 753 C 75.48 1.80812 0.716752 0
M  V30 754 O 74.735 1.20819 1.53952 0
M  V30 755 C 75.034 3.37462 -1.17703 0
M  V30 756 C 74.7 3.64713 -2.65133 0
M  V30 757 C 73.362 3.71859 -3.05408 0
M  V30 758 C 75.714 3.76492 -3.60421 0
M  V30 759 C 73.042 3.88271 -4.39843 0
M  V30 760 C 75.394 3.94421 -4.94585 0
M  V30 761 C 74.058 3.99806 -5.3452 0
M  V30 762 H 73.328 0.687425 -0.276636 0
M  V30 763 H 75.975 1.39255 -1.31455 0
M  V30 764 H 74.28 3.88097 -0.537395 0
M  V30 765 H 75.977 3.90109 -0.928218 0
M  V30 766 H 72.567 3.59772 -2.32942 0
M  V30 767 H 76.751 3.70295 -3.30447 0
M  V30 768 H 72.007 3.90687 -4.70291 0
M  V30 769 H 76.181 4.02477 -5.68318 0
M  V30 770 H 73.808 4.12276 -6.38696 0
M  V30 771 N 75.3831 0.828654 1.34056 0
M  V30 772 C 76.3131 0.269443 2.3194 0
M  V30 773 C 77.2941 -0.617247 1.58506 0
M  V30 774 O 78.4791 -0.542931 1.86456 0
M  V30 775 C 75.6091 -0.564793 3.42677 0
M  V30 776 C 74.5631 0.225241 4.27407 0
M  V30 777 C 73.8891 -0.7321 5.29664 0
M  V30 778 C 75.1891 1.43663 5.02154 0
M  V30 779 H 76.8831 1.08728 2.7896 0
M  V30 780 H 74.4291 0.524283 1.34117 0
M  V30 781 H 76.3821 -0.966233 4.10173 0
M  V30 782 H 75.1061 -1.41574 2.9432 0
M  V30 783 H 73.7651 0.608117 3.61521 0
M  V30 784 H 73.4131 -1.57916 4.77568 0
M  V30 785 H 73.1131 -0.20767 5.87233 0
M  V30 786 H 74.6371 -1.13128 6.00029 0
M  V30 787 H 76.0511 1.1089 5.62473 0
M  V30 788 H 74.4481 1.89711 5.69324 0
M  V30 789 H 75.5181 2.21181 4.31517 0
M  V30 790 N 76.8612 -1.46375 0.584142 0
M  V30 791 C 77.7912 -2.33103 -0.136037 0
M  V30 792 C 78.7722 -1.45431 -0.882255 0
M  V30 793 O 79.9572 -1.74246 -0.857434 0
M  V30 794 C 77.0872 -3.27731 -1.14933 0
M  V30 795 C 76.0412 -4.24855 -0.517862 0
M  V30 796 C 75.3672 -5.09001 -1.63773 0
M  V30 797 C 76.6672 -5.19439 0.545886 0
M  V30 798 H 78.3612 -2.93568 0.588086 0
M  V30 799 H 75.9072 -1.41166 0.284259 0
M  V30 800 H 77.8602 -3.87261 -1.66153 0
M  V30 801 H 76.5842 -2.65377 -1.90375 0
M  V30 802 H 75.2432 -3.6659 -0.0267361 0
M  V30 803 H 74.8912 -4.43031 -2.38185 0
M  V30 804 H 74.5912 -5.74777 -1.22085 0
M  V30 805 H 76.1152 -5.71396 -2.15266 0
M  V30 806 H 77.5292 -5.73177 0.118704 0
M  V30 807 H 75.9262 -5.93566 0.88317 0
M  V30 808 H 76.9962 -4.63285 1.43162 0
M  V30 809 N 78.3393 -0.321999 -1.54275 0
M  V30 810 C 79.2493 0.553631 -2.27974 0
M  V30 811 C 80.2653 1.13054 -1.32268 0
M  V30 812 O 81.4413 1.15084 -1.6528 0
M  V30 813 C 78.5063 1.69927 -3.02201 0
M  V30 814 C 77.5673 1.15433 -4.1349 0
M  V30 815 C 76.8003 2.24537 -4.84168 0
M  V30 816 O 77.0233 3.44852 -4.5435 0
M  V30 817 O 75.9573 1.90044 -5.7111 0
M  V30 818 H 79.7833 -0.0448345 -3.03667 0
M  V30 819 H 77.3683 -0.0877418 -1.49142 0
M  V30 820 H 79.2503 2.3663 -3.48689 0
M  V30 821 H 77.9253 2.28395 -2.29385 0
M  V30 822 H 76.8323 0.452436 -3.71354 0
M  V30 823 H 78.1653 0.614805 -4.88345 0
M  V30 824 N 79.8174 1.5752 -0.0501392 0
M  V30 825 C 81.0424 1.97376 0.636997 0
M  V30 826 C 81.4674 0.927466 1.63645 0
M  V30 827 O 80.8254 -0.10941 1.8097 0
M  V30 828 C 80.8734 3.36304 1.30123 0
M  V30 829 O 79.9774 3.34156 2.41689 0
M  V30 830 H 79.3184 0.642998 0.165679 0
M  V30 831 H 81.8484 2.04258 -0.118233 0
M  V30 832 H 81.8584 3.73008 1.65315 0
M  V30 833 H 80.5334 4.11993 0.568746 0
M  V30 834 H 79.1104 3.09196 2.08451 0
M  V30 835 N 81.2955 -0.223234 1.56011 0
M  V30 836 C 82.2435 -1.29627 1.93131 0
M  V30 837 C 83.2375 -1.48608 0.813146 0
M  V30 838 O 84.4435 -1.49802 0.997966 0
M  V30 839 H 80.8185 -0.434563 0.613726 0
M  V30 840 H 82.7895 -0.955995 2.82672 0
M  V30 841 C 81.5385 -2.63983 2.26292 0
M  V30 842 H 80.8615 -2.50185 3.11846 0
M  V30 843 H 82.3015 -3.3788 2.56151 0
M  V30 844 C 80.7605 -3.18866 1.08747 0
M  V30 845 O 81.2905 -4.00192 0.347727 0
M  V30 846 N 79.4965 -2.77217 0.871743 0
M  V30 847 H 79.0435 -2.1119 1.47501 0
M  V30 848 H 79.0015 -3.1428 0.0869905 0
M  V30 849 N 82.7736 -1.49793 -0.48987 0
M  V30 850 C 83.7036 -1.70201 -1.59856 0
M  V30 851 C 84.6846 -0.55076 -1.60937 0
M  V30 852 O 85.8696 -0.787841 -1.77501 0
M  V30 853 C 82.9996 -1.77882 -2.98287 0
M  V30 854 C 81.9536 -2.92907 -3.12073 0
M  V30 855 C 81.2796 -2.85712 -4.51965 0
M  V30 856 C 82.5796 -4.3369 -2.91051 0
M  V30 857 H 84.2736 -2.63025 -1.43032 0
M  V30 858 H 81.8196 -1.26574 -0.686664 0
M  V30 859 H 83.7726 -1.90744 -3.75759 0
M  V30 860 H 82.4966 -0.816653 -3.16225 0
M  V30 861 H 81.1556 -2.79665 -2.37029 0
M  V30 862 H 80.8036 -1.8738 -4.66795 0
M  V30 863 H 80.5036 -3.62921 -4.62128 0
M  V30 864 H 82.0276 -3.00598 -5.31482 0
M  V30 865 H 83.4416 -4.47555 -3.58284 0
M  V30 866 H 81.8386 -5.12205 -3.12675 0
M  V30 867 H 82.9086 -4.47362 -1.87071 0
M  V30 868 N 84.2517 0.741722 -1.39055 0
M  V30 869 C 85.4997 1.49818 -1.35643 0
M  V30 870 C 85.8207 1.94938 0.0491642 0
M  V30 871 O 85.0907 1.68505 0.999141 0
M  V30 872 H 83.6707 0.555755 -0.499144 0
M  V30 873 H 86.3327 0.880957 -1.73854 0
M  V30 874 H 85.4287 2.38348 -2.01486 0
M  V30 875 N 85.7298 1.2412 0.971189 0
M  V30 876 C 86.6768 1.0305 2.06517 0
M  V30 877 C 87.6468 -0.0550666 1.66009 0
M  V30 878 O 88.8318 0.0988688 1.90544 0
M  V30 879 C 85.9718 0.637653 3.39158 0
M  V30 880 C 85.0848 1.79633 3.92882 0
M  V30 881 C 84.2198 1.34939 5.13775 0
M  V30 882 C 83.2588 2.47823 5.59687 0
M  V30 883 N 82.3958 2.04022 6.71803 0
M  V30 884 H 87.2358 1.96685 2.23873 0
M  V30 885 H 84.7728 0.979694 1.09729 0
M  V30 886 H 86.7308 0.390931 4.15364 0
M  V30 887 H 85.3608 -0.261693 3.21737 0
M  V30 888 H 84.4128 2.15681 3.13346 0
M  V30 889 H 85.7248 2.64466 4.22918 0
M  V30 890 H 84.8788 1.06134 5.97345 0
M  V30 891 H 83.6178 0.471557 4.85415 0
M  V30 892 H 82.6228 2.77392 4.74693 0
M  V30 893 H 83.8478 3.36158 5.90063 0
M  V30 894 H 81.7938 1.18632 6.45184 0
M  V30 895 H 81.7108 2.82409 7.01271 0
M  V30 896 H 82.9788 1.78347 7.58823 0
M  V30 897 N 87.2079 -1.17134 1.05439 0
M  V30 898 C 88.1549 -2.21235 0.657539 0
M  V30 899 C 89.1249 -1.62551 -0.341543 0
M  V30 900 O 90.3099 -1.89379 -0.232393 0
M  V30 901 C 87.4499 -3.45076 0.0410575 0
M  V30 902 C 86.5629 -4.18042 1.08927 0
M  V30 903 C 85.6979 -5.29376 0.439848 0
M  V30 904 C 84.7369 -5.94132 1.4722 0
M  V30 905 N 83.8739 -6.96975 0.846756 0
M  V30 906 H 88.7139 -2.54534 1.54972 0
M  V30 907 H 86.2509 -1.25028 0.775006 0
M  V30 908 H 88.2089 -4.15862 -0.33383 0
M  V30 909 H 86.8389 -3.12353 -0.814568 0
M  V30 910 H 85.8909 -3.45945 1.58196 0
M  V30 911 H 87.2029 -4.62306 1.87282 0
M  V30 912 H 86.3569 -6.06699 0.0115125 0
M  V30 913 H 85.0959 -4.86251 -0.375656 0
M  V30 914 H 84.1009 -5.15538 1.91052 0
M  V30 915 H 85.3259 -6.39337 2.28965 0
M  V30 916 H 83.2719 -6.5598 0.0518075 0
M  V30 917 H 83.1889 -7.39565 1.5678 0
M  V30 918 H 84.4569 -7.78239 0.443277 0
M  V30 919 N 88.686 -0.835752 -1.33615 0
M  V30 920 C 89.633 -0.26473 -2.29277 0
M  V30 921 C 90.603 0.617712 -1.54187 0
M  V30 922 O 91.788 0.556641 -1.825 0
M  V30 923 C 88.928 0.556777 -3.40579 0
M  V30 924 C 88.041 -0.349339 -4.30585 0
M  V30 925 C 87.176 0.482969 -5.29 0
M  V30 926 C 86.215 -0.421732 -6.10645 0
M  V30 927 N 85.352 0.372262 -7.01112 0
M  V30 928 H 90.192 -1.08582 -2.77514 0
M  V30 929 H 87.729 -0.546927 -1.36554 0
M  V30 930 H 89.687 1.04852 -4.03809 0
M  V30 931 H 88.317 1.34286 -2.93542 0
M  V30 932 H 87.369 -0.959372 -3.68104 0
M  V30 933 H 88.681 -1.04445 -4.87742 0
M  V30 934 H 87.835 1.03866 -5.97743 0
M  V30 935 H 86.574 1.21153 -4.72412 0
M  V30 936 H 85.579 -0.989464 -5.40823 0
M  V30 937 H 86.804 -1.14861 -6.69316 0
M  V30 938 H 84.75 1.08426 -6.46977 0
M  V30 939 H 84.667 -0.264198 -7.55538 0
M  V30 940 H 85.935 0.910293 -7.74167 0
M  V30 941 N 90.1641 1.46063 -0.591896 0
M  V30 942 C 91.3941 2.06418 -0.0867676 0
M  V30 943 C 91.8021 1.43975 1.22751 0
M  V30 944 O 91.1451 0.542531 1.75506 0
M  V30 945 C 91.2071 3.59213 0.143725 0
M  V30 946 C 90.8711 4.439 -1.08635 0
M  V30 947 C 91.8681 4.79864 -2.00067 0
M  V30 948 C 89.5531 4.84896 -1.31077 0
M  V30 949 C 91.5471 5.55661 -3.12282 0
M  V30 950 C 89.2341 5.6045 -2.43596 0
M  V30 951 C 90.2321 5.95747 -3.34027 0
M  V30 952 O 89.9201 6.69772 -4.4459 0
M  V30 953 H 89.6521 0.673443 -0.0587447 0
M  V30 954 H 92.2061 1.88539 -0.814994 0
M  V30 955 H 90.4361 3.75433 0.926668 0
M  V30 956 H 92.1251 4.01463 0.5985 0
M  V30 957 H 92.8911 4.48763 -1.83947 0
M  V30 958 H 88.7701 4.56867 -0.61594 0
M  V30 959 H 92.3141 5.8313 -3.82891 0
M  V30 960 H 88.2111 5.90965 -2.59674 0
M  V30 961 H 88.9791 6.88207 -4.43073 0
M  V30 962 N 91.6422 0.330177 1.54103 0
M  V30 963 C 92.5522 -0.541534 2.28264 0
M  V30 964 C 93.5682 -1.12351 1.32866 0
M  V30 965 O 94.7442 -1.14206 1.65888 0
M  V30 966 C 91.8092 -1.68322 3.03098 0
M  V30 967 C 90.8702 -1.13238 4.14096 0
M  V30 968 C 90.1032 -2.21966 4.85352 0
M  V30 969 O 90.3262 -3.42437 4.56172 0
M  V30 970 O 89.2602 -1.87013 5.7211 0
M  V30 971 H 93.0862 0.060938 3.03639 0
M  V30 972 H 90.6712 0.09565 1.49093 0
M  V30 973 H 92.5532 -2.34777 3.49939 0
M  V30 974 H 91.2282 -2.27176 2.30593 0
M  V30 975 H 90.1352 -0.432736 3.71589 0
M  V30 976 H 91.4682 -0.588898 4.88664 0
M  V30 977 N 93.1203 -1.57491 0.0584922 0
M  V30 978 C 94.3483 -1.97296 -0.623037 0
M  V30 979 C 94.7633 -0.936338 -1.63946 0
M  V30 980 O 94.1203 0.0785981 -1.82331 0
M  V30 981 C 94.1713 -3.37183 -1.30345 0
M  V30 982 O 93.8923 -4.36872 -0.32773 0
M  V30 983 C 95.3933 -3.91788 -2.07406 0
M  V30 984 H 92.6133 -0.649153 -0.169826 0
M  V30 985 H 95.1573 -2.04106 0.12696 0
M  V30 986 H 93.3123 -3.31502 -2.00463 0
M  V30 987 H 93.7263 -5.18141 -0.814269 0
M  V30 988 H 95.2003 -4.91926 -2.50425 0
M  V30 989 H 95.6773 -3.27609 -2.92521 0
M  V30 990 H 96.2833 -4.00829 -1.42184 0
M  V30 991 N 94.5984 0.214957 -1.56127 0
M  V30 992 C 95.5084 1.28727 -1.96129 0
M  V30 993 C 96.5244 1.50916 -0.866044 0
M  V30 994 O 97.7004 1.63918 -1.17016 0
M  V30 995 C 94.7654 2.61569 -2.27558 0
M  V30 996 C 93.8264 2.47625 -3.50685 0
M  V30 997 C 93.0594 3.74132 -3.80606 0
M  V30 998 O 93.2824 4.77438 -3.12104 0
M  V30 999 O 92.2164 3.70849 -4.74083 0
M  V30 1000 H 96.0424 0.977855 -2.87527 0
M  V30 1001 H 93.6274 0.418358 -1.43423 0
M  V30 1002 H 95.5094 3.40012 -2.48938 0
M  V30 1003 H 94.1844 2.92178 -1.39332 0
M  V30 1004 H 93.0914 1.67361 -3.34576 0
M  V30 1005 H 94.4244 2.21954 -4.39315 0
M  V30 1006 N 96.0765 1.50051 0.48192 0
M  V30 1007 C 97.3235 1.60498 1.23477 0
M  V30 1008 C 97.6515 0.300331 1.92167 0
M  V30 1009 O 96.9065 -0.713094 1.82246 0
M  V30 1010 C 97.2055 2.72717 2.30998 0
M  V30 1011 C 96.8715 4.13572 1.79636 0
M  V30 1012 C 95.5335 4.519 1.65348 0
M  V30 1013 C 97.8855 5.01649 1.41412 0
M  V30 1014 C 95.2135 5.76057 1.11244 0
M  V30 1015 C 97.5655 6.26343 0.887538 0
M  V30 1016 C 96.2295 6.63483 0.731207 0
M  V30 1017 H 95.4995 0.587303 0.451836 0
M  V30 1018 H 98.1465 1.83948 0.532468 0
M  V30 1019 H 96.4515 2.43312 3.07094 0
M  V30 1020 H 98.1485 2.78006 2.88988 0
M  V30 1021 H 94.7385 3.83329 1.91721 0
M  V30 1022 H 98.9225 4.72679 1.51289 0
M  V30 1023 H 94.1785 6.03516 0.978686 0
M  V30 1024 H 98.3525 6.93958 0.582654 0
M  V30 1025 H 95.9795 7.59568 0.309806 0
M  V30 1026 N 97.5546 -0.734337 1.39446 0
M  V30 1027 C 98.5046 -1.83949 1.34709 0
M  V30 1028 C 99.4886 -1.59279 0.227851 0
M  V30 1029 O 100.681 -1.70771 0.465438 0
M  V30 1030 C 97.8096 -3.21884 1.19356 0
M  V30 1031 C 96.8956 -3.52381 2.35984 0
M  V30 1032 N 97.2866 -3.53811 3.61457 0
M  V30 1033 C 95.5846 -3.82747 2.28956 0
M  V30 1034 C 96.2856 -3.82122 4.38586 0
M  V30 1035 N 95.2616 -3.9993 3.68181 0
M  V30 1036 H 99.0636 -1.83361 2.29687 0
M  V30 1037 H 96.5776 -0.932609 1.32952 0
M  V30 1038 H 98.5746 -4.00998 1.14046 0
M  V30 1039 H 97.2346 -3.23711 0.253295 0
M  V30 1040 H 98.2456 -3.35107 3.94872 0
M  V30 1041 H 94.9226 -3.92175 1.43194 0
M  V30 1042 H 96.3126 -3.89691 5.47349 0
M  V30 1043 N 99.0327 -1.24633 -0.964593 0
M  V30 1044 C 100.444 -1.08045 -1.5226 0
M  V30 1045 C 100.795 0.347116 -1.93105 0
M  V30 1046 O 99.9197 1.23588 -1.77637 0
M  V30 1047 C 100.515 -1.95514 -2.76695 0
M  V30 1048 C 99.0737 -1.8314 -3.28841 0
M  V30 1049 C 98.2207 -1.90262 -2.01732 0
M  V30 1050 H 101.172 -1.38064 -0.782553 0
M  V30 1051 H 101.193 -1.48925 -3.50145 0
M  V30 1052 H 100.705 -2.99407 -2.46936 0
M  V30 1053 H 98.8057 -0.82092 -3.63444 0
M  V30 1054 H 98.9187 -2.67406 -3.97531 0
M  V30 1055 H 97.2827 -1.34027 -2.16584 0
M  V30 1056 H 98.0657 -2.9574 -1.74334 0
M  V30 1057 N 100.511 1.16574 -1.06058 0
M  V30 1058 C 101.759 1.86677 -0.77434 0
M  V30 1059 C 102.08 1.81959 0.701147 0
M  V30 1060 O 101.35 1.2515 1.50713 0
M  V30 1061 H 99.9298 0.691134 -0.283449 0
M  V30 1062 H 102.592 1.41378 -1.34158 0
M  V30 1063 H 101.688 2.92181 -1.09711 0
M  V30 1064 N 101.989 0.842826 1.3317 0
M  V30 1065 C 103.217 0.454055 2.01856 0
M  V30 1066 C 103.632 -0.94587 1.63397 0
M  V30 1067 O 102.989 -1.61534 0.849302 0
M  V30 1068 C 103.04 0.569715 3.56982 0
M  V30 1069 O 102.761 1.91448 3.94055 0
M  V30 1070 C 104.262 0.178412 4.42941 0
M  V30 1071 H 101.482 0.17979 0.646465 0
M  V30 1072 H 104.026 1.1365 1.70012 0
M  V30 1073 H 102.181 -0.0648587 3.87346 0
M  V30 1074 H 102.595 1.90282 4.88767 0
M  V30 1075 H 104.069 0.310376 5.51127 0
M  V30 1076 H 104.546 -0.880056 4.30293 0
M  V30 1077 H 105.152 0.787579 4.17944 0
M  V30 1078 N 103.467 -1.45747 0.599634 0
M  V30 1079 C 104.695 -2.06668 0.0978551 0
M  V30 1080 C 105.11 -1.44562 -1.21439 0
M  V30 1081 O 104.467 -0.556923 -1.73795 0
M  V30 1082 C 104.518 -3.61456 -0.0567044 0
M  V30 1083 O 104.239 -4.21242 1.20361 0
M  V30 1084 C 105.74 -4.39345 -0.590869 0
M  V30 1085 H 102.96 -0.667825 0.0651943 0
M  V30 1086 H 105.504 -1.87115 0.82511 0
M  V30 1087 H 103.659 -3.80378 -0.734251 0
M  V30 1088 H 104.073 -5.14323 1.02821 0
M  V30 1089 H 105.547 -5.48182 -0.648131 0
M  V30 1090 H 106.024 -4.08568 -1.61147 0
M  V30 1091 H 106.63 -4.25268 0.0523679 0
M  V30 1092 N 104.945 -0.338344 -1.53925 0
M  V30 1093 C 106.17 0.263987 -2.05713 0
M  V30 1094 C 106.595 1.43847 -1.21201 0
M  V30 1095 O 105.953 1.79904 -0.224535 0
M  V30 1096 C 106.001 0.662 -3.54471 0
M  V30 1097 O 105.105 1.76265 -3.72833 0
M  V30 1098 H 104.446 0.0448722 -0.662482 0
M  V30 1099 H 106.976 -0.491048 -1.9862 0
M  V30 1100 H 106.986 0.940594 -3.9701 0
M  V30 1101 H 105.661 -0.196937 -4.15433 0
M  V30 1102 H 104.238 1.48173 -3.42198 0
M  V30 1103 N 106.423 1.57458 -0.0668435 0
M  V30 1104 C 107.67 1.93301 0.603406 0
M  V30 1105 C 107.998 0.946486 1.69917 0
M  V30 1106 O 107.253 -0.0387021 1.95662 0
M  V30 1107 C 107.552 3.35784 1.22409 0
M  V30 1108 C 107.218 4.50179 0.254955 0
M  V30 1109 C 105.88 4.81199 -0.0116746 0
M  V30 1110 C 108.232 5.19598 -0.408338 0
M  V30 1111 C 105.56 5.78978 -0.94877 0
M  V30 1112 C 107.912 6.18381 -1.33372 0
M  V30 1113 C 106.576 6.47821 -1.60887 0
M  V30 1114 H 105.846 0.707338 0.220802 0
M  V30 1115 H 108.493 1.91012 -0.136665 0
M  V30 1116 H 106.798 3.34515 2.03978 0
M  V30 1117 H 108.495 3.60804 1.74989 0
M  V30 1118 H 105.085 4.25983 0.472954 0
M  V30 1119 H 109.269 4.95832 -0.215456 0
M  V30 1120 H 104.525 6.00115 -1.16925 0
M  V30 1121 H 108.699 6.71277 -1.85367 0
M  V30 1122 H 106.326 7.23399 -2.33661 0
M  V30 1123 N 107.901 -0.206675 1.56239 0
M  V30 1124 C 109.149 -0.927007 1.79586 0
M  V30 1125 C 109.47 -1.8427 0.637929 0
M  V30 1126 O 108.74 -1.92849 -0.344398 0
M  V30 1127 H 107.32 -0.345292 0.662407 0
M  V30 1128 H 109.982 -0.21496 1.93711 0
M  V30 1129 H 109.078 -1.52501 2.72305 0
M  V30 1130 N 109.379 -1.50304 -0.473955 0
M  V30 1131 C 110.312 -1.63595 -1.59097 0
M  V30 1132 C 111.29 -0.484142 -1.55225 0
M  V30 1133 O 112.474 -0.703271 -1.7489 0
M  V30 1134 C 109.601 -1.61589 -2.97669 0
M  V30 1135 C 108.647 -2.82295 -3.19705 0
M  V30 1136 S 109.48 -4.43635 -2.99913 0
M  V30 1137 C 110.636 -4.44317 -4.40832 0
M  V30 1138 H 110.869 -2.58082 -1.47583 0
M  V30 1139 H 108.402 -1.39531 -0.661087 0
M  V30 1140 H 110.36 -1.61116 -3.7756 0
M  V30 1141 H 109.021 -0.683421 -3.06575 0
M  V30 1142 H 108.214 -2.77188 -4.20931 0
M  V30 1143 H 107.816 -2.8032 -2.47582 0
M  V30 1144 H 110.108 -4.17703 -5.33414 0
M  V30 1145 H 111.051 -5.45911 -4.50984 0
M  V30 1146 H 111.459 -3.74059 -4.22777 0
M  V30 1147 N 110.857 0.726932 -1.39834 0
M  V30 1148 C 112.082 1.52121 -1.40976 0
M  V30 1149 C 112.507 1.88098 -0.00826029 0
M  V30 1150 O 111.865 1.52479 0.980807 0
M  V30 1151 C 111.913 2.78021 -2.29644 0
M  V30 1152 O 111.017 3.74272 -1.73188 0
M  V30 1153 H 110.358 0.45908 -0.479731 0
M  V30 1154 H 112.888 0.896207 -1.83927 0
M  V30 1155 H 112.898 3.26671 -2.44438 0
M  V30 1156 H 111.573 2.51169 -3.31492 0
M  V30 1157 H 110.15 3.33073 -1.6768 0
M  V30 1158 N 112.336 1.25143 0.95797 0
M  V30 1159 C 113.582 1.09855 1.70469 0
M  V30 1160 C 113.915 -0.360187 1.90831 0
M  V30 1161 O 113.19 -1.26568 1.47685 0
M  V30 1162 C 113.473 1.8497 3.08963 0
M  V30 1163 C 113.326 3.38652 2.96032 0
M  V30 1164 C 114.645 1.63016 4.08795 0
M  V30 1165 H 111.764 0.400465 0.618706 0
M  V30 1166 H 114.406 1.53933 1.11376 0
M  V30 1167 H 112.556 1.47505 3.59409 0
M  V30 1168 H 114.228 3.85772 2.52938 0
M  V30 1169 H 112.471 3.66534 2.32025 0
M  V30 1170 H 113.142 3.8642 3.94187 0
M  V30 1171 H 115.618 1.95625 3.67247 0
M  V30 1172 H 114.494 2.18015 5.03747 0
M  V30 1173 H 114.755 0.570692 4.38401 0
M  V30 1174 N 113.814 -1.1601 1.06675 0
M  V30 1175 C 115.061 -1.86633 0.785781 0
M  V30 1176 C 115.389 -1.81929 -0.687896 0
M  V30 1177 O 114.644 -1.23253 -1.52011 0
M  V30 1178 C 114.943 -3.35547 1.23057 0
M  V30 1179 C 114.609 -3.60448 2.70902 0
M  V30 1180 C 113.271 -3.66954 3.11285 0
M  V30 1181 C 115.623 -3.7071 3.66365 0
M  V30 1182 C 112.951 -3.81225 4.45965 0
M  V30 1183 C 115.303 -3.86503 5.00797 0
M  V30 1184 C 113.967 -3.91252 5.40813 0
M  V30 1185 H 113.237 -0.682937 0.287538 0
M  V30 1186 H 115.884 -1.37146 1.33654 0
M  V30 1187 H 114.189 -3.87193 0.59907 0
M  V30 1188 H 115.886 -3.88583 0.990163 0
M  V30 1189 H 112.476 -3.56021 2.38636 0
M  V30 1190 H 116.66 -3.64991 3.36296 0
M  V30 1191 H 111.916 -3.83155 4.76447 0
M  V30 1192 H 116.09 -3.93385 5.74649 0
M  V30 1193 H 113.717 -4.02062 6.45174 0
M  V30 1194 N 115.292 -0.849877 -1.32721 0
M  V30 1195 C 116.24 -0.279745 -2.30912 0
M  V30 1196 C 117.234 0.594278 -1.58634 0
M  V30 1197 O 118.44 0.482613 -1.73409 0
M  V30 1198 H 114.815 -0.0717521 -0.748569 0
M  V30 1199 H 116.786 -1.12222 -2.76494 0
M  V30 1200 C 115.535 0.521108 -3.43773 0
M  V30 1201 H 114.858 -0.142141 -3.99547 0
M  V30 1202 H 116.298 0.885693 -4.14646 0
M  V30 1203 C 114.757 1.70442 -2.90605 0
M  V30 1204 O 115.287 2.8034 -2.87702 0
M  V30 1205 N 113.493 1.52991 -2.47067 0
M  V30 1206 H 113.04 0.635914 -2.49628 0
M  V30 1207 H 112.998 2.32311 -2.11847 0
M  V30 1208 N 116.77 1.45427 -0.607355 0
M  V30 1209 C 117.7 2.3329 0.0989352 0
M  V30 1210 C 118.681 1.46816 0.859007 0
M  V30 1211 O 119.866 1.75588 0.829604 0
M  V30 1212 C 116.996 3.29518 1.09705 0
M  V30 1213 C 115.95 4.25626 0.450206 0
M  V30 1214 C 115.276 5.11542 1.55655 0
M  V30 1215 C 116.576 5.18505 -0.628455 0
M  V30 1216 H 118.27 2.92595 -0.634716 0
M  V30 1217 H 115.816 1.40696 -0.306681 0
M  V30 1218 H 117.769 3.89855 1.59971 0
M  V30 1219 H 116.493 2.68372 1.86129 0
M  V30 1220 H 115.152 3.66586 -0.0315886 0
M  V30 1221 H 114.8 4.46765 2.31107 0
M  V30 1222 H 114.5 5.76647 1.12925 0
M  V30 1223 H 116.024 5.74748 2.06148 0
M  V30 1224 H 117.438 5.72916 -0.209877 0
M  V30 1225 H 115.835 5.92085 -0.977489 0
M  V30 1226 H 116.905 4.60948 -1.50514 0
M  V30 1227 N 118.248 0.346503 1.53744 0
M  V30 1228 C 119.473 -0.253074 2.0585 0
M  V30 1229 C 119.898 -1.43202 1.21962 0
M  V30 1230 O 119.256 -1.79783 0.234073 0
M  V30 1231 C 119.304 -0.643193 3.54817 0
M  V30 1232 O 118.408 -1.74286 3.73762 0
M  V30 1233 H 117.749 -0.0413583 0.662711 0
M  V30 1234 H 120.279 0.501574 1.98357 0
M  V30 1235 H 120.289 -0.919526 3.97503 0
M  V30 1236 H 118.964 0.218966 4.15323 0
M  V30 1237 H 117.541 -1.46356 3.42979 0
M  V30 1238 N 119.726 -1.57421 0.075193 0
M  V30 1239 C 120.674 -2.14124 -0.908508 0
M  V30 1240 C 121.668 -1.07898 -1.30592 0
M  V30 1241 O 122.874 -1.26273 -1.28277 0
M  V30 1242 H 119.249 -0.684707 -0.310935 0
M  V30 1243 H 121.22 -2.95634 -0.405374 0
M  V30 1244 C 119.969 -2.72044 -2.16535 0
M  V30 1245 H 119.292 -3.53456 -1.86839 0
M  V30 1246 H 120.732 -3.15311 -2.83469 0
M  V30 1247 C 119.191 -1.66968 -2.92615 0
M  V30 1248 O 119.721 -1.0967 -3.86439 0
M  V30 1249 N 117.927 -1.37923 -2.55784 0
M  V30 1250 H 117.474 -1.84706 -1.79559 0
M  V30 1251 H 117.432 -0.67852 -3.06991 0
M  V30 1252 N 121.204 0.198386 -1.56346 0
M  V30 1253 C 122.167 1.22952 -1.93431 0
M  V30 1254 C 123.167 1.38611 -0.815092 0
M  V30 1255 O 124.357 1.36479 -1.08255 0
M  V30 1256 C 121.489 2.59946 -2.20546 0
M  V30 1257 H 122.682 0.912626 -2.85677 0
M  V30 1258 H 120.235 0.43977 -1.49986 0
M  V30 1259 H 120.97 2.96696 -1.30927 0
M  V30 1260 H 120.755 2.49953 -3.02102 0
M  V30 1261 H 122.245 3.3431 -2.50253 0
M  V30 1262 N 122.682 1.50554 0.465978 0
M  V30 1263 C 123.931 1.61038 1.21448 0
M  V30 1264 C 124.244 0.31865 1.92987 0
M  V30 1265 O 125.45 0.302469 2.6981 0
M  V30 1266 C 123.906 2.84283 2.20706 0
M  V30 1267 C 123.514 4.20352 1.54946 0
M  V30 1268 C 125.258 3.04115 2.96166 0
M  V30 1269 C 123.165 5.34778 2.5252 0
M  V30 1270 H 122.095 0.599718 0.457005 0
M  V30 1271 H 124.746 1.7699 0.484424 0
M  V30 1272 H 123.128 2.61901 2.97025 0
M  V30 1273 H 124.302 4.53008 0.843811 0
M  V30 1274 H 122.617 4.06167 0.917475 0
M  V30 1275 H 125.214 3.86774 3.69202 0
M  V30 1276 H 125.557 2.16045 3.55852 0
M  V30 1277 H 126.09 3.26702 2.26959 0
M  V30 1278 H 122.829 6.25018 1.97566 0
M  V30 1279 H 122.349 5.06534 3.21222 0
M  V30 1280 H 124.028 5.65561 3.14245 0
M  V30 1281 N 124.16 -0.719506 1.40217 0
M  V30 1282 C 125.406 -1.48152 1.38488 0
M  V30 1283 C 125.739 -1.94195 -0.0141867 0
M  V30 1284 O 125.014 -1.67884 -0.982096 0
M  V30 1285 C 125.297 -2.71035 2.37091 0
M  V30 1286 C 125.15 -2.30912 3.86005 0
M  V30 1287 C 126.469 -3.73182 2.33288 0
M  V30 1288 H 123.588 -0.537395 0.504357 0
M  V30 1289 H 126.23 -0.821472 1.71324 0
M  V30 1290 H 124.38 -3.27352 2.0922 0
M  V30 1291 H 126.052 -1.80107 4.24687 0
M  V30 1292 H 124.295 -1.62958 4.02029 0
M  V30 1293 H 124.966 -3.18978 4.50508 0
M  V30 1294 H 127.442 -3.26485 2.57966 0
M  V30 1295 H 126.318 -4.56806 3.04334 0
M  V30 1296 H 126.579 -4.21202 1.34317 0
M  V30 1297 N 125.638 -1.25649 -0.95132 0
M  V30 1298 C 126.886 -1.10375 -1.69298 0
M  V30 1299 C 127.207 0.355339 -1.91735 0
M  V30 1300 O 126.477 1.25188 -1.50681 0
M  V30 1301 H 125.057 -0.405461 -0.627384 0
M  V30 1302 H 127.719 -1.57823 -1.14358 0
M  V30 1303 H 126.815 -1.61465 -2.67087 0
M  V30 1304 N 127.117 1.15442 -1.07289 0
M  V30 1305 C 128.342 1.90638 -0.816828 0
M  V30 1306 C 128.767 1.77445 0.624083 0
M  V30 1307 O 128.125 1.10671 1.43602 0
M  V30 1308 C 128.173 3.39008 -1.22906 0
M  V30 1309 O 127.277 4.10701 -0.373975 0
M  V30 1310 H 126.618 0.593555 -0.297638 0
M  V30 1311 H 129.148 1.46198 -1.43134 0
M  V30 1312 H 129.158 3.89801 -1.20497 0
M  V30 1313 H 127.833 3.47929 -2.27856 0
M  V30 1314 H 126.41 3.70046 -0.460499 0
M  V30 1315 N 128.595 0.856903 1.32268 0
M  V30 1316 C 129.843 0.460474 1.96784 0
M  V30 1317 C 130.164 -0.987701 1.68135 0
M  V30 1318 O 129.434 -1.69058 0.989765 0
M  V30 1319 H 128.014 0.167289 0.728027 0
M  V30 1320 H 130.676 1.09383 1.61312 0
M  V30 1321 H 129.772 0.60739 3.06133 0
M  V30 1322 N 130.073 -1.45103 0.615059 0
M  V30 1323 C 131.322 -2.01396 0.110718 0
M  V30 1324 C 131.635 -1.48834 -1.26916 0
M  V30 1325 O 132.841 -1.97152 -1.86664 0
M  V30 1326 C 131.297 -3.59599 0.14723 0
M  V30 1327 C 130.905 -4.21158 1.52743 0
M  V30 1328 C 132.649 -4.23428 -0.30148 0
M  V30 1329 C 130.556 -5.71535 1.51992 0
M  V30 1330 H 129.486 -0.753061 0.0376241 0
M  V30 1331 H 132.137 -1.66494 0.77149 0
M  V30 1332 H 130.519 -3.91724 -0.580339 0
M  V30 1333 H 131.693 -4.00594 2.2773 0
M  V30 1334 H 130.008 -3.69552 1.91886 0
M  V30 1335 H 132.605 -5.33703 -0.326392 0
M  V30 1336 H 132.948 -3.94629 -1.32565 0
M  V30 1337 H 133.481 -3.96047 0.373065 0
M  V30 1338 H 130.22 -6.05044 2.52193 0
M  V30 1339 H 129.74 -5.94268 0.81274 0
M  V30 1340 H 131.419 -6.34873 1.24681 0
M  V30 1341 N 131.551 -0.354651 -1.53558 0
M  V30 1342 C 132.481 0.489091 -2.2832 0
M  V30 1343 C 133.462 1.09324 -1.30316 0
M  V30 1344 O 134.647 1.11255 -1.59173 0
M  V30 1345 C 131.777 1.63456 -3.0643 0
M  V30 1346 C 130.731 1.1582 -4.12031 0
M  V30 1347 C 130.057 2.39305 -4.7816 0
M  V30 1348 C 131.357 0.250731 -5.21698 0
M  V30 1349 H 133.051 -0.134614 -2.99097 0
M  V30 1350 H 130.597 -0.0661826 -1.43848 0
M  V30 1351 H 132.55 2.23136 -3.57475 0
M  V30 1352 H 131.274 2.28533 -2.33325 0
M  V30 1353 H 129.933 0.584146 -3.61916 0
M  V30 1354 H 129.581 3.02814 -4.01637 0
M  V30 1355 H 129.281 2.08109 -5.49513 0
M  V30 1356 H 130.805 2.99691 -5.31994 0
M  V30 1357 H 132.219 0.754695 -5.68311 0
M  V30 1358 H 130.616 0.0301468 -6.00092 0
M  V30 1359 H 131.686 -0.710125 -4.79672 0
M  V30 1360 N 133.029 1.57378 -0.0835403 0
M  V30 1361 C 134.277 1.93547 0.581718 0
M  V30 1362 C 134.598 0.96524 1.69435 0
M  V30 1363 O 133.868 0.0153369 1.95894 0
M  V30 1364 H 132.448 0.714521 0.217874 0
M  V30 1365 H 135.11 1.94366 -0.144158 0
M  V30 1366 H 134.206 2.95665 0.999423 0
M  V30 1367 N 134.507 -0.190092 1.56449 0
M  V30 1368 C 135.437 -1.23816 1.97969 0
M  V30 1369 C 136.418 -1.47201 0.852395 0
M  V30 1370 O 137.603 -1.58854 1.1171 0
M  V30 1371 C 134.733 -2.5813 2.3235 0
M  V30 1372 C 133.687 -2.49348 3.47864 0
M  V30 1373 C 133.013 -3.8798 3.67934 0
M  V30 1374 C 134.313 -2.01424 4.81898 0
M  V30 1375 H 136.007 -0.89311 2.85769 0
M  V30 1376 H 133.553 -0.428177 1.37487 0
M  V30 1377 H 135.506 -3.31637 2.59991 0
M  V30 1378 H 134.23 -2.94386 1.41438 0
M  V30 1379 H 132.889 -1.78297 3.20321 0
M  V30 1380 H 132.537 -4.21597 2.74344 0
M  V30 1381 H 132.237 -3.82978 4.45648 0
M  V30 1382 H 133.761 -4.63101 3.97957 0
M  V30 1383 H 135.175 -2.64693 5.08538 0
M  V30 1384 H 133.572 -2.07413 5.63116 0
M  V30 1385 H 134.642 -0.967677 4.75146 0
M  V30 1386 N 135.985 -1.50799 -0.457987 0
M  V30 1387 C 137.21 -1.66496 -1.23668 0
M  V30 1388 C 137.635 -0.353288 -1.84752 0
M  V30 1389 O 136.993 0.684346 -1.67888 0
M  V30 1390 C 137.041 -2.76763 -2.3116 0
M  V30 1391 O 136.145 -2.38928 -3.36136 0
M  V30 1392 H 135.486 -0.555828 -0.363252 0
M  V30 1393 H 138.016 -1.9725 -0.543474 0
M  V30 1394 H 138.026 -3.00232 -2.76269 0
M  V30 1395 H 136.701 -3.71954 -1.86073 0
M  V30 1396 H 135.278 -2.25953 -2.96647 0
M  V30 1397 N 137.463 0.71206 -1.40597 0
M  V30 1398 C 138.693 1.49894 -1.42181 0
M  V30 1399 C 139.101 1.89189 -0.0208078 0
M  V30 1400 O 138.444 1.56223 0.966436 0
M  V30 1401 C 138.506 2.80215 -2.25211 0
M  V30 1402 C 138.17 2.63221 -3.73582 0
M  V30 1403 C 139.167 2.30249 -4.66135 0
M  V30 1404 C 136.852 2.79376 -4.17438 0
M  V30 1405 C 138.846 2.13645 -6.00529 0
M  V30 1406 C 136.533 2.6239 -5.51901 0
M  V30 1407 C 137.531 2.29573 -6.43262 0
M  V30 1408 O 137.219 2.12719 -7.75246 0
M  V30 1409 H 136.951 0.469031 -0.486812 0
M  V30 1410 H 139.505 0.88564 -1.85326 0
M  V30 1411 H 137.735 3.4389 -1.76852 0
M  V30 1412 H 139.424 3.41947 -2.18694 0
M  V30 1413 H 140.19 2.17398 -4.33547 0
M  V30 1414 H 136.069 3.03906 -3.46644 0
M  V30 1415 H 139.613 1.87953 -6.71803 0
M  V30 1416 H 135.51 2.74826 -5.84073 0
M  V30 1417 H 136.278 2.27611 -7.86216 0
M  V30 1418 N 138.941 1.26152 0.944643 0
M  V30 1419 C 139.904 1.07474 2.0244 0
M  V30 1420 C 140.904 0.0242064 1.60782 0
M  V30 1421 O 142.094 0.267302 1.72137 0
M  V30 1422 C 139.226 0.633956 3.34953 0
M  V30 1423 H 140.419 2.03336 2.20442 0
M  V30 1424 H 137.972 1.087 1.12312 0
M  V30 1425 H 138.707 -0.326811 3.22649 0
M  V30 1426 H 138.492 1.39247 3.66542 0
M  V30 1427 H 139.982 0.52501 4.14287 0
M  V30 1428 N 140.419 -1.14872 1.07899 0
M  V30 1429 C 141.352 -2.18794 0.64841 0
M  V30 1430 C 142.33 -1.59065 -0.337189 0
M  V30 1431 O 143.514 -1.86936 -0.242284 0
M  V30 1432 C 140.641 -3.38667 -0.0470417 0
M  V30 1433 C 139.687 -4.16942 0.897884 0
M  V30 1434 S 140.52 -4.78615 2.40183 0
M  V30 1435 C 141.676 -6.0185 1.71834 0
M  V30 1436 H 141.909 -2.5498 1.52881 0
M  V30 1437 H 139.442 -1.25922 0.893484 0
M  V30 1438 H 141.4 -4.08113 -0.442027 0
M  V30 1439 H 140.061 -3.00814 -0.903861 0
M  V30 1440 H 139.254 -5.02726 0.358096 0
M  V30 1441 H 138.856 -3.53073 1.23352 0
M  V30 1442 H 141.148 -6.69574 1.03328 0
M  V30 1443 H 142.091 -6.60408 2.55473 0
M  V30 1444 H 142.499 -5.5173 1.19392 0
M  V30 1445 N 141.898 -0.863906 -1.31812 0
M  V30 1446 C 142.861 -0.320212 -2.26952 0
M  V30 1447 C 143.861 0.525369 -1.51975 0
M  V30 1448 O 145.051 0.335547 -1.70938 0
M  V30 1449 C 142.183 0.545919 -3.365 0
M  V30 1450 H 143.376 -1.16004 -2.76556 0
M  V30 1451 H 140.929 -0.638995 -1.42641 0
M  V30 1452 H 141.664 1.40718 -2.92179 0
M  V30 1453 H 141.449 -0.0594674 -3.92055 0
M  V30 1454 H 142.939 0.918796 -4.07367 0
M  V30 1455 N 143.376 1.44774 -0.622745 0
M  V30 1456 C 144.324 2.32387 0.0994683 0
M  V30 1457 C 145.318 1.46859 0.844326 0
M  V30 1458 O 146.524 1.63254 0.758174 0
M  V30 1459 H 142.899 0.750273 0.0509291 0
M  V30 1460 H 144.87 2.91062 -0.65767 0
M  V30 1461 C 143.619 3.30723 1.07319 0
M  V30 1462 H 142.942 3.96541 0.509462 0
M  V30 1463 H 144.382 3.94725 1.54817 0
M  V30 1464 C 142.841 2.59021 2.15429 0
M  V30 1465 O 143.371 2.38286 3.23393 0
M  V30 1466 N 141.577 2.189 1.91131 0
M  V30 1467 H 141.124 2.35964 1.03337 0
M  V30 1468 H 141.082 1.71251 2.63668 0
M  V30 1469 N 144.854 0.36279 1.53368 0
M  V30 1470 C 146.082 -0.228613 2.05633 0
M  V30 1471 C 146.497 -1.42676 1.23649 0
M  V30 1472 O 145.854 -1.80394 0.27647 0
M  V30 1473 C 145.905 -0.624845 3.56059 0
M  V30 1474 O 145.626 0.525675 4.34935 0
M  V30 1475 C 147.127 -1.27493 4.24571 0
M  V30 1476 H 144.347 -0.0407183 0.669763 0
M  V30 1477 H 146.891 0.520352 1.97769 0
M  V30 1478 H 145.046 -1.32373 3.64083 0
M  V30 1479 H 145.46 0.205969 5.24095 0
M  V30 1480 H 146.934 -1.50277 5.31151 0
M  V30 1481 H 147.411 -2.23439 3.78116 0
M  V30 1482 H 148.017 -0.617558 4.20792 0
M  V30 1483 N 146.332 -1.57332 0.0918853 0
M  V30 1484 C 147.58 -1.93853 -0.571446 0
M  V30 1485 C 147.901 -0.974212 -1.6892 0
M  V30 1486 O 147.171 -0.0257254 -1.95883 0
M  V30 1487 H 145.751 -0.715666 -0.214082 0
M  V30 1488 H 148.413 -1.94287 0.154464 0
M  V30 1489 H 147.509 -2.96191 -0.983729 0
M  V30 1490 N 147.81 0.181792 -1.56548 0
M  V30 1491 C 149.059 0.898348 -1.8059 0
M  V30 1492 C 149.372 1.83862 -0.667379 0
M  V30 1493 O 150.578 2.59678 -0.792446 0
M  V30 1494 C 149.034 1.64791 -3.19956 0
M  V30 1495 C 148.642 0.751789 -4.41647 0
M  V30 1496 C 150.386 2.35331 -3.53298 0
M  V30 1497 C 148.293 1.50098 -5.72035 0
M  V30 1498 H 147.223 0.339194 -0.673397 0
M  V30 1499 H 149.874 0.151413 -1.82874 0
M  V30 1500 H 148.256 2.43921 -3.11959 0
M  V30 1501 H 149.43 -0.0018076 -4.608 0
M  V30 1502 H 147.745 0.156562 -4.16106 0
M  V30 1503 H 150.342 2.91958 -4.47956 0
M  V30 1504 H 150.685 3.10164 -2.77676 0
M  V30 1505 H 151.218 1.63154 -3.62803 0
M  V30 1506 H 147.957 0.795175 -6.50659 0
M  V30 1507 H 147.477 2.22817 -5.56878 0
M  V30 1508 H 149.156 2.05125 -6.13622 0
M  V30 1509 N 149.288 1.51039 0.449983 0
M  V30 1510 C 150.251 1.70863 1.5277 0
M  V30 1511 C 151.251 0.578846 1.5002 0
M  V30 1512 O 152.441 0.846213 1.52266 0
M  V30 1513 C 149.573 1.75341 2.9235 0
M  V30 1514 H 150.766 2.67034 1.36502 0
M  V30 1515 H 148.319 1.40838 0.677812 0
M  V30 1516 H 149.054 0.809383 3.14037 0
M  V30 1517 H 148.839 2.57436 2.95752 0
M  V30 1518 H 150.329 1.92559 3.70555 0
M  V30 1519 N 150.766 -0.704594 1.40972 0
M  V30 1520 C 151.696 -1.83124 1.44872 0
M  V30 1521 C 152.677 -1.67281 0.30838 0
M  V30 1522 O 153.862 -1.87149 0.518556 0
M  V30 1523 C 150.992 -3.21181 1.32136 0
M  V30 1524 C 149.946 -3.51714 2.43888 0
M  V30 1525 C 149.272 -4.89032 2.16222 0
M  V30 1526 C 150.572 -3.516 3.86232 0
M  V30 1527 H 152.266 -1.80117 2.39161 0
M  V30 1528 H 149.812 -0.865145 1.15114 0
M  V30 1529 H 151.765 -3.99702 1.33479 0
M  V30 1530 H 150.489 -3.24791 0.343279 0
M  V30 1531 H 149.148 -2.75539 2.41813 0
M  V30 1532 H 148.796 -4.89256 1.16778 0
M  V30 1533 H 148.496 -5.10426 2.911 0
M  V30 1534 H 150.02 -5.69873 2.19265 0
M  V30 1535 H 151.434 -4.2014 3.9007 0
M  V30 1536 H 149.831 -3.84523 4.60719 0
M  V30 1537 H 150.901 -2.50757 4.15029 0
M  V30 1538 N 152.244 -1.26651 -0.937939 0
M  V30 1539 C 153.491 -1.12387 -1.6845 0
M  V30 1540 C 153.819 0.332208 -1.91642 0
M  V30 1541 O 153.074 1.2602 -1.49725 0
M  V30 1542 C 153.373 -1.84168 -3.06295 0
M  V30 1543 C 153.039 -3.34056 -3.02849 0
M  V30 1544 C 151.701 -3.74942 -3.01616 0
M  V30 1545 C 154.053 -4.29741 -2.9491 0
M  V30 1546 C 151.381 -5.09894 -2.90215 0
M  V30 1547 C 153.733 -5.64738 -2.8505 0
M  V30 1548 C 152.397 -6.0493 -2.82162 0
M  V30 1549 H 151.667 -0.411252 -0.616403 0
M  V30 1550 H 154.314 -1.57134 -1.09459 0
M  V30 1551 H 152.619 -1.319 -3.6893 0
M  V30 1552 H 154.316 -1.70569 -3.62915 0
M  V30 1553 H 150.906 -3.01534 -3.0459 0
M  V30 1554 H 155.09 -3.99133 -2.94969 0
M  V30 1555 H 150.346 -5.40194 -2.86358 0
M  V30 1556 H 154.52 -6.38561 -2.77872 0
M  V30 1557 H 152.147 -7.09457 -2.73084 0
M  V30 1558 N 153.722 1.14298 -1.08507 0
M  V30 1559 C 154.971 1.84708 -0.810305 0
M  V30 1560 C 155.284 1.83903 0.666271 0
M  V30 1561 O 156.49 2.50112 1.05624 0
M  V30 1562 C 154.946 3.31572 -1.39957 0
M  V30 1563 C 154.554 3.40791 -2.90801 0
M  V30 1564 C 156.298 4.07087 -1.20334 0
M  V30 1565 C 154.205 4.81872 -3.4286 0
M  V30 1566 H 153.135 0.691985 -0.299454 0
M  V30 1567 H 155.786 1.28841 -1.30661 0
M  V30 1568 H 154.168 3.87183 -0.830976 0
M  V30 1569 H 155.342 2.95225 -3.53806 0
M  V30 1570 H 153.657 2.78732 -3.0935 0
M  V30 1571 H 156.254 5.11225 -1.56693 0
M  V30 1572 H 156.597 4.16054 -0.143237 0
M  V30 1573 H 157.13 3.57779 -1.73893 0
M  V30 1574 H 153.869 4.78094 -4.48449 0
M  V30 1575 H 153.389 5.27972 -2.84615 0
M  V30 1576 H 155.068 5.50765 -3.39509 0
M  V30 1577 N 155.201 0.870884 1.31352 0
M  V30 1578 C 156.45 0.478408 1.95944 0
M  V30 1579 C 156.763 -0.974493 1.69597 0
M  V30 1580 O 157.969 -1.47316 2.28058 0
M  V30 1581 C 156.425 0.804609 3.50791 0
M  V30 1582 C 156.033 2.27433 3.85977 0
M  V30 1583 C 157.777 0.480648 4.2177 0
M  V30 1584 C 155.684 2.5429 5.33939 0
M  V30 1585 H 154.614 0.175175 0.733369 0
M  V30 1586 H 157.265 1.06391 1.4951 0
M  V30 1587 H 155.647 0.148347 3.95722 0
M  V30 1588 H 156.821 2.97373 3.52002 0
M  V30 1589 H 155.136 2.56442 3.28065 0
M  V30 1590 H 157.733 0.658519 5.30629 0
M  V30 1591 H 158.076 -0.578979 4.12254 0
M  V30 1592 H 158.609 1.09349 3.82476 0
M  V30 1593 H 155.348 3.58939 5.48491 0
M  V30 1594 H 154.868 1.88945 5.69263 0
M  V30 1595 H 156.547 2.39066 6.01212 0
M  V30 1596 N 156.679 -1.44442 0.630414 0
M  V30 1597 C 157.609 -2.33418 -0.0618083 0
M  V30 1598 C 158.59 -1.48165 -0.835541 0
M  V30 1599 O 159.775 -1.76886 -0.801564 0
M  V30 1600 C 156.905 -3.31222 -1.04449 0
M  V30 1601 C 155.859 -4.26288 -0.382436 0
M  V30 1602 C 155.185 -5.13954 -1.47497 0
M  V30 1603 C 156.485 -5.1744 0.710865 0
M  V30 1604 H 158.179 -2.91548 0.681184 0
M  V30 1605 H 155.725 -1.40191 0.329026 0
M  V30 1606 H 157.678 -3.92351 -1.53748 0
M  V30 1607 H 156.402 -2.71299 -1.81836 0
M  V30 1608 H 155.061 -3.6649 0.0899054 0
M  V30 1609 H 154.709 -4.50385 -2.2397 0
M  V30 1610 H 154.409 -5.7837 -1.03737 0
M  V30 1611 H 155.933 -5.77955 -1.96979 0
M  V30 1612 H 157.347 -5.72509 0.300996 0
M  V30 1613 H 155.744 -5.90455 1.07156 0
M  V30 1614 H 156.814 -4.58496 1.57829 0
M  V30 1615 N 158.157 -0.370918 -1.53173 0
M  V30 1616 C 159.087 0.464847 -2.28826 0
M  V30 1617 C 160.068 1.07936 -1.31468 0
M  V30 1618 O 161.253 1.0956 -1.60344 0
M  V30 1619 C 158.383 1.60196 -3.08147 0
M  V30 1620 C 157.337 1.11443 -4.13237 0
M  V30 1621 C 156.663 2.3422 -4.80672 0
M  V30 1622 C 157.963 0.195384 -5.21934 0
M  V30 1623 H 159.657 -0.166329 -2.98938 0
M  V30 1624 H 157.203 -0.0814359 -1.4377 0
M  V30 1625 H 159.156 2.19332 -3.59822 0
M  V30 1626 H 157.88 2.26045 -2.35735 0
M  V30 1627 H 156.539 0.545727 -3.62515 0
M  V30 1628 H 156.187 2.98537 -4.04827 0
M  V30 1629 H 155.887 2.02269 -5.51689 0
M  V30 1630 H 157.411 2.94032 -5.35143 0
M  V30 1631 H 158.825 0.694375 -5.69079 0
M  V30 1632 H 157.222 -0.0335027 -6.00091 0
M  V30 1633 H 158.292 -0.760961 -4.78892 0
M  V30 1634 N 159.635 1.57281 -0.100228 0
M  V30 1635 C 160.863 1.98879 0.570509 0
M  V30 1636 C 161.278 0.979476 1.61405 0
M  V30 1637 O 160.635 -0.0302288 1.82475 0
M  V30 1638 C 160.686 3.4052 1.2136 0
M  V30 1639 O 160.407 4.37588 0.211786 0
M  V30 1640 C 161.908 3.97149 1.96945 0
M  V30 1641 H 159.128 0.653428 0.152555 0
M  V30 1642 H 161.672 2.03697 -0.18103 0
M  V30 1643 H 159.827 3.367 1.91603 0
M  V30 1644 H 160.241 5.20118 0.676607 0
M  V30 1645 H 161.715 4.98393 2.37294 0
M  V30 1646 H 162.192 3.3525 2.83733 0
M  V30 1647 H 162.798 4.04458 1.31506 0
M  V30 1648 N 161.113 -0.173488 1.56642 0
M  V30 1649 C 162.36 -0.890465 1.81871 0
M  V30 1650 C 162.688 -1.82339 0.67696 0
M  V30 1651 O 161.943 -1.92795 -0.335926 0
M  V30 1652 C 162.242 -1.72069 3.13252 0
M  V30 1653 C 161.908 -0.936878 4.41059 0
M  V30 1654 C 160.57 -0.720545 4.75775 0
M  V30 1655 C 162.922 -0.386919 5.19762 0
M  V30 1656 C 160.25 0.0568829 5.86672 0
M  V30 1657 C 162.602 0.37741 6.31473 0
M  V30 1658 C 161.266 0.604563 6.64757 0
M  V30 1659 H 160.536 -0.325844 0.665512 0
M  V30 1660 H 163.183 -0.155527 1.90867 0
M  V30 1661 H 161.488 -2.52496 2.99588 0
M  V30 1662 H 163.185 -2.27844 3.29982 0
M  V30 1663 H 159.775 -1.11553 4.13828 0
M  V30 1664 H 163.959 -0.541398 4.93338 0
M  V30 1665 H 159.215 0.242635 6.10918 0
M  V30 1666 H 163.389 0.810825 6.91664 0
M  V30 1667 H 161.016 1.20885 7.50527 0
M  V30 1668 N 162.591 -1.51276 -0.441967 0
M  V30 1669 C 163.837 -1.63958 -1.19355 0
M  V30 1670 C 164.17 -0.352543 -1.90973 0
M  V30 1671 O 163.445 0.647627 -1.83401 0
M  V30 1672 C 163.728 -2.83979 -2.21422 0
M  V30 1673 C 163.581 -4.22646 -1.53918 0
M  V30 1674 C 164.9 -2.99521 -3.22451 0
M  V30 1675 H 162.019 -0.596709 -0.432559 0
M  V30 1676 H 164.661 -1.83748 -0.483398 0
M  V30 1677 H 162.811 -2.67237 -2.81987 0
M  V30 1678 H 164.483 -4.51045 -0.967256 0
M  V30 1679 H 162.726 -4.25558 -0.841615 0
M  V30 1680 H 163.397 -5.02609 -2.28229 0
M  V30 1681 H 165.873 -3.14944 -2.71937 0
M  V30 1682 H 164.749 -3.85072 -3.91166 0
M  V30 1683 H 165.01 -2.11391 -3.88287 0
M  V30 1684 N 164.069 0.697108 -1.41344 0
M  V30 1685 C 165.294 1.49096 -1.44171 0
M  V30 1686 C 165.719 1.88038 -0.0481568 0
M  V30 1687 O 165.077 1.54525 0.948243 0
M  V30 1688 C 165.125 2.73088 -2.3549 0
M  V30 1689 O 164.229 3.70514 -1.81088 0
M  V30 1690 H 163.57 0.448801 -0.489361 0
M  V30 1691 H 166.1 0.856992 -1.85787 0
M  V30 1692 H 166.11 3.21413 -2.51312 0
M  V30 1693 H 164.785 2.44081 -3.36745 0
M  V30 1694 H 163.362 3.29441 -1.74708 0
M  V30 1695 N 165.547 1.27147 0.931209 0
M  V30 1696 C 166.796 1.12664 1.67302 0
M  V30 1697 C 167.109 -0.327718 1.92835 0
M  V30 1698 O 168.315 -0.593392 2.64936 0
M  V30 1699 C 166.771 1.9683 3.01307 0
M  V30 1700 C 166.379 3.46901 2.83485 0
M  V30 1701 C 168.123 1.90985 3.79111 0
M  V30 1702 C 166.03 4.23279 4.13024 0
M  V30 1703 H 164.96 0.41803 0.627509 0
M  V30 1704 H 167.611 1.51539 1.03481 0
M  V30 1705 H 165.993 1.50797 3.66164 0
M  V30 1706 H 167.167 4.00773 2.27415 0
M  V30 1707 H 165.482 3.54088 2.19113 0
M  V30 1708 H 168.079 2.45328 4.75098 0
M  V30 1709 H 168.422 0.882718 4.06834 0
M  V30 1710 H 168.955 2.34895 3.21044 0
M  V30 1711 H 165.694 5.26503 3.90481 0
M  V30 1712 H 165.214 3.74186 4.6877 0
M  V30 1713 H 166.893 4.32265 4.81411 0
M  V30 1714 N 167.025 -1.13721 1.09112 0
M  V30 1715 C 168.272 -1.84924 0.825192 0
M  V30 1716 C 168.6 -1.83347 -0.649151 0
M  V30 1717 O 167.855 -1.26449 -1.49362 0
M  V30 1718 C 168.154 -3.32861 1.30146 0
M  V30 1719 C 167.82 -3.54621 2.78486 0
M  V30 1720 C 166.482 -3.60268 3.18999 0
M  V30 1721 C 168.834 -3.62855 3.74146 0
M  V30 1722 C 166.162 -3.71679 4.53951 0
M  V30 1723 C 168.514 -3.75793 5.08883 0
M  V30 1724 C 167.178 -3.79692 5.4899 0
M  V30 1725 H 166.448 -0.676684 0.301959 0
M  V30 1726 H 169.095 -1.3428 1.36533 0
M  V30 1727 H 167.4 -3.85835 0.681064 0
M  V30 1728 H 169.097 -3.86395 1.07236 0
M  V30 1729 H 165.687 -3.50879 2.46134 0
M  V30 1730 H 169.871 -3.57775 3.43963 0
M  V30 1731 H 165.127 -3.72963 4.84467 0
M  V30 1732 H 169.301 -3.81107 5.82864 0
M  V30 1733 H 166.928 -3.88287 6.53558 0
M  V30 1734 N 168.503 -0.877838 -1.30888 0
M  V30 1735 C 169.728 -0.506629 -2.01117 0
M  V30 1736 C 170.153 0.895564 -1.65412 0
M  V30 1737 O 169.511 1.5923 -0.866922 0
M  V30 1738 C 169.559 -0.680223 -3.54126 0
M  V30 1739 O 168.663 0.277033 -4.11468 0
M  V30 1740 H 168.004 -0.200518 -0.633 0
M  V30 1741 H 170.534 -1.18342 -1.66902 0
M  V30 1742 H 170.544 -0.5765 -4.03907 0
M  V30 1743 H 169.219 -1.70261 -3.79452 0
M  V30 1744 H 167.796 0.127606 -3.72682 0
M  V30 1745 N 169.982 1.44106 -0.638065 0
M  V30 1746 C 170.912 2.33448 0.0494287 0
M  V30 1747 C 171.893 1.48606 0.827672 0
M  V30 1748 O 173.078 1.77308 0.792173 0
M  V30 1749 C 170.208 3.31771 1.02691 0
M  V30 1750 C 169.162 4.26485 0.359823 0
M  V30 1751 C 168.488 5.14729 1.44769 0
M  V30 1752 C 169.788 5.17056 -0.738296 0
M  V30 1753 H 171.482 2.91183 -0.696636 0
M  V30 1754 H 169.028 1.40014 -0.336456 0
M  V30 1755 H 170.981 3.93161 1.51666 0
M  V30 1756 H 169.705 2.7226 1.80395 0
M  V30 1757 H 168.364 3.66437 -0.10934 0
M  V30 1758 H 168.012 4.51566 2.21578 0
M  V30 1759 H 167.712 5.78913 1.00668 0
M  V30 1760 H 169.236 5.78991 1.93911 0
M  V30 1761 H 170.65 5.72342 -0.331354 0
M  V30 1762 H 169.047 5.89879 -1.10286 0
M  V30 1763 H 170.117 4.57652 -1.60258 0
M  V30 1764 N 171.46 0.379036 1.52974 0
M  V30 1765 C 172.69 -0.20649 2.05566 0
M  V30 1766 C 173.098 -1.41906 1.25137 0
M  V30 1767 O 172.441 -1.81421 0.288464 0
M  V30 1768 C 172.503 -0.651086 3.53555 0
M  V30 1769 C 172.167 0.446626 4.54812 0
M  V30 1770 C 173.164 1.30079 5.03364 0
M  V30 1771 C 170.849 0.610719 4.98573 0
M  V30 1772 C 172.843 2.30426 5.94292 0
M  V30 1773 C 170.53 1.61754 5.89304 0
M  V30 1774 C 171.528 2.46274 6.37054 0
M  V30 1775 O 171.216 3.45237 7.25994 0
M  V30 1776 H 170.948 -0.0372381 0.674974 0
M  V30 1777 H 173.502 0.539718 1.98182 0
M  V30 1778 H 171.732 -1.44911 3.58522 0
M  V30 1779 H 173.421 -1.16112 3.88938 0
M  V30 1780 H 174.187 1.18527 4.70294 0
M  V30 1781 H 170.066 -0.0374044 4.60985 0
M  V30 1782 H 173.61 2.96432 6.31485 0
M  V30 1783 H 169.507 1.73348 6.21788 0
M  V30 1784 H 170.275 3.41124 7.44027 0
M  V30 1785 N 172.938 -1.57226 0.108567 0
M  V30 1786 C 174.163 -1.99604 -0.563303 0
M  V30 1787 C 174.588 -0.987563 -1.6009 0
M  V30 1788 O 173.946 0.0421687 -1.81251 0
M  V30 1789 C 173.994 -3.40902 -1.17552 0
M  V30 1790 O 173.098 -3.42896 -2.2912 0
M  V30 1791 H 172.439 -0.648704 -0.1417 0
M  V30 1792 H 174.969 -2.03679 0.193961 0
M  V30 1793 H 174.979 -3.78886 -1.51357 0
M  V30 1794 H 173.654 -4.1382 -0.415445 0
M  V30 1795 H 172.231 -3.1672 -1.96832 0
M  V30 1796 N 174.416 0.165178 -1.56732 0
M  V30 1797 C 175.662 0.882112 -1.82611 0
M  V30 1798 C 175.995 1.81628 -0.687378 0
M  V30 1799 O 175.27 1.92009 0.310267 0
M  V30 1800 C 175.553 1.67245 -3.18906 0
M  V30 1801 C 175.406 0.760987 -4.43316 0
M  V30 1802 C 176.725 2.63884 -3.52212 0
M  V30 1803 H 173.844 0.319242 -0.664269 0
M  V30 1804 H 176.486 0.148052 -1.89422 0
M  V30 1805 H 174.636 2.29824 -3.1323 0
M  V30 1806 H 176.308 0.147596 -4.61064 0
M  V30 1807 H 174.551 0.0694102 -4.33744 0
M  V30 1808 H 175.222 1.34962 -5.35247 0
M  V30 1809 H 177.698 2.11429 -3.58381 0
M  V30 1810 H 176.574 3.16245 -4.48643 0
M  V30 1811 H 176.835 3.44377 -2.77231 0
M  V30 1812 N 175.894 1.51508 0.433938 0
M  V30 1813 C 176.844 1.69451 1.52546 0
M  V30 1814 C 177.828 0.548474 1.51263 0
M  V30 1815 O 179.02 0.804529 1.57659 0
M  V30 1816 C 176.149 1.82604 2.90707 0
M  V30 1817 C 175.235 3.03002 2.96733 0
M  V30 1818 N 175.626 4.26121 2.72496 0
M  V30 1819 C 173.924 3.02327 3.27894 0
M  V30 1820 C 174.625 5.07407 2.84452 0
M  V30 1821 N 173.601 4.42126 3.16269 0
M  V30 1822 H 177.403 2.62305 1.32564 0
M  V30 1823 H 174.917 1.49202 0.641297 0
M  V30 1824 H 176.914 1.93569 3.69238 0
M  V30 1825 H 175.574 0.909339 3.11707 0
M  V30 1826 H 176.585 4.55009 2.4736 0
M  V30 1827 H 173.262 2.20301 3.54646 0
M  V30 1828 H 174.652 6.15422 2.69639 0
M  V30 1829 N 177.372 -0.689602 1.41712 0
M  V30 1830 C 178.302 -1.81577 1.46806 0
M  V30 1831 C 179.283 -1.66945 0.326105 0
M  V30 1832 O 180.468 -1.86588 0.538377 0
M  V30 1833 C 177.598 -3.19762 1.35535 0
M  V30 1834 C 176.552 -3.49107 2.47605 0
M  V30 1835 C 175.878 -4.86711 2.21397 0
M  V30 1836 C 177.178 -3.47483 3.89939 0
M  V30 1837 H 178.872 -1.7757 2.41058 0
M  V30 1838 H 176.418 -0.852887 1.16025 0
M  V30 1839 H 178.371 -3.98263 1.3771 0
M  V30 1840 H 177.095 -3.24409 0.377708 0
M  V30 1841 H 175.754 -2.72959 2.44722 0
M  V30 1842 H 175.402 -4.8799 1.21961 0
M  V30 1843 H 175.102 -5.0731 2.96497 0
M  V30 1844 H 176.626 -5.67515 2.25297 0
M  V30 1845 H 178.04 -4.1598 3.94505 0
M  V30 1846 H 176.437 -3.79615 4.64771 0
M  V30 1847 H 177.507 -2.46341 4.17665 0
M  V30 1848 N 178.85 -1.27639 -0.924453 0
M  V30 1849 C 179.78 -1.13166 -2.04244 0
M  V30 1850 C 180.761 -0.032256 -1.70069 0
M  V30 1851 O 181.946 -0.207328 -1.9309 0
M  V30 1852 C 179.076 -0.781496 -3.38393 0
M  V30 1853 C 178.03 -1.83449 -3.86692 0
M  V30 1854 C 177.356 -1.33822 -5.17683 0
M  V30 1855 C 178.656 -3.23917 -4.09726 0
M  V30 1856 H 180.35 -2.06689 -2.1661 0
M  V30 1857 H 177.896 -0.995136 -1.04082 0
M  V30 1858 H 179.849 -0.667057 -4.16087 0
M  V30 1859 H 178.573 0.189439 -3.2605 0
M  V30 1860 H 177.232 -1.93789 -3.11193 0
M  V30 1861 H 176.88 -0.35665 -5.01734 0
M  V30 1862 H 176.58 -2.04224 -5.50968 0
M  V30 1863 H 178.104 -1.23679 -5.97943 0
M  V30 1864 H 179.518 -3.16559 -4.77978 0
M  V30 1865 H 177.915 -3.92059 -4.54324 0
M  V30 1866 H 178.985 -3.68729 -3.14908 0
M  V30 1867 N 180.328 1.1314 -1.09713 0
M  V30 1868 C 181.258 2.20748 -0.761102 0
M  V30 1869 C 182.239 1.68061 0.262566 0
M  V30 1870 O 183.424 1.93765 0.129977 0
M  V30 1871 C 180.554 3.46812 -0.184054 0
M  V30 1872 C 179.508 4.12606 -1.13757 0
M  V30 1873 C 178.834 5.33031 -0.422083 0
M  V30 1874 C 180.134 4.59603 -2.48118 0
M  V30 1875 H 181.828 2.49113 -1.66082 0
M  V30 1876 H 179.374 1.19734 -0.799987 0
M  V30 1877 H 181.327 4.21353 0.0631215 0
M  V30 1878 H 180.051 3.17851 0.750868 0
M  V30 1879 H 178.71 3.40036 -1.37007 0
M  V30 1880 H 178.358 5.00335 0.517072 0
M  V30 1881 H 178.058 5.77999 -1.05788 0
M  V30 1882 H 179.582 6.10325 -0.183277 0
M  V30 1883 H 180.996 5.25552 -2.29059 0
M  V30 1884 H 179.393 5.15321 -3.07514 0
M  V30 1885 H 180.463 3.73971 -3.08665 0
M  V30 1886 N 181.806 0.884767 1.30421 0
M  V30 1887 C 182.753 0.349642 2.28136 0
M  V30 1888 C 183.723 -0.560061 1.56373 0
M  V30 1889 O 184.908 -0.488524 1.8444 0
M  V30 1890 C 182.048 -0.42999 3.42411 0
M  V30 1891 C 181.161 0.508907 4.28992 0
M  V30 1892 C 180.296 -0.286301 5.30428 0
M  V30 1893 C 179.335 0.648079 6.08659 0
M  V30 1894 N 178.472 -0.111792 7.02011 0
M  V30 1895 H 183.312 1.18807 2.73293 0
M  V30 1896 H 180.849 0.597231 1.3443 0
M  V30 1897 H 182.807 -0.897923 4.07423 0
M  V30 1898 H 181.437 -1.23299 2.98324 0
M  V30 1899 H 180.489 1.09533 3.64289 0
M  V30 1900 H 181.801 1.22475 4.8353 0
M  V30 1901 H 180.955 -0.816098 6.01186 0
M  V30 1902 H 179.694 -1.03536 4.76583 0
M  V30 1903 H 178.699 1.18951 5.36778 0
M  V30 1904 H 179.924 1.39623 6.64592 0
M  V30 1905 H 177.87 -0.843395 6.50556 0
M  V30 1906 H 177.787 0.544429 7.54037 0
M  V30 1907 H 179.055 -0.622339 7.77012 0
M  V30 1908 N 183.284 -1.43765 0.645699 0
M  V30 1909 C 184.512 -2.06253 0.163556 0
M  V30 1910 C 184.927 -1.48352 -1.16778 0
M  V30 1911 O 184.284 -0.611932 -1.71935 0
M  V30 1912 C 184.335 -3.61453 0.0583186 0
M  V30 1913 O 184.056 -4.172 1.33702 0
M  V30 1914 C 185.557 -4.41002 -0.450795 0
M  V30 1915 H 182.777 -0.665413 0.0864077 0
M  V30 1916 H 185.321 -1.84396 0.884222 0
M  V30 1917 H 183.476 -3.82522 -0.612865 0
M  V30 1918 H 183.89 -5.10791 1.19131 0
M  V30 1919 H 185.364 -5.49966 -0.473403 0
M  V30 1920 H 185.841 -4.13488 -1.48068 0
M  V30 1921 H 186.447 -4.24886 0.187637 0
M  V30 1922 N 184.763 -0.387143 -1.52771 0
M  V30 1923 C 185.726 0.436939 -2.24997 0
M  V30 1924 C 186.726 0.991991 -1.26555 0
M  V30 1925 O 187.916 0.874335 -1.50669 0
M  V30 1926 C 185.048 1.61281 -3.00335 0
M  V30 1927 H 186.241 -0.195365 -2.99263 0
M  V30 1928 H 183.794 -0.139218 -1.55679 0
M  V30 1929 H 184.529 2.2826 -2.30364 0
M  V30 1930 H 184.314 1.22154 -3.72587 0
M  V30 1931 H 185.804 2.19629 -3.5518 0
M  V30 1932 N 186.241 1.57166 -0.116904 0
M  V30 1933 C 187.189 2.16457 0.851418 0
M  V30 1934 C 188.183 1.11323 1.27686 0
M  V30 1935 O 189.389 1.2963 1.24884 0
M  V30 1936 H 185.764 0.69271 0.292672 0
M  V30 1937 H 187.735 2.96605 0.32685 0
M  V30 1938 C 186.484 2.77689 2.09246 0
M  V30 1939 H 185.807 3.58285 1.77402 0
M  V30 1940 H 187.247 3.22716 2.7501 0
M  V30 1941 C 185.706 1.74667 2.88085 0
M  V30 1942 O 186.236 1.19877 3.83396 0
M  V30 1943 N 184.442 1.44656 2.52038 0
M  V30 1944 H 183.989 1.89402 1.74599 0
M  V30 1945 H 183.947 0.759675 3.05084 0
M  V30 1946 N 187.719 -0.156864 1.56817 0
M  V30 1947 C 188.629 -1.2136 2.00771 0
M  V30 1948 C 189.645 -1.47598 0.921459 0
M  V30 1949 O 190.821 -1.59462 1.2302 0
M  V30 1950 C 187.886 -2.52943 2.37109 0
M  V30 1951 C 186.947 -2.34439 3.59634 0
M  V30 1952 C 186.18 -3.59748 3.94229 0
M  V30 1953 O 186.403 -4.65526 3.29609 0
M  V30 1954 O 185.337 -3.52998 4.8752 0
M  V30 1955 H 189.163 -0.870468 2.90958 0
M  V30 1956 H 186.748 -0.36484 1.44877 0
M  V30 1957 H 188.63 -3.30538 2.61386 0
M  V30 1958 H 187.305 -2.86806 1.5008 0
M  V30 1959 H 186.212 -1.54828 3.40557 0
M  V30 1960 H 187.545 -2.05496 4.4725 0
M  V30 1961 N 189.197 -1.51736 -0.425897 0
M  V30 1962 C 190.445 -1.64644 -1.17204 0
M  V30 1963 C 190.766 -0.370486 -1.91448 0
M  V30 1964 O 190.036 0.614088 -1.86026 0
M  V30 1965 H 188.616 -0.606819 -0.435638 0
M  V30 1966 H 191.278 -1.88713 -0.487177 0
M  V30 1967 H 190.374 -2.47958 -1.89534 0
M  V30 1968 N 190.675 0.682077 -1.42076 0
M  V30 1969 C 191.923 1.4393 -1.41876 0
M  V30 1970 C 192.244 1.94971 -0.0335599 0
M  V30 1971 O 191.514 1.72591 0.926773 0
M  V30 1972 H 190.094 0.534085 -0.522267 0
M  V30 1973 H 192.756 0.806427 -1.77434 0
M  V30 1974 H 191.852 2.29588 -2.11414 0
M  V30 1975 N 192.153 1.28127 0.917671 0
M  V30 1976 C 193.378 1.18007 1.70555 0
M  V30 1977 C 193.803 -0.258257 1.86319 0
M  V30 1978 O 193.161 -1.1869 1.37049 0
M  V30 1979 C 193.209 1.87948 3.07746 0
M  V30 1980 O 192.313 1.18427 3.9503 0
M  V30 1981 H 191.654 0.409867 0.522403 0
M  V30 1982 H 194.184 1.69379 1.1477 0
M  V30 1983 H 194.194 1.95701 3.58001 0
M  V30 1984 H 192.869 2.92573 2.95591 0
M  V30 1985 H 191.446 1.18811 3.53466 0
M  V30 1986 N 193.631 -1.12557 1.10312 0
M  V30 1987 C 194.561 -2.20341 0.772798 0
M  V30 1988 C 195.542 -1.68198 -0.25365 0
M  V30 1989 O 196.727 -1.93831 -0.119699 0
M  V30 1990 C 193.857 -3.46709 0.202443 0
M  V30 1991 C 192.811 -4.11996 1.15943 0
M  V30 1992 C 192.137 -5.328 0.450345 0
M  V30 1993 C 193.437 -4.5828 2.50552 0
M  V30 1994 H 195.131 -2.48229 1.674 0
M  V30 1995 H 192.677 -1.19308 0.806326 0
M  V30 1996 H 194.63 -4.2138 -0.0407752 0
M  V30 1997 H 193.354 -3.18245 -0.734001 0
M  V30 1998 H 192.013 -3.39305 1.38808 0
M  V30 1999 H 191.661 -5.00602 -0.490531 0
M  V30 2000 H 191.361 -5.7743 1.08851 0
M  V30 2001 H 192.885 -6.10219 0.215642 0
M  V30 2002 H 194.299 -5.2433 2.31843 0
M  V30 2003 H 192.696 -5.13683 3.10242 0
M  V30 2004 H 193.766 -3.72329 3.10643 0
M  V30 2005 N 195.109 -0.891671 -1.2995 0
M  V30 2006 C 196.039 -0.379797 -2.30391 0
M  V30 2007 C 197.02 0.540919 -1.6127 0
M  V30 2008 O 198.205 0.453352 -1.88834 0
M  V30 2009 C 195.335 0.400654 -3.44981 0
M  V30 2010 C 194.289 -0.428905 -4.25846 0
M  V30 2011 C 193.615 0.478557 -5.32554 0
M  V30 2012 C 194.915 -1.67458 -4.94727 0
M  V30 2013 H 196.609 -1.21914 -2.73454 0
M  V30 2014 H 194.155 -0.587675 -1.31462 0
M  V30 2015 H 196.108 0.769434 -4.14316 0
M  V30 2016 H 194.832 1.27371 -3.0074 0
M  V30 2017 H 193.491 -0.779911 -3.58208 0
M  V30 2018 H 193.139 1.34951 -4.84559 0
M  V30 2019 H 192.839 -0.0727433 -5.87555 0
M  V30 2020 H 194.363 0.843705 -6.04743 0
M  V30 2021 H 195.777 -1.376 -5.56542 0
M  V30 2022 H 194.174 -2.16659 -5.59624 0
M  V30 2023 H 195.244 -2.41518 -4.20473 0
M  V30 2024 N 196.587 1.43421 -0.653314 0
M  V30 2025 C 197.817 2.05864 -0.174238 0
M  V30 2026 C 198.225 1.49052 1.16534 0
M  V30 2027 O 197.568 0.616481 1.73047 0
M  V30 2028 C 197.63 3.59499 -0.00875873 0
M  V30 2029 C 197.294 4.38893 -1.27364 0
M  V30 2030 C 198.291 4.70947 -2.20239 0
M  V30 2031 C 195.976 4.789 -1.51525 0
M  V30 2032 C 197.97 5.41916 -3.35568 0
M  V30 2033 C 195.657 5.49614 -2.67147 0
M  V30 2034 C 196.655 5.81044 -3.58994 0
M  V30 2035 O 196.343 6.50313 -4.72597 0
M  V30 2036 H 196.075 0.670345 -0.0872549 0
M  V30 2037 H 198.629 1.84913 -0.894226 0
M  V30 2038 H 196.859 3.79025 0.7666 0
M  V30 2039 H 198.548 4.0364 0.427687 0
M  V30 2040 H 199.314 4.40558 -2.02815 0
M  V30 2041 H 195.193 4.53843 -0.809158 0
M  V30 2042 H 198.737 5.66365 -4.07279 0
M  V30 2043 H 194.634 5.79419 -2.84505 0
M  V30 2044 H 195.402 6.68795 -4.71864 0
M  V30 2045 N 198.065 0.39524 1.52563 0
M  V30 2046 C 198.975 -0.444232 2.30356 0
M  V30 2047 C 199.991 -1.06615 1.37511 0
M  V30 2048 O 201.167 -1.07067 1.70583 0
M  V30 2049 C 198.232 -1.55315 3.09964 0
M  V30 2050 C 197.293 -0.955734 4.18526 0
M  V30 2051 C 196.526 -2.01181 4.9433 0
M  V30 2052 O 196.749 -3.22781 4.70285 0
M  V30 2053 O 195.683 -1.62579 5.79527 0
M  V30 2054 H 199.509 0.189667 3.03107 0
M  V30 2055 H 197.094 0.1588 1.48554 0
M  V30 2056 H 198.976 -2.19724 3.59582 0
M  V30 2057 H 197.651 -2.17191 2.4002 0
M  V30 2058 H 196.558 -0.274743 3.7309 0
M  V30 2059 H 197.891 -0.381109 4.90722 0
M  V30 2060 N 199.544 -1.57102 0.125237 0
M  V30 2061 C 200.476 -2.12726 -0.853237 0
M  V30 2062 C 201.489 -1.07145 -1.22571 0
M  V30 2063 O 202.678 -1.34497 -1.17358 0
M  V30 2064 C 199.778 -2.61709 -2.15317 0
M  V30 2065 C 198.951 -3.91456 -1.95143 0
M  V30 2066 C 198.01 -4.25973 -3.08923 0
M  V30 2067 O 197.036 -4.94682 -2.81564 0
M  V30 2068 N 198.238 -3.83795 -4.35524 0
M  V30 2069 H 201.003 -2.97307 -0.377964 0
M  V30 2070 H 198.564 -1.61792 -0.0590011 0
M  V30 2071 H 200.556 -2.81826 -2.90441 0
M  V30 2072 H 199.126 -1.81974 -2.54174 0
M  V30 2073 H 198.346 -3.80185 -1.04177 0
M  V30 2074 H 199.634 -4.76283 -1.78976 0
M  V30 2075 H 199.032 -3.2839 -4.60626 0
M  V30 2076 H 197.589 -4.09008 -5.07499 0
M  V30 2077 N 201.022 0.148545 -1.56898 0
M  V30 2078 C 201.952 1.18524 -2.01182 0
M  V30 2079 C 202.933 1.4489 -0.891123 0
M  V30 2080 O 204.118 1.55836 -1.15882 0
M  V30 2081 C 201.248 2.51879 -2.39112 0
M  V30 2082 C 200.202 2.40038 -3.54353 0
M  V30 2083 C 199.528 3.78089 -3.78091 0
M  V30 2084 C 200.828 1.88577 -4.87069 0
M  V30 2085 H 202.522 0.817029 -2.88036 0
M  V30 2086 H 200.068 0.391575 -1.38574 0
M  V30 2087 H 202.021 3.24627 -2.68692 0
M  V30 2088 H 200.745 2.90532 -1.49193 0
M  V30 2089 H 199.404 1.69742 -3.24936 0
M  V30 2090 H 199.052 4.14175 -2.85426 0
M  V30 2091 H 198.752 3.71028 -4.55645 0
M  V30 2092 H 200.276 4.52387 -4.10095 0
M  V30 2093 H 201.69 2.51117 -5.15377 0
M  V30 2094 H 200.087 1.9241 -5.68417 0
M  V30 2095 H 201.157 0.84136 -4.77545 0
M  V30 2096 N 202.5 1.5196 0.417844 0
M  V30 2097 C 203.748 1.65263 1.16329 0
M  V30 2098 C 204.069 0.380634 1.91249 0
M  V30 2099 O 203.339 -0.604214 1.86349 0
M  V30 2100 H 201.919 0.60912 0.432414 0
M  V30 2101 H 204.581 1.88969 0.477162 0
M  V30 2102 H 203.677 2.4896 1.88217 0
M  V30 2103 N 203.978 -0.674533 1.42435 0
M  V30 2104 C 205.208 -1.46071 1.46105 0
M  V30 2105 C 205.616 -1.89067 0.0709605 0
M  V30 2106 O 204.959 -1.58731 -0.924677 0
M  V30 2107 C 205.021 -2.74145 2.32561 0
M  V30 2108 C 204.685 -2.53224 3.8043 0
M  V30 2109 C 205.682 -2.17809 4.72075 0
M  V30 2110 C 203.367 -2.6821 4.24698 0
M  V30 2111 C 205.361 -1.97648 6.05982 0
M  V30 2112 C 203.048 -2.47665 5.58664 0
M  V30 2113 C 204.046 -2.12437 6.49122 0
M  V30 2114 O 203.734 -1.9209 7.80613 0
M  V30 2115 H 203.466 -0.455959 0.499076 0
M  V30 2116 H 206.02 -0.836193 1.87609 0
M  V30 2117 H 204.25 -3.3908 1.85908 0
M  V30 2118 H 205.939 -3.36028 2.27683 0
M  V30 2119 H 206.705 -2.05826 4.39159 0
M  V30 2120 H 202.584 -2.94609 3.54579 0
M  V30 2121 H 206.128 -1.70075 6.7655 0
M  V30 2122 H 202.025 -2.59244 5.91154 0
M  V30 2123 H 202.793 -2.06686 7.91974 0
M  V30 2124 N 205.456 -1.28612 -0.910864 0
M  V30 2125 C 206.403 -1.12786 -2.01365 0
M  V30 2126 C 207.373 -0.024201 -1.66082 0
M  V30 2127 O 208.558 -0.189667 -1.89855 0
M  V30 2128 C 205.698 -0.798743 -3.35729 0
M  V30 2129 C 204.811 -1.98173 -3.83864 0
M  V30 2130 C 203.946 -1.59298 -5.06752 0
M  V30 2131 C 202.985 -2.74245 -5.47226 0
M  V30 2132 N 202.122 -2.35842 -6.61304 0
M  V30 2133 H 206.962 -2.07142 -2.14234 0
M  V30 2134 H 204.499 -1.03093 -1.0493 0
M  V30 2135 H 206.457 -0.588662 -4.13026 0
M  V30 2136 H 205.087 0.10789 -3.2262 0
M  V30 2137 H 204.139 -2.30386 -3.02699 0
M  V30 2138 H 205.451 -2.84343 -4.09818 0
M  V30 2139 H 204.605 -1.34513 -5.916 0
M  V30 2140 H 203.344 -0.702618 -4.82612 0
M  V30 2141 H 202.349 -2.99725 -4.60918 0
M  V30 2142 H 203.574 -3.63928 -5.73353 0
M  V30 2143 H 201.52 -1.49279 -6.38789 0
M  V30 2144 H 201.437 -3.15546 -6.86998 0
M  V30 2145 H 202.705 -2.14348 -7.4945 0
M  V30 2146 N 206.934 1.1197 -1.10907 0
M  V30 2147 C 207.897 2.16031 -0.765707 0
M  V30 2148 C 208.897 1.59393 0.212235 0
M  V30 2149 O 210.087 1.74196 -0.0115441 0
M  V30 2150 C 207.219 3.40632 -0.135053 0
M  V30 2151 H 208.412 2.47919 -1.68748 0
M  V30 2152 H 205.965 1.27061 -0.910226 0
M  V30 2153 H 206.7 3.14348 0.797218 0
M  V30 2154 H 206.485 3.8302 -0.838937 0
M  V30 2155 H 207.975 4.17505 0.0892469 0
M  V30 2156 N 208.412 0.89855 1.29475 0
M  V30 2157 C 209.659 0.523882 1.95606 0
M  V30 2158 C 209.987 -0.929608 1.70847 0
M  V30 2159 O 209.242 -1.67401 1.01367 0
M  V30 2160 C 209.541 0.761398 3.49195 0
M  V30 2161 C 209.207 2.19207 3.94029 0
M  V30 2162 C 207.869 2.58326 4.05982 0
M  V30 2163 C 210.221 3.12379 4.17216 0
M  V30 2164 C 207.549 3.898 4.38489 0
M  V30 2165 C 209.901 4.43401 4.51197 0
M  V30 2166 C 208.565 4.82394 4.61359 0
M  V30 2167 H 207.835 0.191702 0.715773 0
M  V30 2168 H 210.482 1.13699 1.54094 0
M  V30 2169 H 208.787 0.0653622 3.91745 0
M  V30 2170 H 210.484 0.450904 3.98457 0
M  V30 2171 H 207.074 1.87846 3.85242 0
M  V30 2172 H 211.258 2.83371 4.07449 0
M  V30 2173 H 206.514 4.19734 4.44559 0
M  V30 2174 H 210.688 5.15623 4.68087 0
M  V30 2175 H 208.315 5.84306 4.86303 0
M  V30 2176 N 209.89 -1.43072 0.660911 0
M  V30 2177 C 211.138 -2.01323 0.177094 0
M  V30 2178 C 211.459 -1.5245 -1.2159 0
M  V30 2179 O 210.729 -0.740322 -1.81373 0
M  V30 2180 H 209.309 -0.744382 0.0624804 0
M  V30 2181 H 211.971 -1.75179 0.854305 0
M  V30 2182 H 211.067 -3.11649 0.167641 0
M  V30 2183 N 211.368 -0.403325 -1.52352 0
M  V30 2184 C 212.298 0.416205 -2.29761 0
M  V30 2185 C 213.279 1.05123 -1.33728 0
M  V30 2186 O 214.464 1.06134 -1.62632 0
M  V30 2187 C 211.594 1.53624 -3.11475 0
M  V30 2188 C 210.548 1.02653 -4.15507 0
M  V30 2189 C 209.874 2.23971 -4.85532 0
M  V30 2190 C 211.174 0.08463 -5.22231 0
M  V30 2191 H 212.868 -0.229701 -2.98518 0
M  V30 2192 H 210.414 -0.111913 -1.43564 0
M  V30 2193 H 212.367 2.1165 -3.64393 0
M  V30 2194 H 211.091 2.20994 -2.40477 0
M  V30 2195 H 209.75 0.46871 -3.63591 0
M  V30 2196 H 209.398 2.89883 -4.11068 0
M  V30 2197 H 209.098 1.90521 -5.55856 0
M  V30 2198 H 210.622 2.82614 -5.41259 0
M  V30 2199 H 212.036 0.573509 -5.70424 0
M  V30 2200 H 210.433 -0.160783 -5.99885 0
M  V30 2201 H 211.503 -0.86237 -4.7717 0
M  V30 2202 N 212.846 1.57033 -0.133567 0
M  V30 2203 C 214.092 1.95976 0.521649 0
M  V30 2204 C 214.425 1.01779 1.65393 0
M  V30 2205 O 213.7 0.0576581 1.94415 0
M  V30 2206 C 213.983 3.44738 1.04057 0
M  V30 2207 C 213.836 4.49711 -0.0892897 0
M  V30 2208 C 215.155 3.95682 1.92675 0
M  V30 2209 H 212.274 0.712579 0.188149 0
M  V30 2210 H 214.916 1.88813 -0.212076 0
M  V30 2211 H 213.066 3.50973 1.66583 0
M  V30 2212 H 214.738 4.55565 -0.725152 0
M  V30 2213 H 212.981 4.27261 -0.750378 0
M  V30 2214 H 213.652 5.51099 0.315284 0
M  V30 2215 H 216.128 3.91841 1.39998 0
M  V30 2216 H 215.004 5.00262 2.25897 0
M  V30 2217 H 215.265 3.37239 2.85872 0
M  V30 2218 N 214.325 -0.140222 1.56975 0
M  V30 2219 C 215.573 -0.850005 1.83356 0
M  V30 2220 C 215.894 -1.81399 0.71551 0
M  V30 2221 O 215.164 -1.94136 -0.262294 0
M  V30 2222 H 213.744 -0.316886 0.676456 0
M  V30 2223 H 216.406 -0.132608 1.94448 0
M  V30 2224 H 215.502 -1.40814 2.78528 0
M  V30 2225 N 215.803 -1.52179 -0.40978 0
M  V30 2226 C 216.75 -1.75475 -1.49924 0
M  V30 2227 C 217.72 -0.597175 -1.54994 0
M  V30 2228 O 218.905 -0.834655 -1.71575 0
M  V30 2229 C 216.045 -1.9107 -2.87378 0
M  V30 2230 C 215.158 -3.18717 -2.91622 0
M  V30 2231 C 214.293 -3.24747 -4.20372 0
M  V30 2232 C 213.332 -4.46598 -4.18588 0
M  V30 2233 N 212.469 -4.50025 -5.38908 0
M  V30 2234 H 217.309 -2.68458 -1.29361 0
M  V30 2235 H 214.846 -1.33024 -0.627934 0
M  V30 2236 H 216.804 -1.98096 -3.6717 0
M  V30 2237 H 215.434 -1.01469 -3.06437 0
M  V30 2238 H 214.486 -3.20866 -2.04326 0
M  V30 2239 H 215.798 -4.08544 -2.86169 0
M  V30 2240 H 214.952 -3.30841 -5.08556 0
M  V30 2241 H 213.691 -2.32857 -4.28519 0
M  V30 2242 H 212.696 -4.40652 -3.28794 0
M  V30 2243 H 213.921 -5.39783 -4.12081 0
M  V30 2244 H 211.867 -3.61017 -5.47725 0
M  V30 2245 H 211.784 -5.33697 -5.35447 0
M  V30 2246 H 213.052 -4.60347 -6.29048 0
M  V30 2247 N 217.281 0.66697 -1.42791 0
M  V30 2248 C 218.211 1.79218 -1.49677 0
M  V30 2249 C 219.192 1.66405 -0.352623 0
M  V30 2250 O 220.377 1.85708 -0.567993 0
M  V30 2251 C 217.507 3.17565 -1.40605 0
M  V30 2252 C 216.461 3.45124 -2.53127 0
M  V30 2253 C 215.787 4.83127 -2.29112 0
M  V30 2254 C 217.087 3.41236 -3.95418 0
M  V30 2255 H 218.781 1.73713 -2.43853 0
M  V30 2256 H 216.327 0.83432 -1.17367 0
M  V30 2257 H 218.28 3.96022 -1.44029 0
M  V30 2258 H 217.004 3.23767 -0.429271 0
M  V30 2259 H 215.663 2.69031 -2.49034 0
M  V30 2260 H 215.311 4.85988 -1.29709 0
M  V30 2261 H 215.011 5.02528 -3.04531 0
M  V30 2262 H 216.535 5.63859 -2.34297 0
M  V30 2263 H 217.949 4.09651 -4.01073 0
M  V30 2264 H 216.346 3.72173 -4.70752 0
M  V30 2265 H 217.416 2.39665 -4.21532 0
M  V30 2266 N 218.759 1.29093 0.90403 0
M  V30 2267 C 219.722 1.1386 1.98919 0
M  V30 2268 C 220.722 0.0753457 1.60623 0
M  V30 2269 O 221.912 0.321931 1.71199 0
M  V30 2270 C 219.044 0.740198 3.32767 0
M  V30 2271 H 220.237 2.10246 2.13861 0
M  V30 2272 H 217.79 1.12218 1.08797 0
M  V30 2273 H 218.525 -0.223997 3.23525 0
M  V30 2274 H 218.31 1.50838 3.61926 0
M  V30 2275 H 219.8 0.656546 4.12407 0
M  V30 2276 N 220.237 -1.11381 1.11499 0
M  V30 2277 C 221.2 -2.15622 0.777153 0
M  V30 2278 C 222.2 -1.59504 -0.203779 0
M  V30 2279 O 223.39 -1.74188 0.020782 0
M  V30 2280 C 220.522 -3.40556 0.153116 0
M  V30 2281 H 221.715 -2.47021 1.70061 0
M  V30 2282 H 219.268 -1.26577 0.916952 0
M  V30 2283 H 220.003 -3.14767 -0.780536 0
M  V30 2284 H 219.788 -3.8257 0.859238 0
M  V30 2285 H 221.278 -4.17546 -0.0671044 0
M  V30 2286 N 221.715 -0.905404 -1.28997 0
M  V30 2287 C 222.94 -0.549175 -1.99997 0
M  V30 2288 C 223.365 0.860276 -1.67275 0
M  V30 2289 O 222.723 1.57355 -0.900502 0
M  V30 2290 C 222.771 -0.755185 -3.52604 0
M  V30 2291 O 221.875 0.189692 -4.11964 0
M  V30 2292 H 221.216 -0.213899 -0.628604 0
M  V30 2293 H 223.746 -1.21856 -1.64354 0
M  V30 2294 H 223.756 -0.662045 -4.02593 0
M  V30 2295 H 222.431 -1.78271 -3.75755 0
M  V30 2296 H 221.008 0.0485257 -3.72868 0
M  V30 2297 N 223.193 1.4272 -0.668489 0
M  V30 2298 C 224.441 2.01226 -0.187769 0
M  V30 2299 C 224.762 1.53092 1.2078 0
M  V30 2300 O 224.032 0.74993 1.80977 0
M  V30 2301 H 222.612 0.744041 -0.0664272 0
M  V30 2302 H 225.274 1.74723 -0.863583 0
M  V30 2303 H 224.37 3.11556 -0.184166 0
M  V30 2304 N 224.671 0.411399 1.52136 0
M  V30 2305 C 225.896 -0.165538 2.06738 0
M  V30 2306 C 226.321 -1.379 1.27926 0
M  V30 2307 O 225.679 -1.78628 0.310114 0
M  V30 2308 C 225.727 -0.492124 3.57226 0
M  V30 2309 O 224.831 -1.58276 3.80818 0
M  V30 2310 H 224.172 -0.0132132 0.663869 0
M  V30 2311 H 226.702 0.585253 1.96051 0
M  V30 2312 H 226.712 -0.750104 4.01045 0
M  V30 2313 H 225.387 0.394922 4.14021 0
M  V30 2314 H 223.964 -1.31677 3.48877 0
M  V30 2315 N 226.149 -1.5696 0.141893 0
M  V30 2316 C 227.398 -1.95135 -0.510427 0
M  V30 2317 C 227.711 -1.02896 -1.66348 0
M  V30 2318 O 228.917 -1.30629 -2.38009 0
M  V30 2319 C 227.373 -3.46876 -0.959427 0
M  V30 2320 C 226.981 -4.47691 0.166419 0
M  V30 2321 C 228.725 -3.93927 -1.58183 0
M  V30 2322 C 226.632 -5.90636 -0.300565 0
M  V30 2323 H 225.562 -0.728494 -0.194454 0
M  V30 2324 H 228.213 -1.8211 0.22542 0
M  V30 2325 H 226.595 -3.55215 -1.75038 0
M  V30 2326 H 227.769 -4.51043 0.94325 0
M  V30 2327 H 226.084 -4.10527 0.696905 0
M  V30 2328 H 228.681 -4.98158 -1.94275 0
M  V30 2329 H 229.024 -3.3519 -2.46888 0
M  V30 2330 H 229.557 -3.88484 -0.855863 0
M  V30 2331 H 226.296 -6.5318 0.550989 0
M  V30 2332 H 225.816 -5.90655 -1.04338 0
M  V30 2333 H 227.495 -6.42588 -0.754265 0
M  V30 2334 N 227.627 0.131896 -1.57047 0
M  V30 2335 C 228.855 0.856461 -1.88341 0
M  V30 2336 C 229.27 1.74042 -0.731757 0
M  V30 2337 O 228.627 1.80051 0.297945 0
M  V30 2338 C 228.678 1.70064 -3.18999 0
M  V30 2339 O 228.399 0.852278 -4.2973 0
M  V30 2340 C 229.9 2.53148 -3.63911 0
M  V30 2341 H 227.12 0.246885 -0.62393 0
M  V30 2342 H 229.664 0.120152 -2.04147 0
M  V30 2343 H 227.819 2.38984 -3.04902 0
M  V30 2344 H 228.233 1.43329 -5.04537 0
M  V30 2345 H 229.707 3.07931 -4.58129 0
M  V30 2346 H 230.184 3.29901 -2.89935 0
M  V30 2347 H 230.79 1.89492 -3.80753 0
M  V30 2348 N 229.106 1.52395 0.401703 0
M  V30 2349 C 230.039 1.70999 1.51111 0
M  V30 2350 C 231.017 0.55765 1.52738 0
M  V30 2351 O 232.201 0.785912 1.71335 0
M  V30 2352 C 229.328 1.75607 2.8962 0
M  V30 2353 C 228.374 2.97227 3.05873 0
M  V30 2354 S 229.207 4.57439 2.78405 0
M  V30 2355 C 230.363 4.64844 4.19131 0
M  V30 2356 H 230.596 2.6483 1.35102 0
M  V30 2357 H 228.129 1.42527 0.593762 0
M  V30 2358 H 230.087 1.78947 3.69443 0
M  V30 2359 H 228.748 0.828914 3.02965 0
M  V30 2360 H 227.941 2.96955 4.07227 0
M  V30 2361 H 227.543 2.91813 2.33925 0
M  V30 2362 H 229.835 4.42677 5.12877 0
M  V30 2363 H 230.778 5.66807 4.24424 0
M  V30 2364 H 231.186 3.93804 4.04448 0
M  V30 2365 N 230.584 -0.659388 1.43143 0
M  V30 2366 C 231.516 -1.7849 1.43784 0
M  V30 2367 C 232.529 -1.5932 0.334787 0
M  V30 2368 O 233.718 -1.68155 0.598842 0
M  V30 2369 C 230.818 -3.15828 1.22906 0
M  V30 2370 C 229.991 -3.61711 2.45934 0
M  V30 2371 C 229.05 -4.77831 2.20371 0
M  V30 2372 O 228.076 -4.87586 2.93681 0
M  V30 2373 N 229.278 -5.67611 1.21647 0
M  V30 2374 H 232.043 -1.7842 2.40803 0
M  V30 2375 H 229.604 -0.84302 1.3822 0
M  V30 2376 H 231.596 -3.91189 1.03697 0
M  V30 2377 H 230.166 -3.10707 0.343542 0
M  V30 2378 H 229.386 -2.76861 2.80609 0
M  V30 2379 H 230.674 -3.89112 3.27825 0
M  V30 2380 H 230.072 -5.62397 0.610449 0
M  V30 2381 H 228.629 -6.42719 1.08423 0
M  V30 2382 N 232.062 -1.29571 -0.897171 0
M  V30 2383 C 233.01 -1.14802 -2.02295 0
M  V30 2384 C 234.004 -0.0629637 -1.69283 0
M  V30 2385 O 235.21 -0.222945 -1.78614 0
M  V30 2386 H 231.585 -0.354692 -0.663097 0
M  V30 2387 H 233.556 -2.10108 -2.11889 0
M  V30 2388 C 232.305 -0.843966 -3.37302 0
M  V30 2389 H 231.628 -1.67093 -3.63208 0
M  V30 2390 H 233.068 -0.780672 -4.16751 0
M  V30 2391 C 231.527 0.452843 -3.33843 0
M  V30 2392 O 232.057 1.47813 -3.73516 0
M  V30 2393 N 230.263 0.459601 -2.86943 0
M  V30 2394 H 229.81 -0.375213 -2.54853 0
M  V30 2395 H 229.768 1.32726 -2.85011 0
M  V30 2396 N 233.54 1.10788 -1.12088 0
M  V30 2397 C 234.789 1.82036 -0.868659 0
M  V30 2398 C 235.102 1.85929 0.607426 0
M  V30 2399 O 236.308 2.53346 0.97613 0
M  V30 2400 C 234.764 3.26951 -1.50435 0
M  V30 2401 C 234.372 3.31367 -3.01496 0
M  V30 2402 C 236.116 4.03053 -1.33225 0
M  V30 2403 C 234.023 4.7072 -3.58017 0
M  V30 2404 H 232.953 0.682108 -0.321318 0
M  V30 2405 H 235.604 1.24618 -1.34694 0
M  V30 2406 H 233.986 3.84343 -0.953735 0
M  V30 2407 H 235.16 2.83819 -3.6302 0
M  V30 2408 H 233.475 2.6875 -3.18061 0
M  V30 2409 H 236.072 5.05981 -1.72878 0
M  V30 2410 H 236.415 4.15387 -0.275529 0
M  V30 2411 H 236.948 3.52066 -1.85188 0
M  V30 2412 H 233.687 4.63585 -4.63432 0
M  V30 2413 H 233.207 5.1865 -3.01268 0
M  V30 2414 H 234.886 5.39685 -3.56859 0
M  V30 2415 N 235.018 0.912232 1.28515 0
M  V30 2416 C 236.266 0.543523 1.94654 0
M  V30 2417 C 236.587 -0.9155 1.72173 0
M  V30 2418 O 235.857 -1.64708 1.06058 0
M  V30 2419 H 234.437 0.198017 0.720277 0
M  V30 2420 H 237.099 1.16126 1.56527 0
M  V30 2421 H 236.195 0.736684 3.03281 0
M  V30 2422 N 236.496 -1.42363 0.676048 0
M  V30 2423 C 237.459 -2.29199 0.00766941 0
M  V30 2424 C 238.459 -1.43389 -0.727745 0
M  V30 2425 O 239.649 -1.64764 -0.56556 0
M  V30 2426 C 236.781 -3.2591 -0.999785 0
M  V30 2427 H 237.974 -2.89794 0.771988 0
M  V30 2428 H 235.527 -1.50024 0.438468 0
M  V30 2429 H 236.262 -2.70256 -1.79255 0
M  V30 2430 H 236.047 -3.89202 -0.475829 0
M  V30 2431 H 237.537 -3.91028 -1.46583 0
M  V30 2432 N 237.974 -0.419461 -1.51915 0
M  V30 2433 C 238.907 0.445751 -2.23804 0
M  V30 2434 C 239.885 1.03951 -1.25031 0
M  V30 2435 O 241.069 1.08541 -1.54114 0
M  V30 2436 C 238.196 1.61964 -2.97465 0
M  V30 2437 C 237.242 1.14828 -4.10751 0
M  V30 2438 S 238.075 0.104938 -5.35397 0
M  V30 2439 C 239.231 1.28391 -6.1259 0
M  V30 2440 H 239.464 -0.164627 -2.96844 0
M  V30 2441 H 236.997 -0.203833 -1.53049 0
M  V30 2442 H 238.955 2.29271 -3.40507 0
M  V30 2443 H 237.616 2.20139 -2.24048 0
M  V30 2444 H 236.809 2.02561 -4.61503 0
M  V30 2445 H 236.411 0.553712 -3.69878 0
M  V30 2446 H 238.703 2.20563 -6.40592 0
M  V30 2447 H 239.646 0.816724 -7.03374 0
M  V30 2448 H 240.054 1.51439 -5.43807 0
M  V30 2449 N 239.452 1.56882 -0.150215 0
M  V30 2450 C 240.677 2.01027 0.510184 0
M  V30 2451 C 241.102 1.02966 1.57415 0
M  V30 2452 O 240.46 0.00590158 1.81299 0
M  V30 2453 C 240.508 3.43899 1.08472 0
M  V30 2454 O 239.612 3.4885 2.19948 0
M  V30 2455 H 238.953 0.652233 0.124451 0
M  V30 2456 H 241.483 2.03093 -0.247894 0
M  V30 2457 H 241.493 3.82766 1.41259 0
M  V30 2458 H 240.168 4.14776 0.305582 0
M  V30 2459 H 238.745 3.21827 1.88366 0
M  V30 2460 N 240.93 -0.123565 1.57115 0
M  V30 2461 C 242.155 -0.850398 1.89164 0
M  V30 2462 C 242.58 -1.7286 0.741688 0
M  V30 2463 O 241.938 -1.78665 -0.307958 0
M  V30 2464 C 241.986 -1.66353 3.19936 0
M  V30 2465 O 241.09 -2.77004 3.0552 0
M  V30 2466 H 240.431 -0.235454 0.620852 0
M  V30 2467 H 242.961 -0.107335 2.04318 0
M  V30 2468 H 242.971 -2.05372 3.52543 0
M  V30 2469 H 241.646 -1.01881 4.03228 0
M  V30 2470 H 240.223 -2.41221 2.84371 0
M  V30 2471 N 242.408 -1.52605 -0.393616 0
M  V30 2472 C 243.638 -1.71046 -1.15874 0
M  V30 2473 C 244.046 -0.426483 -1.84331 0
M  V30 2474 O 243.389 0.608513 -1.73329 0
M  V30 2475 C 243.451 -2.80118 -2.25332 0
M  V30 2476 C 243.115 -4.21381 -1.76881 0
M  V30 2477 C 244.112 -5.04697 -1.24808 0
M  V30 2478 C 241.797 -4.67683 -1.83244 0
M  V30 2479 C 243.791 -6.32393 -0.797387 0
M  V30 2480 C 241.478 -5.95364 -1.37787 0
M  V30 2481 C 242.476 -6.77549 -0.861208 0
M  V30 2482 O 242.164 -8.02837 -0.413252 0
M  V30 2483 H 241.896 -0.576155 -0.353583 0
M  V30 2484 H 244.45 -2.00018 -0.467123 0
M  V30 2485 H 242.68 -2.46557 -2.97904 0
M  V30 2486 H 244.369 -2.87006 -2.87023 0
M  V30 2487 H 245.135 -4.70111 -1.19252 0
M  V30 2488 H 241.014 -4.03805 -2.22401 0
M  V30 2489 H 244.558 -6.9649 -0.393437 0
M  V30 2490 H 240.455 -6.29455 -1.43026 0
M  V30 2491 H 241.223 -8.16749 -0.53515 0
M  V30 2492 N 243.887 0.651787 -1.4349 0
M  V30 2493 C 244.817 1.77621 -1.51569 0
M  V30 2494 C 245.798 1.66022 -0.370253 0
M  V30 2495 O 246.983 1.85095 -0.587658 0
M  V30 2496 C 244.113 3.16056 -1.43966 0
M  V30 2497 C 243.067 3.4242 -2.56774 0
M  V30 2498 C 242.393 4.8067 -2.34223 0
M  V30 2499 C 243.693 3.37023 -3.99015 0
M  V30 2500 H 245.387 1.71117 -2.45681 0
M  V30 2501 H 242.933 0.821825 -1.18246 0
M  V30 2502 H 244.886 3.94472 -1.48221 0
M  V30 2503 H 243.61 3.23293 -0.463586 0
M  V30 2504 H 242.269 2.66375 -2.51873 0
M  V30 2505 H 241.917 4.84585 -1.34856 0
M  V30 2506 H 241.617 4.9927 -3.09844 0
M  V30 2507 H 243.141 5.61342 -2.40265 0
M  V30 2508 H 244.555 4.05374 -4.05395 0
M  V30 2509 H 242.952 3.67159 -4.74673 0
M  V30 2510 H 244.022 2.3518 -4.2405 0
M  V30 2511 N 245.365 1.30045 0.890287 0
M  V30 2512 C 246.612 1.18561 1.64163 0
M  V30 2513 C 246.94 -0.260852 1.92743 0
M  V30 2514 O 246.195 -1.20376 1.54299 0
M  V30 2515 C 246.494 1.95409 2.99249 0
M  V30 2516 C 246.16 3.45066 2.90242 0
M  V30 2517 C 244.822 3.85878 2.87492 0
M  V30 2518 C 247.174 4.4039 2.78758 0
M  V30 2519 C 244.502 5.20314 2.7109 0
M  V30 2520 C 246.854 5.74928 2.63894 0
M  V30 2521 C 245.518 6.14986 2.59516 0
M  V30 2522 H 244.788 0.433846 0.600715 0
M  V30 2523 H 247.435 1.61088 1.03552 0
M  V30 2524 H 245.74 1.45501 3.63781 0
M  V30 2525 H 247.437 1.8392 3.56334 0
M  V30 2526 H 244.027 3.12631 2.93189 0
M  V30 2527 H 248.211 4.09806 2.79952 0
M  V30 2528 H 243.467 5.50449 2.66112 0
M  V30 2529 H 247.641 6.48434 2.53981 0
M  V30 2530 H 245.268 7.19104 2.46565 0
M  V30 2531 N 246.843 -1.10192 1.12674 0
M  V30 2532 C 248.092 -1.81573 0.8783 0
M  V30 2533 C 248.405 -1.86249 -0.597557 0
M  V30 2534 O 249.611 -2.5386 -0.962681 0
M  V30 2535 C 248.067 -3.26149 1.52167 0
M  V30 2536 C 247.675 -3.29763 3.03249 0
M  V30 2537 C 249.419 -4.0234 1.3536 0
M  V30 2538 C 247.326 -4.68815 3.60508 0
M  V30 2539 H 246.256 -0.680394 0.324931 0
M  V30 2540 H 248.907 -1.23902 1.35353 0
M  V30 2541 H 247.289 -3.83832 0.974104 0
M  V30 2542 H 248.463 -2.8189 3.6452 0
M  V30 2543 H 246.778 -2.67059 3.19481 0
M  V30 2544 H 249.375 -5.05058 1.75559 0
M  V30 2545 H 249.718 -4.15235 0.297554 0
M  V30 2546 H 250.251 -3.51079 1.87052 0
M  V30 2547 H 246.99 -4.61121 4.65884 0
M  V30 2548 H 246.51 -5.17045 3.04014 0
M  V30 2549 H 248.189 -5.37785 3.59717 0
M  V30 2550 N 248.321 -0.919034 -1.28029 0
M  V30 2551 C 249.567 -0.555757 -1.95036 0
M  V30 2552 C 249.9 0.899198 -1.72128 0
M  V30 2553 O 249.175 1.64023 -1.04531 0
M  V30 2554 C 249.458 -0.872024 -3.49382 0
M  V30 2555 C 249.311 -2.3801 -3.81669 0
M  V30 2556 C 250.63 -0.37185 -4.38526 0
M  V30 2557 H 247.749 -0.203386 -0.708381 0
M  V30 2558 H 250.391 -1.14924 -1.51303 0
M  V30 2559 H 248.541 -0.366946 -3.86763 0
M  V30 2560 H 250.213 -2.9562 -3.54128 0
M  V30 2561 H 248.456 -2.83289 -3.28526 0
M  V30 2562 H 249.127 -2.55192 -4.8947 0
M  V30 2563 H 251.603 -0.804602 -4.08247 0
M  V30 2564 H 250.479 -0.622173 -5.45362 0
M  V30 2565 H 250.74 0.727934 -4.36066 0
M  V30 2566 N 249.799 1.42003 -0.683588 0
M  V30 2567 C 250.746 2.30798 -0.0107309 0
M  V30 2568 C 251.716 1.4645 0.783688 0
M  V30 2569 O 252.901 1.75263 0.754156 0
M  V30 2570 C 250.041 3.3238 0.928306 0
M  V30 2571 C 249.154 4.31814 0.126776 0
M  V30 2572 C 248.289 5.20468 1.06236 0
M  V30 2573 C 247.328 6.11577 0.253035 0
M  V30 2574 N 246.465 6.92754 1.14179 0
M  V30 2575 H 251.305 2.8778 -0.773727 0
M  V30 2576 H 248.842 1.41745 -0.393283 0
M  V30 2577 H 250.8 3.89813 1.48666 0
M  V30 2578 H 249.43 2.76976 1.65783 0
M  V30 2579 H 248.482 3.76427 -0.54833 0
M  V30 2580 H 249.794 4.96276 -0.501192 0
M  V30 2581 H 248.948 5.82677 1.69035 0
M  V30 2582 H 247.687 4.56204 1.7242 0
M  V30 2583 H 246.692 5.48428 -0.388108 0
M  V30 2584 H 247.917 6.77892 -0.404839 0
M  V30 2585 H 245.863 6.3111 1.78987 0
M  V30 2586 H 245.78 7.53855 0.569111 0
M  V30 2587 H 247.048 7.59441 1.75697 0
M  V30 2588 N 251.277 0.427512 1.51691 0
M  V30 2589 C 252.507 -0.140986 2.06118 0
M  V30 2590 C 252.915 -1.37854 1.29588 0
M  V30 2591 O 252.258 -1.80411 0.346036 0
M  V30 2592 C 252.32 -0.538276 3.55447 0
M  V30 2593 C 251.984 0.591095 4.53161 0
M  V30 2594 C 252.981 1.46027 4.98971 0
M  V30 2595 C 250.666 0.769028 4.96378 0
M  V30 2596 C 252.66 2.49216 5.8666 0
M  V30 2597 C 250.347 1.80421 5.83859 0
M  V30 2598 C 251.345 2.66417 6.28897 0
M  V30 2599 O 251.033 3.68159 7.14643 0
M  V30 2600 H 250.765 -0.0157455 0.675817 0
M  V30 2601 H 253.319 0.602495 1.96365 0
M  V30 2602 H 251.549 -1.33432 3.6295 0
M  V30 2603 H 253.238 -1.0368 3.92435 0
M  V30 2604 H 254.004 1.33429 4.66285 0
M  V30 2605 H 249.883 0.109273 4.6087 0
M  V30 2606 H 253.427 3.16372 6.21735 0
M  V30 2607 H 249.324 1.93042 6.15959 0
M  V30 2608 H 250.092 3.64622 7.32798 0
M  V30 2609 N 252.755 -1.56801 0.158532 0
M  V30 2610 C 253.665 -2.20916 -0.789518 0
M  V30 2611 C 254.681 -1.1969 -1.26294 0
M  V30 2612 O 255.857 -1.52308 -1.31773 0
M  V30 2613 C 252.922 -2.82727 -2.00665 0
M  V30 2614 C 251.983 -3.99114 -1.58134 0
M  V30 2615 C 251.216 -4.57968 -2.74045 0
M  V30 2616 O 251.439 -4.15704 -3.90572 0
M  V30 2617 O 250.373 -5.48047 -2.48855 0
M  V30 2618 H 254.199 -3.02464 -0.273681 0
M  V30 2619 H 251.784 -1.4924 -0.0690548 0
M  V30 2620 H 253.666 -3.21968 -2.71872 0
M  V30 2621 H 252.341 -2.04184 -2.51179 0
M  V30 2622 H 251.248 -3.64567 -0.839155 0
M  V30 2623 H 252.581 -4.79212 -1.12325 0
M  V30 2624 N 254.233 0.115231 -1.57178 0
M  V30 2625 C 255.163 1.1423 -2.03651 0
M  V30 2626 C 256.144 1.42967 -0.921655 0
M  V30 2627 O 257.329 1.53343 -1.19162 0
M  V30 2628 C 254.459 2.4675 -2.44401 0
M  V30 2629 C 253.413 2.32467 -3.59365 0
M  V30 2630 C 252.739 3.69984 -3.86026 0
M  V30 2631 C 254.039 1.78203 -4.90959 0
M  V30 2632 H 255.733 0.755749 -2.89705 0
M  V30 2633 H 253.279 0.362093 -1.39373 0
M  V30 2634 H 255.232 3.18854 -2.75517 0
M  V30 2635 H 253.956 2.87302 -1.55322 0
M  V30 2636 H 252.615 1.62811 -3.28463 0
M  V30 2637 H 252.263 4.08028 -2.94147 0
M  V30 2638 H 251.963 3.61279 -4.63412 0
M  V30 2639 H 253.487 4.43587 -4.19599 0
M  V30 2640 H 254.901 2.40128 -5.20587 0
M  V30 2641 H 253.298 1.8031 -5.72371 0
M  V30 2642 H 254.368 0.739876 -4.79222 0
M  V30 2643 N 255.711 1.52812 0.385517 0
M  V30 2644 C 257.122 1.5993 0.963293 0
M  V30 2645 C 257.473 0.454302 1.90868 0
M  V30 2646 O 256.598 -0.422132 2.12243 0
M  V30 2647 C 257.193 2.89871 1.75387 0
M  V30 2648 C 255.752 2.99389 2.28129 0
M  V30 2649 C 254.899 2.55071 1.08783 0
M  V30 2650 H 257.85 1.5784 0.164948 0
M  V30 2651 H 257.871 2.76553 2.61341 0
M  V30 2652 H 257.383 3.73186 1.06554 0
M  V30 2653 H 255.484 2.20619 3.00263 0
M  V30 2654 H 255.597 4.04096 2.57377 0
M  V30 2655 H 253.961 2.09473 1.4489 0
M  V30 2656 H 254.744 3.40785 0.414807 0
M  V30 2657 N 257.189 -0.644168 1.43834 0
M  V30 2658 C 258.119 -1.76814 1.52509 0
M  V30 2659 C 259.1 -1.65823 0.379052 0
M  V30 2660 O 260.285 -1.84781 0.597466 0
M  V30 2661 C 257.415 -3.15288 1.4564 0
M  V30 2662 C 256.369 -3.41053 2.58586 0
M  V30 2663 C 255.695 -4.79421 2.36769 0
M  V30 2664 C 256.995 -3.34902 4.00797 0
M  V30 2665 H 258.689 -1.69812 2.46586 0
M  V30 2666 H 256.235 -0.815542 1.1868 0
M  V30 2667 H 258.188 -3.93681 1.50311 0
M  V30 2668 H 256.912 -3.23043 0.480725 0
M  V30 2669 H 255.571 -2.65035 2.53282 0
M  V30 2670 H 255.219 -4.83863 1.37424 0
M  V30 2671 H 254.919 -4.9762 3.12487 0
M  V30 2672 H 256.443 -5.6006 2.43238 0
M  V30 2673 H 257.857 -4.03218 4.07539 0
M  V30 2674 H 256.254 -3.64637 4.76613 0
M  V30 2675 H 257.324 -2.32928 4.25291 0
M  V30 2676 N 258.668 -1.30515 -0.883378 0
M  V30 2677 C 259.914 -1.19607 -1.63774 0
M  V30 2678 C 260.247 0.248314 -1.92606 0
M  V30 2679 O 259.522 1.17742 -1.54813 0
M  V30 2680 C 259.805 -2.02669 -2.97653 0
M  V30 2681 C 259.658 -3.55335 -2.75784 0
M  V30 2682 C 260.977 -1.86573 -3.98596 0
M  V30 2683 H 258.096 -0.435856 -0.594305 0
M  V30 2684 H 260.738 -1.60165 -1.02212 0
M  V30 2685 H 258.888 -1.68208 -3.50197 0
M  V30 2686 H 260.56 -3.99863 -2.30016 0
M  V30 2687 H 258.803 -3.79438 -2.1026 0
M  V30 2688 H 259.474 -4.08745 -3.70988 0
M  V30 2689 H 261.95 -2.16703 -3.55217 0
M  V30 2690 H 260.826 -2.47014 -4.90179 0
M  V30 2691 H 261.087 -0.825321 -4.34328 0
M  V30 2692 N 260.146 1.09593 -1.13257 0
M  V30 2693 C 261.395 1.81105 -0.887917 0
M  V30 2694 C 261.708 1.86563 0.587672 0
M  V30 2695 O 262.914 2.54367 0.949204 0
M  V30 2696 C 261.37 3.25338 -1.53895 0
M  V30 2697 C 260.978 3.28151 -3.04994 0
M  V30 2698 C 262.722 4.01617 -1.37492 0
M  V30 2699 C 260.629 4.66897 -3.6299 0
M  V30 2700 H 259.559 0.678661 -0.328534 0
M  V30 2701 H 262.21 1.23183 -1.36008 0
M  V30 2702 H 260.592 3.8331 -0.994446 0
M  V30 2703 H 261.766 2.79953 -3.66009 0
M  V30 2704 H 260.081 2.65361 -3.20893 0
M  V30 2705 H 262.678 5.04119 -1.78235 0
M  V30 2706 H 263.021 4.15072 -0.31957 0
M  V30 2707 H 263.554 3.50082 -1.88912 0
M  V30 2708 H 260.293 4.58643 -4.68323 0
M  V30 2709 H 259.813 5.15426 -3.06752 0
M  V30 2710 H 261.492 5.3587 -3.62563 0
M  V30 2711 N 261.624 0.925811 1.2754 0
M  V30 2712 C 262.556 0.380753 2.26015 0
M  V30 2713 C 263.569 -0.487485 1.5533 0
M  V30 2714 O 264.758 -0.300413 1.75954 0
M  V30 2715 C 261.858 -0.473259 3.35579 0
M  V30 2716 C 261.031 0.375249 4.35787 0
M  V30 2717 C 260.09 -0.415809 5.24555 0
M  V30 2718 O 259.116 0.175834 5.68928 0
M  V30 2719 N 260.318 -1.71607 5.54555 0
M  V30 2720 H 263.083 1.22725 2.73421 0
M  V30 2721 H 260.644 0.793037 1.41147 0
M  V30 2722 H 262.636 -1.00949 3.91907 0
M  V30 2723 H 261.206 -1.2205 2.87789 0
M  V30 2724 H 260.426 1.09279 3.7875 0
M  V30 2725 H 261.714 0.955399 4.99749 0
M  V30 2726 H 261.112 -2.2191 5.20358 0
M  V30 2727 H 259.669 -2.19887 6.1359 0
M  V30 2728 N 263.102 -1.41638 0.69111 0
M  V30 2729 C 264.065 -2.29178 0.0319786 0
M  V30 2730 C 265.065 -1.44153 -0.712496 0
M  V30 2731 O 266.255 -1.65354 -0.548053 0
M  V30 2732 C 263.387 -3.26952 -0.965161 0
M  V30 2733 H 264.58 -2.88959 0.802681 0
M  V30 2734 H 262.133 -1.4955 0.454356 0
M  V30 2735 H 262.868 -2.72142 -1.76378 0
M  V30 2736 H 262.653 -3.89685 -0.434522 0
M  V30 2737 H 264.143 -3.92561 -1.42428 0
M  V30 2738 N 264.58 -0.43555 -1.51462 0
M  V30 2739 C 265.51 0.367376 -2.30592 0
M  V30 2740 C 266.491 1.02263 -1.35928 0
M  V30 2741 O 267.676 1.02661 -1.64847 0
M  V30 2742 C 264.806 1.46983 -3.14664 0
M  V30 2743 C 263.76 0.938161 -4.17591 0
M  V30 2744 C 263.086 2.13622 -4.90173 0
M  V30 2745 C 264.386 -0.0261621 -5.22293 0
M  V30 2746 H 266.08 -0.292969 -2.97963 0
M  V30 2747 H 263.626 -0.14234 -1.43295 0
M  V30 2748 H 265.579 2.03873 -3.688 0
M  V30 2749 H 264.303 2.15843 -2.4511 0
M  V30 2750 H 262.962 0.391481 -3.64504 0
M  V30 2751 H 262.61 2.81098 -4.17124 0
M  V30 2752 H 262.31 1.78688 -5.59772 0
M  V30 2753 H 263.834 2.7107 -5.47132 0
M  V30 2754 H 265.248 0.452384 -5.71512 0
M  V30 2755 H 263.645 -0.287992 -5.99409 0
M  V30 2756 H 264.715 -0.963391 -4.75233 0
M  V30 2757 N 266.058 1.56714 -0.166846 0
M  V30 2758 C 267.286 2.0112 0.485644 0
M  V30 2759 C 267.701 1.04705 1.57106 0
M  V30 2760 O 267.058 0.0471923 1.82439 0
M  V30 2761 C 267.109 3.45361 1.06808 0
M  V30 2762 O 266.83 4.38092 0.0259995 0
M  V30 2763 C 268.331 4.05145 1.79924 0
M  V30 2764 H 265.551 0.65931 0.124704 0
M  V30 2765 H 268.095 2.02746 -0.267262 0
M  V30 2766 H 266.25 3.44524 1.7715 0
M  V30 2767 H 266.664 5.22519 0.455398 0
M  V30 2768 H 268.138 5.08009 2.15942 0
M  V30 2769 H 268.615 3.46982 2.69258 0
M  V30 2770 H 269.221 4.09672 1.14234 0
M  V30 2771 N 267.536 -0.106894 1.57237 0
M  V30 2772 C 268.484 -1.14944 2.02215 0
M  V30 2773 C 269.478 -1.42167 0.92114 0
M  V30 2774 O 270.684 -1.41987 1.10634 0
M  V30 2775 H 267.059 -0.387841 0.64427 0
M  V30 2776 H 269.03 -0.743683 2.88984 0
M  V30 2777 C 267.779 -2.4647 2.4525 0
M  V30 2778 H 267.102 -2.26363 3.29545 0
M  V30 2779 H 268.542 -3.17948 2.80508 0
M  V30 2780 C 267.001 -3.09921 1.321 0
M  V30 2781 O 267.531 -3.9651 0.643622 0
M  V30 2782 N 265.737 -2.69986 1.07497 0
M  V30 2783 H 265.284 -1.99667 1.62761 0
M  V30 2784 H 265.242 -3.12769 0.319876 0
M  V30 2785 N 269.014 -1.53014 -0.377408 0
M  V30 2786 C 270.263 -1.67845 -1.11853 0
M  V30 2787 C 270.576 -0.430625 -1.90801 0
M  V30 2788 O 271.782 -0.459261 -2.67587 0
M  V30 2789 C 270.238 -2.96668 -2.03756 0
M  V30 2790 C 269.846 -4.28671 -1.30175 0
M  V30 2791 C 271.59 -3.20865 -2.77932 0
M  V30 2792 C 269.497 -5.48591 -2.20911 0
M  V30 2793 H 268.427 -0.625343 -0.421263 0
M  V30 2794 H 271.078 -1.79514 -0.380409 0
M  V30 2795 H 269.46 -2.78773 -2.8125 0
M  V30 2796 H 270.634 -4.57157 -0.578259 0
M  V30 2797 H 268.949 -4.10825 -0.679108 0
M  V30 2798 H 271.546 -4.07642 -3.46024 0
M  V30 2799 H 271.889 -2.36424 -3.4265 0
M  V30 2800 H 272.422 -3.39379 -2.07525 0
M  V30 2801 H 269.161 -6.35474 -1.6079 0
M  V30 2802 H 268.681 -5.244 -2.91144 0
M  V30 2803 H 270.36 -5.8292 -2.80736 0
M  V30 2804 N 270.492 0.636531 -1.44174 0
M  V30 2805 C 271.402 1.77754 -1.53103 0
M  V30 2806 C 272.418 1.68928 -0.417034 0
M  V30 2807 O 273.594 1.89801 -0.6736 0
M  V30 2808 C 270.659 3.14115 -1.46741 0
M  V30 2809 C 269.72 3.34612 -2.68948 0
M  V30 2810 C 268.953 4.64467 -2.6288 0
M  V30 2811 O 269.176 5.44919 -1.68581 0
M  V30 2812 O 268.11 4.87049 -3.53648 0
M  V30 2813 H 271.936 1.73174 -2.49489 0
M  V30 2814 H 269.521 0.79709 -1.2636 0
M  V30 2815 H 271.403 3.95412 -1.45696 0
M  V30 2816 H 270.078 3.19249 -0.534975 0
M  V30 2817 H 268.985 2.53014 -2.75562 0
M  V30 2818 H 270.318 3.34336 -3.61221 0
M  V30 2819 N 271.97 1.30982 0.876444 0
M  V30 2820 C 273.247 1.10942 1.61094 0
M  V30 2821 C 273.627 -0.338223 2.08373 0
M  V30 2822 O 272.975 -1.33122 1.85717 0
M  V30 2823 C 273.185 2.11789 2.77392 0
M  V30 2824 C 274.533 2.43965 3.47514 0
M  V30 2825 O 275.557 2.10166 2.87591 0
M  V30 2826 O 274.416 3.01817 4.55597 0
M  V30 2827 H 271.51 0.42667 0.708436 0
M  V30 2828 H 274.056 1.42438 0.922474 0
M  V30 2829 H 272.828 3.09194 2.39823 0
M  V30 2830 H 272.451 1.81161 3.5393 0
M  V30 2831 N 273.449 -1.08991 1.13837 0
M  V30 2832 C 274.396 -2.15748 0.819835 0
M  V30 2833 C 275.366 -1.64636 -0.220026 0
M  V30 2834 O 276.551 -1.90582 -0.0912757 0
M  V30 2835 C 273.691 -3.4382 0.296913 0
M  V30 2836 C 272.804 -4.0881 1.39636 0
M  V30 2837 C 271.939 -5.24655 0.831314 0
M  V30 2838 C 270.978 -5.81575 1.90886 0
M  V30 2839 N 270.115 -6.88774 1.36142 0
M  V30 2840 H 274.955 -2.42338 1.73426 0
M  V30 2841 H 272.492 -1.18935 0.865613 0
M  V30 2842 H 274.45 -4.17193 -0.0244339 0
M  V30 2843 H 273.08 -3.17535 -0.580628 0
M  V30 2844 H 272.132 -3.33258 1.83422 0
M  V30 2845 H 273.444 -4.47141 2.21058 0
M  V30 2846 H 272.598 -6.04942 0.461515 0
M  V30 2847 H 271.337 -4.87698 -0.013932 0
M  V30 2848 H 270.342 -4.99946 2.28767 0
M  V30 2849 H 271.567 -6.20592 2.75758 0
M  V30 2850 H 269.513 -6.53788 0.538254 0
M  V30 2851 H 269.43 -7.25898 2.11208 0
M  V30 2852 H 270.698 -7.72806 1.01933 0
M  V30 2853 N 274.927 -0.932562 -1.27047 0
M  V30 2854 C 276.155 -0.592031 -1.98249 0
M  V30 2855 C 276.57 0.831062 -1.69525 0
M  V30 2856 O 275.927 1.55299 -0.958561 0
M  V30 2857 C 275.978 -0.814279 -3.5221 0
M  V30 2858 O 275.699 -2.18139 -3.7993 0
M  V30 2859 C 277.2 -0.483121 -4.4066 0
M  V30 2860 H 274.42 -0.223896 -0.632544 0
M  V30 2861 H 276.964 -1.25091 -1.61779 0
M  V30 2862 H 275.119 -0.20213 -3.86872 0
M  V30 2863 H 275.533 -2.235 -4.74498 0
M  V30 2864 H 277.007 -0.689298 -5.47679 0
M  V30 2865 H 277.484 0.581546 -4.35333 0
M  V30 2866 H 278.09 -1.07362 -4.11526 0
M  V30 2867 N 276.405 1.4127 -0.698611 0
M  V30 2868 C 277.653 2.00782 -0.230409 0
M  V30 2869 C 277.974 1.5562 1.17505 0
M  V30 2870 O 277.244 0.78815 1.79346 0
M  V30 2871 H 275.824 0.742464 -0.0821944 0
M  V30 2872 H 278.486 1.72852 -0.90045 0
M  V30 2873 H 277.582 3.11095 -0.25021 0
M  V30 2874 N 277.883 0.443576 1.51229 0
M  V30 2875 C 278.813 -0.355142 2.30783 0
M  V30 2876 C 279.794 -1.0154 1.36468 0
M  V30 2877 O 280.979 -1.01785 1.65389 0
M  V30 2878 C 278.109 -1.45312 3.15439 0
M  V30 2879 C 277.063 -0.916002 4.18083 0
M  V30 2880 C 276.389 -2.1102 4.91299 0
M  V30 2881 C 277.689 0.0538602 5.22272 0
M  V30 2882 H 279.383 0.308767 2.97804 0
M  V30 2883 H 276.929 0.149937 1.43217 0
M  V30 2884 H 278.882 -2.01914 3.69876 0
M  V30 2885 H 277.606 -2.14541 2.46252 0
M  V30 2886 H 276.265 -0.372145 3.64706 0
M  V30 2887 H 275.913 -2.78882 4.18609 0
M  V30 2888 H 275.613 -1.75717 5.60712 0
M  V30 2889 H 277.137 -2.68164 5.48562 0
M  V30 2890 H 278.551 -0.422069 5.71744 0
M  V30 2891 H 276.948 0.319776 5.99247 0
M  V30 2892 H 278.018 0.98858 4.74716 0
M  V30 2893 N 279.361 -1.56624 0.175154 0
M  V30 2894 C 280.607 -1.98061 -0.462976 0
M  V30 2895 C 280.962 -1.05949 -1.60601 0
M  V30 2896 O 280.255 -0.0999027 -1.91339 0
M  V30 2897 C 280.449 -3.43419 -0.989864 0
M  V30 2898 C 280.278 -4.49587 0.100583 0
M  V30 2899 C 279.048 -5.02281 0.551539 0
M  V30 2900 C 281.246 -5.06322 0.902369 0
M  V30 2901 N 279.228 -5.92088 1.62189 0
M  V30 2902 C 280.599 -5.92607 1.82256 0
M  V30 2903 C 282.654 -4.88811 0.947019 0
M  V30 2904 C 281.357 -6.63254 2.78364 0
M  V30 2905 C 283.383 -5.60182 1.89606 0
M  V30 2906 C 282.745 -6.46197 2.80372 0
M  V30 2907 H 278.844 -0.769833 -0.137409 0
M  V30 2908 H 281.428 -1.9273 0.276256 0
M  V30 2909 H 279.599 -3.49288 -1.6986 0
M  V30 2910 H 281.331 -3.7186 -1.59694 0
M  V30 2911 H 278.086 -4.73367 0.148537 0
M  V30 2912 H 278.51 -6.41696 2.15767 0
M  V30 2913 H 283.152 -4.22004 0.259304 0
M  V30 2914 H 280.87 -7.29271 3.48122 0
M  V30 2915 H 284.456 -5.48617 1.93676 0
M  V30 2916 H 283.336 -7.00453 3.52612 0
M  V30 2917 N 280.839 0.0985539 -1.57292 0
M  V30 2918 C 282.069 0.815135 -1.8984 0
M  V30 2919 C 282.477 1.7297 -0.766679 0
M  V30 2920 O 281.82 1.81698 0.270483 0
M  V30 2921 C 281.882 1.6842 -3.17608 0
M  V30 2922 C 281.546 0.94182 -4.4719 0
M  V30 2923 C 282.543 0.273212 -5.19182 0
M  V30 2924 C 280.228 0.916927 -4.9386 0
M  V30 2925 C 282.222 -0.410361 -6.36078 0
M  V30 2926 C 279.909 0.229567 -6.10669 0
M  V30 2927 C 280.907 -0.432902 -6.81627 0
M  V30 2928 O 280.595 -1.10925 -7.9621 0
M  V30 2929 H 280.327 0.238501 -0.632529 0
M  V30 2930 H 282.881 0.0812659 -2.05239 0
M  V30 2931 H 281.111 2.46022 -2.98345 0
M  V30 2932 H 282.8 2.27704 -3.36015 0
M  V30 2933 H 283.566 0.283927 -4.84168 0
M  V30 2934 H 279.445 1.42201 -4.3852 0
M  V30 2935 H 282.989 -0.928013 -6.914 0
M  V30 2936 H 278.886 0.216686 -6.45136 0
M  V30 2937 H 279.654 -1.01579 -8.12172 0
M  V30 2938 N 282.317 1.53212 0.369288 0
M  V30 2939 C 283.247 1.82365 1.45826 0
M  V30 2940 C 284.228 0.676907 1.56051 0
M  V30 2941 O 285.413 0.926401 1.70679 0
M  V30 2942 C 282.543 2.01023 2.83208 0
M  V30 2943 C 281.497 3.1678 2.8781 0
M  V30 2944 C 280.823 3.20724 4.27832 0
M  V30 2945 C 282.123 4.55447 2.55667 0
M  V30 2946 H 283.817 2.73559 1.21678 0
M  V30 2947 H 281.363 1.3163 0.583911 0
M  V30 2948 H 283.316 2.20001 3.59413 0
M  V30 2949 H 282.04 1.06536 3.08736 0
M  V30 2950 H 280.699 2.97616 2.14056 0
M  V30 2951 H 280.347 2.23882 4.50429 0
M  V30 2952 H 280.047 3.98496 4.31827 0
M  V30 2953 H 281.571 3.41881 5.05915 0
M  V30 2954 H 282.985 4.74611 3.21586 0
M  V30 2955 H 281.382 5.35432 2.70984 0
M  V30 2956 H 282.452 4.60812 1.5093 0
M  V30 2957 N 283.795 -0.628877 1.44509 0
M  V30 2958 C 284.743 -1.76193 1.51852 0
M  V30 2959 C 285.737 -1.64849 0.390042 0
M  V30 2960 O 286.943 -1.709 0.565082 0
M  V30 2961 H 283.318 -0.581728 0.476547 0
M  V30 2962 H 285.289 -1.67123 2.47209 0
M  V30 2963 C 284.038 -3.14533 1.48204 0
M  V30 2964 H 283.361 -3.23911 2.34354 0
M  V30 2965 H 284.801 -3.93701 1.57402 0
M  V30 2966 C 283.26 -3.36287 0.203142 0
M  V30 2967 O 283.79 -3.9509 -0.725745 0
M  V30 2968 N 281.996 -2.90408 0.105563 0
M  V30 2969 H 281.543 -2.42739 0.862301 0
M  V30 2970 H 281.501 -3.05339 -0.749371 0
M  V30 2971 N 285.273 -1.31445 -0.869486 0
M  V30 2972 C 286.521 -1.20918 -1.61936 0
M  V30 2973 C 286.842 0.232683 -1.93607 0
M  V30 2974 O 286.112 1.15352 -1.58338 0
M  V30 2975 H 284.692 -0.44454 -0.600328 0
M  V30 2976 H 287.354 -1.64776 -1.0409 0
M  V30 2977 H 286.45 -1.78124 -2.56278 0
M  V30 2978 N 286.751 1.08385 -1.14413 0
M  V30 2979 C 287.699 2.17406 -0.826888 0
M  V30 2980 C 288.693 1.6827 0.195312 0
M  V30 2981 O 289.899 1.79927 0.0513892 0
M  V30 2982 H 286.274 0.70934 -0.249681 0
M  V30 2983 H 288.245 2.41388 -1.75426 0
M  V30 2984 C 286.994 3.46215 -0.320979 0
M  V30 2985 H 286.317 3.84401 -1.0989 0
M  V30 2986 H 287.757 4.23777 -0.137549 0
M  V30 2987 C 286.216 3.23067 0.955472 0
M  V30 2988 O 286.746 3.4668 2.02918 0
M  V30 2989 N 284.952 2.7661 0.890798 0
M  V30 2990 H 284.499 2.57594 0.0168815 0
M  V30 2991 H 284.457 2.61501 1.74542 0
M  V30 2992 N 288.23 0.939286 1.26551 0
M  V30 2993 C 289.46 0.601663 1.97645 0
M  V30 2994 C 289.868 -0.827206 1.70159 0
M  V30 2995 O 289.211 -1.56291 0.965338 0
M  V30 2996 C 289.273 0.761725 3.51337 0
M  V30 2997 C 288.937 2.16487 4.0247 0
M  V30 2998 C 289.934 3.14016 4.14355 0
M  V30 2999 C 287.619 2.48494 4.36527 0
M  V30 3000 C 289.613 4.41654 4.59587 0
M  V30 3001 C 287.3 3.76364 4.81449 0
M  V30 3002 C 288.298 4.72758 4.92939 0
M  V30 3003 O 287.986 5.98352 5.36871 0
M  V30 3004 H 287.718 0.225758 0.637189 0
M  V30 3005 H 290.272 1.26178 1.62075 0
M  V30 3006 H 288.502 0.0444808 3.86674 0
M  V30 3007 H 290.191 0.427442 4.03643 0
M  V30 3008 H 290.957 2.90613 3.8829 0
M  V30 3009 H 286.836 1.74202 4.26819 0
M  V30 3010 H 290.38 5.16896 4.68471 0
M  V30 3011 H 286.277 3.99582 5.06956 0
M  V30 3012 H 287.045 6.01507 5.55096 0
M  V30 3013 N 289.708 -1.40897 0.706093 0
M  V30 3014 C 290.638 -2.33418 0.0620085 0
M  V30 3015 C 291.619 -1.52385 -0.755827 0
M  V30 3016 O 292.804 -1.80886 -0.706674 0
M  V30 3017 C 289.934 -3.36293 -0.867445 0
M  V30 3018 C 288.888 -4.27716 -0.155932 0
M  V30 3019 C 288.214 -5.2105 -1.20046 0
M  V30 3020 C 289.514 -5.12944 0.984149 0
M  V30 3021 H 291.208 -2.87527 0.83477 0
M  V30 3022 H 288.754 -1.38249 0.402875 0
M  V30 3023 H 290.707 -3.99949 -1.32735 0
M  V30 3024 H 289.431 -2.80556 -1.67199 0
M  V30 3025 H 288.09 -3.65498 0.284047 0
M  V30 3026 H 287.738 -4.61624 -1.99781 0
M  V30 3027 H 287.438 -5.83056 -0.729328 0
M  V30 3028 H 288.962 -5.87584 -1.66066 0
M  V30 3029 H 290.376 -5.70109 0.604048 0
M  V30 3030 H 288.773 -5.83945 1.38304 0
M  V30 3031 H 289.843 -4.49485 1.81911 0
M  V30 3032 N 291.186 -0.45159 -1.50991 0
M  V30 3033 C 292.432 0.110237 -2.025 0
M  V30 3034 C 292.765 1.41109 -1.33424 0
M  V30 3035 O 292.04 1.89135 -0.453659 0
M  V30 3036 C 292.323 0.314271 -3.58726 0
M  V30 3037 C 292.176 -1.00623 -4.38401 0
M  V30 3038 C 293.495 1.07767 -4.26702 0
M  V30 3039 H 290.614 0.0385897 -0.735989 0
M  V30 3040 H 293.256 -0.593374 -1.80497 0
M  V30 3041 H 291.406 0.913601 -3.77605 0
M  V30 3042 H 293.078 -1.64064 -4.31139 0
M  V30 3043 H 291.321 -1.6075 -4.02917 0
M  V30 3044 H 291.992 -0.817341 -5.45915 0
M  V30 3045 H 294.468 0.56986 -4.12179 0
M  V30 3046 H 293.344 1.18921 -5.35863 0
M  V30 3047 H 293.605 2.10939 -3.88532 0
M  V30 3048 N 292.664 1.56529 -0.183458 0
M  V30 3049 C 293.594 2.21549 0.737456 0
M  V30 3050 C 294.575 1.17489 1.23005 0
M  V30 3051 O 295.76 1.45959 1.281 0
M  V30 3052 C 292.89 2.86575 1.96194 0
M  V30 3053 C 291.844 3.96778 1.60473 0
M  V30 3054 C 291.17 4.48911 2.90487 0
M  V30 3055 C 292.47 5.15767 0.823497 0
M  V30 3056 H 294.164 2.98761 0.195453 0
M  V30 3057 H 291.71 1.43702 0.0925686 0
M  V30 3058 H 293.663 3.30739 2.61131 0
M  V30 3059 H 292.387 2.06749 2.52828 0
M  V30 3060 H 291.046 3.53286 0.978997 0
M  V30 3061 H 290.694 3.65862 3.45186 0
M  V30 3062 H 290.394 5.23265 2.67335 0
M  V30 3063 H 291.918 4.95771 3.56432 0
M  V30 3064 H 293.332 5.56549 1.37571 0
M  V30 3065 H 291.729 5.96114 0.690551 0
M  V30 3066 H 292.799 4.84574 -0.177782 0
M  V30 3067 N 294.142 -0.090211 1.57342 0
M  V30 3068 C 295.072 -1.10976 2.05443 0
M  V30 3069 C 296.053 -1.41482 0.944284 0
M  V30 3070 O 297.238 -1.51428 1.21586 0
M  V30 3071 C 294.368 -2.42831 2.48295 0
M  V30 3072 C 293.322 -2.26721 3.63018 0
M  V30 3073 C 292.648 -3.63796 3.91863 0
M  V30 3074 C 293.948 -1.7037 4.93732 0
M  V30 3075 H 295.642 -0.709564 2.9087 0
M  V30 3076 H 293.188 -0.339874 1.39932 0
M  V30 3077 H 295.141 -3.14431 2.80555 0
M  V30 3078 H 293.865 -2.84795 1.59873 0
M  V30 3079 H 292.524 -1.57565 3.31012 0
M  V30 3080 H 292.172 -4.03297 3.00601 0
M  V30 3081 H 291.872 -3.53861 4.69101 0
M  V30 3082 H 293.396 -4.36855 4.26603 0
M  V30 3083 H 294.81 -2.31816 5.24342 0
M  V30 3084 H 293.207 -1.71181 5.75167 0
M  V30 3085 H 294.277 -0.663542 4.80339 0
M  V30 3086 N 295.62 -1.53406 -0.361157 0
M  V30 3087 C 296.866 -1.70054 -1.10496 0
M  V30 3088 C 297.199 -0.453278 -1.88836 0
M  V30 3089 O 296.474 0.5495 -1.86576 0
M  V30 3090 C 296.757 -2.95317 -2.06058 0
M  V30 3091 C 296.61 -4.3021 -1.31298 0
M  V30 3092 C 297.929 -3.16193 -3.06121 0
M  V30 3093 H 295.048 -0.618799 -0.400321 0
M  V30 3094 H 297.69 -1.86052 -0.385318 0
M  V30 3095 H 295.84 -2.81809 -2.67425 0
M  V30 3096 H 297.512 -4.55538 -0.726807 0
M  V30 3097 H 295.755 -4.29421 -0.614853 0
M  V30 3098 H 296.426 -5.14 -2.01265 0
M  V30 3099 H 298.902 -3.28916 -2.5486 0
M  V30 3100 H 297.778 -4.05266 -3.70204 0
M  V30 3101 H 298.039 -2.31676 -3.76535 0
M  V30 3102 N 297.098 0.621204 -1.44841 0
M  V30 3103 C 298.323 1.41244 -1.51871 0
M  V30 3104 C 298.748 1.87519 -0.147764 0
M  V30 3105 O 298.106 1.59334 0.865 0
M  V30 3106 C 298.154 2.60221 -2.49634 0
M  V30 3107 O 297.258 3.60395 -2.00473 0
M  V30 3108 H 296.599 0.42223 -0.512463 0
M  V30 3109 H 299.129 0.757305 -1.90069 0
M  V30 3110 H 299.139 3.0764 -2.67996 0
M  V30 3111 H 297.814 2.25887 -3.4921 0
M  V30 3112 H 296.391 3.19717 -1.91925 0
M  V30 3113 N 298.576 1.31904 0.862503 0
M  V30 3114 C 299.506 1.22782 1.98612 0
M  V30 3115 C 300.487 0.113362 1.69722 0
M  V30 3116 O 301.672 0.299218 1.91881 0
M  V30 3117 C 298.802 0.942058 3.34279 0
M  V30 3118 C 297.756 2.0169 3.77499 0
M  V30 3119 C 297.082 1.58369 5.10709 0
M  V30 3120 C 298.382 3.43096 3.93805 0
M  V30 3121 H 300.076 2.16788 2.06502 0
M  V30 3122 H 297.622 1.04366 0.992154 0
M  V30 3123 H 299.575 0.864818 4.1243 0
M  V30 3124 H 298.299 -0.0336603 3.26583 0
M  V30 3125 H 296.958 2.08416 3.01593 0
M  V30 3126 H 296.606 0.595628 4.99461 0
M  V30 3127 H 296.306 2.30279 5.40597 0
M  V30 3128 H 297.83 1.52067 5.91361 0
M  V30 3129 H 299.244 3.39003 4.62331 0
M  V30 3130 H 297.641 4.13288 4.35101 0
M  V30 3131 H 298.711 3.83334 2.96957 0
M  V30 3132 N 300.054 -1.07777 1.14986 0
M  V30 3133 C 301.3 -1.80557 0.923422 0
M  V30 3134 C 301.633 -1.86298 -0.548337 0
M  V30 3135 O 300.908 -1.34354 -1.40639 0
M  V30 3136 C 301.191 -3.25839 1.53299 0
M  V30 3137 C 301.044 -3.28269 3.07505 0
M  V30 3138 C 302.363 -4.22991 1.21518 0
M  V30 3139 H 299.482 -0.655493 0.336894 0
M  V30 3140 H 302.124 -1.26144 1.42083 0
M  V30 3141 H 300.274 -3.72306 1.10999 0
M  V30 3142 H 301.946 -2.90079 3.58681 0
M  V30 3143 H 300.189 -2.67355 3.4162 0
M  V30 3144 H 300.86 -4.30691 3.45266 0
M  V30 3145 H 303.336 -3.84894 1.581 0
M  V30 3146 H 302.212 -5.22945 1.66793 0
M  V30 3147 H 302.473 -4.41904 0.131505 0
M  V30 3148 N 301.532 -0.945985 -1.26051 0
M  V30 3149 C 302.778 -0.597002 -1.93814 0
M  V30 3150 C 303.111 0.862484 -1.73997 0
M  V30 3151 O 302.386 1.61769 -1.07986 0
M  V30 3152 C 302.669 -0.945937 -3.47454 0
M  V30 3153 C 302.522 -2.46052 -3.76535 0
M  V30 3154 C 303.841 -0.464785 -4.37639 0
M  V30 3155 H 300.96 -0.218366 -0.703907 0
M  V30 3156 H 303.602 -1.18107 -1.48831 0
M  V30 3157 H 301.752 -0.448902 -3.85898 0
M  V30 3158 H 303.424 -3.03065 -3.47778 0
M  V30 3159 H 301.667 -2.90194 -3.22444 0
M  V30 3160 H 302.338 -2.65517 -4.83947 0
M  V30 3161 H 304.814 -0.891016 -4.06448 0
M  V30 3162 H 303.69 -0.737712 -5.4392 0
M  V30 3163 H 303.951 0.635274 -4.37512 0
M  V30 3164 N 303.011 1.40521 -0.713556 0
M  V30 3165 C 304.26 2.00155 -0.249192 0
M  V30 3166 C 304.573 1.57224 1.16362 0
M  V30 3167 O 305.779 2.09542 1.72639 0
M  V30 3168 C 304.235 3.5773 -0.3946 0
M  V30 3169 C 303.843 4.09635 -1.81392 0
M  V30 3170 C 305.587 4.24499 0.00907364 0
M  V30 3171 C 303.494 5.59707 -1.91003 0
M  V30 3172 H 302.424 0.74868 -0.0894114 0
M  V30 3173 H 305.075 1.60784 -0.884352 0
M  V30 3174 H 303.457 3.94792 0.30911 0
M  V30 3175 H 304.631 3.83955 -2.54785 0
M  V30 3176 H 302.946 3.55456 -2.16888 0
M  V30 3177 H 305.543 5.34683 -0.0420404 0
M  V30 3178 H 305.886 4.02824 1.05065 0
M  V30 3179 H 306.419 3.92536 -0.645007 0
M  V30 3180 H 303.158 5.86234 -2.93275 0
M  V30 3181 H 302.678 5.87258 -1.22019 0
M  V30 3182 H 304.357 6.24776 -1.6812 0
M  V30 3183 N 304.489 0.459591 1.5075 0
M  V30 3184 C 305.419 -0.330644 2.31147 0
M  V30 3185 C 306.4 -1.00087 1.37538 0
M  V30 3186 O 307.585 -1.00025 1.66459 0
M  V30 3187 C 304.715 -1.41958 3.16962 0
M  V30 3188 C 303.669 -0.871608 4.19031 0
M  V30 3189 C 302.995 -2.05797 4.9351 0
M  V30 3190 C 304.295 0.109251 5.22186 0
M  V30 3191 H 305.989 0.340336 2.97459 0
M  V30 3192 H 303.535 0.165119 1.4305 0
M  V30 3193 H 305.488 -1.9798 3.71997 0
M  V30 3194 H 304.212 -2.11917 2.48513 0
M  V30 3195 H 302.871 -0.333442 3.6508 0
M  V30 3196 H 302.519 -2.74427 4.21544 0
M  V30 3197 H 302.219 -1.6976 5.62544 0
M  V30 3198 H 303.743 -2.62331 5.51375 0
M  V30 3199 H 305.157 -0.361405 5.7216 0
M  V30 3200 H 303.554 0.383316 5.98875 0
M  V30 3201 H 304.624 1.03887 4.73641 0
M  V30 3202 N 305.967 -1.56429 0.191757 0
M  V30 3203 C 307.378 -1.83912 -0.321428 0
M  V30 3204 C 307.729 -1.11231 -1.61623 0
M  V30 3205 O 306.854 -0.37202 -2.13178 0
M  V30 3206 C 307.449 -3.33624 -0.589961 0
M  V30 3207 C 306.008 -3.6153 -1.04753 0
M  V30 3208 C 305.155 -2.7714 -0.0943327 0
M  V30 3209 H 308.106 -1.53161 0.415612 0
M  V30 3210 H 308.127 -3.52213 -1.43966 0
M  V30 3211 H 307.639 -3.86495 0.352588 0
M  V30 3212 H 305.74 -3.14089 -2.00447 0
M  V30 3213 H 305.853 -4.69737 -0.942549 0
M  V30 3214 H 304.217 -2.47638 -0.595589 0
M  V30 3215 H 305 -3.32799 0.842601 0
M  V30 3216 N 307.445 0.0818655 -1.57387 0
M  V30 3217 C 308.375 1.09885 -2.06028 0
M  V30 3218 C 309.356 1.4098 -0.951774 0
M  V30 3219 O 310.541 1.50781 -1.22387 0
M  V30 3220 C 307.671 2.4151 -2.4958 0
M  V30 3221 C 306.625 2.24792 -3.64215 0
M  V30 3222 C 305.951 3.61712 -3.93787 0
M  V30 3223 C 307.251 1.67749 -4.94629 0
M  V30 3224 H 308.945 0.694128 -2.91243 0
M  V30 3225 H 306.491 0.332448 -1.4011 0
M  V30 3226 H 308.444 3.12939 -2.82219 0
M  V30 3227 H 307.168 2.83943 -1.61381 0
M  V30 3228 H 305.827 1.55807 -3.31843 0
M  V30 3229 H 305.475 4.01697 -3.02735 0
M  V30 3230 H 305.175 3.51368 -4.70971 0
M  V30 3231 H 306.699 4.34587 -4.28913 0
M  V30 3232 H 308.113 2.29032 -5.25564 0
M  V30 3233 H 306.51 1.68128 -5.76067 0
M  V30 3234 H 307.58 0.638059 -4.80684 0
M  V30 3235 N 308.923 1.53595 0.353017 0
M  V30 3236 C 310.148 1.7462 1.11904 0
M  V30 3237 C 310.573 0.479721 1.8188 0
M  V30 3238 O 309.931 -0.567066 1.72204 0
M  V30 3239 C 309.979 2.92029 2.11545 0
M  V30 3240 O 309.083 2.61516 3.18878 0
M  V30 3241 H 308.424 0.579531 0.324099 0
M  V30 3242 H 310.954 2.00525 0.406301 0
M  V30 3243 H 310.964 3.18551 2.5493 0
M  V30 3244 H 309.639 3.83888 1.60008 0
M  V30 3245 H 308.216 2.45852 2.80377 0
M  V30 3246 N 310.401 -0.613514 1.45168 0
M  V30 3247 C 311.331 -1.7354 1.56225 0
M  V30 3248 C 312.312 -1.64981 0.41414 0
M  V30 3249 O 313.497 -1.83472 0.636526 0
M  V30 3250 C 310.627 -3.12128 1.52295 0
M  V30 3251 C 309.581 -3.35491 2.65762 0
M  V30 3252 C 308.907 -4.74291 2.46885 0
M  V30 3253 C 310.207 -3.26325 4.0781 0
M  V30 3254 H 311.901 -1.64543 2.50132 0
M  V30 3255 H 309.447 -0.790185 1.20383 0
M  V30 3256 H 311.4 -3.90404 1.58628 0
M  V30 3257 H 310.124 -3.2195 0.549139 0
M  V30 3258 H 308.783 -2.59603 2.58847 0
M  V30 3259 H 308.431 -4.80839 1.47657 0
M  V30 3260 H 308.131 -4.9088 3.22972 0
M  V30 3261 H 309.655 -5.54775 2.55063 0
M  V30 3262 H 311.069 -3.94483 4.16 0
M  V30 3263 H 309.466 -3.54445 4.8424 0
M  V30 3264 H 310.536 -2.23855 4.30136 0
M  V30 3265 N 311.879 -1.3236 -0.855495 0
M  V30 3266 C 313.126 -1.22872 -1.60962 0
M  V30 3267 C 313.454 0.209658 -1.93367 0
M  V30 3268 O 312.709 1.16243 -1.57436 0
M  V30 3269 C 313.008 -2.03275 -2.93963 0
M  V30 3270 C 312.674 -3.5264 -2.80991 0
M  V30 3271 C 311.336 -3.93364 -2.7716 0
M  V30 3272 C 313.688 -4.47626 -2.66983 0
M  V30 3273 C 311.016 -5.27319 -2.572 0
M  V30 3274 C 313.368 -5.81723 -2.48558 0
M  V30 3275 C 312.032 -6.2165 -2.4312 0
M  V30 3276 H 311.302 -0.44962 -0.589001 0
M  V30 3277 H 313.949 -1.63777 -0.992442 0
M  V30 3278 H 312.254 -1.55095 -3.59795 0
M  V30 3279 H 313.951 -1.93303 -3.51333 0
M  V30 3280 H 310.541 -3.20295 -2.84797 0
M  V30 3281 H 314.725 -4.17084 -2.68988 0
M  V30 3282 H 309.981 -5.57311 -2.51424 0
M  V30 3283 H 314.155 -6.5494 -2.36699 0
M  V30 3284 H 311.782 -7.25388 -2.27412 0
M  V30 3285 N 313.357 1.07166 -1.15556 0
M  V30 3286 C 314.773 1.31899 -0.898603 0
M  V30 3287 C 314.973 1.96333 0.453383 0
M  V30 3288 O 314.029 2.22438 1.19489 0
M  V30 3289 C 315.342 2.20826 -2.04099 0
M  V30 3290 C 316.89 2.34269 -2.07574 0
M  V30 3291 C 317.365 3.26546 -3.21141 0
M  V30 3292 N 318.856 3.34127 -3.20801 0
M  V30 3293 C 319.591 4.05595 -4.05315 0
M  V30 3294 N 319.087 4.79661 -4.99897 0
M  V30 3295 N 320.88 4.01555 -3.93332 0
M  V30 3296 H 313.031 0.637302 -2.02613 0
M  V30 3297 H 315.294 0.343468 -0.883591 0
M  V30 3298 H 315 1.80744 -3.01703 0
M  V30 3299 H 314.874 3.21364 -1.97496 0
M  V30 3300 H 317.261 2.73603 -1.10568 0
M  V30 3301 H 317.342 1.33429 -2.18244 0
M  V30 3302 H 316.986 2.87931 -4.184 0
M  V30 3303 H 316.916 4.27345 -3.07708 0
M  V30 3304 H 319.407 2.81336 -2.52306 0
M  V30 3305 H 319.72 5.31694 -5.60822 0
M  V30 3306 H 318.065 4.78671 -5.03884 0
M  V30 3307 H 321.256 3.42806 -3.18751 0
M  V30 3308 H 321.429 4.56987 -4.5942 0
M  V30 3309 N 314.835 0.952656 1.25548 0
M  V30 3310 C 315.783 0.462354 2.27958 0
M  V30 3311 C 316.777 -0.46634 1.62855 0
M  V30 3312 O 317.983 -0.343287 1.76696 0
M  V30 3313 H 314.358 0.13101 0.7405 0
M  V30 3314 H 316.329 1.33839 2.66702 0
M  V30 3315 C 315.078 -0.24628 3.46827 0
M  V30 3316 H 314.401 0.459192 3.97154 0
M  V30 3317 H 315.841 -0.553393 4.20373 0
M  V30 3318 C 314.3 -1.4681 3.0323 0
M  V30 3319 O 314.83 -2.56591 3.09069 0
M  V30 3320 N 313.036 -1.32874 2.58443 0
M  V30 3321 H 312.583 -0.435536 2.53891 0
M  V30 3322 H 312.541 -2.14742 2.29637 0
M  V30 3323 N 316.313 -1.40141 0.720998 0
M  V30 3324 C 317.243 -2.33339 0.0867621 0
M  V30 3325 C 318.224 -1.53178 -0.739622 0
M  V30 3326 O 319.409 -1.81625 -0.687449 0
M  V30 3327 C 316.539 -3.37194 -0.831728 0
M  V30 3328 C 315.493 -4.27857 -0.110558 0
M  V30 3329 C 314.819 -5.22294 -1.14513 0
M  V30 3330 C 316.119 -5.11872 1.0385 0
M  V30 3331 H 317.813 -2.86626 0.865219 0
M  V30 3332 H 315.359 -1.37814 0.417516 0
M  V30 3333 H 317.312 -4.01335 -1.28485 0
M  V30 3334 H 316.036 -2.82314 -1.64214 0
M  V30 3335 H 314.695 -3.65176 0.322797 0
M  V30 3336 H 314.343 -4.63717 -1.94874 0
M  V30 3337 H 314.043 -5.83797 -0.667446 0
M  V30 3338 H 315.567 -5.89312 -1.59824 0
M  V30 3339 H 316.981 -5.69436 0.664482 0
M  V30 3340 H 315.378 -5.82445 1.4449 0
M  V30 3341 H 316.448 -4.4753 1.86668 0
M  V30 3342 N 317.792 -0.46758 -1.50504 0
M  V30 3343 C 319.04 0.0884469 -2.01906 0
M  V30 3344 C 319.361 1.40532 -1.35188 0
M  V30 3345 O 318.631 1.89515 -0.496079 0
M  V30 3346 H 317.211 0.0356765 -0.746148 0
M  V30 3347 H 319.873 -0.6172 -1.84869 0
M  V30 3348 H 318.969 0.2425 -3.11156 0
M  V30 3349 N 319.27 1.56325 -0.20005 0
M  V30 3350 C 320.5 2.01811 0.442232 0
M  V30 3351 C 320.908 1.07932 1.55394 0
M  V30 3352 O 320.251 0.0772685 1.83537 0
M  V30 3353 C 320.313 3.43685 1.05457 0
M  V30 3354 C 319.977 4.56928 0.0809833 0
M  V30 3355 C 320.974 5.15009 -0.711471 0
M  V30 3356 C 318.659 5.0229 -0.0315364 0
M  V30 3357 C 320.653 6.16904 -1.60336 0
M  V30 3358 C 318.34 6.04028 -0.926981 0
M  V30 3359 C 319.338 6.6121 -1.71146 0
M  V30 3360 O 319.026 7.60971 -2.59189 0
M  V30 3361 H 318.758 0.666173 0.114848 0
M  V30 3362 H 321.312 2.03085 -0.307511 0
M  V30 3363 H 319.542 3.39413 1.85299 0
M  V30 3364 H 321.231 3.72948 1.60201 0
M  V30 3365 H 321.997 4.80827 -0.634873 0
M  V30 3366 H 317.876 4.57476 0.568902 0
M  V30 3367 H 321.42 6.61464 -2.21611 0
M  V30 3368 H 317.317 6.37634 -1.00468 0
M  V30 3369 H 318.085 7.7841 -2.53023 0
M  V30 3370 N 320.748 -0.0735177 1.57428 0
M  V30 3371 C 321.678 -1.0879 2.06608 0
M  V30 3372 C 322.659 -1.40473 0.959237 0
M  V30 3373 O 323.844 -1.5013 1.23185 0
M  V30 3374 C 320.974 -2.40183 2.50857 0
M  V30 3375 C 319.928 -2.22858 3.65402 0
M  V30 3376 C 319.254 -3.59619 3.957 0
M  V30 3377 C 320.554 -1.65123 4.95511 0
M  V30 3378 H 322.248 -0.678673 2.91607 0
M  V30 3379 H 319.794 -0.325013 1.40284 0
M  V30 3380 H 321.747 -3.11437 2.83874 0
M  V30 3381 H 320.471 -2.83083 1.62885 0
M  V30 3382 H 319.13 -1.54045 3.32664 0
M  V30 3383 H 318.778 -4.00086 3.04861 0
M  V30 3384 H 318.478 -3.48866 4.72828 0
M  V30 3385 H 320.002 -4.32306 4.31212 0
M  V30 3386 H 321.416 -2.26241 5.26771 0
M  V30 3387 H 319.813 -1.65071 5.7695 0
M  V30 3388 H 320.883 -0.612559 4.81015 0
M  V30 3389 N 322.226 -1.5378 -0.344866 0
M  V30 3390 C 323.474 -1.70625 -1.08311 0
M  V30 3391 C 323.795 -0.471447 -1.89215 0
M  V30 3392 O 323.065 0.514616 -1.8902 0
M  V30 3393 H 321.645 -0.629058 -0.402859 0
M  V30 3394 H 324.307 -1.9103 -0.386459 0
M  V30 3395 H 323.403 -2.57656 -1.76124 0
M  V30 3396 N 323.704 0.605807 -1.45491 0
M  V30 3397 C 324.934 1.38934 -1.52908 0
M  V30 3398 C 325.342 1.88513 -0.161086 0
M  V30 3399 O 324.685 1.62962 0.847891 0
M  V30 3400 C 324.747 2.62737 -2.45376 0
M  V30 3401 C 324.411 2.34785 -3.92078 0
M  V30 3402 C 325.408 1.95038 -4.8193 0
M  V30 3403 C 323.093 2.47642 -4.37011 0
M  V30 3404 C 325.087 1.68511 -6.14722 0
M  V30 3405 C 322.774 2.20728 -5.69844 0
M  V30 3406 C 323.772 1.81225 -6.58519 0
M  V30 3407 O 323.46 1.54627 -7.88889 0
M  V30 3408 H 323.192 0.431629 -0.520262 0
M  V30 3409 H 325.746 0.74573 -1.91384 0
M  V30 3410 H 323.976 3.29824 -2.01874 0
M  V30 3411 H 325.665 3.24783 -2.43456 0
M  V30 3412 H 326.431 1.84639 -4.48479 0
M  V30 3413 H 322.31 2.77356 -3.68232 0
M  V30 3414 H 325.854 1.37602 -6.83894 0
M  V30 3415 H 321.751 2.30744 -6.02849 0
M  V30 3416 H 322.519 1.68665 -8.00933 0
M  V30 3417 N 325.182 1.32811 0.848464 0
M  V30 3418 C 326.41 1.26739 1.63538 0
M  V30 3419 C 326.825 -0.163484 1.88091 0
M  V30 3420 O 326.182 -1.10258 1.45429 0
M  V30 3421 C 326.233 2.03013 2.99112 0
M  V30 3422 O 325.954 3.40518 2.75643 0
M  V30 3423 C 327.455 2.04038 3.93552 0
M  V30 3424 H 324.675 0.437024 0.509167 0
M  V30 3425 H 327.219 1.75033 1.05753 0
M  V30 3426 H 325.374 1.58426 3.53525 0
M  V30 3427 H 325.788 3.79635 3.61908 0
M  V30 3428 H 327.262 2.61877 4.85926 0
M  V30 3429 H 327.739 1.0282 4.26995 0
M  V30 3430 H 328.345 2.486 3.45077 0
M  V30 3431 N 326.66 -1.06551 1.16123 0
M  V30 3432 C 327.885 -1.83544 0.965735 0
M  V30 3433 C 328.31 -1.81843 -0.481102 0
M  V30 3434 O 327.668 -1.21732 -1.34354 0
M  V30 3435 C 327.716 -3.28169 1.49457 0
M  V30 3436 O 326.82 -4.0643 0.699157 0
M  V30 3437 H 326.161 -0.568026 0.343864 0
M  V30 3438 H 328.691 -1.34362 1.54299 0
M  V30 3439 H 328.701 -3.78992 1.51092 0
M  V30 3440 H 327.376 -3.28722 2.54784 0
M  V30 3441 H 325.953 -3.65216 0.7531 0
M  V30 3442 N 328.138 -0.959301 -1.25041 0
M  V30 3443 C 329.386 -0.615393 -1.92503 0
M  V30 3444 C 329.707 0.850969 -1.75452 0
M  V30 3445 O 328.977 1.60658 -1.12098 0
M  V30 3446 H 327.557 -0.224613 -0.712431 0
M  V30 3447 H 330.219 -1.21855 -1.5211 0
M  V30 3448 H 329.315 -0.848738 -3.00338 0
M  V30 3449 N 329.616 1.39756 -0.72842 0
M  V30 3450 C 330.546 2.33289 -0.0991354 0
M  V30 3451 C 331.527 1.53568 0.731489 0
M  V30 3452 O 332.712 1.81987 0.677807 0
M  V30 3453 C 329.842 3.3763 0.813834 0
M  V30 3454 C 328.796 4.2791 0.0878663 0
M  V30 3455 C 328.122 5.22894 1.11741 0
M  V30 3456 C 329.422 5.11314 -1.06563 0
M  V30 3457 H 331.116 2.86163 -0.880408 0
M  V30 3458 H 328.662 1.37591 -0.424819 0
M  V30 3459 H 330.615 4.0201 1.26355 0
M  V30 3460 H 329.339 2.83181 1.62715 0
M  V30 3461 H 327.998 3.65 -0.342159 0
M  V30 3462 H 327.646 4.64744 1.92412 0
M  V30 3463 H 327.346 5.84143 0.636477 0
M  V30 3464 H 328.87 5.90151 1.56697 0
M  V30 3465 H 330.284 5.69076 -0.694671 0
M  V30 3466 H 328.681 5.81671 -1.47577 0
M  V30 3467 H 329.751 4.46534 -1.89038 0
M  V30 3468 N 331.094 0.475555 1.50254 0
M  V30 3469 C 332.319 -0.0777042 2.07254 0
M  V30 3470 C 332.744 -1.3235 1.3366 0
M  V30 3471 O 332.102 -1.77152 0.385597 0
M  V30 3472 C 332.15 -0.340169 3.58992 0
M  V30 3473 O 331.254 -1.41982 3.87188 0
M  V30 3474 H 330.595 0.0149556 0.663832 0
M  V30 3475 H 333.125 0.667878 1.93392 0
M  V30 3476 H 333.135 -0.579332 4.03866 0
M  V30 3477 H 331.81 0.570167 4.11973 0
M  V30 3478 H 330.387 -1.16762 3.54148 0
M  V30 3479 N 332.573 -1.56217 0.208337 0
M  V30 3480 C 333.503 -2.22694 -0.702116 0
M  V30 3481 C 334.484 -1.19432 -1.2112 0
M  V30 3482 O 335.669 -1.47978 -1.25762 0
M  V30 3483 C 332.799 -2.8966 -1.9161 0
M  V30 3484 C 331.753 -3.9928 -1.5414 0
M  V30 3485 C 331.079 -4.53476 -2.83308 0
M  V30 3486 C 332.379 -5.17012 -0.741339 0
M  V30 3487 H 334.073 -2.99034 -0.147898 0
M  V30 3488 H 331.619 -1.43831 -0.0696951 0
M  V30 3489 H 333.572 -3.34852 -2.55836 0
M  V30 3490 H 332.296 -2.10746 -2.49507 0
M  V30 3491 H 330.955 -3.54799 -0.922668 0
M  V30 3492 H 330.603 -3.71308 -3.39322 0
M  V30 3493 H 330.303 -5.27451 -2.58976 0
M  V30 3494 H 331.827 -5.01378 -3.485 0
M  V30 3495 H 333.241 -5.58667 -1.28699 0
M  V30 3496 H 331.638 -5.97137 -0.595627 0
M  V30 3497 H 332.708 -4.8423 0.254851 0
M  V30 3498 N 334.051 0.0651679 -1.57465 0
M  V30 3499 C 334.981 1.07693 -2.07182 0
M  V30 3500 C 335.962 1.39962 -0.966673 0
M  V30 3501 O 337.147 1.49475 -1.2398 0
M  V30 3502 C 334.277 2.3885 -2.52127 0
M  V30 3503 C 333.231 2.20917 -3.66579 0
M  V30 3504 C 332.557 3.57515 -3.97601 0
M  V30 3505 C 333.857 1.62493 -4.9638 0
M  V30 3506 H 335.551 0.663199 -2.91962 0
M  V30 3507 H 333.097 0.317569 -1.40455 0
M  V30 3508 H 335.05 3.09928 -2.85522 0
M  V30 3509 H 333.774 2.82215 -1.64384 0
M  V30 3510 H 332.433 1.52279 -3.33477 0
M  V30 3511 H 332.081 3.98463 -3.06979 0
M  V30 3512 H 331.781 3.46353 -4.74672 0
M  V30 3513 H 333.305 4.30013 -4.33499 0
M  V30 3514 H 334.719 2.23445 -5.27963 0
M  V30 3515 H 333.116 1.62009 -5.77818 0
M  V30 3516 H 334.186 0.587041 -4.81333 0
M  V30 3517 N 335.529 1.53961 0.336706 0
M  V30 3518 C 336.769 1.73254 1.08454 0
M  V30 3519 C 337.133 0.488937 1.8567 0
M  V30 3520 O 338.334 0.559001 2.62923 0
M  V30 3521 C 336.605 2.96519 1.99528 0
M  V30 3522 S 338.164 3.36655 2.81441 0
M  V30 3523 H 334.982 0.609353 0.366347 0
M  V30 3524 H 337.584 1.92117 0.362124 0
M  V30 3525 H 336.288 3.85193 1.41614 0
M  V30 3526 H 335.819 2.80142 2.76196 0
M  V30 3527 H 337.834 2.90925 4.01967 0
M  V30 3528 N 337.007 -0.598083 1.45811 0
M  V30 3529 C 337.94 -1.7223 1.49706 0
M  V30 3530 C 338.918 -1.58732 0.352535 0
M  V30 3531 O 340.102 -1.80162 0.554438 0
M  V30 3532 C 337.229 -3.10148 1.3611 0
M  V30 3533 C 336.275 -3.42209 2.54549 0
M  V30 3534 S 337.108 -3.35989 4.16979 0
M  V30 3535 C 338.264 -4.76471 4.05865 0
M  V30 3536 H 338.497 -1.68665 2.44826 0
M  V30 3537 H 336.03 -0.775541 1.33509 0
M  V30 3538 H 337.988 -3.8972 1.28953 0
M  V30 3539 H 336.649 -3.11219 0.424451 0
M  V30 3540 H 335.842 -4.42652 2.40988 0
M  V30 3541 H 335.444 -2.70173 2.58617 0
M  V30 3542 H 337.736 -5.665 3.71596 0
M  V30 3543 H 338.679 -4.95089 5.06253 0
M  V30 3544 H 339.087 -4.52599 3.37364 0
M  V30 3545 N 338.485 -1.33259 -0.841409 0
M  V30 3546 C 339.731 -1.24757 -1.59886 0
M  V30 3547 C 340.064 0.186913 -1.93298 0
M  V30 3548 O 339.339 1.12757 -1.5848 0
M  V30 3549 C 339.622 -2.12036 -2.91055 0
M  V30 3550 C 339.475 -3.63929 -2.6434 0
M  V30 3551 C 340.794 -1.9916 -3.92458 0
M  V30 3552 H 337.913 -0.454542 -0.580138 0
M  V30 3553 H 340.555 -1.63335 -0.970647 0
M  V30 3554 H 338.705 -1.79265 -3.44669 0
M  V30 3555 H 340.377 -4.06978 -2.17178 0
M  V30 3556 H 338.62 -3.85935 -1.98082 0
M  V30 3557 H 339.291 -4.20341 -3.57796 0
M  V30 3558 H 341.767 -2.27895 -3.48143 0
M  V30 3559 H 340.643 -2.62484 -4.82072 0
M  V30 3560 H 340.904 -0.963082 -4.31482 0
M  V30 3561 N 339.963 1.05934 -1.16686 0
M  V30 3562 C 341.21 1.788 -0.950622 0
M  V30 3563 C 341.538 1.87384 0.521305 0
M  V30 3564 O 340.793 1.36438 1.40297 0
M  V30 3565 C 341.092 3.23105 -1.52767 0
M  V30 3566 C 340.758 3.34594 -3.02254 0
M  V30 3567 C 339.42 3.37437 -3.43059 0
M  V30 3568 C 341.772 3.36219 -3.98254 0
M  V30 3569 C 339.1 3.39525 -4.78477 0
M  V30 3570 C 341.452 3.39845 -5.33562 0
M  V30 3571 C 340.116 3.40971 -5.73842 0
M  V30 3572 H 339.386 0.654275 -0.347857 0
M  V30 3573 H 342.033 1.24555 -1.45459 0
M  V30 3574 H 340.338 3.80227 -0.94524 0
M  V30 3575 H 342.035 3.7809 -1.336 0
M  V30 3576 H 338.625 3.3309 -2.6972 0
M  V30 3577 H 342.809 3.33231 -3.67792 0
M  V30 3578 H 338.065 3.38703 -5.09009 0
M  V30 3579 H 342.239 3.4005 -6.07733 0
M  V30 3580 H 339.866 3.42342 -6.78753 0
M  V30 3581 N 341.441 0.965919 1.2453 0
M  V30 3582 C 342.688 0.626831 1.92554 0
M  V30 3583 C 343.016 -0.837739 1.75534 0
M  V30 3584 O 342.271 -1.61793 1.10098 0
M  V30 3585 C 342.57 0.945428 3.44669 0
M  V30 3586 C 342.236 2.39785 3.81856 0
M  V30 3587 C 340.898 2.79483 3.91718 0
M  V30 3588 C 343.25 3.34055 4.00071 0
M  V30 3589 C 340.578 4.12496 4.1721 0
M  V30 3590 C 342.93 4.66694 4.27059 0
M  V30 3591 C 341.594 5.06172 4.3514 0
M  V30 3592 H 340.864 0.229374 0.704605 0
M  V30 3593 H 343.511 1.21707 1.4785 0
M  V30 3594 H 341.816 0.272926 3.90848 0
M  V30 3595 H 343.513 0.661484 3.95507 0
M  V30 3596 H 340.103 2.08003 3.74743 0
M  V30 3597 H 344.287 3.04571 3.91855 0
M  V30 3598 H 339.543 4.42709 4.21685 0
M  V30 3599 H 343.717 5.3971 4.40097 0
M  V30 3600 H 341.344 6.09262 4.54646 0
M  V30 3601 N 342.919 -1.39368 0.735821 0
M  V30 3602 C 343.849 -2.33234 0.111506 0
M  V30 3603 C 344.83 -1.53954 -0.723334 0
M  V30 3604 O 346.015 -1.82344 -0.668147 0
M  V30 3605 C 343.145 -3.38057 -0.795917 0
M  V30 3606 C 342.099 -4.2795 -0.065172 0
M  V30 3607 C 341.425 -5.23479 -1.08967 0
M  V30 3608 C 342.725 -5.10741 1.09273 0
M  V30 3609 H 344.419 -2.85692 0.895571 0
M  V30 3610 H 341.965 -1.37364 0.432109 0
M  V30 3611 H 343.918 -4.02675 -1.24221 0
M  V30 3612 H 342.642 -2.8404 -1.61211 0
M  V30 3613 H 341.301 -3.64813 0.361511 0
M  V30 3614 H 340.949 -4.65758 -1.89944 0
M  V30 3615 H 340.649 -5.84472 -0.605489 0
M  V30 3616 H 342.173 -5.90974 -1.53565 0
M  V30 3617 H 343.587 -5.68699 0.724841 0
M  V30 3618 H 341.984 -5.8088 1.50659 0
M  V30 3619 H 343.054 -4.45525 1.91404 0
M  V30 3620 N 344.397 -0.483516 -1.5 0
M  V30 3621 C 345.646 0.0689102 -2.01582 0
M  V30 3622 C 345.959 1.39655 -1.36952 0
M  V30 3623 O 347.165 2.03465 -1.79762 0
M  V30 3624 C 345.621 0.173302 -3.59483 0
M  V30 3625 C 345.229 -1.14665 -4.33077 0
M  V30 3626 C 346.973 0.677024 -4.19066 0
M  V30 3627 C 344.88 -1.00537 -5.82792 0
M  V30 3628 H 343.81 0.0295277 -0.753422 0
M  V30 3629 H 346.461 -0.620295 -1.72698 0
M  V30 3630 H 344.843 0.926569 -3.85007 0
M  V30 3631 H 346.017 -1.91184 -4.19268 0
M  V30 3632 H 344.332 -1.58244 -3.85159 0
M  V30 3633 H 346.929 0.799952 -5.28682 0
M  V30 3634 H 347.272 1.67151 -3.81269 0
M  V30 3635 H 347.805 -0.0192083 -3.97795 0
M  V30 3636 H 344.544 -1.9736 -6.25083 0
M  V30 3637 H 344.064 -0.280776 -5.99142 0
M  V30 3638 H 345.743 -0.677 -6.43448 0
M  V30 3639 N 345.875 1.56104 -0.216619 0
M  V30 3640 C 347.121 1.98466 0.417033 0
M  V30 3641 C 347.454 1.10403 1.59765 0
M  V30 3642 O 346.729 0.160632 1.93836 0
M  V30 3643 C 347.012 3.49769 0.85637 0
M  V30 3644 C 346.865 4.48606 -0.327546 0
M  V30 3645 C 348.184 4.05339 1.7143 0
M  V30 3646 H 345.303 0.721551 0.150112 0
M  V30 3647 H 347.945 1.87423 -0.311864 0
M  V30 3648 H 346.095 3.5931 1.47745 0
M  V30 3649 H 347.767 4.5108 -0.965618 0
M  V30 3650 H 346.01 4.22682 -0.975805 0
M  V30 3651 H 346.681 5.51995 0.0227149 0
M  V30 3652 H 349.157 3.98712 1.19031 0
M  V30 3653 H 348.033 5.11533 1.99061 0
M  V30 3654 H 348.294 3.51918 2.67593 0
M  V30 3655 N 347.353 -0.0568162 1.57498 0
M  V30 3656 C 348.599 -0.75422 1.88253 0
M  V30 3657 C 348.932 -1.76461 0.810865 0
M  V30 3658 O 348.207 -1.93691 -0.177259 0
M  V30 3659 C 348.49 -1.44878 3.2967 0
M  V30 3660 C 348.343 -0.453789 4.47505 0
M  V30 3661 C 349.662 -2.38994 3.69554 0
M  V30 3662 H 346.781 -0.272724 0.684683 0
M  V30 3663 H 349.423 -0.0172113 1.89992 0
M  V30 3664 H 347.573 -2.077 3.28318 0
M  V30 3665 H 349.245 0.170371 4.60985 0
M  V30 3666 H 347.488 0.229552 4.33192 0
M  V30 3667 H 348.159 -0.977699 5.43273 0
M  V30 3668 H 350.635 -1.86239 3.72095 0
M  V30 3669 H 349.511 -2.84587 4.69363 0
M  V30 3670 H 349.772 -3.24461 3.00296 0
M  V30 3671 N 348.832 -1.54138 -0.328536 0
M  V30 3672 C 350.081 -1.71318 -1.06456 0
M  V30 3673 C 350.394 -0.491109 -1.89334 0
M  V30 3674 O 351.6 -0.54416 -2.65991 0
M  V30 3675 C 350.056 -3.03 -1.94214 0
M  V30 3676 C 349.664 -4.32595 -1.16471 0
M  V30 3677 C 351.408 -3.29544 -2.67583 0
M  V30 3678 C 349.315 -5.55341 -2.03347 0
M  V30 3679 H 348.245 -0.638429 -0.401155 0
M  V30 3680 H 350.896 -1.80633 -0.323106 0
M  V30 3681 H 349.278 -2.87579 -2.72239 0
M  V30 3682 H 350.452 -4.58766 -0.432525 0
M  V30 3683 H 348.767 -4.12777 -0.548063 0
M  V30 3684 H 351.364 -4.18444 -3.3288 0
M  V30 3685 H 351.707 -2.47206 -3.34955 0
M  V30 3686 H 352.24 -3.45809 -1.96623 0
M  V30 3687 H 348.979 -6.40268 -1.40491 0
M  V30 3688 H 348.499 -5.33397 -2.74313 0
M  V30 3689 H 350.178 -5.91557 -2.62049 0
M  V30 3690 N 350.31 0.590341 -1.46126 0
M  V30 3691 C 351.55 1.35995 -1.52593 0
M  V30 3692 C 351.914 1.91243 -0.170368 0
M  V30 3693 O 353.115 2.68576 -0.109775 0
M  V30 3694 C 351.386 2.46465 -2.58823 0
M  V30 3695 S 352.945 3.33953 -2.84641 0
M  V30 3696 H 349.763 0.463425 -0.53922 0
M  V30 3697 H 352.365 0.67944 -1.83314 0
M  V30 3698 H 351.069 2.04256 -3.5596 0
M  V30 3699 H 350.6 3.19297 -2.2981 0
M  V30 3700 H 352.615 4.45094 -2.19331 0
M  V30 3701 N 351.788 1.33704 0.83433 0
M  V30 3702 C 352.735 1.24335 1.94447 0
M  V30 3703 C 353.705 0.120991 1.65659 0
M  V30 3704 O 354.89 0.300035 1.88426 0
M  V30 3705 C 352.03 0.993124 3.30501 0
M  V30 3706 C 351.143 2.20217 3.71657 0
M  V30 3707 C 350.278 1.88572 4.96602 0
M  V30 3708 C 349.317 3.05683 5.30306 0
M  V30 3709 N 348.454 2.73997 6.46429 0
M  V30 3710 H 353.294 2.1928 2.01792 0
M  V30 3711 H 350.831 1.09035 0.987404 0
M  V30 3712 H 352.789 0.828467 4.08892 0
M  V30 3713 H 351.419 0.0803902 3.227 0
M  V30 3714 H 350.471 2.47642 2.88752 0
M  V30 3715 H 351.783 3.07752 3.92543 0
M  V30 3716 H 350.937 1.68776 5.82752 0
M  V30 3717 H 349.676 0.982799 4.77695 0
M  V30 3718 H 348.681 3.26088 4.42659 0
M  V30 3719 H 349.906 3.96737 5.51159 0
M  V30 3720 H 347.852 1.86268 6.28999 0
M  V30 3721 H 347.769 3.55064 6.67432 0
M  V30 3722 H 349.037 2.57679 7.35678 0
M  V30 3723 N 353.266 -1.05314 1.17247 0
M  V30 3724 C 354.213 -2.13031 0.888058 0
M  V30 3725 C 355.183 -1.65253 -0.167537 0
M  V30 3726 O 356.368 -1.90775 -0.0305974 0
M  V30 3727 C 353.508 -3.42702 0.406147 0
M  V30 3728 C 352.621 -4.04161 1.52572 0
M  V30 3729 C 351.756 -5.21744 0.997808 0
M  V30 3730 C 350.795 -5.75207 2.09291 0
M  V30 3731 N 349.932 -6.84094 1.57986 0
M  V30 3732 H 354.772 -2.36698 1.81048 0
M  V30 3733 H 352.309 -1.16121 0.903013 0
M  V30 3734 H 354.267 -4.17059 0.108305 0
M  V30 3735 H 352.897 -3.19222 -0.479313 0
M  V30 3736 H 351.949 -3.27253 1.93931 0
M  V30 3737 H 353.261 -4.39881 2.35172 0
M  V30 3738 H 352.415 -6.03168 0.653739 0
M  V30 3739 H 351.154 -4.87495 0.141232 0
M  V30 3740 H 350.159 -4.92414 2.44557 0
M  V30 3741 H 351.384 -6.11505 2.95362 0
M  V30 3742 H 349.33 -6.51745 0.74598 0
M  V30 3743 H 349.247 -7.18811 2.34195 0
M  V30 3744 H 350.515 -7.69172 1.26468 0
M  V30 3745 N 354.744 -0.972509 -1.24016 0
M  V30 3746 C 355.991 -0.637034 -1.92219 0
M  V30 3747 C 356.319 0.828418 -1.75976 0
M  V30 3748 O 355.574 1.61206 -1.10955 0
M  V30 3749 C 355.873 -0.963694 -3.44162 0
M  V30 3750 C 355.539 -2.41807 -3.80579 0
M  V30 3751 C 354.201 -2.81556 -3.9023 0
M  V30 3752 C 356.553 -3.36172 -3.98293 0
M  V30 3753 C 353.881 -4.14702 -4.15017 0
M  V30 3754 C 356.233 -4.68952 -4.24578 0
M  V30 3755 C 354.897 -5.08472 -4.32449 0
M  V30 3756 H 354.167 -0.233107 -0.703379 0
M  V30 3757 H 356.814 -1.2249 -1.47202 0
M  V30 3758 H 355.119 -0.29365 -3.90698 0
M  V30 3759 H 356.816 -0.682449 -3.9515 0
M  V30 3760 H 353.406 -2.09988 -3.73635 0
M  V30 3761 H 357.59 -3.06644 -3.90234 0
M  V30 3762 H 352.846 -4.4494 -4.19331 0
M  V30 3763 H 357.02 -5.42037 -4.37229 0
M  V30 3764 H 354.647 -6.11665 -4.51409 0
M  V30 3765 N 356.222 1.38976 -0.743202 0
M  V30 3766 C 357.154 2.29096 -0.0689228 0
M  V30 3767 C 358.167 1.47229 0.694791 0
M  V30 3768 O 359.356 1.70212 0.537597 0
M  V30 3769 C 356.456 3.25988 0.926548 0
M  V30 3770 C 355.629 4.36833 0.222647 0
M  V30 3771 C 354.688 5.13981 1.12739 0
M  V30 3772 O 353.714 5.6601 0.601795 0
M  V30 3773 N 354.916 5.25966 2.45641 0
M  V30 3774 H 357.681 2.87604 -0.842846 0
M  V30 3775 H 355.242 1.50645 -0.593109 0
M  V30 3776 H 357.234 3.74476 1.5346 0
M  V30 3777 H 355.804 2.68453 1.60162 0
M  V30 3778 H 355.024 3.90116 -0.565983 0
M  V30 3779 H 356.312 5.0811 -0.264841 0
M  V30 3780 H 355.71 4.85228 2.9081 0
M  V30 3781 H 354.267 5.77865 3.01522 0
M  V30 3782 N 357.7 0.491464 1.49741 0
M  V30 3783 C 358.946 -0.0565092 2.02721 0
M  V30 3784 C 359.279 -1.37522 1.37118 0
M  V30 3785 O 358.554 -1.87866 0.503645 0
M  V30 3786 C 358.837 -0.219051 3.59433 0
M  V30 3787 C 358.69 1.12211 4.35579 0
M  V30 3788 C 360.009 -0.964157 4.29409 0
M  V30 3789 H 357.128 -0.0190627 0.736753 0
M  V30 3790 H 359.77 0.641021 1.7886 0
M  V30 3791 H 357.92 -0.813165 3.79895 0
M  V30 3792 H 359.592 1.75437 4.26637 0
M  V30 3793 H 357.835 1.71377 3.98513 0
M  V30 3794 H 358.506 0.961794 5.43556 0
M  V30 3795 H 360.982 -0.460378 4.13545 0
M  V30 3796 H 359.858 -1.04671 5.38828 0
M  V30 3797 H 360.119 -2.00563 3.93988 0
M  V30 3798 N 359.178 -1.55987 0.224894 0
M  V30 3799 C 360.589 -1.84553 -0.282345 0
M  V30 3800 C 360.94 -1.14634 -1.59227 0
M  V30 3801 O 360.065 -0.417155 -2.12341 0
M  V30 3802 C 360.66 -3.348 -0.519062 0
M  V30 3803 C 359.219 -3.63671 -0.970604 0
M  V30 3804 C 358.366 -2.77277 -0.0355261 0
M  V30 3805 H 361.317 -1.52245 0.448006 0
M  V30 3806 H 361.338 -3.55187 -1.36463 0
M  V30 3807 H 360.85 -3.8566 0.43449 0
M  V30 3808 H 358.951 -3.1827 -1.9374 0
M  V30 3809 H 359.064 -4.71631 -0.842698 0
M  V30 3810 H 357.428 -2.48846 -0.542927 0
M  V30 3811 H 358.211 -3.30937 0.913003 0
M  V30 3812 N 360.656 0.0484629 -1.57525 0
M  V30 3813 C 361.896 0.748196 -1.90214 0
M  V30 3814 C 362.26 1.73545 -0.821347 0
M  V30 3815 O 363.461 2.48201 -1.03198 0
M  V30 3816 C 361.732 1.41727 -3.28098 0
M  V30 3817 S 363.291 2.14884 -3.82584 0
M  V30 3818 H 360.109 0.248307 -0.666232 0
M  V30 3819 H 362.711 0.00343188 -1.955 0
M  V30 3820 H 361.415 0.685244 -4.04639 0
M  V30 3821 H 360.946 2.20099 -3.26068 0
M  V30 3822 H 362.961 3.41755 -3.59747 0
M  V30 3823 N 362.134 1.5431 0.320358 0
M  V30 3824 C 363.545 1.63872 0.894594 0
M  V30 3825 C 363.896 0.534847 1.88769 0
M  V30 3826 O 363.021 -0.331732 2.13842 0
M  V30 3827 C 363.616 2.97049 1.62934 0
M  V30 3828 C 362.175 3.08796 2.15226 0
M  V30 3829 C 361.322 2.59456 0.978671 0
M  V30 3830 H 364.273 1.58398 0.0978544 0
M  V30 3831 H 364.294 2.87388 2.49376 0
M  V30 3832 H 363.806 3.7737 0.906302 0
M  V30 3833 H 361.907 2.33156 2.90636 0
M  V30 3834 H 362.02 4.14649 2.40006 0
M  V30 3835 H 360.384 2.1543 1.35875 0
M  V30 3836 H 361.167 3.42237 0.269895 0
M  V30 3837 N 363.613 -0.582584 1.46437 0
M  V30 3838 C 364.859 -1.34278 1.51978 0
M  V30 3839 C 365.192 -1.93446 0.170973 0
M  V30 3840 O 364.467 -1.76481 -0.817608 0
M  V30 3841 C 364.75 -2.47203 2.61845 0
M  V30 3842 C 364.603 -1.93069 4.06257 0
M  V30 3843 C 365.922 -3.49247 2.67795 0
M  V30 3844 H 363.041 -0.486876 0.553282 0
M  V30 3845 H 365.683 -0.654437 1.78374 0
M  V30 3846 H 363.833 -3.0592 2.39469 0
M  V30 3847 H 365.505 -1.38808 4.3992 0
M  V30 3848 H 363.748 -1.23898 4.1573 0
M  V30 3849 H 364.419 -2.74586 4.7886 0
M  V30 3850 H 366.895 -3.00411 2.8791 0
M  V30 3851 H 365.771 -4.25719 3.46489 0
M  V30 3852 H 366.032 -4.06482 1.73852 0
M  V30 3853 N 365.091 -1.34144 -0.827227 0
M  V30 3854 C 366.001 -1.27428 -1.96975 0
M  V30 3855 C 367.017 -0.182728 -1.73038 0
M  V30 3856 O 368.193 -0.408426 -1.97215 0
M  V30 3857 C 365.258 -1.02526 -3.31194 0
M  V30 3858 C 364.319 -2.20796 -3.68168 0
M  V30 3859 C 363.552 -1.97073 -4.95982 0
M  V30 3860 O 363.775 -0.926822 -5.6282 0
M  V30 3861 O 362.709 -2.83912 -5.30733 0
M  V30 3862 H 366.535 -2.23537 -2.05584 0
M  V30 3863 H 364.12 -1.14307 -0.961989 0
M  V30 3864 H 366.002 -0.904026 -4.11589 0
M  V30 3865 H 364.677 -0.0945389 -3.23562 0
M  V30 3866 H 363.584 -2.38477 -2.88235 0
M  V30 3867 H 364.917 -3.12243 -3.8048 0
M  V30 3868 N 366.569 1.04691 -1.17803 0
M  V30 3869 C 367.532 2.10724 -0.901545 0
M  V30 3870 C 368.532 1.6042 0.110437 0
M  V30 3871 O 369.722 1.7377 -0.122303 0
M  V30 3872 C 366.854 3.39084 -0.351409 0
M  V30 3873 H 368.047 2.36686 -1.84174 0
M  V30 3874 H 365.6 1.21015 -0.98919 0
M  V30 3875 H 366.335 3.18782 0.59569 0
M  V30 3876 H 366.12 3.76909 -1.08083 0
M  V30 3877 H 367.61 4.17227 -0.176451 0
M  V30 3878 N 368.047 0.979072 1.23499 0
M  V30 3879 C 369.01 0.523244 2.23147 0
M  V30 3880 C 370.01 -0.386406 1.56088 0
M  V30 3881 O 371.2 -0.180283 1.73265 0
M  V30 3882 C 368.332 -0.240739 3.40049 0
M  V30 3883 H 369.525 1.40432 2.64989 0
M  V30 3884 H 367.078 0.764824 1.36309 0
M  V30 3885 H 367.813 -1.13841 3.03662 0
M  V30 3886 H 367.598 0.412207 3.89927 0
M  V30 3887 H 369.088 -0.548297 4.13985 0
M  V30 3888 N 369.525 -1.3858 0.750561 0
M  V30 3889 C 370.455 -2.33102 0.136237 0
M  V30 3890 C 371.436 -1.54713 -0.706965 0
M  V30 3891 O 372.621 -1.83043 -0.648769 0
M  V30 3892 C 369.751 -3.38882 -0.760017 0
M  V30 3893 C 368.705 -4.27995 -0.0197785 0
M  V30 3894 C 368.031 -5.24605 -1.03408 0
M  V30 3895 C 369.331 -5.09554 1.14684 0
M  V30 3896 H 371.025 -2.84726 0.925822 0
M  V30 3897 H 368.571 -1.36898 0.446654 0
M  V30 3898 H 370.524 -4.0397 -1.19943 0
M  V30 3899 H 369.248 -2.85734 -1.58189 0
M  V30 3900 H 367.907 -3.64409 0.400184 0
M  V30 3901 H 367.555 -4.67746 -1.84994 0
M  V30 3902 H 367.255 -5.85081 -0.543464 0
M  V30 3903 H 368.779 -5.9257 -1.47288 0
M  V30 3904 H 370.193 -5.67899 0.785118 0
M  V30 3905 H 368.59 -5.7925 1.56812 0
M  V30 3906 H 369.66 -4.4347 1.96118 0
M  V30 3907 N 371.003 -0.499398 -1.49478 0
M  V30 3908 C 372.252 0.0475259 -2.01644 0
M  V30 3909 C 372.565 1.38195 -1.38425 0
M  V30 3910 O 373.771 2.01547 -1.8191 0
M  V30 3911 C 372.227 0.135164 -3.59646 0
M  V30 3912 C 371.835 -1.19252 -4.31837 0
M  V30 3913 C 373.579 0.632538 -4.19761 0
M  V30 3914 C 371.486 -1.06713 -5.81693 0
M  V30 3915 H 370.416 0.0215349 -0.753692 0
M  V30 3916 H 373.067 -0.638577 -1.7203 0
M  V30 3917 H 371.449 0.885681 -3.85969 0
M  V30 3918 H 372.623 -1.9562 -4.17216 0
M  V30 3919 H 370.938 -1.62321 -3.83459 0
M  V30 3920 H 373.535 0.743833 -5.29501 0
M  V30 3921 H 373.878 1.63098 -3.83021 0
M  V30 3922 H 374.411 -0.0613987 -3.97753 0
M  V30 3923 H 371.15 -2.03979 -6.22955 0
M  V30 3924 H 370.67 -0.344307 -5.98811 0
M  V30 3925 H 372.349 -0.745208 -6.42694 0
M  V30 3926 N 372.481 1.55866 -0.233164 0
M  V30 3927 C 373.73 1.97779 0.39579 0
M  V30 3928 C 374.043 1.12419 1.60066 0
M  V30 3929 O 375.249 1.44283 2.29988 0
M  V30 3930 C 373.705 3.5188 0.755556 0
M  V30 3931 C 373.313 4.45959 -0.427152 0
M  V30 3932 C 375.057 4.02479 1.34946 0
M  V30 3933 C 372.964 5.91383 -0.0443043 0
M  V30 3934 H 371.894 0.738592 0.15165 0
M  V30 3935 H 374.545 1.80486 -0.331212 0
M  V30 3936 H 372.927 3.64816 1.5403 0
M  V30 3937 H 374.101 4.44776 -1.20462 0
M  V30 3938 H 372.416 4.05765 -0.935068 0
M  V30 3939 H 375.013 5.08637 1.649 0
M  V30 3940 H 375.356 3.49014 2.26925 0
M  V30 3941 H 375.889 3.92813 0.62791 0
M  V30 3942 H 372.628 6.48857 -0.930874 0
M  V30 3943 H 372.148 5.95734 0.697238 0
M  V30 3944 H 373.827 6.45893 0.378334 0
M  V30 3945 N 373.959 -0.0401083 1.57549 0
M  V30 3946 C 374.907 -1.06264 2.06908 0
M  V30 3947 C 375.901 -1.38132 0.980608 0
M  V30 3948 O 377.107 -1.37167 1.16556 0
M  V30 3949 H 373.482 -0.360166 0.660139 0
M  V30 3950 H 375.453 -0.620445 2.91878 0
M  V30 3951 C 374.202 -2.35846 2.55483 0
M  V30 3952 H 373.525 -2.12183 3.38849 0
M  V30 3953 H 374.965 -3.05765 2.93741 0
M  V30 3954 C 373.424 -3.0404 1.45126 0
M  V30 3955 O 373.954 -3.93424 0.811216 0
M  V30 3956 N 372.16 -2.65184 1.18852 0
M  V30 3957 H 371.707 -1.92584 1.71083 0
M  V30 3958 H 371.665 -3.1113 0.452244 0
M  V30 3959 N 375.437 -1.54477 -0.31217 0
M  V30 3960 C 376.347 -1.87695 -1.4074 0
M  V30 3961 C 377.363 -0.769975 -1.56036 0
M  V30 3962 O 378.539 -1.06537 -1.70915 0
M  V30 3963 C 375.604 -2.10755 -2.75287 0
M  V30 3964 C 374.665 -3.34514 -2.69071 0
M  V30 3965 C 373.898 -3.56465 -3.97201 0
M  V30 3966 O 374.121 -2.81637 -4.96021 0
M  V30 3967 O 373.055 -4.49964 -3.9977 0
M  V30 3968 H 376.881 -2.80849 -1.15574 0
M  V30 3969 H 374.466 -1.40526 -0.507228 0
M  V30 3970 H 376.348 -2.27188 -3.54913 0
M  V30 3971 H 375.023 -1.20788 -3.0032 0
M  V30 3972 H 373.93 -3.23456 -1.87955 0
M  V30 3973 H 375.263 -4.24575 -2.48992 0
M  V30 3974 N 376.915 0.57481 -1.46744 0
M  V30 3975 C 378.143 1.35856 -1.56047 0
M  V30 3976 C 378.558 1.87691 -0.204365 0
M  V30 3977 O 377.915 1.64049 0.79963 0
M  V30 3978 C 377.966 2.54066 -2.57163 0
M  V30 3979 O 377.687 2.04377 -3.87507 0
M  V30 3980 C 379.188 3.46514 -2.76483 0
M  V30 3981 H 376.408 0.414754 -0.527466 0
M  V30 3982 H 378.952 0.698035 -1.92218 0
M  V30 3983 H 377.107 3.16092 -2.23974 0
M  V30 3984 H 377.521 2.81419 -4.4261 0
M  V30 3985 H 378.995 4.25919 -3.51137 0
M  V30 3986 H 379.472 3.98951 -1.83671 0
M  V30 3987 H 380.078 2.90318 -3.10799 0
M  V30 3988 N 378.394 1.34581 0.820102 0
M  V30 3989 C 379.643 1.26437 1.57151 0
M  V30 3990 C 379.956 -0.163111 1.94919 0
M  V30 3991 O 381.162 -0.366722 2.69012 0
M  V30 3992 C 379.618 2.21658 2.83541 0
M  V30 3993 C 379.226 3.69679 2.53065 0
M  V30 3994 C 380.97 2.22428 3.61561 0
M  V30 3995 C 378.877 4.56761 3.75664 0
M  V30 3996 H 377.807 0.469707 0.589823 0
M  V30 3997 H 380.458 1.59763 0.902656 0
M  V30 3998 H 378.84 1.81287 3.52067 0
M  V30 3999 H 380.014 4.18605 1.92631 0
M  V30 4000 H 378.329 3.71384 1.88316 0
M  V30 4001 H 380.926 2.8471 4.52597 0
M  V30 4002 H 381.269 1.22434 3.97889 0
M  V30 4003 H 381.802 2.61259 2.99981 0
M  V30 4004 H 378.541 5.57702 3.44454 0
M  V30 4005 H 378.061 4.12568 4.35371 0
M  V30 4006 H 379.74 4.71509 4.43044 0
M  V30 4007 N 379.872 -1.04064 1.18357 0
M  V30 4008 C 380.82 -2.14187 0.907007 0
M  V30 4009 C 381.814 -1.68879 -0.132725 0
M  V30 4010 O 383.02 -1.79993 0.0154248 0
M  V30 4011 H 379.395 -0.699585 0.275835 0
M  V30 4012 H 381.366 -2.34711 1.84264 0
M  V30 4013 C 380.115 -3.44785 0.449254 0
M  V30 4014 H 379.438 -3.80058 1.24081 0
M  V30 4015 H 380.878 -4.22974 0.294737 0
M  V30 4016 C 379.337 -3.26391 -0.834909 0
M  V30 4017 O 379.867 -3.53973 -1.89911 0
M  V30 4018 N 378.073 -2.79726 -0.787523 0
M  V30 4019 H 377.62 -2.5748 0.0787347 0
M  V30 4020 H 377.578 -2.67798 -1.64716 0
M  V30 4021 N 381.35 -0.985608 -1.22978 0
M  V30 4022 C 382.578 -0.675582 -1.95559 0
M  V30 4023 C 382.993 0.758413 -1.72897 0
M  V30 4024 O 382.35 1.51094 -1.02357 0
M  V30 4025 C 382.401 -0.96293 -3.48439 0
M  V30 4026 O 382.122 -2.34057 -3.70336 0
M  V30 4027 C 383.623 -0.669585 -4.38214 0
M  V30 4028 H 380.843 -0.250523 -0.622478 0
M  V30 4029 H 383.387 -1.3184 -1.56328 0
M  V30 4030 H 381.542 -0.366033 -3.85667 0
M  V30 4031 H 381.956 -2.43424 -4.64591 0
M  V30 4032 H 383.43 -0.920967 -5.44263 0
M  V30 4033 H 383.907 0.396383 -4.37408 0
M  V30 4034 H 384.513 -1.2472 -4.06602 0
M  V30 4035 N 382.828 1.3818 -0.7579 0
M  V30 4036 C 384.056 2.04301 -0.326937 0
M  V30 4037 C 384.471 1.57163 1.0462 0
M  V30 4038 O 383.828 0.746626 1.66529 0
M  V30 4039 C 383.879 3.59846 -0.345363 0
M  V30 4040 O 383.6 4.05256 -1.66432 0
M  V30 4041 C 385.101 4.4319 0.098927 0
M  V30 4042 H 382.321 0.656443 -0.139012 0
M  V30 4043 H 384.865 1.76786 -1.02796 0
M  V30 4044 H 383.02 3.86182 0.306955 0
M  V30 4045 H 383.434 4.99709 -1.59345 0
M  V30 4046 H 384.908 5.51989 0.0348745 0
M  V30 4047 H 385.385 4.23947 1.14741 0
M  V30 4048 H 385.991 4.22051 -0.52468 0
M  V30 4049 N 384.306 0.507319 1.49211 0
M  V30 4050 C 385.236 -0.256939 2.32082 0
M  V30 4051 C 386.217 -0.956609 1.40652 0
M  V30 4052 O 387.402 -0.946788 1.69557 0
M  V30 4053 C 384.532 -1.31802 3.21318 0
M  V30 4054 C 383.486 -0.737855 4.21592 0
M  V30 4055 C 382.812 -1.89992 4.99807 0
M  V30 4056 C 384.112 0.275325 5.21574 0
M  V30 4057 H 385.806 0.434798 2.96226 0
M  V30 4058 H 383.352 0.210546 1.42452 0
M  V30 4059 H 385.305 -1.86045 3.78107 0
M  V30 4060 H 384.029 -2.03903 2.5513 0
M  V30 4061 H 382.688 -0.217126 3.65956 0
M  V30 4062 H 382.336 -2.60877 4.30061 0
M  V30 4063 H 382.036 -1.51777 5.6766 0
M  V30 4064 H 383.56 -2.44657 5.59442 0
M  V30 4065 H 384.974 -0.179193 5.7302 0
M  V30 4066 H 383.371 0.573649 5.97352 0
M  V30 4067 H 384.441 1.18903 4.70096 0
M  V30 4068 N 385.784 -1.5574 0.241426 0
M  V30 4069 C 387.012 -2.03208 -0.389134 0
M  V30 4070 C 387.427 -1.12082 -1.51931 0
M  V30 4071 O 386.784 -0.134183 -1.82006 0
M  V30 4072 C 386.835 -3.50064 -0.902087 0
M  V30 4073 O 386.556 -4.37717 0.18305 0
M  V30 4074 C 388.057 -4.13268 -1.60389 0
M  V30 4075 H 385.277 -0.664509 -0.0931053 0
M  V30 4076 H 387.821 -2.0124 0.36369 0
M  V30 4077 H 385.976 -3.52583 -1.60511 0
M  V30 4078 H 386.39 -5.24097 -0.205579 0
M  V30 4079 H 387.864 -5.17733 -1.91458 0
M  V30 4080 H 388.341 -3.59434 -2.52397 0
M  V30 4081 H 388.947 -4.14655 -0.945576 0
M  V30 4082 N 387.262 0.0317525 -1.57568 0
M  V30 4083 C 388.194 1.06073 -2.03178 0
M  V30 4084 C 389.207 1.32627 -0.944132 0
M  V30 4085 O 390.396 1.30162 -1.22148 0
M  V30 4086 C 387.496 2.40297 -2.38978 0
M  V30 4087 C 386.669 2.33137 -3.70089 0
M  V30 4088 C 385.728 3.49787 -3.9311 0
M  V30 4089 O 384.754 3.29403 -4.64201 0
M  V30 4090 N 385.956 4.71562 -3.38541 0
M  V30 4091 H 388.721 0.672006 -2.92069 0
M  V30 4092 H 386.282 0.219745 -1.60402 0
M  V30 4093 H 388.274 3.1705 -2.51518 0
M  V30 4094 H 386.844 2.71024 -1.55771 0
M  V30 4095 H 386.064 1.415 -3.67928 0
M  V30 4096 H 387.352 2.25493 -4.56104 0
M  V30 4097 H 386.75 4.91024 -2.80912 0
M  V30 4098 H 385.307 5.45689 -3.56464 0
M  V30 4099 N 388.74 1.54641 0.303973 0
M  V30 4100 C 390.151 1.64811 0.877163 0
M  V30 4101 C 390.502 0.554838 1.88191 0
M  V30 4102 O 389.627 -0.309033 2.14182 0
M  V30 4103 C 390.222 2.9876 1.59775 0
M  V30 4104 C 388.781 3.11061 2.11938 0
M  V30 4105 C 387.928 2.60479 0.951097 0
M  V30 4106 H 390.879 1.58493 0.0810486 0
M  V30 4107 H 390.9 2.90017 2.46314 0
M  V30 4108 H 390.412 3.7831 0.866226 0
M  V30 4109 H 388.513 2.36225 2.88146 0
M  V30 4110 H 388.626 4.17171 2.35595 0
M  V30 4111 H 386.99 2.16859 1.33583 0
M  V30 4112 H 387.773 3.42504 0.233581 0
M  V30 4113 N 390.218 -0.567019 1.47046 0
M  V30 4114 C 391.446 -1.35027 1.56765 0
M  V30 4115 C 391.861 -1.8758 0.214316 0
M  V30 4116 O 391.218 -1.64471 -0.790919 0
M  V30 4117 C 391.269 -2.52698 2.58507 0
M  V30 4118 O 390.99 -2.0232 3.88585 0
M  V30 4119 C 392.491 -3.45043 2.78316 0
M  V30 4120 H 389.711 -0.41195 0.529658 0
M  V30 4121 H 392.255 -0.687832 1.92585 0
M  V30 4122 H 390.41 -3.149 2.25648 0
M  V30 4123 H 390.824 -2.79068 4.44096 0
M  V30 4124 H 392.298 -4.2405 3.53391 0
M  V30 4125 H 392.775 -3.97971 1.85784 0
M  V30 4126 H 393.381 -2.88665 3.12334 0
M  V30 4127 N 391.696 -1.35014 -0.812953 0
M  V30 4128 C 392.659 -1.27292 -1.90602 0
M  V30 4129 C 393.659 -0.185817 -1.59723 0
M  V30 4130 O 394.849 -0.439102 -1.68575 0
M  V30 4131 C 391.981 -0.967676 -3.26877 0
M  V30 4132 H 393.174 -2.24479 -1.9887 0
M  V30 4133 H 390.727 -1.19446 -1.00808 0
M  V30 4134 H 391.462 0.0005954 -3.243 0
M  V30 4135 H 391.247 -1.75412 -3.50675 0
M  V30 4136 H 392.737 -0.939085 -4.06904 0
M  V30 4137 N 393.175 1.03435 -1.18907 0
M  V30 4138 C 394.105 2.13503 -0.945448 0
M  V30 4139 C 395.086 1.69682 0.119189 0
M  V30 4140 O 396.271 1.94169 -0.034707 0
M  V30 4141 C 393.401 3.44004 -0.477316 0
M  V30 4142 C 392.355 4.0148 -1.48316 0
M  V30 4143 C 391.681 5.27537 -0.872311 0
M  V30 4144 C 392.981 4.36921 -2.86177 0
M  V30 4145 H 394.675 2.34141 -1.86597 0
M  V30 4146 H 392.221 1.12523 -0.898584 0
M  V30 4147 H 394.174 4.20372 -0.294204 0
M  V30 4148 H 392.898 3.23072 0.478786 0
M  V30 4149 H 391.557 3.27201 -1.65332 0
M  V30 4150 H 391.205 5.02917 0.0911752 0
M  V30 4151 H 390.905 5.66954 -1.54393 0
M  V30 4152 H 392.429 6.06576 -0.699871 0
M  V30 4153 H 393.843 5.04248 -2.72776 0
M  V30 4154 H 392.24 4.87405 -3.50081 0
M  V30 4155 H 393.31 3.46466 -3.39248 0
M  V30 4156 N 394.653 0.992116 1.22453 0
M  V30 4157 C 395.899 0.668523 1.91464 0
M  V30 4158 C 396.232 -0.797313 1.77078 0
M  V30 4159 O 395.507 -1.5765 1.13916 0
M  V30 4160 C 395.79 1.07424 3.43703 0
M  V30 4161 C 395.643 2.59857 3.67143 0
M  V30 4162 C 396.962 0.626891 4.35612 0
M  V30 4163 H 394.081 0.244341 0.695318 0
M  V30 4164 H 396.723 1.2355 1.44345 0
M  V30 4165 H 394.873 0.591816 3.83966 0
M  V30 4166 H 396.545 3.15764 3.3629 0
M  V30 4167 H 394.788 3.01961 3.11451 0
M  V30 4168 H 395.459 2.83296 4.73759 0
M  V30 4169 H 397.935 1.04125 4.02861 0
M  V30 4170 H 396.811 0.939076 5.40807 0
M  V30 4171 H 397.072 -0.472457 4.39568 0
M  V30 4172 N 396.131 -1.37776 0.765217 0
M  V30 4173 C 397.542 -1.82521 0.392819 0
M  V30 4174 C 397.893 -1.63789 -1.08017 0
M  V30 4175 O 397.018 -1.14542 -1.83601 0
M  V30 4176 C 397.613 -3.31358 0.706214 0
M  V30 4177 C 396.172 -3.74406 0.386952 0
M  V30 4178 C 395.319 -2.60394 0.953422 0
M  V30 4179 H 398.27 -1.2634 0.960412 0
M  V30 4180 H 398.291 -3.80498 -0.0114706 0
M  V30 4181 H 397.803 -3.44959 1.77833 0
M  V30 4182 H 395.904 -3.66377 -0.678112 0
M  V30 4183 H 396.017 -4.70749 0.890636 0
M  V30 4184 H 394.381 -2.51878 0.378064 0
M  V30 4185 H 395.164 -2.76791 2.03081 0
M  V30 4186 N 397.609 -0.515225 -1.4894 0
M  V30 4187 C 398.572 0.244681 -2.2789 0
M  V30 4188 C 399.572 0.881166 -1.34507 0
M  V30 4189 O 400.762 0.743497 -1.57537 0
M  V30 4190 C 397.894 1.35247 -3.12923 0
M  V30 4191 H 399.087 -0.448289 -2.96531 0
M  V30 4192 H 396.64 -0.270656 -1.53939 0
M  V30 4193 H 397.375 2.07916 -2.48881 0
M  V30 4194 H 397.16 0.901374 -3.81599 0
M  V30 4195 H 398.65 1.88737 -3.72516 0
M  V30 4196 N 399.087 1.5561 -0.249682 0
M  V30 4197 C 400.017 2.24477 0.642826 0
M  V30 4198 C 400.998 1.22601 1.17911 0
M  V30 4199 O 402.183 1.5126 1.21795 0
M  V30 4200 C 399.313 2.94638 1.83863 0
M  V30 4201 C 398.267 4.03227 1.435 0
M  V30 4202 C 397.593 4.60828 2.71186 0
M  V30 4203 C 398.893 5.18796 0.604002 0
M  V30 4204 H 400.587 2.99321 0.0685625 0
M  V30 4205 H 398.133 1.43965 0.0315363 0
M  V30 4206 H 400.086 3.41517 2.46868 0
M  V30 4207 H 398.81 2.17287 2.43832 0
M  V30 4208 H 397.469 3.57121 0.828275 0
M  V30 4209 H 397.117 3.80174 3.29358 0
M  V30 4210 H 396.817 5.34132 2.44901 0
M  V30 4211 H 398.341 5.10442 3.35084 0
M  V30 4212 H 399.755 5.61883 1.13842 0
M  V30 4213 H 398.152 5.98506 0.437097 0
M  V30 4214 H 399.222 4.83384 -0.383147 0
M  V30 4215 N 400.565 -0.0233959 1.57583 0
M  V30 4216 C 401.79 -0.728376 1.94189 0
M  V30 4217 C 402.215 -1.67793 0.850119 0
M  V30 4218 O 401.573 -1.80262 -0.19371 0
M  V30 4219 C 401.621 -1.45669 3.29868 0
M  V30 4220 O 400.725 -2.57013 3.22518 0
M  V30 4221 H 400.066 -0.195493 0.63457 0
M  V30 4222 H 402.596 0.0228214 2.04587 0
M  V30 4223 H 402.606 -1.82535 3.6489 0
M  V30 4224 H 401.281 -0.760314 4.08891 0
M  V30 4225 H 399.858 -2.22648 2.99136 0
M  V30 4226 N 402.043 -1.548 -0.295768 0
M  V30 4227 C 402.993 -1.82497 -1.3667 0
M  V30 4228 C 403.977 -0.682434 -1.45711 0
M  V30 4229 O 405.169 -0.943207 -1.49775 0
M  V30 4230 C 402.298 -2.08036 -2.73086 0
M  V30 4231 C 401.384 -3.28488 -2.68247 0
M  V30 4232 N 401.775 -4.48924 -2.33025 0
M  V30 4233 C 400.073 -3.3062 -2.99343 0
M  V30 4234 C 400.774 -5.30956 -2.37613 0
M  V30 4235 N 399.75 -4.68805 -2.75178 0
M  V30 4236 H 403.552 -2.73175 -1.0841 0
M  V30 4237 H 401.066 -1.5437 -0.504361 0
M  V30 4238 H 403.063 -2.26027 -3.5031 0
M  V30 4239 H 401.723 -1.18629 -3.02254 0
M  V30 4240 H 402.734 -4.75432 -2.05389 0
M  V30 4241 H 399.411 -2.51336 -3.33371 0
M  V30 4242 H 400.801 -6.37199 -2.13135 0
M  V30 4243 N 403.521 0.559213 -1.47345 0
M  V30 4244 C 404.469 1.68747 -1.60085 0
M  V30 4245 C 405.463 1.628 -0.46825 0
M  V30 4246 O 406.669 1.68009 -0.645977 0
M  V30 4247 H 403.044 0.558329 -0.503759 0
M  V30 4248 H 405.015 1.55138 -2.54902 0
M  V30 4249 C 403.764 3.07103 -1.63042 0
M  V30 4250 H 403.087 3.12361 -2.49541 0
M  V30 4251 H 404.527 3.85743 -1.76006 0
M  V30 4252 C 402.986 3.34935 -0.363357 0
M  V30 4253 O 403.516 3.98102 0.536416 0
M  V30 4254 N 401.722 2.89574 -0.244 0
M  V30 4255 H 401.269 2.38348 -0.977133 0
M  V30 4256 H 401.227 3.08566 0.602836 0
M  V30 4257 N 404.999 1.35443 0.805782 0
M  V30 4258 C 406.245 1.28952 1.56522 0
M  V30 4259 C 406.578 -0.135597 1.93726 0
M  V30 4260 O 405.853 -1.08516 1.61414 0
M  V30 4261 C 406.136 2.19678 2.85331 0
M  V30 4262 C 405.989 3.7081 2.54598 0
M  V30 4263 C 407.308 2.09495 3.8704 0
M  V30 4264 H 404.427 0.469764 0.567883 0
M  V30 4265 H 407.069 1.65851 0.927001 0
M  V30 4266 H 405.219 1.8834 3.39795 0
M  V30 4267 H 406.891 4.12593 2.06312 0
M  V30 4268 H 405.134 3.91051 1.8778 0
M  V30 4269 H 405.805 4.29679 3.46525 0
M  V30 4270 H 408.281 2.37045 3.41978 0
M  V30 4271 H 407.157 2.75173 4.74943 0
M  V30 4272 H 407.418 1.07714 4.28777 0
M  V30 4273 N 406.477 -1.02803 1.19454 0
M  V30 4274 C 407.705 -1.79841 1.02297 0
M  V30 4275 C 408.12 -1.83879 -0.428259 0
M  V30 4276 O 407.477 -1.28345 -1.29745 0
M  V30 4277 C 407.528 -3.24852 1.58598 0
M  V30 4278 O 407.249 -3.21097 2.98041 0
M  V30 4279 C 408.75 -4.18485 1.46236 0
M  V30 4280 H 405.97 -0.565936 0.360496 0
M  V30 4281 H 408.514 -1.2948 1.58288 0
M  V30 4282 H 406.669 -3.72401 1.06753 0
M  V30 4283 H 407.083 -4.12033 3.24545 0
M  V30 4284 H 408.557 -5.18121 1.90407 0
M  V30 4285 H 409.034 -4.37254 0.41301 0
M  V30 4286 H 409.64 -3.76811 1.97215 0
M  V30 4287 N 407.956 -0.998596 -1.21925 0
M  V30 4288 C 408.866 -0.562736 -2.27751 0
M  V30 4289 C 409.882 0.391203 -1.69545 0
M  V30 4290 O 411.058 0.256625 -1.99758 0
M  V30 4291 C 408.123 0.11012 -3.46525 0
M  V30 4292 C 407.184 -0.887495 -4.20026 0
M  V30 4293 C 406.417 -0.246654 -5.3313 0
M  V30 4294 O 406.64 0.958088 -5.62296 0
M  V30 4295 O 405.574 -0.954374 -5.94286 0
M  V30 4296 H 409.4 -1.44329 -2.67213 0
M  V30 4297 H 406.985 -0.767135 -1.28201 0
M  V30 4298 H 408.867 0.486756 -4.18579 0
M  V30 4299 H 407.542 0.965154 -3.08976 0
M  V30 4300 H 406.449 -1.31517 -3.5022 0
M  V30 4301 H 407.782 -1.71191 -4.6147 0
M  V30 4302 N 409.434 1.37368 -0.772513 0
M  V30 4303 C 410.382 2.32134 -0.147111 0
M  V30 4304 C 411.376 1.54972 0.684106 0
M  V30 4305 O 412.582 1.70363 0.581083 0
M  V30 4306 H 408.957 0.751449 -0.028786 0
M  V30 4307 H 410.928 2.82464 -0.962112 0
M  V30 4308 C 409.677 3.40226 0.71703 0
M  V30 4309 H 409 3.99706 0.0867951 0
M  V30 4310 H 410.44 4.08897 1.12159 0
M  V30 4311 C 408.899 2.80372 1.86797 0
M  V30 4312 O 409.429 2.71183 2.96349 0
M  V30 4313 N 407.635 2.37904 1.66883 0
M  V30 4314 H 407.182 2.45578 0.777759 0
M  V30 4315 H 407.14 1.98202 2.44056 0
M  V30 4316 N 410.912 0.523116 1.48665 0
M  V30 4317 C 412.189 -0.0775449 1.95446 0
M  V30 4318 C 412.569 -1.5197 1.4652 0
M  V30 4319 O 411.917 -2.17876 0.688657 0
M  V30 4320 C 412.127 0.0326135 3.48985 0
M  V30 4321 C 413.475 -0.130141 4.24401 0
M  V30 4322 O 414.499 -0.0415142 3.56176 0
M  V30 4323 O 413.358 -0.31491 5.45592 0
M  V30 4324 H 410.452 -0.0831012 0.822814 0
M  V30 4325 H 412.998 0.587227 1.59216 0
M  V30 4326 H 411.77 1.03748 3.77296 0
M  V30 4327 H 411.393 -0.671317 3.91892 0
M  V30 4328 N 412.39 -1.55475 0.257931 0
M  V30 4329 C 413.615 -2.04064 -0.370488 0
M  V30 4330 C 414.04 -1.13565 -1.49948 0
M  V30 4331 O 413.398 -0.130781 -1.80828 0
M  V30 4332 C 413.446 -3.50554 -0.845237 0
M  V30 4333 O 412.55 -3.63173 -1.95394 0
M  V30 4334 H 411.891 -0.659257 -0.0792243 0
M  V30 4335 H 414.421 -2.00903 0.387212 0
M  V30 4336 H 414.431 -3.91588 -1.14555 0
M  V30 4337 H 413.106 -4.15896 -0.0191259 0
M  V30 4338 H 411.683 -3.34039 -1.65748 0
M  V30 4339 N 413.868 0.0150385 -1.57593 0
M  V30 4340 C 415.108 0.70768 -1.91758 0
M  V30 4341 C 415.472 1.71764 -0.857974 0
M  V30 4342 O 416.673 2.45956 -1.0844 0
M  V30 4343 C 414.944 1.34736 -3.3103 0
M  V30 4344 S 416.503 2.06721 -3.87056 0
M  V30 4345 H 413.321 0.234119 -0.671349 0
M  V30 4346 H 415.923 -0.0380373 -1.95463 0
M  V30 4347 H 414.627 0.59926 -4.06001 0
M  V30 4348 H 414.158 2.13133 -3.30663 0
M  V30 4349 H 416.173 3.34047 -3.66915 0
M  V30 4350 N 415.346 1.54954 0.287554 0
M  V30 4351 C 416.762 1.46469 0.633964 0
M  V30 4352 C 416.962 0.666865 1.90145 0
M  V30 4353 O 416.018 0.179906 2.51858 0
M  V30 4354 C 417.331 2.90556 0.774454 0
M  V30 4355 C 418.879 3.00681 0.869462 0
M  V30 4356 C 419.354 4.45993 1.04184 0
M  V30 4357 N 420.845 4.4976 1.10772 0
M  V30 4358 C 421.58 5.59393 1.25964 0
M  V30 4359 N 421.076 6.78923 1.37968 0
M  V30 4360 N 422.869 5.47107 1.28959 0
M  V30 4361 H 415.02 2.05288 -0.545041 0
M  V30 4362 H 417.283 0.930305 -0.182308 0
M  V30 4363 H 416.989 3.51594 -0.086207 0
M  V30 4364 H 416.863 3.38743 1.6593 0
M  V30 4365 H 419.25 2.39749 1.7206 0
M  V30 4366 H 419.331 2.55769 -0.0396831 0
M  V30 4367 H 418.975 5.07524 0.195422 0
M  V30 4368 H 418.905 4.88548 1.96542 0
M  V30 4369 H 421.396 3.63651 1.02794 0
M  V30 4370 H 421.709 7.58231 1.49353 0
M  V30 4371 H 420.054 6.81763 1.34999 0
M  V30 4372 H 423.245 4.52668 1.19202 0
M  V30 4373 H 423.418 6.32595 1.40455 0
M  V30 4374 N 416.824 -0.551391 1.4764 0
M  V30 4375 C 418.235 -1.13349 1.48354 0
M  V30 4376 C 418.586 -1.94709 0.241432 0
M  V30 4377 O 417.711 -2.06306 -0.653205 0
M  V30 4378 C 418.306 -2.0623 2.68802 0
M  V30 4379 C 416.865 -2.597 2.72457 0
M  V30 4380 C 416.012 -1.36201 2.41546 0
M  V30 4381 H 418.963 -0.337698 1.55065 0
M  V30 4382 H 418.984 -2.90196 2.46103 0
M  V30 4383 H 418.496 -1.46987 3.59188 0
M  V30 4384 H 416.597 -3.22724 1.86225 0
M  V30 4385 H 416.71 -3.00296 3.73308 0
M  V30 4386 H 415.074 -1.67068 1.9225 0
M  V30 4387 H 415.857 -0.787425 3.34147 0
M  V30 4388 N 418.302 -1.35869 -0.798587 0
M  V30 4389 C 419.252 -1.25982 -1.90033 0
M  V30 4390 C 420.236 -0.153303 -1.60168 0
M  V30 4391 O 421.428 -0.38527 -1.72756 0
M  V30 4392 C 418.557 -1.04211 -3.27101 0
M  V30 4393 C 417.643 -2.19289 -3.63006 0
M  V30 4394 N 418.034 -3.44559 -3.70287 0
M  V30 4395 C 416.332 -2.10852 -3.93011 0
M  V30 4396 C 417.033 -4.20283 -4.02166 0
M  V30 4397 N 416.009 -3.49124 -4.16669 0
M  V30 4398 H 419.811 -2.20883 -1.93876 0
M  V30 4399 H 417.325 -1.28457 -0.993614 0
M  V30 4400 H 419.322 -0.952155 -4.05881 0
M  V30 4401 H 417.982 -0.102013 -3.2454 0
M  V30 4402 H 418.993 -3.7881 -3.53162 0
M  V30 4403 H 415.67 -1.24744 -3.98428 0
M  V30 4404 H 417.06 -5.28575 -4.14799 0
M  V30 4405 N 419.78 1.02168 -1.19998 0
M  V30 4406 C 421.01 1.79036 -1.031 0
M  V30 4407 C 421.418 1.84409 0.423078 0
M  V30 4408 O 420.761 1.29228 1.30559 0
M  V30 4409 C 420.823 3.25185 -1.53281 0
M  V30 4410 C 420.487 3.43431 -3.01503 0
M  V30 4411 C 421.484 3.33063 -3.99206 0
M  V30 4412 C 419.169 3.69412 -3.40353 0
M  V30 4413 C 421.163 3.48413 -5.33748 0
M  V30 4414 C 418.85 3.84406 -4.75053 0
M  V30 4415 C 419.848 3.7391 -5.71559 0
M  V30 4416 O 419.536 3.88452 -7.03818 0
M  V30 4417 H 419.268 0.570043 -0.363355 0
M  V30 4418 H 421.822 1.29524 -1.59414 0
M  V30 4419 H 420.052 3.75756 -0.913483 0
M  V30 4420 H 421.741 3.83671 -1.32481 0
M  V30 4421 H 422.507 3.12934 -3.70537 0
M  V30 4422 H 418.386 3.76671 -2.65782 0
M  V30 4423 H 421.93 3.40137 -6.09059 0
M  V30 4424 H 417.827 4.04035 -5.03415 0
M  V30 4425 H 418.595 4.055 -7.10993 0
M  V30 4426 N 421.258 1.00505 1.21394 0
M  V30 4427 C 422.505 0.687774 1.90462 0
M  V30 4428 C 422.833 -0.78147 1.7811 0
M  V30 4429 O 422.088 -1.58208 1.1519 0
M  V30 4430 C 422.387 1.0546 3.41486 0
M  V30 4431 C 422.053 2.51812 3.74034 0
M  V30 4432 C 420.715 2.91804 3.82628 0
M  V30 4433 C 423.067 3.46614 3.8924 0
M  V30 4434 C 420.395 4.2556 4.03876 0
M  V30 4435 C 422.747 4.80044 4.11995 0
M  V30 4436 C 421.411 5.19759 4.18816 0
M  V30 4437 H 420.681 0.251674 0.696951 0
M  V30 4438 H 423.328 1.26349 1.43903 0
M  V30 4439 H 421.633 0.397133 3.89782 0
M  V30 4440 H 423.33 0.786976 3.93202 0
M  V30 4441 H 419.92 2.1982 3.67936 0
M  V30 4442 H 424.104 3.16883 3.81967 0
M  V30 4443 H 419.36 4.55901 4.07387 0
M  V30 4444 H 423.534 5.53439 4.22704 0
M  V30 4445 H 421.161 6.23418 4.35033 0
M  V30 4446 N 422.737 -1.36956 0.779787 0
M  V30 4447 C 423.986 -1.98738 0.344405 0
M  V30 4448 C 424.299 -1.62596 -1.08728 0
M  V30 4449 O 425.505 -2.1754 -1.62445 0
M  V30 4450 C 423.961 -3.5544 0.564829 0
M  V30 4451 C 423.569 -4.00514 2.0073 0
M  V30 4452 C 425.313 -4.24059 0.193471 0
M  V30 4453 C 423.22 -5.49957 2.17489 0
M  V30 4454 H 422.15 -0.743561 0.12503 0
M  V30 4455 H 424.801 -1.56381 0.960057 0
M  V30 4456 H 423.183 -3.95817 -0.120397 0
M  V30 4457 H 424.357 -3.71362 2.72814 0
M  V30 4458 H 422.672 -3.44703 2.336 0
M  V30 4459 H 425.269 -5.33874 0.297097 0
M  V30 4460 H 425.612 -4.07378 -0.857263 0
M  V30 4461 H 426.145 -3.89012 0.831556 0
M  V30 4462 H 422.884 -5.71574 3.2091 0
M  V30 4463 H 422.404 -5.80767 1.49899 0
M  V30 4464 H 424.083 -6.16043 1.97738 0
M  V30 4465 N 424.215 -0.530993 -1.48385 0
M  V30 4466 C 425.462 0.0027373 -2.025 0
M  V30 4467 C 425.79 1.34186 -1.40799 0
M  V30 4468 O 425.045 1.88 -0.543544 0
M  V30 4469 C 425.344 0.172742 -3.56982 0
M  V30 4470 C 425.01 -1.09215 -4.37473 0
M  V30 4471 C 423.672 -1.43881 -4.59186 0
M  V30 4472 C 426.024 -1.93153 -4.84088 0
M  V30 4473 C 423.352 -2.62381 -5.2476 0
M  V30 4474 C 425.704 -3.10833 -5.50968 0
M  V30 4475 C 424.368 -3.45843 -5.70919 0
M  V30 4476 H 423.638 0.00100165 -0.740999 0
M  V30 4477 H 426.285 -0.697219 -1.78357 0
M  V30 4478 H 424.59 0.955473 -3.79971 0
M  V30 4479 H 426.287 0.600642 -3.96476 0
M  V30 4480 H 422.877 -0.812177 -4.20834 0
M  V30 4481 H 427.061 -1.67683 -4.67115 0
M  V30 4482 H 422.317 -2.89707 -5.38405 0
M  V30 4483 H 426.491 -3.7618 -5.86056 0
M  V30 4484 H 424.118 -4.37764 -6.21503 0
M  V30 4485 N 425.693 1.55336 -0.266172 0
M  V30 4486 C 426.641 2.23587 0.641228 0
M  V30 4487 C 427.635 1.22986 1.16494 0
M  V30 4488 O 428.841 1.40943 1.1196 0
M  V30 4489 H 425.216 0.717452 0.225315 0
M  V30 4490 H 427.187 2.9837 0.0426561 0
M  V30 4491 C 425.936 2.96369 1.81826 0
M  V30 4492 H 425.259 3.73563 1.42445 0
M  V30 4493 H 426.699 3.47459 2.42998 0
M  V30 4494 C 425.158 2.0133 2.70125 0
M  V30 4495 O 425.688 1.55875 3.70224 0
M  V30 4496 N 423.894 1.6802 2.37102 0
M  V30 4497 H 423.441 2.05181 1.55751 0
M  V30 4498 H 423.399 1.047 2.96454 0
M  V30 4499 N 427.171 -0.0066808 1.57599 0
M  V30 4500 C 428.396 -0.707738 1.94951 0
M  V30 4501 C 428.821 -1.66882 0.867868 0
M  V30 4502 O 428.179 -1.80457 -0.17458 0
M  V30 4503 C 428.227 -1.42162 3.31394 0
M  V30 4504 O 427.331 -2.53578 3.25226 0
M  V30 4505 H 426.672 -0.188752 0.636607 0
M  V30 4506 H 429.202 0.0445193 2.04552 0
M  V30 4507 H 429.212 -1.78655 3.66806 0
M  V30 4508 H 427.887 -0.716903 4.09675 0
M  V30 4509 H 426.464 -2.19463 3.01481 0
M  V30 4510 N 428.649 -1.55105 -0.279332 0
M  V30 4511 C 429.581 -1.83952 -1.36727 0
M  V30 4512 C 430.594 -0.723642 -1.45833 0
M  V30 4513 O 431.783 -1.00141 -1.47763 0
M  V30 4514 C 428.883 -1.98183 -2.74912 0
M  V30 4515 C 428.056 -3.28787 -2.88475 0
M  V30 4516 C 427.115 -3.33162 -4.07295 0
M  V30 4517 O 426.141 -4.06576 -3.98353 0
M  V30 4518 N 427.343 -2.60109 -5.18964 0
M  V30 4519 H 430.108 -2.77853 -1.12328 0
M  V30 4520 H 427.669 -1.54945 -0.469442 0
M  V30 4521 H 429.661 -1.98488 -3.52682 0
M  V30 4522 H 428.231 -1.11177 -2.92162 0
M  V30 4523 H 427.451 -3.41075 -1.97641 0
M  V30 4524 H 428.739 -4.14933 -2.94463 0
M  V30 4525 H 428.137 -2.00136 -5.29115 0
M  V30 4526 H 426.694 -2.66143 -5.94988 0
M  V30 4527 N 430.127 0.543554 -1.4793 0
M  V30 4528 C 431.355 1.32516 -1.58894 0
M  V30 4529 C 431.77 1.87215 -0.244131 0
M  V30 4530 O 431.127 1.65709 0.764652 0
M  V30 4531 C 431.178 2.48554 -2.62494 0
M  V30 4532 O 430.899 1.96112 -3.91755 0
M  V30 4533 C 432.4 3.40572 -2.8377 0
M  V30 4534 H 429.62 0.403472 -0.536145 0
M  V30 4535 H 432.164 0.657106 -1.93655 0
M  V30 4536 H 430.319 3.1127 -2.30629 0
M  V30 4537 H 430.733 2.71967 -4.4848 0
M  V30 4538 H 432.207 4.18375 -3.60093 0
M  V30 4539 H 432.684 3.94965 -1.92092 0
M  V30 4540 H 433.29 2.8366 -3.16887 0
M  V30 4541 N 431.605 1.3629 0.791371 0
M  V30 4542 C 432.851 1.30605 1.55146 0
M  V30 4543 C 433.184 -0.115042 1.93859 0
M  V30 4544 O 432.459 -1.06798 1.62556 0
M  V30 4545 C 432.742 2.22692 2.82985 0
M  V30 4546 C 432.595 3.73489 2.50651 0
M  V30 4547 C 433.914 2.13588 3.84796 0
M  V30 4548 H 431.033 0.475761 0.562868 0
M  V30 4549 H 433.675 1.66825 0.909358 0
M  V30 4550 H 431.825 1.91933 3.37778 0
M  V30 4551 H 433.497 4.14758 2.01924 0
M  V30 4552 H 431.74 3.93021 1.83622 0
M  V30 4553 H 432.411 4.3333 3.41949 0
M  V30 4554 H 434.887 2.40659 3.39445 0
M  V30 4555 H 433.763 2.80195 4.71998 0
M  V30 4556 H 434.024 1.12256 4.27611 0
M  V30 4557 N 433.083 -1.0153 1.20538 0
M  V30 4558 C 434.313 -1.78487 1.04048 0
M  V30 4559 C 434.721 -1.84631 -0.413292 0
M  V30 4560 O 434.064 -1.29919 -1.29872 0
M  V30 4561 C 434.126 -3.24367 1.55003 0
M  V30 4562 C 433.79 -3.41827 3.0332 0
M  V30 4563 C 434.787 -3.30941 4.00966 0
M  V30 4564 C 432.472 -3.67602 3.42307 0
M  V30 4565 C 434.466 -3.45577 5.35589 0
M  V30 4566 C 432.153 -3.81881 4.77085 0
M  V30 4567 C 433.151 -3.70874 5.73534 0
M  V30 4568 O 432.839 -3.84714 7.05868 0
M  V30 4569 H 432.571 -0.568108 0.366373 0
M  V30 4570 H 435.125 -1.28677 1.60098 0
M  V30 4571 H 433.355 -3.75266 0.933397 0
M  V30 4572 H 435.044 -3.82963 1.34514 0
M  V30 4573 H 435.81 -3.10964 3.72191 0
M  V30 4574 H 431.689 -3.75256 2.67776 0
M  V30 4575 H 435.233 -3.36902 6.10854 0
M  V30 4576 H 431.13 -4.01359 5.0555 0
M  V30 4577 H 431.898 -4.01724 7.13134 0
M  V30 4578 N 434.561 -1.01147 -1.20859 0
M  V30 4579 C 435.524 -0.582224 -2.21682 0
M  V30 4580 C 436.524 0.344887 -1.57058 0
M  V30 4581 O 437.714 0.134281 -1.73682 0
M  V30 4582 C 434.846 0.150496 -3.40568 0
M  V30 4583 H 436.039 -1.47408 -2.61172 0
M  V30 4584 H 433.592 -0.800695 -1.34233 0
M  V30 4585 H 434.327 1.0575 -3.06574 0
M  V30 4586 H 434.112 -0.515444 -3.88697 0
M  V30 4587 H 435.602 0.438344 -4.15293 0
M  V30 4588 N 436.039 1.36541 -0.78704 0
M  V30 4589 C 437.285 1.99599 -0.358872 0
M  V30 4590 C 437.618 1.62323 1.06606 0
M  V30 4591 O 436.893 0.876858 1.73613 0
M  V30 4592 C 437.176 3.56327 -0.519944 0
M  V30 4593 C 437.029 4.03464 -1.98839 0
M  V30 4594 C 438.348 4.4005 0.0664737 0
M  V30 4595 H 435.467 0.725107 -0.131869 0
M  V30 4596 H 438.109 1.6199 -0.992936 0
M  V30 4597 H 436.259 3.88495 0.0198321 0
M  V30 4598 H 437.931 3.81793 -2.58905 0
M  V30 4599 H 436.174 3.55092 -2.49183 0
M  V30 4600 H 436.845 5.12439 -2.05207 0
M  V30 4601 H 439.321 4.14228 -0.394267 0
M  V30 4602 H 438.197 5.48847 -0.0762682 0
M  V30 4603 H 438.458 4.26655 1.15835 0
M  V30 4604 N 437.518 0.538854 1.48102 0
M  V30 4605 C 438.929 0.100679 1.86428 0
M  V30 4606 C 439.28 -1.32447 1.44749 0
M  V30 4607 O 438.405 -1.99339 0.842199 0
M  V30 4608 C 439 0.175933 3.38343 0
M  V30 4609 C 437.559 -0.207098 3.7583 0
M  V30 4610 C 436.706 0.531741 2.72154 0
M  V30 4611 H 439.657 0.749614 1.3988 0
M  V30 4612 H 439.678 -0.610144 3.75576 0
M  V30 4613 H 439.19 1.21328 3.68648 0
M  V30 4614 H 437.291 -1.24626 3.5114 0
M  V30 4615 H 437.404 0.138687 4.78899 0
M  V30 4616 H 435.768 -0.0230462 2.5469 0
M  V30 4617 H 436.551 1.56989 3.05302 0
M  V30 4618 N 438.996 -1.55193 0.274407 0
M  V30 4619 C 440.245 -1.98758 -0.343213 0
M  V30 4620 C 440.558 -1.16624 -1.5703 0
M  V30 4621 O 441.764 -1.5033 -2.26082 0
M  V30 4622 C 440.22 -3.53759 -0.661996 0
M  V30 4623 C 439.828 -4.4467 0.54524 0
M  V30 4624 C 441.572 -4.05916 -1.24228 0
M  V30 4625 C 439.479 -5.91058 0.201084 0
M  V30 4626 H 438.409 -0.742353 -0.132014 0
M  V30 4627 H 441.06 -1.79545 0.378948 0
M  V30 4628 H 439.442 -3.68772 -1.44304 0
M  V30 4629 H 440.616 -4.41426 1.32212 0
M  V30 4630 H 438.931 -4.03143 1.04232 0
M  V30 4631 H 441.528 -5.12831 -1.51357 0
M  V30 4632 H 441.871 -3.54908 -2.17592 0
M  V30 4633 H 442.404 -3.9434 -0.523542 0
M  V30 4634 H 439.143 -6.46161 1.10258 0
M  V30 4635 H 438.663 -5.97373 -0.539045 0
M  V30 4636 H 440.342 -6.46669 -0.206954 0
M  V30 4637 N 440.474 -0.00167713 -1.576 0
M  V30 4638 C 441.404 0.988091 -2.11563 0
M  V30 4639 C 442.385 1.35736 -1.02517 0
M  V30 4640 O 443.57 1.44082 -1.30208 0
M  V30 4641 C 440.7 2.27941 -2.62031 0
M  V30 4642 C 439.654 2.0517 -3.75619 0
M  V30 4643 C 438.98 3.4033 -4.12407 0
M  V30 4644 C 440.28 1.41294 -5.02825 0
M  V30 4645 H 441.974 0.538771 -2.94513 0
M  V30 4646 H 439.52 0.257712 -1.41675 0
M  V30 4647 H 441.473 2.97539 -2.9841 0
M  V30 4648 H 440.197 2.74989 -1.76205 0
M  V30 4649 H 438.856 1.37998 -3.39635 0
M  V30 4650 H 438.504 3.85085 -3.23603 0
M  V30 4651 H 438.204 3.25909 -4.88935 0
M  V30 4652 H 439.728 4.1124 -4.51347 0
M  V30 4653 H 441.142 2.00851 -5.36965 0
M  V30 4654 H 439.539 1.37356 -5.84169 0
M  V30 4655 H 440.609 0.382362 -4.8339 0
M  V30 4656 N 441.952 1.55251 0.271103 0
M  V30 4657 C 443.201 1.75151 1.00025 0
M  V30 4658 C 443.514 0.561041 1.87381 0
M  V30 4659 O 444.72 0.642506 2.63788 0
M  V30 4660 C 443.176 3.09999 1.82835 0
M  V30 4661 C 442.784 4.3662 1.00336 0
M  V30 4662 C 444.528 3.39249 2.55168 0
M  V30 4663 C 442.435 5.62506 1.82595 0
M  V30 4664 H 441.365 0.652877 0.377183 0
M  V30 4665 H 444.016 1.81708 0.255843 0
M  V30 4666 H 442.398 2.97485 2.61378 0
M  V30 4667 H 443.572 4.60055 0.261959 0
M  V30 4668 H 441.887 4.14527 0.394486 0
M  V30 4669 H 444.484 4.3051 3.1712 0
M  V30 4670 H 444.827 2.59467 3.2555 0
M  V30 4671 H 445.36 3.52869 1.83653 0
M  V30 4672 H 442.099 6.45041 1.16631 0
M  V30 4673 H 441.619 5.43211 2.54327 0
M  V30 4674 H 443.298 6.00875 2.39913 0
M  V30 4675 N 443.43 -0.535701 1.48216 0
M  V30 4676 C 444.677 -1.29183 1.55942 0
M  V30 4677 C 445.005 -1.93125 0.230857 0
M  V30 4678 O 444.26 -1.79556 -0.778331 0
M  V30 4679 C 444.559 -2.4068 2.64212 0
M  V30 4680 C 444.225 -1.94428 4.06827 0
M  V30 4681 C 442.887 -1.81532 4.45645 0
M  V30 4682 C 445.239 -1.59405 4.96225 0
M  V30 4683 C 442.567 -1.31939 5.71672 0
M  V30 4684 C 444.919 -1.11276 6.22736 0
M  V30 4685 C 443.583 -0.969924 6.60416 0
M  V30 4686 H 442.853 -0.472715 0.570632 0
M  V30 4687 H 445.5 -0.598437 1.81909 0
M  V30 4688 H 443.805 -3.15666 2.32083 0
M  V30 4689 H 445.502 -2.98822 2.67407 0
M  V30 4690 H 442.092 -2.05415 3.76168 0
M  V30 4691 H 446.276 -1.68231 4.66917 0
M  V30 4692 H 441.532 -1.19562 5.99596 0
M  V30 4693 H 445.706 -0.832453 6.91407 0
M  V30 4694 H 443.333 -0.583436 7.57958 0
M  V30 4695 N 444.908 -1.36708 -0.784132 0
M  V30 4696 C 446.133 -1.34565 -1.5782 0
M  V30 4697 C 446.558 0.0695257 -1.87971 0
M  V30 4698 O 445.916 1.04302 -1.48293 0
M  V30 4699 C 445.964 -2.17952 -2.87279 0
M  V30 4700 O 445.068 -1.57563 -3.81114 0
M  V30 4701 H 444.409 -0.460337 -0.478524 0
M  V30 4702 H 446.939 -1.80064 -0.971495 0
M  V30 4703 H 446.949 -2.30721 -3.365 0
M  V30 4704 H 445.624 -3.20823 -2.64661 0
M  V30 4705 H 444.201 -1.53764 -3.39722 0
M  V30 4706 N 446.386 1.0089 -1.21074 0
M  V30 4707 C 447.633 1.74607 -1.0256 0
M  V30 4708 C 447.961 1.89426 0.44136 0
M  V30 4709 O 447.216 1.42266 1.34384 0
M  V30 4710 C 447.515 3.16335 -1.66334 0
M  V30 4711 C 447.181 3.21474 -3.16173 0
M  V30 4712 C 445.843 3.22583 -3.57062 0
M  V30 4713 C 448.195 3.19025 -4.12156 0
M  V30 4714 C 445.523 3.18925 -4.92446 0
M  V30 4715 C 447.875 3.16909 -5.47496 0
M  V30 4716 C 446.539 3.16326 -5.87787 0
M  V30 4717 H 445.809 0.638933 -0.375294 0
M  V30 4718 H 448.456 1.18274 -1.50611 0
M  V30 4719 H 446.761 3.75876 -1.10566 0
M  V30 4720 H 448.458 3.72083 -1.49516 0
M  V30 4721 H 445.048 3.2135 -2.83605 0
M  V30 4722 H 449.232 3.17332 -3.81595 0
M  V30 4723 H 444.488 3.16809 -5.22917 0
M  V30 4724 H 448.662 3.13968 -6.21609 0
M  V30 4725 H 446.289 3.13246 -6.92662 0
M  V30 4726 N 447.864 1.01787 1.20321 0
M  V30 4727 C 449.11 0.708985 1.90003 0
M  V30 4728 C 449.443 -0.759572 1.78729 0
M  V30 4729 O 448.718 -1.55198 1.17234 0
M  V30 4730 C 449.001 1.1469 3.41348 0
M  V30 4731 C 448.854 2.67586 3.61549 0
M  V30 4732 C 450.173 0.71915 4.34185 0
M  V30 4733 H 447.292 0.259034 0.689978 0
M  V30 4734 H 449.934 1.26584 1.41692 0
M  V30 4735 H 448.084 0.673128 3.82624 0
M  V30 4736 H 449.756 3.22826 3.29517 0
M  V30 4737 H 447.999 3.085 3.04976 0
M  V30 4738 H 448.67 2.93281 4.67643 0
M  V30 4739 H 451.146 1.12647 4.00562 0
M  V30 4740 H 450.022 1.05358 5.38694 0
M  V30 4741 H 450.283 -0.379111 4.40472 0
M  V30 4742 N 449.342 -1.36122 0.79427 0
M  V30 4743 C 450.582 -2.00942 0.374376 0
M  V30 4744 C 450.946 -1.61666 -1.03577 0
M  V30 4745 O 452.147 -2.19113 -1.55701 0
M  V30 4746 C 450.418 -3.53323 0.538327 0
M  V30 4747 S 451.977 -4.38311 0.20703 0
M  V30 4748 H 448.795 -0.696515 0.142785 0
M  V30 4749 H 451.397 -1.65929 1.03382 0
M  V30 4750 H 450.101 -3.79395 1.56484 0
M  V30 4751 H 449.632 -3.93162 -0.136882 0
M  V30 4752 H 451.647 -4.8623 -0.989695 0
M  V30 4753 N 450.82 -0.546701 -1.47814 0
M  V30 4754 C 451.77 0.227042 -2.26867 0
M  V30 4755 C 452.754 0.894844 -1.33721 0
M  V30 4756 O 453.946 0.794887 -1.58147 0
M  V30 4757 C 451.075 1.26299 -3.19223 0
M  V30 4758 C 450.161 0.59913 -4.19847 0
M  V30 4759 N 450.552 -0.324777 -5.04756 0
M  V30 4760 C 448.85 0.854331 -4.37741 0
M  V30 4761 C 449.551 -0.709386 -5.77358 0
M  V30 4762 N 448.527 -0.0666153 -5.43559 0
M  V30 4763 H 452.329 -0.483476 -2.89896 0
M  V30 4764 H 449.843 -0.365893 -1.58224 0
M  V30 4765 H 451.84 1.83116 -3.74532 0
M  V30 4766 H 450.5 1.97471 -2.57751 0
M  V30 4767 H 451.511 -0.698351 -5.1317 0
M  V30 4768 H 448.188 1.55536 -3.87447 0
M  V30 4769 H 449.578 -1.46796 -6.55668 0
M  V30 4770 N 452.299 1.55045 -0.282633 0
M  V30 4771 C 453.71 1.85473 0.213655 0
M  V30 4772 C 454.061 1.20465 1.54863 0
M  V30 4773 O 453.186 0.495676 2.10647 0
M  V30 4774 C 453.781 3.36496 0.394445 0
M  V30 4775 C 452.34 3.67022 0.834961 0
M  V30 4776 C 451.487 2.77218 -0.0674081 0
M  V30 4777 H 454.438 1.50478 -0.504202 0
M  V30 4778 H 454.459 3.60007 1.23186 0
M  V30 4779 H 453.971 3.83782 -0.577326 0
M  V30 4780 H 452.072 3.25241 1.81794 0
M  V30 4781 H 452.185 4.74433 0.667075 0
M  V30 4782 H 450.549 2.5069 0.450196 0
M  V30 4783 H 451.332 3.2732 -1.0352 0
M  V30 4784 N 453.777 0.010035 1.57597 0
M  V30 4785 C 454.74 -0.963029 2.07986 0
M  V30 4786 C 455.74 -1.26619 0.991173 0
M  V30 4787 O 456.93 -1.2097 1.25347 0
M  V30 4788 C 454.062 -2.2851 2.52974 0
M  V30 4789 H 455.255 -0.526971 2.95234 0
M  V30 4790 H 452.808 -0.237639 1.54483 0
M  V30 4791 H 453.543 -2.76784 1.69 0
M  V30 4792 H 453.328 -2.07824 3.32493 0
M  V30 4793 H 454.818 -2.98294 2.9225 0
M  V30 4794 N 455.255 -1.55392 -0.262866 0
M  V30 4795 C 456.501 -1.76737 -0.99458 0
M  V30 4796 C 456.834 -0.572453 -1.85571 0
M  V30 4797 O 456.109 0.429732 -1.89693 0
M  V30 4798 C 456.392 -3.07824 -1.8686 0
M  V30 4799 C 456.245 -4.3769 -1.03672 0
M  V30 4800 C 457.564 -3.35021 -2.85393 0
M  V30 4801 H 454.683 -0.643005 -0.360157 0
M  V30 4802 H 457.325 -1.88126 -0.266216 0
M  V30 4803 H 455.475 -2.98245 -2.48962 0
M  V30 4804 H 457.147 -4.59238 -0.43563 0
M  V30 4805 H 455.39 -4.32461 -0.340513 0
M  V30 4806 H 456.061 -5.25759 -1.6817 0
M  V30 4807 H 458.537 -3.44458 -2.33426 0
M  V30 4808 H 457.413 -4.27989 -3.43681 0
M  V30 4809 H 457.674 -2.55153 -3.61039 0
M  V30 4810 N 456.733 0.527833 -1.48498 0
M  V30 4811 C 457.663 1.64136 -1.66077 0
M  V30 4812 C 458.644 1.62286 -0.509625 0
M  V30 4813 O 459.829 1.79449 -0.742413 0
M  V30 4814 C 456.959 3.02717 -1.70234 0
M  V30 4815 C 455.913 3.19426 -2.8487 0
M  V30 4816 C 455.239 4.5909 -2.74118 0
M  V30 4817 C 456.539 3.01993 -4.26142 0
M  V30 4818 H 458.233 1.4968 -2.593 0
M  V30 4819 H 455.779 0.718654 -1.24785 0
M  V30 4820 H 457.732 3.80491 -1.8112 0
M  V30 4821 H 456.456 3.18201 -0.735911 0
M  V30 4822 H 455.115 2.4407 -2.73542 0
M  V30 4823 H 454.763 4.71413 -1.7544 0
M  V30 4824 H 454.463 4.71214 -3.51042 0
M  V30 4825 H 455.987 5.3896 -2.86974 0
M  V30 4826 H 457.401 3.69558 -4.38292 0
M  V30 4827 H 455.798 3.2561 -5.04082 0
M  V30 4828 H 456.868 1.98396 -4.42456 0
M  V30 4829 N 458.211 1.37122 0.776871 0
M  V30 4830 C 459.622 1.28667 1.35284 0
M  V30 4831 C 459.973 -0.0680035 1.96082 0
M  V30 4832 O 459.098 -0.969743 1.93455 0
M  V30 4833 C 459.693 2.32997 2.45963 0
M  V30 4834 C 458.252 2.28191 2.99342 0
M  V30 4835 C 457.399 2.17101 1.72517 0
M  V30 4836 H 460.35 1.47819 0.577527 0
M  V30 4837 H 460.371 1.97366 3.2531 0
M  V30 4838 H 459.883 3.3158 2.01684 0
M  V30 4839 H 457.984 1.33115 3.4801 0
M  V30 4840 H 458.097 3.21397 3.55304 0
M  V30 4841 H 456.461 1.63562 1.95242 0
M  V30 4842 H 457.244 3.17591 1.30348 0
M  V30 4843 N 459.689 -1.00246 1.21608 0
M  V30 4844 C 460.938 -1.73476 1.02902 0
M  V30 4845 C 461.251 -1.90643 -0.437561 0
M  V30 4846 O 462.457 -2.61105 -0.74407 0
M  V30 4847 C 460.913 -3.12079 1.79261 0
M  V30 4848 C 460.521 -3.02877 3.30106 0
M  V30 4849 C 462.265 -3.89421 1.68972 0
M  V30 4850 C 460.172 -4.36575 3.98944 0
M  V30 4851 H 459.102 -0.650408 0.381425 0
M  V30 4852 H 461.753 -1.11985 1.45367 0
M  V30 4853 H 460.135 -3.74196 1.2959 0
M  V30 4854 H 461.309 -2.49983 3.87098 0
M  V30 4855 H 459.624 -2.39022 3.40965 0
M  V30 4856 H 462.221 -4.88362 2.17731 0
M  V30 4857 H 462.564 -4.1122 0.648397 0
M  V30 4858 H 463.097 -3.33963 2.16133 0
M  V30 4859 H 459.836 -4.19978 5.03288 0
M  V30 4860 H 459.356 -4.8942 3.4674 0
M  V30 4861 H 461.035 -5.05364 4.04 0
M  V30 4862 N 461.167 -1.02423 -1.1978 0
M  V30 4863 C 462.397 -0.736387 -1.93031 0
M  V30 4864 C 462.805 0.708023 -1.75453 0
M  V30 4865 O 462.148 1.4927 -1.07071 0
M  V30 4866 C 462.21 -1.00194 -3.45255 0
M  V30 4867 C 461.874 -2.43698 -3.86601 0
M  V30 4868 C 462.871 -3.41814 -3.91738 0
M  V30 4869 C 460.556 -2.77975 -4.18372 0
M  V30 4870 C 462.55 -4.72265 -4.28071 0
M  V30 4871 C 460.237 -4.08636 -4.54378 0
M  V30 4872 C 461.235 -5.05592 -4.59201 0
M  V30 4873 O 460.923 -6.33914 -4.94376 0
M  V30 4874 H 460.655 -0.269116 -0.620123 0
M  V30 4875 H 463.209 -1.37043 -1.52998 0
M  V30 4876 H 461.439 -0.310747 -3.85449 0
M  V30 4877 H 463.128 -0.704488 -3.9974 0
M  V30 4878 H 463.894 -3.16671 -3.67348 0
M  V30 4879 H 459.773 -2.0319 -4.13805 0
M  V30 4880 H 463.317 -5.4794 -4.3175 0
M  V30 4881 H 459.214 -4.33556 -4.78226 0
M  V30 4882 H 459.982 -6.38317 -5.12341 0
M  V30 4883 N 462.645 1.35699 -0.801477 0
M  V30 4884 C 463.555 2.33661 -0.209691 0
M  V30 4885 C 464.571 1.6162 0.644591 0
M  V30 4886 O 465.747 1.93529 0.557545 0
M  V30 4887 C 462.812 3.40816 0.636033 0
M  V30 4888 C 461.873 4.28639 -0.238147 0
M  V30 4889 C 461.106 5.30676 0.567307 0
M  V30 4890 O 461.329 5.41174 1.8024 0
M  V30 4891 O 460.263 6.01887 -0.0391336 0
M  V30 4892 H 464.089 2.8606 -1.01996 0
M  V30 4893 H 461.674 1.38379 -0.563164 0
M  V30 4894 H 463.556 4.06301 1.11791 0
M  V30 4895 H 462.231 2.90696 1.42399 0
M  V30 4896 H 461.138 3.66152 -0.767044 0
M  V30 4897 H 462.471 4.82143 -0.989915 0
M  V30 4898 N 464.123 0.554532 1.47522 0
M  V30 4899 C 465.033 -0.197865 2.33764 0
M  V30 4900 C 466.049 -0.914576 1.48025 0
M  V30 4901 O 467.225 -0.884067 1.80959 0
M  V30 4902 C 464.29 -1.21628 3.24665 0
M  V30 4903 C 463.351 -0.507283 4.26292 0
M  V30 4904 C 462.584 -1.47718 5.1285 0
M  V30 4905 O 462.807 -2.7118 5.01814 0
M  V30 4906 O 461.741 -1.00313 5.93482 0
M  V30 4907 H 465.567 0.50949 2.99396 0
M  V30 4908 H 463.152 0.315176 1.46038 0
M  V30 4909 H 465.034 -1.80421 3.80823 0
M  V30 4910 H 463.709 -1.9056 2.61665 0
M  V30 4911 H 462.616 0.121778 3.73902 0
M  V30 4912 H 463.949 0.140544 4.91999 0
M  V30 4913 N 465.601 -1.54893 0.290851 0
M  V30 4914 C 466.531 -2.26103 -0.583084 0
M  V30 4915 C 467.512 -1.25684 -1.14619 0
M  V30 4916 O 468.697 -1.54436 -1.17741 0
M  V30 4917 C 465.827 -2.99409 -1.75987 0
M  V30 4918 C 464.781 -4.0689 -1.32758 0
M  V30 4919 C 464.107 -4.67856 -2.58872 0
M  V30 4920 C 465.407 -5.20215 -0.46624 0
M  V30 4921 H 467.101 -2.99398 0.0108214 0
M  V30 4922 H 464.647 -1.43998 0.00664468 0
M  V30 4923 H 466.6 -3.47943 -2.37727 0
M  V30 4924 H 465.324 -2.23675 -2.37985 0
M  V30 4925 H 463.983 -3.59191 -0.733299 0
M  V30 4926 H 463.631 -3.88772 -3.19163 0
M  V30 4927 H 463.331 -5.40438 -2.30653 0
M  V30 4928 H 464.855 -5.19147 -3.21433 0
M  V30 4929 H 466.269 -5.64704 -0.989047 0
M  V30 4930 H 464.666 -5.99455 -0.27826 0
M  V30 4931 H 465.736 -4.82198 0.511173 0
M  V30 4932 N 467.08 -0.0183926 -1.57589 0
M  V30 4933 C 468.027 0.967022 -2.09565 0
M  V30 4934 C 468.997 1.32983 -0.995225 0
M  V30 4935 O 470.182 1.42501 -1.26878 0
M  V30 4936 C 467.322 2.24772 -2.61861 0
M  V30 4937 C 466.435 1.94232 -3.85873 0
M  V30 4938 C 465.57 3.16518 -4.26603 0
M  V30 4939 C 464.609 2.81748 -5.43401 0
M  V30 4940 N 463.746 3.96626 -5.79338 0
M  V30 4941 H 468.586 0.516874 -2.93483 0
M  V30 4942 H 466.123 0.243544 -1.4507 0
M  V30 4943 H 468.081 2.99667 -2.90268 0
M  V30 4944 H 466.711 2.67423 -1.8079 0
M  V30 4945 H 465.763 1.09625 -3.64262 0
M  V30 4946 H 467.075 1.64616 -4.70853 0
M  V30 4947 H 466.229 3.99743 -4.56389 0
M  V30 4948 H 464.968 3.49286 -3.40368 0
M  V30 4949 H 463.973 1.96933 -5.1332 0
M  V30 4950 H 465.198 2.50207 -6.31327 0
M  V30 4951 H 463.144 4.29257 -4.96059 0
M  V30 4952 H 463.061 3.70598 -6.58933 0
M  V30 4953 H 464.329 4.80586 -6.13724 0
M  V30 4954 N 468.558 1.5553 0.254621 0
M  V30 4955 C 469.835 1.6774 1.00611 0
M  V30 4956 C 470.215 0.555993 2.03647 0
M  V30 4957 O 469.563 -0.441583 2.24193 0
M  V30 4958 C 469.773 3.07725 1.6464 0
M  V30 4959 C 471.121 3.66074 2.15116 0
M  V30 4960 O 472.145 3.10476 1.74595 0
M  V30 4961 O 471.004 4.63526 2.89493 0
M  V30 4962 H 468.098 0.681958 0.467828 0
M  V30 4963 H 470.644 1.67863 0.24902 0
M  V30 4964 H 469.416 3.80792 0.900734 0
M  V30 4965 H 469.039 3.1158 2.46989 0
M  V30 4966 N 470.036 -0.519951 1.48776 0
M  V30 4967 C 471.452 -0.849418 1.35119 0
M  V30 4968 C 471.652 -1.98077 0.36982 0
M  V30 4969 O 470.708 -2.51664 -0.205359 0
M  V30 4970 C 472.021 -1.20748 2.75391 0
M  V30 4971 C 473.569 -1.31679 2.83954 0
M  V30 4972 C 474.044 -1.70824 4.24951 0
M  V30 4973 N 475.535 -1.77908 4.27672 0
M  V30 4974 C 476.27 -2.09603 5.33717 0
M  V30 4975 N 475.766 -2.39652 6.5003 0
M  V30 4976 N 477.559 -2.10694 5.21119 0
M  V30 4977 H 469.71 0.226377 2.1119 0
M  V30 4978 H 471.973 0.0386519 0.947212 0
M  V30 4979 H 471.679 -0.449703 3.48813 0
M  V30 4980 H 471.553 -2.15534 3.09556 0
M  V30 4981 H 473.94 -2.06532 2.10781 0
M  V30 4982 H 474.021 -0.3499 2.53396 0
M  V30 4983 H 473.665 -0.965282 4.98643 0
M  V30 4984 H 473.595 -2.6858 4.52959 0
M  V30 4985 H 476.086 -1.56923 3.43779 0
M  V30 4986 H 476.399 -2.6297 7.26682 0
M  V30 4987 H 474.744 -2.37149 6.53288 0
M  V30 4988 H 477.935 -1.86682 4.29264 0
M  V30 4989 H 478.108 -2.35062 6.03863 0
M  V30 4990 N 471.514 -1.37532 -0.769588 0
M  V30 4991 C 472.739 -1.36231 -1.56384 0
M  V30 4992 C 473.164 0.0495849 -1.88035 0
M  V30 4993 O 472.522 1.02723 -1.49391 0
M  V30 4994 C 472.57 -2.20986 -2.84952 0
M  V30 4995 O 471.674 -1.61597 -3.79421 0
M  V30 4996 H 471.015 -0.465387 -0.473615 0
M  V30 4997 H 473.545 -1.81085 -0.952342 0
M  V30 4998 H 473.555 -2.34277 -3.34034 0
M  V30 4999 H 472.23 -3.23612 -2.61243 0
M  V30 5000 H 470.807 -1.57359 -3.38072 0
M  V30 5001 N 472.992 0.995999 -1.22138 0
M  V30 5002 C 474.408 1.25917 -0.980667 0
M  V30 5003 C 474.608 1.98819 0.327604 0
M  V30 5004 O 473.664 2.29587 1.05101 0
M  V30 5005 C 474.977 2.07399 -2.17729 0
M  V30 5006 C 476.525 2.20594 -2.22052 0
M  V30 5007 C 477 3.05462 -3.41258 0
M  V30 5008 N 478.491 3.13049 -3.41401 0
M  V30 5009 C 479.226 3.78997 -4.30289 0
M  V30 5010 N 478.722 4.46899 -5.2939 0
M  V30 5011 N 480.515 3.75728 -4.18073 0
M  V30 5012 H 472.666 0.507158 -2.06256 0
M  V30 5013 H 474.929 0.28658 -0.903646 0
M  V30 5014 H 474.635 1.61191 -3.12586 0
M  V30 5015 H 474.509 3.08154 -2.17534 0
M  V30 5016 H 476.896 2.66017 -1.27745 0
M  V30 5017 H 476.977 1.1928 -2.26287 0
M  V30 5018 H 476.621 2.60739 -4.35864 0
M  V30 5019 H 476.551 4.06911 -3.34262 0
M  V30 5020 H 479.042 2.64721 -2.69688 0
M  V30 5021 H 479.355 4.94952 -5.935 0
M  V30 5022 H 477.7 4.45657 -5.33306 0
M  V30 5023 H 480.891 3.2184 -3.39907 0
M  V30 5024 H 481.064 4.26845 -4.87553 0
M  V30 5025 N 474.47 1.03057 1.19235 0
M  V30 5026 C 475.886 0.747947 1.40989 0
M  V30 5027 C 476.086 -0.666752 1.90149 0
M  V30 5028 O 475.142 -1.43249 2.07933 0
M  V30 5029 C 476.455 1.7855 2.41951 0
M  V30 5030 C 478.003 1.80524 2.55695 0
M  V30 5031 C 478.478 2.83243 3.59913 0
M  V30 5032 N 479.969 2.8207 3.67411 0
M  V30 5033 C 480.704 3.58204 4.47747 0
M  V30 5034 N 480.2 4.44057 5.31775 0
M  V30 5035 N 481.993 3.46738 4.42413 0
M  V30 5036 H 474.144 1.94367 0.856468 0
M  V30 5037 H 476.407 0.840412 0.438647 0
M  V30 5038 H 476.113 2.79973 2.12857 0
M  V30 5039 H 475.987 1.6092 3.41152 0
M  V30 5040 H 478.374 0.79778 2.84112 0
M  V30 5041 H 478.455 2.02229 1.56643 0
M  V30 5042 H 478.099 3.84161 3.32239 0
M  V30 5043 H 478.029 2.58795 4.5862 0
M  V30 5044 H 480.52 2.19803 3.074 0
M  V30 5045 H 480.833 4.98884 5.90199 0
M  V30 5046 H 479.178 4.48129 5.3123 0
M  V30 5047 H 482.369 2.79077 3.75811 0
M  V30 5048 H 482.542 4.06322 5.04783 0
M  V30 5049 N 475.948 -1.35272 0.808662 0
M  V30 5050 C 477.364 -1.51806 0.492653 0
M  V30 5051 C 477.564 -1.7574 -0.985778 0
M  V30 5052 O 476.62 -1.80003 -1.77074 0
M  V30 5053 C 477.933 -2.69202 1.33981 0
M  V30 5054 C 479.481 -2.8308 1.33547 0
M  V30 5055 C 479.956 -4.03502 2.16679 0
M  V30 5056 N 481.447 -4.10684 2.14227 0
M  V30 5057 C 482.182 -5.02984 2.75308 0
M  V30 5058 N 481.678 -6.00603 3.45323 0
M  V30 5059 N 483.471 -4.95746 2.64938 0
M  V30 5060 H 475.622 -1.17993 1.76611 0
M  V30 5061 H 477.885 -0.577476 0.751814 0
M  V30 5062 H 477.591 -2.581 2.38909 0
M  V30 5063 H 477.465 -3.63854 0.994491 0
M  V30 5064 H 479.852 -2.93631 0.294036 0
M  V30 5065 H 479.933 -1.89278 1.72068 0
M  V30 5066 H 479.577 -3.93711 3.20864 0
M  V30 5067 H 479.507 -4.96489 1.75517 0
M  V30 5068 H 481.998 -3.40802 1.63285 0
M  V30 5069 H 482.311 -6.67633 3.89212 0
M  V30 5070 H 480.656 -6.0077 3.49428 0
M  V30 5071 H 483.847 -4.18439 2.09825 0
M  V30 5072 H 484.02 -5.67487 3.12829 0
M  V30 5073 N 477.426 -0.562348 -1.47226 0
M  V30 5074 C 478.359 0.230405 -2.27034 0
M  V30 5075 C 479.337 0.915609 -1.3437 0
M  V30 5076 O 480.521 0.933573 -1.63758 0
M  V30 5077 C 477.648 1.32874 -3.11548 0
M  V30 5078 C 476.694 0.751552 -4.19826 0
M  V30 5079 S 477.527 -0.405848 -5.3396 0
M  V30 5080 C 478.683 0.694186 -6.22038 0
M  V30 5081 H 478.916 -0.446811 -2.93923 0
M  V30 5082 H 476.449 -0.348781 -1.50409 0
M  V30 5083 H 478.407 1.95773 -3.60809 0
M  V30 5084 H 477.068 1.97782 -2.44011 0
M  V30 5085 H 476.261 1.57651 -4.78709 0
M  V30 5086 H 475.863 0.198645 -3.73472 0
M  V30 5087 H 478.155 1.58501 -6.58698 0
M  V30 5088 H 479.098 0.142592 -7.07956 0
M  V30 5089 H 479.506 0.989169 -5.55766 0
M  V30 5090 N 478.904 1.54736 -0.299062 0
M  V30 5091 C 479.837 2.1962 0.619851 0
M  V30 5092 C 480.815 1.16496 1.13434 0
M  V30 5093 O 481.999 1.4513 1.2029 0
M  V30 5094 C 479.126 2.8385 1.84788 0
M  V30 5095 C 478.172 4.00484 1.46679 0
M  V30 5096 S 479.005 5.32926 0.524389 0
M  V30 5097 C 480.161 6.00638 1.76026 0
M  V30 5098 H 480.394 2.97221 0.0686177 0
M  V30 5099 H 477.927 1.54176 -0.0832085 0
M  V30 5100 H 479.885 3.21483 2.55263 0
M  V30 5101 H 478.546 2.06099 2.37028 0
M  V30 5102 H 477.739 4.44201 2.38121 0
M  V30 5103 H 477.341 3.64398 0.842008 0
M  V30 5104 H 479.633 6.21327 2.70109 0
M  V30 5105 H 480.576 6.94805 1.36569 0
M  V30 5106 H 480.984 5.3026 1.93609 0
M  V30 5107 N 480.382 0.0267497 1.57577 0
M  V30 5108 C 481.33 -0.973923 2.11229 0
M  V30 5109 C 482.324 -1.33849 1.03831 0
M  V30 5110 O 483.53 -1.321 1.22269 0
M  V30 5111 H 479.905 -0.331844 0.674821 0
M  V30 5112 H 481.876 -0.496092 2.94247 0
M  V30 5113 C 480.625 -2.24798 2.65257 0
M  V30 5114 H 479.948 -1.9762 3.47543 0
M  V30 5115 H 481.388 -2.93031 3.06445 0
M  V30 5116 C 479.847 -2.97611 1.57891 0
M  V30 5117 O 480.377 -3.89629 0.97735 0
M  V30 5118 N 478.583 -2.59905 1.29992 0
M  V30 5119 H 478.13 -1.85154 1.79097 0
M  V30 5120 H 478.088 -3.08932 0.583798 0
M  V30 5121 N 481.861 -1.55662 -0.24637 0
M  V30 5122 C 483.107 -1.77782 -0.975779 0
M  V30 5123 C 483.44 -0.592103 -1.84953 0
M  V30 5124 O 482.715 0.409588 -1.90138 0
M  V30 5125 C 482.998 -3.09788 -1.83584 0
M  V30 5126 C 482.851 -4.38764 -0.990241 0
M  V30 5127 C 484.17 -3.38029 -2.81823 0
M  V30 5128 H 481.289 -0.646789 -0.353317 0
M  V30 5129 H 483.931 -1.88398 -0.246248 0
M  V30 5130 H 482.081 -3.00869 -2.45784 0
M  V30 5131 H 483.753 -4.59675 -0.386897 0
M  V30 5132 H 481.996 -4.32798 -0.294626 0
M  V30 5133 H 482.667 -5.27514 -1.62584 0
M  V30 5134 H 485.143 -3.46915 -2.2976 0
M  V30 5135 H 484.019 -4.3161 -3.39122 0
M  V30 5136 H 484.28 -2.58968 -3.58313 0
M  V30 5137 N 483.339 0.512053 -1.4905 0
M  V30 5138 C 484.564 1.2959 -1.6193 0
M  V30 5139 C 484.989 1.85906 -0.286454 0
M  V30 5140 O 484.347 1.65312 0.744426 0
M  V30 5141 C 484.395 2.40987 -2.68249 0
M  V30 5142 O 483.499 3.44531 -2.26654 0
M  V30 5143 H 482.84 0.383053 -0.542371 0
M  V30 5144 H 485.37 0.614231 -1.95162 0
M  V30 5145 H 485.38 2.86913 -2.90078 0
M  V30 5146 H 484.055 1.99361 -3.65004 0
M  V30 5147 H 482.632 3.046 -2.15112 0
M  V30 5148 N 484.817 1.37938 0.762283 0
M  V30 5149 C 485.764 1.34467 1.87583 0
M  V30 5150 C 486.734 0.208633 1.64785 0
M  V30 5151 O 487.919 0.399494 1.86571 0
M  V30 5152 C 485.059 1.16692 3.24772 0
M  V30 5153 C 484.172 2.39608 3.59461 0
M  V30 5154 C 483.307 2.14631 4.85908 0
M  V30 5155 C 482.346 3.33364 5.13357 0
M  V30 5156 N 481.483 3.07877 6.30996 0
M  V30 5157 H 486.323 2.29669 1.89885 0
M  V30 5158 H 483.86 1.14116 0.928219 0
M  V30 5159 H 485.818 1.04405 4.03925 0
M  V30 5160 H 484.448 0.251333 3.2182 0
M  V30 5161 H 483.5 2.626 2.75219 0
M  V30 5162 H 484.812 3.28128 3.75678 0
M  V30 5163 H 483.966 1.99429 5.72986 0
M  V30 5164 H 482.705 1.23463 4.71814 0
M  V30 5165 H 481.71 3.49094 4.24751 0
M  V30 5166 H 482.935 4.25395 5.29354 0
M  V30 5167 H 480.881 2.19348 6.18241 0
M  V30 5168 H 480.798 3.89944 6.47673 0
M  V30 5169 H 482.066 2.96313 7.20985 0
M  V30 5170 N 486.295 -0.989507 1.22664 0
M  V30 5171 C 487.544 -1.72375 1.04737 0
M  V30 5172 C 487.857 -1.91096 -0.417316 0
M  V30 5173 O 489.063 -2.6188 -0.716334 0
M  V30 5174 C 487.519 -3.10161 1.82561 0
M  V30 5175 C 487.127 -2.99358 3.333 0
M  V30 5176 C 488.871 -3.87607 1.73093 0
M  V30 5177 C 486.778 -4.32319 4.03552 0
M  V30 5178 H 485.708 -0.646326 0.388302 0
M  V30 5179 H 488.359 -1.10437 1.46546 0
M  V30 5180 H 486.741 -3.728 1.33552 0
M  V30 5181 H 487.915 -2.45863 3.89728 0
M  V30 5182 H 486.23 -2.35392 3.43481 0
M  V30 5183 H 488.827 -4.86025 2.22899 0
M  V30 5184 H 489.17 -4.10509 0.691976 0
M  V30 5185 H 489.703 -3.31652 2.19663 0
M  V30 5186 H 486.442 -4.14616 5.07714 0
M  V30 5187 H 485.962 -4.85714 3.51911 0
M  V30 5188 H 487.641 -5.01051 4.09337 0
M  V30 5189 N 487.773 -1.03688 -1.18687 0
M  V30 5190 C 488.998 -0.757819 -1.93059 0
M  V30 5191 C 489.423 0.678353 -1.75442 0
M  V30 5192 O 488.781 1.46938 -1.06203 0
M  V30 5193 C 488.829 -1.12423 -3.42627 0
M  V30 5194 O 487.933 -0.247505 -4.11657 0
M  V30 5195 H 487.274 -0.279245 -0.602427 0
M  V30 5196 H 489.804 -1.3857 -1.5053 0
M  V30 5197 H 489.814 -1.08454 -3.93322 0
M  V30 5198 H 488.489 -2.17049 -3.54771 0
M  V30 5199 H 487.066 -0.34649 -3.71287 0
M  V30 5200 N 489.251 1.34841 -0.815825 0
M  V30 5201 C 490.498 1.98499 -0.400535 0
M  V30 5202 C 490.826 1.64699 1.03463 0
M  V30 5203 O 490.081 0.907006 1.73412 0
M  V30 5204 C 490.38 3.53273 -0.541541 0
M  V30 5205 C 490.046 4.06966 -1.94138 0
M  V30 5206 C 488.708 4.21341 -2.32433 0
M  V30 5207 C 491.06 4.35933 -2.85677 0
M  V30 5208 C 488.388 4.62007 -3.61617 0
M  V30 5209 C 490.74 4.78042 -4.14317 0
M  V30 5210 C 489.404 4.90622 -4.52599 0
M  V30 5211 H 488.674 0.72636 -0.146566 0
M  V30 5212 H 491.321 1.60902 -1.0384 0
M  V30 5213 H 489.626 3.91387 0.179741 0
M  V30 5214 H 491.323 4.00497 -0.20085 0
M  V30 5215 H 487.913 3.96235 -1.63388 0
M  V30 5216 H 492.097 4.24372 -2.57337 0
M  V30 5217 H 487.353 4.69937 -3.91113 0
M  V30 5218 H 491.527 4.99415 -4.85342 0
M  V30 5219 H 489.154 5.2189 -5.52752 0
M  V30 5220 N 490.729 0.570148 1.46925 0
M  V30 5221 C 491.976 0.0509529 2.02436 0
M  V30 5222 C 492.304 -1.30405 1.44308 0
M  V30 5223 O 491.559 -1.86493 0.593198 0
M  V30 5224 C 491.858 -0.0780336 3.57315 0
M  V30 5225 C 491.524 1.20775 4.34424 0
M  V30 5226 C 490.186 1.56004 4.5521 0
M  V30 5227 C 492.538 2.0592 4.78797 0
M  V30 5228 C 489.866 2.76201 5.17619 0
M  V30 5229 C 492.218 3.25332 5.42533 0
M  V30 5230 C 490.882 3.60859 5.61549 0
M  V30 5231 H 490.152 0.018645 0.740765 0
M  V30 5232 H 492.799 0.744262 1.76445 0
M  V30 5233 H 491.104 -0.854394 3.82371 0
M  V30 5234 H 492.801 -0.495312 3.97929 0
M  V30 5235 H 489.391 0.923469 4.18533 0
M  V30 5236 H 493.575 1.80008 4.62505 0
M  V30 5237 H 488.831 3.0388 5.30535 0
M  V30 5238 H 493.005 3.91586 5.75876 0
M  V30 5239 H 490.632 4.54088 6.09678 0
M  V30 5240 N 492.207 -1.54576 0.307264 0
M  V30 5241 C 493.17 -2.22423 -0.553224 0
M  V30 5242 C 494.17 -1.21231 -1.05639 0
M  V30 5243 O 495.36 -1.45923 -0.951419 0
M  V30 5244 C 492.492 -2.91552 -1.76664 0
M  V30 5245 H 493.685 -2.99874 0.0396484 0
M  V30 5246 H 491.238 -1.56192 0.0581629 0
M  V30 5247 H 491.973 -2.18196 -2.39918 0
M  V30 5248 H 491.758 -3.65738 -1.41343 0
M  V30 5249 H 493.248 -3.43292 -2.37783 0
M  V30 5250 N 493.685 -0.035106 -1.57561 0
M  V30 5251 C 494.618 0.979673 -2.06101 0
M  V30 5252 C 495.596 1.31378 -0.958046 0
M  V30 5253 O 496.78 1.42942 -1.22881 0
M  V30 5254 C 493.907 2.29809 -2.48808 0
M  V30 5255 C 492.953 2.11817 -3.70184 0
M  V30 5256 S 493.786 1.41143 -5.16565 0
M  V30 5257 C 494.942 2.74341 -5.62572 0
M  V30 5258 H 495.175 0.566506 -2.91853 0
M  V30 5259 H 492.708 0.176744 -1.53385 0
M  V30 5260 H 494.666 3.056 -2.74078 0
M  V30 5261 H 493.327 2.68257 -1.63392 0
M  V30 5262 H 492.52 3.09299 -3.97933 0
M  V30 5263 H 492.122 1.44168 -3.45097 0
M  V30 5264 H 494.414 3.70562 -5.67177 0
M  V30 5265 H 495.357 2.51249 -6.62027 0
M  V30 5266 H 495.765 2.79863 -4.90242 0
M  V30 5267 N 495.163 1.55791 0.238111 0
M  V30 5268 C 496.41 1.78033 0.964907 0
M  V30 5269 C 496.738 0.600984 1.84982 0
M  V30 5270 O 495.993 -0.41536 1.91241 0
M  V30 5271 C 496.292 3.05869 1.84875 0
M  V30 5272 C 495.958 4.36808 1.11846 0
M  V30 5273 C 494.62 4.72388 0.916662 0
M  V30 5274 C 496.972 5.17717 0.60151 0
M  V30 5275 C 494.3 5.86406 0.185756 0
M  V30 5276 C 496.652 6.32494 -0.115972 0
M  V30 5277 C 495.316 6.66688 -0.329168 0
M  V30 5278 H 494.586 0.651469 0.353085 0
M  V30 5279 H 497.233 1.90061 0.234318 0
M  V30 5280 H 495.538 2.88891 2.64668 0
M  V30 5281 H 497.235 3.20278 2.41294 0
M  V30 5282 H 493.825 4.08862 1.28569 0
M  V30 5283 H 498.009 4.90678 0.744932 0
M  V30 5284 H 493.265 6.11399 0.0101886 0
M  V30 5285 H 497.439 6.94425 -0.524127 0
M  V30 5286 H 495.066 7.54884 -0.897474 0
M  V30 5287 N 496.642 -0.504142 1.49319 0
M  V30 5288 C 497.572 -1.61473 1.68667 0
M  V30 5289 C 498.553 -1.61455 0.535378 0
M  V30 5290 O 499.738 -1.78245 0.770868 0
M  V30 5291 C 496.868 -2.99971 1.75028 0
M  V30 5292 C 495.822 -3.14854 2.89916 0
M  V30 5293 C 495.148 -4.54671 2.81387 0
M  V30 5294 C 496.448 -2.95176 4.30893 0
M  V30 5295 H 498.142 -1.45535 2.61648 0
M  V30 5296 H 495.688 -0.698711 1.25913 0
M  V30 5297 H 497.641 -3.77562 1.8715 0
M  V30 5298 H 496.365 -3.1699 0.786441 0
M  V30 5299 H 495.024 -2.39687 2.77391 0
M  V30 5300 H 494.672 -4.68562 1.82917 0
M  V30 5301 H 494.372 -4.6557 3.58494 0
M  V30 5302 H 495.896 -5.34327 2.95512 0
M  V30 5303 H 497.31 -3.62538 4.44116 0
M  V30 5304 H 495.707 -3.17549 5.09198 0
M  V30 5305 H 496.777 -1.91332 4.45556 0
M  V30 5306 N 498.12 -1.38341 -0.754957 0
M  V30 5307 C 499.053 -1.29837 -1.87663 0
M  V30 5308 C 500.031 -0.175659 -1.61648 0
M  V30 5309 O 501.215 -0.352745 -1.8517 0
M  V30 5310 C 498.342 -1.01141 -3.23246 0
M  V30 5311 C 497.388 -2.15331 -3.6815 0
M  V30 5312 S 498.221 -3.77459 -3.79849 0
M  V30 5313 C 499.377 -3.50948 -5.18253 0
M  V30 5314 H 499.61 -2.24771 -1.9459 0
M  V30 5315 H 497.143 -1.24161 -0.917796 0
M  V30 5316 H 499.101 -0.852687 -4.01546 0
M  V30 5317 H 497.762 -0.0792784 -3.14 0
M  V30 5318 H 496.955 -1.90795 -4.6649 0
M  V30 5319 H 496.557 -2.27304 -2.97 0
M  V30 5320 H 498.849 -3.06977 -6.03963 0
M  V30 5321 H 499.792 -4.48677 -5.47809 0
M  V30 5322 H 500.2 -2.85492 -4.86985 0
M  V30 5323 N 499.598 0.982988 -1.23187 0
M  V30 5324 C 500.828 1.75666 -1.08743 0
M  V30 5325 C 501.236 1.85662 0.364195 0
M  V30 5326 O 500.579 1.33317 1.26382 0
M  V30 5327 C 500.641 3.20144 -1.63549 0
M  V30 5328 C 500.305 3.33665 -3.12277 0
M  V30 5329 C 501.302 3.20194 -4.096 0
M  V30 5330 C 498.987 3.58397 -3.51933 0
M  V30 5331 C 500.981 3.31256 -5.44563 0
M  V30 5332 C 498.668 3.69098 -4.87042 0
M  V30 5333 C 499.666 3.55537 -5.83166 0
M  V30 5334 O 499.354 3.65864 -7.1582 0
M  V30 5335 H 499.086 0.558194 -0.381307 0
M  V30 5336 H 501.64 1.24387 -1.63454 0
M  V30 5337 H 499.87 3.72659 -1.03256 0
M  V30 5338 H 501.559 3.79262 -1.4462 0
M  V30 5339 H 502.325 3.00987 -3.80305 0
M  V30 5340 H 498.204 3.68025 -2.77631 0
M  V30 5341 H 501.748 3.20588 -6.19572 0
M  V30 5342 H 497.645 3.87814 -5.16014 0
M  V30 5343 H 498.413 3.82675 -7.23534 0
M  V30 5344 N 501.076 1.04316 1.18135 0
M  V30 5345 C 502.006 0.657299 2.24058 0
M  V30 5346 C 502.987 -0.340678 1.66654 0
M  V30 5347 O 504.172 -0.220223 1.92947 0
M  V30 5348 C 501.302 0.0220715 3.47293 0
M  V30 5349 C 500.256 0.943857 4.17463 0
M  V30 5350 C 499.582 0.172973 5.3442 0
M  V30 5351 C 500.882 2.26409 4.70677 0
M  V30 5352 H 502.576 1.5428 2.56589 0
M  V30 5353 H 500.122 0.743263 1.23335 0
M  V30 5354 H 502.075 -0.259607 4.206 0
M  V30 5355 H 500.799 -0.898323 3.14003 0
M  V30 5356 H 499.458 1.20996 3.46057 0
M  V30 5357 H 499.106 -0.749907 4.97379 0
M  V30 5358 H 498.806 0.787098 5.82304 0
M  V30 5359 H 500.33 -0.101628 6.10515 0
M  V30 5360 H 501.744 2.04294 5.35665 0
M  V30 5361 H 500.141 2.8314 5.29105 0
M  V30 5362 H 501.211 2.90883 3.87962 0
M  V30 5363 N 502.554 -1.34406 0.822964 0
M  V30 5364 C 503.484 -2.32052 0.259608 0
M  V30 5365 C 504.465 -1.58243 -0.623961 0
M  V30 5366 O 505.65 -1.86224 -0.55083 0
M  V30 5367 C 502.78 -3.42434 -0.579314 0
M  V30 5368 C 501.734 -4.27499 0.20712 0
M  V30 5369 C 501.06 -5.29349 -0.754547 0
M  V30 5370 C 502.36 -5.02758 1.41533 0
M  V30 5371 H 504.054 -2.79418 1.07545 0
M  V30 5372 H 501.6 -1.34338 0.518593 0
M  V30 5373 H 503.553 -4.0976 -0.983612 0
M  V30 5374 H 502.277 -2.93717 -1.4282 0
M  V30 5375 H 500.936 -3.61776 0.592787 0
M  V30 5376 H 500.584 -4.76895 -1.59939 0
M  V30 5377 H 500.284 -5.8714 -0.232561 0
M  V30 5378 H 501.808 -5.99544 -1.1567 0
M  V30 5379 H 503.222 -5.62938 1.08504 0
M  V30 5380 H 501.619 -5.70123 1.87296 0
M  V30 5381 H 502.689 -4.32451 2.1935 0
M  V30 5382 N 504.032 -0.577932 -1.46621 0
M  V30 5383 C 504.995 0.147805 -2.28723 0
M  V30 5384 C 505.995 0.823325 -1.38123 0
M  V30 5385 O 507.185 0.676011 -1.60548 0
M  V30 5386 C 504.317 1.21853 -3.18378 0
M  V30 5387 H 505.51 -0.573654 -2.94362 0
M  V30 5388 H 503.063 -0.335703 -1.52652 0
M  V30 5389 H 503.798 1.97173 -2.57475 0
M  V30 5390 H 503.583 0.738714 -3.85078 0
M  V30 5391 H 505.073 1.72768 -3.80186 0
M  V30 5392 N 505.51 1.54411 -0.315457 0
M  V30 5393 C 506.473 2.22713 0.54142 0
M  V30 5394 C 507.473 1.2179 1.04995 0
M  V30 5395 O 508.663 1.46426 0.943667 0
M  V30 5396 C 505.795 2.92485 1.75116 0
M  V30 5397 H 506.988 2.99849 -0.0555508 0
M  V30 5398 H 504.541 1.56159 -0.0664453 0
M  V30 5399 H 505.276 2.19466 2.38758 0
M  V30 5400 H 505.061 3.66483 1.39401 0
M  V30 5401 H 506.551 3.44548 2.35959 0
M  V30 5402 N 506.988 0.0434614 1.5754 0
M  V30 5403 C 507.918 -0.931651 2.14109 0
M  V30 5404 C 508.899 -1.32971 1.06079 0
M  V30 5405 O 510.084 -1.40579 1.33982 0
M  V30 5406 C 507.214 -2.20914 2.67982 0
M  V30 5407 C 506.168 -1.95139 3.80926 0
M  V30 5408 C 505.494 -3.29276 4.21285 0
M  V30 5409 C 506.794 -1.27913 5.06395 0
M  V30 5410 H 508.488 -0.460497 2.95837 0
M  V30 5411 H 506.034 -0.220058 1.42309 0
M  V30 5412 H 507.987 -2.89522 3.06194 0
M  V30 5413 H 506.711 -2.70221 1.83434 0
M  V30 5414 H 505.37 -1.28945 3.43175 0
M  V30 5415 H 505.018 -3.76369 3.33699 0
M  V30 5416 H 504.718 -3.12831 4.97404 0
M  V30 5417 H 506.242 -3.99129 4.62091 0
M  V30 5418 H 507.656 -1.86544 5.42102 0
M  V30 5419 H 506.053 -1.2182 5.87605 0
M  V30 5420 H 507.123 -0.254066 4.84234 0
M  V30 5421 N 508.466 -1.55915 -0.229846 0
M  V30 5422 C 509.713 -1.78542 -0.955452 0
M  V30 5423 C 510.041 -0.610785 -1.84661 0
M  V30 5424 O 509.296 0.405213 -1.91459 0
M  V30 5425 C 509.595 -3.06845 -1.8325 0
M  V30 5426 C 509.261 -4.37395 -1.09528 0
M  V30 5427 C 507.923 -4.72868 -0.891598 0
M  V30 5428 C 510.275 -5.18029 -0.574046 0
M  V30 5429 C 507.603 -5.86496 -0.154655 0
M  V30 5430 C 509.955 -6.32423 0.149513 0
M  V30 5431 C 508.619 -6.66504 0.364519 0
M  V30 5432 H 507.889 -0.653333 -0.349625 0
M  V30 5433 H 510.536 -1.90183 -0.224235 0
M  V30 5434 H 508.841 -2.90291 -2.63132 0
M  V30 5435 H 510.538 -3.21553 -2.39592 0
M  V30 5436 H 507.128 -4.09538 -1.26399 0
M  V30 5437 H 511.312 -4.91066 -0.718899 0
M  V30 5438 H 506.568 -6.11396 0.0222356 0
M  V30 5439 H 510.742 -6.94137 0.560947 0
M  V30 5440 H 508.369 -7.54397 0.937495 0
M  V30 5441 N 509.944 0.496216 -1.49584 0
M  V30 5442 C 511.192 1.24756 -1.58998 0
M  V30 5443 C 511.513 1.92968 -0.280775 0
M  V30 5444 O 510.783 1.82959 0.700198 0
M  V30 5445 H 509.363 0.463471 -0.585836 0
M  V30 5446 H 512.025 0.574678 -1.86235 0
M  V30 5447 H 511.121 2.00895 -2.38847 0
M  V30 5448 N 511.423 1.38739 0.74761 0
M  V30 5449 C 512.653 1.3832 1.53464 0
M  V30 5450 C 513.061 -0.0273464 1.8918 0
M  V30 5451 O 512.404 -1.00588 1.53713 0
M  V30 5452 C 512.466 2.18007 2.85855 0
M  V30 5453 C 512.13 3.66762 2.72644 0
M  V30 5454 C 513.127 4.60124 2.42037 0
M  V30 5455 C 510.812 4.10193 2.89909 0
M  V30 5456 C 512.806 5.94897 2.28859 0
M  V30 5457 C 510.493 5.45045 2.7635 0
M  V30 5458 C 511.491 6.37211 2.45869 0
M  V30 5459 O 511.179 7.69581 2.3238 0
M  V30 5460 H 510.911 0.474718 0.481268 0
M  V30 5461 H 513.465 1.83012 0.932518 0
M  V30 5462 H 511.695 1.68043 3.48279 0
M  V30 5463 H 513.384 2.09921 3.47402 0
M  V30 5464 H 514.15 4.27874 2.28361 0
M  V30 5465 H 510.029 3.38797 3.1263 0
M  V30 5466 H 513.573 6.66802 2.04989 0
M  V30 5467 H 509.47 5.76889 2.89601 0
M  V30 5468 H 510.238 7.80169 2.47546 0
M  V30 5469 N 512.901 -0.976442 1.23707 0
M  V30 5470 C 513.831 -2.08749 1.04624 0
M  V30 5471 C 514.812 -1.70057 -0.0380956 0
M  V30 5472 O 515.997 -1.93782 0.127308 0
M  V30 5473 C 513.127 -3.41335 0.640902 0
M  V30 5474 C 512.081 -3.93947 1.67302 0
M  V30 5475 C 511.407 -5.22774 1.12301 0
M  V30 5476 C 512.707 -4.22769 3.06697 0
M  V30 5477 H 514.401 -2.24972 1.97555 0
M  V30 5478 H 511.947 -1.08108 0.951247 0
M  V30 5479 H 513.9 -4.18489 0.494434 0
M  V30 5480 H 512.624 -3.24988 -0.324099 0
M  V30 5481 H 511.283 -3.18941 1.80755 0
M  V30 5482 H 510.931 -5.0278 0.148877 0
M  V30 5483 H 510.631 -5.58942 1.81267 0
M  V30 5484 H 512.155 -6.02546 0.988479 0
M  V30 5485 H 513.569 -4.90659 2.96524 0
M  V30 5486 H 511.966 -4.70147 3.72937 0
M  V30 5487 H 513.036 -3.29885 3.55392 0
M  V30 5488 N 514.379 -1.04941 -1.1758 0
M  V30 5489 C 515.607 -0.778294 -1.91703 0
M  V30 5490 C 516.022 0.665697 -1.76675 0
M  V30 5491 O 515.379 1.45456 -1.10222 0
M  V30 5492 C 515.43 -1.14628 -3.42845 0
M  V30 5493 O 515.151 -2.53359 -3.57409 0
M  V30 5494 C 516.652 -0.900931 -4.34049 0
M  V30 5495 H 513.872 -0.283167 -0.608323 0
M  V30 5496 H 516.416 -1.39942 -1.49119 0
M  V30 5497 H 514.571 -0.569953 -3.83184 0
M  V30 5498 H 514.985 -2.67709 -4.51035 0
M  V30 5499 H 516.459 -1.20817 -5.38616 0
M  V30 5500 H 516.936 0.163966 -4.38894 0
M  V30 5501 H 517.542 -1.46097 -3.99419 0
M  V30 5502 N 515.857 1.33968 -0.830081 0
M  V30 5503 C 517.104 1.98063 -0.421566 0
M  V30 5504 C 517.432 1.65787 1.0171 0
M  V30 5505 O 516.687 0.925348 1.72441 0
M  V30 5506 C 516.986 3.52679 -0.57898 0
M  V30 5507 C 516.652 4.04884 -1.98443 0
M  V30 5508 C 515.314 4.18852 -2.36888 0
M  V30 5509 C 517.666 4.32879 -2.90285 0
M  V30 5510 C 514.994 4.58145 -3.66497 0
M  V30 5511 C 517.346 4.7362 -4.19364 0
M  V30 5512 C 516.01 4.85794 -4.57778 0
M  V30 5513 H 515.28 0.724765 -0.154262 0
M  V30 5514 H 517.927 1.59792 -1.05541 0
M  V30 5515 H 516.232 3.91556 0.138219 0
M  V30 5516 H 517.929 4.00261 -0.243317 0
M  V30 5517 H 514.519 3.9448 -1.67581 0
M  V30 5518 H 518.703 4.21619 -2.61823 0
M  V30 5519 H 513.959 4.65762 -3.96075 0
M  V30 5520 H 518.133 4.9424 -4.90612 0
M  V30 5521 H 515.76 5.15998 -5.58256 0
M  V30 5522 N 517.335 0.585699 1.46312 0
M  V30 5523 C 518.565 0.0780166 2.06453 0
M  V30 5524 C 518.973 -1.2336 1.43454 0
M  V30 5525 O 518.316 -1.75734 0.535086 0
M  V30 5526 C 518.378 -0.158951 3.59148 0
M  V30 5527 C 518.042 1.06752 4.44357 0
M  V30 5528 C 519.039 1.98031 4.80708 0
M  V30 5529 C 516.724 1.2902 4.85447 0
M  V30 5530 C 518.718 3.09924 5.5698 0
M  V30 5531 C 516.405 2.41218 5.61478 0
M  V30 5532 C 517.403 3.31499 5.97158 0
M  V30 5533 O 517.091 4.41747 6.71651 0
M  V30 5534 H 516.823 0.0558894 0.673686 0
M  V30 5535 H 519.377 0.806994 1.88883 0
M  V30 5536 H 517.607 -0.942575 3.75037 0
M  V30 5537 H 519.296 -0.615513 4.01206 0
M  V30 5538 H 520.062 1.82043 4.49539 0
M  V30 5539 H 515.941 0.596567 4.57124 0
M  V30 5540 H 519.485 3.80415 5.84748 0
M  V30 5541 H 515.382 2.57167 5.9206 0
M  V30 5542 H 516.15 4.40152 6.90079 0
M  V30 5543 N 518.813 -1.54241 0.323641 0
M  V30 5544 C 519.723 -2.28033 -0.551205 0
M  V30 5545 C 520.739 -1.32388 -1.12913 0
M  V30 5546 O 521.915 -1.65403 -1.14908 0
M  V30 5547 C 518.98 -3.02382 -1.69606 0
M  V30 5548 C 518.041 -4.13612 -1.14993 0
M  V30 5549 C 517.274 -4.84407 -2.24022 0
M  V30 5550 O 517.497 -4.54716 -3.44368 0
M  V30 5551 O 516.431 -5.71312 -1.89436 0
M  V30 5552 H 520.257 -3.03662 0.048066 0
M  V30 5553 H 517.842 -1.49133 0.0893289 0
M  V30 5554 H 519.724 -3.48941 -2.36259 0
M  V30 5555 H 518.399 -2.29628 -2.28151 0
M  V30 5556 H 517.306 -3.71402 -0.448484 0
M  V30 5557 H 518.639 -4.8841 -0.609608 0
M  V30 5558 N 520.291 -0.0518155 -1.57515 0
M  V30 5559 C 521.241 0.932017 -2.0808 0
M  V30 5560 C 522.225 1.27141 -0.986098 0
M  V30 5561 O 523.417 1.25373 -1.24943 0
M  V30 5562 C 520.546 2.20665 -2.62986 0
M  V30 5563 C 519.632 1.89462 -3.79427 0
M  V30 5564 N 520.023 1.28621 -4.89173 0
M  V30 5565 C 518.321 2.19327 -3.88345 0
M  V30 5566 C 519.022 1.15062 -5.70207 0
M  V30 5567 N 517.998 1.65372 -5.17835 0
M  V30 5568 H 521.8 0.456964 -2.90326 0
M  V30 5569 H 519.314 0.152619 -1.61681 0
M  V30 5570 H 521.311 2.92044 -2.97516 0
M  V30 5571 H 519.971 2.68776 -1.8218 0
M  V30 5572 H 520.982 0.958341 -5.08956 0
M  V30 5573 H 517.659 2.69955 -3.18482 0
M  V30 5574 H 519.049 0.678243 -6.68468 0
M  V30 5575 N 521.769 1.56035 0.221574 0
M  V30 5576 C 523.015 1.79312 0.947372 0
M  V30 5577 C 523.348 0.621453 1.83988 0
M  V30 5578 O 522.623 -0.379287 1.90766 0
M  V30 5579 C 522.906 3.1267 1.78633 0
M  V30 5580 C 522.759 4.40284 0.920312 0
M  V30 5581 C 524.078 3.4247 2.7641 0
M  V30 5582 H 521.197 0.652328 0.342982 0
M  V30 5583 H 523.839 1.88765 0.216244 0
M  V30 5584 H 521.989 3.04741 2.40967 0
M  V30 5585 H 523.661 4.60232 0.313718 0
M  V30 5586 H 521.904 4.33212 0.225734 0
M  V30 5587 H 522.575 5.30033 1.54171 0
M  V30 5588 H 525.051 3.50526 2.24211 0
M  V30 5589 H 523.927 4.3695 3.32213 0
M  V30 5590 H 524.188 2.64635 3.54148 0
M  V30 5591 N 523.247 -0.488276 1.49845 0
M  V30 5592 C 524.157 -1.61451 1.70207 0
M  V30 5593 C 525.173 -1.63877 0.584846 0
M  V30 5594 O 526.349 -1.82063 0.861107 0
M  V30 5595 C 523.414 -2.9776 1.77594 0
M  V30 5596 C 522.475 -3.05861 3.01243 0
M  V30 5597 C 521.708 -4.35668 3.08268 0
M  V30 5598 O 521.931 -5.25197 2.22541 0
M  V30 5599 O 520.865 -4.49005 4.00847 0
M  V30 5600 H 524.691 -1.47199 2.65643 0
M  V30 5601 H 522.276 -0.665939 1.33737 0
M  V30 5602 H 524.158 -3.7875 1.84732 0
M  V30 5603 H 522.833 -3.12248 0.8534 0
M  V30 5604 H 521.74 -2.24012 2.99616 0
M  V30 5605 H 523.073 -2.96304 3.9302 0
M  V30 5606 N 524.725 -1.39134 -0.740242 0
M  V30 5607 C 525.95 -1.39518 -1.53459 0
M  V30 5608 C 526.375 0.00968883 -1.88098 0
M  V30 5609 O 525.733 0.995312 -1.51536 0
M  V30 5610 C 525.781 -2.26981 -2.802 0
M  V30 5611 O 524.885 -1.69609 -3.75908 0
M  V30 5612 H 524.226 -0.475328 -0.463637 0
M  V30 5613 H 526.756 -1.83064 -0.913717 0
M  V30 5614 H 526.766 -2.41309 -3.28989 0
M  V30 5615 H 525.441 -3.29081 -2.5432 0
M  V30 5616 H 524.018 -1.64495 -3.34658 0
M  V30 5617 N 526.204 0.969867 -1.24223 0
M  V30 5618 C 527.114 2.09806 -1.0497 0
M  V30 5619 C 528.13 1.73998 0.00886455 0
M  V30 5620 O 529.306 2.00513 -0.188848 0
M  V30 5621 C 526.371 3.40467 -0.654452 0
M  V30 5622 C 525.432 3.90236 -1.78926 0
M  V30 5623 C 524.665 5.14662 -1.41277 0
M  V30 5624 O 524.888 5.69602 -0.301632 0
M  V30 5625 O 523.822 5.58761 -2.23763 0
M  V30 5626 H 527.648 2.28942 -1.99548 0
M  V30 5627 H 525.233 1.08197 -1.03023 0
M  V30 5628 H 527.115 4.19039 -0.445452 0
M  V30 5629 H 525.79 3.22636 0.262216 0
M  V30 5630 H 524.697 3.12735 -2.05299 0
M  V30 5631 H 526.03 4.1254 -2.68462 0
M  V30 5632 N 527.682 1.05563 1.17022 0
M  V30 5633 C 528.612 0.681026 2.23348 0
M  V30 5634 C 529.593 -0.322983 1.67005 0
M  V30 5635 O 530.778 -0.199746 1.9317 0
M  V30 5636 C 527.908 0.0589053 3.4725 0
M  V30 5637 C 526.862 0.988082 4.16438 0
M  V30 5638 C 526.188 0.229646 5.34207 0
M  V30 5639 C 527.488 2.31388 4.68249 0
M  V30 5640 H 529.182 1.56993 2.54938 0
M  V30 5641 H 526.728 0.756302 1.2254 0
M  V30 5642 H 528.681 -0.214982 4.20851 0
M  V30 5643 H 527.405 -0.864968 3.14938 0
M  V30 5644 H 526.064 1.24659 3.44754 0
M  V30 5645 H 525.712 -0.697111 4.98146 0
M  V30 5646 H 525.412 0.848815 5.81437 0
M  V30 5647 H 526.936 -0.0368694 6.10589 0
M  V30 5648 H 528.35 2.09964 5.33468 0
M  V30 5649 H 526.747 2.88736 5.26072 0
M  V30 5650 H 527.817 2.94982 3.84855 0
M  V30 5651 N 529.16 -1.33526 0.837174 0
M  V30 5652 C 530.09 -2.31764 0.284206 0
M  V30 5653 C 531.071 -1.58896 -0.607142 0
M  V30 5654 O 532.256 -1.86798 -0.531047 0
M  V30 5655 C 529.386 -3.43029 -0.542962 0
M  V30 5656 C 528.34 -4.27255 0.252451 0
M  V30 5657 C 527.666 -5.3012 -0.69836 0
M  V30 5658 C 528.966 -5.01229 1.46858 0
M  V30 5659 H 530.66 -2.78262 1.10502 0
M  V30 5660 H 528.206 -1.3378 0.532812 0
M  V30 5661 H 530.159 -4.1078 -0.940096 0
M  V30 5662 H 528.883 -2.95216 -1.39697 0
M  V30 5663 H 527.542 -3.61127 0.631124 0
M  V30 5664 H 527.19 -4.78564 -1.54872 0
M  V30 5665 H 526.89 -5.87353 -0.170274 0
M  V30 5666 H 528.414 -6.00737 -1.09305 0
M  V30 5667 H 529.828 -5.61756 1.14469 0
M  V30 5668 H 528.225 -5.68104 1.93333 0
M  V30 5669 H 529.295 -4.301 2.23924 0
M  V30 5670 N 530.638 -0.59345 -1.46 0
M  V30 5671 C 531.588 0.154751 -2.27474 0
M  V30 5672 C 532.572 0.851849 -1.365 0
M  V30 5673 O 533.764 0.744171 -1.60596 0
M  V30 5674 C 530.893 1.16079 -3.2308 0
M  V30 5675 C 529.979 0.465256 -4.2154 0
M  V30 5676 N 530.37 -0.485197 -5.03467 0
M  V30 5677 C 528.668 0.714634 -4.40237 0
M  V30 5678 C 529.369 -0.892709 -5.74809 0
M  V30 5679 N 528.345 -0.239511 -5.43072 0
M  V30 5680 H 532.147 -0.57546 -2.88211 0
M  V30 5681 H 529.661 -0.416046 -1.5698 0
M  V30 5682 H 531.658 1.71108 -3.80168 0
M  V30 5683 H 530.318 1.89171 -2.63903 0
M  V30 5684 H 531.329 -0.861258 -5.10689 0
M  V30 5685 H 528.006 1.43131 -3.92199 0
M  V30 5686 H 529.396 -1.67581 -6.50666 0
M  V30 5687 N 532.116 1.54067 -0.331816 0
M  V30 5688 C 533.344 2.05131 0.269996 0
M  V30 5689 C 533.759 1.20749 1.45138 0
M  V30 5690 O 533.116 0.240069 1.80914 0
M  V30 5691 C 533.167 3.54728 0.696456 0
M  V30 5692 O 532.888 4.35906 -0.43794 0
M  V30 5693 C 534.389 4.21916 1.36021 0
M  V30 5694 H 531.609 0.668807 0.0542042 0
M  V30 5695 H 534.153 1.98777 -0.4804 0
M  V30 5696 H 532.308 3.61342 1.39681 0
M  V30 5697 H 532.722 5.24404 -0.100334 0
M  V30 5698 H 534.196 5.28015 1.60947 0
M  V30 5699 H 534.673 3.73538 2.31011 0
M  V30 5700 H 535.279 4.19463 0.702212 0
M  V30 5701 N 533.594 0.0601682 1.57485 0
M  V30 5702 C 534.824 -0.620037 1.97076 0
M  V30 5703 C 535.232 -1.64381 0.936784 0
M  V30 5704 O 534.575 -1.83497 -0.0863377 0
M  V30 5705 C 534.637 -1.35617 3.32939 0
M  V30 5706 C 534.301 -0.487208 4.54396 0
M  V30 5707 C 535.298 0.250428 5.19297 0
M  V30 5708 C 532.983 -0.415494 5.00579 0
M  V30 5709 C 534.977 1.04812 6.28723 0
M  V30 5710 C 532.664 0.385879 6.0988 0
M  V30 5711 C 533.662 1.11637 6.73815 0
M  V30 5712 O 533.35 1.90454 7.81014 0
M  V30 5713 H 533.082 -0.173664 0.653312 0
M  V30 5714 H 535.636 0.1256 2.05016 0
M  V30 5715 H 533.866 -2.14763 3.2158 0
M  V30 5716 H 535.555 -1.92749 3.57215 0
M  V30 5717 H 536.321 0.204546 4.84568 0
M  V30 5718 H 532.2 -0.973679 4.506 0
M  V30 5719 H 535.744 1.6188 6.78558 0
M  V30 5720 H 531.641 0.433366 6.44044 0
M  V30 5721 H 532.409 1.82762 7.97835 0
M  V30 5722 N 535.072 -1.5615 -0.213296 0
M  V30 5723 C 536.297 -1.83986 -0.957282 0
M  V30 5724 C 536.722 -0.641526 -1.76822 0
M  V30 5725 O 536.08 0.409722 -1.7661 0
M  V30 5726 C 536.128 -3.09889 -1.84393 0
M  V30 5727 O 535.232 -2.89163 -2.94038 0
M  V30 5728 H 534.573 -0.606357 -0.270605 0
M  V30 5729 H 537.103 -2.03369 -0.224111 0
M  V30 5730 H 537.113 -3.40209 -2.25215 0
M  V30 5731 H 535.788 -3.96735 -1.24795 0
M  V30 5732 H 534.365 -2.70097 -2.57103 0
M  V30 5733 N 536.55 0.480323 -1.50102 0
M  V30 5734 C 537.775 1.26126 -1.64642 0
M  V30 5735 C 538.2 1.85257 -0.325823 0
M  V30 5736 O 537.558 1.66854 0.709194 0
M  V30 5737 C 537.606 2.35243 -2.73301 0
M  V30 5738 O 536.71 3.39646 -2.33911 0
M  V30 5739 H 536.051 0.371463 -0.550374 0
M  V30 5740 H 538.581 0.572696 -1.96421 0
M  V30 5741 H 538.591 2.80695 -2.96098 0
M  V30 5742 H 537.266 1.91574 -3.6915 0
M  V30 5743 H 535.843 2.99969 -2.21525 0
M  V30 5744 N 538.028 1.39524 0.732853 0
M  V30 5745 C 539.277 1.36175 1.48792 0
M  V30 5746 C 539.59 -0.0388195 1.95561 0
M  V30 5747 O 540.796 -0.194899 2.708 0
M  V30 5748 C 539.252 2.39242 2.68871 0
M  V30 5749 C 538.86 3.85024 2.29042 0
M  V30 5750 C 540.604 2.44972 3.46683 0
M  V30 5751 C 538.511 4.79727 3.45856 0
M  V30 5752 H 537.441 0.506267 0.558757 0
M  V30 5753 H 540.092 1.65181 0.799226 0
M  V30 5754 H 538.474 2.0331 3.39825 0
M  V30 5755 H 539.648 4.30008 1.6562 0
M  V30 5756 H 537.963 3.82609 1.64316 0
M  V30 5757 H 540.56 3.12918 4.33574 0
M  V30 5758 H 540.903 1.4749 3.89297 0
M  V30 5759 H 541.436 2.79808 2.82759 0
M  V30 5760 H 538.175 5.78479 3.08289 0
M  V30 5761 H 537.695 4.39421 4.08251 0
M  V30 5762 H 539.374 4.98731 4.12161 0
M  V30 5763 N 539.506 -0.963266 1.24736 0
M  V30 5764 C 540.436 -2.07628 1.06832 0
M  V30 5765 C 541.417 -1.70088 -0.0200566 0
M  V30 5766 O 542.602 -1.93636 0.147854 0
M  V30 5767 C 539.732 -3.40636 0.677069 0
M  V30 5768 C 538.686 -3.9215 1.71471 0
M  V30 5769 C 538.012 -5.21553 1.1784 0
M  V30 5770 C 539.312 -4.19493 3.11164 0
M  V30 5771 H 541.006 -2.22864 1.9993 0
M  V30 5772 H 538.552 -1.07093 0.96266 0
M  V30 5773 H 540.505 -4.17941 0.538792 0
M  V30 5774 H 539.229 -3.25313 -0.289612 0
M  V30 5775 H 537.888 -3.17005 1.84128 0
M  V30 5776 H 537.536 -5.02593 0.202195 0
M  V30 5777 H 537.236 -5.56988 1.87185 0
M  V30 5778 H 538.76 -6.01463 1.05233 0
M  V30 5779 H 540.174 -4.87487 3.01711 0
M  V30 5780 H 538.571 -4.66165 3.77902 0
M  V30 5781 H 539.641 -3.26097 3.58871 0
M  V30 5782 N 540.985 -1.06182 -1.16461 0
M  V30 5783 C 542.233 -0.776326 -1.86595 0
M  V30 5784 C 542.554 0.69921 -1.82033 0
M  V30 5785 O 541.824 1.50579 -1.2531 0
M  V30 5786 H 540.404 -0.284184 -0.690832 0
M  V30 5787 H 543.066 -1.34308 -1.41235 0
M  V30 5788 H 542.162 -1.10022 -2.92064 0
M  V30 5789 N 542.463 1.3308 -0.844243 0
M  V30 5790 C 543.691 2.01808 -0.456203 0
M  V30 5791 C 544.106 1.63498 0.944131 0
M  V30 5792 O 543.463 0.85102 1.61443 0
M  V30 5793 C 543.514 3.56922 -0.573513 0
M  V30 5794 O 543.235 3.93851 -1.91868 0
M  V30 5795 C 544.736 4.42922 -0.183125 0
M  V30 5796 H 541.956 0.646273 -0.180477 0
M  V30 5797 H 544.5 1.69891 -1.1383 0
M  V30 5798 H 542.655 3.87352 0.0607367 0
M  V30 5799 H 543.069 4.88564 -1.90802 0
M  V30 5800 H 544.543 5.51093 -0.316241 0
M  V30 5801 H 545.02 4.30386 0.875477 0
M  V30 5802 H 545.626 4.1786 -0.792027 0
M  V30 5803 N 543.941 0.601185 1.45683 0
M  V30 5804 C 545.218 0.0261659 1.95582 0
M  V30 5805 C 545.598 -1.4399 1.5437 0
M  V30 5806 O 544.946 -2.13919 0.80318 0
M  V30 5807 C 545.156 0.217557 3.48321 0
M  V30 5808 C 546.504 0.0950076 4.24494 0
M  V30 5809 O 547.528 0.147345 3.55895 0
M  V30 5810 O 546.387 -0.025261 5.46494 0
M  V30 5811 H 543.481 -0.0393688 0.826062 0
M  V30 5812 H 546.027 0.670798 1.55879 0
M  V30 5813 H 544.799 1.23601 3.71266 0
M  V30 5814 H 544.422 -0.46264 3.94899 0
M  V30 5815 N 545.419 -1.53889 0.339982 0
M  V30 5816 C 546.668 -2.00035 -0.258604 0
M  V30 5817 C 546.981 -1.23179 -1.51942 0
M  V30 5818 O 548.187 -1.59784 -2.19503 0
M  V30 5819 C 546.643 -3.56249 -0.511359 0
M  V30 5820 C 546.251 -4.41957 0.733349 0
M  V30 5821 C 547.995 -4.1082 -1.069 0
M  V30 5822 C 545.902 -5.89673 0.451591 0
M  V30 5823 H 544.832 -0.747284 -0.10041 0
M  V30 5824 H 547.483 -1.77776 0.454758 0
M  V30 5825 H 545.865 -3.7456 -1.28533 0
M  V30 5826 H 547.039 -4.35421 1.50815 0
M  V30 5827 H 545.354 -3.9836 1.21237 0
M  V30 5828 H 547.951 -5.18789 -1.2947 0
M  V30 5829 H 548.294 -3.63817 -2.02343 0
M  V30 5830 H 548.827 -3.96205 -0.355817 0
M  V30 5831 H 545.566 -6.40903 1.37565 0
M  V30 5832 H 545.086 -5.99122 -0.285193 0
M  V30 5833 H 546.765 -6.46965 0.0675067 0
M  V30 5834 N 546.897 -0.0685191 -1.57451 0
M  V30 5835 C 547.827 0.89747 -2.15564 0
M  V30 5836 C 548.808 1.31266 -1.08181 0
M  V30 5837 O 549.993 1.38429 -1.36202 0
M  V30 5838 C 547.123 2.16623 -2.71463 0
M  V30 5839 C 546.077 1.89054 -3.83982 0
M  V30 5840 C 545.403 3.22532 -4.26471 0
M  V30 5841 C 546.703 1.1984 -5.08366 0
M  V30 5842 H 548.397 0.413373 -2.96533 0
M  V30 5843 H 545.943 0.197391 -1.42641 0
M  V30 5844 H 547.896 2.84614 -3.10761 0
M  V30 5845 H 546.62 2.67269 -1.8771 0
M  V30 5846 H 545.279 1.23469 -3.45183 0
M  V30 5847 H 544.927 3.71013 -3.39644 0
M  V30 5848 H 544.627 3.04879 -5.02317 0
M  V30 5849 H 546.151 3.91727 -4.68383 0
M  V30 5850 H 547.565 1.77896 -5.45001 0
M  V30 5851 H 545.962 1.12456 -5.89469 0
M  V30 5852 H 547.032 0.176996 -4.84577 0
M  V30 5853 N 548.375 1.56261 0.205012 0
M  V30 5854 C 549.305 1.96779 1.257 0
M  V30 5855 C 550.286 0.838309 1.48008 0
M  V30 5856 O 551.471 1.10189 1.59913 0
M  V30 5857 C 548.601 2.29876 2.60335 0
M  V30 5858 C 547.555 3.45469 2.52656 0
M  V30 5859 C 546.881 3.64215 3.91473 0
M  V30 5860 C 548.181 4.79954 2.06014 0
M  V30 5861 H 549.875 2.84904 0.920338 0
M  V30 5862 H 547.421 1.37072 0.441277 0
M  V30 5863 H 549.374 2.56814 3.34102 0
M  V30 5864 H 548.098 1.38622 2.95722 0
M  V30 5865 H 546.757 3.18605 1.81345 0
M  V30 5866 H 546.405 2.70309 4.24196 0
M  V30 5867 H 546.105 4.41973 3.87213 0
M  V30 5868 H 547.629 3.93519 4.66878 0
M  V30 5869 H 549.043 5.05989 2.69533 0
M  V30 5870 H 547.44 5.61111 2.12777 0
M  V30 5871 H 548.51 4.74201 1.01297 0
M  V30 5872 N 549.853 -0.472356 1.50355 0
M  V30 5873 C 550.783 -1.57859 1.72055 0
M  V30 5874 C 551.764 -1.60283 0.569505 0
M  V30 5875 O 552.949 -1.7657 0.808503 0
M  V30 5876 C 550.079 -2.96191 1.81351 0
M  V30 5877 C 549.033 -3.08633 2.96529 0
M  V30 5878 C 548.359 -4.486 2.90968 0
M  V30 5879 C 549.659 -2.85969 4.37057 0
M  V30 5880 H 551.353 -1.39953 2.64676 0
M  V30 5881 H 548.899 -0.671846 1.27367 0
M  V30 5882 H 550.852 -3.73507 1.95117 0
M  V30 5883 H 549.576 -3.15251 0.853502 0
M  V30 5884 H 548.235 -2.33749 2.82413 0
M  V30 5885 H 547.883 -4.64577 1.92815 0
M  V30 5886 H 547.583 -4.57861 3.68289 0
M  V30 5887 H 549.107 -5.27938 3.0678 0
M  V30 5888 H 550.521 -3.53036 4.51706 0
M  V30 5889 H 548.918 -3.06677 5.15819 0
M  V30 5890 H 549.988 -1.81838 4.49514 0
M  V30 5891 N 551.331 -1.39911 -0.725443 0
M  V30 5892 C 552.58 -1.36963 -1.48068 0
M  V30 5893 C 552.893 0.0284478 -1.95579 0
M  V30 5894 O 554.099 0.180535 -2.70899 0
M  V30 5895 C 552.555 -2.40664 -2.67598 0
M  V30 5896 C 552.163 -3.86234 -2.26997 0
M  V30 5897 C 553.907 -2.46807 -3.45379 0
M  V30 5898 C 551.814 -4.81554 -3.43307 0
M  V30 5899 H 550.744 -0.509223 -0.556065 0
M  V30 5900 H 553.395 -1.65602 -0.790454 0
M  V30 5901 H 551.777 -2.05109 -3.38742 0
M  V30 5902 H 552.951 -4.3088 -1.63337 0
M  V30 5903 H 551.266 -3.83475 -1.62284 0
M  V30 5904 H 553.863 -3.15213 -4.31909 0
M  V30 5905 H 554.206 -1.49552 -3.8851 0
M  V30 5906 H 554.739 -2.81303 -2.81271 0
M  V30 5907 H 551.478 -5.80106 -3.05217 0
M  V30 5908 H 550.998 -4.4158 -4.05915 0
M  V30 5909 H 552.677 -5.0091 -4.0951 0
M  V30 5910 N 552.809 0.956637 -1.25245 0
M  V30 5911 C 554.055 1.70352 -1.10036 0
M  V30 5912 C 554.388 1.90869 0.358156 0
M  V30 5913 O 553.663 1.47819 1.26411 0
M  V30 5914 C 553.946 3.08766 -1.85298 0
M  V30 5915 C 553.799 2.95672 -3.38966 0
M  V30 5916 C 555.118 4.08622 -1.63451 0
M  V30 5917 H 552.237 0.618279 -0.401123 0
M  V30 5918 H 554.879 1.11212 -1.54051 0
M  V30 5919 H 553.029 3.59252 -1.47887 0
M  V30 5920 H 554.701 2.52527 -3.86041 0
M  V30 5921 H 552.944 2.31634 -3.6678 0
M  V30 5922 H 553.615 3.93776 -3.86839 0
M  V30 5923 H 556.091 3.67038 -1.96015 0
M  V30 5924 H 554.967 5.03514 -2.18551 0
M  V30 5925 H 555.228 4.3834 -0.575357 0
M  V30 5926 N 554.287 1.06798 1.15896 0
M  V30 5927 C 555.703 0.792423 1.38538 0
M  V30 5928 C 555.903 -0.60592 1.92174 0
M  V30 5929 O 554.959 -1.36561 2.12385 0
M  V30 5930 C 556.272 1.86157 2.36149 0
M  V30 5931 C 557.82 1.88567 2.49823 0
M  V30 5932 C 558.295 2.9455 3.5072 0
M  V30 5933 N 559.786 2.93616 3.58251 0
M  V30 5934 C 560.521 3.72267 4.36125 0
M  V30 5935 N 560.017 4.60751 5.17379 0
M  V30 5936 N 561.81 3.60637 4.31158 0
M  V30 5937 H 553.961 1.96993 0.794198 0
M  V30 5938 H 556.224 0.853942 0.411688 0
M  V30 5939 H 555.93 2.86603 2.03843 0
M  V30 5940 H 555.804 1.71692 3.3586 0
M  V30 5941 H 558.191 0.887765 2.8143 0
M  V30 5942 H 558.272 2.0711 1.5013 0
M  V30 5943 H 557.916 3.94537 3.19849 0
M  V30 5944 H 557.846 2.73255 4.50155 0
M  V30 5945 H 560.337 2.29472 3.00252 0
M  V30 5946 H 560.65 5.17408 5.74028 0
M  V30 5947 H 558.995 4.64803 5.16704 0
M  V30 5948 H 562.186 2.90892 3.66742 0
M  V30 5949 H 562.359 4.22176 4.91601 0
M  V30 5950 N 555.766 -1.3263 0.851289 0
M  V30 5951 C 556.696 -2.31449 0.308771 0
M  V30 5952 C 557.677 -1.59531 -0.590255 0
M  V30 5953 O 558.862 -1.87351 -0.511205 0
M  V30 5954 C 555.992 -3.43586 -0.506548 0
M  V30 5955 C 554.946 -4.26963 0.297753 0
M  V30 5956 C 554.272 -5.30831 -0.642094 0
M  V30 5957 C 555.572 -4.99643 1.52166 0
M  V30 5958 H 557.266 -2.77074 1.13447 0
M  V30 5959 H 554.812 -1.33207 0.546971 0
M  V30 5960 H 556.765 -4.11754 -0.896474 0
M  V30 5961 H 555.489 -2.96681 -1.36558 0
M  V30 5962 H 554.148 -3.60437 0.669391 0
M  V30 5963 H 553.796 -4.8018 -1.49788 0
M  V30 5964 H 553.496 -5.87501 -0.107968 0
M  V30 5965 H 555.02 -6.01862 -1.02927 0
M  V30 5966 H 556.434 -5.6051 1.20421 0
M  V30 5967 H 554.831 -5.66022 1.99347 0
M  V30 5968 H 555.901 -4.27701 2.28474 0
M  V30 5969 N 557.244 -0.608902 -1.45362 0
M  V30 5970 C 558.207 0.0992563 -2.28985 0
M  V30 5971 C 559.207 0.793841 -1.39838 0
M  V30 5972 O 560.397 0.641804 -1.61946 0
M  V30 5973 C 557.529 1.15073 -3.20891 0
M  V30 5974 H 558.722 -0.635964 -2.93079 0
M  V30 5975 H 556.275 -0.368007 -1.51906 0
M  V30 5976 H 557.01 1.91667 -2.616 0
M  V30 5977 H 556.795 0.656867 -3.86559 0
M  V30 5978 H 558.285 1.64665 -3.83765 0
M  V30 5979 N 558.722 1.53707 -0.348139 0
M  V30 5980 C 559.968 2.01286 0.247332 0
M  V30 5981 C 560.301 1.23546 1.49834 0
M  V30 5982 O 559.576 0.324331 1.91777 0
M  V30 5983 C 559.859 3.55768 0.556858 0
M  V30 5984 C 559.712 4.44216 -0.706564 0
M  V30 5985 C 561.031 4.1841 1.3646 0
M  V30 5986 H 558.15 0.731677 0.0884201 0
M  V30 5987 H 560.792 1.84106 -0.469584 0
M  V30 5988 H 558.942 3.70539 1.16761 0
M  V30 5989 H 560.614 4.41274 -1.34444 0
M  V30 5990 H 558.857 4.12892 -1.33052 0
M  V30 5991 H 559.528 5.50202 -0.445186 0
M  V30 5992 H 562.004 4.07365 0.848113 0
M  V30 5993 H 560.88 5.26563 1.54992 0
M  V30 5994 H 561.141 3.7333 2.36805 0
M  V30 5995 N 560.2 0.0768682 1.57412 0
M  V30 5996 C 561.13 -0.886026 2.16037 0
M  V30 5997 C 562.111 -1.30691 1.08876 0
M  V30 5998 O 563.296 -1.37705 1.36934 0
M  V30 5999 C 560.426 -2.1518 2.72608 0
M  V30 6000 C 559.38 -1.87015 3.8498 0
M  V30 6001 C 558.706 -3.20266 4.28175 0
M  V30 6002 C 560.006 -1.17143 5.08994 0
M  V30 6003 H 561.7 -0.397642 2.96748 0
M  V30 6004 H 559.246 -0.189823 1.42743 0
M  V30 6005 H 561.199 -2.82962 3.12266 0
M  V30 6006 H 559.923 -2.66269 1.89125 0
M  V30 6007 H 558.582 -1.21636 3.45833 0
M  V30 6008 H 558.23 -3.69207 3.41607 0
M  V30 6009 H 557.93 -3.0221 5.03927 0
M  V30 6010 H 559.454 -3.89237 4.70454 0
M  V30 6011 H 560.868 -1.75003 5.45937 0
M  V30 6012 H 559.265 -1.09328 5.90057 0
M  V30 6013 H 560.335 -0.151295 4.84664 0
M  V30 6014 N 561.678 -1.56367 -0.196722 0
M  V30 6015 C 562.611 -1.89475 -1.2718 0
M  V30 6016 C 563.589 -0.754667 -1.44026 0
M  V30 6017 O 564.773 -1.00551 -1.59442 0
M  V30 6018 C 561.9 -2.12352 -2.63864 0
M  V30 6019 C 560.946 -3.35053 -2.63897 0
M  V30 6020 S 561.779 -4.90228 -2.15492 0
M  V30 6021 C 562.935 -5.16171 -3.54004 0
M  V30 6022 H 563.168 -2.80365 -0.989075 0
M  V30 6023 H 560.701 -1.49125 -0.40014 0
M  V30 6024 H 562.659 -2.26214 -3.42545 0
M  V30 6025 H 561.32 -1.22214 -2.89349 0
M  V30 6026 H 560.513 -3.48182 -3.64397 0
M  V30 6027 H 560.115 -3.20176 -1.93296 0
M  V30 6028 H 562.407 -5.06591 -4.49857 0
M  V30 6029 H 563.35 -6.17938 -3.45771 0
M  V30 6030 H 563.758 -4.43814 -3.48841 0
M  V30 6031 N 563.156 0.464375 -1.50603 0
M  V30 6032 C 564.119 1.54393 -1.69397 0
M  V30 6033 C 565.119 1.50566 -0.564504 0
M  V30 6034 O 566.309 1.53066 -0.831645 0
M  V30 6035 C 563.441 2.9401 -1.72543 0
M  V30 6036 H 564.634 1.39044 -2.65719 0
M  V30 6037 H 562.187 0.69122 -1.40185 0
M  V30 6038 H 562.922 3.14795 -0.77938 0
M  V30 6039 H 562.707 2.98195 -2.54602 0
M  V30 6040 H 564.197 3.72375 -1.89015 0
M  V30 6041 N 564.634 1.40294 0.718013 0
M  V30 6042 C 565.88 1.38645 1.48005 0
M  V30 6043 C 566.213 -0.0121202 1.94196 0
M  V30 6044 O 565.488 -0.980309 1.67989 0
M  V30 6045 C 565.771 2.37379 2.70782 0
M  V30 6046 C 565.624 3.8625 2.30501 0
M  V30 6047 C 566.943 2.33685 3.72933 0
M  V30 6048 H 564.062 0.504928 0.536858 0
M  V30 6049 H 566.704 1.71411 0.819649 0
M  V30 6050 H 564.854 2.09568 3.27129 0
M  V30 6051 H 566.526 4.24879 1.79655 0
M  V30 6052 H 564.769 4.02202 1.6253 0
M  V30 6053 H 565.44 4.50847 3.18498 0
M  V30 6054 H 567.916 2.58314 3.2621 0
M  V30 6055 H 566.792 3.0482 4.56482 0
M  V30 6056 H 567.053 1.34765 4.21059 0
M  V30 6057 N 566.112 -0.949982 1.2575 0
M  V30 6058 C 567.34 -1.72972 1.13527 0
M  V30 6059 C 567.755 -1.8623 -0.310453 0
M  V30 6060 O 567.112 -1.36336 -1.2132 0
M  V30 6061 C 567.163 -3.14108 1.78936 0
M  V30 6062 O 566.884 -3.01493 3.17858 0
M  V30 6063 C 568.385 -4.08338 1.72554 0
M  V30 6064 H 565.605 -0.541864 0.395758 0
M  V30 6065 H 568.149 -1.19151 1.66202 0
M  V30 6066 H 566.304 -3.64858 1.30221 0
M  V30 6067 H 566.718 -3.90559 3.50092 0
M  V30 6068 H 568.192 -5.04963 2.22973 0
M  V30 6069 H 568.669 -4.33742 0.690251 0
M  V30 6070 H 569.275 -3.63506 2.2078 0
M  V30 6071 N 567.59 -1.07411 -1.15328 0
M  V30 6072 C 568.52 -0.716472 -2.22236 0
M  V30 6073 C 569.501 0.296373 -1.67498 0
M  V30 6074 O 570.686 0.168989 -1.93463 0
M  V30 6075 C 567.816 -0.114142 -3.47112 0
M  V30 6076 C 566.77 -1.05421 -4.14814 0
M  V30 6077 C 566.096 -0.314604 -5.33774 0
M  V30 6078 C 567.396 -2.38808 -4.64508 0
M  V30 6079 H 569.09 -1.61029 -2.52408 0
M  V30 6080 H 566.636 -0.775702 -1.21321 0
M  V30 6081 H 568.589 0.148001 -4.2114 0
M  V30 6082 H 567.313 0.814755 -3.16274 0
M  V30 6083 H 565.972 -1.30128 -3.42728 0
M  V30 6084 H 565.62 0.617772 -4.99192 0
M  V30 6085 H 565.32 -0.941209 -5.80013 0
M  V30 6086 H 566.844 -0.0602747 -6.1057 0
M  V30 6087 H 568.258 -2.18424 -5.3006 0
M  V30 6088 H 566.655 -2.97069 -5.21412 0
M  V30 6089 H 567.725 -3.01067 -3.80114 0
M  V30 6090 N 569.068 1.32177 -0.85831 0
M  V30 6091 C 570.296 2.01313 -0.477582 0
M  V30 6092 C 570.711 1.6449 0.926736 0
M  V30 6093 O 570.068 0.868096 1.60531 0
M  V30 6094 C 570.119 3.56293 -0.611337 0
M  V30 6095 O 569.84 3.91794 -1.96034 0
M  V30 6096 C 571.341 4.42702 -0.230093 0
M  V30 6097 H 568.561 0.644323 -0.187322 0
M  V30 6098 H 571.105 1.68674 -1.15626 0
M  V30 6099 H 569.26 3.87395 0.0196494 0
M  V30 6100 H 569.674 4.86513 -1.95973 0
M  V30 6101 H 571.148 5.50727 -0.374674 0
M  V30 6102 H 571.625 4.3129 0.829779 0
M  V30 6103 H 572.231 4.16997 -0.836302 0
M  V30 6104 N 570.547 0.616602 1.45037 0
M  V30 6105 C 571.793 0.115501 2.02471 0
M  V30 6106 C 572.126 -1.25406 1.4828 0
M  V30 6107 O 571.401 -1.82922 0.661051 0
M  V30 6108 C 571.684 0.0863588 3.59996 0
M  V30 6109 C 571.537 1.48723 4.24501 0
M  V30 6110 C 572.856 -0.596762 4.36035 0
M  V30 6111 H 569.975 0.0434461 0.735718 0
M  V30 6112 H 572.617 0.7903 1.72784 0
M  V30 6113 H 570.767 -0.488277 3.85419 0
M  V30 6114 H 572.439 2.10964 4.10234 0
M  V30 6115 H 570.682 2.04534 3.82555 0
M  V30 6116 H 571.353 1.419 5.3345 0
M  V30 6117 H 573.829 -0.10824 4.15959 0
M  V30 6118 H 572.705 -0.586289 5.4576 0
M  V30 6119 H 572.966 -1.66451 4.09569 0
M  V30 6120 N 572.025 -1.5352 0.356285 0
M  V30 6121 C 573.436 -1.86282 -0.12492 0
M  V30 6122 C 573.787 -1.27717 -1.48939 0
M  V30 6123 O 572.912 -0.595614 -2.08042 0
M  V30 6124 C 573.507 -3.37995 -0.23345 0
M  V30 6125 C 572.066 -3.70588 -0.658899 0
M  V30 6126 C 571.213 -2.76581 0.199596 0
M  V30 6127 H 574.164 -1.47901 0.575423 0
M  V30 6128 H 574.185 -3.65475 -1.0587 0
M  V30 6129 H 573.697 -3.8059 0.759776 0
M  V30 6130 H 571.798 -3.33544 -1.66069 0
M  V30 6131 H 571.911 -4.77076 -0.439957 0
M  V30 6132 H 570.275 -2.52552 -0.330076 0
M  V30 6133 H 571.058 -3.22008 1.19019 0
M  V30 6134 N 573.503 -0.0852151 -1.57369 0
M  V30 6135 C 574.749 0.581666 -1.94279 0
M  V30 6136 C 575.082 1.68444 -0.966446 0
M  V30 6137 O 574.357 1.945 0.00215277 0
M  V30 6138 C 574.64 1.14609 -3.41375 0
M  V30 6139 C 574.493 0.0490414 -4.49773 0
M  V30 6140 C 575.812 2.04751 -3.8957 0
M  V30 6141 H 572.931 0.209972 -0.706456 0
M  V30 6142 H 575.573 -0.153915 -1.89376 0
M  V30 6143 H 573.723 1.77297 -3.45685 0
M  V30 6144 H 575.395 -0.584721 -4.57579 0
M  V30 6145 H 573.638 -0.618638 -4.29366 0
M  V30 6146 H 574.309 0.484601 -5.49869 0
M  V30 6147 H 576.785 1.51981 -3.87351 0
M  V30 6148 H 575.661 2.41173 -4.93079 0
M  V30 6149 H 575.922 2.96107 -3.28288 0
M  V30 6150 N 574.981 1.5647 0.188427 0
M  V30 6151 C 576.227 1.81281 0.909124 0
M  V30 6152 C 576.56 0.66034 1.82628 0
M  V30 6153 O 575.835 -0.338737 1.91528 0
M  V30 6154 C 576.118 3.16388 1.7196 0
M  V30 6155 C 575.971 4.42137 0.826714 0
M  V30 6156 C 577.29 3.48256 2.69083 0
M  V30 6157 H 574.409 0.659457 0.329068 0
M  V30 6158 H 577.051 1.89182 0.176156 0
M  V30 6159 H 575.201 3.09784 2.34448 0
M  V30 6160 H 576.873 4.60794 0.216025 0
M  V30 6161 H 575.116 4.33594 0.133792 0
M  V30 6162 H 575.787 5.33184 1.42893 0
M  V30 6163 H 578.263 3.55203 2.16726 0
M  V30 6164 H 577.139 4.43899 3.2287 0
M  V30 6165 H 577.4 2.72088 3.48455 0
M  V30 6166 N 576.459 -0.456382 1.50847 0
M  V30 6167 C 577.708 -1.2042 1.61808 0
M  V30 6168 C 578.021 -1.9278 0.330932 0
M  V30 6169 O 579.227 -2.69612 0.319643 0
M  V30 6170 C 577.683 -2.18891 2.85683 0
M  V30 6171 C 577.291 -1.52267 4.2133 0
M  V30 6172 C 579.035 -2.94224 3.05994 0
M  V30 6173 C 576.942 -2.4911 5.36375 0
M  V30 6174 H 575.872 -0.453177 0.602616 0
M  V30 6175 H 578.523 -0.473144 1.77295 0
M  V30 6176 H 576.905 -2.95351 2.63787 0
M  V30 6177 H 578.079 -0.814949 4.53536 0
M  V30 6178 H 576.394 -0.891594 4.06743 0
M  V30 6179 H 578.991 -3.66732 3.89117 0
M  V30 6180 H 579.334 -3.54469 2.18306 0
M  V30 6181 H 579.867 -2.24874 3.28141 0
M  V30 6182 H 576.606 -1.93582 6.26264 0
M  V30 6183 H 576.126 -3.17991 5.08569 0
M  V30 6184 H 577.805 -3.10637 5.67551 0
M  V30 6185 N 577.937 -1.40673 -0.710563 0
M  V30 6186 C 579.184 -1.39222 -1.47049 0
M  V30 6187 C 579.512 0.0037691 -1.945 0
M  V30 6188 O 578.767 0.989224 -1.68857 0
M  V30 6189 C 579.066 -2.33253 -2.70791 0
M  V30 6190 C 578.732 -3.80406 -2.42079 0
M  V30 6191 C 577.394 -4.20496 -2.33959 0
M  V30 6192 C 579.746 -4.73375 -2.18094 0
M  V30 6193 C 577.074 -5.51584 -1.99929 0
M  V30 6194 C 579.426 -6.04768 -1.85576 0
M  V30 6195 C 578.09 -6.43895 -1.75941 0
M  V30 6196 H 577.36 -0.509449 -0.538092 0
M  V30 6197 H 580.007 -1.73363 -0.81348 0
M  V30 6198 H 578.312 -1.92314 -3.41354 0
M  V30 6199 H 580.009 -2.29412 -3.28894 0
M  V30 6200 H 576.599 -3.48645 -2.49288 0
M  V30 6201 H 580.783 -4.43217 -2.23321 0
M  V30 6202 H 576.039 -5.80797 -1.91011 0
M  V30 6203 H 580.213 -6.76318 -1.66033 0
M  V30 6204 H 577.84 -7.45387 -1.4934 0
M  V30 6205 N 579.415 0.9433 -1.26252 0
M  V30 6206 C 580.826 1.50404 -1.10614 0
M  V30 6207 C 581.177 1.93666 0.31429 0
M  V30 6208 O 580.302 1.79709 1.20555 0
M  V30 6209 C 580.897 2.73336 -2.00182 0
M  V30 6210 C 579.456 3.25686 -1.88695 0
M  V30 6211 C 578.603 1.98474 -1.93658 0
M  V30 6212 H 581.554 0.759006 -1.39373 0
M  V30 6213 H 581.575 3.47567 -1.54847 0
M  V30 6214 H 581.087 2.41818 -3.03555 0
M  V30 6215 H 579.188 3.61998 -0.882489 0
M  V30 6216 H 579.301 3.92935 -2.74115 0
M  V30 6217 H 577.665 2.14278 -1.37684 0
M  V30 6218 H 578.448 1.6929 -2.98657 0
M  V30 6219 N 580.893 1.08022 1.14757 0
M  V30 6220 C 582.142 0.802468 1.8505 0
M  V30 6221 C 582.455 -0.674061 1.83619 0
M  V30 6222 O 583.661 -1.06683 2.49662 0
M  V30 6223 C 582.117 1.38551 3.32162 0
M  V30 6224 C 581.725 2.89354 3.42021 0
M  V30 6225 C 583.469 1.18608 4.07594 0
M  V30 6226 C 581.376 3.40815 4.83321 0
M  V30 6227 H 580.306 0.296518 0.693248 0
M  V30 6228 H 582.957 1.30114 1.29393 0
M  V30 6229 H 581.339 0.814556 3.87532 0
M  V30 6230 H 582.513 3.52552 2.96722 0
M  V30 6231 H 580.828 3.08165 2.80041 0
M  V30 6232 H 583.425 1.54525 5.11885 0
M  V30 6233 H 583.768 0.125599 4.1611 0
M  V30 6234 H 584.301 1.72375 3.58513 0
M  V30 6235 H 581.04 4.46418 4.79991 0
M  V30 6236 H 580.56 2.82374 5.29174 0
M  V30 6237 H 582.239 3.37171 5.522 0
M  V30 6238 N 582.371 -1.3172 0.865308 0
M  V30 6239 C 583.787 -1.4958 0.556596 0
M  V30 6240 C 583.987 -1.79763 -0.910353 0
M  V30 6241 O 583.043 -1.87351 -1.6928 0
M  V30 6242 C 584.356 -2.63277 1.45279 0
M  V30 6243 C 585.904 -2.77161 1.45433 0
M  V30 6244 C 586.379 -3.93949 2.33598 0
M  V30 6245 N 587.87 -4.01228 2.31453 0
M  V30 6246 C 588.605 -4.90855 2.96393 0
M  V30 6247 N 588.101 -5.85416 3.70486 0
M  V30 6248 N 589.894 -4.84063 2.85726 0
M  V30 6249 H 582.045 -1.10396 1.81456 0
M  V30 6250 H 584.308 -0.54507 0.775631 0
M  V30 6251 H 584.014 -2.47734 2.49641 0
M  V30 6252 H 583.888 -3.59309 1.14792 0
M  V30 6253 H 586.275 -2.9212 0.41831 0
M  V30 6254 H 586.356 -1.8181 1.79941 0
M  V30 6255 H 586 -3.79748 3.37274 0
M  V30 6256 H 585.93 -4.88598 1.96417 0
M  V30 6257 H 588.421 -3.3357 1.77593 0
M  V30 6258 H 588.734 -6.50525 4.17178 0
M  V30 6259 H 587.079 -5.85409 3.74594 0
M  V30 6260 H 590.27 -4.09163 2.27384 0
M  V30 6261 H 590.443 -5.53708 3.36617 0
M  V30 6262 N 583.85 -0.624285 -1.44708 0
M  V30 6263 C 585.075 -0.131171 -2.06985 0
M  V30 6264 C 585.5 1.18234 -1.46295 0
M  V30 6265 O 584.858 1.72375 -0.561842 0
M  V30 6266 C 584.906 -0.0226724 -3.60593 0
M  V30 6267 O 584.01 1.02314 -3.99507 0
M  V30 6268 H 583.351 -0.0816556 -0.65896 0
M  V30 6269 H 585.88 -0.859027 -1.85693 0
M  V30 6270 H 585.891 0.170138 -4.07645 0
M  V30 6271 H 584.566 -0.981685 -4.04148 0
M  V30 6272 H 583.143 0.805452 -3.64097 0
M  V30 6273 N 585.328 1.53329 -0.364422 0
M  V30 6274 C 586.553 2.06132 0.229033 0
M  V30 6275 C 586.978 1.23625 1.41769 0
M  V30 6276 O 586.336 0.255038 1.79497 0
M  V30 6277 C 586.384 3.55544 0.60174 0
M  V30 6278 O 585.488 3.75771 1.69912 0
M  V30 6279 H 584.829 0.663148 0.0336213 0
M  V30 6280 H 587.359 1.97758 -0.524689 0
M  V30 6281 H 587.369 3.98549 0.873073 0
M  V30 6282 H 586.044 4.15039 -0.267421 0
M  V30 6283 H 584.621 3.44663 1.42343 0
M  V30 6284 N 586.806 0.0935595 1.57322 0
M  V30 6285 C 588.052 -0.571355 1.94585 0
M  V30 6286 C 588.385 -1.67929 0.975366 0
M  V30 6287 O 587.66 -1.94498 0.00816206 0
M  V30 6288 C 587.943 -1.12797 3.41978 0
M  V30 6289 C 587.796 -0.0251881 4.49793 0
M  V30 6290 C 589.115 -2.02682 3.90651 0
M  V30 6291 H 586.234 -0.206223 0.70756 0
M  V30 6292 H 588.876 0.163956 1.89291 0
M  V30 6293 H 587.026 -1.75461 3.4662 0
M  V30 6294 H 588.698 0.608979 4.57263 0
M  V30 6295 H 586.941 0.641399 4.29032 0
M  V30 6296 H 587.612 -0.455433 5.50118 0
M  V30 6297 H 590.088 -1.49925 3.88152 0
M  V30 6298 H 588.964 -2.38555 4.94351 0
M  V30 6299 H 589.225 -2.94362 3.29854 0
M  V30 6300 N 588.284 -1.56567 -0.180126 0
M  V30 6301 C 589.512 -1.85618 -0.913972 0
M  V30 6302 C 589.927 -0.677892 -1.7621 0
M  V30 6303 O 589.284 0.353171 -1.7905 0
M  V30 6304 C 589.335 -3.13619 -1.79793 0
M  V30 6305 O 589.056 -4.26906 -0.98402 0
M  V30 6306 C 590.557 -3.55954 -2.64219 0
M  V30 6307 H 587.777 -0.616043 -0.265954 0
M  V30 6308 H 590.321 -2.03681 -0.182872 0
M  V30 6309 H 588.476 -2.97409 -2.48247 0
M  V30 6310 H 588.89 -4.9989 -1.58776 0
M  V30 6311 H 590.364 -4.48444 -3.21873 0
M  V30 6312 H 590.841 -2.79653 -3.38661 0
M  V30 6313 H 591.447 -3.74746 -2.01111 0
M  V30 6314 N 589.762 0.448376 -1.51087 0
M  V30 6315 C 590.712 1.54156 -1.67988 0
M  V30 6316 C 591.696 1.5178 -0.534015 0
M  V30 6317 O 592.888 1.58419 -0.789448 0
M  V30 6318 C 590.017 2.92437 -1.79822 0
M  V30 6319 C 589.103 2.99611 -3.00157 0
M  V30 6320 N 589.494 2.7655 -4.23502 0
M  V30 6321 C 587.792 3.30764 -2.99184 0
M  V30 6322 C 588.493 2.89281 -5.0467 0
M  V30 6323 N 587.469 3.20473 -4.39088 0
M  V30 6324 H 591.271 1.35061 -2.61028 0
M  V30 6325 H 588.785 0.655504 -1.48583 0
M  V30 6326 H 590.782 3.71068 -1.90037 0
M  V30 6327 H 589.442 3.1256 -0.879554 0
M  V30 6328 H 590.453 2.5169 -4.52628 0
M  V30 6329 H 587.13 3.56732 -2.16907 0
M  V30 6330 H 588.52 2.75499 -6.12821 0
M  V30 6331 N 591.24 1.41047 0.703093 0
M  V30 6332 C 592.17 1.45067 1.82969 0
M  V30 6333 C 593.151 0.31016 1.67248 0
M  V30 6334 O 594.336 0.520548 1.87093 0
M  V30 6335 C 591.466 1.32478 3.2104 0
M  V30 6336 C 590.42 2.44262 3.51454 0
M  V30 6337 C 589.746 2.16742 4.88801 0
M  V30 6338 C 591.046 3.86606 3.51189 0
M  V30 6339 H 592.74 2.39353 1.79863 0
M  V30 6340 H 590.286 1.15206 0.863919 0
M  V30 6341 H 592.239 1.33904 3.99559 0
M  V30 6342 H 590.963 0.346735 3.24754 0
M  V30 6343 H 589.622 2.42107 2.75282 0
M  V30 6344 H 589.27 1.17299 4.89132 0
M  V30 6345 H 588.97 2.91643 5.10116 0
M  V30 6346 H 590.494 2.19872 5.69639 0
M  V30 6347 H 591.908 3.90517 4.19725 0
M  V30 6348 H 590.305 4.61128 3.84033 0
M  V30 6349 H 591.375 4.15296 2.50315 0
M  V30 6350 N 592.718 -0.936591 1.26751 0
M  V30 6351 C 593.648 -2.05315 1.11212 0
M  V30 6352 C 594.629 -1.70092 0.0160262 0
M  V30 6353 O 595.814 -1.93279 0.188894 0
M  V30 6354 C 592.944 -3.39123 0.749171 0
M  V30 6355 C 591.898 -3.88425 1.79751 0
M  V30 6356 C 591.224 -5.18936 1.28876 0
M  V30 6357 C 592.524 -4.12798 3.19992 0
M  V30 6358 H 594.218 -2.18573 2.04613 0
M  V30 6359 H 591.764 -1.05027 0.985159 0
M  V30 6360 H 593.717 -4.16704 0.627323 0
M  V30 6361 H 592.441 -3.25855 -0.220543 0
M  V30 6362 H 591.1 -3.13028 1.90811 0
M  V30 6363 H 590.748 -5.02051 0.308757 0
M  V30 6364 H 590.448 -5.52892 1.98958 0
M  V30 6365 H 591.972 -5.99096 1.17967 0
M  V30 6366 H 593.386 -4.80977 3.11983 0
M  V30 6367 H 591.783 -4.58044 3.87705 0
M  V30 6368 H 592.853 -3.18412 3.65707 0
M  V30 6369 N 594.196 -1.08629 -1.14182 0
M  V30 6370 C 595.436 -0.826884 -1.86928 0
M  V30 6371 C 595.8 0.635808 -1.81167 0
M  V30 6372 O 597.001 1.0108 -2.49071 0
M  V30 6373 C 595.272 -1.33721 -3.31442 0
M  V30 6374 S 596.831 -1.21045 -4.21774 0
M  V30 6375 H 593.649 -0.299286 -0.644941 0
M  V30 6376 H 596.251 -1.38802 -1.37674 0
M  V30 6377 H 594.955 -2.39617 -3.33184 0
M  V30 6378 H 594.486 -0.771839 -3.85754 0
M  V30 6379 H 596.501 -0.156168 -4.95954 0
M  V30 6380 N 595.674 1.31259 -0.872281 0
M  V30 6381 C 596.637 2.26744 -0.334656 0
M  V30 6382 C 597.637 1.52307 0.515681 0
M  V30 6383 O 598.827 1.71148 0.324656 0
M  V30 6384 C 595.959 3.36841 0.524482 0
M  V30 6385 H 597.152 2.75812 -1.17762 0
M  V30 6386 H 594.705 1.42232 -0.648064 0
M  V30 6387 H 595.44 2.93069 1.38855 0
M  V30 6388 H 595.225 3.92009 -0.0844299 0
M  V30 6389 H 596.715 4.07944 0.892838 0
M  V30 6390 N 597.152 0.631951 1.44375 0
M  V30 6391 C 598.377 0.142146 2.06912 0
M  V30 6392 C 598.802 -1.17456 1.4692 0
M  V30 6393 O 598.16 -1.72074 0.570975 0
M  V30 6394 C 598.208 0.0417952 3.60576 0
M  V30 6395 O 597.312 -1.00194 4.00044 0
M  V30 6396 H 596.653 0.0851491 0.658518 0
M  V30 6397 H 599.183 0.868863 1.85235 0
M  V30 6398 H 599.193 -0.148517 4.0773 0
M  V30 6399 H 597.868 1.0031 4.03622 0
M  V30 6400 H 596.445 -0.786131 3.64519 0
M  V30 6401 N 598.631 -1.53133 0.372548 0
M  V30 6402 C 599.578 -2.25951 -0.470631 0
M  V30 6403 C 600.548 -1.26895 -1.07176 0
M  V30 6404 O 601.733 -1.55691 -1.10294 0
M  V30 6405 C 598.873 -3.05726 -1.6008 0
M  V30 6406 C 597.986 -4.19684 -1.02416 0
M  V30 6407 C 597.121 -4.86888 -2.124 0
M  V30 6408 C 596.16 -5.92866 -1.52238 0
M  V30 6409 N 595.297 -6.53732 -2.56084 0
M  V30 6410 H 600.137 -2.97587 0.156816 0
M  V30 6411 H 597.674 -1.4683 0.0891571 0
M  V30 6412 H 599.632 -3.50258 -2.26661 0
M  V30 6413 H 598.262 -2.36331 -2.1988 0
M  V30 6414 H 597.314 -3.79588 -0.248426 0
M  V30 6415 H 598.626 -4.95821 -0.544366 0
M  V30 6416 H 597.78 -5.34638 -2.86787 0
M  V30 6417 H 596.519 -4.10239 -2.63734 0
M  V30 6418 H 595.524 -5.4447 -0.763685 0
M  V30 6419 H 596.749 -6.71439 -1.0172 0
M  V30 6420 H 594.695 -5.79932 -3.06618 0
M  V30 6421 H 594.612 -7.25429 -2.12811 0
M  V30 6422 H 595.88 -7.0613 -3.30152 0
M  V30 6423 N 600.109 -0.101901 -1.5727 0
M  V30 6424 C 601.386 0.602832 -1.86079 0
M  V30 6425 C 601.766 1.85912 -1 0
M  V30 6426 O 601.114 2.28379 -0.0742488 0
M  V30 6427 C 601.324 0.911694 -3.36881 0
M  V30 6428 C 602.672 1.2722 -4.05093 0
M  V30 6429 O 603.696 1.0025 -3.41802 0
M  V30 6430 O 602.555 1.7776 -5.16782 0
M  V30 6431 H 599.649 0.302366 -0.769743 0
M  V30 6432 H 602.195 -0.135113 -1.69161 0
M  V30 6433 H 600.967 0.0207256 -3.91295 0
M  V30 6434 H 600.59 1.70538 -3.59169 0
M  V30 6435 N 601.587 1.56661 0.17182 0
M  V30 6436 C 602.834 1.81965 0.888529 0
M  V30 6437 C 603.162 0.6789 1.82267 0
M  V30 6438 O 602.417 -0.333875 1.92831 0
M  V30 6439 C 602.716 3.13435 1.71736 0
M  V30 6440 C 602.382 4.41159 0.932184 0
M  V30 6441 C 601.044 4.75851 0.715481 0
M  V30 6442 C 603.396 5.19803 0.381387 0
M  V30 6443 C 600.724 5.86666 -0.063126 0
M  V30 6444 C 603.076 6.31433 -0.384129 0
M  V30 6445 C 601.74 6.64692 -0.611637 0
M  V30 6446 H 601.01 0.665859 0.325136 0
M  V30 6447 H 603.657 1.90884 0.153495 0
M  V30 6448 H 601.962 2.99857 2.52177 0
M  V30 6449 H 603.659 3.30224 2.27493 0
M  V30 6450 H 600.249 4.13947 1.11112 0
M  V30 6451 H 604.433 4.93396 0.536148 0
M  V30 6452 H 599.689 6.10892 -0.249136 0
M  V30 6453 H 603.863 6.91577 -0.818185 0
M  V30 6454 H 601.49 7.50398 -1.21684 0
M  V30 6455 N 603.065 -0.440357 1.51323 0
M  V30 6456 C 604.29 -1.21716 1.67928 0
M  V30 6457 C 604.715 -1.84328 0.374826 0
M  V30 6458 O 604.073 -1.68675 -0.664706 0
M  V30 6459 C 604.121 -2.27914 2.79442 0
M  V30 6460 O 603.225 -3.33325 2.42834 0
M  V30 6461 H 602.566 -0.35674 0.560029 0
M  V30 6462 H 605.096 -0.520417 1.97871 0
M  V30 6463 H 605.106 -2.72746 3.03436 0
M  V30 6464 H 603.781 -1.8172 3.741 0
M  V30 6465 H 602.358 -2.9399 2.294 0
M  V30 6466 N 604.543 -1.41418 -0.695603 0
M  V30 6467 C 605.789 -1.41983 -1.45645 0
M  V30 6468 C 606.144 -0.0282216 -1.92379 0
M  V30 6469 O 605.437 0.945916 -1.66622 0
M  V30 6470 C 605.631 -2.36112 -2.68302 0
M  V30 6471 C 605.46 -3.84288 -2.33566 0
M  V30 6472 C 604.23 -4.52971 -2.23932 0
M  V30 6473 C 606.428 -4.75264 -1.96543 0
M  V30 6474 N 604.41 -5.86276 -1.82081 0
M  V30 6475 C 605.781 -5.97517 -1.6545 0
M  V30 6476 C 607.836 -4.62911 -1.83352 0
M  V30 6477 C 606.539 -7.08793 -1.22492 0
M  V30 6478 C 608.565 -5.74149 -1.41799 0
M  V30 6479 C 607.927 -6.95501 -1.11617 0
M  V30 6480 H 604.026 -0.574771 -0.530247 0
M  V30 6481 H 606.61 -1.77289 -0.804788 0
M  V30 6482 H 604.781 -2.02902 -3.31188 0
M  V30 6483 H 606.513 -2.27397 -3.34773 0
M  V30 6484 H 603.268 -4.06909 -2.42327 0
M  V30 6485 H 603.692 -6.56926 -1.63638 0
M  V30 6486 H 608.334 -3.69588 -2.05341 0
M  V30 6487 H 606.052 -8.01982 -0.992482 0
M  V30 6488 H 609.638 -5.66595 -1.32143 0
M  V30 6489 H 608.518 -7.80114 -0.799493 0
M  V30 6490 N 606.021 0.929856 -1.27246 0
M  V30 6491 C 607.267 1.6802 -1.14634 0
M  V30 6492 C 607.622 1.89965 0.305151 0
M  V30 6493 O 606.915 1.47737 1.22001 0
M  V30 6494 C 607.109 3.05116 -1.86115 0
M  V30 6495 C 606.938 2.96549 -3.38066 0
M  V30 6496 C 605.708 2.98947 -4.0738 0
M  V30 6497 C 607.906 2.7583 -4.34077 0
M  V30 6498 N 605.888 2.80799 -5.45917 0
M  V30 6499 C 607.259 2.66364 -5.59866 0
M  V30 6500 C 609.314 2.60701 -4.24193 0
M  V30 6501 C 608.017 2.43313 -6.76898 0
M  V30 6502 C 610.043 2.39026 -5.40944 0
M  V30 6503 C 609.405 2.30302 -6.65688 0
M  V30 6504 H 605.504 0.62172 -0.474329 0
M  V30 6505 H 608.088 1.09947 -1.60685 0
M  V30 6506 H 606.259 3.61306 -1.42522 0
M  V30 6507 H 607.991 3.69076 -1.66027 0
M  V30 6508 H 604.746 3.09093 -3.58829 0
M  V30 6509 H 605.17 2.74861 -6.18692 0
M  V30 6510 H 609.812 2.66206 -3.28473 0
M  V30 6511 H 607.53 2.36548 -7.72704 0
M  V30 6512 H 611.116 2.28208 -5.35175 0
M  V30 6513 H 609.996 2.13756 -7.54505 0
M  V30 6514 N 607.499 1.09233 1.13605 0
M  V30 6515 C 608.915 0.82163 1.36826 0
M  V30 6516 C 609.115 -0.565021 1.93416 0
M  V30 6517 O 608.171 -1.32026 2.15234 0
M  V30 6518 C 609.484 1.91124 2.32147 0
M  V30 6519 C 611.032 1.93824 2.45767 0
M  V30 6520 C 611.507 3.01923 3.44393 0
M  V30 6521 N 612.998 3.01149 3.51942 0
M  V30 6522 C 613.733 3.81434 4.2813 0
M  V30 6523 N 613.229 4.71621 5.07489 0
M  V30 6524 N 615.022 3.69702 4.23411 0
M  V30 6525 H 607.173 1.98633 0.752234 0
M  V30 6526 H 609.436 0.862482 0.393482 0
M  V30 6527 H 609.142 2.90862 1.97717 0
M  V30 6528 H 609.016 1.78777 3.32142 0
M  V30 6529 H 611.403 0.94726 2.79483 0
M  V30 6530 H 611.484 2.10248 1.45703 0
M  V30 6531 H 611.128 4.01232 3.11408 0
M  V30 6532 H 611.058 2.82742 4.44257 0
M  V30 6533 H 613.549 2.35789 2.95317 0
M  V30 6534 H 613.862 5.29468 5.62924 0
M  V30 6535 H 612.207 4.75658 5.06729 0
M  V30 6536 H 615.398 2.98606 3.60489 0
M  V30 6537 H 615.571 4.32509 4.82535 0
M  V30 6538 N 608.977 -1.30795 0.87923 0
M  V30 6539 C 609.927 -2.25838 0.313276 0
M  V30 6540 C 610.911 -1.51025 -0.55499 0
M  V30 6541 O 612.103 -1.72413 -0.400353 0
M  V30 6542 C 609.232 -3.39981 -0.476204 0
M  V30 6543 C 608.318 -4.22154 0.405826 0
M  V30 6544 N 608.709 -4.82934 1.50362 0
M  V30 6545 C 607.007 -4.45552 0.199909 0
M  V30 6546 C 607.708 -5.44444 2.0483 0
M  V30 6547 N 606.684 -5.26723 1.34403 0
M  V30 6548 H 610.486 -2.70374 1.15218 0
M  V30 6549 H 608 -1.45168 0.728003 0
M  V30 6550 H 609.997 -4.07108 -0.898251 0
M  V30 6551 H 608.657 -2.96986 -1.31261 0
M  V30 6552 H 609.668 -4.82319 1.8865 0
M  V30 6553 H 606.345 -4.13169 -0.599795 0
M  V30 6554 H 607.735 -6.02701 2.96986 0
M  V30 6555 N 610.455 -0.639598 -1.44038 0
M  V30 6556 C 611.68 -0.153117 -2.06834 0
M  V30 6557 C 612.105 1.16676 -1.47541 0
M  V30 6558 O 611.463 1.71769 -0.580093 0
M  V30 6559 C 611.511 -0.0609169 -3.60549 0
M  V30 6560 O 610.615 0.98071 -4.00569 0
M  V30 6561 H 609.956 -0.0886402 -0.658057 0
M  V30 6562 H 612.486 -0.878674 -1.84771 0
M  V30 6563 H 612.496 0.126892 -4.07803 0
M  V30 6564 H 611.171 -1.0245 -4.03084 0
M  V30 6565 H 609.748 0.766789 -3.64931 0
M  V30 6566 N 611.933 1.52934 -0.380664 0
M  V30 6567 C 612.863 2.29118 0.450268 0
M  V30 6568 C 613.844 1.32153 1.07096 0
M  V30 6569 O 615.029 1.61038 1.08537 0
M  V30 6570 C 612.159 3.09161 1.58231 0
M  V30 6571 C 611.113 4.13938 1.0881 0
M  V30 6572 C 610.439 4.82153 2.31155 0
M  V30 6573 C 611.739 5.22048 0.162146 0
M  V30 6574 H 613.433 2.98826 -0.185361 0
M  V30 6575 H 610.979 1.43715 -0.0905886 0
M  V30 6576 H 612.932 3.61211 2.17036 0
M  V30 6577 H 611.656 2.3717 2.2454 0
M  V30 6578 H 610.315 3.62855 0.522633 0
M  V30 6579 H 609.963 4.06719 2.95953 0
M  V30 6580 H 609.663 5.52966 1.98752 0
M  V30 6581 H 611.187 5.37004 2.90618 0
M  V30 6582 H 612.601 5.6951 0.658126 0
M  V30 6583 H 610.998 6.00057 -0.0717122 0
M  V30 6584 H 612.068 4.78398 -0.791438 0
M  V30 6585 N 613.412 0.11024 1.57214 0
M  V30 6586 C 614.661 -0.549638 1.94067 0
M  V30 6587 C 614.974 -1.68388 0.995234 0
M  V30 6588 O 616.18 -2.40593 1.25807 0
M  V30 6589 C 614.636 -1.02912 3.44873 0
M  V30 6590 C 614.244 0.0761861 4.47935 0
M  V30 6591 C 615.988 -1.66087 3.9066 0
M  V30 6592 C 613.895 -0.419502 5.8991 0
M  V30 6593 H 612.825 -0.209092 0.724428 0
M  V30 6594 H 615.476 0.188683 1.82527 0
M  V30 6595 H 613.858 -1.82159 3.51616 0
M  V30 6596 H 615.032 0.852185 4.52851 0
M  V30 6597 H 613.347 0.614052 4.11847 0
M  V30 6598 H 615.944 -2.04272 4.94143 0
M  V30 6599 H 616.287 -2.53591 3.30148 0
M  V30 6600 H 616.82 -0.933959 3.86681 0
M  V30 6601 H 613.559 0.419277 6.54158 0
M  V30 6602 H 613.079 -1.16217 5.88433 0
M  V30 6603 H 614.758 -0.883577 6.40938 0
M  V30 6604 N 614.89 -1.56749 -0.16351 0
M  V30 6605 C 616.118 -1.86577 -0.894233 0
M  V30 6606 C 616.533 -0.696543 -1.75481 0
M  V30 6607 O 615.89 0.334161 -1.79415 0
M  V30 6608 C 615.941 -3.15508 -1.76456 0
M  V30 6609 O 615.662 -4.27926 -0.938685 0
M  V30 6610 C 617.163 -3.58737 -2.60428 0
M  V30 6611 H 614.383 -0.618829 -0.259405 0
M  V30 6612 H 616.927 -2.03863 -0.161259 0
M  V30 6613 H 615.082 -3.00025 -2.45079 0
M  V30 6614 H 615.496 -5.01546 -1.53465 0
M  V30 6615 H 616.97 -4.51832 -3.17099 0
M  V30 6616 H 617.447 -2.83229 -3.35675 0
M  V30 6617 H 618.053 -3.76858 -1.97125 0
M  V30 6618 N 616.368 0.432326 -1.51554 0
M  V30 6619 C 617.614 1.18309 -1.64714 0
M  V30 6620 C 617.947 1.90745 -0.364696 0
M  V30 6621 O 617.222 1.8381 0.635936 0
M  V30 6622 C 617.505 2.1961 -2.85383 0
M  V30 6623 C 617.358 1.51223 -4.23617 0
M  V30 6624 C 618.677 3.20538 -3.01569 0
M  V30 6625 H 615.796 0.428751 -0.599451 0
M  V30 6626 H 618.438 0.471689 -1.84052 0
M  V30 6627 H 616.588 2.8028 -2.69027 0
M  V30 6628 H 618.26 0.938516 -4.51652 0
M  V30 6629 H 616.503 0.814501 -4.26085 0
M  V30 6630 H 617.174 2.25024 -5.04052 0
M  V30 6631 H 619.65 2.69926 -3.16669 0
M  V30 6632 H 618.526 3.88706 -3.87555 0
M  V30 6633 H 618.787 3.86933 -2.13859 0
M  V30 6634 N 617.846 1.41785 0.688094 0
M  V30 6635 C 619.071 1.45117 1.48175 0
M  V30 6636 C 619.496 0.060129 1.88004 0
M  V30 6637 O 618.854 -0.938385 1.55126 0
M  V30 6638 C 618.902 2.37224 2.71583 0
M  V30 6639 O 618.006 1.83443 3.69354 0
M  V30 6640 H 617.347 0.492208 0.445676 0
M  V30 6641 H 619.877 1.86329 0.845145 0
M  V30 6642 H 619.887 2.53353 3.19806 0
M  V30 6643 H 618.562 3.38293 2.41931 0
M  V30 6644 H 617.139 1.76802 3.28322 0
M  V30 6645 N 619.324 -0.923095 1.27737 0
M  V30 6646 C 620.573 -1.66581 1.13727 0
M  V30 6647 C 620.886 -1.9304 -0.315433 0
M  V30 6648 O 622.092 -2.65309 -0.57651 0
M  V30 6649 C 620.548 -3.00047 1.98745 0
M  V30 6650 C 620.156 -2.8127 3.48699 0
M  V30 6651 C 621.9 -3.77887 1.93395 0
M  V30 6652 C 619.807 -4.1032 4.25901 0
M  V30 6653 H 618.737 -0.624834 0.422017 0
M  V30 6654 H 621.388 -1.02514 1.52194 0
M  V30 6655 H 619.77 -3.65197 1.53125 0
M  V30 6656 H 620.944 -2.24859 4.02213 0
M  V30 6657 H 619.259 -2.16854 3.55476 0
M  V30 6658 H 621.856 -4.73526 2.48348 0
M  V30 6659 H 622.199 -4.06264 0.908605 0
M  V30 6660 H 622.732 -3.19541 2.36935 0
M  V30 6661 H 619.471 -3.8712 5.28978 0
M  V30 6662 H 618.991 -4.66377 3.77163 0
M  V30 6663 H 620.67 -4.78648 4.35321 0
M  V30 6664 N 620.802 -1.09834 -1.13024 0
M  V30 6665 C 621.732 -0.763451 -2.20666 0
M  V30 6666 C 622.713 0.260778 -1.68089 0
M  V30 6667 O 623.898 0.127915 -1.93778 0
M  V30 6668 C 621.028 -0.187744 -3.46792 0
M  V30 6669 C 619.982 -1.14196 -4.12484 0
M  V30 6670 C 619.308 -0.427755 -5.32986 0
M  V30 6671 C 620.608 -2.48607 -4.59338 0
M  V30 6672 H 622.302 -1.66347 -2.48936 0
M  V30 6673 H 619.848 -0.801261 -1.19649 0
M  V30 6674 H 621.801 0.0586375 -4.21359 0
M  V30 6675 H 620.525 0.747485 -3.17931 0
M  V30 6676 H 619.184 -1.37369 -3.3989 0
M  V30 6677 H 618.832 0.511747 -5.0039 0
M  V30 6678 H 618.532 -1.06403 -5.77886 0
M  V30 6679 H 620.056 -0.189772 -6.10305 0
M  V30 6680 H 621.47 -2.29618 -5.25308 0
M  V30 6681 H 619.867 -3.08062 -5.14993 0
M  V30 6682 H 620.937 -3.09062 -3.73642 0
M  V30 6683 N 622.28 1.30327 -0.886154 0
M  V30 6684 C 623.243 2.26376 -0.358687 0
M  V30 6685 C 624.243 1.52845 0.499498 0
M  V30 6686 O 625.433 1.71483 0.306485 0
M  V30 6687 C 622.565 3.37379 0.488726 0
M  V30 6688 H 623.758 2.74547 -1.20681 0
M  V30 6689 H 621.311 1.41536 -0.663113 0
M  V30 6690 H 622.046 2.94526 1.35739 0
M  V30 6691 H 621.831 3.91897 -0.126003 0
M  V30 6692 H 623.321 4.08868 0.84952 0
M  V30 6693 N 623.758 0.647228 1.43697 0
M  V30 6694 C 625.005 0.158188 2.01881 0
M  V30 6695 C 625.333 -1.22573 1.51017 0
M  V30 6696 O 624.588 -1.83086 0.69122 0
M  V30 6697 C 624.887 0.111481 3.57226 0
M  V30 6698 C 624.553 1.43633 4.27411 0
M  V30 6699 C 623.215 1.79915 4.463 0
M  V30 6700 C 625.567 2.31011 4.67208 0
M  V30 6701 C 622.895 3.03251 5.02251 0
M  V30 6702 C 625.247 3.53633 5.24525 0
M  V30 6703 C 623.911 3.90118 5.41631 0
M  V30 6704 H 623.181 0.0578851 0.738736 0
M  V30 6705 H 625.828 0.836746 1.72252 0
M  V30 6706 H 624.133 -0.650507 3.86362 0
M  V30 6707 H 625.83 -0.283682 3.99995 0
M  V30 6708 H 622.42 1.14403 4.1305 0
M  V30 6709 H 626.604 2.04272 4.52313 0
M  V30 6710 H 621.86 3.31575 5.13681 0
M  V30 6711 H 626.034 4.21561 5.5431 0
M  V30 6712 H 623.661 4.85768 5.84751 0
M  V30 6713 N 625.236 -1.5273 0.388769 0
M  V30 6714 C 626.464 -2.05992 -0.193677 0
M  V30 6715 C 626.879 -1.26053 -1.40557 0
M  V30 6716 O 626.236 -0.307049 -1.79898 0
M  V30 6717 C 626.287 -3.57068 -0.564321 0
M  V30 6718 O 626.008 -4.3398 0.599422 0
M  V30 6719 C 627.509 -4.26674 -1.20269 0
M  V30 6720 H 624.729 -0.670358 -0.0293445 0
M  V30 6721 H 627.273 -1.96857 0.553844 0
M  V30 6722 H 625.428 -3.66277 -1.26174 0
M  V30 6723 H 625.842 -5.2367 0.294895 0
M  V30 6724 H 627.316 -5.33625 -1.4124 0
M  V30 6725 H 627.793 -3.81854 -2.16989 0
M  V30 6726 H 628.399 -4.2178 -0.546047 0
M  V30 6727 N 626.714 -0.118576 -1.57153 0
M  V30 6728 C 627.662 0.849114 -2.16547 0
M  V30 6729 C 628.656 1.27567 -1.11458 0
M  V30 6730 O 629.862 1.24746 -1.29763 0
M  V30 6731 H 626.237 0.291935 -0.693021 0
M  V30 6732 H 628.208 0.323693 -2.96639 0
M  V30 6733 C 626.957 2.08951 -2.77912 0
M  V30 6734 H 626.28 1.77021 -3.58474 0
M  V30 6735 H 627.72 2.74666 -3.23008 0
M  V30 6736 C 626.179 2.87899 -1.74974 0
M  V30 6737 O 626.709 3.83268 -1.20285 0
M  V30 6738 N 624.915 2.51884 -1.44924 0
M  V30 6739 H 624.462 1.74397 -1.89587 0
M  V30 6740 H 624.42 3.05003 -0.762921 0
M  V30 6741 N 628.193 1.56834 0.155195 0
M  V30 6742 C 629.123 2.00678 1.19376 0
M  V30 6743 C 630.104 0.884973 1.45266 0
M  V30 6744 O 631.289 1.1522 1.56326 0
M  V30 6745 C 628.419 2.38042 2.5289 0
M  V30 6746 C 627.373 3.53332 2.41538 0
M  V30 6747 C 626.699 3.76485 3.79688 0
M  V30 6748 C 627.999 4.86265 1.9064 0
M  V30 6749 H 629.693 2.87688 0.829232 0
M  V30 6750 H 627.239 1.38407 0.397445 0
M  V30 6751 H 629.192 2.67314 3.25763 0
M  V30 6752 H 627.916 1.4796 2.91162 0
M  V30 6753 H 626.575 3.24213 1.71117 0
M  V30 6754 H 626.223 2.83667 4.15382 0
M  V30 6755 H 625.923 4.54068 3.72956 0
M  V30 6756 H 627.447 4.08174 4.54122 0
M  V30 6757 H 628.861 5.14308 2.53299 0
M  V30 6758 H 627.258 5.67597 1.94818 0
M  V30 6759 H 628.328 4.77184 0.861596 0
M  V30 6760 N 629.671 -0.424282 1.51781 0
M  V30 6761 C 630.601 -1.52305 1.7699 0
M  V30 6762 C 631.582 -1.5839 0.620209 0
M  V30 6763 O 632.767 -1.73908 0.864268 0
M  V30 6764 C 629.897 -2.90271 1.90683 0
M  V30 6765 C 628.851 -2.99043 3.06198 0
M  V30 6766 C 628.177 -4.39116 3.05092 0
M  V30 6767 C 629.477 -2.7192 4.45934 0
M  V30 6768 H 631.171 -1.31461 2.68995 0
M  V30 6769 H 628.717 -0.630985 1.29439 0
M  V30 6770 H 630.67 -3.6711 2.06901 0
M  V30 6771 H 629.394 -3.12376 0.953365 0
M  V30 6772 H 628.053 -2.24646 2.89706 0
M  V30 6773 H 627.701 -4.58207 2.07498 0
M  V30 6774 H 627.401 -4.45912 3.82669 0
M  V30 6775 H 628.925 -5.17911 3.2342 0
M  V30 6776 H 630.339 -3.38487 4.62709 0
M  V30 6777 H 628.736 -2.90111 5.25315 0
M  V30 6778 H 629.806 -1.67445 4.55072 0
M  V30 6779 N 631.149 -1.42148 -0.680565 0
M  V30 6780 C 632.395 -1.42521 -1.44277 0
M  V30 6781 C 632.728 -0.0393718 -1.9416 0
M  V30 6782 O 632.003 0.935425 -1.70529 0
M  V30 6783 C 632.286 -2.44475 -2.64394 0
M  V30 6784 C 632.139 -3.92226 -2.20179 0
M  V30 6785 C 633.458 -2.43491 -3.66606 0
M  V30 6786 H 630.577 -0.518985 -0.523282 0
M  V30 6787 H 633.219 -1.73524 -0.773914 0
M  V30 6788 H 631.369 -2.18168 -3.21458 0
M  V30 6789 H 633.041 -4.29493 -1.68327 0
M  V30 6790 H 631.284 -4.0637 -1.5181 0
M  V30 6791 H 631.955 -4.59133 -3.06433 0
M  V30 6792 H 634.431 -2.66872 -3.19247 0
M  V30 6793 H 633.307 -3.16816 -4.4824 0
M  V30 6794 H 633.568 -1.45881 -4.17338 0
M  V30 6795 N 632.627 0.916307 -1.28225 0
M  V30 6796 C 633.876 1.65975 -1.14608 0
M  V30 6797 C 634.189 1.93204 0.305191 0
M  V30 6798 O 635.395 2.65611 0.562432 0
M  V30 6799 C 633.851 2.98989 -2.00333 0
M  V30 6800 C 633.459 2.79417 -3.50186 0
M  V30 6801 C 635.203 3.76856 -1.95397 0
M  V30 6802 C 633.11 4.08056 -4.28071 0
M  V30 6803 H 632.04 0.622587 -0.425324 0
M  V30 6804 H 634.691 1.01705 -1.52736 0
M  V30 6805 H 633.073 3.6438 -1.5506 0
M  V30 6806 H 634.247 2.22723 -4.034 0
M  V30 6807 H 632.562 2.14966 -3.56621 0
M  V30 6808 H 635.159 4.72203 -2.50856 0
M  V30 6809 H 635.502 4.05776 -0.930137 0
M  V30 6810 H 636.035 3.1828 -2.38626 0
M  V30 6811 H 632.774 3.8431 -5.31024 0
M  V30 6812 H 632.294 4.64371 -3.79631 0
M  V30 6813 H 633.973 4.76333 -4.37854 0
M  V30 6814 N 634.105 1.10431 1.1244 0
M  V30 6815 C 635.352 0.846717 1.83948 0
M  V30 6816 C 635.68 -0.627709 1.84093 0
M  V30 6817 O 634.935 -1.47876 1.28184 0
M  V30 6818 C 635.234 1.34022 3.3132 0
M  V30 6819 C 634.9 2.82606 3.51347 0
M  V30 6820 C 633.562 3.23182 3.56521 0
M  V30 6821 C 635.914 3.78356 3.58464 0
M  V30 6822 C 633.242 4.58258 3.66356 0
M  V30 6823 C 635.594 5.13234 3.69829 0
M  V30 6824 C 634.258 5.53384 3.73259 0
M  V30 6825 H 633.528 0.309836 0.673114 0
M  V30 6826 H 636.175 1.38091 1.32677 0
M  V30 6827 H 634.48 0.726047 3.85014 0
M  V30 6828 H 636.177 1.11739 3.85118 0
M  V30 6829 H 632.767 2.50212 3.47983 0
M  V30 6830 H 636.951 3.48115 3.53737 0
M  V30 6831 H 632.207 4.88787 3.67284 0
M  V30 6832 H 636.381 5.87272 3.74279 0
M  V30 6833 H 634.008 6.58045 3.80633 0
M  V30 6834 N 635.583 -1.29855 0.893053 0
M  V30 6835 C 636.829 -1.96116 0.516349 0
M  V30 6836 C 637.162 -1.70281 -0.933695 0
M  V30 6837 O 636.437 -1.01205 -1.66096 0
M  V30 6838 C 636.72 -3.51068 0.801455 0
M  V30 6839 C 636.573 -3.86387 2.30272 0
M  V30 6840 C 637.892 -4.39186 0.283423 0
M  V30 6841 H 635.011 -0.712335 0.189072 0
M  V30 6842 H 637.653 -1.53587 1.11852 0
M  V30 6843 H 635.803 -3.87424 0.288949 0
M  V30 6844 H 637.475 -3.60012 2.88425 0
M  V30 6845 H 635.718 -3.34167 2.76613 0
M  V30 6846 H 636.389 -4.94512 2.45279 0
M  V30 6847 H 638.865 -4.09785 0.722187 0
M  V30 6848 H 637.741 -5.46505 0.512169 0
M  V30 6849 H 638.002 -4.34511 -0.815643 0
M  V30 6850 N 637.061 -0.65484 -1.43351 0
M  V30 6851 C 638.472 -0.248506 -1.85039 0
M  V30 6852 C 638.823 1.20526 -1.54816 0
M  V30 6853 O 637.948 1.92016 -0.99794 0
M  V30 6854 C 638.543 -0.444241 -3.35875 0
M  V30 6855 C 637.102 -0.0922108 -3.76287 0
M  V30 6856 C 636.249 -0.746327 -2.67068 0
M  V30 6857 H 639.2 -0.8584 -1.33481 0
M  V30 6858 H 639.221 0.309762 -3.79237 0
M  V30 6859 H 638.733 -1.50239 -3.5784 0
M  V30 6860 H 636.834 0.96328 -3.59933 0
M  V30 6861 H 636.947 -0.518807 -4.76283 0
M  V30 6862 H 635.311 -0.179416 -2.54067 0
M  V30 6863 H 636.094 -1.80754 -2.91861 0
M  V30 6864 N 638.539 1.52521 -0.396863 0
M  V30 6865 C 639.767 2.06091 0.18275 0
M  V30 6866 C 640.182 1.26796 1.39886 0
M  V30 6867 O 639.539 0.316585 1.79733 0
M  V30 6868 C 639.59 3.57362 0.545377 0
M  V30 6869 O 639.311 4.33656 -0.622428 0
M  V30 6870 C 640.812 4.27305 1.18004 0
M  V30 6871 H 638.032 0.670504 0.025789 0
M  V30 6872 H 640.576 1.96561 -0.564276 0
M  V30 6873 H 638.731 3.66941 1.2423 0
M  V30 6874 H 639.145 5.23507 -0.322662 0
M  V30 6875 H 640.619 5.34366 1.38408 0
M  V30 6876 H 641.096 3.83 2.1496 0
M  V30 6877 H 641.702 4.22064 0.523671 0
M  V30 6878 N 640.017 0.126909 1.57088 0
M  V30 6879 C 641.266 -0.529024 1.94639 0
M  V30 6880 C 641.579 -1.67323 1.01304 0
M  V30 6881 O 642.785 -2.39245 1.28352 0
M  V30 6882 C 641.241 -0.992483 3.45945 0
M  V30 6883 C 640.849 0.123691 4.47829 0
M  V30 6884 C 642.593 -1.61934 3.924 0
M  V30 6885 C 640.5 -0.356911 5.90322 0
M  V30 6886 H 639.43 -0.201397 0.726605 0
M  V30 6887 H 642.081 0.208032 1.82317 0
M  V30 6888 H 640.463 -1.7842 3.53528 0
M  V30 6889 H 641.637 0.900168 4.51922 0
M  V30 6890 H 639.952 0.657699 4.11173 0
M  V30 6891 H 642.549 -1.9902 4.96281 0
M  V30 6892 H 642.892 -2.50075 3.32819 0
M  V30 6893 H 643.425 -0.892894 3.8765 0
M  V30 6894 H 640.164 0.488636 6.53676 0
M  V30 6895 H 639.684 -1.0997 5.89633 0
M  V30 6896 H 641.363 -0.815547 6.41839 0
M  V30 6897 N 641.495 -1.56914 -0.146875 0
M  V30 6898 C 642.911 -1.51582 -0.499518 0
M  V30 6899 C 643.111 -0.83535 -1.83369 0
M  V30 6900 O 642.167 -0.405932 -2.49216 0
M  V30 6901 C 643.48 -2.96349 -0.509711 0
M  V30 6902 C 645.028 -3.07288 -0.595217 0
M  V30 6903 C 645.503 -4.53562 -0.636071 0
M  V30 6904 N 646.994 -4.57906 -0.69829 0
M  V30 6905 C 647.729 -5.68462 -0.750886 0
M  V30 6906 N 647.225 -6.88588 -0.76282 0
M  V30 6907 N 649.018 -5.56496 -0.791777 0
M  V30 6908 H 641.169 -1.99547 0.727656 0
M  V30 6909 H 643.432 -0.910113 0.265327 0
M  V30 6910 H 643.138 -3.4939 0.402409 0
M  V30 6911 H 643.012 -3.52307 -1.34758 0
M  V30 6912 H 645.399 -2.54266 -1.49776 0
M  V30 6913 H 645.48 -2.54373 0.2698 0
M  V30 6914 H 645.124 -5.07222 0.262313 0
M  V30 6915 H 645.054 -5.04259 -1.51758 0
M  V30 6916 H 647.545 -3.71429 -0.696362 0
M  V30 6917 H 647.858 -7.68598 -0.804804 0
M  V30 6918 H 646.203 -6.91148 -0.730694 0
M  V30 6919 H 649.394 -4.61562 -0.779624 0
M  V30 6920 H 649.567 -6.42671 -0.829301 0
M  V30 6921 N 642.974 0.416227 -1.52004 0
M  V30 6922 C 644.251 1.17637 -1.56272 0
M  V30 6923 C 644.631 2.08352 -0.339493 0
M  V30 6924 O 643.979 2.1833 0.674124 0
M  V30 6925 C 644.189 1.95986 -2.88774 0
M  V30 6926 C 645.537 2.52299 -3.41512 0
M  V30 6927 O 646.561 2.06174 -2.90467 0
M  V30 6928 O 645.42 3.3648 -4.30631 0
M  V30 6929 H 642.514 0.536726 -0.629169 0
M  V30 6930 H 645.06 0.423583 -1.64329 0
M  V30 6931 H 643.832 1.29487 -3.69254 0
M  V30 6932 H 643.455 2.78285 -2.83978 0
M  V30 6933 N 644.452 1.42507 0.673017 0
M  V30 6934 C 645.701 1.42364 1.42883 0
M  V30 6935 C 646.014 0.0441598 1.9555 0
M  V30 6936 O 647.22 -0.0798679 2.71382 0
M  V30 6937 C 645.676 2.5043 2.58482 0
M  V30 6938 C 645.284 3.94392 2.12506 0
M  V30 6939 C 647.028 2.59455 3.35981 0
M  V30 6940 C 644.935 4.93964 3.25198 0
M  V30 6941 H 643.865 0.52951 0.536782 0
M  V30 6942 H 646.516 1.68422 0.728448 0
M  V30 6943 H 644.898 2.1754 3.30896 0
M  V30 6944 H 646.072 4.36645 1.47233 0
M  V30 6945 H 644.387 3.89233 1.4794 0
M  V30 6946 H 646.984 3.31025 4.19912 0
M  V30 6947 H 647.327 1.63869 3.82691 0
M  V30 6948 H 647.86 2.91549 2.70637 0
M  V30 6949 H 644.599 5.91034 2.83477 0
M  V30 6950 H 644.119 4.56341 3.89247 0
M  V30 6951 H 645.798 5.15763 3.90637 0
M  V30 6952 N 645.93 -0.909495 1.28709 0
M  V30 6953 C 647.177 -1.65905 1.16111 0
M  V30 6954 C 647.505 -1.92334 -0.289436 0
M  V30 6955 O 646.76 -1.52495 -1.22653 0
M  V30 6956 C 647.059 -3.02117 1.90945 0
M  V30 6957 C 646.725 -2.95332 3.40719 0
M  V30 6958 C 645.387 -2.93189 3.81567 0
M  V30 6959 C 647.739 -2.85264 4.36204 0
M  V30 6960 C 645.067 -2.78784 5.16233 0
M  V30 6961 C 647.419 -2.724 5.70948 0
M  V30 6962 C 646.083 -2.68617 6.11066 0
M  V30 6963 H 645.353 -0.60709 0.42488 0
M  V30 6964 H 648 -1.05932 1.59533 0
M  V30 6965 H 646.305 -3.65901 1.40085 0
M  V30 6966 H 648.002 -3.59026 1.7861 0
M  V30 6967 H 644.592 -2.97797 3.08245 0
M  V30 6968 H 648.776 -2.86005 4.05605 0
M  V30 6969 H 644.032 -2.74254 5.46438 0
M  V30 6970 H 648.206 -2.63579 6.44592 0
M  V30 6971 H 645.833 -2.57213 7.15364 0
M  V30 6972 N 647.408 -1.11026 -1.11852 0
M  V30 6973 C 648.656 -0.854769 -1.83134 0
M  V30 6974 C 648.977 0.621375 -1.84835 0
M  V30 6975 O 648.247 1.45129 -1.31584 0
M  V30 6976 H 646.827 -0.313229 -0.678157 0
M  V30 6977 H 649.489 -1.40178 -1.35411 0
M  V30 6978 H 648.585 -1.22311 -2.87135 0
M  V30 6979 N 648.886 1.2938 -0.899927 0
M  V30 6980 C 650.133 1.9555 -0.525963 0
M  V30 6981 C 650.461 1.70945 0.927789 0
M  V30 6982 O 649.716 1.01545 1.67293 0
M  V30 6983 C 650.015 3.49114 -0.765113 0
M  V30 6984 C 649.681 3.93796 -2.19626 0
M  V30 6985 C 648.343 4.05707 -2.58758 0
M  V30 6986 C 650.695 4.16883 -3.12823 0
M  V30 6987 C 648.023 4.38074 -3.90267 0
M  V30 6988 C 650.375 4.50725 -4.4388 0
M  V30 6989 C 649.039 4.60845 -4.82885 0
M  V30 6990 H 648.309 0.715569 -0.192463 0
M  V30 6991 H 650.956 1.53972 -1.13863 0
M  V30 6992 H 649.261 3.91738 -0.069531 0
M  V30 6993 H 650.958 3.98409 -0.455144 0
M  V30 6994 H 647.548 3.85042 -1.88256 0
M  V30 6995 H 651.732 4.07147 -2.83804 0
M  V30 6996 H 646.988 4.44112 -4.20207 0
M  V30 6997 H 651.162 4.67538 -5.16121 0
M  V30 6998 H 648.789 4.85681 -5.84823 0
M  V30 6999 N 650.364 0.662433 1.43002 0
M  V30 7000 C 651.613 0.176873 2.00923 0
M  V30 7001 C 651.926 -1.21954 1.52927 0
M  V30 7002 O 653.132 -1.80081 2.03182 0
M  V30 7003 C 651.588 0.265379 3.5892 0
M  V30 7004 C 651.196 1.66507 4.15908 0
M  V30 7005 C 652.94 -0.162103 4.2419 0
M  V30 7006 C 650.847 1.707 5.66229 0
M  V30 7007 H 649.777 0.0623627 0.751417 0
M  V30 7008 H 652.428 0.825813 1.63868 0
M  V30 7009 H 650.81 -0.451235 3.93421 0
M  V30 7010 H 651.984 2.40777 3.92891 0
M  V30 7011 H 650.299 2.03932 3.63044 0
M  V30 7012 H 652.896 -0.150745 5.34487 0
M  V30 7013 H 653.239 -1.19519 3.98774 0
M  V30 7014 H 653.772 0.503075 3.94606 0
M  V30 7015 H 650.511 2.7195 5.96426 0
M  V30 7016 H 650.031 1.00768 5.91275 0
M  V30 7017 H 651.71 1.45487 6.3043 0
M  V30 7018 N 651.842 -1.52309 0.404946 0
M  V30 7019 C 653.09 -2.01368 -0.17186 0
M  V30 7020 C 653.411 -1.29261 -1.46002 0
M  V30 7021 O 652.681 -0.41729 -1.91404 0
M  V30 7022 H 651.261 -0.744034 -0.0664993 0
M  V30 7023 H 653.923 -1.87263 0.540228 0
M  V30 7024 H 653.019 -3.09888 -0.370957 0
M  V30 7025 N 653.32 -0.135238 -1.57019 0
M  V30 7026 C 654.283 0.794707 -2.14981 0
M  V30 7027 C 655.283 1.18342 -1.08866 0
M  V30 7028 O 656.473 1.10627 -1.34563 0
M  V30 7029 C 653.605 2.07685 -2.70333 0
M  V30 7030 H 654.798 0.290696 -2.98488 0
M  V30 7031 H 652.351 0.114128 -1.55883 0
M  V30 7032 H 653.086 2.6248 -1.9046 0
M  V30 7033 H 652.871 1.80745 -3.47957 0
M  V30 7034 H 654.361 2.74127 -3.1503 0
M  V30 7035 N 654.798 1.5699 0.138552 0
M  V30 7036 C 656.023 1.88344 0.86841 0
M  V30 7037 C 656.448 0.725159 1.7356 0
M  V30 7038 O 655.806 -0.324992 1.78363 0
M  V30 7039 C 655.854 3.18334 1.69398 0
M  V30 7040 O 654.958 3.02863 2.79907 0
M  V30 7041 H 654.299 0.618577 0.241367 0
M  V30 7042 H 656.829 2.04207 0.126826 0
M  V30 7043 H 656.839 3.50567 2.08726 0
M  V30 7044 H 655.514 4.02238 1.05725 0
M  V30 7045 H 654.091 2.82056 2.43924 0
M  V30 7046 N 656.276 -0.40816 1.52223 0
M  V30 7047 C 657.239 -1.48 1.7501 0
M  V30 7048 C 658.239 -1.48367 0.619996 0
M  V30 7049 O 659.429 -1.49874 0.887881 0
M  V30 7050 C 656.561 -2.87403 1.83336 0
M  V30 7051 H 657.754 -1.29086 2.70697 0
M  V30 7052 H 655.307 -0.638715 1.42654 0
M  V30 7053 H 656.042 -3.11686 0.895677 0
M  V30 7054 H 655.827 -2.8854 2.65494 0
M  V30 7055 H 657.317 -3.65103 2.02705 0
M  V30 7056 N 657.755 -1.42862 -0.66545 0
M  V30 7057 C 658.718 -1.46756 -1.76055 0
M  V30 7058 C 659.718 -0.353866 -1.56858 0
M  V30 7059 O 660.908 -0.615099 -1.62979 0
M  V30 7060 C 658.04 -1.30829 -3.14796 0
M  V30 7061 H 659.233 -2.44271 -1.73987 0
M  V30 7062 H 656.786 -1.29447 -0.875965 0
M  V30 7063 H 657.521 -0.342733 -3.22484 0
M  V30 7064 H 657.306 -2.11551 -3.30134 0
M  V30 7065 H 658.796 -1.36458 -3.94676 0
M  V30 7066 N 659.233 0.902656 -1.29189 0
M  V30 7067 C 660.458 1.69167 -1.19989 0
M  V30 7068 C 660.883 1.86607 0.236495 0
M  V30 7069 O 660.241 1.38425 1.17082 0
M  V30 7070 C 660.289 3.05532 -1.91527 0
M  V30 7071 O 659.393 3.93621 -1.2303 0
M  V30 7072 H 658.734 0.517584 -0.415936 0
M  V30 7073 H 661.264 1.12785 -1.70706 0
M  V30 7074 H 661.274 3.55693 -1.99866 0
M  V30 7075 H 659.949 2.92156 -2.96003 0
M  V30 7076 H 658.526 3.52055 -1.22928 0
M  V30 7077 N 660.711 1.11618 1.11262 0
M  V30 7078 C 661.644 0.719995 2.16544 0
M  V30 7079 C 662.622 -0.28471 1.60088 0
M  V30 7080 O 663.806 -0.180693 1.87632 0
M  V30 7081 C 660.933 0.0643302 3.38639 0
M  V30 7082 C 659.979 1.03448 4.13764 0
M  V30 7083 S 660.812 2.55789 4.70459 0
M  V30 7084 C 661.968 1.91529 5.95875 0
M  V30 7085 H 662.201 1.61181 2.49816 0
M  V30 7086 H 659.734 0.934401 1.22916 0
M  V30 7087 H 661.692 -0.307609 4.09346 0
M  V30 7088 H 660.353 -0.804471 3.03623 0
M  V30 7089 H 659.546 0.523188 5.01277 0
M  V30 7090 H 659.148 1.34893 3.48826 0
M  V30 7091 H 661.44 1.25286 6.65815 0
M  V30 7092 H 662.383 2.77047 6.51652 0
M  V30 7093 H 662.791 1.37468 5.47506 0
M  V30 7094 N 662.189 -1.289 0.906776 0
M  V30 7095 C 663.119 -2.29932 0.406659 0
M  V30 7096 C 664.1 -1.6189 -0.522061 0
M  V30 7097 O 665.285 -1.8935 -0.431283 0
M  V30 7098 C 662.415 -3.45425 -0.360366 0
M  V30 7099 C 661.369 -4.25316 0.478574 0
M  V30 7100 C 660.695 -5.33076 -0.416373 0
M  V30 7101 C 661.995 -4.92739 1.7322 0
M  V30 7102 H 663.689 -2.72013 1.25097 0
M  V30 7103 H 661.235 -1.30768 0.602977 0
M  V30 7104 H 663.188 -4.15186 -0.721029 0
M  V30 7105 H 661.912 -3.02206 -1.23852 0
M  V30 7106 H 660.571 -3.57273 0.821662 0
M  V30 7107 H 660.219 -4.86101 -1.29287 0
M  V30 7108 H 659.919 -5.8743 0.141309 0
M  V30 7109 H 661.443 -6.05686 -0.773072 0
M  V30 7110 H 662.857 -5.54898 1.44086 0
M  V30 7111 H 661.254 -5.57057 2.23175 0
M  V30 7112 H 662.324 -4.17625 2.46408 0
M  V30 7113 N 663.667 -0.670007 -1.42649 0
M  V30 7114 C 664.916 -0.187526 -2.00826 0
M  V30 7115 C 665.229 1.21142 -1.53571 0
M  V30 7116 O 666.435 1.79001 -2.04134 0
M  V30 7117 C 664.891 -0.284409 -3.58774 0
M  V30 7118 C 664.499 -1.6871 -4.15019 0
M  V30 7119 C 666.243 0.139605 -4.2427 0
M  V30 7120 C 664.15 -1.73701 -5.65316 0
M  V30 7121 H 663.08 -0.0663468 -0.751075 0
M  V30 7122 H 665.731 -0.834492 -1.63427 0
M  V30 7123 H 664.113 0.430364 -3.93655 0
M  V30 7124 H 665.287 -2.42857 -3.91608 0
M  V30 7125 H 663.602 -2.05855 -3.61957 0
M  V30 7126 H 666.199 0.122398 -5.3456 0
M  V30 7127 H 666.542 1.17403 -3.99402 0
M  V30 7128 H 667.075 -0.523995 -3.94334 0
M  V30 7129 H 663.814 -2.75109 -5.94975 0
M  V30 7130 H 663.334 -1.03903 -5.90732 0
M  V30 7131 H 665.013 -1.48829 -6.2965 0
M  V30 7132 N 665.145 1.52092 -0.413018 0
M  V30 7133 C 666.392 2.01855 0.161497 0
M  V30 7134 C 666.72 1.29845 1.44812 0
M  V30 7135 O 665.975 0.394471 1.91683 0
M  V30 7136 C 666.274 3.54529 0.4521 0
M  V30 7137 C 665.94 4.4469 -0.745788 0
M  V30 7138 C 664.602 4.69053 -1.07435 0
M  V30 7139 C 666.954 4.97742 -1.54604 0
M  V30 7140 C 664.282 5.43717 -2.20429 0
M  V30 7141 C 666.634 5.73642 -2.66678 0
M  V30 7142 C 665.298 5.96277 -3.00016 0
M  V30 7143 H 664.568 0.73864 0.0590961 0
M  V30 7144 H 667.215 1.83274 -0.555234 0
M  V30 7145 H 665.52 3.7131 1.25045 0
M  V30 7146 H 667.217 3.90546 0.909647 0
M  V30 7147 H 663.807 4.25907 -0.479725 0
M  V30 7148 H 667.991 4.78824 -1.30543 0
M  V30 7149 H 663.247 5.59462 -2.46602 0
M  V30 7150 H 667.421 6.13746 -3.29072 0
M  V30 7151 H 665.048 6.53913 -3.87688 0
M  V30 7152 N 666.623 0.143563 1.56945 0
M  V30 7153 C 667.872 -0.50835 1.95189 0
M  V30 7154 C 668.185 -1.66239 1.03073 0
M  V30 7155 O 669.391 -2.3787 1.30882 0
M  V30 7156 C 667.847 -0.955735 3.46978 0
M  V30 7157 C 667.455 0.171183 4.47673 0
M  V30 7158 C 669.199 -1.57763 3.94095 0
M  V30 7159 C 667.106 -0.294279 5.90667 0
M  V30 7160 H 666.036 -0.193679 0.728701 0
M  V30 7161 H 668.687 0.227357 1.82086 0
M  V30 7162 H 667.069 -1.7466 3.55401 0
M  V30 7163 H 668.243 0.948049 4.50942 0
M  V30 7164 H 666.558 0.701273 4.10452 0
M  V30 7165 H 669.155 -1.93745 4.98364 0
M  V30 7166 H 669.498 -2.46531 3.35452 0
M  V30 7167 H 670.031 -0.851728 3.88575 0
M  V30 7168 H 666.77 0.557939 6.53121 0
M  V30 7169 H 666.29 -1.0371 5.90766 0
M  V30 7170 H 667.969 -0.747426 6.42668 0
M  V30 7171 N 668.101 -1.57061 -0.130224 0
M  V30 7172 C 669.031 -2.02552 -1.16168 0
M  V30 7173 C 670.012 -0.907971 -1.4384 0
M  V30 7174 O 671.197 -1.17693 -1.54473 0
M  V30 7175 C 668.327 -2.42035 -2.49071 0
M  V30 7176 C 667.281 -3.5713 -2.35886 0
M  V30 7177 C 666.607 -3.82478 -3.7365 0
M  V30 7178 C 667.907 -4.89236 -1.8288 0
M  V30 7179 H 669.601 -2.8897 -0.783359 0
M  V30 7180 H 667.147 -1.39021 -0.375376 0
M  V30 7181 H 669.1 -2.72462 -3.21469 0
M  V30 7182 H 667.824 -1.52573 -2.88771 0
M  V30 7183 H 666.483 -3.26895 -1.65938 0
M  V30 7184 H 666.131 -2.9024 -4.10816 0
M  V30 7185 H 665.831 -4.59944 -3.65685 0
M  V30 7186 H 667.355 -4.15347 -4.47571 0
M  V30 7187 H 668.769 -5.18272 -2.45085 0
M  V30 7188 H 667.166 -5.70624 -1.85763 0
M  V30 7189 H 668.236 -4.78494 -0.785571 0
M  V30 7190 N 669.579 0.400081 -1.52437 0
M  V30 7191 C 670.99 0.97851 -1.59003 0
M  V30 7192 C 671.341 1.91293 -0.436068 0
M  V30 7193 O 670.466 2.1183 0.442365 0
M  V30 7194 C 671.061 1.78145 -2.88184 0
M  V30 7195 C 669.62 2.30976 -2.97199 0
M  V30 7196 C 668.767 1.11212 -2.54022 0
M  V30 7197 H 671.718 0.180002 -1.57676 0
M  V30 7198 H 671.739 2.63968 -2.74046 0
M  V30 7199 H 671.251 1.1011 -3.72152 0
M  V30 7200 H 669.352 3.02355 -2.17744 0
M  V30 7201 H 669.465 2.61221 -4.01622 0
M  V30 7202 H 667.829 1.46882 -2.08081 0
M  V30 7203 H 668.612 0.447307 -3.40373 0
M  V30 7204 N 671.057 1.43213 0.657864 0
M  V30 7205 C 672.282 1.48227 1.45064 0
M  V30 7206 C 672.707 0.0999939 1.87834 0
M  V30 7207 O 672.065 -0.905269 1.57081 0
M  V30 7208 C 672.113 2.42931 2.6649 0
M  V30 7209 O 671.217 1.91237 3.6538 0
M  V30 7210 H 670.558 0.501551 0.435135 0
M  V30 7211 H 673.088 1.8808 0.805431 0
M  V30 7212 H 673.098 2.6008 3.1436 0
M  V30 7213 H 671.773 3.43348 2.34701 0
M  V30 7214 H 670.35 1.83726 3.24498 0
M  V30 7215 N 672.536 -0.895792 1.29666 0
M  V30 7216 C 673.499 -1.98189 1.15124 0
M  V30 7217 C 674.499 -1.60572 0.0855717 0
M  V30 7218 O 675.689 -1.70991 0.332826 0
M  V30 7219 C 672.821 -3.32289 0.761372 0
M  V30 7220 H 674.014 -2.12518 2.11603 0
M  V30 7221 H 671.567 -1.0808 1.12908 0
M  V30 7222 H 672.302 -3.23662 -0.203393 0
M  V30 7223 H 672.087 -3.60958 1.53139 0
M  V30 7224 H 673.577 -4.1198 0.682792 0
M  V30 7225 N 674.014 -1.12206 -1.10668 0
M  V30 7226 C 675.261 -0.875875 -1.82578 0
M  V30 7227 C 675.589 0.598342 -1.85068 0
M  V30 7228 O 674.844 1.45818 -1.3052 0
M  V30 7229 C 675.143 -1.39276 -3.29146 0
M  V30 7230 C 674.809 -2.8816 -3.46806 0
M  V30 7231 C 673.471 -3.28813 -3.51334 0
M  V30 7232 C 675.823 -3.8401 -3.52399 0
M  V30 7233 C 673.151 -4.64028 -3.59019 0
M  V30 7234 C 675.503 -5.19053 -3.61617 0
M  V30 7235 C 674.167 -5.59252 -3.64408 0
M  V30 7236 H 673.437 -0.320505 -0.6681 0
M  V30 7237 H 676.084 -1.40184 -1.30464 0
M  V30 7238 H 674.389 -0.787207 -3.8381 0
M  V30 7239 H 676.086 -1.17851 -3.83291 0
M  V30 7240 H 672.676 -2.55716 -3.43958 0
M  V30 7241 H 676.86 -3.53698 -3.48154 0
M  V30 7242 H 672.116 -4.94568 -3.59461 0
M  V30 7243 H 676.29 -5.93152 -3.64889 0
M  V30 7244 H 673.917 -6.64017 -3.70116 0
M  V30 7245 N 675.492 1.28418 -0.913599 0
M  V30 7246 C 676.722 1.98817 -0.56172 0
M  V30 7247 C 677.13 1.68457 0.861321 0
M  V30 7248 O 676.473 0.933653 1.58204 0
M  V30 7249 C 676.535 3.52801 -0.690785 0
M  V30 7250 C 676.199 4.0675 -2.08334 0
M  V30 7251 C 677.196 4.20597 -3.05604 0
M  V30 7252 C 674.881 4.41445 -2.39648 0
M  V30 7253 C 676.875 4.68392 -4.32305 0
M  V30 7254 C 674.562 4.88934 -3.66588 0
M  V30 7255 C 675.56 5.02364 -4.6273 0
M  V30 7256 O 675.248 5.48817 -5.87414 0
M  V30 7257 H 674.98 0.641608 -0.212874 0
M  V30 7258 H 677.534 1.64584 -1.22887 0
M  V30 7259 H 675.764 3.86686 0.0334336 0
M  V30 7260 H 677.453 4.04422 -0.346031 0
M  V30 7261 H 678.219 3.94067 -2.8273 0
M  V30 7262 H 674.098 4.30242 -1.65567 0
M  V30 7263 H 677.642 4.7879 -5.07352 0
M  V30 7264 H 673.539 5.14904 -3.89287 0
M  V30 7265 H 674.307 5.67103 -5.90201 0
M  V30 7266 N 676.97 0.677563 1.42291 0
M  V30 7267 C 678.219 0.198173 2.00724 0
M  V30 7268 C 678.532 -1.20325 1.54211 0
M  V30 7269 O 679.738 -1.77916 2.05081 0
M  V30 7270 C 678.194 0.303432 3.58619 0
M  V30 7271 C 677.802 1.70909 4.14119 0
M  V30 7272 C 679.546 -0.117103 4.24338 0
M  V30 7273 C 677.453 1.76696 5.64387 0
M  V30 7274 H 676.383 0.070329 0.750713 0
M  V30 7275 H 679.034 0.843147 1.62982 0
M  V30 7276 H 677.416 -0.409482 3.93877 0
M  V30 7277 H 678.59 2.44931 3.90315 0
M  V30 7278 H 676.905 2.07771 3.6086 0
M  V30 7279 H 679.502 -0.0940471 5.34617 0
M  V30 7280 H 679.845 -1.15283 4.00019 0
M  V30 7281 H 680.378 0.5449 3.9405 0
M  V30 7282 H 677.117 2.7826 5.93508 0
M  V30 7283 H 676.637 1.07034 5.90173 0
M  V30 7284 H 678.316 1.52166 6.28852 0
M  V30 7285 N 678.448 -1.51871 0.421078 0
M  V30 7286 C 679.395 -2.27334 -0.398508 0
M  V30 7287 C 680.365 -1.30241 -1.03085 0
M  V30 7288 O 681.55 -1.59121 -1.05285 0
M  V30 7289 C 678.69 -3.10664 -1.50272 0
M  V30 7290 C 677.803 -4.2273 -0.890122 0
M  V30 7291 C 676.938 -4.93399 -1.96803 0
M  V30 7292 C 675.977 -5.97409 -1.333 0
M  V30 7293 N 675.114 -6.61548 -2.35156 0
M  V30 7294 H 679.954 -2.96938 0.251411 0
M  V30 7295 H 677.491 -1.46472 0.135825 0
M  V30 7296 H 679.449 -3.57292 -2.15403 0
M  V30 7297 H 678.079 -2.43207 -2.1225 0
M  V30 7298 H 677.131 -3.80186 -0.127537 0
M  V30 7299 H 678.443 -4.97302 -0.386349 0
M  V30 7300 H 677.597 -5.43491 -2.69633 0
M  V30 7301 H 676.336 -4.18421 -2.50549 0
M  V30 7302 H 675.341 -5.46624 -0.59008 0
M  V30 7303 H 676.566 -6.74335 -0.803076 0
M  V30 7304 H 674.512 -5.89394 -2.88012 0
M  V30 7305 H 674.429 -7.31832 -1.89624 0
M  V30 7306 H 675.697 -7.16276 -3.0752 0
M  V30 7307 N 679.926 -0.151884 -1.56866 0
M  V30 7308 C 680.856 0.781943 -2.20018 0
M  V30 7309 C 681.837 1.25347 -1.14987 0
M  V30 7310 O 683.022 1.31015 -1.43348 0
M  V30 7311 C 680.152 2.01928 -2.82564 0
M  V30 7312 C 679.106 1.68434 -3.93464 0
M  V30 7313 C 678.432 2.99472 -4.42968 0
M  V30 7314 C 679.732 0.927244 -5.14003 0
M  V30 7315 H 681.426 0.255607 -2.98307 0
M  V30 7316 H 678.972 0.121502 -1.43486 0
M  V30 7317 H 680.925 2.67741 -3.25411 0
M  V30 7318 H 679.649 2.56943 -2.01614 0
M  V30 7319 H 678.308 1.04998 -3.51242 0
M  V30 7320 H 677.956 3.52488 -3.58834 0
M  V30 7321 H 677.656 2.77823 -5.17772 0
M  V30 7322 H 679.18 3.66348 -4.88489 0
M  V30 7323 H 680.594 1.48756 -5.53665 0
M  V30 7324 H 678.991 0.810513 -5.94601 0
M  V30 7325 H 680.061 -0.0801163 -4.84834 0
M  V30 7326 N 681.404 1.57128 0.121893 0
M  V30 7327 C 682.65 1.84974 0.831418 0
M  V30 7328 C 682.983 0.737204 1.79663 0
M  V30 7329 O 682.258 -0.257199 1.92792 0
M  V30 7330 C 682.541 3.23397 1.58386 0
M  V30 7331 C 682.394 4.45246 0.638445 0
M  V30 7332 C 683.713 3.59355 2.54071 0
M  V30 7333 H 680.832 0.67282 0.300803 0
M  V30 7334 H 683.474 1.89759 0.0957587 0
M  V30 7335 H 681.624 3.19449 2.21098 0
M  V30 7336 H 683.296 4.61295 0.0203925 0
M  V30 7337 H 681.539 4.33771 -0.05023 0
M  V30 7338 H 682.21 5.38765 1.20151 0
M  V30 7339 H 684.686 3.64075 2.01465 0
M  V30 7340 H 683.562 4.57193 3.03752 0
M  V30 7341 H 683.823 2.86622 3.36601 0
M  V30 7342 N 682.882 -0.391992 1.52647 0
M  V30 7343 C 683.829 -1.47866 1.77213 0
M  V30 7344 C 684.799 -1.54286 0.615223 0
M  V30 7345 O 685.984 -1.7059 0.854622 0
M  V30 7346 C 683.124 -2.85129 1.94411 0
M  V30 7347 C 682.237 -2.87883 3.22098 0
M  V30 7348 C 681.372 -4.16553 3.29631 0
M  V30 7349 C 680.411 -4.13348 4.51453 0
M  V30 7350 N 679.548 -5.33619 4.56284 0
M  V30 7351 H 684.388 -1.26219 2.6995 0
M  V30 7352 H 681.925 -0.612367 1.33748 0
M  V30 7353 H 683.883 -3.64833 2.02367 0
M  V30 7354 H 682.513 -3.05232 1.05038 0
M  V30 7355 H 681.565 -2.00567 3.23229 0
M  V30 7356 H 682.877 -2.81382 4.11856 0
M  V30 7357 H 682.031 -5.0466 3.36753 0
M  V30 7358 H 680.77 -4.25773 2.37842 0
M  V30 7359 H 679.775 -3.23629 4.44459 0
M  V30 7360 H 681 -4.05754 5.44555 0
M  V30 7361 H 678.946 -5.43474 3.67385 0
M  V30 7362 H 678.863 -5.29182 5.3991 0
M  V30 7363 H 680.131 -6.23632 4.67657 0
M  V30 7364 N 684.36 -1.4356 -0.65026 0
M  V30 7365 C 685.307 -1.48948 -1.76304 0
M  V30 7366 C 686.277 -0.338919 -1.62605 0
M  V30 7367 O 687.462 -0.54649 -1.82806 0
M  V30 7368 C 684.602 -1.42131 -3.14472 0
M  V30 7369 C 683.715 -2.67415 -3.39284 0
M  V30 7370 C 682.85 -2.52565 -4.67316 0
M  V30 7371 C 681.889 -3.73103 -4.85243 0
M  V30 7372 N 681.026 -3.57046 -6.04535 0
M  V30 7373 H 685.866 -2.44032 -1.71034 0
M  V30 7374 H 683.403 -1.21131 -0.834601 0
M  V30 7375 H 685.361 -1.36172 -3.94351 0
M  V30 7376 H 683.991 -0.506273 -3.18805 0
M  V30 7377 H 683.043 -2.8364 -2.53481 0
M  V30 7378 H 684.355 -3.56943 -3.48415 0
M  V30 7379 H 683.509 -2.44331 -5.55326 0
M  V30 7380 H 682.248 -1.60566 -4.60511 0
M  V30 7381 H 681.253 -3.81743 -3.95667 0
M  V30 7382 H 682.478 -4.66115 -4.93876 0
M  V30 7383 H 680.424 -2.67783 -5.98856 0
M  V30 7384 H 680.341 -4.40178 -6.14638 0
M  V30 7385 H 681.609 -3.52669 -6.95158 0
M  V30 7386 N 685.838 0.888903 -1.30139 0
M  V30 7387 C 686.748 2.02705 -1.18101 0
M  V30 7388 C 687.764 1.73702 -0.101809 0
M  V30 7389 O 688.94 1.98906 -0.315984 0
M  V30 7390 C 686.005 3.35616 -0.869651 0
M  V30 7391 C 685.066 3.78067 -2.03381 0
M  V30 7392 C 684.299 5.04635 -1.73721 0
M  V30 7393 O 684.522 5.66531 -0.663267 0
M  V30 7394 O 683.456 5.43399 -2.58845 0
M  V30 7395 H 687.282 2.15788 -2.13704 0
M  V30 7396 H 684.867 1.01426 -1.09695 0
M  V30 7397 H 686.749 4.15358 -0.711043 0
M  V30 7398 H 685.424 3.23651 0.0565002 0
M  V30 7399 H 684.331 2.99046 -2.24772 0
M  V30 7400 H 685.664 3.94631 -2.94155 0
M  V30 7401 N 687.317 1.12792 1.10072 0
M  V30 7402 C 688.728 0.899346 1.63611 0
M  V30 7403 C 689.079 -0.565547 1.87872 0
M  V30 7404 O 688.204 -1.43081 1.62348 0
M  V30 7405 C 688.799 1.62608 2.97227 0
M  V30 7406 C 687.358 1.44356 3.47618 0
M  V30 7407 C 686.505 1.65958 2.22156 0
M  V30 7408 H 689.456 1.28216 0.935223 0
M  V30 7409 H 689.477 1.0793 3.64872 0
M  V30 7410 H 688.989 2.69221 2.79538 0
M  V30 7411 H 687.09 0.400148 3.70445 0
M  V30 7412 H 687.203 2.20218 4.25489 0
M  V30 7413 H 685.567 1.08395 2.30484 0
M  V30 7414 H 686.35 2.73877 2.06993 0
M  V30 7415 N 688.795 -1.27931 0.920396 0
M  V30 7416 C 689.728 -2.2537 0.358285 0
M  V30 7417 C 690.706 -1.53328 -0.541242 0
M  V30 7418 O 691.89 -1.82196 -0.483399 0
M  V30 7419 C 689.017 -3.35178 -0.487193 0
M  V30 7420 C 688.063 -4.25079 0.347881 0
M  V30 7421 S 688.896 -5.05792 1.75883 0
M  V30 7422 C 690.052 -6.19089 0.920832 0
M  V30 7423 H 690.285 -2.72701 1.18413 0
M  V30 7424 H 687.818 -1.36474 0.722088 0
M  V30 7425 H 689.776 -3.98895 -0.96916 0
M  V30 7426 H 688.437 -2.865 -1.28749 0
M  V30 7427 H 687.63 -5.03113 -0.298912 0
M  V30 7428 H 687.232 -3.66119 0.763748 0
M  V30 7429 H 689.524 -6.77326 0.15349 0
M  V30 7430 H 690.467 -6.8803 1.67394 0
M  V30 7431 H 690.875 -5.62573 0.466069 0
M  V30 7432 N 690.273 -0.685099 -1.4193 0
M  V30 7433 C 691.22 -0.0131869 -2.30796 0
M  V30 7434 C 692.19 0.782129 -1.46533 0
M  V30 7435 O 693.375 0.75229 -1.75343 0
M  V30 7436 C 690.515 0.924768 -3.32479 0
M  V30 7437 C 689.628 0.122181 -4.31827 0
M  V30 7438 C 688.763 1.05682 -5.20581 0
M  V30 7439 C 687.802 0.246526 -6.11603 0
M  V30 7440 N 686.939 1.13442 -6.92875 0
M  V30 7441 H 691.779 -0.776789 -2.87698 0
M  V30 7442 H 689.316 -0.394791 -1.41703 0
M  V30 7443 H 691.274 1.48251 -3.89971 0
M  V30 7444 H 689.904 1.65488 -2.77152 0
M  V30 7445 H 688.956 -0.552335 -3.76369 0
M  V30 7446 H 690.268 -0.506473 -4.96222 0
M  V30 7447 H 689.422 1.68415 -5.82856 0
M  V30 7448 H 688.161 1.71935 -4.56388 0
M  V30 7449 H 687.166 -0.393944 -5.48387 0
M  V30 7450 H 688.391 -0.412053 -6.77849 0
M  V30 7451 H 686.337 1.78316 -6.313 0
M  V30 7452 H 686.254 0.561089 -7.53915 0
M  V30 7453 H 687.522 1.74889 -7.59628 0
M  V30 7454 N 691.751 1.51645 -0.429126 0
M  V30 7455 C 692.976 2.06917 0.141399 0
M  V30 7456 C 693.401 1.29527 1.36398 0
M  V30 7457 O 692.759 0.33094 1.78254 0
M  V30 7458 C 692.807 3.57776 0.4504 0
M  V30 7459 O 691.911 3.82639 1.53821 0
M  V30 7460 H 691.252 0.663978 0.0054647 0
M  V30 7461 H 693.782 1.95355 -0.608093 0
M  V30 7462 H 693.792 4.01894 0.703249 0
M  V30 7463 H 692.467 4.13532 -0.443213 0
M  V30 7464 H 691.044 3.5039 1.27597 0
M  V30 7465 N 693.229 0.160201 1.56784 0
M  V30 7466 C 694.475 -0.48831 1.96833 0
M  V30 7467 C 694.808 -1.63641 1.04571 0
M  V30 7468 O 694.083 -1.94289 0.0906481 0
M  V30 7469 C 694.366 -0.981908 3.46454 0
M  V30 7470 C 694.219 0.165607 4.49495 0
M  V30 7471 C 695.538 -1.85931 3.98896 0
M  V30 7472 H 692.657 -0.176027 0.71567 0
M  V30 7473 H 695.299 0.244093 1.88426 0
M  V30 7474 H 693.449 -1.60602 3.5375 0
M  V30 7475 H 695.121 0.802372 4.54268 0
M  V30 7476 H 693.364 0.822789 4.25926 0
M  V30 7477 H 694.035 -0.221699 5.51555 0
M  V30 7478 H 696.511 -1.33327 3.94161 0
M  V30 7479 H 695.387 -2.17373 5.04024 0
M  V30 7480 H 695.648 -2.80106 3.42042 0
M  V30 7481 N 694.707 -1.5719 -0.113559 0
M  V30 7482 C 695.639 -1.97393 -1.16484 0
M  V30 7483 C 696.652 -0.873964 -1.37352 0
M  V30 7484 O 697.841 -1.15222 -1.36331 0
M  V30 7485 C 694.941 -2.26174 -2.52386 0
M  V30 7486 C 694.114 -3.57479 -2.52046 0
M  V30 7487 C 693.173 -3.74409 -3.69735 0
M  V30 7488 O 692.199 -4.46463 -3.53071 0
M  V30 7489 N 693.401 -3.13588 -4.88511 0
M  V30 7490 H 696.166 -2.88184 -0.822814 0
M  V30 7491 H 693.727 -1.59044 -0.302769 0
M  V30 7492 H 695.719 -2.3471 -3.29687 0
M  V30 7493 H 694.289 -1.41483 -2.7875 0
M  V30 7494 H 693.509 -3.60081 -1.60421 0
M  V30 7495 H 694.797 -4.43775 -2.48881 0
M  V30 7496 H 694.195 -2.55026 -5.04953 0
M  V30 7497 H 692.752 -3.27637 -5.63469 0
M  V30 7498 N 696.185 0.383891 -1.52853 0
M  V30 7499 C 697.132 1.46924 -1.77995 0
M  V30 7500 C 698.102 1.53958 -0.623396 0
M  V30 7501 O 699.287 1.70134 -0.863657 0
M  V30 7502 C 696.427 2.84093 -1.95921 0
M  V30 7503 C 695.54 2.86171 -3.23621 0
M  V30 7504 C 694.675 4.14799 -3.31836 0
M  V30 7505 C 693.714 4.10948 -4.53639 0
M  V30 7506 N 692.851 5.31192 -4.59107 0
M  V30 7507 H 697.691 1.24786 -2.70615 0
M  V30 7508 H 695.228 0.605265 -1.34071 0
M  V30 7509 H 697.186 3.63755 -2.04299 0
M  V30 7510 H 695.816 3.04671 -1.06656 0
M  V30 7511 H 694.868 1.9885 -3.24288 0
M  V30 7512 H 696.18 2.79194 -4.13343 0
M  V30 7513 H 695.334 5.02867 -3.39425 0
M  V30 7514 H 694.073 4.24505 -2.40097 0
M  V30 7515 H 693.078 3.21268 -4.46169 0
M  V30 7516 H 694.303 4.0286 -5.467 0
M  V30 7517 H 692.249 5.41518 -3.70262 0
M  V30 7518 H 692.166 5.26311 -5.42708 0
M  V30 7519 H 693.434 6.21143 -4.70958 0
M  V30 7520 N 697.663 1.43903 0.642637 0
M  V30 7521 C 698.912 1.45362 1.39831 0
M  V30 7522 C 699.225 0.0856289 1.95412 0
M  V30 7523 O 700.431 -0.0222856 2.71491 0
M  V30 7524 C 698.887 2.55857 2.53111 0
M  V30 7525 C 698.495 3.98811 2.04092 0
M  V30 7526 C 700.239 2.66524 3.30402 0
M  V30 7527 C 698.146 5.00751 3.14647 0
M  V30 7528 H 697.076 0.540777 0.52543 0
M  V30 7529 H 699.727 1.69929 0.692559 0
M  V30 7530 H 698.109 2.2451 3.26207 0
M  V30 7531 H 699.283 4.3967 1.37938 0
M  V30 7532 H 697.598 3.92284 1.39651 0
M  V30 7533 H 700.195 3.39858 4.12796 0
M  V30 7534 H 700.538 1.71949 3.79129 0
M  V30 7535 H 701.071 2.97224 2.64392 0
M  V30 7536 H 697.81 5.96914 2.70876 0
M  V30 7537 H 697.33 4.64495 3.79479 0
M  V30 7538 H 699.009 5.23933 3.79609 0
M  V30 7539 N 699.141 -0.881989 1.30609 0
M  V30 7540 C 700.389 -1.63082 1.19368 0
M  V30 7541 C 700.71 -1.93376 -0.251147 0
M  V30 7542 O 699.98 -1.5723 -1.16857 0
M  V30 7543 H 698.56 -0.604542 0.438791 0
M  V30 7544 H 701.222 -1.05658 1.63776 0
M  V30 7545 H 700.318 -2.57966 1.7567 0
M  V30 7546 N 700.619 -1.13374 -1.09472 0
M  V30 7547 C 701.582 -0.813639 -2.14272 0
M  V30 7548 C 702.582 0.176677 -1.59826 0
M  V30 7549 O 703.772 -0.0503441 -1.74127 0
M  V30 7550 C 700.904 -0.210897 -3.40247 0
M  V30 7551 H 702.097 -1.74229 -2.44099 0
M  V30 7552 H 699.65 -0.938304 -1.25002 0
M  V30 7553 H 700.385 0.726998 -3.16046 0
M  V30 7554 H 700.17 -0.924048 -3.81056 0
M  V30 7555 H 701.66 -0.00377603 -4.176 0
M  V30 7556 N 702.098 1.27442 -0.927168 0
M  V30 7557 C 703.028 2.29256 -0.443188 0
M  V30 7558 C 704.009 1.62701 0.49624 0
M  V30 7559 O 705.194 1.90013 0.401105 0
M  V30 7560 C 702.324 3.45955 0.305366 0
M  V30 7561 C 701.278 4.24501 -0.546178 0
M  V30 7562 C 700.604 5.33671 0.331512 0
M  V30 7563 C 701.904 4.89921 -1.81037 0
M  V30 7564 H 703.598 2.69988 -1.29409 0
M  V30 7565 H 701.144 1.29792 -0.623705 0
M  V30 7566 H 703.097 4.1628 0.654885 0
M  V30 7567 H 701.821 3.04138 1.19029 0
M  V30 7568 H 700.48 3.55921 -0.878398 0
M  V30 7569 H 700.128 4.88096 1.21537 0
M  V30 7570 H 699.828 5.87131 -0.234746 0
M  V30 7571 H 701.352 6.0684 0.676614 0
M  V30 7572 H 702.766 5.52536 -1.52895 0
M  V30 7573 H 701.163 5.53436 -2.32009 0
M  V30 7574 H 702.233 4.13652 -2.53021 0
M  V30 7575 N 703.576 0.692616 1.41565 0
M  V30 7576 C 704.823 0.222335 2.01276 0
M  V30 7577 C 705.151 -1.17706 1.5484 0
M  V30 7578 O 704.406 -1.80795 0.749118 0
M  V30 7579 C 704.705 0.225073 3.56691 0
M  V30 7580 C 704.371 1.57158 4.22625 0
M  V30 7581 C 703.033 1.94022 4.40351 0
M  V30 7582 C 705.385 2.45758 4.59622 0
M  V30 7583 C 702.713 3.19076 4.92349 0
M  V30 7584 C 705.065 3.70141 5.13009 0
M  V30 7585 C 703.729 4.07152 5.28946 0
M  V30 7586 H 702.999 0.0813581 0.73652 0
M  V30 7587 H 705.646 0.891123 1.69503 0
M  V30 7588 H 703.951 -0.527259 3.88236 0
M  V30 7589 H 705.648 -0.156283 4.00695 0
M  V30 7590 H 702.238 1.27486 4.09201 0
M  V30 7591 H 706.422 2.18558 4.45585 0
M  V30 7592 H 701.678 3.4775 5.02872 0
M  V30 7593 H 705.852 4.38983 5.40617 0
M  V30 7594 H 703.479 5.04125 5.69001 0
M  V30 7595 N 705.054 -1.51416 0.437162 0
M  V30 7596 C 706.301 -2.02086 -0.129364 0
M  V30 7597 C 706.629 -1.32133 -1.42728 0
M  V30 7598 O 705.884 -0.424916 -1.91031 0
M  V30 7599 C 706.183 -3.55203 -0.39564 0
M  V30 7600 C 705.849 -4.43447 0.81644 0
M  V30 7601 C 704.511 -4.67285 1.14884 0
M  V30 7602 C 706.863 -4.95219 1.62503 0
M  V30 7603 C 704.191 -5.40141 2.29052 0
M  V30 7604 C 706.543 -5.69327 2.7577 0
M  V30 7605 C 705.207 -5.91429 3.09464 0
M  V30 7606 H 704.477 -0.739486 -0.0473375 0
M  V30 7607 H 707.124 -1.82368 0.584321 0
M  V30 7608 H 705.429 -3.73252 -1.19121 0
M  V30 7609 H 707.126 -3.91944 -0.847399 0
M  V30 7610 H 703.716 -4.2509 0.547422 0
M  V30 7611 H 707.9 -4.76686 1.38144 0
M  V30 7612 H 703.156 -5.55468 2.55471 0
M  V30 7613 H 707.33 -6.08433 3.38795 0
M  V30 7614 H 704.957 -6.47662 3.98042 0
M  V30 7615 N 706.532 -0.168513 -1.56696 0
M  V30 7616 C 707.462 0.758563 -2.20835 0
M  V30 7617 C 708.443 1.24121 -1.1631 0
M  V30 7618 O 709.628 1.29487 -1.4473 0
M  V30 7619 C 706.758 1.9892 -2.8469 0
M  V30 7620 C 705.712 1.64252 -3.95228 0
M  V30 7621 C 705.038 2.94757 -4.46119 0
M  V30 7622 C 706.338 0.872675 -5.14958 0
M  V30 7623 H 708.032 0.223953 -2.98561 0
M  V30 7624 H 705.578 0.106277 -1.43607 0
M  V30 7625 H 707.531 2.64275 -3.28233 0
M  V30 7626 H 706.255 2.5479 -2.04327 0
M  V30 7627 H 704.914 1.01266 -3.52336 0
M  V30 7628 H 704.562 3.48662 -3.62552 0
M  V30 7629 H 704.262 2.72316 -5.2069 0
M  V30 7630 H 705.786 3.61147 -4.92347 0
M  V30 7631 H 707.2 1.42875 -5.55211 0
M  V30 7632 H 705.597 0.747402 -5.95428 0
M  V30 7633 H 706.667 -0.131535 -4.84722 0
M  V30 7634 N 708.01 1.57248 0.105221 0
M  V30 7635 C 708.94 2.04374 1.12931 0
M  V30 7636 C 709.921 0.93074 1.42377 0
M  V30 7637 O 711.106 1.20136 1.52581 0
M  V30 7638 C 708.236 2.45967 2.45189 0
M  V30 7639 C 707.19 3.60838 2.30174 0
M  V30 7640 C 706.516 3.88374 3.67518 0
M  V30 7641 C 707.816 4.92084 1.75073 0
M  V30 7642 H 709.51 2.9018 0.737287 0
M  V30 7643 H 707.056 1.39601 0.353211 0
M  V30 7644 H 709.009 2.77542 3.17094 0
M  V30 7645 H 707.733 1.57148 2.86308 0
M  V30 7646 H 706.392 3.29493 1.60716 0
M  V30 7647 H 706.04 2.96739 4.06147 0
M  V30 7648 H 705.74 4.65703 3.58321 0
M  V30 7649 H 707.264 4.22415 4.40906 0
M  V30 7650 H 708.678 5.22106 2.36809 0
M  V30 7651 H 707.075 5.73507 1.76662 0
M  V30 7652 H 708.145 4.79684 0.709347 0
M  V30 7653 N 709.488 -0.375779 1.53054 0
M  V30 7654 C 710.713 -1.14484 1.7294 0
M  V30 7655 C 711.138 -1.82572 0.452668 0
M  V30 7656 O 710.496 -1.71343 -0.592567 0
M  V30 7657 C 710.544 -2.15857 2.88857 0
M  V30 7658 O 709.648 -3.22725 2.56753 0
M  V30 7659 H 708.989 -0.332666 0.574656 0
M  V30 7660 H 711.519 -0.436025 1.999 0
M  V30 7661 H 711.529 -2.59631 3.14731 0
M  V30 7662 H 710.204 -1.65689 3.81471 0
M  V30 7663 H 708.781 -2.83996 2.41663 0
M  V30 7664 N 710.966 -1.44241 -0.634997 0
M  V30 7665 C 712.214 -1.46531 -1.39187 0
M  V30 7666 C 712.535 -0.0976441 -1.94755 0
M  V30 7667 O 711.805 0.869528 -1.75545 0
M  V30 7668 H 710.385 -0.539544 -0.516625 0
M  V30 7669 H 713.047 -1.79989 -0.747655 0
M  V30 7670 H 712.143 -2.18848 -2.22513 0
M  V30 7671 N 712.444 0.87505 -1.31075 0
M  V30 7672 C 713.69 1.63009 -1.20647 0
M  V30 7673 C 714.023 1.9276 0.236045 0
M  V30 7674 O 713.298 1.55559 1.16754 0
M  V30 7675 C 713.581 2.96357 -2.0456 0
M  V30 7676 C 713.434 2.73516 -3.57084 0
M  V30 7677 C 714.753 3.974 -1.89107 0
M  V30 7678 H 711.872 0.591518 -0.439631 0
M  V30 7679 H 714.514 1.0119 -1.60812 0
M  V30 7680 H 712.664 3.49119 -1.70435 0
M  V30 7681 H 714.336 2.27465 -4.01319 0
M  V30 7682 H 712.579 2.0784 -3.80769 0
M  V30 7683 H 713.25 3.68377 -4.11099 0
M  V30 7684 H 715.726 3.5383 -2.18961 0
M  V30 7685 H 714.602 4.88596 -2.5013 0
M  V30 7686 H 714.863 4.33794 -0.85296 0
M  V30 7687 N 713.922 1.13953 1.08869 0
M  V30 7688 C 714.852 0.844824 2.17681 0
M  V30 7689 C 715.833 -0.198213 1.68941 0
M  V30 7690 O 717.018 -0.0559073 1.9412 0
M  V30 7691 C 714.148 0.316325 3.45856 0
M  V30 7692 C 713.102 1.29426 4.07962 0
M  V30 7693 C 712.428 0.625275 5.31031 0
M  V30 7694 C 713.728 2.65484 4.49795 0
M  V30 7695 H 715.422 1.75471 2.42591 0
M  V30 7696 H 712.968 0.845116 1.16592 0
M  V30 7697 H 714.921 0.0977876 4.21287 0
M  V30 7698 H 713.645 -0.628972 3.20486 0
M  V30 7699 H 712.304 1.49889 3.34558 0
M  V30 7700 H 711.952 -0.325678 5.01945 0
M  V30 7701 H 711.652 1.27777 5.73539 0
M  V30 7702 H 713.176 0.416152 6.0918 0
M  V30 7703 H 714.59 2.48957 5.16424 0
M  V30 7704 H 712.987 3.26963 5.03205 0
M  V30 7705 H 714.057 3.22717 3.61914 0
M  V30 7706 N 715.4 -1.26948 0.933913 0
M  V30 7707 C 716.646 -1.94374 0.57848 0
M  V30 7708 C 716.979 -1.73166 -0.879048 0
M  V30 7709 O 716.254 -1.06438 -1.62792 0
M  V30 7710 C 716.537 -3.4834 0.912739 0
M  V30 7711 C 716.39 -3.78866 2.42448 0
M  V30 7712 C 717.709 -4.38062 0.423003 0
M  V30 7713 H 714.828 -0.705959 0.211639 0
M  V30 7714 H 717.47 -1.49951 1.16682 0
M  V30 7715 H 715.62 -3.86309 0.412058 0
M  V30 7716 H 717.292 -3.50654 2.99733 0
M  V30 7717 H 715.535 -3.25198 2.87104 0
M  V30 7718 H 716.206 -4.86458 2.60887 0
M  V30 7719 H 718.682 -4.0728 0.852191 0
M  V30 7720 H 717.558 -5.44599 0.685776 0
M  V30 7721 H 717.819 -4.36886 -0.676994 0
M  V30 7722 N 716.879 -0.700114 -1.41195 0
M  V30 7723 C 717.812 0.0129614 -2.28196 0
M  V30 7724 C 718.79 0.783367 -1.42486 0
M  V30 7725 O 719.974 0.773238 -1.71911 0
M  V30 7726 C 717.101 1.02575 -3.22794 0
M  V30 7727 C 716.147 0.347977 -4.25078 0
M  V30 7728 S 716.98 -0.912938 -5.27661 0
M  V30 7729 C 718.136 0.0981362 -6.25823 0
M  V30 7730 H 718.369 -0.724927 -2.88326 0
M  V30 7731 H 715.902 -0.490554 -1.464 0
M  V30 7732 H 717.86 1.60491 -3.77826 0
M  V30 7733 H 716.521 1.73624 -2.61751 0
M  V30 7734 H 715.714 1.11305 -4.91556 0
M  V30 7735 H 715.316 -0.15823 -3.73665 0
M  V30 7736 H 717.608 0.949965 -6.70807 0
M  V30 7737 H 718.551 -0.532838 -7.06092 0
M  V30 7738 H 718.959 0.454944 -5.62664 0
M  V30 7739 N 718.357 1.51182 -0.445186 0
M  V30 7740 C 719.585 2.06568 0.117091 0
M  V30 7741 C 720 1.31182 1.35781 0
M  V30 7742 O 719.357 0.373605 1.78635 0
M  V30 7743 C 719.408 3.58917 0.431408 0
M  V30 7744 O 719.129 4.31456 -0.760078 0
M  V30 7745 C 720.63 4.30843 1.0435 0
M  V30 7746 H 717.85 0.670985 0.00444436 0
M  V30 7747 H 720.394 1.94666 -0.626525 0
M  V30 7748 H 718.549 3.70708 1.12493 0
M  V30 7749 H 718.963 5.22215 -0.489048 0
M  V30 7750 H 720.437 5.38499 1.21337 0
M  V30 7751 H 720.914 3.89644 2.02667 0
M  V30 7752 H 721.52 4.23516 0.38913 0
M  V30 7753 N 719.835 0.176821 1.56605 0
M  V30 7754 C 721.083 -0.465793 1.96659 0
M  V30 7755 C 721.404 -1.63406 1.06412 0
M  V30 7756 O 720.674 -1.95457 0.131603 0
M  V30 7757 H 719.254 -0.175072 0.726195 0
M  V30 7758 H 721.916 0.25929 1.93168 0
M  V30 7759 H 721.012 -0.822138 3.01077 0
M  V30 7760 N 721.313 -1.57302 -0.09688 0
M  V30 7761 C 722.538 -1.9058 -0.818169 0
M  V30 7762 C 722.963 -0.770921 -1.71576 0
M  V30 7763 O 722.321 0.277588 -1.79162 0
M  V30 7764 C 722.369 -3.22714 -1.60898 0
M  V30 7765 O 721.473 -3.10178 -2.71779 0
M  V30 7766 H 720.814 -0.624759 -0.224882 0
M  V30 7767 H 723.344 -2.04471 -0.07264 0
M  V30 7768 H 723.354 -3.55978 -1.99358 0
M  V30 7769 H 722.029 -4.04899 -0.950227 0
M  V30 7770 H 720.606 -2.88424 -2.3636 0
M  V30 7771 N 722.791 0.367657 -1.53252 0
M  V30 7772 C 723.724 1.47264 -1.74323 0
M  V30 7773 C 724.702 1.51458 -0.591535 0
M  V30 7774 O 725.886 1.69542 -0.823883 0
M  V30 7775 C 723.013 2.85637 -1.82015 0
M  V30 7776 C 722.059 2.99176 -3.03967 0
M  V30 7777 S 722.892 2.68147 -4.63527 0
M  V30 7778 C 724.048 4.08673 -4.74065 0
M  V30 7779 H 724.281 1.29169 -2.67773 0
M  V30 7780 H 721.814 0.561866 -1.43814 0
M  V30 7781 H 723.772 3.65365 -1.87132 0
M  V30 7782 H 722.433 3.01043 -0.896195 0
M  V30 7783 H 721.626 4.00511 -3.05953 0
M  V30 7784 H 721.228 2.27367 -2.96952 0
M  V30 7785 H 723.52 5.02889 -4.53992 0
M  V30 7786 H 724.463 4.11693 -5.7612 0
M  V30 7787 H 724.871 3.95576 -4.02716 0
M  V30 7788 N 724.269 1.44576 0.627338 0
M  V30 7789 C 725.232 1.51372 1.72102 0
M  V30 7790 C 726.232 0.395329 1.55865 0
M  V30 7791 O 727.422 0.658094 1.61291 0
M  V30 7792 C 724.554 1.39129 3.11217 0
M  V30 7793 H 725.747 2.48798 1.6745 0
M  V30 7794 H 723.3 1.31724 0.841336 0
M  V30 7795 H 724.035 0.428114 3.21462 0
M  V30 7796 H 723.82 2.20229 3.24409 0
M  V30 7797 H 725.31 1.46874 3.90919 0
M  V30 7798 N 725.747 -0.868086 1.31537 0
M  V30 7799 C 726.677 -1.99131 1.21939 0
M  V30 7800 C 727.658 -1.69768 0.106166 0
M  V30 7801 O 728.843 -1.92006 0.291081 0
M  V30 7802 C 725.973 -3.34676 0.927879 0
M  V30 7803 C 724.927 -3.7835 2.00088 0
M  V30 7804 C 724.253 -5.11375 1.56203 0
M  V30 7805 C 725.553 -3.95256 3.41424 0
M  V30 7806 H 727.247 -2.07419 2.15911 0
M  V30 7807 H 724.793 -0.996569 1.03945 0
M  V30 7808 H 726.746 -4.12793 0.847327 0
M  V30 7809 H 725.47 -3.26565 -0.0475042 0
M  V30 7810 H 724.129 -3.02474 2.07135 0
M  V30 7811 H 723.777 -4.99709 0.57445 0
M  V30 7812 H 723.477 -5.41568 2.27985 0
M  V30 7813 H 725.001 -5.92001 1.49558 0
M  V30 7814 H 726.415 -4.63764 3.3704 0
M  V30 7815 H 724.812 -4.36849 4.1144 0
M  V30 7816 H 725.882 -2.98579 3.82072 0
M  V30 7817 N 727.225 -1.14528 -1.08264 0
M  V30 7818 C 728.474 -0.908992 -1.80056 0
M  V30 7819 C 728.787 0.565859 -1.87236 0
M  V30 7820 O 729.993 0.919454 -2.55457 0
M  V30 7821 C 728.449 -1.57681 -3.23519 0
M  V30 7822 C 728.057 -3.08803 -3.24569 0
M  V30 7823 C 729.801 -1.4217 -3.99985 0
M  V30 7824 C 727.708 -3.68414 -4.62629 0
M  V30 7825 H 726.638 -0.336432 -0.674781 0
M  V30 7826 H 729.289 -1.37437 -1.21587 0
M  V30 7827 H 727.671 -1.03911 -3.82124 0
M  V30 7828 H 728.845 -3.69252 -2.75663 0
M  V30 7829 H 727.16 -3.23968 -2.61598 0
M  V30 7830 H 729.757 -1.84106 -5.02005 0
M  V30 7831 H 730.1 -0.367989 -4.1467 0
M  V30 7832 H 730.633 -1.92984 -3.47853 0
M  V30 7833 H 727.372 -4.73644 -4.53147 0
M  V30 7834 H 726.892 -3.12746 -5.11811 0
M  V30 7835 H 728.571 -3.68793 -5.31602 0
M  V30 7836 N 728.703 1.26451 -0.940633 0
M  V30 7837 C 729.949 1.94065 -0.58878 0
M  V30 7838 C 730.282 1.7363 0.869853 0
M  V30 7839 O 729.557 1.073 1.62225 0
M  V30 7840 C 729.84 3.47852 -0.931199 0
M  V30 7841 C 729.693 3.77575 -2.44453 0
M  V30 7842 C 731.012 4.37832 -0.446229 0
M  V30 7843 H 728.131 0.704827 -0.21538 0
M  V30 7844 H 730.773 1.4933 -1.17475 0
M  V30 7845 H 728.923 3.86085 -0.432539 0
M  V30 7846 H 730.595 3.49059 -3.01588 0
M  V30 7847 H 728.838 3.23671 -2.88825 0
M  V30 7848 H 729.509 4.85068 -2.63464 0
M  V30 7849 H 731.985 4.06822 -0.873778 0
M  V30 7850 H 730.861 5.44228 -0.714648 0
M  V30 7851 H 731.122 4.37239 0.653815 0
M  V30 7852 N 730.181 0.707592 1.40822 0
M  V30 7853 C 731.111 0.0644925 2.33411 0
M  V30 7854 C 732.092 -0.754205 1.52466 0
M  V30 7855 O 733.277 -0.704749 1.80961 0
M  V30 7856 C 730.407 -0.863865 3.36385 0
M  V30 7857 C 729.361 -0.15138 4.27732 0
M  V30 7858 C 728.687 -1.19491 5.21177 0
M  V30 7859 C 729.987 0.989607 5.12839 0
M  V30 7860 H 731.681 0.837829 2.87438 0
M  V30 7861 H 729.227 0.404346 1.38207 0
M  V30 7862 H 731.18 -1.32309 4.0009 0
M  V30 7863 H 729.904 -1.66901 2.80734 0
M  V30 7864 H 728.563 0.287937 3.65467 0
M  V30 7865 H 728.211 -1.9929 4.61836 0
M  V30 7866 H 727.911 -0.723123 5.83134 0
M  V30 7867 H 729.435 -1.6544 5.8776 0
M  V30 7868 H 730.849 0.610114 5.70044 0
M  V30 7869 H 729.246 1.38926 5.83798 0
M  V30 7870 H 730.316 1.82389 4.49291 0
M  V30 7871 N 731.66 -1.50943 0.453197 0
M  V30 7872 C 732.937 -1.94872 -0.168633 0
M  V30 7873 C 733.317 -1.39272 -1.5864 0
M  V30 7874 O 732.665 -0.586272 -2.20851 0
M  V30 7875 C 732.875 -3.48757 -0.130217 0
M  V30 7876 C 734.223 -4.23331 -0.327975 0
M  V30 7877 O 735.247 -3.55594 -0.207619 0
M  V30 7878 O 734.106 -5.43529 -0.569077 0
M  V30 7879 H 731.2 -0.818042 -0.121394 0
M  V30 7880 H 733.746 -1.61782 0.512316 0
M  V30 7881 H 732.518 -3.81725 0.860346 0
M  V30 7882 H 732.141 -3.88333 -0.853397 0
M  V30 7883 N 733.138 -0.185124 -1.56509 0
M  V30 7884 C 734.384 0.450356 -1.98352 0
M  V30 7885 C 734.739 1.59923 -1.06969 0
M  V30 7886 O 734.032 1.91272 -0.112084 0
M  V30 7887 C 734.226 0.967977 -3.44042 0
M  V30 7888 C 734.055 -0.129208 -4.49514 0
M  V30 7889 C 732.825 -0.58351 -5.0192 0
M  V30 7890 C 735.023 -0.93459 -5.05737 0
M  V30 7891 N 733.005 -1.65956 -5.91043 0
M  V30 7892 C 734.376 -1.86026 -5.91434 0
M  V30 7893 C 736.431 -0.978125 -4.88198 0
M  V30 7894 C 735.134 -2.82582 -6.61468 0
M  V30 7895 C 737.16 -1.93169 -5.58963 0
M  V30 7896 C 736.522 -2.84481 -6.44399 0
M  V30 7897 H 732.621 0.132504 -0.770692 0
M  V30 7898 H 735.205 -0.288523 -1.9255 0
M  V30 7899 H 733.376 1.67633 -3.50362 0
M  V30 7900 H 735.108 1.57323 -3.72869 0
M  V30 7901 H 731.863 -0.178676 -4.73263 0
M  V30 7902 H 732.287 -2.19848 -6.40309 0
M  V30 7903 H 736.929 -0.286169 -4.2183 0
M  V30 7904 H 734.647 -3.52758 -7.2704 0
M  V30 7905 H 738.233 -1.97166 -5.47373 0
M  V30 7906 H 737.113 -3.57065 -6.98194 0
M  V30 7907 N 734.616 1.57351 0.0885366 0
M  V30 7908 C 735.862 1.86696 0.791996 0
M  V30 7909 C 736.195 0.775148 1.78059 0
M  V30 7910 O 735.47 -0.216247 1.93294 0
M  V30 7911 C 735.753 3.26684 1.51491 0
M  V30 7912 C 735.606 4.465 0.543858 0
M  V30 7913 C 736.925 3.64664 2.46391 0
M  V30 7914 H 734.044 0.679049 0.286463 0
M  V30 7915 H 736.686 1.89919 0.0554866 0
M  V30 7916 H 734.836 3.24067 2.14273 0
M  V30 7917 H 736.508 4.61235 -0.0774597 0
M  V30 7918 H 734.751 4.33567 -0.142228 0
M  V30 7919 H 735.422 5.41192 1.08696 0
M  V30 7920 H 737.898 3.68267 1.93698 0
M  V30 7921 H 736.774 4.63534 2.93986 0
M  V30 7922 H 737.035 2.93698 3.30445 0
M  V30 7923 N 736.094 -0.359525 1.53444 0
M  V30 7924 C 737.044 -1.441 1.7669 0
M  V30 7925 C 738.028 -1.48408 0.621599 0
M  V30 7926 O 739.22 -1.53547 0.880468 0
M  V30 7927 C 736.349 -2.81455 1.96566 0
M  V30 7928 C 735.435 -2.81601 3.17115 0
M  V30 7929 N 735.826 -2.51388 4.38905 0
M  V30 7930 C 734.124 -3.12758 3.1796 0
M  V30 7931 C 734.825 -2.59365 5.20677 0
M  V30 7932 N 733.801 -2.94328 4.57025 0
M  V30 7933 H 737.603 -1.19613 2.68458 0
M  V30 7934 H 735.117 -0.567761 1.52152 0
M  V30 7935 H 737.114 -3.59357 2.11348 0
M  V30 7936 H 735.774 -3.06901 1.06029 0
M  V30 7937 H 736.785 -2.24873 4.66533 0
M  V30 7938 H 733.462 -3.43479 2.37336 0
M  V30 7939 H 734.852 -2.39301 6.27841 0
M  V30 7940 N 737.572 -1.44907 -0.619662 0
M  V30 7941 C 738.52 -1.52971 -1.75222 0
M  V30 7942 C 739.514 -0.400531 -1.64597 0
M  V30 7943 O 740.72 -0.575952 -1.70537 0
M  V30 7944 H 737.095 -0.480241 -0.578682 0
M  V30 7945 H 739.066 -2.48269 -1.65545 0
M  V30 7946 C 737.815 -1.50204 -3.13583 0
M  V30 7947 H 737.138 -2.36412 -3.22412 0
M  V30 7948 H 738.578 -1.59905 -3.92691 0
M  V30 7949 C 737.037 -0.22455 -3.36151 0
M  V30 7950 O 737.567 0.700574 -3.95544 0
M  V30 7951 N 735.773 -0.124052 -2.90335 0
M  V30 7952 H 735.32 -0.87774 -2.42185 0
M  V30 7953 H 735.278 0.729914 -3.0581 0
M  V30 7954 N 739.05 0.861098 -1.31996 0
M  V30 7955 C 740.013 1.95068 -1.20338 0
M  V30 7956 C 741.013 1.60289 -0.128114 0
M  V30 7957 O 742.203 1.70048 -0.378044 0
M  V30 7958 C 739.335 3.30153 -0.849205 0
M  V30 7959 H 740.528 2.06833 -2.17164 0
M  V30 7960 H 738.081 1.05049 -1.15734 0
M  V30 7961 H 738.816 3.24087 0.117508 0
M  V30 7962 H 738.601 3.56771 -1.62655 0
M  V30 7963 H 740.091 4.10025 -0.791782 0
M  V30 7964 N 740.528 1.15101 1.07655 0
M  V30 7965 C 741.939 0.933848 1.61667 0
M  V30 7966 C 742.29 -0.525569 1.8903 0
M  V30 7967 O 741.415 -1.39605 1.65346 0
M  V30 7968 C 742.01 1.68876 2.93711 0
M  V30 7969 C 740.569 1.51697 3.44478 0
M  V30 7970 C 739.716 1.70633 2.18586 0
M  V30 7971 H 742.667 1.30171 0.907816 0
M  V30 7972 H 742.688 1.15645 3.625 0
M  V30 7973 H 742.2 2.7509 2.73764 0
M  V30 7974 H 740.301 0.478635 3.69513 0
M  V30 7975 H 740.414 2.29194 4.20722 0
M  V30 7976 H 738.778 1.13259 2.28132 0
M  V30 7977 H 739.561 2.78206 2.01137 0
M  V30 7978 N 742.006 -1.2595 0.947325 0
M  V30 7979 C 743.254 -1.93081 0.596996 0
M  V30 7980 C 743.575 -1.74632 -0.867672 0
M  V30 7981 O 742.845 -1.1056 -1.6172 0
M  V30 7982 H 741.425 -0.714542 0.217805 0
M  V30 7983 H 744.087 -1.53265 1.20398 0
M  V30 7984 H 743.183 -3.01134 0.82004 0
M  V30 7985 N 743.484 -0.715051 -1.40445 0
M  V30 7986 C 744.732 -0.253826 -2.005 0
M  V30 7987 C 745.053 1.15681 -1.5698 0
M  V30 7988 O 744.323 1.78414 -0.809027 0
M  V30 7989 H 742.903 -0.0908537 -0.741454 0
M  V30 7990 H 745.565 -0.920561 -1.7179 0
M  V30 7991 H 744.661 -0.286499 -3.10782 0
M  V30 7992 N 744.962 1.50701 -0.461195 0
M  V30 7993 C 746.21 2.01867 0.0970051 0
M  V30 7994 C 746.531 1.34591 1.41104 0
M  V30 7995 O 745.801 0.488041 1.89723 0
M  V30 7996 H 744.381 0.74599 0.0388392 0
M  V30 7997 H 747.043 1.85129 -0.609357 0
M  V30 7998 H 746.139 3.11051 0.255688 0
M  V30 7999 N 746.441 0.193421 1.56409 0
M  V30 8000 C 747.391 -0.74089 2.15627 0
M  V30 8001 C 748.375 -1.17747 1.09656 0
M  V30 8002 O 749.567 -1.13615 1.35723 0
M  V30 8003 C 746.696 -1.96091 2.81786 0
M  V30 8004 C 745.782 -1.54531 3.94944 0
M  V30 8005 N 746.173 -0.840569 4.98767 0
M  V30 8006 C 744.471 -1.83473 4.06514 0
M  V30 8007 C 745.172 -0.632571 5.7825 0
M  V30 8008 N 744.148 -1.18078 5.30621 0
M  V30 8009 H 747.95 -0.193718 2.93261 0
M  V30 8010 H 745.464 -0.00643211 1.62399 0
M  V30 8011 H 747.461 -2.64071 3.22602 0
M  V30 8012 H 746.121 -2.51282 2.05639 0
M  V30 8013 H 747.132 -0.496218 5.15517 0
M  V30 8014 H 743.809 -2.40184 3.41493 0
M  V30 8015 H 745.199 -0.0736433 6.7186 0
M  V30 8016 O 747.958 -1.61402 0.0562482 0
M  V30 8017 H 748.649 -1.85658 -0.552338 0
M  V30 END ATOM
M  V30 BEGIN BOND
M  V30 END BOND
M  V30 END CTAB
M  END
$$$$
