drugbank_target|Q96RE1 Translation elongation factor 1 alpha 1-like 14 (DB09130)
 OpenBabel12092121053D

  0  0  0     0  0            999 V3000
M  V30 BEGIN CTAB
M  V30 COUNTS 6102 6163 0 0 0
M  V30 BEGIN ATOM
M  V30 1 H -0.908 1.98254 -0.117106 0
M  V30 2 N 0 1.576 0 0
M  V30 3 C 0.933 2.03868 1.02534 0
M  V30 4 C 1.911 0.928543 1.3348 0
M  V30 5 O 3.095 1.19667 1.45644 0
M  V30 6 C 0.222 2.43627 2.35294 0
M  V30 7 C -0.732 3.65373 2.2001 0
M  V30 8 S 0.101 5.13292 1.52614 0
M  V30 9 C 1.257 5.56322 2.86805 0
M  V30 10 H 1.49 2.90518 0.631377 0
M  V30 11 H -0.977 1.52953 0.210867 0
M  V30 12 H 0.981 2.67203 3.11629 0
M  V30 13 H -0.358 1.57376 2.7183 0
M  V30 14 H -1.165 3.90944 3.18086 0
M  V30 15 H -1.563 3.418 1.51819 0
M  V30 16 H 0.729 5.58782 3.83104 0
M  V30 17 H 1.672 6.56266 2.65933 0
M  V30 18 H 2.08 4.83886 2.90714 0
M  V30 19 N 1.4781 -0.272755 1.55222 0
M  V30 20 C 2.4101 -1.35946 1.8453 0
M  V30 21 C 3.4231 -1.45525 0.729818 0
M  V30 22 O 4.6121 -1.47337 1.00767 0
M  V30 23 C 1.7121 -2.74069 1.99347 0
M  V30 24 C 0.8851 -2.87079 3.30007 0
M  V30 25 C -0.0559 -4.05879 3.34886 0
M  V30 26 O -1.0299 -3.96626 4.08261 0
M  V30 27 N 0.1721 -5.17857 2.62307 0
M  V30 28 H 2.9371 -1.11149 2.78327 0
M  V30 29 H 0.4981 -0.462869 1.55142 0
M  V30 30 H 2.4901 -3.51838 1.99981 0
M  V30 31 H 1.0601 -2.91688 1.12415 0
M  V30 32 H 0.2801 -1.96193 3.41909 0
M  V30 33 H 1.5681 -2.92701 4.16177 0
M  V30 34 H 0.9661 -5.28261 2.02377 0
M  V30 35 H -0.4769 -5.93855 2.68663 0
M  V30 36 N 2.9562 -1.48159 -0.537278 0
M  V30 37 C 4.1812 -1.59707 -1.32319 0
M  V30 38 C 4.6062 -0.254859 -1.86365 0
M  V30 39 O 3.9642 0.772378 -1.64024 0
M  V30 40 C 4.0122 -2.6412 -2.45505 0
M  V30 41 O 3.1162 -2.20774 -3.48328 0
M  V30 42 H 2.4572 -0.535791 -0.392204 0
M  V30 43 H 4.9872 -1.94092 -0.647268 0
M  V30 44 H 4.9972 -2.85166 -2.91795 0
M  V30 45 H 3.6722 -3.61567 -2.05528 0
M  V30 46 H 2.2492 -2.09911 -3.08207 0
M  V30 47 N 4.4343 0.785586 -1.36625 0
M  V30 48 C 5.3443 1.92964 -1.33425 0
M  V30 49 C 6.3603 1.72394 -0.235851 0
M  V30 50 O 7.5363 1.95866 -0.468878 0
M  V30 51 C 4.6013 3.27884 -1.12662 0
M  V30 52 C 3.6623 3.61204 -2.32013 0
M  V30 53 C 2.8953 4.89687 -2.12231 0
M  V30 54 O 3.1183 5.59704 -1.09945 0
M  V30 55 O 2.0523 5.21752 -3.00098 0
M  V30 56 H 5.8783 1.98613 -2.29753 0
M  V30 57 H 3.4633 0.926384 -1.17211 0
M  V30 58 H 5.3453 4.08614 -1.03016 0
M  V30 59 H 4.0203 3.23118 -0.193991 0
M  V30 60 H 2.9273 2.80765 -2.47228 0
M  V30 61 H 4.2603 3.70698 -3.23796 0
M  V30 62 N 5.9124 1.20967 1.01018 0
M  V30 63 C 7.3284 0.965905 1.27053 0
M  V30 64 C 7.5284 -0.350785 1.98423 0
M  V30 65 O 6.5844 -1.07773 2.28344 0
M  V30 66 C 7.8974 2.15294 2.09926 0
M  V30 67 C 9.4454 2.19463 2.23171 0
M  V30 68 C 9.9204 3.3767 3.09424 0
M  V30 69 N 11.4114 3.37724 3.17012 0
M  V30 70 C 12.1464 4.25837 3.83993 0
M  V30 71 N 11.6424 5.24138 4.53047 0
M  V30 72 N 13.4354 4.1366 3.80581 0
M  V30 73 H 5.5864 2.0565 0.531194 0
M  V30 74 H 7.8494 0.90024 0.297106 0
M  V30 75 H 7.5554 3.10684 1.64828 0
M  V30 76 H 7.4294 2.13923 3.10672 0
M  V30 77 H 9.8164 1.24632 2.6749 0
M  V30 78 H 9.8974 2.2488 1.21912 0
M  V30 79 H 9.5414 4.32791 2.65808 0
M  V30 80 H 9.4714 3.29491 4.10784 0
M  V30 81 H 11.9624 2.6658 2.6785 0
M  V30 82 H 12.2754 5.87684 5.01844 0
M  V30 83 H 10.6204 5.28068 4.5185 0
M  V30 84 H 13.8114 3.36127 3.25785 0
M  V30 85 H 13.9844 4.82538 4.32505 0
M  V30 86 N 7.3905 -1.2043 1.01659 0
M  V30 87 C 8.6385 -1.89423 0.704522 0
M  V30 88 C 8.9595 -1.79231 -0.768197 0
M  V30 89 O 8.2295 -1.1947 -1.55254 0
M  V30 90 H 6.8095 -0.701178 0.257602 0
M  V30 91 H 9.4715 -1.4626 1.28818 0
M  V30 92 H 8.5675 -2.96052 0.987916 0
M  V30 93 N 8.8686 -0.792821 -1.36206 0
M  V30 94 C 10.1176 -0.363353 -1.984 0
M  V30 95 C 10.4306 1.07172 -1.63626 0
M  V30 96 O 11.6366 1.60362 -2.19081 0
M  V30 97 C 10.0926 -0.59872 -3.54885 0
M  V30 98 C 9.7006 -2.04543 -3.9858 0
M  V30 99 C 11.4446 -0.233926 -4.23855 0
M  V30 100 C 9.3516 -2.22727 -5.47856 0
M  V30 101 H 8.2816 -0.13212 -0.742334 0
M  V30 102 H 10.9326 -0.974935 -1.55458 0
M  V30 103 H 9.3146 0.0826222 -3.95914 0
M  V30 104 H 10.4886 -2.76345 -3.68741 0
M  V30 105 H 8.8036 -2.36879 -3.42458 0
M  V30 106 H 11.4006 -0.348027 -5.33566 0
M  V30 107 H 11.7436 0.818351 -4.08177 0
M  V30 108 H 12.2766 -0.868639 -3.882 0
M  V30 109 H 9.0156 -3.2635 -5.68486 0
M  V30 110 H 8.5356 -1.55434 -5.7931 0
M  V30 111 H 10.2146 -2.03607 -6.14128 0
M  V30 112 N 10.3467 1.47872 -0.545128 0
M  V30 113 C 11.5747 2.06889 -0.021084 0
M  V30 114 C 11.9897 1.39955 1.2672 0
M  V30 115 O 11.3467 0.492036 1.75742 0
M  V30 116 C 11.3977 3.60996 0.190817 0
M  V30 117 O 11.1187 4.25419 -1.04644 0
M  V30 118 C 12.6197 4.36849 0.753521 0
M  V30 119 H 9.8397 0.669785 -0.0403635 0
M  V30 120 H 12.3837 1.90049 -0.755095 0
M  V30 121 H 10.5387 3.77391 0.87492 0
M  V30 122 H 10.9527 5.17785 -0.836611 0
M  V30 123 H 12.4267 5.45399 0.851139 0
M  V30 124 H 12.9037 4.02306 1.762 0
M  V30 125 H 13.5097 4.25169 0.105503 0
M  V30 126 N 11.8248 0.280983 1.55075 0
M  V30 127 C 13.0738 -0.334784 1.98902 0
M  V30 128 C 13.3868 -1.56534 1.17288 0
M  V30 129 O 14.5928 -2.25443 1.51287 0
M  V30 130 C 13.0488 -0.646994 3.54037 0
M  V30 131 C 12.6568 0.564085 4.44435 0
M  V30 132 C 14.4008 -1.22506 4.06439 0
M  V30 133 C 12.3078 0.226137 5.90967 0
M  V30 134 H 11.2378 -0.128866 0.742906 0
M  V30 135 H 13.8888 0.386556 1.79382 0
M  V30 136 H 12.2708 -1.42739 3.6938 0
M  V30 137 H 13.4448 1.34082 4.40861 0
M  V30 138 H 11.7598 1.0594 4.02698 0
M  V30 139 H 14.3568 -1.49182 5.13468 0
M  V30 140 H 14.6998 -2.16085 3.55827 0
M  V30 141 H 15.2328 -0.50682 3.94558 0
M  V30 142 H 11.9718 1.12996 6.45687 0
M  V30 143 H 11.4918 -0.513717 5.97596 0
M  V30 144 H 13.1708 -0.179539 6.46751 0
M  V30 145 N 13.3029 -1.57598 0.00835791 0
M  V30 146 C 14.5799 -1.82172 -0.712235 0
M  V30 147 C 14.9599 -0.887873 -1.9152 0
M  V30 148 O 14.3079 0.06146 -2.28417 0
M  V30 149 C 14.5179 -3.30875 -1.11008 0
M  V30 150 C 15.8659 -3.96826 -1.51044 0
M  V30 151 O 16.8899 -3.35248 -1.20364 0
M  V30 152 O 15.7489 -5.05318 -2.08125 0
M  V30 153 H 12.8429 -0.750435 -0.347529 0
M  V30 154 H 15.3889 -1.69665 0.0344523 0
M  V30 155 H 14.1609 -3.90481 -0.252982 0
M  V30 156 H 13.7839 -3.48412 -1.9156 0
M  V30 157 N 14.781 0.264519 -1.55364 0
M  V30 158 C 16.03 0.992812 -1.75574 0
M  V30 159 C 16.343 1.87142 -0.568979 0
M  V30 160 O 17.549 2.63513 -0.653682 0
M  V30 161 C 16.005 1.81519 -3.10771 0
M  V30 162 C 15.613 0.984839 -4.37041 0
M  V30 163 C 17.357 2.53727 -3.40327 0
M  V30 164 C 15.264 1.80209 -5.63275 0
M  V30 165 H 14.194 0.374412 -0.65447 0
M  V30 166 H 16.845 0.248138 -1.81815 0
M  V30 167 H 15.227 2.60115 -2.98591 0
M  V30 168 H 16.401 0.242455 -4.60162 0
M  V30 169 H 14.716 0.37691 -4.14691 0
M  V30 170 H 17.313 3.15292 -4.3185 0
M  V30 171 H 17.656 3.24447 -2.60845 0
M  V30 172 H 18.189 1.82156 -3.53644 0
M  V30 173 H 14.928 1.13896 -6.45529 0
M  V30 174 H 14.448 2.52022 -5.44284 0
M  V30 175 H 16.127 2.37364 -6.01887 0
M  V30 176 N 16.2591 1.48442 0.529413 0
M  V30 177 C 17.4841 1.60406 1.31471 0
M  V30 178 C 17.9091 0.264738 1.86228 0
M  V30 179 O 17.2671 -0.763668 1.64432 0
M  V30 180 C 17.3151 2.65419 2.44101 0
M  V30 181 O 16.4191 2.22618 3.47153 0
M  V30 182 H 15.7601 0.537863 0.389357 0
M  V30 183 H 18.2901 1.94432 0.636965 0
M  V30 184 H 18.3001 2.86709 2.90279 0
M  V30 185 H 16.9751 3.62652 2.03608 0
M  V30 186 H 15.5521 2.11543 3.0709 0
M  V30 187 N 17.7372 -0.778329 1.37039 0
M  V30 188 C 18.6672 -1.90546 1.34962 0
M  V30 189 C 19.6482 -1.68681 0.219274 0
M  V30 190 O 20.8332 -1.89634 0.418624 0
M  V30 191 C 17.9632 -3.27734 1.14925 0
M  V30 192 C 16.9172 -3.64147 2.24902 0
M  V30 193 C 16.2432 -4.99806 1.89996 0
M  V30 194 C 17.5432 -3.71579 3.67051 0
M  V30 195 H 19.2372 -1.92541 2.29277 0
M  V30 196 H 16.7832 -0.924948 1.10366 0
M  V30 197 H 18.7362 -4.06215 1.12104 0
M  V30 198 H 17.4602 -3.26154 0.170631 0
M  V30 199 H 16.1192 -2.8797 2.26868 0
M  V30 200 H 15.7672 -4.94759 0.906796 0
M  V30 201 H 15.4672 -5.25139 2.63634 0
M  V30 202 H 16.9912 -5.80694 1.88749 0
M  V30 203 H 18.4052 -4.40227 3.67251 0
M  V30 204 H 16.8022 -4.08405 4.39688 0
M  V30 205 H 17.8722 -2.72404 4.01154 0
M  V30 206 N 19.2153 -1.21501 -1.00376 0
M  V30 207 C 20.4613 -1.04457 -1.74529 0
M  V30 208 C 20.8163 0.417386 -1.87818 0
M  V30 209 O 20.1093 1.30556 -1.40234 0
M  V30 210 C 20.3033 -1.67673 -3.15627 0
M  V30 211 C 20.1323 -3.19865 -3.16096 0
M  V30 212 C 18.9023 -3.88915 -3.22604 0
M  V30 213 C 21.1003 -4.16936 -3.01112 0
M  V30 214 N 19.0823 -5.28284 -3.12712 0
M  V30 215 C 20.4533 -5.43066 -2.99131 0
M  V30 216 C 22.5083 -4.07968 -2.85423 0
M  V30 217 C 21.2113 -6.6126 -2.83068 0
M  V30 218 C 23.2373 -5.258 -2.70718 0
M  V30 219 C 22.5993 -6.50842 -2.69414 0
M  V30 220 H 18.6983 -0.436584 -0.648782 0
M  V30 221 H 21.2823 -1.53875 -1.19293 0
M  V30 222 H 19.4533 -1.20822 -3.6913 0
M  V30 223 H 21.1853 -1.43824 -3.78281 0
M  V30 224 H 17.9403 -3.39847 -3.2985 0
M  V30 225 H 18.3643 -6.01284 -3.11105 0
M  V30 226 H 23.0063 -3.1209 -2.85236 0
M  V30 227 H 20.7243 -7.57298 -2.82002 0
M  V30 228 H 24.3103 -5.20683 -2.59577 0
M  V30 229 H 23.1903 -7.40485 -2.5817 0
M  V30 230 N 20.6934 1.19889 -1.02296 0
M  V30 231 C 21.6404 2.22901 -0.598651 0
M  V30 232 C 22.6104 1.61588 0.384521 0
M  V30 233 O 23.7954 1.88697 0.282522 0
M  V30 234 C 20.9354 3.45063 0.0504476 0
M  V30 235 C 20.0484 4.20783 -0.978053 0
M  V30 236 C 19.1834 5.30356 -0.299338 0
M  V30 237 C 18.2224 5.97826 -1.31416 0
M  V30 238 N 17.3594 6.98975 -0.661667 0
M  V30 239 H 22.1994 2.58554 -1.48169 0
M  V30 240 H 19.7364 1.27039 -0.741584 0
M  V30 241 H 21.6944 4.14831 0.443971 0
M  V30 242 H 20.3244 3.10084 0.897097 0
M  V30 243 H 19.3764 3.50018 -1.48969 0
M  V30 244 H 20.6884 4.67109 -1.74958 0
M  V30 245 H 19.8424 6.06516 0.149347 0
M  V30 246 H 18.5814 4.85084 0.504445 0
M  V30 247 H 17.5864 5.20422 -1.77317 0
M  V30 248 H 18.8114 6.45183 -2.11933 0
M  V30 249 H 16.7574 6.55886 0.122132 0
M  V30 250 H 16.6744 7.43461 -1.37117 0
M  V30 251 H 17.9424 7.7914 -0.236785 0
M  V30 252 N 22.1715 0.800033 1.35784 0
M  V30 253 C 23.4185 0.377342 1.98953 0
M  V30 254 C 23.7465 -1.05378 1.6348 0
M  V30 255 O 23.0015 -1.74459 0.886707 0
M  V30 256 C 23.3005 0.500276 3.53881 0
M  V30 257 C 22.9665 1.89375 4.09204 0
M  V30 258 C 21.6285 2.27499 4.24025 0
M  V30 259 C 23.9805 2.8057 4.39238 0
M  V30 260 C 21.3085 3.562 4.66195 0
M  V30 261 C 23.6605 4.0871 4.82844 0
M  V30 262 C 22.3245 4.46843 4.95871 0
M  V30 263 H 21.5945 0.138079 0.728021 0
M  V30 264 H 24.2415 1.01955 1.62103 0
M  V30 265 H 22.5465 -0.225405 3.91151 0
M  V30 266 H 24.2435 0.154097 4.00704 0
M  V30 267 H 20.8335 1.58753 3.98115 0
M  V30 268 H 25.0175 2.52367 4.27346 0
M  V30 269 H 20.2735 3.85602 4.74469 0
M  V30 270 H 24.4475 4.79481 5.05046 0
M  V30 271 H 22.0745 5.46623 5.28306 0
M  V30 272 N 23.6496 -1.47581 0.552962 0
M  V30 273 C 24.5596 -2.33743 -0.200353 0
M  V30 274 C 25.5756 -1.47928 -0.916151 0
M  V30 275 O 26.7516 -1.80865 -0.885993 0
M  V30 276 C 23.8166 -3.24536 -1.21973 0
M  V30 277 C 22.8776 -4.26238 -0.511819 0
M  V30 278 C 22.1106 -5.12693 -1.48263 0
M  V30 279 O 22.3336 -5.01525 -2.71714 0
M  V30 280 O 21.2676 -5.93375 -1.00945 0
M  V30 281 H 25.0936 -2.9945 0.506304 0
M  V30 282 H 22.6786 -1.46071 0.313622 0
M  V30 283 H 24.5606 -3.80631 -1.80827 0
M  V30 284 H 23.2356 -2.61462 -1.90839 0
M  V30 285 H 22.1426 -3.73914 0.117799 0
M  V30 286 H 23.4756 -4.92014 0.135308 0
M  V30 287 N 25.1277 -0.289203 -1.54924 0
M  V30 288 C 26.3557 0.326463 -2.04308 0
M  V30 289 C 26.7707 1.48413 -1.16701 0
M  V30 290 O 26.1277 1.81507 -0.190087 0
M  V30 291 C 26.1787 0.794014 -3.52672 0
M  V30 292 O 25.8997 -0.317564 -4.36948 0
M  V30 293 C 27.4007 1.47605 -4.18004 0
M  V30 294 H 24.6207 0.0726272 -0.667058 0
M  V30 295 H 27.1647 -0.425401 -2.00026 0
M  V30 296 H 25.3197 1.49593 -3.57352 0
M  V30 297 H 25.7337 0.0443186 -5.24481 0
M  V30 298 H 27.2077 1.75447 -5.23376 0
M  V30 299 H 27.6847 2.41224 -3.67025 0
M  V30 300 H 28.2907 0.81762 -4.17367 0
M  V30 301 N 26.6058 1.57591 -0.0167156 0
M  V30 302 C 27.8308 1.9598 0.67872 0
M  V30 303 C 28.2558 0.892546 1.65575 0
M  V30 304 O 27.6138 -0.147772 1.80697 0
M  V30 305 C 27.6618 3.33468 1.37227 0
M  V30 306 O 26.7658 3.28954 2.48722 0
M  V30 307 H 26.1068 0.639339 0.17928 0
M  V30 308 H 28.6368 2.04463 -0.0748802 0
M  V30 309 H 28.6468 3.69417 1.7319 0
M  V30 310 H 27.3218 4.10694 0.656007 0
M  V30 311 H 25.8988 3.04705 2.14963 0
M  V30 312 N 28.0839 -0.256276 1.55502 0
M  V30 313 C 29.0309 -1.31714 1.89526 0
M  V30 314 C 30.0009 -1.4828 0.748479 0
M  V30 315 O 31.1859 -1.62416 1.00128 0
M  V30 316 C 28.3259 -2.66933 2.18725 0
M  V30 317 C 27.4389 -2.58452 3.4616 0
M  V30 318 C 26.5739 -3.85961 3.64976 0
M  V30 319 C 25.6129 -3.72059 4.86044 0
M  V30 320 N 24.7499 -4.9144 5.01429 0
M  V30 321 H 29.5899 -1.01998 2.80001 0
M  V30 322 H 27.1269 -0.492413 1.38613 0
M  V30 323 H 29.0849 -3.4563 2.33657 0
M  V30 324 H 27.7149 -2.94816 1.31466 0
M  V30 325 H 26.7669 -1.71374 3.3961 0
M  V30 326 H 28.0789 -2.44085 4.34999 0
M  V30 327 H 27.2329 -4.73101 3.79816 0
M  V30 328 H 25.9719 -4.03215 2.74353 0
M  V30 329 H 24.9769 -2.83302 4.7119 0
M  V30 330 H 26.2019 -3.56309 5.78118 0
M  V30 331 H 24.1479 -5.09072 4.13741 0
M  V30 332 H 24.0649 -4.79668 5.84341 0
M  V30 333 H 25.3329 -5.80104 5.20672 0
M  V30 334 N 29.562 -1.4872 -0.521534 0
M  V30 335 C 30.792 -1.6061 -1.29954 0
M  V30 336 C 31.2 -0.268728 -1.87282 0
M  V30 337 O 30.543 0.753221 -1.67548 0
M  V30 338 C 30.605 -2.60013 -2.48261 0
M  V30 339 C 30.269 -4.04874 -2.11957 0
M  V30 340 C 31.266 -4.92304 -1.67132 0
M  V30 341 C 28.951 -4.5047 -2.22221 0
M  V30 342 C 30.945 -6.2336 -1.33047 0
M  V30 343 C 28.632 -5.81544 -1.87748 0
M  V30 344 C 29.63 -6.67812 -1.43234 0
M  V30 345 O 29.318 -7.96446 -1.09217 0
M  V30 346 H 29.05 -0.544116 -0.401141 0
M  V30 347 H 31.604 -1.95339 -0.634958 0
M  V30 348 H 29.834 -2.20422 -3.17728 0
M  V30 349 H 31.523 -2.61648 -3.10315 0
M  V30 350 H 32.289 -4.58312 -1.58665 0
M  V30 351 H 28.168 -3.83504 -2.55823 0
M  V30 352 H 31.712 -6.90649 -0.982299 0
M  V30 353 H 27.609 -6.15069 -1.95858 0
M  V30 354 H 28.377 -8.09275 -1.22542 0
M  V30 355 N 31.0401 0.771051 -1.3745 0
M  V30 356 C 32.2701 1.55789 -1.35696 0
M  V30 357 C 32.6781 1.89107 0.0594523 0
M  V30 358 O 32.0211 1.51984 1.03183 0
M  V30 359 C 32.0831 2.89515 -2.13123 0
M  V30 360 C 31.7471 2.78829 -3.62082 0
M  V30 361 C 32.7441 2.49812 -4.5595 0
M  V30 362 C 30.4291 2.9683 -4.05213 0
M  V30 363 C 32.4231 2.38923 -5.90927 0
M  V30 364 C 30.1101 2.85562 -5.40276 0
M  V30 365 C 31.1081 2.56649 -6.32946 0
M  V30 366 O 30.7961 2.45408 -7.65526 0
M  V30 367 H 30.5281 0.489257 -0.466481 0
M  V30 368 H 33.0821 0.963446 -1.81403 0
M  V30 369 H 31.3121 3.51081 -1.62107 0
M  V30 370 H 33.0011 3.50915 -2.03994 0
M  V30 371 H 33.7671 2.3559 -4.23937 0
M  V30 372 H 29.6461 3.18335 -3.33442 0
M  V30 373 H 33.1901 2.16277 -6.63227 0
M  V30 374 H 29.0871 2.99351 -5.71891 0
M  V30 375 H 29.8551 2.60753 -7.75855 0
M  V30 376 N 32.5182 1.22032 0.997298 0
M  V30 377 C 33.7642 1.04376 1.73878 0
M  V30 378 C 34.0972 -0.420716 1.89588 0
M  V30 379 O 33.3722 -1.31202 1.43583 0
M  V30 380 C 33.6552 1.75047 3.14691 0
M  V30 381 C 33.5082 3.29062 3.06656 0
M  V30 382 C 34.8272 1.49928 4.13775 0
M  V30 383 H 31.9462 0.380578 0.631133 0
M  V30 384 H 34.5882 1.50312 1.16217 0
M  V30 385 H 32.7382 1.35996 3.63919 0
M  V30 386 H 34.4102 3.7753 2.65083 0
M  V30 387 H 32.6532 3.58967 2.43568 0
M  V30 388 H 33.3242 3.73683 4.06282 0
M  V30 389 H 35.8002 1.83842 3.73285 0
M  V30 390 H 34.6762 2.01878 5.10428 0
M  V30 391 H 34.9372 0.430929 4.39995 0
M  V30 392 N 33.9963 -1.19345 1.0293 0
M  V30 393 C 35.2243 -1.92997 0.745644 0
M  V30 394 C 35.6393 -1.75519 -0.695589 0
M  V30 395 O 34.9963 -1.07737 -1.47306 0
M  V30 396 C 35.0473 -3.44741 1.08792 0
M  V30 397 O 34.7683 -3.61658 2.47256 0
M  V30 398 C 36.2693 -4.35515 0.827129 0
M  V30 399 H 33.4893 -0.613042 0.272801 0
M  V30 400 H 36.0333 -1.51473 1.3739 0
M  V30 401 H 34.1883 -3.84097 0.504832 0
M  V30 402 H 34.6023 -4.55514 2.60015 0
M  V30 403 H 36.0763 -5.40589 1.11658 0
M  V30 404 H 36.5533 -4.38552 -0.238436 0
M  V30 405 H 37.1593 -4.01841 1.39297 0
M  V30 406 N 35.4744 -0.807222 -1.35358 0
M  V30 407 C 36.7234 -0.384376 -1.98004 0
M  V30 408 C 37.0364 1.0543 -1.64754 0
M  V30 409 O 38.2424 1.58029 -2.20769 0
M  V30 410 C 36.6984 -0.636326 -3.5423 0
M  V30 411 C 36.3064 -2.08759 -3.96388 0
M  V30 412 C 38.0504 -0.278869 -4.23583 0
M  V30 413 C 35.9574 -2.28525 -5.45463 0
M  V30 414 H 34.8874 -0.139986 -0.740891 0
M  V30 415 H 37.5384 -0.991369 -1.54415 0
M  V30 416 H 35.9204 0.0406256 -3.95979 0
M  V30 417 H 37.0944 -2.8024 -3.6579 0
M  V30 418 H 35.4094 -2.40497 -3.39926 0
M  V30 419 H 38.0064 -0.404599 -5.33167 0
M  V30 420 H 38.3494 0.775012 -4.09022 0
M  V30 421 H 38.8824 -0.909764 -3.87257 0
M  V30 422 H 35.6214 -3.32361 -5.64992 0
M  V30 423 H 35.1414 -1.61569 -5.77629 0
M  V30 424 H 36.8204 -2.10109 -6.11934 0
M  V30 425 N 36.9525 1.47285 -0.560781 0
M  V30 426 C 38.2015 2.01668 -0.035895 0
M  V30 427 C 38.5145 1.44021 1.32353 0
M  V30 428 O 39.7205 1.90088 1.93853 0
M  V30 429 C 38.1765 3.59897 -0.0136659 0
M  V30 430 C 37.7845 4.26536 -1.37006 0
M  V30 431 C 39.5285 4.22017 0.458425 0
M  V30 432 C 37.4355 5.76782 -1.30675 0
M  V30 433 H 36.3655 0.753938 -0.00964879 0
M  V30 434 H 39.0165 1.69243 -0.709166 0
M  V30 435 H 37.3985 3.89301 0.725325 0
M  V30 436 H 38.5725 4.0877 -2.12705 0
M  V30 437 H 36.8875 3.76419 -1.78038 0
M  V30 438 H 39.4845 5.32124 0.524247 0
M  V30 439 H 39.8275 3.89437 1.4712 0
M  V30 440 H 40.3605 3.97159 -0.225818 0
M  V30 441 H 37.0995 6.13988 -2.29564 0
M  V30 442 H 36.6195 5.96875 -0.591622 0
M  V30 443 H 38.2985 6.39063 -1.01033 0
M  V30 444 N 38.4306 0.297415 1.54768 0
M  V30 445 C 39.7076 -0.365847 1.92148 0
M  V30 446 C 40.0876 -1.71975 1.22424 0
M  V30 447 O 39.4356 -2.25666 0.358739 0
M  V30 448 C 39.6456 -0.484056 3.45627 0
M  V30 449 C 40.9936 -0.756594 4.17805 0
M  V30 450 O 42.0176 -0.568007 3.51642 0
M  V30 451 O 40.8766 -1.11863 5.34929 0
M  V30 452 H 37.9706 -0.203919 0.801465 0
M  V30 453 H 40.5166 0.34521 1.66152 0
M  V30 454 H 39.2886 0.467865 3.88493 0
M  V30 455 H 38.9116 -1.24372 3.77647 0
M  V30 456 N 39.9087 -1.5758 0.0250728 0
M  V30 457 C 40.8717 -2.08896 -0.943139 0
M  V30 458 C 41.8717 -1.00321 -1.25668 0
M  V30 459 O 43.0617 -1.26495 -1.19769 0
M  V30 460 C 40.1937 -2.55143 -2.26086 0
M  V30 461 H 41.3867 -2.95723 -0.498775 0
M  V30 462 H 38.9397 -1.54703 -0.222888 0
M  V30 463 H 39.6747 -1.71633 -2.75159 0
M  V30 464 H 39.4597 -3.34461 -2.04641 0
M  V30 465 H 40.9497 -2.95083 -2.95492 0
M  V30 466 N 41.3868 0.248026 -1.55636 0
M  V30 467 C 42.7978 0.817177 -1.67866 0
M  V30 468 C 43.1488 1.86069 -0.622322 0
M  V30 469 O 42.2738 2.15157 0.231618 0
M  V30 470 C 42.8688 1.489 -3.04326 0
M  V30 471 C 41.4278 2.00587 -3.185 0
M  V30 472 C 40.5748 0.856573 -2.63739 0
M  V30 473 H 43.5258 0.0238579 -1.58682 0
M  V30 474 H 43.5468 2.35698 -2.98708 0
M  V30 475 H 43.0588 0.729279 -3.81186 0
M  V30 476 H 41.1598 2.79443 -2.4646 0
M  V30 477 H 41.2728 2.20402 -4.25393 0
M  V30 478 H 39.6368 1.25678 -2.21534 0
M  V30 479 H 40.4198 0.109953 -3.43124 0
M  V30 480 N 42.8649 1.48995 0.513639 0
M  V30 481 C 44.1129 1.57531 1.26604 0
M  V30 482 C 44.4339 0.258236 1.93283 0
M  V30 483 O 43.7039 -0.721502 1.8213 0
M  V30 484 H 42.2839 0.580387 0.470276 0
M  V30 485 H 44.9459 1.85552 0.596373 0
M  V30 486 H 44.0419 2.36486 2.03669 0
M  V30 487 N 44.343 -0.763751 1.37857 0
M  V30 488 C 45.293 -1.86765 1.30777 0
M  V30 489 C 46.277 -1.59726 0.194015 0
M  V30 490 O 47.469 -1.7172 0.42911 0
M  V30 491 C 44.598 -3.24343 1.12502 0
M  V30 492 C 43.684 -3.57307 2.28456 0
M  V30 493 N 44.075 -3.61398 3.53871 0
M  V30 494 C 42.373 -3.87517 2.20786 0
M  V30 495 C 43.074 -3.91339 4.30382 0
M  V30 496 N 42.05 -4.07649 3.59615 0
M  V30 497 H 45.852 -1.88191 2.25746 0
M  V30 498 H 43.366 -0.9606 1.30944 0
M  V30 499 H 45.363 -4.03327 1.05514 0
M  V30 500 H 44.023 -3.24175 0.184574 0
M  V30 501 H 45.034 -3.43407 3.87675 0
M  V30 502 H 41.711 -3.95125 1.34844 0
M  V30 503 H 43.101 -4.01213 5.3896 0
M  V30 504 N 45.8211 -1.22559 -0.990812 0
M  V30 505 C 47.2371 -0.985996 -1.255 0
M  V30 506 C 47.4371 0.319173 -1.98956 0
M  V30 507 O 46.4931 1.04127 -2.3003 0
M  V30 508 C 47.8061 -2.18607 -2.06474 0
M  V30 509 C 49.3541 -2.22985 -2.19651 0
M  V30 510 C 49.8291 -3.4255 -3.04012 0
M  V30 511 N 51.3201 -3.42725 -3.11599 0
M  V30 512 C 52.0551 -4.31892 -3.7717 0
M  V30 513 N 51.5511 -5.31279 -4.44651 0
M  V30 514 N 53.3441 -4.19662 -3.73952 0
M  V30 515 H 45.4951 -2.06469 -0.49841 0
M  V30 516 H 47.7581 -0.904853 -0.282747 0
M  V30 517 H 47.4641 -3.13267 -1.59865 0
M  V30 518 H 47.3381 -2.18838 -3.07229 0
M  V30 519 H 49.7251 -1.28871 -2.65474 0
M  V30 520 H 49.8061 -2.26791 -1.18319 0
M  V30 521 H 49.4501 -4.36965 -2.58889 0
M  V30 522 H 49.3801 -3.35984 -4.0549 0
M  V30 523 H 51.8711 -2.70807 -2.63575 0
M  V30 524 H 52.1841 -5.95593 -4.92431 0
M  V30 525 H 50.5291 -5.3519 -4.43392 0
M  V30 526 H 53.7201 -3.41268 -3.20396 0
M  V30 527 H 53.8931 -4.89358 -4.24774 0
M  V30 528 N 47.2992 1.18797 -1.03562 0
M  V30 529 C 48.5762 1.84469 -0.650434 0
M  V30 530 C 48.9562 1.92319 0.870433 0
M  V30 531 O 48.3042 1.44528 1.76986 0
M  V30 532 C 48.5142 3.2306 -1.32036 0
M  V30 533 C 49.8622 3.9915 -1.44792 0
M  V30 534 O 50.8862 3.32481 -1.27806 0
M  V30 535 O 49.7452 5.18587 -1.72423 0
M  V30 536 H 46.8392 0.795251 -0.226946 0
M  V30 537 H 49.3852 1.26231 -1.13419 0
M  V30 538 H 48.1572 3.1222 -2.3587 0
M  V30 539 H 47.7802 3.88949 -0.8249 0
M  V30 540 N 48.7773 0.814389 1.34928 0
M  V30 541 C 50.0243 0.398423 1.98542 0
M  V30 542 C 50.3523 -1.03638 1.64589 0
M  V30 543 O 49.6073 -1.73509 0.90516 0
M  V30 544 C 49.9063 0.537781 3.53331 0
M  V30 545 C 49.5723 1.93704 4.07172 0
M  V30 546 C 48.2343 2.31984 4.21589 0
M  V30 547 C 50.5863 2.85213 4.36237 0
M  V30 548 C 47.9143 3.61125 4.62391 0
M  V30 549 C 50.2663 4.13809 4.78482 0
M  V30 550 C 48.9303 4.52077 4.91104 0
M  V30 551 H 48.2003 0.145793 0.726516 0
M  V30 552 H 50.8473 1.03669 1.61012 0
M  V30 553 H 49.1523 -0.183906 3.91368 0
M  V30 554 H 50.8493 0.196588 4.00518 0
M  V30 555 H 47.4393 1.62966 3.96409 0
M  V30 556 H 51.6233 2.56885 4.24645 0
M  V30 557 H 46.8793 3.90612 4.70353 0
M  V30 558 H 51.0533 4.84811 4.99932 0
M  V30 559 H 48.6803 5.52196 5.22478 0
M  V30 560 N 50.2554 -1.46986 0.568584 0
M  V30 561 C 51.5044 -2.01646 0.0465894 0
M  V30 562 C 51.8174 -1.44721 -1.31587 0
M  V30 563 O 53.0234 -1.91113 -1.92842 0
M  V30 564 C 51.4794 -3.59885 0.032752 0
M  V30 565 C 51.0874 -4.25804 1.39266 0
M  V30 566 C 52.8314 -4.22255 -0.436038 0
M  V30 567 C 50.7384 -5.76081 1.33732 0
M  V30 568 H 49.6684 -0.753876 0.013647 0
M  V30 569 H 52.3194 -1.68864 0.718131 0
M  V30 570 H 50.7014 -3.8968 -0.704669 0
M  V30 571 H 51.8754 -4.07637 2.1487 0
M  V30 572 H 50.1904 -3.7547 1.80032 0
M  V30 573 H 52.7874 -5.32394 -0.49602 0
M  V30 574 H 53.1304 -3.90212 -1.45053 0
M  V30 575 H 53.6634 -3.97033 0.246877 0
M  V30 576 H 50.4024 -6.12761 2.32817 0
M  V30 577 H 49.9224 -5.96553 0.623267 0
M  V30 578 H 51.6014 -6.38518 1.0442 0
M  V30 579 N 51.7335 -0.305618 -1.54608 0
M  V30 580 C 52.6805 0.568421 -2.23691 0
M  V30 581 C 53.6505 1.12592 -1.22116 0
M  V30 582 O 54.8355 1.16959 -1.50749 0
M  V30 583 C 51.9755 1.7322 -2.98477 0
M  V30 584 C 51.0885 1.20566 -4.14835 0
M  V30 585 C 50.2235 2.33368 -4.77193 0
M  V30 586 C 49.2625 1.7787 -5.85686 0
M  V30 587 N 48.3995 2.84263 -6.4198 0
M  V30 588 H 53.2395 -0.0272867 -2.97988 0
M  V30 589 H 50.7765 -0.0252363 -1.47078 0
M  V30 590 H 52.7345 2.41675 -3.40072 0
M  V30 591 H 51.3645 2.29947 -2.26548 0
M  V30 592 H 50.4165 0.413223 -3.78149 0
M  V30 593 H 51.7285 0.759417 -4.92985 0
M  V30 594 H 50.8825 3.09761 -5.21664 0
M  V30 595 H 49.6215 2.8132 -3.98385 0
M  V30 596 H 48.6265 0.99968 -5.40635 0
M  V30 597 H 49.8515 1.30816 -6.66381 0
M  V30 598 H 47.7975 3.31541 -5.66053 0
M  V30 599 H 47.7145 2.44149 -7.15491 0
M  V30 600 H 48.9825 3.6054 -6.91109 0
M  V30 601 N 53.2116 1.57565 -0.0334293 0
M  V30 602 C 54.1596 2.1164 0.96496 0
M  V30 603 C 55.1536 1.04398 1.33407 0
M  V30 604 O 56.3596 1.22828 1.3158 0
M  V30 605 H 52.7346 0.676222 0.32898 0
M  V30 606 H 54.7056 2.94455 0.483614 0
M  V30 607 C 53.4546 2.66207 2.23672 0
M  V30 608 H 52.7776 3.48378 1.96145 0
M  V30 609 H 54.2176 3.07685 2.9173 0
M  V30 610 C 52.6766 1.59151 2.96939 0
M  V30 611 O 53.2066 0.993858 3.89211 0
M  V30 612 N 51.4126 1.31093 2.59351 0
M  V30 613 H 50.9596 1.7988 1.84393 0
M  V30 614 H 50.9176 0.596889 3.08682 0
M  V30 615 N 54.6897 -0.239769 1.55765 0
M  V30 616 C 55.6227 -1.32356 1.85895 0
M  V30 617 C 56.6007 -1.46053 0.714662 0
M  V30 618 O 57.7847 -1.62154 0.961157 0
M  V30 619 C 54.9117 -2.6962 2.04994 0
M  V30 620 C 53.9577 -2.73036 3.27648 0
M  V30 621 S 54.7907 -2.28929 4.84099 0
M  V30 622 C 55.9467 -3.68103 5.06212 0
M  V30 623 H 56.1797 -1.06601 2.77531 0
M  V30 624 H 53.7127 -0.441112 1.47965 0
M  V30 625 H 55.6707 -3.48653 2.16682 0
M  V30 626 H 54.3317 -2.92609 1.14188 0
M  V30 627 H 53.5247 -3.7386 3.38 0
M  V30 628 H 53.1267 -2.02052 3.14723 0
M  V30 629 H 55.4187 -4.63656 4.93993 0
M  V30 630 H 56.3617 -3.6268 6.08168 0
M  V30 631 H 56.7697 -3.60947 4.34025 0
M  V30 632 N 56.1678 -1.49265 -0.50573 0
M  V30 633 C 57.4168 -1.57761 -1.25675 0
M  V30 634 C 57.7298 -0.267371 -1.93764 0
M  V30 635 O 58.9358 -0.230827 -2.70517 0
M  V30 636 C 57.3918 -2.78332 -2.28165 0
M  V30 637 C 56.9998 -4.16096 -1.66037 0
M  V30 638 C 58.7438 -2.96155 -3.04125 0
M  V30 639 C 56.6508 -5.27895 -2.6661 0
M  V30 640 H 55.5808 -0.587391 -0.472745 0
M  V30 641 H 58.2318 -1.75644 -0.53118 0
M  V30 642 H 56.6138 -2.53934 -3.03865 0
M  V30 643 H 57.7878 -4.50612 -0.963622 0
M  V30 644 H 56.1028 -4.03591 -1.02484 0
M  V30 645 H 58.6998 -3.76849 -3.79327 0
M  V30 646 H 59.0428 -2.06534 -3.61455 0
M  V30 647 H 59.5758 -3.2057 -2.35541 0
M  V30 648 H 56.3148 -6.1956 -2.14068 0
M  V30 649 H 55.8348 -4.97839 -3.34539 0
M  V30 650 H 57.5138 -5.57031 -3.29129 0
M  V30 651 N 57.6459 0.756429 -1.3826 0
M  V30 652 C 58.8739 1.54565 -1.3754 0
M  V30 653 C 59.2889 1.88767 0.0355331 0
M  V30 654 O 58.6459 1.52572 1.0014 0
M  V30 655 C 58.6969 2.84654 -2.22833 0
M  V30 656 O 58.4179 2.51912 -3.5843 0
M  V30 657 C 59.9189 3.78807 -2.30261 0
M  V30 658 H 57.1389 0.478353 -0.470553 0
M  V30 659 H 59.6829 0.936381 -1.81803 0
M  V30 660 H 57.8379 3.41965 -1.8204 0
M  V30 661 H 58.2519 3.35325 -4.03308 0
M  V30 662 H 59.7259 4.67045 -2.94233 0
M  V30 663 H 60.2029 4.19038 -1.31545 0
M  V30 664 H 60.8089 3.2742 -2.71433 0
M  V30 665 N 59.124 1.23083 0.984299 0
M  V30 666 C 60.372 1.05848 1.72165 0
M  V30 667 C 60.693 -0.406049 1.90726 0
M  V30 668 O 59.963 -1.29139 1.47309 0
M  V30 669 H 58.543 0.388685 0.637913 0
M  V30 670 H 61.205 1.54736 1.18503 0
M  V30 671 H 60.301 1.54327 2.71274 0
M  V30 672 N 60.6021 -1.18246 1.0419 0
M  V30 673 C 61.8301 -1.92195 0.766072 0
M  V30 674 C 62.2451 -1.76247 -0.676933 0
M  V30 675 O 61.6021 -1.09293 -1.46155 0
M  V30 676 C 61.6531 -3.43568 1.12442 0
M  V30 677 O 61.3741 -3.59015 2.51078 0
M  V30 678 C 62.8751 -4.34613 0.873275 0
M  V30 679 H 60.0951 -0.610114 0.279288 0
M  V30 680 H 62.6391 -1.50007 1.38989 0
M  V30 681 H 60.7941 -3.8354 0.545542 0
M  V30 682 H 61.2081 -4.5273 2.64831 0
M  V30 683 H 62.6821 -5.39374 1.17385 0
M  V30 684 H 63.1591 -4.38781 -0.191909 0
M  V30 685 H 63.7651 -4.00341 1.43551 0
M  V30 686 N 62.0802 -0.821533 -1.34494 0
M  V30 687 C 63.3052 -0.420873 -2.03085 0
M  V30 688 C 63.7302 0.964915 -1.61465 0
M  V30 689 O 63.0882 1.62763 -0.798607 0
M  V30 690 C 63.1362 -0.529414 -3.56693 0
M  V30 691 O 62.2402 0.451302 -4.09923 0
M  V30 692 H 61.5812 -0.173489 -0.640935 0
M  V30 693 H 64.1112 -1.11157 -1.71771 0
M  V30 694 H 64.1212 -0.404671 -4.05988 0
M  V30 695 H 62.7962 -1.54014 -3.86332 0
M  V30 696 H 61.3732 0.285558 -3.71805 0
M  V30 697 N 63.5583 1.46682 -0.576371 0
M  V30 698 C 64.4903 2.28341 0.198231 0
M  V30 699 C 65.5033 1.38141 0.861453 0
M  V30 700 O 66.6923 1.62797 0.732082 0
M  V30 701 C 63.7923 3.12986 1.29972 0
M  V30 702 C 62.9653 4.31271 0.729639 0
M  V30 703 C 62.0243 4.97363 1.71803 0
M  V30 704 O 61.0503 5.55156 1.25658 0
M  V30 705 N 62.2523 4.93796 3.05198 0
M  V30 706 H 65.0173 2.9546 -0.502324 0
M  V30 707 H 62.5783 1.56525 -0.413715 0
M  V30 708 H 64.5703 3.54066 1.96008 0
M  V30 709 H 63.1403 2.47984 1.90323 0
M  V30 710 H 62.3603 3.94052 -0.108012 0
M  V30 711 H 63.6483 5.07739 0.328438 0
M  V30 712 H 63.0463 4.48077 3.45317 0
M  V30 713 H 61.6033 5.38837 3.6674 0
M  V30 714 N 65.0364 0.313813 1.54444 0
M  V30 715 C 65.9994 -0.54379 2.22656 0
M  V30 716 C 66.9994 -1.05124 1.21678 0
M  V30 717 O 68.1894 -0.945225 1.46325 0
M  V30 718 C 65.3214 -1.75427 2.92298 0
M  V30 719 H 66.5144 0.0523599 2.99854 0
M  V30 720 H 64.0674 0.0647834 1.56166 0
M  V30 721 H 64.8024 -2.38991 2.19211 0
M  V30 722 H 64.5874 -1.39791 3.66334 0
M  V30 723 H 66.0774 -2.36325 3.44297 0
M  V30 724 N 66.5145 -1.57545 0.0417849 0
M  V30 725 C 67.7915 -1.83642 -0.673433 0
M  V30 726 C 68.1715 -0.928298 -1.89594 0
M  V30 727 O 67.5195 0.0129955 -2.28496 0
M  V30 728 C 67.7295 -3.33155 -1.03964 0
M  V30 729 C 69.0775 -3.99941 -1.42592 0
M  V30 730 O 70.1015 -3.37725 -1.13226 0
M  V30 731 O 68.9605 -5.09619 -1.9736 0
M  V30 732 H 66.0545 -0.757638 -0.331533 0
M  V30 733 H 68.6005 -1.69554 0.070433 0
M  V30 734 H 67.3725 -3.9093 -0.170098 0
M  V30 735 H 66.9955 -3.52396 -1.84126 0
M  V30 736 N 67.9926 0.231505 -1.5589 0
M  V30 737 C 69.2326 0.964533 -1.80211 0
M  V30 738 C 69.5966 1.81926 -0.613744 0
M  V30 739 O 70.7976 2.58526 -0.736045 0
M  V30 740 C 69.0686 1.78956 -3.09369 0
M  V30 741 S 70.6276 2.57959 -3.54969 0
M  V30 742 H 67.4456 0.324173 -0.632798 0
M  V30 743 H 70.0476 0.230985 -1.94131 0
M  V30 744 H 68.7516 1.15161 -3.93911 0
M  V30 745 H 68.2826 2.56559 -2.9823 0
M  V30 746 H 70.2976 3.81309 -3.17519 0
M  V30 747 N 69.4707 1.49531 0.497807 0
M  V30 748 C 70.4337 1.65916 1.58128 0
M  V30 749 C 71.4337 0.530825 1.51786 0
M  V30 750 O 72.6237 0.797342 1.54881 0
M  V30 751 C 69.7557 1.65951 2.9778 0
M  V30 752 H 70.9487 2.62556 1.44929 0
M  V30 753 H 68.5017 1.38611 0.722275 0
M  V30 754 H 69.2367 0.709065 3.16453 0
M  V30 755 H 69.0217 2.47897 3.03792 0
M  V30 756 H 70.5117 1.80673 3.76493 0
M  V30 757 N 70.9488 -0.749086 1.3866 0
M  V30 758 C 72.1948 -1.51056 1.35314 0
M  V30 759 C 72.5278 -1.94121 -0.0553751 0
M  V30 760 O 71.8028 -1.65763 -1.01749 0
M  V30 761 C 72.0858 -2.76003 2.31288 0
M  V30 762 C 71.9388 -2.39047 3.8102 0
M  V30 763 C 73.2578 -3.78046 2.2532 0
M  V30 764 H 70.3768 -0.547972 0.492844 0
M  V30 765 H 73.0188 -0.857628 1.69543 0
M  V30 766 H 71.1688 -3.31716 2.02229 0
M  V30 767 H 72.8408 -1.89074 4.20771 0
M  V30 768 H 71.0838 -1.71449 3.98482 0
M  V30 769 H 71.7548 -3.28462 4.4364 0
M  V30 770 H 74.2308 -3.31884 2.50983 0
M  V30 771 H 73.1068 -4.63159 2.94576 0
M  V30 772 H 73.3678 -4.23957 1.25352 0
M  V30 773 N 72.4269 -1.23603 -0.977757 0
M  V30 774 C 73.3569 -1.04401 -2.0886 0
M  V30 775 C 74.3379 0.0399052 -1.70053 0
M  V30 776 O 75.5229 -0.125246 -1.93796 0
M  V30 777 C 72.6529 -0.637269 -3.41403 0
M  V30 778 C 71.6069 -1.66883 -3.94124 0
M  V30 779 C 70.9329 -1.11745 -5.22893 0
M  V30 780 C 72.2329 -3.06247 -4.23096 0
M  V30 781 H 73.9269 -1.97316 -2.25182 0
M  V30 782 H 71.4729 -0.950096 -1.08209 0
M  V30 783 H 73.4259 -0.48998 -4.18542 0
M  V30 784 H 72.1499 0.327557 -3.24953 0
M  V30 785 H 70.8089 -1.80416 -3.19133 0
M  V30 786 H 70.4569 -0.143527 -5.02795 0
M  V30 787 H 70.1569 -1.80672 -5.59134 0
M  V30 788 H 71.6809 -0.982067 -6.02651 0
M  V30 789 H 73.0949 -2.96001 -4.90975 0
M  V30 790 H 71.4919 -3.72436 -4.70544 0
M  V30 791 H 72.5619 -3.55041 -3.30263 0
M  V30 792 N 73.905 1.17692 -1.04816 0
M  V30 793 C 75.154 1.87192 -0.751132 0
M  V30 794 C 75.467 1.8169 0.724441 0
M  V30 795 O 76.673 2.46625 1.13527 0
M  V30 796 C 75.129 3.35857 -1.29338 0
M  V30 797 C 74.737 3.4987 -2.79812 0
M  V30 798 C 76.481 4.10709 -1.07322 0
M  V30 799 C 74.388 4.92536 -3.27356 0
M  V30 800 H 73.318 0.701162 -0.277288 0
M  V30 801 H 75.969 1.32932 -1.26496 0
M  V30 802 H 74.351 3.89631 -0.707376 0
M  V30 803 H 75.525 3.06332 -3.44235 0
M  V30 804 H 73.84 2.88433 -3.00325 0
M  V30 805 H 76.437 5.15952 -1.4035 0
M  V30 806 H 76.78 4.16299 -0.0108001 0
M  V30 807 H 77.313 3.6313 -1.62423 0
M  V30 808 H 74.052 4.92119 -4.33012 0
M  V30 809 H 73.572 5.3676 -2.67673 0
M  V30 810 H 75.251 5.61288 -3.21815 0
M  V30 811 N 75.3831 0.828654 1.34056 0
M  V30 812 C 76.6291 0.42008 1.98402 0
M  V30 813 C 76.9621 -1.01564 1.65525 0
M  V30 814 O 76.2371 -1.70834 0.929831 0
M  V30 815 C 76.5201 0.62927 3.54559 0
M  V30 816 C 76.3731 2.11152 3.97159 0
M  V30 817 C 77.6921 0.0688756 4.40046 0
M  V30 818 H 74.8111 0.154104 0.720709 0
M  V30 819 H 77.4531 1.04228 1.5886 0
M  V30 820 H 75.6031 0.0996418 3.88372 0
M  V30 821 H 77.2751 2.70522 3.73651 0
M  V30 822 H 75.5181 2.59985 3.47261 0
M  V30 823 H 76.1891 2.20868 5.05887 0
M  V30 824 H 78.6651 0.521458 4.1282 0
M  V30 825 H 77.5411 0.245006 5.48353 0
M  V30 826 H 77.8021 -1.0266 4.30015 0
M  V30 827 N 76.8612 -1.46375 0.584142 0
M  V30 828 C 77.8242 -2.28784 -0.138108 0
M  V30 829 C 78.8242 -1.38471 -0.817462 0
M  V30 830 O 80.0142 -1.60833 -0.669199 0
M  V30 831 C 77.1462 -3.18892 -1.20503 0
M  V30 832 H 78.3392 -2.94117 0.586127 0
M  V30 833 H 75.8922 -1.52509 0.342171 0
M  V30 834 H 76.6272 -2.58309 -1.96079 0
M  V30 835 H 76.4122 -3.85388 -0.722384 0
M  V30 836 H 77.9022 -3.80914 -1.71155 0
M  V30 837 N 78.3393 -0.321999 -1.54275 0
M  V30 838 C 79.3023 0.531975 -2.22941 0
M  V30 839 C 80.3023 1.04478 -1.22234 0
M  V30 840 O 81.4923 0.937452 -1.46825 0
M  V30 841 C 78.6243 1.73874 -2.93224 0
M  V30 842 H 79.8173 -0.0682612 -2.99822 0
M  V30 843 H 77.3703 -0.0730644 -1.56129 0
M  V30 844 H 78.1053 2.37825 -2.20476 0
M  V30 845 H 77.8903 1.37847 -3.6707 0
M  V30 846 H 79.3803 2.34496 -3.45545 0
M  V30 847 N 79.8174 1.5752 -0.0501392 0
M  V30 848 C 81.0654 1.9227 0.622642 0
M  V30 849 C 81.3864 0.929083 1.71444 0
M  V30 850 O 80.6564 -0.0262186 1.95882 0
M  V30 851 H 79.2364 0.709739 0.232981 0
M  V30 852 H 81.8984 1.94628 -0.102898 0
M  V30 853 H 80.9944 2.93479 1.06191 0
M  V30 854 N 81.2955 -0.223234 1.56011 0
M  V30 855 C 82.5415 -0.949279 1.79211 0
M  V30 856 C 82.8745 -1.84054 0.619494 0
M  V30 857 O 82.1495 -1.90726 -0.381317 0
M  V30 858 C 82.4325 -1.78965 3.12479 0
M  V30 859 C 82.2855 -0.924997 4.40186 0
M  V30 860 C 83.6045 -2.76774 3.42175 0
M  V30 861 H 80.7235 -0.343676 0.651963 0
M  V30 862 H 83.3655 -0.218253 1.88742 0
M  V30 863 H 81.5155 -2.41291 3.04485 0
M  V30 864 H 83.1875 -0.318615 4.60198 0
M  V30 865 H 81.4305 -0.230344 4.33188 0
M  V30 866 H 82.1015 -1.54735 5.29869 0
M  V30 867 H 84.5775 -2.24584 3.50287 0
M  V30 868 H 83.4535 -3.32678 4.36597 0
M  V30 869 H 83.7145 -3.54429 2.64258 0
M  V30 870 N 82.7736 -1.49793 -0.48987 0
M  V30 871 C 84.0216 -1.59525 -1.24081 0
M  V30 872 C 84.3426 -0.288953 -1.92847 0
M  V30 873 O 83.6126 0.692436 -1.83254 0
M  V30 874 H 82.1926 -0.587796 -0.460983 0
M  V30 875 H 84.8546 -1.86477 -0.566778 0
M  V30 876 H 83.9506 -2.39696 -1.99881 0
M  V30 877 N 84.2517 0.741722 -1.39055 0
M  V30 878 C 85.1617 1.88621 -1.39496 0
M  V30 879 C 86.1777 1.71557 -0.290578 0
M  V30 880 O 87.3537 1.94275 -0.530954 0
M  V30 881 C 84.4187 3.24134 -1.23037 0
M  V30 882 C 83.4797 3.5364 -2.43387 0
M  V30 883 C 82.7127 4.82687 -2.27703 0
M  V30 884 O 82.9357 5.55922 -1.27696 0
M  V30 885 O 81.8697 5.1194 -3.16545 0
M  V30 886 H 85.6957 1.91203 -2.35956 0
M  V30 887 H 83.2807 0.888625 -1.20099 0
M  V30 888 H 85.1627 4.0513 -1.15964 0
M  V30 889 H 83.8377 3.22337 -0.296691 0
M  V30 890 H 82.7447 2.72758 -2.56035 0
M  V30 891 H 84.0777 3.60209 -3.35425 0
M  V30 892 N 85.7298 1.2412 0.971189 0
M  V30 893 C 86.9768 1.07881 1.71371 0
M  V30 894 C 87.3048 -0.382901 1.90694 0
M  V30 895 O 86.5598 -1.29945 1.46331 0
M  V30 896 C 86.8588 1.75983 3.11071 0
M  V30 897 C 86.5248 3.25909 3.11599 0
M  V30 898 C 85.1868 3.66813 3.11451 0
M  V30 899 C 87.5388 4.21771 3.062 0
M  V30 900 C 84.8668 5.02021 3.03631 0
M  V30 901 C 87.2188 5.56982 2.99923 0
M  V30 902 C 85.8828 5.97237 2.98102 0
M  V30 903 H 85.1528 0.394764 0.62709 0
M  V30 904 H 87.7998 1.54176 1.13587 0
M  V30 905 H 86.1048 1.22072 3.72298 0
M  V30 906 H 87.8018 1.60887 3.6731 0
M  V30 907 H 84.3918 2.93353 3.12477 0
M  V30 908 H 88.5758 3.91172 3.05447 0
M  V30 909 H 83.8318 5.32411 3.0058 0
M  V30 910 H 88.0058 6.30969 2.94704 0
M  V30 911 H 85.6328 7.01967 2.91798 0
M  V30 912 N 87.2079 -1.17134 1.05439 0
M  V30 913 C 88.1179 -2.24878 0.668365 0
M  V30 914 C 89.1339 -1.71186 -0.311687 0
M  V30 915 O 90.3099 -2.00738 -0.163161 0
M  V30 916 C 87.3749 -3.46662 0.051648 0
M  V30 917 C 86.4359 -4.15429 1.08246 0
M  V30 918 C 85.6689 -5.31399 0.495082 0
M  V30 919 O 85.8919 -5.66153 -0.694743 0
M  V30 920 O 84.8259 -5.89187 1.23056 0
M  V30 921 H 88.6519 -2.60189 1.56637 0
M  V30 922 H 86.2369 -1.24482 0.826104 0
M  V30 923 H 88.1189 -4.20394 -0.290966 0
M  V30 924 H 86.7939 -3.13142 -0.819971 0
M  V30 925 H 85.7009 -3.43704 1.47711 0
M  V30 926 H 87.0339 -4.52982 1.92532 0
M  V30 927 N 88.686 -0.835752 -1.33615 0
M  V30 928 C 89.649 -0.272 -2.2758 0
M  V30 929 C 90.649 0.557487 -1.50827 0
M  V30 930 O 91.839 0.37173 -1.70188 0
M  V30 931 C 88.971 0.617173 -3.35267 0
M  V30 932 H 90.164 -1.10111 -2.78954 0
M  V30 933 H 87.717 -0.608594 -1.43965 0
M  V30 934 H 88.452 1.46884 -2.89129 0
M  V30 935 H 88.237 0.0237066 -3.92093 0
M  V30 936 H 89.727 1.005 -4.05326 0
M  V30 937 N 90.1641 1.46063 -0.591896 0
M  V30 938 C 91.4121 2.01938 -0.0808391 0
M  V30 939 C 91.7331 1.46475 1.28725 0
M  V30 940 O 91.0031 0.652944 1.84698 0
M  V30 941 H 89.5831 0.746516 -0.0268938 0
M  V30 942 H 92.2451 1.79055 -0.769752 0
M  V30 943 H 91.3411 3.12094 -0.0187578 0
M  V30 944 N 91.6422 0.330177 1.54103 0
M  V30 945 C 92.8912 -0.271336 1.99867 0
M  V30 946 C 93.2042 -1.52723 1.22209 0
M  V30 947 O 94.4102 -2.20515 1.58383 0
M  V30 948 C 92.8662 -0.534032 3.55916 0
M  V30 949 C 92.4742 0.705193 4.42415 0
M  V30 950 C 94.2182 -1.09514 4.1013 0
M  V30 951 C 92.1252 0.414035 5.89949 0
M  V30 952 H 91.0552 -0.105166 0.74663 0
M  V30 953 H 93.7062 0.443429 1.78062 0
M  V30 954 H 92.0882 -1.30915 3.73734 0
M  V30 955 H 93.2622 1.4804 4.36372 0
M  V30 956 H 91.5772 1.18698 3.99124 0
M  V30 957 H 94.1742 -1.3277 5.17954 0
M  V30 958 H 94.5172 -2.04656 3.62521 0
M  V30 959 H 95.0502 -0.381038 3.95971 0
M  V30 960 H 91.7892 1.33481 6.41766 0
M  V30 961 H 91.3092 -0.323336 5.98928 0
M  V30 962 H 92.9882 0.0263105 6.46995 0
M  V30 963 N 93.1203 -1.57491 0.0584922 0
M  V30 964 C 94.3453 -1.97711 -0.62652 0
M  V30 965 C 94.7703 -0.936132 -1.63151 0
M  V30 966 O 94.1283 0.099811 -1.81025 0
M  V30 967 C 94.1763 -3.36989 -1.28338 0
M  V30 968 O 93.2803 -3.35433 -2.39913 0
M  V30 969 H 92.6213 -0.643868 -0.162266 0
M  V30 970 H 95.1513 -2.04193 0.129064 0
M  V30 971 H 95.1613 -3.73879 -1.63335 0
M  V30 972 H 93.8363 -4.12289 -0.546889 0
M  V30 973 H 92.4133 -3.10298 -2.06809 0
M  V30 974 N 94.5984 0.214957 -1.56127 0
M  V30 975 C 95.5454 1.26642 -1.92952 0
M  V30 976 C 96.5154 1.46244 -0.78753 0
M  V30 977 O 97.7004 1.59704 -1.04399 0
M  V30 978 C 94.8404 2.6104 -2.25726 0
M  V30 979 C 93.9534 2.49183 -3.52891 0
M  V30 980 C 93.0884 3.76149 -3.7508 0
M  V30 981 C 92.1274 3.59041 -4.95738 0
M  V30 982 N 91.2644 4.77972 -5.14283 0
M  V30 983 H 96.1044 0.945384 -2.82607 0
M  V30 984 H 93.6414 0.455489 -1.3987 0
M  V30 985 H 95.5994 3.39313 -2.42739 0
M  V30 986 H 94.2294 2.91227 -1.39236 0
M  V30 987 H 93.2814 1.6231 -3.44034 0
M  V30 988 H 94.5934 2.32466 -4.41318 0
M  V30 989 H 93.7474 4.62865 -3.92226 0
M  V30 990 H 92.4864 3.95799 -2.84947 0
M  V30 991 H 91.4914 2.7071 -4.78535 0
M  V30 992 H 92.7164 3.40856 -5.87362 0
M  V30 993 H 90.6624 4.97923 -4.27093 0
M  V30 994 H 90.5794 4.64006 -5.96853 0
M  V30 995 H 91.8474 5.66096 -5.35869 0
M  V30 996 N 96.0765 1.50051 0.48192 0
M  V30 997 C 97.0245 1.68635 1.60203 0
M  V30 998 C 98.0185 0.552184 1.60148 0
M  V30 999 O 99.2245 0.732377 1.64427 0
M  V30 1000 H 95.5995 0.532081 0.531407 0
M  V30 1001 H 97.5705 2.62616 1.41688 0
M  V30 1002 C 96.3195 1.78775 2.9822 0
M  V30 1003 H 95.6425 2.6543 2.98976 0
M  V30 1004 H 97.0825 1.95806 3.7608 0
M  V30 1005 C 95.5415 0.536849 3.32595 0
M  V30 1006 O 96.0715 -0.328897 4.00351 0
M  V30 1007 N 94.2775 0.394091 2.87915 0
M  V30 1008 H 93.8245 1.09962 2.32951 0
M  V30 1009 H 93.7825 -0.441737 3.11281 0
M  V30 1010 N 97.5546 -0.734337 1.39446 0
M  V30 1011 C 98.8026 -1.49096 1.36436 0
M  V30 1012 C 99.1236 -1.94961 -0.0388255 0
M  V30 1013 O 98.3936 -1.69033 -0.990191 0
M  V30 1014 H 96.9736 -0.5531 0.502085 0
M  V30 1015 H 99.6356 -0.871725 1.74319 0
M  V30 1016 H 98.7316 -2.37276 2.02747 0
M  V30 1017 N 99.0327 -1.24633 -0.964593 0
M  V30 1018 C 99.9647 -0.999302 -2.06268 0
M  V30 1019 C 100.978 0.0323226 -1.62768 0
M  V30 1020 O 102.167 -0.205079 -1.77318 0
M  V30 1021 C 99.2667 -0.486816 -3.35385 0
M  V30 1022 C 98.4397 -1.5823 -4.07777 0
M  V30 1023 C 97.4987 -1.07191 -5.15166 0
M  V30 1024 O 96.5247 -1.76426 -5.41168 0
M  V30 1025 N 97.7267 0.0920373 -5.80427 0
M  V30 1026 H 100.492 -1.94477 -2.28033 0
M  V30 1027 H 98.0527 -1.15704 -1.13244 0
M  V30 1028 H 100.045 -0.130066 -4.04491 0
M  V30 1029 H 98.6147 0.364459 -3.10468 0
M  V30 1030 H 97.8347 -2.11109 -3.32906 0
M  V30 1031 H 99.1227 -2.31854 -4.52903 0
M  V30 1032 H 98.5207 0.670784 -5.61709 0
M  V30 1033 H 97.0777 0.389905 -6.50633 0
M  V30 1034 N 100.511 1.16574 -1.06058 0
M  V30 1035 C 101.739 1.90952 -0.796552 0
M  V30 1036 C 102.154 1.77302 0.648808 0
M  V30 1037 O 101.511 1.11605 1.44397 0
M  V30 1038 C 101.562 3.41736 -1.17894 0
M  V30 1039 O 101.283 3.54975 -2.56758 0
M  V30 1040 C 102.784 4.33169 -0.942308 0
M  V30 1041 H 100.004 0.605594 -0.288959 0
M  V30 1042 H 102.548 1.47777 -1.41358 0
M  V30 1043 H 100.703 3.82623 -0.606491 0
M  V30 1044 H 101.117 4.4846 -2.72 0
M  V30 1045 H 102.591 5.37439 -1.25952 0
M  V30 1046 H 103.068 4.3903 0.122078 0
M  V30 1047 H 103.674 3.98007 -1.49902 0
M  V30 1048 N 101.989 0.842826 1.3317 0
M  V30 1049 C 103.405 0.531128 1.50503 0
M  V30 1050 C 103.605 -0.940734 1.78192 0
M  V30 1051 O 102.661 -1.72436 1.84451 0
M  V30 1052 C 103.974 1.40789 2.65705 0
M  V30 1053 C 105.522 1.40708 2.79589 0
M  V30 1054 C 105.997 2.26878 3.97857 0
M  V30 1055 N 107.488 2.24609 4.05099 0
M  V30 1056 C 108.223 2.88019 4.95815 0
M  V30 1057 N 107.719 3.60496 5.9162 0
M  V30 1058 N 109.512 2.77469 4.88843 0
M  V30 1059 H 101.663 1.79557 1.1346 0
M  V30 1060 H 103.926 0.766267 0.558156 0
M  V30 1061 H 103.632 2.454 2.51936 0
M  V30 1062 H 103.506 1.08677 3.61205 0
M  V30 1063 H 105.893 0.368668 2.92788 0
M  V30 1064 H 105.974 1.76829 1.84838 0
M  V30 1065 H 105.618 3.3078 3.85418 0
M  V30 1066 H 105.548 1.88096 4.91861 0
M  V30 1067 H 108.039 1.71906 3.36536 0
M  V30 1068 H 108.352 4.06076 6.57512 0
M  V30 1069 H 106.697 3.64604 5.91683 0
M  V30 1070 H 109.888 2.20406 4.12963 0
M  V30 1071 H 110.061 3.2717 5.59342 0
M  V30 1072 N 103.467 -1.45747 0.599634 0
M  V30 1073 C 104.377 -2.34262 -0.125888 0
M  V30 1074 C 105.393 -1.50768 -0.868625 0
M  V30 1075 O 106.569 -1.83592 -0.828003 0
M  V30 1076 C 103.634 -3.28252 -1.11587 0
M  V30 1077 C 102.695 -4.27651 -0.375956 0
M  V30 1078 C 101.928 -5.1715 -1.31877 0
M  V30 1079 O 102.151 -5.09916 -2.55621 0
M  V30 1080 O 101.085 -5.96286 -0.820157 0
M  V30 1081 H 104.911 -2.97688 0.601315 0
M  V30 1082 H 102.496 -1.44999 0.359934 0
M  V30 1083 H 104.378 -3.86191 -1.68626 0
M  V30 1084 H 103.053 -2.67401 -1.82424 0
M  V30 1085 H 101.96 -3.7335 0.236698 0
M  V30 1086 H 103.293 -4.91334 0.29177 0
M  V30 1087 N 104.945 -0.338344 -1.53925 0
M  V30 1088 C 105.895 0.536712 -2.21593 0
M  V30 1089 C 106.879 1.07015 -1.20153 0
M  V30 1090 O 108.071 1.00471 -1.45721 0
M  V30 1091 C 105.2 1.68977 -2.98834 0
M  V30 1092 C 104.286 1.17052 -4.07627 0
M  V30 1093 N 104.677 0.372085 -5.0443 0
M  V30 1094 C 102.975 1.44789 -4.21844 0
M  V30 1095 C 103.676 0.0909171 -5.81629 0
M  V30 1096 N 102.652 0.681131 -5.39316 0
M  V30 1097 H 106.454 -0.0804298 -2.9379 0
M  V30 1098 H 103.968 -0.144943 -1.61752 0
M  V30 1099 H 105.965 2.32857 -3.45808 0
M  V30 1100 H 104.625 2.31024 -2.28162 0
M  V30 1101 H 105.636 0.0136217 -5.17898 0
M  V30 1102 H 102.313 2.07313 -3.62391 0
M  V30 1103 H 103.703 -0.552817 -6.69622 0
M  V30 1104 N 106.423 1.57458 -0.0668435 0
M  V30 1105 C 107.386 2.11323 0.887422 0
M  V30 1106 C 108.386 1.03618 1.22964 0
M  V30 1107 O 109.576 1.29626 1.16373 0
M  V30 1108 C 106.708 2.61048 2.19242 0
M  V30 1109 H 107.901 2.96942 0.420194 0
M  V30 1110 H 105.454 1.55239 0.181793 0
M  V30 1111 H 106.189 1.78868 2.70512 0
M  V30 1112 H 105.974 3.39769 1.95702 0
M  V30 1113 H 107.464 3.02814 2.87565 0
M  V30 1114 N 107.901 -0.206675 1.56239 0
M  V30 1115 C 108.831 -1.25909 1.96645 0
M  V30 1116 C 109.812 -1.48097 0.836734 0
M  V30 1117 O 110.997 -1.6003 1.10019 0
M  V30 1118 C 108.127 -2.6058 2.29599 0
M  V30 1119 C 107.081 -2.53024 3.452 0
M  V30 1120 C 106.407 -3.91861 3.63798 0
M  V30 1121 C 107.707 -2.06524 4.79734 0
M  V30 1122 H 109.401 -0.923369 2.84806 0
M  V30 1123 H 106.947 -0.442735 1.37025 0
M  V30 1124 H 108.9 -3.34375 2.56459 0
M  V30 1125 H 107.624 -2.95869 1.38307 0
M  V30 1126 H 106.283 -1.81684 3.18412 0
M  V30 1127 H 105.931 -4.24483 2.69857 0
M  V30 1128 H 105.631 -3.87683 4.4156 0
M  V30 1129 H 107.155 -4.67296 3.93022 0
M  V30 1130 H 108.569 -2.70072 5.05702 0
M  V30 1131 H 106.966 -2.13374 5.60885 0
M  V30 1132 H 108.036 -1.01802 4.74093 0
M  V30 1133 N 109.379 -1.50304 -0.473955 0
M  V30 1134 C 110.309 -1.71886 -1.58042 0
M  V30 1135 C 111.29 -0.567799 -1.60344 0
M  V30 1136 O 112.475 -0.806623 -1.76656 0
M  V30 1137 C 109.605 -1.81036 -2.96384 0
M  V30 1138 C 108.559 -2.962 -3.08949 0
M  V30 1139 C 107.885 -2.9049 -4.48909 0
M  V30 1140 C 109.185 -4.36752 -2.86434 0
M  V30 1141 H 110.879 -2.64527 -1.40234 0
M  V30 1142 H 108.425 -1.27295 -0.673201 0
M  V30 1143 H 110.378 -1.94719 -3.73714 0
M  V30 1144 H 109.102 -0.850147 -3.15341 0
M  V30 1145 H 107.761 -2.82164 -2.3405 0
M  V30 1146 H 107.409 -1.92321 -4.64781 0
M  V30 1147 H 107.109 -3.67802 -4.58253 0
M  V30 1148 H 108.633 -3.06218 -5.28264 0
M  V30 1149 H 110.047 -4.5133 -3.53517 0
M  V30 1150 H 108.444 -5.15493 -3.07225 0
M  V30 1151 H 109.514 -4.49321 -1.82316 0
M  V30 1152 N 110.857 0.726932 -1.39834 0
M  V30 1153 C 111.82 1.82269 -1.38962 0
M  V30 1154 C 112.82 1.58248 -0.285334 0
M  V30 1155 O 114.01 1.65499 -0.54366 0
M  V30 1156 C 111.142 3.20186 -1.17019 0
M  V30 1157 H 112.335 1.84443 -2.36476 0
M  V30 1158 H 109.888 0.931416 -1.25516 0
M  V30 1159 H 110.623 3.23669 -0.202204 0
M  V30 1160 H 110.408 3.3902 -1.96998 0
M  V30 1161 H 111.898 4.00235 -1.1917 0
M  V30 1162 N 112.336 1.25143 0.95797 0
M  V30 1163 C 113.566 1.12261 1.73439 0
M  V30 1164 C 113.974 -0.326715 1.86358 0
M  V30 1165 O 113.317 -1.2367 1.35836 0
M  V30 1166 C 113.379 1.69966 3.16784 0
M  V30 1167 C 113.043 3.18936 3.27305 0
M  V30 1168 C 114.04 4.15968 3.11877 0
M  V30 1169 C 111.725 3.59083 3.51234 0
M  V30 1170 C 113.719 5.51126 3.20217 0
M  V30 1171 C 111.406 4.9438 3.5921 0
M  V30 1172 C 112.404 5.90211 3.43716 0
M  V30 1173 O 112.092 7.23046 3.51368 0
M  V30 1174 H 111.824 0.392476 0.550399 0
M  V30 1175 H 114.378 1.65927 1.21068 0
M  V30 1176 H 112.608 1.10744 3.70503 0
M  V30 1177 H 114.297 1.52232 3.76272 0
M  V30 1178 H 115.063 3.86292 2.93264 0
M  V30 1179 H 110.942 2.84989 3.62356 0
M  V30 1180 H 114.486 6.25905 3.0804 0
M  V30 1181 H 110.383 5.23723 3.77339 0
M  V30 1182 H 111.151 7.31097 3.6802 0
M  V30 1183 N 113.814 -1.1601 1.06675 0
M  V30 1184 C 115.042 -1.90527 0.806667 0
M  V30 1185 C 115.457 -1.77643 -0.639396 0
M  V30 1186 O 114.814 -1.12369 -1.43803 0
M  V30 1187 C 114.865 -3.41106 1.19705 0
M  V30 1188 O 114.586 -3.53608 2.58636 0
M  V30 1189 C 116.087 -4.32663 0.965266 0
M  V30 1190 H 113.307 -0.604053 0.292166 0
M  V30 1191 H 115.851 -1.47026 1.4214 0
M  V30 1192 H 114.006 -3.82296 0.626774 0
M  V30 1193 H 114.42 -4.47011 2.74375 0
M  V30 1194 H 115.894 -5.36763 1.288 0
M  V30 1195 H 116.371 -4.39089 -0.0987936 0
M  V30 1196 H 116.977 -3.97206 1.52011 0
M  V30 1197 N 115.292 -0.849877 -1.32721 0
M  V30 1198 C 116.222 -0.306308 -2.31482 0
M  V30 1199 C 117.203 0.591952 -1.59468 0
M  V30 1200 O 118.388 0.513199 -1.87296 0
M  V30 1201 C 115.518 0.510204 -3.43532 0
M  V30 1202 C 114.472 -0.293209 -4.26994 0
M  V30 1203 C 113.798 0.647743 -5.30762 0
M  V30 1204 C 115.098 -1.51634 -4.99804 0
M  V30 1205 H 116.792 -1.13153 -2.77195 0
M  V30 1206 H 114.338 -0.545553 -1.33266 0
M  V30 1207 H 116.291 0.900856 -4.11658 0
M  V30 1208 H 115.015 1.36874 -2.96535 0
M  V30 1209 H 113.674 -0.665555 -3.60508 0
M  V30 1210 H 113.322 1.50299 -4.8002 0
M  V30 1211 H 113.022 0.11422 -5.87489 0
M  V30 1212 H 114.546 1.03567 -6.01753 0
M  V30 1213 H 115.96 -1.19824 -5.60638 0
M  V30 1214 H 114.357 -1.98745 -5.66234 0
M  V30 1215 H 115.427 -2.28018 -4.27943 0
M  V30 1216 N 116.77 1.45427 -0.607355 0
M  V30 1217 C 118.018 2.01841 -0.102253 0
M  V30 1218 C 118.339 1.47832 1.27164 0
M  V30 1219 O 117.609 0.672497 1.83995 0
M  V30 1220 H 116.189 0.746188 -0.0348101 0
M  V30 1221 H 118.851 1.78229 -0.7887 0
M  V30 1222 H 117.947 3.12057 -0.0518585 0
M  V30 1223 N 118.248 0.346503 1.53744 0
M  V30 1224 C 119.494 -0.249473 2.0126 0
M  V30 1225 C 119.827 -1.49965 1.23386 0
M  V30 1226 O 119.102 -1.91811 0.32229 0
M  V30 1227 C 119.385 -0.560643 3.55709 0
M  V30 1228 C 119.238 0.701836 4.44291 0
M  V30 1229 C 120.557 -1.36905 4.18264 0
M  V30 1230 H 117.676 -0.0891987 0.731582 0
M  V30 1231 H 120.318 0.467624 1.84156 0
M  V30 1232 H 118.468 -1.17156 3.70414 0
M  V30 1233 H 120.14 1.33974 4.41417 0
M  V30 1234 H 118.383 1.32612 4.13033 0
M  V30 1235 H 119.054 0.43933 5.50249 0
M  V30 1236 H 121.53 -0.852448 4.07275 0
M  V30 1237 H 120.406 -1.55553 5.26398 0
M  V30 1238 H 120.667 -2.37203 3.73078 0
M  V30 1239 N 119.726 -1.57421 0.075193 0
M  V30 1240 C 120.673 -2.12915 -0.890843 0
M  V30 1241 C 121.643 -1.04252 -1.29309 0
M  V30 1242 O 122.828 -1.31933 -1.37834 0
M  V30 1243 C 119.968 -2.69795 -2.15186 0
M  V30 1244 C 119.081 -3.92624 -1.80194 0
M  V30 1245 C 118.216 -4.37736 -3.00933 0
M  V30 1246 C 117.255 -5.53205 -2.61974 0
M  V30 1247 N 116.392 -5.9326 -3.75483 0
M  V30 1248 H 121.232 -2.95156 -0.410735 0
M  V30 1249 H 118.769 -1.45854 -0.191086 0
M  V30 1250 H 120.727 -3.00883 -2.89008 0
M  V30 1251 H 119.357 -1.90313 -2.60731 0
M  V30 1252 H 118.409 -3.67977 -0.964218 0
M  V30 1253 H 119.721 -4.76482 -1.47534 0
M  V30 1254 H 118.875 -4.70503 -3.8303 0
M  V30 1255 H 117.614 -3.52739 -3.36789 0
M  V30 1256 H 116.619 -5.20086 -1.783 0
M  V30 1257 H 117.844 -6.39936 -2.27284 0
M  V30 1258 H 115.79 -5.11212 -4.11094 0
M  V30 1259 H 115.707 -6.71865 -3.46602 0
M  V30 1260 H 116.975 -6.30651 -4.58148 0
M  V30 1261 N 121.204 0.198386 -1.56346 0
M  V30 1262 C 122.136 1.26987 -1.90806 0
M  V30 1263 C 123.149 1.41877 -0.798419 0
M  V30 1264 O 124.338 1.42362 -1.07682 0
M  V30 1265 C 121.438 2.64246 -2.12196 0
M  V30 1266 C 120.611 2.71007 -3.43328 0
M  V30 1267 C 119.67 3.89439 -3.5387 0
M  V30 1268 O 118.696 3.76695 -4.26719 0
M  V30 1269 N 119.898 5.04752 -2.86715 0
M  V30 1270 H 122.663 0.977433 -2.83313 0
M  V30 1271 H 120.224 0.388322 -1.57174 0
M  V30 1272 H 122.216 3.41896 -2.1654 0
M  V30 1273 H 120.786 2.85992 -1.26204 0
M  V30 1274 H 120.006 1.79657 -3.50881 0
M  V30 1275 H 121.294 2.72512 -4.29668 0
M  V30 1276 H 120.692 5.18004 -2.2735 0
M  V30 1277 H 119.249 5.8036 -2.96691 0
M  V30 1278 N 122.682 1.50554 0.465978 0
M  V30 1279 C 123.612 1.72722 1.57128 0
M  V30 1280 C 124.593 0.576294 1.6004 0
M  V30 1281 O 125.778 0.81598 1.76225 0
M  V30 1282 C 122.908 1.82605 2.95419 0
M  V30 1283 C 121.862 2.97835 3.07373 0
M  V30 1284 C 121.188 2.92867 4.47363 0
M  V30 1285 C 122.488 4.38265 2.84114 0
M  V30 1286 H 124.182 2.65267 1.38829 0
M  V30 1287 H 121.728 1.2765 0.666441 0
M  V30 1288 H 123.681 1.96698 3.72677 0
M  V30 1289 H 122.405 0.866858 3.14886 0
M  V30 1290 H 121.064 2.83401 2.3255 0
M  V30 1291 H 120.712 1.94783 4.63755 0
M  V30 1292 H 120.412 3.70227 4.56296 0
M  V30 1293 H 121.936 3.09015 5.26633 0
M  V30 1294 H 123.35 4.53198 3.51118 0
M  V30 1295 H 121.747 5.17115 3.04487 0
M  V30 1296 H 122.817 4.50281 1.7993 0
M  V30 1297 N 124.16 -0.719506 1.40217 0
M  V30 1298 C 125.409 -1.47486 1.37589 0
M  V30 1299 C 125.722 -1.9559 -0.0201568 0
M  V30 1300 O 126.928 -2.70973 -0.169049 0
M  V30 1301 C 125.384 -2.66575 2.41796 0
M  V30 1302 C 124.992 -2.25358 3.87192 0
M  V30 1303 C 126.736 -3.4433 2.48269 0
M  V30 1304 C 124.643 -3.41262 4.83005 0
M  V30 1305 H 123.573 -0.553901 0.511576 0
M  V30 1306 H 126.224 -0.783427 1.65936 0
M  V30 1307 H 124.606 -3.3787 2.06543 0
M  V30 1308 H 125.78 -1.61509 4.31569 0
M  V30 1309 H 124.095 -1.60657 3.84159 0
M  V30 1310 H 126.692 -4.30569 3.17041 0
M  V30 1311 H 127.035 -3.87872 1.51198 0
M  V30 1312 H 127.568 -2.80076 2.82493 0
M  V30 1313 H 124.307 -3.02755 5.81394 0
M  V30 1314 H 123.827 -4.0404 4.43297 0
M  V30 1315 H 125.506 -4.07383 5.02641 0
M  V30 1316 N 125.638 -1.25649 -0.95132 0
M  V30 1317 C 126.884 -1.10757 -1.69884 0
M  V30 1318 C 127.217 0.350061 -1.91019 0
M  V30 1319 O 126.492 1.25783 -1.48354 0
M  V30 1320 C 126.775 -1.86606 -3.07978 0
M  V30 1321 C 126.628 -3.40217 -2.94232 0
M  V30 1322 C 127.947 -1.65182 -4.07925 0
M  V30 1323 H 125.066 -0.40374 -0.616574 0
M  V30 1324 H 127.708 -1.54521 -1.10558 0
M  V30 1325 H 125.858 -1.49409 -3.58621 0
M  V30 1326 H 127.53 -3.87108 -2.50889 0
M  V30 1327 H 125.773 -3.67759 -2.30078 0
M  V30 1328 H 126.444 -3.88505 -3.92133 0
M  V30 1329 H 128.92 -1.9757 -3.66204 0
M  V30 1330 H 127.796 -2.20683 -5.02583 0
M  V30 1331 H 128.057 -0.593933 -4.38092 0
M  V30 1332 N 127.117 1.15442 -1.07289 0
M  V30 1333 C 128.365 1.85845 -0.794096 0
M  V30 1334 C 128.686 1.82692 0.681809 0
M  V30 1335 O 127.956 1.26741 1.49377 0
M  V30 1336 H 126.536 0.688089 -0.290763 0
M  V30 1337 H 129.198 1.39947 -1.3565 0
M  V30 1338 H 128.294 2.91001 -1.12804 0
M  V30 1339 N 128.595 0.856903 1.32268 0
M  V30 1340 C 129.841 0.462069 1.97466 0
M  V30 1341 C 130.174 -0.980298 1.67642 0
M  V30 1342 O 129.449 -1.68824 0.965858 0
M  V30 1343 C 129.732 0.704336 3.53145 0
M  V30 1344 C 129.585 2.19529 3.9259 0
M  V30 1345 C 130.904 0.1622 4.39801 0
M  V30 1346 H 128.023 0.169357 0.717278 0
M  V30 1347 H 130.665 1.07574 1.56614 0
M  V30 1348 H 128.815 0.181999 3.88073 0
M  V30 1349 H 130.487 2.78387 3.67829 0
M  V30 1350 H 128.73 2.67292 3.41668 0
M  V30 1351 H 129.401 2.31549 5.01088 0
M  V30 1352 H 131.877 0.608905 4.11621 0
M  V30 1353 H 130.753 0.361265 5.4771 0
M  V30 1354 H 131.014 -0.935158 4.32096 0
M  V30 1355 N 130.073 -1.45103 0.615059 0
M  V30 1356 C 131.021 -2.32331 -0.111791 0
M  V30 1357 C 132.015 -1.46409 -0.852102 0
M  V30 1358 O 133.221 -1.62849 -0.766821 0
M  V30 1359 H 129.596 -0.749993 -0.0549072 0
M  V30 1360 H 131.567 -2.91407 0.642225 0
M  V30 1361 C 130.316 -3.3015 -1.09071 0
M  V30 1362 H 129.639 -3.96265 -0.530485 0
M  V30 1363 H 131.079 -3.93898 -1.56908 0
M  V30 1364 C 129.538 -2.57875 -2.168 0
M  V30 1365 O 130.068 -2.36567 -3.24652 0
M  V30 1366 N 128.274 -2.17884 -1.92289 0
M  V30 1367 H 127.821 -2.35413 -1.04587 0
M  V30 1368 H 127.779 -1.6985 -2.64572 0
M  V30 1369 N 131.551 -0.354651 -1.53558 0
M  V30 1370 C 132.498 0.496968 -2.25386 0
M  V30 1371 C 133.468 1.0865 -1.25636 0
M  V30 1372 O 134.653 1.12104 -1.54394 0
M  V30 1373 C 131.793 1.63637 -3.03837 0
M  V30 1374 C 130.906 1.07307 -4.18461 0
M  V30 1375 C 130.041 2.18068 -4.84376 0
M  V30 1376 C 129.08 1.59147 -5.91049 0
M  V30 1377 N 128.217 2.63695 -6.50699 0
M  V30 1378 H 133.057 -0.122075 -2.9775 0
M  V30 1379 H 130.594 -0.0720154 -1.46924 0
M  V30 1380 H 132.552 2.30734 -3.47589 0
M  V30 1381 H 131.182 2.22623 -2.33749 0
M  V30 1382 H 130.234 0.292708 -3.79272 0
M  V30 1383 H 131.546 0.602193 -4.95152 0
M  V30 1384 H 130.7 2.93007 -5.31255 0
M  V30 1385 H 129.439 2.68504 -4.07133 0
M  V30 1386 H 128.444 0.827175 -5.43542 0
M  V30 1387 H 129.669 1.09549 -6.70206 0
M  V30 1388 H 127.615 3.13365 -5.76315 0
M  V30 1389 H 127.532 2.21263 -7.22896 0
M  V30 1390 H 128.8 3.3837 -7.02229 0
M  V30 1391 N 133.029 1.57378 -0.0835403 0
M  V30 1392 C 133.962 2.09016 0.915833 0
M  V30 1393 C 134.94 0.997993 1.2837 0
M  V30 1394 O 136.124 1.27219 1.39096 0
M  V30 1395 C 133.251 2.55757 2.22049 0
M  V30 1396 C 132.297 3.76522 2.00333 0
M  V30 1397 S 133.13 5.20661 1.25191 0
M  V30 1398 C 134.286 5.70743 2.56912 0
M  V30 1399 H 134.519 2.93457 0.476492 0
M  V30 1400 H 132.052 1.53856 0.129493 0
M  V30 1401 H 134.01 2.83346 2.97027 0
M  V30 1402 H 132.671 1.71564 2.63106 0
M  V30 1403 H 131.864 4.07256 2.96916 0
M  V30 1404 H 131.466 3.49367 1.33488 0
M  V30 1405 H 133.758 5.78304 3.52946 0
M  V30 1406 H 134.701 6.6944 2.30772 0
M  V30 1407 H 135.109 4.98616 2.64655 0
M  V30 1408 N 134.507 -0.190092 1.56449 0
M  V30 1409 C 135.784 -0.935886 1.71757 0
M  V30 1410 C 136.164 -2.01173 0.639726 0
M  V30 1411 O 135.512 -2.25827 -0.348502 0
M  V30 1412 C 135.722 -1.51775 3.1427 0
M  V30 1413 C 137.07 -1.99794 3.74656 0
M  V30 1414 O 138.094 -1.61607 3.1743 0
M  V30 1415 O 136.953 -2.70079 4.751 0
M  V30 1416 H 134.047 -0.439229 0.700719 0
M  V30 1417 H 136.593 -0.179395 1.68749 0
M  V30 1418 H 135.365 -0.742505 3.84191 0
M  V30 1419 H 134.988 -2.33894 3.21527 0
M  V30 1420 N 135.985 -1.50799 -0.457987 0
M  V30 1421 C 137.21 -1.66496 -1.23668 0
M  V30 1422 C 137.635 -0.353288 -1.84752 0
M  V30 1423 O 136.993 0.684346 -1.67888 0
M  V30 1424 C 137.041 -2.76763 -2.3116 0
M  V30 1425 O 136.145 -2.38928 -3.36136 0
M  V30 1426 H 135.486 -0.555828 -0.363252 0
M  V30 1427 H 138.016 -1.9725 -0.543474 0
M  V30 1428 H 138.026 -3.00232 -2.76269 0
M  V30 1429 H 136.701 -3.71954 -1.86073 0
M  V30 1430 H 135.278 -2.25953 -2.96647 0
M  V30 1431 N 137.463 0.71206 -1.40597 0
M  V30 1432 C 138.691 1.50111 -1.42388 0
M  V30 1433 C 139.106 1.88784 -0.0245395 0
M  V30 1434 O 138.463 1.55681 0.952351 0
M  V30 1435 C 138.514 2.7742 -2.31776 0
M  V30 1436 O 138.235 2.40382 -3.66262 0
M  V30 1437 C 139.736 3.7129 -2.42196 0
M  V30 1438 H 136.956 0.46314 -0.485533 0
M  V30 1439 H 139.5 0.878068 -1.8469 0
M  V30 1440 H 137.655 3.36001 -1.92827 0
M  V30 1441 H 138.069 3.22324 -4.13772 0
M  V30 1442 H 139.543 4.57448 -3.08943 0
M  V30 1443 H 140.02 4.14641 -1.44809 0
M  V30 1444 H 140.626 3.18619 -2.81712 0
M  V30 1445 N 138.941 1.26152 0.944643 0
M  V30 1446 C 139.851 1.09176 2.07648 0
M  V30 1447 C 140.867 0.0261935 1.7398 0
M  V30 1448 O 142.043 0.229208 2.00091 0
M  V30 1449 C 139.108 0.722915 3.39079 0
M  V30 1450 C 138.169 1.86752 3.86552 0
M  V30 1451 C 137.402 1.51617 5.11711 0
M  V30 1452 O 137.625 0.416331 5.68879 0
M  V30 1453 O 136.559 2.34975 5.54139 0
M  V30 1454 H 140.385 2.0412 2.24875 0
M  V30 1455 H 137.97 1.05182 1.061 0
M  V30 1456 H 139.852 0.529787 4.18056 0
M  V30 1457 H 138.527 -0.197159 3.23099 0
M  V30 1458 H 137.434 2.11558 3.08535 0
M  V30 1459 H 138.767 2.76719 4.07047 0
M  V30 1460 N 140.419 -1.14872 1.07899 0
M  V30 1461 C 141.83 -1.67367 0.827363 0
M  V30 1462 C 142.181 -1.85236 -0.646693 0
M  V30 1463 O 141.306 -1.55974 -1.50004 0
M  V30 1464 C 141.901 -3.04016 1.49532 0
M  V30 1465 C 140.46 -3.53566 1.29106 0
M  V30 1466 C 139.607 -2.29161 1.56143 0
M  V30 1467 H 142.558 -0.990083 1.24028 0
M  V30 1468 H 142.579 -3.69219 0.919643 0
M  V30 1469 H 142.091 -2.90978 2.56814 0
M  V30 1470 H 140.192 -3.71835 0.238713 0
M  V30 1471 H 140.305 -4.34661 2.01511 0
M  V30 1472 H 138.669 -2.34978 0.982717 0
M  V30 1473 H 139.452 -2.18705 2.64619 0
M  V30 1474 N 141.898 -0.863906 -1.31812 0
M  V30 1475 C 143.309 -0.52522 -1.7916 0
M  V30 1476 C 143.66 0.957518 -1.71248 0
M  V30 1477 O 142.785 1.74734 -1.27659 0
M  V30 1478 C 143.38 -0.9466 -3.25307 0
M  V30 1479 C 141.939 -0.659668 -3.70574 0
M  V30 1480 C 141.086 -1.14126 -2.52726 0
M  V30 1481 H 144.037 -1.05022 -1.1898 0
M  V30 1482 H 144.058 -0.266766 -3.79564 0
M  V30 1483 H 143.57 -2.02579 -3.31034 0
M  V30 1484 H 141.671 0.408416 -3.70355 0
M  V30 1485 H 141.784 -1.23245 -4.62977 0
M  V30 1486 H 140.148 -0.561216 -2.4844 0
M  V30 1487 H 140.931 -2.22775 -2.61201 0
M  V30 1488 N 143.376 1.44774 -0.622745 0
M  V30 1489 C 144.606 2.06187 -0.130532 0
M  V30 1490 C 145.014 1.46547 1.19669 0
M  V30 1491 O 144.357 0.579636 1.74316 0
M  V30 1492 C 144.419 3.59437 0.0674983 0
M  V30 1493 C 144.083 4.41496 -1.18026 0
M  V30 1494 C 145.08 4.75512 -2.102 0
M  V30 1495 C 142.765 4.82007 -1.41333 0
M  V30 1496 C 144.759 5.48912 -3.23998 0
M  V30 1497 C 142.446 5.55157 -2.55429 0
M  V30 1498 C 143.444 5.88528 -3.46589 0
M  V30 1499 O 143.132 6.60191 -4.58697 0
M  V30 1500 H 142.864 0.672045 -0.0730162 0
M  V30 1501 H 145.418 1.86768 -0.854802 0
M  V30 1502 H 143.648 3.77314 0.846825 0
M  V30 1503 H 145.337 4.02642 0.513209 0
M  V30 1504 H 146.103 4.4476 -1.93425 0
M  V30 1505 H 141.982 4.55457 -0.712709 0
M  V30 1506 H 145.526 5.74877 -3.95174 0
M  V30 1507 H 141.423 5.85324 -2.72151 0
M  V30 1508 H 142.191 6.78654 -4.57571 0
M  V30 1509 N 144.854 0.36279 1.53368 0
M  V30 1510 C 146.079 -0.231226 2.06107 0
M  V30 1511 C 146.504 -1.419 1.23474 0
M  V30 1512 O 145.862 -1.79524 0.253128 0
M  V30 1513 C 145.91 -0.605523 3.5548 0
M  V30 1514 O 145.014 -1.70312 3.7559 0
M  V30 1515 H 144.355 -0.034327 0.663112 0
M  V30 1516 H 146.885 0.522584 1.97814 0
M  V30 1517 H 146.895 -0.877314 3.98456 0
M  V30 1518 H 145.57 0.263004 4.15068 0
M  V30 1519 H 144.147 -1.4271 3.44512 0
M  V30 1520 N 146.332 -1.57332 0.0918853 0
M  V30 1521 C 147.264 -2.10869 -0.898168 0
M  V30 1522 C 148.277 -1.04521 -1.24817 0
M  V30 1523 O 149.466 -1.31977 -1.20184 0
M  V30 1524 C 146.566 -2.57083 -2.2082 0
M  V30 1525 C 145.739 -3.87229 -2.03402 0
M  V30 1526 C 144.798 -4.19324 -3.17889 0
M  V30 1527 O 143.824 -4.88598 -2.91994 0
M  V30 1528 N 145.026 -3.74471 -4.43567 0
M  V30 1529 H 147.791 -2.96439 -0.440943 0
M  V30 1530 H 145.352 -1.61631 -0.0933064 0
M  V30 1531 H 147.344 -2.75602 -2.96354 0
M  V30 1532 H 145.914 -1.76541 -2.57977 0
M  V30 1533 H 145.134 -3.7789 -1.12218 0
M  V30 1534 H 146.422 -4.72379 -1.89038 0
M  V30 1535 H 145.82 -3.18546 -4.67488 0
M  V30 1536 H 144.377 -3.98151 -5.16061 0
M  V30 1537 N 147.81 0.181792 -1.56548 0
M  V30 1538 C 148.757 1.22521 -1.95595 0
M  V30 1539 C 149.727 1.4454 -0.818373 0
M  V30 1540 O 150.912 1.57454 -1.07763 0
M  V30 1541 C 148.052 2.56193 -2.31212 0
M  V30 1542 C 147.165 2.41641 -3.58097 0
M  V30 1543 C 146.3 3.68108 -3.82975 0
M  V30 1544 C 145.339 3.48445 -5.03242 0
M  V30 1545 N 144.476 4.66956 -5.24306 0
M  V30 1546 H 149.316 0.885226 -2.84548 0
M  V30 1547 H 146.853 0.425718 -1.40805 0
M  V30 1548 H 148.811 3.34088 -2.49882 0
M  V30 1549 H 147.441 2.88208 -1.45382 0
M  V30 1550 H 146.493 1.54976 -3.474 0
M  V30 1551 H 147.805 2.23052 -4.46149 0
M  V30 1552 H 146.959 4.54441 -4.01956 0
M  V30 1553 H 145.698 3.89666 -2.93278 0
M  V30 1554 H 144.703 2.60499 -4.8417 0
M  V30 1555 H 145.928 3.2832 -5.9446 0
M  V30 1556 H 143.874 4.88752 -4.37559 0
M  V30 1557 H 143.791 4.51242 -6.06561 0
M  V30 1558 H 145.059 5.54602 -5.47756 0
M  V30 1559 N 149.288 1.51039 0.449983 0
M  V30 1560 C 150.704 1.38934 0.785462 0
M  V30 1561 C 150.904 0.461817 1.96136 0
M  V30 1562 O 149.96 -0.0877389 2.52348 0
M  V30 1563 C 151.273 2.80724 1.0777 0
M  V30 1564 C 152.821 2.89787 1.1829 0
M  V30 1565 C 153.296 4.32457 1.50815 0
M  V30 1566 N 154.787 4.35505 1.57764 0
M  V30 1567 C 155.522 5.42914 1.84477 0
M  V30 1568 N 155.018 6.60502 2.09068 0
M  V30 1569 N 156.811 5.3038 1.86155 0
M  V30 1570 H 148.962 2.09904 -0.324647 0
M  V30 1571 H 151.225 0.944378 -0.0827957 0
M  V30 1572 H 150.931 3.50531 0.286498 0
M  V30 1573 H 150.805 3.19273 2.00859 0
M  V30 1574 H 153.192 2.20186 1.96474 0
M  V30 1575 H 153.273 2.54752 0.231314 0
M  V30 1576 H 152.917 5.02603 0.731622 0
M  V30 1577 H 152.847 4.64995 2.47158 0
M  V30 1578 H 155.338 3.50724 1.40715 0
M  V30 1579 H 155.651 7.38158 2.28785 0
M  V30 1580 H 153.996 6.63639 2.06416 0
M  V30 1581 H 157.187 4.37505 1.66454 0
M  V30 1582 H 157.36 6.1417 2.06637 0
M  V30 1583 N 150.766 -0.704594 1.40972 0
M  V30 1584 C 151.996 -1.49138 1.42974 0
M  V30 1585 C 152.404 -1.89175 0.0308406 0
M  V30 1586 O 151.747 -1.56734 -0.958138 0
M  V30 1587 C 151.809 -2.79016 2.26694 0
M  V30 1588 C 151.473 -2.61236 3.74973 0
M  V30 1589 C 152.47 -2.27773 4.67349 0
M  V30 1590 C 150.155 -2.77158 4.18914 0
M  V30 1591 C 152.149 -2.10457 6.01653 0
M  V30 1592 C 149.836 -2.59459 5.53285 0
M  V30 1593 C 150.834 -2.26158 6.4447 0
M  V30 1594 O 150.522 -2.08605 7.76363 0
M  V30 1595 H 150.254 -0.466443 0.489292 0
M  V30 1596 H 152.808 -0.8758 1.85793 0
M  V30 1597 H 151.038 -3.42947 1.78673 0
M  V30 1598 H 152.727 -3.40782 2.20504 0
M  V30 1599 H 153.493 -2.15095 4.34694 0
M  V30 1600 H 149.372 -3.02064 3.48251 0
M  V30 1601 H 152.916 -1.84387 6.72791 0
M  V30 1602 H 148.813 -2.71725 5.85522 0
M  V30 1603 H 149.581 -2.23439 7.87412 0
M  V30 1604 N 152.244 -1.26651 -0.937939 0
M  V30 1605 C 153.154 -1.10276 -2.07066 0
M  V30 1606 C 154.17 -0.0354197 -1.73964 0
M  V30 1607 O 155.346 -0.239816 -1.99967 0
M  V30 1608 C 152.411 -0.740887 -3.38691 0
M  V30 1609 C 151.472 -1.88799 -3.85556 0
M  V30 1610 C 150.705 -1.54329 -5.10899 0
M  V30 1611 O 150.928 -0.446494 -5.6865 0
M  V30 1612 O 149.862 -2.37911 -5.52885 0
M  V30 1613 H 153.688 -2.05309 -2.23789 0
M  V30 1614 H 151.273 -1.05743 -1.0554 0
M  V30 1615 H 153.155 -0.55195 -4.1777 0
M  V30 1616 H 151.83 0.180022 -3.23199 0
M  V30 1617 H 150.737 -2.13191 -3.07409 0
M  V30 1618 H 152.07 -2.78874 -4.05574 0
M  V30 1619 N 153.722 1.14298 -1.08507 0
M  V30 1620 C 154.632 2.23027 -0.727753 0
M  V30 1621 C 155.648 1.71952 0.26619 0
M  V30 1622 O 156.824 2.011 0.109882 0
M  V30 1623 C 153.889 3.46403 -0.143541 0
M  V30 1624 C 152.95 4.12413 -1.19223 0
M  V30 1625 C 152.183 5.29899 -0.635798 0
M  V30 1626 O 152.406 5.67796 0.544393 0
M  V30 1627 O 151.34 5.85717 -1.38634 0
M  V30 1628 H 155.166 2.55945 -1.63481 0
M  V30 1629 H 152.751 1.22248 -0.858817 0
M  V30 1630 H 154.633 4.21018 0.179404 0
M  V30 1631 H 153.308 3.15206 0.736659 0
M  V30 1632 H 152.215 3.39667 -1.56772 0
M  V30 1633 H 153.548 4.47718 -2.04474 0
M  V30 1634 N 155.201 0.870884 1.31352 0
M  V30 1635 C 156.45 0.478408 1.95944 0
M  V30 1636 C 156.763 -0.974493 1.69597 0
M  V30 1637 O 157.969 -1.47316 2.28058 0
M  V30 1638 C 156.425 0.804609 3.50791 0
M  V30 1639 C 156.033 2.27433 3.85977 0
M  V30 1640 C 157.777 0.480648 4.2177 0
M  V30 1641 C 155.684 2.5429 5.33939 0
M  V30 1642 H 154.614 0.175175 0.733369 0
M  V30 1643 H 157.265 1.06391 1.4951 0
M  V30 1644 H 155.647 0.148347 3.95722 0
M  V30 1645 H 156.821 2.97373 3.52002 0
M  V30 1646 H 155.136 2.56442 3.28065 0
M  V30 1647 H 157.733 0.658519 5.30629 0
M  V30 1648 H 158.076 -0.578979 4.12254 0
M  V30 1649 H 158.609 1.09349 3.82476 0
M  V30 1650 H 155.348 3.58939 5.48491 0
M  V30 1651 H 154.868 1.88945 5.69263 0
M  V30 1652 H 156.547 2.39066 6.01212 0
M  V30 1653 N 156.679 -1.44442 0.630414 0
M  V30 1654 C 157.925 -2.02351 0.134816 0
M  V30 1655 C 158.258 -1.4947 -1.23986 0
M  V30 1656 O 157.533 -0.678475 -1.82283 0
M  V30 1657 C 157.816 -3.59898 0.120707 0
M  V30 1658 C 157.669 -4.23063 1.52767 0
M  V30 1659 C 158.988 -4.36585 -0.555127 0
M  V30 1660 H 156.107 -0.73527 0.0504646 0
M  V30 1661 H 158.749 -1.72022 0.806751 0
M  V30 1662 H 156.899 -3.85868 -0.451477 0
M  V30 1663 H 158.571 -4.08202 2.14869 0
M  V30 1664 H 156.814 -3.80586 2.08175 0
M  V30 1665 H 157.485 -5.32071 1.46984 0
M  V30 1666 H 159.961 -4.16044 -0.0685429 0
M  V30 1667 H 158.837 -5.46294 -0.534185 0
M  V30 1668 H 159.098 -4.11138 -1.62535 0
M  V30 1669 N 158.157 -0.370918 -1.53173 0
M  V30 1670 C 159.104 0.473035 -2.259 0
M  V30 1671 C 160.074 1.07311 -1.26781 0
M  V30 1672 O 161.259 1.1046 -1.55574 0
M  V30 1673 C 158.399 1.60405 -3.05556 0
M  V30 1674 C 157.512 1.02863 -4.19575 0
M  V30 1675 C 156.647 2.12918 -4.86661 0
M  V30 1676 C 155.686 1.52869 -5.92704 0
M  V30 1677 N 154.823 2.56779 -6.53459 0
M  V30 1678 H 159.663 -0.153649 -2.97604 0
M  V30 1679 H 157.2 -0.0875946 -1.46839 0
M  V30 1680 H 159.158 2.27034 -3.50016 0
M  V30 1681 H 157.788 2.20131 -2.36097 0
M  V30 1682 H 156.84 0.252465 -3.79561 0
M  V30 1683 H 158.152 0.549642 -4.95762 0
M  V30 1684 H 157.306 2.87356 -5.34333 0
M  V30 1685 H 156.045 2.6417 -4.09958 0
M  V30 1686 H 155.05 0.769479 -5.44389 0
M  V30 1687 H 156.275 1.02435 -6.7133 0
M  V30 1688 H 154.221 3.07235 -5.79606 0
M  V30 1689 H 154.138 2.13583 -7.25202 0
M  V30 1690 H 155.406 3.30903 -7.05779 0
M  V30 1691 N 159.635 1.57281 -0.100228 0
M  V30 1692 C 160.545 2.17833 0.870965 0
M  V30 1693 C 161.561 1.14921 1.30649 0
M  V30 1694 O 162.737 1.47313 1.37335 0
M  V30 1695 C 159.802 2.75085 2.1102 0
M  V30 1696 C 158.863 3.9297 1.72838 0
M  V30 1697 C 158.096 4.47482 2.90854 0
M  V30 1698 O 158.319 4.00922 4.05731 0
M  V30 1699 O 157.253 5.38433 2.69023 0
M  V30 1700 H 161.079 3.0124 0.38575 0
M  V30 1701 H 158.664 1.48881 0.124397 0
M  V30 1702 H 160.546 3.11656 2.83634 0
M  V30 1703 H 159.221 1.94721 2.58584 0
M  V30 1704 H 158.128 3.61201 0.973883 0
M  V30 1705 H 159.461 4.74713 1.30033 0
M  V30 1706 N 161.113 -0.173488 1.56642 0
M  V30 1707 C 162.359 -0.891784 1.8214 0
M  V30 1708 C 162.692 -1.8199 0.677736 0
M  V30 1709 O 161.967 -1.91842 -0.320446 0
M  V30 1710 C 162.25 -1.68933 3.18015 0
M  V30 1711 C 162.103 -0.784487 4.42906 0
M  V30 1712 C 163.422 -2.65748 3.50808 0
M  V30 1713 H 160.541 -0.322761 0.662567 0
M  V30 1714 H 163.183 -0.158095 1.89341 0
M  V30 1715 H 161.333 -2.31482 3.12007 0
M  V30 1716 H 163.005 -0.172046 4.60979 0
M  V30 1717 H 161.248 -0.0924117 4.33702 0
M  V30 1718 H 161.919 -1.37799 5.34524 0
M  V30 1719 H 164.395 -2.13327 3.57255 0
M  V30 1720 H 163.271 -3.18619 4.4696 0
M  V30 1721 H 163.532 -3.45842 2.75401 0
M  V30 1722 N 162.591 -1.51276 -0.441967 0
M  V30 1723 C 163.816 -1.67799 -1.21895 0
M  V30 1724 C 164.241 -0.372864 -1.84367 0
M  V30 1725 O 163.599 0.666501 -1.68604 0
M  V30 1726 C 163.647 -2.79199 -2.28211 0
M  V30 1727 O 162.751 -2.42479 -3.33583 0
M  V30 1728 H 162.092 -0.559649 -0.357336 0
M  V30 1729 H 164.622 -1.97815 -0.522522 0
M  V30 1730 H 164.632 -3.03146 -2.73069 0
M  V30 1731 H 163.307 -3.73906 -1.82118 0
M  V30 1732 H 161.884 -2.29087 -2.94234 0
M  V30 1733 N 164.069 0.697108 -1.41344 0
M  V30 1734 C 165.297 1.48593 -1.43972 0
M  V30 1735 C 165.712 1.88747 -0.0445612 0
M  V30 1736 O 165.069 1.56682 0.935785 0
M  V30 1737 C 165.12 2.74946 -2.34706 0
M  V30 1738 O 164.841 2.36484 -3.68791 0
M  V30 1739 C 166.342 3.687 -2.46121 0
M  V30 1740 H 163.562 0.457964 -0.490418 0
M  V30 1741 H 166.106 0.858429 -1.8561 0
M  V30 1742 H 164.261 3.33937 -1.9638 0
M  V30 1743 H 164.675 3.17918 -4.17167 0
M  V30 1744 H 166.149 4.54145 -3.13777 0
M  V30 1745 H 166.626 4.13081 -1.49199 0
M  V30 1746 H 167.232 3.15613 -2.85076 0
M  V30 1747 N 165.547 1.27147 0.931209 0
M  V30 1748 C 166.777 1.15914 1.71019 0
M  V30 1749 C 167.185 -0.287112 1.87009 0
M  V30 1750 O 166.528 -1.20761 1.38429 0
M  V30 1751 C 166.59 1.76647 3.13107 0
M  V30 1752 C 166.254 3.25807 3.20467 0
M  V30 1753 C 167.251 4.22489 3.02983 0
M  V30 1754 C 164.936 3.66452 3.43538 0
M  V30 1755 C 166.93 5.57794 3.08454 0
M  V30 1756 C 164.617 5.01888 3.48643 0
M  V30 1757 C 165.615 5.97369 3.31119 0
M  V30 1758 O 165.303 7.30337 3.35952 0
M  V30 1759 H 165.035 0.404062 0.54195 0
M  V30 1760 H 167.589 1.68457 1.17521 0
M  V30 1761 H 165.819 1.18578 3.68071 0
M  V30 1762 H 167.508 1.60179 3.72958 0
M  V30 1763 H 168.274 3.92425 2.85004 0
M  V30 1764 H 164.153 2.92611 3.5623 0
M  V30 1765 H 167.697 6.32298 2.94694 0
M  V30 1766 H 163.594 5.31609 3.66145 0
M  V30 1767 H 164.362 7.38739 3.5243 0
M  V30 1768 N 167.025 -1.13721 1.09112 0
M  V30 1769 C 168.274 -1.84275 0.82009 0
M  V30 1770 C 168.587 -1.84253 -0.656509 0
M  V30 1771 O 169.793 -2.50668 -1.04296 0
M  V30 1772 C 168.249 -3.30825 1.41714 0
M  V30 1773 C 167.857 -3.39244 2.92605 0
M  V30 1774 C 169.601 -4.06443 1.22492 0
M  V30 1775 C 167.508 -4.80047 3.45411 0
M  V30 1776 H 166.438 -0.690387 0.30312 0
M  V30 1777 H 169.089 -1.28146 1.31343 0
M  V30 1778 H 167.471 -3.86737 0.851498 0
M  V30 1779 H 168.645 -2.93344 3.55367 0
M  V30 1780 H 166.96 -2.77088 3.10823 0
M  V30 1781 H 169.557 -5.10387 1.59402 0
M  V30 1782 H 169.9 -4.15972 0.165299 0
M  V30 1783 H 170.433 -3.56852 1.75788 0
M  V30 1784 H 167.172 -4.75709 4.50978 0
M  V30 1785 H 166.692 -5.26455 2.87411 0
M  V30 1786 H 168.371 -5.48957 3.42425 0
M  V30 1787 N 168.503 -0.877838 -1.30888 0
M  V30 1788 C 169.45 -0.337538 -2.28318 0
M  V30 1789 C 170.42 0.568346 -1.56074 0
M  V30 1790 O 171.605 0.498298 -1.84178 0
M  V30 1791 C 168.745 0.448142 -3.42178 0
M  V30 1792 C 167.858 -0.48615 -4.29256 0
M  V30 1793 C 166.993 0.314427 -5.30269 0
M  V30 1794 C 166.032 -0.615791 -6.08995 0
M  V30 1795 N 165.169 0.14902 -7.01942 0
M  V30 1796 H 170.009 -1.17356 -2.73919 0
M  V30 1797 H 167.546 -0.590094 -1.34745 0
M  V30 1798 H 169.504 0.919517 -4.06941 0
M  V30 1799 H 168.134 1.24879 -2.97666 0
M  V30 1800 H 167.186 -1.076 -3.64865 0
M  V30 1801 H 168.498 -1.19909 -4.84173 0
M  V30 1802 H 167.652 0.847969 -6.00745 0
M  V30 1803 H 166.391 1.06062 -4.76027 0
M  V30 1804 H 165.396 -1.16102 -5.37401 0
M  V30 1805 H 166.621 -1.36097 -6.65323 0
M  V30 1806 H 164.567 0.877884 -6.50099 0
M  V30 1807 H 164.484 -0.504433 -7.54315 0
M  V30 1808 H 165.752 0.663537 -7.76671 0
M  V30 1809 N 169.982 1.44106 -0.638065 0
M  V30 1810 C 170.929 2.30715 0.062701 0
M  V30 1811 C 171.899 1.43882 0.829883 0
M  V30 1812 O 173.084 1.72775 0.809532 0
M  V30 1813 C 170.224 3.29258 1.03358 0
M  V30 1814 C 169.337 4.31192 0.26409 0
M  V30 1815 C 168.472 5.16825 1.22741 0
M  V30 1816 C 167.511 6.10462 0.447475 0
M  V30 1817 N 166.648 6.8877 1.36161 0
M  V30 1818 H 171.488 2.90096 -0.681781 0
M  V30 1819 H 169.025 1.42925 -0.347988 0
M  V30 1820 H 170.983 3.84886 1.60992 0
M  V30 1821 H 169.613 2.71562 1.74511 0
M  V30 1822 H 168.665 3.77981 -0.428295 0
M  V30 1823 H 169.977 4.97619 -0.343052 0
M  V30 1824 H 169.131 5.77004 1.87487 0
M  V30 1825 H 167.87 4.50488 1.86847 0
M  V30 1826 H 166.875 5.49386 -0.213433 0
M  V30 1827 H 168.1 6.78837 -0.188968 0
M  V30 1828 H 166.046 6.25096 1.98975 0
M  V30 1829 H 165.963 7.51663 0.808656 0
M  V30 1830 H 167.231 7.53467 1.99769 0
M  V30 1831 N 171.46 0.379036 1.52974 0
M  V30 1832 C 172.709 -0.207612 2.00629 0
M  V30 1833 C 173.022 -1.48758 1.27006 0
M  V30 1834 O 174.228 -2.15365 1.65318 0
M  V30 1835 C 172.684 -0.42053 3.57435 0
M  V30 1836 C 172.292 0.845587 4.39948 0
M  V30 1837 C 174.036 -0.964102 4.13407 0
M  V30 1838 C 171.943 0.601513 5.88333 0
M  V30 1839 H 170.873 -0.0813591 0.749598 0
M  V30 1840 H 173.524 0.499853 1.76561 0
M  V30 1841 H 171.906 -1.18959 3.7771 0
M  V30 1842 H 173.08 1.61848 4.31442 0
M  V30 1843 H 171.395 1.31336 3.95145 0
M  V30 1844 H 173.992 -1.16225 5.21916 0
M  V30 1845 H 174.335 -1.93019 3.68849 0
M  V30 1846 H 174.868 -0.25487 3.96983 0
M  V30 1847 H 171.607 1.53831 6.37194 0
M  V30 1848 H 171.127 -0.132628 5.99653 0
M  V30 1849 H 172.806 0.232134 6.46583 0
M  V30 1850 N 172.938 -1.57226 0.108567 0
M  V30 1851 C 174.186 -1.94448 -0.550853 0
M  V30 1852 C 174.507 -0.992074 -1.67878 0
M  V30 1853 O 173.777 -0.0465 -1.95845 0
M  V30 1854 H 172.357 -0.717897 -0.206479 0
M  V30 1855 H 175.019 -1.94112 0.175062 0
M  V30 1856 H 174.115 -2.97218 -0.952259 0
M  V30 1857 N 174.416 0.165178 -1.56732 0
M  V30 1858 C 175.646 0.894919 -1.86212 0
M  V30 1859 C 176.054 1.76066 -0.692627 0
M  V30 1860 O 175.397 1.80387 0.347303 0
M  V30 1861 C 175.459 1.8174 -3.10179 0
M  V30 1862 C 175.123 1.13064 -4.42793 0
M  V30 1863 C 176.12 0.493169 -5.17556 0
M  V30 1864 C 173.805 1.12556 -4.89527 0
M  V30 1865 C 175.799 -0.140209 -6.37246 0
M  V30 1866 C 173.486 0.488366 -6.09145 0
M  V30 1867 C 174.484 -0.143411 -6.82849 0
M  V30 1868 O 174.172 -0.77055 -8.00199 0
M  V30 1869 H 173.904 0.265114 -0.621844 0
M  V30 1870 H 176.458 0.168242 -2.0471 0
M  V30 1871 H 174.688 2.58455 -2.87642 0
M  V30 1872 H 176.377 2.4175 -3.26055 0
M  V30 1873 H 177.143 0.489023 -4.82528 0
M  V30 1874 H 173.022 1.60672 -4.32094 0
M  V30 1875 H 176.566 -0.633932 -6.94714 0
M  V30 1876 H 172.463 0.490116 -6.43637 0
M  V30 1877 H 173.231 -0.670408 -8.1575 0
M  V30 1878 N 175.894 1.51508 0.433938 0
M  V30 1879 C 176.842 1.73646 1.54757 0
M  V30 1880 C 177.836 0.602854 1.5831 0
M  V30 1881 O 179.042 0.784318 1.62014 0
M  V30 1882 H 175.417 0.548718 0.51421 0
M  V30 1883 H 177.388 2.66991 1.33261 0
M  V30 1884 C 176.137 1.88172 2.92381 0
M  V30 1885 H 175.46 2.74808 2.90381 0
M  V30 1886 H 176.9 2.07672 3.6966 0
M  V30 1887 C 175.359 0.64239 3.30719 0
M  V30 1888 O 175.889 -0.201362 4.01195 0
M  V30 1889 N 174.095 0.485489 2.86516 0
M  V30 1890 H 173.642 1.17318 2.29334 0
M  V30 1891 H 173.6 -0.342482 3.12529 0
M  V30 1892 N 177.372 -0.689602 1.41712 0
M  V30 1893 C 178.783 -1.26973 1.36875 0
M  V30 1894 C 179.134 -1.96124 0.054748 0
M  V30 1895 O 178.259 -1.99141 -0.84687 0
M  V30 1896 C 178.854 -2.30912 2.47922 0
M  V30 1897 C 177.413 -2.84486 2.46464 0
M  V30 1898 C 176.56 -1.58603 2.27465 0
M  V30 1899 H 179.511 -0.48396 1.51141 0
M  V30 1900 H 179.532 -3.12331 2.17323 0
M  V30 1901 H 179.044 -1.80554 3.43543 0
M  V30 1902 H 177.145 -3.39005 1.54617 0
M  V30 1903 H 177.258 -3.34511 3.42986 0
M  V30 1904 H 175.622 -1.84632 1.75451 0
M  V30 1905 H 176.405 -1.10233 3.25121 0
M  V30 1906 N 178.85 -1.27639 -0.924453 0
M  V30 1907 C 180.127 -1.04887 -1.651 0
M  V30 1908 C 180.507 0.415327 -2.06974 0
M  V30 1909 O 179.855 1.39923 -1.80648 0
M  V30 1910 C 180.065 -2.01348 -2.85061 0
M  V30 1911 C 181.413 -2.30899 -3.56329 0
M  V30 1912 O 182.437 -1.99348 -2.95193 0
M  V30 1913 O 181.296 -2.84699 -4.66485 0
M  V30 1914 H 178.39 -0.400083 -0.723784 0
M  V30 1915 H 180.936 -1.38916 -0.974703 0
M  V30 1916 H 179.708 -3.0008 -2.51133 0
M  V30 1917 H 179.331 -1.679 -3.6041 0
M  V30 1918 N 180.328 1.1314 -1.09713 0
M  V30 1919 C 181.556 1.88321 -0.856898 0
M  V30 1920 C 181.971 1.79276 0.592073 0
M  V30 1921 O 181.328 1.16142 1.40774 0
M  V30 1922 C 181.379 3.37812 -1.28706 0
M  V30 1923 O 181.1 3.46627 -2.67921 0
M  V30 1924 C 182.601 4.29952 -1.07964 0
M  V30 1925 H 179.821 0.596094 -0.308079 0
M  V30 1926 H 182.365 1.43205 -1.45988 0
M  V30 1927 H 180.52 3.805 -0.727912 0
M  V30 1928 H 180.934 4.39579 -2.8613 0
M  V30 1929 H 182.408 5.33159 -1.42986 0
M  V30 1930 H 182.885 4.39196 -0.0176577 0
M  V30 1931 H 183.491 3.93036 -1.62489 0
M  V30 1932 N 181.806 0.884767 1.30421 0
M  V30 1933 C 183.052 0.503851 1.96441 0
M  V30 1934 C 183.385 -0.944518 1.69684 0
M  V30 1935 O 182.66 -1.66737 1.00145 0
M  V30 1936 C 182.943 0.779085 3.51571 0
M  V30 1937 C 182.796 2.27807 3.87846 0
M  V30 1938 C 184.115 0.255452 4.39358 0
M  V30 1939 H 181.234 0.184533 0.713524 0
M  V30 1940 H 183.876 1.10872 1.54297 0
M  V30 1941 H 182.026 0.264274 3.876 0
M  V30 1942 H 183.698 2.86127 3.61841 0
M  V30 1943 H 181.941 2.74479 3.35922 0
M  V30 1944 H 182.612 2.42125 4.96064 0
M  V30 1945 H 185.088 0.696079 4.10236 0
M  V30 1946 H 183.964 0.477361 5.4682 0
M  V30 1947 H 184.225 -0.843293 4.33983 0
M  V30 1948 N 183.284 -1.43765 0.645699 0
M  V30 1949 C 184.247 -2.29163 -0.0409488 0
M  V30 1950 C 185.247 -1.41813 -0.757996 0
M  V30 1951 O 186.437 -1.63527 -0.600382 0
M  V30 1952 C 183.569 -3.23716 -1.06869 0
M  V30 1953 H 184.762 -2.91366 0.710345 0
M  V30 1954 H 182.315 -1.5092 0.406547 0
M  V30 1955 H 183.05 -2.66393 -1.84947 0
M  V30 1956 H 182.835 -3.88105 -0.558277 0
M  V30 1957 H 184.325 -3.87831 -1.54845 0
M  V30 1958 N 184.763 -0.387143 -1.52771 0
M  V30 1959 C 186.01 0.195735 -2.01552 0
M  V30 1960 C 186.338 1.46995 -1.27369 0
M  V30 1961 O 185.593 1.92325 -0.361879 0
M  V30 1962 C 185.892 0.512209 -3.53711 0
M  V30 1963 C 185.558 -0.670202 -4.45891 0
M  V30 1964 C 184.22 -0.994586 -4.70809 0
M  V30 1965 C 186.572 -1.46134 -5.00294 0
M  V30 1966 C 183.9 -2.11169 -5.4738 0
M  V30 1967 C 186.252 -2.56903 -5.78086 0
M  V30 1968 C 184.916 -2.89852 -6.01284 0
M  V30 1969 H 184.186 0.0716246 -0.73753 0
M  V30 1970 H 186.833 -0.524046 -1.8419 0
M  V30 1971 H 185.138 1.31329 -3.69134 0
M  V30 1972 H 186.835 0.975804 -3.88946 0
M  V30 1973 H 183.425 -0.407366 -4.2666 0
M  V30 1974 H 187.609 -1.22397 -4.80971 0
M  V30 1975 H 182.865 -2.3707 -5.63567 0
M  V30 1976 H 187.039 -3.18608 -6.19243 0
M  V30 1977 H 184.666 -3.76533 -6.60399 0
M  V30 1978 N 186.241 1.57166 -0.116904 0
M  V30 1979 C 187.487 1.95412 0.542405 0
M  V30 1980 C 187.82 1.00019 1.66463 0
M  V30 1981 O 187.095 0.0370346 1.94465 0
M  V30 1982 C 187.378 3.43615 1.07708 0
M  V30 1983 C 187.231 4.49781 -0.0415868 0
M  V30 1984 C 188.55 3.93616 1.96861 0
M  V30 1985 H 185.669 0.710543 0.195696 0
M  V30 1986 H 188.311 1.89027 -0.192038 0
M  V30 1987 H 186.461 3.49187 1.70296 0
M  V30 1988 H 188.133 4.56308 -0.676793 0
M  V30 1989 H 186.376 4.28033 -0.705019 0
M  V30 1990 H 187.047 5.50733 0.373717 0
M  V30 1991 H 189.523 3.90335 1.44146 0
M  V30 1992 H 188.399 4.97838 2.3119 0
M  V30 1993 H 188.66 3.34188 2.89432 0
M  V30 1994 N 187.719 -0.156864 1.56817 0
M  V30 1995 C 189.13 -0.717916 1.72345 0
M  V30 1996 C 189.481 -1.82124 0.729747 0
M  V30 1997 O 188.606 -2.16141 -0.105781 0
M  V30 1998 C 189.201 -1.30904 3.12489 0
M  V30 1999 C 187.76 -1.81676 3.29653 0
M  V30 2000 C 186.907 -0.701349 2.68284 0
M  V30 2001 H 189.858 0.0686989 1.58551 0
M  V30 2002 H 189.879 -2.17882 3.11942 0
M  V30 2003 H 189.391 -0.505796 3.8479 0
M  V30 2004 H 187.492 -2.64598 2.62333 0
M  V30 2005 H 187.605 -1.95226 4.3752 0
M  V30 2006 H 185.969 -1.12548 2.28484 0
M  V30 2007 H 186.752 0.0902846 3.43181 0
M  V30 2008 N 189.197 -1.51736 -0.425897 0
M  V30 2009 C 190.446 -1.64201 -1.17136 0
M  V30 2010 C 190.759 -0.369705 -1.92074 0
M  V30 2011 O 191.965 -0.373898 -2.68913 0
M  V30 2012 C 190.421 -2.90035 -2.13091 0
M  V30 2013 C 190.029 -4.24312 -1.43747 0
M  V30 2014 C 191.773 -3.1186 -2.87999 0
M  V30 2015 C 189.68 -5.41285 -2.38253 0
M  V30 2016 H 188.61 -0.611624 -0.440944 0
M  V30 2017 H 191.261 -1.78212 -0.437328 0
M  V30 2018 H 189.643 -2.69684 -2.89977 0
M  V30 2019 H 190.817 -4.55086 -0.723408 0
M  V30 2020 H 189.132 -4.08456 -0.809465 0
M  V30 2021 H 191.729 -3.96427 -3.58817 0
M  V30 2022 H 192.072 -2.25403 -3.49999 0
M  V30 2023 H 192.605 -3.32605 -2.18217 0
M  V30 2024 H 189.344 -6.30037 -1.80925 0
M  V30 2025 H 188.864 -5.14872 -3.0768 0
M  V30 2026 H 190.543 -5.73694 -2.99139 0
M  V30 2027 N 190.675 0.682077 -1.42076 0
M  V30 2028 C 191.9 1.47558 -1.45744 0
M  V30 2029 C 192.325 1.87977 -0.0680981 0
M  V30 2030 O 191.683 1.55522 0.9318 0
M  V30 2031 C 191.731 2.70575 -2.38373 0
M  V30 2032 O 190.835 3.68573 -1.85007 0
M  V30 2033 H 190.176 0.443585 -0.494093 0
M  V30 2034 H 192.706 0.837238 -1.86686 0
M  V30 2035 H 192.716 3.18729 -2.54707 0
M  V30 2036 H 191.391 2.40495 -3.39315 0
M  V30 2037 H 189.968 3.2757 -1.78192 0
M  V30 2038 N 192.153 1.28127 0.917671 0
M  V30 2039 C 193.401 1.14825 1.66312 0
M  V30 2040 C 193.722 -0.304379 1.9261 0
M  V30 2041 O 192.992 -1.21149 1.53947 0
M  V30 2042 H 191.572 0.421953 0.616413 0
M  V30 2043 H 194.234 1.608 1.10134 0
M  V30 2044 H 193.33 1.68489 2.62712 0
M  V30 2045 N 193.631 -1.12557 1.10312 0
M  V30 2046 C 194.877 -1.84515 0.855901 0
M  V30 2047 C 195.232 -1.82409 -0.611936 0
M  V30 2048 O 194.525 -1.25778 -1.44535 0
M  V30 2049 C 194.719 -3.31462 1.33669 0
M  V30 2050 C 194.548 -3.47879 2.84974 0
M  V30 2051 C 193.318 -3.61589 3.52961 0
M  V30 2052 C 195.516 -3.43152 3.83081 0
M  V30 2053 N 193.498 -3.66359 4.926 0
M  V30 2054 C 194.869 -3.54401 5.08724 0
M  V30 2055 C 196.924 -3.2661 3.75807 0
M  V30 2056 C 195.627 -3.50815 6.2795 0
M  V30 2057 C 197.653 -3.24335 4.94531 0
M  V30 2058 C 197.015 -3.36144 6.19021 0
M  V30 2059 H 193.114 -0.690967 0.366182 0
M  V30 2060 H 195.698 -1.34763 1.40524 0
M  V30 2061 H 193.869 -3.7976 0.814686 0
M  V30 2062 H 195.601 -3.91272 1.03385 0
M  V30 2063 H 192.356 -3.63652 3.03404 0
M  V30 2064 H 192.78 -3.72411 5.65366 0
M  V30 2065 H 197.422 -3.16375 2.80476 0
M  V30 2066 H 195.14 -3.5982 7.23571 0
M  V30 2067 H 198.726 -3.12719 4.9061 0
M  V30 2068 H 197.606 -3.34357 7.09348 0
M  V30 2069 N 195.109 -0.891671 -1.2995 0
M  V30 2070 C 196.057 -0.353066 -2.29905 0
M  V30 2071 C 197.051 0.543509 -1.60444 0
M  V30 2072 O 198.257 0.4272 -1.74857 0
M  V30 2073 H 194.632 -0.095531 -0.745907 0
M  V30 2074 H 196.603 -1.20961 -2.72784 0
M  V30 2075 C 195.352 0.411475 -3.45257 0
M  V30 2076 H 194.675 -0.269182 -3.98893 0
M  V30 2077 H 196.115 0.753328 -4.17254 0
M  V30 2078 C 194.574 1.6111 -2.9588 0
M  V30 2079 O 195.104 2.71045 -2.96475 0
M  V30 2080 N 193.31 1.45054 -2.51809 0
M  V30 2081 H 192.857 0.556175 -2.51524 0
M  V30 2082 H 192.815 2.25453 -2.1913 0
M  V30 2083 N 196.587 1.43421 -0.653314 0
M  V30 2084 C 197.835 2.01414 -0.166415 0
M  V30 2085 C 198.156 1.51803 1.22397 0
M  V30 2086 O 197.426 0.730693 1.81763 0
M  V30 2087 H 196.006 0.744703 -0.0585319 0
M  V30 2088 H 198.668 1.75629 -0.845003 0
M  V30 2089 H 197.764 3.11734 -0.151111 0
M  V30 2090 N 198.065 0.39524 1.52563 0
M  V30 2091 C 199.342 -0.242908 1.94086 0
M  V30 2092 C 199.722 -1.63841 1.33114 0
M  V30 2093 O 199.07 -2.22928 0.501529 0
M  V30 2094 C 199.28 -0.26327 3.48006 0
M  V30 2095 C 200.628 -0.489354 4.21771 0
M  V30 2096 O 201.652 -0.343226 3.54543 0
M  V30 2097 O 200.511 -0.776169 5.4096 0
M  V30 2098 H 197.605 -0.152536 0.812811 0
M  V30 2099 H 200.151 0.450178 1.6362 0
M  V30 2100 H 198.923 0.713985 3.84731 0
M  V30 2101 H 198.546 -1.00103 3.84792 0
M  V30 2102 N 199.544 -1.57102 0.125237 0
M  V30 2103 C 200.492 -2.16905 -0.839927 0
M  V30 2104 C 201.486 -1.11998 -1.27094 0
M  V30 2105 O 202.692 -1.3029 -1.24195 0
M  V30 2106 H 199.067 -0.694252 -0.288995 0
M  V30 2107 H 201.038 -2.96774 -0.311115 0
M  V30 2108 C 199.787 -2.78795 -2.07771 0
M  V30 2109 H 199.11 -3.59221 -1.755 0
M  V30 2110 H 200.55 -3.2417 -2.73295 0
M  V30 2111 C 199.009 -1.76193 -2.87155 0
M  V30 2112 O 199.539 -1.21909 -3.82755 0
M  V30 2113 N 197.745 -1.45991 -2.51267 0
M  V30 2114 H 197.292 -1.90325 -1.73592 0
M  V30 2115 H 197.25 -0.775844 -3.04677 0
M  V30 2116 N 201.022 0.148545 -1.56898 0
M  V30 2117 C 201.955 1.21293 -1.93296 0
M  V30 2118 C 202.933 1.41637 -0.798599 0
M  V30 2119 O 204.117 1.56275 -1.05406 0
M  V30 2120 C 201.244 2.5721 -2.20365 0
M  V30 2121 C 200.29 2.53469 -3.4301 0
M  V30 2122 S 201.123 2.00315 -4.96623 0
M  V30 2123 C 202.279 3.37964 -5.26812 0
M  V30 2124 H 202.512 0.902393 -2.83274 0
M  V30 2125 H 200.045 0.354094 -1.50285 0
M  V30 2126 H 202.003 3.35427 -2.36641 0
M  V30 2127 H 200.664 2.85454 -1.31054 0
M  V30 2128 H 199.857 3.53518 -3.59223 0
M  V30 2129 H 199.459 1.83359 -3.25968 0
M  V30 2130 H 201.751 4.34066 -5.20185 0
M  V30 2131 H 202.694 3.26606 -6.28279 0
M  V30 2132 H 203.102 3.35028 -4.54331 0
M  V30 2133 N 202.5 1.5196 0.417844 0
M  V30 2134 C 203.43 1.77634 1.51554 0
M  V30 2135 C 204.411 0.626918 1.58126 0
M  V30 2136 O 205.596 0.871632 1.7354 0
M  V30 2137 C 202.726 1.91911 2.8946 0
M  V30 2138 C 201.68 3.07463 2.97743 0
M  V30 2139 C 201.006 3.06951 4.37819 0
M  V30 2140 C 202.306 4.47082 2.70027 0
M  V30 2141 H 204 2.6955 1.3032 0
M  V30 2142 H 201.546 1.29706 0.625492 0
M  V30 2143 H 203.499 2.08455 3.6623 0
M  V30 2144 H 202.223 0.966598 3.11969 0
M  V30 2145 H 200.882 2.90656 2.23416 0
M  V30 2146 H 200.53 2.09438 4.57323 0
M  V30 2147 H 200.23 3.84556 4.44286 0
M  V30 2148 H 201.754 3.25613 5.16535 0
M  V30 2149 H 203.168 4.6414 3.36522 0
M  V30 2150 H 201.565 5.2654 2.87881 0
M  V30 2151 H 202.635 4.55777 1.65514 0
M  V30 2152 N 203.978 -0.674533 1.42435 0
M  V30 2153 C 204.888 -1.81751 1.48337 0
M  V30 2154 C 205.904 -1.69975 0.372099 0
M  V30 2155 O 207.08 -1.91521 0.62304 0
M  V30 2156 C 204.145 -3.17895 1.38361 0
M  V30 2157 C 203.206 -3.41625 2.59982 0
M  V30 2158 C 202.439 -4.71274 2.50473 0
M  V30 2159 O 202.662 -5.49197 1.54075 0
M  V30 2160 O 201.596 -4.96254 3.4061 0
M  V30 2161 H 205.422 -1.79728 2.44809 0
M  V30 2162 H 203.007 -0.830312 1.24202 0
M  V30 2163 H 204.889 -3.99136 1.35161 0
M  V30 2164 H 203.564 -3.20555 0.450144 0
M  V30 2165 H 202.471 -2.60231 2.68757 0
M  V30 2166 H 203.804 -3.43796 3.52229 0
M  V30 2167 N 205.456 -1.28612 -0.910864 0
M  V30 2168 C 206.867 -1.14406 -1.47541 0
M  V30 2169 C 207.218 0.264901 -1.94403 0
M  V30 2170 O 206.343 1.15942 -1.82719 0
M  V30 2171 C 206.938 -2.07073 -2.68153 0
M  V30 2172 C 205.497 -1.96923 -3.20778 0
M  V30 2173 C 204.644 -1.98646 -1.93481 0
M  V30 2174 H 207.595 -1.41259 -0.723291 0
M  V30 2175 H 207.616 -1.63642 -3.43514 0
M  V30 2176 H 207.128 -3.09611 -2.34015 0
M  V30 2177 H 205.229 -0.97433 -3.59635 0
M  V30 2178 H 205.342 -2.84026 -3.85832 0
M  V30 2179 H 203.706 -1.43093 -2.10705 0
M  V30 2180 H 204.489 -3.02868 -1.61634 0
M  V30 2181 N 206.934 1.1197 -1.10907 0
M  V30 2182 C 208.159 1.87942 -0.877064 0
M  V30 2183 C 208.584 1.79341 0.567314 0
M  V30 2184 O 207.942 1.15184 1.40009 0
M  V30 2185 C 207.99 3.34926 -1.33629 0
M  V30 2186 O 207.094 4.09303 -0.504447 0
M  V30 2187 H 206.435 0.583785 -0.316371 0
M  V30 2188 H 208.965 1.4157 -1.47712 0
M  V30 2189 H 208.975 3.8577 -1.32837 0
M  V30 2190 H 207.65 3.40504 -2.3881 0
M  V30 2191 H 206.227 3.68393 -0.577993 0
M  V30 2192 N 208.412 0.89855 1.29475 0
M  V30 2193 C 209.375 0.380272 2.26023 0
M  V30 2194 C 210.375 -0.484891 1.53315 0
M  V30 2195 O 211.565 -0.290108 1.71767 0
M  V30 2196 C 208.697 -0.45651 3.3783 0
M  V30 2197 H 209.89 1.23295 2.73383 0
M  V30 2198 H 207.443 0.676589 1.40897 0
M  V30 2199 H 208.178 -1.32922 2.95808 0
M  V30 2200 H 207.963 0.163393 3.91759 0
M  V30 2201 H 209.453 -0.810466 4.0966 0
M  V30 2202 N 209.89 -1.43072 0.660911 0
M  V30 2203 C 210.838 -2.32569 -0.0378199 0
M  V30 2204 C 211.832 -1.49046 -0.805092 0
M  V30 2205 O 213.038 -1.65206 -0.714624 0
M  V30 2206 H 209.413 -0.75136 -0.031019 0
M  V30 2207 H 211.384 -2.89216 0.734609 0
M  V30 2208 C 210.133 -3.33453 -0.985124 0
M  V30 2209 H 209.456 -3.97752 -0.404147 0
M  V30 2210 H 210.896 -3.98691 -1.44297 0
M  V30 2211 C 209.355 -2.64642 -2.08486 0
M  V30 2212 O 209.885 -2.46776 -3.16961 0
M  V30 2213 N 208.091 -2.23891 -1.8526 0
M  V30 2214 H 207.638 -2.38621 -0.970449 0
M  V30 2215 H 207.596 -1.78181 -2.59034 0
M  V30 2216 N 211.368 -0.403325 -1.52352 0
M  V30 2217 C 212.301 0.469463 -2.23319 0
M  V30 2218 C 213.279 1.05272 -1.23922 0
M  V30 2219 O 214.463 1.10169 -1.52954 0
M  V30 2220 C 211.59 1.6511 -2.9573 0
M  V30 2221 C 210.636 1.19178 -4.0951 0
M  V30 2222 S 211.469 0.161718 -5.35256 0
M  V30 2223 C 212.625 1.34882 -6.11194 0
M  V30 2224 H 212.858 -0.133134 -2.97002 0
M  V30 2225 H 210.391 -0.187588 -1.53256 0
M  V30 2226 H 212.349 2.3287 -3.38056 0
M  V30 2227 H 211.01 2.22503 -2.21701 0
M  V30 2228 H 210.203 2.07444 -4.59329 0
M  V30 2229 H 209.805 0.592911 -3.6927 0
M  V30 2230 H 212.097 2.27345 -6.38217 0
M  V30 2231 H 213.04 0.89128 -7.02468 0
M  V30 2232 H 213.448 1.57198 -5.42171 0
M  V30 2233 N 212.846 1.57033 -0.133567 0
M  V30 2234 C 214.257 1.82593 0.389464 0
M  V30 2235 C 214.608 1.05156 1.6564 0
M  V30 2236 O 213.733 0.292644 2.14412 0
M  V30 2237 C 214.328 3.31204 0.713377 0
M  V30 2238 C 212.887 3.57393 1.18098 0
M  V30 2239 C 212.034 2.76598 0.197126 0
M  V30 2240 H 214.985 1.54598 -0.358481 0
M  V30 2241 H 215.006 3.46627 1.56939 0
M  V30 2242 H 214.518 3.87537 -0.2089 0
M  V30 2243 H 212.619 3.06433 2.11966 0
M  V30 2244 H 212.732 4.65915 1.11624 0
M  V30 2245 H 211.096 2.45257 0.687088 0
M  V30 2246 H 211.879 3.35697 -0.718504 0
M  V30 2247 N 214.325 -0.140222 1.56975 0
M  V30 2248 C 215.571 -0.848084 1.84876 0
M  V30 2249 C 215.926 -1.78481 0.718481 0
M  V30 2250 O 215.219 -1.89497 -0.283093 0
M  V30 2251 C 215.413 -1.65386 3.16832 0
M  V30 2252 C 215.242 -0.79665 4.42587 0
M  V30 2253 C 214.012 -0.459648 5.03205 0
M  V30 2254 C 216.21 -0.12389 5.14151 0
M  V30 2255 N 214.192 0.410446 6.12526 0
M  V30 2256 C 215.563 0.606064 6.17031 0
M  V30 2257 C 217.618 -0.0452654 4.97879 0
M  V30 2258 C 216.321 1.40723 7.054 0
M  V30 2259 C 218.347 0.742658 5.86718 0
M  V30 2260 C 217.709 1.46087 6.89085 0
M  V30 2261 H 213.808 -0.287946 0.727056 0
M  V30 2262 H 216.392 -0.11304 1.94372 0
M  V30 2263 H 214.563 -2.36009 3.08471 0
M  V30 2264 H 216.295 -2.30541 3.32615 0
M  V30 2265 H 213.05 -0.797006 4.66846 0
M  V30 2266 H 213.474 0.836716 6.7181 0
M  V30 2267 H 218.116 -0.586184 4.18717 0
M  V30 2268 H 215.834 1.95938 7.83986 0
M  V30 2269 H 219.42 0.805574 5.76196 0
M  V30 2270 H 218.3 2.06077 7.56639 0
M  V30 2271 N 215.803 -1.52179 -0.40978 0
M  V30 2272 C 217.05 -1.66206 -1.15679 0
M  V30 2273 C 217.378 -0.391674 -1.90516 0
M  V30 2274 O 216.633 0.62533 -1.8544 0
M  V30 2275 C 216.932 -2.83428 -2.17723 0
M  V30 2276 C 216.598 -4.21672 -1.59699 0
M  V30 2277 C 215.26 -4.59274 -1.43599 0
M  V30 2278 C 217.612 -5.07825 -1.17317 0
M  V30 2279 C 214.94 -5.80709 -0.836328 0
M  V30 2280 C 217.292 -6.29864 -0.587691 0
M  V30 2281 C 215.956 -6.66216 -0.413818 0
M  V30 2282 H 215.226 -0.608192 -0.423301 0
M  V30 2283 H 217.873 -1.86279 -0.444097 0
M  V30 2284 H 216.178 -2.57687 -2.95135 0
M  V30 2285 H 217.875 -2.91477 -2.75394 0
M  V30 2286 H 214.465 -3.9204 -1.73213 0
M  V30 2287 H 218.649 -4.79359 -1.28565 0
M  V30 2288 H 213.905 -6.07498 -0.689626 0
M  V30 2289 H 218.079 -6.95948 -0.250894 0
M  V30 2290 H 215.706 -7.60182 0.0529471 0
M  V30 2291 N 217.281 0.66697 -1.42791 0
M  V30 2292 C 218.228 1.7803 -1.4688 0
M  V30 2293 C 219.198 1.6299 -0.319919 0
M  V30 2294 O 220.383 1.83432 -0.525118 0
M  V30 2295 C 217.523 3.1611 -1.38451 0
M  V30 2296 C 216.636 3.42381 -2.63437 0
M  V30 2297 C 215.771 4.70232 -2.47094 0
M  V30 2298 C 214.81 4.89564 -3.67415 0
M  V30 2299 N 213.947 6.08661 -3.49966 0
M  V30 2300 H 218.787 1.7387 -2.42019 0
M  V30 2301 H 216.324 0.84868 -1.20149 0
M  V30 2302 H 218.282 3.95914 -1.31561 0
M  V30 2303 H 216.912 3.19374 -0.469033 0
M  V30 2304 H 215.964 2.56774 -2.80662 0
M  V30 2305 H 217.276 3.52557 -3.52853 0
M  V30 2306 H 216.43 5.5814 -2.37834 0
M  V30 2307 H 215.169 4.62353 -1.5518 0
M  V30 2308 H 214.174 4.00096 -3.77099 0
M  V30 2309 H 215.399 4.99282 -4.6032 0
M  V30 2310 H 213.345 6.0194 -2.60776 0
M  V30 2311 H 213.262 6.19733 -4.32975 0
M  V30 2312 H 214.53 6.99226 -3.44532 0
M  V30 2313 N 218.759 1.29093 0.90403 0
M  V30 2314 C 220.007 1.16583 1.65085 0
M  V30 2315 C 220.328 -0.283933 1.92922 0
M  V30 2316 O 219.598 -1.19509 1.55224 0
M  V30 2317 H 218.178 0.428467 0.611903 0
M  V30 2318 H 220.84 1.61959 1.08422 0
M  V30 2319 H 219.936 1.71266 2.6091 0
M  V30 2320 N 220.237 -1.11381 1.11499 0
M  V30 2321 C 221.483 -1.83597 0.875423 0
M  V30 2322 C 221.838 -1.83048 -0.592555 0
M  V30 2323 O 221.131 -1.27304 -1.43193 0
M  V30 2324 C 221.325 -3.30026 1.37177 0
M  V30 2325 C 221.154 -3.44837 2.88647 0
M  V30 2326 C 219.924 -3.57825 3.56776 0
M  V30 2327 C 222.122 -3.3907 3.86699 0
M  V30 2328 N 220.104 -3.61113 4.96458 0
M  V30 2329 C 221.475 -3.48986 5.12454 0
M  V30 2330 C 223.53 -3.22605 3.7925 0
M  V30 2331 C 222.233 -3.44135 6.31636 0
M  V30 2332 C 224.259 -3.19072 4.97943 0
M  V30 2333 C 223.621 -3.29559 6.22551 0
M  V30 2334 H 219.72 -0.687044 0.37349 0
M  V30 2335 H 222.304 -1.33265 1.41946 0
M  V30 2336 H 220.475 -3.78874 0.854919 0
M  V30 2337 H 222.207 -3.90153 1.07529 0
M  V30 2338 H 218.962 -3.60414 3.07244 0
M  V30 2339 H 219.386 -3.66394 5.69284 0
M  V30 2340 H 224.028 -3.13382 2.83816 0
M  V30 2341 H 221.746 -3.52126 7.27347 0
M  V30 2342 H 225.332 -3.07498 4.93899 0
M  V30 2343 H 224.212 -3.26815 7.12855 0
M  V30 2344 N 221.715 -0.905404 -1.28997 0
M  V30 2345 C 222.662 -0.385892 -2.27551 0
M  V30 2346 C 223.632 0.535113 -1.57244 0
M  V30 2347 O 224.817 0.459119 -1.85194 0
M  V30 2348 C 221.957 0.375461 -3.43051 0
M  V30 2349 C 221.07 -0.577092 -4.28128 0
M  V30 2350 C 220.205 0.201879 -5.30816 0
M  V30 2351 C 219.244 -0.744829 -6.07551 0
M  V30 2352 N 218.381 9.42587e-05 -7.021 0
M  V30 2353 H 223.221 -1.23139 -2.71368 0
M  V30 2354 H 220.758 -0.618542 -1.33463 0
M  V30 2355 H 222.716 0.832992 -4.088 0
M  V30 2356 H 221.346 1.18537 -3.00248 0
M  V30 2357 H 220.398 -1.15315 -3.62501 0
M  V30 2358 H 221.71 -1.30152 -4.8152 0
M  V30 2359 H 220.864 0.720351 -6.02408 0
M  V30 2360 H 219.603 0.959413 -4.7817 0
M  V30 2361 H 218.608 -1.27475 -5.34818 0
M  V30 2362 H 219.833 -1.50178 -6.62286 0
M  V30 2363 H 217.779 0.739791 -6.51815 0
M  V30 2364 H 217.696 -0.664321 -7.53076 0
M  V30 2365 H 218.964 0.498644 -7.77903 0
M  V30 2366 N 223.193 1.4272 -0.668489 0
M  V30 2367 C 224.439 2.01923 -0.188419 0
M  V30 2368 C 224.772 1.52704 1.19979 0
M  V30 2369 O 224.047 0.726566 1.8042 0
M  V30 2370 C 224.33 3.59451 -0.216085 0
M  V30 2371 C 224.183 4.18864 -1.6393 0
M  V30 2372 C 225.502 4.37903 0.439179 0
M  V30 2373 H 222.621 0.733674 -0.0699412 0
M  V30 2374 H 225.263 1.69822 -0.852076 0
M  V30 2375 H 223.413 3.86929 0.349012 0
M  V30 2376 H 225.085 4.02362 -2.25616 0
M  V30 2377 H 223.328 3.74933 -2.18193 0
M  V30 2378 H 223.999 5.27987 -1.61039 0
M  V30 2379 H 226.475 4.16079 -0.0417878 0
M  V30 2380 H 225.351 5.47519 0.389157 0
M  V30 2381 H 225.612 4.15303 1.51577 0
M  V30 2382 N 224.671 0.411399 1.52136 0
M  V30 2383 C 225.899 -0.163076 2.06256 0
M  V30 2384 C 226.314 -1.3867 1.28125 0
M  V30 2385 O 225.671 -1.79423 0.333721 0
M  V30 2386 C 225.722 -0.511252 3.57867 0
M  V30 2387 O 225.443 0.66378 4.33042 0
M  V30 2388 C 226.944 -1.13921 4.28412 0
M  V30 2389 H 224.164 -0.0193897 0.67072 0
M  V30 2390 H 226.708 0.583007 1.96013 0
M  V30 2391 H 224.863 -1.20723 3.6811 0
M  V30 2392 H 225.277 0.372601 5.23175 0
M  V30 2393 H 226.751 -1.33302 5.35663 0
M  V30 2394 H 227.228 -2.11296 3.85033 0
M  V30 2395 H 227.834 -0.483373 4.22544 0
M  V30 2396 N 226.149 -1.5696 0.141893 0
M  V30 2397 C 227.565 -1.58151 -0.21456 0
M  V30 2398 C 227.765 -1.1559 -1.65049 0
M  V30 2399 O 226.821 -0.853832 -2.37626 0
M  V30 2400 C 228.134 -3.00674 0.0395576 0
M  V30 2401 C 229.682 -3.1299 -0.0245529 0
M  V30 2402 C 230.157 -4.57554 0.202167 0
M  V30 2403 N 231.648 -4.62961 0.148919 0
M  V30 2404 C 232.383 -5.7262 0.298924 0
M  V30 2405 N 231.879 -6.90947 0.50637 0
M  V30 2406 N 233.672 -5.61601 0.236886 0
M  V30 2407 H 225.823 -1.8292 1.07953 0
M  V30 2408 H 228.086 -0.846425 0.42693 0
M  V30 2409 H 227.792 -3.36183 1.03315 0
M  V30 2410 H 227.666 -3.70981 -0.682143 0
M  V30 2411 H 230.053 -2.77326 -1.00869 0
M  V30 2412 H 230.134 -2.4518 0.729396 0
M  V30 2413 H 229.778 -4.93922 1.18338 0
M  V30 2414 H 229.708 -5.23484 -0.572044 0
M  V30 2415 H 232.199 -3.77899 -0.00697015 0
M  V30 2416 H 232.512 -7.7038 0.611076 0
M  V30 2417 H 230.857 -6.92878 0.542628 0
M  V30 2418 H 234.048 -4.68039 0.0756209 0
M  V30 2419 H 234.221 -6.47015 0.357227 0
M  V30 2420 N 227.627 0.131896 -1.57047 0
M  V30 2421 C 228.574 1.16236 -1.99393 0
M  V30 2422 C 229.544 1.41863 -0.863943 0
M  V30 2423 O 230.729 1.53946 -1.12718 0
M  V30 2424 C 227.869 2.48708 -2.39245 0
M  V30 2425 C 226.982 2.30127 -3.65603 0
M  V30 2426 C 226.117 3.55738 -3.94492 0
M  V30 2427 C 225.156 3.32259 -5.14073 0
M  V30 2428 N 224.293 4.50039 -5.38896 0
M  V30 2429 H 229.133 0.794251 -2.87221 0
M  V30 2430 H 226.67 0.380707 -1.42088 0
M  V30 2431 H 228.628 3.25969 -2.60384 0
M  V30 2432 H 227.258 2.83437 -1.54478 0
M  V30 2433 H 226.31 1.43845 -3.52154 0
M  V30 2434 H 227.622 2.08746 -4.5302 0
M  V30 2435 H 226.776 4.41423 -4.1621 0
M  V30 2436 H 225.515 3.80138 -3.05526 0
M  V30 2437 H 224.52 2.44963 -4.92212 0
M  V30 2438 H 225.745 3.09242 -6.04604 0
M  V30 2439 H 223.691 4.74584 -4.52886 0
M  V30 2440 H 223.608 4.31716 -6.2061 0
M  V30 2441 H 224.876 5.36895 -5.65123 0
M  V30 2442 N 229.106 1.52395 0.401703 0
M  V30 2443 C 230.383 1.57387 1.16141 0
M  V30 2444 C 230.763 0.359359 2.08019 0
M  V30 2445 O 230.111 -0.65326 2.18963 0
M  V30 2446 C 230.321 2.90631 1.93221 0
M  V30 2447 C 231.669 3.43904 2.49028 0
M  V30 2448 O 232.693 2.92421 2.03393 0
M  V30 2449 O 231.552 4.33823 3.32356 0
M  V30 2450 H 228.646 0.634262 0.530698 0
M  V30 2451 H 231.192 1.64725 0.407883 0
M  V30 2452 H 229.964 3.70473 1.25958 0
M  V30 2453 H 229.587 2.8662 2.75563 0
M  V30 2454 N 230.584 -0.659388 1.43143 0
M  V30 2455 C 231.832 -1.41654 1.44147 0
M  V30 2456 C 232.153 -1.94893 0.0645739 0
M  V30 2457 O 231.423 -1.74044 -0.899198 0
M  V30 2458 H 230.003 -0.525708 0.530697 0
M  V30 2459 H 232.665 -0.778097 1.78694 0
M  V30 2460 H 231.761 -2.26195 2.1504 0
M  V30 2461 N 232.062 -1.29571 -0.897171 0
M  V30 2462 C 233.01 -1.14802 -2.02295 0
M  V30 2463 C 234.004 -0.0629637 -1.69283 0
M  V30 2464 O 235.21 -0.222945 -1.78614 0
M  V30 2465 H 231.585 -0.354692 -0.663097 0
M  V30 2466 H 233.556 -2.10108 -2.11889 0
M  V30 2467 C 232.305 -0.843966 -3.37302 0
M  V30 2468 H 231.628 -1.67093 -3.63208 0
M  V30 2469 H 233.068 -0.780672 -4.16751 0
M  V30 2470 C 231.527 0.452843 -3.33843 0
M  V30 2471 O 232.057 1.47813 -3.73516 0
M  V30 2472 N 230.263 0.459601 -2.86943 0
M  V30 2473 H 229.81 -0.375213 -2.54853 0
M  V30 2474 H 229.768 1.32726 -2.85011 0
M  V30 2475 N 233.54 1.10788 -1.12088 0
M  V30 2476 C 234.503 2.15207 -0.788577 0
M  V30 2477 C 235.503 1.59609 0.195317 0
M  V30 2478 O 236.693 1.74174 -0.0300193 0
M  V30 2479 C 233.825 3.4047 -0.171174 0
M  V30 2480 H 235.018 2.46116 -1.71368 0
M  V30 2481 H 232.571 1.26089 -0.923652 0
M  V30 2482 H 233.306 3.15176 0.763832 0
M  V30 2483 H 233.091 3.82109 -0.879514 0
M  V30 2484 H 234.581 4.17576 0.04496 0
M  V30 2485 N 235.018 0.912232 1.28515 0
M  V30 2486 C 236.243 0.559774 1.99703 0
M  V30 2487 C 236.668 -0.851393 1.67729 0
M  V30 2488 O 236.026 -1.56875 0.908834 0
M  V30 2489 C 236.074 0.773874 3.52198 0
M  V30 2490 O 235.178 -0.167842 4.12058 0
M  V30 2491 H 234.519 0.21723 0.627461 0
M  V30 2492 H 237.049 1.22725 1.63706 0
M  V30 2493 H 237.059 0.683386 4.02236 0
M  V30 2494 H 235.734 1.80261 3.74805 0
M  V30 2495 H 234.311 -0.0287509 3.72889 0
M  V30 2496 N 236.496 -1.42363 0.676048 0
M  V30 2497 C 237.744 -2.01123 0.198437 0
M  V30 2498 C 238.065 -1.53731 -1.19966 0
M  V30 2499 O 237.335 -0.759518 -1.80577 0
M  V30 2500 H 235.915 -0.743678 0.0703721 0
M  V30 2501 H 238.577 -1.74263 0.872837 0
M  V30 2502 H 237.673 -3.11454 0.200686 0
M  V30 2503 N 237.974 -0.419461 -1.51915 0
M  V30 2504 C 239.202 0.152136 -2.0634 0
M  V30 2505 C 239.617 1.37988 -1.28859 0
M  V30 2506 O 238.974 1.79243 -0.343232 0
M  V30 2507 C 239.025 0.492266 -3.58133 0
M  V30 2508 O 238.746 -0.686736 -4.32684 0
M  V30 2509 C 240.247 1.11648 -4.2901 0
M  V30 2510 H 237.467 0.0158325 -0.670813 0
M  V30 2511 H 240.011 -0.593394 -1.95702 0
M  V30 2512 H 238.166 1.18769 -3.68745 0
M  V30 2513 H 238.58 -0.400341 -5.2297 0
M  V30 2514 H 240.054 1.3046 -5.36362 0
M  V30 2515 H 240.531 2.09251 -3.86148 0
M  V30 2516 H 241.137 0.460958 -4.22795 0
M  V30 2517 N 239.452 1.56882 -0.150215 0
M  V30 2518 C 240.68 2.00593 0.506948 0
M  V30 2519 C 241.095 1.03033 1.58208 0
M  V30 2520 O 240.452 0.0278396 1.82479 0
M  V30 2521 C 240.503 3.44209 1.10465 0
M  V30 2522 O 240.224 4.3804 0.0724636 0
M  V30 2523 C 241.725 4.03214 1.84211 0
M  V30 2524 H 238.945 0.65795 0.13169 0
M  V30 2525 H 241.489 2.03018 -0.245743 0
M  V30 2526 H 239.644 3.42625 1.80795 0
M  V30 2527 H 240.058 5.22007 0.510793 0
M  V30 2528 H 241.532 5.0569 2.21318 0
M  V30 2529 H 242.009 3.44107 2.72923 0
M  V30 2530 H 242.615 4.08437 1.18572 0
M  V30 2531 N 240.93 -0.123565 1.57115 0
M  V30 2532 C 241.86 -1.15309 2.03042 0
M  V30 2533 C 242.841 -1.43454 0.914061 0
M  V30 2534 O 244.026 -1.53973 1.18347 0
M  V30 2535 C 241.156 -2.48043 2.43089 0
M  V30 2536 C 240.11 -2.3437 3.58127 0
M  V30 2537 C 239.436 -3.72026 3.84059 0
M  V30 2538 C 240.736 -1.80804 4.90007 0
M  V30 2539 H 242.43 -0.771102 2.893 0
M  V30 2540 H 239.976 -0.369479 1.39179 0
M  V30 2541 H 241.929 -3.20311 2.73823 0
M  V30 2542 H 240.653 -2.88122 1.53796 0
M  V30 2543 H 239.312 -1.64551 3.27595 0
M  V30 2544 H 238.96 -4.09582 2.91979 0
M  V30 2545 H 238.66 -3.63732 4.6149 0
M  V30 2546 H 240.184 -4.45806 4.1724 0
M  V30 2547 H 241.598 -2.42886 5.19307 0
M  V30 2548 H 239.995 -1.83343 5.71407 0
M  V30 2549 H 241.065 -0.76528 4.78823 0
M  V30 2550 N 242.408 -1.52605 -0.393616 0
M  V30 2551 C 243.338 -1.80022 -1.48709 0
M  V30 2552 C 244.319 -0.651995 -1.57108 0
M  V30 2553 O 245.504 -0.89913 -1.72132 0
M  V30 2554 C 242.634 -1.96492 -2.86371 0
M  V30 2555 C 241.588 -3.12161 -2.92813 0
M  V30 2556 C 240.914 -3.13877 -4.3288 0
M  V30 2557 C 242.214 -4.51322 -2.6288 0
M  V30 2558 H 243.908 -2.71589 -1.26015 0
M  V30 2559 H 241.454 -1.30684 -0.604778 0
M  V30 2560 H 243.407 -2.14255 -3.62867 0
M  V30 2561 H 242.131 -1.01611 -3.10391 0
M  V30 2562 H 240.79 -2.94173 -2.18764 0
M  V30 2563 H 240.438 -2.16687 -4.53933 0
M  V30 2564 H 240.138 -3.91576 -4.38112 0
M  V30 2565 H 241.662 -3.33789 -5.1129 0
M  V30 2566 H 243.076 -4.69435 -3.29096 0
M  V30 2567 H 241.473 -5.31053 -2.79468 0
M  V30 2568 H 242.543 -4.58353 -1.58242 0
M  V30 2569 N 243.887 0.651787 -1.4349 0
M  V30 2570 C 244.797 1.79368 -1.5121 0
M  V30 2571 C 245.813 1.69361 -0.399093 0
M  V30 2572 O 246.989 1.90505 -0.653431 0
M  V30 2573 C 244.054 3.15653 -1.43401 0
M  V30 2574 C 243.115 3.37446 -2.65384 0
M  V30 2575 C 242.348 4.67229 -2.57939 0
M  V30 2576 O 242.571 5.46676 -1.62792 0
M  V30 2577 O 241.505 4.90773 -3.48462 0
M  V30 2578 H 245.331 1.7581 -2.47638 0
M  V30 2579 H 242.916 0.810447 -1.25507 0
M  V30 2580 H 244.798 3.96935 -1.41494 0
M  V30 2581 H 243.473 3.19798 -0.501085 0
M  V30 2582 H 242.38 2.55923 -2.72863 0
M  V30 2583 H 243.713 3.38148 -3.57654 0
M  V30 2584 N 245.365 1.30045 0.890287 0
M  V30 2585 C 246.328 1.15963 1.977 0
M  V30 2586 C 247.328 0.0923777 1.60534 0
M  V30 2587 O 248.518 0.340071 1.70848 0
M  V30 2588 C 245.65 0.775451 3.31963 0
M  V30 2589 H 246.843 2.12502 2.11619 0
M  V30 2590 H 244.396 1.13366 1.07601 0
M  V30 2591 H 245.131 -0.189671 3.23745 0
M  V30 2592 H 244.916 1.54668 3.60306 0
M  V30 2593 H 246.406 0.700251 4.11687 0
M  V30 2594 N 246.843 -1.10192 1.12674 0
M  V30 2595 C 247.773 -2.18652 0.819362 0
M  V30 2596 C 248.754 -1.68698 -0.217915 0
M  V30 2597 O 249.939 -1.94041 -0.0785581 0
M  V30 2598 C 247.069 -3.46202 0.27594 0
M  V30 2599 C 246.023 -4.09444 1.24656 0
M  V30 2600 C 245.349 -5.31725 0.563258 0
M  V30 2601 C 246.649 -4.52863 2.60217 0
M  V30 2602 H 248.343 -2.44622 1.72628 0
M  V30 2603 H 245.889 -1.17571 0.831451 0
M  V30 2604 H 247.842 -4.21372 0.0486149 0
M  V30 2605 H 246.566 -3.1973 -0.666331 0
M  V30 2606 H 245.225 -3.36284 1.45974 0
M  V30 2607 H 244.873 -5.0153 -0.384235 0
M  V30 2608 H 244.573 -5.74991 1.21075 0
M  V30 2609 H 246.097 -6.09624 0.34503 0
M  V30 2610 H 247.511 -5.19294 2.42913 0
M  V30 2611 H 245.908 -5.06986 3.21068 0
M  V30 2612 H 246.978 -3.65656 3.18471 0
M  V30 2613 N 248.321 -0.919034 -1.28029 0
M  V30 2614 C 249.598 -0.473668 -1.89778 0
M  V30 2615 C 249.978 1.04783 -1.83259 0
M  V30 2616 O 249.326 1.8982 -1.27202 0
M  V30 2617 C 249.536 -1.00998 -3.34066 0
M  V30 2618 C 250.884 -1.06525 -4.1102 0
M  V30 2619 O 251.908 -0.958996 -3.43048 0
M  V30 2620 O 250.767 -1.22776 -5.3253 0
M  V30 2621 H 247.861 -0.15098 -0.813101 0
M  V30 2622 H 250.407 -1.01016 -1.36359 0
M  V30 2623 H 249.179 -2.05392 -3.33061 0
M  V30 2624 H 248.802 -0.454626 -3.94992 0
M  V30 2625 N 249.799 1.42003 -0.683588 0
M  V30 2626 C 251.039 2.03282 -0.213513 0
M  V30 2627 C 251.403 1.52924 1.16097 0
M  V30 2628 O 252.604 2.06048 1.7262 0
M  V30 2629 C 250.875 3.56483 -0.255856 0
M  V30 2630 S 252.434 4.3857 0.14193 0
M  V30 2631 H 249.252 0.705659 -0.0869853 0
M  V30 2632 H 251.854 1.73619 -0.8987 0
M  V30 2633 H 250.558 3.90631 -1.25841 0
M  V30 2634 H 250.089 3.90831 0.448875 0
M  V30 2635 H 252.104 4.76828 1.37295 0
M  V30 2636 N 251.277 0.427512 1.51691 0
M  V30 2637 C 252.526 -0.143679 2.01188 0
M  V30 2638 C 252.839 -1.44642 1.31674 0
M  V30 2639 O 254.045 -2.09997 1.72086 0
M  V30 2640 C 252.501 -0.306602 3.58592 0
M  V30 2641 C 252.109 0.985125 4.37035 0
M  V30 2642 C 253.853 -0.832091 4.16265 0
M  V30 2643 C 251.76 0.788382 5.86122 0
M  V30 2644 H 250.69 -0.0574701 0.751807 0
M  V30 2645 H 253.341 0.555772 1.74881 0
M  V30 2646 H 251.723 -1.06882 3.81303 0
M  V30 2647 H 252.897 1.75492 4.26074 0
M  V30 2648 H 251.212 1.4384 3.90767 0
M  V30 2649 H 253.809 -0.995617 5.25349 0
M  V30 2650 H 254.152 -1.81186 3.74803 0
M  V30 2651 H 254.685 -0.128444 3.97593 0
M  V30 2652 H 251.424 1.74025 6.31978 0
M  V30 2653 H 250.944 0.0582143 5.99772 0
M  V30 2654 H 252.623 0.437722 6.45518 0
M  V30 2655 N 252.755 -1.56801 0.158532 0
M  V30 2656 C 253.685 -2.20347 -0.772609 0
M  V30 2657 C 254.666 -1.15518 -1.24859 0
M  V30 2658 O 255.851 -1.43902 -1.30406 0
M  V30 2659 C 252.981 -2.83417 -2.00729 0
M  V30 2660 C 251.935 -3.94174 -1.66765 0
M  V30 2661 C 251.261 -4.44233 -2.97592 0
M  V30 2662 C 252.561 -5.14392 -0.905447 0
M  V30 2663 H 254.255 -2.98413 -0.242959 0
M  V30 2664 H 251.801 -1.43537 -0.115419 0
M  V30 2665 H 253.754 -3.26543 -2.6636 0
M  V30 2666 H 252.478 -2.02701 -2.56086 0
M  V30 2667 H 251.137 -3.51684 -1.03508 0
M  V30 2668 H 250.785 -3.60325 -3.50963 0
M  V30 2669 H 250.485 -5.18945 -2.75626 0
M  V30 2670 H 252.009 -4.90037 -3.64274 0
M  V30 2671 H 253.423 -5.5429 -1.46408 0
M  V30 2672 H 251.82 -5.9494 -0.7853 0
M  V30 2673 H 252.89 -4.84795 0.100668 0
M  V30 2674 N 254.233 0.115231 -1.57178 0
M  V30 2675 C 255.644 0.67197 -1.74188 0
M  V30 2676 C 255.995 1.80125 -0.777777 0
M  V30 2677 O 255.12 2.16346 0.0484376 0
M  V30 2678 C 255.715 1.22573 -3.1585 0
M  V30 2679 C 254.274 1.72872 -3.34353 0
M  V30 2680 C 253.421 0.629972 -2.70049 0
M  V30 2681 H 256.372 -0.110712 -1.58313 0
M  V30 2682 H 256.393 2.09535 -3.17609 0
M  V30 2683 H 255.905 0.403598 -3.85996 0
M  V30 2684 H 254.006 2.5755 -2.69256 0
M  V30 2685 H 254.119 1.83557 -4.42542 0
M  V30 2686 H 252.483 1.0645 -2.31388 0
M  V30 2687 H 253.266 -0.181241 -3.42821 0
M  V30 2688 N 255.711 1.52812 0.385517 0
M  V30 2689 C 257.122 1.5993 0.963293 0
M  V30 2690 C 257.473 0.454302 1.90868 0
M  V30 2691 O 256.598 -0.422132 2.12243 0
M  V30 2692 C 257.193 2.89871 1.75387 0
M  V30 2693 C 255.752 2.99389 2.28129 0
M  V30 2694 C 254.899 2.55071 1.08783 0
M  V30 2695 H 257.85 1.5784 0.164948 0
M  V30 2696 H 257.871 2.76553 2.61341 0
M  V30 2697 H 257.383 3.73186 1.06554 0
M  V30 2698 H 255.484 2.20619 3.00263 0
M  V30 2699 H 255.597 4.04096 2.57377 0
M  V30 2700 H 253.961 2.09473 1.4489 0
M  V30 2701 H 254.744 3.40785 0.414807 0
M  V30 2702 N 257.189 -0.644168 1.43834 0
M  V30 2703 C 258.417 -1.43147 1.49387 0
M  V30 2704 C 258.832 -1.88452 0.114583 0
M  V30 2705 O 258.189 -1.60047 -0.876989 0
M  V30 2706 C 258.24 -2.66046 2.44748 0
M  V30 2707 O 257.961 -2.22633 3.77314 0
M  V30 2708 C 259.462 -3.59311 2.59635 0
M  V30 2709 H 256.682 -0.439447 0.507077 0
M  V30 2710 H 259.226 -0.78895 1.88669 0
M  V30 2711 H 257.381 -3.26418 2.08638 0
M  V30 2712 H 257.795 -3.02216 4.28679 0
M  V30 2713 H 259.269 -4.42187 3.30416 0
M  V30 2714 H 259.746 -4.07259 1.64427 0
M  V30 2715 H 260.352 -3.04816 2.96593 0
M  V30 2716 N 258.668 -1.30515 -0.883378 0
M  V30 2717 C 260.084 -1.08881 -1.16692 0
M  V30 2718 C 260.284 0.149409 -2.00945 0
M  V30 2719 O 259.34 0.84257 -2.38027 0
M  V30 2720 C 260.653 -2.35319 -1.87204 0
M  V30 2721 C 262.201 -2.40799 -1.99962 0
M  V30 2722 C 262.676 -3.67083 -2.73887 0
M  V30 2723 N 264.167 -3.679 -2.81432 0
M  V30 2724 C 264.902 -4.62303 -3.3921 0
M  V30 2725 N 264.398 -5.67052 -3.98025 0
M  V30 2726 N 266.191 -4.49845 -3.3704 0
M  V30 2727 H 258.342 -2.09951 -0.321633 0
M  V30 2728 H 260.605 -0.92556 -0.205043 0
M  V30 2729 H 260.311 -3.25689 -1.3274 0
M  V30 2730 H 260.185 -2.44089 -2.87577 0
M  V30 2731 H 262.572 -1.50907 -2.53597 0
M  V30 2732 H 262.653 -2.36003 -0.98673 0
M  V30 2733 H 262.297 -4.57334 -2.20925 0
M  V30 2734 H 262.227 -3.69141 -3.75556 0
M  V30 2735 H 264.718 -2.92171 -2.39676 0
M  V30 2736 H 265.031 -6.35184 -4.40183 0
M  V30 2737 H 263.376 -5.70842 -3.96439 0
M  V30 2738 H 266.567 -3.67194 -2.90321 0
M  V30 2739 H 266.74 -5.23597 -3.81772 0
M  V30 2740 N 260.146 1.09593 -1.13257 0
M  V30 2741 C 261.557 1.63229 -0.906274 0
M  V30 2742 C 261.908 1.8811 0.557578 0
M  V30 2743 O 261.033 1.62953 1.42391 0
M  V30 2744 C 261.628 2.96535 -1.63867 0
M  V30 2745 C 260.187 3.47003 -1.45828 0
M  V30 2746 C 259.334 2.2145 -1.66898 0
M  V30 2747 H 262.285 0.92978 -1.28611 0
M  V30 2748 H 262.306 3.64411 -1.09476 0
M  V30 2749 H 261.818 2.78394 -2.70404 0
M  V30 2750 H 259.919 3.70272 -0.415848 0
M  V30 2751 H 260.032 4.24551 -2.2202 0
M  V30 2752 H 258.396 2.30022 -1.09371 0
M  V30 2753 H 259.179 2.0583 -2.74752 0
M  V30 2754 N 261.624 0.925811 1.2754 0
M  V30 2755 C 262.852 0.581509 1.9856 0
M  V30 2756 C 263.267 -0.840041 1.69082 0
M  V30 2757 O 262.624 -1.55805 0.950312 0
M  V30 2758 C 262.675 0.795589 3.52637 0
M  V30 2759 O 262.396 2.16121 3.81082 0
M  V30 2760 C 263.897 0.459744 4.4091 0
M  V30 2761 H 261.117 0.220538 0.633722 0
M  V30 2762 H 263.661 1.24232 1.6244 0
M  V30 2763 H 261.816 0.18161 3.86974 0
M  V30 2764 H 262.23 2.2098 4.75676 0
M  V30 2765 H 263.704 0.660244 5.48037 0
M  V30 2766 H 264.181 -0.604625 4.35018 0
M  V30 2767 H 264.787 1.05178 4.12089 0
M  V30 2768 N 263.102 -1.41638 0.69111 0
M  V30 2769 C 264.379 -1.95036 0.148421 0
M  V30 2770 C 264.759 -1.63072 -1.34055 0
M  V30 2771 O 264.107 -0.93538 -2.08478 0
M  V30 2772 C 264.317 -3.46279 0.434951 0
M  V30 2773 C 265.665 -4.23069 0.360275 0
M  V30 2774 O 266.689 -3.54277 0.369613 0
M  V30 2775 O 265.548 -5.45583 0.316534 0
M  V30 2776 H 262.642 -0.826908 0.0123654 0
M  V30 2777 H 265.188 -1.5138 0.766963 0
M  V30 2778 H 263.96 -3.6281 1.46576 0
M  V30 2779 H 263.583 -3.97019 -0.214787 0
M  V30 2780 N 264.58 -0.43555 -1.51462 0
M  V30 2781 C 265.527 0.376797 -2.27703 0
M  V30 2782 C 266.497 1.01838 -1.31219 0
M  V30 2783 O 267.682 1.03762 -1.60119 0
M  V30 2784 C 264.822 1.47301 -3.12084 0
M  V30 2785 C 263.935 0.849744 -4.2356 0
M  V30 2786 C 263.07 1.92086 -4.95254 0
M  V30 2787 C 262.109 1.27593 -5.98654 0
M  V30 2788 N 261.246 2.28833 -6.63762 0
M  V30 2789 H 266.086 -0.279734 -2.96684 0
M  V30 2790 H 263.623 -0.149795 -1.46335 0
M  V30 2791 H 265.581 2.11984 -3.59331 0
M  V30 2792 H 264.211 2.0992 -2.45221 0
M  V30 2793 H 263.263 0.0912529 -3.80291 0
M  V30 2794 H 264.575 0.338878 -4.97648 0
M  V30 2795 H 263.729 2.64435 -5.46039 0
M  V30 2796 H 262.468 2.46545 -4.20793 0
M  V30 2797 H 261.473 0.537893 -5.47162 0
M  V30 2798 H 262.698 0.738693 -6.7507 0
M  V30 2799 H 260.644 2.82375 -5.92115 0
M  V30 2800 H 260.561 1.82632 -7.33608 0
M  V30 2801 H 261.829 3.00671 -7.19178 0
M  V30 2802 N 266.058 1.56714 -0.166846 0
M  V30 2803 C 267.469 1.83378 0.350646 0
M  V30 2804 C 267.82 1.08646 1.63372 0
M  V30 2805 O 266.945 0.338058 2.13743 0
M  V30 2806 C 267.54 3.32643 0.642963 0
M  V30 2807 C 266.099 3.59818 1.10491 0
M  V30 2808 C 265.246 2.76954 0.138411 0
M  V30 2809 H 268.197 1.53803 -0.391193 0
M  V30 2810 H 268.218 3.49878 1.49551 0
M  V30 2811 H 267.73 3.87007 -0.291055 0
M  V30 2812 H 265.831 3.1086 2.05418 0
M  V30 2813 H 265.944 4.68178 1.01716 0
M  V30 2814 H 264.308 2.4666 0.634911 0
M  V30 2815 H 265.091 3.34097 -0.789549 0
M  V30 2816 N 267.536 -0.106894 1.57237 0
M  V30 2817 C 268.466 -1.13148 2.04254 0
M  V30 2818 C 269.447 -1.42476 0.929224 0
M  V30 2819 O 270.632 -1.52709 1.19973 0
M  V30 2820 C 267.762 -2.4545 2.45706 0
M  V30 2821 C 266.716 -2.30558 3.60592 0
M  V30 2822 C 266.042 -3.67931 3.87983 0
M  V30 2823 C 267.342 -1.75597 4.91897 0
M  V30 2824 H 269.036 -0.740374 2.90101 0
M  V30 2825 H 266.582 -0.354696 1.39563 0
M  V30 2826 H 268.535 -3.17389 2.77205 0
M  V30 2827 H 267.259 -2.86475 1.56843 0
M  V30 2828 H 265.918 -1.61067 3.29322 0
M  V30 2829 H 265.566 -4.06462 2.96306 0
M  V30 2830 H 265.266 -3.58817 4.65322 0
M  V30 2831 H 266.79 -4.41356 4.21945 0
M  V30 2832 H 268.204 -2.37364 5.21854 0
M  V30 2833 H 266.601 -1.77272 5.73319 0
M  V30 2834 H 267.671 -0.714451 4.79608 0
M  V30 2835 N 269.014 -1.53014 -0.377408 0
M  V30 2836 C 270.43 -1.42523 -0.718281 0
M  V30 2837 C 270.63 -0.55487 -1.9371 0
M  V30 2838 O 269.686 -0.0327593 -2.52479 0
M  V30 2839 C 270.999 -2.85546 -0.942539 0
M  V30 2840 C 272.547 -2.95101 -1.04329 0
M  V30 2841 C 273.022 -4.3916 -1.3001 0
M  V30 2842 N 274.513 -4.42536 -1.36806 0
M  V30 2843 C 275.248 -5.51097 -1.58364 0
M  V30 2844 N 274.744 -6.69724 -1.77317 0
M  V30 2845 N 276.537 -5.38657 -1.60638 0
M  V30 2846 H 268.688 -2.08116 0.424426 0
M  V30 2847 H 270.951 -0.939352 0.127759 0
M  V30 2848 H 270.657 -3.51499 -0.118929 0
M  V30 2849 H 270.531 -3.28493 -1.85397 0
M  V30 2850 H 272.918 -2.29309 -1.85745 0
M  V30 2851 H 272.999 -2.55566 -0.109505 0
M  V30 2852 H 272.643 -5.05521 -0.490991 0
M  V30 2853 H 272.573 -4.76258 -2.24691 0
M  V30 2854 H 275.064 -3.57039 -1.23821 0
M  V30 2855 H 275.377 -7.48233 -1.93306 0
M  V30 2856 H 273.722 -6.72732 -1.74518 0
M  V30 2857 H 276.913 -4.44948 -1.45391 0
M  V30 2858 H 277.086 -6.2333 -1.77098 0
M  V30 2859 N 270.492 0.636531 -1.44174 0
M  V30 2860 C 271.422 1.76003 -1.53444 0
M  V30 2861 C 272.403 1.65619 -0.387841 0
M  V30 2862 O 273.588 1.84461 -0.607257 0
M  V30 2863 C 270.718 3.14511 -1.4731 0
M  V30 2864 C 269.672 3.39677 -2.60391 0
M  V30 2865 C 268.998 4.78159 -2.39308 0
M  V30 2866 C 270.298 3.32772 -4.02567 0
M  V30 2867 H 271.992 1.68501 -2.47483 0
M  V30 2868 H 269.538 0.809237 -1.19111 0
M  V30 2869 H 271.491 3.92878 -1.52397 0
M  V30 2870 H 270.215 3.22783 -0.49785 0
M  V30 2871 H 268.874 2.63688 -2.54684 0
M  V30 2872 H 268.522 4.83128 -1.39988 0
M  V30 2873 H 268.222 4.95956 -3.15122 0
M  V30 2874 H 269.746 5.58762 -2.46205 0
M  V30 2875 H 271.16 4.01051 -4.09672 0
M  V30 2876 H 269.557 3.62104 -4.7854 0
M  V30 2877 H 270.627 2.30669 -4.2652 0
M  V30 2878 N 271.97 1.30982 0.876444 0
M  V30 2879 C 273.381 1.18277 1.44456 0
M  V30 2880 C 273.732 -0.213265 1.95037 0
M  V30 2881 O 272.857 -1.11057 1.85729 0
M  V30 2882 C 273.452 2.1411 2.62569 0
M  V30 2883 C 272.011 2.05358 3.15444 0
M  V30 2884 C 271.158 2.03706 1.88146 0
M  V30 2885 H 274.109 1.43127 0.685584 0
M  V30 2886 H 274.13 1.72692 3.39054 0
M  V30 2887 H 273.642 3.15706 2.25724 0
M  V30 2888 H 271.743 1.06934 3.56926 0
M  V30 2889 H 271.856 2.94156 3.78166 0
M  V30 2890 H 270.22 1.48629 2.06837 0
M  V30 2891 H 271.003 3.07047 1.53547 0
M  V30 2892 N 273.449 -1.08991 1.13837 0
M  V30 2893 C 274.379 -2.17771 0.842507 0
M  V30 2894 C 275.36 -1.6892 -0.20001 0
M  V30 2895 O 276.545 -1.94113 -0.0579731 0
M  V30 2896 C 273.675 -3.4589 0.312644 0
M  V30 2897 C 272.629 -4.08099 1.28992 0
M  V30 2898 C 271.955 -5.31098 0.619623 0
M  V30 2899 C 273.255 -4.50077 2.65005 0
M  V30 2900 H 274.949 -2.42777 1.75213 0
M  V30 2901 H 272.495 -1.16682 0.843875 0
M  V30 2902 H 274.448 -4.21297 0.0933043 0
M  V30 2903 H 273.172 -3.20419 -0.632382 0
M  V30 2904 H 271.831 -3.34717 1.49533 0
M  V30 2905 H 271.479 -5.0191 -0.33102 0
M  V30 2906 H 271.179 -5.73674 1.27167 0
M  V30 2907 H 272.703 -6.09224 0.409669 0
M  V30 2908 H 274.117 -5.16688 2.48407 0
M  V30 2909 H 272.514 -5.03553 3.26427 0
M  V30 2910 H 273.584 -3.62257 3.22332 0
M  V30 2911 N 274.927 -0.932562 -1.27047 0
M  V30 2912 C 275.859 -0.392734 -2.2581 0
M  V30 2913 C 276.872 0.479241 -1.55586 0
M  V30 2914 O 278.061 0.291078 -1.76111 0
M  V30 2915 C 275.161 0.455456 -3.35826 0
M  V30 2916 C 274.334 -0.398355 -4.35582 0
M  V30 2917 C 273.393 0.387985 -5.24768 0
M  V30 2918 O 272.419 -0.206003 -5.68827 0
M  V30 2919 N 273.621 1.68664 -5.55457 0
M  V30 2920 H 276.386 -1.24173 -2.72766 0
M  V30 2921 H 273.947 -0.800511 -1.40725 0
M  V30 2922 H 275.939 0.988692 -3.92437 0
M  V30 2923 H 274.509 1.20522 -2.88432 0
M  V30 2924 H 273.729 -1.11286 -3.78165 0
M  V30 2925 H 275.017 -0.981889 -4.99236 0
M  V30 2926 H 274.415 2.19147 -5.21528 0
M  V30 2927 H 272.972 2.1663 -6.14748 0
M  V30 2928 N 276.405 1.4127 -0.698611 0
M  V30 2929 C 277.682 1.94955 -0.158762 0
M  V30 2930 C 278.062 1.63781 1.33188 0
M  V30 2931 O 277.41 0.946423 2.07979 0
M  V30 2932 C 277.62 3.46044 -0.453309 0
M  V30 2933 C 278.968 4.22872 -0.382707 0
M  V30 2934 O 279.992 3.54076 -0.388396 0
M  V30 2935 O 278.851 5.45407 -0.345463 0
M  V30 2936 H 275.945 0.82683 -0.0167505 0
M  V30 2937 H 278.491 1.50971 -0.77498 0
M  V30 2938 H 277.263 3.62028 -1.48498 0
M  V30 2939 H 276.886 3.97128 0.19373 0
M  V30 2940 N 277.883 0.443576 1.51229 0
M  V30 2941 C 279.129 -0.120975 2.02439 0
M  V30 2942 C 279.462 -1.41815 1.32674 0
M  V30 2943 O 278.737 -1.89373 0.443622 0
M  V30 2944 C 279.02 -0.333291 3.58554 0
M  V30 2945 C 278.873 0.982968 4.38928 0
M  V30 2946 C 280.192 -1.10028 4.26124 0
M  V30 2947 H 277.311 -0.0424923 0.735774 0
M  V30 2948 H 279.953 0.583794 1.80809 0
M  V30 2949 H 278.103 -0.933614 3.77115 0
M  V30 2950 H 279.775 1.61775 4.32003 0
M  V30 2951 H 278.018 1.58611 4.03763 0
M  V30 2952 H 278.689 0.788379 5.46341 0
M  V30 2953 H 281.165 -0.591711 4.11871 0
M  V30 2954 H 280.041 -1.21761 5.35225 0
M  V30 2955 H 280.302 -2.12996 3.87408 0
M  V30 2956 N 279.361 -1.56624 0.175154 0
M  V30 2957 C 280.591 -2.01082 -0.474283 0
M  V30 2958 C 280.999 -1.05447 -1.57091 0
M  V30 2959 O 280.342 -0.0480595 -1.83637 0
M  V30 2960 C 280.404 -3.41963 -1.10911 0
M  V30 2961 C 280.068 -4.56742 -0.153666 0
M  V30 2962 C 281.065 -5.16076 0.629448 0
M  V30 2963 C 278.75 -5.02277 -0.0483776 0
M  V30 2964 C 280.744 -6.19377 1.50501 0
M  V30 2965 C 278.431 -6.05427 0.830768 0
M  V30 2966 C 279.429 -6.63849 1.60605 0
M  V30 2967 O 279.117 -7.64998 2.47049 0
M  V30 2968 H 278.849 -0.664261 -0.125432 0
M  V30 2969 H 281.403 -2.03549 0.275163 0
M  V30 2970 H 279.633 -3.36422 -1.90676 0
M  V30 2971 H 281.322 -3.70352 -1.66114 0
M  V30 2972 H 282.088 -4.81776 0.558297 0
M  V30 2973 H 277.967 -4.56513 -0.641611 0
M  V30 2974 H 281.511 -6.64906 2.1106 0
M  V30 2975 H 277.408 -6.39151 0.903107 0
M  V30 2976 H 278.176 -7.82336 2.40607 0
M  V30 2977 N 280.839 0.0985539 -1.57292 0
M  V30 2978 C 281.786 1.11981 -2.01814 0
M  V30 2979 C 282.756 1.39999 -0.89384 0
M  V30 2980 O 283.941 1.5152 -1.15958 0
M  V30 2981 C 281.081 2.43577 -2.44467 0
M  V30 2982 C 280.194 2.2232 -3.70402 0
M  V30 2983 C 279.329 3.4729 -4.01949 0
M  V30 2984 C 278.368 3.2128 -5.21005 0
M  V30 2985 N 277.505 4.38507 -5.48321 0
M  V30 2986 H 282.345 0.733149 -2.88841 0
M  V30 2987 H 279.882 0.350482 -1.42864 0
M  V30 2988 H 281.84 3.20373 -2.6724 0
M  V30 2989 H 280.47 2.80097 -1.60455 0
M  V30 2990 H 279.522 1.36343 -3.55126 0
M  V30 2991 H 280.834 1.99089 -4.57345 0
M  V30 2992 H 279.988 4.32495 -4.25479 0
M  V30 2993 H 278.727 3.73572 -3.13521 0
M  V30 2994 H 277.732 2.34468 -4.97298 0
M  V30 2995 H 278.957 2.96348 -6.11028 0
M  V30 2996 H 276.903 4.64871 -4.62851 0
M  V30 2997 H 276.82 4.18455 -6.29628 0
M  V30 2998 H 278.088 5.24787 -5.76385 0
M  V30 2999 N 282.317 1.53212 0.369288 0
M  V30 3000 C 283.566 1.68436 1.10961 0
M  V30 3001 C 283.879 0.440738 1.9057 0
M  V30 3002 O 285.085 0.473446 2.6734 0
M  V30 3003 C 283.541 2.97744 2.0218 0
M  V30 3004 C 283.149 4.29355 1.279 0
M  V30 3005 C 284.893 3.22334 2.76226 0
M  V30 3006 C 282.8 5.49755 2.17999 0
M  V30 3007 H 281.73 0.627568 0.41794 0
M  V30 3008 H 284.381 1.79713 0.370884 0
M  V30 3009 H 282.763 2.8026 2.79768 0
M  V30 3010 H 283.937 4.57458 0.554007 0
M  V30 3011 H 282.252 4.11179 0.657311 0
M  V30 3012 H 284.849 4.09471 3.43857 0
M  V30 3013 H 285.192 2.38238 3.41392 0
M  V30 3014 H 285.725 3.40475 2.05723 0
M  V30 3015 H 282.464 6.36318 1.57417 0
M  V30 3016 H 281.984 5.25937 2.88359 0
M  V30 3017 H 283.663 5.84401 2.77641 0
M  V30 3018 N 283.795 -0.628877 1.44509 0
M  V30 3019 C 285.043 -1.38565 1.4712 0
M  V30 3020 C 285.364 -1.94712 0.105899 0
M  V30 3021 O 284.634 -1.75912 -0.862079 0
M  V30 3022 H 283.214 -0.514333 0.541729 0
M  V30 3023 H 285.876 -0.740018 1.80305 0
M  V30 3024 H 284.972 -2.21583 2.19789 0
M  V30 3025 N 285.273 -1.31445 -0.869486 0
M  V30 3026 C 286.521 -1.20918 -1.61936 0
M  V30 3027 C 286.842 0.232683 -1.93607 0
M  V30 3028 O 286.112 1.15352 -1.58338 0
M  V30 3029 H 284.692 -0.44454 -0.600328 0
M  V30 3030 H 287.354 -1.64776 -1.0409 0
M  V30 3031 H 286.45 -1.78124 -2.56278 0
M  V30 3032 N 286.751 1.08385 -1.14413 0
M  V30 3033 C 288 1.80153 -0.907076 0
M  V30 3034 C 288.313 1.87176 0.567851 0
M  V30 3035 O 289.519 2.55359 0.922172 0
M  V30 3036 C 287.975 3.23687 -1.57336 0
M  V30 3037 C 287.583 3.24897 -3.08457 0
M  V30 3038 C 289.327 4.00136 -1.41744 0
M  V30 3039 C 287.234 4.6302 -3.67921 0
M  V30 3040 H 286.164 0.675139 -0.335714 0
M  V30 3041 H 288.815 1.21733 -1.37307 0
M  V30 3042 H 287.197 3.82234 -1.03505 0
M  V30 3043 H 288.371 2.76055 -3.68958 0
M  V30 3044 H 286.686 2.61943 -3.2369 0
M  V30 3045 H 289.283 5.02201 -1.83572 0
M  V30 3046 H 289.626 4.14709 -0.363576 0
M  V30 3047 H 290.159 3.48058 -1.92614 0
M  V30 3048 H 286.898 4.5365 -4.73161 0
M  V30 3049 H 286.418 5.12143 -3.12201 0
M  V30 3050 H 288.097 5.31994 -3.68227 0
M  V30 3051 N 288.23 0.939286 1.26551 0
M  V30 3052 C 289.478 0.58469 1.93457 0
M  V30 3053 C 289.799 -0.878774 1.74076 0
M  V30 3054 O 289.069 -1.62421 1.09528 0
M  V30 3055 H 287.649 0.21325 0.715914 0
M  V30 3056 H 290.311 1.1942 1.54029 0
M  V30 3057 H 289.407 0.800849 3.0165 0
M  V30 3058 N 289.708 -1.40897 0.706093 0
M  V30 3059 C 290.936 -2.05373 0.250887 0
M  V30 3060 C 291.351 -1.53172 -1.10381 0
M  V30 3061 O 290.708 -0.684305 -1.69185 0
M  V30 3062 C 290.759 -3.6088 0.211571 0
M  V30 3063 O 290.48 -4.11153 1.51276 0
M  V30 3064 C 291.981 -4.42517 -0.263346 0
M  V30 3065 H 289.201 -0.66115 0.114552 0
M  V30 3066 H 291.745 -1.80479 0.961635 0
M  V30 3067 H 289.9 -3.84777 -0.450073 0
M  V30 3068 H 290.314 -5.05279 1.40689 0
M  V30 3069 H 291.788 -5.51479 -0.239718 0
M  V30 3070 H 292.265 -4.19396 -1.30397 0
M  V30 3071 H 292.871 -4.23708 0.367677 0
M  V30 3072 N 291.186 -0.45159 -1.50991 0
M  V30 3073 C 292.432 0.110237 -2.025 0
M  V30 3074 C 292.765 1.41109 -1.33424 0
M  V30 3075 O 292.04 1.89135 -0.453659 0
M  V30 3076 C 292.323 0.314271 -3.58726 0
M  V30 3077 C 292.176 -1.00623 -4.38401 0
M  V30 3078 C 293.495 1.07767 -4.26702 0
M  V30 3079 H 290.614 0.0385897 -0.735989 0
M  V30 3080 H 293.256 -0.593374 -1.80497 0
M  V30 3081 H 291.406 0.913601 -3.77605 0
M  V30 3082 H 293.078 -1.64064 -4.31139 0
M  V30 3083 H 291.321 -1.6075 -4.02917 0
M  V30 3084 H 291.992 -0.817341 -5.45915 0
M  V30 3085 H 294.468 0.56986 -4.12179 0
M  V30 3086 H 293.344 1.18921 -5.35863 0
M  V30 3087 H 293.605 2.10939 -3.88532 0
M  V30 3088 N 292.664 1.56529 -0.183458 0
M  V30 3089 C 294.075 1.83739 0.331177 0
M  V30 3090 C 294.426 1.10373 1.62211 0
M  V30 3091 O 293.551 0.36071 2.13373 0
M  V30 3092 C 294.146 3.33306 0.607646 0
M  V30 3093 C 292.705 3.60969 1.06668 0
M  V30 3094 C 291.852 2.77086 0.109029 0
M  V30 3095 H 294.803 1.53379 -0.407484 0
M  V30 3096 H 294.824 3.51444 1.45832 0
M  V30 3097 H 294.336 3.86677 -0.332086 0
M  V30 3098 H 292.437 3.13021 2.0211 0
M  V30 3099 H 292.55 4.69231 0.967447 0
M  V30 3100 H 290.914 2.47319 0.608714 0
M  V30 3101 H 291.697 3.33241 -0.82494 0
M  V30 3102 N 294.142 -0.090211 1.57342 0
M  V30 3103 C 295.388 -0.793982 1.86611 0
M  V30 3104 C 295.721 -1.78142 0.773252 0
M  V30 3105 O 294.996 -1.93271 -0.218304 0
M  V30 3106 C 295.279 -1.51839 3.26523 0
M  V30 3107 C 295.132 -0.548609 4.46442 0
M  V30 3108 C 296.451 -2.46779 3.64401 0
M  V30 3109 H 293.57 -0.287186 0.678744 0
M  V30 3110 H 296.212 -0.0575076 1.89913 0
M  V30 3111 H 294.362 -2.14617 3.23839 0
M  V30 3112 H 296.034 0.0725513 4.61243 0
M  V30 3113 H 294.277 0.137614 4.33582 0
M  V30 3114 H 294.948 -1.09271 5.41076 0
M  V30 3115 H 297.424 -1.94089 3.68061 0
M  V30 3116 H 296.3 -2.94479 4.63221 0
M  V30 3117 H 296.561 -3.30758 2.93346 0
M  V30 3118 N 295.62 -1.53406 -0.361157 0
M  V30 3119 C 296.868 -1.69467 -1.10115 0
M  V30 3120 C 297.189 -0.451352 -1.89705 0
M  V30 3121 O 296.459 0.534636 -1.88463 0
M  V30 3122 H 295.039 -0.624749 -0.409508 0
M  V30 3123 H 297.701 -1.90609 -0.406699 0
M  V30 3124 H 296.797 -2.55774 -1.78847 0
M  V30 3125 N 297.098 0.621204 -1.44841 0
M  V30 3126 C 298.514 0.94048 -1.28946 0
M  V30 3127 C 298.714 2.00154 -0.23249 0
M  V30 3128 O 297.77 2.49651 0.378237 0
M  V30 3129 C 299.083 1.39433 -2.66419 0
M  V30 3130 C 300.631 1.50927 -2.74208 0
M  V30 3131 C 301.106 1.99692 -4.12174 0
M  V30 3132 N 302.597 2.06947 -4.144 0
M  V30 3133 C 303.332 2.45871 -5.1801 0
M  V30 3134 N 302.828 2.83862 -6.31977 0
M  V30 3135 N 304.621 2.46092 -5.05366 0
M  V30 3136 H 296.772 -0.0803548 -2.12248 0
M  V30 3137 H 299.035 0.0266913 -0.947624 0
M  V30 3138 H 298.741 0.688925 -3.44887 0
M  V30 3139 H 298.615 2.36347 -2.93973 0
M  V30 3140 H 301.002 2.20561 -1.96053 0
M  V30 3141 H 301.083 0.523627 -2.50383 0
M  V30 3142 H 300.727 1.30649 -4.90809 0
M  V30 3143 H 300.657 2.99146 -4.33381 0
M  V30 3144 H 303.148 1.80232 -3.32152 0
M  V30 3145 H 303.461 3.12405 -7.0684 0
M  V30 3146 H 301.806 2.8159 -6.35399 0
M  V30 3147 H 304.997 2.1581 -4.15384 0
M  V30 3148 H 305.17 2.76102 -5.86235 0
M  V30 3149 N 298.576 1.31904 0.862503 0
M  V30 3150 C 299.822 1.22197 1.61851 0
M  V30 3151 C 300.155 -0.217641 1.92977 0
M  V30 3152 O 299.43 -1.15264 1.56666 0
M  V30 3153 C 299.713 2.07378 2.94391 0
M  V30 3154 C 299.566 3.59678 2.70096 0
M  V30 3155 C 300.885 1.92891 3.95577 0
M  V30 3156 H 298.004 0.445255 0.587296 0
M  V30 3157 H 300.646 1.6177 0.99651 0
M  V30 3158 H 298.796 1.73758 3.47477 0
M  V30 3159 H 300.468 4.03472 2.23625 0
M  V30 3160 H 298.711 3.82735 2.04197 0
M  V30 3161 H 299.382 4.14595 3.64438 0
M  V30 3162 H 301.858 2.22327 3.51724 0
M  V30 3163 H 300.734 2.54781 4.86187 0
M  V30 3164 H 300.995 0.894315 4.3296 0
M  V30 3165 N 300.054 -1.07777 1.14986 0
M  V30 3166 C 300.964 -2.18404 0.856546 0
M  V30 3167 C 301.98 -1.73211 -0.165485 0
M  V30 3168 O 303.156 -2.01399 0.00755219 0
M  V30 3169 C 300.221 -3.44977 0.34526 0
M  V30 3170 C 299.282 -4.0476 1.43065 0
M  V30 3171 C 298.515 -5.25291 0.943663 0
M  V30 3172 O 298.738 -5.70004 -0.212426 0
M  V30 3173 O 297.672 -5.76638 1.72547 0
M  V30 3174 H 301.498 -2.45978 1.78125 0
M  V30 3175 H 299.083 -1.17033 0.928631 0
M  V30 3176 H 300.965 -4.21348 0.0663671 0
M  V30 3177 H 299.64 -3.18965 -0.551631 0
M  V30 3178 H 298.547 -3.29949 1.76309 0
M  V30 3179 H 299.88 -4.35035 2.30229 0
M  V30 3180 N 301.532 -0.945985 -1.26051 0
M  V30 3181 C 302.76 -0.613025 -1.9761 0
M  V30 3182 C 303.175 0.813035 -1.70397 0
M  V30 3183 O 302.532 1.54274 -0.974979 0
M  V30 3184 C 302.583 -0.85159 -3.51326 0
M  V30 3185 O 302.304 -2.22157 -3.77595 0
M  V30 3186 C 303.805 -0.529831 -4.40122 0
M  V30 3187 H 301.025 -0.230593 -0.630133 0
M  V30 3188 H 303.569 -1.268 -1.60443 0
M  V30 3189 H 301.724 -0.243151 -3.86636 0
M  V30 3190 H 302.138 -2.2852 -4.721 0
M  V30 3191 H 303.612 -0.747348 -5.46917 0
M  V30 3192 H 304.089 0.535341 -4.35925 0
M  V30 3193 H 304.695 -1.11721 -4.10364 0
M  V30 3194 N 303.011 1.40521 -0.713556 0
M  V30 3195 C 304.259 2.00527 -0.251692 0
M  V30 3196 C 304.58 1.56857 1.15848 0
M  V30 3197 O 303.85 0.807127 1.785 0
M  V30 3198 H 302.43 0.741551 -0.0900646 0
M  V30 3199 H 305.092 1.71887 -0.918733 0
M  V30 3200 H 304.188 3.10813 -0.283192 0
M  V30 3201 N 304.489 0.459591 1.5075 0
M  V30 3202 C 305.735 -0.0994966 2.02556 0
M  V30 3203 C 306.068 -1.40399 1.3417 0
M  V30 3204 O 305.343 -1.88892 0.463683 0
M  V30 3205 C 305.626 -0.295242 3.58888 0
M  V30 3206 C 305.479 1.02947 4.37861 0
M  V30 3207 C 306.798 -1.05502 4.27267 0
M  V30 3208 H 303.917 -0.034686 0.736183 0
M  V30 3209 H 306.559 0.602938 1.8018 0
M  V30 3210 H 304.709 -0.893563 3.78084 0
M  V30 3211 H 306.381 1.66348 4.30263 0
M  V30 3212 H 304.624 1.62885 4.02058 0
M  V30 3213 H 305.295 0.846281 5.45474 0
M  V30 3214 H 307.771 -0.547993 4.12476 0
M  V30 3215 H 306.647 -1.16077 5.36486 0
M  V30 3216 H 306.908 -2.08875 3.89645 0
M  V30 3217 N 305.967 -1.56429 0.191757 0
M  V30 3218 C 306.897 -2.21937 -0.725696 0
M  V30 3219 C 307.878 -1.1814 -1.2238 0
M  V30 3220 O 309.063 -1.46636 -1.27325 0
M  V30 3221 C 306.193 -2.87611 -1.94672 0
M  V30 3222 C 305.147 -3.97623 -1.58366 0
M  V30 3223 C 304.473 -4.50446 -2.88102 0
M  V30 3224 C 305.773 -5.16197 -0.796133 0
M  V30 3225 H 307.467 -2.98861 -0.179606 0
M  V30 3226 H 305.013 -1.43749 -0.0849464 0
M  V30 3227 H 306.966 -3.3212 -2.59373 0
M  V30 3228 H 305.69 -2.08087 -2.51728 0
M  V30 3229 H 304.349 -3.53801 -0.960247 0
M  V30 3230 H 303.997 -3.67688 -3.43241 0
M  V30 3231 H 303.697 -5.24675 -2.64556 0
M  V30 3232 H 305.221 -4.97654 -3.53798 0
M  V30 3233 H 306.635 -5.57271 -1.34618 0
M  V30 3234 H 305.032 -5.96471 -0.658928 0
M  V30 3235 H 306.102 -4.84473 0.203478 0
M  V30 3236 N 307.445 0.0818655 -1.57387 0
M  V30 3237 C 308.392 1.09834 -2.0299 0
M  V30 3238 C 309.362 1.39043 -0.908639 0
M  V30 3239 O 310.547 1.50282 -1.17559 0
M  V30 3240 C 307.687 2.40971 -2.47037 0
M  V30 3241 C 306.8 2.18379 -3.7274 0
M  V30 3242 C 305.935 3.43008 -4.0561 0
M  V30 3243 C 304.974 3.15736 -5.24383 0
M  V30 3244 N 304.111 4.32667 -5.52941 0
M  V30 3245 H 308.951 0.702472 -2.89602 0
M  V30 3246 H 306.488 0.33531 -1.43227 0
M  V30 3247 H 308.446 3.1752 -2.70623 0
M  V30 3248 H 307.076 2.78379 -1.63417 0
M  V30 3249 H 306.128 1.32569 -3.56552 0
M  V30 3250 H 307.44 1.94227 -4.59431 0
M  V30 3251 H 306.594 4.27958 -4.30043 0
M  V30 3252 H 305.333 3.70225 -3.17466 0
M  V30 3253 H 304.338 2.2918 -4.99757 0
M  V30 3254 H 305.563 2.8985 -6.14136 0
M  V30 3255 H 303.509 4.59935 -4.67756 0
M  V30 3256 H 303.426 4.11753 -6.34031 0
M  V30 3257 H 304.694 5.18644 -5.81918 0
M  V30 3258 N 308.923 1.53595 0.353017 0
M  V30 3259 C 310.334 1.61937 0.929153 0
M  V30 3260 C 310.685 0.494686 1.89861 0
M  V30 3261 O 309.81 -0.377017 2.1309 0
M  V30 3262 C 310.405 2.93526 1.69199 0
M  V30 3263 C 308.964 3.04161 2.21727 0
M  V30 3264 C 308.111 2.57322 1.03348 0
M  V30 3265 H 311.062 1.58155 0.131431 0
M  V30 3266 H 311.083 2.82034 2.55416 0
M  V30 3267 H 310.595 3.75362 0.986144 0
M  V30 3268 H 308.696 2.26938 2.95516 0
M  V30 3269 H 308.809 4.09465 2.48748 0
M  V30 3270 H 307.173 2.12499 1.40414 0
M  V30 3271 H 307.956 3.41588 0.342428 0
M  V30 3272 N 310.401 -0.613514 1.45168 0
M  V30 3273 C 311.649 -1.36997 1.48581 0
M  V30 3274 C 311.97 -1.94589 0.126545 0
M  V30 3275 O 311.24 -1.76816 -0.843372 0
M  V30 3276 H 309.82 -0.508558 0.547154 0
M  V30 3277 H 312.482 -0.720853 1.81079 0
M  V30 3278 H 311.578 -2.1924 2.22127 0
M  V30 3279 N 311.879 -1.3236 -0.855495 0
M  V30 3280 C 312.812 -1.15559 -1.96777 0
M  V30 3281 C 313.79 -0.0552681 -1.62506 0
M  V30 3282 O 314.974 -0.214419 -1.87277 0
M  V30 3283 C 312.101 -0.768851 -3.29858 0
M  V30 3284 C 311.147 -1.87429 -3.83109 0
M  V30 3285 S 311.98 -3.48243 -4.06801 0
M  V30 3286 C 313.136 -3.11539 -5.42858 0
M  V30 3287 H 313.369 -2.09717 -2.10727 0
M  V30 3288 H 310.902 -1.17011 -1.00737 0
M  V30 3289 H 312.86 -0.55248 -4.06765 0
M  V30 3290 H 311.521 0.153857 -3.13723 0
M  V30 3291 H 310.714 -1.55667 -4.79358 0
M  V30 3292 H 310.316 -2.04647 -3.13042 0
M  V30 3293 H 312.608 -2.61331 -6.2507 0
M  V30 3294 H 313.551 -4.06806 -5.79582 0
M  V30 3295 H 313.959 -2.48582 -5.06821 0
M  V30 3296 N 313.357 1.07166 -1.15556 0
M  V30 3297 C 314.603 1.80065 -0.932984 0
M  V30 3298 C 314.936 1.86586 0.53845 0
M  V30 3299 O 314.211 1.35098 1.39924 0
M  V30 3300 C 314.494 3.25022 -1.55025 0
M  V30 3301 C 314.347 3.26634 -3.09242 0
M  V30 3302 C 315.666 4.22341 -1.2376 0
M  V30 3303 H 312.785 0.653697 -0.340366 0
M  V30 3304 H 315.427 1.25389 -1.4275 0
M  V30 3305 H 313.577 3.71712 -1.12972 0
M  V30 3306 H 315.249 2.88173 -3.60214 0
M  V30 3307 H 313.492 2.65539 -3.43033 0
M  V30 3308 H 314.163 4.28854 -3.47546 0
M  V30 3309 H 316.639 3.8405 -1.60139 0
M  V30 3310 H 315.515 5.22053 -1.69564 0
M  V30 3311 H 315.776 4.41828 -0.154938 0
M  V30 3312 N 314.835 0.952656 1.25548 0
M  V30 3313 C 316.081 0.607272 1.93494 0
M  V30 3314 C 316.414 -0.853245 1.74452 0
M  V30 3315 O 315.689 -1.61194 1.08843 0
M  V30 3316 C 315.972 0.96435 3.46947 0
M  V30 3317 C 315.825 2.48045 3.75225 0
M  V30 3318 C 317.144 0.487987 4.37386 0
M  V30 3319 H 314.263 0.222096 0.702739 0
M  V30 3320 H 316.905 1.18895 1.48203 0
M  V30 3321 H 315.055 0.469361 3.85654 0
M  V30 3322 H 316.727 3.04905 3.46166 0
M  V30 3323 H 314.97 2.919 3.209 0
M  V30 3324 H 315.641 2.6808 4.82532 0
M  V30 3325 H 318.117 0.912558 4.0597 0
M  V30 3326 H 316.993 0.766547 5.43521 0
M  V30 3327 H 317.254 -0.612063 4.37843 0
M  V30 3328 N 316.313 -1.40141 0.720998 0
M  V30 3329 C 317.541 -2.05096 0.272656 0
M  V30 3330 C 317.956 -1.54334 -1.0875 0
M  V30 3331 O 317.313 -0.702211 -1.6845 0
M  V30 3332 C 317.364 -3.60636 0.249835 0
M  V30 3333 O 317.085 -4.09526 1.55629 0
M  V30 3334 C 318.586 -4.42772 -0.216396 0
M  V30 3335 H 315.806 -0.659897 0.121558 0
M  V30 3336 H 318.35 -1.79449 0.980723 0
M  V30 3337 H 316.505 -3.85232 -0.409237 0
M  V30 3338 H 316.919 -5.03758 1.4604 0
M  V30 3339 H 318.393 -5.51702 -0.181212 0
M  V30 3340 H 318.87 -4.20756 -1.25941 0
M  V30 3341 H 319.476 -4.23294 0.412596 0
M  V30 3342 N 317.792 -0.46758 -1.50504 0
M  V30 3343 C 319.039 0.0886219 -2.02306 0
M  V30 3344 C 319.367 1.40037 -1.34981 0
M  V30 3345 O 318.622 1.90136 -0.463318 0
M  V30 3346 C 318.921 0.323995 -3.55928 0
M  V30 3347 C 318.587 -0.905618 -4.41712 0
M  V30 3348 C 317.249 -1.24275 -4.64875 0
M  V30 3349 C 319.601 -1.72448 -4.91845 0
M  V30 3350 C 316.929 -2.39888 -5.35417 0
M  V30 3351 C 319.281 -2.87185 -5.63656 0
M  V30 3352 C 317.945 -3.21317 -5.85074 0
M  V30 3353 H 317.215 0.0324291 -0.74029 0
M  V30 3354 H 319.862 -0.620945 -1.81153 0
M  V30 3355 H 318.167 1.11577 -3.75577 0
M  V30 3356 H 319.864 0.76826 -3.93572 0
M  V30 3357 H 316.454 -0.632956 -4.239 0
M  V30 3358 H 320.638 -1.4772 -4.73806 0
M  V30 3359 H 315.894 -2.66611 -5.50208 0
M  V30 3360 H 320.068 -3.50985 -6.01484 0
M  V30 3361 H 317.695 -4.1101 -6.39511 0
M  V30 3362 N 319.27 1.56325 -0.20005 0
M  V30 3363 C 320.233 2.18084 0.705132 0
M  V30 3364 C 321.233 1.13666 1.1374 0
M  V30 3365 O 322.423 1.39023 1.04968 0
M  V30 3366 C 319.555 2.78689 1.96329 0
M  V30 3367 H 320.748 2.99435 0.167023 0
M  V30 3368 H 318.301 1.56221 0.0495725 0
M  V30 3369 H 319.036 2.0115 2.5438 0
M  V30 3370 H 318.821 3.55133 1.66202 0
M  V30 3371 H 320.311 3.26096 2.60866 0
M  V30 3372 N 320.748 -0.0735177 1.57428 0
M  V30 3373 C 322.159 -0.625551 1.75908 0
M  V30 3374 C 322.51 -1.78 0.825261 0
M  V30 3375 O 321.635 -2.16398 0.00893964 0
M  V30 3376 C 322.23 -1.14155 3.18989 0
M  V30 3377 C 320.789 -1.63946 3.38819 0
M  V30 3378 C 319.936 -0.558151 2.71625 0
M  V30 3379 H 322.887 0.152647 1.57964 0
M  V30 3380 H 322.908 -2.0104 3.23053 0
M  V30 3381 H 322.42 -0.301116 3.8693 0
M  V30 3382 H 320.521 -2.50321 2.7599 0
M  V30 3383 H 320.634 -1.71759 4.47253 0
M  V30 3384 H 318.998 -1.00278 2.34129 0
M  V30 3385 H 319.781 0.272071 3.4222 0
M  V30 3386 N 322.226 -1.5378 -0.344866 0
M  V30 3387 C 323.472 -1.71216 -1.08687 0
M  V30 3388 C 323.805 -0.473281 -1.88345 0
M  V30 3389 O 323.08 0.52968 -1.87149 0
M  V30 3390 C 323.363 -2.97486 -2.02914 0
M  V30 3391 C 323.216 -4.31579 -1.26727 0
M  V30 3392 C 324.535 -3.19422 -3.0275 0
M  V30 3393 H 321.654 -0.62301 -0.393735 0
M  V30 3394 H 324.296 -1.8645 -0.365563 0
M  V30 3395 H 322.446 -2.84629 -2.64421 0
M  V30 3396 H 324.118 -4.56284 -0.67845 0
M  V30 3397 H 322.361 -4.30049 -0.569273 0
M  V30 3398 H 323.032 -5.16106 -1.95803 0
M  V30 3399 H 325.508 -3.316 -2.51357 0
M  V30 3400 H 324.384 -4.09169 -3.65885 0
M  V30 3401 H 324.645 -2.35656 -3.74057 0
M  V30 3402 N 323.704 0.605807 -1.45491 0
M  V30 3403 C 324.652 1.73754 -1.54636 0
M  V30 3404 C 325.646 1.64207 -0.416219 0
M  V30 3405 O 326.852 1.69979 -0.592199 0
M  V30 3406 H 323.227 0.574073 -0.485741 0
M  V30 3407 H 325.198 1.63169 -2.49837 0
M  V30 3408 C 323.947 3.12135 -1.53189 0
M  V30 3409 H 323.27 3.20141 -2.39478 0
M  V30 3410 H 324.71 3.91147 -1.63645 0
M  V30 3411 C 323.169 3.35921 -0.256616 0
M  V30 3412 O 323.699 3.96194 0.662798 0
M  V30 3413 N 321.905 2.90204 -0.151751 0
M  V30 3414 H 321.452 2.41336 -0.90081 0
M  V30 3415 H 321.41 3.06492 0.700699 0
M  V30 3416 N 325.182 1.32811 0.848464 0
M  V30 3417 C 326.428 1.23907 1.60546 0
M  V30 3418 C 326.761 -0.197161 1.93197 0
M  V30 3419 O 326.036 -1.13596 1.5788 0
M  V30 3420 C 326.319 2.10489 2.92175 0
M  V30 3421 C 326.172 3.62522 2.66266 0
M  V30 3422 C 327.491 1.97075 3.93509 0
M  V30 3423 H 324.61 0.451459 0.58254 0
M  V30 3424 H 327.252 1.62818 0.979296 0
M  V30 3425 H 325.402 1.77434 3.45614 0
M  V30 3426 H 327.074 4.05821 2.19334 0
M  V30 3427 H 325.317 3.84879 2.00126 0
M  V30 3428 H 325.988 4.18437 3.6002 0
M  V30 3429 H 328.464 2.26045 3.49346 0
M  V30 3430 H 327.34 2.59923 4.83457 0
M  V30 3431 H 327.601 0.940186 4.31987 0
M  V30 3432 N 326.66 -1.06551 1.16123 0
M  V30 3433 C 327.888 -1.83005 0.965237 0
M  V30 3434 C 328.303 -1.82423 -0.486542 0
M  V30 3435 O 327.66 -1.24152 -1.33763 0
M  V30 3436 C 327.711 -3.29733 1.48183 0
M  V30 3437 O 327.432 -3.30416 2.87674 0
M  V30 3438 C 328.933 -4.22926 1.32848 0
M  V30 3439 H 326.153 -0.577118 0.342309 0
M  V30 3440 H 328.697 -1.3445 1.54089 0
M  V30 3441 H 326.852 -3.75609 0.948517 0
M  V30 3442 H 327.266 -4.22149 3.11272 0
M  V30 3443 H 328.74 -5.23916 1.73827 0
M  V30 3444 H 329.217 -4.38346 0.273692 0
M  V30 3445 H 329.823 -3.82894 1.85127 0
M  V30 3446 N 328.138 -0.959301 -1.25041 0
M  V30 3447 C 329.366 -0.633949 -1.96948 0
M  V30 3448 C 329.781 0.794916 -1.7125 0
M  V30 3449 O 329.138 1.53231 -0.991287 0
M  V30 3450 C 329.189 -0.888805 -3.50403 0
M  V30 3451 O 328.91 -2.26149 -3.75218 0
M  V30 3452 C 330.411 -0.576482 -4.39536 0
M  V30 3453 H 327.631 -0.237263 -0.627652 0
M  V30 3454 H 330.175 -1.28495 -1.59089 0
M  V30 3455 H 328.33 -0.284145 -3.86357 0
M  V30 3456 H 328.744 -2.33514 -4.6965 0
M  V30 3457 H 330.218 -0.805314 -5.46094 0
M  V30 3458 H 330.695 0.489075 -4.36468 0
M  V30 3459 H 331.301 -1.16067 -4.09156 0
M  V30 3460 N 329.616 1.39756 -0.72842 0
M  V30 3461 C 330.526 2.34444 -0.0855374 0
M  V30 3462 C 331.542 1.57976 0.729356 0
M  V30 3463 O 332.718 1.90301 0.659346 0
M  V30 3464 C 329.783 3.36965 0.815798 0
M  V30 3465 C 328.844 4.29299 -0.0105996 0
M  V30 3466 C 328.077 5.26923 0.84781 0
M  V30 3467 O 328.3 5.30859 2.08673 0
M  V30 3468 O 327.234 6.01249 0.279969 0
M  V30 3469 H 331.06 2.91065 -0.866892 0
M  V30 3470 H 328.645 1.4117 -0.48902 0
M  V30 3471 H 330.527 3.99804 1.33171 0
M  V30 3472 H 329.202 2.82739 1.57608 0
M  V30 3473 H 328.109 3.69703 -0.571877 0
M  V30 3474 H 329.442 4.86712 -0.73295 0
M  V30 3475 N 331.094 0.475555 1.50254 0
M  V30 3476 C 332.34 -0.0780073 2.0265 0
M  V30 3477 C 332.673 -1.38968 1.35652 0
M  V30 3478 O 331.948 -1.8839 0.483691 0
M  V30 3479 C 332.231 -0.257161 3.59181 0
M  V30 3480 C 332.084 1.07585 4.36744 0
M  V30 3481 C 333.403 -1.00965 4.28362 0
M  V30 3482 H 330.522 -0.0268758 0.73651 0
M  V30 3483 H 333.164 0.622015 1.7953 0
M  V30 3484 H 331.314 -0.853412 3.79011 0
M  V30 3485 H 332.986 1.70902 4.28474 0
M  V30 3486 H 331.229 1.6714 4.00308 0
M  V30 3487 H 331.9 0.904088 5.44546 0
M  V30 3488 H 334.376 -0.504214 4.13034 0
M  V30 3489 H 333.252 -1.10381 5.37687 0
M  V30 3490 H 333.513 -2.04731 3.91839 0
M  V30 3491 N 332.573 -1.56217 0.208337 0
M  V30 3492 C 333.52 -2.19699 -0.707192 0
M  V30 3493 C 334.49 -1.14836 -1.20008 0
M  V30 3494 O 335.675 -1.4314 -1.26157 0
M  V30 3495 C 332.815 -2.87061 -1.91546 0
M  V30 3496 C 331.928 -4.06483 -1.46271 0
M  V30 3497 C 331.063 -4.61665 -2.62752 0
M  V30 3498 C 330.102 -5.73417 -2.14147 0
M  V30 3499 N 329.239 -6.22948 -3.23853 0
M  V30 3500 H 334.079 -2.97575 -0.159111 0
M  V30 3501 H 331.616 -1.46948 -0.0667874 0
M  V30 3502 H 333.574 -3.24294 -2.62468 0
M  V30 3503 H 332.204 -2.11725 -2.43664 0
M  V30 3504 H 331.256 -3.74825 -0.648886 0
M  V30 3505 H 332.568 -4.87271 -1.06622 0
M  V30 3506 H 331.722 -5.01272 -3.41776 0
M  V30 3507 H 330.461 -3.80013 -3.05682 0
M  V30 3508 H 329.466 -5.33326 -1.33581 0
M  V30 3509 H 330.691 -6.56897 -1.72232 0
M  V30 3510 H 328.637 -5.44213 -3.6629 0
M  V30 3511 H 328.554 -6.98823 -2.88414 0
M  V30 3512 H 329.822 -6.6721 -4.03052 0
M  V30 3513 N 334.051 0.0651679 -1.57465 0
M  V30 3514 C 335.276 0.779605 -1.9219 0
M  V30 3515 C 335.701 1.69988 -0.805333 0
M  V30 3516 O 335.059 1.79685 0.241435 0
M  V30 3517 C 335.107 1.54364 -3.2589 0
M  V30 3518 O 334.211 2.65474 -3.1559 0
M  V30 3519 H 333.552 0.212249 -0.629163 0
M  V30 3520 H 336.082 0.0314294 -2.04576 0
M  V30 3521 H 336.092 1.92146 -3.59922 0
M  V30 3522 H 334.767 0.868457 -4.06732 0
M  V30 3523 H 333.344 2.30501 -2.93128 0
M  V30 3524 N 335.529 1.53961 0.336706 0
M  V30 3525 C 336.775 1.7179 1.07777 0
M  V30 3526 C 337.108 0.483263 1.88091 0
M  V30 3527 O 336.383 -0.519747 1.87427 0
M  V30 3528 C 336.666 2.98558 2.01334 0
M  V30 3529 C 336.519 4.32245 1.24437 0
M  V30 3530 C 337.838 3.21023 3.01052 0
M  V30 3531 H 334.957 0.625089 0.390426 0
M  V30 3532 H 337.599 1.86641 0.35567 0
M  V30 3533 H 335.749 2.86028 2.62908 0
M  V30 3534 H 337.421 4.56637 0.654243 0
M  V30 3535 H 335.664 4.30344 0.546458 0
M  V30 3536 H 336.335 5.17137 1.93063 0
M  V30 3537 H 338.811 3.32929 2.49595 0
M  V30 3538 H 337.687 4.11104 3.6371 0
M  V30 3539 H 337.948 2.37637 3.72802 0
M  V30 3540 N 337.007 -0.598083 1.45811 0
M  V30 3541 C 337.917 -1.73632 1.57763 0
M  V30 3542 C 338.933 -1.67763 0.461676 0
M  V30 3543 O 340.109 -1.87949 0.723685 0
M  V30 3544 C 337.174 -3.10114 1.55018 0
M  V30 3545 C 336.235 -3.27364 2.77726 0
M  V30 3546 C 335.468 -4.57334 2.75102 0
M  V30 3547 O 335.691 -5.40258 1.8297 0
M  V30 3548 O 334.625 -4.77502 3.66437 0
M  V30 3549 H 338.451 -1.66498 2.53992 0
M  V30 3550 H 336.036 -0.763308 1.28429 0
M  V30 3551 H 337.918 -3.9141 1.56129 0
M  V30 3552 H 336.593 -3.17718 0.619431 0
M  V30 3553 H 335.5 -2.45619 2.82174 0
M  V30 3554 H 336.833 -3.24641 3.69958 0
M  V30 3555 N 338.485 -1.33259 -0.841409 0
M  V30 3556 C 339.418 -1.1764 -1.95541 0
M  V30 3557 C 340.396 -0.072501 -1.62438 0
M  V30 3558 O 341.58 -0.23427 -1.87039 0
M  V30 3559 C 338.707 -0.803794 -3.29024 0
M  V30 3560 C 337.753 -1.91482 -3.81099 0
M  V30 3561 S 338.586 -3.52538 -4.03085 0
M  V30 3562 C 339.742 -3.17279 -5.39523 0
M  V30 3563 H 339.975 -2.11941 -2.08491 0
M  V30 3564 H 337.508 -1.18072 -0.9949 0
M  V30 3565 H 339.466 -0.595592 -4.06156 0
M  V30 3566 H 338.127 0.120574 -3.13868 0
M  V30 3567 H 337.32 -1.60742 -4.7768 0
M  V30 3568 H 336.922 -2.07956 -3.10854 0
M  V30 3569 H 339.214 -2.67946 -6.22263 0
M  V30 3570 H 340.157 -4.1293 -5.75234 0
M  V30 3571 H 340.565 -2.53943 -5.04156 0
M  V30 3572 N 339.963 1.05934 -1.16686 0
M  V30 3573 C 340.913 2.11764 -0.844978 0
M  V30 3574 C 341.897 1.59922 0.177178 0
M  V30 3575 O 343.089 1.76983 -0.0241768 0
M  V30 3576 C 340.218 3.41493 -0.351812 0
M  V30 3577 C 339.304 4.00152 -1.40496 0
M  V30 3578 N 339.695 4.32874 -2.61636 0
M  V30 3579 C 337.993 4.278 -1.26106 0
M  V30 3580 C 338.694 4.79552 -3.29249 0
M  V30 3581 N 337.67 4.79211 -2.56628 0
M  V30 3582 H 341.472 2.34916 -1.76612 0
M  V30 3583 H 338.986 1.23511 -1.05446 0
M  V30 3584 H 340.983 4.16773 -0.102796 0
M  V30 3585 H 339.643 3.19778 0.56322 0
M  V30 3586 H 340.654 4.23109 -2.98663 0
M  V30 3587 H 337.331 4.15511 -0.407081 0
M  V30 3588 H 338.721 5.14045 -4.32675 0
M  V30 3589 N 341.441 0.965919 1.2453 0
M  V30 3590 C 342.391 0.465731 2.23193 0
M  V30 3591 C 343.375 -0.451277 1.54442 0
M  V30 3592 O 344.567 -0.282489 1.74731 0
M  V30 3593 C 341.696 -0.244511 3.42428 0
M  V30 3594 C 340.782 0.691222 4.18429 0
M  V30 3595 N 341.173 1.82771 4.71623 0
M  V30 3596 C 339.471 0.501649 4.4317 0
M  V30 3597 C 340.172 2.41285 5.29298 0
M  V30 3598 N 339.148 1.69819 5.16394 0
M  V30 3599 H 342.95 1.33291 2.61937 0
M  V30 3600 H 340.464 0.824789 1.39896 0
M  V30 3601 H 342.461 -0.620056 4.12263 0
M  V30 3602 H 341.121 -1.10815 3.05205 0
M  V30 3603 H 342.132 2.20929 4.68413 0
M  V30 3604 H 338.809 -0.318177 4.16286 0
M  V30 3605 H 340.199 3.37181 5.8117 0
M  V30 3606 N 342.919 -1.39368 0.735821 0
M  V30 3607 C 343.829 -2.34395 0.0979693 0
M  V30 3608 C 344.845 -1.58361 -0.720968 0
M  V30 3609 O 346.021 -1.90648 -0.649245 0
M  V30 3610 C 343.086 -3.37393 -0.797916 0
M  V30 3611 C 342.147 -4.29287 0.0333662 0
M  V30 3612 C 341.38 -5.27365 -0.819854 0
M  V30 3613 O 341.603 -5.31959 -2.05855 0
M  V30 3614 O 340.537 -6.01389 -0.248079 0
M  V30 3615 H 344.363 -2.90601 0.882315 0
M  V30 3616 H 341.948 -1.40909 0.4965 0
M  V30 3617 H 343.83 -4.00505 -1.31048 0
M  V30 3618 H 342.505 -2.83571 -1.56106 0
M  V30 3619 H 341.412 -3.69395 0.591475 0
M  V30 3620 H 342.745 -4.86317 0.758752 0
M  V30 3621 N 344.397 -0.483516 -1.5 0
M  V30 3622 C 345.36 0.292965 -2.2732 0
M  V30 3623 C 346.36 0.909499 -1.32608 0
M  V30 3624 O 347.55 0.776745 -1.55924 0
M  V30 3625 C 344.682 1.41854 -3.09984 0
M  V30 3626 H 345.875 -0.385289 -2.97415 0
M  V30 3627 H 343.428 -0.237942 -1.54478 0
M  V30 3628 H 344.163 2.13148 -2.44414 0
M  V30 3629 H 343.948 0.982114 -3.79601 0
M  V30 3630 H 345.438 1.96597 -3.68429 0
M  V30 3631 N 345.875 1.56104 -0.216619 0
M  V30 3632 C 346.805 2.23063 0.690296 0
M  V30 3633 C 347.786 1.20072 1.20485 0
M  V30 3634 O 348.971 1.48643 1.24976 0
M  V30 3635 C 346.101 2.90672 1.90072 0
M  V30 3636 C 345.055 4.00092 1.5202 0
M  V30 3637 C 344.381 4.54972 2.80899 0
M  V30 3638 C 345.681 5.17398 0.71391 0
M  V30 3639 H 347.375 2.99109 0.132038 0
M  V30 3640 H 344.921 1.43866 0.0620664 0
M  V30 3641 H 346.874 3.36204 2.54057 0
M  V30 3642 H 345.598 2.12066 2.48386 0
M  V30 3643 H 344.257 3.55283 0.903839 0
M  V30 3644 H 343.905 3.73102 3.37348 0
M  V30 3645 H 343.605 5.28817 2.56176 0
M  V30 3646 H 345.129 5.0322 3.45836 0
M  V30 3647 H 346.543 5.59342 1.25735 0
M  V30 3648 H 344.94 5.97444 0.563951 0
M  V30 3649 H 346.01 4.84088 -0.280527 0
M  V30 3650 N 347.353 -0.0568162 1.57498 0
M  V30 3651 C 348.578 -0.769402 1.92601 0
M  V30 3652 C 349.003 -1.69559 0.814336 0
M  V30 3653 O 348.361 -1.79811 -0.231903 0
M  V30 3654 C 348.409 -1.52634 3.26704 0
M  V30 3655 O 347.513 -2.63797 3.16994 0
M  V30 3656 H 346.854 -0.208909 0.63028 0
M  V30 3657 H 349.384 -0.0205798 2.0459 0
M  V30 3658 H 349.394 -1.90234 3.60936 0
M  V30 3659 H 348.069 -0.846875 4.07186 0
M  V30 3660 H 346.646 -2.28943 2.94346 0
M  V30 3661 N 348.832 -1.54138 -0.328536 0
M  V30 3662 C 349.742 -1.86192 -1.42723 0
M  V30 3663 C 350.758 -0.753382 -1.56844 0
M  V30 3664 O 351.934 -1.04718 -1.72035 0
M  V30 3665 C 348.999 -2.07824 -2.77507 0
M  V30 3666 C 348.06 -3.31641 -2.72603 0
M  V30 3667 C 347.293 -3.52232 -4.00959 0
M  V30 3668 O 347.516 -2.7636 -4.9898 0
M  V30 3669 O 346.45 -4.45699 -4.0452 0
M  V30 3670 H 350.276 -2.79608 -1.18547 0
M  V30 3671 H 347.861 -1.3998 -0.522104 0
M  V30 3672 H 349.743 -2.23411 -3.57303 0
M  V30 3673 H 348.418 -1.17596 -3.01584 0
M  V30 3674 H 347.325 -3.21444 -1.91376 0
M  V30 3675 H 348.658 -4.2191 -2.53481 0
M  V30 3676 N 350.31 0.590341 -1.46126 0
M  V30 3677 C 351.273 1.68194 -1.55703 0
M  V30 3678 C 352.273 1.54808 -0.434868 0
M  V30 3679 O 353.463 1.59564 -0.698928 0
M  V30 3680 C 350.595 3.07575 -1.47005 0
M  V30 3681 H 351.788 1.61064 -2.52979 0
M  V30 3682 H 349.341 0.807541 -1.33823 0
M  V30 3683 H 350.076 3.20268 -0.509785 0
M  V30 3684 H 349.861 3.187 -2.28414 0
M  V30 3685 H 351.351 3.87055 -1.56776 0
M  V30 3686 N 351.788 1.33704 0.83433 0
M  V30 3687 C 352.718 1.26967 1.95963 0
M  V30 3688 C 353.699 0.149337 1.69443 0
M  V30 3689 O 354.884 0.339852 1.91203 0
M  V30 3690 C 352.014 1.01275 3.32206 0
M  V30 3691 C 350.968 2.09652 3.73136 0
M  V30 3692 C 350.294 1.69166 5.07235 0
M  V30 3693 C 351.594 3.51372 3.86439 0
M  V30 3694 H 353.288 2.2112 2.01857 0
M  V30 3695 H 350.834 1.06447 0.969793 0
M  V30 3696 H 352.787 0.952106 4.10503 0
M  V30 3697 H 351.511 0.0356203 3.26581 0
M  V30 3698 H 350.17 2.14766 2.97104 0
M  V30 3699 H 349.818 0.701437 4.98085 0
M  V30 3700 H 349.518 2.41694 5.35591 0
M  V30 3701 H 351.042 1.64576 5.88003 0
M  V30 3702 H 352.456 3.48734 4.55036 0
M  V30 3703 H 350.853 4.22425 4.26236 0
M  V30 3704 H 351.923 3.89546 2.88759 0
M  V30 3705 N 353.266 -1.05314 1.17247 0
M  V30 3706 C 354.677 -1.59753 0.96623 0
M  V30 3707 C 355.028 -1.9005 -0.487378 0
M  V30 3708 O 354.153 -1.68126 -1.36245 0
M  V30 3709 C 354.748 -2.90249 1.74759 0
M  V30 3710 C 353.307 -3.41352 1.58606 0
M  V30 3711 C 352.454 -2.15103 1.75002 0
M  V30 3712 H 355.405 -0.881406 1.31973 0
M  V30 3713 H 355.426 -3.60097 1.22925 0
M  V30 3714 H 354.938 -2.68166 2.8055 0
M  V30 3715 H 353.039 -3.68474 0.552985 0
M  V30 3716 H 353.152 -4.16019 2.37624 0
M  V30 3717 H 351.516 -2.25804 1.17833 0
M  V30 3718 H 352.299 -1.95491 2.82202 0
M  V30 3719 N 354.744 -0.972509 -1.24016 0
M  V30 3720 C 355.992 -0.635776 -1.91839 0
M  V30 3721 C 356.313 0.832312 -1.76345 0
M  V30 3722 O 355.583 1.5946 -1.13795 0
M  V30 3723 H 354.163 -0.232157 -0.710009 0
M  V30 3724 H 356.825 -1.23462 -1.50809 0
M  V30 3725 H 355.921 -0.880545 -2.99421 0
M  V30 3726 N 356.222 1.38976 -0.743202 0
M  V30 3727 C 357.499 1.94351 -0.220705 0
M  V30 3728 C 357.879 1.67935 1.2791 0
M  V30 3729 O 357.227 1.01211 2.04862 0
M  V30 3730 C 357.437 3.44426 -0.563171 0
M  V30 3731 C 358.785 4.2144 -0.517046 0
M  V30 3732 O 359.809 3.52661 -0.500846 0
M  V30 3733 O 358.668 5.44032 -0.518806 0
M  V30 3734 H 355.762 0.825879 -0.043047 0
M  V30 3735 H 358.308 1.48429 -0.822618 0
M  V30 3736 H 357.08 3.5712 -1.59941 0
M  V30 3737 H 356.703 3.97543 0.0672883 0
M  V30 3738 N 357.7 0.491464 1.49741 0
M  V30 3739 C 358.648 -0.305837 2.30581 0
M  V30 3740 C 359.642 -0.971642 1.38764 0
M  V30 3741 O 360.848 -0.90042 1.5586 0
M  V30 3742 H 357.223 -0.117482 0.742767 0
M  V30 3743 H 359.194 0.396093 2.95759 0
M  V30 3744 C 357.943 -1.36319 3.19863 0
M  V30 3745 H 357.266 -0.860258 3.90435 0
M  V30 3746 H 358.706 -1.89323 3.79385 0
M  V30 3747 C 357.165 -2.37621 2.38826 0
M  V30 3748 O 357.695 -3.43311 2.08567 0
M  V30 3749 N 355.901 -2.09849 2.01026 0
M  V30 3750 H 355.448 -1.23922 2.25834 0
M  V30 3751 H 355.406 -2.77859 1.47112 0
M  V30 3752 N 359.178 -1.55987 0.224894 0
M  V30 3753 C 360.424 -1.98684 -0.406502 0
M  V30 3754 C 360.757 -1.11248 -1.59177 0
M  V30 3755 O 360.032 -0.170909 -1.93748 0
M  V30 3756 C 360.315 -3.50218 -0.837808 0
M  V30 3757 C 360.168 -4.48426 0.351332 0
M  V30 3758 C 361.487 -4.06243 -1.69278 0
M  V30 3759 H 358.606 -0.722337 -0.146283 0
M  V30 3760 H 361.248 -1.87255 0.321799 0
M  V30 3761 H 359.398 -3.60089 -1.45837 0
M  V30 3762 H 361.07 -4.50562 0.989526 0
M  V30 3763 H 359.313 -4.22159 0.998207 0
M  V30 3764 H 359.984 -5.52 0.00655905 0
M  V30 3765 H 362.46 -3.99337 -1.16914 0
M  V30 3766 H 361.336 -5.12581 -1.96346 0
M  V30 3767 H 361.597 -3.53332 -2.65723 0
M  V30 3768 N 360.656 0.0484629 -1.57525 0
M  V30 3769 C 361.904 0.741657 -1.88 0
M  V30 3770 C 362.225 1.76918 -0.820054 0
M  V30 3771 O 361.495 1.95335 0.148661 0
M  V30 3772 H 360.075 0.276908 -0.69378 0
M  V30 3773 H 362.737 0.019013 -1.94891 0
M  V30 3774 H 361.833 1.24336 -2.86264 0
M  V30 3775 N 362.134 1.5431 0.320358 0
M  V30 3776 C 363.381 1.72668 1.05792 0
M  V30 3777 C 363.709 0.502084 1.87908 0
M  V30 3778 O 362.964 -0.516149 1.88771 0
M  V30 3779 C 363.263 2.95639 2.00828 0
M  V30 3780 C 362.929 4.30265 1.34843 0
M  V30 3781 C 361.591 4.66865 1.16578 0
M  V30 3782 C 363.943 5.13801 0.875095 0
M  V30 3783 C 361.271 5.84597 0.496336 0
M  V30 3784 C 363.623 6.32219 0.219463 0
M  V30 3785 C 362.287 6.67495 0.0246915 0
M  V30 3786 H 361.557 0.631837 0.387121 0
M  V30 3787 H 364.204 1.88552 0.334735 0
M  V30 3788 H 362.509 2.74456 2.79609 0
M  V30 3789 H 364.206 3.07038 2.57932 0
M  V30 3790 H 360.796 4.01472 1.50061 0
M  V30 3791 H 364.98 4.86039 1.00398 0
M  V30 3792 H 360.236 6.10486 0.334264 0
M  V30 3793 H 364.41 6.96227 -0.155291 0
M  V30 3794 H 362.037 7.5858 -0.496065 0
M  V30 3795 N 363.613 -0.582584 1.46437 0
M  V30 3796 C 364.561 -1.71272 1.5738 0
M  V30 3797 C 365.555 -1.63524 0.44229 0
M  V30 3798 O 366.761 -1.69016 0.619166 0
M  V30 3799 H 363.136 -0.566273 0.494813 0
M  V30 3800 H 365.107 -1.59174 2.52401 0
M  V30 3801 C 363.856 -3.09658 1.58136 0
M  V30 3802 H 363.179 -3.16291 2.44541 0
M  V30 3803 H 364.619 -3.88494 1.69847 0
M  V30 3804 C 363.078 -3.3547 0.310026 0
M  V30 3805 O 363.608 -3.97199 -0.599683 0
M  V30 3806 N 361.814 -2.89925 0.197901 0
M  V30 3807 H 361.361 -2.39873 0.93909 0
M  V30 3808 H 361.319 -3.07568 -0.65185 0
M  V30 3809 N 365.091 -1.34144 -0.827227 0
M  V30 3810 C 366.337 -1.26446 -1.58554 0
M  V30 3811 C 366.67 0.1664 -1.93486 0
M  V30 3812 O 365.945 1.1107 -1.59667 0
M  V30 3813 C 366.228 -2.15111 -2.8879 0
M  V30 3814 C 366.081 -3.66712 -2.60465 0
M  V30 3815 C 367.4 -2.03311 -3.90324 0
M  V30 3816 H 364.519 -0.46067 -0.575284 0
M  V30 3817 H 367.161 -1.64356 -0.953269 0
M  V30 3818 H 365.311 -1.8291 -3.42748 0
M  V30 3819 H 366.983 -4.09259 -2.1285 0
M  V30 3820 H 365.226 -3.88014 -1.93978 0
M  V30 3821 H 365.897 -4.24112 -3.53317 0
M  V30 3822 H 368.373 -2.31574 -3.45706 0
M  V30 3823 H 367.249 -2.67582 -4.79261 0
M  V30 3824 H 367.51 -1.00879 -4.30437 0
M  V30 3825 N 366.569 1.04691 -1.17803 0
M  V30 3826 C 367.516 2.12557 -0.899343 0
M  V30 3827 C 368.486 1.65339 0.158771 0
M  V30 3828 O 369.671 1.90789 0.0204797 0
M  V30 3829 C 366.811 3.42481 -0.424315 0
M  V30 3830 C 365.924 4.03346 -1.54713 0
M  V30 3831 C 365.059 5.21208 -1.02546 0
M  V30 3832 C 364.098 5.74089 -2.12339 0
M  V30 3833 N 363.235 6.83247 -1.61612 0
M  V30 3834 H 368.075 2.35734 -1.823 0
M  V30 3835 H 365.612 1.1564 -0.909159 0
M  V30 3836 H 367.57 4.16996 -0.130421 0
M  V30 3837 H 366.2 3.19471 0.462377 0
M  V30 3838 H 365.252 3.2622 -1.95664 0
M  V30 3839 H 366.564 4.38628 -2.37501 0
M  V30 3840 H 365.718 6.02812 -0.685718 0
M  V30 3841 H 364.457 4.87414 -0.167084 0
M  V30 3842 H 363.462 4.91111 -2.47165 0
M  V30 3843 H 364.687 6.0993 -2.98601 0
M  V30 3844 H 362.633 6.5134 -0.780533 0
M  V30 3845 H 362.55 7.17559 -2.38003 0
M  V30 3846 H 363.818 7.68491 -1.30545 0
M  V30 3847 N 368.047 0.979072 1.23499 0
M  V30 3848 C 368.995 0.510604 2.26926 0
M  V30 3849 C 369.989 -0.431691 1.63807 0
M  V30 3850 O 371.195 -0.30573 1.77385 0
M  V30 3851 H 367.57 0.146688 0.737554 0
M  V30 3852 H 369.541 1.39466 2.63803 0
M  V30 3853 C 368.29 -0.172658 3.47271 0
M  V30 3854 H 367.613 0.543331 3.96091 0
M  V30 3855 H 369.053 -0.464101 4.21452 0
M  V30 3856 C 367.512 -1.40345 3.06276 0
M  V30 3857 O 368.042 -2.49978 3.14442 0
M  V30 3858 N 366.248 -1.27362 2.61203 0
M  V30 3859 H 365.795 -0.381584 2.54758 0
M  V30 3860 H 365.753 -2.09822 2.34141 0
M  V30 3861 N 369.525 -1.3858 0.750561 0
M  V30 3862 C 370.771 -2.00481 0.305825 0
M  V30 3863 C 371.104 -1.5944 -1.10872 0
M  V30 3864 O 370.379 -0.83052 -1.75877 0
M  V30 3865 C 370.662 -3.5758 0.425287 0
M  V30 3866 C 370.515 -4.08594 1.88072 0
M  V30 3867 C 371.834 -4.39719 -0.183122 0
M  V30 3868 H 368.953 -0.728348 0.112598 0
M  V30 3869 H 371.595 -1.64566 0.949638 0
M  V30 3870 H 369.745 -3.88306 -0.122828 0
M  V30 3871 H 371.417 -3.88523 2.48691 0
M  V30 3872 H 369.66 -3.61574 2.39681 0
M  V30 3873 H 370.331 -5.177 1.91548 0
M  V30 3874 H 372.807 -4.15128 0.284303 0
M  V30 3875 H 371.683 -5.48856 -0.0692757 0
M  V30 3876 H 371.944 -4.23434 -1.27106 0
M  V30 3877 N 371.003 -0.499398 -1.49478 0
M  V30 3878 C 372.228 0.044722 -2.07352 0
M  V30 3879 C 372.653 1.30207 -1.35749 0
M  V30 3880 O 372.011 1.76516 -0.413732 0
M  V30 3881 C 372.059 0.283013 -3.59488 0
M  V30 3882 O 371.163 1.35804 -3.89398 0
M  V30 3883 H 370.504 -0.0255147 -0.66351 0
M  V30 3884 H 373.034 -0.698561 -1.92305 0
M  V30 3885 H 373.044 0.515007 -4.04737 0
M  V30 3886 H 371.719 -0.635636 -4.11014 0
M  V30 3887 H 370.296 1.11113 -3.55961 0
M  V30 3888 N 372.481 1.55866 -0.233164 0
M  V30 3889 C 373.727 1.98897 0.395959 0
M  V30 3890 C 374.06 1.12091 1.58585 0
M  V30 3891 O 373.335 0.181182 1.93654 0
M  V30 3892 C 373.618 3.50658 0.819224 0
M  V30 3893 C 373.471 4.48233 -0.375109 0
M  V30 3894 C 374.79 4.07135 1.67121 0
M  V30 3895 H 371.909 0.723102 0.142451 0
M  V30 3896 H 374.551 1.87082 -0.331725 0
M  V30 3897 H 372.701 3.60857 1.43925 0
M  V30 3898 H 374.373 4.50031 -1.01341 0
M  V30 3899 H 372.616 4.21624 -1.02058 0
M  V30 3900 H 373.287 5.51988 -0.0358328 0
M  V30 3901 H 375.763 3.99952 1.14795 0
M  V30 3902 H 374.639 5.13615 1.93625 0
M  V30 3903 H 374.9 3.54736 2.63846 0
M  V30 3904 N 373.959 -0.0401083 1.57549 0
M  V30 3905 C 374.906 -1.04413 2.05831 0
M  V30 3906 C 375.876 -1.36585 0.945184 0
M  V30 3907 O 377.061 -1.47112 1.21502 0
M  V30 3908 C 374.201 -2.34336 2.53339 0
M  V30 3909 C 373.314 -2.08419 3.78398 0
M  V30 3910 C 372.449 -3.32133 4.14561 0
M  V30 3911 C 371.488 -3.01721 5.3257 0
M  V30 3912 N 370.625 -4.17855 5.64218 0
M  V30 3913 H 375.465 -0.625442 2.91363 0
M  V30 3914 H 373.002 -0.297218 1.44066 0
M  V30 3915 H 374.96 -3.10234 2.78946 0
M  V30 3916 H 373.59 -2.73948 1.7074 0
M  V30 3917 H 372.642 -1.23069 3.59942 0
M  V30 3918 H 373.954 -1.81978 4.64419 0
M  V30 3919 H 373.108 -4.16406 4.41238 0
M  V30 3920 H 371.847 -3.61678 3.2717 0
M  V30 3921 H 370.852 -2.15849 5.05657 0
M  V30 3922 H 372.077 -2.73466 6.21605 0
M  V30 3923 H 370.023 -4.47372 4.79786 0
M  V30 3924 H 369.94 -3.94798 6.44725 0
M  V30 3925 H 371.208 -5.03033 5.95465 0
M  V30 3926 N 375.437 -1.54477 -0.31217 0
M  V30 3927 C 376.714 -1.63891 -1.06767 0
M  V30 3928 C 377.094 -0.480028 -2.0557 0
M  V30 3929 O 376.442 0.524487 -2.22399 0
M  V30 3930 C 376.652 -3.01402 -1.75948 0
M  V30 3931 C 378 -3.57838 -2.28554 0
M  V30 3932 O 379.024 -3.03782 -1.85998 0
M  V30 3933 O 377.883 -4.52462 -3.06497 0
M  V30 3934 H 374.977 -0.664125 -0.492816 0
M  V30 3935 H 377.523 -1.66823 -0.311149 0
M  V30 3936 H 376.295 -3.77187 -1.04144 0
M  V30 3937 H 375.918 -3.02199 -2.58383 0
M  V30 3938 N 376.915 0.57481 -1.46744 0
M  V30 3939 C 378.161 1.3347 -1.52688 0
M  V30 3940 C 378.494 1.93353 -0.181229 0
M  V30 3941 O 377.769 1.76912 0.808237 0
M  V30 3942 C 378.052 2.45811 -2.63152 0
M  V30 3943 C 377.905 1.90912 -4.07275 0
M  V30 3944 C 379.224 3.47822 -2.69644 0
M  V30 3945 H 376.343 0.483935 -0.555856 0
M  V30 3946 H 378.985 0.644968 -1.78718 0
M  V30 3947 H 377.135 3.04646 -2.41088 0
M  V30 3948 H 378.807 1.36473 -4.4065 0
M  V30 3949 H 377.05 1.21691 -4.16382 0
M  V30 3950 H 377.721 2.72042 -4.80309 0
M  V30 3951 H 380.197 2.9888 -2.895 0
M  V30 3952 H 379.073 4.23876 -3.48742 0
M  V30 3953 H 379.334 4.05555 -1.76005 0
M  V30 3954 N 378.394 1.34581 0.820102 0
M  V30 3955 C 379.81 1.14325 1.11364 0
M  V30 3956 C 380.01 -0.0533648 2.01429 0
M  V30 3957 O 379.066 -0.728044 2.41776 0
M  V30 3958 C 380.379 2.43983 1.75764 0
M  V30 3959 C 381.927 2.50065 1.88246 0
M  V30 3960 C 382.402 3.79732 2.56061 0
M  V30 3961 N 383.893 3.80908 2.63558 0
M  V30 3962 C 384.628 4.77961 3.16766 0
M  V30 3963 N 384.124 5.85397 3.70517 0
M  V30 3964 N 385.917 4.65413 3.15194 0
M  V30 3965 H 378.068 2.11246 0.221096 0
M  V30 3966 H 380.331 0.934289 0.160649 0
M  V30 3967 H 380.037 3.31651 1.1705 0
M  V30 3968 H 379.911 2.57531 2.75604 0
M  V30 3969 H 382.298 1.62834 2.46108 0
M  V30 3970 H 382.379 2.40442 0.873006 0
M  V30 3971 H 382.023 4.67354 1.98853 0
M  V30 3972 H 381.953 3.86639 3.57516 0
M  V30 3973 H 384.444 3.03274 2.25463 0
M  V30 3974 H 384.757 6.55463 4.09376 0
M  V30 3975 H 383.102 5.89107 3.68752 0
M  V30 3976 H 386.293 3.80627 2.72471 0
M  V30 3977 H 386.466 5.41216 3.56356 0
M  V30 3978 N 379.872 -1.04064 1.18357 0
M  V30 3979 C 381.288 -1.2947 0.933258 0
M  V30 3980 C 381.488 -1.97466 -0.401169 0
M  V30 3981 O 380.544 -2.25528 -1.13549 0
M  V30 3982 C 381.857 -2.15337 2.09882 0
M  V30 3983 C 383.405 -2.28683 2.13712 0
M  V30 3984 C 383.88 -3.17917 3.29686 0
M  V30 3985 N 385.371 -3.25504 3.29547 0
M  V30 3986 C 386.106 -3.94706 4.15926 0
M  V30 3987 N 385.602 -4.66239 5.12439 0
M  V30 3988 N 387.395 -3.90986 4.0384 0
M  V30 3989 H 379.546 -0.583359 2.04232 0
M  V30 3990 H 381.809 -0.319921 0.892387 0
M  V30 3991 H 381.515 -1.72682 3.06389 0
M  V30 3992 H 381.389 -3.16015 2.05947 0
M  V30 3993 H 383.776 -2.70575 1.17784 0
M  V30 3994 H 383.857 -1.27596 2.21705 0
M  V30 3995 H 383.501 -2.76736 4.25887 0
M  V30 3996 H 383.431 -4.19036 3.1893 0
M  V30 3997 H 385.922 -2.74547 2.59677 0
M  V30 3998 H 386.235 -5.16638 5.74722 0
M  V30 3999 H 384.58 -4.65143 5.16398 0
M  V30 4000 H 387.771 -3.34234 3.27727 0
M  V30 4001 H 387.944 -4.44646 4.71375 0
M  V30 4002 N 381.35 -0.985608 -1.22978 0
M  V30 4003 C 382.598 -0.656087 -1.91154 0
M  V30 4004 C 382.919 0.813561 -1.77218 0
M  V30 4005 O 382.189 1.58244 -1.1548 0
M  V30 4006 H 380.769 -0.239674 -0.707506 0
M  V30 4007 H 383.431 -1.25054 -1.49491 0
M  V30 4008 H 382.527 -0.912253 -2.9847 0
M  V30 4009 N 382.828 1.3818 -0.7579 0
M  V30 4010 C 383.776 2.32277 -0.122482 0
M  V30 4011 C 384.77 1.54238 0.700505 0
M  V30 4012 O 385.976 1.69737 0.599119 0
M  V30 4013 H 382.351 0.751712 -0.0208143 0
M  V30 4014 H 384.322 2.83469 -0.932099 0
M  V30 4015 C 383.071 3.39447 0.753076 0
M  V30 4016 H 382.394 3.99591 0.129184 0
M  V30 4017 H 383.834 4.07684 1.16489 0
M  V30 4018 C 382.293 2.78375 1.8976 0
M  V30 4019 O 382.823 2.68025 2.99208 0
M  V30 4020 N 381.029 2.36121 1.69397 0
M  V30 4021 H 380.576 2.4474 0.803762 0
M  V30 4022 H 380.534 1.95602 2.46145 0
M  V30 4023 N 384.306 0.507319 1.49211 0
M  V30 4024 C 385.552 -0.0350047 2.0277 0
M  V30 4025 C 385.885 -1.3606 1.38569 0
M  V30 4026 O 385.16 -1.87321 0.523542 0
M  V30 4027 C 385.443 -0.180916 3.59645 0
M  V30 4028 C 385.296 1.16825 4.34364 0
M  V30 4029 C 386.615 -0.918558 4.30407 0
M  V30 4030 H 383.734 -0.0112473 0.736914 0
M  V30 4031 H 386.376 0.659956 1.7817 0
M  V30 4032 H 384.526 -0.772826 3.80736 0
M  V30 4033 H 386.198 1.79952 4.24753 0
M  V30 4034 H 384.441 1.75594 3.96673 0
M  V30 4035 H 385.112 1.01939 5.42506 0
M  V30 4036 H 387.588 -0.41649 4.1401 0
M  V30 4037 H 386.464 -0.989505 5.39907 0
M  V30 4038 H 386.725 -1.96373 3.96093 0
M  V30 4039 N 385.784 -1.5574 0.241426 0
M  V30 4040 C 386.747 -2.19877 -0.647063 0
M  V30 4041 C 387.747 -1.16642 -1.10686 0
M  V30 4042 O 388.937 -1.41757 -1.01245 0
M  V30 4043 C 386.069 -2.83797 -1.88871 0
M  V30 4044 H 387.262 -2.99772 -0.087574 0
M  V30 4045 H 384.815 -1.56298 -0.00813574 0
M  V30 4046 H 385.55 -2.07824 -2.48957 0
M  V30 4047 H 385.335 -3.59414 -1.56728 0
M  V30 4048 H 386.825 -3.32898 -2.52129 0
M  V30 4049 N 387.262 0.0317525 -1.57568 0
M  V30 4050 C 388.51 0.721676 -1.88776 0
M  V30 4051 C 388.831 1.76039 -0.838772 0
M  V30 4052 O 388.101 1.95482 0.127935 0
M  V30 4053 H 386.681 0.269534 -0.696678 0
M  V30 4054 H 389.343 -0.00165879 -1.949 0
M  V30 4055 H 388.439 1.21293 -2.87566 0
M  V30 4056 N 388.74 1.54641 0.303973 0
M  V30 4057 C 390.017 1.64455 1.05896 0
M  V30 4058 C 390.397 0.490923 2.05312 0
M  V30 4059 O 389.745 -0.512685 2.22674 0
M  V30 4060 C 389.955 3.02331 1.74347 0
M  V30 4061 C 391.303 3.59045 2.26653 0
M  V30 4062 O 392.327 3.04764 1.84384 0
M  V30 4063 O 391.186 4.54081 3.04093 0
M  V30 4064 H 388.28 0.666729 0.489287 0
M  V30 4065 H 390.826 1.66986 0.302298 0
M  V30 4066 H 389.598 3.77734 1.02142 0
M  V30 4067 H 389.221 3.03565 2.56777 0
M  V30 4068 N 390.218 -0.567019 1.47046 0
M  V30 4069 C 391.443 -1.3551 1.57009 0
M  V30 4070 C 391.868 -1.86841 0.217259 0
M  V30 4071 O 391.226 -1.62435 -0.805268 0
M  V30 4072 C 391.274 -2.50777 2.5912 0
M  V30 4073 O 390.378 -3.52706 2.13711 0
M  V30 4074 H 389.719 -0.402919 0.52778 0
M  V30 4075 H 392.249 -0.686241 1.92748 0
M  V30 4076 H 392.259 -2.97481 2.79229 0
M  V30 4077 H 390.934 -2.12771 3.57353 0
M  V30 4078 H 389.511 -3.12374 2.03659 0
M  V30 4079 N 391.696 -1.35014 -0.812953 0
M  V30 4080 C 392.643 -1.27412 -1.92444 0
M  V30 4081 C 393.613 -0.14733 -1.65445 0
M  V30 4082 O 394.798 -0.329974 -1.87925 0
M  V30 4083 C 391.938 -1.04558 -3.28879 0
M  V30 4084 C 391.051 -2.26101 -3.68106 0
M  V30 4085 C 390.186 -1.96449 -4.9354 0
M  V30 4086 C 389.225 -3.14081 -5.25376 0
M  V30 4087 N 388.362 -2.84246 -6.41988 0
M  V30 4088 H 393.202 -2.22463 -1.98278 0
M  V30 4089 H 390.739 -1.10593 -0.969933 0
M  V30 4090 H 392.697 -0.893413 -4.07522 0
M  V30 4091 H 391.327 -0.131719 -3.22531 0
M  V30 4092 H 390.379 -2.52204 -2.84775 0
M  V30 4093 H 391.691 -3.13959 -3.87597 0
M  V30 4094 H 390.845 -1.78026 -5.79993 0
M  V30 4095 H 389.584 -1.05867 -4.76071 0
M  V30 4096 H 388.589 -3.33089 -4.37415 0
M  V30 4097 H 389.814 -4.05455 -5.44778 0
M  V30 4098 H 387.76 -1.96252 -6.25956 0
M  V30 4099 H 387.677 -3.65637 -6.61699 0
M  V30 4100 H 388.945 -2.6935 -7.31485 0
M  V30 4101 N 393.175 1.03435 -1.18907 0
M  V30 4102 C 394.123 2.13703 -0.918353 0
M  V30 4103 C 395.117 1.68947 0.123767 0
M  V30 4104 O 396.323 1.79983 -0.0249701 0
M  V30 4105 H 392.698 0.698112 -0.279542 0
M  V30 4106 H 394.669 2.33731 -1.85506 0
M  V30 4107 C 393.418 3.44542 -0.467532 0
M  V30 4108 H 392.741 3.79394 -1.26095 0
M  V30 4109 H 394.181 4.22812 -0.317164 0
M  V30 4110 C 392.64 3.26829 0.817588 0
M  V30 4111 O 393.17 3.54975 1.88031 0
M  V30 4112 N 391.376 2.80139 0.772677 0
M  V30 4113 H 390.923 2.57434 -0.0923883 0
M  V30 4114 H 390.881 2.68668 1.63294 0
M  V30 4115 N 394.653 0.992116 1.22453 0
M  V30 4116 C 395.93 0.583508 1.86694 0
M  V30 4117 C 396.31 -0.9392 1.89056 0
M  V30 4118 O 395.658 -1.82081 1.38053 0
M  V30 4119 C 395.868 1.20304 3.2761 0
M  V30 4120 C 397.216 1.30308 4.0411 0
M  V30 4121 O 398.24 1.15737 3.36873 0
M  V30 4122 O 397.099 1.53615 5.24466 0
M  V30 4123 H 394.193 0.198129 0.802916 0
M  V30 4124 H 396.739 1.08794 1.30238 0
M  V30 4125 H 395.511 2.24461 3.2052 0
M  V30 4126 H 395.134 0.684144 3.9167 0
M  V30 4127 N 396.131 -1.37776 0.765217 0
M  V30 4128 C 397.542 -1.82521 0.392819 0
M  V30 4129 C 397.893 -1.63789 -1.08017 0
M  V30 4130 O 397.018 -1.14542 -1.83601 0
M  V30 4131 C 397.613 -3.31358 0.706214 0
M  V30 4132 C 396.172 -3.74406 0.386952 0
M  V30 4133 C 395.319 -2.60394 0.953422 0
M  V30 4134 H 398.27 -1.2634 0.960412 0
M  V30 4135 H 398.291 -3.80498 -0.0114706 0
M  V30 4136 H 397.803 -3.44959 1.77833 0
M  V30 4137 H 395.904 -3.66377 -0.678112 0
M  V30 4138 H 396.017 -4.70749 0.890636 0
M  V30 4139 H 394.381 -2.51878 0.378064 0
M  V30 4140 H 395.164 -2.76791 2.03081 0
M  V30 4141 N 397.609 -0.515225 -1.4894 0
M  V30 4142 C 399.02 -0.0710067 -1.86565 0
M  V30 4143 C 399.371 1.34733 -1.42623 0
M  V30 4144 O 398.496 2.00653 -0.810379 0
M  V30 4145 C 399.091 -0.122083 -3.3858 0
M  V30 4146 C 397.65 0.266863 -3.75453 0
M  V30 4147 C 396.797 -0.488376 -2.72966 0
M  V30 4148 H 399.748 -0.727266 -1.41055 0
M  V30 4149 H 399.769 0.669818 -3.74558 0
M  V30 4150 H 399.281 -1.15448 -3.70531 0
M  V30 4151 H 397.382 1.30196 -3.49113 0
M  V30 4152 H 397.495 -0.0624811 -4.79059 0
M  V30 4153 H 395.859 0.0635622 -2.54621 0
M  V30 4154 H 396.642 -1.52113 -3.07761 0
M  V30 4155 N 399.087 1.5561 -0.249682 0
M  V30 4156 C 400.02 2.17537 0.689408 0
M  V30 4157 C 400.998 1.12829 1.17083 0
M  V30 4158 O 402.182 1.41229 1.24846 0
M  V30 4159 C 399.309 2.77828 1.93725 0
M  V30 4160 C 398.355 3.95615 1.59346 0
M  V30 4161 S 399.188 5.30988 0.69367 0
M  V30 4162 C 400.344 5.94734 1.95046 0
M  V30 4163 H 400.577 2.96852 0.163142 0
M  V30 4164 H 398.11 1.54362 -0.0341166 0
M  V30 4165 H 400.068 3.13199 2.65361 0
M  V30 4166 H 398.729 1.98454 2.43465 0
M  V30 4167 H 397.922 4.364 2.52132 0
M  V30 4168 H 397.524 3.61535 0.957512 0
M  V30 4169 H 399.816 6.12419 2.89739 0
M  V30 4170 H 400.759 6.90109 1.58604 0
M  V30 4171 H 401.167 5.23832 2.10381 0
M  V30 4172 N 400.565 -0.0233959 1.57583 0
M  V30 4173 C 401.475 -1.03907 2.10334 0
M  V30 4174 C 402.491 -1.39257 1.04323 0
M  V30 4175 O 403.667 -1.48462 1.36091 0
M  V30 4176 C 400.732 -2.31938 2.57693 0
M  V30 4177 C 399.793 -2.03117 3.78209 0
M  V30 4178 C 399.026 -3.25043 4.233 0
M  V30 4179 O 399.249 -4.35916 3.67876 0
M  V30 4180 O 398.183 -3.10411 5.15683 0
M  V30 4181 H 402.009 -0.620748 2.97288 0
M  V30 4182 H 399.594 -0.240743 1.47448 0
M  V30 4183 H 401.476 -3.07196 2.88458 0
M  V30 4184 H 400.151 -2.73055 1.73847 0
M  V30 4185 H 399.058 -1.25408 3.52454 0
M  V30 4186 H 400.391 -1.66852 4.63056 0
M  V30 4187 N 402.043 -1.548 -0.295768 0
M  V30 4188 C 403.006 -1.85363 -1.34808 0
M  V30 4189 C 404.006 -0.726817 -1.43436 0
M  V30 4190 O 405.196 -0.995088 -1.42981 0
M  V30 4191 C 402.328 -2.03859 -2.73229 0
M  V30 4192 H 403.521 -2.7941 -1.08949 0
M  V30 4193 H 401.074 -1.46942 -0.532702 0
M  V30 4194 H 401.809 -1.12117 -3.04303 0
M  V30 4195 H 401.594 -2.8588 -2.68356 0
M  V30 4196 H 403.084 -2.28857 -3.49305 0
M  V30 4197 N 403.521 0.559213 -1.47345 0
M  V30 4198 C 404.484 1.64854 -1.59235 0
M  V30 4199 C 405.484 1.53851 -0.467607 0
M  V30 4200 O 406.674 1.58045 -0.732617 0
M  V30 4201 C 403.806 3.04388 -1.53496 0
M  V30 4202 H 404.999 1.55662 -2.56339 0
M  V30 4203 H 402.552 0.778973 -1.35505 0
M  V30 4204 H 403.287 3.19115 -0.577604 0
M  V30 4205 H 403.072 3.13783 -2.35123 0
M  V30 4206 H 404.562 3.83642 -1.6495 0
M  V30 4207 N 404.999 1.35443 0.805782 0
M  V30 4208 C 406.247 1.28507 1.55982 0
M  V30 4209 C 406.568 -0.140046 1.94496 0
M  V30 4210 O 405.838 -1.07666 1.63661 0
M  V30 4211 H 404.418 0.472676 0.578434 0
M  V30 4212 H 407.08 1.69555 0.961098 0
M  V30 4213 H 406.176 1.90148 2.47488 0
M  V30 4214 N 406.477 -1.02803 1.19454 0
M  V30 4215 C 407.724 -1.76217 0.997693 0
M  V30 4216 C 408.052 -1.887 -0.47144 0
M  V30 4217 O 407.307 -1.4011 -1.3663 0
M  V30 4218 C 407.606 -3.18941 1.6128 0
M  V30 4219 C 407.272 -3.26463 3.11019 0
M  V30 4220 C 405.934 -3.28223 3.51885 0
M  V30 4221 C 408.286 -3.25542 4.07028 0
M  V30 4222 C 405.614 -3.26719 4.8731 0
M  V30 4223 C 407.966 -3.25579 5.42385 0
M  V30 4224 C 406.63 -3.25637 5.82681 0
M  V30 4225 H 405.9 -0.644823 0.365082 0
M  V30 4226 H 408.547 -1.20655 1.4871 0
M  V30 4227 H 406.852 -3.77587 1.04572 0
M  V30 4228 H 408.549 -3.74415 1.43577 0
M  V30 4229 H 405.139 -3.25822 2.78457 0
M  V30 4230 H 409.323 -3.23362 3.76498 0
M  V30 4231 H 404.579 -3.25089 5.1781 0
M  V30 4232 H 408.753 -3.23817 6.16535 0
M  V30 4233 H 406.38 -3.24226 6.87591 0
M  V30 4234 N 407.956 -0.998596 -1.21925 0
M  V30 4235 C 409.184 -0.696286 -1.94832 0
M  V30 4236 C 409.599 0.740032 -1.73692 0
M  V30 4237 O 408.956 1.5 -1.03953 0
M  V30 4238 C 409.007 -0.999833 -3.47398 0
M  V30 4239 O 408.728 -2.37972 -3.67833 0
M  V30 4240 C 410.229 -0.716025 -4.37479 0
M  V30 4241 H 407.449 -0.257111 -0.619786 0
M  V30 4242 H 409.993 -1.33491 -1.54921 0
M  V30 4243 H 408.148 -0.406918 -3.85257 0
M  V30 4244 H 408.562 -2.48338 -4.61983 0
M  V30 4245 H 410.036 -0.978642 -5.43256 0
M  V30 4246 H 410.513 0.349968 -4.37803 0
M  V30 4247 H 411.119 -1.29025 -4.05256 0
M  V30 4248 N 409.434 1.37368 -0.772513 0
M  V30 4249 C 410.397 2.28601 -0.165541 0
M  V30 4250 C 411.397 1.48062 0.627238 0
M  V30 4251 O 412.587 1.68268 0.450715 0
M  V30 4252 C 409.719 3.32023 0.772897 0
M  V30 4253 H 410.912 2.83787 -0.969787 0
M  V30 4254 H 408.465 1.46647 -0.540775 0
M  V30 4255 H 409.2 2.81962 1.60212 0
M  V30 4256 H 408.985 3.91555 0.206585 0
M  V30 4257 H 410.475 4.00197 1.19298 0
M  V30 4258 N 410.912 0.523116 1.48665 0
M  V30 4259 C 411.844 -0.280421 2.27478 0
M  V30 4260 C 412.857 -0.910694 1.34945 0
M  V30 4261 O 414.046 -0.790295 1.60052 0
M  V30 4262 C 411.146 -1.41171 3.08097 0
M  V30 4263 C 410.319 -0.884642 4.28361 0
M  V30 4264 C 409.378 -1.89622 4.90846 0
M  V30 4265 O 408.404 -1.4559 5.50265 0
M  V30 4266 N 409.606 -3.22801 4.82472 0
M  V30 4267 H 412.371 0.395481 2.97079 0
M  V30 4268 H 409.932 0.357018 1.57915 0
M  V30 4269 H 411.924 -2.08645 3.4677 0
M  V30 4270 H 410.494 -1.99139 2.40961 0
M  V30 4271 H 409.714 -0.0341177 3.94185 0
M  V30 4272 H 411.002 -0.511268 5.06225 0
M  V30 4273 H 410.4 -3.61246 4.35336 0
M  V30 4274 H 408.957 -3.85927 5.25265 0
M  V30 4275 N 412.39 -1.55475 0.257931 0
M  V30 4276 C 413.636 -1.99502 -0.364266 0
M  V30 4277 C 413.969 -1.146 -1.56782 0
M  V30 4278 O 413.244 -0.211968 -1.93342 0
M  V30 4279 C 413.527 -3.51917 -0.763333 0
M  V30 4280 C 413.38 -4.4758 0.446371 0
M  V30 4281 C 414.699 -4.09742 -1.60623 0
M  V30 4282 H 411.818 -0.725277 -0.130929 0
M  V30 4283 H 414.46 -1.8653 0.361446 0
M  V30 4284 H 412.61 -3.63101 -1.38166 0
M  V30 4285 H 414.282 -4.48362 1.08487 0
M  V30 4286 H 412.525 -4.19947 1.08753 0
M  V30 4287 H 413.196 -5.51862 0.123645 0
M  V30 4288 H 415.672 -4.01727 -1.08418 0
M  V30 4289 H 414.548 -5.16631 -1.85429 0
M  V30 4290 H 414.809 -3.58889 -2.58169 0
M  V30 4291 N 413.868 0.0150385 -1.57593 0
M  V30 4292 C 415.117 0.702115 -1.89085 0
M  V30 4293 C 415.43 1.75764 -0.858277 0
M  V30 4294 O 416.636 2.49829 -1.0629 0
M  V30 4295 C 415.092 1.29992 -3.35604 0
M  V30 4296 C 414.7 0.280007 -4.47124 0
M  V30 4297 C 416.444 1.96606 -3.76227 0
M  V30 4298 C 414.351 0.886949 -5.84711 0
M  V30 4299 H 413.281 0.265997 -0.705522 0
M  V30 4300 H 415.932 -0.0430408 -1.8345 0
M  V30 4301 H 414.314 2.09525 -3.36029 0
M  V30 4302 H 415.488 -0.489631 -4.58191 0
M  V30 4303 H 413.803 -0.284835 -4.15425 0
M  V30 4304 H 416.4 2.42893 -4.76347 0
M  V30 4305 H 416.743 2.79024 -3.08952 0
M  V30 4306 H 417.276 1.23828 -3.78036 0
M  V30 4307 H 414.015 0.101876 -6.55421 0
M  V30 4308 H 413.535 1.6261 -5.77337 0
M  V30 4309 H 415.214 1.39011 -6.3189 0
M  V30 4310 N 415.346 1.54954 0.287554 0
M  V30 4311 C 416.595 1.74081 1.01877 0
M  V30 4312 C 416.908 0.541135 1.87966 0
M  V30 4313 O 418.114 0.614491 2.64455 0
M  V30 4314 C 416.57 3.08042 1.86113 0
M  V30 4315 C 416.178 4.35531 1.04961 0
M  V30 4316 C 417.922 3.36523 2.58752 0
M  V30 4317 C 415.829 5.60538 1.88551 0
M  V30 4318 H 414.759 0.64884 0.384087 0
M  V30 4319 H 417.41 1.81426 0.275101 0
M  V30 4320 H 415.792 2.94696 2.64519 0
M  V30 4321 H 416.966 4.59751 0.31074 0
M  V30 4322 H 415.281 4.14085 0.43843 0
M  V30 4323 H 417.878 4.27122 3.21668 0
M  V30 4324 H 418.221 2.56 3.28283 0
M  V30 4325 H 418.754 3.50901 1.87386 0
M  V30 4326 H 415.493 6.43767 1.23466 0
M  V30 4327 H 415.013 5.40483 2.60074 0
M  V30 4328 H 416.692 5.98297 2.46273 0
M  V30 4329 N 416.824 -0.551391 1.4764 0
M  V30 4330 C 417.754 -1.66757 1.63445 0
M  V30 4331 C 418.735 -1.63077 0.483742 0
M  V30 4332 O 419.92 -1.80607 0.71377 0
M  V30 4333 C 417.05 -3.05387 1.65396 0
M  V30 4334 C 416.004 -3.23918 2.79752 0
M  V30 4335 C 415.33 -4.63393 2.66779 0
M  V30 4336 C 416.63 -3.08735 4.21284 0
M  V30 4337 H 418.324 -1.53786 2.56886 0
M  V30 4338 H 415.87 -0.738415 1.23626 0
M  V30 4339 H 417.823 -3.83325 1.75043 0
M  V30 4340 H 416.547 -3.19332 0.685195 0
M  V30 4341 H 415.206 -2.48391 2.69625 0
M  V30 4342 H 414.854 -4.74144 1.67918 0
M  V30 4343 H 414.554 -4.7674 3.43501 0
M  V30 4344 H 416.078 -5.43458 2.78364 0
M  V30 4345 H 417.492 -3.76484 4.32357 0
M  V30 4346 H 415.889 -3.33588 4.98838 0
M  V30 4347 H 416.959 -2.0541 4.39243 0
M  V30 4348 N 418.302 -1.35869 -0.798587 0
M  V30 4349 C 419.25 -1.29491 -1.93222 0
M  V30 4350 C 420.244 -0.18836 -1.6835 0
M  V30 4351 O 421.45 -0.354822 -1.76468 0
M  V30 4352 H 417.825 -0.402901 -0.63496 0
M  V30 4353 H 419.796 -2.25247 -1.9572 0
M  V30 4354 C 418.545 -1.09184 -3.30112 0
M  V30 4355 H 417.868 -1.93574 -3.49813 0
M  V30 4356 H 419.308 -1.08766 -4.09812 0
M  V30 4357 C 417.767 0.203959 -3.36282 0
M  V30 4358 O 418.297 1.19699 -3.83451 0
M  V30 4359 N 416.503 0.245488 -2.89561 0
M  V30 4360 H 416.05 -0.563223 -2.51367 0
M  V30 4361 H 416.008 1.11219 -2.94071 0
M  V30 4362 N 419.78 1.02168 -1.19998 0
M  V30 4363 C 420.73 2.08969 -0.911921 0
M  V30 4364 C 421.714 1.60404 0.12621 0
M  V30 4365 O 422.906 1.76817 -0.0804706 0
M  V30 4366 C 420.035 3.402 -0.460277 0
M  V30 4367 C 419.121 3.9548 -1.53155 0
M  V30 4368 N 419.512 4.24332 -2.75275 0
M  V30 4369 C 417.81 4.23572 -1.39653 0
M  V30 4370 C 418.511 4.68834 -3.44339 0
M  V30 4371 N 417.487 4.70804 -2.71744 0
M  V30 4372 H 421.289 2.29178 -1.83997 0
M  V30 4373 H 418.803 1.20094 -1.09322 0
M  V30 4374 H 420.8 4.16235 -0.235337 0
M  V30 4375 H 419.46 3.21408 0.4612 0
M  V30 4376 H 420.471 4.13393 -3.11973 0
M  V30 4377 H 417.148 4.14005 -0.539067 0
M  V30 4378 H 418.538 5.00019 -4.4881 0
M  V30 4379 N 421.258 1.00505 1.21394 0
M  V30 4380 C 422.669 0.721082 1.72213 0
M  V30 4381 C 423.02 -0.761263 1.80829 0
M  V30 4382 O 422.145 -1.59464 1.46288 0
M  V30 4383 C 422.74 1.30228 3.12772 0
M  V30 4384 C 421.299 1.06743 3.60947 0
M  V30 4385 C 420.446 1.41507 2.38477 0
M  V30 4386 H 423.397 1.17594 1.06571 0
M  V30 4387 H 423.418 0.686955 3.74247 0
M  V30 4388 H 422.93 2.38115 3.06468 0
M  V30 4389 H 421.031 0.00572162 3.726 0
M  V30 4390 H 421.144 1.73936 4.46411 0
M  V30 4391 H 419.508 0.833852 2.40664 0
M  V30 4392 H 420.291 2.50424 2.34824 0
M  V30 4393 N 422.737 -1.36956 0.779787 0
M  V30 4394 C 423.985 -1.99097 0.347079 0
M  V30 4395 C 424.306 -1.62206 -1.08232 0
M  V30 4396 O 423.576 -0.891373 -1.74446 0
M  V30 4397 H 422.156 -0.736409 0.125342 0
M  V30 4398 H 424.818 -1.67308 0.999696 0
M  V30 4399 H 423.914 -3.09107 0.431162 0
M  V30 4400 N 424.215 -0.530993 -1.48385 0
M  V30 4401 C 425.147 0.268353 -2.27624 0
M  V30 4402 C 426.16 0.903525 -1.35426 0
M  V30 4403 O 427.349 0.781796 -1.60469 0
M  V30 4404 C 424.449 1.39535 -3.08842 0
M  V30 4405 C 423.622 0.861913 -4.28824 0
M  V30 4406 C 422.681 1.87016 -4.91845 0
M  V30 4407 O 421.707 1.4267 -5.5103 0
M  V30 4408 N 422.909 3.20238 -4.84178 0
M  V30 4409 H 425.674 -0.41123 -2.96865 0
M  V30 4410 H 423.235 -0.365387 -1.57723 0
M  V30 4411 H 425.227 2.06803 -3.47871 0
M  V30 4412 H 423.797 1.97859 -2.42014 0
M  V30 4413 H 423.017 0.0132126 -3.94198 0
M  V30 4414 H 424.305 0.484415 -5.06489 0
M  V30 4415 H 423.703 3.58932 -4.37246 0
M  V30 4416 H 422.26 3.83136 -5.27305 0
M  V30 4417 N 425.693 1.55336 -0.266172 0
M  V30 4418 C 426.942 1.98574 0.353749 0
M  V30 4419 C 427.255 1.15789 1.57646 0
M  V30 4420 O 428.461 1.49129 2.26876 0
M  V30 4421 C 426.917 3.53403 0.680747 0
M  V30 4422 C 426.525 4.44953 -0.52165 0
M  V30 4423 C 428.269 4.05251 1.26379 0
M  V30 4424 C 426.176 5.91156 -0.169736 0
M  V30 4425 H 425.106 0.741643 0.135949 0
M  V30 4426 H 427.757 1.79743 -0.369421 0
M  V30 4427 H 426.139 3.68001 1.46257 0
M  V30 4428 H 427.313 4.42121 -1.29869 0
M  V30 4429 H 425.628 4.03691 -1.02093 0
M  V30 4430 H 428.225 5.12021 1.54074 0
M  V30 4431 H 428.568 3.53749 2.19471 0
M  V30 4432 H 429.101 3.94057 0.544447 0
M  V30 4433 H 425.84 6.46736 -1.0683 0
M  V30 4434 H 425.36 5.97079 0.570717 0
M  V30 4435 H 427.039 6.4655 0.241245 0
M  V30 4436 N 427.171 -0.0066808 1.57599 0
M  V30 4437 C 428.396 -0.707738 1.94951 0
M  V30 4438 C 428.821 -1.66882 0.867868 0
M  V30 4439 O 428.179 -1.80457 -0.17458 0
M  V30 4440 C 428.227 -1.42162 3.31394 0
M  V30 4441 O 427.331 -2.53578 3.25226 0
M  V30 4442 H 426.672 -0.188752 0.636607 0
M  V30 4443 H 429.202 0.0445193 2.04552 0
M  V30 4444 H 429.212 -1.78655 3.66806 0
M  V30 4445 H 427.887 -0.716903 4.09675 0
M  V30 4446 H 426.464 -2.19463 3.01481 0
M  V30 4447 N 428.649 -1.55105 -0.279332 0
M  V30 4448 C 429.612 -1.86783 -1.32834 0
M  V30 4449 C 430.612 -0.74199 -1.42657 0
M  V30 4450 O 431.802 -1.0102 -1.41918 0
M  V30 4451 C 428.934 -2.06746 -2.71052 0
M  V30 4452 H 430.127 -2.8055 -1.05979 0
M  V30 4453 H 427.68 -1.47499 -0.517087 0
M  V30 4454 H 428.415 -1.15339 -3.03097 0
M  V30 4455 H 428.2 -2.88711 -2.65309 0
M  V30 4456 H 429.69 -2.32549 -3.46858 0
M  V30 4457 N 430.127 0.543554 -1.4793 0
M  V30 4458 C 431.375 1.29752 -1.54948 0
M  V30 4459 C 431.696 1.93764 -0.219242 0
M  V30 4460 O 430.966 1.80639 0.75805 0
M  V30 4461 H 429.546 0.481874 -0.570795 0
M  V30 4462 H 432.208 0.633636 -1.84312 0
M  V30 4463 H 431.304 2.08392 -2.32334 0
M  V30 4464 N 431.605 1.3629 0.791371 0
M  V30 4465 C 432.835 1.33368 1.57786 0
M  V30 4466 C 433.243 -0.0875188 1.88997 0
M  V30 4467 O 432.586 -1.05427 1.50435 0
M  V30 4468 C 432.648 2.08802 2.92646 0
M  V30 4469 C 432.312 3.57903 2.84174 0
M  V30 4470 C 433.309 4.52191 2.56553 0
M  V30 4471 C 430.994 4.00762 3.02812 0
M  V30 4472 C 432.988 5.87315 2.47669 0
M  V30 4473 C 430.675 5.35977 2.93551 0
M  V30 4474 C 431.673 6.29066 2.66017 0
M  V30 4475 O 431.361 7.61798 2.56746 0
M  V30 4476 H 431.093 0.459166 0.496128 0
M  V30 4477 H 433.647 1.79952 0.990269 0
M  V30 4478 H 431.877 1.56878 3.53449 0
M  V30 4479 H 433.566 1.98762 3.53904 0
M  V30 4480 H 434.332 4.20393 2.41858 0
M  V30 4481 H 430.211 3.2868 3.2325 0
M  V30 4482 H 433.755 6.59943 2.26099 0
M  V30 4483 H 429.652 5.67384 3.07808 0
M  V30 4484 H 430.42 7.71898 2.72242 0
M  V30 4485 N 433.083 -1.0153 1.20538 0
M  V30 4486 C 434.046 -2.0826 0.957098 0
M  V30 4487 C 435.046 -1.60657 -0.0678655 0
M  V30 4488 O 436.236 -1.73385 0.168332 0
M  V30 4489 C 433.368 -3.38033 0.441188 0
M  V30 4490 H 434.561 -2.31719 1.90384 0
M  V30 4491 H 432.114 -1.1835 1.02093 0
M  V30 4492 H 432.849 -3.20249 -0.510961 0
M  V30 4493 H 432.634 -3.73911 1.18038 0
M  V30 4494 H 434.124 -4.16613 0.287009 0
M  V30 4495 N 434.561 -1.01147 -1.20859 0
M  V30 4496 C 435.972 -0.730205 -1.71828 0
M  V30 4497 C 436.323 0.751662 -1.8123 0
M  V30 4498 O 435.448 1.58686 -1.47132 0
M  V30 4499 C 436.043 -1.31885 -3.12077 0
M  V30 4500 C 434.602 -1.08656 -3.60376 0
M  V30 4501 C 433.749 -1.42769 -2.37723 0
M  V30 4502 H 436.7 -1.18158 -1.05945 0
M  V30 4503 H 436.721 -0.706793 -3.73878 0
M  V30 4504 H 436.233 -2.39737 -3.05201 0
M  V30 4505 H 434.334 -0.0254814 -3.72591 0
M  V30 4506 H 434.447 -1.76301 -4.45483 0
M  V30 4507 H 432.811 -0.846603 -2.40218 0
M  V30 4508 H 433.594 -2.51666 -2.33493 0
M  V30 4509 N 436.039 1.36541 -0.78704 0
M  V30 4510 C 437.285 1.99599 -0.358872 0
M  V30 4511 C 437.618 1.62323 1.06606 0
M  V30 4512 O 436.893 0.876858 1.73613 0
M  V30 4513 C 437.176 3.56327 -0.519944 0
M  V30 4514 C 437.029 4.03464 -1.98839 0
M  V30 4515 C 438.348 4.4005 0.0664737 0
M  V30 4516 H 435.467 0.725107 -0.131869 0
M  V30 4517 H 438.109 1.6199 -0.992936 0
M  V30 4518 H 436.259 3.88495 0.0198321 0
M  V30 4519 H 437.931 3.81793 -2.58905 0
M  V30 4520 H 436.174 3.55092 -2.49183 0
M  V30 4521 H 436.845 5.12439 -2.05207 0
M  V30 4522 H 439.321 4.14228 -0.394267 0
M  V30 4523 H 438.197 5.48847 -0.0762682 0
M  V30 4524 H 438.458 4.26655 1.15835 0
M  V30 4525 N 437.518 0.538854 1.48102 0
M  V30 4526 C 438.448 -0.207654 2.32575 0
M  V30 4527 C 439.429 -0.926559 1.4265 0
M  V30 4528 O 440.614 -0.91061 1.71527 0
M  V30 4529 C 437.744 -1.24957 3.24042 0
M  V30 4530 C 436.698 -0.648263 4.23062 0
M  V30 4531 C 436.024 -1.79348 5.03725 0
M  V30 4532 C 437.324 0.385897 5.20872 0
M  V30 4533 H 439.018 0.497534 2.95237 0
M  V30 4534 H 436.564 0.240715 1.41974 0
M  V30 4535 H 438.517 -1.77983 3.81969 0
M  V30 4536 H 437.241 -1.98446 2.59397 0
M  V30 4537 H 435.9 -0.139452 3.66335 0
M  V30 4538 H 435.548 -2.51696 4.35498 0
M  V30 4539 H 435.248 -1.39702 5.70751 0
M  V30 4540 H 436.772 -2.32735 5.64506 0
M  V30 4541 H 438.186 -0.057607 5.73271 0
M  V30 4542 H 436.583 0.700227 5.96001 0
M  V30 4543 H 437.653 1.28848 4.67468 0
M  V30 4544 N 438.996 -1.55193 0.274407 0
M  V30 4545 C 440.273 -1.91584 -0.394331 0
M  V30 4546 C 440.653 -1.19858 -1.73774 0
M  V30 4547 O 440.001 -0.3252 -2.26174 0
M  V30 4548 C 440.211 -3.4487 -0.535311 0
M  V30 4549 C 441.559 -4.16636 -0.818534 0
M  V30 4550 O 442.583 -3.5076 -0.620146 0
M  V30 4551 O 441.442 -5.33209 -1.19792 0
M  V30 4552 H 438.536 -0.798349 -0.215794 0
M  V30 4553 H 441.082 -1.66646 0.320507 0
M  V30 4554 H 439.854 -3.89145 0.410141 0
M  V30 4555 H 439.477 -3.75759 -1.29964 0
M  V30 4556 N 440.474 -0.00167713 -1.576 0
M  V30 4557 C 441.714 0.687302 -1.92498 0
M  V30 4558 C 442.078 1.70844 -0.876144 0
M  V30 4559 O 443.279 2.44792 -1.11043 0
M  V30 4560 C 441.55 1.31217 -3.32441 0
M  V30 4561 S 443.109 2.02604 -3.89226 0
M  V30 4562 H 439.927 0.226985 -0.673794 0
M  V30 4563 H 442.529 -0.0587666 -1.95412 0
M  V30 4564 H 441.233 0.556164 -4.06614 0
M  V30 4565 H 440.764 2.09613 -3.32905 0
M  V30 4566 H 442.779 3.30137 -3.70438 0
M  V30 4567 N 441.952 1.55251 0.271103 0
M  V30 4568 C 442.902 1.84649 1.33749 0
M  V30 4569 C 443.886 0.705529 1.44607 0
M  V30 4570 O 445.078 0.966916 1.48256 0
M  V30 4571 C 442.207 2.12354 2.69742 0
M  V30 4572 C 441.293 3.32714 2.62988 0
M  V30 4573 N 441.684 4.52575 2.25853 0
M  V30 4574 C 439.982 3.35341 2.94045 0
M  V30 4575 C 440.683 5.34669 2.29136 0
M  V30 4576 N 439.659 4.73123 2.67685 0
M  V30 4577 H 443.461 2.74865 1.0405 0
M  V30 4578 H 440.975 1.55152 0.479738 0
M  V30 4579 H 442.972 2.31572 3.4667 0
M  V30 4580 H 441.632 1.23422 3.00328 0
M  V30 4581 H 442.643 4.78639 1.978 0
M  V30 4582 H 439.32 2.56608 3.2933 0
M  V30 4583 H 440.71 6.40509 2.02971 0
M  V30 4584 N 443.43 -0.535701 1.48216 0
M  V30 4585 C 444.658 -1.31671 1.59594 0
M  V30 4586 C 445.073 -1.87083 0.254056 0
M  V30 4587 O 444.43 -1.66112 -0.755854 0
M  V30 4588 C 444.481 -2.47158 2.63809 0
M  V30 4589 O 444.202 -1.94032 3.92789 0
M  V30 4590 C 445.703 -3.39062 2.85573 0
M  V30 4591 H 442.923 -0.400623 0.538277 0
M  V30 4592 H 445.467 -0.646827 1.94001 0
M  V30 4593 H 443.622 -3.10043 2.32276 0
M  V30 4594 H 444.036 -2.69585 4.49916 0
M  V30 4595 H 445.51 -4.16459 3.62306 0
M  V30 4596 H 445.987 -3.93941 1.94184 0
M  V30 4597 H 446.593 -2.81975 3.18387 0
M  V30 4598 N 444.908 -1.36708 -0.784132 0
M  V30 4599 C 445.871 -1.31307 -1.87859 0
M  V30 4600 C 446.871 -0.219654 -1.59293 0
M  V30 4601 O 448.061 -0.47476 -1.67606 0
M  V30 4602 C 445.193 -1.03679 -3.24751 0
M  V30 4603 H 446.386 -2.28647 -1.94064 0
M  V30 4604 H 443.939 -1.21558 -0.98252 0
M  V30 4605 H 444.674 -0.0681936 -3.24228 0
M  V30 4606 H 444.459 -1.82811 -3.46876 0
M  V30 4607 H 445.949 -1.02518 -4.04821 0
M  V30 4608 N 446.386 1.0089 -1.21074 0
M  V30 4609 C 447.336 2.0799 -0.934034 0
M  V30 4610 C 448.32 1.60529 0.10919 0
M  V30 4611 O 449.512 1.76722 -0.0992198 0
M  V30 4612 C 446.641 3.39693 -0.496334 0
M  V30 4613 C 445.727 3.93833 -1.57341 0
M  V30 4614 N 446.118 4.21388 -2.7976 0
M  V30 4615 C 444.416 4.22067 -1.44137 0
M  V30 4616 C 445.117 4.65156 -3.49292 0
M  V30 4617 N 444.093 4.67895 -2.76722 0
M  V30 4618 H 447.895 2.27213 -1.86417 0
M  V30 4619 H 445.409 1.18927 -1.10589 0
M  V30 4620 H 447.406 4.15962 -0.279471 0
M  V30 4621 H 446.066 3.21879 0.427084 0
M  V30 4622 H 447.077 4.10061 -3.1634 0
M  V30 4623 H 443.754 4.1341 -0.582947 0
M  V30 4624 H 445.144 4.95231 -4.54088 0
M  V30 4625 N 447.864 1.01787 1.20321 0
M  V30 4626 C 449.113 0.703249 1.89043 0
M  V30 4627 C 449.426 -0.770445 1.79787 0
M  V30 4628 O 450.632 -1.19767 2.43656 0
M  V30 4629 C 449.088 1.20749 3.3904 0
M  V30 4630 C 448.696 2.70817 3.56878 0
M  V30 4631 C 450.44 0.968352 4.13308 0
M  V30 4632 C 448.347 3.14716 5.00708 0
M  V30 4633 H 447.277 0.259354 0.707991 0
M  V30 4634 H 449.928 1.23072 1.36108 0
M  V30 4635 H 448.31 0.607989 3.91305 0
M  V30 4636 H 449.484 3.36327 3.14993 0
M  V30 4637 H 447.799 2.92888 2.95983 0
M  V30 4638 H 450.396 1.27173 5.19356 0
M  V30 4639 H 450.739 -0.095149 4.16191 0
M  V30 4640 H 451.272 1.53129 3.67146 0
M  V30 4641 H 448.011 4.20347 5.02979 0
M  V30 4642 H 447.531 2.53927 5.43398 0
M  V30 4643 H 449.21 3.07426 5.69296 0
M  V30 4644 N 449.342 -1.36122 0.79427 0
M  V30 4645 C 450.305 -2.28309 0.201889 0
M  V30 4646 C 451.305 -1.49041 -0.603603 0
M  V30 4647 O 452.495 -1.68964 -0.423888 0
M  V30 4648 C 449.627 -3.3321 -0.719978 0
M  V30 4649 H 450.82 -2.82208 1.01481 0
M  V30 4650 H 448.373 -1.45768 0.564037 0
M  V30 4651 H 449.108 -2.84475 -1.55706 0
M  V30 4652 H 448.893 -3.91835 -0.144266 0
M  V30 4653 H 450.383 -4.02044 -1.12916 0
M  V30 4654 N 450.82 -0.546701 -1.47814 0
M  V30 4655 C 452.06 -0.0209604 -2.04389 0
M  V30 4656 C 452.424 1.29993 -1.413 0
M  V30 4657 O 453.625 1.91273 -1.8886 0
M  V30 4658 C 451.896 0.0812844 -3.57308 0
M  V30 4659 S 453.455 0.55467 -4.3528 0
M  V30 4660 H 450.273 -0.0200865 -0.710716 0
M  V30 4661 H 452.875 -0.731055 -1.81317 0
M  V30 4662 H 451.579 -0.884616 -4.00753 0
M  V30 4663 H 451.11 0.815253 -3.8486 0
M  V30 4664 H 453.125 1.81627 -4.61764 0
M  V30 4665 N 452.299 1.55045 -0.282633 0
M  V30 4666 C 453.246 2.22822 0.601566 0
M  V30 4667 C 454.216 1.20431 1.14392 0
M  V30 4668 O 455.401 1.48996 1.19184 0
M  V30 4669 C 452.541 2.95873 1.77632 0
M  V30 4670 C 451.654 4.12999 1.26711 0
M  V30 4671 C 450.789 4.73676 2.40426 0
M  V30 4672 C 449.828 5.82981 1.86545 0
M  V30 4673 N 448.965 6.3769 2.93762 0
M  V30 4674 H 453.805 2.97995 0.0169528 0
M  V30 4675 H 451.342 1.471 -0.00339964 0
M  V30 4676 H 453.3 3.36447 2.46697 0
M  V30 4677 H 451.93 2.2311 2.33285 0
M  V30 4678 H 450.982 3.77494 0.469314 0
M  V30 4679 H 452.294 4.91803 0.832518 0
M  V30 4680 H 451.448 5.17008 3.17471 0
M  V30 4681 H 450.187 3.94164 2.87203 0
M  V30 4682 H 449.192 5.39092 1.07983 0
M  V30 4683 H 450.417 6.64366 1.40694 0
M  V30 4684 H 448.363 5.61069 3.39908 0
M  V30 4685 H 448.28 7.11788 2.54744 0
M  V30 4686 H 449.548 6.8568 3.7076 0
M  V30 4687 N 453.777 0.010035 1.57597 0
M  V30 4688 C 455.024 -0.6727 1.91 0
M  V30 4689 C 455.352 -1.73219 0.884614 0
M  V30 4690 O 454.607 -1.95395 -0.109215 0
M  V30 4691 C 454.906 -1.34434 3.31153 0
M  V30 4692 C 454.572 -0.417083 4.48967 0
M  V30 4693 C 453.234 -0.161809 4.80928 0
M  V30 4694 C 455.586 0.220753 5.20732 0
M  V30 4695 C 452.914 0.739426 5.82022 0
M  V30 4696 C 455.266 1.10993 6.22787 0
M  V30 4697 C 453.93 1.37428 6.532 0
M  V30 4698 H 453.2 -0.246158 0.698918 0
M  V30 4699 H 455.847 0.0677145 1.9138 0
M  V30 4700 H 454.152 -2.15905 3.26944 0
M  V30 4701 H 455.849 -1.87883 3.54261 0
M  V30 4702 H 452.439 -0.626217 4.24001 0
M  V30 4703 H 456.623 0.0365643 4.96287 0
M  V30 4704 H 451.879 0.952139 6.03941 0
M  V30 4705 H 456.053 1.61046 6.77523 0
M  V30 4706 H 453.68 2.0743 7.31353 0
M  V30 4707 N 455.255 -1.55392 -0.262866 0
M  V30 4708 C 456.218 -1.88181 -1.30846 0
M  V30 4709 C 457.218 -0.757079 -1.41862 0
M  V30 4710 O 458.408 -1.02519 -1.40838 0
M  V30 4711 C 455.54 -2.09609 -2.68844 0
M  V30 4712 H 456.733 -2.81659 -1.02997 0
M  V30 4713 H 454.286 -1.48039 -0.501414 0
M  V30 4714 H 455.021 -1.18547 -3.01856 0
M  V30 4715 H 454.806 -2.91508 -2.62231 0
M  V30 4716 H 456.296 -2.36215 -3.44372 0
M  V30 4717 N 456.733 0.527833 -1.48498 0
M  V30 4718 C 457.643 1.65907 -1.65867 0
M  V30 4719 C 458.659 1.6537 -0.541192 0
M  V30 4720 O 459.835 1.84282 -0.812534 0
M  V30 4721 C 456.9 3.02364 -1.69637 0
M  V30 4722 C 455.961 3.1374 -2.93028 0
M  V30 4723 C 455.194 4.43688 -2.96609 0
M  V30 4724 O 455.417 5.30913 -2.08538 0
M  V30 4725 O 454.351 4.59475 -3.88802 0
M  V30 4726 H 458.177 1.5419 -2.61647 0
M  V30 4727 H 455.762 0.701163 -1.31924 0
M  V30 4728 H 457.644 3.83515 -1.74625 0
M  V30 4729 H 456.319 3.14401 -0.770312 0
M  V30 4730 H 455.226 2.31877 -2.93571 0
M  V30 4731 H 456.559 3.06621 -3.85026 0
M  V30 4732 N 458.211 1.37122 0.776871 0
M  V30 4733 C 459.141 1.35164 1.90402 0
M  V30 4734 C 460.122 0.221069 1.68657 0
M  V30 4735 O 461.307 0.420642 1.8959 0
M  V30 4736 C 458.437 1.15274 3.27611 0
M  V30 4737 C 457.391 2.25289 3.63908 0
M  V30 4738 C 456.717 1.90527 4.99603 0
M  V30 4739 C 458.017 3.67446 3.71188 0
M  V30 4740 H 459.711 2.29482 1.92297 0
M  V30 4741 H 457.257 1.10465 0.923773 0
M  V30 4742 H 459.21 1.12536 4.06096 0
M  V30 4743 H 457.934 0.174102 3.26136 0
M  V30 4744 H 456.593 2.27174 2.87728 0
M  V30 4745 H 456.241 0.91206 4.94662 0
M  V30 4746 H 455.941 2.64193 5.24858 0
M  V30 4747 H 457.465 1.89367 5.80493 0
M  V30 4748 H 458.879 3.67719 4.39836 0
M  V30 4749 H 457.276 4.40123 4.07936 0
M  V30 4750 H 458.346 4.01443 2.71977 0
M  V30 4751 N 459.689 -1.00246 1.21608 0
M  V30 4752 C 460.636 -2.09073 0.977613 0
M  V30 4753 C 461.606 -1.65815 -0.097297 0
M  V30 4754 O 462.791 -1.90734 0.0503445 0
M  V30 4755 C 459.931 -3.40671 0.551133 0
M  V30 4756 C 459.044 -3.97326 1.69576 0
M  V30 4757 C 458.179 -5.17043 1.2182 0
M  V30 4758 C 457.218 -5.65813 2.335 0
M  V30 4759 N 456.355 -6.76778 1.86859 0
M  V30 4760 H 461.195 -2.28806 1.90924 0
M  V30 4761 H 458.732 -1.12186 0.951452 0
M  V30 4762 H 460.69 -4.16225 0.285097 0
M  V30 4763 H 459.32 -3.20967 -0.343489 0
M  V30 4764 H 458.372 -3.18734 2.07637 0
M  V30 4765 H 459.684 -4.29511 2.53617 0
M  V30 4766 H 458.838 -5.99852 0.908975 0
M  V30 4767 H 457.577 -4.86458 0.347869 0
M  V30 4768 H 456.582 -4.81599 2.65222 0
M  V30 4769 H 457.807 -5.98427 3.21033 0
M  V30 4770 H 455.753 -6.47994 1.02174 0
M  V30 4771 H 455.67 -7.08231 2.64471 0
M  V30 4772 H 456.938 -7.63116 1.58978 0
M  V30 4773 N 461.167 -1.02423 -1.1978 0
M  V30 4774 C 462.077 -0.610919 -2.26506 0
M  V30 4775 C 463.093 0.355152 -1.70337 0
M  V30 4776 O 464.269 0.214195 -2.00258 0
M  V30 4777 C 461.334 0.0365921 -3.46681 0
M  V30 4778 C 460.395 -0.976389 -4.18049 0
M  V30 4779 C 459.628 -0.359683 -5.32487 0
M  V30 4780 O 459.851 0.838601 -5.64202 0
M  V30 4781 O 458.785 -1.08022 -5.92127 0
M  V30 4782 H 462.611 -1.49965 -2.64091 0
M  V30 4783 H 460.196 -0.794156 -1.26545 0
M  V30 4784 H 462.078 0.39786 -4.19518 0
M  V30 4785 H 460.753 0.899398 -3.10954 0
M  V30 4786 H 459.66 -1.38916 -3.47352 0
M  V30 4787 H 460.993 -1.80941 -4.57735 0
M  V30 4788 N 462.645 1.35699 -0.801477 0
M  V30 4789 C 463.592 2.29876 -0.206294 0
M  V30 4790 C 464.562 1.52565 0.656752 0
M  V30 4791 O 465.747 1.81024 0.602906 0
M  V30 4792 C 462.887 3.39052 0.643272 0
M  V30 4793 C 462 4.31335 -0.239644 0
M  V30 4794 C 461.135 5.27599 0.61744 0
M  V30 4795 C 460.174 6.11521 -0.26619 0
M  V30 4796 N 459.311 6.99938 0.550571 0
M  V30 4797 H 464.151 2.80187 -1.01484 0
M  V30 4798 H 461.688 1.37902 -0.511997 0
M  V30 4799 H 463.646 4.0101 1.15094 0
M  V30 4800 H 462.276 2.9003 1.41713 0
M  V30 4801 H 461.328 3.70426 -0.865381 0
M  V30 4802 H 462.64 4.90243 -0.919985 0
M  V30 4803 H 461.794 5.94906 1.19045 0
M  V30 4804 H 460.533 4.69176 1.33137 0
M  V30 4805 H 459.538 5.43166 -0.851507 0
M  V30 4806 H 460.763 6.72022 -0.9779 0
M  V30 4807 H 458.709 6.44008 1.24856 0
M  V30 4808 H 458.626 7.55966 -0.071832 0
M  V30 4809 H 459.894 7.71599 1.10702 0
M  V30 4810 N 464.123 0.554532 1.47522 0
M  V30 4811 C 465.372 0.0273458 2.01681 0
M  V30 4812 C 465.685 -1.32962 1.43459 0
M  V30 4813 O 466.891 -1.94657 1.89265 0
M  V30 4814 C 465.347 -0.00159057 3.599 0
M  V30 4815 C 464.955 1.35197 4.27113 0
M  V30 4816 C 466.699 -0.476311 4.21819 0
M  V30 4817 C 464.606 1.28229 5.77331 0
M  V30 4818 H 463.536 0.00645269 0.753972 0
M  V30 4819 H 466.187 0.701985 1.69542 0
M  V30 4820 H 464.569 -0.741821 3.8899 0
M  V30 4821 H 465.743 2.1097 4.09668 0
M  V30 4822 H 464.058 1.76441 3.77171 0
M  V30 4823 H 466.655 -0.5468 5.31897 0
M  V30 4824 H 466.998 -1.4877 3.8881 0
M  V30 4825 H 467.531 0.20898 3.97251 0
M  V30 4826 H 464.27 2.26959 6.14955 0
M  V30 4827 H 463.79 0.566314 5.97121 0
M  V30 4828 H 465.469 0.983226 6.39485 0
M  V30 4829 N 465.601 -1.54893 0.290851 0
M  V30 4830 C 466.878 -1.91991 -0.373989 0
M  V30 4831 C 467.258 -1.21694 -1.72493 0
M  V30 4832 O 466.606 -0.34917 -2.25816 0
M  V30 4833 C 466.816 -3.45419 -0.498703 0
M  V30 4834 C 468.164 -4.1748 -0.774298 0
M  V30 4835 O 469.188 -3.51398 -0.582908 0
M  V30 4836 O 468.047 -5.3445 -1.14129 0
M  V30 4837 H 465.141 -0.800593 -0.207315 0
M  V30 4838 H 467.687 -1.66297 0.338164 0
M  V30 4839 H 466.459 -3.88688 0.451392 0
M  V30 4840 H 466.082 -3.77117 -1.25972 0
M  V30 4841 N 467.08 -0.0183926 -1.57589 0
M  V30 4842 C 468.496 0.337897 -1.55982 0
M  V30 4843 C 468.696 1.73604 -1.02294 0
M  V30 4844 O 467.752 2.43589 -0.664895 0
M  V30 4845 C 469.065 0.196305 -3.00059 0
M  V30 4846 C 470.613 0.269875 -3.11834 0
M  V30 4847 C 471.088 0.157197 -4.5773 0
M  V30 4848 N 472.579 0.214521 -4.62703 0
M  V30 4849 C 473.314 0.150955 -5.73201 0
M  V30 4850 N 472.81 0.0369212 -6.9279 0
M  V30 4851 N 474.603 0.204162 -5.61729 0
M  V30 4852 H 466.754 -0.93279 -1.90821 0
M  V30 4853 H 469.017 -0.359253 -0.877292 0
M  V30 4854 H 468.723 -0.766383 -3.43248 0
M  V30 4855 H 468.597 0.970908 -3.6449 0
M  V30 4856 H 470.984 1.22302 -2.68563 0
M  V30 4857 H 471.065 -0.534918 -2.50144 0
M  V30 4858 H 470.709 -0.792479 -5.01679 0
M  V30 4859 H 470.639 0.980717 -5.17387 0
M  V30 4860 H 473.13 0.303238 -3.76681 0
M  V30 4861 H 473.443 -0.00518321 -7.728 0
M  V30 4862 H 471.788 0.0022886 -6.95 0
M  V30 4863 H 474.979 0.291575 -4.67191 0
M  V30 4864 H 475.152 0.15116 -6.47824 0
M  V30 4865 N 468.558 1.5553 0.254621 0
M  V30 4866 C 469.974 1.4778 0.602753 0
M  V30 4867 C 470.174 0.707047 1.88688 0
M  V30 4868 O 469.23 0.233288 2.5142 0
M  V30 4869 C 470.543 2.92133 0.712648 0
M  V30 4870 C 472.091 3.02458 0.805488 0
M  V30 4871 C 472.566 4.48102 0.947009 0
M  V30 4872 N 474.057 4.52008 1.01207 0
M  V30 4873 C 474.792 5.61939 1.1407 0
M  V30 4874 N 474.288 6.81697 1.23536 0
M  V30 4875 N 476.081 5.49719 1.17325 0
M  V30 4876 H 468.232 2.04085 -0.588463 0
M  V30 4877 H 470.495 0.926229 -0.202001 0
M  V30 4878 H 470.201 3.51332 -0.160766 0
M  V30 4879 H 470.075 3.42187 1.58707 0
M  V30 4880 H 472.462 2.43344 1.66936 0
M  V30 4881 H 472.543 2.55627 -0.0939266 0
M  V30 4882 H 472.187 5.07824 0.087725 0
M  V30 4883 H 472.117 4.92607 1.86135 0
M  V30 4884 H 474.608 3.65749 0.950577 0
M  V30 4885 H 474.921 7.61228 1.33236 0
M  V30 4886 H 473.266 6.84473 1.20508 0
M  V30 4887 H 476.457 4.55095 1.09573 0
M  V30 4888 H 476.63 6.35432 1.27005 0
M  V30 4889 N 470.036 -0.519951 1.48776 0
M  V30 4890 C 471.261 -1.30447 1.6124 0
M  V30 4891 C 471.686 -1.86055 0.276591 0
M  V30 4892 O 471.044 -1.64915 -0.753183 0
M  V30 4893 C 471.092 -2.42406 2.66967 0
M  V30 4894 O 470.196 -3.45728 2.24824 0
M  V30 4895 H 469.537 -0.385924 0.540332 0
M  V30 4896 H 472.067 -0.624572 1.94834 0
M  V30 4897 H 472.077 -2.88447 2.88552 0
M  V30 4898 H 470.752 -2.01294 3.63941 0
M  V30 4899 H 469.329 -3.05737 2.13494 0
M  V30 4900 N 471.514 -1.37532 -0.769588 0
M  V30 4901 C 472.762 -1.32597 -1.5252 0
M  V30 4902 C 473.083 0.0884294 -1.94799 0
M  V30 4903 O 472.353 1.03289 -1.66458 0
M  V30 4904 H 470.933 -0.487846 -0.565699 0
M  V30 4905 H 473.595 -1.72044 -0.915806 0
M  V30 4906 H 472.691 -1.96643 -2.42359 0
M  V30 4907 N 472.992 0.995999 -1.22138 0
M  V30 4908 C 473.939 2.08551 -0.988687 0
M  V30 4909 C 474.909 1.65864 0.0885021 0
M  V30 4910 O 476.094 1.90704 -0.0604589 0
M  V30 4911 C 473.234 3.40374 -0.569191 0
M  V30 4912 C 472.347 3.96421 -1.71681 0
M  V30 4913 C 471.482 5.1639 -1.2456 0
M  V30 4914 C 470.521 5.64567 -2.36497 0
M  V30 4915 N 469.658 6.75777 -1.90445 0
M  V30 4916 H 474.498 2.2779 -1.92135 0
M  V30 4917 H 472.035 1.1168 -0.957388 0
M  V30 4918 H 473.993 4.16068 -0.307166 0
M  V30 4919 H 472.623 3.21145 0.326462 0
M  V30 4920 H 471.675 3.17628 -2.09324 0
M  V30 4921 H 472.987 4.2816 -2.55891 0
M  V30 4922 H 472.141 5.99362 -0.940774 0
M  V30 4923 H 470.88 4.86266 -0.373662 0
M  V30 4924 H 469.885 4.80185 -2.67772 0
M  V30 4925 H 471.11 5.96716 -3.24202 0
M  V30 4926 H 469.056 6.47443 -1.05609 0
M  V30 4927 H 468.973 7.06818 -2.68223 0
M  V30 4928 H 470.241 7.62262 -1.63022 0
M  V30 4929 N 474.47 1.03057 1.19235 0
M  V30 4930 C 475.417 0.612832 2.22515 0
M  V30 4931 C 476.387 -0.374224 1.61829 0
M  V30 4932 O 477.572 -0.270501 1.88873 0
M  V30 4933 C 474.712 -0.028475 3.45088 0
M  V30 4934 C 473.825 1.00483 4.20151 0
M  V30 4935 C 472.96 0.333102 5.30155 0
M  V30 4936 C 471.999 1.3522 5.96977 0
M  V30 4937 N 471.136 0.70616 6.9854 0
M  V30 4938 H 475.976 1.49812 2.57605 0
M  V30 4939 H 473.513 0.749658 1.26564 0
M  V30 4940 H 475.471 -0.417548 4.15105 0
M  V30 4941 H 474.101 -0.877334 3.10649 0
M  V30 4942 H 473.153 1.51194 3.49062 0
M  V30 4943 H 474.465 1.77929 4.65986 0
M  V30 4944 H 473.619 -0.110725 6.06599 0
M  V30 4945 H 472.358 -0.473547 4.85396 0
M  V30 4946 H 471.363 1.80627 5.19282 0
M  V30 4947 H 472.588 2.16037 6.4382 0
M  V30 4948 H 470.534 -0.0803667 6.55951 0
M  V30 4949 H 470.451 1.41848 7.42573 0
M  V30 4950 H 471.719 0.286391 7.78974 0
M  V30 4951 N 475.948 -1.35272 0.808662 0
M  V30 4952 C 476.878 -2.32315 0.234981 0
M  V30 4953 C 477.859 -1.57572 -0.64071 0
M  V30 4954 O 479.044 -1.8563 -0.570551 0
M  V30 4955 C 476.174 -3.41801 -0.615601 0
M  V30 4956 C 475.128 -4.27694 0.161767 0
M  V30 4957 C 474.454 -5.28519 -0.810649 0
M  V30 4958 C 475.754 -5.04231 1.36193 0
M  V30 4959 H 477.448 -2.80543 1.04575 0
M  V30 4960 H 474.994 -1.3488 0.504315 0
M  V30 4961 H 476.947 -4.08693 -1.02702 0
M  V30 4962 H 475.671 -2.92186 -1.45928 0
M  V30 4963 H 474.33 -3.62384 0.554382 0
M  V30 4964 H 473.978 -4.75171 -1.64988 0
M  V30 4965 H 473.678 -5.8686 -0.294822 0
M  V30 4966 H 475.202 -5.98283 -1.22023 0
M  V30 4967 H 476.616 -5.64058 1.02528 0
M  V30 4968 H 475.013 -5.72077 1.81239 0
M  V30 4969 H 476.083 -4.34753 2.14751 0
M  V30 4970 N 477.426 -0.562348 -1.47226 0
M  V30 4971 C 478.336 0.185466 -2.33866 0
M  V30 4972 C 479.352 0.906713 -1.48508 0
M  V30 4973 O 480.528 0.874458 -1.81425 0
M  V30 4974 C 477.593 1.19904 -3.25306 0
M  V30 4975 C 476.654 0.484669 -4.26555 0
M  V30 4976 C 475.887 1.44996 -5.13626 0
M  V30 4977 O 476.11 2.68515 -5.03245 0
M  V30 4978 O 475.044 0.971642 -5.94006 0
M  V30 4979 H 478.87 -0.525361 -2.99121 0
M  V30 4980 H 476.455 -0.322916 -1.45868 0
M  V30 4981 H 478.337 1.78399 -3.81774 0
M  V30 4982 H 477.012 1.8917 -2.62672 0
M  V30 4983 H 475.919 -0.141605 -3.73832 0
M  V30 4984 H 477.252 -0.166634 -4.91918 0
M  V30 4985 N 478.904 1.54736 -0.299062 0
M  V30 4986 C 480.181 1.92187 0.363802 0
M  V30 4987 C 480.561 1.22607 1.71845 0
M  V30 4988 O 479.909 0.361141 2.25628 0
M  V30 4989 C 480.119 3.45678 0.480377 0
M  V30 4990 C 481.467 4.17885 0.752147 0
M  V30 4991 O 482.491 3.51702 0.564264 0
M  V30 4992 O 481.35 5.35048 1.11294 0
M  V30 4993 H 478.444 0.801681 0.203066 0
M  V30 4994 H 480.99 1.66115 -0.346978 0
M  V30 4995 H 479.762 3.88443 -0.471999 0
M  V30 4996 H 479.385 3.77779 1.2397 0
M  V30 4997 N 480.382 0.0267497 1.57577 0
M  V30 4998 C 481.63 -0.651116 1.91324 0
M  V30 4999 C 481.951 -1.72804 0.90353 0
M  V30 5000 O 481.221 -1.95822 -0.0552946 0
M  V30 5001 H 479.801 -0.243491 0.706202 0
M  V30 5002 H 482.463 0.0739935 1.94759 0
M  V30 5003 H 481.559 -1.10536 2.9187 0
M  V30 5004 N 481.861 -1.55662 -0.24637 0
M  V30 5005 C 483.272 -1.67953 -0.81539 0
M  V30 5006 C 483.623 -0.624302 -1.86002 0
M  V30 5007 O 482.748 0.229328 -2.15181 0
M  V30 5008 C 483.343 -3.04484 -1.48576 0
M  V30 5009 C 481.902 -3.18713 -2.00248 0
M  V30 5010 C 481.049 -2.6383 -0.853766 0
M  V30 5011 H 484 -1.58685 -0.0221692 0
M  V30 5012 H 484.021 -2.98959 -2.3538 0
M  V30 5013 H 483.533 -3.81264 -0.725222 0
M  V30 5014 H 481.634 -2.46757 -2.79181 0
M  V30 5015 H 481.747 -4.25628 -2.1995 0
M  V30 5016 H 480.111 -2.21667 -1.25442 0
M  V30 5017 H 480.894 -3.43135 -0.106302 0
M  V30 5018 N 483.339 0.512053 -1.4905 0
M  V30 5019 C 484.286 1.6148 -1.64902 0
M  V30 5020 C 485.256 1.58687 -0.490673 0
M  V30 5021 O 486.441 1.76842 -0.71636 0
M  V30 5022 C 483.581 2.99676 -1.71139 0
M  V30 5023 C 482.694 3.12568 -2.98203 0
M  V30 5024 C 481.829 4.4143 -2.95487 0
M  V30 5025 C 480.868 4.47916 -4.17179 0
M  V30 5026 N 480.005 5.68191 -4.12437 0
M  V30 5027 H 484.845 1.47271 -2.59066 0
M  V30 5028 H 482.382 0.716713 -1.28459 0
M  V30 5029 H 484.34 3.79761 -1.72736 0
M  V30 5030 H 482.97 3.12614 -0.804508 0
M  V30 5031 H 482.022 2.25618 -3.06269 0
M  V30 5032 H 483.334 3.1322 -3.88194 0
M  V30 5033 H 482.488 5.29825 -2.95585 0
M  V30 5034 H 481.227 4.43326 -2.03256 0
M  V30 5035 H 480.232 3.57925 -4.17337 0
M  V30 5036 H 481.457 4.47744 -5.1059 0
M  V30 5037 H 479.403 5.7095 -3.23036 0
M  V30 5038 H 479.32 5.70413 -4.96151 0
M  V30 5039 H 480.588 6.58823 -4.16621 0
M  V30 5040 N 484.817 1.37938 0.762283 0
M  V30 5041 C 486.064 1.33668 1.52115 0
M  V30 5042 C 486.392 -0.0759538 1.94352 0
M  V30 5043 O 485.647 -1.05121 1.6507 0
M  V30 5044 C 485.946 2.23042 2.79261 0
M  V30 5045 C 485.612 3.71159 2.56031 0
M  V30 5046 C 484.274 4.11523 2.49404 0
M  V30 5047 C 486.626 4.64955 2.35513 0
M  V30 5048 C 483.954 5.43784 2.20263 0
M  V30 5049 C 486.306 5.97464 2.07894 0
M  V30 5050 C 484.97 6.36922 1.99718 0
M  V30 5051 H 484.24 0.489127 0.556629 0
M  V30 5052 H 486.887 1.70224 0.877262 0
M  V30 5053 H 485.192 1.79512 3.48256 0
M  V30 5054 H 486.889 2.17047 3.37182 0
M  V30 5055 H 483.479 3.39153 2.62056 0
M  V30 5056 H 487.663 4.34623 2.39617 0
M  V30 5057 H 482.919 5.73307 2.12435 0
M  V30 5058 H 487.093 6.6969 1.91019 0
M  V30 5059 H 484.72 7.39331 1.76902 0
M  V30 5060 N 486.295 -0.989507 1.22664 0
M  V30 5061 C 487.225 -2.09847 1.02404 0
M  V30 5062 C 488.206 -1.70007 -0.0561303 0
M  V30 5063 O 489.391 -1.93906 0.106748 0
M  V30 5064 C 486.521 -3.41996 0.604663 0
M  V30 5065 C 485.475 -3.95699 1.63115 0
M  V30 5066 C 484.801 -5.23936 1.0675 0
M  V30 5067 C 486.101 -4.25999 3.02196 0
M  V30 5068 H 487.795 -2.27054 1.95158 0
M  V30 5069 H 485.341 -1.09111 0.939727 0
M  V30 5070 H 487.294 -4.1899 0.45002 0
M  V30 5071 H 486.018 -3.24626 -0.35855 0
M  V30 5072 H 484.677 -3.2084 1.77362 0
M  V30 5073 H 484.325 -5.02909 0.0955422 0
M  V30 5074 H 484.025 -5.60833 1.75328 0
M  V30 5075 H 485.549 -6.0356 0.924516 0
M  V30 5076 H 486.963 -4.93777 2.91303 0
M  V30 5077 H 485.36 -4.74076 3.67929 0
M  V30 5078 H 486.43 -3.33636 3.51873 0
M  V30 5079 N 487.773 -1.03688 -1.18687 0
M  V30 5080 C 488.72 -0.624624 -2.22187 0
M  V30 5081 C 489.69 0.365636 -1.62026 0
M  V30 5082 O 490.875 0.260481 -1.89014 0
M  V30 5083 C 488.015 0.0101738 -3.45099 0
M  V30 5084 C 487.128 -1.02709 -4.19613 0
M  V30 5085 C 486.263 -0.361213 -5.2997 0
M  V30 5086 C 485.302 -1.38384 -5.96252 0
M  V30 5087 N 484.439 -0.743196 -6.98155 0
M  V30 5088 H 489.279 -1.51176 -2.56807 0
M  V30 5089 H 486.816 -0.75636 -1.26165 0
M  V30 5090 H 488.774 0.395528 -4.15321 0
M  V30 5091 H 487.404 0.860848 -3.1111 0
M  V30 5092 H 486.456 -1.53043 -3.48256 0
M  V30 5093 H 487.768 -1.80398 -4.65036 0
M  V30 5094 H 486.922 0.0785537 -6.06649 0
M  V30 5095 H 485.661 0.447799 -4.8564 0
M  V30 5096 H 484.666 -1.83378 -5.18317 0
M  V30 5097 H 485.891 -2.19448 -6.42666 0
M  V30 5098 H 483.837 0.0455789 -6.55984 0
M  V30 5099 H 483.754 -1.45784 -7.41811 0
M  V30 5100 H 485.022 -0.327698 -7.78811 0
M  V30 5101 N 489.251 1.34841 -0.815825 0
M  V30 5102 C 490.476 2.03261 -0.41226 0
M  V30 5103 C 490.901 1.61055 0.971751 0
M  V30 5104 O 490.259 0.7917 1.63101 0
M  V30 5105 C 490.307 3.56914 -0.514289 0
M  V30 5106 O 489.411 4.09728 0.468675 0
M  V30 5107 H 488.752 0.641664 -0.170771 0
M  V30 5108 H 491.282 1.72241 -1.10427 0
M  V30 5109 H 491.292 4.06156 -0.387457 0
M  V30 5110 H 489.967 3.86982 -1.52375 0
M  V30 5111 H 488.544 3.71681 0.301316 0
M  V30 5112 N 490.729 0.570148 1.46925 0
M  V30 5113 C 491.977 0.0508523 2.02036 0
M  V30 5114 C 492.298 -1.30885 1.44548 0
M  V30 5115 O 491.568 -1.85647 0.625453 0
M  V30 5116 H 490.148 0.0158088 0.746833 0
M  V30 5117 H 492.81 0.743086 1.80178 0
M  V30 5118 H 491.906 -0.027575 3.12088 0
M  V30 5119 N 492.207 -1.54576 0.307264 0
M  V30 5120 C 493.484 -1.92377 -0.353605 0
M  V30 5121 C 493.864 -1.23517 -1.71192 0
M  V30 5122 O 493.212 -0.373101 -2.25433 0
M  V30 5123 C 493.422 -3.45928 -0.462039 0
M  V30 5124 C 494.77 -4.18278 -0.729975 0
M  V30 5125 O 495.794 -3.51997 -0.545605 0
M  V30 5126 O 494.653 -5.3563 -1.08454 0
M  V30 5127 H 491.747 -0.802747 -0.198812 0
M  V30 5128 H 494.293 -1.65929 0.355783 0
M  V30 5129 H 493.065 -3.88187 0.492592 0
M  V30 5130 H 492.688 -3.78431 -1.21965 0
M  V30 5131 N 493.685 -0.035106 -1.57561 0
M  V30 5132 C 494.648 0.929819 -2.09492 0
M  V30 5133 C 495.648 1.25026 -1.01119 0
M  V30 5134 O 496.838 1.18961 -1.27255 0
M  V30 5135 C 493.97 2.24457 -2.56577 0
M  V30 5136 H 495.163 0.479935 -2.96035 0
M  V30 5137 H 492.716 0.213033 -1.54841 0
M  V30 5138 H 493.451 2.74061 -1.73382 0
M  V30 5139 H 493.236 2.02508 -3.35757 0
M  V30 5140 H 494.726 2.93607 -2.96959 0
M  V30 5141 N 495.163 1.55791 0.238111 0
M  V30 5142 C 496.126 1.90239 1.27835 0
M  V30 5143 C 497.126 0.779552 1.4064 0
M  V30 5144 O 498.316 1.04747 1.3919 0
M  V30 5145 C 495.448 2.13859 2.65475 0
M  V30 5146 H 496.641 2.83262 0.985034 0
M  V30 5147 H 494.194 1.48818 0.477799 0
M  V30 5148 H 494.929 1.23334 2.99932 0
M  V30 5149 H 494.714 2.95643 2.57561 0
M  V30 5150 H 496.204 2.41664 3.40571 0
M  V30 5151 N 496.642 -0.504142 1.49319 0
M  V30 5152 C 497.891 -1.25507 1.57895 0
M  V30 5153 C 498.204 -1.93735 0.269433 0
M  V30 5154 O 499.41 -2.70492 0.233706 0
M  V30 5155 C 497.866 -2.27869 2.78574 0
M  V30 5156 C 497.474 -1.65594 4.16272 0
M  V30 5157 C 499.218 -3.0381 2.96479 0
M  V30 5158 C 497.125 -2.66048 5.28178 0
M  V30 5159 H 496.055 -0.47212 0.587894 0
M  V30 5160 H 498.706 -0.52931 1.757 0
M  V30 5161 H 497.088 -3.03594 2.54257 0
M  V30 5162 H 498.262 -0.958826 4.50714 0
M  V30 5163 H 496.577 -1.02055 4.037 0
M  V30 5164 H 499.174 -3.78925 3.77253 0
M  V30 5165 H 499.517 -3.61235 2.06918 0
M  V30 5166 H 500.05 -2.352 3.20821 0
M  V30 5167 H 496.789 -2.13408 6.19788 0
M  V30 5168 H 496.309 -3.34009 4.98195 0
M  V30 5169 H 497.988 -3.28536 5.57381 0
M  V30 5170 N 498.12 -1.38341 -0.754957 0
M  V30 5171 C 499.366 -1.34672 -1.51628 0
M  V30 5172 C 499.699 0.0636036 -1.94096 0
M  V30 5173 O 498.974 1.0245 -1.6533 0
M  V30 5174 C 499.257 -2.30116 -2.76981 0
M  V30 5175 C 499.11 -3.80003 -2.4066 0
M  V30 5176 C 500.429 -2.23715 -3.78998 0
M  V30 5177 H 497.548 -0.490517 -0.550056 0
M  V30 5178 H 500.19 -1.69178 -0.864807 0
M  V30 5179 H 498.34 -2.00821 -3.3257 0
M  V30 5180 H 500.012 -4.19966 -1.90856 0
M  V30 5181 H 498.255 -3.97751 -1.73137 0
M  V30 5182 H 498.926 -4.42244 -3.30339 0
M  V30 5183 H 501.402 -2.49574 -3.32945 0
M  V30 5184 H 500.278 -2.9261 -4.64403 0
M  V30 5185 H 500.539 -1.23554 -4.24484 0
M  V30 5186 N 499.598 0.982988 -1.23187 0
M  V30 5187 C 500.875 1.69814 -0.970707 0
M  V30 5188 C 501.255 2.04811 0.511424 0
M  V30 5189 O 500.603 1.73924 1.48198 0
M  V30 5190 C 500.813 2.94143 -1.87831 0
M  V30 5191 C 502.161 3.66712 -2.14026 0
M  V30 5192 O 503.185 3.04171 -1.8536 0
M  V30 5193 O 502.044 4.79258 -2.62629 0
M  V30 5194 H 499.138 0.741659 -0.365884 0
M  V30 5195 H 501.684 1.03844 -1.34218 0
M  V30 5196 H 500.456 2.64858 -2.88038 0
M  V30 5197 H 500.079 3.6785 -1.50905 0
M  V30 5198 N 501.076 1.04316 1.18135 0
M  V30 5199 C 502.009 0.580823 2.20685 0
M  V30 5200 C 502.987 -0.385943 1.57953 0
M  V30 5201 O 504.171 -0.299654 1.86103 0
M  V30 5202 C 501.298 -0.151162 3.38363 0
M  V30 5203 C 500.344 0.769247 4.19505 0
M  V30 5204 S 501.177 2.25352 4.85774 0
M  V30 5205 C 502.333 1.53246 6.0685 0
M  V30 5206 H 502.566 1.44968 2.5956 0
M  V30 5207 H 500.099 0.85434 1.28609 0
M  V30 5208 H 502.057 -0.567315 4.06561 0
M  V30 5209 H 500.718 -0.995936 2.97892 0
M  V30 5210 H 499.911 0.203335 5.0359 0
M  V30 5211 H 499.513 1.12436 3.56699 0
M  V30 5212 H 501.805 0.82689 6.72435 0
M  V30 5213 H 502.748 2.35044 6.67952 0
M  V30 5214 H 503.156 1.0237 5.5514 0
M  V30 5215 N 502.554 -1.34406 0.822964 0
M  V30 5216 C 503.8 -1.98578 0.411666 0
M  V30 5217 C 504.133 -1.65093 -1.02264 0
M  V30 5218 O 503.408 -0.92258 -1.71227 0
M  V30 5219 C 503.691 -3.54823 0.614235 0
M  V30 5220 C 503.544 -3.9805 2.09466 0
M  V30 5221 C 504.863 -4.40071 0.050221 0
M  V30 5222 H 501.982 -0.721355 0.151047 0
M  V30 5223 H 504.624 -1.59301 1.03554 0
M  V30 5224 H 502.774 -3.88411 0.0831774 0
M  V30 5225 H 504.446 -3.74795 2.68936 0
M  V30 5226 H 502.689 -3.4836 2.5851 0
M  V30 5227 H 503.36 -5.06819 2.18721 0
M  V30 5228 H 505.836 -4.13037 0.503953 0
M  V30 5229 H 504.712 -5.48452 0.221759 0
M  V30 5230 H 504.973 -4.29576 -1.04482 0
M  V30 5231 N 504.032 -0.577932 -1.46621 0
M  V30 5232 C 505.443 -0.150071 -1.86096 0
M  V30 5233 C 505.794 1.28563 -1.48209 0
M  V30 5234 O 504.919 1.97036 -0.894754 0
M  V30 5235 C 505.514 -0.265576 -3.37758 0
M  V30 5236 C 504.073 0.10738 -3.76247 0
M  V30 5237 C 503.22 -0.603711 -2.70649 0
M  V30 5238 H 506.171 -0.786438 -1.37844 0
M  V30 5239 H 506.192 0.510352 -3.77062 0
M  V30 5240 H 505.704 -1.3106 -3.65301 0
M  V30 5241 H 503.805 1.15272 -3.54321 0
M  V30 5242 H 503.918 -0.26561 -4.78363 0
M  V30 5243 H 502.282 -0.0444884 -2.54661 0
M  V30 5244 H 503.065 -1.65029 -3.01032 0
M  V30 5245 N 505.51 1.54411 -0.315457 0
M  V30 5246 C 506.758 2.00023 0.288971 0
M  V30 5247 C 507.079 1.20529 1.5329 0
M  V30 5248 O 506.349 0.304986 1.93511 0
M  V30 5249 H 504.929 0.738891 0.109766 0
M  V30 5250 H 507.591 1.90094 -0.430129 0
M  V30 5251 H 506.687 3.07198 0.550999 0
M  V30 5252 N 506.988 0.0434614 1.5754 0
M  V30 5253 C 507.935 -0.93356 2.11077 0
M  V30 5254 C 508.905 -1.31383 1.01626 0
M  V30 5255 O 510.09 -1.40465 1.29129 0
M  V30 5256 C 507.23 -2.20578 2.65404 0
M  V30 5257 C 506.343 -1.88068 3.88914 0
M  V30 5258 C 505.478 -3.09691 4.31584 0
M  V30 5259 C 504.517 -2.73067 5.47815 0
M  V30 5260 N 503.654 -3.87359 5.85574 0
M  V30 5261 H 508.494 -0.470118 2.94268 0
M  V30 5262 H 506.031 -0.220434 1.45439 0
M  V30 5263 H 507.989 -2.95011 2.94999 0
M  V30 5264 H 506.619 -2.64513 1.85021 0
M  V30 5265 H 505.671 -1.03816 3.6596 0
M  V30 5266 H 506.983 -1.57104 4.73413 0
M  V30 5267 H 506.137 -3.92431 4.62691 0
M  V30 5268 H 504.876 -3.43827 3.45882 0
M  V30 5269 H 503.881 -1.88742 5.16388 0
M  V30 5270 H 505.106 -2.40131 6.35227 0
M  V30 5271 H 503.052 -4.21311 5.02825 0
M  V30 5272 H 502.969 -3.60068 6.64746 0
M  V30 5273 H 504.237 -4.70761 6.21292 0
M  V30 5274 N 508.466 -1.55915 -0.229846 0
M  V30 5275 C 509.877 -1.68809 -0.797531 0
M  V30 5276 C 510.228 -0.643995 -1.8533 0
M  V30 5277 O 509.353 0.206492 -2.15413 0
M  V30 5278 C 509.948 -3.06043 -1.45338 0
M  V30 5279 C 508.507 -3.20819 -1.96856 0
M  V30 5280 C 507.654 -2.6472 -0.825736 0
M  V30 5281 H 510.605 -1.58699 -0.00533733 0
M  V30 5282 H 510.626 -3.01438 -2.32196 0
M  V30 5283 H 510.138 -3.82012 -0.684743 0
M  V30 5284 H 508.239 -2.49704 -2.76548 0
M  V30 5285 H 508.352 -4.27937 -2.15423 0
M  V30 5286 H 506.716 -2.22985 -1.23084 0
M  V30 5287 H 507.499 -3.43229 -0.0699019 0
M  V30 5288 N 509.944 0.496216 -1.49584 0
M  V30 5289 C 510.877 1.61508 -1.61215 0
M  V30 5290 C 511.855 1.55927 -0.461045 0
M  V30 5291 O 513.039 1.75914 -0.677231 0
M  V30 5292 C 510.166 3.00035 -1.57152 0
M  V30 5293 C 509.212 3.23861 -2.77518 0
M  V30 5294 S 510.045 3.06466 -4.39134 0
M  V30 5295 C 511.201 4.4738 -4.37724 0
M  V30 5296 H 511.434 1.51398 -2.55863 0
M  V30 5297 H 508.967 0.681727 -1.38535 0
M  V30 5298 H 510.925 3.7991 -1.55494 0
M  V30 5299 H 509.586 3.07556 -0.637834 0
M  V30 5300 H 508.779 4.25 -2.70908 0
M  V30 5301 H 508.381 2.51716 -2.76614 0
M  V30 5302 H 510.673 5.39556 -4.09738 0
M  V30 5303 H 511.616 4.59038 -5.39156 0
M  V30 5304 H 512.024 4.28283 -3.67742 0
M  V30 5305 N 511.423 1.38739 0.74761 0
M  V30 5306 C 512.663 1.36695 1.51966 0
M  V30 5307 C 513.027 -0.0411889 1.91956 0
M  V30 5308 O 514.228 -0.186543 2.68152 0
M  V30 5309 C 512.499 2.30119 2.73459 0
M  V30 5310 S 514.058 2.4615 3.63257 0
M  V30 5311 H 510.876 0.484929 0.519966 0
M  V30 5312 H 513.478 1.7472 0.877104 0
M  V30 5313 H 512.182 3.31312 2.422 0
M  V30 5314 H 511.713 1.93265 3.42655 0
M  V30 5315 H 513.728 1.69001 4.66533 0
M  V30 5316 N 512.901 -0.976442 1.23707 0
M  V30 5317 C 514.147 -1.72081 1.07312 0
M  V30 5318 C 514.48 -1.90275 -0.388476 0
M  V30 5319 O 513.755 -1.4579 -1.28746 0
M  V30 5320 C 514.038 -3.11675 1.80363 0
M  V30 5321 C 513.891 -3.01027 3.3422 0
M  V30 5322 C 515.21 -4.1117 1.5693 0
M  V30 5323 H 512.329 -0.624583 0.391236 0
M  V30 5324 H 514.971 -1.13649 1.52263 0
M  V30 5325 H 513.121 -3.61559 1.42153 0
M  V30 5326 H 514.793 -2.58637 3.81975 0
M  V30 5327 H 513.036 -2.3744 3.63049 0
M  V30 5328 H 513.707 -3.9988 3.80525 0
M  V30 5329 H 516.183 -3.7011 1.90151 0
M  V30 5330 H 515.059 -5.06928 2.10513 0
M  V30 5331 H 515.32 -4.392 0.505548 0
M  V30 5332 N 514.379 -1.04941 -1.1758 0
M  V30 5333 C 515.289 -0.658826 -2.25159 0
M  V30 5334 C 516.305 0.318941 -1.71052 0
M  V30 5335 O 517.481 0.171669 -2.00667 0
M  V30 5336 C 514.546 -0.0369522 -3.4668 0
M  V30 5337 C 513.607 -1.06484 -4.15884 0
M  V30 5338 C 512.84 -0.472551 -5.31604 0
M  V30 5339 O 513.063 0.718736 -5.65854 0
M  V30 5340 O 511.997 -1.20557 -5.89703 0
M  V30 5341 H 515.823 -1.55533 -2.60851 0
M  V30 5342 H 513.408 -0.820819 -1.24832 0
M  V30 5343 H 515.29 0.308784 -4.20267 0
M  V30 5344 H 513.965 0.833238 -3.12792 0
M  V30 5345 H 512.872 -1.46253 -3.44327 0
M  V30 5346 H 514.205 -1.9061 -4.53794 0
M  V30 5347 N 515.857 1.33968 -0.830081 0
M  V30 5348 C 517.082 2.02813 -0.433796 0
M  V30 5349 C 517.507 1.62076 0.954614 0
M  V30 5350 O 516.865 0.808955 1.62252 0
M  V30 5351 C 516.913 3.56348 -0.552115 0
M  V30 5352 O 516.017 4.10202 0.425191 0
M  V30 5353 H 515.358 0.639817 -0.177567 0
M  V30 5354 H 517.888 1.7106 -1.12248 0
M  V30 5355 H 517.898 4.05722 -0.430513 0
M  V30 5356 H 516.573 3.85344 -1.56471 0
M  V30 5357 H 515.15 3.71979 0.261878 0
M  V30 5358 N 517.335 0.585699 1.46312 0
M  V30 5359 C 518.582 0.0724211 2.0237 0
M  V30 5360 C 518.91 -1.28868 1.45683 0
M  V30 5361 O 518.165 -1.85853 0.612945 0
M  V30 5362 C 518.464 -0.0401312 3.57377 0
M  V30 5363 C 518.13 1.25376 4.33119 0
M  V30 5364 C 516.792 1.60824 4.5353 0
M  V30 5365 C 519.144 2.10987 4.76586 0
M  V30 5366 C 516.472 2.81676 5.14661 0
M  V30 5367 C 518.824 3.31068 5.39052 0
M  V30 5368 C 517.488 3.66794 5.5769 0
M  V30 5369 H 516.758 0.0265007 0.740526 0
M  V30 5370 H 519.405 0.762935 1.75646 0
M  V30 5371 H 517.71 -0.813791 3.83255 0
M  V30 5372 H 519.407 -0.453078 3.98432 0
M  V30 5373 H 515.997 0.967808 4.1753 0
M  V30 5374 H 520.181 1.84904 4.60569 0
M  V30 5375 H 515.437 3.0949 5.27282 0
M  V30 5376 H 519.611 3.97672 5.71691 0
M  V30 5377 H 517.238 4.60529 6.04828 0
M  V30 5378 N 518.813 -1.54241 0.323641 0
M  V30 5379 C 520.038 -2.05452 -0.283605 0
M  V30 5380 C 520.463 -1.19823 -1.44997 0
M  V30 5381 O 519.821 -0.207358 -1.8011 0
M  V30 5382 C 519.869 -3.53823 -0.695795 0
M  V30 5383 O 518.973 -3.71134 -1.79815 0
M  V30 5384 H 518.314 -0.662024 -0.0511917 0
M  V30 5385 H 520.844 -1.99079 0.472073 0
M  V30 5386 H 520.854 -3.96094 -0.978434 0
M  V30 5387 H 519.529 -4.15602 0.157287 0
M  V30 5388 H 518.106 -3.40768 -1.51431 0
M  V30 5389 N 520.291 -0.0518155 -1.57515 0
M  V30 5390 C 521.568 0.661727 -1.84067 0
M  V30 5391 C 521.948 1.88999 -0.940351 0
M  V30 5392 O 521.296 2.285 -0.00155404 0
M  V30 5393 C 521.506 1.01841 -3.3381 0
M  V30 5394 C 522.854 1.40043 -4.00841 0
M  V30 5395 O 523.878 1.11073 -3.38439 0
M  V30 5396 O 522.737 1.94111 -5.10865 0
M  V30 5397 H 519.831 0.326702 -0.759733 0
M  V30 5398 H 522.377 -0.0812277 -1.69505 0
M  V30 5399 H 521.149 0.145202 -3.91031 0
M  V30 5400 H 520.772 1.81879 -3.53562 0
M  V30 5401 N 521.769 1.56035 0.221574 0
M  V30 5402 C 522.999 1.82864 0.961468 0
M  V30 5403 C 523.407 0.628703 1.78449 0
M  V30 5404 O 522.75 -0.412109 1.79018 0
M  V30 5405 C 522.812 3.03425 1.92804 0
M  V30 5406 C 522.476 4.38429 1.28954 0
M  V30 5407 C 523.473 5.15441 0.679431 0
M  V30 5408 C 521.158 4.85151 1.30131 0
M  V30 5409 C 523.152 6.37337 0.0896148 0
M  V30 5410 C 520.839 6.06989 0.707651 0
M  V30 5411 C 521.837 6.82923 0.102855 0
M  V30 5412 O 521.525 8.02456 -0.48157 0
M  V30 5413 H 521.257 0.611883 0.28736 0
M  V30 5414 H 523.811 2.0397 0.241932 0
M  V30 5415 H 522.041 2.78138 2.68656 0
M  V30 5416 H 523.73 3.17127 2.53348 0
M  V30 5417 H 524.496 4.80452 0.662661 0
M  V30 5418 H 520.375 4.26021 1.76145 0
M  V30 5419 H 523.919 6.96547 -0.383069 0
M  V30 5420 H 519.816 6.41451 0.721834 0
M  V30 5421 H 520.584 8.17636 -0.375887 0
M  V30 5422 N 523.247 -0.488276 1.49845 0
M  V30 5423 C 524.658 -1.06955 1.53028 0
M  V30 5424 C 525.009 -1.9351 0.323797 0
M  V30 5425 O 524.134 -2.08891 -0.565116 0
M  V30 5426 C 524.729 -1.94643 2.77307 0
M  V30 5427 C 523.288 -2.4791 2.83227 0
M  V30 5428 C 522.435 -1.25833 2.47106 0
M  V30 5429 H 525.386 -0.271626 1.56358 0
M  V30 5430 H 525.407 -2.79496 2.5819 0
M  V30 5431 H 524.919 -1.31621 3.65099 0
M  V30 5432 H 523.02 -3.14535 1.99745 0
M  V30 5433 H 523.133 -2.84193 3.85709 0
M  V30 5434 H 521.497 -1.58764 1.99163 0
M  V30 5435 H 522.28 -0.644993 3.37186 0
M  V30 5436 N 524.725 -1.39134 -0.740242 0
M  V30 5437 C 526.136 -1.32208 -1.31825 0
M  V30 5438 C 526.487 0.0159919 -1.96193 0
M  V30 5439 O 525.612 0.918111 -1.95958 0
M  V30 5440 C 526.207 -2.39436 -2.39699 0
M  V30 5441 C 524.766 -2.36048 -2.93187 0
M  V30 5442 C 523.913 -2.21599 -1.66701 0
M  V30 5443 H 526.864 -1.49298 -0.538133 0
M  V30 5444 H 526.885 -2.05922 -3.19963 0
M  V30 5445 H 526.397 -3.36811 -1.92821 0
M  V30 5446 H 524.498 -1.42295 -3.44359 0
M  V30 5447 H 524.611 -3.30704 -3.46658 0
M  V30 5448 H 522.975 -1.68681 -1.90837 0
M  V30 5449 H 523.758 -3.20936 -1.21882 0
M  V30 5450 N 526.204 0.969867 -1.24223 0
M  V30 5451 C 527.134 2.08191 -1.05729 0
M  V30 5452 C 528.115 1.70075 0.0290765 0
M  V30 5453 O 529.3 1.93712 -0.137583 0
M  V30 5454 C 526.43 3.40991 -0.658995 0
M  V30 5455 C 525.384 3.93054 -1.69389 0
M  V30 5456 C 524.71 5.22171 -1.15072 0
M  V30 5457 C 526.01 4.21137 -3.08935 0
M  V30 5458 H 527.704 2.23921 -1.98746 0
M  V30 5459 H 525.25 1.07602 -0.956967 0
M  V30 5460 H 527.203 4.18221 -0.51662 0
M  V30 5461 H 525.927 3.25155 0.30686 0
M  V30 5462 H 524.586 3.17977 -1.82444 0
M  V30 5463 H 524.234 5.02694 -0.175539 0
M  V30 5464 H 523.934 5.57973 -1.84229 0
M  V30 5465 H 525.458 6.02013 -1.02042 0
M  V30 5466 H 526.872 4.8908 -2.99121 0
M  V30 5467 H 525.269 4.68163 -3.75425 0
M  V30 5468 H 526.339 3.27996 -3.57137 0
M  V30 5469 N 527.682 1.05563 1.17022 0
M  V30 5470 C 528.93 0.76642 1.87004 0
M  V30 5471 C 529.251 -0.708854 1.8166 0
M  V30 5472 O 528.521 -1.51242 1.2451 0
M  V30 5473 H 527.101 0.280516 0.692329 0
M  V30 5474 H 529.763 1.33557 1.41945 0
M  V30 5475 H 528.859 1.08472 2.92644 0
M  V30 5476 N 529.16 -1.33526 0.837174 0
M  V30 5477 C 530.576 -1.50727 0.524743 0
M  V30 5478 C 530.776 -1.77792 -0.948279 0
M  V30 5479 O 529.832 -1.83719 -1.73216 0
M  V30 5480 C 531.145 -2.66299 1.39661 0
M  V30 5481 C 532.693 -2.80183 1.39521 0
M  V30 5482 C 533.168 -3.98815 2.25189 0
M  V30 5483 N 534.659 -4.06047 2.2289 0
M  V30 5484 C 535.394 -4.97032 2.85915 0
M  V30 5485 N 534.89 -5.93143 3.57985 0
M  V30 5486 N 536.683 -4.90015 2.75394 0
M  V30 5487 H 528.834 -1.1422 1.79074 0
M  V30 5488 H 531.097 -0.561399 0.763894 0
M  V30 5489 H 530.803 -2.52974 2.4433 0
M  V30 5490 H 530.677 -3.61663 1.07145 0
M  V30 5491 H 533.064 -2.92942 0.356253 0
M  V30 5492 H 533.145 -1.85586 1.76044 0
M  V30 5493 H 532.789 -3.86817 3.29143 0
M  V30 5494 H 532.719 -4.92654 1.86009 0
M  V30 5495 H 535.21 -3.37262 1.70478 0
M  V30 5496 H 535.523 -6.59227 4.03286 0
M  V30 5497 H 533.868 -5.93223 3.62093 0
M  V30 5498 H 537.059 -4.13894 2.18654 0
M  V30 5499 H 537.232 -5.60724 3.24796 0
M  V30 5500 N 530.638 -0.59345 -1.46 0
M  V30 5501 C 531.885 -0.0831523 -2.02329 0
M  V30 5502 C 532.213 1.28093 -1.46364 0
M  V30 5503 O 531.468 1.85526 -0.622793 0
M  V30 5504 C 531.767 0.021178 -3.57394 0
M  V30 5505 C 531.433 -1.27671 -4.32448 0
M  V30 5506 C 530.095 -1.63227 -4.5267 0
M  V30 5507 C 532.447 -2.13511 -4.7546 0
M  V30 5508 C 529.775 -2.84401 -5.1316 0
M  V30 5509 C 532.127 -3.33922 -5.37289 0
M  V30 5510 C 530.791 -3.69747 -5.55737 0
M  V30 5511 H 530.061 -0.0304276 -0.740375 0
M  V30 5512 H 532.708 -0.772239 -1.75239 0
M  V30 5513 H 531.013 0.793454 -3.83682 0
M  V30 5514 H 532.71 0.431942 -3.98667 0
M  V30 5515 H 529.3 -0.989937 -4.17011 0
M  V30 5516 H 533.484 -1.87344 -4.59582 0
M  V30 5517 H 528.74 -3.12282 -5.25633 0
M  V30 5518 H 532.914 -4.00698 -5.69574 0
M  V30 5519 H 530.541 -4.6373 -6.02377 0
M  V30 5520 N 532.116 1.54067 -0.331816 0
M  V30 5521 C 533.079 2.23275 0.517768 0
M  V30 5522 C 534.079 1.22897 1.03697 0
M  V30 5523 O 535.269 1.47419 0.928084 0
M  V30 5524 C 532.401 2.94326 1.72004 0
M  V30 5525 H 533.594 2.99773 -0.0873507 0
M  V30 5526 H 531.147 1.56079 -0.0830042 0
M  V30 5527 H 531.882 2.21986 2.36417 0
M  V30 5528 H 531.667 3.67941 1.35507 0
M  V30 5529 H 533.157 3.47031 2.32291 0
M  V30 5530 N 533.594 0.0601682 1.57485 0
M  V30 5531 C 534.84 -0.612501 1.93329 0
M  V30 5532 C 535.173 -1.6996 0.939526 0
M  V30 5533 O 534.448 -1.94472 -0.0330957 0
M  V30 5534 C 534.731 -1.20025 3.39508 0
M  V30 5535 C 534.584 -0.12059 4.49638 0
M  V30 5536 C 535.903 -2.10923 3.86264 0
M  V30 5537 H 533.022 -0.221185 0.703027 0
M  V30 5538 H 535.664 0.123768 1.89596 0
M  V30 5539 H 533.814 -1.82774 3.42821 0
M  V30 5540 H 535.486 0.51185 4.58452 0
M  V30 5541 H 533.729 0.550251 4.30296 0
M  V30 5542 H 534.4 -0.572019 5.49028 0
M  V30 5543 H 536.876 -1.58124 3.84884 0
M  V30 5544 H 535.752 -2.48987 4.8918 0
M  V30 5545 H 536.013 -3.01292 3.23536 0
M  V30 5546 N 535.072 -1.5615 -0.213296 0
M  V30 5547 C 536.488 -1.49327 -0.56336 0
M  V30 5548 C 536.688 -0.756826 -1.86747 0
M  V30 5549 O 535.744 -0.299866 -2.50713 0
M  V30 5550 C 537.057 -2.9392 -0.634944 0
M  V30 5551 C 538.605 -3.04487 -0.725013 0
M  V30 5552 C 539.08 -4.50456 -0.82787 0
M  V30 5553 N 540.571 -4.54533 -0.891876 0
M  V30 5554 C 541.306 -5.64766 -0.991315 0
M  V30 5555 N 540.802 -6.84733 -1.05419 0
M  V30 5556 N 542.595 -5.52637 -1.02709 0
M  V30 5557 H 534.746 -2.02453 0.642366 0
M  V30 5558 H 537.009 -0.920548 0.226487 0
M  V30 5559 H 536.715 -3.50783 0.253859 0
M  V30 5560 H 536.589 -3.46274 -1.49579 0
M  V30 5561 H 538.976 -2.47685 -1.60425 0
M  V30 5562 H 539.057 -2.55289 0.161669 0
M  V30 5563 H 538.701 -5.07878 0.0469464 0
M  V30 5564 H 538.631 -4.97369 -1.73009 0
M  V30 5565 H 541.122 -3.68141 -0.85327 0
M  V30 5566 H 541.435 -7.64493 -1.13007 0
M  V30 5567 H 539.78 -6.87427 -1.02318 0
M  V30 5568 H 542.971 -4.5784 -0.974687 0
M  V30 5569 H 543.144 -6.38576 -1.10113 0
M  V30 5570 N 536.55 0.480323 -1.50102 0
M  V30 5571 C 537.827 1.24159 -1.51142 0
M  V30 5572 C 538.207 2.09605 -0.250818 0
M  V30 5573 O 537.555 2.15274 0.766118 0
M  V30 5574 C 537.765 2.08057 -2.80202 0
M  V30 5575 C 539.113 2.66556 -3.30504 0
M  V30 5576 O 540.137 2.18308 -2.81461 0
M  V30 5577 O 538.996 3.54442 -4.15973 0
M  V30 5578 H 536.09 0.562928 -0.605839 0
M  V30 5579 H 538.636 0.492899 -1.62384 0
M  V30 5580 H 537.408 1.45032 -3.6343 0
M  V30 5581 H 537.031 2.90079 -2.71919 0
M  V30 5582 N 538.028 1.39524 0.732853 0
M  V30 5583 C 538.961 1.32806 1.85574 0
M  V30 5584 C 539.939 0.201354 1.61348 0
M  V30 5585 O 541.123 0.38216 1.84585 0
M  V30 5586 C 538.25 1.06271 3.21596 0
M  V30 5587 C 537.296 2.21161 3.64678 0
M  V30 5588 S 538.129 3.83454 3.73796 0
M  V30 5589 C 539.285 3.59149 5.12604 0
M  V30 5590 H 539.518 2.27838 1.9099 0
M  V30 5591 H 537.051 1.25605 0.897927 0
M  V30 5592 H 539.009 0.916461 4.00139 0
M  V30 5593 H 537.67 0.129223 3.13834 0
M  V30 5594 H 536.863 1.98193 4.63396 0
M  V30 5595 H 536.465 2.32 2.93346 0
M  V30 5596 H 538.757 3.16547 5.99003 0
M  V30 5597 H 539.7 4.57335 5.40602 0
M  V30 5598 H 540.108 2.93203 4.82382 0
M  V30 5599 N 539.506 -0.963266 1.24736 0
M  V30 5600 C 540.922 -1.23273 1.01371 0
M  V30 5601 C 541.122 -1.99618 -0.274776 0
M  V30 5602 O 540.178 -2.32293 -0.989769 0
M  V30 5603 C 541.491 -2.01554 2.23152 0
M  V30 5604 C 543.039 -2.14629 2.27823 0
M  V30 5605 C 543.514 -2.96307 3.49237 0
M  V30 5606 N 545.005 -3.03887 3.49581 0
M  V30 5607 C 545.74 -3.67456 4.40186 0
M  V30 5608 N 545.236 -4.32706 5.41052 0
M  V30 5609 N 547.029 -3.64511 4.27888 0
M  V30 5610 H 539.18 -0.452294 2.07528 0
M  V30 5611 H 541.443 -0.262521 0.910926 0
M  V30 5612 H 541.149 -1.52847 3.1675 0
M  V30 5613 H 541.023 -3.02278 2.25628 0
M  V30 5614 H 543.41 -2.62537 1.34753 0
M  V30 5615 H 543.491 -1.13238 2.2937 0
M  V30 5616 H 543.135 -2.49091 4.42624 0
M  V30 5617 H 543.065 -3.97905 3.44933 0
M  V30 5618 H 545.556 -2.57477 2.76611 0
M  V30 5619 H 545.869 -4.79042 6.06415 0
M  V30 5620 H 544.214 -4.31361 5.44934 0
M  V30 5621 H 547.405 -3.12715 3.4832 0
M  V30 5622 H 547.578 -4.13768 4.98698 0
M  V30 5623 N 540.985 -1.06182 -1.16461 0
M  V30 5624 C 541.917 -0.629584 -2.20383 0
M  V30 5625 C 542.93 0.311834 -1.59786 0
M  V30 5626 O 544.119 0.103 -1.78203 0
M  V30 5627 C 541.219 0.0973695 -3.3876 0
M  V30 5628 C 540.392 -0.857252 -4.28917 0
M  V30 5629 C 539.451 -0.169749 -5.25926 0
M  V30 5630 O 538.477 -0.807044 -5.6345 0
M  V30 5631 N 539.679 1.08911 -5.70192 0
M  V30 5632 H 542.444 -1.52352 -2.58087 0
M  V30 5633 H 540.005 -0.944993 -1.31459 0
M  V30 5634 H 541.997 0.567676 -4.00699 0
M  V30 5635 H 540.567 0.893093 -2.99571 0
M  V30 5636 H 539.787 -1.50696 -3.64259 0
M  V30 5637 H 541.075 -1.50489 -4.86035 0
M  V30 5638 H 540.473 1.62703 -5.41797 0
M  V30 5639 H 539.03 1.50331 -6.34227 0
M  V30 5640 N 542.463 1.3308 -0.844243 0
M  V30 5641 C 543.691 2.01808 -0.456203 0
M  V30 5642 C 544.106 1.63498 0.944131 0
M  V30 5643 O 543.463 0.85102 1.61443 0
M  V30 5644 C 543.514 3.56922 -0.573513 0
M  V30 5645 O 543.235 3.93851 -1.91868 0
M  V30 5646 C 544.736 4.42922 -0.183125 0
M  V30 5647 H 541.956 0.646273 -0.180477 0
M  V30 5648 H 544.5 1.69891 -1.1383 0
M  V30 5649 H 542.655 3.87352 0.0607367 0
M  V30 5650 H 543.069 4.88564 -1.90802 0
M  V30 5651 H 544.543 5.51093 -0.316241 0
M  V30 5652 H 545.02 4.30386 0.875477 0
M  V30 5653 H 545.626 4.1786 -0.792027 0
M  V30 5654 N 543.941 0.601185 1.45683 0
M  V30 5655 C 545.187 0.0940202 2.02582 0
M  V30 5656 C 545.52 -1.26972 1.46941 0
M  V30 5657 O 544.795 -1.83613 0.641612 0
M  V30 5658 C 545.078 0.0481715 3.60068 0
M  V30 5659 C 544.931 1.44212 4.26055 0
M  V30 5660 C 546.25 -0.642975 4.35378 0
M  V30 5661 H 543.369 0.0356404 0.736138 0
M  V30 5662 H 546.011 0.771929 1.73612 0
M  V30 5663 H 544.161 -0.529128 3.8488 0
M  V30 5664 H 545.833 2.06601 4.12449 0
M  V30 5665 H 544.076 2.00465 3.84703 0
M  V30 5666 H 544.747 1.36234 5.34925 0
M  V30 5667 H 547.223 -0.152351 4.15821 0
M  V30 5668 H 546.099 -0.644141 5.45107 0
M  V30 5669 H 546.36 -1.70785 4.0778 0
M  V30 5670 N 545.419 -1.53889 0.339982 0
M  V30 5671 C 546.382 -2.23547 -0.50592 0
M  V30 5672 C 547.382 -1.23445 -1.03044 0
M  V30 5673 O 548.572 -1.47909 -0.920253 0
M  V30 5674 C 545.704 -2.95234 -1.7044 0
M  V30 5675 H 546.897 -2.99722 0.103247 0
M  V30 5676 H 544.45 -1.56033 0.0912804 0
M  V30 5677 H 545.185 -2.23236 -2.35236 0
M  V30 5678 H 544.97 -3.68654 -1.33553 0
M  V30 5679 H 546.46 -3.48258 -2.30447 0
M  V30 5680 N 546.897 -0.0685191 -1.57451 0
M  V30 5681 C 548.143 0.602239 -1.93652 0
M  V30 5682 C 548.476 1.6946 -0.948526 0
M  V30 5683 O 547.751 1.94487 0.022782 0
M  V30 5684 C 548.034 1.18223 -3.4014 0
M  V30 5685 C 547.887 0.0967431 -4.49696 0
M  V30 5686 C 549.206 2.08872 -3.87377 0
M  V30 5687 H 546.325 0.217453 -0.70419 0
M  V30 5688 H 548.967 -0.133821 -1.89528 0
M  V30 5689 H 547.117 1.80953 -3.43785 0
M  V30 5690 H 548.789 -0.536155 -4.58174 0
M  V30 5691 H 547.032 -0.573063 -4.29998 0
M  V30 5692 H 547.703 0.542894 -5.49324 0
M  V30 5693 H 550.179 1.56081 -3.85717 0
M  V30 5694 H 549.055 2.46389 -4.90493 0
M  V30 5695 H 549.316 2.99572 -3.25129 0
M  V30 5696 N 548.375 1.56261 0.205012 0
M  V30 5697 C 549.623 1.79684 0.925096 0
M  V30 5698 C 549.944 0.63989 1.84202 0
M  V30 5699 O 549.214 -0.342345 1.92885 0
M  V30 5700 H 547.794 0.662774 0.344587 0
M  V30 5701 H 550.456 1.93734 0.212899 0
M  V30 5702 H 549.552 2.72467 1.52211 0
M  V30 5703 N 549.853 -0.472356 1.50355 0
M  V30 5704 C 551.099 -1.22634 1.6152 0
M  V30 5705 C 551.432 -1.91645 0.313995 0
M  V30 5706 O 550.707 -1.82059 -0.684446 0
M  V30 5707 C 550.99 -2.27099 2.7946 0
M  V30 5708 C 550.843 -1.62402 4.19459 0
M  V30 5709 C 552.162 -3.28421 2.92964 0
M  V30 5710 H 549.281 -0.444494 0.587873 0
M  V30 5711 H 551.923 -0.520321 1.82737 0
M  V30 5712 H 550.073 -2.87314 2.61501 0
M  V30 5713 H 551.745 -1.05793 4.49005 0
M  V30 5714 H 549.988 -0.927184 4.23776 0
M  V30 5715 H 550.659 -2.38309 4.97909 0
M  V30 5716 H 553.135 -2.78227 3.09401 0
M  V30 5717 H 552.011 -3.98845 3.77113 0
M  V30 5718 H 552.272 -3.92467 2.03525 0
M  V30 5719 N 551.331 -1.39911 -0.725443 0
M  V30 5720 C 552.58 -1.36963 -1.48068 0
M  V30 5721 C 552.893 0.0284478 -1.95579 0
M  V30 5722 O 554.099 0.180535 -2.70899 0
M  V30 5723 C 552.555 -2.40664 -2.67598 0
M  V30 5724 C 552.163 -3.86234 -2.26997 0
M  V30 5725 C 553.907 -2.46807 -3.45379 0
M  V30 5726 C 551.814 -4.81554 -3.43307 0
M  V30 5727 H 550.744 -0.509223 -0.556065 0
M  V30 5728 H 553.395 -1.65602 -0.790454 0
M  V30 5729 H 551.777 -2.05109 -3.38742 0
M  V30 5730 H 552.951 -4.3088 -1.63337 0
M  V30 5731 H 551.266 -3.83475 -1.62284 0
M  V30 5732 H 553.863 -3.15213 -4.31909 0
M  V30 5733 H 554.206 -1.49552 -3.8851 0
M  V30 5734 H 554.739 -2.81303 -2.81271 0
M  V30 5735 H 551.478 -5.80106 -3.05217 0
M  V30 5736 H 550.998 -4.4158 -4.05915 0
M  V30 5737 H 552.677 -5.0091 -4.0951 0
M  V30 5738 N 552.809 0.956637 -1.25245 0
M  V30 5739 C 553.756 2.053 -1.05454 0
M  V30 5740 C 554.726 1.66062 0.0356889 0
M  V30 5741 O 555.911 1.90415 -0.121099 0
M  V30 5742 C 553.051 3.38391 -0.677191 0
M  V30 5743 C 552.164 3.90758 -1.84206 0
M  V30 5744 C 551.299 5.12165 -1.40926 0
M  V30 5745 C 550.338 5.56757 -2.54338 0
M  V30 5746 N 549.475 6.69376 -2.11848 0
M  V30 5747 H 554.315 2.21562 -1.99284 0
M  V30 5748 H 551.852 1.08578 -0.992434 0
M  V30 5749 H 553.81 4.1488 -0.43938 0
M  V30 5750 H 552.44 3.22021 0.224127 0
M  V30 5751 H 551.492 3.10808 -2.19323 0
M  V30 5752 H 552.804 4.19802 -2.69383 0
M  V30 5753 H 551.958 5.96065 -1.13098 0
M  V30 5754 H 550.697 4.84832 -0.528175 0
M  V30 5755 H 549.702 4.71423 -2.82913 0
M  V30 5756 H 550.927 5.861 -3.43022 0
M  V30 5757 H 548.873 6.43756 -1.26153 0
M  V30 5758 H 548.79 6.97927 -2.90574 0
M  V30 5759 H 550.058 7.5669 -1.87191 0
M  V30 5760 N 554.287 1.06798 1.15896 0
M  V30 5761 C 555.25 0.687328 2.18651 0
M  V30 5762 C 556.25 -0.269559 1.58524 0
M  V30 5763 O 557.44 -0.0512627 1.74125 0
M  V30 5764 C 554.572 0.0121642 3.40898 0
M  V30 5765 H 555.765 1.59701 2.53842 0
M  V30 5766 H 553.318 0.863828 1.3026 0
M  V30 5767 H 554.053 -0.910025 3.1127 0
M  V30 5768 H 553.838 0.700309 3.85795 0
M  V30 5769 H 555.328 -0.239703 4.16911 0
M  V30 5770 N 555.766 -1.3263 0.851289 0
M  V30 5771 C 557.012 -1.9766 0.453694 0
M  V30 5772 C 557.345 -1.67225 -0.987396 0
M  V30 5773 O 556.62 -0.958693 -1.69232 0
M  V30 5774 C 556.903 -3.5344 0.68936 0
M  V30 5775 C 556.756 -3.93517 2.17862 0
M  V30 5776 C 558.075 -4.39866 0.143555 0
M  V30 5777 H 555.194 -0.717989 0.166314 0
M  V30 5778 H 557.836 -1.57068 1.06909 0
M  V30 5779 H 555.986 -3.88147 0.165546 0
M  V30 5780 H 557.658 -3.69006 2.76826 0
M  V30 5781 H 555.901 -3.42798 2.65841 0
M  V30 5782 H 556.572 -5.02065 2.29422 0
M  V30 5783 H 559.048 -4.11875 0.591451 0
M  V30 5784 H 557.924 -5.47858 0.338043 0
M  V30 5785 H 558.185 -4.31696 -0.953466 0
M  V30 5786 N 557.244 -0.608902 -1.45362 0
M  V30 5787 C 558.521 -0.0365378 -1.95566 0
M  V30 5788 C 558.901 1.43169 -1.55131 0
M  V30 5789 O 558.249 2.1349 -0.814513 0
M  V30 5790 C 558.459 -0.236026 -3.48201 0
M  V30 5791 C 559.807 -0.117518 -4.24437 0
M  V30 5792 O 560.831 -0.166217 -3.55812 0
M  V30 5793 O 559.69 -0.00372127 -5.465 0
M  V30 5794 H 556.784 0.0349874 -0.82626 0
M  V30 5795 H 559.33 -0.679055 -1.55521 0
M  V30 5796 H 558.102 -1.25569 -3.70605 0
M  V30 5797 H 557.725 0.441691 -3.95139 0
M  V30 5798 N 558.722 1.53707 -0.348139 0
M  V30 5799 C 559.669 2.25173 0.506518 0
M  V30 5800 C 560.639 1.25174 1.09182 0
M  V30 5801 O 561.824 1.53917 1.12757 0
M  V30 5802 C 558.964 3.03141 1.64923 0
M  V30 5803 C 558.077 4.18002 1.0908 0
M  V30 5804 C 557.212 4.83447 2.20119 0
M  V30 5805 C 556.251 5.90369 1.61651 0
M  V30 5806 N 555.388 6.49575 2.66451 0
M  V30 5807 H 560.228 2.97799 -0.109452 0
M  V30 5808 H 557.765 1.46953 -0.0657866 0
M  V30 5809 H 559.723 3.46607 2.32205 0
M  V30 5810 H 558.353 2.32803 2.23612 0
M  V30 5811 H 557.405 3.79145 0.308783 0
M  V30 5812 H 558.717 4.94892 0.623178 0
M  V30 5813 H 557.871 5.30008 2.95257 0
M  V30 5814 H 556.61 4.05991 2.70227 0
M  V30 5815 H 555.615 5.43186 0.850209 0
M  V30 5816 H 556.84 6.69735 1.1239 0
M  V30 5817 H 554.786 5.74981 3.15805 0
M  V30 5818 H 554.703 7.21952 2.24325 0
M  V30 5819 H 555.971 7.00789 3.41344 0
M  V30 5820 N 560.2 0.0768682 1.57412 0
M  V30 5821 C 561.147 -0.888577 2.13009 0
M  V30 5822 C 562.117 -1.29198 1.0439 0
M  V30 5823 O 563.302 -1.37694 1.3208 0
M  V30 5824 C 560.442 -2.14899 2.70023 0
M  V30 5825 C 559.555 -1.79777 3.92816 0
M  V30 5826 C 558.69 -3.00467 4.38056 0
M  V30 5827 C 557.729 -2.61385 5.53484 0
M  V30 5828 N 556.866 -3.74851 5.93659 0
M  V30 5829 H 561.706 -0.407593 2.95199 0
M  V30 5830 H 559.243 -0.189534 1.45874 0
M  V30 5831 H 561.201 -2.88688 3.0119 0
M  V30 5832 H 559.831 -2.60529 1.9059 0
M  V30 5833 H 558.883 -0.960301 3.68079 0
M  V30 5834 H 560.195 -1.47027 4.76639 0
M  V30 5835 H 559.349 -3.82529 4.7091 0
M  V30 5836 H 558.088 -3.36413 3.53097 0
M  V30 5837 H 557.093 -1.77746 5.20275 0
M  V30 5838 H 558.318 -2.26603 6.40178 0
M  V30 5839 H 556.264 -4.1055 5.11649 0
M  V30 5840 H 556.181 -3.45887 6.72234 0
M  V30 5841 H 557.449 -4.57477 6.31138 0
M  V30 5842 N 561.678 -1.56367 -0.196722 0
M  V30 5843 C 562.641 -1.93561 -1.22746 0
M  V30 5844 C 563.641 -0.816566 -1.38524 0
M  V30 5845 O 564.831 -1.084 -1.36363 0
M  V30 5846 C 561.963 -2.20823 -2.59712 0
M  V30 5847 H 563.156 -2.85774 -0.909586 0
M  V30 5848 H 560.709 -1.50032 -0.438174 0
M  V30 5849 H 561.444 -1.31243 -2.96557 0
M  V30 5850 H 561.229 -3.02368 -2.49632 0
M  V30 5851 H 562.719 -2.50608 -3.34044 0
M  V30 5852 N 563.156 0.464375 -1.50603 0
M  V30 5853 C 564.119 1.54393 -1.69397 0
M  V30 5854 C 565.119 1.50566 -0.564504 0
M  V30 5855 O 566.309 1.53066 -0.831645 0
M  V30 5856 C 563.441 2.9401 -1.72543 0
M  V30 5857 H 564.634 1.39044 -2.65719 0
M  V30 5858 H 562.187 0.69122 -1.40185 0
M  V30 5859 H 562.922 3.14795 -0.77938 0
M  V30 5860 H 562.707 2.98195 -2.54602 0
M  V30 5861 H 564.197 3.72375 -1.89015 0
M  V30 5862 N 564.634 1.40294 0.718013 0
M  V30 5863 C 565.882 1.38167 1.47494 0
M  V30 5864 C 566.203 -0.01607 1.94993 0
M  V30 5865 O 565.473 -0.970396 1.70177 0
M  V30 5866 H 564.053 0.508505 0.547203 0
M  V30 5867 H 566.715 1.75324 0.851322 0
M  V30 5868 H 565.811 2.05503 2.34894 0
M  V30 5869 N 566.112 -0.949982 1.2575 0
M  V30 5870 C 567.075 -2.02894 1.06615 0
M  V30 5871 C 568.075 -1.60791 0.0173905 0
M  V30 5872 O 569.265 -1.72249 0.260003 0
M  V30 5873 C 566.397 -3.35219 0.619751 0
M  V30 5874 H 567.59 -2.21302 2.02399 0
M  V30 5875 H 565.143 -1.12772 1.08223 0
M  V30 5876 H 565.878 -3.22508 -0.340486 0
M  V30 5877 H 565.663 -3.67129 1.37692 0
M  V30 5878 H 567.153 -4.14505 0.507443 0
M  V30 5879 N 567.59 -1.07411 -1.15328 0
M  V30 5880 C 568.838 -0.796073 -1.85761 0
M  V30 5881 C 569.159 0.679864 -1.82764 0
M  V30 5882 O 568.429 1.49242 -1.269 0
M  V30 5883 H 567.009 -0.291495 -0.687779 0
M  V30 5884 H 569.671 -1.35799 -1.39802 0
M  V30 5885 H 568.767 -1.13114 -2.90881 0
M  V30 5886 N 569.068 1.32177 -0.85831 0
M  V30 5887 C 570.015 2.28794 -0.303607 0
M  V30 5888 C 570.985 1.55213 0.591453 0
M  V30 5889 O 572.17 1.83418 0.525585 0
M  V30 5890 C 569.31 3.41475 0.49889 0
M  V30 5891 C 568.423 4.2993 -0.422373 0
M  V30 5892 C 567.558 5.29743 0.393111 0
M  V30 5893 C 566.597 6.09842 -0.525317 0
M  V30 5894 N 565.734 7.01643 0.253208 0
M  V30 5895 H 570.574 2.75631 -1.13276 0
M  V30 5896 H 568.111 1.35606 -0.570026 0
M  V30 5897 H 570.069 4.05531 0.979826 0
M  V30 5898 H 568.699 2.95779 1.29284 0
M  V30 5899 H 567.751 3.66422 -1.02171 0
M  V30 5900 H 569.063 4.85899 -1.12709 0
M  V30 5901 H 568.217 5.9942 0.937056 0
M  V30 5902 H 566.956 4.744 1.13117 0
M  V30 5903 H 565.961 5.39066 -1.08112 0
M  V30 5904 H 567.186 6.6727 -1.26205 0
M  V30 5905 H 565.132 6.48725 0.974295 0
M  V30 5906 H 565.049 7.54981 -0.392398 0
M  V30 5907 H 566.317 7.756 0.778761 0
M  V30 5908 N 570.547 0.616602 1.45037 0
M  V30 5909 C 571.793 0.115501 2.02471 0
M  V30 5910 C 572.126 -1.25406 1.4828 0
M  V30 5911 O 571.401 -1.82922 0.661051 0
M  V30 5912 C 571.684 0.0863588 3.59996 0
M  V30 5913 C 571.537 1.48723 4.24501 0
M  V30 5914 C 572.856 -0.596762 4.36035 0
M  V30 5915 H 569.975 0.0434461 0.735718 0
M  V30 5916 H 572.617 0.7903 1.72784 0
M  V30 5917 H 570.767 -0.488277 3.85419 0
M  V30 5918 H 572.439 2.10964 4.10234 0
M  V30 5919 H 570.682 2.04534 3.82555 0
M  V30 5920 H 571.353 1.419 5.3345 0
M  V30 5921 H 573.829 -0.10824 4.15959 0
M  V30 5922 H 572.705 -0.586289 5.4576 0
M  V30 5923 H 572.966 -1.66451 4.09569 0
M  V30 5924 N 572.025 -1.5352 0.356285 0
M  V30 5925 C 573.253 -2.05534 -0.237328 0
M  V30 5926 C 573.668 -1.23043 -1.43199 0
M  V30 5927 O 573.025 -0.268821 -1.80509 0
M  V30 5928 C 573.076 -3.55791 -0.639933 0
M  V30 5929 O 572.797 -4.35154 0.507233 0
M  V30 5930 C 574.298 -4.24027 -1.29292 0
M  V30 5931 H 571.518 -0.669585 -0.0435572 0
M  V30 5932 H 574.062 -1.97988 0.511963 0
M  V30 5933 H 572.217 -3.63518 -1.33915 0
M  V30 5934 H 572.631 -5.24178 0.18375 0
M  V30 5935 H 574.105 -5.30509 -1.52527 0
M  V30 5936 H 574.582 -3.77166 -2.25039 0
M  V30 5937 H 575.188 -4.20527 -0.63539 0
M  V30 5938 N 573.503 -0.0852151 -1.57369 0
M  V30 5939 C 574.45 0.877268 -2.13478 0
M  V30 5940 C 575.42 1.28642 -1.05073 0
M  V30 5941 O 576.605 1.36992 -1.32808 0
M  V30 5942 C 573.745 2.13464 -2.71159 0
M  V30 5943 C 572.858 1.77691 -3.93764 0
M  V30 5944 C 571.993 2.98139 -4.39643 0
M  V30 5945 C 571.032 2.58447 -5.54862 0
M  V30 5946 N 570.169 3.71698 -5.95639 0
M  V30 5947 H 575.009 0.391933 -2.95411 0
M  V30 5948 H 572.546 0.181796 -1.45972 0
M  V30 5949 H 574.504 2.87086 -3.02717 0
M  V30 5950 H 573.134 2.59514 -1.91969 0
M  V30 5951 H 572.186 0.940768 -3.68583 0
M  V30 5952 H 573.498 1.44497 -4.77412 0
M  V30 5953 H 572.652 3.80026 -4.72933 0
M  V30 5954 H 571.391 3.34536 -3.54876 0
M  V30 5955 H 570.396 1.74984 -5.21211 0
M  V30 5956 H 571.621 2.23205 -6.41371 0
M  V30 5957 H 569.567 4.07831 -5.13819 0
M  V30 5958 H 569.484 3.42317 -6.74059 0
M  V30 5959 H 570.752 4.54123 -6.33555 0
M  V30 5960 N 574.981 1.5647 0.188427 0
M  V30 5961 C 576.206 1.85486 0.927891 0
M  V30 5962 C 576.631 0.669575 1.75779 0
M  V30 5963 O 575.989 -0.381573 1.77239 0
M  V30 5964 C 576.037 3.12784 1.7944 0
M  V30 5965 O 575.141 2.93805 2.894 0
M  V30 5966 H 574.482 0.610585 0.260925 0
M  V30 5967 H 577.012 2.037 0.191729 0
M  V30 5968 H 577.022 3.43749 2.19774 0
M  V30 5969 H 575.697 3.98671 1.18468 0
M  V30 5970 H 574.274 2.74153 2.52774 0
M  V30 5971 N 576.459 -0.456382 1.50847 0
M  V30 5972 C 577.422 -1.53493 1.70213 0
M  V30 5973 C 578.422 -1.50264 0.572481 0
M  V30 5974 O 579.612 -1.52623 0.839751 0
M  V30 5975 C 576.744 -2.93091 1.741 0
M  V30 5976 H 577.937 -1.37633 2.66453 0
M  V30 5977 H 575.49 -0.683776 1.4055 0
M  V30 5978 H 576.225 -3.14378 0.796063 0
M  V30 5979 H 576.01 -2.9684 2.5618 0
M  V30 5980 H 577.5 -3.71368 1.90987 0
M  V30 5981 N 577.937 -1.40673 -0.710563 0
M  V30 5982 C 578.869 -1.37256 -1.83558 0
M  V30 5983 C 579.882 -0.277133 -1.60424 0
M  V30 5984 O 581.071 -0.537831 -1.70205 0
M  V30 5985 C 578.171 -1.1144 -3.20054 0
M  V30 5986 C 577.344 -2.32734 -3.70342 0
M  V30 5987 C 576.403 -2.03002 -4.85465 0
M  V30 5988 O 575.429 -2.75912 -4.97857 0
M  V30 5989 N 576.631 -1.01105 -5.71627 0
M  V30 5990 H 579.396 -2.34215 -1.86985 0
M  V30 5991 H 576.957 -1.35091 -0.892301 0
M  V30 5992 H 578.949 -0.895265 -3.94673 0
M  V30 5993 H 577.519 -0.231307 -3.11743 0
M  V30 5994 H 576.739 -2.70446 -2.86798 0
M  V30 5995 H 578.027 -3.13584 -4.00678 0
M  V30 5996 H 577.425 -0.407303 -5.64232 0
M  V30 5997 H 575.982 -0.85182 -6.4621 0
M  V30 5998 N 579.415 0.9433 -1.26252 0
M  V30 5999 C 580.362 2.0417 -1.07625 0
M  V30 6000 C 581.332 1.6609 0.0180738 0
M  V30 6001 O 582.517 1.90276 -0.141289 0
M  V30 6002 C 579.657 3.37653 -0.713043 0
M  V30 6003 C 578.77 3.88783 -1.8834 0
M  V30 6004 C 577.905 5.10642 -1.4635 0
M  V30 6005 C 576.944 5.54028 -2.60229 0
M  V30 6006 N 576.081 6.67092 -2.18936 0
M  V30 6007 H 580.921 2.19436 -2.01623 0
M  V30 6008 H 578.458 1.07519 -1.00389 0
M  V30 6009 H 580.416 4.14391 -0.483358 0
M  V30 6010 H 579.046 3.22241 0.18996 0
M  V30 6011 H 578.098 3.08464 -2.22608 0
M  V30 6012 H 579.41 4.16922 -2.73821 0
M  V30 6013 H 578.564 5.94832 -1.19414 0
M  V30 6014 H 577.303 4.84244 -0.579568 0
M  V30 6015 H 576.308 4.68396 -2.87898 0
M  V30 6016 H 577.533 5.82429 -3.49219 0
M  V30 6017 H 575.479 6.42381 -1.32974 0
M  V30 6018 H 575.396 6.94806 -2.97961 0
M  V30 6019 H 576.664 7.54662 -1.95206 0
M  V30 6020 N 580.893 1.08022 1.14757 0
M  V30 6021 C 581.856 0.71048 2.1791 0
M  V30 6022 C 582.856 -0.252731 1.58801 0
M  V30 6023 O 584.046 -0.0327915 1.74169 0
M  V30 6024 C 581.178 0.0483203 3.40866 0
M  V30 6025 H 582.371 1.62384 2.52134 0
M  V30 6026 H 579.924 0.877595 1.29337 0
M  V30 6027 H 580.659 -0.876959 3.12218 0
M  V30 6028 H 580.444 0.741189 3.85031 0
M  V30 6029 H 581.934 -0.195471 4.17142 0
M  V30 6030 N 582.371 -1.3172 0.865308 0
M  V30 6031 C 583.303 -2.27545 0.274906 0
M  V30 6032 C 584.316 -1.52887 -0.559413 0
M  V30 6033 O 585.505 -1.74361 -0.382166 0
M  V30 6034 C 582.605 -3.33006 -0.629286 0
M  V30 6035 C 581.778 -4.37063 0.171553 0
M  V30 6036 C 580.837 -5.22044 -0.660052 0
M  V30 6037 O 579.863 -5.69129 -0.0897527 0
M  V30 6038 N 581.065 -5.45946 -1.97289 0
M  V30 6039 H 583.83 -2.78848 1.09836 0
M  V30 6040 H 581.391 -1.44693 0.726331 0
M  V30 6041 H 583.383 -3.86772 -1.19121 0
M  V30 6042 H 581.953 -2.81782 -1.35342 0
M  V30 6043 H 581.173 -3.83436 0.914919 0
M  V30 6044 H 582.461 -5.03662 0.721235 0
M  V30 6045 H 581.859 -5.0944 -2.45942 0
M  V30 6046 H 580.416 -6.02665 -2.4827 0
M  V30 6047 N 583.85 -0.624285 -1.44708 0
M  V30 6048 C 584.797 0.0847135 -2.30644 0
M  V30 6049 C 585.767 0.843575 -1.43084 0
M  V30 6050 O 586.952 0.825982 -1.71995 0
M  V30 6051 C 584.091 1.06495 -3.28257 0
M  V30 6052 C 583.205 0.305224 -4.3092 0
M  V30 6053 C 582.34 1.27667 -5.1563 0
M  V30 6054 C 581.379 0.505706 -6.10007 0
M  V30 6055 N 580.516 1.42727 -6.8744 0
M  V30 6056 H 585.356 -0.654068 -2.90733 0
M  V30 6057 H 582.893 -0.334334 -1.4325 0
M  V30 6058 H 584.851 1.64658 -3.83332 0
M  V30 6059 H 583.481 1.77094 -2.69884 0
M  V30 6060 H 582.533 -0.392207 -3.78373 0
M  V30 6061 H 583.845 -0.295553 -4.97924 0
M  V30 6062 H 582.999 1.92984 -5.75189 0
M  V30 6063 H 581.738 1.91137 -4.48685 0
M  V30 6064 H 580.743 -0.160999 -5.49564 0
M  V30 6065 H 581.968 -0.124183 -6.78986 0
M  V30 6066 H 579.913 2.04931 -6.23169 0
M  V30 6067 H 579.831 0.880345 -7.50857 0
M  V30 6068 H 581.099 2.0695 -7.51526 0
M  V30 6069 N 585.328 1.53329 -0.364422 0
M  V30 6070 C 586.291 2.24323 0.470292 0
M  V30 6071 C 587.291 1.25068 1.01067 0
M  V30 6072 O 588.481 1.49354 0.896605 0
M  V30 6073 C 585.613 2.97908 1.65722 0
M  V30 6074 H 586.806 2.9952 -0.150917 0
M  V30 6075 H 584.359 1.55868 -0.116092 0
M  V30 6076 H 585.094 2.2695 2.31655 0
M  V30 6077 H 584.879 3.70732 1.27671 0
M  V30 6078 H 586.369 3.5188 2.24878 0
M  V30 6079 N 586.806 0.0935595 1.57322 0
M  V30 6080 C 587.753 -0.865935 2.1394 0
M  V30 6081 C 588.723 -1.28083 1.05754 0
M  V30 6082 O 589.908 -1.36285 1.33533 0
M  V30 6083 C 587.048 -2.12023 2.72287 0
M  V30 6084 C 586.161 -1.756 3.94701 0
M  V30 6085 C 585.296 -2.95804 4.41218 0
M  V30 6086 C 584.335 -2.555 5.56225 0
M  V30 6087 N 583.472 -3.68534 5.97601 0
M  V30 6088 H 588.312 -0.376261 2.95615 0
M  V30 6089 H 585.849 -0.174052 1.46067 0
M  V30 6090 H 587.807 -2.85477 3.04235 0
M  V30 6091 H 586.437 -2.58492 1.93343 0
M  V30 6092 H 585.489 -0.921208 3.69077 0
M  V30 6093 H 586.801 -1.41964 4.78171 0
M  V30 6094 H 585.955 -3.77513 4.74941 0
M  V30 6095 H 584.694 -3.32649 3.56645 0
M  V30 6096 H 583.699 -1.72218 5.22131 0
M  V30 6097 H 584.924 -2.19801 6.42545 0
M  V30 6098 H 582.87 -4.051 5.15974 0
M  V30 6099 H 582.787 -3.38737 6.75865 0
M  V30 6100 H 584.055 -4.50757 6.35955 0
M  V30 6101 O 588.323 -1.61433 -0.0465113 0
M  V30 6102 H 589.014 -1.8177 -0.669292 0
M  V30 END ATOM
M  V30 BEGIN BOND
M  V30 END BOND
M  V30 END CTAB
M  END
$$$$
