drugbank_target|Q96S86 Hyaluronan and proteoglycan link protein 3 (DB08818)
 OpenBabel12092121013D

  0  0  0     0  0            999 V3000
M  V30 BEGIN CTAB
M  V30 COUNTS 5674 5760 0 0 0
M  V30 BEGIN ATOM
M  V30 1 H -0.908 1.98254 -0.117106 0
M  V30 2 N 0 1.576 0 0
M  V30 3 C 0.933 2.03868 1.02534 0
M  V30 4 C 1.911 0.928543 1.3348 0
M  V30 5 O 3.095 1.19667 1.45644 0
M  V30 6 C 0.222 2.43627 2.35294 0
M  V30 7 C -0.732 3.65373 2.2001 0
M  V30 8 S 0.101 5.13292 1.52614 0
M  V30 9 C 1.257 5.56322 2.86805 0
M  V30 10 H 1.49 2.90518 0.631377 0
M  V30 11 H -0.977 1.52953 0.210867 0
M  V30 12 H 0.981 2.67203 3.11629 0
M  V30 13 H -0.358 1.57376 2.7183 0
M  V30 14 H -1.165 3.90944 3.18086 0
M  V30 15 H -1.563 3.418 1.51819 0
M  V30 16 H 0.729 5.58782 3.83104 0
M  V30 17 H 1.672 6.56266 2.65933 0
M  V30 18 H 2.08 4.83886 2.90714 0
M  V30 19 N 1.4781 -0.272755 1.55222 0
M  V30 20 C 2.7261 -1.00234 1.75492 0
M  V30 21 C 3.0471 -1.8681 0.5592 0
M  V30 22 O 2.3171 -1.91215 -0.425882 0
M  V30 23 H 0.8971 -0.373076 0.647166 0
M  V30 24 H 3.5591 -0.296926 1.92625 0
M  V30 25 H 2.6551 -1.63913 2.65592 0
M  V30 26 N 2.9562 -1.48159 -0.537278 0
M  V30 27 C 3.8862 -1.65029 -1.6519 0
M  V30 28 C 4.8672 -0.499281 -1.62607 0
M  V30 29 O 6.0522 -0.730972 -1.79918 0
M  V30 30 C 3.1822 -1.68303 -3.03795 0
M  V30 31 C 2.1362 -2.8283 -3.21234 0
M  V30 32 C 1.4622 -2.71189 -4.60826 0
M  V30 33 C 2.7622 -4.24211 -3.04701 0
M  V30 34 H 4.4562 -2.58341 -1.51328 0
M  V30 35 H 2.0022 -1.24325 -0.726585 0
M  V30 36 H 3.9552 -1.78693 -3.81637 0
M  V30 37 H 2.6792 -0.715635 -3.18663 0
M  V30 38 H 1.3382 -2.71983 -2.45807 0
M  V30 39 H 0.9862 -1.72435 -4.7252 0
M  V30 40 H 0.6862 -3.48035 -4.7344 0
M  V30 41 H 2.2102 -2.83537 -5.40777 0
M  V30 42 H 3.6242 -4.3593 -3.72341 0
M  V30 43 H 2.0212 -5.01998 -3.28813 0
M  V30 44 H 3.0912 -4.41184 -2.01209 0
M  V30 45 N 4.4343 0.785586 -1.36625 0
M  V30 46 C 5.3643 1.91259 -1.33949 0
M  V30 47 C 6.3453 1.68795 -0.210325 0
M  V30 48 O 7.5303 1.89854 -0.408561 0
M  V30 49 C 4.6603 3.28339 -1.13186 0
M  V30 50 C 3.6143 3.65335 -2.22967 0
M  V30 51 C 2.9403 5.00806 -1.87342 0
M  V30 52 C 4.2403 3.7352 -3.65075 0
M  V30 53 H 5.9343 1.93755 -2.28253 0
M  V30 54 H 3.4803 0.930788 -1.09874 0
M  V30 55 H 5.4333 4.06804 -1.09948 0
M  V30 56 H 4.1573 3.2624 -0.153332 0
M  V30 57 H 2.8163 2.89169 -2.25337 0
M  V30 58 H 2.4643 4.95233 -0.880545 0
M  V30 59 H 2.1643 5.26529 -2.60846 0
M  V30 60 H 3.6883 5.81687 -1.85667 0
M  V30 61 H 5.1023 4.42168 -3.64911 0
M  V30 62 H 3.4993 4.10731 -4.37516 0
M  V30 63 H 4.5693 2.74527 -3.99703 0
M  V30 64 N 5.9124 1.20967 1.01018 0
M  V30 65 C 6.8424 0.988272 2.11555 0
M  V30 66 C 7.8234 -0.0849778 1.69888 0
M  V30 67 O 9.0084 0.0738202 1.9406 0
M  V30 68 C 6.1384 0.546528 3.42973 0
M  V30 69 C 5.0924 1.56375 3.9841 0
M  V30 70 C 4.4184 0.97842 5.25672 0
M  V30 71 C 5.7184 2.94922 4.31066 0
M  V30 72 H 7.4124 1.91276 2.30334 0
M  V30 73 H 4.9584 0.921073 1.1069 0
M  V30 74 H 6.9114 0.378839 4.19694 0
M  V30 75 H 5.6354 -0.413598 3.23971 0
M  V30 76 H 4.2944 1.71891 3.23804 0
M  V30 77 H 3.9424 0.0101688 5.02999 0
M  V30 78 H 3.6424 1.65784 5.63728 0
M  V30 79 H 5.1664 0.821939 6.05043 0
M  V30 80 H 6.5804 2.8288 4.9865 0
M  V30 81 H 4.9774 3.5983 4.80253 0
M  V30 82 H 6.0474 3.4616 3.39561 0
M  V30 83 N 7.3905 -1.2043 1.01659 0
M  V30 84 C 8.3205 -2.25466 0.607226 0
M  V30 85 C 9.3015 -1.65853 -0.377716 0
M  V30 86 O 10.4865 -1.92409 -0.263149 0
M  V30 87 C 7.6165 -3.47256 -0.0552949 0
M  V30 88 C 6.5705 -4.19462 0.850632 0
M  V30 89 C 5.8965 -5.34673 0.0538859 0
M  V30 90 C 7.1965 -4.75603 2.15868 0
M  V30 91 H 8.8905 -2.59962 1.48526 0
M  V30 92 H 6.4365 -1.2496 0.715605 0
M  V30 93 H 8.3895 -4.19917 -0.353233 0
M  V30 94 H 7.1135 -3.11924 -0.968045 0
M  V30 95 H 5.7725 -3.48667 1.13257 0
M  V30 96 H 5.4205 -4.95585 -0.860514 0
M  V30 97 H 5.1205 -5.83913 0.657192 0
M  V30 98 H 6.6445 -6.10138 -0.237598 0
M  V30 99 H 8.0585 -5.40083 1.92311 0
M  V30 100 H 6.4555 -5.3528 2.71284 0
M  V30 101 H 7.5255 -3.94346 2.82169 0
M  V30 102 N 8.8686 -0.792821 -1.36206 0
M  V30 103 C 10.1146 -0.36733 -1.99446 0
M  V30 104 C 10.4476 1.05917 -1.62774 0
M  V30 105 O 9.7226 1.7324 -0.88421 0
M  V30 106 C 10.0056 -0.535044 -3.56103 0
M  V30 107 C 9.8586 -2.00548 -4.02617 0
M  V30 108 C 11.1776 0.0478191 -4.40074 0
M  V30 109 H 8.2966 -0.134941 -0.724541 0
M  V30 110 H 10.9386 -0.999794 -1.61568 0
M  V30 111 H 9.0886 0.00336329 -3.885 0
M  V30 112 H 10.7606 -2.60521 -3.80692 0
M  V30 113 H 9.0036 -2.50686 -3.54032 0
M  V30 114 H 9.6746 -2.07377 -5.11565 0
M  V30 115 H 12.1506 -0.411822 -4.14057 0
M  V30 116 H 11.0266 -0.0995336 -5.4881 0
M  V30 117 H 11.2876 1.14025 -4.27142 0
M  V30 118 N 10.3467 1.47872 -0.545128 0
M  V30 119 C 11.7577 1.86384 -0.108581 0
M  V30 120 C 12.1087 1.45309 1.31832 0
M  V30 121 O 11.2337 0.850641 1.9898 0
M  V30 122 C 11.8287 3.38265 -0.190274 0
M  V30 123 C 10.3877 3.75914 0.191164 0
M  V30 124 C 9.5347 2.71926 -0.543273 0
M  V30 125 H 12.4857 1.39561 -0.755537 0
M  V30 126 H 12.5067 3.75831 0.594217 0
M  V30 127 H 12.0187 3.6813 -1.2289 0
M  V30 128 H 10.1197 3.51665 1.23136 0
M  V30 129 H 10.2327 4.78836 -0.158987 0
M  V30 130 H 8.5967 2.54697 0.0122495 0
M  V30 131 H 9.3797 3.04634 -1.58282 0
M  V30 132 N 11.8248 0.280983 1.55075 0
M  V30 133 C 12.7548 -0.597469 2.25727 0
M  V30 134 C 13.7358 -1.15417 1.24952 0
M  V30 135 O 14.9208 -1.18722 1.53684 0
M  V30 136 C 12.0508 -1.7789 2.98283 0
M  V30 137 C 11.0048 -1.35347 4.06036 0
M  V30 138 C 10.3308 -2.61846 4.66198 0
M  V30 139 C 11.6308 -0.499354 5.19907 0
M  V30 140 H 13.3248 -0.00824265 2.99399 0
M  V30 141 H 10.8708 -0.0025244 1.44 0
M  V30 142 H 12.8238 -2.39937 3.46422 0
M  V30 143 H 11.5478 -2.39405 2.22155 0
M  V30 144 H 10.2068 -0.756156 3.58717 0
M  V30 145 H 9.8548 -3.21632 3.86732 0
M  V30 146 H 9.5548 -2.3409 5.38958 0
M  V30 147 H 11.0788 -3.24732 5.1709 0
M  V30 148 H 12.4928 -1.02498 5.64063 0
M  V30 149 H 10.8898 -0.316424 5.99265 0
M  V30 150 H 11.9598 0.480459 4.82514 0
M  V30 151 N 13.3029 -1.57598 0.00835791 0
M  V30 152 C 14.2329 -2.1198 -0.979113 0
M  V30 153 C 15.2139 -1.03091 -1.35301 0
M  V30 154 O 16.3989 -1.30818 -1.43528 0
M  V30 155 C 13.5289 -2.62995 -2.26828 0
M  V30 156 C 12.4829 -3.76485 -2.03576 0
M  V30 157 C 11.8089 -4.13846 -3.38579 0
M  V30 158 C 13.1089 -5.0342 -1.39161 0
M  V30 159 H 14.8029 -2.94738 -0.526281 0
M  V30 160 H 12.3489 -1.41783 -0.251704 0
M  V30 161 H 14.3019 -2.99669 -2.96271 0
M  V30 162 H 13.0259 -1.7737 -2.7424 0
M  V30 163 H 11.6849 -3.40217 -1.36557 0
M  V30 164 H 11.3329 -3.25232 -3.83709 0
M  V30 165 H 11.0329 -4.90312 -3.23834 0
M  V30 166 H 12.5569 -4.53086 -4.09323 0
M  V30 167 H 13.9709 -5.37812 -1.98573 0
M  V30 168 H 12.3679 -5.84746 -1.34878 0
M  V30 169 H 13.4379 -4.83548 -0.361868 0
M  V30 170 N 14.781 0.264519 -1.55364 0
M  V30 171 C 15.711 1.33121 -1.91836 0
M  V30 172 C 16.692 1.51101 -0.781192 0
M  V30 173 O 17.877 1.64003 -1.04003 0
M  V30 174 C 15.007 2.68921 -2.19769 0
M  V30 175 C 13.961 2.65661 -3.35571 0
M  V30 176 C 13.287 4.05093 -3.49004 0
M  V30 177 C 14.587 2.24187 -4.71739 0
M  V30 178 H 16.281 1.02844 -2.81182 0
M  V30 179 H 13.827 0.493286 -1.35287 0
M  V30 180 H 15.78 3.43663 -2.43872 0
M  V30 181 H 14.504 3.00799 -1.27231 0
M  V30 182 H 13.163 1.93377 -3.1145 0
M  V30 183 H 12.811 4.34206 -2.53917 0
M  V30 184 H 12.511 4.03804 -4.26868 0
M  V30 185 H 14.035 4.81561 -3.75408 0
M  V30 186 H 15.449 2.88654 -4.9533 0
M  V30 187 H 13.846 2.34044 -5.52579 0
M  V30 188 H 14.916 1.19327 -4.69988 0
M  V30 189 N 16.2591 1.48442 0.529413 0
M  V30 190 C 17.1891 1.65902 1.64313 0
M  V30 191 C 18.1701 0.507897 1.6234 0
M  V30 192 O 19.3551 0.740503 1.79528 0
M  V30 193 C 16.4851 1.69911 3.02898 0
M  V30 194 C 15.4391 2.8453 3.19729 0
M  V30 195 C 14.7651 2.73629 4.59381 0
M  V30 196 C 16.0651 4.25821 3.02447 0
M  V30 197 H 17.7591 2.5914 1.49955 0
M  V30 198 H 15.3051 1.24709 0.719982 0
M  V30 199 H 17.2581 1.80715 3.80684 0
M  V30 200 H 15.9821 0.732524 3.18279 0
M  V30 201 H 14.6411 2.73283 2.44361 0
M  V30 202 H 14.2891 1.74938 4.71599 0
M  V30 203 H 13.9891 3.50541 4.71588 0
M  V30 204 H 15.5131 2.86401 5.39265 0
M  V30 205 H 16.9271 4.37898 3.70024 0
M  V30 206 H 15.3241 5.03735 3.26146 0
M  V30 207 H 16.3941 4.42244 1.98867 0
M  V30 208 N 17.7372 -0.778329 1.37039 0
M  V30 209 C 19.1482 -1.35421 1.28523 0
M  V30 210 C 19.4992 -1.96075 -0.0700901 0
M  V30 211 O 18.6242 -1.93352 -0.971801 0
M  V30 212 C 19.2192 -2.46211 2.32735 0
M  V30 213 C 17.7782 -2.99585 2.27873 0
M  V30 214 C 16.9252 -1.72748 2.16918 0
M  V30 215 H 19.8762 -0.5791 1.47757 0
M  V30 216 H 19.8972 -3.2552 1.9702 0
M  V30 217 H 19.4092 -2.02036 3.31365 0
M  V30 218 H 17.5102 -3.48152 1.32745 0
M  V30 219 H 17.6232 -3.55646 3.21018 0
M  V30 220 H 15.9872 -1.95416 1.63354 0
M  V30 221 H 16.7702 -1.30686 3.17452 0
M  V30 222 N 19.2153 -1.21501 -1.00376 0
M  V30 223 C 20.4633 -1.03095 -1.73827 0
M  V30 224 C 20.7843 0.436341 -1.90055 0
M  V30 225 O 20.0543 1.31466 -1.45236 0
M  V30 226 H 18.6343 -0.378487 -0.644016 0
M  V30 227 H 21.2963 -1.52831 -1.20949 0
M  V30 228 H 20.3923 -1.49991 -2.73695 0
M  V30 229 N 20.6934 1.19889 -1.02296 0
M  V30 230 C 21.9184 1.9393 -0.735237 0
M  V30 231 C 22.3434 1.74639 0.698782 0
M  V30 232 O 21.7014 1.04481 1.48167 0
M  V30 233 C 21.7494 3.43916 -1.08417 0
M  V30 234 O 20.8534 4.11917 -0.199446 0
M  V30 235 H 20.1944 0.605645 -0.272196 0
M  V30 236 H 22.7244 1.52137 -1.36804 0
M  V30 237 H 22.7344 3.9456 -1.03856 0
M  V30 238 H 21.4094 3.5728 -2.12894 0
M  V30 239 H 19.9864 3.71666 -0.303136 0
M  V30 240 N 22.1715 0.800033 1.35784 0
M  V30 241 C 23.4015 0.389041 2.02904 0
M  V30 242 C 23.8095 -1.0027 1.60445 0
M  V30 243 O 23.1525 -1.65633 0.794453 0
M  V30 244 C 23.2145 0.385495 3.57427 0
M  V30 245 C 22.8785 1.72662 4.23127 0
M  V30 246 C 23.8755 2.68385 4.4527 0
M  V30 247 C 21.5605 2.00883 4.60381 0
M  V30 248 C 23.5545 3.90517 5.03761 0
M  V30 249 C 21.2415 3.2328 5.18588 0
M  V30 250 C 22.2395 4.17915 5.40218 0
M  V30 251 O 21.9275 5.38153 5.97199 0
M  V30 252 H 21.6595 0.157032 0.657508 0
M  V30 253 H 24.2135 1.08311 1.74522 0
M  V30 254 H 22.4435 -0.365128 3.84972 0
M  V30 255 H 24.1325 -0.00228296 4.059 0
M  V30 256 H 24.8985 2.47872 4.16874 0
M  V30 257 H 20.7775 1.28037 4.42863 0
M  V30 258 H 24.3215 4.64395 5.2056 0
M  V30 259 H 20.2185 3.43667 5.4641 0
M  V30 260 H 20.9865 5.3936 6.15656 0
M  V30 261 N 23.6496 -1.47581 0.552962 0
M  V30 262 C 24.8976 -2.02082 0.0272703 0
M  V30 263 C 25.2186 -1.4301 -1.32563 0
M  V30 264 O 24.4886 -0.603745 -1.86365 0
M  V30 265 H 23.0686 -0.746966 0.00709182 0
M  V30 266 H 25.7306 -1.81033 0.722008 0
M  V30 267 H 24.8266 -3.12034 -0.0639951 0
M  V30 268 N 25.1277 -0.289203 -1.54924 0
M  V30 269 C 26.0577 0.58549 -2.2604 0
M  V30 270 C 27.0387 1.14753 -1.25562 0
M  V30 271 O 28.2237 1.17906 -1.54311 0
M  V30 272 C 25.3537 1.76305 -2.99222 0
M  V30 273 C 24.3077 1.33191 -4.06748 0
M  V30 274 C 23.6337 2.5937 -4.6758 0
M  V30 275 C 24.9337 0.471775 -5.20165 0
M  V30 276 H 26.6277 -0.00763532 -2.99399 0
M  V30 277 H 24.1737 -0.00511229 -1.43999 0
M  V30 278 H 26.1267 2.38097 -3.47689 0
M  V30 279 H 24.8507 2.38223 -2.23422 0
M  V30 280 H 23.5097 0.737121 -3.59113 0
M  V30 281 H 23.1577 3.19576 -3.88433 0
M  V30 282 H 22.8577 2.31228 -5.40192 0
M  V30 283 H 24.3817 3.21985 -5.18804 0
M  V30 284 H 25.7957 0.995056 -5.64599 0
M  V30 285 H 24.1927 0.284639 -5.99425 0
M  V30 286 H 25.2627 -0.506041 -4.82252 0
M  V30 287 N 26.6058 1.57591 -0.0167156 0
M  V30 288 C 28.0168 1.79201 0.523834 0
M  V30 289 C 28.3678 0.925796 1.72984 0
M  V30 290 O 27.4928 0.132792 2.15992 0
M  V30 291 C 28.0878 3.25 0.957091 0
M  V30 292 C 26.6468 3.47648 1.44283 0
M  V30 293 C 25.7938 2.74374 0.401757 0
M  V30 294 H 28.7448 1.56831 -0.242816 0
M  V30 295 H 28.7658 3.34031 1.82219 0
M  V30 296 H 28.2778 3.88019 0.0791415 0
M  V30 297 H 26.3788 2.89866 2.34113 0
M  V30 298 H 26.4918 4.56352 1.45877 0
M  V30 299 H 24.8558 2.39485 0.867121 0
M  V30 300 H 25.6388 3.40102 -0.467513 0
M  V30 301 N 28.0839 -0.256276 1.55502 0
M  V30 302 C 29.3309 -0.985619 1.76895 0
M  V30 303 C 29.6589 -1.85671 0.579355 0
M  V30 304 O 28.9139 -1.90744 -0.437651 0
M  V30 305 C 29.2129 -1.88432 3.03691 0
M  V30 306 C 28.8789 -1.16936 4.35473 0
M  V30 307 C 27.5409 -0.97173 4.71286 0
M  V30 308 C 29.8929 -0.661889 5.1698 0
M  V30 309 C 27.2209 -0.254179 5.86149 0
M  V30 310 C 29.5729 0.042149 6.32586 0
M  V30 311 C 28.2369 0.25134 6.67027 0
M  V30 312 H 27.5069 -0.360663 0.647304 0
M  V30 313 H 30.1539 -0.256483 1.89775 0
M  V30 314 H 28.4589 -2.68021 2.85783 0
M  V30 315 H 30.1559 -2.45015 3.1744 0
M  V30 316 H 26.7459 -1.33332 4.07333 0
M  V30 317 H 30.9299 -0.802145 4.89775 0
M  V30 318 H 26.1859 -0.0815408 6.11346 0
M  V30 319 H 30.3599 0.443049 6.94989 0
M  V30 320 H 27.9869 0.809314 7.5588 0
M  V30 321 N 29.562 -1.4872 -0.521534 0
M  V30 322 C 30.792 -1.6061 -1.29954 0
M  V30 323 C 31.2 -0.268728 -1.87282 0
M  V30 324 O 30.543 0.753221 -1.67548 0
M  V30 325 C 30.605 -2.60013 -2.48261 0
M  V30 326 C 30.269 -4.04874 -2.11957 0
M  V30 327 C 31.266 -4.92304 -1.67132 0
M  V30 328 C 28.951 -4.5047 -2.22221 0
M  V30 329 C 30.945 -6.2336 -1.33047 0
M  V30 330 C 28.632 -5.81544 -1.87748 0
M  V30 331 C 29.63 -6.67812 -1.43234 0
M  V30 332 O 29.318 -7.96446 -1.09217 0
M  V30 333 H 29.05 -0.544116 -0.401141 0
M  V30 334 H 31.604 -1.95339 -0.634958 0
M  V30 335 H 29.834 -2.20422 -3.17728 0
M  V30 336 H 31.523 -2.61648 -3.10315 0
M  V30 337 H 32.289 -4.58312 -1.58665 0
M  V30 338 H 28.168 -3.83504 -2.55823 0
M  V30 339 H 31.712 -6.90649 -0.982299 0
M  V30 340 H 27.609 -6.15069 -1.95858 0
M  V30 341 H 28.377 -8.09275 -1.22542 0
M  V30 342 N 31.0401 0.771051 -1.3745 0
M  V30 343 C 31.9881 1.90574 -1.33358 0
M  V30 344 C 32.9821 1.67936 -0.22224 0
M  V30 345 O 34.1881 1.75717 -0.390304 0
M  V30 346 H 30.5631 0.626714 -0.415612 0
M  V30 347 H 32.5341 1.91142 -2.29144 0
M  V30 348 C 31.2831 3.27845 -1.15813 0
M  V30 349 H 30.6061 3.45842 -2.00583 0
M  V30 350 H 32.0461 4.07538 -1.17 0
M  V30 351 C 30.5051 3.36625 0.136165 0
M  V30 352 O 31.0351 3.85785 1.11949 0
M  V30 353 N 29.2411 2.89997 0.187099 0
M  V30 354 H 28.7881 2.50182 -0.613753 0
M  V30 355 H 28.7461 2.96252 1.05272 0
M  V30 356 N 32.5182 1.22032 0.997298 0
M  V30 357 C 33.7662 1.04016 1.73278 0
M  V30 358 C 34.0872 -0.426255 1.90284 0
M  V30 359 O 33.3572 -1.30694 1.45931 0
M  V30 360 H 31.9372 0.381897 0.642 0
M  V30 361 H 34.5992 1.5347 1.20137 0
M  V30 362 H 33.6952 1.51441 2.72896 0
M  V30 363 N 33.9963 -1.19345 1.0293 0
M  V30 364 C 35.2433 -1.89038 0.726008 0
M  V30 365 C 35.5713 -1.79649 -0.745427 0
M  V30 366 O 34.8263 -1.18354 -1.55855 0
M  V30 367 C 35.1253 -3.39292 1.12319 0
M  V30 368 C 34.7913 -3.68885 2.59297 0
M  V30 369 C 33.4533 -3.76671 2.99453 0
M  V30 370 C 35.8053 -3.82178 3.54386 0
M  V30 371 C 33.1333 -3.9522 4.33611 0
M  V30 372 C 35.4853 -4.0224 4.88248 0
M  V30 373 C 34.1493 -4.08259 5.28092 0
M  V30 374 H 33.4193 -0.691739 0.265665 0
M  V30 375 H 36.0663 -1.41328 1.29223 0
M  V30 376 H 34.3713 -3.88903 0.475584 0
M  V30 377 H 36.0683 -3.91536 0.866037 0
M  V30 378 H 32.6583 -3.63433 2.27189 0
M  V30 379 H 36.8423 -3.75505 3.24514 0
M  V30 380 H 32.0983 -3.98119 4.64016 0
M  V30 381 H 36.2723 -4.11468 5.61843 0
M  V30 382 H 33.8993 -4.22384 6.32057 0
M  V30 383 N 35.4744 -0.807222 -1.35358 0
M  V30 384 C 36.7044 -0.399796 -2.02695 0
M  V30 385 C 37.1124 0.994176 -1.60974 0
M  V30 386 O 36.4554 1.65209 -0.803226 0
M  V30 387 C 36.5174 -0.404445 -3.57218 0
M  V30 388 C 36.1814 -1.74904 -4.22206 0
M  V30 389 C 37.1784 -2.70743 -4.4384 0
M  V30 390 C 34.8634 -2.03322 -4.5931 0
M  V30 391 C 36.8574 -3.93183 -5.01683 0
M  V30 392 C 34.5444 -3.26026 -5.16866 0
M  V30 393 C 35.5424 -4.20774 -5.37994 0
M  V30 394 O 35.2304 -5.41312 -5.94337 0
M  V30 395 H 34.9624 -0.160517 -0.656666 0
M  V30 396 H 37.5164 -1.09235 -1.73945 0
M  V30 397 H 35.7464 0.344707 -3.85161 0
M  V30 398 H 37.4354 -0.0192429 -4.05895 0
M  V30 399 H 38.2014 -2.5008 -4.15554 0
M  V30 400 H 34.0804 -1.30384 -4.42178 0
M  V30 401 H 37.6244 -4.6715 -5.1809 0
M  V30 402 H 33.5214 -3.46559 -5.44579 0
M  V30 403 H 34.2894 -5.42618 -6.12787 0
M  V30 404 N 36.9525 1.47285 -0.560781 0
M  V30 405 C 38.1825 2.06555 -0.0429638 0
M  V30 406 C 38.5905 1.41339 1.25777 0
M  V30 407 O 37.9335 0.505182 1.76617 0
M  V30 408 C 37.9955 3.58827 0.219887 0
M  V30 409 C 37.6595 4.46105 -0.991944 0
M  V30 410 C 38.6565 4.84 -1.89843 0
M  V30 411 C 36.3415 4.87567 -1.20762 0
M  V30 412 C 38.3355 5.6216 -3.00425 0
M  V30 413 C 36.0225 5.65491 -2.31653 0
M  V30 414 C 37.0205 6.02699 -3.21315 0
M  V30 415 O 36.7085 6.79052 -4.30283 0
M  V30 416 H 36.4405 0.674537 -0.0444468 0
M  V30 417 H 38.9945 1.90225 -0.774818 0
M  V30 418 H 37.2245 3.73383 1.00609 0
M  V30 419 H 38.9135 4.00103 0.683522 0
M  V30 420 H 39.6795 4.52564 -1.74387 0
M  V30 421 H 35.5585 4.5807 -0.518893 0
M  V30 422 H 39.1025 5.9112 -3.70436 0
M  V30 423 H 34.9995 5.9634 -2.47081 0
M  V30 424 H 35.7675 6.9745 -4.28376 0
M  V30 425 N 38.4306 0.297415 1.54768 0
M  V30 426 C 39.6556 -0.318435 2.04941 0
M  V30 427 C 40.0806 -1.4701 1.17345 0
M  V30 428 O 39.4386 -1.80436 0.176758 0
M  V30 429 C 39.4866 -0.755749 3.52592 0
M  V30 430 O 38.5906 -1.86088 3.68028 0
M  V30 431 H 37.9316 -0.062421 0.661059 0
M  V30 432 H 40.4616 0.438215 1.99852 0
M  V30 433 H 40.4716 -1.04552 3.94376 0
M  V30 434 H 39.1466 0.0867233 4.1581 0
M  V30 435 H 37.7236 -1.57193 3.38149 0
M  V30 436 N 39.9087 -1.5758 0.0250728 0
M  V30 437 C 40.8567 -2.11125 -0.97617 0
M  V30 438 C 41.8507 -1.03689 -1.33959 0
M  V30 439 O 43.0567 -1.22128 -1.3223 0
M  V30 440 H 39.4317 -0.674468 -0.332561 0
M  V30 441 H 41.4027 -2.94194 -0.499223 0
M  V30 442 C 40.1517 -2.65017 -2.2508 0
M  V30 443 H 39.4747 -3.47333 -1.9799 0
M  V30 444 H 40.9147 -3.06133 -2.93357 0
M  V30 445 C 39.3737 -1.57574 -2.97779 0
M  V30 446 O 39.9037 -0.973203 -3.89733 0
M  V30 447 N 38.1097 -1.29716 -2.60043 0
M  V30 448 H 37.6567 -1.789 -1.85345 0
M  V30 449 H 37.6147 -0.58051 -3.08994 0
M  V30 450 N 41.3868 0.248026 -1.55636 0
M  V30 451 C 42.6118 0.998028 -1.81808 0
M  V30 452 C 43.0368 1.78207 -0.601979 0
M  V30 453 O 42.3948 1.75653 0.448961 0
M  V30 454 C 42.4428 1.9125 -3.05705 0
M  V30 455 O 41.5468 3.00406 -2.82542 0
M  V30 456 H 40.8878 0.284045 -0.600179 0
M  V30 457 H 43.4178 0.269357 -2.02819 0
M  V30 458 H 43.4278 2.32737 -3.35108 0
M  V30 459 H 42.1028 1.33602 -3.93857 0
M  V30 460 H 40.6798 2.63056 -2.64303 0
M  V30 461 N 42.8649 1.48995 0.513639 0
M  V30 462 C 43.8279 1.64229 1.59879 0
M  V30 463 C 44.8279 0.514696 1.5234 0
M  V30 464 O 46.0179 0.78087 1.55718 0
M  V30 465 C 43.1499 1.62783 2.99524 0
M  V30 466 H 44.3429 2.61004 1.47705 0
M  V30 467 H 41.8959 1.37837 0.736936 0
M  V30 468 H 42.6309 0.675461 3.17188 0
M  V30 469 H 42.4159 2.4466 3.06404 0
M  V30 470 H 43.9059 1.76669 3.78388 0
M  V30 471 N 44.343 -0.763751 1.37857 0
M  V30 472 C 45.291 -1.89864 1.34367 0
M  V30 473 C 46.285 -1.67816 0.231143 0
M  V30 474 O 47.491 -1.75508 0.399617 0
M  V30 475 H 43.866 -0.624501 0.41893 0
M  V30 476 H 45.837 -1.89925 2.30155 0
M  V30 477 C 44.586 -3.27227 1.1755 0
M  V30 478 H 43.909 -3.44773 2.02414 0
M  V30 479 H 45.349 -4.06911 1.1916 0
M  V30 480 C 43.808 -3.36692 -0.118311 0
M  V30 481 O 44.338 -3.86374 -1.09902 0
M  V30 482 N 42.544 -2.90092 -0.171717 0
M  V30 483 H 42.091 -2.49853 0.627012 0
M  V30 484 H 42.049 -2.96806 -1.03699 0
M  V30 485 N 45.8211 -1.22559 -0.990812 0
M  V30 486 C 47.0981 -0.959875 -1.70428 0
M  V30 487 C 47.4781 0.524455 -2.04481 0
M  V30 488 O 46.8261 1.49302 -1.72977 0
M  V30 489 C 47.0361 -1.85955 -2.95333 0
M  V30 490 C 48.3841 -2.11687 -3.68068 0
M  V30 491 O 49.4081 -1.8342 -3.05345 0
M  V30 492 O 48.2671 -2.59572 -4.80921 0
M  V30 493 H 45.3611 -0.361154 -0.743974 0
M  V30 494 H 47.9071 -1.33554 -1.04697 0
M  V30 495 H 46.6791 -2.86346 -2.66687 0
M  V30 496 H 46.3021 -1.4856 -3.68803 0
M  V30 497 N 47.2992 1.18797 -1.03562 0
M  V30 498 C 48.2312 2.21731 -0.580337 0
M  V30 499 C 49.2442 1.59051 0.347349 0
M  V30 500 O 50.4332 1.77929 0.142669 0
M  V30 501 C 47.5332 3.38459 0.172805 0
M  V30 502 C 46.7062 4.3072 -0.761496 0
M  V30 503 C 45.7652 5.26174 -0.0525547 0
M  V30 504 O 44.7912 5.65108 -0.681333 0
M  V30 505 N 45.9932 5.67624 1.21586 0
M  V30 506 H 48.7582 2.61417 -1.46565 0
M  V30 507 H 46.3192 1.33531 -0.915476 0
M  V30 508 H 48.3112 3.99335 0.656793 0
M  V30 509 H 46.8812 2.97507 0.959602 0
M  V30 510 H 46.1012 3.67525 -1.42544 0
M  V30 511 H 47.3892 4.89267 -1.39626 0
M  V30 512 H 46.7872 5.38038 1.74732 0
M  V30 513 H 45.3442 6.30721 1.64421 0
M  V30 514 N 48.7773 0.814389 1.34928 0
M  V30 515 C 49.7253 0.218424 2.31572 0
M  V30 516 C 50.7193 -0.636128 1.57002 0
M  V30 517 O 51.9253 -0.52842 1.72069 0
M  V30 518 H 48.3003 0.0518799 0.750208 0
M  V30 519 H 50.2713 1.04852 2.79372 0
M  V30 520 C 49.0203 -0.61207 3.4227 0
M  V30 521 H 48.3433 0.0361578 3.99784 0
M  V30 522 H 49.7833 -0.995317 4.12152 0
M  V30 523 C 48.2423 -1.78087 2.85984 0
M  V30 524 O 48.7723 -2.8787 2.80168 0
M  V30 525 N 46.9783 -1.59488 2.42924 0
M  V30 526 H 46.5253 -0.701874 2.47854 0
M  V30 527 H 46.4833 -2.37846 2.05613 0
M  V30 528 N 50.2554 -1.46986 0.568584 0
M  V30 529 C 51.1854 -2.32946 -0.160753 0
M  V30 530 C 52.1664 -1.44487 -0.897631 0
M  V30 531 O 53.3514 -1.73327 -0.875867 0
M  V30 532 C 50.4814 -3.26494 -1.18403 0
M  V30 533 C 49.4354 -4.24282 -0.562895 0
M  V30 534 C 48.7614 -5.07236 -1.69163 0
M  V30 535 C 50.0614 -5.19989 0.490761 0
M  V30 536 H 51.7554 -2.94175 0.556916 0
M  V30 537 H 49.3014 -1.4146 0.26927 0
M  V30 538 H 51.2544 -3.85477 -1.70251 0
M  V30 539 H 49.9784 -2.63343 -1.93179 0
M  V30 540 H 48.6374 -3.66541 -0.0656164 0
M  V30 541 H 48.2854 -4.4048 -2.42871 0
M  V30 542 H 47.9854 -5.7345 -1.28174 0
M  V30 543 H 49.5094 -5.6908 -2.21314 0
M  V30 544 H 50.9234 -5.73271 0.0579047 0
M  V30 545 H 49.3204 -5.94469 0.820165 0
M  V30 546 H 50.3904 -4.64777 1.3824 0
M  V30 547 N 51.7335 -0.305618 -1.54608 0
M  V30 548 C 52.9815 0.301701 -1.99835 0
M  V30 549 C 53.3025 1.54054 -1.19551 0
M  V30 550 O 52.5725 1.93702 -0.292658 0
M  V30 551 H 51.1525 0.114468 -0.738178 0
M  V30 552 H 53.8145 -0.418016 -1.90364 0
M  V30 553 H 52.9105 0.570548 -3.06841 0
M  V30 554 N 53.2116 1.57565 -0.0334293 0
M  V30 555 C 54.1596 2.1164 0.96496 0
M  V30 556 C 55.1536 1.04398 1.33407 0
M  V30 557 O 56.3596 1.22828 1.3158 0
M  V30 558 H 52.7346 0.676222 0.32898 0
M  V30 559 H 54.7056 2.94455 0.483614 0
M  V30 560 C 53.4546 2.66207 2.23672 0
M  V30 561 H 52.7776 3.48378 1.96145 0
M  V30 562 H 54.2176 3.07685 2.9173 0
M  V30 563 C 52.6766 1.59151 2.96939 0
M  V30 564 O 53.2066 0.993858 3.89211 0
M  V30 565 N 51.4126 1.31093 2.59351 0
M  V30 566 H 50.9596 1.7988 1.84393 0
M  V30 567 H 50.9176 0.596889 3.08682 0
M  V30 568 N 54.6897 -0.239769 1.55765 0
M  V30 569 C 55.9377 -0.964892 1.77579 0
M  V30 570 C 56.2587 -1.85582 0.598699 0
M  V30 571 O 55.5287 -1.92075 -0.385226 0
M  V30 572 H 54.1087 -0.359265 0.654933 0
M  V30 573 H 56.7707 -0.256001 1.93211 0
M  V30 574 H 55.8667 -1.58243 2.69009 0
M  V30 575 N 56.1678 -1.49265 -0.50573 0
M  V30 576 C 57.1178 -1.6198 -1.60457 0
M  V30 577 C 58.1018 -0.47568 -1.53708 0
M  V30 578 O 59.2938 -0.728392 -1.61318 0
M  V30 579 C 56.4228 -1.68526 -2.99089 0
M  V30 580 C 55.5088 -2.885 -3.10852 0
M  V30 581 N 55.8998 -4.12635 -2.92517 0
M  V30 582 C 54.1978 -2.86338 -3.41945 0
M  V30 583 C 54.8988 -4.93258 -3.08337 0
M  V30 584 N 53.8748 -4.26533 -3.37003 0
M  V30 585 H 57.6768 -2.55681 -1.44928 0
M  V30 586 H 55.1908 -1.45972 -0.711752 0
M  V30 587 H 57.1878 -1.75732 -3.78053 0
M  V30 588 H 55.8478 -0.759584 -3.1569 0
M  V30 589 H 56.8588 -4.42689 -2.68787 0
M  V30 590 H 53.5358 -2.03129 -3.64753 0
M  V30 591 H 54.9258 -6.01856 -2.98695 0
M  V30 592 N 57.6459 0.756429 -1.3826 0
M  V30 593 C 58.8939 1.51248 -1.34047 0
M  V30 594 C 59.2149 1.94875 0.0698372 0
M  V30 595 O 58.4849 1.67436 1.01696 0
M  V30 596 H 57.0649 0.561018 -0.493222 0
M  V30 597 H 59.7269 0.899347 -1.7291 0
M  V30 598 H 58.8229 2.40472 -1.98947 0
M  V30 599 N 59.124 1.23083 0.984299 0
M  V30 600 C 60.071 1.00854 2.07598 0
M  V30 601 C 61.041 -0.0726709 1.65941 0
M  V30 602 O 62.226 0.0786535 1.90638 0
M  V30 603 C 59.366 0.601645 3.39815 0
M  V30 604 C 58.479 1.75456 3.94765 0
M  V30 605 C 57.614 1.29482 5.15177 0
M  V30 606 C 56.653 2.41873 5.62284 0
M  V30 607 N 55.79 1.96885 6.73929 0
M  V30 608 H 60.63 1.943 2.25946 0
M  V30 609 H 58.167 0.968001 1.10762 0
M  V30 610 H 60.125 0.346854 4.15756 0
M  V30 611 H 58.755 -0.295803 3.21442 0
M  V30 612 H 57.807 2.12346 3.15616 0
M  V30 613 H 59.119 2.59965 4.25699 0
M  V30 614 H 58.273 0.997923 5.98437 0
M  V30 615 H 57.012 0.420046 4.85888 0
M  V30 616 H 56.017 2.72342 4.77608 0
M  V30 617 H 57.242 3.29881 5.93595 0
M  V30 618 H 55.188 1.11782 6.46406 0
M  V30 619 H 55.105 2.74956 7.04227 0
M  V30 620 H 56.373 1.70289 7.60672 0
M  V30 621 N 60.6021 -1.18246 1.0419 0
M  V30 622 C 61.8791 -1.84121 0.660208 0
M  V30 623 C 62.2591 -1.92778 -0.860221 0
M  V30 624 O 61.6071 -1.45464 -1.76217 0
M  V30 625 C 61.8171 -3.22355 1.33747 0
M  V30 626 C 63.1651 -3.98376 1.46906 0
M  V30 627 O 64.1891 -3.31799 1.29568 0
M  V30 628 O 63.0481 -5.17665 1.75171 0
M  V30 629 H 60.1421 -0.794036 0.231161 0
M  V30 630 H 62.6881 -1.25628 1.14087 0
M  V30 631 H 61.4601 -3.10964 2.37522 0
M  V30 632 H 61.0831 -3.88506 0.845515 0
M  V30 633 N 62.0802 -0.821533 -1.34494 0
M  V30 634 C 63.0102 -0.257138 -2.3208 0
M  V30 635 C 63.9912 0.625645 -1.58176 0
M  V30 636 O 65.1762 0.552811 -1.86166 0
M  V30 637 C 62.3062 0.582958 -3.42372 0
M  V30 638 C 61.2602 -0.202571 -4.2752 0
M  V30 639 C 60.5862 0.760179 -5.29269 0
M  V30 640 C 61.8862 -1.40998 -5.02908 0
M  V30 641 H 63.5802 -1.07247 -2.79532 0
M  V30 642 H 61.1262 -0.517163 -1.34393 0
M  V30 643 H 63.0792 0.987972 -4.09655 0
M  V30 644 H 61.8032 1.43133 -2.93565 0
M  V30 645 H 60.4622 -0.588936 -3.61838 0
M  V30 646 H 60.1102 1.60447 -4.76724 0
M  V30 647 H 59.8102 0.238809 -5.87115 0
M  V30 648 H 61.3342 1.16308 -5.9942 0
M  V30 649 H 62.7482 -1.07905 -5.63054 0
M  V30 650 H 61.1452 -1.86689 -5.70322 0
M  V30 651 H 62.2152 -2.1889 -4.32684 0
M  V30 652 N 63.5583 1.46682 -0.576371 0
M  V30 653 C 64.4883 2.33028 0.148397 0
M  V30 654 C 65.4693 1.44961 0.889956 0
M  V30 655 O 66.6543 1.73789 0.866662 0
M  V30 656 C 63.7843 3.27117 1.1667 0
M  V30 657 C 62.7383 4.24575 0.540386 0
M  V30 658 C 62.0643 5.08126 1.6647 0
M  V30 659 C 63.3643 5.19722 -0.518331 0
M  V30 660 H 65.0583 2.93875 -0.572509 0
M  V30 661 H 62.6043 1.41315 -0.276768 0
M  V30 662 H 64.5573 3.86374 1.68204 0
M  V30 663 H 63.2813 2.64364 1.9178 0
M  V30 664 H 61.9403 3.66571 0.0461769 0
M  V30 665 H 61.5883 4.41762 2.40531 0
M  V30 666 H 61.2883 5.74122 1.25131 0
M  V30 667 H 62.8123 5.70246 2.18293 0
M  V30 668 H 64.2263 5.73232 -0.0883058 0
M  V30 669 H 62.6233 5.94026 -0.851679 0
M  V30 670 H 63.6933 4.64037 -1.40703 0
M  V30 671 N 65.0364 0.313813 1.54444 0
M  V30 672 C 65.9844 -0.572171 2.25453 0
M  V30 673 C 66.9784 -1.12657 1.2651 0
M  V30 674 O 68.1844 -1.07573 1.44319 0
M  V30 675 H 64.5594 -0.203146 0.724041 0
M  V30 676 H 66.5304 0.0491145 2.9836 0
M  V30 677 C 65.2794 -1.72626 3.0182 0
M  V30 678 H 64.6024 -1.30891 3.77767 0
M  V30 679 H 66.0424 -2.32199 3.54767 0
M  V30 680 C 64.5014 -2.63806 2.09542 0
M  V30 681 O 65.0314 -3.65256 1.67185 0
M  V30 682 N 63.2374 -2.31824 1.75232 0
M  V30 683 H 62.7844 -1.49368 2.09873 0
M  V30 684 H 62.7424 -2.93095 1.13767 0
M  V30 685 N 66.5145 -1.57545 0.0417849 0
M  V30 686 C 67.7625 -1.91937 -0.632829 0
M  V30 687 C 68.0835 -0.919978 -1.71934 0
M  V30 688 O 67.3535 0.0366064 -1.95866 0
M  V30 689 H 65.9335 -0.708493 -0.236742 0
M  V30 690 H 68.5955 -1.9468 0.0925745 0
M  V30 691 H 67.6915 -2.92912 -1.07746 0
M  V30 692 N 67.9926 0.231505 -1.5589 0
M  V30 693 C 69.2386 0.95877 -1.78705 0
M  V30 694 C 69.5716 1.8438 -0.609725 0
M  V30 695 O 68.8466 1.90521 0.391426 0
M  V30 696 C 69.1296 1.8062 -3.11526 0
M  V30 697 C 68.9826 0.948328 -4.39689 0
M  V30 698 C 70.3016 2.78585 -3.40703 0
M  V30 699 H 67.4206 0.347129 -0.650131 0
M  V30 700 H 70.0626 0.228259 -1.88624 0
M  V30 701 H 68.2126 2.42902 -3.03201 0
M  V30 702 H 69.8846 0.343016 -4.60023 0
M  V30 703 H 68.1276 0.253314 -4.3306 0
M  V30 704 H 68.7986 1.57543 -5.29041 0
M  V30 705 H 71.2746 2.26439 -3.49091 0
M  V30 706 H 70.1506 3.34988 -4.34826 0
M  V30 707 H 70.4116 3.55825 -2.62375 0
M  V30 708 N 69.4707 1.49531 0.497807 0
M  V30 709 C 70.4177 1.66436 1.59899 0
M  V30 710 C 71.3877 0.505793 1.58212 0
M  V30 711 O 72.5727 0.733202 1.7615 0
M  V30 712 C 69.7127 1.7399 2.98029 0
M  V30 713 C 68.8257 3.01172 3.09708 0
M  V30 714 C 67.9607 2.99686 4.38591 0
M  V30 715 C 66.9997 4.21434 4.43914 0
M  V30 716 N 66.1367 4.1784 5.64229 0
M  V30 717 H 70.9767 2.60459 1.44793 0
M  V30 718 H 68.5137 1.29137 0.704423 0
M  V30 719 H 70.4717 1.76352 3.78095 0
M  V30 720 H 69.1017 0.834301 3.11832 0
M  V30 721 H 68.1537 3.08408 2.22685 0
M  V30 722 H 69.4657 3.91165 3.09502 0
M  V30 723 H 68.6197 3.00628 5.2698 0
M  V30 724 H 67.3587 2.07477 4.41367 0
M  V30 725 H 66.3637 4.20733 3.53926 0
M  V30 726 H 67.5887 5.14839 4.42851 0
M  V30 727 H 65.5347 3.28469 5.67841 0
M  V30 728 H 65.4517 5.01571 5.65652 0
M  V30 729 H 66.7197 4.22889 6.54817 0
M  V30 730 N 70.9488 -0.749086 1.3866 0
M  V30 731 C 71.8788 -1.8764 1.38973 0
M  V30 732 C 72.8598 -1.68178 0.255004 0
M  V30 733 O 74.0448 -1.88704 0.458754 0
M  V30 734 C 71.1748 -3.25222 1.21851 0
M  V30 735 C 70.1288 -3.59295 2.32575 0
M  V30 736 C 69.4548 -4.95663 2.00555 0
M  V30 737 C 70.7548 -3.63709 3.7485 0
M  V30 738 H 72.4488 -1.87635 2.3331 0
M  V30 739 H 69.9948 -0.901329 1.12303 0
M  V30 740 H 71.9478 -4.03746 1.20695 0
M  V30 741 H 70.6718 -3.25719 0.239775 0
M  V30 742 H 69.3308 -2.83093 2.32925 0
M  V30 743 H 68.9788 -4.92724 1.01154 0
M  V30 744 H 68.6788 -5.19429 2.74714 0
M  V30 745 H 70.2028 -5.7656 2.01024 0
M  V30 746 H 71.6168 -4.32338 3.76506 0
M  V30 747 H 70.0138 -3.98986 4.48252 0
M  V30 748 H 71.0838 -2.63834 4.06841 0
M  V30 749 N 72.4269 -1.23603 -0.977757 0
M  V30 750 C 73.6729 -1.07129 -1.72195 0
M  V30 751 C 74.0059 0.390501 -1.90233 0
M  V30 752 O 73.2809 1.28902 -1.45653 0
M  V30 753 C 73.5639 -1.80031 -3.11867 0
M  V30 754 C 73.4169 -3.33899 -3.01383 0
M  V30 755 C 74.7359 -1.56492 -4.11337 0
M  V30 756 H 71.8549 -0.390571 -0.624999 0
M  V30 757 H 74.4969 -1.52142 -1.13811 0
M  V30 758 H 72.6469 -1.41768 -3.6171 0
M  V30 759 H 74.3189 -3.81699 -2.59043 0
M  V30 760 H 72.5619 -3.62796 -2.37827 0
M  V30 761 H 73.2329 -3.801 -4.00285 0
M  V30 762 H 75.7089 -1.89757 -3.70313 0
M  V30 763 H 74.5849 -2.09973 -5.07151 0
M  V30 764 H 74.8459 -0.500874 -4.39254 0
M  V30 765 N 73.905 1.17692 -1.04816 0
M  V30 766 C 75.151 1.88137 -0.75711 0
M  V30 767 C 75.484 1.80604 0.713841 0
M  V30 768 O 74.759 1.21146 1.52164 0
M  V30 769 C 75.042 3.38318 -1.2334 0
M  V30 770 C 74.895 3.54622 -2.76701 0
M  V30 771 C 76.214 4.32214 -0.829415 0
M  V30 772 H 73.333 0.683163 -0.27651 0
M  V30 773 H 75.975 1.38424 -1.30149 0
M  V30 774 H 74.125 3.80787 -0.770286 0
M  V30 775 H 75.797 3.21194 -3.31107 0
M  V30 776 H 74.04 2.97026 -3.16161 0
M  V30 777 H 74.711 4.60028 -3.05088 0
M  V30 778 H 77.187 3.97565 -1.22805 0
M  V30 779 H 76.063 5.35838 -1.19033 0
M  V30 780 H 76.324 4.41294 0.266891 0
M  V30 781 N 75.3831 0.828654 1.34056 0
M  V30 782 C 76.2931 0.256725 2.33191 0
M  V30 783 C 77.3091 -0.611898 1.62886 0
M  V30 784 O 78.4851 -0.51844 1.94613 0
M  V30 785 C 75.5501 -0.567238 3.42028 0
M  V30 786 C 74.6111 0.324458 4.28072 0
M  V30 787 C 73.8441 -0.460274 5.31712 0
M  V30 788 O 74.0671 -1.693 5.44696 0
M  V30 789 O 73.0011 0.160391 6.01686 0
M  V30 790 H 76.8271 1.07739 2.83947 0
M  V30 791 H 74.4121 0.59093 1.37217 0
M  V30 792 H 76.2941 -1.03582 4.08471 0
M  V30 793 H 74.9691 -1.36513 2.93506 0
M  V30 794 H 73.8761 0.840659 3.64532 0
M  V30 795 H 75.2091 1.08685 4.8005 0
M  V30 796 N 76.8612 -1.46375 0.584142 0
M  V30 797 C 78.0892 -2.06761 0.0759296 0
M  V30 798 C 78.5042 -1.43266 -1.22965 0
M  V30 799 O 77.8612 -0.538458 -1.74376 0
M  V30 800 C 77.9122 -3.61375 -0.0950384 0
M  V30 801 O 77.6332 -4.22495 1.15887 0
M  V30 802 C 79.1342 -4.38693 -0.637434 0
M  V30 803 H 76.3542 -0.668479 0.0581075 0
M  V30 804 H 78.8982 -1.8798 0.805218 0
M  V30 805 H 77.0532 -3.79578 -0.774554 0
M  V30 806 H 77.4672 -5.15385 0.973598 0
M  V30 807 H 78.9412 -5.47464 -0.706237 0
M  V30 808 H 79.4182 -4.06836 -1.65472 0
M  V30 809 H 80.0242 -4.25299 0.00725967 0
M  V30 810 N 78.3393 -0.321999 -1.54275 0
M  V30 811 C 79.7503 0.166384 -1.85957 0
M  V30 812 C 80.1013 1.51747 -1.24367 0
M  V30 813 O 79.2263 2.09317 -0.549124 0
M  V30 814 C 79.8213 0.308681 -3.37391 0
M  V30 815 C 78.3803 0.741286 -3.69028 0
M  V30 816 C 77.5273 -0.137937 -2.76957 0
M  V30 817 H 80.4783 -0.542335 -1.49146 0
M  V30 818 H 80.4993 1.13984 -3.63026 0
M  V30 819 H 80.0113 -0.674809 -3.82188 0
M  V30 820 H 78.1123 1.73458 -3.29762 0
M  V30 821 H 78.2253 0.546118 -4.75977 0
M  V30 822 H 76.5893 0.386251 -2.51754 0
M  V30 823 H 77.3723 -1.11816 -3.2458 0
M  V30 824 N 79.8174 1.5752 -0.0501392 0
M  V30 825 C 80.7274 2.14952 0.939827 0
M  V30 826 C 81.7434 1.10706 1.34239 0
M  V30 827 O 82.9194 1.42869 1.41952 0
M  V30 828 C 79.9844 2.68232 2.19665 0
M  V30 829 C 79.0454 3.87272 1.85253 0
M  V30 830 C 78.2784 4.38002 3.04943 0
M  V30 831 O 78.5014 3.87811 4.18281 0
M  V30 832 O 77.4354 5.29602 2.86017 0
M  V30 833 H 81.2614 2.9986 0.481392 0
M  V30 834 H 78.8464 1.4841 0.171699 0
M  V30 835 H 80.7284 3.02475 2.93406 0
M  V30 836 H 79.4034 1.86395 2.64648 0
M  V30 837 H 78.3104 3.5792 1.0883 0
M  V30 838 H 79.6434 4.70336 1.4507 0
M  V30 839 N 81.2955 -0.223234 1.56011 0
M  V30 840 C 82.2055 -1.29766 1.95443 0
M  V30 841 C 83.2215 -1.51373 0.858028 0
M  V30 842 O 84.3975 -1.64536 1.16146 0
M  V30 843 C 81.4625 -2.62772 2.26167 0
M  V30 844 C 80.5235 -2.49482 3.49367 0
M  V30 845 C 79.7565 -3.76145 3.78616 0
M  V30 846 O 79.9795 -4.79087 3.09568 0
M  V30 847 O 78.9135 -3.73358 4.72109 0
M  V30 848 H 82.7395 -0.99309 2.87004 0
M  V30 849 H 80.3245 -0.425958 1.43199 0
M  V30 850 H 82.2065 -3.41327 2.47131 0
M  V30 851 H 80.8815 -2.92913 1.37781 0
M  V30 852 H 79.7885 -1.69133 3.33684 0
M  V30 853 H 81.1215 -2.2428 4.38131 0
M  V30 854 N 82.7736 -1.49793 -0.48987 0
M  V30 855 C 84.0016 -1.63568 -1.26701 0
M  V30 856 C 84.4166 -0.311465 -1.86213 0
M  V30 857 O 83.7736 0.704416 -1.68357 0
M  V30 858 C 83.8246 -2.71284 -2.38929 0
M  V30 859 O 83.5456 -3.9857 -1.81861 0
M  V30 860 C 85.0466 -2.95864 -3.3012 0
M  V30 861 H 82.2666 -0.550342 -0.383881 0
M  V30 862 H 84.8106 -1.95898 -0.586864 0
M  V30 863 H 82.9656 -2.417 -3.02753 0
M  V30 864 H 83.3796 -4.57993 -2.55622 0
M  V30 865 H 84.8536 -3.74941 -4.05121 0
M  V30 866 H 85.3306 -2.06206 -3.87783 0
M  V30 867 H 85.9366 -3.26907 -2.72051 0
M  V30 868 N 84.2517 0.741722 -1.39055 0
M  V30 869 C 85.1817 1.869 -1.39966 0
M  V30 870 C 86.1627 1.6804 -0.26392 0
M  V30 871 O 87.3477 1.88458 -0.468755 0
M  V30 872 C 84.4777 3.24572 -1.23574 0
M  V30 873 C 83.4317 3.58056 -2.34477 0
M  V30 874 C 82.7577 4.94593 -2.0318 0
M  V30 875 C 84.0577 3.61716 -3.76774 0
M  V30 876 H 85.7517 1.86395 -2.34302 0
M  V30 877 H 83.2977 0.895361 -1.1278 0
M  V30 878 H 85.2507 4.031 -1.22834 0
M  V30 879 H 83.9747 3.25587 -0.257045 0
M  V30 880 H 82.6337 2.81854 -2.34423 0
M  V30 881 H 82.2817 4.92181 -1.03765 0
M  V30 882 H 81.9817 5.17964 -2.77465 0
M  V30 883 H 83.5057 5.75486 -2.04079 0
M  V30 884 H 84.9197 4.30335 -3.78794 0
M  V30 885 H 83.3167 3.96603 -4.50362 0
M  V30 886 H 84.3867 2.61672 -4.08235 0
M  V30 887 N 85.7298 1.2412 0.971189 0
M  V30 888 C 86.9768 1.07881 1.71371 0
M  V30 889 C 87.3048 -0.382901 1.90694 0
M  V30 890 O 86.5598 -1.29945 1.46331 0
M  V30 891 C 86.8588 1.75983 3.11071 0
M  V30 892 C 86.5248 3.25909 3.11599 0
M  V30 893 C 85.1868 3.66813 3.11451 0
M  V30 894 C 87.5388 4.21771 3.062 0
M  V30 895 C 84.8668 5.02021 3.03631 0
M  V30 896 C 87.2188 5.56982 2.99923 0
M  V30 897 C 85.8828 5.97237 2.98102 0
M  V30 898 H 85.1528 0.394764 0.62709 0
M  V30 899 H 87.7998 1.54176 1.13587 0
M  V30 900 H 86.1048 1.22072 3.72298 0
M  V30 901 H 87.8018 1.60887 3.6731 0
M  V30 902 H 84.3918 2.93353 3.12477 0
M  V30 903 H 88.5758 3.91172 3.05447 0
M  V30 904 H 83.8318 5.32411 3.0058 0
M  V30 905 H 88.0058 6.30969 2.94704 0
M  V30 906 H 85.6328 7.01967 2.91798 0
M  V30 907 N 87.2079 -1.17134 1.05439 0
M  V30 908 C 88.4359 -1.91372 0.786414 0
M  V30 909 C 88.8509 -1.76955 -0.658202 0
M  V30 910 O 88.2079 -1.10838 -1.44987 0
M  V30 911 C 88.2589 -3.42356 1.1608 0
M  V30 912 O 87.9799 -3.56332 2.54871 0
M  V30 913 C 89.4809 -4.33663 0.919322 0
M  V30 914 H 86.7009 -0.607118 0.285743 0
M  V30 915 H 89.2449 -1.48525 1.40572 0
M  V30 916 H 87.3999 -3.82939 0.586191 0
M  V30 917 H 87.8139 -4.49896 2.69618 0
M  V30 918 H 89.2879 -5.38099 1.231 0
M  V30 919 H 89.7649 -4.38959 -0.145359 0
M  V30 920 H 90.3709 -3.98796 1.47789 0
M  V30 921 N 88.686 -0.835752 -1.33615 0
M  V30 922 C 89.916 -0.442701 -2.01801 0
M  V30 923 C 90.324 0.959807 -1.63047 0
M  V30 924 O 89.667 1.63468 -0.838088 0
M  V30 925 C 89.729 -0.480125 -3.56279 0
M  V30 926 C 89.393 -1.8382 -4.18401 0
M  V30 927 C 90.39 -2.80097 -4.37998 0
M  V30 928 C 88.075 -2.13019 -4.54894 0
M  V30 929 C 90.069 -4.03736 -4.9323 0
M  V30 930 C 87.756 -3.36916 -5.09834 0
M  V30 931 C 88.754 -4.32091 -5.28948 0
M  V30 932 O 88.442 -5.53797 -5.82721 0
M  V30 933 H 88.174 -0.17441 -0.653114 0
M  V30 934 H 90.728 -1.129 -1.71589 0
M  V30 935 H 88.958 0.262931 -3.85805 0
M  V30 936 H 90.647 -0.105335 -4.05763 0
M  V30 937 H 91.413 -2.58838 -4.10156 0
M  V30 938 H 87.292 -1.39733 -4.39313 0
M  V30 939 H 90.836 -4.78034 -5.08064 0
M  V30 940 H 86.733 -3.58033 -5.37106 0
M  V30 941 H 87.501 -5.55494 -6.0114 0
M  V30 942 N 90.1641 1.46063 -0.591896 0
M  V30 943 C 91.0961 2.28539 0.174001 0
M  V30 944 C 92.1091 1.39047 0.846753 0
M  V30 945 O 93.2981 1.63564 0.714774 0
M  V30 946 C 90.3981 3.14347 1.26645 0
M  V30 947 C 89.5711 4.32021 0.683856 0
M  V30 948 C 88.6301 4.99157 1.66518 0
M  V30 949 O 87.6561 5.56458 1.19763 0
M  V30 950 N 88.8581 4.97005 2.99943 0
M  V30 951 H 91.6231 2.94911 -0.533633 0
M  V30 952 H 89.1841 1.56077 -0.430294 0
M  V30 953 H 91.1761 3.56125 1.92242 0
M  V30 954 H 89.7461 2.49988 1.87682 0
M  V30 955 H 88.9661 3.93915 -0.1498 0
M  V30 956 H 90.2541 5.08059 0.274567 0
M  V30 957 H 89.6521 4.51714 3.40545 0
M  V30 958 H 88.2091 5.42696 3.61004 0
M  V30 959 N 91.6422 0.330177 1.54103 0
M  V30 960 C 92.8902 -0.269871 2.0029 0
M  V30 961 C 93.2112 -1.52133 1.21986 0
M  V30 962 O 92.4812 -1.93212 0.323438 0
M  V30 963 H 91.0612 -0.10271 0.739905 0
M  V30 964 H 93.7232 0.448249 1.89675 0
M  V30 965 H 92.8192 -0.52166 3.07709 0
M  V30 966 N 93.1203 -1.57491 0.0584922 0
M  V30 967 C 94.0833 -2.1085 -0.898617 0
M  V30 968 C 95.0833 -1.02964 -1.23511 0
M  V30 969 O 96.2733 -1.29007 -1.17059 0
M  V30 970 C 93.4053 -2.59881 -2.20623 0
M  V30 971 H 94.5983 -2.96715 -0.435936 0
M  V30 972 H 92.1513 -1.55141 -0.190023 0
M  V30 973 H 92.8863 -1.77431 -2.71457 0
M  V30 974 H 92.6713 -3.38727 -1.97501 0
M  V30 975 H 94.1613 -3.01285 -2.89166 0
M  V30 976 N 94.5984 0.214957 -1.56127 0
M  V30 977 C 95.8234 0.95924 -1.83884 0
M  V30 978 C 96.2484 1.7689 -0.639644 0
M  V30 979 O 95.6064 1.76566 0.411601 0
M  V30 980 C 95.6544 1.84723 -3.09693 0
M  V30 981 O 94.7584 2.94346 -2.8885 0
M  V30 982 H 94.0994 0.27125 -0.606069 0
M  V30 983 H 96.6294 0.226276 -2.03345 0
M  V30 984 H 96.6394 2.25576 -3.39969 0
M  V30 985 H 95.3144 1.25218 -3.96602 0
M  V30 986 H 93.8914 2.57391 -2.69823 0
M  V30 987 N 96.0765 1.50051 0.48192 0
M  V30 988 C 97.3225 1.60736 1.2366 0
M  V30 989 C 97.6555 0.301786 1.91841 0
M  V30 990 O 96.9305 -0.696025 1.8162 0
M  V30 991 C 97.2135 2.78009 2.28874 0
M  V30 992 C 97.0665 4.18416 1.65069 0
M  V30 993 C 98.3855 2.90867 3.30279 0
M  V30 994 H 95.5045 0.585031 0.448228 0
M  V30 995 H 98.1465 1.82402 0.531946 0
M  V30 996 H 96.2965 2.59667 2.88973 0
M  V30 997 H 97.9685 4.48322 1.0865 0
M  V30 998 H 96.2115 4.23177 0.954148 0
M  V30 999 H 96.8825 4.96381 2.41474 0
M  V30 1000 H 99.3585 3.07623 2.80191 0
M  V30 1001 H 98.2345 3.74566 4.01238 0
M  V30 1002 H 98.4955 2.01021 3.93755 0
M  V30 1003 N 97.5546 -0.734337 1.39446 0
M  V30 1004 C 98.8036 -1.48937 1.36017 0
M  V30 1005 C 99.1166 -1.95557 -0.0409005 0
M  V30 1006 O 100.323 -2.70779 -0.19778 0
M  V30 1007 C 98.7786 -2.69125 2.38955 0
M  V30 1008 C 98.3866 -2.29452 3.8478 0
M  V30 1009 C 100.131 -3.46944 2.44603 0
M  V30 1010 C 98.0376 -3.46366 4.79358 0
M  V30 1011 H 96.9676 -0.559296 0.505672 0
M  V30 1012 H 99.6186 -0.800983 1.65095 0
M  V30 1013 H 98.0006 -3.40041 2.02948 0
M  V30 1014 H 99.1746 -1.66077 4.29831 0
M  V30 1015 H 97.4896 -1.64723 3.82433 0
M  V30 1016 H 100.087 -4.33907 3.12456 0
M  V30 1017 H 100.43 -3.89454 1.47076 0
M  V30 1018 H 100.963 -2.83056 2.79507 0
M  V30 1019 H 97.7016 -3.08905 5.78151 0
M  V30 1020 H 97.2216 -4.08719 4.38986 0
M  V30 1021 H 98.9006 -4.12691 4.98292 0
M  V30 1022 N 99.0327 -1.24633 -0.964593 0
M  V30 1023 C 99.9627 -1.06611 -2.07741 0
M  V30 1024 C 100.944 0.0218666 -1.70086 0
M  V30 1025 O 102.129 -0.145793 -1.93652 0
M  V30 1026 C 99.2587 -0.673444 -3.40708 0
M  V30 1027 C 98.2127 -1.71054 -3.92332 0
M  V30 1028 C 97.5387 -1.17285 -5.21678 0
M  V30 1029 C 98.8387 -3.10718 -4.19824 0
M  V30 1030 H 100.533 -1.99693 -2.23076 0
M  V30 1031 H 98.0787 -0.96152 -1.07195 0
M  V30 1032 H 100.032 -0.534345 -4.17998 0
M  V30 1033 H 98.7557 0.293073 -3.25282 0
M  V30 1034 H 97.4147 -1.83791 -3.17201 0
M  V30 1035 H 97.0627 -0.196847 -5.02615 0
M  V30 1036 H 96.7627 -1.86592 -5.57187 0
M  V30 1037 H 98.2867 -1.04593 -6.01575 0
M  V30 1038 H 99.7007 -3.01192 -4.87808 0
M  V30 1039 H 98.0977 -3.77406 -4.66567 0
M  V30 1040 H 99.1677 -3.58524 -3.26479 0
M  V30 1041 N 100.511 1.16574 -1.06058 0
M  V30 1042 C 101.922 1.68662 -0.800632 0
M  V30 1043 C 102.273 1.84184 0.67608 0
M  V30 1044 O 101.398 1.53568 1.52466 0
M  V30 1045 C 101.993 3.06356 -1.44676 0
M  V30 1046 C 100.552 3.55575 -1.23465 0
M  V30 1047 C 99.6988 2.31616 -1.52477 0
M  V30 1048 H 102.65 1.00969 -1.22438 0
M  V30 1049 H 102.671 3.70636 -0.860788 0
M  V30 1050 H 102.183 2.95027 -2.52152 0
M  V30 1051 H 100.284 3.72167 -0.179527 0
M  V30 1052 H 100.397 4.37812 -1.94571 0
M  V30 1053 H 98.7608 2.36512 -0.945209 0
M  V30 1054 H 99.5438 2.22887 -2.61106 0
M  V30 1055 N 101.989 0.842826 1.3317 0
M  V30 1056 C 103.229 0.446574 1.99462 0
M  V30 1057 C 103.593 -0.976818 1.65295 0
M  V30 1058 O 104.794 -1.477 2.24584 0
M  V30 1059 C 103.065 0.665353 3.51152 0
M  V30 1060 S 104.624 0.364911 4.3728 0
M  V30 1061 H 101.442 0.167803 0.690915 0
M  V30 1062 H 104.044 1.09297 1.62094 0
M  V30 1063 H 102.748 1.7006 3.73507 0
M  V30 1064 H 102.279 0.00494568 3.934 0
M  V30 1065 H 104.294 -0.813761 4.89482 0
M  V30 1066 N 103.467 -1.45747 0.599634 0
M  V30 1067 C 104.883 -1.57424 0.26264 0
M  V30 1068 C 105.083 -1.59222 -1.23493 0
M  V30 1069 O 104.139 -1.51825 -2.01756 0
M  V30 1070 C 105.452 -2.86061 0.926795 0
M  V30 1071 C 107 -2.99722 0.901967 0
M  V30 1072 C 107.475 -4.31119 1.54598 0
M  V30 1073 N 108.966 -4.37858 1.5111 0
M  V30 1074 C 109.701 -5.3818 1.97863 0
M  V30 1075 N 109.197 -6.45083 2.52666 0
M  V30 1076 N 110.99 -5.29487 1.88679 0
M  V30 1077 H 103.141 -1.42823 1.57211 0
M  V30 1078 H 105.404 -0.68235 0.658105 0
M  V30 1079 H 105.11 -2.90605 1.98095 0
M  V30 1080 H 104.984 -3.74563 0.445238 0
M  V30 1081 H 107.371 -2.9475 -0.143617 0
M  V30 1082 H 107.452 -2.12652 1.42171 0
M  V30 1083 H 107.096 -4.36849 2.59085 0
M  V30 1084 H 107.026 -5.16992 1.00132 0
M  V30 1085 H 109.517 -3.61209 1.11068 0
M  V30 1086 H 109.83 -7.17869 2.86155 0
M  V30 1087 H 108.175 -6.45856 2.56701 0
M  V30 1088 H 111.366 -4.44877 1.4561 0
M  V30 1089 H 111.539 -6.07524 2.25429 0
M  V30 1090 N 104.945 -0.338344 -1.53925 0
M  V30 1091 C 106.175 0.260919 -2.04946 0
M  V30 1092 C 106.583 1.45174 -1.2133 0
M  V30 1093 O 105.926 1.82122 -0.240262 0
M  V30 1094 C 105.988 0.744596 -3.51704 0
M  V30 1095 C 105.652 -0.325883 -4.55837 0
M  V30 1096 C 106.649 -1.16687 -5.06636 0
M  V30 1097 C 104.334 -0.478317 -5.00017 0
M  V30 1098 C 106.328 -2.14588 -6.00192 0
M  V30 1099 C 104.015 -1.46073 -5.93385 0
M  V30 1100 C 105.013 -2.29297 -6.4336 0
M  V30 1101 O 104.701 -3.25867 -7.34892 0
M  V30 1102 H 104.433 0.0551207 -0.673749 0
M  V30 1103 H 106.987 -0.486984 -1.99544 0
M  V30 1104 H 105.217 1.54366 -3.54553 0
M  V30 1105 H 106.906 1.26383 -3.85723 0
M  V30 1106 H 107.672 -1.06016 -4.73271 0
M  V30 1107 H 103.551 0.159613 -4.60724 0
M  V30 1108 H 107.095 -2.79585 -6.39123 0
M  V30 1109 H 102.992 -1.56802 -6.26166 0
M  V30 1110 H 103.76 -3.21278 -7.5281 0
M  V30 1111 N 106.423 1.57458 -0.0668435 0
M  V30 1112 C 107.839 1.56947 0.289772 0
M  V30 1113 C 108.039 1.07584 1.70376 0
M  V30 1114 O 107.095 0.739486 2.41429 0
M  V30 1115 C 108.408 3.0052 0.103943 0
M  V30 1116 C 109.956 3.12517 0.173857 0
M  V30 1117 C 110.431 4.57997 0.0163682 0
M  V30 1118 N 111.922 4.63144 0.0721352 0
M  V30 1119 C 112.657 5.73394 -0.0253794 0
M  V30 1120 N 112.153 6.92576 -0.176133 0
M  V30 1121 N 113.946 5.62091 0.0313305 0
M  V30 1122 H 106.097 1.87863 -0.991027 0
M  V30 1123 H 108.36 0.86583 -0.38606 0
M  V30 1124 H 108.066 3.40729 -0.871572 0
M  V30 1125 H 107.94 3.67304 0.858366 0
M  V30 1126 H 110.327 2.72197 1.13985 0
M  V30 1127 H 110.408 2.48381 -0.611586 0
M  V30 1128 H 110.052 4.99005 -0.946374 0
M  V30 1129 H 109.982 5.20158 0.821153 0
M  V30 1130 H 112.473 3.77436 0.187263 0
M  V30 1131 H 112.786 7.72418 -0.242821 0
M  V30 1132 H 111.131 6.94678 -0.211429 0
M  V30 1133 H 114.322 4.67867 0.147773 0
M  V30 1134 H 114.495 6.47982 -0.048121 0
M  V30 1135 N 107.901 -0.206675 1.56239 0
M  V30 1136 C 109.131 -0.943975 1.83773 0
M  V30 1137 C 109.539 -1.77841 0.645703 0
M  V30 1138 O 108.882 -1.79403 -0.395008 0
M  V30 1139 C 108.944 -1.899 3.05251 0
M  V30 1140 C 108.608 -1.24764 4.39639 0
M  V30 1141 C 109.605 -0.630216 5.16066 0
M  V30 1142 C 107.29 -1.25496 4.8637 0
M  V30 1143 C 109.284 -0.0287946 6.37393 0
M  V30 1144 C 106.971 -0.649698 6.07637 0
M  V30 1145 C 107.969 -0.0376845 6.8299 0
M  V30 1146 O 107.657 0.55812 8.0196 0
M  V30 1147 H 107.389 -0.281508 0.614597 0
M  V30 1148 H 109.943 -0.222458 2.04192 0
M  V30 1149 H 108.173 -2.6599 2.80689 0
M  V30 1150 H 109.862 -2.5031 3.1953 0
M  V30 1151 H 110.628 -0.616785 4.81062 0
M  V30 1152 H 106.507 -1.72072 4.27683 0
M  V30 1153 H 110.051 0.449518 6.9615 0
M  V30 1154 H 105.948 -0.660592 6.42111 0
M  V30 1155 H 106.716 0.453891 8.17241 0
M  V30 1156 N 109.379 -1.50304 -0.473955 0
M  V30 1157 C 110.289 -1.7174 -1.5982 0
M  V30 1158 C 111.305 -0.600457 -1.63311 0
M  V30 1159 O 112.481 -0.878441 -1.81233 0
M  V30 1160 C 109.546 -1.80427 -2.96052 0
M  V30 1161 C 108.607 -3.04148 -3.02972 0
M  V30 1162 C 107.84 -3.12411 -4.32706 0
M  V30 1163 O 108.063 -2.27542 -5.23049 0
M  V30 1164 O 106.997 -4.05113 -4.45159 0
M  V30 1165 H 110.823 -2.67035 -1.44657 0
M  V30 1166 H 108.408 -1.34366 -0.653148 0
M  V30 1167 H 110.29 -1.88338 -3.7697 0
M  V30 1168 H 108.965 -0.883156 -3.11419 0
M  V30 1169 H 107.872 -3.0174 -2.21142 0
M  V30 1170 H 109.205 -3.95829 -2.92541 0
M  V30 1171 N 110.857 0.726932 -1.39834 0
M  V30 1172 C 112.268 1.30558 -1.3346 0
M  V30 1173 C 112.619 1.962 -0.00273003 0
M  V30 1174 O 111.744 1.96826 0.899371 0
M  V30 1175 C 112.339 2.37404 -2.41713 0
M  V30 1176 C 110.898 2.90921 -2.38835 0
M  V30 1177 C 110.045 1.64578 -2.2318 0
M  V30 1178 H 112.996 0.523862 -1.49804 0
M  V30 1179 H 113.017 3.17984 -2.08966 0
M  V30 1180 H 112.529 1.89599 -3.38635 0
M  V30 1181 H 110.63 3.42985 -1.45575 0
M  V30 1182 H 110.743 3.43487 -3.33997 0
M  V30 1183 H 109.107 1.89219 -1.70494 0
M  V30 1184 H 109.89 1.18814 -3.22084 0
M  V30 1185 N 112.336 1.25143 0.95797 0
M  V30 1186 C 113.299 1.05321 2.03569 0
M  V30 1187 C 114.299 0.007152 1.60798 0
M  V30 1188 O 115.489 0.24903 1.72411 0
M  V30 1189 C 112.621 0.598394 3.35607 0
M  V30 1190 H 113.814 2.00986 2.22586 0
M  V30 1191 H 111.367 1.07502 1.13459 0
M  V30 1192 H 112.102 -0.361014 3.22284 0
M  V30 1193 H 111.887 1.35351 3.67998 0
M  V30 1194 H 113.377 0.48104 4.1482 0
M  V30 1195 N 113.814 -1.1601 1.06675 0
M  V30 1196 C 114.744 -2.22688 0.702307 0
M  V30 1197 C 115.725 -1.67306 -0.307032 0
M  V30 1198 O 116.91 -1.93352 -0.181305 0
M  V30 1199 C 114.04 -3.47178 0.092038 0
M  V30 1200 C 112.994 -4.15477 1.02777 0
M  V30 1201 C 112.32 -5.33963 0.28061 0
M  V30 1202 C 113.62 -4.66019 2.35846 0
M  V30 1203 H 115.314 -2.53429 1.59419 0
M  V30 1204 H 112.86 -1.21813 0.767961 0
M  V30 1205 H 114.813 -4.21037 -0.174814 0
M  V30 1206 H 113.537 -3.15749 -0.834877 0
M  V30 1207 H 112.196 -3.43549 1.27944 0
M  V30 1208 H 111.844 -4.98788 -0.649545 0
M  V30 1209 H 111.544 -5.806 0.904258 0
M  V30 1210 H 113.068 -6.10596 0.021396 0
M  V30 1211 H 114.482 -5.3144 2.15045 0
M  V30 1212 H 112.879 -5.23293 2.93743 0
M  V30 1213 H 113.949 -3.82023 2.98641 0
M  V30 1214 N 115.292 -0.849877 -1.32721 0
M  V30 1215 C 116.538 -0.451591 -1.97708 0
M  V30 1216 C 116.871 0.989175 -1.6712 0
M  V30 1217 O 116.146 1.69334 -0.956891 0
M  V30 1218 C 116.429 -0.685598 -3.53513 0
M  V30 1219 C 116.282 -2.17444 -3.93749 0
M  V30 1220 C 117.601 -0.138874 -4.39881 0
M  V30 1221 H 114.72 -0.16555 -0.718166 0
M  V30 1222 H 117.362 -1.06742 -1.57182 0
M  V30 1223 H 115.512 -0.161416 -3.88165 0
M  V30 1224 H 117.184 -2.76433 -3.693 0
M  V30 1225 H 115.427 -2.65476 -3.43081 0
M  V30 1226 H 116.098 -2.28888 -5.02309 0
M  V30 1227 H 118.574 -0.587068 -4.11938 0
M  V30 1228 H 117.45 -0.332213 -5.47894 0
M  V30 1229 H 117.711 0.95806 -4.31594 0
M  V30 1230 N 116.77 1.45427 -0.607355 0
M  V30 1231 C 117.995 2.07124 -0.107006 0
M  V30 1232 C 118.42 1.44906 1.19933 0
M  V30 1233 O 117.778 0.541687 1.73019 0
M  V30 1234 C 117.826 3.60595 0.0194119 0
M  V30 1235 O 116.93 3.98285 1.0697 0
M  V30 1236 H 116.271 0.659868 -0.0739597 0
M  V30 1237 H 118.801 1.86683 -0.837297 0
M  V30 1238 H 118.811 4.07419 0.2177 0
M  V30 1239 H 117.486 4.05266 -0.934453 0
M  V30 1240 H 116.063 3.63133 0.847889 0
M  V30 1241 N 118.248 0.346503 1.53744 0
M  V30 1242 C 119.659 -0.136779 1.86198 0
M  V30 1243 C 120.01 -1.49749 1.26766 0
M  V30 1244 O 119.135 -2.08417 0.582355 0
M  V30 1245 C 119.73 -0.254966 3.37839 0
M  V30 1246 C 118.289 -0.682482 3.70161 0
M  V30 1247 C 117.436 0.181981 2.76702 0
M  V30 1248 H 120.387 0.565994 1.48264 0
M  V30 1249 H 120.408 -1.08195 3.64793 0
M  V30 1250 H 119.92 0.735526 3.81066 0
M  V30 1251 H 118.021 -1.68189 3.3248 0
M  V30 1252 H 118.134 -0.470326 4.76786 0
M  V30 1253 H 116.498 -0.34615 2.52337 0
M  V30 1254 H 117.281 1.16966 3.2276 0
M  V30 1255 N 119.726 -1.57421 0.075193 0
M  V30 1256 C 121.142 -1.57099 -0.281444 0
M  V30 1257 C 121.342 -1.08486 -1.69803 0
M  V30 1258 O 120.398 -0.752279 -2.41033 0
M  V30 1259 C 121.711 -3.00571 -0.0880041 0
M  V30 1260 C 123.259 -3.12605 -0.157281 0
M  V30 1261 C 123.734 -4.57999 0.0079207 0
M  V30 1262 N 125.225 -4.63176 -0.0475725 0
M  V30 1263 C 125.96 -5.73373 0.0557876 0
M  V30 1264 N 125.456 -6.92473 0.21286 0
M  V30 1265 N 127.249 -5.621 -0.00152098 0
M  V30 1266 H 119.4 -1.87335 1.00098 0
M  V30 1267 H 121.663 -0.86377 0.390646 0
M  V30 1268 H 121.369 -3.40262 0.889629 0
M  V30 1269 H 121.243 -3.67754 -0.838875 0
M  V30 1270 H 123.63 -2.72798 -1.1254 0
M  V30 1271 H 123.711 -2.48053 0.62475 0
M  V30 1272 H 123.355 -4.98496 0.972824 0
M  V30 1273 H 123.285 -5.20586 -0.793556 0
M  V30 1274 H 125.776 -3.7753 -0.167244 0
M  V30 1275 H 126.089 -7.72279 0.283781 0
M  V30 1276 H 124.434 -6.94556 0.248267 0
M  V30 1277 H 127.625 -4.67938 -0.122958 0
M  V30 1278 H 127.798 -6.47948 0.0824844 0
M  V30 1279 N 121.204 0.198386 -1.56346 0
M  V30 1280 C 122.62 0.549085 -1.49857 0
M  V30 1281 C 122.82 1.86016 -0.774611 0
M  V30 1282 O 121.876 2.50416 -0.323776 0
M  V30 1283 C 123.189 0.606868 -2.94512 0
M  V30 1284 C 124.737 0.695925 -3.05165 0
M  V30 1285 C 125.212 0.784848 -4.51225 0
M  V30 1286 N 126.703 0.848463 -4.55363 0
M  V30 1287 C 127.438 0.937378 -5.65686 0
M  V30 1288 N 126.934 0.9888 -6.85707 0
M  V30 1289 N 128.727 0.974312 -5.53592 0
M  V30 1290 H 120.878 -0.661655 -2.01831 0
M  V30 1291 H 123.141 -0.235261 -0.918344 0
M  V30 1292 H 122.847 -0.28732 -3.50524 0
M  V30 1293 H 122.721 1.46268 -3.47686 0
M  V30 1294 H 125.108 1.58055 -2.49204 0
M  V30 1295 H 125.189 -0.186022 -2.55123 0
M  V30 1296 H 124.833 -0.0954072 -5.0781 0
M  V30 1297 H 124.763 1.68255 -4.98997 0
M  V30 1298 H 127.254 0.818103 -3.68938 0
M  V30 1299 H 127.567 1.05707 -7.65536 0
M  V30 1300 H 125.912 0.957534 -6.88372 0
M  V30 1301 H 129.103 0.930954 -4.58749 0
M  V30 1302 H 129.276 1.04015 -6.39597 0
M  V30 1303 N 122.682 1.50554 0.465978 0
M  V30 1304 C 123.928 1.62038 1.21949 0
M  V30 1305 C 124.261 0.322116 1.9151 0
M  V30 1306 O 123.536 -0.676723 1.82348 0
M  V30 1307 C 123.819 2.80421 2.25912 0
M  V30 1308 C 123.672 4.20144 1.60622 0
M  V30 1309 C 124.991 2.94354 3.27176 0
M  V30 1310 H 122.11 0.589752 0.441998 0
M  V30 1311 H 124.752 1.82956 0.51257 0
M  V30 1312 H 122.902 2.62717 2.86203 0
M  V30 1313 H 124.574 4.49449 1.03889 0
M  V30 1314 H 122.817 4.24165 0.909211 0
M  V30 1315 H 123.488 4.98914 2.36196 0
M  V30 1316 H 125.964 3.10578 2.76913 0
M  V30 1317 H 124.84 3.788 3.97242 0
M  V30 1318 H 125.101 2.05186 3.916 0
M  V30 1319 N 124.16 -0.719506 1.40217 0
M  V30 1320 C 125.576 -1.02707 1.22161 0
M  V30 1321 C 125.776 -2.0128 0.0940557 0
M  V30 1322 O 124.832 -2.46452 -0.549318 0
M  V30 1323 C 126.145 -1.57454 2.56181 0
M  V30 1324 C 127.693 -1.69458 2.63159 0
M  V30 1325 C 128.168 -2.27611 3.97438 0
M  V30 1326 N 129.659 -2.35002 3.99159 0
M  V30 1327 C 130.394 -2.80972 4.99842 0
M  V30 1328 N 129.89 -3.26723 6.10921 0
M  V30 1329 N 131.683 -2.80321 4.87213 0
M  V30 1330 H 123.834 -0.0660492 2.12297 0
M  V30 1331 H 126.097 -0.0919077 0.943534 0
M  V30 1332 H 125.803 -0.924873 3.39321 0
M  V30 1333 H 125.677 -2.56036 2.76993 0
M  V30 1334 H 128.064 -2.33543 1.80393 0
M  V30 1335 H 128.145 -0.694867 2.46181 0
M  V30 1336 H 127.789 -1.6415 4.80643 0
M  V30 1337 H 127.719 -3.2829 4.11744 0
M  V30 1338 H 130.21 -2.02685 3.18947 0
M  V30 1339 H 130.523 -3.60355 6.8364 0
M  V30 1340 H 128.868 -3.24692 6.14492 0
M  V30 1341 H 132.059 -2.43912 3.9953 0
M  V30 1342 H 132.232 -3.15831 5.65822 0
M  V30 1343 N 125.638 -1.25649 -0.95132 0
M  V30 1344 C 126.884 -1.10757 -1.69884 0
M  V30 1345 C 127.217 0.350061 -1.91019 0
M  V30 1346 O 126.492 1.25783 -1.48354 0
M  V30 1347 C 126.775 -1.86606 -3.07978 0
M  V30 1348 C 126.628 -3.40217 -2.94232 0
M  V30 1349 C 127.947 -1.65182 -4.07925 0
M  V30 1350 H 125.066 -0.40374 -0.616574 0
M  V30 1351 H 127.708 -1.54521 -1.10558 0
M  V30 1352 H 125.858 -1.49409 -3.58621 0
M  V30 1353 H 127.53 -3.87108 -2.50889 0
M  V30 1354 H 125.773 -3.67759 -2.30078 0
M  V30 1355 H 126.444 -3.88505 -3.92133 0
M  V30 1356 H 128.92 -1.9757 -3.66204 0
M  V30 1357 H 127.796 -2.20683 -5.02583 0
M  V30 1358 H 128.057 -0.593933 -4.38092 0
M  V30 1359 N 127.117 1.15442 -1.07289 0
M  V30 1360 C 128.064 2.20161 -0.692653 0
M  V30 1361 C 129.034 1.63073 0.31564 0
M  V30 1362 O 130.219 1.89725 0.202235 0
M  V30 1363 C 127.359 3.44967 -0.0959509 0
M  V30 1364 C 126.472 4.16256 -1.15564 0
M  V30 1365 C 125.607 5.28609 -0.524011 0
M  V30 1366 C 124.646 5.91715 -1.56653 0
M  V30 1367 N 123.783 6.9554 -0.957531 0
M  V30 1368 H 128.623 2.52037 -1.59002 0
M  V30 1369 H 126.16 1.2378 -0.794798 0
M  V30 1370 H 128.118 4.16341 0.267628 0
M  V30 1371 H 126.748 3.1361 0.764772 0
M  V30 1372 H 125.8 3.43385 -1.6368 0
M  V30 1373 H 127.112 4.59268 -1.94613 0
M  V30 1374 H 126.266 6.06604 -0.108032 0
M  V30 1375 H 125.005 4.86787 0.29825 0
M  V30 1376 H 124.01 5.12433 -1.9923 0
M  V30 1377 H 125.235 6.35614 -2.39107 0
M  V30 1378 H 123.181 6.55814 -0.156162 0
M  V30 1379 H 123.098 7.36977 -1.68526 0
M  V30 1380 H 124.366 7.77435 -0.567032 0
M  V30 1381 N 128.595 0.856903 1.32268 0
M  V30 1382 C 129.841 0.471355 1.97863 0
M  V30 1383 C 130.196 -0.962896 1.66572 0
M  V30 1384 O 129.489 -1.66686 0.944797 0
M  V30 1385 C 129.683 0.649919 3.51441 0
M  V30 1386 C 129.512 2.09997 3.97657 0
M  V30 1387 C 128.282 2.73893 4.2463 0
M  V30 1388 C 130.48 3.07081 4.1256 0
M  V30 1389 N 128.462 4.09786 4.57109 0
M  V30 1390 C 129.833 4.27968 4.48602 0
M  V30 1391 C 131.888 3.03247 3.949 0
M  V30 1392 C 130.591 5.45521 4.68827 0
M  V30 1393 C 132.617 4.20046 4.16311 0
M  V30 1394 C 131.979 5.39692 4.52672 0
M  V30 1395 H 128.078 0.221263 0.750044 0
M  V30 1396 H 130.662 1.10876 1.60045 0
M  V30 1397 H 128.833 0.0421938 3.88377 0
M  V30 1398 H 130.565 0.234044 4.04023 0
M  V30 1399 H 127.32 2.24918 4.16784 0
M  V30 1400 H 127.744 4.7989 4.7753 0
M  V30 1401 H 132.386 2.11863 3.65888 0
M  V30 1402 H 130.104 6.37434 4.96693 0
M  V30 1403 H 133.69 4.18517 4.04147 0
M  V30 1404 H 132.57 6.28566 4.68907 0
M  V30 1405 N 130.073 -1.45103 0.615059 0
M  V30 1406 C 131.319 -2.03035 0.121804 0
M  V30 1407 C 131.674 -1.47393 -1.23665 0
M  V30 1408 O 130.967 -0.642061 -1.80522 0
M  V30 1409 C 131.161 -3.57386 0.0318797 0
M  V30 1410 C 130.99 -4.28 1.38007 0
M  V30 1411 C 129.76 -4.65624 1.9627 0
M  V30 1412 C 131.958 -4.5948 2.31047 0
M  V30 1413 N 129.94 -5.21132 3.24492 0
M  V30 1414 C 131.311 -5.159 3.43872 0
M  V30 1415 C 133.366 -4.41423 2.30326 0
M  V30 1416 C 132.069 -5.56165 4.5615 0
M  V30 1417 C 134.095 -4.82726 3.41658 0
M  V30 1418 C 133.457 -5.39245 4.53205 0
M  V30 1419 H 129.556 -0.77702 0.0881159 0
M  V30 1420 H 132.14 -1.76819 0.815044 0
M  V30 1421 H 130.311 -3.83247 -0.630599 0
M  V30 1422 H 132.043 -4.01976 -0.468721 0
M  V30 1423 H 128.798 -4.49421 1.49392 0
M  V30 1424 H 129.222 -5.53377 3.90004 0
M  V30 1425 H 133.864 -3.97033 1.45343 0
M  V30 1426 H 131.582 -5.99517 5.41854 0
M  V30 1427 H 135.168 -4.7048 3.42257 0
M  V30 1428 H 134.048 -5.70616 5.37929 0
M  V30 1429 N 131.551 -0.354651 -1.53558 0
M  V30 1430 C 132.498 0.496968 -2.25386 0
M  V30 1431 C 133.468 1.0865 -1.25636 0
M  V30 1432 O 134.653 1.12104 -1.54394 0
M  V30 1433 C 131.793 1.63637 -3.03837 0
M  V30 1434 C 130.906 1.07307 -4.18461 0
M  V30 1435 C 130.041 2.18068 -4.84376 0
M  V30 1436 C 129.08 1.59147 -5.91049 0
M  V30 1437 N 128.217 2.63695 -6.50699 0
M  V30 1438 H 133.057 -0.122075 -2.9775 0
M  V30 1439 H 130.594 -0.0720154 -1.46924 0
M  V30 1440 H 132.552 2.30734 -3.47589 0
M  V30 1441 H 131.182 2.22623 -2.33749 0
M  V30 1442 H 130.234 0.292708 -3.79272 0
M  V30 1443 H 131.546 0.602193 -4.95152 0
M  V30 1444 H 130.7 2.93007 -5.31255 0
M  V30 1445 H 129.439 2.68504 -4.07133 0
M  V30 1446 H 128.444 0.827175 -5.43542 0
M  V30 1447 H 129.669 1.09549 -6.70206 0
M  V30 1448 H 127.615 3.13365 -5.76315 0
M  V30 1449 H 127.532 2.21263 -7.22896 0
M  V30 1450 H 128.8 3.3837 -7.02229 0
M  V30 1451 N 133.029 1.57378 -0.0835403 0
M  V30 1452 C 133.959 2.1641 0.87686 0
M  V30 1453 C 134.94 1.09429 1.30228 0
M  V30 1454 O 136.125 1.37516 1.37124 0
M  V30 1455 C 133.255 2.73517 2.14022 0
M  V30 1456 C 132.209 3.85769 1.85381 0
M  V30 1457 C 131.535 4.29529 3.18448 0
M  V30 1458 C 132.835 5.09486 1.14984 0
M  V30 1459 H 134.529 2.96914 0.385059 0
M  V30 1460 H 132.075 1.42823 0.18377 0
M  V30 1461 H 134.028 3.13463 2.81636 0
M  V30 1462 H 132.752 1.90252 2.65465 0
M  V30 1463 H 131.411 3.46345 1.20169 0
M  V30 1464 H 131.059 3.43169 3.67755 0
M  V30 1465 H 130.759 5.05204 3.00071 0
M  V30 1466 H 132.283 4.72099 3.8724 0
M  V30 1467 H 133.697 5.46674 1.72687 0
M  V30 1468 H 132.094 5.90515 1.06826 0
M  V30 1469 H 133.164 4.84724 0.130749 0
M  V30 1470 N 134.507 -0.190092 1.56449 0
M  V30 1471 C 135.732 -0.929864 1.85387 0
M  V30 1472 C 136.157 -1.7585 0.667704 0
M  V30 1473 O 135.515 -1.77198 -0.383459 0
M  V30 1474 C 135.563 -1.79773 3.12593 0
M  V30 1475 O 134.667 -2.89713 2.93496 0
M  V30 1476 H 134.008 -0.261574 0.610307 0
M  V30 1477 H 136.538 -0.193896 2.03679 0
M  V30 1478 H 136.548 -2.20139 3.43515 0
M  V30 1479 H 135.223 -1.18892 3.98544 0
M  V30 1480 H 133.8 -2.53065 2.73884 0
M  V30 1481 N 135.985 -1.50799 -0.457987 0
M  V30 1482 C 136.895 -1.73426 -1.57989 0
M  V30 1483 C 137.911 -0.617745 -1.62665 0
M  V30 1484 O 139.087 -0.897614 -1.80291 0
M  V30 1485 C 136.152 -1.83557 -2.94122 0
M  V30 1486 C 135.213 -3.07345 -2.99729 0
M  V30 1487 C 134.446 -3.16983 -4.29368 0
M  V30 1488 O 134.669 -2.33077 -5.20607 0
M  V30 1489 O 133.603 -4.09812 -4.40837 0
M  V30 1490 H 137.429 -2.68555 -1.41817 0
M  V30 1491 H 135.014 -1.35052 -0.638859 0
M  V30 1492 H 136.896 -1.92326 -3.74952 0
M  V30 1493 H 135.571 -0.916137 -3.10465 0
M  V30 1494 H 134.478 -3.04068 -2.1793 0
M  V30 1495 H 135.811 -3.9891 -2.88326 0
M  V30 1496 N 137.463 0.71206 -1.40597 0
M  V30 1497 C 138.411 1.84746 -1.41321 0
M  V30 1498 C 139.405 1.66842 -0.293268 0
M  V30 1499 O 140.611 1.73904 -0.464481 0
M  V30 1500 H 136.986 0.608522 -0.441819 0
M  V30 1501 H 138.957 1.81252 -2.37045 0
M  V30 1502 C 137.706 3.22638 -1.29614 0
M  V30 1503 H 137.029 3.37023 -2.15071 0
M  V30 1504 H 138.469 4.02209 -1.3418 0
M  V30 1505 C 136.928 3.36899 -0.00673121 0
M  V30 1506 O 137.458 3.90186 0.954859 0
M  V30 1507 N 135.664 2.9053 0.0639327 0
M  V30 1508 H 135.211 2.47353 -0.719311 0
M  V30 1509 H 135.169 3.0045 0.926118 0
M  V30 1510 N 138.941 1.26152 0.944643 0
M  V30 1511 C 140.189 1.11271 1.6871 0
M  V30 1512 C 140.51 -0.345166 1.91921 0
M  V30 1513 O 139.78 -1.24387 1.51343 0
M  V30 1514 H 138.36 0.408783 0.625224 0
M  V30 1515 H 141.022 1.58427 1.1352 0
M  V30 1516 H 140.118 1.62879 2.66227 0
M  V30 1517 N 140.419 -1.14872 1.07899 0
M  V30 1518 C 141.382 -2.17986 0.708161 0
M  V30 1519 C 142.382 -1.58775 -0.25442 0
M  V30 1520 O 143.572 -1.74166 -0.034645 0
M  V30 1521 C 140.704 -3.40871 0.0446929 0
M  V30 1522 H 141.897 -2.52306 1.62116 0
M  V30 1523 H 139.45 -1.2943 0.876218 0
M  V30 1524 H 140.185 -3.12124 -0.880281 0
M  V30 1525 H 139.97 -3.8511 0.737091 0
M  V30 1526 H 141.46 -4.17121 -0.19991 0
M  V30 1527 N 141.898 -0.863906 -1.31812 0
M  V30 1528 C 143.309 -0.52522 -1.7916 0
M  V30 1529 C 143.66 0.957518 -1.71248 0
M  V30 1530 O 142.785 1.74734 -1.27659 0
M  V30 1531 C 143.38 -0.9466 -3.25307 0
M  V30 1532 C 141.939 -0.659668 -3.70574 0
M  V30 1533 C 141.086 -1.14126 -2.52726 0
M  V30 1534 H 144.037 -1.05022 -1.1898 0
M  V30 1535 H 144.058 -0.266766 -3.79564 0
M  V30 1536 H 143.57 -2.02579 -3.31034 0
M  V30 1537 H 141.671 0.408416 -3.70355 0
M  V30 1538 H 141.784 -1.23245 -4.62977 0
M  V30 1539 H 140.148 -0.561216 -2.4844 0
M  V30 1540 H 140.931 -2.22775 -2.61201 0
M  V30 1541 N 143.376 1.44774 -0.622745 0
M  V30 1542 C 144.286 2.34433 0.0886031 0
M  V30 1543 C 145.302 1.52131 0.844529 0
M  V30 1544 O 146.478 1.84886 0.798691 0
M  V30 1545 C 143.543 3.29986 1.0635 0
M  V30 1546 C 142.604 4.28195 0.307873 0
M  V30 1547 C 141.837 5.19183 1.23633 0
M  V30 1548 O 142.06 5.13918 2.47476 0
M  V30 1549 O 140.994 5.97515 0.725189 0
M  V30 1550 H 144.82 2.96693 -0.648599 0
M  V30 1551 H 142.405 1.44408 -0.382957 0
M  V30 1552 H 144.287 3.88825 1.6246 0
M  V30 1553 H 142.962 2.70269 1.78146 0
M  V30 1554 H 141.869 3.72927 -0.296064 0
M  V30 1555 H 143.202 4.90808 -0.3699 0
M  V30 1556 N 144.854 0.36279 1.53368 0
M  V30 1557 C 145.801 -0.485008 2.25646 0
M  V30 1558 C 146.771 -1.07982 1.2621 0
M  V30 1559 O 147.956 -1.11284 1.54986 0
M  V30 1560 C 145.096 -1.62023 3.04701 0
M  V30 1561 C 144.209 -1.05086 4.19024 0
M  V30 1562 C 143.344 -2.15496 4.85525 0
M  V30 1563 C 142.383 -1.5601 5.91884 0
M  V30 1564 N 141.52 -2.60241 6.52088 0
M  V30 1565 H 146.36 0.137864 2.97681 0
M  V30 1566 H 143.897 0.0798061 1.46883 0
M  V30 1567 H 145.855 -2.28887 3.48807 0
M  V30 1568 H 144.485 -2.2138 2.34927 0
M  V30 1569 H 143.537 -0.27259 3.79422 0
M  V30 1570 H 144.849 -0.575926 4.95464 0
M  V30 1571 H 144.003 -2.90186 5.32801 0
M  V30 1572 H 142.742 -2.66341 4.08551 0
M  V30 1573 H 141.747 -0.798338 5.43973 0
M  V30 1574 H 142.972 -1.05994 6.70777 0
M  V30 1575 H 140.918 -3.10304 5.77968 0
M  V30 1576 H 140.835 -2.17426 7.24059 0
M  V30 1577 H 142.103 -3.34641 7.04014 0
M  V30 1578 N 146.332 -1.57332 0.0918853 0
M  V30 1579 C 147.609 -1.85691 -0.614668 0
M  V30 1580 C 147.989 -0.988146 -1.86545 0
M  V30 1581 O 147.337 -0.0597055 -2.28422 0
M  V30 1582 C 147.547 -3.36294 -0.933126 0
M  V30 1583 C 148.895 -4.04275 -1.29796 0
M  V30 1584 O 149.919 -3.41157 -1.02424 0
M  V30 1585 O 148.778 -5.1564 -1.81047 0
M  V30 1586 H 145.872 -0.767802 -0.307261 0
M  V30 1587 H 148.418 -1.69244 0.12434 0
M  V30 1588 H 147.19 -3.91273 -0.0456404 0
M  V30 1589 H 146.813 -3.58076 -1.72822 0
M  V30 1590 N 147.81 0.181792 -1.56548 0
M  V30 1591 C 149.056 0.901431 -1.81665 0
M  V30 1592 C 149.389 1.82347 -0.668075 0
M  V30 1593 O 148.664 1.91669 0.330615 0
M  V30 1594 C 148.947 1.70618 -3.17115 0
M  V30 1595 C 148.8 0.807964 -4.42484 0
M  V30 1596 C 150.119 2.67605 -3.49393 0
M  V30 1597 H 147.238 0.32627 -0.660846 0
M  V30 1598 H 149.88 0.168134 -1.89255 0
M  V30 1599 H 148.03 2.33133 -3.10775 0
M  V30 1600 H 149.702 0.19649 -4.60881 0
M  V30 1601 H 147.945 0.115411 -4.33646 0
M  V30 1602 H 148.616 1.40632 -5.33785 0
M  V30 1603 H 151.092 2.15218 -3.56118 0
M  V30 1604 H 149.968 3.20985 -4.45264 0
M  V30 1605 H 150.229 3.47298 -2.73563 0
M  V30 1606 N 149.288 1.51039 0.449983 0
M  V30 1607 C 150.218 1.74379 1.55288 0
M  V30 1608 C 151.199 0.593236 1.5942 0
M  V30 1609 O 152.384 0.834625 1.7535 0
M  V30 1610 C 149.514 1.85728 2.93466 0
M  V30 1611 C 148.468 3.01078 3.04197 0
M  V30 1612 C 147.794 2.97595 4.44231 0
M  V30 1613 C 149.094 4.41254 2.7945 0
M  V30 1614 H 150.788 2.66725 1.36008 0
M  V30 1615 H 148.334 1.2835 0.652864 0
M  V30 1616 H 150.287 2.0064 3.70569 0
M  V30 1617 H 149.011 0.900207 3.13949 0
M  V30 1618 H 147.67 2.85851 2.29531 0
M  V30 1619 H 147.318 1.99691 4.61663 0
M  V30 1620 H 147.018 3.75046 4.52343 0
M  V30 1621 H 148.542 3.14583 5.23326 0
M  V30 1622 H 149.956 4.56897 3.46292 0
M  V30 1623 H 148.353 5.20315 2.98985 0
M  V30 1624 H 149.423 4.52164 1.75144 0
M  V30 1625 N 150.766 -0.704594 1.40972 0
M  V30 1626 C 152.012 -1.46675 1.40051 0
M  V30 1627 C 152.345 -1.94199 0.00641102 0
M  V30 1628 O 151.62 -1.68916 -0.964235 0
M  V30 1629 C 151.903 -2.68505 2.39952 0
M  V30 1630 C 151.756 -2.26805 3.88432 0
M  V30 1631 C 153.075 -3.70686 2.37233 0
M  V30 1632 H 150.194 -0.532015 0.510028 0
M  V30 1633 H 152.836 -0.803255 1.72185 0
M  V30 1634 H 150.986 -3.25114 2.1268 0
M  V30 1635 H 152.658 -1.75592 4.26574 0
M  V30 1636 H 150.901 -1.58685 4.03734 0
M  V30 1637 H 151.572 -3.14181 4.53866 0
M  V30 1638 H 154.048 -3.23731 2.61415 0
M  V30 1639 H 152.924 -4.53553 3.09162 0
M  V30 1640 H 153.185 -4.19754 1.38777 0
M  V30 1641 N 152.244 -1.26651 -0.937939 0
M  V30 1642 C 153.207 -1.08546 -2.01867 0
M  V30 1643 C 154.207 -0.0327327 -1.60767 0
M  V30 1644 O 155.397 -0.276427 -1.71993 0
M  V30 1645 C 152.529 -0.651711 -3.34613 0
M  V30 1646 H 153.722 -2.04502 -2.1936 0
M  V30 1647 H 151.275 -1.09294 -1.11734 0
M  V30 1648 H 152.01 0.309696 -3.22818 0
M  V30 1649 H 151.795 -1.41189 -3.65798 0
M  V30 1650 H 153.285 -0.546973 -4.14002 0
M  V30 1651 N 153.722 1.14298 -1.08507 0
M  V30 1652 C 154.971 1.84708 -0.810305 0
M  V30 1653 C 155.284 1.83903 0.666271 0
M  V30 1654 O 156.49 2.50112 1.05624 0
M  V30 1655 C 154.946 3.31572 -1.39957 0
M  V30 1656 C 154.554 3.40791 -2.90801 0
M  V30 1657 C 156.298 4.07087 -1.20334 0
M  V30 1658 C 154.205 4.81872 -3.4286 0
M  V30 1659 H 153.135 0.691985 -0.299454 0
M  V30 1660 H 155.786 1.28841 -1.30661 0
M  V30 1661 H 154.168 3.87183 -0.830976 0
M  V30 1662 H 155.342 2.95225 -3.53806 0
M  V30 1663 H 153.657 2.78732 -3.0935 0
M  V30 1664 H 156.254 5.11225 -1.56693 0
M  V30 1665 H 156.597 4.16054 -0.143237 0
M  V30 1666 H 157.13 3.57779 -1.73893 0
M  V30 1667 H 153.869 4.78094 -4.48449 0
M  V30 1668 H 153.389 5.27972 -2.84615 0
M  V30 1669 H 155.068 5.50765 -3.39509 0
M  V30 1670 N 155.201 0.870884 1.31352 0
M  V30 1671 C 156.449 0.48132 1.96285 0
M  V30 1672 C 156.77 -0.969813 1.69173 0
M  V30 1673 O 156.04 -1.67998 1.00764 0
M  V30 1674 H 154.62 0.175002 0.726212 0
M  V30 1675 H 157.282 1.11087 1.60143 0
M  V30 1676 H 156.378 0.639825 3.05471 0
M  V30 1677 N 156.679 -1.44442 0.630414 0
M  V30 1678 C 157.609 -2.33418 -0.0618083 0
M  V30 1679 C 158.59 -1.48165 -0.835541 0
M  V30 1680 O 159.775 -1.76886 -0.801564 0
M  V30 1681 C 156.905 -3.31222 -1.04449 0
M  V30 1682 C 155.859 -4.26288 -0.382436 0
M  V30 1683 C 155.185 -5.13954 -1.47497 0
M  V30 1684 C 156.485 -5.1744 0.710865 0
M  V30 1685 H 158.179 -2.91548 0.681184 0
M  V30 1686 H 155.725 -1.40191 0.329026 0
M  V30 1687 H 157.678 -3.92351 -1.53748 0
M  V30 1688 H 156.402 -2.71299 -1.81836 0
M  V30 1689 H 155.061 -3.6649 0.0899054 0
M  V30 1690 H 154.709 -4.50385 -2.2397 0
M  V30 1691 H 154.409 -5.7837 -1.03737 0
M  V30 1692 H 155.933 -5.77955 -1.96979 0
M  V30 1693 H 157.347 -5.72509 0.300996 0
M  V30 1694 H 155.744 -5.90455 1.07156 0
M  V30 1695 H 156.814 -4.58496 1.57829 0
M  V30 1696 N 158.157 -0.370918 -1.53173 0
M  V30 1697 C 159.573 -0.0200818 -1.59587 0
M  V30 1698 C 159.773 1.46279 -1.38581 0
M  V30 1699 O 158.829 2.22506 -1.19363 0
M  V30 1700 C 160.142 -0.4808 -2.96831 0
M  V30 1701 C 161.69 -0.435477 -3.09956 0
M  V30 1702 C 162.165 -0.872092 -4.4962 0
M  V30 1703 N 163.656 -0.827364 -4.55751 0
M  V30 1704 C 164.391 -1.13683 -5.62018 0
M  V30 1705 N 163.887 -1.51584 -6.76014 0
M  V30 1706 N 165.68 -1.05927 -5.52029 0
M  V30 1707 H 157.831 -1.33652 -1.65079 0
M  V30 1708 H 160.094 -0.546634 -0.774529 0
M  V30 1709 H 159.8 -1.51577 -3.1736 0
M  V30 1710 H 159.674 0.129796 -3.76977 0
M  V30 1711 H 162.061 0.590371 -2.89134 0
M  V30 1712 H 162.142 -1.08164 -2.31806 0
M  V30 1713 H 161.786 -1.89608 -4.71181 0
M  V30 1714 H 161.716 -0.203127 -5.26208 0
M  V30 1715 H 164.207 -0.548216 -3.73902 0
M  V30 1716 H 164.52 -1.73609 -7.53047 0
M  V30 1717 H 162.865 -1.55454 -6.77391 0
M  V30 1718 H 166.056 -0.762321 -4.61851 0
M  V30 1719 H 166.229 -1.30378 -6.34749 0
M  V30 1720 N 159.635 1.57281 -0.100228 0
M  V30 1721 C 160.585 2.10848 0.86759 0
M  V30 1722 C 161.569 1.02473 1.24049 0
M  V30 1723 O 162.761 1.28739 1.21471 0
M  V30 1724 C 159.89 2.69648 2.12474 0
M  V30 1725 C 158.976 3.85074 1.77704 0
M  V30 1726 N 159.367 4.92897 1.13518 0
M  V30 1727 C 157.665 3.94905 2.07282 0
M  V30 1728 C 158.366 5.73475 0.974735 0
M  V30 1729 N 157.342 5.22675 1.4937 0
M  V30 1730 H 161.144 2.91594 0.367471 0
M  V30 1731 H 158.658 1.62074 0.102829 0
M  V30 1732 H 160.655 3.06356 2.82757 0
M  V30 1733 H 159.315 1.90359 2.63047 0
M  V30 1734 H 160.326 5.11662 0.801381 0
M  V30 1735 H 157.003 3.26633 2.60033 0
M  V30 1736 H 158.393 6.70238 0.472364 0
M  V30 1737 N 161.113 -0.173488 1.56642 0
M  V30 1738 C 162.529 -0.525174 1.50712 0
M  V30 1739 C 162.729 -1.8476 0.804107 0
M  V30 1740 O 161.785 -2.49869 0.363574 0
M  V30 1741 C 163.098 -0.559937 2.95441 0
M  V30 1742 C 164.646 -0.647288 3.06234 0
M  V30 1743 C 165.121 -0.712963 4.52417 0
M  V30 1744 N 166.612 -0.775911 4.56655 0
M  V30 1745 C 167.347 -0.847264 5.67106 0
M  V30 1746 N 166.843 -0.879585 6.87194 0
M  V30 1747 N 168.636 -0.886117 5.55071 0
M  V30 1748 H 160.787 0.693681 2.00753 0
M  V30 1749 H 163.05 0.249841 0.914485 0
M  V30 1750 H 162.756 0.343049 3.50023 0
M  V30 1751 H 162.63 -1.40718 3.49969 0
M  V30 1752 H 165.017 -1.5407 2.51687 0
M  V30 1753 H 165.098 0.226586 2.54794 0
M  V30 1754 H 164.742 0.176183 5.07594 0
M  V30 1755 H 164.672 -1.60295 5.0161 0
M  V30 1756 H 167.163 -0.759304 3.70193 0
M  V30 1757 H 167.476 -0.935144 7.67121 0
M  V30 1758 H 165.821 -0.847898 6.89808 0
M  V30 1759 H 169.012 -0.857853 4.60172 0
M  V30 1760 H 169.185 -0.938263 6.41171 0
M  V30 1761 N 162.591 -1.51276 -0.441967 0
M  V30 1762 C 163.816 -1.67799 -1.21895 0
M  V30 1763 C 164.241 -0.372864 -1.84367 0
M  V30 1764 O 163.599 0.666501 -1.68604 0
M  V30 1765 C 163.647 -2.79199 -2.28211 0
M  V30 1766 O 162.751 -2.42479 -3.33583 0
M  V30 1767 H 162.092 -0.559649 -0.357336 0
M  V30 1768 H 164.622 -1.97815 -0.522522 0
M  V30 1769 H 164.632 -3.03146 -2.73069 0
M  V30 1770 H 163.307 -3.73906 -1.82118 0
M  V30 1771 H 161.884 -2.29087 -2.94234 0
M  V30 1772 N 164.069 0.697108 -1.41344 0
M  V30 1773 C 165.316 1.45714 -1.40619 0
M  V30 1774 C 165.644 1.94494 -0.0147907 0
M  V30 1775 O 164.899 1.69794 0.973066 0
M  V30 1776 C 165.198 2.68553 -2.35826 0
M  V30 1777 C 164.864 2.38438 -3.82698 0
M  V30 1778 C 163.526 2.29936 -4.22709 0
M  V30 1779 C 165.878 2.13567 -4.75435 0
M  V30 1780 C 163.206 1.94656 -5.53467 0
M  V30 1781 C 165.558 1.79797 -6.06511 0
M  V30 1782 C 164.222 1.69789 -6.45545 0
M  V30 1783 H 163.492 0.533206 -0.51456 0
M  V30 1784 H 166.139 0.796901 -1.74131 0
M  V30 1785 H 164.444 3.39503 -1.95563 0
M  V30 1786 H 166.141 3.2669 -2.32539 0
M  V30 1787 H 162.731 2.4595 -3.51008 0
M  V30 1788 H 166.915 2.19082 -4.45328 0
M  V30 1789 H 162.171 1.8546 -5.82593 0
M  V30 1790 H 166.345 1.59572 -6.77872 0
M  V30 1791 H 163.972 1.4222 -7.46778 0
M  V30 1792 N 165.547 1.27147 0.931209 0
M  V30 1793 C 166.795 1.13055 1.6752 0
M  V30 1794 C 167.116 -0.324791 1.92276 0
M  V30 1795 O 166.386 -1.22775 1.52654 0
M  V30 1796 H 164.966 0.415391 0.620854 0
M  V30 1797 H 167.628 1.59623 1.11833 0
M  V30 1798 H 166.724 1.65694 2.64485 0
M  V30 1799 N 167.025 -1.13721 1.09112 0
M  V30 1800 C 168.302 -1.81155 0.737706 0
M  V30 1801 C 168.682 -1.96253 -0.777683 0
M  V30 1802 O 168.03 -1.52807 -1.69889 0
M  V30 1803 C 168.24 -3.16392 1.47299 0
M  V30 1804 C 169.588 -3.91787 1.63671 0
M  V30 1805 O 170.612 -3.26005 1.43524 0
M  V30 1806 O 169.471 -5.0977 1.96969 0
M  V30 1807 H 166.565 -0.783518 0.26463 0
M  V30 1808 H 169.111 -1.20676 1.19312 0
M  V30 1809 H 167.883 -3.0061 2.50498 0
M  V30 1810 H 167.506 -3.8457 1.00953 0
M  V30 1811 N 168.503 -0.877838 -1.30888 0
M  V30 1812 C 169.733 -0.506678 -2.00291 0
M  V30 1813 C 170.141 0.907449 -1.66018 0
M  V30 1814 O 169.484 1.60719 -0.88967 0
M  V30 1815 C 169.546 -0.59323 -3.54572 0
M  V30 1816 C 169.21 -1.97038 -4.12341 0
M  V30 1817 C 170.207 -2.93889 -4.28865 0
M  V30 1818 C 167.892 -2.27383 -4.47886 0
M  V30 1819 C 169.886 -4.19224 -4.80136 0
M  V30 1820 C 167.573 -3.52965 -4.98857 0
M  V30 1821 C 168.571 -4.48701 -5.14934 0
M  V30 1822 O 168.259 -5.72056 -5.64808 0
M  V30 1823 H 167.991 -0.1951 -0.647234 0
M  V30 1824 H 170.545 -1.18301 -1.6791 0
M  V30 1825 H 168.775 0.140057 -3.86446 0
M  V30 1826 H 170.464 -0.234372 -4.05223 0
M  V30 1827 H 171.23 -2.71756 -4.01714 0
M  V30 1828 H 167.109 -1.53639 -4.34645 0
M  V30 1829 H 170.653 -4.93956 -4.92599 0
M  V30 1830 H 166.55 -3.74939 -5.25443 0
M  V30 1831 H 167.318 -5.74337 -5.83163 0
M  V30 1832 N 169.982 1.44106 -0.638065 0
M  V30 1833 C 170.914 2.28976 0.101205 0
M  V30 1834 C 171.927 1.4167 0.802088 0
M  V30 1835 O 173.116 1.65755 0.662375 0
M  V30 1836 C 170.216 3.18217 1.16581 0
M  V30 1837 C 169.389 4.33978 0.546066 0
M  V30 1838 C 168.448 5.04202 1.50554 0
M  V30 1839 O 167.474 5.59986 1.01999 0
M  V30 1840 N 168.676 5.06296 2.8398 0
M  V30 1841 H 171.441 2.93064 -0.627186 0
M  V30 1842 H 169.002 1.54629 -0.479731 0
M  V30 1843 H 170.994 3.62061 1.80815 0
M  V30 1844 H 169.564 2.55833 1.79634 0
M  V30 1845 H 168.784 3.93239 -0.275046 0
M  V30 1846 H 170.072 5.08675 0.112793 0
M  V30 1847 H 169.47 4.62319 3.26002 0
M  V30 1848 H 168.027 5.53907 3.43556 0
M  V30 1849 N 171.46 0.379036 1.52974 0
M  V30 1850 C 172.708 -0.206014 2.01047 0
M  V30 1851 C 173.029 -1.48175 1.26765 0
M  V30 1852 O 172.299 -1.92085 0.384743 0
M  V30 1853 H 170.879 -0.0791184 0.742798 0
M  V30 1854 H 173.541 0.508366 1.88153 0
M  V30 1855 H 172.637 -0.423501 3.09213 0
M  V30 1856 N 172.938 -1.57226 0.108567 0
M  V30 1857 C 174.354 -1.5766 -0.248058 0
M  V30 1858 C 174.554 -1.12063 -1.67464 0
M  V30 1859 O 173.61 -0.803236 -2.39383 0
M  V30 1860 C 174.923 -3.0069 -0.0242287 0
M  V30 1861 C 176.471 -3.12868 -0.0909372 0
M  V30 1862 C 176.946 -4.57879 0.105067 0
M  V30 1863 N 178.437 -4.63172 0.0506846 0
M  V30 1864 C 179.172 -5.73126 0.177396 0
M  V30 1865 N 178.668 -6.91866 0.359696 0
M  V30 1866 N 180.461 -5.61977 0.117709 0
M  V30 1867 H 172.612 -1.85169 1.04049 0
M  V30 1868 H 174.875 -0.85529 0.40888 0
M  V30 1869 H 174.581 -3.38299 0.961604 0
M  V30 1870 H 174.455 -3.6945 -0.76068 0
M  V30 1871 H 176.842 -2.75124 -1.06729 0
M  V30 1872 H 176.923 -2.46672 0.677225 0
M  V30 1873 H 176.567 -4.96321 1.07834 0
M  V30 1874 H 176.497 -5.22153 -0.682954 0
M  V30 1875 H 178.988 -3.778 -0.0871266 0
M  V30 1876 H 179.301 -7.71503 0.447529 0
M  V30 1877 H 177.646 -6.93874 0.395536 0
M  V30 1878 H 180.837 -4.68094 -0.0236741 0
M  V30 1879 H 181.01 -6.47627 0.219905 0
M  V30 1880 N 174.416 0.165178 -1.56732 0
M  V30 1881 C 175.662 0.882112 -1.82611 0
M  V30 1882 C 175.995 1.81628 -0.687378 0
M  V30 1883 O 175.27 1.92009 0.310267 0
M  V30 1884 C 175.553 1.67245 -3.18906 0
M  V30 1885 C 175.406 0.760987 -4.43316 0
M  V30 1886 C 176.725 2.63884 -3.52212 0
M  V30 1887 H 173.844 0.319242 -0.664269 0
M  V30 1888 H 176.486 0.148052 -1.89422 0
M  V30 1889 H 174.636 2.29824 -3.1323 0
M  V30 1890 H 176.308 0.147596 -4.61064 0
M  V30 1891 H 174.551 0.0694102 -4.33744 0
M  V30 1892 H 175.222 1.34962 -5.35247 0
M  V30 1893 H 177.698 2.11429 -3.58381 0
M  V30 1894 H 176.574 3.16245 -4.48643 0
M  V30 1895 H 176.835 3.44377 -2.77231 0
M  V30 1896 N 175.894 1.51508 0.433938 0
M  V30 1897 C 176.844 1.69451 1.52546 0
M  V30 1898 C 177.828 0.548474 1.51263 0
M  V30 1899 O 179.02 0.804529 1.57659 0
M  V30 1900 C 176.149 1.82604 2.90707 0
M  V30 1901 C 175.235 3.03002 2.96733 0
M  V30 1902 N 175.626 4.26121 2.72496 0
M  V30 1903 C 173.924 3.02327 3.27894 0
M  V30 1904 C 174.625 5.07407 2.84452 0
M  V30 1905 N 173.601 4.42126 3.16269 0
M  V30 1906 H 177.403 2.62305 1.32564 0
M  V30 1907 H 174.917 1.49202 0.641297 0
M  V30 1908 H 176.914 1.93569 3.69238 0
M  V30 1909 H 175.574 0.909339 3.11707 0
M  V30 1910 H 176.585 4.55009 2.4736 0
M  V30 1911 H 173.262 2.20301 3.54646 0
M  V30 1912 H 174.652 6.15422 2.69639 0
M  V30 1913 N 177.372 -0.689602 1.41712 0
M  V30 1914 C 178.302 -1.81577 1.46806 0
M  V30 1915 C 179.283 -1.66945 0.326105 0
M  V30 1916 O 180.468 -1.86588 0.538377 0
M  V30 1917 C 177.598 -3.19762 1.35535 0
M  V30 1918 C 176.552 -3.49107 2.47605 0
M  V30 1919 C 175.878 -4.86711 2.21397 0
M  V30 1920 C 177.178 -3.47483 3.89939 0
M  V30 1921 H 178.872 -1.7757 2.41058 0
M  V30 1922 H 176.418 -0.852887 1.16025 0
M  V30 1923 H 178.371 -3.98263 1.3771 0
M  V30 1924 H 177.095 -3.24409 0.377708 0
M  V30 1925 H 175.754 -2.72959 2.44722 0
M  V30 1926 H 175.402 -4.8799 1.21961 0
M  V30 1927 H 175.102 -5.0731 2.96497 0
M  V30 1928 H 176.626 -5.67515 2.25297 0
M  V30 1929 H 178.04 -4.1598 3.94505 0
M  V30 1930 H 176.437 -3.79615 4.64771 0
M  V30 1931 H 177.507 -2.46341 4.17665 0
M  V30 1932 N 178.85 -1.27639 -0.924453 0
M  V30 1933 C 180.266 -1.05113 -1.20097 0
M  V30 1934 C 180.466 0.213262 -2.00368 0
M  V30 1935 O 179.522 0.91787 -2.35226 0
M  V30 1936 C 180.835 -2.29244 -1.94596 0
M  V30 1937 C 182.383 -2.34315 -2.07522 0
M  V30 1938 C 182.858 -3.58183 -2.85427 0
M  V30 1939 N 184.349 -3.5876 -2.92994 0
M  V30 1940 C 185.084 -4.51277 -3.53746 0
M  V30 1941 N 184.58 -5.54102 -4.15863 0
M  V30 1942 N 186.373 -4.38894 -3.51181 0
M  V30 1943 H 178.524 -2.08821 -0.388264 0
M  V30 1944 H 180.787 -0.918568 -0.234385 0
M  V30 1945 H 180.493 -3.21301 -1.43034 0
M  V30 1946 H 180.367 -2.34816 -2.95197 0
M  V30 1947 H 182.754 -1.42762 -2.58269 0
M  V30 1948 H 182.835 -2.32744 -1.06131 0
M  V30 1949 H 182.479 -4.50074 -2.35363 0
M  V30 1950 H 182.409 -3.57006 -3.8711 0
M  V30 1951 H 184.9 -2.84398 -2.4885 0
M  V30 1952 H 185.213 -6.20859 -4.60168 0
M  V30 1953 H 183.558 -5.57941 -4.144 0
M  V30 1954 H 186.749 -3.57772 -3.01856 0
M  V30 1955 H 186.922 -5.11186 -3.98237 0
M  V30 1956 N 180.328 1.1314 -1.09713 0
M  V30 1957 C 181.26 2.18343 -0.697056 0
M  V30 1958 C 182.273 1.60669 0.262551 0
M  V30 1959 O 183.462 1.78435 0.0481527 0
M  V30 1960 C 180.562 3.38899 -0.00684728 0
M  V30 1961 C 179.735 4.26078 -0.988741 0
M  V30 1962 C 178.794 5.25155 -0.331394 0
M  V30 1963 O 177.82 5.60701 -0.979926 0
M  V30 1964 N 179.022 5.73271 0.913261 0
M  V30 1965 H 181.787 2.5328 -1.60216 0
M  V30 1966 H 179.348 1.28491 -0.984971 0
M  V30 1967 H 181.34 4.02255 0.444191 0
M  V30 1968 H 179.91 3.02175 0.800551 0
M  V30 1969 H 179.13 3.59453 -1.61826 0
M  V30 1970 H 180.418 4.81178 -1.65364 0
M  V30 1971 H 179.816 5.46544 1.45966 0
M  V30 1972 H 178.373 6.3855 1.30757 0
M  V30 1973 N 181.806 0.884767 1.30421 0
M  V30 1974 C 183.083 0.423185 1.90967 0
M  V30 1975 C 183.463 -1.09605 1.80416 0
M  V30 1976 O 182.811 -1.93126 1.22125 0
M  V30 1977 C 183.021 0.921056 3.36627 0
M  V30 1978 C 184.369 0.955903 4.137 0
M  V30 1979 O 185.393 0.867706 3.4547 0
M  V30 1980 O 184.252 1.08614 5.35598 0
M  V30 1981 H 181.346 0.129369 0.816819 0
M  V30 1982 H 183.892 0.973653 1.3899 0
M  V30 1983 H 182.664 1.96489 3.3839 0
M  V30 1984 H 182.287 0.349741 3.96059 0
M  V30 1985 N 183.284 -1.43765 0.645699 0
M  V30 1986 C 184.231 -2.30745 -0.0504648 0
M  V30 1987 C 185.201 -1.4432 -0.822241 0
M  V30 1988 O 186.386 -1.73202 -0.800358 0
M  V30 1989 C 183.526 -3.29802 -1.0161 0
M  V30 1990 C 182.639 -4.31326 -0.241219 0
M  V30 1991 C 181.774 -5.17469 -1.19998 0
M  V30 1992 C 180.813 -6.10691 -0.415094 0
M  V30 1993 N 179.95 -6.89483 -1.32506 0
M  V30 1994 H 184.79 -2.8973 0.697155 0
M  V30 1995 H 182.327 -1.42738 0.355563 0
M  V30 1996 H 184.285 -3.85734 -1.58949 0
M  V30 1997 H 182.915 -2.72483 -1.73069 0
M  V30 1998 H 181.967 -3.77749 0.448334 0
M  V30 1999 H 183.279 -4.9743 0.369437 0
M  V30 2000 H 182.433 -5.7799 -1.84424 0
M  V30 2001 H 181.172 -4.51473 -1.84455 0
M  V30 2002 H 180.177 -5.49265 0.242565 0
M  V30 2003 H 181.402 -6.78727 0.224966 0
M  V30 2004 H 179.348 -6.26142 -1.95657 0
M  V30 2005 H 179.265 -7.52081 -0.768783 0
M  V30 2006 H 180.533 -7.54516 -1.9577 0
M  V30 2007 N 184.763 -0.387143 -1.52771 0
M  V30 2008 C 185.673 0.456442 -2.30117 0
M  V30 2009 C 186.689 1.07342 -1.36944 0
M  V30 2010 O 187.865 1.07971 -1.70013 0
M  V30 2011 C 184.93 1.56957 -3.09136 0
M  V30 2012 C 183.991 0.977916 -4.18014 0
M  V30 2013 C 183.224 2.038 -4.93256 0
M  V30 2014 O 183.447 3.25271 -4.68567 0
M  V30 2015 O 182.381 1.6565 -5.78657 0
M  V30 2016 H 186.207 -0.17359 -3.03203 0
M  V30 2017 H 183.792 -0.150919 -1.48636 0
M  V30 2018 H 185.674 2.21628 -3.58412 0
M  V30 2019 H 184.349 2.18461 -2.38865 0
M  V30 2020 H 183.256 0.294525 -3.72939 0
M  V30 2021 H 184.589 0.407128 -4.90513 0
M  V30 2022 N 186.241 1.57166 -0.116904 0
M  V30 2023 C 187.191 2.11756 0.845178 0
M  V30 2024 C 188.175 1.03783 1.22955 0
M  V30 2025 O 189.367 1.3002 1.20099 0
M  V30 2026 C 186.496 2.71886 2.09602 0
M  V30 2027 C 185.582 3.86937 1.7361 0
M  V30 2028 N 185.973 4.94073 1.08284 0
M  V30 2029 C 184.271 3.97082 2.03082 0
M  V30 2030 C 184.972 5.74477 0.913855 0
M  V30 2031 N 183.948 5.2423 1.43818 0
M  V30 2032 H 187.75 2.91967 0.336523 0
M  V30 2033 H 185.264 1.62174 0.0856332 0
M  V30 2034 H 187.261 3.09338 2.79492 0
M  V30 2035 H 185.921 1.93138 2.61013 0
M  V30 2036 H 186.932 5.12483 0.747067 0
M  V30 2037 H 183.609 3.29372 2.56554 0
M  V30 2038 H 184.999 6.70701 0.40125 0
M  V30 2039 N 187.719 -0.156864 1.56817 0
M  V30 2040 C 188.996 -0.899244 1.73704 0
M  V30 2041 C 189.376 -1.99771 0.682254 0
M  V30 2042 O 188.724 -2.26515 -0.300522 0
M  V30 2043 C 188.934 -1.45075 3.17418 0
M  V30 2044 C 190.282 -1.91802 3.7881 0
M  V30 2045 O 191.306 -1.54838 3.20786 0
M  V30 2046 O 190.165 -2.5994 4.80722 0
M  V30 2047 H 187.259 -0.424267 0.709878 0
M  V30 2048 H 189.805 -0.143561 1.69092 0
M  V30 2049 H 188.577 -0.660846 3.85679 0
M  V30 2050 H 188.2 -2.27021 3.26416 0
M  V30 2051 N 189.197 -1.51736 -0.425897 0
M  V30 2052 C 190.443 -1.65214 -1.1761 0
M  V30 2053 C 190.776 -0.372778 -1.90589 0
M  V30 2054 O 190.051 0.628139 -1.84078 0
M  V30 2055 C 190.334 -2.86312 -2.18398 0
M  V30 2056 C 190.187 -4.24254 -1.49426 0
M  V30 2057 C 191.506 -3.02925 -3.19256 0
M  V30 2058 H 188.625 -0.601263 -0.426206 0
M  V30 2059 H 191.267 -1.8425 -0.463882 0
M  V30 2060 H 189.417 -2.70213 -2.79137 0
M  V30 2061 H 191.089 -4.52046 -0.919362 0
M  V30 2062 H 189.332 -4.26426 -0.796432 0
M  V30 2063 H 190.003 -5.05001 -2.22885 0
M  V30 2064 H 192.479 -3.1781 -2.68581 0
M  V30 2065 H 191.355 -3.89199 -3.8706 0
M  V30 2066 H 191.616 -2.15497 -3.86023 0
M  V30 2067 N 190.675 0.682077 -1.42076 0
M  V30 2068 C 191.9 1.47558 -1.45744 0
M  V30 2069 C 192.325 1.87977 -0.0680981 0
M  V30 2070 O 191.683 1.55522 0.9318 0
M  V30 2071 C 191.731 2.70575 -2.38373 0
M  V30 2072 O 190.835 3.68573 -1.85007 0
M  V30 2073 H 190.176 0.443585 -0.494093 0
M  V30 2074 H 192.706 0.837238 -1.86686 0
M  V30 2075 H 192.716 3.18729 -2.54707 0
M  V30 2076 H 191.391 2.40495 -3.39315 0
M  V30 2077 H 189.968 3.2757 -1.78192 0
M  V30 2078 N 192.153 1.28127 0.917671 0
M  V30 2079 C 193.083 1.14248 2.03641 0
M  V30 2080 C 194.064 0.0412748 1.7005 0
M  V30 2081 O 195.249 0.217566 1.92977 0
M  V30 2082 C 192.379 0.799431 3.37974 0
M  V30 2083 C 191.333 1.85497 3.85713 0
M  V30 2084 C 190.659 1.36565 5.16966 0
M  V30 2085 C 191.959 3.26085 4.08002 0
M  V30 2086 H 193.653 2.07835 2.15511 0
M  V30 2087 H 191.199 1.00064 1.03553 0
M  V30 2088 H 193.152 0.689114 4.15727 0
M  V30 2089 H 191.876 -0.172145 3.26146 0
M  V30 2090 H 190.535 1.95437 3.10161 0
M  V30 2091 H 190.183 0.383253 5.01538 0
M  V30 2092 H 189.883 2.07143 5.49878 0
M  V30 2093 H 191.407 1.26848 5.97279 0
M  V30 2094 H 192.821 3.19089 4.76293 0
M  V30 2095 H 191.218 3.94462 4.52238 0
M  V30 2096 H 192.288 3.70394 3.12948 0
M  V30 2097 N 193.631 -1.12557 1.10312 0
M  V30 2098 C 194.541 -2.21841 0.763142 0
M  V30 2099 C 195.557 -1.72354 -0.238801 0
M  V30 2100 O 196.733 -2.01249 -0.0778746 0
M  V30 2101 C 193.798 -3.46131 0.198632 0
M  V30 2102 C 192.859 -4.10464 1.25769 0
M  V30 2103 C 192.092 -5.28821 0.72002 0
M  V30 2104 O 192.315 -5.6859 -0.453993 0
M  V30 2105 O 191.249 -5.83437 1.47935 0
M  V30 2106 H 195.075 -2.53312 1.67532 0
M  V30 2107 H 192.66 -1.20867 0.878157 0
M  V30 2108 H 194.542 -4.2125 -0.112401 0
M  V30 2109 H 193.217 -3.16338 -0.686419 0
M  V30 2110 H 192.124 -3.3713 1.62156 0
M  V30 2111 H 193.457 -4.44408 2.11571 0
M  V30 2112 N 195.109 -0.891671 -1.2995 0
M  V30 2113 C 196.358 -0.509521 -1.95158 0
M  V30 2114 C 196.671 0.947388 -1.71125 0
M  V30 2115 O 197.877 1.43669 -2.30372 0
M  V30 2116 C 196.333 -0.860315 -3.49466 0
M  V30 2117 C 195.941 -2.33545 -3.8231 0
M  V30 2118 C 197.685 -0.547687 -4.20952 0
M  V30 2119 C 195.592 -2.62752 -5.29826 0
M  V30 2120 H 194.522 -0.18682 -0.730489 0
M  V30 2121 H 197.173 -1.08756 -1.47798 0
M  V30 2122 H 195.555 -0.211285 -3.95436 0
M  V30 2123 H 196.729 -3.02936 -3.47227 0
M  V30 2124 H 195.044 -2.61629 -3.23944 0
M  V30 2125 H 197.641 -0.742854 -5.29515 0
M  V30 2126 H 197.984 0.51332 -4.13123 0
M  V30 2127 H 198.517 -1.1542 -3.80688 0
M  V30 2128 H 195.256 -3.6762 -5.42712 0
M  V30 2129 H 194.776 -1.97977 -5.66185 0
M  V30 2130 H 196.455 -2.48601 -5.97333 0
M  V30 2131 N 196.587 1.43421 -0.653314 0
M  V30 2132 C 197.519 2.29071 0.0769134 0
M  V30 2133 C 198.532 1.42513 0.787017 0
M  V30 2134 O 199.721 1.66449 0.644757 0
M  V30 2135 C 196.821 3.19436 1.13199 0
M  V30 2136 C 195.994 4.34533 0.500006 0
M  V30 2137 C 195.053 5.05771 1.45198 0
M  V30 2138 O 194.079 5.61037 0.960538 0
M  V30 2139 N 195.281 5.0928 2.78594 0
M  V30 2140 H 198.046 2.92382 -0.658235 0
M  V30 2141 H 195.607 1.54112 -0.496104 0
M  V30 2142 H 197.599 3.63958 1.76964 0
M  V30 2143 H 196.169 2.57724 1.7691 0
M  V30 2144 H 195.389 3.92925 -0.316738 0
M  V30 2145 H 196.677 5.08766 0.0588345 0
M  V30 2146 H 196.075 4.65751 3.2108 0
M  V30 2147 H 194.632 5.57519 3.37662 0
M  V30 2148 N 198.065 0.39524 1.52563 0
M  V30 2149 C 199.342 -0.242908 1.94086 0
M  V30 2150 C 199.722 -1.63841 1.33114 0
M  V30 2151 O 199.07 -2.22928 0.501529 0
M  V30 2152 C 199.28 -0.26327 3.48006 0
M  V30 2153 C 200.628 -0.489354 4.21771 0
M  V30 2154 O 201.652 -0.343226 3.54543 0
M  V30 2155 O 200.511 -0.776169 5.4096 0
M  V30 2156 H 197.605 -0.152536 0.812811 0
M  V30 2157 H 200.151 0.450178 1.6362 0
M  V30 2158 H 198.923 0.713985 3.84731 0
M  V30 2159 H 198.546 -1.00103 3.84792 0
M  V30 2160 N 199.544 -1.57102 0.125237 0
M  V30 2161 C 200.474 -2.18659 -0.819174 0
M  V30 2162 C 201.455 -1.12843 -1.27281 0
M  V30 2163 O 202.64 -1.41104 -1.33429 0
M  V30 2164 C 199.77 -2.79096 -2.06695 0
M  V30 2165 C 198.724 -3.90548 -1.75088 0
M  V30 2166 C 198.05 -4.37821 -3.06948 0
M  V30 2167 C 199.35 -5.12356 -1.01435 0
M  V30 2168 H 201.044 -2.9783 -0.306202 0
M  V30 2169 H 198.59 -1.4326 -0.145839 0
M  V30 2170 H 200.543 -3.2082 -2.73226 0
M  V30 2171 H 199.267 -1.97223 -2.60328 0
M  V30 2172 H 197.926 -3.49409 -1.10944 0
M  V30 2173 H 197.574 -3.52799 -3.58527 0
M  V30 2174 H 197.274 -5.12982 -2.86571 0
M  V30 2175 H 198.798 -4.822 -3.74587 0
M  V30 2176 H 200.212 -5.5106 -1.58132 0
M  V30 2177 H 198.609 -5.9314 -0.911319 0
M  V30 2178 H 199.679 -4.849 -0.00218681 0
M  V30 2179 N 201.022 0.148545 -1.56898 0
M  V30 2180 C 202.438 0.501131 -1.51528 0
M  V30 2181 C 202.638 1.83458 -0.833399 0
M  V30 2182 O 201.694 2.49259 -0.40328 0
M  V30 2183 C 203.007 0.512864 -2.96294 0
M  V30 2184 C 204.555 0.598487 -3.07225 0
M  V30 2185 C 205.03 0.640897 -4.53494 0
M  V30 2186 N 206.521 0.703163 -4.57832 0
M  V30 2187 C 207.256 0.756935 -5.68382 0
M  V30 2188 N 206.752 0.770147 -6.88506 0
M  V30 2189 N 208.545 0.797698 -5.56411 0
M  V30 2190 H 200.696 -0.725532 -1.99624 0
M  V30 2191 H 202.959 -0.264358 -0.910395 0
M  V30 2192 H 202.665 -0.398691 -3.49433 0
M  V30 2193 H 202.539 1.35133 -3.52163 0
M  V30 2194 H 204.926 1.50046 -2.54106 0
M  V30 2195 H 205.007 -0.267093 -2.54402 0
M  V30 2196 H 204.651 -0.256915 -5.0725 0
M  V30 2197 H 204.581 1.52295 -5.04097 0
M  V30 2198 H 207.072 0.700314 -3.71354 0
M  V30 2199 H 207.385 0.812983 -7.68512 0
M  V30 2200 H 205.73 0.738049 -6.9107 0
M  V30 2201 H 208.921 0.784535 -4.61479 0
M  V30 2202 H 209.094 0.83614 -6.42583 0
M  V30 2203 N 202.5 1.5196 0.417844 0
M  V30 2204 C 203.43 1.77634 1.51554 0
M  V30 2205 C 204.411 0.626918 1.58126 0
M  V30 2206 O 205.596 0.871632 1.7354 0
M  V30 2207 C 202.726 1.91911 2.8946 0
M  V30 2208 C 201.68 3.07463 2.97743 0
M  V30 2209 C 201.006 3.06951 4.37819 0
M  V30 2210 C 202.306 4.47082 2.70027 0
M  V30 2211 H 204 2.6955 1.3032 0
M  V30 2212 H 201.546 1.29706 0.625492 0
M  V30 2213 H 203.499 2.08455 3.6623 0
M  V30 2214 H 202.223 0.966598 3.11969 0
M  V30 2215 H 200.882 2.90656 2.23416 0
M  V30 2216 H 200.53 2.09438 4.57323 0
M  V30 2217 H 200.23 3.84556 4.44286 0
M  V30 2218 H 201.754 3.25613 5.16535 0
M  V30 2219 H 203.168 4.6414 3.36522 0
M  V30 2220 H 201.565 5.2654 2.87881 0
M  V30 2221 H 202.635 4.55777 1.65514 0
M  V30 2222 N 203.978 -0.674533 1.42435 0
M  V30 2223 C 204.888 -1.81751 1.48337 0
M  V30 2224 C 205.904 -1.69975 0.372099 0
M  V30 2225 O 207.08 -1.91521 0.62304 0
M  V30 2226 C 204.145 -3.17895 1.38361 0
M  V30 2227 C 203.206 -3.41625 2.59982 0
M  V30 2228 C 202.439 -4.71274 2.50473 0
M  V30 2229 O 202.662 -5.49197 1.54075 0
M  V30 2230 O 201.596 -4.96254 3.4061 0
M  V30 2231 H 205.422 -1.79728 2.44809 0
M  V30 2232 H 203.007 -0.830312 1.24202 0
M  V30 2233 H 204.889 -3.99136 1.35161 0
M  V30 2234 H 203.564 -3.20555 0.450144 0
M  V30 2235 H 202.471 -2.60231 2.68757 0
M  V30 2236 H 203.804 -3.43796 3.52229 0
M  V30 2237 N 205.456 -1.28612 -0.910864 0
M  V30 2238 C 206.733 -1.06632 -1.63979 0
M  V30 2239 C 207.113 0.393351 -2.07403 0
M  V30 2240 O 206.461 1.37999 -1.82122 0
M  V30 2241 C 206.671 -2.0436 -2.8291 0
M  V30 2242 C 208.019 -2.34666 -3.5386 0
M  V30 2243 O 209.043 -2.02467 -2.93062 0
M  V30 2244 O 207.902 -2.89631 -4.63439 0
M  V30 2245 H 204.996 -0.407737 -0.7195 0
M  V30 2246 H 207.542 -1.39942 -0.959914 0
M  V30 2247 H 206.314 -3.02727 -2.47936 0
M  V30 2248 H 205.937 -1.71714 -3.58609 0
M  V30 2249 N 206.934 1.1197 -1.10907 0
M  V30 2250 C 208.164 1.8713 -0.875553 0
M  V30 2251 C 208.572 1.8016 0.577843 0
M  V30 2252 O 207.915 1.17699 1.41042 0
M  V30 2253 C 207.977 3.37005 -1.2517 0
M  V30 2254 C 207.641 3.67748 -2.71313 0
M  V30 2255 C 208.638 3.65698 -3.69542 0
M  V30 2256 C 206.323 3.96928 -3.07821 0
M  V30 2257 C 208.317 3.92395 -5.023 0
M  V30 2258 C 206.004 4.23284 -4.40765 0
M  V30 2259 C 207.002 4.21005 -5.37814 0
M  V30 2260 O 206.69 4.46704 -6.68364 0
M  V30 2261 H 206.422 0.598786 -0.313737 0
M  V30 2262 H 208.976 1.42568 -1.47863 0
M  V30 2263 H 207.206 3.82146 -0.591741 0
M  V30 2264 H 208.895 3.93519 -0.994877 0
M  V30 2265 H 209.661 3.43211 -3.42682 0
M  V30 2266 H 205.54 3.97841 -2.32902 0
M  V30 2267 H 209.084 3.90531 -5.78041 0
M  V30 2268 H 204.981 4.45246 -4.67361 0
M  V30 2269 H 205.749 4.64299 -6.74069 0
M  V30 2270 N 208.412 0.89855 1.29475 0
M  V30 2271 C 209.66 0.522847 1.9522 0
M  V30 2272 C 209.981 -0.93371 1.71192 0
M  V30 2273 O 209.251 -1.65823 1.04305 0
M  V30 2274 H 207.831 0.190366 0.722336 0
M  V30 2275 H 210.493 1.14459 1.5775 0
M  V30 2276 H 209.589 0.704476 3.04045 0
M  V30 2277 N 209.89 -1.43072 0.660911 0
M  V30 2278 C 211.306 -1.56169 0.329173 0
M  V30 2279 C 211.506 -1.64317 -1.16629 0
M  V30 2280 O 210.562 -1.60245 -1.95135 0
M  V30 2281 C 211.875 -2.81873 1.04729 0
M  V30 2282 C 213.423 -2.95627 1.02828 0
M  V30 2283 C 213.898 -4.24174 1.72744 0
M  V30 2284 N 215.389 -4.31055 1.69545 0
M  V30 2285 C 216.124 -5.29304 2.20511 0
M  V30 2286 N 215.62 -6.33786 2.79799 0
M  V30 2287 N 217.413 -5.21008 2.10966 0
M  V30 2288 H 209.564 -1.36027 1.63127 0
M  V30 2289 H 211.827 -0.653823 0.686454 0
M  V30 2290 H 211.533 -2.81942 2.10242 0
M  V30 2291 H 211.407 -3.72338 0.603702 0
M  V30 2292 H 213.794 -2.95094 -0.0184742 0
M  V30 2293 H 213.875 -2.06431 1.51063 0
M  V30 2294 H 213.519 -4.25467 2.7738 0
M  V30 2295 H 213.449 -5.1228 1.2197 0
M  V30 2296 H 215.94 -3.56174 1.26288 0
M  V30 2297 H 216.253 -7.05086 3.16344 0
M  V30 2298 H 214.598 -6.34387 2.83863 0
M  V30 2299 H 217.789 -4.38301 1.64347 0
M  V30 2300 H 217.962 -5.97416 2.50993 0
M  V30 2301 N 211.368 -0.403325 -1.52352 0
M  V30 2302 C 212.598 0.17376 -2.05868 0
M  V30 2303 C 213.006 1.39898 -1.27378 0
M  V30 2304 O 212.349 1.80939 -0.31729 0
M  V30 2305 C 212.411 0.594756 -3.54546 0
M  V30 2306 C 212.075 -0.518926 -4.54044 0
M  V30 2307 C 213.072 -1.3807 -5.01231 0
M  V30 2308 C 210.757 -0.689961 -4.97539 0
M  V30 2309 C 212.751 -2.39852 -5.90551 0
M  V30 2310 C 210.438 -1.71109 -5.86656 0
M  V30 2311 C 211.436 -2.56378 -6.33056 0
M  V30 2312 O 211.124 -3.56743 -7.20409 0
M  V30 2313 H 210.856 0.0264951 -0.675481 0
M  V30 2314 H 213.41 -0.571179 -1.97299 0
M  V30 2315 H 211.64 1.39189 -3.60782 0
M  V30 2316 H 213.329 1.0991 -3.90736 0
M  V30 2317 H 214.095 -1.25994 -4.68349 0
M  V30 2318 H 209.974 -0.035939 -4.60986 0
M  V30 2319 H 213.518 -3.06441 -6.26689 0
M  V30 2320 H 209.415 -1.83218 -6.18952 0
M  V30 2321 H 210.183 -3.52918 -7.38506 0
M  V30 2322 N 212.846 1.57033 -0.133567 0
M  V30 2323 C 214.262 1.58035 0.222944 0
M  V30 2324 C 214.462 1.14713 1.6566 0
M  V30 2325 O 213.518 0.841218 2.38075 0
M  V30 2326 C 214.831 3.00691 -0.0236116 0
M  V30 2327 C 216.379 3.12973 0.0411512 0
M  V30 2328 C 216.854 4.57654 -0.177899 0
M  V30 2329 N 218.345 4.63033 -0.124365 0
M  V30 2330 C 219.08 5.72771 -0.268553 0
M  V30 2331 N 218.576 6.91206 -0.46972 0
M  V30 2332 N 220.369 5.61718 -0.2071 0
M  V30 2333 H 212.52 1.8349 -1.06981 0
M  V30 2334 H 214.783 0.848677 -0.422436 0
M  V30 2335 H 214.489 3.36726 -1.0153 0
M  V30 2336 H 214.363 3.70614 0.701808 0
M  V30 2337 H 216.75 2.76787 1.02338 0
M  V30 2338 H 216.831 2.45564 -0.716383 0
M  V30 2339 H 216.475 4.94542 -1.15717 0
M  V30 2340 H 216.405 5.23173 0.599797 0
M  V30 2341 H 218.896 3.7789 0.027011 0
M  V30 2342 H 219.209 7.70693 -0.570212 0
M  V30 2343 H 217.554 6.93156 -0.505876 0
M  V30 2344 H 220.745 4.68072 -0.0507986 0
M  V30 2345 H 220.918 6.47195 -0.322909 0
M  V30 2346 N 214.325 -0.140222 1.56975 0
M  V30 2347 C 215.565 -0.857823 1.85528 0
M  V30 2348 C 215.929 -1.78039 0.718768 0
M  V30 2349 O 217.13 -2.53795 0.885521 0
M  V30 2350 C 215.401 -1.60615 3.19277 0
M  V30 2351 S 216.96 -2.36824 3.69405 0
M  V30 2352 H 213.778 -0.286727 0.650622 0
M  V30 2353 H 216.38 -0.117408 1.95147 0
M  V30 2354 H 215.084 -0.919994 3.99955 0
M  V30 2355 H 214.615 -2.38735 3.12681 0
M  V30 2356 H 216.63 -3.62148 3.3921 0
M  V30 2357 N 215.803 -1.52179 -0.40978 0
M  V30 2358 C 216.713 -1.78364 -1.52392 0
M  V30 2359 C 217.729 -0.669183 -1.60617 0
M  V30 2360 O 218.905 -0.954518 -1.77344 0
M  V30 2361 C 215.97 -1.92822 -2.88133 0
M  V30 2362 C 215.031 -3.16725 -2.898 0
M  V30 2363 C 214.264 -3.30483 -4.19067 0
M  V30 2364 O 214.487 -2.49522 -5.12928 0
M  V30 2365 O 213.421 -4.2363 -4.27576 0
M  V30 2366 H 217.247 -2.72931 -1.33201 0
M  V30 2367 H 214.832 -1.37016 -0.59557 0
M  V30 2368 H 216.714 -2.04157 -3.68643 0
M  V30 2369 H 215.389 -1.01444 -3.07393 0
M  V30 2370 H 214.296 -3.10848 -2.08146 0
M  V30 2371 H 215.629 -4.07881 -2.75489 0
M  V30 2372 N 217.281 0.66697 -1.42791 0
M  V30 2373 C 218.527 1.4291 -1.43891 0
M  V30 2374 C 218.86 1.94114 -0.0578972 0
M  V30 2375 O 218.135 1.71414 0.91911 0
M  V30 2376 C 218.418 2.62049 -2.46987 0
M  V30 2377 C 218.271 2.16426 -3.94309 0
M  V30 2378 C 219.59 3.64266 -2.46978 0
M  V30 2379 H 216.709 0.518306 -0.523954 0
M  V30 2380 H 219.351 0.757321 -1.74255 0
M  V30 2381 H 217.501 3.19361 -2.21225 0
M  V30 2382 H 219.173 1.64221 -4.31079 0
M  V30 2383 H 217.416 1.47925 -4.078 0
M  V30 2384 H 218.087 3.02038 -4.62036 0
M  V30 2385 H 220.563 3.16686 -2.69906 0
M  V30 2386 H 219.439 4.45196 -3.21079 0
M  V30 2387 H 219.7 4.15927 -1.49857 0
M  V30 2388 N 218.759 1.29093 0.90403 0
M  V30 2389 C 220.008 1.16187 1.64874 0
M  V30 2390 C 220.321 -0.286742 1.93487 0
M  V30 2391 O 221.527 -0.537062 2.66135 0
M  V30 2392 C 219.983 2.03177 2.97064 0
M  V30 2393 C 219.591 3.52836 2.76062 0
M  V30 2394 C 221.335 1.98984 3.74974 0
M  V30 2395 C 219.242 4.31945 4.03952 0
M  V30 2396 H 218.172 0.431246 0.618501 0
M  V30 2397 H 220.823 1.53699 1.00243 0
M  V30 2398 H 219.205 1.5853 3.62883 0
M  V30 2399 H 220.379 4.05507 2.18863 0
M  V30 2400 H 218.694 3.58656 2.11553 0
M  V30 2401 H 221.291 2.55351 4.69787 0
M  V30 2402 H 221.634 0.968815 4.0487 0
M  V30 2403 H 222.167 2.41652 3.15989 0
M  V30 2404 H 218.906 5.34667 3.79225 0
M  V30 2405 H 218.426 3.84045 4.60727 0
M  V30 2406 H 220.105 4.42379 4.72133 0
M  V30 2407 N 220.237 -1.11381 1.11499 0
M  V30 2408 C 221.514 -1.7955 0.775965 0
M  V30 2409 C 221.894 -1.97859 -0.73588 0
M  V30 2410 O 221.242 -1.56376 -1.66609 0
M  V30 2411 C 221.452 -3.13196 1.53977 0
M  V30 2412 C 222.8 -3.88227 1.71944 0
M  V30 2413 O 223.824 -3.22887 1.50407 0
M  V30 2414 O 222.683 -5.05477 2.07738 0
M  V30 2415 H 219.777 -0.777728 0.28119 0
M  V30 2416 H 222.323 -1.18118 1.21845 0
M  V30 2417 H 221.095 -2.95229 2.56818 0
M  V30 2418 H 220.718 -3.82342 1.09088 0
M  V30 2419 N 221.715 -0.905404 -1.28997 0
M  V30 2420 C 222.963 -0.533192 -1.9494 0
M  V30 2421 C 223.284 0.924618 -1.71685 0
M  V30 2422 O 222.554 1.65268 -1.05183 0
M  V30 2423 H 221.134 -0.194194 -0.721317 0
M  V30 2424 H 223.796 -1.15294 -1.57141 0
M  V30 2425 H 222.892 -0.72059 -3.03667 0
M  V30 2426 N 223.193 1.4272 -0.668489 0
M  V30 2427 C 224.123 2.335 -0.000100175 0
M  V30 2428 C 225.104 1.50328 0.795964 0
M  V30 2429 O 226.289 1.78949 0.754385 0
M  V30 2430 C 223.419 3.33874 0.956302 0
M  V30 2431 C 222.373 4.27152 0.269278 0
M  V30 2432 C 221.699 5.17684 1.33818 0
M  V30 2433 C 222.999 5.15373 -0.847805 0
M  V30 2434 H 224.693 2.89639 -0.758244 0
M  V30 2435 H 222.239 1.39269 -0.366079 0
M  V30 2436 H 224.192 3.9629 1.43292 0
M  V30 2437 H 222.916 2.76025 1.74579 0
M  V30 2438 H 221.575 3.66123 -0.187042 0
M  V30 2439 H 221.223 4.56165 2.1195 0
M  V30 2440 H 220.923 5.80918 0.883659 0
M  V30 2441 H 222.447 5.82974 1.81586 0
M  V30 2442 H 223.861 5.7151 -0.452681 0
M  V30 2443 H 222.258 5.87407 -1.22773 0
M  V30 2444 H 223.328 4.5415 -1.69929 0
M  V30 2445 N 224.671 0.411399 1.52136 0
M  V30 2446 C 225.581 -0.419774 2.30814 0
M  V30 2447 C 226.597 -1.0515 1.38634 0
M  V30 2448 O 227.773 -1.05252 1.71709 0
M  V30 2449 C 224.838 -1.52019 3.11594 0
M  V30 2450 C 223.899 -0.91129 4.19516 0
M  V30 2451 C 223.132 -1.95927 4.96436 0
M  V30 2452 O 223.355 -3.17775 4.73683 0
M  V30 2453 O 222.289 -1.56423 5.81219 0
M  V30 2454 H 226.115 0.221805 3.02889 0
M  V30 2455 H 223.7 0.174547 1.48377 0
M  V30 2456 H 225.582 -2.15898 3.61892 0
M  V30 2457 H 224.257 -2.14633 2.42311 0
M  V30 2458 H 223.164 -0.235157 3.7336 0
M  V30 2459 H 224.497 -0.32904 4.91099 0
M  V30 2460 N 226.149 -1.5696 0.141893 0
M  V30 2461 C 227.426 -1.87553 -0.555281 0
M  V30 2462 C 227.806 -1.04699 -1.83306 0
M  V30 2463 O 227.154 -0.132346 -2.28116 0
M  V30 2464 C 227.364 -3.39093 -0.825664 0
M  V30 2465 C 228.712 -4.08199 -1.16869 0
M  V30 2466 O 229.736 -3.44242 -0.915185 0
M  V30 2467 O 228.595 -5.21139 -1.6455 0
M  V30 2468 H 225.689 -0.777188 -0.282679 0
M  V30 2469 H 228.235 -1.68763 0.17812 0
M  V30 2470 H 227.007 -3.91221 0.0788633 0
M  V30 2471 H 226.63 -3.63393 -1.61343 0
M  V30 2472 N 227.627 0.131896 -1.57047 0
M  V30 2473 C 228.537 1.1815 -2.02676 0
M  V30 2474 C 229.553 1.46113 -0.944824 0
M  V30 2475 O 230.729 1.57485 -1.25541 0
M  V30 2476 C 227.794 2.49139 -2.41103 0
M  V30 2477 C 226.855 2.28688 -3.63318 0
M  V30 2478 C 226.088 3.53431 -3.99903 0
M  V30 2479 O 226.311 4.60223 -3.36973 0
M  V30 2480 O 225.245 3.45198 -4.93074 0
M  V30 2481 H 229.071 0.824069 -2.92306 0
M  V30 2482 H 226.656 0.341745 -1.45439 0
M  V30 2483 H 228.538 3.26338 -2.66611 0
M  V30 2484 H 227.213 2.84382 -1.54624 0
M  V30 2485 H 226.12 1.4939 -3.42977 0
M  V30 2486 H 227.453 1.98355 -4.50462 0
M  V30 2487 N 229.106 1.52395 0.401703 0
M  V30 2488 C 230.331 1.70972 1.17403 0
M  V30 2489 C 230.756 0.421615 1.83314 0
M  V30 2490 O 230.114 -0.621564 1.70312 0
M  V30 2491 C 230.162 2.85151 2.20728 0
M  V30 2492 O 229.266 2.51238 3.27037 0
M  V30 2493 H 228.607 0.568927 0.342372 0
M  V30 2494 H 231.137 1.99131 0.469891 0
M  V30 2495 H 231.147 3.10279 2.64936 0
M  V30 2496 H 229.822 3.78603 1.7214 0
M  V30 2497 H 228.399 2.36808 2.88057 0
M  V30 2498 N 230.584 -0.659388 1.43143 0
M  V30 2499 C 231.832 -1.41654 1.44147 0
M  V30 2500 C 232.153 -1.94893 0.0645739 0
M  V30 2501 O 231.423 -1.74044 -0.899198 0
M  V30 2502 H 230.003 -0.525708 0.530697 0
M  V30 2503 H 232.665 -0.778097 1.78694 0
M  V30 2504 H 231.761 -2.26195 2.1504 0
M  V30 2505 N 232.062 -1.29571 -0.897171 0
M  V30 2506 C 232.992 -1.17473 -2.01798 0
M  V30 2507 C 233.973 -0.068323 -1.69963 0
M  V30 2508 O 235.158 -0.248239 -1.92607 0
M  V30 2509 C 232.288 -0.853099 -3.36659 0
M  V30 2510 C 231.242 -1.9161 -3.82713 0
M  V30 2511 C 230.568 -1.44773 -5.14728 0
M  V30 2512 C 231.868 -3.32535 -4.02763 0
M  V30 2513 H 233.562 -2.11237 -2.12177 0
M  V30 2514 H 231.108 -1.01699 -1.01948 0
M  V30 2515 H 233.061 -0.755165 -4.14578 0
M  V30 2516 H 231.785 0.120236 -3.26379 0
M  V30 2517 H 230.444 -2.00346 -3.07013 0
M  V30 2518 H 230.092 -0.462995 -5.00865 0
M  V30 2519 H 229.792 -2.15865 -5.46513 0
M  V30 2520 H 231.316 -1.36334 -5.95185 0
M  V30 2521 H 232.73 -3.26626 -4.71156 0
M  V30 2522 H 231.127 -4.01607 -4.45905 0
M  V30 2523 H 232.197 -3.75326 -3.07016 0
M  V30 2524 N 233.54 1.10788 -1.12088 0
M  V30 2525 C 234.786 1.82942 -0.875226 0
M  V30 2526 C 235.119 1.84779 0.597538 0
M  V30 2527 O 234.394 1.30578 1.44152 0
M  V30 2528 C 234.677 3.29789 -1.44606 0
M  V30 2529 C 234.53 3.36307 -2.98693 0
M  V30 2530 C 235.849 4.26064 -1.10261 0
M  V30 2531 H 232.968 0.664195 -0.319397 0
M  V30 2532 H 235.61 1.29867 -1.38689 0
M  V30 2533 H 233.76 3.75118 -1.01089 0
M  V30 2534 H 235.432 2.99487 -3.50864 0
M  V30 2535 H 233.675 2.76318 -3.34411 0
M  V30 2536 H 234.346 4.39694 -3.33726 0
M  V30 2537 H 236.822 3.88951 -1.4784 0
M  V30 2538 H 235.698 5.27183 -1.52869 0
M  V30 2539 H 235.959 4.42098 -0.0142953 0
M  V30 2540 N 235.018 0.912232 1.28515 0
M  V30 2541 C 235.928 0.404506 2.31086 0
M  V30 2542 C 236.944 -0.50707 1.66448 0
M  V30 2543 O 238.12 -0.393624 1.97516 0
M  V30 2544 C 235.185 -0.348572 3.44943 0
M  V30 2545 C 234.246 0.59604 4.25142 0
M  V30 2546 C 233.479 -0.121194 5.33562 0
M  V30 2547 O 233.702 -1.34317 5.5436 0
M  V30 2548 O 232.636 0.542716 5.99448 0
M  V30 2549 H 236.462 1.25579 2.76521 0
M  V30 2550 H 234.047 0.676998 1.33181 0
M  V30 2551 H 235.929 -0.77395 4.14232 0
M  V30 2552 H 234.604 -1.17571 3.01594 0
M  V30 2553 H 233.511 1.07079 3.58448 0
M  V30 2554 H 234.844 1.38995 4.72167 0
M  V30 2555 N 236.496 -1.42363 0.676048 0
M  V30 2556 C 237.426 -2.33497 0.0124832 0
M  V30 2557 C 238.407 -1.50748 -0.787981 0
M  V30 2558 O 239.592 -1.79346 -0.744884 0
M  V30 2559 C 236.722 -3.34377 -0.938582 0
M  V30 2560 C 235.676 -4.27289 -0.246622 0
M  V30 2561 C 235.002 -5.18386 -1.31071 0
M  V30 2562 C 236.302 -5.14916 0.875125 0
M  V30 2563 H 237.996 -2.89233 0.773593 0
M  V30 2564 H 235.542 -1.39073 0.37346 0
M  V30 2565 H 237.495 -3.97044 -1.41188 0
M  V30 2566 H 236.219 -2.76947 -1.73113 0
M  V30 2567 H 234.878 -3.66018 0.206456 0
M  V30 2568 H 234.526 -4.57282 -2.09528 0
M  V30 2569 H 234.226 -5.81378 -0.852839 0
M  V30 2570 H 235.75 -5.83929 -1.78492 0
M  V30 2571 H 237.164 -5.71262 0.482983 0
M  V30 2572 H 235.561 -5.86747 1.25887 0
M  V30 2573 H 236.631 -4.53242 1.72335 0
M  V30 2574 N 237.974 -0.419461 -1.51915 0
M  V30 2575 C 238.884 0.407528 -2.31033 0
M  V30 2576 C 239.9 1.04413 -1.3919 0
M  V30 2577 O 241.076 1.0434 -1.72265 0
M  V30 2578 C 238.141 1.50365 -3.12396 0
M  V30 2579 C 237.202 0.889029 -4.19994 0
M  V30 2580 C 236.435 1.93291 -4.97468 0
M  V30 2581 O 236.658 3.15259 -4.75361 0
M  V30 2582 O 235.592 1.53339 -5.8204 0
M  V30 2583 H 239.418 -0.237865 -3.02767 0
M  V30 2584 H 237.003 -0.182413 -1.48282 0
M  V30 2585 H 238.885 2.13975 -3.63032 0
M  V30 2586 H 237.56 2.13345 -2.43445 0
M  V30 2587 H 236.467 0.215353 -3.7348 0
M  V30 2588 H 237.8 0.302991 -4.91267 0
M  V30 2589 N 239.452 1.56882 -0.150215 0
M  V30 2590 C 240.382 2.19935 0.784284 0
M  V30 2591 C 241.363 1.14854 1.25469 0
M  V30 2592 O 242.548 1.43209 1.31168 0
M  V30 2593 C 239.678 2.82349 2.02229 0
M  V30 2594 C 238.632 3.93285 1.68853 0
M  V30 2595 C 237.958 4.42649 2.99944 0
M  V30 2596 C 239.258 5.13904 0.932714 0
M  V30 2597 H 240.952 2.9828 0.258781 0
M  V30 2598 H 238.498 1.43473 0.123029 0
M  V30 2599 H 240.451 3.25126 2.68088 0
M  V30 2600 H 239.175 2.0134 2.57157 0
M  V30 2601 H 237.834 3.5113 1.05371 0
M  V30 2602 H 237.482 3.58458 3.52869 0
M  V30 2603 H 237.182 5.17476 2.78374 0
M  V30 2604 H 238.706 4.88099 3.66868 0
M  V30 2605 H 240.12 5.53506 1.49345 0
M  V30 2606 H 238.517 5.94515 0.81684 0
M  V30 2607 H 239.587 4.84842 -0.0749568 0
M  V30 2608 N 240.93 -0.123565 1.57115 0
M  V30 2609 C 242.346 -0.476961 1.52306 0
M  V30 2610 C 242.546 -1.82109 0.86248 0
M  V30 2611 O 241.602 -2.48586 0.442884 0
M  V30 2612 C 242.915 -0.465661 2.97073 0
M  V30 2613 C 244.463 -0.549534 3.08138 0
M  V30 2614 C 244.938 -0.568669 4.54456 0
M  V30 2615 N 246.429 -0.630237 4.58892 0
M  V30 2616 C 247.164 -0.666415 5.69514 0
M  V30 2617 N 246.66 -0.660514 6.89644 0
M  V30 2618 N 248.453 -0.709077 5.5761 0
M  V30 2619 H 240.604 0.757198 1.98445 0
M  V30 2620 H 242.867 0.278808 0.906074 0
M  V30 2621 H 242.573 0.454232 3.48754 0
M  V30 2622 H 242.447 -1.29513 3.54269 0
M  V30 2623 H 244.834 -1.45985 2.56461 0
M  V30 2624 H 244.915 0.307532 2.53945 0
M  V30 2625 H 244.559 0.337581 5.06777 0
M  V30 2626 H 244.489 -1.44256 5.06456 0
M  V30 2627 H 246.98 -0.641146 3.72421 0
M  V30 2628 H 247.293 -0.690616 7.69708 0
M  V30 2629 H 245.638 -0.628012 6.92157 0
M  V30 2630 H 248.829 -0.711019 4.62668 0
M  V30 2631 H 249.002 -0.733804 6.43832 0
M  V30 2632 N 242.408 -1.52605 -0.393616 0
M  V30 2633 C 243.656 -1.67093 -1.13685 0
M  V30 2634 C 243.977 -0.411011 -1.90619 0
M  V30 2635 O 243.247 0.574491 -1.87287 0
M  V30 2636 H 241.827 -0.615923 -0.422668 0
M  V30 2637 H 244.489 -1.89704 -0.447039 0
M  V30 2638 H 243.585 -2.51922 -1.84232 0
M  V30 2639 N 243.887 0.651787 -1.4349 0
M  V30 2640 C 245.133 1.41376 -1.45398 0
M  V30 2641 C 245.466 1.94041 -0.0784823 0
M  V30 2642 O 244.741 1.72379 0.900878 0
M  V30 2643 C 245.024 2.59414 -2.49752 0
M  V30 2644 C 244.877 2.12232 -3.96582 0
M  V30 2645 C 246.196 3.61626 -2.50827 0
M  V30 2646 H 243.315 0.512719 -0.529422 0
M  V30 2647 H 245.957 0.738796 -1.75048 0
M  V30 2648 H 244.107 3.16997 -2.246 0
M  V30 2649 H 245.779 1.59639 -4.32797 0
M  V30 2650 H 244.022 1.43592 -4.09346 0
M  V30 2651 H 244.693 2.9712 -4.65214 0
M  V30 2652 H 247.169 3.13805 -2.7325 0
M  V30 2653 H 246.045 4.41766 -3.25783 0
M  V30 2654 H 246.306 4.14314 -1.5426 0
M  V30 2655 N 245.365 1.30045 0.890287 0
M  V30 2656 C 246.611 1.18737 1.64406 0
M  V30 2657 C 246.944 -0.258525 1.92472 0
M  V30 2658 O 246.219 -1.18562 1.54186 0
M  V30 2659 C 246.502 2.01087 2.98724 0
M  V30 2660 C 246.355 3.53867 2.77665 0
M  V30 2661 C 247.674 1.84457 3.9958 0
M  V30 2662 H 244.793 0.432698 0.596608 0
M  V30 2663 H 247.435 1.5962 1.0306 0
M  V30 2664 H 245.585 1.66349 3.51084 0
M  V30 2665 H 247.257 3.98637 2.32133 0
M  V30 2666 H 245.5 3.78318 2.12269 0
M  V30 2667 H 246.171 4.06772 3.7315 0
M  V30 2668 H 248.647 2.14817 3.56361 0
M  V30 2669 H 247.523 2.44411 4.91482 0
M  V30 2670 H 247.784 0.802276 4.3476 0
M  V30 2671 N 246.843 -1.10192 1.12674 0
M  V30 2672 C 248.09 -1.82205 0.883606 0
M  V30 2673 C 248.418 -1.8532 -0.590492 0
M  V30 2674 O 247.673 -1.31137 -1.45264 0
M  V30 2675 C 247.972 -3.28552 1.4067 0
M  V30 2676 C 247.638 -3.45582 2.89627 0
M  V30 2677 C 246.3 -3.49937 3.30299 0
M  V30 2678 C 248.652 -3.50768 3.85501 0
M  V30 2679 C 245.98 -3.57049 4.65546 0
M  V30 2680 C 248.332 -3.59414 5.20581 0
M  V30 2681 C 246.996 -3.62034 5.60792 0
M  V30 2682 H 246.266 -0.666735 0.323334 0
M  V30 2683 H 248.913 -1.29868 1.40736 0
M  V30 2684 H 247.218 -3.83473 0.80347 0
M  V30 2685 H 248.915 -3.82788 1.19475 0
M  V30 2686 H 245.505 -3.42871 2.57172 0
M  V30 2687 H 249.689 -3.46651 3.55171 0
M  V30 2688 H 244.945 -3.57361 4.96088 0
M  V30 2689 H 249.119 -3.62371 5.94693 0
M  V30 2690 H 246.746 -3.67298 6.6558 0
M  V30 2691 N 248.321 -0.919034 -1.28029 0
M  V30 2692 C 249.732 -0.600735 -1.76771 0
M  V30 2693 C 250.083 0.884024 -1.75156 0
M  V30 2694 O 249.208 1.69163 -1.34956 0
M  V30 2695 C 249.803 -1.08372 -3.21 0
M  V30 2696 C 248.362 -0.816248 -3.67443 0
M  V30 2697 C 247.509 -1.24742 -2.47658 0
M  V30 2698 H 250.46 -1.09974 -1.14418 0
M  V30 2699 H 250.481 -0.427512 -3.78091 0
M  V30 2700 H 249.993 -2.16437 -3.22144 0
M  V30 2701 H 248.094 0.250968 -3.71754 0
M  V30 2702 H 248.207 -1.4277 -4.57333 0
M  V30 2703 H 246.571 -0.666083 -2.45836 0
M  V30 2704 H 247.354 -2.33653 -2.51518 0
M  V30 2705 N 249.799 1.42003 -0.683588 0
M  V30 2706 C 251.029 2.05448 -0.217866 0
M  V30 2707 C 251.437 1.51491 1.13346 0
M  V30 2708 O 250.78 0.653048 1.717 0
M  V30 2709 C 250.842 3.59399 -0.0850118 0
M  V30 2710 C 250.506 4.36093 -1.36645 0
M  V30 2711 C 251.503 4.66169 -2.30179 0
M  V30 2712 C 249.188 4.75578 -1.61649 0
M  V30 2713 C 251.182 5.34676 -3.46988 0
M  V30 2714 C 248.869 5.43824 -2.78745 0
M  V30 2715 C 249.867 5.73299 -3.71238 0
M  V30 2716 O 249.555 6.40142 -4.86285 0
M  V30 2717 H 249.287 0.668344 -0.101454 0
M  V30 2718 H 251.841 1.82974 -0.933248 0
M  V30 2719 H 250.071 3.80566 0.686031 0
M  V30 2720 H 251.76 4.04457 0.341973 0
M  V30 2721 H 252.526 4.36156 -2.12115 0
M  V30 2722 H 248.405 4.52025 -0.905243 0
M  V30 2723 H 251.949 5.57599 -4.19201 0
M  V30 2724 H 247.846 5.73254 -2.96732 0
M  V30 2725 H 248.614 6.58636 -4.85944 0
M  V30 2726 N 251.277 0.427512 1.51691 0
M  V30 2727 C 252.209 -0.424521 2.25234 0
M  V30 2728 C 253.222 -0.994671 1.2888 0
M  V30 2729 O 254.411 -0.890483 1.54702 0
M  V30 2730 C 251.511 -1.60479 2.98496 0
M  V30 2731 C 250.684 -1.15527 4.21868 0
M  V30 2732 C 249.743 -2.20454 4.77793 0
M  V30 2733 O 248.769 -1.8029 5.39893 0
M  V30 2734 N 249.971 -3.52831 4.60967 0
M  V30 2735 H 252.736 0.205749 2.98993 0
M  V30 2736 H 250.297 0.255867 1.59865 0
M  V30 2737 H 252.289 -2.30276 3.32799 0
M  V30 2738 H 250.859 -2.14061 2.27809 0
M  V30 2739 H 250.079 -0.284736 3.9317 0
M  V30 2740 H 251.367 -0.832173 5.01949 0
M  V30 2741 H 250.765 -3.88201 4.11481 0
M  V30 2742 H 249.322 -4.18551 4.99658 0
M  V30 2743 N 252.755 -1.56801 0.158532 0
M  V30 2744 C 253.98 -2.01295 -0.499516 0
M  V30 2745 C 254.405 -1.03799 -1.56867 0
M  V30 2746 O 253.763 -0.0155162 -1.81293 0
M  V30 2747 C 253.811 -3.44469 -1.06647 0
M  V30 2748 O 252.915 -3.50012 -2.18095 0
M  V30 2749 H 252.256 -0.652884 -0.12099 0
M  V30 2750 H 254.786 -2.02958 0.258661 0
M  V30 2751 H 254.796 -3.8351 -1.39227 0
M  V30 2752 H 253.471 -4.14932 -0.283581 0
M  V30 2753 H 252.048 -3.22822 -1.86656 0
M  V30 2754 N 254.233 0.115231 -1.57178 0
M  V30 2755 C 255.644 0.67197 -1.74188 0
M  V30 2756 C 255.995 1.80125 -0.777777 0
M  V30 2757 O 255.12 2.16346 0.0484376 0
M  V30 2758 C 255.715 1.22573 -3.1585 0
M  V30 2759 C 254.274 1.72872 -3.34353 0
M  V30 2760 C 253.421 0.629972 -2.70049 0
M  V30 2761 H 256.372 -0.110712 -1.58313 0
M  V30 2762 H 256.393 2.09535 -3.17609 0
M  V30 2763 H 255.905 0.403598 -3.85996 0
M  V30 2764 H 254.006 2.5755 -2.69256 0
M  V30 2765 H 254.119 1.83557 -4.42542 0
M  V30 2766 H 252.483 1.0645 -2.31388 0
M  V30 2767 H 253.266 -0.181241 -3.42821 0
M  V30 2768 N 255.711 1.52812 0.385517 0
M  V30 2769 C 256.659 1.78482 1.49155 0
M  V30 2770 C 257.653 0.652914 1.56312 0
M  V30 2771 O 258.859 0.835464 1.59436 0
M  V30 2772 H 255.234 0.5648 0.496493 0
M  V30 2773 H 257.205 2.71095 1.24699 0
M  V30 2774 C 255.954 1.97378 2.86247 0
M  V30 2775 H 255.277 2.83907 2.81491 0
M  V30 2776 H 256.717 2.19327 3.62866 0
M  V30 2777 C 255.176 0.74728 3.28508 0
M  V30 2778 O 255.706 -0.0736232 4.01633 0
M  V30 2779 N 253.912 0.576396 2.84826 0
M  V30 2780 H 253.459 1.24555 2.25486 0
M  V30 2781 H 253.417 -0.24288 3.1346 0
M  V30 2782 N 257.189 -0.644168 1.43834 0
M  V30 2783 C 258.437 -1.40117 1.45642 0
M  V30 2784 C 258.758 -1.94814 0.0852413 0
M  V30 2785 O 258.028 -1.74988 -0.880688 0
M  V30 2786 H 256.608 -0.52005 0.536243 0
M  V30 2787 H 259.27 -0.7591 1.7951 0
M  V30 2788 H 258.366 -2.23902 2.17427 0
M  V30 2789 N 258.668 -1.30515 -0.883378 0
M  V30 2790 C 260.084 -1.08881 -1.16692 0
M  V30 2791 C 260.284 0.149409 -2.00945 0
M  V30 2792 O 259.34 0.84257 -2.38027 0
M  V30 2793 C 260.653 -2.35319 -1.87204 0
M  V30 2794 C 262.201 -2.40799 -1.99962 0
M  V30 2795 C 262.676 -3.67083 -2.73887 0
M  V30 2796 N 264.167 -3.679 -2.81432 0
M  V30 2797 C 264.902 -4.62303 -3.3921 0
M  V30 2798 N 264.398 -5.67052 -3.98025 0
M  V30 2799 N 266.191 -4.49845 -3.3704 0
M  V30 2800 H 258.342 -2.09951 -0.321633 0
M  V30 2801 H 260.605 -0.92556 -0.205043 0
M  V30 2802 H 260.311 -3.25689 -1.3274 0
M  V30 2803 H 260.185 -2.44089 -2.87577 0
M  V30 2804 H 262.572 -1.50907 -2.53597 0
M  V30 2805 H 262.653 -2.36003 -0.98673 0
M  V30 2806 H 262.297 -4.57334 -2.20925 0
M  V30 2807 H 262.227 -3.69141 -3.75556 0
M  V30 2808 H 264.718 -2.92171 -2.39676 0
M  V30 2809 H 265.031 -6.35184 -4.40183 0
M  V30 2810 H 263.376 -5.70842 -3.96439 0
M  V30 2811 H 266.567 -3.67194 -2.90321 0
M  V30 2812 H 266.74 -5.23597 -3.81772 0
M  V30 2813 N 260.146 1.09593 -1.13257 0
M  V30 2814 C 261.376 1.85231 -0.915049 0
M  V30 2815 C 261.784 1.81345 0.539498 0
M  V30 2816 O 261.127 1.20664 1.38513 0
M  V30 2817 C 261.189 3.34275 -1.3229 0
M  V30 2818 C 260.853 3.6191 -2.79052 0
M  V30 2819 C 261.85 3.57777 -3.77216 0
M  V30 2820 C 259.535 3.90309 -3.16171 0
M  V30 2821 C 261.529 3.81652 -5.1051 0
M  V30 2822 C 259.216 4.13839 -4.49644 0
M  V30 2823 C 260.214 4.09502 -5.46623 0
M  V30 2824 O 259.902 4.32426 -6.77689 0
M  V30 2825 H 259.634 0.591997 -0.326367 0
M  V30 2826 H 262.188 1.394 -1.50854 0
M  V30 2827 H 260.418 3.80805 -0.672667 0
M  V30 2828 H 262.107 3.9132 -1.07812 0
M  V30 2829 H 262.873 3.35865 -3.49885 0
M  V30 2830 H 258.752 3.92811 -2.41289 0
M  V30 2831 H 262.296 3.78182 -5.86195 0
M  V30 2832 H 258.193 4.35232 -4.767 0
M  V30 2833 H 258.961 4.49896 -6.83766 0
M  V30 2834 N 261.624 0.925811 1.2754 0
M  V30 2835 C 262.556 0.380753 2.26015 0
M  V30 2836 C 263.569 -0.487485 1.5533 0
M  V30 2837 O 264.758 -0.300413 1.75954 0
M  V30 2838 C 261.858 -0.473259 3.35579 0
M  V30 2839 C 261.031 0.375249 4.35787 0
M  V30 2840 C 260.09 -0.415809 5.24555 0
M  V30 2841 O 259.116 0.175834 5.68928 0
M  V30 2842 N 260.318 -1.71607 5.54555 0
M  V30 2843 H 263.083 1.22725 2.73421 0
M  V30 2844 H 260.644 0.793037 1.41147 0
M  V30 2845 H 262.636 -1.00949 3.91907 0
M  V30 2846 H 261.206 -1.2205 2.87789 0
M  V30 2847 H 260.426 1.09279 3.7875 0
M  V30 2848 H 261.714 0.955399 4.99749 0
M  V30 2849 H 261.112 -2.2191 5.20358 0
M  V30 2850 H 259.669 -2.19887 6.1359 0
M  V30 2851 N 263.102 -1.41638 0.69111 0
M  V30 2852 C 264.349 -2.01299 0.220193 0
M  V30 2853 C 264.677 -1.54715 -1.17871 0
M  V30 2854 O 263.932 -0.747193 -1.80874 0
M  V30 2855 C 264.231 -3.56714 0.221277 0
M  V30 2856 C 263.897 -4.22792 1.56709 0
M  V30 2857 C 262.559 -4.40557 1.93554 0
M  V30 2858 C 264.911 -4.59883 2.45268 0
M  V30 2859 C 262.239 -4.92688 3.18552 0
M  V30 2860 C 264.591 -5.13403 3.69595 0
M  V30 2861 C 263.255 -5.29379 4.06589 0
M  V30 2862 H 262.525 -0.736606 0.0805743 0
M  V30 2863 H 265.172 -1.69598 0.889319 0
M  V30 2864 H 263.477 -3.8818 -0.531391 0
M  V30 2865 H 265.174 -4.00678 -0.160547 0
M  V30 2866 H 261.764 -4.09336 1.2705 0
M  V30 2867 H 265.948 -4.45817 2.18084 0
M  V30 2868 H 261.204 -5.03242 3.47214 0
M  V30 2869 H 265.378 -5.41084 4.38407 0
M  V30 2870 H 263.005 -5.69537 5.03519 0
M  V30 2871 N 264.58 -0.43555 -1.51462 0
M  V30 2872 C 265.528 0.391205 -2.29287 0
M  V30 2873 C 266.522 1.02247 -1.35062 0
M  V30 2874 O 267.728 0.957646 -1.52411 0
M  V30 2875 H 264.103 0.144968 -0.737895 0
M  V30 2876 H 266.074 -0.286051 -2.97026 0
M  V30 2877 C 264.823 1.48096 -3.14583 0
M  V30 2878 H 264.146 1.00457 -3.86973 0
M  V30 2879 H 265.586 2.03273 -3.72097 0
M  V30 2880 C 264.045 2.46321 -2.29843 0
M  V30 2881 O 264.575 3.50815 -1.95682 0
M  V30 2882 N 262.781 2.17166 -1.931 0
M  V30 2883 H 262.328 1.32218 -2.21079 0
M  V30 2884 H 262.286 2.83127 -1.36698 0
M  V30 2885 N 266.058 1.56714 -0.166846 0
M  V30 2886 C 267.305 1.96747 0.479252 0
M  V30 2887 C 267.633 1.05263 1.63554 0
M  V30 2888 O 266.888 0.0858098 1.95512 0
M  V30 2889 C 267.187 3.42889 1.00806 0
M  V30 2890 C 266.853 4.50889 -0.0318574 0
M  V30 2891 C 265.515 4.8015 -0.317675 0
M  V30 2892 C 267.867 5.15949 -0.737956 0
M  V30 2893 C 265.195 5.71772 -1.31506 0
M  V30 2894 C 267.547 6.08647 -1.72429 0
M  V30 2895 C 266.211 6.36277 -2.0176 0
M  V30 2896 H 265.481 0.719949 0.175371 0
M  V30 2897 H 268.128 1.89756 -0.257864 0
M  V30 2898 H 266.433 3.4681 1.82291 0
M  V30 2899 H 268.13 3.71203 1.51689 0
M  V30 2900 H 264.72 4.28128 0.201088 0
M  V30 2901 H 268.904 4.93458 -0.530351 0
M  V30 2902 H 264.16 5.91465 -1.54853 0
M  V30 2903 H 268.334 6.58129 -2.27682 0
M  V30 2904 H 265.961 7.07075 -2.79194 0
M  V30 2905 N 267.536 -0.106894 1.57237 0
M  V30 2906 C 268.486 -1.1366 1.9765 0
M  V30 2907 C 269.47 -1.36416 0.853203 0
M  V30 2908 O 270.662 -1.37305 1.11697 0
M  V30 2909 C 267.791 -2.46 2.39455 0
M  V30 2910 C 266.877 -2.26668 3.58445 0
M  V30 2911 N 267.268 -1.77176 4.73754 0
M  V30 2912 C 265.566 -2.57279 3.64312 0
M  V30 2913 C 266.267 -1.71836 5.5574 0
M  V30 2914 N 265.243 -2.16623 4.98573 0
M  V30 2915 H 269.045 -0.74669 2.84256 0
M  V30 2916 H 266.559 -0.314483 1.59326 0
M  V30 2917 H 268.556 -3.2049 2.6663 0
M  V30 2918 H 267.216 -2.85738 1.54219 0
M  V30 2919 H 268.227 -1.46545 4.96734 0
M  V30 2920 H 264.904 -3.00622 2.89711 0
M  V30 2921 H 266.294 -1.34723 6.58255 0
M  V30 2922 N 269.014 -1.53014 -0.377408 0
M  V30 2923 C 269.924 -1.81557 -1.48574 0
M  V30 2924 C 270.94 -0.703102 -1.59162 0
M  V30 2925 O 272.116 -0.99192 -1.75279 0
M  V30 2926 C 269.181 -1.9889 -2.83978 0
M  V30 2927 C 268.242 -3.22801 -2.83016 0
M  V30 2928 C 267.475 -3.39298 -4.11962 0
M  V30 2929 O 267.698 -2.60345 -5.0752 0
M  V30 2930 O 266.632 -4.32604 -4.18494 0
M  V30 2931 H 270.458 -2.75695 -1.27382 0
M  V30 2932 H 268.043 -1.38248 -0.566373 0
M  V30 2933 H 269.925 -2.11931 -3.6423 0
M  V30 2934 H 268.6 -1.07942 -3.05172 0
M  V30 2935 H 267.507 -3.15193 -2.01505 0
M  V30 2936 H 268.84 -4.13632 -2.66775 0
M  V30 2937 N 270.492 0.636531 -1.44174 0
M  V30 2938 C 271.74 1.39343 -1.46383 0
M  V30 2939 C 272.061 1.94766 -0.0955715 0
M  V30 2940 O 271.331 1.75452 0.871395 0
M  V30 2941 H 269.911 0.517199 -0.538994 0
M  V30 2942 H 272.573 0.74957 -1.7991 0
M  V30 2943 H 271.669 2.22746 -2.18611 0
M  V30 2944 N 271.97 1.30982 0.876444 0
M  V30 2945 C 272.902 1.13902 1.98894 0
M  V30 2946 C 273.915 0.0798815 1.62604 0
M  V30 2947 O 275.104 0.326743 1.75484 0
M  V30 2948 C 272.204 0.716699 3.31235 0
M  V30 2949 C 271.377 1.85945 3.95908 0
M  V30 2950 C 270.436 1.42426 5.06558 0
M  V30 2951 O 269.462 2.13287 5.27729 0
M  V30 2952 N 270.664 0.308025 5.79682 0
M  V30 2953 H 273.429 2.09724 2.14094 0
M  V30 2954 H 270.99 1.2323 1.05004 0
M  V30 2955 H 272.982 0.408403 4.02634 0
M  V30 2956 H 271.552 -0.149719 3.12241 0
M  V30 2957 H 270.772 2.33541 3.17573 0
M  V30 2958 H 272.06 2.62503 4.35855 0
M  V30 2959 H 271.458 -0.282241 5.64995 0
M  V30 2960 H 270.015 0.0592282 6.51773 0
M  V30 2961 N 273.449 -1.08991 1.13837 0
M  V30 2962 C 274.381 -2.15606 0.777612 0
M  V30 2963 C 275.394 -1.61533 -0.202739 0
M  V30 2964 O 276.583 -1.78491 0.0181055 0
M  V30 2965 C 273.683 -3.3864 0.132623 0
M  V30 2966 C 272.856 -4.22115 1.1462 0
M  V30 2967 C 271.915 -5.23564 0.526074 0
M  V30 2968 O 270.941 -5.56678 1.18735 0
M  V30 2969 N 272.143 -5.76266 -0.699866 0
M  V30 2970 H 274.908 -2.47159 1.69506 0
M  V30 2971 H 272.469 -1.24747 1.03198 0
M  V30 2972 H 274.461 -4.03626 -0.29459 0
M  V30 2973 H 273.031 -3.04938 -0.687849 0
M  V30 2974 H 272.251 -3.53199 1.75055 0
M  V30 2975 H 273.539 -4.74709 1.83109 0
M  V30 2976 H 272.937 -5.51585 -1.25581 0
M  V30 2977 H 271.494 -6.42963 -1.06968 0
M  V30 2978 N 274.927 -0.932562 -1.27047 0
M  V30 2979 C 276.173 -0.576412 -1.94436 0
M  V30 2980 C 276.506 0.880891 -1.73072 0
M  V30 2981 O 275.781 1.62905 -1.06264 0
M  V30 2982 C 276.064 -0.909031 -3.48437 0
M  V30 2983 C 275.917 -2.42044 -3.79123 0
M  V30 2984 C 277.236 -0.418341 -4.38107 0
M  V30 2985 H 274.355 -0.210888 -0.706184 0
M  V30 2986 H 276.997 -1.16522 -1.50075 0
M  V30 2987 H 275.147 -0.407947 -3.86352 0
M  V30 2988 H 276.819 -2.99359 -3.50973 0
M  V30 2989 H 275.062 -2.86758 -3.25503 0
M  V30 2990 H 275.733 -2.6037 -4.86736 0
M  V30 2991 H 278.209 -0.847856 -4.0737 0
M  V30 2992 H 277.085 -0.679981 -5.44672 0
M  V30 2993 H 277.346 0.681642 -4.36814 0
M  V30 2994 N 276.405 1.4127 -0.698611 0
M  V30 2995 C 277.645 2.03044 -0.235062 0
M  V30 2996 C 278.009 1.54146 1.14468 0
M  V30 2997 O 279.21 2.07867 1.70425 0
M  V30 2998 C 277.481 3.56192 -0.293651 0
M  V30 2999 S 279.04 4.38696 0.0954053 0
M  V30 3000 H 275.858 0.704697 -0.0944648 0
M  V30 3001 H 278.46 1.72656 -0.917064 0
M  V30 3002 H 277.164 3.89274 -1.29977 0
M  V30 3003 H 276.695 3.91285 0.407397 0
M  V30 3004 H 278.71 4.78257 1.3223 0
M  V30 3005 N 277.883 0.443576 1.51229 0
M  V30 3006 C 278.846 -0.353132 2.26463 0
M  V30 3007 C 279.846 -0.944338 1.3015 0
M  V30 3008 O 281.036 -0.817813 1.5381 0
M  V30 3009 C 278.168 -1.50023 3.06114 0
M  V30 3010 H 279.361 0.3063 2.98332 0
M  V30 3011 H 276.914 0.196902 1.55055 0
M  V30 3012 H 277.649 -2.19553 2.38677 0
M  V30 3013 H 277.434 -1.08241 3.76864 0
M  V30 3014 H 278.924 -2.06296 3.63087 0
M  V30 3015 N 279.361 -1.56624 0.175154 0
M  V30 3016 C 280.271 -2.21741 -0.766042 0
M  V30 3017 C 281.287 -1.21023 -1.25018 0
M  V30 3018 O 282.463 -1.53697 -1.3015 0
M  V30 3019 C 279.528 -2.84839 -1.97655 0
M  V30 3020 C 278.589 -4.00769 -1.53892 0
M  V30 3021 C 277.822 -4.60849 -2.69173 0
M  V30 3022 O 278.045 -4.19823 -3.86141 0
M  V30 3023 O 276.979 -5.50655 -2.43028 0
M  V30 3024 H 280.805 -3.02738 -0.241585 0
M  V30 3025 H 278.39 -1.49305 -0.053222 0
M  V30 3026 H 280.272 -3.24834 -2.68442 0
M  V30 3027 H 278.947 -2.06836 -2.48999 0
M  V30 3028 H 277.854 -3.65436 -0.80044 0
M  V30 3029 H 279.187 -4.80376 -1.07236 0
M  V30 3030 N 280.839 0.0985539 -1.57292 0
M  V30 3031 C 281.771 1.14595 -1.98496 0
M  V30 3032 C 282.784 1.36512 -0.887031 0
M  V30 3033 O 283.973 1.35225 -1.16518 0
M  V30 3034 C 281.073 2.50216 -2.28572 0
M  V30 3035 C 280.246 2.48624 -3.59868 0
M  V30 3036 C 279.305 3.66146 -3.7792 0
M  V30 3037 O 278.331 3.48795 -4.49812 0
M  V30 3038 N 279.533 4.85496 -3.18235 0
M  V30 3039 H 282.298 0.795277 -2.88956 0
M  V30 3040 H 279.859 0.287579 -1.59325 0
M  V30 3041 H 281.851 3.27432 -2.37845 0
M  V30 3042 H 280.421 2.77387 -1.44136 0
M  V30 3043 H 279.641 1.56978 -3.61596 0
M  V30 3044 H 280.929 2.44635 -4.46129 0
M  V30 3045 H 280.327 5.02497 -2.59833 0
M  V30 3046 H 278.884 5.60317 -3.32999 0
M  V30 3047 N 282.317 1.53212 0.369288 0
M  V30 3048 C 283.28 1.7872 1.43498 0
M  V30 3049 C 284.28 0.657554 1.46741 0
M  V30 3050 O 285.47 0.925736 1.47566 0
M  V30 3051 C 282.602 1.90591 2.82645 0
M  V30 3052 H 283.795 2.73894 1.22156 0
M  V30 3053 H 281.348 1.44233 0.602203 0
M  V30 3054 H 282.083 0.974709 3.09306 0
M  V30 3055 H 281.868 2.72751 2.8169 0
M  V30 3056 H 283.358 2.11931 3.59826 0
M  V30 3057 N 283.795 -0.628877 1.44509 0
M  V30 3058 C 284.758 -1.72263 1.51188 0
M  V30 3059 C 285.758 -1.55907 0.39367 0
M  V30 3060 O 286.948 -1.61361 0.656377 0
M  V30 3061 C 284.08 -3.11365 1.38798 0
M  V30 3062 H 285.273 -1.67714 2.4862 0
M  V30 3063 H 282.826 -0.842737 1.31634 0
M  V30 3064 H 283.561 -3.21507 0.424693 0
M  V30 3065 H 283.346 -3.24644 2.19884 0
M  V30 3066 H 284.836 -3.91075 1.46458 0
M  V30 3067 N 285.273 -1.31445 -0.869486 0
M  V30 3068 C 286.519 -1.21337 -1.62496 0
M  V30 3069 C 286.852 0.227872 -1.92858 0
M  V30 3070 O 286.127 1.16094 -1.56053 0
M  V30 3071 C 286.41 -2.05814 -2.95487 0
M  V30 3072 C 286.263 -3.5824 -2.72 0
M  V30 3073 C 287.582 -1.9079 -3.96594 0
M  V30 3074 H 284.701 -0.442135 -0.589649 0
M  V30 3075 H 287.343 -1.6124 -1.00507 0
M  V30 3076 H 285.493 -1.71913 -3.48394 0
M  V30 3077 H 287.165 -4.0228 -2.25762 0
M  V30 3078 H 285.408 -3.81647 -2.06224 0
M  V30 3079 H 286.079 -4.12657 -3.66631 0
M  V30 3080 H 288.555 -2.20459 -3.52898 0
M  V30 3081 H 287.431 -2.52199 -4.87531 0
M  V30 3082 H 287.692 -0.871341 -4.33428 0
M  V30 3083 N 286.751 1.08385 -1.14413 0
M  V30 3084 C 287.997 1.81044 -0.913834 0
M  V30 3085 C 288.33 1.86004 0.558209 0
M  V30 3086 O 287.605 1.33606 1.4135 0
M  V30 3087 C 287.888 3.26648 -1.51569 0
M  V30 3088 C 287.741 3.29895 -3.0576 0
M  V30 3089 C 289.06 4.23629 -1.19273 0
M  V30 3090 H 286.179 0.65727 -0.333414 0
M  V30 3091 H 288.821 1.26896 -1.41412 0
M  V30 3092 H 286.971 3.72889 -1.09023 0
M  V30 3093 H 288.643 2.91977 -3.57137 0
M  V30 3094 H 286.886 2.69163 -3.40197 0
M  V30 3095 H 287.557 4.32516 -3.42977 0
M  V30 3096 H 290.033 3.85727 -1.56057 0
M  V30 3097 H 288.909 5.23822 -1.64017 0
M  V30 3098 H 289.17 4.41968 -0.108068 0
M  V30 3099 N 288.23 0.939286 1.26551 0
M  V30 3100 C 289.193 0.451987 2.24699 0
M  V30 3101 C 290.193 -0.435869 1.5478 0
M  V30 3102 O 291.383 -0.235314 1.72603 0
M  V30 3103 C 288.515 -0.348801 3.39111 0
M  V30 3104 H 289.708 1.3193 2.69322 0
M  V30 3105 H 287.261 0.721072 1.38673 0
M  V30 3106 H 287.996 -1.23444 2.99887 0
M  V30 3107 H 287.781 0.287945 3.91041 0
M  V30 3108 H 289.271 -0.679726 4.12031 0
M  V30 3109 N 289.708 -1.40897 0.706093 0
M  V30 3110 C 290.933 -2.05895 0.249435 0
M  V30 3111 C 291.358 -1.52823 -1.09666 0
M  V30 3112 O 290.716 -0.659589 -1.68876 0
M  V30 3113 C 290.764 -3.59872 0.22904 0
M  V30 3114 O 289.868 -4.04708 -0.792784 0
M  V30 3115 H 289.209 -0.653206 0.119241 0
M  V30 3116 H 291.739 -1.80471 0.96391 0
M  V30 3117 H 291.749 -4.07951 0.0634791 0
M  V30 3118 H 290.424 -3.97866 1.21141 0
M  V30 3119 H 289.001 -3.68111 -0.59572 0
M  V30 3120 N 291.186 -0.45159 -1.50991 0
M  V30 3121 C 292.433 0.110074 -2.02201 0
M  V30 3122 C 292.761 1.4146 -1.33489 0
M  V30 3123 O 292.016 1.90617 -0.443125 0
M  V30 3124 C 292.315 0.361728 -3.55565 0
M  V30 3125 C 291.981 -0.858717 -4.42648 0
M  V30 3126 C 290.643 -1.19338 -4.66167 0
M  V30 3127 C 292.995 -1.67221 -4.93646 0
M  V30 3128 C 290.323 -2.34195 -5.37931 0
M  V30 3129 C 292.675 -2.8119 -5.6667 0
M  V30 3130 C 291.339 -3.15094 -5.88449 0
M  V30 3131 H 290.609 0.040279 -0.739904 0
M  V30 3132 H 293.256 -0.601696 -1.81802 0
M  V30 3133 H 291.561 1.15554 -3.74372 0
M  V30 3134 H 293.258 0.80996 -3.92735 0
M  V30 3135 H 289.848 -0.58796 -4.24548 0
M  V30 3136 H 294.032 -1.42686 -4.75347 0
M  V30 3137 H 289.288 -2.6076 -5.53005 0
M  V30 3138 H 293.462 -3.44585 -6.05173 0
M  V30 3139 H 291.089 -4.04204 -6.43835 0
M  V30 3140 N 292.664 1.56529 -0.183458 0
M  V30 3141 C 293.574 2.22144 0.754272 0
M  V30 3142 C 294.59 1.21684 1.24374 0
M  V30 3143 O 295.766 1.54385 1.29333 0
M  V30 3144 C 292.831 2.85884 1.96141 0
M  V30 3145 C 291.892 4.01579 1.51765 0
M  V30 3146 C 291.125 4.6227 2.66725 0
M  V30 3147 O 291.348 4.21865 3.83909 0
M  V30 3148 O 290.282 5.51936 2.40104 0
M  V30 3149 H 294.108 3.02861 0.225527 0
M  V30 3150 H 291.693 1.49331 0.0453032 0
M  V30 3151 H 293.575 3.26253 2.66715 0
M  V30 3152 H 292.25 2.08154 2.47899 0
M  V30 3153 H 291.157 3.65856 0.781049 0
M  V30 3154 H 292.49 4.80938 1.04686 0
M  V30 3155 N 294.142 -0.090211 1.57342 0
M  V30 3156 C 295.074 -1.13541 1.99101 0
M  V30 3157 C 296.087 -1.3604 0.894258 0
M  V30 3158 O 297.276 -1.34606 1.17233 0
M  V30 3159 C 294.376 -2.49001 2.29895 0
M  V30 3160 C 293.549 -2.46712 3.61182 0
M  V30 3161 C 292.608 -3.64136 3.79857 0
M  V30 3162 O 291.634 -3.46405 4.51655 0
M  V30 3163 N 292.836 -4.83802 3.20806 0
M  V30 3164 H 295.601 -0.779942 2.89373 0
M  V30 3165 H 293.162 -0.279125 1.59476 0
M  V30 3166 H 295.154 -3.26166 2.39578 0
M  V30 3167 H 293.724 -2.76619 1.45605 0
M  V30 3168 H 292.944 -1.55058 3.62423 0
M  V30 3169 H 294.232 -2.42265 4.4742 0
M  V30 3170 H 293.63 -5.01112 2.62494 0
M  V30 3171 H 292.187 -5.58543 3.35966 0
M  V30 3172 N 295.62 -1.53406 -0.361157 0
M  V30 3173 C 296.55 -1.83136 -1.44857 0
M  V30 3174 C 297.531 -0.685174 -1.5569 0
M  V30 3175 O 298.716 -0.93544 -1.70186 0
M  V30 3176 C 295.846 -2.02522 -2.82138 0
M  V30 3177 C 294.8 -3.18302 -2.86126 0
M  V30 3178 C 294.126 -3.22989 -4.26125 0
M  V30 3179 C 295.426 -4.56796 -2.53248 0
M  V30 3180 H 297.12 -2.74201 -1.20226 0
M  V30 3181 H 294.666 -1.31938 -0.576922 0
M  V30 3182 H 296.619 -2.21904 -3.58241 0
M  V30 3183 H 295.343 -1.08172 -3.08166 0
M  V30 3184 H 294.002 -2.98747 -2.12475 0
M  V30 3185 H 293.65 -2.26267 -4.49235 0
M  V30 3186 H 293.35 -4.00781 -4.29708 0
M  V30 3187 H 294.874 -3.44559 -5.04094 0
M  V30 3188 H 296.288 -4.7631 -3.19064 0
M  V30 3189 H 294.685 -5.36862 -2.68141 0
M  V30 3190 H 295.755 -4.61606 -1.48484 0
M  V30 3191 N 297.098 0.621204 -1.44841 0
M  V30 3192 C 298.345 1.38055 -1.48145 0
M  V30 3193 C 298.673 1.94143 -0.117867 0
M  V30 3194 O 297.928 1.74713 0.881694 0
M  V30 3195 C 298.227 2.55675 -2.4973 0
M  V30 3196 C 297.893 2.17817 -3.94799 0
M  V30 3197 C 296.555 2.07205 -4.34303 0
M  V30 3198 C 298.907 1.88065 -4.86087 0
M  V30 3199 C 296.235 1.65045 -5.63007 0
M  V30 3200 C 298.587 1.47394 -6.15189 0
M  V30 3201 C 297.251 1.35331 -6.53637 0
M  V30 3202 H 296.521 0.505181 -0.542101 0
M  V30 3203 H 299.168 0.703477 -1.78111 0
M  V30 3204 H 297.473 3.2866 -2.13284 0
M  V30 3205 H 299.17 3.13904 -2.4953 0
M  V30 3206 H 295.76 2.26998 -3.63552 0
M  V30 3207 H 299.944 1.95168 -4.56315 0
M  V30 3208 H 295.2 1.54317 -5.91605 0
M  V30 3209 H 299.374 1.23415 -6.85377 0
M  V30 3210 H 297.001 1.02435 -7.53267 0
M  V30 3211 N 298.576 1.31904 0.862503 0
M  V30 3212 C 299.992 1.10724 1.14945 0
M  V30 3213 C 300.192 -0.117421 2.01158 0
M  V30 3214 O 299.248 -0.804595 2.39338 0
M  V30 3215 C 300.561 2.38267 1.83437 0
M  V30 3216 C 302.109 2.43949 1.96106 0
M  V30 3217 C 302.584 3.71394 2.68013 0
M  V30 3218 N 304.075 3.72331 2.75543 0
M  V30 3219 C 304.81 4.67641 3.31812 0
M  V30 3220 N 304.306 5.73313 3.88953 0
M  V30 3221 N 306.099 4.5515 3.29841 0
M  V30 3222 H 298.25 2.10436 0.288191 0
M  V30 3223 H 300.513 0.928705 0.190292 0
M  V30 3224 H 300.219 3.27759 1.27542 0
M  V30 3225 H 300.093 2.48633 2.83657 0
M  V30 3226 H 302.48 1.54922 2.51164 0
M  V30 3227 H 302.561 2.37543 0.949059 0
M  V30 3228 H 302.205 4.60791 2.13621 0
M  V30 3229 H 302.135 3.75069 3.69636 0
M  V30 3230 H 304.626 2.95947 2.34997 0
M  V30 3231 H 304.939 6.42107 4.30022 0
M  V30 3232 H 303.284 5.77077 3.87308 0
M  V30 3233 H 306.475 3.71766 2.84443 0
M  V30 3234 H 306.648 5.29604 3.73394 0
M  V30 3235 N 300.054 -1.07777 1.14986 0
M  V30 3236 C 301.017 -2.13041 0.845358 0
M  V30 3237 C 302.017 -1.60071 -0.152931 0
M  V30 3238 O 303.207 -1.74033 0.0761879 0
M  V30 3239 C 300.339 -3.39896 0.261383 0
M  V30 3240 H 301.532 -2.41485 1.77834 0
M  V30 3241 H 299.085 -1.23595 0.956757 0
M  V30 3242 H 299.82 -3.17091 -0.68 0
M  V30 3243 H 299.605 -3.79642 0.980514 0
M  V30 3244 H 301.095 -4.17548 0.0657687 0
M  V30 3245 N 301.532 -0.945985 -1.26051 0
M  V30 3246 C 302.778 -0.606539 -1.94146 0
M  V30 3247 C 303.133 0.84586 -1.72809 0
M  V30 3248 O 302.426 1.59781 -1.05738 0
M  V30 3249 C 302.62 -0.890475 -3.46129 0
M  V30 3250 C 302.449 -2.36892 -3.82246 0
M  V30 3251 C 301.219 -3.02494 -4.04753 0
M  V30 3252 C 303.417 -3.34772 -3.90425 0
M  V30 3253 N 301.399 -4.40302 -4.27794 0
M  V30 3254 C 302.77 -4.57855 -4.18054 0
M  V30 3255 C 304.825 -3.2973 -3.73072 0
M  V30 3256 C 303.528 -5.76522 -4.30134 0
M  V30 3257 C 305.554 -4.47727 -3.86386 0
M  V30 3258 C 304.916 -5.69593 -4.14419 0
M  V30 3259 H 301.015 -0.272407 -0.73302 0
M  V30 3260 H 303.599 -1.21638 -1.52027 0
M  V30 3261 H 301.77 -0.309638 -3.87164 0
M  V30 3262 H 303.502 -0.51181 -4.01451 0
M  V30 3263 H 300.257 -2.53095 -4.003 0
M  V30 3264 H 300.681 -5.11646 -4.43337 0
M  V30 3265 H 305.323 -2.36565 -3.50424 0
M  V30 3266 H 303.041 -6.70136 -4.51601 0
M  V30 3267 H 306.627 -4.45363 -3.74356 0
M  V30 3268 H 305.507 -6.59375 -4.24493 0
M  V30 3269 N 303.011 1.40521 -0.713556 0
M  V30 3270 C 303.921 2.34522 -0.0606667 0
M  V30 3271 C 304.937 1.57193 0.74607 0
M  V30 3272 O 306.113 1.89591 0.679493 0
M  V30 3273 C 303.178 3.36081 0.851491 0
M  V30 3274 C 302.239 4.29286 0.0349339 0
M  V30 3275 C 301.472 5.25994 0.903649 0
M  V30 3276 O 301.695 5.28616 2.14292 0
M  V30 3277 O 300.629 6.00918 0.343723 0
M  V30 3278 H 304.455 2.91968 -0.835972 0
M  V30 3279 H 302.04 1.41681 -0.47402 0
M  V30 3280 H 303.922 3.98369 1.37404 0
M  V30 3281 H 302.597 2.81052 1.60598 0
M  V30 3282 H 301.504 3.70289 -0.532633 0
M  V30 3283 H 302.837 4.87462 -0.681287 0
M  V30 3284 N 304.489 0.459591 1.5075 0
M  V30 3285 C 305.399 -0.34613 2.32033 0
M  V30 3286 C 306.415 -1.00686 1.41909 0
M  V30 3287 O 307.591 -0.997361 1.7497 0
M  V30 3288 C 304.656 -1.42029 3.16273 0
M  V30 3289 C 303.717 -0.777362 4.22203 0
M  V30 3290 C 302.95 -1.80034 5.02418 0
M  V30 3291 O 303.173 -3.02544 4.83553 0
M  V30 3292 O 302.107 -1.37853 5.85901 0
M  V30 3293 H 305.933 0.318054 3.0203 0
M  V30 3294 H 303.518 0.221663 1.47746 0
M  V30 3295 H 305.4 -2.04275 3.68578 0
M  V30 3296 H 304.075 -2.06815 2.49016 0
M  V30 3297 H 302.982 -0.116256 3.73919 0
M  V30 3298 H 304.315 -0.172634 4.91897 0
M  V30 3299 N 305.967 -1.56429 0.191757 0
M  V30 3300 C 307.215 -1.97095 -0.447006 0
M  V30 3301 C 307.536 -1.07967 -1.62383 0
M  V30 3302 O 306.806 -0.150248 -1.95323 0
M  V30 3303 H 305.386 -0.727832 -0.168135 0
M  V30 3304 H 308.048 -1.92911 0.27771 0
M  V30 3305 H 307.144 -3.01848 -0.793371 0
M  V30 3306 N 307.445 0.0818655 -1.57387 0
M  V30 3307 C 308.375 1.09885 -2.06028 0
M  V30 3308 C 309.356 1.4098 -0.951774 0
M  V30 3309 O 310.541 1.50781 -1.22387 0
M  V30 3310 C 307.671 2.4151 -2.4958 0
M  V30 3311 C 306.625 2.24792 -3.64215 0
M  V30 3312 C 305.951 3.61712 -3.93787 0
M  V30 3313 C 307.251 1.67749 -4.94629 0
M  V30 3314 H 308.945 0.694128 -2.91243 0
M  V30 3315 H 306.491 0.332448 -1.4011 0
M  V30 3316 H 308.444 3.12939 -2.82219 0
M  V30 3317 H 307.168 2.83943 -1.61381 0
M  V30 3318 H 305.827 1.55807 -3.31843 0
M  V30 3319 H 305.475 4.01697 -3.02735 0
M  V30 3320 H 305.175 3.51368 -4.70971 0
M  V30 3321 H 306.699 4.34587 -4.28913 0
M  V30 3322 H 308.113 2.29032 -5.25564 0
M  V30 3323 H 306.51 1.68128 -5.76067 0
M  V30 3324 H 307.58 0.638059 -4.80684 0
M  V30 3325 N 308.923 1.53595 0.353017 0
M  V30 3326 C 310.2 1.61002 1.11075 0
M  V30 3327 C 310.58 0.425356 2.0677 0
M  V30 3328 O 309.928 -0.583267 2.2093 0
M  V30 3329 C 310.138 2.96631 1.83877 0
M  V30 3330 C 311.486 3.51653 2.37961 0
M  V30 3331 O 312.51 2.98743 1.93987 0
M  V30 3332 O 311.369 4.44177 3.18386 0
M  V30 3333 H 308.463 0.650825 0.510251 0
M  V30 3334 H 311.009 1.6594 0.35527 0
M  V30 3335 H 309.781 3.74293 1.14108 0
M  V30 3336 H 309.404 2.95242 2.66304 0
M  V30 3337 N 310.401 -0.613514 1.45168 0
M  V30 3338 C 311.647 -1.37279 1.50087 0
M  V30 3339 C 312.002 -1.91902 0.138294 0
M  V30 3340 O 311.295 -1.71764 -0.84899 0
M  V30 3341 C 311.489 -2.54347 2.51083 0
M  V30 3342 C 311.318 -2.11186 3.97027 0
M  V30 3343 C 310.088 -1.97636 4.65046 0
M  V30 3344 C 312.286 -1.69016 4.85735 0
M  V30 3345 N 310.268 -1.48224 5.95737 0
M  V30 3346 C 311.639 -1.30976 6.06008 0
M  V30 3347 C 313.694 -1.56555 4.72647 0
M  V30 3348 C 312.397 -0.817197 7.14643 0
M  V30 3349 C 314.423 -1.08702 5.81324 0
M  V30 3350 C 313.785 -0.716233 7.00749 0
M  V30 3351 H 309.884 -0.496478 0.60418 0
M  V30 3352 H 312.468 -0.701988 1.81605 0
M  V30 3353 H 310.639 -3.19031 2.21527 0
M  V30 3354 H 312.371 -3.21208 2.46187 0
M  V30 3355 H 309.126 -2.18638 4.20112 0
M  V30 3356 H 309.55 -1.25767 6.65216 0
M  V30 3357 H 314.192 -1.83849 3.80736 0
M  V30 3358 H 311.91 -0.531797 8.06348 0
M  V30 3359 H 315.496 -0.994943 5.7323 0
M  V30 3360 H 314.376 -0.351642 7.83411 0
M  V30 3361 N 311.879 -1.3236 -0.855495 0
M  V30 3362 C 313.119 -1.24187 -1.62348 0
M  V30 3363 C 313.483 0.193597 -1.91021 0
M  V30 3364 O 314.684 0.39904 -2.65822 0
M  V30 3365 C 312.955 -2.07661 -2.90881 0
M  V30 3366 S 314.514 -2.16505 -3.81669 0
M  V30 3367 H 311.332 -0.442076 -0.556857 0
M  V30 3368 H 313.934 -1.67198 -1.01317 0
M  V30 3369 H 312.638 -3.11018 -2.67761 0
M  V30 3370 H 312.169 -1.65425 -3.56929 0
M  V30 3371 H 314.184 -1.31394 -4.78487 0
M  V30 3372 N 313.357 1.07166 -1.15556 0
M  V30 3373 C 314.305 2.16517 -0.8499 0
M  V30 3374 C 315.299 1.68468 0.177454 0
M  V30 3375 O 316.505 1.79971 0.0323026 0
M  V30 3376 H 312.88 0.706652 -0.25719 0
M  V30 3377 H 314.851 2.39514 -1.77976 0
M  V30 3378 C 313.6 3.45855 -0.357682 0
M  V30 3379 H 312.923 3.83214 -1.13961 0
M  V30 3380 H 314.363 4.23607 -0.182489 0
M  V30 3381 C 312.822 3.24062 0.921152 0
M  V30 3382 O 313.352 3.48813 1.9923 0
M  V30 3383 N 311.558 2.77539 0.86141 0
M  V30 3384 H 311.105 2.57598 -0.0104408 0
M  V30 3385 H 311.063 2.63337 1.71758 0
M  V30 3386 N 314.835 0.952656 1.25548 0
M  V30 3387 C 315.798 0.475794 2.24207 0
M  V30 3388 C 316.798 -0.419428 1.55234 0
M  V30 3389 O 317.988 -0.216994 1.72843 0
M  V30 3390 C 315.12 -0.312814 3.39462 0
M  V30 3391 H 316.313 1.34779 2.67908 0
M  V30 3392 H 313.866 0.735739 1.37901 0
M  V30 3393 H 314.601 -1.20257 3.01179 0
M  V30 3394 H 314.386 0.329404 3.90714 0
M  V30 3395 H 315.876 -0.635986 4.12729 0
M  V30 3396 N 316.313 -1.40141 0.720998 0
M  V30 3397 C 317.561 -2.0039 0.262323 0
M  V30 3398 C 317.882 -1.57469 -1.15015 0
M  V30 3399 O 317.152 -0.816582 -1.78069 0
M  V30 3400 H 315.732 -0.741063 0.093996 0
M  V30 3401 H 318.394 -1.71398 0.927835 0
M  V30 3402 H 317.49 -3.10658 0.299671 0
M  V30 3403 N 317.792 -0.46758 -1.50504 0
M  V30 3404 C 319.038 0.0808869 -2.03239 0
M  V30 3405 C 319.393 1.37721 -1.34353 0
M  V30 3406 O 318.686 1.86016 -0.459194 0
M  V30 3407 C 318.88 0.323995 -3.55928 0
M  V30 3408 C 318.709 -0.947215 -4.39611 0
M  V30 3409 C 317.479 -1.48951 -4.82848 0
M  V30 3410 C 319.677 -1.84166 -4.80195 0
M  V30 3411 N 317.659 -2.71011 -5.50842 0
M  V30 3412 C 319.03 -2.90815 -5.47564 0
M  V30 3413 C 321.085 -1.85246 -4.62156 0
M  V30 3414 C 319.788 -3.98529 -5.98805 0
M  V30 3415 C 321.814 -2.91914 -5.14335 0
M  V30 3416 C 321.176 -3.97282 -5.81676 0
M  V30 3417 H 317.275 -0.0103394 -0.781932 0
M  V30 3418 H 319.859 -0.635003 -1.84054 0
M  V30 3419 H 318.03 1.00892 -3.75067 0
M  V30 3420 H 319.762 0.866492 -3.95315 0
M  V30 3421 H 316.517 -1.03918 -4.62058 0
M  V30 3422 H 316.941 -3.32988 -5.89447 0
M  V30 3423 H 321.583 -1.05103 -4.09528 0
M  V30 3424 H 319.301 -4.79491 -6.50472 0
M  V30 3425 H 322.887 -2.93729 -5.0221 0
M  V30 3426 H 321.767 -4.78462 -6.21324 0
M  V30 3427 N 319.27 1.56325 -0.20005 0
M  V30 3428 C 320.2 2.22318 0.713916 0
M  V30 3429 C 321.181 1.18788 1.21752 0
M  V30 3430 O 322.366 1.47309 1.26545 0
M  V30 3431 C 319.496 2.88639 1.93144 0
M  V30 3432 C 318.45 3.98457 1.56255 0
M  V30 3433 C 317.776 4.51967 2.85709 0
M  V30 3434 C 319.076 5.16612 0.768747 0
M  V30 3435 H 320.77 2.98952 0.163755 0
M  V30 3436 H 318.316 1.43792 0.0773219 0
M  V30 3437 H 320.269 3.33491 2.57608 0
M  V30 3438 H 318.993 2.09419 2.50621 0
M  V30 3439 H 317.652 3.54305 0.941471 0
M  V30 3440 H 317.3 3.69503 3.41287 0
M  V30 3441 H 317 5.26071 2.6177 0
M  V30 3442 H 318.524 4.99523 3.51154 0
M  V30 3443 H 319.938 5.57977 1.3166 0
M  V30 3444 H 318.335 5.96812 0.627286 0
M  V30 3445 H 319.405 4.84358 -0.229168 0
M  V30 3446 N 320.748 -0.0735177 1.57428 0
M  V30 3447 C 321.68 -1.11423 2.00294 0
M  V30 3448 C 322.693 -1.35084 0.908637 0
M  V30 3449 O 323.882 -1.33355 1.18654 0
M  V30 3450 C 320.982 -2.46548 2.32523 0
M  V30 3451 C 320.155 -2.42867 3.63778 0
M  V30 3452 C 319.214 -3.60087 3.83697 0
M  V30 3453 O 318.24 -3.41595 4.55304 0
M  V30 3454 N 319.442 -4.80372 3.25919 0
M  V30 3455 H 322.207 -0.749206 2.90184 0
M  V30 3456 H 319.768 -0.262195 1.59763 0
M  V30 3457 H 321.76 -3.23607 2.43024 0
M  V30 3458 H 320.33 -2.75059 1.48531 0
M  V30 3459 H 319.55 -1.51206 3.64047 0
M  V30 3460 H 320.838 -2.37506 4.49965 0
M  V30 3461 H 320.236 -4.983 2.67795 0
M  V30 3462 H 318.793 -5.54948 3.41871 0
M  V30 3463 N 322.226 -1.5378 -0.344866 0
M  V30 3464 C 323.503 -1.61589 -1.10219 0
M  V30 3465 C 323.883 -0.436316 -2.06542 0
M  V30 3466 O 323.231 0.571543 -2.21237 0
M  V30 3467 C 323.441 -2.97602 -1.82301 0
M  V30 3468 C 324.789 -3.5291 -2.36093 0
M  V30 3469 O 325.813 -2.99768 -1.924 0
M  V30 3470 O 324.672 -4.45859 -3.16026 0
M  V30 3471 H 321.766 -0.653522 -0.506792 0
M  V30 3472 H 324.312 -1.66126 -0.346465 0
M  V30 3473 H 323.084 -3.74893 -1.12121 0
M  V30 3474 H 322.707 -2.9665 -2.64735 0
M  V30 3475 N 323.704 0.605807 -1.45491 0
M  V30 3476 C 324.667 1.69836 -1.5391 0
M  V30 3477 C 325.667 1.55261 -0.418424 0
M  V30 3478 O 326.857 1.60296 -0.681965 0
M  V30 3479 C 323.989 3.09117 -1.43734 0
M  V30 3480 H 325.182 1.63738 -2.51257 0
M  V30 3481 H 322.735 0.821689 -1.32959 0
M  V30 3482 H 323.47 3.20791 -0.475788 0
M  V30 3483 H 323.255 3.21104 -2.25021 0
M  V30 3484 H 324.745 3.88696 -1.52661 0
M  V30 3485 N 325.182 1.32811 0.848464 0
M  V30 3486 C 326.41 1.26739 1.63538 0
M  V30 3487 C 326.825 -0.163484 1.88091 0
M  V30 3488 O 326.182 -1.10258 1.45429 0
M  V30 3489 C 326.233 2.03013 2.99112 0
M  V30 3490 O 325.954 3.40518 2.75643 0
M  V30 3491 C 327.455 2.04038 3.93552 0
M  V30 3492 H 324.675 0.437024 0.509167 0
M  V30 3493 H 327.219 1.75033 1.05753 0
M  V30 3494 H 325.374 1.58426 3.53525 0
M  V30 3495 H 325.788 3.79635 3.61908 0
M  V30 3496 H 327.262 2.61877 4.85926 0
M  V30 3497 H 327.739 1.0282 4.26995 0
M  V30 3498 H 328.345 2.486 3.45077 0
M  V30 3499 N 326.66 -1.06551 1.16123 0
M  V30 3500 C 327.906 -1.79567 0.94252 0
M  V30 3501 C 328.239 -1.86869 -0.528547 0
M  V30 3502 O 327.514 -1.35838 -1.39206 0
M  V30 3503 C 327.797 -3.24195 1.56747 0
M  V30 3504 C 327.65 -3.24989 3.10969 0
M  V30 3505 C 328.969 -4.21678 1.25998 0
M  V30 3506 H 326.088 -0.651883 0.343828 0
M  V30 3507 H 328.73 -1.2463 1.43413 0
M  V30 3508 H 326.88 -3.71107 1.14942 0
M  V30 3509 H 328.552 -2.86258 3.61737 0
M  V30 3510 H 326.795 -2.63716 3.44436 0
M  V30 3511 H 327.466 -4.27005 3.49815 0
M  V30 3512 H 329.942 -3.83196 1.62174 0
M  V30 3513 H 328.818 -5.21146 1.7233 0
M  V30 3514 H 329.079 -4.4174 0.178367 0
M  V30 3515 N 328.138 -0.959301 -1.25041 0
M  V30 3516 C 329.07 -0.440543 -2.24926 0
M  V30 3517 C 330.083 0.446131 -1.56568 0
M  V30 3518 O 331.272 0.253657 -1.76689 0
M  V30 3519 C 328.372 0.38412 -3.36716 0
M  V30 3520 C 327.545 -0.490658 -4.34639 0
M  V30 3521 C 326.604 0.276587 -5.25473 0
M  V30 3522 O 325.63 -0.326614 -5.68262 0
M  V30 3523 N 326.832 1.56844 -5.5891 0
M  V30 3524 H 329.597 -1.29931 -2.70071 0
M  V30 3525 H 327.158 -0.830181 -1.38995 0
M  V30 3526 H 329.15 0.905228 -3.94446 0
M  V30 3527 H 327.72 1.14377 -2.90924 0
M  V30 3528 H 326.94 -1.19282 -3.7572 0
M  V30 3529 H 328.228 -1.08756 -4.97041 0
M  V30 3530 H 327.626 2.08036 -5.26059 0
M  V30 3531 H 326.183 2.03541 -6.19205 0
M  V30 3532 N 329.616 1.39756 -0.72842 0
M  V30 3533 C 330.846 2.04651 -0.283117 0
M  V30 3534 C 331.254 1.5502 1.08469 0
M  V30 3535 O 330.597 0.707343 1.69536 0
M  V30 3536 C 330.659 3.58947 -0.199309 0
M  V30 3537 C 330.323 4.31525 -1.5045 0
M  V30 3538 C 331.32 4.5861 -2.44894 0
M  V30 3539 C 329.005 4.70195 -1.76698 0
M  V30 3540 C 330.999 5.23366 -3.63822 0
M  V30 3541 C 328.686 5.3468 -2.95906 0
M  V30 3542 C 329.684 5.61198 -3.89289 0
M  V30 3543 O 329.372 6.24347 -5.06404 0
M  V30 3544 H 329.104 0.664777 -0.122666 0
M  V30 3545 H 331.658 1.79913 -0.990987 0
M  V30 3546 H 329.888 3.82556 0.56461 0
M  V30 3547 H 331.577 4.0534 0.213125 0
M  V30 3548 H 332.343 4.29187 -2.25883 0
M  V30 3549 H 328.222 4.48916 -1.04859 0
M  V30 3550 H 331.766 5.4398 -4.36728 0
M  V30 3551 H 327.663 5.63524 -3.14819 0
M  V30 3552 H 328.431 6.42842 -5.06652 0
M  V30 3553 N 331.094 0.475555 1.50254 0
M  V30 3554 C 332.505 0.0215174 1.86688 0
M  V30 3555 C 332.856 -1.38467 1.39001 0
M  V30 3556 O 331.981 -2.02732 0.756894 0
M  V30 3557 C 332.576 0.0322715 3.38785 0
M  V30 3558 C 331.135 -0.366314 3.74613 0
M  V30 3559 C 330.282 0.415832 2.74164 0
M  V30 3560 H 333.233 0.689612 1.42934 0
M  V30 3561 H 333.254 -0.76889 3.7265 0
M  V30 3562 H 332.766 1.05584 3.73462 0
M  V30 3563 H 330.867 -1.39406 3.45538 0
M  V30 3564 H 330.98 -0.064555 4.79057 0
M  V30 3565 H 329.344 -0.131048 2.54363 0
M  V30 3566 H 330.127 1.43899 3.11686 0
M  V30 3567 N 332.573 -1.56217 0.208337 0
M  V30 3568 C 333.822 -1.97124 -0.427204 0
M  V30 3569 C 334.135 -1.09859 -1.61835 0
M  V30 3570 O 335.341 -1.40606 -2.32255 0
M  V30 3571 C 333.797 -3.50633 -0.811442 0
M  V30 3572 C 333.405 -4.46582 0.35615 0
M  V30 3573 C 335.149 -4.00282 -1.41332 0
M  V30 3574 C 333.056 -5.91379 -0.0497852 0
M  V30 3575 H 331.986 -0.736086 -0.163381 0
M  V30 3576 H 334.637 -1.8099 0.302456 0
M  V30 3577 H 333.019 -3.62319 -1.59815 0
M  V30 3578 H 334.193 -4.46636 1.1337 0
M  V30 3579 H 332.508 -4.07202 0.870396 0
M  V30 3580 H 335.105 -5.0595 -1.72972 0
M  V30 3581 H 335.448 -3.45359 -2.32449 0
M  V30 3582 H 335.981 -3.91764 -0.690323 0
M  V30 3583 H 332.72 -6.50255 0.827529 0
M  V30 3584 H 332.24 -5.94549 -0.791926 0
M  V30 3585 H 333.919 -6.45209 -0.481042 0
M  V30 3586 N 334.051 0.0651679 -1.57465 0
M  V30 3587 C 334.984 1.10876 -1.99453 0
M  V30 3588 C 335.962 1.37205 -0.872555 0
M  V30 3589 O 337.146 1.50468 -1.13542 0
M  V30 3590 C 334.273 2.45167 -2.3369 0
M  V30 3591 C 333.319 2.3493 -3.55964 0
M  V30 3592 S 334.152 1.73708 -5.06543 0
M  V30 3593 C 335.308 3.09563 -5.43987 0
M  V30 3594 H 335.541 0.750967 -2.87659 0
M  V30 3595 H 333.074 0.273933 -1.51951 0
M  V30 3596 H 335.032 3.22412 -2.54088 0
M  V30 3597 H 333.693 2.78105 -1.46001 0
M  V30 3598 H 332.886 3.3398 -3.77457 0
M  V30 3599 H 332.488 1.65823 -3.3523 0
M  V30 3600 H 334.78 4.05882 -5.42463 0
M  V30 3601 H 335.723 2.92843 -6.44708 0
M  V30 3602 H 336.131 3.10474 -4.71451 0
M  V30 3603 N 335.529 1.53961 0.336706 0
M  V30 3604 C 336.459 1.85417 1.41925 0
M  V30 3605 C 337.44 0.709856 1.5458 0
M  V30 3606 O 338.625 0.962396 1.68676 0
M  V30 3607 C 335.755 2.06985 2.78881 0
M  V30 3608 C 334.709 3.22813 2.81026 0
M  V30 3609 C 334.035 3.29727 4.20932 0
M  V30 3610 C 335.335 4.60767 2.45949 0
M  V30 3611 H 337.029 2.76079 1.15848 0
M  V30 3612 H 334.575 1.32839 0.555859 0
M  V30 3613 H 336.528 2.27575 3.54665 0
M  V30 3614 H 335.252 1.13061 3.06406 0
M  V30 3615 H 333.911 3.0209 2.07695 0
M  V30 3616 H 333.559 2.33385 4.45579 0
M  V30 3617 H 333.259 4.07566 4.23277 0
M  V30 3618 H 334.783 3.52536 4.98549 0
M  V30 3619 H 336.197 4.81325 3.11446 0
M  V30 3620 H 334.594 5.4106 2.59566 0
M  V30 3621 H 335.664 4.6391 1.41122 0
M  V30 3622 N 337.007 -0.598083 1.45811 0
M  V30 3623 C 338.418 -1.18011 1.44673 0
M  V30 3624 C 338.769 -1.95378 0.179364 0
M  V30 3625 O 337.894 -2.04124 -0.718509 0
M  V30 3626 C 338.489 -2.14677 2.62105 0
M  V30 3627 C 337.048 -2.68236 2.64057 0
M  V30 3628 C 336.195 -1.43816 2.37091 0
M  V30 3629 H 339.146 -0.38686 1.53913 0
M  V30 3630 H 339.167 -2.97878 2.36746 0
M  V30 3631 H 338.679 -1.5834 3.5433 0
M  V30 3632 H 336.78 -3.28486 1.75864 0
M  V30 3633 H 336.893 -3.12021 3.63566 0
M  V30 3634 H 335.257 -1.731 1.86838 0
M  V30 3635 H 336.04 -0.893333 3.31473 0
M  V30 3636 N 338.485 -1.33259 -0.841409 0
M  V30 3637 C 339.901 -1.12538 -1.13169 0
M  V30 3638 C 340.101 0.0854037 -2.01319 0
M  V30 3639 O 339.157 0.766417 -2.40587 0
M  V30 3640 C 340.47 -2.41156 -1.79623 0
M  V30 3641 C 342.018 -2.47038 -1.922 0
M  V30 3642 C 342.493 -3.7561 -2.6207 0
M  V30 3643 N 343.984 -3.76667 -2.69585 0
M  V30 3644 C 344.719 -4.72861 -3.2433 0
M  V30 3645 N 344.215 -5.79428 -3.79783 0
M  V30 3646 N 346.008 -4.6034 -3.22558 0
M  V30 3647 H 338.159 -2.10868 -0.254676 0
M  V30 3648 H 340.422 -0.931615 -0.175493 0
M  V30 3649 H 340.128 -3.29747 -1.22311 0
M  V30 3650 H 340.002 -2.53114 -2.79666 0
M  V30 3651 H 342.389 -1.58898 -2.48667 0
M  V30 3652 H 342.47 -2.39022 -0.911148 0
M  V30 3653 H 342.114 -4.64131 -2.06263 0
M  V30 3654 H 342.044 -3.80902 -3.63622 0
M  V30 3655 H 344.535 -2.99648 -2.30259 0
M  V30 3656 H 344.848 -6.48867 -4.19752 0
M  V30 3657 H 343.193 -5.83166 -3.78078 0
M  V30 3658 H 346.384 -3.76244 -2.78492 0
M  V30 3659 H 346.557 -5.35478 -3.64921 0
M  V30 3660 N 339.963 1.05934 -1.16686 0
M  V30 3661 C 340.895 2.13468 -0.834503 0
M  V30 3662 C 341.908 1.62013 0.15984 0
M  V30 3663 O 343.097 1.7838 -0.0654228 0
M  V30 3664 C 340.197 3.3817 -0.222361 0
M  V30 3665 C 339.37 4.18928 -1.25771 0
M  V30 3666 C 338.429 5.21985 -0.664703 0
M  V30 3667 O 337.455 5.53334 -1.33453 0
M  V30 3668 N 338.657 5.77919 0.546834 0
M  V30 3669 H 341.422 2.42578 -1.75999 0
M  V30 3670 H 338.983 1.21967 -1.06469 0
M  V30 3671 H 340.975 4.04266 0.187472 0
M  V30 3672 H 339.545 3.06655 0.606758 0
M  V30 3673 H 338.765 3.48433 -1.84358 0
M  V30 3674 H 340.053 4.69687 -1.95631 0
M  V30 3675 H 339.451 5.54721 1.10912 0
M  V30 3676 H 338.008 6.45573 0.898829 0
M  V30 3677 N 341.441 0.965919 1.2453 0
M  V30 3678 C 342.852 0.665929 1.7442 0
M  V30 3679 C 343.203 -0.818407 1.78316 0
M  V30 3680 O 342.328 -1.64037 1.41141 0
M  V30 3681 C 342.923 1.20211 3.16757 0
M  V30 3682 C 341.482 0.952059 3.6416 0
M  V30 3683 C 340.629 1.33848 2.42858 0
M  V30 3684 H 343.58 1.14144 1.10258 0
M  V30 3685 H 343.601 0.567544 3.76244 0
M  V30 3686 H 343.113 2.28244 3.13889 0
M  V30 3687 H 341.214 -0.112821 3.72429 0
M  V30 3688 H 341.327 1.59645 4.51719 0
M  V30 3689 H 339.691 0.756864 2.43195 0
M  V30 3690 H 340.474 2.42827 2.42673 0
M  V30 3691 N 342.919 -1.39368 0.735821 0
M  V30 3692 C 344.159 -2.02349 0.288813 0
M  V30 3693 C 344.523 -1.57127 -1.10341 0
M  V30 3694 O 345.724 -2.12312 -1.64854 0
M  V30 3695 C 343.995 -3.55288 0.387986 0
M  V30 3696 S 345.554 -4.38795 0.0209408 0
M  V30 3697 H 342.372 -0.701944 0.113115 0
M  V30 3698 H 344.974 -1.70164 0.962518 0
M  V30 3699 H 343.678 -3.85691 1.40252 0
M  V30 3700 H 343.209 -3.92227 -0.303512 0
M  V30 3701 H 345.224 -4.81595 -1.19503 0
M  V30 3702 N 344.397 -0.483516 -1.5 0
M  V30 3703 C 345.645 0.067027 -2.01989 0
M  V30 3704 C 345.966 1.3909 -1.36671 0
M  V30 3705 O 345.236 1.88978 -0.516152 0
M  V30 3706 H 343.816 0.0277606 -0.746484 0
M  V30 3707 H 346.478 -0.636773 -1.84204 0
M  V30 3708 H 345.574 0.209484 -3.11396 0
M  V30 3709 N 345.875 1.56104 -0.216619 0
M  V30 3710 C 347.123 1.97781 0.415593 0
M  V30 3711 C 347.444 1.10536 1.60645 0
M  V30 3712 O 346.714 0.181303 1.95059 0
M  V30 3713 H 345.294 0.730415 0.156534 0
M  V30 3714 H 347.956 1.92445 -0.308366 0
M  V30 3715 H 347.052 3.03072 0.74525 0
M  V30 3716 N 347.353 -0.0568162 1.57498 0
M  V30 3717 C 348.764 -0.606858 1.76562 0
M  V30 3718 C 349.115 -1.77114 0.844094 0
M  V30 3719 O 348.24 -2.16376 0.0318911 0
M  V30 3720 C 348.835 -1.10766 3.20182 0
M  V30 3721 C 347.394 -1.60344 3.40539 0
M  V30 3722 C 346.541 -0.529311 2.72201 0
M  V30 3723 H 349.492 0.169393 1.57793 0
M  V30 3724 H 349.513 -1.97602 3.25167 0
M  V30 3725 H 349.025 -0.26006 3.87228 0
M  V30 3726 H 347.126 -2.47379 2.78629 0
M  V30 3727 H 347.239 -1.67006 4.4905 0
M  V30 3728 H 345.603 -0.977893 2.35179 0
M  V30 3729 H 346.386 0.308352 3.41912 0
M  V30 3730 N 348.832 -1.54138 -0.328536 0
M  V30 3731 C 350.08 -1.71765 -1.06496 0
M  V30 3732 C 350.401 -0.49149 -1.88704 0
M  V30 3733 O 349.671 0.494539 -1.89555 0
M  V30 3734 H 348.251 -0.633295 -0.396164 0
M  V30 3735 H 350.913 -1.91429 -0.366176 0
M  V30 3736 H 350.009 -2.5951 -1.73381 0
M  V30 3737 N 350.31 0.590341 -1.46126 0
M  V30 3738 C 351.24 1.71032 -1.58966 0
M  V30 3739 C 352.221 1.64302 -0.440335 0
M  V30 3740 O 353.406 1.82436 -0.665634 0
M  V30 3741 C 350.536 3.09665 -1.57241 0
M  V30 3742 C 349.49 3.31221 -2.71066 0
M  V30 3743 C 348.816 4.70303 -2.54399 0
M  V30 3744 C 350.116 3.19796 -4.1295 0
M  V30 3745 H 351.81 1.60543 -2.52718 0
M  V30 3746 H 349.356 0.770933 -1.21625 0
M  V30 3747 H 351.309 3.87831 -1.64819 0
M  V30 3748 H 350.033 3.21036 -0.600289 0
M  V30 3749 H 348.692 2.55452 -2.62944 0
M  V30 3750 H 348.34 4.78429 -1.55288 0
M  V30 3751 H 348.04 4.85679 -3.30741 0
M  V30 3752 H 349.564 5.50647 -2.63857 0
M  V30 3753 H 350.978 3.87815 -4.22223 0
M  V30 3754 H 349.375 3.46696 -4.89818 0
M  V30 3755 H 350.445 2.16983 -4.33643 0
M  V30 3756 N 351.788 1.33704 0.83433 0
M  V30 3757 C 352.751 1.24244 1.92603 0
M  V30 3758 C 353.751 0.160383 1.59998 0
M  V30 3759 O 354.941 0.412228 1.69252 0
M  V30 3760 C 352.073 0.91555 3.28376 0
M  V30 3761 H 353.266 2.21287 2.02416 0
M  V30 3762 H 350.819 1.17827 1.02696 0
M  V30 3763 H 351.554 -0.0521886 3.24258 0
M  V30 3764 H 351.339 1.69811 3.53422 0
M  V30 3765 H 352.829 0.874231 4.08347 0
M  V30 3766 N 353.266 -1.05314 1.17247 0
M  V30 3767 C 354.677 -1.59753 0.96623 0
M  V30 3768 C 355.028 -1.9005 -0.487378 0
M  V30 3769 O 354.153 -1.68126 -1.36245 0
M  V30 3770 C 354.748 -2.90249 1.74759 0
M  V30 3771 C 353.307 -3.41352 1.58606 0
M  V30 3772 C 352.454 -2.15103 1.75002 0
M  V30 3773 H 355.405 -0.881406 1.31973 0
M  V30 3774 H 355.426 -3.60097 1.22925 0
M  V30 3775 H 354.938 -2.68166 2.8055 0
M  V30 3776 H 353.039 -3.68474 0.552985 0
M  V30 3777 H 353.152 -4.16019 2.37624 0
M  V30 3778 H 351.516 -2.25804 1.17833 0
M  V30 3779 H 352.299 -1.95491 2.82202 0
M  V30 3780 N 354.744 -0.972509 -1.24016 0
M  V30 3781 C 355.992 -0.635776 -1.91839 0
M  V30 3782 C 356.313 0.832312 -1.76345 0
M  V30 3783 O 355.583 1.5946 -1.13795 0
M  V30 3784 H 354.163 -0.232157 -0.710009 0
M  V30 3785 H 356.825 -1.23462 -1.50809 0
M  V30 3786 H 355.921 -0.880545 -2.99421 0
M  V30 3787 N 356.222 1.38976 -0.743202 0
M  V30 3788 C 357.468 2.0064 -0.295189 0
M  V30 3789 C 357.801 1.5885 1.11716 0
M  V30 3790 O 357.076 0.821181 1.76315 0
M  V30 3791 C 357.359 3.578 -0.406318 0
M  V30 3792 C 357.212 4.09586 -1.85903 0
M  V30 3793 C 358.531 4.39616 0.206439 0
M  V30 3794 H 355.65 0.728935 -0.108733 0
M  V30 3795 H 358.292 1.65067 -0.940897 0
M  V30 3796 H 356.442 3.88235 0.143419 0
M  V30 3797 H 358.114 3.89837 -2.46627 0
M  V30 3798 H 356.357 3.6284 -2.3776 0
M  V30 3799 H 357.028 5.18708 -1.888 0
M  V30 3800 H 359.504 4.15273 -0.262283 0
M  V30 3801 H 358.38 5.48812 0.0983819 0
M  V30 3802 H 358.641 4.22754 1.2935 0
M  V30 3803 N 357.7 0.491464 1.49741 0
M  V30 3804 C 359.116 0.146835 1.58923 0
M  V30 3805 C 359.316 -1.34804 1.49767 0
M  V30 3806 O 358.372 -2.12317 1.36667 0
M  V30 3807 C 359.685 0.715157 2.92072 0
M  V30 3808 C 361.233 0.680407 3.05515 0
M  V30 3809 C 361.708 1.22663 4.41269 0
M  V30 3810 N 363.199 1.18691 4.47735 0
M  V30 3811 C 363.934 1.57984 5.51207 0
M  V30 3812 N 363.43 2.04824 6.6183 0
M  V30 3813 N 365.223 1.49459 5.41866 0
M  V30 3814 H 357.374 1.46347 1.53936 0
M  V30 3815 H 359.637 0.606453 0.728642 0
M  V30 3816 H 359.343 1.76317 3.04311 0
M  V30 3817 H 359.217 0.17018 3.76816 0
M  V30 3818 H 361.604 -0.358743 2.92911 0
M  V30 3819 H 361.685 1.26242 2.22478 0
M  V30 3820 H 361.329 2.26451 4.54623 0
M  V30 3821 H 361.259 0.620637 5.2293 0
M  V30 3822 H 363.75 0.843605 3.68364 0
M  V30 3823 H 364.063 2.32901 7.3687 0
M  V30 3824 H 362.408 2.08791 6.62896 0
M  V30 3825 H 365.599 1.12692 4.54333 0
M  V30 3826 H 365.772 1.80406 6.22381 0
M  V30 3827 N 359.178 -1.55987 0.224894 0
M  V30 3828 C 360.403 -2.03232 -0.41369 0
M  V30 3829 C 360.828 -1.10359 -1.52323 0
M  V30 3830 O 360.186 -0.092395 -1.81064 0
M  V30 3831 C 360.234 -3.48682 -0.919405 0
M  V30 3832 O 359.338 -3.58947 -2.03054 0
M  V30 3833 H 358.679 -0.657428 -0.0931903 0
M  V30 3834 H 361.209 -2.01679 0.34451 0
M  V30 3835 H 361.219 -3.8907 -1.22835 0
M  V30 3836 H 359.894 -4.15761 -0.107339 0
M  V30 3837 H 358.471 -3.30448 -1.72796 0
M  V30 3838 N 360.656 0.0484629 -1.57525 0
M  V30 3839 C 361.886 0.754326 -1.92337 0
M  V30 3840 C 362.294 1.70443 -0.82132 0
M  V30 3841 O 361.637 1.82466 0.21254 0
M  V30 3842 C 361.699 1.58231 -3.22805 0
M  V30 3843 C 361.363 0.799074 -4.4996 0
M  V30 3844 C 362.36 0.1079 -5.19788 0
M  V30 3845 C 360.045 0.759345 -4.96527 0
M  V30 3846 C 362.039 -0.612516 -6.3445 0
M  V30 3847 C 359.726 0.0351713 -6.1109 0
M  V30 3848 C 360.724 -0.649537 -6.79904 0
M  V30 3849 O 360.412 -1.36199 -7.92278 0
M  V30 3850 H 360.144 0.218257 -0.639797 0
M  V30 3851 H 362.698 0.0159295 -2.05394 0
M  V30 3852 H 360.928 2.36406 -3.06021 0
M  V30 3853 H 362.617 2.16898 -3.43089 0
M  V30 3854 H 363.383 0.129748 -4.84826 0
M  V30 3855 H 359.262 1.28177 -4.42822 0
M  V30 3856 H 362.806 -1.14751 -6.88097 0
M  V30 3857 H 358.703 0.0113314 -6.45499 0
M  V30 3858 H 359.471 -1.27366 -8.0853 0
M  V30 3859 N 362.134 1.5431 0.320358 0
M  V30 3860 C 363.382 1.72327 1.05583 0
M  V30 3861 C 363.703 0.50149 1.88441 0
M  V30 3862 O 362.973 -0.48448 1.89815 0
M  V30 3863 H 361.553 0.635387 0.3928 0
M  V30 3864 H 364.215 1.91621 0.356019 0
M  V30 3865 H 363.311 2.60426 1.72003 0
M  V30 3866 N 363.613 -0.582584 1.46437 0
M  V30 3867 C 365.024 -1.1647 1.45916 0
M  V30 3868 C 365.375 -1.95177 0.200077 0
M  V30 3869 O 364.5 -2.04874 -0.696819 0
M  V30 3870 C 365.095 -2.11885 2.64367 0
M  V30 3871 C 363.654 -2.65421 2.66887 0
M  V30 3872 C 362.801 -1.41294 2.38603 0
M  V30 3873 H 365.752 -0.370514 1.54314 0
M  V30 3874 H 365.773 -2.9535 2.39892 0
M  V30 3875 H 365.285 -1.54573 3.5599 0
M  V30 3876 H 363.386 -3.26602 1.79338 0
M  V30 3877 H 363.499 -3.08147 3.66854 0
M  V30 3878 H 361.863 -1.71109 1.88663 0
M  V30 3879 H 362.646 -0.858125 3.32402 0
M  V30 3880 N 365.091 -1.34144 -0.827227 0
M  V30 3881 C 366.507 -1.13732 -1.11969 0
M  V30 3882 C 366.707 0.0640463 -2.01398 0
M  V30 3883 O 365.763 0.740856 -2.41387 0
M  V30 3884 C 367.076 -2.43047 -1.77055 0
M  V30 3885 C 368.624 -2.49063 -1.89569 0
M  V30 3886 C 369.099 -3.78369 -2.58072 0
M  V30 3887 N 370.59 -3.79505 -2.65575 0
M  V30 3888 C 371.325 -4.76274 -3.19297 0
M  V30 3889 N 370.821 -5.83424 -3.73616 0
M  V30 3890 N 372.614 -4.63735 -3.17658 0
M  V30 3891 H 364.765 -2.11126 -0.232296 0
M  V30 3892 H 367.028 -0.933424 -0.165602 0
M  V30 3893 H 366.734 -3.31025 -1.18807 0
M  V30 3894 H 366.608 -2.56066 -2.76966 0
M  V30 3895 H 368.995 -1.61527 -2.46968 0
M  V30 3896 H 369.076 -2.39975 -0.885745 0
M  V30 3897 H 368.72 -4.66293 -2.01329 0
M  V30 3898 H 368.65 -3.84737 -3.59562 0
M  V30 3899 H 371.141 -3.02074 -2.27068 0
M  V30 3900 H 371.454 -6.53282 -4.12846 0
M  V30 3901 H 369.799 -5.87143 -3.71871 0
M  V30 3902 H 372.99 -3.79177 -2.74486 0
M  V30 3903 H 373.163 -5.39318 -3.59221 0
M  V30 3904 N 366.569 1.04691 -1.17803 0
M  V30 3905 C 367.519 2.10856 -0.867391 0
M  V30 3906 C 368.503 1.601 0.160206 0
M  V30 3907 O 369.695 1.76948 -0.042947 0
M  V30 3908 C 366.824 3.411 -0.388012 0
M  V30 3909 C 365.91 3.9864 -1.44732 0
M  V30 3910 N 366.301 4.30075 -2.66212 0
M  V30 3911 C 364.599 4.26439 -1.30637 0
M  V30 3912 C 365.3 4.76033 -3.34317 0
M  V30 3913 N 364.276 4.76462 -2.61696 0
M  V30 3914 H 368.078 2.33029 -1.79094 0
M  V30 3915 H 365.592 1.22386 -1.0675 0
M  V30 3916 H 367.589 4.16641 -0.146994 0
M  V30 3917 H 366.249 3.20357 0.529271 0
M  V30 3918 H 367.26 4.19917 -3.03134 0
M  V30 3919 H 363.937 4.15056 -0.451129 0
M  V30 3920 H 365.327 5.09427 -4.38103 0
M  V30 3921 N 368.047 0.979072 1.23499 0
M  V30 3922 C 369.463 0.687475 1.44034 0
M  V30 3923 C 369.663 -0.746801 1.8715 0
M  V30 3924 O 368.719 -1.51939 2.0167 0
M  V30 3925 C 370.032 1.68127 2.49307 0
M  V30 3926 C 371.58 1.69516 2.63122 0
M  V30 3927 C 372.055 2.67723 3.71603 0
M  V30 3928 N 373.546 2.66233 3.79044 0
M  V30 3929 C 374.281 3.38891 4.62537 0
M  V30 3930 N 373.777 4.21103 5.50131 0
M  V30 3931 N 375.57 3.27661 4.56721 0
M  V30 3932 H 367.721 1.90559 0.938135 0
M  V30 3933 H 369.984 0.821051 0.473897 0
M  V30 3934 H 369.69 2.70693 2.2454 0
M  V30 3935 H 369.564 1.46306 3.4767 0
M  V30 3936 H 371.951 0.676561 2.8724 0
M  V30 3937 H 372.032 1.95404 1.65079 0
M  V30 3938 H 371.676 3.69724 3.48233 0
M  V30 3939 H 371.606 2.39111 4.69184 0
M  V30 3940 H 374.097 2.06568 3.16446 0
M  V30 3941 H 374.41 4.73403 6.10827 0
M  V30 3942 H 372.755 4.25195 5.49759 0
M  V30 3943 H 375.946 2.62887 3.87309 0
M  V30 3944 H 376.119 3.84547 5.21562 0
M  V30 3945 N 369.525 -1.3858 0.750561 0
M  V30 3946 C 370.941 -1.53759 0.427824 0
M  V30 3947 C 371.141 -1.71401 -1.05943 0
M  V30 3948 O 370.197 -1.72331 -1.84549 0
M  V30 3949 C 371.51 -2.74642 1.22443 0
M  V30 3950 C 373.058 -2.88489 1.2142 0
M  V30 3951 C 373.533 -4.12329 1.9937 0
M  V30 3952 N 375.024 -4.194 1.96616 0
M  V30 3953 C 375.759 -5.14209 2.53727 0
M  V30 3954 N 375.255 -6.14709 3.19539 0
M  V30 3955 N 377.048 -5.06537 2.43673 0
M  V30 3956 H 369.199 -1.25377 1.71447 0
M  V30 3957 H 371.462 -0.608844 0.726645 0
M  V30 3958 H 371.168 -2.68 2.27747 0
M  V30 3959 H 371.042 -3.67745 0.839273 0
M  V30 3960 H 373.429 -2.94614 0.169232 0
M  V30 3961 H 373.51 -1.96406 1.63885 0
M  V30 3962 H 373.154 -4.06966 3.03877 0
M  V30 3963 H 373.084 -5.03486 1.54302 0
M  V30 3964 H 375.575 -3.47421 1.48684 0
M  V30 3965 H 375.888 -6.8354 3.60545 0
M  V30 3966 H 374.233 -6.1505 3.23633 0
M  V30 3967 H 377.424 -4.26962 1.91889 0
M  V30 3968 H 377.597 -5.80245 2.88479 0
M  V30 3969 N 371.003 -0.499398 -1.49478 0
M  V30 3970 C 371.933 0.269244 -2.31943 0
M  V30 3971 C 372.914 0.964054 -1.40143 0
M  V30 3972 O 374.099 0.955767 -1.69052 0
M  V30 3973 C 371.229 1.33504 -3.20615 0
M  V30 3974 C 370.183 0.760202 -4.21195 0
M  V30 3975 C 369.509 1.9264 -4.98792 0
M  V30 3976 C 370.809 -0.247661 -5.21712 0
M  V30 3977 H 372.503 -0.419082 -2.96452 0
M  V30 3978 H 370.049 -0.202988 -1.42562 0
M  V30 3979 H 372.002 1.88048 -3.77115 0
M  V30 3980 H 370.726 2.05253 -2.54045 0
M  V30 3981 H 369.385 0.23653 -3.65836 0
M  V30 3982 H 369.033 2.63154 -4.28671 0
M  V30 3983 H 368.733 1.54785 -5.66847 0
M  V30 3984 H 370.257 2.4762 -5.58137 0
M  V30 3985 H 371.671 0.209579 -5.72917 0
M  V30 3986 H 370.068 -0.541962 -5.97648 0
M  V30 3987 H 371.138 -1.16409 -4.7072 0
M  V30 3988 N 372.481 1.55866 -0.233164 0
M  V30 3989 C 373.431 2.17442 0.685774 0
M  V30 3990 C 374.415 1.12617 1.14918 0
M  V30 3991 O 375.607 1.3857 1.10124 0
M  V30 3992 C 372.736 2.86685 1.88856 0
M  V30 3993 C 371.822 3.98749 1.4443 0
M  V30 3994 N 372.213 5.00744 0.713364 0
M  V30 3995 C 370.511 4.11052 1.73068 0
M  V30 3996 C 371.212 5.79673 0.485205 0
M  V30 3997 N 370.188 5.33454 1.04536 0
M  V30 3998 H 373.99 2.93659 0.119022 0
M  V30 3999 H 371.504 1.62362 -0.0348995 0
M  V30 4000 H 373.501 3.29218 2.55776 0
M  V30 4001 H 372.161 2.11967 2.45967 0
M  V30 4002 H 373.172 5.16613 0.364861 0
M  V30 4003 H 369.849 3.47495 2.31416 0
M  V30 4004 H 371.239 6.71829 -0.097365 0
M  V30 4005 N 373.959 -0.0401083 1.57549 0
M  V30 4006 C 375.375 -0.395556 1.54621 0
M  V30 4007 C 375.575 -1.77281 0.957799 0
M  V30 4008 O 374.631 -2.45888 0.574031 0
M  V30 4009 C 375.944 -0.307535 2.99123 0
M  V30 4010 C 377.492 -0.385425 3.10618 0
M  V30 4011 C 377.967 -0.326973 4.56831 0
M  V30 4012 N 379.458 -0.386102 4.61588 0
M  V30 4013 C 380.193 -0.363591 5.72246 0
M  V30 4014 N 379.689 -0.29402 6.92176 0
M  V30 4015 N 381.482 -0.412503 5.60584 0
M  V30 4016 H 373.633 0.861325 1.94152 0
M  V30 4017 H 375.896 0.326445 0.890021 0
M  V30 4018 H 375.602 0.638461 3.45856 0
M  V30 4019 H 375.476 -1.10552 3.60636 0
M  V30 4020 H 377.863 -1.32185 2.63839 0
M  V30 4021 H 377.944 0.44171 2.51957 0
M  V30 4022 H 377.588 0.605738 5.04275 0
M  V30 4023 H 377.518 -1.17207 5.13391 0
M  V30 4024 H 380.009 -0.442832 3.75296 0
M  V30 4025 H 380.322 -0.28164 7.72287 0
M  V30 4026 H 378.667 -0.260232 6.94513 0
M  V30 4027 H 381.858 -0.464769 4.65787 0
M  V30 4028 H 382.031 -0.391492 6.46816 0
M  V30 4029 N 375.437 -1.54477 -0.31217 0
M  V30 4030 C 376.667 -1.76948 -1.06645 0
M  V30 4031 C 377.075 -0.523593 -1.81811 0
M  V30 4032 O 376.418 0.51578 -1.76311 0
M  V30 4033 C 376.48 -2.91668 -2.10166 0
M  V30 4034 C 376.144 -4.30165 -1.54296 0
M  V30 4035 C 377.141 -5.10603 -0.978793 0
M  V30 4036 C 374.826 -4.76738 -1.58196 0
M  V30 4037 C 376.82 -6.3573 -0.461048 0
M  V30 4038 C 374.507 -6.01831 -1.06034 0
M  V30 4039 C 375.505 -6.81161 -0.500844 0
M  V30 4040 O 375.193 -8.03899 0.0128958 0
M  V30 4041 H 374.925 -0.594088 -0.322546 0
M  V30 4042 H 377.479 -2.02213 -0.360441 0
M  V30 4043 H 375.709 -2.62001 -2.84416 0
M  V30 4044 H 377.398 -3.01817 -2.71406 0
M  V30 4045 H 378.164 -4.75771 -0.941651 0
M  V30 4046 H 374.043 -4.15027 -2.00683 0
M  V30 4047 H 377.587 -6.97596 -0.0236894 0
M  V30 4048 H 373.484 -6.36152 -1.09459 0
M  V30 4049 H 374.252 -8.18437 -0.101457 0
M  V30 4050 N 376.915 0.57481 -1.46744 0
M  V30 4051 C 378.192 1.3352 -1.4294 0
M  V30 4052 C 378.572 2.10775 -0.117009 0
M  V30 4053 O 377.92 2.09966 0.901474 0
M  V30 4054 C 378.13 2.25456 -2.66403 0
M  V30 4055 C 379.478 2.87035 -3.12883 0
M  V30 4056 O 380.502 2.35766 -2.67007 0
M  V30 4057 O 379.361 3.80179 -3.92589 0
M  V30 4058 H 376.455 0.600318 -0.568812 0
M  V30 4059 H 379.001 0.595171 -1.58921 0
M  V30 4060 H 377.773 1.67851 -3.53471 0
M  V30 4061 H 377.396 3.06785 -2.52921 0
M  V30 4062 N 378.394 1.34581 0.820102 0
M  V30 4063 C 379.64 1.27285 1.57881 0
M  V30 4064 C 379.973 -0.156137 1.93571 0
M  V30 4065 O 379.248 -1.10222 1.60254 0
M  V30 4066 C 379.531 2.16639 2.87645 0
M  V30 4067 C 379.384 3.68088 2.58517 0
M  V30 4068 C 380.703 2.05378 3.8924 0
M  V30 4069 H 377.822 0.463714 0.572833 0
M  V30 4070 H 380.464 1.64859 0.944539 0
M  V30 4071 H 378.614 1.84725 3.41773 0
M  V30 4072 H 380.286 4.10382 2.10676 0
M  V30 4073 H 378.529 3.89038 1.91917 0
M  V30 4074 H 379.2 4.2598 3.51063 0
M  V30 4075 H 381.676 2.33404 3.44473 0
M  V30 4076 H 380.552 2.7012 4.77835 0
M  V30 4077 H 380.813 1.0316 4.29896 0
M  V30 4078 N 379.872 -1.04064 1.18357 0
M  V30 4079 C 381.119 -1.77265 0.978947 0
M  V30 4080 C 381.447 -1.88189 -0.491428 0
M  V30 4081 O 380.702 -1.38653 -1.38108 0
M  V30 4082 C 381.001 -3.20634 1.57888 0
M  V30 4083 C 380.667 -3.29743 3.07539 0
M  V30 4084 C 379.329 -3.31937 3.48384 0
M  V30 4085 C 381.681 -3.29841 4.03552 0
M  V30 4086 C 379.009 -3.3187 4.83818 0
M  V30 4087 C 381.361 -3.31313 5.38901 0
M  V30 4088 C 380.025 -3.31799 5.79194 0
M  V30 4089 H 379.295 -0.648659 0.358222 0
M  V30 4090 H 381.942 -1.22225 1.47422 0
M  V30 4091 H 380.247 -3.78675 1.00561 0
M  V30 4092 H 381.944 -3.75917 1.39598 0
M  V30 4093 H 378.534 -3.28757 2.74986 0
M  V30 4094 H 382.718 -3.27337 3.73047 0
M  V30 4095 H 377.974 -3.30562 5.14333 0
M  V30 4096 H 382.148 -3.30338 6.13066 0
M  V30 4097 H 379.775 -3.315 6.84114 0
M  V30 4098 N 381.35 -0.985608 -1.22978 0
M  V30 4099 C 382.59 -0.665487 -1.93263 0
M  V30 4100 C 382.954 0.78706 -1.75127 0
M  V30 4101 O 384.155 1.21826 -2.39608 0
M  V30 4102 C 382.426 -1.0515 -3.41582 0
M  V30 4103 S 383.985 -0.848637 -4.30516 0
M  V30 4104 H 380.803 -0.24355 -0.667985 0
M  V30 4105 H 383.405 -1.26635 -1.48942 0
M  V30 4106 H 382.109 -2.10517 -3.52293 0
M  V30 4107 H 381.64 -0.442134 -3.90908 0
M  V30 4108 H 383.655 0.264717 -4.95493 0
M  V30 4109 N 382.828 1.3818 -0.7579 0
M  V30 4110 C 384.075 2.00019 -0.315985 0
M  V30 4111 C 384.403 1.60163 1.10355 0
M  V30 4112 O 383.658 0.83264 1.77103 0
M  V30 4113 C 383.957 3.55252 -0.391218 0
M  V30 4114 C 383.623 4.14834 -1.76702 0
M  V30 4115 C 382.285 4.30821 -2.14353 0
M  V30 4116 C 384.637 4.47658 -2.66931 0
M  V30 4117 C 381.965 4.76928 -3.41696 0
M  V30 4118 C 384.317 4.95184 -3.93669 0
M  V30 4119 C 382.981 5.09377 -4.31383 0
M  V30 4120 H 382.251 0.731923 -0.115627 0
M  V30 4121 H 384.898 1.65161 -0.969223 0
M  V30 4122 H 383.203 3.90273 0.34558 0
M  V30 4123 H 384.9 4.00988 -0.030805 0
M  V30 4124 H 381.49 4.02808 -1.46435 0
M  V30 4125 H 385.674 4.34904 -2.39106 0
M  V30 4126 H 380.93 4.86103 -3.70829 0
M  V30 4127 H 385.104 5.19551 -4.63724 0
M  V30 4128 H 382.731 5.44865 -5.30119 0
M  V30 4129 N 384.306 0.507319 1.49211 0
M  V30 4130 C 385.269 -0.256763 2.27757 0
M  V30 4131 C 386.269 -0.888287 1.34038 0
M  V30 4132 O 387.459 -0.751841 1.5714 0
M  V30 4133 C 384.591 -1.36905 3.12202 0
M  V30 4134 H 385.784 0.432557 2.96764 0
M  V30 4135 H 383.337 0.262488 1.5408 0
M  V30 4136 H 384.072 -2.09233 2.47775 0
M  V30 4137 H 383.857 -0.921599 3.81115 0
M  V30 4138 H 385.347 -1.9071 3.7151 0
M  V30 4139 N 385.784 -1.5574 0.241426 0
M  V30 4140 C 387.012 -2.03208 -0.389134 0
M  V30 4141 C 387.427 -1.12082 -1.51931 0
M  V30 4142 O 386.784 -0.134183 -1.82006 0
M  V30 4143 C 386.835 -3.50064 -0.902087 0
M  V30 4144 O 386.556 -4.37717 0.18305 0
M  V30 4145 C 388.057 -4.13268 -1.60389 0
M  V30 4146 H 385.277 -0.664509 -0.0931053 0
M  V30 4147 H 387.821 -2.0124 0.36369 0
M  V30 4148 H 385.976 -3.52583 -1.60511 0
M  V30 4149 H 386.39 -5.24097 -0.205579 0
M  V30 4150 H 387.864 -5.17733 -1.91458 0
M  V30 4151 H 388.341 -3.59434 -2.52397 0
M  V30 4152 H 388.947 -4.14655 -0.945576 0
M  V30 4153 N 387.262 0.0317525 -1.57568 0
M  V30 4154 C 388.225 1.01783 -2.0536 0
M  V30 4155 C 389.225 1.29203 -0.957253 0
M  V30 4156 O 390.415 1.24251 -1.22095 0
M  V30 4157 C 387.547 2.35137 -2.46827 0
M  V30 4158 H 388.74 0.605062 -2.93733 0
M  V30 4159 H 386.293 0.278514 -1.53799 0
M  V30 4160 H 387.028 2.81168 -1.61602 0
M  V30 4161 H 386.813 2.16566 -3.26866 0
M  V30 4162 H 388.303 3.05938 -2.84239 0
M  V30 4163 N 388.74 1.54641 0.303973 0
M  V30 4164 C 389.67 1.88386 1.3796 0
M  V30 4165 C 390.651 0.742485 1.5304 0
M  V30 4166 O 391.836 0.997959 1.66597 0
M  V30 4167 C 388.966 2.12854 2.74427 0
M  V30 4168 C 387.92 3.28702 2.74115 0
M  V30 4169 C 387.246 3.38582 4.13844 0
M  V30 4170 C 388.546 4.65881 2.3612 0
M  V30 4171 H 390.24 2.78474 1.09966 0
M  V30 4172 H 387.786 1.33988 0.527556 0
M  V30 4173 H 389.739 2.35047 3.49758 0
M  V30 4174 H 388.463 1.19535 3.03939 0
M  V30 4175 H 387.122 3.06428 2.0124 0
M  V30 4176 H 386.77 2.42784 4.40528 0
M  V30 4177 H 386.47 4.16453 4.14537 0
M  V30 4178 H 387.994 3.63031 4.90959 0
M  V30 4179 H 389.408 4.87823 3.01167 0
M  V30 4180 H 387.805 5.46444 2.48031 0
M  V30 4181 H 388.875 4.66799 1.3125 0
M  V30 4182 N 390.218 -0.567019 1.47046 0
M  V30 4183 C 391.165 -1.67489 1.58796 0
M  V30 4184 C 392.135 -1.60399 0.43144 0
M  V30 4185 O 393.32 -1.79378 0.650233 0
M  V30 4186 C 390.46 -3.05821 1.59899 0
M  V30 4187 C 389.573 -3.2342 2.86397 0
M  V30 4188 C 388.708 -4.52093 2.789 0
M  V30 4189 C 387.747 -4.6309 4.00267 0
M  V30 4190 N 386.884 -5.83106 3.91064 0
M  V30 4191 H 391.724 -1.56785 2.53422 0
M  V30 4192 H 389.261 -0.763896 1.2571 0
M  V30 4193 H 391.219 -3.8591 1.58522 0
M  V30 4194 H 389.849 -3.15384 0.687929 0
M  V30 4195 H 388.901 -2.3683 2.97684 0
M  V30 4196 H 390.213 -3.27412 3.76301 0
M  V30 4197 H 389.367 -5.4043 2.75718 0
M  V30 4198 H 388.106 -4.50565 1.86662 0
M  V30 4199 H 387.111 -3.73168 4.03765 0
M  V30 4200 H 388.336 -4.66386 4.93621 0
M  V30 4201 H 386.282 -5.82546 3.01623 0
M  V30 4202 H 386.199 -5.88434 4.74638 0
M  V30 4203 H 387.467 -6.73831 3.91882 0
M  V30 4204 N 391.696 -1.35014 -0.812953 0
M  V30 4205 C 392.944 -1.27678 -1.56661 0
M  V30 4206 C 393.265 0.150359 -1.94419 0
M  V30 4207 O 392.535 1.08532 -1.63088 0
M  V30 4208 H 391.115 -0.469602 -0.580933 0
M  V30 4209 H 393.777 -1.69043 -0.970076 0
M  V30 4210 H 392.873 -1.88833 -2.48492 0
M  V30 4211 N 393.175 1.03435 -1.18907 0
M  V30 4212 C 394.591 1.28973 -0.940111 0
M  V30 4213 C 394.791 1.97676 0.390691 0
M  V30 4214 O 393.847 2.26127 1.12352 0
M  V30 4215 C 395.16 2.14221 -2.11021 0
M  V30 4216 C 396.708 2.27547 -2.14922 0
M  V30 4217 C 397.183 3.16164 -3.31367 0
M  V30 4218 N 398.674 3.23752 -3.31269 0
M  V30 4219 C 399.409 3.92495 -4.18014 0
M  V30 4220 N 398.905 4.63515 -5.14904 0
M  V30 4221 N 400.698 3.88838 -4.05908 0
M  V30 4222 H 392.849 0.57252 -2.04538 0
M  V30 4223 H 395.112 0.315184 -0.894071 0
M  V30 4224 H 394.818 1.71054 -3.073 0
M  V30 4225 H 394.692 3.14919 -2.0762 0
M  V30 4226 H 397.079 2.69947 -1.19217 0
M  V30 4227 H 397.16 1.26418 -2.22378 0
M  V30 4228 H 396.804 2.74474 -4.27348 0
M  V30 4229 H 396.734 4.17339 -3.21148 0
M  V30 4230 H 399.225 2.73167 -2.61129 0
M  V30 4231 H 399.538 5.13583 -5.77453 0
M  V30 4232 H 397.883 4.62398 -5.18857 0
M  V30 4233 H 401.074 3.32491 -3.29495 0
M  V30 4234 H 401.247 4.4214 -4.73726 0
M  V30 4235 N 394.653 0.992116 1.22453 0
M  V30 4236 C 395.899 0.668523 1.91464 0
M  V30 4237 C 396.232 -0.797313 1.77078 0
M  V30 4238 O 395.507 -1.5765 1.13916 0
M  V30 4239 C 395.79 1.07424 3.43703 0
M  V30 4240 C 395.643 2.59857 3.67143 0
M  V30 4241 C 396.962 0.626891 4.35612 0
M  V30 4242 H 394.081 0.244341 0.695318 0
M  V30 4243 H 396.723 1.2355 1.44345 0
M  V30 4244 H 394.873 0.591816 3.83966 0
M  V30 4245 H 396.545 3.15764 3.3629 0
M  V30 4246 H 394.788 3.01961 3.11451 0
M  V30 4247 H 395.459 2.83296 4.73759 0
M  V30 4248 H 397.935 1.04125 4.02861 0
M  V30 4249 H 396.811 0.939076 5.40807 0
M  V30 4250 H 397.072 -0.472457 4.39568 0
M  V30 4251 N 396.131 -1.37776 0.765217 0
M  V30 4252 C 397.361 -2.03828 0.337277 0
M  V30 4253 C 397.769 -1.57841 -1.04321 0
M  V30 4254 O 397.112 -0.752043 -1.67601 0
M  V30 4255 C 397.174 -3.58292 0.294407 0
M  V30 4256 C 396.838 -4.27384 1.61838 0
M  V30 4257 C 397.835 -4.51956 2.56967 0
M  V30 4258 C 395.52 -4.65345 1.89102 0
M  V30 4259 C 397.514 -5.13536 3.77571 0
M  V30 4260 C 395.201 -5.26647 3.09978 0
M  V30 4261 C 396.199 -5.50679 4.04032 0
M  V30 4262 O 395.887 -6.10702 5.2278 0
M  V30 4263 H 395.619 -0.661292 0.140248 0
M  V30 4264 H 398.173 -1.77222 1.03834 0
M  V30 4265 H 396.403 -3.83918 -0.462983 0
M  V30 4266 H 398.092 -4.05763 -0.105581 0
M  V30 4267 H 398.858 -4.23048 2.37183 0
M  V30 4268 H 394.737 -4.45978 1.16725 0
M  V30 4269 H 398.281 -5.3221 4.50997 0
M  V30 4270 H 394.178 -5.54979 3.29649 0
M  V30 4271 H 394.946 -6.29183 5.23517 0
M  V30 4272 N 397.609 -0.515225 -1.4894 0
M  V30 4273 C 398.839 0.0205735 -2.0659 0
M  V30 4274 C 399.247 1.30064 -1.37405 0
M  V30 4275 O 398.59 1.78087 -0.450632 0
M  V30 4276 C 398.652 0.330124 -3.57981 0
M  V30 4277 C 398.316 -0.854295 -4.48944 0
M  V30 4278 C 399.313 -1.7487 -4.89609 0
M  V30 4279 C 396.998 -1.05712 -4.9105 0
M  V30 4280 C 398.992 -2.82996 -5.71132 0
M  V30 4281 C 396.679 -2.14154 -5.72347 0
M  V30 4282 C 397.677 -3.0263 -6.12294 0
M  V30 4283 O 397.365 -4.09198 -6.91962 0
M  V30 4284 H 397.097 -0.0236833 -0.675585 0
M  V30 4285 H 399.651 -0.715956 -1.92518 0
M  V30 4286 H 397.881 1.12044 -3.70112 0
M  V30 4287 H 399.57 0.806233 -3.97812 0
M  V30 4288 H 400.336 -1.60388 -4.57712 0
M  V30 4289 H 396.215 -0.377788 -4.59449 0
M  V30 4290 H 399.759 -3.52083 -6.02232 0
M  V30 4291 H 395.656 -2.28626 -6.03656 0
M  V30 4292 H 396.424 -4.06726 -7.10293 0
M  V30 4293 N 399.087 1.5561 -0.249682 0
M  V30 4294 C 400.017 2.24477 0.642826 0
M  V30 4295 C 400.998 1.22601 1.17911 0
M  V30 4296 O 402.183 1.5126 1.21795 0
M  V30 4297 C 399.313 2.94638 1.83863 0
M  V30 4298 C 398.267 4.03227 1.435 0
M  V30 4299 C 397.593 4.60828 2.71186 0
M  V30 4300 C 398.893 5.18796 0.604002 0
M  V30 4301 H 400.587 2.99321 0.0685625 0
M  V30 4302 H 398.133 1.43965 0.0315363 0
M  V30 4303 H 400.086 3.41517 2.46868 0
M  V30 4304 H 398.81 2.17287 2.43832 0
M  V30 4305 H 397.469 3.57121 0.828275 0
M  V30 4306 H 397.117 3.80174 3.29358 0
M  V30 4307 H 396.817 5.34132 2.44901 0
M  V30 4308 H 398.341 5.10442 3.35084 0
M  V30 4309 H 399.755 5.61883 1.13842 0
M  V30 4310 H 398.152 5.98506 0.437097 0
M  V30 4311 H 399.222 4.83384 -0.383147 0
M  V30 4312 N 400.565 -0.0233959 1.57583 0
M  V30 4313 C 401.475 -1.03907 2.10334 0
M  V30 4314 C 402.491 -1.39257 1.04323 0
M  V30 4315 O 403.667 -1.48462 1.36091 0
M  V30 4316 C 400.732 -2.31938 2.57693 0
M  V30 4317 C 399.793 -2.03117 3.78209 0
M  V30 4318 C 399.026 -3.25043 4.233 0
M  V30 4319 O 399.249 -4.35916 3.67876 0
M  V30 4320 O 398.183 -3.10411 5.15683 0
M  V30 4321 H 402.009 -0.620748 2.97288 0
M  V30 4322 H 399.594 -0.240743 1.47448 0
M  V30 4323 H 401.476 -3.07196 2.88458 0
M  V30 4324 H 400.151 -2.73055 1.73847 0
M  V30 4325 H 399.058 -1.25408 3.52454 0
M  V30 4326 H 400.391 -1.66852 4.63056 0
M  V30 4327 N 402.043 -1.548 -0.295768 0
M  V30 4328 C 402.993 -1.82497 -1.3667 0
M  V30 4329 C 403.977 -0.682434 -1.45711 0
M  V30 4330 O 405.169 -0.943207 -1.49775 0
M  V30 4331 C 402.298 -2.08036 -2.73086 0
M  V30 4332 C 401.384 -3.28488 -2.68247 0
M  V30 4333 N 401.775 -4.48924 -2.33025 0
M  V30 4334 C 400.073 -3.3062 -2.99343 0
M  V30 4335 C 400.774 -5.30956 -2.37613 0
M  V30 4336 N 399.75 -4.68805 -2.75178 0
M  V30 4337 H 403.552 -2.73175 -1.0841 0
M  V30 4338 H 401.066 -1.5437 -0.504361 0
M  V30 4339 H 403.063 -2.26027 -3.5031 0
M  V30 4340 H 401.723 -1.18629 -3.02254 0
M  V30 4341 H 402.734 -4.75432 -2.05389 0
M  V30 4342 H 399.411 -2.51336 -3.33371 0
M  V30 4343 H 400.801 -6.37199 -2.13135 0
M  V30 4344 N 403.521 0.559213 -1.47345 0
M  V30 4345 C 404.932 1.14134 -1.47751 0
M  V30 4346 C 405.283 1.94834 -0.231103 0
M  V30 4347 O 404.408 2.05957 0.664137 0
M  V30 4348 C 405.003 2.07653 -2.67705 0
M  V30 4349 C 403.562 2.61141 -2.71076 0
M  V30 4350 C 402.709 1.3748 -2.40821 0
M  V30 4351 H 405.66 0.345917 -1.54884 0
M  V30 4352 H 405.681 2.91497 -2.44561 0
M  V30 4353 H 405.193 1.4889 -3.58404 0
M  V30 4354 H 403.294 3.23707 -1.84511 0
M  V30 4355 H 403.407 3.02272 -3.7171 0
M  V30 4356 H 401.771 1.68086 -1.91362 0
M  V30 4357 H 402.554 0.805135 -3.33725 0
M  V30 4358 N 404.999 1.35443 0.805782 0
M  V30 4359 C 405.909 1.30546 1.94923 0
M  V30 4360 C 406.925 0.210233 1.72725 0
M  V30 4361 O 408.101 0.43975 1.9654 0
M  V30 4362 C 405.166 1.07782 3.29521 0
M  V30 4363 C 404.227 2.26625 3.64609 0
M  V30 4364 C 403.46 2.04938 4.92784 0
M  V30 4365 O 403.683 1.01624 5.61274 0
M  V30 4366 O 402.617 2.9232 5.26149 0
M  V30 4367 H 406.443 2.26779 2.02002 0
M  V30 4368 H 404.028 1.15823 0.943682 0
M  V30 4369 H 405.91 0.969392 4.10098 0
M  V30 4370 H 404.585 0.146003 3.23371 0
M  V30 4371 H 403.492 2.43033 2.84404 0
M  V30 4372 H 404.825 3.18257 3.75464 0
M  V30 4373 N 406.477 -1.02803 1.19454 0
M  V30 4374 C 407.424 -2.11099 0.933046 0
M  V30 4375 C 408.394 -1.65571 -0.132447 0
M  V30 4376 O 409.579 -1.90797 0.00987576 0
M  V30 4377 C 406.719 -3.41763 0.478747 0
M  V30 4378 C 405.832 -4.00833 1.6111 0
M  V30 4379 C 404.967 -5.19511 1.10825 0
M  V30 4380 C 404.006 -5.70639 2.21445 0
M  V30 4381 N 403.143 -6.80589 1.72461 0
M  V30 4382 H 407.983 -2.32804 1.86028 0
M  V30 4383 H 405.52 -1.14179 0.927441 0
M  V30 4384 H 407.478 -4.16736 0.196745 0
M  V30 4385 H 406.108 -3.20166 -0.411493 0
M  V30 4386 H 405.16 -3.23066 2.00829 0
M  V30 4387 H 406.472 -4.34794 2.4445 0
M  V30 4388 H 405.626 -6.01645 0.781533 0
M  V30 4389 H 404.365 -4.87086 0.244606 0
M  V30 4390 H 403.37 -4.87116 2.54947 0
M  V30 4391 H 404.595 -6.05102 3.08267 0
M  V30 4392 H 402.541 -6.50016 0.884056 0
M  V30 4393 H 402.458 -7.13681 2.49389 0
M  V30 4394 H 403.726 -7.66317 1.42755 0
M  V30 4395 N 407.956 -0.998596 -1.21925 0
M  V30 4396 C 408.886 -0.573688 -2.26343 0
M  V30 4397 C 409.867 0.402296 -1.65274 0
M  V30 4398 O 411.052 0.291683 -1.91997 0
M  V30 4399 C 408.182 0.106839 -3.47136 0
M  V30 4400 C 407.136 -0.788269 -4.20678 0
M  V30 4401 C 406.462 0.0254927 -5.34694 0
M  V30 4402 C 407.762 -2.08784 -4.78755 0
M  V30 4403 H 409.456 -1.44651 -2.62138 0
M  V30 4404 H 407.002 -0.696975 -1.26009 0
M  V30 4405 H 408.955 0.415531 -4.19346 0
M  V30 4406 H 407.679 1.01424 -3.10452 0
M  V30 4407 H 406.338 -1.08069 -3.50309 0
M  V30 4408 H 405.986 0.933989 -4.94253 0
M  V30 4409 H 405.686 -0.570437 -5.84825 0
M  V30 4410 H 407.21 0.328147 -6.09718 0
M  V30 4411 H 408.624 -1.84272 -5.42878 0
M  V30 4412 H 407.021 -2.63307 -5.39249 0
M  V30 4413 H 408.091 -2.76284 -3.98491 0
M  V30 4414 N 409.434 1.37368 -0.772513 0
M  V30 4415 C 410.662 2.03942 -0.348588 0
M  V30 4416 C 411.077 1.58264 1.02947 0
M  V30 4417 O 410.434 0.764246 1.65727 0
M  V30 4418 C 410.485 3.5946 -0.38351 0
M  V30 4419 O 410.206 4.03468 -1.70721 0
M  V30 4420 C 411.707 4.4327 0.0519152 0
M  V30 4421 H 408.927 0.654931 -0.145966 0
M  V30 4422 H 411.471 1.75686 -1.04665 0
M  V30 4423 H 409.626 3.86486 0.265978 0
M  V30 4424 H 410.04 4.97991 -1.64636 0
M  V30 4425 H 411.514 5.51995 -0.0236733 0
M  V30 4426 H 411.991 4.2514 1.10238 0
M  V30 4427 H 412.597 4.21471 -0.569415 0
M  V30 4428 N 410.912 0.523116 1.48665 0
M  V30 4429 C 411.842 -0.23231 2.32342 0
M  V30 4430 C 412.823 -0.941637 1.41659 0
M  V30 4431 O 414.008 -0.928751 1.70552 0
M  V30 4432 C 411.138 -1.28387 3.22698 0
M  V30 4433 C 410.092 -0.693098 4.22351 0
M  V30 4434 C 409.418 -1.8468 5.01794 0
M  V30 4435 C 410.718 0.33063 5.21252 0
M  V30 4436 H 412.412 0.466192 2.95748 0
M  V30 4437 H 409.958 0.225643 1.42221 0
M  V30 4438 H 411.911 -1.82024 3.80059 0
M  V30 4439 H 410.635 -2.01186 2.57278 0
M  V30 4440 H 409.294 -0.178299 3.66166 0
M  V30 4441 H 408.942 -2.56301 4.32804 0
M  V30 4442 H 408.642 -1.45747 5.69238 0
M  V30 4443 H 410.166 -2.38709 5.62006 0
M  V30 4444 H 411.58 -0.118407 5.73178 0
M  V30 4445 H 409.977 0.636974 5.9671 0
M  V30 4446 H 411.047 1.23883 4.68808 0
M  V30 4447 N 412.39 -1.55475 0.257931 0
M  V30 4448 C 413.618 -2.03609 -0.367559 0
M  V30 4449 C 414.033 -1.13687 -1.50734 0
M  V30 4450 O 413.39 -0.153479 -1.81853 0
M  V30 4451 C 413.441 -3.51001 -0.864908 0
M  V30 4452 O 413.162 -4.37499 0.229465 0
M  V30 4453 C 414.663 -4.14946 -1.55997 0
M  V30 4454 H 411.883 -0.665459 -0.0860521 0
M  V30 4455 H 414.427 -2.00843 0.385014 0
M  V30 4456 H 412.582 -3.54266 -1.56762 0
M  V30 4457 H 412.996 -5.24286 -0.14998 0
M  V30 4458 H 414.47 -5.19735 -1.85956 0
M  V30 4459 H 414.947 -3.6209 -2.4857 0
M  V30 4460 H 415.553 -4.15635 -0.901543 0
M  V30 4461 N 413.868 0.0150385 -1.57593 0
M  V30 4462 C 414.778 1.02791 -2.10882 0
M  V30 4463 C 415.794 1.38702 -1.0506 0
M  V30 4464 O 416.97 1.47739 -1.36877 0
M  V30 4465 C 414.035 2.30568 -2.58919 0
M  V30 4466 C 413.096 2.01108 -3.79281 0
M  V30 4467 C 412.329 3.22794 -4.25018 0
M  V30 4468 O 412.552 4.33959 -3.70183 0
M  V30 4469 O 411.486 3.07672 -5.17322 0
M  V30 4470 H 415.312 0.604973 -2.97613 0
M  V30 4471 H 412.897 0.23292 -1.47573 0
M  V30 4472 H 414.779 3.05662 -2.90084 0
M  V30 4473 H 413.454 2.72129 -1.75293 0
M  V30 4474 H 412.361 1.23537 -3.53114 0
M  V30 4475 H 413.694 1.64394 -4.63935 0
M  V30 4476 N 415.346 1.54954 0.287554 0
M  V30 4477 C 416.309 1.86076 1.33823 0
M  V30 4478 C 417.309 0.734414 1.43049 0
M  V30 4479 O 418.499 1.00266 1.42452 0
M  V30 4480 C 415.631 2.05305 2.72144 0
M  V30 4481 H 416.824 2.79984 1.07465 0
M  V30 4482 H 414.377 1.47223 0.524902 0
M  V30 4483 H 415.112 1.1373 3.03704 0
M  V30 4484 H 414.897 2.873 2.66836 0
M  V30 4485 H 416.387 2.30706 3.48087 0
M  V30 4486 N 416.824 -0.551391 1.4764 0
M  V30 4487 C 418.24 -0.877887 1.33287 0
M  V30 4488 C 418.44 -1.98817 0.327721 0
M  V30 4489 O 417.496 -2.51171 -0.258695 0
M  V30 4490 C 418.809 -1.26563 2.72768 0
M  V30 4491 C 420.357 -1.37673 2.81097 0
M  V30 4492 C 420.832 -1.79799 4.21232 0
M  V30 4493 N 422.323 -1.8694 4.23802 0
M  V30 4494 C 423.058 -2.20876 5.29151 0
M  V30 4495 N 422.554 -2.53386 6.448 0
M  V30 4496 N 424.347 -2.217 5.16532 0
M  V30 4497 H 416.498 0.18153 2.11623 0
M  V30 4498 H 418.761 0.0185514 0.947818 0
M  V30 4499 H 418.467 -0.523591 3.47781 0
M  V30 4500 H 418.341 -2.22052 3.04915 0
M  V30 4501 H 420.728 -2.10956 2.06353 0
M  V30 4502 H 420.809 -0.40357 2.52596 0
M  V30 4503 H 420.453 -1.07083 4.96483 0
M  V30 4504 H 420.383 -2.78128 4.4716 0
M  V30 4505 H 422.874 -1.64179 3.40373 0
M  V30 4506 H 423.187 -2.78325 7.20941 0
M  V30 4507 H 421.532 -2.50953 6.48111 0
M  V30 4508 H 424.723 -1.95745 4.25207 0
M  V30 4509 H 424.896 -2.47818 5.98741 0
M  V30 4510 N 418.302 -1.35869 -0.798587 0
M  V30 4511 C 419.212 -1.31578 -1.94228 0
M  V30 4512 C 420.228 -0.21939 -1.72611 0
M  V30 4513 O 421.404 -0.450167 -1.96305 0
M  V30 4514 C 418.469 -1.09528 -3.28944 0
M  V30 4515 C 417.53 -2.28556 -3.63402 0
M  V30 4516 C 416.763 -2.07549 -4.9169 0
M  V30 4517 O 416.986 -1.046 -5.60727 0
M  V30 4518 O 415.92 -2.95106 -5.24591 0
M  V30 4519 H 419.746 -2.27847 -2.00796 0
M  V30 4520 H 417.331 -1.16322 -0.937526 0
M  V30 4521 H 419.213 -0.991127 -4.09579 0
M  V30 4522 H 417.888 -0.16315 -3.23289 0
M  V30 4523 H 416.795 -2.44538 -2.83112 0
M  V30 4524 H 418.128 -3.20244 -3.73771 0
M  V30 4525 N 419.78 1.02168 -1.19998 0
M  V30 4526 C 420.743 2.08765 -0.94604 0
M  V30 4527 C 421.743 1.60618 0.0763846 0
M  V30 4528 O 422.933 1.73472 -0.159135 0
M  V30 4529 C 420.065 3.38262 -0.423255 0
M  V30 4530 H 421.258 2.32726 -1.89153 0
M  V30 4531 H 418.811 1.1889 -1.01464 0
M  V30 4532 H 419.546 3.19974 0.527938 0
M  V30 4533 H 419.331 3.74532 -1.16053 0
M  V30 4534 H 420.821 4.16759 -0.264911 0
M  V30 4535 N 421.258 1.00505 1.21394 0
M  V30 4536 C 422.498 0.696149 1.9218 0
M  V30 4537 C 422.862 -0.759099 1.76357 0
M  V30 4538 O 424.063 -1.17998 2.41516 0
M  V30 4539 C 422.334 1.10571 3.39866 0
M  V30 4540 S 423.893 0.91702 4.29111 0
M  V30 4541 H 420.711 0.254147 0.664026 0
M  V30 4542 H 423.313 1.28988 1.46909 0
M  V30 4543 H 422.017 2.16096 3.489 0
M  V30 4544 H 421.548 0.504268 3.90155 0
M  V30 4545 H 423.563 -0.185855 4.95852 0
M  V30 4546 N 422.737 -1.36956 0.779787 0
M  V30 4547 C 423.669 -2.28833 0.129639 0
M  V30 4548 C 424.682 -1.4902 -0.655511 0
M  V30 4549 O 425.871 -1.71578 -0.492279 0
M  V30 4550 C 422.971 -3.2833 -0.839792 0
M  V30 4551 C 422.144 -4.3727 -0.10675 0
M  V30 4552 C 421.203 -5.16789 -0.990717 0
M  V30 4553 O 420.229 -5.67406 -0.451516 0
M  V30 4554 N 421.431 -5.32294 -2.3161 0
M  V30 4555 H 424.196 -2.85268 0.918803 0
M  V30 4556 H 421.757 -1.49019 0.632841 0
M  V30 4557 H 423.749 -3.78413 -1.43477 0
M  V30 4558 H 422.319 -2.72605 -1.52988 0
M  V30 4559 H 421.539 -3.88478 0.669216 0
M  V30 4560 H 422.827 -5.07229 0.399464 0
M  V30 4561 H 422.225 -4.92768 -2.77843 0
M  V30 4562 H 420.782 -5.85656 -2.86095 0
M  V30 4563 N 424.215 -0.530993 -1.48385 0
M  V30 4564 C 425.125 0.23503 -2.3342 0
M  V30 4565 C 426.141 0.93801 -1.46552 0
M  V30 4566 O 427.317 0.912745 -1.7953 0
M  V30 4567 C 424.382 1.26778 -3.22689 0
M  V30 4568 C 423.443 0.575038 -4.25431 0
M  V30 4569 C 422.676 1.55858 -5.10435 0
M  V30 4570 O 422.899 2.79129 -4.97437 0
M  V30 4571 O 421.833 1.09742 -5.91811 0
M  V30 4572 H 425.659 -0.461794 -3.00169 0
M  V30 4573 H 423.244 -0.291903 -1.46521 0
M  V30 4574 H 425.126 1.86457 -3.77904 0
M  V30 4575 H 423.801 1.94699 -2.586 0
M  V30 4576 H 422.708 -0.0622782 -3.74048 0
M  V30 4577 H 424.041 -0.062253 -4.92161 0
M  V30 4578 N 425.693 1.55336 -0.266172 0
M  V30 4579 C 426.97 1.91372 0.404486 0
M  V30 4580 C 427.35 1.18935 1.74407 0
M  V30 4581 O 426.698 0.3132 2.26343 0
M  V30 4582 C 426.908 3.44581 0.553593 0
M  V30 4583 C 428.256 4.16196 0.840618 0
M  V30 4584 O 429.28 3.50426 0.638739 0
M  V30 4585 O 428.139 5.32567 1.22618 0
M  V30 4586 H 425.233 0.797194 0.220025 0
M  V30 4587 H 427.779 1.66813 -0.311664 0
M  V30 4588 H 426.551 3.89357 -0.389498 0
M  V30 4589 H 426.174 3.75065 1.31955 0
M  V30 4590 N 427.171 -0.0066808 1.57599 0
M  V30 4591 C 428.448 -0.729586 1.81484 0
M  V30 4592 C 428.828 -1.92359 0.869558 0
M  V30 4593 O 428.176 -2.28348 -0.0832533 0
M  V30 4594 C 428.386 -1.1416 3.29801 0
M  V30 4595 C 429.734 -1.54823 3.95367 0
M  V30 4596 O 430.758 -1.23558 3.34084 0
M  V30 4597 O 429.617 -2.12937 5.03309 0
M  V30 4598 H 426.711 -0.354674 0.747085 0
M  V30 4599 H 429.257 0.0182609 1.6969 0
M  V30 4600 H 428.029 -0.290231 3.90222 0
M  V30 4601 H 427.652 -1.94876 3.46568 0
M  V30 4602 N 428.649 -1.55105 -0.279332 0
M  V30 4603 C 429.612 -1.86783 -1.32834 0
M  V30 4604 C 430.612 -0.74199 -1.42657 0
M  V30 4605 O 431.802 -1.0102 -1.41918 0
M  V30 4606 C 428.934 -2.06746 -2.71052 0
M  V30 4607 H 430.127 -2.8055 -1.05979 0
M  V30 4608 H 427.68 -1.47499 -0.517087 0
M  V30 4609 H 428.415 -1.15339 -3.03097 0
M  V30 4610 H 428.2 -2.88711 -2.65309 0
M  V30 4611 H 429.69 -2.32549 -3.46858 0
M  V30 4612 N 430.127 0.543554 -1.4793 0
M  V30 4613 C 431.355 1.32516 -1.58894 0
M  V30 4614 C 431.77 1.87215 -0.244131 0
M  V30 4615 O 431.127 1.65709 0.764652 0
M  V30 4616 C 431.178 2.48554 -2.62494 0
M  V30 4617 O 430.899 1.96112 -3.91755 0
M  V30 4618 C 432.4 3.40572 -2.8377 0
M  V30 4619 H 429.62 0.403472 -0.536145 0
M  V30 4620 H 432.164 0.657106 -1.93655 0
M  V30 4621 H 430.319 3.1127 -2.30629 0
M  V30 4622 H 430.733 2.71967 -4.4848 0
M  V30 4623 H 432.207 4.18375 -3.60093 0
M  V30 4624 H 432.684 3.94965 -1.92092 0
M  V30 4625 H 433.29 2.8366 -3.16887 0
M  V30 4626 N 431.605 1.3629 0.791371 0
M  V30 4627 C 432.854 1.29742 1.54434 0
M  V30 4628 C 433.167 -0.121729 1.95221 0
M  V30 4629 O 434.373 -0.309579 2.69729 0
M  V30 4630 C 432.829 2.27623 2.78776 0
M  V30 4631 C 432.437 3.74963 2.45166 0
M  V30 4632 C 434.181 2.30047 3.56761 0
M  V30 4633 C 432.088 4.64626 3.65891 0
M  V30 4634 H 431.018 0.482113 0.579727 0
M  V30 4635 H 433.669 1.61642 0.868565 0
M  V30 4636 H 432.051 1.88714 3.48142 0
M  V30 4637 H 433.225 4.22596 1.83709 0
M  V30 4638 H 431.54 3.75295 1.80396 0
M  V30 4639 H 434.137 2.94247 4.46456 0
M  V30 4640 H 434.48 1.30846 3.95203 0
M  V30 4641 H 435.013 2.67563 2.94372 0
M  V30 4642 H 431.752 5.64883 3.32547 0
M  V30 4643 H 431.272 4.2171 4.26521 0
M  V30 4644 H 432.951 4.80801 4.32943 0
M  V30 4645 N 433.083 -1.0153 1.20538 0
M  V30 4646 C 434.046 -2.0826 0.957098 0
M  V30 4647 C 435.046 -1.60657 -0.0678655 0
M  V30 4648 O 436.236 -1.73385 0.168332 0
M  V30 4649 C 433.368 -3.38033 0.441188 0
M  V30 4650 H 434.561 -2.31719 1.90384 0
M  V30 4651 H 432.114 -1.1835 1.02093 0
M  V30 4652 H 432.849 -3.20249 -0.510961 0
M  V30 4653 H 432.634 -3.73911 1.18038 0
M  V30 4654 H 434.124 -4.16613 0.287009 0
M  V30 4655 N 434.561 -1.01147 -1.20859 0
M  V30 4656 C 435.508 -0.577354 -2.23462 0
M  V30 4657 C 436.478 0.399922 -1.61214 0
M  V30 4658 O 437.663 0.300515 -1.88419 0
M  V30 4659 C 434.803 0.083372 -3.44999 0
M  V30 4660 C 433.916 -0.937856 -4.21697 0
M  V30 4661 C 433.051 -0.248717 -5.30617 0
M  V30 4662 C 432.09 -1.25705 -5.99053 0
M  V30 4663 N 431.227 -0.594939 -6.99575 0
M  V30 4664 H 436.067 -1.45695 -2.59956 0
M  V30 4665 H 433.604 -0.729428 -1.27741 0
M  V30 4666 H 435.562 0.483535 -4.14388 0
M  V30 4667 H 434.192 0.926645 -3.09214 0
M  V30 4668 H 433.244 -1.45622 -3.51423 0
M  V30 4669 H 434.556 -1.70493 -4.68757 0
M  V30 4670 H 433.71 0.207215 -6.06346 0
M  V30 4671 H 432.449 0.55071 -4.84581 0
M  V30 4672 H 431.454 -1.72343 -5.2209 0
M  V30 4673 H 432.679 -2.05767 -6.47176 0
M  V30 4674 H 430.625 0.184713 -6.5574 0
M  V30 4675 H 430.542 -1.30017 -7.44736 0
M  V30 4676 H 431.81 -0.162427 -7.79331 0
M  V30 4677 N 436.039 1.36541 -0.78704 0
M  V30 4678 C 437.285 1.99599 -0.358872 0
M  V30 4679 C 437.618 1.62323 1.06606 0
M  V30 4680 O 436.893 0.876858 1.73613 0
M  V30 4681 C 437.176 3.56327 -0.519944 0
M  V30 4682 C 437.029 4.03464 -1.98839 0
M  V30 4683 C 438.348 4.4005 0.0664737 0
M  V30 4684 H 435.467 0.725107 -0.131869 0
M  V30 4685 H 438.109 1.6199 -0.992936 0
M  V30 4686 H 436.259 3.88495 0.0198321 0
M  V30 4687 H 437.931 3.81793 -2.58905 0
M  V30 4688 H 436.174 3.55092 -2.49183 0
M  V30 4689 H 436.845 5.12439 -2.05207 0
M  V30 4690 H 439.321 4.14228 -0.394267 0
M  V30 4691 H 438.197 5.48847 -0.0762682 0
M  V30 4692 H 438.458 4.26655 1.15835 0
M  V30 4693 N 437.518 0.538854 1.48102 0
M  V30 4694 C 438.766 0.00798599 2.02098 0
M  V30 4695 C 439.087 -1.33922 1.41739 0
M  V30 4696 O 438.357 -1.86932 0.585934 0
M  V30 4697 H 436.937 -3.62179e-05 0.747 0
M  V30 4698 H 439.599 0.7047 1.81714 0
M  V30 4699 H 438.695 -0.0937672 3.11959 0
M  V30 4700 N 438.996 -1.55193 0.274407 0
M  V30 4701 C 439.928 -2.1989 -0.646595 0
M  V30 4702 C 440.941 -1.1834 -1.11801 0
M  V30 4703 O 442.13 -1.4507 -1.04004 0
M  V30 4704 C 439.23 -2.8104 -1.89393 0
M  V30 4705 C 438.403 -4.08274 -1.56943 0
M  V30 4706 C 437.462 -4.53478 -2.66916 0
M  V30 4707 O 436.488 -5.19267 -2.33132 0
M  V30 4708 N 437.69 -4.2356 -3.9696 0
M  V30 4709 H 440.455 -2.99556 -0.0928686 0
M  V30 4710 H 438.016 -1.61618 0.0954783 0
M  V30 4711 H 440.008 -3.08226 -2.62257 0
M  V30 4712 H 438.578 -2.05372 -2.35672 0
M  V30 4713 H 437.798 -3.88384 -0.674655 0
M  V30 4714 H 439.086 -4.91173 -1.32764 0
M  V30 4715 H 438.484 -3.70799 -4.27229 0
M  V30 4716 H 437.041 -4.55518 -4.66205 0
M  V30 4717 N 440.474 -0.00167713 -1.576 0
M  V30 4718 C 441.404 0.988091 -2.11563 0
M  V30 4719 C 442.385 1.35736 -1.02517 0
M  V30 4720 O 443.57 1.44082 -1.30208 0
M  V30 4721 C 440.7 2.27941 -2.62031 0
M  V30 4722 C 439.654 2.0517 -3.75619 0
M  V30 4723 C 438.98 3.4033 -4.12407 0
M  V30 4724 C 440.28 1.41294 -5.02825 0
M  V30 4725 H 441.974 0.538771 -2.94513 0
M  V30 4726 H 439.52 0.257712 -1.41675 0
M  V30 4727 H 441.473 2.97539 -2.9841 0
M  V30 4728 H 440.197 2.74989 -1.76205 0
M  V30 4729 H 438.856 1.37998 -3.39635 0
M  V30 4730 H 438.504 3.85085 -3.23603 0
M  V30 4731 H 438.204 3.25909 -4.88935 0
M  V30 4732 H 439.728 4.1124 -4.51347 0
M  V30 4733 H 441.142 2.00851 -5.36965 0
M  V30 4734 H 439.539 1.37356 -5.84169 0
M  V30 4735 H 440.609 0.382362 -4.8339 0
M  V30 4736 N 441.952 1.55251 0.271103 0
M  V30 4737 C 443.199 1.75946 1.00245 0
M  V30 4738 C 443.527 0.561611 1.86215 0
M  V30 4739 O 442.782 -0.455832 1.90317 0
M  V30 4740 C 443.081 3.01879 1.91321 0
M  V30 4741 C 442.747 4.34337 1.21086 0
M  V30 4742 C 441.409 4.70338 1.01666 0
M  V30 4743 C 443.761 5.16325 0.71119 0
M  V30 4744 C 441.089 5.8588 0.310099 0
M  V30 4745 C 443.441 6.32597 0.0182157 0
M  V30 4746 C 442.105 6.67236 -0.18768 0
M  V30 4747 H 441.375 0.643833 0.366824 0
M  V30 4748 H 444.022 1.89521 0.27458 0
M  V30 4749 H 442.327 2.83212 2.70736 0
M  V30 4750 H 444.024 3.15088 2.48033 0
M  V30 4751 H 440.614 4.06043 1.37213 0
M  V30 4752 H 444.798 4.88987 0.848844 0
M  V30 4753 H 440.054 6.1124 0.139873 0
M  V30 4754 H 444.228 6.9538 -0.376711 0
M  V30 4755 H 441.855 7.56618 -0.73715 0
M  V30 4756 N 443.43 -0.535701 1.48216 0
M  V30 4757 C 444.393 -1.623 1.61838 0
M  V30 4758 C 445.393 -1.53087 0.492024 0
M  V30 4759 O 446.583 -1.5686 0.757668 0
M  V30 4760 C 443.715 -3.01907 1.58319 0
M  V30 4761 H 444.908 -1.51564 2.58783 0
M  V30 4762 H 442.461 -0.757317 1.36727 0
M  V30 4763 H 443.196 -3.18155 0.628299 0
M  V30 4764 H 442.981 -3.10003 2.40085 0
M  V30 4765 H 444.471 -3.80969 1.71033 0
M  V30 4766 N 444.908 -1.36708 -0.784132 0
M  V30 4767 C 445.871 -1.31307 -1.87859 0
M  V30 4768 C 446.871 -0.219654 -1.59293 0
M  V30 4769 O 448.061 -0.47476 -1.67606 0
M  V30 4770 C 445.193 -1.03679 -3.24751 0
M  V30 4771 H 446.386 -2.28647 -1.94064 0
M  V30 4772 H 443.939 -1.21558 -0.98252 0
M  V30 4773 H 444.674 -0.0681936 -3.24228 0
M  V30 4774 H 444.459 -1.82811 -3.46876 0
M  V30 4775 H 445.949 -1.02518 -4.04821 0
M  V30 4776 N 446.386 1.0089 -1.21074 0
M  V30 4777 C 447.632 1.7497 -1.03717 0
M  V30 4778 C 447.987 1.8764 0.425344 0
M  V30 4779 O 447.28 1.39679 1.3115 0
M  V30 4780 C 447.474 3.16335 -1.66334 0
M  V30 4781 C 447.303 3.17449 -3.18522 0
M  V30 4782 C 446.073 3.2425 -3.87543 0
M  V30 4783 C 448.271 3.02877 -4.15656 0
M  V30 4784 N 446.253 3.14949 -5.26954 0
M  V30 4785 C 447.624 3.0143 -5.41793 0
M  V30 4786 C 449.679 2.8715 -4.06755 0
M  V30 4787 C 448.382 2.85869 -6.60054 0
M  V30 4788 C 450.408 2.72944 -5.24648 0
M  V30 4789 C 449.77 2.72171 -6.49694 0
M  V30 4790 H 445.869 0.650627 -0.43383 0
M  V30 4791 H 448.453 1.19944 -1.53367 0
M  V30 4792 H 446.624 3.69638 -1.19256 0
M  V30 4793 H 448.356 3.78888 -1.42219 0
M  V30 4794 H 445.111 3.31288 -3.38446 0
M  V30 4795 H 445.535 3.13651 -5.9996 0
M  V30 4796 H 450.177 2.86557 -3.10878 0
M  V30 4797 H 447.895 2.8521 -7.56096 0
M  V30 4798 H 451.481 2.61782 -5.19578 0
M  V30 4799 H 450.361 2.61307 -7.39384 0
M  V30 4800 N 447.864 1.01787 1.20321 0
M  V30 4801 C 448.811 0.589197 2.23153 0
M  V30 4802 C 449.781 -0.391367 1.61423 0
M  V30 4803 O 450.966 -0.290518 1.88575 0
M  V30 4804 C 448.106 -0.0650747 3.45039 0
M  V30 4805 C 447.219 0.960207 4.21194 0
M  V30 4806 C 446.354 0.276854 5.30478 0
M  V30 4807 C 445.393 1.2888 5.98378 0
M  V30 4808 N 444.53 0.632031 6.99249 0
M  V30 4809 H 449.37 1.47071 2.59179 0
M  V30 4810 H 446.907 0.736192 1.27352 0
M  V30 4811 H 448.865 -0.461552 4.14639 0
M  V30 4812 H 447.495 -0.910233 3.09701 0
M  V30 4813 H 446.547 1.47484 3.50646 0
M  V30 4814 H 447.859 1.72977 4.67847 0
M  V30 4815 H 447.013 -0.175056 6.06447 0
M  V30 4816 H 445.752 -0.525004 4.84866 0
M  V30 4817 H 444.757 1.75109 5.21169 0
M  V30 4818 H 445.982 2.09196 6.46076 0
M  V30 4819 H 443.928 -0.149935 6.55829 0
M  V30 4820 H 443.845 1.33964 7.44036 0
M  V30 4821 H 445.113 0.203755 7.79234 0
M  V30 4822 N 449.342 -1.36122 0.79427 0
M  V30 4823 C 450.589 -1.99111 0.368905 0
M  V30 4824 C 450.917 -1.63032 -1.0607 0
M  V30 4825 O 450.172 -0.879303 -1.74833 0
M  V30 4826 C 450.471 -3.5409 0.48527 0
M  V30 4827 C 450.137 -4.10003 1.87638 0
M  V30 4828 C 448.799 -4.24986 2.257 0
M  V30 4829 C 451.151 -4.40423 2.78706 0
M  V30 4830 C 448.479 -4.67701 3.54221 0
M  V30 4831 C 450.831 -4.84573 4.0666 0
M  V30 4832 C 449.495 -4.97761 4.44737 0
M  V30 4833 H 448.765 -0.7286 0.134992 0
M  V30 4834 H 451.412 -1.62534 1.01267 0
M  V30 4835 H 449.717 -3.91052 -0.241984 0
M  V30 4836 H 451.414 -4.00766 0.137109 0
M  V30 4837 H 448.004 -3.98784 1.57064 0
M  V30 4838 H 452.188 -4.28412 2.50553 0
M  V30 4839 H 447.444 -4.761 3.83587 0
M  V30 4840 H 451.618 -5.07074 4.77336 0
M  V30 4841 H 449.245 -5.30618 5.44379 0
M  V30 4842 N 450.82 -0.546701 -1.47814 0
M  V30 4843 C 451.77 0.227042 -2.26867 0
M  V30 4844 C 452.754 0.894844 -1.33721 0
M  V30 4845 O 453.946 0.794887 -1.58147 0
M  V30 4846 C 451.075 1.26299 -3.19223 0
M  V30 4847 C 450.161 0.59913 -4.19847 0
M  V30 4848 N 450.552 -0.324777 -5.04756 0
M  V30 4849 C 448.85 0.854331 -4.37741 0
M  V30 4850 C 449.551 -0.709386 -5.77358 0
M  V30 4851 N 448.527 -0.0666153 -5.43559 0
M  V30 4852 H 452.329 -0.483476 -2.89896 0
M  V30 4853 H 449.843 -0.365893 -1.58224 0
M  V30 4854 H 451.84 1.83116 -3.74532 0
M  V30 4855 H 450.5 1.97471 -2.57751 0
M  V30 4856 H 451.511 -0.698351 -5.1317 0
M  V30 4857 H 448.188 1.55536 -3.87447 0
M  V30 4858 H 449.578 -1.46796 -6.55668 0
M  V30 4859 N 452.299 1.55045 -0.282633 0
M  V30 4860 C 453.547 1.99365 0.331334 0
M  V30 4861 C 453.868 1.1725 1.55812 0
M  V30 4862 O 453.138 0.263871 1.94115 0
M  V30 4863 H 451.718 0.736397 0.125414 0
M  V30 4864 H 454.38 1.90964 -0.389711 0
M  V30 4865 H 453.476 3.0596 0.616036 0
M  V30 4866 N 453.777 0.010035 1.57597 0
M  V30 4867 C 454.707 -0.976857 2.12084 0
M  V30 4868 C 455.688 -1.35191 1.03235 0
M  V30 4869 O 456.873 -1.43389 1.3097 0
M  V30 4870 C 454.003 -2.26548 2.63236 0
M  V30 4871 C 452.957 -2.03175 3.76701 0
M  V30 4872 C 452.283 -3.38138 4.14206 0
M  V30 4873 C 453.583 -1.38625 5.03568 0
M  V30 4874 H 455.277 -0.523145 2.94794 0
M  V30 4875 H 452.823 -0.250195 1.4181 0
M  V30 4876 H 454.776 -2.95952 2.99984 0
M  V30 4877 H 453.5 -2.74051 1.77661 0
M  V30 4878 H 452.159 -1.36195 3.40362 0
M  V30 4879 H 451.807 -3.83363 3.25641 0
M  V30 4880 H 451.507 -3.23312 4.90656 0
M  V30 4881 H 453.031 -4.08841 4.53521 0
M  V30 4882 H 454.445 -1.98 5.38023 0
M  V30 4883 H 452.842 -1.34256 5.84889 0
M  V30 4884 H 453.912 -0.356722 4.83586 0
M  V30 4885 N 455.255 -1.55392 -0.262866 0
M  V30 4886 C 456.532 -1.67204 -1.01499 0
M  V30 4887 C 456.912 -0.545186 -2.03939 0
M  V30 4888 O 456.26 0.453467 -2.23955 0
M  V30 4889 C 456.47 -3.06847 -1.6627 0
M  V30 4890 C 457.818 -3.64928 -2.17054 0
M  V30 4891 O 458.842 -3.09545 -1.76239 0
M  V30 4892 O 457.701 -4.61984 -2.91947 0
M  V30 4893 H 454.795 -0.679467 -0.471438 0
M  V30 4894 H 457.341 -1.67729 -0.257918 0
M  V30 4895 H 456.113 -3.80309 -0.920915 0
M  V30 4896 H 455.736 -3.10266 -2.48638 0
M  V30 4897 N 456.733 0.527833 -1.48498 0
M  V30 4898 C 458.149 0.856571 -1.34666 0
M  V30 4899 C 458.349 1.98271 -0.35931 0
M  V30 4900 O 457.405 2.51551 0.218703 0
M  V30 4901 C 458.718 1.22207 -2.74747 0
M  V30 4902 C 460.266 1.33183 -2.83251 0
M  V30 4903 C 460.741 1.73075 -4.24039 0
M  V30 4904 N 462.232 1.80174 -4.26722 0
M  V30 4905 C 462.967 2.1243 -5.32598 0
M  V30 4906 N 462.463 2.43096 -6.4875 0
M  V30 4907 N 464.256 2.13454 -5.19994 0
M  V30 4908 H 456.407 -0.215174 -2.11307 0
M  V30 4909 H 458.67 -0.0336281 -0.947403 0
M  V30 4910 H 458.376 0.468195 -3.4857 0
M  V30 4911 H 458.25 2.17173 -3.08409 0
M  V30 4912 H 460.637 2.07647 -2.09683 0
M  V30 4913 H 460.718 0.363333 -2.53206 0
M  V30 4914 H 460.362 0.991712 -4.98124 0
M  V30 4915 H 460.292 2.70979 -4.51529 0
M  V30 4916 H 462.783 1.58744 -3.42942 0
M  V30 4917 H 463.096 2.6682 -7.25277 0
M  V30 4918 H 461.441 2.40611 -6.52021 0
M  V30 4919 H 464.632 1.88956 -4.28268 0
M  V30 4920 H 464.805 2.38261 -6.02608 0
M  V30 4921 N 458.211 1.37122 0.776871 0
M  V30 4922 C 459.451 1.33441 1.54831 0
M  V30 4923 C 459.815 -0.0818963 1.91825 0
M  V30 4924 O 461.016 -0.24338 2.67696 0
M  V30 4925 C 459.287 2.24267 2.78279 0
M  V30 4926 S 460.846 2.38389 3.68397 0
M  V30 4927 H 457.664 0.473791 0.530135 0
M  V30 4928 H 460.266 1.7282 0.913968 0
M  V30 4929 H 458.97 3.261 2.49173 0
M  V30 4930 H 458.501 1.85953 3.46677 0
M  V30 4931 H 460.516 1.59068 4.70013 0
M  V30 4932 N 459.689 -1.00246 1.21608 0
M  V30 4933 C 460.966 -1.71336 0.943568 0
M  V30 4934 C 461.346 -2.03972 -0.543943 0
M  V30 4935 O 460.694 -1.71545 -1.50946 0
M  V30 4936 C 460.904 -2.97094 1.83128 0
M  V30 4937 C 462.252 -3.70071 2.08165 0
M  V30 4938 O 463.276 -3.07081 1.80498 0
M  V30 4939 O 462.135 -4.83376 2.54971 0
M  V30 4940 H 459.229 -0.747386 0.354039 0
M  V30 4941 H 461.775 -1.05967 1.32549 0
M  V30 4942 H 460.547 -2.69407 2.83788 0
M  V30 4943 H 460.17 -3.70204 1.45034 0
M  V30 4944 N 461.167 -1.02423 -1.1978 0
M  V30 4945 C 462.13 -0.605703 -2.21052 0
M  V30 4946 C 463.13 0.328209 -1.57415 0
M  V30 4947 O 464.32 0.115853 -1.73814 0
M  V30 4948 C 461.452 0.114366 -3.40708 0
M  V30 4949 H 462.645 -1.5017 -2.59594 0
M  V30 4950 H 460.198 -0.814888 -1.33376 0
M  V30 4951 H 460.933 1.02492 -3.07678 0
M  V30 4952 H 460.718 -0.556641 -3.88129 0
M  V30 4953 H 462.208 0.394272 -4.15735 0
M  V30 4954 N 462.645 1.35699 -0.801477 0
M  V30 4955 C 463.893 1.9852 -0.37871 0
M  V30 4956 C 464.214 1.63907 1.05638 0
M  V30 4957 O 463.484 0.919013 1.73006 0
M  V30 4958 H 462.064 0.734322 -0.137042 0
M  V30 4959 H 464.726 1.65697 -1.02619 0
M  V30 4960 H 463.822 3.08382 -0.480284 0
M  V30 4961 N 464.123 0.554532 1.47522 0
M  V30 4962 C 465.369 0.0377449 2.03365 0
M  V30 4963 C 465.724 -1.29654 1.42154 0
M  V30 4964 O 465.017 -1.83022 0.566865 0
M  V30 4965 C 465.211 -0.115927 3.57212 0
M  V30 4966 C 465.04 1.20191 4.33341 0
M  V30 4967 C 463.81 1.76849 4.73342 0
M  V30 4968 C 466.008 2.11849 4.68641 0
M  V30 4969 N 463.99 3.02665 5.34104 0
M  V30 4970 C 465.361 3.22245 5.29677 0
M  V30 4971 C 467.416 2.11876 4.5057 0
M  V30 4972 C 466.119 4.32763 5.74551 0
M  V30 4973 C 468.145 3.21405 4.9644 0
M  V30 4974 C 467.507 4.30519 5.57523 0
M  V30 4975 H 463.606 0.0559107 0.779999 0
M  V30 4976 H 466.19 0.741232 1.80038 0
M  V30 4977 H 464.361 -0.788533 3.80311 0
M  V30 4978 H 466.093 -0.634538 3.99695 0
M  V30 4979 H 462.848 1.30681 4.55214 0
M  V30 4980 H 463.272 3.66788 5.69031 0
M  V30 4981 H 467.914 1.28801 4.02704 0
M  V30 4982 H 465.632 5.166 6.2141 0
M  V30 4983 H 469.218 3.22509 4.8423 0
M  V30 4984 H 468.098 5.13873 5.92371 0
M  V30 4985 N 465.601 -1.54893 0.290851 0
M  V30 4986 C 466.531 -2.26103 -0.583084 0
M  V30 4987 C 467.512 -1.25684 -1.14619 0
M  V30 4988 O 468.697 -1.54436 -1.17741 0
M  V30 4989 C 465.827 -2.99409 -1.75987 0
M  V30 4990 C 464.781 -4.0689 -1.32758 0
M  V30 4991 C 464.107 -4.67856 -2.58872 0
M  V30 4992 C 465.407 -5.20215 -0.46624 0
M  V30 4993 H 467.101 -2.99398 0.0108214 0
M  V30 4994 H 464.647 -1.43998 0.00664468 0
M  V30 4995 H 466.6 -3.47943 -2.37727 0
M  V30 4996 H 465.324 -2.23675 -2.37985 0
M  V30 4997 H 463.983 -3.59191 -0.733299 0
M  V30 4998 H 463.631 -3.88772 -3.19163 0
M  V30 4999 H 463.331 -5.40438 -2.30653 0
M  V30 5000 H 464.855 -5.19147 -3.21433 0
M  V30 5001 H 466.269 -5.64704 -0.989047 0
M  V30 5002 H 464.666 -5.99455 -0.27826 0
M  V30 5003 H 465.736 -4.82198 0.511173 0
M  V30 5004 N 467.08 -0.0183926 -1.57589 0
M  V30 5005 C 468.043 0.951986 -2.08494 0
M  V30 5006 C 469.043 1.26092 -0.997874 0
M  V30 5007 O 470.233 1.20304 -1.25987 0
M  V30 5008 C 467.365 2.27165 -2.54182 0
M  V30 5009 H 468.558 0.511307 -2.95509 0
M  V30 5010 H 466.111 0.229444 -1.54607 0
M  V30 5011 H 466.846 2.75884 -1.70465 0
M  V30 5012 H 466.631 2.06057 -3.33591 0
M  V30 5013 H 468.121 2.9674 -2.93828 0
M  V30 5014 N 468.558 1.5553 0.254621 0
M  V30 5015 C 469.835 1.6774 1.00611 0
M  V30 5016 C 470.215 0.555993 2.03647 0
M  V30 5017 O 469.563 -0.441583 2.24193 0
M  V30 5018 C 469.773 3.07725 1.6464 0
M  V30 5019 C 471.121 3.66074 2.15116 0
M  V30 5020 O 472.145 3.10476 1.74595 0
M  V30 5021 O 471.004 4.63526 2.89493 0
M  V30 5022 H 468.098 0.681958 0.467828 0
M  V30 5023 H 470.644 1.67863 0.24902 0
M  V30 5024 H 469.416 3.80792 0.900734 0
M  V30 5025 H 469.039 3.1158 2.46989 0
M  V30 5026 N 470.036 -0.519951 1.48776 0
M  V30 5027 C 471.284 -1.2727 1.56993 0
M  V30 5028 C 471.605 -1.9339 0.25004 0
M  V30 5029 O 470.875 -1.81822 -0.729216 0
M  V30 5030 H 469.455 -0.472732 0.578389 0
M  V30 5031 H 472.117 -0.604234 1.85297 0
M  V30 5032 H 471.213 -2.04669 2.3562 0
M  V30 5033 N 471.514 -1.37532 -0.769588 0
M  V30 5034 C 472.739 -1.36231 -1.56384 0
M  V30 5035 C 473.164 0.0495849 -1.88035 0
M  V30 5036 O 472.522 1.02723 -1.49391 0
M  V30 5037 C 472.57 -2.20986 -2.84952 0
M  V30 5038 O 471.674 -1.61597 -3.79421 0
M  V30 5039 H 471.015 -0.465387 -0.473615 0
M  V30 5040 H 473.545 -1.81085 -0.952342 0
M  V30 5041 H 473.555 -2.34277 -3.34034 0
M  V30 5042 H 472.23 -3.23612 -2.61243 0
M  V30 5043 H 470.807 -1.57359 -3.38072 0
M  V30 5044 N 472.992 0.995999 -1.22138 0
M  V30 5045 C 474.238 1.73767 -1.04561 0
M  V30 5046 C 474.571 1.89633 0.418698 0
M  V30 5047 O 473.846 1.43723 1.3105 0
M  V30 5048 C 474.129 3.14505 -1.75382 0
M  V30 5049 C 473.982 3.06306 -3.29388 0
M  V30 5050 C 475.301 4.13615 -1.50369 0
M  V30 5051 H 472.42 0.630728 -0.38125 0
M  V30 5052 H 475.062 1.16057 -1.50435 0
M  V30 5053 H 473.212 3.63775 -1.36383 0
M  V30 5054 H 474.884 2.64681 -3.77812 0
M  V30 5055 H 473.127 2.43186 -3.59226 0
M  V30 5056 H 473.798 4.05884 -3.74116 0
M  V30 5057 H 476.274 3.73089 -1.84239 0
M  V30 5058 H 475.15 5.10212 -2.02421 0
M  V30 5059 H 475.411 4.39949 -0.435611 0
M  V30 5060 N 474.47 1.03057 1.19235 0
M  V30 5061 C 475.886 0.747947 1.40989 0
M  V30 5062 C 476.086 -0.666752 1.90149 0
M  V30 5063 O 475.142 -1.43249 2.07933 0
M  V30 5064 C 476.455 1.7855 2.41951 0
M  V30 5065 C 478.003 1.80524 2.55695 0
M  V30 5066 C 478.478 2.83243 3.59913 0
M  V30 5067 N 479.969 2.8207 3.67411 0
M  V30 5068 C 480.704 3.58204 4.47747 0
M  V30 5069 N 480.2 4.44057 5.31775 0
M  V30 5070 N 481.993 3.46738 4.42413 0
M  V30 5071 H 474.144 1.94367 0.856468 0
M  V30 5072 H 476.407 0.840412 0.438647 0
M  V30 5073 H 476.113 2.79973 2.12857 0
M  V30 5074 H 475.987 1.6092 3.41152 0
M  V30 5075 H 478.374 0.79778 2.84112 0
M  V30 5076 H 478.455 2.02229 1.56643 0
M  V30 5077 H 478.099 3.84161 3.32239 0
M  V30 5078 H 478.029 2.58795 4.5862 0
M  V30 5079 H 480.52 2.19803 3.074 0
M  V30 5080 H 480.833 4.98884 5.90199 0
M  V30 5081 H 479.178 4.48129 5.3123 0
M  V30 5082 H 482.369 2.79077 3.75811 0
M  V30 5083 H 482.542 4.06322 5.04783 0
M  V30 5084 N 475.948 -1.35272 0.808662 0
M  V30 5085 C 477.178 -2.02652 0.401953 0
M  V30 5086 C 477.586 -1.6108 -0.992462 0
M  V30 5087 O 476.929 -0.804984 -1.65123 0
M  V30 5088 C 476.991 -3.57174 0.408246 0
M  V30 5089 C 476.655 -4.22019 1.75353 0
M  V30 5090 C 477.652 -4.43552 2.71215 0
M  V30 5091 C 475.337 -4.59093 2.03811 0
M  V30 5092 C 477.331 -5.01264 3.93717 0
M  V30 5093 C 475.018 -5.16519 3.26576 0
M  V30 5094 C 476.016 -5.37546 4.21347 0
M  V30 5095 O 475.704 -5.93761 5.41944 0
M  V30 5096 H 475.436 -0.656495 0.161216 0
M  V30 5097 H 477.99 -1.73829 1.0942 0
M  V30 5098 H 476.22 -3.85197 -0.340608 0
M  V30 5099 H 477.909 -4.05893 0.0235623 0
M  V30 5100 H 478.675 -4.15288 2.50522 0
M  V30 5101 H 474.554 -4.42039 1.30854 0
M  V30 5102 H 478.098 -5.17592 4.67701 0
M  V30 5103 H 473.995 -5.4421 3.47139 0
M  V30 5104 H 474.763 -6.1221 5.43269 0
M  V30 5105 N 477.426 -0.562348 -1.47226 0
M  V30 5106 C 478.837 -0.130325 -1.86245 0
M  V30 5107 C 479.188 1.30128 -1.46838 0
M  V30 5108 O 478.313 1.97974 -0.873805 0
M  V30 5109 C 478.908 -0.229738 -3.3802 0
M  V30 5110 C 477.467 0.14728 -3.76112 0
M  V30 5111 C 476.614 -0.574971 -2.71274 0
M  V30 5112 H 479.565 -0.771773 -1.3867 0
M  V30 5113 H 479.586 0.550316 -3.76499 0
M  V30 5114 H 479.098 -1.27178 -3.66671 0
M  V30 5115 H 477.199 1.19023 -3.53078 0
M  V30 5116 H 477.312 -0.214858 -4.78618 0
M  V30 5117 H 475.676 -0.0174756 -2.54694 0
M  V30 5118 H 476.459 -1.61827 -3.02766 0
M  V30 5119 N 478.904 1.54736 -0.299062 0
M  V30 5120 C 480.15 2.00397 0.311244 0
M  V30 5121 C 480.483 1.18716 1.53688 0
M  V30 5122 O 479.758 0.263154 1.92712 0
M  V30 5123 C 480.041 3.53817 0.669761 0
M  V30 5124 C 479.894 4.46239 -0.564882 0
M  V30 5125 C 481.213 4.13856 1.49702 0
M  V30 5126 H 478.332 0.728493 0.111653 0
M  V30 5127 H 480.974 1.85506 -0.410774 0
M  V30 5128 H 479.124 3.66637 1.28491 0
M  V30 5129 H 480.796 4.45328 -1.20337 0
M  V30 5130 H 479.039 4.16916 -1.19849 0
M  V30 5131 H 479.71 5.5134 -0.269918 0
M  V30 5132 H 482.186 4.04461 0.977284 0
M  V30 5133 H 481.062 5.21365 1.71666 0
M  V30 5134 H 481.323 3.65608 2.48563 0
M  V30 5135 N 480.382 0.0267497 1.57577 0
M  V30 5136 C 481.628 -0.653371 1.91987 0
M  V30 5137 C 481.961 -1.71915 0.903263 0
M  V30 5138 O 481.236 -1.94358 -0.0743387 0
M  V30 5139 C 481.519 -1.272 3.36886 0
M  V30 5140 C 481.372 -0.215938 4.49281 0
M  V30 5141 C 482.691 -2.19069 3.81703 0
M  V30 5142 H 479.81 -0.236047 0.698177 0
M  V30 5143 H 482.452 0.0835236 1.89816 0
M  V30 5144 H 480.602 -1.90005 3.38866 0
M  V30 5145 H 482.274 0.41449 4.59434 0
M  V30 5146 H 480.517 0.458855 4.31366 0
M  V30 5147 H 481.188 -0.688347 5.47691 0
M  V30 5148 H 483.664 -1.66253 3.81444 0
M  V30 5149 H 482.54 -2.59307 4.83788 0
M  V30 5150 H 482.801 -3.08087 3.17072 0
M  V30 5151 N 481.861 -1.55662 -0.24637 0
M  V30 5152 C 482.811 -1.86753 -1.30795 0
M  V30 5153 C 483.795 -0.728445 -1.43466 0
M  V30 5154 O 484.987 -0.99038 -1.46699 0
M  V30 5155 C 482.116 -2.16618 -2.66329 0
M  V30 5156 C 481.202 -3.36855 -2.57661 0
M  V30 5157 N 481.593 -4.56111 -2.18624 0
M  V30 5158 C 479.891 -3.39976 -2.88673 0
M  V30 5159 C 480.592 -5.38247 -2.20601 0
M  V30 5160 N 479.568 -4.77322 -2.60124 0
M  V30 5161 H 483.37 -2.76486 -0.996642 0
M  V30 5162 H 480.884 -1.55896 -0.454994 0
M  V30 5163 H 482.881 -2.37057 -3.42942 0
M  V30 5164 H 481.541 -1.28185 -2.98327 0
M  V30 5165 H 482.552 -4.81726 -1.9016 0
M  V30 5166 H 479.229 -2.61815 -3.25206 0
M  V30 5167 H 480.619 -6.43657 -1.92756 0
M  V30 5168 N 483.339 0.512053 -1.4905 0
M  V30 5169 C 484.75 1.09376 -1.51307 0
M  V30 5170 C 485.101 1.94 -0.292971 0
M  V30 5171 O 484.226 2.07965 0.598277 0
M  V30 5172 C 484.821 1.99031 -2.74176 0
M  V30 5173 C 483.38 2.52385 -2.79247 0
M  V30 5174 C 482.527 1.29749 -2.45073 0
M  V30 5175 H 485.478 0.296467 -1.55906 0
M  V30 5176 H 485.499 2.83569 -2.53711 0
M  V30 5177 H 485.011 1.37412 -3.62959 0
M  V30 5178 H 483.112 3.17673 -1.94716 0
M  V30 5179 H 483.225 2.90293 -3.81139 0
M  V30 5180 H 481.589 1.61912 -1.96612 0
M  V30 5181 H 482.372 0.698555 -3.36118 0
M  V30 5182 N 484.817 1.37938 0.762283 0
M  V30 5183 C 485.767 1.30976 1.86626 0
M  V30 5184 C 486.751 0.195714 1.59705 0
M  V30 5185 O 487.943 0.430937 1.71674 0
M  V30 5186 C 485.072 1.12847 3.24223 0
M  V30 5187 C 484.158 2.28836 3.57064 0
M  V30 5188 N 484.549 3.54256 3.61022 0
M  V30 5189 C 482.847 2.21198 3.87282 0
M  V30 5190 C 483.548 4.30798 3.90881 0
M  V30 5191 N 482.524 3.60049 4.07266 0
M  V30 5192 H 486.326 2.25946 1.87951 0
M  V30 5193 H 483.84 1.31046 0.959206 0
M  V30 5194 H 485.837 1.05943 4.03214 0
M  V30 5195 H 484.497 0.188024 3.24155 0
M  V30 5196 H 485.508 3.8804 3.42995 0
M  V30 5197 H 482.185 1.35264 3.94981 0
M  V30 5198 H 483.575 5.39386 4.00639 0
M  V30 5199 N 486.295 -0.989507 1.22664 0
M  V30 5200 C 487.706 -1.54406 1.04955 0
M  V30 5201 C 488.057 -1.92366 -0.385951 0
M  V30 5202 O 487.182 -1.75111 -1.27142 0
M  V30 5203 C 487.777 -2.80578 1.89899 0
M  V30 5204 C 486.336 -3.32464 1.76478 0
M  V30 5205 C 485.483 -2.05524 1.86159 0
M  V30 5206 H 488.434 -0.810211 1.3646 0
M  V30 5207 H 488.455 -3.53075 1.4184 0
M  V30 5208 H 487.967 -2.52918 2.94371 0
M  V30 5209 H 486.068 -3.65024 0.747528 0
M  V30 5210 H 486.181 -4.02838 2.59342 0
M  V30 5211 H 484.545 -2.19241 1.29636 0
M  V30 5212 H 485.328 -1.80258 2.92168 0
M  V30 5213 N 487.773 -1.03688 -1.18687 0
M  V30 5214 C 488.721 -0.618292 -2.24232 0
M  V30 5215 C 489.715 0.353045 -1.6568 0
M  V30 5216 O 490.921 0.220749 -1.78641 0
M  V30 5217 H 487.296 -0.181711 -0.729716 0
M  V30 5218 H 489.267 -1.51893 -2.56848 0
M  V30 5219 C 488.016 0.00677342 -3.47699 0
M  V30 5220 H 487.339 -0.731692 -3.93047 0
M  V30 5221 H 488.779 0.262492 -4.23187 0
M  V30 5222 C 487.238 1.25572 -3.12623 0
M  V30 5223 O 487.768 2.34691 -3.26011 0
M  V30 5224 N 485.974 1.14755 -2.66982 0
M  V30 5225 H 485.521 0.259601 -2.56289 0
M  V30 5226 H 485.479 1.98412 -2.43885 0
M  V30 5227 N 489.251 1.34841 -0.815825 0
M  V30 5228 C 490.491 2.00321 -0.406297 0
M  V30 5229 C 490.855 1.63293 1.00992 0
M  V30 5230 O 492.056 2.21563 1.52195 0
M  V30 5231 C 490.327 3.52421 -0.594469 0
M  V30 5232 S 491.886 4.37926 -0.276735 0
M  V30 5233 H 488.704 0.694155 -0.153848 0
M  V30 5234 H 491.306 1.64263 -1.06009 0
M  V30 5235 H 490.01 3.76858 -1.625 0
M  V30 5236 H 489.541 3.9333 0.0743157 0
M  V30 5237 H 491.556 4.87743 0.912215 0
M  V30 5238 N 490.729 0.570148 1.46925 0
M  V30 5239 C 491.977 0.0508523 2.02036 0
M  V30 5240 C 492.298 -1.30885 1.44548 0
M  V30 5241 O 491.568 -1.85647 0.625453 0
M  V30 5242 H 490.148 0.0158088 0.746833 0
M  V30 5243 H 492.81 0.743086 1.80178 0
M  V30 5244 H 491.906 -0.027575 3.12088 0
M  V30 5245 N 492.207 -1.54576 0.307264 0
M  V30 5246 C 493.618 -1.8579 -0.184121 0
M  V30 5247 C 493.969 -1.22914 -1.52927 0
M  V30 5248 O 493.094 -0.529126 -2.09831 0
M  V30 5249 C 493.689 -3.37081 -0.340862 0
M  V30 5250 C 492.248 -3.68304 -0.776465 0
M  V30 5251 C 491.395 -2.77076 0.111503 0
M  V30 5252 H 494.346 -1.49656 0.528078 0
M  V30 5253 H 494.367 -3.61922 -1.17443 0
M  V30 5254 H 493.879 -3.82815 0.638309 0
M  V30 5255 H 491.98 -3.28092 -1.76596 0
M  V30 5256 H 492.093 -4.75434 -0.591512 0
M  V30 5257 H 490.457 -2.51374 -0.410256 0
M  V30 5258 H 491.24 -3.25632 1.08714 0
M  V30 5259 N 493.685 -0.035106 -1.57561 0
M  V30 5260 C 495.096 0.502885 -1.798 0
M  V30 5261 C 495.447 1.71892 -0.945921 0
M  V30 5262 O 494.572 2.15822 -0.157991 0
M  V30 5263 C 495.167 0.919097 -3.26095 0
M  V30 5264 C 493.726 1.40216 -3.49308 0
M  V30 5265 C 492.873 0.369709 -2.74824 0
M  V30 5266 H 495.824 -0.261102 -1.56537 0
M  V30 5267 H 495.845 1.78308 -3.36135 0
M  V30 5268 H 495.357 0.0338526 -3.88085 0
M  V30 5269 H 493.458 2.30714 -2.92578 0
M  V30 5270 H 493.571 1.40541 -4.58023 0
M  V30 5271 H 491.935 0.839113 -2.40481 0
M  V30 5272 H 492.718 -0.507173 -3.39533 0
M  V30 5273 N 495.163 1.55791 0.238111 0
M  V30 5274 C 496.073 1.94196 1.31625 0
M  V30 5275 C 497.089 0.843545 1.52185 0
M  V30 5276 O 498.265 1.1457 1.65637 0
M  V30 5277 C 495.33 2.2365 2.64918 0
M  V30 5278 C 494.391 3.46971 2.52804 0
M  V30 5279 C 493.624 3.7501 3.79741 0
M  V30 5280 O 493.847 3.04982 4.82019 0
M  V30 5281 O 492.781 4.68525 3.77846 0
M  V30 5282 H 496.607 2.86044 1.02043 0
M  V30 5283 H 494.192 1.42786 0.439603 0
M  V30 5284 H 496.074 2.43863 3.4367 0
M  V30 5285 H 494.749 1.34979 2.94215 0
M  V30 5286 H 493.656 3.32055 1.72309 0
M  V30 5287 H 494.989 4.35971 2.28451 0
M  V30 5288 N 496.642 -0.504142 1.49319 0
M  V30 5289 C 498.053 -1.08572 1.51885 0
M  V30 5290 C 498.404 -1.93842 0.303255 0
M  V30 5291 O 497.529 -2.0828 -0.58724 0
M  V30 5292 C 498.124 -1.97574 2.75227 0
M  V30 5293 C 496.683 -2.509 2.80581 0
M  V30 5294 C 495.83 -1.28447 2.45757 0
M  V30 5295 H 498.781 -0.288194 1.56061 0
M  V30 5296 H 498.802 -2.82219 2.55211 0
M  V30 5297 H 498.314 -1.35486 3.63683 0
M  V30 5298 H 496.415 -3.16636 1.96398 0
M  V30 5299 H 496.528 -2.88268 3.82673 0
M  V30 5300 H 494.892 -1.60868 1.97468 0
M  V30 5301 H 495.675 -0.68072 3.36483 0
M  V30 5302 N 498.12 -1.38341 -0.754957 0
M  V30 5303 C 499.368 -1.34208 -1.51105 0
M  V30 5304 C 499.689 0.0677634 -1.94882 0
M  V30 5305 O 498.959 1.01517 -1.67544 0
M  V30 5306 H 497.539 -0.493819 -0.560493 0
M  V30 5307 H 500.201 -1.73005 -0.897507 0
M  V30 5308 H 499.297 -1.99203 -2.4026 0
M  V30 5309 N 499.598 0.982988 -1.23187 0
M  V30 5310 C 500.844 1.72648 -1.06398 0
M  V30 5311 C 501.177 1.90066 0.398561 0
M  V30 5312 O 500.452 1.45105 1.29518 0
M  V30 5313 C 500.735 3.12627 -1.78707 0
M  V30 5314 C 500.588 3.02795 -3.32618 0
M  V30 5315 C 501.907 4.11997 -1.54747 0
M  V30 5316 H 499.026 0.626649 -0.387918 0
M  V30 5317 H 501.668 1.14455 -1.51658 0
M  V30 5318 H 499.818 3.62308 -1.40234 0
M  V30 5319 H 501.49 2.60659 -3.80598 0
M  V30 5320 H 499.733 2.39362 -3.61785 0
M  V30 5321 H 500.404 4.01893 -3.78399 0
M  V30 5322 H 502.88 3.71114 -1.88186 0
M  V30 5323 H 501.756 5.08037 -2.07821 0
M  V30 5324 H 502.017 4.39462 -0.482249 0
M  V30 5325 N 501.076 1.04316 1.18135 0
M  V30 5326 C 502.492 0.762858 1.40188 0
M  V30 5327 C 502.692 -0.646547 1.90846 0
M  V30 5328 O 501.748 -1.41036 2.0944 0
M  V30 5329 C 503.061 1.81106 2.40044 0
M  V30 5330 C 504.609 1.83226 2.53766 0
M  V30 5331 C 505.084 2.87044 3.56889 0
M  V30 5332 N 506.575 2.85951 3.64398 0
M  V30 5333 C 507.31 3.62932 4.43923 0
M  V30 5334 N 506.806 4.49672 5.27036 0
M  V30 5335 N 508.599 3.51411 4.38711 0
M  V30 5336 H 500.75 1.95264 0.835805 0
M  V30 5337 H 503.013 0.845017 0.429709 0
M  V30 5338 H 502.719 2.82214 2.09876 0
M  V30 5339 H 502.593 1.64529 3.39426 0
M  V30 5340 H 504.98 0.827869 2.8325 0
M  V30 5341 H 505.061 2.03879 1.54489 0
M  V30 5342 H 504.705 3.87663 3.28145 0
M  V30 5343 H 504.635 2.63645 4.5585 0
M  V30 5344 H 507.126 2.23051 3.05052 0
M  V30 5345 H 507.439 5.05116 5.84874 0
M  V30 5346 H 505.784 4.53738 5.26447 0
M  V30 5347 H 508.975 2.83047 3.72829 0
M  V30 5348 H 509.148 4.11654 5.00445 0
M  V30 5349 N 502.554 -1.34406 0.822964 0
M  V30 5350 C 503.779 -2.0304 0.423034 0
M  V30 5351 C 504.204 -1.61568 -0.963196 0
M  V30 5352 O 503.562 -0.800339 -1.62678 0
M  V30 5353 C 503.61 -3.56636 0.53321 0
M  V30 5354 O 502.714 -4.09971 -0.446939 0
M  V30 5355 H 502.055 -0.64075 0.174171 0
M  V30 5356 H 504.585 -1.71653 1.11339 0
M  V30 5357 H 504.595 -4.05945 0.408991 0
M  V30 5358 H 503.27 -3.86168 1.54425 0
M  V30 5359 H 501.847 -3.71835 -0.281601 0
M  V30 5360 N 504.032 -0.577932 -1.46621 0
M  V30 5361 C 505.279 -0.0616879 -2.02406 0
M  V30 5362 C 505.607 1.29638 -1.44997 0
M  V30 5363 O 504.862 1.86176 -0.60308 0
M  V30 5364 C 505.161 0.0590832 -3.57351 0
M  V30 5365 C 504.827 -1.23077 -4.33777 0
M  V30 5366 C 503.489 -1.58416 -4.54376 0
M  V30 5367 C 505.841 -2.08457 -4.77698 0
M  V30 5368 C 503.169 -2.78943 -5.16147 0
M  V30 5369 C 505.521 -3.28204 -5.408 0
M  V30 5370 C 504.185 -3.63832 -5.59627 0
M  V30 5371 H 503.455 -0.0225732 -0.740656 0
M  V30 5372 H 506.102 -0.753609 -1.76048 0
M  V30 5373 H 504.407 0.834104 -3.82818 0
M  V30 5374 H 506.104 0.474202 -3.98186 0
M  V30 5375 H 502.694 -0.945652 -4.18038 0
M  V30 5376 H 506.878 -1.82459 -4.61544 0
M  V30 5377 H 502.134 -3.06689 -5.28916 0
M  V30 5378 H 506.308 -3.94634 -5.73792 0
M  V30 5379 H 503.935 -4.57315 -6.07262 0
M  V30 5380 N 505.51 1.54411 -0.315457 0
M  V30 5381 C 506.758 2.00023 0.288971 0
M  V30 5382 C 507.079 1.20529 1.5329 0
M  V30 5383 O 506.349 0.304986 1.93511 0
M  V30 5384 H 504.929 0.738891 0.109766 0
M  V30 5385 H 507.591 1.90094 -0.430129 0
M  V30 5386 H 506.687 3.07198 0.550999 0
M  V30 5387 N 506.988 0.0434614 1.5754 0
M  V30 5388 C 508.235 -0.632035 1.92384 0
M  V30 5389 C 508.563 -1.71304 0.921157 0
M  V30 5390 O 507.818 -1.95583 -0.067744 0
M  V30 5391 C 508.117 -1.2738 3.3393 0
M  V30 5392 C 507.783 -0.321757 4.49751 0
M  V30 5393 C 506.445 -0.0597611 4.81163 0
M  V30 5394 C 508.797 0.331158 5.20147 0
M  V30 5395 C 506.125 0.862715 5.80322 0
M  V30 5396 C 508.477 1.24178 6.20292 0
M  V30 5397 C 507.141 1.51252 6.50138 0
M  V30 5398 H 506.411 -0.231278 0.703983 0
M  V30 5399 H 509.058 0.108294 1.91194 0
M  V30 5400 H 507.363 -2.08921 3.3145 0
M  V30 5401 H 509.06 -1.80326 3.58167 0
M  V30 5402 H 505.65 -0.53614 4.25233 0
M  V30 5403 H 509.834 0.141826 4.96097 0
M  V30 5404 H 505.09 1.08003 6.01785 0
M  V30 5405 H 509.264 1.75381 6.73954 0
M  V30 5406 H 506.891 2.22897 7.26788 0
M  V30 5407 N 508.466 -1.55915 -0.229846 0
M  V30 5408 C 509.877 -1.68809 -0.797531 0
M  V30 5409 C 510.228 -0.643995 -1.8533 0
M  V30 5410 O 509.353 0.206492 -2.15413 0
M  V30 5411 C 509.948 -3.06043 -1.45338 0
M  V30 5412 C 508.507 -3.20819 -1.96856 0
M  V30 5413 C 507.654 -2.6472 -0.825736 0
M  V30 5414 H 510.605 -1.58699 -0.00533733 0
M  V30 5415 H 510.626 -3.01438 -2.32196 0
M  V30 5416 H 510.138 -3.82012 -0.684743 0
M  V30 5417 H 508.239 -2.49704 -2.76548 0
M  V30 5418 H 508.352 -4.27937 -2.15423 0
M  V30 5419 H 506.716 -2.22985 -1.23084 0
M  V30 5420 H 507.499 -3.43229 -0.0699019 0
M  V30 5421 N 509.944 0.496216 -1.49584 0
M  V30 5422 C 511.221 1.25755 -1.49816 0
M  V30 5423 C 511.601 2.09859 -0.228572 0
M  V30 5424 O 510.949 2.14449 0.788908 0
M  V30 5425 C 511.159 2.11017 -2.7798 0
M  V30 5426 C 512.507 2.70047 -3.27658 0
M  V30 5427 O 513.531 2.21281 -2.79129 0
M  V30 5428 O 512.39 3.58834 -4.1219 0
M  V30 5429 H 509.484 0.569322 -0.599834 0
M  V30 5430 H 512.03 0.510094 -1.61852 0
M  V30 5431 H 510.802 1.48879 -3.61871 0
M  V30 5432 H 510.425 2.92947 -2.68827 0
M  V30 5433 N 511.423 1.38739 0.74761 0
M  V30 5434 C 512.834 1.31507 1.32524 0
M  V30 5435 C 513.185 -0.0263963 1.96182 0
M  V30 5436 O 512.31 -0.92849 1.95469 0
M  V30 5437 C 512.905 2.38162 2.40966 0
M  V30 5438 C 511.464 2.34489 2.94434 0
M  V30 5439 C 510.611 2.20712 1.67873 0
M  V30 5440 H 513.562 1.4901 0.546043 0
M  V30 5441 H 513.583 2.04222 3.21051 0
M  V30 5442 H 513.095 3.35783 1.94605 0
M  V30 5443 H 511.196 1.40467 3.45108 0
M  V30 5444 H 511.309 3.28861 3.48407 0
M  V30 5445 H 509.673 1.67667 1.91729 0
M  V30 5446 H 510.456 3.20285 1.23582 0
M  V30 5447 N 512.901 -0.976442 1.23707 0
M  V30 5448 C 513.833 -2.07212 0.979574 0
M  V30 5449 C 514.846 -1.6273 -0.0478528 0
M  V30 5450 O 516.035 -1.77506 0.18815 0
M  V30 5451 C 513.135 -3.35835 0.45479 0
M  V30 5452 C 512.308 -4.09268 1.54331 0
M  V30 5453 C 511.367 -5.16166 1.02271 0
M  V30 5454 O 510.393 -5.42827 1.71254 0
M  V30 5455 N 511.595 -5.80313 -0.147419 0
M  V30 5456 H 514.36 -2.29878 1.92292 0
M  V30 5457 H 511.921 -1.14343 1.14618 0
M  V30 5458 H 513.913 -4.04597 0.0914631 0
M  V30 5459 H 512.483 -3.10106 -0.394068 0
M  V30 5460 H 511.703 -3.34906 2.07923 0
M  V30 5461 H 512.991 -4.55095 2.27522 0
M  V30 5462 H 512.389 -5.61043 -0.724353 0
M  V30 5463 H 510.946 -6.50231 -0.451972 0
M  V30 5464 N 514.379 -1.04941 -1.1758 0
M  V30 5465 C 515.604 -0.778253 -1.92245 0
M  V30 5466 C 516.029 0.659707 -1.76152 0
M  V30 5467 O 515.387 1.45803 -1.07755 0
M  V30 5468 C 515.435 -1.16051 -3.41416 0
M  V30 5469 O 514.539 -0.291153 -4.11371 0
M  V30 5470 H 513.88 -0.285619 -0.599431 0
M  V30 5471 H 516.41 -1.40159 -1.49052 0
M  V30 5472 H 516.42 -1.12619 -3.92149 0
M  V30 5473 H 515.095 -2.208 -3.52449 0
M  V30 5474 H 513.672 -0.385851 -3.70898 0
M  V30 5475 N 515.857 1.33968 -0.830081 0
M  V30 5476 C 517.273 1.51003 -0.516742 0
M  V30 5477 C 517.473 1.77286 0.957694 0
M  V30 5478 O 516.529 1.82797 1.74188 0
M  V30 5479 C 517.842 2.67036 -1.38247 0
M  V30 5480 C 519.39 2.80919 -1.38034 0
M  V30 5481 C 519.865 4.00004 -2.23071 0
M  V30 5482 N 521.356 4.07224 -2.20733 0
M  V30 5483 C 522.091 4.98541 -2.83275 0
M  V30 5484 N 521.587 5.95033 -3.54835 0
M  V30 5485 N 523.38 4.91469 -2.72791 0
M  V30 5486 H 515.531 1.15168 -1.78466 0
M  V30 5487 H 517.794 0.565443 -0.760906 0
M  V30 5488 H 517.5 2.54266 -2.42985 0
M  V30 5489 H 517.374 3.62226 -1.05225 0
M  V30 5490 H 519.761 2.93127 -0.340713 0
M  V30 5491 H 519.842 1.86517 -1.75057 0
M  V30 5492 H 519.486 3.88557 -3.27087 0
M  V30 5493 H 519.416 4.93634 -1.83394 0
M  V30 5494 H 521.907 3.38162 -1.68687 0
M  V30 5495 H 522.22 6.61357 -3.99784 0
M  V30 5496 H 520.565 5.95135 -3.58942 0
M  V30 5497 H 523.756 4.15048 -2.16456 0
M  V30 5498 H 523.929 5.62439 -3.21818 0
M  V30 5499 N 517.335 0.585699 1.46312 0
M  V30 5500 C 518.265 -0.133556 2.33118 0
M  V30 5501 C 519.246 -0.880707 1.45525 0
M  V30 5502 O 520.431 -0.855579 1.74337 0
M  V30 5503 C 517.561 -1.14585 3.27853 0
M  V30 5504 C 516.515 -0.513341 4.2491 0
M  V30 5505 C 515.841 -1.63231 5.09175 0
M  V30 5506 C 517.141 0.551413 5.19381 0
M  V30 5507 H 518.835 0.59121 2.93505 0
M  V30 5508 H 516.381 0.285761 1.41136 0
M  V30 5509 H 518.334 -1.65741 3.87438 0
M  V30 5510 H 517.058 -1.90093 2.65579 0
M  V30 5511 H 515.717 -0.0228349 3.66593 0
M  V30 5512 H 515.365 -2.37713 4.43285 0
M  V30 5513 H 515.065 -1.21473 5.74907 0
M  V30 5514 H 516.589 -2.14658 5.71624 0
M  V30 5515 H 518.003 0.124804 5.73164 0
M  V30 5516 H 516.4 0.889486 5.93471 0
M  V30 5517 H 517.47 1.43655 4.63132 0
M  V30 5518 N 518.813 -1.54241 0.323641 0
M  V30 5519 C 520.043 -2.04687 -0.280464 0
M  V30 5520 C 520.451 -1.19939 -1.46326 0
M  V30 5521 O 519.794 -0.222872 -1.82343 0
M  V30 5522 C 519.856 -3.50978 -0.778123 0
M  V30 5523 C 519.52 -4.56127 0.282371 0
M  V30 5524 C 520.517 -5.07726 1.11847 0
M  V30 5525 C 518.202 -5.00451 0.430582 0
M  V30 5526 C 520.196 -6.02212 2.08851 0
M  V30 5527 C 517.883 -5.94752 1.40404 0
M  V30 5528 C 518.881 -6.45519 2.23147 0
M  V30 5529 O 518.569 -7.37968 3.1884 0
M  V30 5530 H 518.301 -0.673192 -0.0615473 0
M  V30 5531 H 520.855 -1.99999 0.467921 0
M  V30 5532 H 519.085 -3.53064 -1.57742 0
M  V30 5533 H 520.774 -3.84499 -1.30058 0
M  V30 5534 H 521.54 -4.74261 1.01496 0
M  V30 5535 H 517.419 -4.6055 -0.203569 0
M  V30 5536 H 520.963 -6.41761 2.73474 0
M  V30 5537 H 516.86 -6.27633 1.5082 0
M  V30 5538 H 517.628 -7.55841 3.14079 0
M  V30 5539 N 520.291 -0.0518155 -1.57515 0
M  V30 5540 C 521.539 0.620595 -1.92336 0
M  V30 5541 C 521.86 1.71345 -0.930907 0
M  V30 5542 O 521.13 1.95885 0.0241341 0
M  V30 5543 H 519.71 0.232226 -0.709986 0
M  V30 5544 H 522.372 -0.104969 -1.94617 0
M  V30 5545 H 521.468 1.05879 -2.93592 0
M  V30 5546 N 521.769 1.56035 0.221574 0
M  V30 5547 C 523.015 1.79312 0.947372 0
M  V30 5548 C 523.348 0.621453 1.83988 0
M  V30 5549 O 522.623 -0.379287 1.90766 0
M  V30 5550 C 522.906 3.1267 1.78633 0
M  V30 5551 C 522.759 4.40284 0.920312 0
M  V30 5552 C 524.078 3.4247 2.7641 0
M  V30 5553 H 521.197 0.652328 0.342982 0
M  V30 5554 H 523.839 1.88765 0.216244 0
M  V30 5555 H 521.989 3.04741 2.40967 0
M  V30 5556 H 523.661 4.60232 0.313718 0
M  V30 5557 H 521.904 4.33212 0.225734 0
M  V30 5558 H 522.575 5.30033 1.54171 0
M  V30 5559 H 525.051 3.50526 2.24211 0
M  V30 5560 H 523.927 4.3695 3.32213 0
M  V30 5561 H 524.188 2.64635 3.54148 0
M  V30 5562 N 523.247 -0.488276 1.49845 0
M  V30 5563 C 524.477 -1.26344 1.63465 0
M  V30 5564 C 524.885 -1.86637 0.310379 0
M  V30 5565 O 524.228 -1.69184 -0.715712 0
M  V30 5566 C 524.29 -2.42407 2.65479 0
M  V30 5567 C 523.954 -2.02886 4.09495 0
M  V30 5568 C 524.951 -1.56124 4.95904 0
M  V30 5569 C 522.636 -2.12131 4.55308 0
M  V30 5570 C 524.63 -1.19129 6.26169 0
M  V30 5571 C 522.317 -1.74747 5.85582 0
M  V30 5572 C 523.315 -1.28322 6.70837 0
M  V30 5573 O 523.003 -0.914491 7.98682 0
M  V30 5574 H 522.735 -0.388921 0.552916 0
M  V30 5575 H 525.289 -0.591288 1.96705 0
M  V30 5576 H 523.519 -3.12739 2.27445 0
M  V30 5577 H 525.208 -3.04409 2.68495 0
M  V30 5578 H 525.974 -1.48417 4.61733 0
M  V30 5579 H 521.853 -2.47217 3.89107 0
M  V30 5580 H 525.397 -0.828211 6.92666 0
M  V30 5581 H 521.294 -1.82109 6.19279 0
M  V30 5582 H 522.062 -1.04485 8.11804 0
M  V30 5583 N 524.725 -1.39134 -0.740242 0
M  V30 5584 C 525.965 -1.37499 -1.51239 0
M  V30 5585 C 526.329 0.0310084 -1.91975 0
M  V30 5586 O 527.53 0.172319 -2.68247 0
M  V30 5587 C 525.801 -2.31566 -2.72235 0
M  V30 5588 S 527.36 -2.48073 -3.61947 0
M  V30 5589 H 524.178 -0.48768 -0.517387 0
M  V30 5590 H 526.78 -1.75183 -0.867826 0
M  V30 5591 H 525.484 -3.32592 -2.40439 0
M  V30 5592 H 525.015 -1.9508 -3.41625 0
M  V30 5593 H 527.03 -1.71473 -4.6563 0
M  V30 5594 N 526.204 0.969867 -1.24223 0
M  V30 5595 C 527.434 1.74502 -1.106 0
M  V30 5596 C 527.842 1.86038 0.344483 0
M  V30 5597 O 527.185 1.3465 1.24961 0
M  V30 5598 C 527.247 3.18391 -1.66935 0
M  V30 5599 C 526.911 3.30334 -3.15798 0
M  V30 5600 C 527.908 3.15832 -4.12973 0
M  V30 5601 C 525.593 3.54644 -3.55715 0
M  V30 5602 C 527.587 3.25461 -5.48045 0
M  V30 5603 C 525.274 3.63912 -4.90929 0
M  V30 5604 C 526.272 3.49332 -5.86904 0
M  V30 5605 O 525.96 3.58251 -7.1966 0
M  V30 5606 H 525.692 0.554119 -0.387206 0
M  V30 5607 H 528.246 1.22646 -1.64764 0
M  V30 5608 H 526.476 3.71543 -1.07203 0
M  V30 5609 H 528.165 3.77707 -1.48634 0
M  V30 5610 H 528.931 2.96937 -3.83476 0
M  V30 5611 H 524.81 3.65059 -2.81519 0
M  V30 5612 H 528.354 3.13998 -6.22937 0
M  V30 5613 H 524.251 3.82319 -5.20098 0
M  V30 5614 H 525.019 3.7498 -7.27552 0
M  V30 5615 N 527.682 1.05563 1.17022 0
M  V30 5616 C 529.098 0.777684 1.39371 0
M  V30 5617 C 529.298 -0.626269 1.91521 0
M  V30 5618 O 528.354 -1.38806 2.10924 0
M  V30 5619 C 529.667 1.83642 2.3811 0
M  V30 5620 C 531.215 1.85907 2.51809 0
M  V30 5621 C 531.69 2.90813 3.53824 0
M  V30 5622 N 533.181 2.898 3.61345 0
M  V30 5623 C 533.916 3.6762 4.40049 0
M  V30 5624 N 533.412 4.55237 5.22237 0
M  V30 5625 N 535.205 3.56044 4.34959 0
M  V30 5626 H 527.356 1.9614 0.815047 0
M  V30 5627 H 529.619 0.849527 0.420722 0
M  V30 5628 H 529.325 2.84425 2.06871 0
M  V30 5629 H 529.199 1.6812 3.37662 0
M  V30 5630 H 531.586 0.857865 2.82356 0
M  V30 5631 H 531.667 2.05506 1.52318 0
M  V30 5632 H 531.311 3.91122 3.24015 0
M  V30 5633 H 531.241 2.68465 4.53028 0
M  V30 5634 H 533.732 2.26274 3.02669 0
M  V30 5635 H 534.045 5.11291 5.79484 0
M  V30 5636 H 532.39 4.59296 5.21605 0
M  V30 5637 H 535.581 2.86986 3.69806 0
M  V30 5638 H 535.754 4.16938 4.96051 0
M  V30 5639 N 529.16 -1.33526 0.837174 0
M  V30 5640 C 530.092 -2.28077 0.226579 0
M  V30 5641 C 531.105 -1.51666 -0.591717 0
M  V30 5642 O 532.294 -1.73511 -0.419064 0
M  V30 5643 C 529.394 -3.31597 -0.69978 0
M  V30 5644 C 528.567 -4.37329 0.0788067 0
M  V30 5645 C 527.626 -5.20526 -0.770637 0
M  V30 5646 O 526.652 -5.68811 -0.210453 0
M  V30 5647 N 527.854 -5.41639 -2.08825 0
M  V30 5648 H 530.619 -2.81115 1.03897 0
M  V30 5649 H 528.18 -1.46201 0.695476 0
M  V30 5650 H 530.172 -3.84158 -1.27298 0
M  V30 5651 H 528.742 -2.78848 -1.41288 0
M  V30 5652 H 527.962 -3.8529 0.833381 0
M  V30 5653 H 529.25 -5.05079 0.614238 0
M  V30 5654 H 528.648 -5.04108 -2.56693 0
M  V30 5655 H 527.205 -5.97263 -2.60998 0
M  V30 5656 N 530.638 -0.59345 -1.46 0
M  V30 5657 C 531.588 0.154751 -2.27474 0
M  V30 5658 C 532.572 0.851849 -1.365 0
M  V30 5659 O 533.764 0.744171 -1.60596 0
M  V30 5660 C 530.893 1.16079 -3.2308 0
M  V30 5661 C 529.979 0.465256 -4.2154 0
M  V30 5662 N 530.37 -0.485197 -5.03467 0
M  V30 5663 C 528.668 0.714634 -4.40237 0
M  V30 5664 C 529.369 -0.892709 -5.74809 0
M  V30 5665 N 528.345 -0.239511 -5.43072 0
M  V30 5666 H 532.147 -0.57546 -2.88211 0
M  V30 5667 H 529.661 -0.416046 -1.5698 0
M  V30 5668 H 531.658 1.71108 -3.80168 0
M  V30 5669 H 530.318 1.89171 -2.63903 0
M  V30 5670 H 531.329 -0.861258 -5.10689 0
M  V30 5671 H 528.006 1.43131 -3.92199 0
M  V30 5672 H 529.396 -1.67581 -6.50666 0
M  V30 5673 O 532.155 1.54388 -0.473979 0
M  V30 5674 H 532.846 1.93634 0.0506067 0
M  V30 END ATOM
M  V30 BEGIN BOND
M  V30 END BOND
M  V30 END CTAB
M  END
$$$$
