drugbank_target|Q98GN8 Cyclic nucleotide-gated potassium channel mll3241 (DB02527; DB04147)
 OpenBabel12092120253D

  0  0  0     0  0            999 V3000
M  V30 BEGIN CTAB
M  V30 COUNTS 5437 5496 0 0 0
M  V30 BEGIN ATOM
M  V30 1 H -0.908 1.98254 -0.117106 0
M  V30 2 N 0 1.576 0 0
M  V30 3 C 0.933 2.03868 1.02534 0
M  V30 4 C 1.911 0.928543 1.3348 0
M  V30 5 O 3.095 1.19667 1.45644 0
M  V30 6 C 0.222 2.43627 2.35294 0
M  V30 7 C -0.732 3.65373 2.2001 0
M  V30 8 S 0.101 5.13292 1.52614 0
M  V30 9 C 1.257 5.56322 2.86805 0
M  V30 10 H 1.49 2.90518 0.631377 0
M  V30 11 H -0.977 1.52953 0.210867 0
M  V30 12 H 0.981 2.67203 3.11629 0
M  V30 13 H -0.358 1.57376 2.7183 0
M  V30 14 H -1.165 3.90944 3.18086 0
M  V30 15 H -1.563 3.418 1.51819 0
M  V30 16 H 0.729 5.58782 3.83104 0
M  V30 17 H 1.672 6.56266 2.65933 0
M  V30 18 H 2.08 4.83886 2.90714 0
M  V30 19 N 1.4781 -0.272755 1.55222 0
M  V30 20 C 2.7031 -1.02683 1.80197 0
M  V30 21 C 3.1281 -1.79142 0.573551 0
M  V30 22 O 2.4861 -1.74917 -0.476849 0
M  V30 23 C 2.5341 -1.9609 3.02624 0
M  V30 24 O 1.6381 -3.04863 2.77727 0
M  V30 25 H 0.9791 -0.293557 0.595584 0
M  V30 26 H 3.5091 -0.30159 2.02365 0
M  V30 27 H 3.5191 -2.38039 3.31363 0
M  V30 28 H 2.1941 -1.39851 3.91682 0
M  V30 29 H 0.7711 -2.67228 2.60084 0
M  V30 30 N 2.9562 -1.48159 -0.537278 0
M  V30 31 C 4.2022 -1.56035 -1.29541 0
M  V30 32 C 4.5352 -0.230377 -1.92829 0
M  V30 33 O 3.8102 0.762952 -1.78911 0
M  V30 34 C 4.0932 -2.69323 -2.39034 0
M  V30 35 C 3.9462 -4.12002 -1.80485 0
M  V30 36 C 5.2652 -2.78408 -3.40847 0
M  V30 37 H 2.3842 -0.567992 -0.469632 0
M  V30 38 H 5.0262 -1.80302 -0.599277 0
M  V30 39 H 3.1762 -2.48763 -2.98412 0
M  V30 40 H 4.8482 -4.43981 -1.25215 0
M  V30 41 H 3.0912 -4.19344 -1.11055 0
M  V30 42 H 3.7622 -4.87077 -2.59731 0
M  V30 43 H 6.2382 -2.97012 -2.91416 0
M  V30 44 H 5.1142 -3.59416 -4.14863 0
M  V30 45 H 5.3752 -1.86269 -4.00944 0
M  V30 46 N 4.4343 0.785586 -1.36625 0
M  V30 47 C 5.3643 1.91259 -1.33949 0
M  V30 48 C 6.3453 1.68795 -0.210325 0
M  V30 49 O 7.5303 1.89854 -0.408561 0
M  V30 50 C 4.6603 3.28339 -1.13186 0
M  V30 51 C 3.6143 3.65335 -2.22967 0
M  V30 52 C 2.9403 5.00806 -1.87342 0
M  V30 53 C 4.2403 3.7352 -3.65075 0
M  V30 54 H 5.9343 1.93755 -2.28253 0
M  V30 55 H 3.4803 0.930788 -1.09874 0
M  V30 56 H 5.4333 4.06804 -1.09948 0
M  V30 57 H 4.1573 3.2624 -0.153332 0
M  V30 58 H 2.8163 2.89169 -2.25337 0
M  V30 59 H 2.4643 4.95233 -0.880545 0
M  V30 60 H 2.1643 5.26529 -2.60846 0
M  V30 61 H 3.6883 5.81687 -1.85667 0
M  V30 62 H 5.1023 4.42168 -3.64911 0
M  V30 63 H 3.4993 4.10731 -4.37516 0
M  V30 64 H 4.5693 2.74527 -3.99703 0
M  V30 65 N 5.9124 1.20967 1.01018 0
M  V30 66 C 7.3234 1.02319 1.56165 0
M  V30 67 C 7.6744 -0.418546 1.91684 0
M  V30 68 O 6.7994 -1.30096 1.72928 0
M  V30 69 C 7.3944 1.85109 2.8376 0
M  V30 70 C 5.9534 1.70809 3.35412 0
M  V30 71 C 5.1004 1.82643 2.08655 0
M  V30 72 H 8.0514 1.35065 0.833255 0
M  V30 73 H 8.0724 1.35827 3.55431 0
M  V30 74 H 7.5844 2.90035 2.57878 0
M  V30 75 H 5.6854 0.685464 3.66241 0
M  V30 76 H 5.7984 2.52467 4.07182 0
M  V30 77 H 4.1624 1.25896 2.21409 0
M  V30 78 H 4.9454 2.89066 1.85191 0
M  V30 79 N 7.3905 -1.2043 1.01659 0
M  V30 80 C 8.6375 -1.89797 0.705917 0
M  V30 81 C 8.9655 -1.78848 -0.764439 0
M  V30 82 O 8.2205 -1.16694 -1.57102 0
M  V30 83 C 8.5195 -3.40464 1.08714 0
M  V30 84 C 8.1855 -3.71614 2.5537 0
M  V30 85 C 6.8475 -3.79826 2.95441 0
M  V30 86 C 9.1995 -3.85915 3.50313 0
M  V30 87 C 6.5275 -3.99797 4.29394 0
M  V30 88 C 8.8795 -4.07396 4.83954 0
M  V30 89 C 7.5435 -4.13837 5.23732 0
M  V30 90 H 6.8135 -0.694518 0.258313 0
M  V30 91 H 9.4605 -1.42691 1.27717 0
M  V30 92 H 7.7655 -3.89385 0.434309 0
M  V30 93 H 9.4625 -3.92433 0.824461 0
M  V30 94 H 6.0525 -3.65822 2.23321 0
M  V30 95 H 10.2365 -3.78926 3.20513 0
M  V30 96 H 5.4925 -4.03018 4.59768 0
M  V30 97 H 9.6665 -4.17404 5.57447 0
M  V30 98 H 7.2935 -4.29064 6.27541 0
M  V30 99 N 8.8686 -0.792821 -1.36206 0
M  V30 100 C 9.7986 -0.207853 -2.32573 0
M  V30 101 C 10.7796 0.659055 -1.56813 0
M  V30 102 O 11.9646 0.592176 -1.84951 0
M  V30 103 C 9.0946 0.655449 -3.41059 0
M  V30 104 C 8.0486 -0.111842 -4.27854 0
M  V30 105 C 7.3746 0.872274 -5.27537 0
M  V30 106 C 8.6746 -1.30299 -5.05786 0
M  V30 107 H 10.3686 -1.01294 -2.81744 0
M  V30 108 H 7.9146 -0.48854 -1.3546 0
M  V30 109 H 9.8676 1.07464 -4.07467 0
M  V30 110 H 8.5916 1.49328 -2.90463 0
M  V30 111 H 7.2506 -0.512053 -3.63006 0
M  V30 112 H 6.8986 1.70523 -4.73214 0
M  V30 113 H 6.5986 0.363291 -5.86476 0
M  V30 114 H 8.1226 1.28996 -5.96818 0
M  V30 115 H 9.5366 -0.959379 -5.65216 0
M  V30 116 H 7.9336 -1.7455 -5.74154 0
M  V30 117 H 9.0036 -2.09663 -4.37229 0
M  V30 118 N 10.3467 1.47872 -0.545128 0
M  V30 119 C 11.7627 1.5829 -0.204032 0
M  V30 120 C 11.9627 1.54529 1.29317 0
M  V30 121 O 11.0187 1.44232 2.07252 0
M  V30 122 C 12.3317 2.89304 -0.819987 0
M  V30 123 C 13.8797 3.02864 -0.790105 0
M  V30 124 C 14.3547 4.3656 -1.38491 0
M  V30 125 N 15.8457 4.43165 -1.34755 0
M  V30 126 C 16.5807 5.45153 -1.77753 0
M  V30 127 N 16.0767 6.54016 -2.2855 0
M  V30 128 N 17.8697 5.36125 -1.68897 0
M  V30 129 H 10.0207 1.4856 -1.51802 0
M  V30 130 H 12.2837 0.706305 -0.632327 0
M  V30 131 H 11.9897 2.97757 -1.87173 0
M  V30 132 H 11.8637 3.75957 -0.305915 0
M  V30 133 H 14.2507 2.94014 0.252913 0
M  V30 134 H 14.3317 2.17782 -1.34181 0
M  V30 135 H 13.9757 4.46164 -2.42693 0
M  V30 136 H 13.9057 5.20353 -0.808754 0
M  V30 137 H 16.3967 3.65083 -0.975855 0
M  V30 138 H 16.7097 7.27994 -2.59314 0
M  V30 139 H 15.0547 6.54938 -2.32553 0
M  V30 140 H 18.2457 4.49975 -1.28998 0
M  V30 141 H 18.4187 6.15472 -2.02726 0
M  V30 142 N 11.8248 0.280983 1.55075 0
M  V30 143 C 13.0738 -0.334784 1.98902 0
M  V30 144 C 13.3868 -1.56534 1.17288 0
M  V30 145 O 14.5928 -2.25443 1.51287 0
M  V30 146 C 13.0488 -0.646994 3.54037 0
M  V30 147 C 12.6568 0.564085 4.44435 0
M  V30 148 C 14.4008 -1.22506 4.06439 0
M  V30 149 C 12.3078 0.226137 5.90967 0
M  V30 150 H 11.2378 -0.128866 0.742906 0
M  V30 151 H 13.8888 0.386556 1.79382 0
M  V30 152 H 12.2708 -1.42739 3.6938 0
M  V30 153 H 13.4448 1.34082 4.40861 0
M  V30 154 H 11.7598 1.0594 4.02698 0
M  V30 155 H 14.3568 -1.49182 5.13468 0
M  V30 156 H 14.6998 -2.16085 3.55827 0
M  V30 157 H 15.2328 -0.50682 3.94558 0
M  V30 158 H 11.9718 1.12996 6.45687 0
M  V30 159 H 11.4918 -0.513717 5.97596 0
M  V30 160 H 13.1708 -0.179539 6.46751 0
M  V30 161 N 13.3029 -1.57598 0.00835791 0
M  V30 162 C 14.5329 -1.94931 -0.684496 0
M  V30 163 C 14.9409 -0.882233 -1.67372 0
M  V30 164 O 14.2839 0.146621 -1.83114 0
M  V30 165 C 14.3459 -3.283 -1.4649 0
M  V30 166 C 14.0099 -4.52548 -0.63634 0
M  V30 167 C 15.0069 -5.19839 0.0795586 0
M  V30 168 C 12.6919 -4.98942 -0.579849 0
M  V30 169 C 14.6859 -6.3183 0.840843 0
M  V30 170 C 12.3729 -6.10819 0.185155 0
M  V30 171 C 13.3709 -6.77121 0.894227 0
M  V30 172 O 13.0589 -7.86853 1.64673 0
M  V30 173 H 12.7909 -0.647249 -0.19505 0
M  V30 174 H 15.3449 -2.05318 0.0581272 0
M  V30 175 H 13.5749 -3.14345 -2.2522 0
M  V30 176 H 15.2639 -3.50685 -2.04389 0
M  V30 177 H 16.0299 -4.84979 0.0451202 0
M  V30 178 H 11.9089 -4.47155 -1.1213 0
M  V30 179 H 15.4529 -6.83513 1.39483 0
M  V30 180 H 11.3499 -6.4512 0.221384 0
M  V30 181 H 12.1179 -8.03412 1.56432 0
M  V30 182 N 14.781 0.264519 -1.55364 0
M  V30 183 C 15.744 1.31046 -1.88042 0
M  V30 184 C 16.744 1.41943 -0.755569 0
M  V30 185 O 17.934 1.40947 -1.02369 0
M  V30 186 C 15.066 2.69067 -2.09323 0
M  V30 187 H 16.259 1.03297 -2.81549 0
M  V30 188 H 13.812 0.502989 -1.47986 0
M  V30 189 H 14.547 3.01982 -1.18226 0
M  V30 190 H 14.332 2.62542 -2.91229 0
M  V30 191 H 15.822 3.44623 -2.35848 0
M  V30 192 N 16.2591 1.48442 0.529413 0
M  V30 193 C 17.6701 1.5002 1.11134 0
M  V30 194 C 18.0211 0.27031 1.94329 0
M  V30 195 O 17.1461 -0.622507 2.07253 0
M  V30 196 C 17.7411 2.71834 2.02217 0
M  V30 197 C 16.3001 2.76283 2.55627 0
M  V30 198 C 15.4471 2.43542 1.326 0
M  V30 199 H 18.3981 1.5555 0.314641 0
M  V30 200 H 18.4191 2.50384 2.8651 0
M  V30 201 H 17.9311 3.61331 1.41639 0
M  V30 202 H 16.0321 1.90995 3.19924 0
M  V30 203 H 16.1451 3.77725 2.94721 0
M  V30 204 H 14.5091 1.94709 1.64196 0
M  V30 205 H 15.2921 3.3528 0.737734 0
M  V30 206 N 17.7372 -0.778329 1.37039 0
M  V30 207 C 18.6672 -1.90546 1.34962 0
M  V30 208 C 19.6482 -1.68681 0.219274 0
M  V30 209 O 20.8332 -1.89634 0.418624 0
M  V30 210 C 17.9632 -3.27734 1.14925 0
M  V30 211 C 16.9172 -3.64147 2.24902 0
M  V30 212 C 16.2432 -4.99806 1.89996 0
M  V30 213 C 17.5432 -3.71579 3.67051 0
M  V30 214 H 19.2372 -1.92541 2.29277 0
M  V30 215 H 16.7832 -0.924948 1.10366 0
M  V30 216 H 18.7362 -4.06215 1.12104 0
M  V30 217 H 17.4602 -3.26154 0.170631 0
M  V30 218 H 16.1192 -2.8797 2.26868 0
M  V30 219 H 15.7672 -4.94759 0.906796 0
M  V30 220 H 15.4672 -5.25139 2.63634 0
M  V30 221 H 16.9912 -5.80694 1.88749 0
M  V30 222 H 18.4052 -4.40227 3.67251 0
M  V30 223 H 16.8022 -4.08405 4.39688 0
M  V30 224 H 17.8722 -2.72404 4.01154 0
M  V30 225 N 19.2153 -1.21501 -1.00376 0
M  V30 226 C 20.1633 -0.972442 -2.11297 0
M  V30 227 C 21.1573 0.080731 -1.69208 0
M  V30 228 O 22.3633 -0.0707666 -1.79861 0
M  V30 229 H 18.7383 -0.297218 -0.690772 0
M  V30 230 H 20.7093 -1.91394 -2.28934 0
M  V30 231 C 19.4583 -0.555065 -3.43241 0
M  V30 232 H 18.7813 -1.35709 -3.76062 0
M  V30 233 H 20.2213 -0.424664 -4.21868 0
M  V30 234 C 18.6803 0.734147 -3.28804 0
M  V30 235 O 19.2103 1.78937 -3.59645 0
M  V30 236 N 17.4163 0.701133 -2.82015 0
M  V30 237 H 16.9633 -0.157874 -2.57116 0
M  V30 238 H 16.9213 1.56403 -2.72737 0
M  V30 239 N 20.6934 1.19889 -1.02296 0
M  V30 240 C 21.6564 2.21116 -0.603351 0
M  V30 241 C 22.6564 1.5738 0.329884 0
M  V30 242 O 23.8464 1.73802 0.117702 0
M  V30 243 C 20.9784 3.40696 0.117992 0
M  V30 244 H 22.1714 2.59754 -1.49893 0
M  V30 245 H 19.7244 1.33463 -0.813468 0
M  V30 246 H 20.4594 3.07569 1.0282 0
M  V30 247 H 20.2444 3.88188 -0.552511 0
M  V30 248 H 21.7344 4.15692 0.398696 0
M  V30 249 N 22.1715 0.800033 1.35784 0
M  V30 250 C 23.4175 0.377901 1.99248 0
M  V30 251 C 23.7505 -1.05052 1.63333 0
M  V30 252 O 23.0255 -1.72768 0.893385 0
M  V30 253 C 23.3085 0.553922 3.55814 0
M  V30 254 C 23.1615 2.0268 4.01548 0
M  V30 255 C 24.4805 -0.0244802 4.40093 0
M  V30 256 H 21.5995 0.138782 0.723815 0
M  V30 257 H 24.2415 1.00835 1.61035 0
M  V30 258 H 22.3915 0.0172398 3.88496 0
M  V30 259 H 24.0635 2.62536 3.79305 0
M  V30 260 H 22.3065 2.5256 3.52698 0
M  V30 261 H 22.9775 2.10087 5.10458 0
M  V30 262 H 25.4535 0.433775 4.13833 0
M  V30 263 H 24.3295 0.128637 5.48749 0
M  V30 264 H 24.5905 -1.11758 4.27741 0
M  V30 265 N 23.6496 -1.47581 0.552962 0
M  V30 266 C 24.5796 -2.32762 -0.185451 0
M  V30 267 C 25.5606 -1.43527 -0.912905 0
M  V30 268 O 26.7456 -1.72388 -0.894201 0
M  V30 269 C 23.8756 -3.25219 -1.21859 0
M  V30 270 C 22.8296 -4.23661 -0.607864 0
M  V30 271 C 22.1556 -5.05413 -1.74533 0
M  V30 272 C 23.4556 -5.20481 0.435582 0
M  V30 273 H 25.1496 -2.94749 0.525684 0
M  V30 274 H 22.6956 -1.41738 0.254251 0
M  V30 275 H 24.6486 -3.8365 -1.7433 0
M  V30 276 H 23.3726 -2.61279 -1.95961 0
M  V30 277 H 22.0316 -3.66451 -0.104489 0
M  V30 278 H 21.6796 -4.3788 -2.47529 0
M  V30 279 H 21.3796 -5.72059 -1.34249 0
M  V30 280 H 22.9036 -5.66701 -2.27338 0
M  V30 281 H 24.3176 -5.733 -0.00290157 0
M  V30 282 H 22.7146 -5.95305 0.757067 0
M  V30 283 H 23.7846 -4.66217 1.33303 0
M  V30 284 N 25.1277 -0.289203 -1.54924 0
M  V30 285 C 26.0907 0.579144 -2.21762 0
M  V30 286 C 27.0907 1.07047 -1.1999 0
M  V30 287 O 28.2807 0.968384 -1.44803 0
M  V30 288 C 25.4127 1.80055 -2.8947 0
M  V30 289 H 26.6057 -0.00464908 -2.999 0
M  V30 290 H 24.1587 -0.0399306 -1.56249 0
M  V30 291 H 24.8937 2.42449 -2.15381 0
M  V30 292 H 24.6787 1.45602 -3.64064 0
M  V30 293 H 26.1687 2.41773 -3.40493 0
M  V30 294 N 26.6058 1.57591 -0.0167156 0
M  V30 295 C 27.5688 2.08393 0.954204 0
M  V30 296 C 28.5688 0.996531 1.26198 0
M  V30 297 O 29.7588 1.25858 1.20438 0
M  V30 298 C 26.8908 2.5394 2.27436 0
M  V30 299 H 28.0838 2.95455 0.514451 0
M  V30 300 H 25.6368 1.54582 0.231089 0
M  V30 301 H 26.3718 1.70171 2.76066 0
M  V30 302 H 26.1568 3.33371 2.06412 0
M  V30 303 H 27.6468 2.93512 2.97053 0
M  V30 304 N 28.0839 -0.256276 1.55502 0
M  V30 305 C 29.4949 -0.826068 1.67431 0
M  V30 306 C 29.8459 -1.86396 0.612446 0
M  V30 307 O 28.9709 -2.15031 -0.243025 0
M  V30 308 C 29.5659 -1.50512 3.03532 0
M  V30 309 C 28.1249 -2.02273 3.17431 0
M  V30 310 C 27.2719 -0.870548 2.63281 0
M  V30 311 H 30.2229 -0.0322728 1.58667 0
M  V30 312 H 30.2439 -2.37279 2.97454 0
M  V30 313 H 29.7559 -0.749484 3.80794 0
M  V30 314 H 27.8569 -2.80746 2.44974 0
M  V30 315 H 27.9699 -2.22655 4.24219 0
M  V30 316 H 26.3339 -1.26851 2.20864 0
M  V30 317 H 27.1169 -0.128149 3.43061 0
M  V30 318 N 29.562 -1.4872 -0.521534 0
M  V30 319 C 30.81 -1.56857 -1.27437 0
M  V30 320 C 31.131 -0.247982 -1.93417 0
M  V30 321 O 30.401 0.731151 -1.81744 0
M  V30 322 H 28.981 -0.577885 -0.473347 0
M  V30 323 H 31.643 -1.85233 -0.606205 0
M  V30 324 H 30.739 -2.35402 -2.0492 0
M  V30 325 N 31.0401 0.771051 -1.3745 0
M  V30 326 C 31.9701 1.89827 -1.3597 0
M  V30 327 C 32.9511 1.68562 -0.228216 0
M  V30 328 O 34.1361 1.8941 -0.428675 0
M  V30 329 C 31.2661 3.2712 -1.16662 0
M  V30 330 C 30.2201 3.6295 -2.2683 0
M  V30 331 C 29.5461 4.98791 -1.92644 0
M  V30 332 C 30.8461 3.69627 -3.69017 0
M  V30 333 H 32.5401 1.91323 -2.30295 0
M  V30 334 H 30.0861 0.919082 -1.10855 0
M  V30 335 H 32.0391 4.05615 -1.14256 0
M  V30 336 H 30.7631 3.26059 -0.187926 0
M  V30 337 H 29.4221 2.86763 -2.28392 0
M  V30 338 H 29.0701 4.94271 -0.933021 0
M  V30 339 H 28.7701 5.23733 -2.66416 0
M  V30 340 H 30.2941 5.79685 -1.91826 0
M  V30 341 H 31.7081 4.38273 -3.69581 0
M  V30 342 H 30.1051 4.06067 -4.41848 0
M  V30 343 H 31.1751 2.70273 -4.02592 0
M  V30 344 N 32.5182 1.22032 0.997298 0
M  V30 345 C 33.4482 1.01065 2.10495 0
M  V30 346 C 34.4292 -0.0669542 1.69968 0
M  V30 347 O 35.6142 0.0943987 1.9397 0
M  V30 348 C 32.7442 0.582874 3.42374 0
M  V30 349 C 31.6982 1.60592 3.96729 0
M  V30 350 C 31.0242 1.03412 5.24605 0
M  V30 351 C 32.3242 2.99478 4.27914 0
M  V30 352 H 34.0182 1.93708 2.28292 0
M  V30 353 H 31.5642 0.932761 1.09707 0
M  V30 354 H 33.5172 0.423332 4.19268 0
M  V30 355 H 32.2412 -0.379213 3.24391 0
M  V30 356 H 30.9002 1.75316 3.21963 0
M  V30 357 H 30.5482 0.063518 5.0296 0
M  V30 358 H 30.2482 1.71754 5.61938 0
M  V30 359 H 31.7722 0.886066 6.04137 0
M  V30 360 H 33.1862 2.88153 4.95622 0
M  V30 361 H 31.5832 3.64903 4.76409 0
M  V30 362 H 32.6532 3.49742 3.3587 0
M  V30 363 N 33.9963 -1.19345 1.0293 0
M  V30 364 C 34.9593 -2.20793 0.615069 0
M  V30 365 C 35.9593 -1.57553 -0.321533 0
M  V30 366 O 37.1493 -1.73862 -0.108483 0
M  V30 367 C 34.2813 -3.40754 -0.0999222 0
M  V30 368 H 35.4743 -2.58955 1.51269 0
M  V30 369 H 33.0273 -1.3303 0.820534 0
M  V30 370 H 33.7623 -3.0811 -1.01187 0
M  V30 371 H 33.5473 -3.87889 0.57309 0
M  V30 372 H 35.0373 -4.15898 -0.376645 0
M  V30 373 N 35.4744 -0.807222 -1.35358 0
M  V30 374 C 36.7204 -0.388463 -1.99045 0
M  V30 375 C 37.0534 1.04184 -1.63888 0
M  V30 376 O 36.3284 1.72292 -0.902535 0
M  V30 377 C 36.6114 -0.572783 -3.55515 0
M  V30 378 C 36.4644 -2.04807 -4.00468 0
M  V30 379 C 37.7834 0.00114064 -4.401 0
M  V30 380 H 34.9024 -0.142619 -0.723069 0
M  V30 381 H 37.5444 -1.01687 -1.60498 0
M  V30 382 H 35.6944 -0.0378425 -3.88482 0
M  V30 383 H 37.3664 -2.64544 -3.77908 0
M  V30 384 H 35.6094 -2.54427 -3.51353 0
M  V30 385 H 36.2804 -2.12792 -5.09337 0
M  V30 386 H 38.7564 -0.455716 -4.13597 0
M  V30 387 H 37.6324 -0.157737 -5.48673 0
M  V30 388 H 37.8934 1.09488 -4.28328 0
M  V30 389 N 36.9525 1.47285 -0.560781 0
M  V30 390 C 37.9155 2.28535 0.174488 0
M  V30 391 C 38.9155 1.37153 0.839388 0
M  V30 392 O 40.1055 1.59748 0.694702 0
M  V30 393 C 37.2375 3.16934 1.25561 0
M  V30 394 H 38.4305 2.95012 -0.539262 0
M  V30 395 H 35.9835 1.53034 -0.317865 0
M  V30 396 H 36.7185 2.55157 2.00164 0
M  V30 397 H 36.5035 3.8419 0.783604 0
M  V30 398 H 37.9935 3.78143 1.77193 0
M  V30 399 N 38.4306 0.297415 1.54768 0
M  V30 400 C 39.3936 -0.567375 2.22066 0
M  V30 401 C 40.3936 -1.06409 1.20556 0
M  V30 402 O 41.5836 -0.960691 1.45315 0
M  V30 403 C 38.7156 -1.78517 2.90421 0
M  V30 404 H 39.9086 0.0205534 2.99893 0
M  V30 405 H 37.4616 0.0482163 1.56226 0
M  V30 406 H 38.1966 -2.41303 2.16664 0
M  V30 407 H 37.9816 -1.43669 3.64831 0
M  V30 408 H 39.4716 -2.39964 3.41771 0
M  V30 409 N 39.9087 -1.5758 0.0250728 0
M  V30 410 C 40.8387 -2.13007 -0.956575 0
M  V30 411 C 41.8197 -1.0452 -1.342 0
M  V30 412 O 43.0047 -1.32332 -1.42133 0
M  V30 413 C 40.1347 -2.65386 -2.24026 0
M  V30 414 C 39.0887 -3.78623 -1.99571 0
M  V30 415 C 38.4147 -4.17414 -3.3417 0
M  V30 416 C 39.7147 -5.04867 -1.33814 0
M  V30 417 H 41.4087 -2.9528 -0.494991 0
M  V30 418 H 38.9547 -1.42042 -0.236651 0
M  V30 419 H 40.9077 -3.02794 -2.93076 0
M  V30 420 H 39.6317 -1.80268 -2.72343 0
M  V30 421 H 38.2907 -3.41646 -1.32941 0
M  V30 422 H 37.9387 -3.29284 -3.80238 0
M  V30 423 H 37.6387 -4.93719 -3.18615 0
M  V30 424 H 39.1627 -4.57402 -4.04495 0
M  V30 425 H 40.5767 -5.39888 -1.92857 0
M  V30 426 H 38.9737 -5.86144 -1.28669 0
M  V30 427 H 40.0437 -4.83904 -0.310561 0
M  V30 428 N 41.3868 0.248026 -1.55636 0
M  V30 429 C 42.6148 0.993808 -1.81469 0
M  V30 430 C 43.0298 1.78991 -0.60064 0
M  V30 431 O 42.3868 1.77345 0.430682 0
M  V30 432 C 42.4378 1.93258 -3.05506 0
M  V30 433 O 42.1588 1.16869 -4.22224 0
M  V30 434 C 43.6598 2.79444 -3.4413 0
M  V30 435 H 40.8798 0.292486 -0.603898 0
M  V30 436 H 43.4238 0.271253 -2.02693 0
M  V30 437 H 41.5788 2.60943 -2.86335 0
M  V30 438 H 41.9928 1.80359 -4.92515 0
M  V30 439 H 43.4668 3.41066 -4.34026 0
M  V30 440 H 43.9438 3.50499 -2.64665 0
M  V30 441 H 44.5498 2.17214 -3.65648 0
M  V30 442 N 42.8649 1.48995 0.513639 0
M  V30 443 C 44.1139 1.57093 1.2651 0
M  V30 444 C 44.4269 0.257091 1.93903 0
M  V30 445 O 45.6329 0.216478 2.70636 0
M  V30 446 C 44.0889 2.77118 2.29638 0
M  V30 447 C 43.6969 4.15209 1.68241 0
M  V30 448 C 45.4409 2.94538 3.05692 0
M  V30 449 C 43.3479 5.26474 2.69406 0
M  V30 450 H 42.2779 0.584876 0.475854 0
M  V30 451 H 44.9289 1.7536 0.540487 0
M  V30 452 H 43.3109 2.52319 3.05207 0
M  V30 453 H 44.4849 4.50094 0.987505 0
M  V30 454 H 42.7999 4.03042 1.04623 0
M  V30 455 H 45.3969 3.74832 3.8132 0
M  V30 456 H 45.7399 2.04614 3.62545 0
M  V30 457 H 46.2729 3.19316 2.37238 0
M  V30 458 H 43.0119 6.18417 2.17351 0
M  V30 459 H 42.5319 4.96058 3.37175 0
M  V30 460 H 44.2109 5.55277 3.32078 0
M  V30 461 N 44.343 -0.763751 1.37857 0
M  V30 462 C 45.754 -1.3405 1.29952 0
M  V30 463 C 46.105 -1.96138 -0.0492898 0
M  V30 464 O 45.23 -1.94372 -0.951239 0
M  V30 465 C 45.825 -2.43729 2.35333 0
M  V30 466 C 44.384 -2.97151 2.31037 0
M  V30 467 C 43.531 -1.70438 2.18738 0
M  V30 468 H 46.482 -0.563396 1.48363 0
M  V30 469 H 46.503 -3.23412 2.00462 0
M  V30 470 H 46.015 -1.9851 3.33489 0
M  V30 471 H 44.116 -3.46724 1.3643 0
M  V30 472 H 44.229 -3.52221 3.24772 0
M  V30 473 H 42.593 -1.93673 1.65418 0
M  V30 474 H 43.376 -1.27312 3.18821 0
M  V30 475 N 45.8211 -1.22559 -0.990812 0
M  V30 476 C 47.0981 -0.959875 -1.70428 0
M  V30 477 C 47.4781 0.524455 -2.04481 0
M  V30 478 O 46.8261 1.49302 -1.72977 0
M  V30 479 C 47.0361 -1.85955 -2.95333 0
M  V30 480 C 48.3841 -2.11687 -3.68068 0
M  V30 481 O 49.4081 -1.8342 -3.05345 0
M  V30 482 O 48.2671 -2.59572 -4.80921 0
M  V30 483 H 45.3611 -0.361154 -0.743974 0
M  V30 484 H 47.9071 -1.33554 -1.04697 0
M  V30 485 H 46.6791 -2.86346 -2.66687 0
M  V30 486 H 46.3021 -1.4856 -3.68803 0
M  V30 487 N 47.2992 1.18797 -1.03562 0
M  V30 488 C 48.2322 2.2105 -0.56676 0
M  V30 489 C 49.2102 1.57704 0.395993 0
M  V30 490 O 50.3942 1.85908 0.311498 0
M  V30 491 C 47.5212 3.38259 0.172704 0
M  V30 492 C 46.5672 4.19987 -0.74252 0
M  V30 493 S 47.4002 4.87199 -2.22254 0
M  V30 494 C 48.5562 6.07813 -1.49379 0
M  V30 495 H 48.7892 2.60478 -1.43312 0
M  V30 496 H 46.3222 1.29151 -0.846133 0
M  V30 497 H 48.2802 4.06191 0.593191 0
M  V30 498 H 46.9412 2.97252 1.01488 0
M  V30 499 H 46.1342 5.03709 -0.171265 0
M  V30 500 H 45.7362 3.57408 -1.10163 0
M  V30 501 H 48.0282 6.72948 -0.784056 0
M  V30 502 H 48.9712 6.69435 -2.30786 0
M  V30 503 H 49.3792 5.55781 -0.988331 0
M  V30 504 N 48.7773 0.814389 1.34928 0
M  V30 505 C 50.0023 0.410097 2.03305 0
M  V30 506 C 50.4273 -0.973464 1.60951 0
M  V30 507 O 49.7853 -1.63185 0.789964 0
M  V30 508 C 49.8333 0.51049 3.56968 0
M  V30 509 O 48.9373 -0.473035 4.09678 0
M  V30 510 H 48.2783 0.170088 0.641846 0
M  V30 511 H 50.8083 1.10244 1.72358 0
M  V30 512 H 50.8183 0.383135 4.06197 0
M  V30 513 H 49.4933 1.51963 3.87144 0
M  V30 514 H 48.0703 -0.305272 3.71648 0
M  V30 515 N 50.2554 -1.46986 0.568584 0
M  V30 516 C 51.5034 -2.02041 0.0487022 0
M  V30 517 C 51.8244 -1.44408 -1.31039 0
M  V30 518 O 51.0944 -0.623477 -1.85714 0
M  V30 519 H 49.6744 -0.746849 0.015014 0
M  V30 520 H 52.3364 -1.80257 0.741168 0
M  V30 521 H 51.4324 -3.12085 -0.0308961 0
M  V30 522 N 51.7335 -0.305618 -1.54608 0
M  V30 523 C 53.1495 0.0476228 -1.59529 0
M  V30 524 C 53.3495 1.52025 -1.32252 0
M  V30 525 O 52.4055 2.27368 -1.09818 0
M  V30 526 C 53.7185 -0.354471 -2.98603 0
M  V30 527 C 55.2665 -0.303622 -3.11524 0
M  V30 528 C 55.7415 -0.680608 -4.52915 0
M  V30 529 N 57.2325 -0.63332 -4.5885 0
M  V30 530 C 57.9675 -0.897432 -5.66334 0
M  V30 531 N 57.4635 -1.22775 -6.81834 0
M  V30 532 N 59.2565 -0.824186 -5.56025 0
M  V30 533 H 51.4075 -1.2653 -1.70599 0
M  V30 534 H 53.6705 -0.513291 -0.797017 0
M  V30 535 H 53.3765 -1.3798 -3.23503 0
M  V30 536 H 53.2505 0.289568 -3.76087 0
M  V30 537 H 55.6375 0.712472 -2.8637 0
M  V30 538 H 55.7185 -0.982348 -2.36185 0
M  V30 539 H 55.3625 -1.69453 -4.78799 0
M  V30 540 H 55.2925 0.0202385 -5.26596 0
M  V30 541 H 57.7835 -0.389138 -3.75891 0
M  V30 542 H 58.0965 -1.41513 -7.59733 0
M  V30 543 H 56.4415 -1.26583 -6.83375 0
M  V30 544 H 59.6325 -0.565748 -4.64669 0
M  V30 545 H 59.8055 -1.03338 -6.39707 0
M  V30 546 N 53.2116 1.57565 -0.0334293 0
M  V30 547 C 54.4366 1.96689 0.657895 0
M  V30 548 C 54.8616 0.910057 1.64619 0
M  V30 549 O 54.2196 -0.128598 1.80843 0
M  V30 550 C 54.2676 3.34905 1.33683 0
M  V30 551 O 53.3716 3.31574 2.45219 0
M  V30 552 H 52.7126 0.641205 0.172489 0
M  V30 553 H 55.2426 2.04372 -0.0965621 0
M  V30 554 H 55.2526 3.71234 1.69262 0
M  V30 555 H 53.9276 4.11366 0.612411 0
M  V30 556 H 52.5046 3.06968 2.11719 0
M  V30 557 N 54.6897 -0.239769 1.55765 0
M  V30 558 C 56.1057 -0.588624 1.48349 0
M  V30 559 C 56.3057 -1.88005 0.72502 0
M  V30 560 O 55.3617 -2.51186 0.257269 0
M  V30 561 C 56.6747 -0.68474 2.928 0
M  V30 562 C 58.2227 -0.77659 3.03213 0
M  V30 563 C 58.6977 -0.904207 4.48986 0
M  V30 564 N 60.1887 -0.968896 4.52953 0
M  V30 565 C 60.9237 -1.08703 5.63002 0
M  V30 566 N 60.4197 -1.17026 6.82845 0
M  V30 567 N 62.2127 -1.12074 5.50814 0
M  V30 568 H 54.3637 0.607911 2.03515 0
M  V30 569 H 56.6267 0.21083 0.924259 0
M  V30 570 H 56.3327 0.194284 3.51163 0
M  V30 571 H 56.2067 -1.55435 3.43686 0
M  V30 572 H 58.5937 -1.64606 2.44926 0
M  V30 573 H 58.6747 0.118315 2.55526 0
M  V30 574 H 58.3187 -0.0392633 5.07885 0
M  V30 575 H 58.2487 -1.81426 4.9436 0
M  V30 576 H 60.7397 -0.915633 3.6664 0
M  V30 577 H 61.0527 -1.25966 7.62465 0
M  V30 578 H 59.3977 -1.13971 6.85591 0
M  V30 579 H 62.5887 -1.05226 4.5612 0
M  V30 580 H 62.7617 -1.20936 6.36615 0
M  V30 581 N 56.1678 -1.49265 -0.50573 0
M  V30 582 C 57.0978 -1.68495 -1.61653 0
M  V30 583 C 58.0788 -0.53366 -1.61512 0
M  V30 584 O 59.2638 -0.76897 -1.78327 0
M  V30 585 C 56.3938 -1.74709 -3.00157 0
M  V30 586 C 55.3478 -2.89581 -3.15162 0
M  V30 587 C 54.6738 -2.80903 -4.5497 0
M  V30 588 C 55.9738 -4.30578 -2.95634 0
M  V30 589 H 57.6678 -2.61493 -1.45814 0
M  V30 590 H 55.2138 -1.25838 -0.70005 0
M  V30 591 H 57.1668 -1.86748 -3.77761 0
M  V30 592 H 55.8908 -0.783067 -3.17074 0
M  V30 593 H 54.5498 -2.77136 -2.39982 0
M  V30 594 H 54.1978 -1.82419 -4.68756 0
M  V30 595 H 53.8978 -3.57999 -4.65951 0
M  V30 596 H 55.4218 -2.94944 -5.34641 0
M  V30 597 H 56.8358 -4.4373 -3.63011 0
M  V30 598 H 55.2328 -5.0886 -3.18091 0
M  V30 599 H 56.3028 -4.45352 -1.91806 0
M  V30 600 N 57.6459 0.756429 -1.3826 0
M  V30 601 C 58.6089 1.85176 -1.35065 0
M  V30 602 C 59.6089 1.58818 -0.251703 0
M  V30 603 O 60.7989 1.66615 -0.508433 0
M  V30 604 C 57.9309 3.22596 -1.10201 0
M  V30 605 H 59.1239 1.89417 -2.3251 0
M  V30 606 H 56.6769 0.95783 -1.23512 0
M  V30 607 H 57.4119 3.24025 -0.133504 0
M  V30 608 H 57.1969 3.43122 -1.89762 0
M  V30 609 H 58.6869 4.02673 -1.10654 0
M  V30 610 N 59.124 1.23083 0.984299 0
M  V30 611 C 60.054 1.03292 2.09411 0
M  V30 612 C 61.035 -0.048923 1.7003 0
M  V30 613 O 62.22 0.114967 1.93859 0
M  V30 614 C 59.35 0.619155 3.41736 0
M  V30 615 C 58.304 1.64791 3.95004 0
M  V30 616 C 57.63 1.0897 5.23478 0
M  V30 617 C 58.93 3.03999 4.24714 0
M  V30 618 H 60.624 1.96119 2.26225 0
M  V30 619 H 58.17 0.944344 1.08711 0
M  V30 620 H 60.123 0.467777 4.18796 0
M  V30 621 H 58.847 -0.344786 3.24775 0
M  V30 622 H 57.506 1.78721 3.20085 0
M  V30 623 H 57.154 0.11686 5.02864 0
M  V30 624 H 56.854 1.77704 5.60085 0
M  V30 625 H 58.378 0.950093 6.03163 0
M  V30 626 H 59.792 2.93393 4.92538 0
M  V30 627 H 58.189 3.69936 4.72512 0
M  V30 628 H 59.259 3.53285 3.32142 0
M  V30 629 N 60.6021 -1.18246 1.0419 0
M  V30 630 C 61.5651 -2.20128 0.638452 0
M  V30 631 C 62.5651 -1.57885 -0.304805 0
M  V30 632 O 63.7551 -1.73967 -0.0900369 0
M  V30 633 C 60.8871 -3.4084 -0.0637751 0
M  V30 634 H 62.0801 -2.57336 1.54007 0
M  V30 635 H 59.6331 -1.32152 0.834598 0
M  V30 636 H 60.3681 -3.09166 -0.979136 0
M  V30 637 H 60.1531 -3.8726 0.614198 0
M  V30 638 H 61.6431 -4.16274 -0.332512 0
M  V30 639 N 62.0802 -0.821533 -1.34494 0
M  V30 640 C 63.0432 -0.247847 -2.27856 0
M  V30 641 C 64.0432 0.573453 -1.50227 0
M  V30 642 O 65.2332 0.389759 -1.69784 0
M  V30 643 C 62.3652 0.652698 -3.34593 0
M  V30 644 H 63.5582 -1.07146 -2.80107 0
M  V30 645 H 61.1112 -0.593291 -1.44602 0
M  V30 646 H 61.8462 1.49943 -2.87555 0
M  V30 647 H 61.6312 0.065292 -3.92046 0
M  V30 648 H 63.1212 1.04793 -4.04238 0
M  V30 649 N 63.5583 1.46682 -0.576371 0
M  V30 650 C 64.4883 2.33028 0.148397 0
M  V30 651 C 65.4693 1.44961 0.889956 0
M  V30 652 O 66.6543 1.73789 0.866662 0
M  V30 653 C 63.7843 3.27117 1.1667 0
M  V30 654 C 62.7383 4.24575 0.540386 0
M  V30 655 C 62.0643 5.08126 1.6647 0
M  V30 656 C 63.3643 5.19722 -0.518331 0
M  V30 657 H 65.0583 2.93875 -0.572509 0
M  V30 658 H 62.6043 1.41315 -0.276768 0
M  V30 659 H 64.5573 3.86374 1.68204 0
M  V30 660 H 63.2813 2.64364 1.9178 0
M  V30 661 H 61.9403 3.66571 0.0461769 0
M  V30 662 H 61.5883 4.41762 2.40531 0
M  V30 663 H 61.2883 5.74122 1.25131 0
M  V30 664 H 62.8123 5.70246 2.18293 0
M  V30 665 H 64.2263 5.73232 -0.0883058 0
M  V30 666 H 62.6233 5.94026 -0.851679 0
M  V30 667 H 63.6933 4.64037 -1.40703 0
M  V30 668 N 65.0364 0.313813 1.54444 0
M  V30 669 C 65.9664 -0.549454 2.26943 0
M  V30 670 C 66.9474 -1.12741 1.27372 0
M  V30 671 O 68.1324 -1.15436 1.56167 0
M  V30 672 C 65.2624 -1.71523 3.01989 0
M  V30 673 C 64.2164 -1.26703 4.08816 0
M  V30 674 C 63.5424 -2.51898 4.71647 0
M  V30 675 C 64.8424 -0.388962 5.2085 0
M  V30 676 H 66.5364 0.0552661 2.99349 0
M  V30 677 H 64.0824 0.0280207 1.43973 0
M  V30 678 H 66.0354 -2.32535 3.51433 0
M  V30 679 H 64.7594 -2.34639 2.27183 0
M  V30 680 H 63.4184 -0.679896 3.6024 0
M  V30 681 H 63.0664 -3.13356 3.93468 0
M  V30 682 H 62.7664 -2.22605 5.43802 0
M  V30 683 H 64.2904 -3.1369 5.23861 0
M  V30 684 H 65.7044 -0.905107 5.6611 0
M  V30 685 H 64.1014 -0.18924 5.99802 0
M  V30 686 H 65.1714 0.582699 4.81386 0
M  V30 687 N 66.5145 -1.57545 0.0417849 0
M  V30 688 C 67.4775 -2.09885 -0.92093 0
M  V30 689 C 68.4775 -1.01648 -1.24596 0
M  V30 690 O 69.6675 -1.27759 -1.1842 0
M  V30 691 C 66.7995 -2.57527 -2.23367 0
M  V30 692 H 67.9925 -2.96236 -0.467382 0
M  V30 693 H 65.5455 -1.5493 -0.206467 0
M  V30 694 H 66.2805 -1.74542 -2.73323 0
M  V30 695 H 66.0655 -3.36613 -2.01083 0
M  V30 696 H 67.5555 -2.98201 -2.92346 0
M  V30 697 N 67.9926 0.231505 -1.5589 0
M  V30 698 C 69.2386 0.95877 -1.78705 0
M  V30 699 C 69.5716 1.8438 -0.609725 0
M  V30 700 O 68.8466 1.90521 0.391426 0
M  V30 701 C 69.1296 1.8062 -3.11526 0
M  V30 702 C 68.9826 0.948328 -4.39689 0
M  V30 703 C 70.3016 2.78585 -3.40703 0
M  V30 704 H 67.4206 0.347129 -0.650131 0
M  V30 705 H 70.0626 0.228259 -1.88624 0
M  V30 706 H 68.2126 2.42902 -3.03201 0
M  V30 707 H 69.8846 0.343016 -4.60023 0
M  V30 708 H 68.1276 0.253314 -4.3306 0
M  V30 709 H 68.7986 1.57543 -5.29041 0
M  V30 710 H 71.2746 2.26439 -3.49091 0
M  V30 711 H 70.1506 3.34988 -4.34826 0
M  V30 712 H 70.4116 3.55825 -2.62375 0
M  V30 713 N 69.4707 1.49531 0.497807 0
M  V30 714 C 70.7197 1.58426 1.24837 0
M  V30 715 C 71.0327 0.277643 1.93619 0
M  V30 716 O 72.2387 0.24517 2.70391 0
M  V30 717 C 70.6947 2.79538 2.26686 0
M  V30 718 C 70.3027 4.16971 1.63828 0
M  V30 719 C 72.0467 2.97764 3.0255 0
M  V30 720 C 69.9537 5.29301 2.63807 0
M  V30 721 H 68.8837 0.58989 0.469623 0
M  V30 722 H 71.5347 1.75923 0.521857 0
M  V30 723 H 69.9167 2.55542 3.02514 0
M  V30 724 H 71.0907 4.51116 0.939711 0
M  V30 725 H 69.4057 4.04129 1.00342 0
M  V30 726 H 72.0027 3.78856 3.77323 0
M  V30 727 H 72.3457 2.08448 3.60354 0
M  V30 728 H 72.8787 3.21815 2.33838 0
M  V30 729 H 69.6177 6.20687 2.10779 0
M  V30 730 H 69.1377 4.99606 3.31894 0
M  V30 731 H 70.8167 5.58768 3.2617 0
M  V30 732 N 70.9488 -0.749086 1.3866 0
M  V30 733 C 72.1948 -1.50959 1.36319 0
M  V30 734 C 72.5498 -1.92347 -0.0452451 0
M  V30 735 O 71.8428 -1.6289 -1.00884 0
M  V30 736 C 72.0368 -2.7712 2.25697 0
M  V30 737 C 71.8658 -2.48067 3.7509 0
M  V30 738 C 70.6358 -2.41062 4.44091 0
M  V30 739 C 72.8338 -2.14544 4.67414 0
M  V30 740 N 70.8158 -2.04331 5.78897 0
M  V30 741 C 72.1868 -1.88141 5.90765 0
M  V30 742 C 74.2418 -2.00892 4.55573 0
M  V30 743 C 72.9448 -1.49463 7.036 0
M  V30 744 C 74.9708 -1.63616 5.68317 0
M  V30 745 C 74.3328 -1.38088 6.90732 0
M  V30 746 H 70.4318 -0.551804 0.554108 0
M  V30 747 H 73.0158 -0.871886 1.74087 0
M  V30 748 H 71.1868 -3.38693 1.9011 0
M  V30 749 H 72.9188 -3.4321 2.1445 0
M  V30 750 H 69.6738 -2.57685 3.9736 0
M  V30 751 H 70.0978 -1.88598 6.502 0
M  V30 752 H 74.7398 -2.19301 3.61479 0
M  V30 753 H 72.4578 -1.29794 7.97608 0
M  V30 754 H 76.0438 -1.53678 5.61137 0
M  V30 755 H 74.9238 -1.09674 7.76493 0
M  V30 756 N 72.4269 -1.23603 -0.977757 0
M  V30 757 C 73.6749 -1.06759 -1.71601 0
M  V30 758 C 73.9959 0.395929 -1.90938 0
M  V30 759 O 73.2659 1.28356 -1.47992 0
M  V30 760 H 71.8459 -0.392062 -0.635843 0
M  V30 761 H 74.5079 -1.55362 -1.1768 0
M  V30 762 H 73.6039 -1.55763 -2.70452 0
M  V30 763 N 73.905 1.17692 -1.04816 0
M  V30 764 C 74.868 2.19787 -0.650117 0
M  V30 765 C 75.868 1.58044 0.296427 0
M  V30 766 O 77.058 1.74012 0.0808097 0
M  V30 767 C 74.19 3.40869 0.0456987 0
M  V30 768 H 75.383 2.56516 -1.5537 0
M  V30 769 H 72.936 1.31708 -0.841594 0
M  V30 770 H 73.671 3.09681 0.962726 0
M  V30 771 H 73.456 3.86928 -0.634727 0
M  V30 772 H 74.946 4.16445 0.310432 0
M  V30 773 N 75.3831 0.828654 1.34056 0
M  V30 774 C 76.6131 0.431993 2.02033 0
M  V30 775 C 77.0211 -0.96844 1.62536 0
M  V30 776 O 76.3641 -1.6391 0.829408 0
M  V30 777 C 76.4261 0.461224 3.56529 0
M  V30 778 C 76.0901 1.81599 4.1937 0
M  V30 779 C 77.0871 2.7777 4.39477 0
M  V30 780 C 74.7721 2.10604 4.56017 0
M  V30 781 C 76.7661 4.01115 4.95364 0
M  V30 782 C 74.4531 3.34207 5.11614 0
M  V30 783 C 75.4511 4.2928 5.31232 0
M  V30 784 O 75.1391 5.50699 5.8565 0
M  V30 785 H 74.8711 0.170943 0.654029 0
M  V30 786 H 77.4251 1.11988 1.72185 0
M  V30 787 H 75.6551 -0.283388 3.8566 0
M  V30 788 H 77.3441 0.0838149 4.05813 0
M  V30 789 H 78.1101 2.56659 4.11523 0
M  V30 790 H 73.9891 1.37402 4.40047 0
M  V30 791 H 77.5331 4.75333 5.10592 0
M  V30 792 H 73.4301 3.55179 5.38997 0
M  V30 793 H 74.1981 5.52298 6.04077 0
M  V30 794 N 76.8612 -1.46375 0.584142 0
M  V30 795 C 77.7912 -2.33103 -0.136037 0
M  V30 796 C 78.7722 -1.45431 -0.882255 0
M  V30 797 O 79.9572 -1.74246 -0.857434 0
M  V30 798 C 77.0872 -3.27731 -1.14933 0
M  V30 799 C 76.0412 -4.24855 -0.517862 0
M  V30 800 C 75.3672 -5.09001 -1.63773 0
M  V30 801 C 76.6672 -5.19439 0.545886 0
M  V30 802 H 78.3612 -2.93568 0.588086 0
M  V30 803 H 75.9072 -1.41166 0.284259 0
M  V30 804 H 77.8602 -3.87261 -1.66153 0
M  V30 805 H 76.5842 -2.65377 -1.90375 0
M  V30 806 H 75.2432 -3.6659 -0.0267361 0
M  V30 807 H 74.8912 -4.43031 -2.38185 0
M  V30 808 H 74.5912 -5.74777 -1.22085 0
M  V30 809 H 76.1152 -5.71396 -2.15266 0
M  V30 810 H 77.5292 -5.73177 0.118704 0
M  V30 811 H 75.9262 -5.93566 0.88317 0
M  V30 812 H 76.9962 -4.63285 1.43162 0
M  V30 813 N 78.3393 -0.321999 -1.54275 0
M  V30 814 C 79.2693 0.537411 -2.27231 0
M  V30 815 C 80.2503 1.12064 -1.27968 0
M  V30 816 O 81.4353 1.14606 -1.56777 0
M  V30 817 C 78.5653 1.69919 -3.02894 0
M  V30 818 C 77.5193 1.24534 -4.09482 0
M  V30 819 C 76.8453 2.49394 -4.72977 0
M  V30 820 C 78.1453 0.361335 -5.21049 0
M  V30 821 H 79.8393 -0.0711406 -2.99315 0
M  V30 822 H 77.3853 -0.0356555 -1.43956 0
M  V30 823 H 79.3383 2.30668 -3.52662 0
M  V30 824 H 78.0623 2.33431 -2.28424 0
M  V30 825 H 76.7213 0.660782 -3.60596 0
M  V30 826 H 76.3693 3.11265 -3.95124 0
M  V30 827 H 76.0693 2.19718 -5.44975 0
M  V30 828 H 77.5933 3.10908 -5.25517 0
M  V30 829 H 79.0073 0.875072 -5.66582 0
M  V30 830 H 77.4043 0.157428 -5.99893 0
M  V30 831 H 78.4743 -0.60822 -4.8107 0
M  V30 832 N 79.8174 1.5752 -0.0501392 0
M  V30 833 C 80.7494 2.08413 0.95376 0
M  V30 834 C 81.7624 1.01175 1.27544 0
M  V30 835 O 82.9514 1.28744 1.23641 0
M  V30 836 C 80.0514 2.51138 2.27559 0
M  V30 837 C 79.2244 3.817 2.13598 0
M  V30 838 C 78.2834 4.10749 3.28895 0
M  V30 839 O 77.3094 4.80685 3.04845 0
M  V30 840 N 78.5114 3.62579 4.5334 0
M  V30 841 H 81.2764 2.95165 0.519383 0
M  V30 842 H 78.8374 1.61327 0.136127 0
M  V30 843 H 80.8294 2.67648 3.03557 0
M  V30 844 H 79.3994 1.6964 2.62567 0
M  V30 845 H 78.6194 3.74782 1.22197 0
M  V30 846 H 79.9074 4.67201 2.01496 0
M  V30 847 H 79.3054 3.06039 4.75769 0
M  V30 848 H 77.8624 3.84329 5.26436 0
M  V30 849 N 81.2955 -0.223234 1.56011 0
M  V30 850 C 82.2255 -1.27988 1.95298 0
M  V30 851 C 83.2065 -1.48976 0.820979 0
M  V30 852 O 84.3915 -1.61188 1.08315 0
M  V30 853 C 81.5215 -2.63 2.26822 0
M  V30 854 C 80.4755 -2.56671 3.42497 0
M  V30 855 C 79.8015 -3.95697 3.59622 0
M  V30 856 C 81.1015 -2.11601 4.77517 0
M  V30 857 H 82.7955 -0.953525 2.8381 0
M  V30 858 H 80.3415 -0.457244 1.36548 0
M  V30 859 H 82.2945 -3.37077 2.52898 0
M  V30 860 H 81.0185 -2.9732 1.35161 0
M  V30 861 H 79.6775 -1.85051 3.16467 0
M  V30 862 H 79.3255 -4.27322 2.6534 0
M  V30 863 H 79.0255 -3.92345 4.37424 0
M  V30 864 H 80.5495 -4.71438 3.88044 0
M  V30 865 H 81.9635 -2.7542 5.02809 0
M  V30 866 H 80.3605 -2.19311 5.5859 0
M  V30 867 H 81.4305 -1.06824 4.72987 0
M  V30 868 N 82.7736 -1.49793 -0.48987 0
M  V30 869 C 83.7366 -1.66752 -1.57246 0
M  V30 870 C 84.7366 -0.538867 -1.51502 0
M  V30 871 O 85.9266 -0.805545 -1.54456 0
M  V30 872 C 83.0586 -1.67528 -2.96896 0
M  V30 873 H 84.2516 -2.63321 -1.43534 0
M  V30 874 H 81.8046 -1.38992 -0.714914 0
M  V30 875 H 82.5396 -0.725837 -3.16073 0
M  V30 876 H 82.3246 -2.49504 -3.02473 0
M  V30 877 H 83.8146 -1.82667 -3.7553 0
M  V30 878 N 84.2517 0.741722 -1.39055 0
M  V30 879 C 85.2147 1.83733 -1.37021 0
M  V30 880 C 86.2147 1.58542 -0.268534 0
M  V30 881 O 87.4047 1.66067 -0.526076 0
M  V30 882 C 84.5367 3.2141 -1.13617 0
M  V30 883 H 85.7297 1.86941 -2.34506 0
M  V30 884 H 83.2827 0.944676 -1.24521 0
M  V30 885 H 84.0177 3.23865 -0.167863 0
M  V30 886 H 83.8027 3.4109 -1.93391 0
M  V30 887 H 85.2927 4.01477 -1.14918 0
M  V30 888 N 85.7298 1.2412 0.971189 0
M  V30 889 C 86.9578 1.10575 1.74874 0
M  V30 890 C 87.3728 -0.342017 1.85676 0
M  V30 891 O 86.7298 -1.23617 1.34258 0
M  V30 892 C 86.7808 1.73579 3.171 0
M  V30 893 O 86.5018 3.12695 3.06844 0
M  V30 894 C 88.0028 1.65598 4.11208 0
M  V30 895 H 85.2228 0.386504 0.548503 0
M  V30 896 H 87.7668 1.64156 1.21955 0
M  V30 897 H 85.9218 1.24009 3.67016 0
M  V30 898 H 86.3358 3.43412 3.96445 0
M  V30 899 H 87.8098 2.1437 5.08674 0
M  V30 900 H 88.2868 0.616532 4.34851 0
M  V30 901 H 88.8928 2.14578 3.67201 0
M  V30 902 N 87.2079 -1.17134 1.05439 0
M  V30 903 C 88.1379 -2.2342 0.678649 0
M  V30 904 C 89.1189 -1.66971 -0.32476 0
M  V30 905 O 90.3039 -1.93149 -0.201802 0
M  V30 906 C 87.4339 -3.47256 0.0552099 0
M  V30 907 C 86.3879 -4.16543 0.98365 0
M  V30 908 C 85.7139 -5.34231 0.223961 0
M  V30 909 C 87.0139 -4.68495 2.3089 0
M  V30 910 H 88.7079 -2.55105 1.56722 0
M  V30 911 H 86.2539 -1.2262 0.754998 0
M  V30 912 H 88.2069 -4.20828 -0.21946 0
M  V30 913 H 86.9309 -3.14846 -0.868319 0
M  V30 914 H 85.5899 -3.44887 1.24293 0
M  V30 915 H 85.2379 -4.98071 -0.702412 0
M  V30 916 H 84.9379 -5.81527 0.842627 0
M  V30 917 H 86.4619 -6.10585 -0.0433671 0
M  V30 918 H 87.8759 -5.33691 2.09396 0
M  V30 919 H 86.2729 -5.26379 2.88176 0
M  V30 920 H 87.3429 -3.85169 2.94572 0
M  V30 921 N 88.686 -0.835752 -1.33615 0
M  V30 922 C 89.616 -0.281739 -2.31794 0
M  V30 923 C 90.597 0.608833 -1.58831 0
M  V30 924 O 91.782 0.533035 -1.86741 0
M  V30 925 C 88.912 0.546612 -3.42971 0
M  V30 926 C 87.866 -0.247904 -4.27281 0
M  V30 927 C 87.192 0.704001 -5.30045 0
M  V30 928 C 88.492 -1.46324 -5.01385 0
M  V30 929 H 90.186 -1.10206 -2.78379 0
M  V30 930 H 87.732 -0.531388 -1.33837 0
M  V30 931 H 89.685 0.944467 -4.1068 0
M  V30 932 H 88.409 1.40011 -2.95067 0
M  V30 933 H 87.068 -0.627281 -3.61194 0
M  V30 934 H 86.716 1.55381 -4.78399 0
M  V30 935 H 86.416 0.176524 -5.87335 0
M  V30 936 H 87.94 1.09944 -6.0062 0
M  V30 937 H 89.354 -1.13871 -5.61877 0
M  V30 938 H 87.751 -1.92728 -5.6831 0
M  V30 939 H 88.821 -2.23467 -4.30338 0
M  V30 940 N 90.1641 1.46063 -0.591896 0
M  V30 941 C 91.1111 2.30399 0.136069 0
M  V30 942 C 92.0811 1.41169 0.875238 0
M  V30 943 O 93.2661 1.70112 0.86409 0
M  V30 944 C 90.4061 3.25804 1.13781 0
M  V30 945 C 89.5191 4.30134 0.401137 0
M  V30 946 C 88.6541 5.12659 1.39121 0
M  V30 947 C 87.6931 6.0873 0.641462 0
M  V30 948 N 86.8301 6.8409 1.58004 0
M  V30 949 H 91.6701 2.92118 -0.589144 0
M  V30 950 H 89.2071 1.43959 -0.302342 0
M  V30 951 H 91.1651 3.79569 1.73156 0
M  V30 952 H 89.7951 2.65872 1.83062 0
M  V30 953 H 88.8471 3.79152 -0.307826 0
M  V30 954 H 90.1591 4.98458 -0.184565 0
M  V30 955 H 89.3131 5.70747 2.05749 0
M  V30 956 H 88.0521 4.44316 2.01084 0
M  V30 957 H 87.0571 5.49786 -0.0385419 0
M  V30 958 H 88.2821 6.79095 0.0270945 0
M  V30 959 H 86.2281 6.18449 2.18761 0
M  V30 960 H 86.1451 7.48709 1.04738 0
M  V30 961 H 87.4131 7.4673 2.23639 0
M  V30 962 N 91.6422 0.330177 1.54103 0
M  V30 963 C 93.0582 -0.0222371 1.59585 0
M  V30 964 C 93.2582 -1.49902 1.34654 0
M  V30 965 O 92.3142 -2.25592 1.13421 0
M  V30 966 C 93.6272 0.401932 2.98002 0
M  V30 967 C 95.1752 0.353145 3.11001 0
M  V30 968 C 95.6502 0.752576 4.51775 0
M  V30 969 N 97.1412 0.706239 4.57784 0
M  V30 970 C 97.8762 0.987417 5.64834 0
M  V30 971 N 97.3722 1.33607 6.79795 0
M  V30 972 N 99.1652 0.91254 5.54643 0
M  V30 973 H 91.3162 1.29228 1.68564 0
M  V30 974 H 93.5792 0.525906 0.78875 0
M  V30 975 H 93.2852 1.4311 3.21267 0
M  V30 976 H 93.1592 -0.229699 3.765 0
M  V30 977 H 95.5462 -0.666822 2.87467 0
M  V30 978 H 95.6272 1.0198 2.34593 0
M  V30 979 H 95.2712 1.77049 4.76042 0
M  V30 980 H 95.2012 0.0635409 5.26562 0
M  V30 981 H 97.6922 0.44889 3.75224 0
M  V30 982 H 98.0052 1.53582 7.57385 0
M  V30 983 H 96.3502 1.37439 6.81275 0
M  V30 984 H 99.5412 0.639601 4.6371 0
M  V30 985 H 99.7142 1.13503 6.37982 0
M  V30 986 N 93.1203 -1.57491 0.0584922 0
M  V30 987 C 94.5363 -1.56792 -0.298091 0
M  V30 988 C 94.7363 -1.06679 -1.70944 0
M  V30 989 O 93.7923 -0.726672 -2.41818 0
M  V30 990 C 95.1053 -3.00461 -0.119879 0
M  V30 991 C 96.6533 -3.1242 -0.190428 0
M  V30 992 C 97.1283 -4.57982 -0.0406567 0
M  V30 993 N 98.6193 -4.63099 -0.0966958 0
M  V30 994 C 99.3543 -5.734 -0.00502943 0
M  V30 995 N 98.8503 -6.9266 0.139402 0
M  V30 996 N 100.643 -5.62067 -0.0611391 0
M  V30 997 H 92.7943 -1.88386 0.98105 0
M  V30 998 H 95.0573 -0.867865 0.381463 0
M  V30 999 H 94.7633 -3.41187 0.85349 0
M  V30 1000 H 94.6373 -3.66843 -0.877833 0
M  V30 1001 H 97.0243 -2.71589 -1.15427 0
M  V30 1002 H 97.1053 -2.48702 0.598405 0
M  V30 1003 H 96.7493 -4.995 0.919897 0
M  V30 1004 H 96.6793 -5.19715 -0.848727 0
M  V30 1005 H 99.1703 -3.77331 -0.207277 0
M  V30 1006 H 99.4833 -7.72536 0.201855 0
M  V30 1007 H 97.8283 -6.94781 0.174586 0
M  V30 1008 H 101.019 -4.67782 -0.172583 0
M  V30 1009 H 101.192 -6.47999 0.0137562 0
M  V30 1010 N 94.5984 0.214957 -1.56127 0
M  V30 1011 C 95.5614 1.24997 -1.92116 0
M  V30 1012 C 96.5614 1.39467 -0.800344 0
M  V30 1013 O 97.7514 1.37619 -1.06802 0
M  V30 1014 C 94.8834 2.62271 -2.17777 0
M  V30 1015 H 96.0764 0.942875 -2.84693 0
M  V30 1016 H 93.6294 0.455654 -1.49511 0
M  V30 1017 H 94.3644 2.98068 -1.27773 0
M  V30 1018 H 94.1494 2.53143 -2.99434 0
M  V30 1019 H 95.6394 3.36946 -2.46693 0
M  V30 1020 N 96.0765 1.50051 0.48192 0
M  V30 1021 C 97.3245 1.60181 1.23234 0
M  V30 1022 C 97.6455 0.299176 1.92691 0
M  V30 1023 O 96.9155 -0.682708 1.83619 0
M  V30 1024 H 95.4955 0.590232 0.457859 0
M  V30 1025 H 98.1575 1.86775 0.556881 0
M  V30 1026 H 97.2535 2.40753 1.98607 0
M  V30 1027 N 97.5546 -0.734337 1.39446 0
M  V30 1028 C 98.8006 -1.49613 1.36908 0
M  V30 1029 C 99.1336 -1.94169 -0.0347829 0
M  V30 1030 O 98.4086 -1.66833 -0.999847 0
M  V30 1031 C 98.6916 -2.73534 2.34203 0
M  V30 1032 C 98.5446 -2.34993 3.83534 0
M  V30 1033 C 99.8636 -3.75635 2.29317 0
M  V30 1034 H 96.9826 -0.542714 0.498629 0
M  V30 1035 H 99.6246 -0.839597 1.70443 0
M  V30 1036 H 97.7746 -3.29553 2.05736 0
M  V30 1037 H 99.4466 -1.84601 4.22753 0
M  V30 1038 H 97.6896 -1.67213 4.00278 0
M  V30 1039 H 98.3606 -3.23738 4.47099 0
M  V30 1040 H 100.837 -3.29203 2.54489 0
M  V30 1041 H 99.7126 -4.60008 2.99472 0
M  V30 1042 H 99.9736 -4.22603 1.29842 0
M  V30 1043 N 99.0327 -1.24633 -0.964593 0
M  V30 1044 C 100.279 -1.08949 -1.71049 0
M  V30 1045 C 100.612 0.370302 -1.90637 0
M  V30 1046 O 99.8867 1.27349 -1.47011 0
M  V30 1047 C 100.17 -1.83329 -3.0994 0
M  V30 1048 C 100.023 -3.37077 -2.97824 0
M  V30 1049 C 101.342 -1.60846 -4.09654 0
M  V30 1050 H 98.4607 -0.397178 -0.620821 0
M  V30 1051 H 101.103 -1.5334 -1.12191 0
M  V30 1052 H 99.2527 -1.45597 -3.60186 0
M  V30 1053 H 100.925 -3.84425 -2.5498 0
M  V30 1054 H 99.1677 -3.65298 -2.33965 0
M  V30 1055 H 99.8387 -3.84324 -3.96231 0
M  V30 1056 H 102.315 -1.93674 -3.68279 0
M  V30 1057 H 101.191 -2.1534 -5.04896 0
M  V30 1058 H 101.452 -0.547434 -4.38698 0
M  V30 1059 N 100.511 1.16574 -1.06058 0
M  V30 1060 C 101.927 1.3904 -0.783585 0
M  V30 1061 C 102.127 1.91784 0.618145 0
M  V30 1062 O 101.183 2.11511 1.37911 0
M  V30 1063 C 102.496 2.37329 -1.84649 0
M  V30 1064 C 104.044 2.51018 -1.86973 0
M  V30 1065 C 104.519 3.52588 -2.92311 0
M  V30 1066 N 106.01 3.60113 -2.91329 0
M  V30 1067 C 106.745 4.38486 -3.69482 0
M  V30 1068 N 106.241 5.20302 -4.57447 0
M  V30 1069 N 108.034 4.33446 -3.57885 0
M  V30 1070 H 100.185 0.806725 -1.96483 0
M  V30 1071 H 102.448 0.417117 -0.851303 0
M  V30 1072 H 102.154 2.05663 -2.85299 0
M  V30 1073 H 102.028 3.36946 -1.6955 0
M  V30 1074 H 104.415 2.81989 -0.869827 0
M  V30 1075 H 104.496 1.51445 -2.0615 0
M  V30 1076 H 104.14 3.22354 -3.92492 0
M  V30 1077 H 104.07 4.51886 -2.70383 0
M  V30 1078 H 106.561 3.01707 -2.27555 0
M  V30 1079 H 106.874 5.77311 -5.13743 0
M  V30 1080 H 105.219 5.19653 -4.61503 0
M  V30 1081 H 108.41 3.68586 -2.88551 0
M  V30 1082 H 108.583 4.94279 -4.19037 0
M  V30 1083 N 101.989 0.842826 1.3317 0
M  V30 1084 C 103.266 0.362216 1.92217 0
M  V30 1085 C 103.646 -1.15289 1.76838 0
M  V30 1086 O 102.994 -1.96914 1.15919 0
M  V30 1087 C 103.204 0.813495 3.39387 0
M  V30 1088 C 104.552 0.823804 4.16532 0
M  V30 1089 O 105.576 0.757358 3.48055 0
M  V30 1090 O 104.435 0.915193 5.38782 0
M  V30 1091 H 101.529 0.103317 0.820521 0
M  V30 1092 H 104.075 0.928942 1.42017 0
M  V30 1093 H 102.847 1.85624 3.4447 0
M  V30 1094 H 102.47 0.223561 3.96971 0
M  V30 1095 N 103.467 -1.45747 0.599634 0
M  V30 1096 C 104.883 -1.57424 0.26264 0
M  V30 1097 C 105.083 -1.59222 -1.23493 0
M  V30 1098 O 104.139 -1.51825 -2.01756 0
M  V30 1099 C 105.452 -2.86061 0.926795 0
M  V30 1100 C 107 -2.99722 0.901967 0
M  V30 1101 C 107.475 -4.31119 1.54598 0
M  V30 1102 N 108.966 -4.37858 1.5111 0
M  V30 1103 C 109.701 -5.3818 1.97863 0
M  V30 1104 N 109.197 -6.45083 2.52666 0
M  V30 1105 N 110.99 -5.29487 1.88679 0
M  V30 1106 H 103.141 -1.42823 1.57211 0
M  V30 1107 H 105.404 -0.68235 0.658105 0
M  V30 1108 H 105.11 -2.90605 1.98095 0
M  V30 1109 H 104.984 -3.74563 0.445238 0
M  V30 1110 H 107.371 -2.9475 -0.143617 0
M  V30 1111 H 107.452 -2.12652 1.42171 0
M  V30 1112 H 107.096 -4.36849 2.59085 0
M  V30 1113 H 107.026 -5.16992 1.00132 0
M  V30 1114 H 109.517 -3.61209 1.11068 0
M  V30 1115 H 109.83 -7.17869 2.86155 0
M  V30 1116 H 108.175 -6.45856 2.56701 0
M  V30 1117 H 111.366 -4.44877 1.4561 0
M  V30 1118 H 111.539 -6.07524 2.25429 0
M  V30 1119 N 104.945 -0.338344 -1.53925 0
M  V30 1120 C 106.173 0.261298 -2.05243 0
M  V30 1121 C 106.588 1.44625 -1.21363 0
M  V30 1122 O 105.945 1.80811 -0.247736 0
M  V30 1123 C 105.996 0.681412 -3.5502 0
M  V30 1124 O 105.717 -0.456414 -4.35716 0
M  V30 1125 C 107.218 1.34232 -4.22489 0
M  V30 1126 H 104.438 0.0513685 -0.669031 0
M  V30 1127 H 106.982 -0.488822 -1.98572 0
M  V30 1128 H 105.137 1.38148 -3.61931 0
M  V30 1129 H 105.551 -0.122564 -5.24357 0
M  V30 1130 H 107.025 1.58708 -5.28693 0
M  V30 1131 H 107.502 2.29426 -3.74514 0
M  V30 1132 H 108.108 0.684424 -4.19757 0
M  V30 1133 N 106.423 1.57458 -0.0668435 0
M  V30 1134 C 107.834 1.80776 0.466558 0
M  V30 1135 C 108.185 0.980361 1.69951 0
M  V30 1136 O 107.31 0.201441 2.1546 0
M  V30 1137 C 107.905 3.27881 0.85321 0
M  V30 1138 C 106.464 3.52062 1.3315 0
M  V30 1139 C 105.611 2.75513 0.314264 0
M  V30 1140 H 108.562 1.5598 -0.292588 0
M  V30 1141 H 108.583 3.39659 1.715 0
M  V30 1142 H 108.095 3.88075 -0.0443439 0
M  V30 1143 H 106.196 2.97167 2.24772 0
M  V30 1144 H 106.309 4.60762 1.31285 0
M  V30 1145 H 104.673 2.42123 0.790492 0
M  V30 1146 H 105.456 3.38442 -0.575477 0
M  V30 1147 N 107.901 -0.206675 1.56239 0
M  V30 1148 C 108.848 -1.25617 1.93621 0
M  V30 1149 C 109.818 -1.45824 0.795274 0
M  V30 1150 O 111.003 -1.59148 1.05245 0
M  V30 1151 C 108.143 -2.59839 2.27107 0
M  V30 1152 C 107.256 -2.47308 3.54207 0
M  V30 1153 C 106.391 -3.74155 3.7707 0
M  V30 1154 C 105.43 -3.56407 4.97635 0
M  V30 1155 N 104.567 -4.75238 5.1681 0
M  V30 1156 H 109.407 -0.930383 2.83104 0
M  V30 1157 H 106.944 -0.448065 1.4011 0
M  V30 1158 H 108.902 -3.38021 2.44535 0
M  V30 1159 H 107.532 -2.90485 1.40778 0
M  V30 1160 H 106.584 -1.60483 3.4489 0
M  V30 1161 H 107.896 -2.30122 4.42544 0
M  V30 1162 H 107.05 -4.60778 3.94675 0
M  V30 1163 H 105.789 -3.94282 2.87042 0
M  V30 1164 H 104.794 -2.68168 4.79964 0
M  V30 1165 H 106.019 -3.37736 5.89161 0
M  V30 1166 H 103.965 -4.95651 4.29728 0
M  V30 1167 H 103.882 -4.60835 5.99306 0
M  V30 1168 H 105.15 -5.63246 5.38864 0
M  V30 1169 N 109.379 -1.50304 -0.473955 0
M  V30 1170 C 110.628 -1.60392 -1.22301 0
M  V30 1171 C 110.941 -0.308411 -1.93153 0
M  V30 1172 O 112.147 -0.288156 -2.69966 0
M  V30 1173 C 110.603 -2.83109 -2.2221 0
M  V30 1174 C 110.211 -4.19524 -1.57173 0
M  V30 1175 C 111.955 -3.0254 -2.97775 0
M  V30 1176 C 109.862 -5.33431 -2.55353 0
M  V30 1177 H 108.792 -0.597286 -0.460179 0
M  V30 1178 H 111.443 -1.76731 -0.493803 0
M  V30 1179 H 109.825 -2.60322 -2.9841 0
M  V30 1180 H 110.999 -4.52554 -0.867824 0
M  V30 1181 H 109.314 -4.05674 -0.939002 0
M  V30 1182 H 111.911 -3.84811 -3.71248 0
M  V30 1183 H 112.254 -2.14154 -3.56992 0
M  V30 1184 H 112.787 -3.25494 -2.28688 0
M  V30 1185 H 109.526 -6.23962 -2.00878 0
M  V30 1186 H 109.046 -5.04823 -3.23904 0
M  V30 1187 H 110.725 -5.63887 -3.17239 0
M  V30 1188 N 110.857 0.726932 -1.39834 0
M  V30 1189 C 111.82 1.82269 -1.38962 0
M  V30 1190 C 112.82 1.58248 -0.285334 0
M  V30 1191 O 114.01 1.65499 -0.54366 0
M  V30 1192 C 111.142 3.20186 -1.17019 0
M  V30 1193 H 112.335 1.84443 -2.36476 0
M  V30 1194 H 109.888 0.931416 -1.25516 0
M  V30 1195 H 110.623 3.23669 -0.202204 0
M  V30 1196 H 110.408 3.3902 -1.96998 0
M  V30 1197 H 111.898 4.00235 -1.1917 0
M  V30 1198 N 112.336 1.25143 0.95797 0
M  V30 1199 C 113.585 1.0909 1.69654 0
M  V30 1200 C 113.898 -0.368548 1.92097 0
M  V30 1201 O 115.104 -0.649455 2.63618 0
M  V30 1202 C 113.56 1.90395 3.05414 0
M  V30 1203 C 113.168 3.4081 2.90779 0
M  V30 1204 C 114.912 1.82901 3.83076 0
M  V30 1205 C 112.819 4.14423 4.21909 0
M  V30 1206 H 111.749 0.404625 0.636235 0
M  V30 1207 H 114.4 1.4931 1.06672 0
M  V30 1208 H 112.782 1.42996 3.69281 0
M  V30 1209 H 113.956 3.95859 2.35865 0
M  V30 1210 H 112.271 3.49361 2.26575 0
M  V30 1211 H 114.868 2.35196 4.80195 0
M  V30 1212 H 115.211 0.796224 4.08615 0
M  V30 1213 H 115.744 2.28033 3.25954 0
M  V30 1214 H 112.483 5.18102 4.01561 0
M  V30 1215 H 112.003 3.64159 4.76601 0
M  V30 1216 H 113.682 4.21956 4.90471 0
M  V30 1217 N 113.814 -1.1601 1.06675 0
M  V30 1218 C 115.091 -1.82679 0.699114 0
M  V30 1219 C 115.471 -1.94559 -0.819137 0
M  V30 1220 O 114.819 -1.49169 -1.73092 0
M  V30 1221 C 115.029 -3.19445 1.40555 0
M  V30 1222 C 116.377 -3.95171 1.55323 0
M  V30 1223 O 117.401 -3.28976 1.36577 0
M  V30 1224 O 116.26 -5.13833 1.86112 0
M  V30 1225 H 113.354 -0.788954 0.247951 0
M  V30 1226 H 115.9 -1.23179 1.16726 0
M  V30 1227 H 114.672 -3.05856 2.44065 0
M  V30 1228 H 114.295 -3.86625 0.927733 0
M  V30 1229 N 115.292 -0.849877 -1.32721 0
M  V30 1230 C 116.538 -0.451591 -1.97708 0
M  V30 1231 C 116.871 0.989175 -1.6712 0
M  V30 1232 O 116.146 1.69334 -0.956891 0
M  V30 1233 C 116.429 -0.685598 -3.53513 0
M  V30 1234 C 116.282 -2.17444 -3.93749 0
M  V30 1235 C 117.601 -0.138874 -4.39881 0
M  V30 1236 H 114.72 -0.16555 -0.718166 0
M  V30 1237 H 117.362 -1.06742 -1.57182 0
M  V30 1238 H 115.512 -0.161416 -3.88165 0
M  V30 1239 H 117.184 -2.76433 -3.693 0
M  V30 1240 H 115.427 -2.65476 -3.43081 0
M  V30 1241 H 116.098 -2.28888 -5.02309 0
M  V30 1242 H 118.574 -0.587068 -4.11938 0
M  V30 1243 H 117.45 -0.332213 -5.47894 0
M  V30 1244 H 117.711 0.95806 -4.31594 0
M  V30 1245 N 116.77 1.45427 -0.607355 0
M  V30 1246 C 117.7 2.3329 0.0989352 0
M  V30 1247 C 118.681 1.46816 0.859007 0
M  V30 1248 O 119.866 1.75588 0.829604 0
M  V30 1249 C 116.996 3.29518 1.09705 0
M  V30 1250 C 115.95 4.25626 0.450206 0
M  V30 1251 C 115.276 5.11542 1.55655 0
M  V30 1252 C 116.576 5.18505 -0.628455 0
M  V30 1253 H 118.27 2.92595 -0.634716 0
M  V30 1254 H 115.816 1.40696 -0.306681 0
M  V30 1255 H 117.769 3.89855 1.59971 0
M  V30 1256 H 116.493 2.68372 1.86129 0
M  V30 1257 H 115.152 3.66586 -0.0315886 0
M  V30 1258 H 114.8 4.46765 2.31107 0
M  V30 1259 H 114.5 5.76647 1.12925 0
M  V30 1260 H 116.024 5.74748 2.06148 0
M  V30 1261 H 117.438 5.72916 -0.209877 0
M  V30 1262 H 115.835 5.92085 -0.977489 0
M  V30 1263 H 116.905 4.60948 -1.50514 0
M  V30 1264 N 118.248 0.346503 1.53744 0
M  V30 1265 C 119.211 -0.496439 2.23759 0
M  V30 1266 C 120.211 -1.0252 1.2388 0
M  V30 1267 O 121.401 -0.913974 1.48297 0
M  V30 1268 C 118.533 -1.69187 2.95954 0
M  V30 1269 H 119.726 0.115952 2.99676 0
M  V30 1270 H 117.279 0.0978939 1.55993 0
M  V30 1271 H 118.014 -2.34288 2.24231 0
M  V30 1272 H 117.799 -1.31989 3.69217 0
M  V30 1273 H 119.289 -2.28969 3.49232 0
M  V30 1274 N 119.726 -1.57421 0.075193 0
M  V30 1275 C 120.972 -1.93905 -0.594025 0
M  V30 1276 C 121.305 -0.955701 -1.69056 0
M  V30 1277 O 120.58 0.0145373 -1.94495 0
M  V30 1278 C 120.863 -3.40638 -1.1678 0
M  V30 1279 C 120.716 -4.49733 -0.0776792 0
M  V30 1280 C 122.035 -3.88259 -2.07228 0
M  V30 1281 H 119.154 -0.705105 -0.214466 0
M  V30 1282 H 121.796 -1.8947 0.141854 0
M  V30 1283 H 119.946 -3.44549 -1.79494 0
M  V30 1284 H 121.618 -4.57942 0.555573 0
M  V30 1285 H 119.861 -4.29751 0.591286 0
M  V30 1286 H 120.532 -5.49549 -0.519603 0
M  V30 1287 H 123.008 -3.86376 -1.54445 0
M  V30 1288 H 121.884 -4.91533 -2.44308 0
M  V30 1289 H 122.145 -3.26396 -2.98191 0
M  V30 1290 N 121.204 0.198386 -1.56346 0
M  V30 1291 C 122.134 1.24865 -1.9731 0
M  V30 1292 C 123.115 1.47651 -0.844576 0
M  V30 1293 O 124.3 1.59444 -1.10866 0
M  V30 1294 C 121.43 2.59358 -2.30977 0
M  V30 1295 C 120.384 2.5119 -3.46537 0
M  V30 1296 C 119.71 3.89926 -3.65871 0
M  V30 1297 C 121.01 2.03977 -4.80823 0
M  V30 1298 H 122.704 0.908252 -2.85291 0
M  V30 1299 H 120.25 0.435462 -1.37258 0
M  V30 1300 H 122.203 3.33011 -2.58228 0
M  V30 1301 H 120.927 2.95132 -1.39874 0
M  V30 1302 H 119.586 1.79993 -3.19371 0
M  V30 1303 H 119.234 4.23046 -2.72105 0
M  V30 1304 H 118.934 3.85336 -4.4361 0
M  V30 1305 H 120.458 4.65205 -3.95495 0
M  V30 1306 H 121.872 2.67386 -5.07127 0
M  V30 1307 H 120.269 2.10397 -5.62008 0
M  V30 1308 H 121.339 0.992861 -4.74626 0
M  V30 1309 N 122.682 1.50554 0.465978 0
M  V30 1310 C 123.928 1.62038 1.21949 0
M  V30 1311 C 124.261 0.322116 1.9151 0
M  V30 1312 O 123.536 -0.676723 1.82348 0
M  V30 1313 C 123.819 2.80421 2.25912 0
M  V30 1314 C 123.672 4.20144 1.60622 0
M  V30 1315 C 124.991 2.94354 3.27176 0
M  V30 1316 H 122.11 0.589752 0.441998 0
M  V30 1317 H 124.752 1.82956 0.51257 0
M  V30 1318 H 122.902 2.62717 2.86203 0
M  V30 1319 H 124.574 4.49449 1.03889 0
M  V30 1320 H 122.817 4.24165 0.909211 0
M  V30 1321 H 123.488 4.98914 2.36196 0
M  V30 1322 H 125.964 3.10578 2.76913 0
M  V30 1323 H 124.84 3.788 3.97242 0
M  V30 1324 H 125.101 2.05186 3.916 0
M  V30 1325 N 124.16 -0.719506 1.40217 0
M  V30 1326 C 125.571 -1.29848 1.34151 0
M  V30 1327 C 125.922 -1.96196 0.0131349 0
M  V30 1328 O 125.047 -1.973 -0.88892 0
M  V30 1329 C 125.642 -2.36118 2.42968 0
M  V30 1330 C 124.201 -2.8965 2.40374 0
M  V30 1331 C 123.348 -1.63393 2.24049 0
M  V30 1332 H 126.299 -0.51591 1.5008 0
M  V30 1333 H 126.32 -3.16871 2.10649 0
M  V30 1334 H 125.832 -1.878 3.39636 0
M  V30 1335 H 123.933 -3.42208 1.47392 0
M  V30 1336 H 124.046 -3.4171 3.35814 0
M  V30 1337 H 122.41 -1.88312 1.71495 0
M  V30 1338 H 123.193 -1.17104 3.2271 0
M  V30 1339 N 125.638 -1.25649 -0.95132 0
M  V30 1340 C 126.568 -1.08808 -2.06599 0
M  V30 1341 C 127.549 0.00382547 -1.701 0
M  V30 1342 O 128.734 -0.166325 -1.93486 0
M  V30 1343 C 125.864 -0.709542 -3.39975 0
M  V30 1344 C 124.818 -1.75206 -3.90496 0
M  V30 1345 C 124.144 -1.22811 -5.20405 0
M  V30 1346 C 125.444 -3.15153 -4.16504 0
M  V30 1347 H 127.138 -2.02048 -2.20946 0
M  V30 1348 H 124.684 -0.972835 -1.06169 0
M  V30 1349 H 126.637 -0.578649 -4.17408 0
M  V30 1350 H 125.361 0.258556 -3.25575 0
M  V30 1351 H 124.02 -1.87145 -3.15234 0
M  V30 1352 H 123.668 -0.250145 -5.02378 0
M  V30 1353 H 123.368 -1.92492 -5.55176 0
M  V30 1354 H 124.892 -1.10968 -6.00432 0
M  V30 1355 H 126.306 -3.06349 -4.84586 0
M  V30 1356 H 124.703 -3.82333 -4.62538 0
M  V30 1357 H 125.773 -3.61966 -3.22658 0
M  V30 1358 N 127.117 1.15442 -1.07289 0
M  V30 1359 C 128.08 2.18358 -0.696591 0
M  V30 1360 C 129.08 1.58637 0.262837 0
M  V30 1361 O 130.27 1.74145 0.0438809 0
M  V30 1362 C 127.402 3.4089 -0.0266151 0
M  V30 1363 H 128.595 2.53162 -1.60776 0
M  V30 1364 H 126.148 1.29893 -0.869342 0
M  V30 1365 H 126.883 3.11653 0.896822 0
M  V30 1366 H 126.668 3.85495 -0.716657 0
M  V30 1367 H 128.158 4.17009 0.222028 0
M  V30 1368 N 128.595 0.856903 1.32268 0
M  V30 1369 C 129.558 0.308171 2.27119 0
M  V30 1370 C 130.558 -0.533421 1.51695 0
M  V30 1371 O 131.748 -0.344607 1.70757 0
M  V30 1372 C 128.88 -0.563757 3.36206 0
M  V30 1373 H 130.073 1.14535 2.77167 0
M  V30 1374 H 127.626 0.631421 1.42978 0
M  V30 1375 H 128.361 -1.42266 2.91429 0
M  V30 1376 H 128.146 0.0386749 3.92081 0
M  V30 1377 H 129.636 -0.940386 4.06874 0
M  V30 1378 N 130.073 -1.45103 0.615059 0
M  V30 1379 C 131.32 -2.02183 0.113179 0
M  V30 1380 C 131.648 -1.48249 -1.25906 0
M  V30 1381 O 130.903 -0.650265 -1.84581 0
M  V30 1382 C 131.202 -3.57386 0.0318797 0
M  V30 1383 C 130.868 -4.30505 1.34077 0
M  V30 1384 C 129.53 -4.50197 1.69929 0
M  V30 1385 C 131.882 -4.72238 2.20546 0
M  V30 1386 C 129.21 -5.08881 2.91988 0
M  V30 1387 C 131.562 -5.32272 3.41861 0
M  V30 1388 C 130.226 -5.50187 3.77956 0
M  V30 1389 H 129.496 -0.739842 0.0414151 0
M  V30 1390 H 132.143 -1.74073 0.798168 0
M  V30 1391 H 130.448 -3.84817 -0.736409 0
M  V30 1392 H 132.145 -3.99264 -0.372712 0
M  V30 1393 H 128.735 -4.15496 1.05173 0
M  V30 1394 H 132.919 -4.56751 1.94146 0
M  V30 1395 H 128.175 -5.20939 3.2005 0
M  V30 1396 H 132.349 -5.63563 4.09109 0
M  V30 1397 H 129.976 -5.95427 4.72622 0
M  V30 1398 N 131.551 -0.354651 -1.53558 0
M  V30 1399 C 132.481 0.489091 -2.2832 0
M  V30 1400 C 133.462 1.09324 -1.30316 0
M  V30 1401 O 134.647 1.11255 -1.59173 0
M  V30 1402 C 131.777 1.63456 -3.0643 0
M  V30 1403 C 130.731 1.1582 -4.12031 0
M  V30 1404 C 130.057 2.39305 -4.7816 0
M  V30 1405 C 131.357 0.250731 -5.21698 0
M  V30 1406 H 133.051 -0.134614 -2.99097 0
M  V30 1407 H 130.597 -0.0661826 -1.43848 0
M  V30 1408 H 132.55 2.23136 -3.57475 0
M  V30 1409 H 131.274 2.28533 -2.33325 0
M  V30 1410 H 129.933 0.584146 -3.61916 0
M  V30 1411 H 129.581 3.02814 -4.01637 0
M  V30 1412 H 129.281 2.08109 -5.49513 0
M  V30 1413 H 130.805 2.99691 -5.31994 0
M  V30 1414 H 132.219 0.754695 -5.68311 0
M  V30 1415 H 130.616 0.0301468 -6.00092 0
M  V30 1416 H 131.686 -0.710125 -4.79672 0
M  V30 1417 N 133.029 1.57378 -0.0835403 0
M  V30 1418 C 133.959 2.1641 0.87686 0
M  V30 1419 C 134.94 1.09429 1.30228 0
M  V30 1420 O 136.125 1.37516 1.37124 0
M  V30 1421 C 133.255 2.73517 2.14022 0
M  V30 1422 C 132.209 3.85769 1.85381 0
M  V30 1423 C 131.535 4.29529 3.18448 0
M  V30 1424 C 132.835 5.09486 1.14984 0
M  V30 1425 H 134.529 2.96914 0.385059 0
M  V30 1426 H 132.075 1.42823 0.18377 0
M  V30 1427 H 134.028 3.13463 2.81636 0
M  V30 1428 H 132.752 1.90252 2.65465 0
M  V30 1429 H 131.411 3.46345 1.20169 0
M  V30 1430 H 131.059 3.43169 3.67755 0
M  V30 1431 H 130.759 5.05204 3.00071 0
M  V30 1432 H 132.283 4.72099 3.8724 0
M  V30 1433 H 133.697 5.46674 1.72687 0
M  V30 1434 H 132.094 5.90515 1.06826 0
M  V30 1435 H 133.164 4.84724 0.130749 0
M  V30 1436 N 134.507 -0.190092 1.56449 0
M  V30 1437 C 135.784 -0.935886 1.71757 0
M  V30 1438 C 136.164 -2.01173 0.639726 0
M  V30 1439 O 135.512 -2.25827 -0.348502 0
M  V30 1440 C 135.722 -1.51775 3.1427 0
M  V30 1441 C 137.07 -1.99794 3.74656 0
M  V30 1442 O 138.094 -1.61607 3.1743 0
M  V30 1443 O 136.953 -2.70079 4.751 0
M  V30 1444 H 134.047 -0.439229 0.700719 0
M  V30 1445 H 136.593 -0.179395 1.68749 0
M  V30 1446 H 135.365 -0.742505 3.84191 0
M  V30 1447 H 134.988 -2.33894 3.21527 0
M  V30 1448 N 135.985 -1.50799 -0.457987 0
M  V30 1449 C 137.233 -1.62121 -1.2067 0
M  V30 1450 C 137.554 -0.329793 -1.92191 0
M  V30 1451 O 136.824 0.653409 -1.84682 0
M  V30 1452 H 135.404 -0.597441 -0.448411 0
M  V30 1453 H 138.066 -1.87637 -0.527096 0
M  V30 1454 H 137.162 -2.43882 -1.94751 0
M  V30 1455 N 137.463 0.71206 -1.40597 0
M  V30 1456 C 138.688 1.50617 -1.42581 0
M  V30 1457 C 139.113 1.88079 -0.0282102 0
M  V30 1458 O 138.471 1.53511 0.964579 0
M  V30 1459 C 138.519 2.7557 -2.3258 0
M  V30 1460 O 137.623 3.72414 -1.77148 0
M  V30 1461 H 136.964 0.453966 -0.484573 0
M  V30 1462 H 139.494 0.876649 -1.84868 0
M  V30 1463 H 139.504 3.2406 -2.47889 0
M  V30 1464 H 138.179 2.47639 -3.34138 0
M  V30 1465 H 136.756 3.31276 -1.71204 0
M  V30 1466 N 138.941 1.26152 0.944643 0
M  V30 1467 C 140.352 1.10454 1.50522 0
M  V30 1468 C 140.703 -0.31635 1.93633 0
M  V30 1469 O 139.828 -1.20746 1.79581 0
M  V30 1470 C 140.423 1.99891 2.73549 0
M  V30 1471 C 138.982 1.88348 3.25886 0
M  V30 1472 C 138.129 1.93447 1.9868 0
M  V30 1473 H 141.08 1.39292 0.760489 0
M  V30 1474 H 141.101 1.54477 3.47732 0
M  V30 1475 H 140.613 3.03297 2.42141 0
M  V30 1476 H 138.714 0.878636 3.62092 0
M  V30 1477 H 138.827 2.73696 3.93227 0
M  V30 1478 H 137.191 1.37456 2.14425 0
M  V30 1479 H 137.974 2.98476 1.69607 0
M  V30 1480 N 140.419 -1.14872 1.07899 0
M  V30 1481 C 141.696 -1.81928 0.71845 0
M  V30 1482 C 142.076 -1.95417 -0.798455 0
M  V30 1483 O 141.424 -1.50997 -1.715 0
M  V30 1484 C 141.634 -3.17937 1.43935 0
M  V30 1485 C 142.982 -3.93501 1.59506 0
M  V30 1486 O 144.006 -3.27509 1.40058 0
M  V30 1487 O 142.865 -5.1183 1.91551 0
M  V30 1488 H 139.959 -0.78628 0.256305 0
M  V30 1489 H 142.505 -1.21934 1.18026 0
M  V30 1490 H 141.277 -3.0325 2.47295 0
M  V30 1491 H 140.9 -3.85619 0.968687 0
M  V30 1492 N 141.898 -0.863906 -1.31812 0
M  V30 1493 C 143.144 -0.481841 -1.9761 0
M  V30 1494 C 143.499 0.954048 -1.6708 0
M  V30 1495 O 142.792 1.66182 -0.953624 0
M  V30 1496 C 142.986 -0.668547 -3.51091 0
M  V30 1497 C 142.815 -2.12103 -3.96538 0
M  V30 1498 C 141.585 -2.76141 -4.23171 0
M  V30 1499 C 143.783 -3.09265 -4.10925 0
M  V30 1500 N 141.765 -4.12205 -4.54929 0
M  V30 1501 C 143.136 -4.30341 -4.46326 0
M  V30 1502 C 145.191 -3.05337 -3.93286 0
M  V30 1503 C 143.894 -5.48 -4.65928 0
M  V30 1504 C 145.92 -4.22248 -4.14078 0
M  V30 1505 C 145.282 -5.42085 -4.49804 0
M  V30 1506 H 141.381 -0.225238 -0.74886 0
M  V30 1507 H 143.965 -1.11723 -1.59455 0
M  V30 1508 H 142.136 -0.0627898 -3.88349 0
M  V30 1509 H 143.868 -0.255467 -4.03893 0
M  V30 1510 H 140.623 -2.27125 -4.15585 0
M  V30 1511 H 141.047 -4.82416 -4.74978 0
M  V30 1512 H 145.689 -2.138 -3.64759 0
M  V30 1513 H 143.407 -6.40059 -4.93305 0
M  V30 1514 H 146.993 -4.20654 -4.01922 0
M  V30 1515 H 145.873 -6.31044 -4.65567 0
M  V30 1516 N 143.376 1.44774 -0.622745 0
M  V30 1517 C 144.601 2.06999 -0.128968 0
M  V30 1518 C 145.026 1.4617 1.1839 0
M  V30 1519 O 144.384 0.560007 1.72434 0
M  V30 1520 C 144.432 3.60595 -0.0188351 0
M  V30 1521 O 143.536 3.99398 1.02739 0
M  V30 1522 H 142.877 0.659047 -0.0809544 0
M  V30 1523 H 145.407 1.85784 -0.85705 0
M  V30 1524 H 145.417 4.07627 0.174476 0
M  V30 1525 H 144.092 4.04252 -0.977384 0
M  V30 1526 H 142.669 3.64011 0.809326 0
M  V30 1527 N 144.854 0.36279 1.53368 0
M  V30 1528 C 145.784 -0.476976 2.28576 0
M  V30 1529 C 146.765 -1.08631 1.30894 0
M  V30 1530 O 147.95 -1.10409 1.59761 0
M  V30 1531 C 145.08 -1.61828 3.07293 0
M  V30 1532 C 144.034 -1.13633 4.1264 0
M  V30 1533 C 143.36 -2.36766 4.79423 0
M  V30 1534 C 144.66 -0.223061 5.21823 0
M  V30 1535 H 146.354 0.150474 2.99022 0
M  V30 1536 H 143.9 0.0738103 1.43811 0
M  V30 1537 H 145.853 -2.21237 3.58653 0
M  V30 1538 H 144.577 -2.27292 2.34533 0
M  V30 1539 H 143.236 -0.564945 3.62221 0
M  V30 1540 H 142.884 -3.0068 4.03238 0
M  V30 1541 H 142.584 -2.05192 5.50609 0
M  V30 1542 H 144.108 -2.96865 5.33576 0
M  V30 1543 H 145.522 -0.724545 5.68703 0
M  V30 1544 H 143.919 0.001678 6.001 0
M  V30 1545 H 144.989 0.735553 4.79289 0
M  V30 1546 N 146.332 -1.57332 0.0918853 0
M  V30 1547 C 147.562 -1.98286 -0.580205 0
M  V30 1548 C 147.97 -0.969713 -1.6246 0
M  V30 1549 O 147.313 0.0493501 -1.83634 0
M  V30 1550 C 147.375 -3.35603 -1.28882 0
M  V30 1551 C 147.039 -4.55285 -0.395559 0
M  V30 1552 C 148.036 -5.18687 0.355002 0
M  V30 1553 C 145.721 -5.01314 -0.314556 0
M  V30 1554 C 147.715 -6.26484 1.17458 0
M  V30 1555 C 145.402 -6.08979 0.508677 0
M  V30 1556 C 146.4 -6.71429 1.2519 0
M  V30 1557 O 146.088 -7.77018 2.06151 0
M  V30 1558 H 145.82 -0.656678 -0.160466 0
M  V30 1559 H 148.374 -2.04721 0.16688 0
M  V30 1560 H 146.604 -3.25842 -2.08241 0
M  V30 1561 H 148.293 -3.61026 -1.85512 0
M  V30 1562 H 149.059 -4.84058 0.302134 0
M  V30 1563 H 144.938 -4.5247 -0.882697 0
M  V30 1564 H 148.482 -6.75159 1.75518 0
M  V30 1565 H 144.379 -6.4304 0.563037 0
M  V30 1566 H 145.147 -7.93991 1.98799 0
M  V30 1567 N 147.81 0.181792 -1.56548 0
M  V30 1568 C 149.05 0.906711 -1.83189 0
M  V30 1569 C 149.414 1.79882 -0.671312 0
M  V30 1570 O 150.615 2.56054 -0.81792 0
M  V30 1571 C 148.886 1.69023 -3.14906 0
M  V30 1572 S 150.445 2.46535 -3.62996 0
M  V30 1573 H 147.263 0.303877 -0.642791 0
M  V30 1574 H 149.865 0.169107 -1.94767 0
M  V30 1575 H 148.569 1.02571 -3.97376 0
M  V30 1576 H 148.1 2.46941 -3.06241 0
M  V30 1577 H 150.115 3.71014 -3.29489 0
M  V30 1578 N 149.288 1.51039 0.449983 0
M  V30 1579 C 150.251 1.70863 1.5277 0
M  V30 1580 C 151.251 0.578846 1.5002 0
M  V30 1581 O 152.441 0.846213 1.52266 0
M  V30 1582 C 149.573 1.75341 2.9235 0
M  V30 1583 H 150.766 2.67034 1.36502 0
M  V30 1584 H 148.319 1.40838 0.677812 0
M  V30 1585 H 149.054 0.809383 3.14037 0
M  V30 1586 H 148.839 2.57436 2.95752 0
M  V30 1587 H 150.329 1.92559 3.70555 0
M  V30 1588 N 150.766 -0.704594 1.40972 0
M  V30 1589 C 152.012 -1.46675 1.40051 0
M  V30 1590 C 152.345 -1.94199 0.00641102 0
M  V30 1591 O 151.62 -1.68916 -0.964235 0
M  V30 1592 C 151.903 -2.68505 2.39952 0
M  V30 1593 C 151.756 -2.26805 3.88432 0
M  V30 1594 C 153.075 -3.70686 2.37233 0
M  V30 1595 H 150.194 -0.532015 0.510028 0
M  V30 1596 H 152.836 -0.803255 1.72185 0
M  V30 1597 H 150.986 -3.25114 2.1268 0
M  V30 1598 H 152.658 -1.75592 4.26574 0
M  V30 1599 H 150.901 -1.58685 4.03734 0
M  V30 1600 H 151.572 -3.14181 4.53866 0
M  V30 1601 H 154.048 -3.23731 2.61415 0
M  V30 1602 H 152.924 -4.53553 3.09162 0
M  V30 1603 H 153.185 -4.19754 1.38777 0
M  V30 1604 N 152.244 -1.26651 -0.937939 0
M  V30 1605 C 153.49 -1.13562 -1.68746 0
M  V30 1606 C 153.845 0.317241 -1.89767 0
M  V30 1607 O 153.138 1.22939 -1.46957 0
M  V30 1608 C 153.332 -1.84168 -3.06295 0
M  V30 1609 C 153.161 -3.36171 -2.98696 0
M  V30 1610 C 151.931 -4.05468 -3.01535 0
M  V30 1611 C 154.129 -4.32312 -2.78588 0
M  V30 1612 N 152.111 -5.44118 -2.84269 0
M  V30 1613 C 153.482 -5.58159 -2.69924 0
M  V30 1614 C 155.537 -4.22524 -2.63396 0
M  V30 1615 C 154.24 -6.75335 -2.47618 0
M  V30 1616 C 156.266 -5.39411 -2.42466 0
M  V30 1617 C 155.628 -6.64208 -2.34536 0
M  V30 1618 H 151.727 -0.470361 -0.624728 0
M  V30 1619 H 154.311 -1.59982 -1.10968 0
M  V30 1620 H 152.482 -1.40219 -3.62206 0
M  V30 1621 H 154.214 -1.63674 -3.70126 0
M  V30 1622 H 150.969 -3.56854 -3.11372 0
M  V30 1623 H 151.393 -6.1693 -2.78795 0
M  V30 1624 H 156.035 -3.26771 -2.68292 0
M  V30 1625 H 153.753 -7.71182 -2.41463 0
M  V30 1626 H 157.339 -5.33711 -2.31611 0
M  V30 1627 H 156.219 -7.53129 -2.18555 0
M  V30 1628 N 153.722 1.14298 -1.08507 0
M  V30 1629 C 154.652 2.21542 -0.737646 0
M  V30 1630 C 155.633 1.67773 0.280377 0
M  V30 1631 O 156.818 1.93616 0.150521 0
M  V30 1632 C 153.948 3.46988 -0.147259 0
M  V30 1633 C 152.902 4.13789 -1.09374 0
M  V30 1634 C 152.228 5.33449 -0.365524 0
M  V30 1635 C 153.528 4.62208 -2.4323 0
M  V30 1636 H 155.222 2.5086 -1.6343 0
M  V30 1637 H 152.768 1.20576 -0.787243 0
M  V30 1638 H 154.721 4.21262 0.107808 0
M  V30 1639 H 153.445 3.17037 0.784538 0
M  V30 1640 H 152.104 3.4147 -1.33393 0
M  V30 1641 H 151.752 4.99759 0.57011 0
M  V30 1642 H 151.452 5.79088 -0.996512 0
M  V30 1643 H 152.976 6.10485 -0.118534 0
M  V30 1644 H 154.39 5.27952 -2.23472 0
M  V30 1645 H 152.787 5.18553 -3.02031 0
M  V30 1646 H 153.857 3.77224 -3.04681 0
M  V30 1647 N 155.201 0.870884 1.31352 0
M  V30 1648 C 156.131 0.343096 2.30966 0
M  V30 1649 C 157.112 -0.566507 1.60389 0
M  V30 1650 O 158.297 -0.483336 1.88089 0
M  V30 1651 C 155.427 -0.455487 3.443 0
M  V30 1652 C 154.381 0.361103 4.26474 0
M  V30 1653 C 153.707 -0.563221 5.31725 0
M  V30 1654 C 155.007 1.59566 4.97329 0
M  V30 1655 H 156.701 1.17548 2.75359 0
M  V30 1656 H 154.247 0.566686 1.32381 0
M  V30 1657 H 156.2 -0.83525 4.13039 0
M  V30 1658 H 154.924 -1.32139 2.98675 0
M  V30 1659 H 153.583 0.722825 3.59403 0
M  V30 1660 H 153.231 -1.42643 4.82351 0
M  V30 1661 H 152.931 -0.0207409 5.87596 0
M  V30 1662 H 154.455 -0.939808 6.03324 0
M  V30 1663 H 155.869 1.28728 5.58661 0
M  V30 1664 H 154.266 2.07728 5.63 0
M  V30 1665 H 155.336 2.34798 4.24262 0
M  V30 1666 N 156.679 -1.44442 0.630414 0
M  V30 1667 C 157.626 -2.30678 -0.0749355 0
M  V30 1668 C 158.596 -1.4344 -0.837502 0
M  V30 1669 O 159.781 -1.72343 -0.818684 0
M  V30 1670 C 156.921 -3.28706 -1.05103 0
M  V30 1671 C 156.034 -4.31046 -0.286954 0
M  V30 1672 C 155.169 -5.16167 -1.2548 0
M  V30 1673 C 154.208 -6.10216 -0.479843 0
M  V30 1674 N 153.345 -6.88039 -1.39811 0
M  V30 1675 H 158.185 -2.90454 0.666386 0
M  V30 1676 H 155.722 -1.43107 0.340404 0
M  V30 1677 H 157.68 -3.84027 -1.63031 0
M  V30 1678 H 156.31 -2.70632 -1.75949 0
M  V30 1679 H 155.362 -3.78203 0.408243 0
M  V30 1680 H 156.674 -4.97794 0.316657 0
M  V30 1681 H 155.828 -5.76002 -1.90544 0
M  V30 1682 H 154.567 -4.49491 -1.89233 0
M  V30 1683 H 153.572 -5.49491 0.184295 0
M  V30 1684 H 154.797 -6.78928 0.152965 0
M  V30 1685 H 152.743 -6.24032 -2.02287 0
M  V30 1686 H 152.66 -7.51223 -0.848508 0
M  V30 1687 H 153.928 -7.52397 -2.03762 0
M  V30 1688 N 158.157 -0.370918 -1.53173 0
M  V30 1689 C 159.568 0.107139 -1.86392 0
M  V30 1690 C 159.919 1.47714 -1.29132 0
M  V30 1691 O 159.044 2.07464 -0.615439 0
M  V30 1692 C 159.639 0.201187 -3.38202 0
M  V30 1693 C 158.198 0.623507 -3.712 0
M  V30 1694 C 157.345 -0.225978 -2.76378 0
M  V30 1695 H 160.296 -0.58951 -1.47345 0
M  V30 1696 H 160.317 1.02377 -3.66468 0
M  V30 1697 H 159.829 -0.796058 -3.79848 0
M  V30 1698 H 157.93 1.62879 -3.35114 0
M  V30 1699 H 158.043 0.394414 -4.77474 0
M  V30 1700 H 156.407 0.305962 -2.52856 0
M  V30 1701 H 157.19 -1.22086 -3.20858 0
M  V30 1702 N 159.635 1.57281 -0.100228 0
M  V30 1703 C 160.565 2.17328 0.853857 0
M  V30 1704 C 161.546 1.10804 1.2906 0
M  V30 1705 O 162.731 1.38963 1.35657 0
M  V30 1706 C 159.861 2.75772 2.11109 0
M  V30 1707 C 158.815 3.87713 1.81279 0
M  V30 1708 C 158.141 4.32882 3.13874 0
M  V30 1709 C 159.441 5.10677 1.09574 0
M  V30 1710 H 161.135 2.97305 0.353545 0
M  V30 1711 H 158.681 1.43009 0.168612 0
M  V30 1712 H 160.634 3.16433 2.78296 0
M  V30 1713 H 159.358 1.93057 2.63432 0
M  V30 1714 H 158.017 3.476 1.16489 0
M  V30 1715 H 157.665 3.47051 3.64095 0
M  V30 1716 H 157.365 5.08358 2.94696 0
M  V30 1717 H 158.889 4.7618 3.82211 0
M  V30 1718 H 160.303 5.48474 1.66879 0
M  V30 1719 H 158.7 5.91615 1.00557 0
M  V30 1720 H 159.77 4.84835 0.0793299 0
M  V30 1721 N 161.113 -0.173488 1.56642 0
M  V30 1722 C 162.529 -0.525174 1.50712 0
M  V30 1723 C 162.729 -1.8476 0.804107 0
M  V30 1724 O 161.785 -2.49869 0.363574 0
M  V30 1725 C 163.098 -0.559937 2.95441 0
M  V30 1726 C 164.646 -0.647288 3.06234 0
M  V30 1727 C 165.121 -0.712963 4.52417 0
M  V30 1728 N 166.612 -0.775911 4.56655 0
M  V30 1729 C 167.347 -0.847264 5.67106 0
M  V30 1730 N 166.843 -0.879585 6.87194 0
M  V30 1731 N 168.636 -0.886117 5.55071 0
M  V30 1732 H 160.787 0.693681 2.00753 0
M  V30 1733 H 163.05 0.249841 0.914485 0
M  V30 1734 H 162.756 0.343049 3.50023 0
M  V30 1735 H 162.63 -1.40718 3.49969 0
M  V30 1736 H 165.017 -1.5407 2.51687 0
M  V30 1737 H 165.098 0.226586 2.54794 0
M  V30 1738 H 164.742 0.176183 5.07594 0
M  V30 1739 H 164.672 -1.60295 5.0161 0
M  V30 1740 H 167.163 -0.759304 3.70193 0
M  V30 1741 H 167.476 -0.935144 7.67121 0
M  V30 1742 H 165.821 -0.847898 6.89808 0
M  V30 1743 H 169.012 -0.857853 4.60172 0
M  V30 1744 H 169.185 -0.938263 6.41171 0
M  V30 1745 N 162.591 -1.51276 -0.441967 0
M  V30 1746 C 163.868 -1.54252 -1.20273 0
M  V30 1747 C 164.248 -0.30408 -2.08898 0
M  V30 1748 O 163.596 0.711084 -2.17154 0
M  V30 1749 C 163.806 -2.85406 -2.00859 0
M  V30 1750 C 165.154 -3.37181 -2.58059 0
M  V30 1751 O 166.178 -2.86925 -2.11074 0
M  V30 1752 O 165.037 -4.24858 -3.43741 0
M  V30 1753 H 162.131 -0.619969 -0.547328 0
M  V30 1754 H 164.677 -1.63586 -0.451413 0
M  V30 1755 H 163.449 -3.67003 -1.35736 0
M  V30 1756 H 163.072 -2.79213 -2.83065 0
M  V30 1757 N 164.069 0.697108 -1.41344 0
M  V30 1758 C 165.294 1.49096 -1.44171 0
M  V30 1759 C 165.719 1.88038 -0.0481568 0
M  V30 1760 O 165.077 1.54525 0.948243 0
M  V30 1761 C 165.125 2.73088 -2.3549 0
M  V30 1762 O 164.229 3.70514 -1.81088 0
M  V30 1763 H 163.57 0.448801 -0.489361 0
M  V30 1764 H 166.1 0.856992 -1.85787 0
M  V30 1765 H 166.11 3.21413 -2.51312 0
M  V30 1766 H 164.785 2.44081 -3.36745 0
M  V30 1767 H 163.362 3.29441 -1.74708 0
M  V30 1768 N 165.547 1.27147 0.931209 0
M  V30 1769 C 166.775 1.16082 1.71267 0
M  V30 1770 C 167.19 -0.282772 1.8667 0
M  V30 1771 O 166.547 -1.19283 1.38122 0
M  V30 1772 C 166.598 1.8358 3.11417 0
M  V30 1773 O 166.319 3.22299 2.96741 0
M  V30 1774 C 167.82 1.78597 4.05732 0
M  V30 1775 H 165.04 0.403758 0.535929 0
M  V30 1776 H 167.584 1.67953 1.16671 0
M  V30 1777 H 165.739 1.35623 3.62885 0
M  V30 1778 H 166.153 3.55851 3.85319 0
M  V30 1779 H 167.627 2.30444 5.01597 0
M  V30 1780 H 168.104 0.754564 4.3267 0
M  V30 1781 H 168.71 2.26152 3.60188 0
M  V30 1782 N 167.025 -1.13721 1.09112 0
M  V30 1783 C 168.272 -1.84924 0.825192 0
M  V30 1784 C 168.6 -1.83347 -0.649151 0
M  V30 1785 O 167.855 -1.26449 -1.49362 0
M  V30 1786 C 168.154 -3.32861 1.30146 0
M  V30 1787 C 167.82 -3.54621 2.78486 0
M  V30 1788 C 166.482 -3.60268 3.18999 0
M  V30 1789 C 168.834 -3.62855 3.74146 0
M  V30 1790 C 166.162 -3.71679 4.53951 0
M  V30 1791 C 168.514 -3.75793 5.08883 0
M  V30 1792 C 167.178 -3.79692 5.4899 0
M  V30 1793 H 166.448 -0.676684 0.301959 0
M  V30 1794 H 169.095 -1.3428 1.36533 0
M  V30 1795 H 167.4 -3.85835 0.681064 0
M  V30 1796 H 169.097 -3.86395 1.07236 0
M  V30 1797 H 165.687 -3.50879 2.46134 0
M  V30 1798 H 169.871 -3.57775 3.43963 0
M  V30 1799 H 165.127 -3.72963 4.84467 0
M  V30 1800 H 169.301 -3.81107 5.82864 0
M  V30 1801 H 166.928 -3.88287 6.53558 0
M  V30 1802 N 168.503 -0.877838 -1.30888 0
M  V30 1803 C 169.75 -0.492696 -1.96415 0
M  V30 1804 C 170.078 0.956671 -1.69346 0
M  V30 1805 O 169.333 1.68993 -0.986913 0
M  V30 1806 C 169.632 -0.705748 -3.50363 0
M  V30 1807 C 169.298 -2.1291 -3.97467 0
M  V30 1808 C 167.96 -2.51834 -4.1004 0
M  V30 1809 C 170.312 -3.05702 -4.22132 0
M  V30 1810 C 167.64 -3.82775 -4.44635 0
M  V30 1811 C 169.992 -4.36166 -4.58194 0
M  V30 1812 C 168.656 -4.74993 -4.68975 0
M  V30 1813 H 167.926 -0.18029 -0.718733 0
M  V30 1814 H 170.573 -1.11233 -1.55883 0
M  V30 1815 H 168.878 -0.00303058 -3.918 0
M  V30 1816 H 170.575 -0.387456 -3.99124 0
M  V30 1817 H 167.165 -1.81694 -3.88182 0
M  V30 1818 H 171.349 -2.76853 -4.11906 0
M  V30 1819 H 166.605 -4.12609 -4.51181 0
M  V30 1820 H 170.779 -5.08111 -4.76231 0
M  V30 1821 H 168.406 -5.76495 -4.95537 0
M  V30 1822 N 169.982 1.44106 -0.638065 0
M  V30 1823 C 171.393 1.85316 -0.226894 0
M  V30 1824 C 171.744 1.53399 1.22324 0
M  V30 1825 O 170.869 0.975463 1.93167 0
M  V30 1826 C 171.464 3.3637 -0.405013 0
M  V30 1827 C 170.023 3.76369 -0.0482902 0
M  V30 1828 C 169.17 2.67921 -0.715108 0
M  V30 1829 H 172.121 1.34474 -0.842764 0
M  V30 1830 H 172.142 3.7885 0.354 0
M  V30 1831 H 171.654 3.59569 -1.46053 0
M  V30 1832 H 169.755 3.58784 1.00522 0
M  V30 1833 H 169.868 4.76856 -0.463187 0
M  V30 1834 H 168.232 2.54259 -0.149753 0
M  V30 1835 H 169.015 2.93951 -1.77335 0
M  V30 1836 N 171.46 0.379036 1.52974 0
M  V30 1837 C 172.706 -0.206727 2.01744 0
M  V30 1838 C 173.039 -1.47314 1.26539 0
M  V30 1839 O 172.314 -1.91084 0.362903 0
M  V30 1840 C 172.597 -0.485066 3.56818 0
M  V30 1841 C 172.45 0.795919 4.42702 0
M  V30 1842 C 173.769 -1.28003 4.21074 0
M  V30 1843 H 170.888 -0.0736607 0.73331 0
M  V30 1844 H 173.53 0.506581 1.83122 0
M  V30 1845 H 171.68 -1.09272 3.72816 0
M  V30 1846 H 173.352 1.43307 4.38476 0
M  V30 1847 H 171.595 1.41344 4.10127 0
M  V30 1848 H 172.266 0.555947 5.49193 0
M  V30 1849 H 174.742 -0.765867 4.08991 0
M  V30 1850 H 173.618 -1.44352 5.29579 0
M  V30 1851 H 173.879 -2.29236 3.78026 0
M  V30 1852 N 172.938 -1.57226 0.108567 0
M  V30 1853 C 173.868 -2.17778 -0.84232 0
M  V30 1854 C 174.849 -1.11487 -1.2847 0
M  V30 1855 O 176.034 -1.39681 -1.34918 0
M  V30 1856 C 173.164 -2.76888 -2.09644 0
M  V30 1857 C 172.118 -3.88669 -1.79221 0
M  V30 1858 C 171.444 -4.34541 -3.11574 0
M  V30 1859 C 172.744 -5.11251 -1.06864 0
M  V30 1860 H 174.438 -2.97489 -0.337774 0
M  V30 1861 H 171.984 -1.43097 -0.161025 0
M  V30 1862 H 173.937 -3.17904 -2.76614 0
M  V30 1863 H 172.661 -1.94451 -2.62405 0
M  V30 1864 H 171.32 -3.48213 -1.14644 0
M  V30 1865 H 170.968 -3.48977 -3.62249 0
M  V30 1866 H 170.668 -5.09914 -2.91996 0
M  V30 1867 H 172.192 -4.782 -3.7968 0
M  V30 1868 H 173.606 -5.49352 -1.63968 0
M  V30 1869 H 172.003 -5.9214 -0.974178 0
M  V30 1870 H 173.073 -4.8487 -0.0536168 0
M  V30 1871 N 174.416 0.165178 -1.56732 0
M  V30 1872 C 175.664 0.879068 -1.8198 0
M  V30 1873 C 175.985 1.82514 -0.686561 0
M  V30 1874 O 175.255 1.93694 0.293146 0
M  V30 1875 H 173.835 0.327608 -0.671329 0
M  V30 1876 H 176.497 0.163526 -1.94213 0
M  V30 1877 H 175.593 1.45228 -2.76252 0
M  V30 1878 N 175.894 1.51508 0.433938 0
M  V30 1879 C 177.31 1.39759 0.770682 0
M  V30 1880 C 177.51 0.482594 1.95636 0
M  V30 1881 O 176.566 -0.0609691 2.52426 0
M  V30 1882 C 177.879 2.81851 1.04787 0
M  V30 1883 C 179.427 2.91025 1.1521 0
M  V30 1884 C 179.902 4.34032 1.46219 0
M  V30 1885 N 181.393 4.37154 1.53136 0
M  V30 1886 C 182.128 5.4484 1.78709 0
M  V30 1887 N 181.624 6.62682 2.02051 0
M  V30 1888 N 183.417 5.32324 1.80519 0
M  V30 1889 H 175.568 2.09548 -0.346892 0
M  V30 1890 H 177.831 0.943446 -0.0928074 0
M  V30 1891 H 177.537 3.50815 0.249304 0
M  V30 1892 H 177.411 3.21386 1.97461 0
M  V30 1893 H 179.798 2.22257 1.94128 0
M  V30 1894 H 179.879 2.54983 0.204281 0
M  V30 1895 H 179.523 5.03351 0.678274 0
M  V30 1896 H 179.453 4.6759 2.42212 0
M  V30 1897 H 181.944 3.52197 1.36987 0
M  V30 1898 H 182.257 7.40543 2.20943 0
M  V30 1899 H 180.602 6.65791 1.99366 0
M  V30 1900 H 183.793 4.39246 1.61805 0
M  V30 1901 H 183.966 6.16328 2.00111 0
M  V30 1902 N 177.372 -0.689602 1.41712 0
M  V30 1903 C 178.618 -1.45181 1.41599 0
M  V30 1904 C 178.951 -1.94181 0.0270081 0
M  V30 1905 O 178.226 -1.6993 -0.946265 0
M  V30 1906 C 178.509 -2.65945 2.42787 0
M  V30 1907 C 178.362 -2.22672 3.90816 0
M  V30 1908 C 179.681 -3.68149 2.41151 0
M  V30 1909 H 176.8 -0.526576 0.515642 0
M  V30 1910 H 179.442 -0.784947 1.73028 0
M  V30 1911 H 177.592 -3.2284 2.16116 0
M  V30 1912 H 179.264 -1.71058 4.28412 0
M  V30 1913 H 177.507 -1.54394 4.05395 0
M  V30 1914 H 178.178 -3.0935 4.57172 0
M  V30 1915 H 180.654 -3.2094 2.64834 0
M  V30 1916 H 179.53 -4.50248 3.13955 0
M  V30 1917 H 179.791 -4.18259 1.43221 0
M  V30 1918 N 178.85 -1.27639 -0.924453 0
M  V30 1919 C 179.78 -1.13166 -2.04244 0
M  V30 1920 C 180.761 -0.032256 -1.70069 0
M  V30 1921 O 181.946 -0.207328 -1.9309 0
M  V30 1922 C 179.076 -0.781496 -3.38393 0
M  V30 1923 C 178.03 -1.83449 -3.86692 0
M  V30 1924 C 177.356 -1.33822 -5.17683 0
M  V30 1925 C 178.656 -3.23917 -4.09726 0
M  V30 1926 H 180.35 -2.06689 -2.1661 0
M  V30 1927 H 177.896 -0.995136 -1.04082 0
M  V30 1928 H 179.849 -0.667057 -4.16087 0
M  V30 1929 H 178.573 0.189439 -3.2605 0
M  V30 1930 H 177.232 -1.93789 -3.11193 0
M  V30 1931 H 176.88 -0.35665 -5.01734 0
M  V30 1932 H 176.58 -2.04224 -5.50968 0
M  V30 1933 H 178.104 -1.23679 -5.97943 0
M  V30 1934 H 179.518 -3.16559 -4.77978 0
M  V30 1935 H 177.915 -3.92059 -4.54324 0
M  V30 1936 H 178.985 -3.68729 -3.14908 0
M  V30 1937 N 180.328 1.1314 -1.09713 0
M  V30 1938 C 181.291 2.16831 -0.742751 0
M  V30 1939 C 182.291 1.59159 0.229129 0
M  V30 1940 O 183.481 1.74199 0.00693237 0
M  V30 1941 C 180.613 3.40756 -0.0989168 0
M  V30 1942 H 181.806 2.49695 -1.66109 0
M  V30 1943 H 179.359 1.2802 -0.896699 0
M  V30 1944 H 180.094 3.13485 0.830514 0
M  V30 1945 H 179.879 3.83888 -0.798265 0
M  V30 1946 H 181.369 4.17386 0.133524 0
M  V30 1947 N 181.806 0.884767 1.30421 0
M  V30 1948 C 182.754 0.340869 2.30089 0
M  V30 1949 C 183.748 -0.55201 1.60154 0
M  V30 1950 O 184.954 -0.436467 1.74628 0
M  V30 1951 H 181.329 0.0915739 0.746404 0
M  V30 1952 H 183.3 1.19513 2.73421 0
M  V30 1953 C 182.049 -0.429779 3.45034 0
M  V30 1954 H 181.372 0.248024 3.9903 0
M  V30 1955 H 182.812 -0.775445 4.16849 0
M  V30 1956 C 181.271 -1.62677 2.95022 0
M  V30 1957 O 181.801 -2.72614 2.95033 0
M  V30 1958 N 180.007 -1.46387 2.51036 0
M  V30 1959 H 179.554 -0.569506 2.51226 0
M  V30 1960 H 179.512 -2.26612 2.17932 0
M  V30 1961 N 183.284 -1.43765 0.645699 0
M  V30 1962 C 184.194 -2.34544 -0.0512957 0
M  V30 1963 C 185.21 -1.53455 -0.82022 0
M  V30 1964 O 186.386 -1.86133 -0.769176 0
M  V30 1965 C 183.451 -3.31636 -1.01087 0
M  V30 1966 C 182.512 -4.2863 -0.239712 0
M  V30 1967 C 181.745 -5.21084 -1.15358 0
M  V30 1968 O 181.968 -5.1779 -2.39269 0
M  V30 1969 O 180.902 -5.98593 -0.630038 0
M  V30 1970 H 184.728 -2.95624 0.695718 0
M  V30 1971 H 182.313 -1.43781 0.405882 0
M  V30 1972 H 184.195 -3.9136 -1.56254 0
M  V30 1973 H 182.87 -2.73069 -1.73824 0
M  V30 1974 H 181.777 -3.72408 0.355356 0
M  V30 1975 H 183.11 -4.90157 0.447936 0
M  V30 1976 N 184.763 -0.387143 -1.52771 0
M  V30 1977 C 185.726 0.436939 -2.24997 0
M  V30 1978 C 186.726 0.991991 -1.26555 0
M  V30 1979 O 187.916 0.874335 -1.50669 0
M  V30 1980 C 185.048 1.61281 -3.00335 0
M  V30 1981 H 186.241 -0.195365 -2.99263 0
M  V30 1982 H 183.794 -0.139218 -1.55679 0
M  V30 1983 H 184.529 2.2826 -2.30364 0
M  V30 1984 H 184.314 1.22154 -3.72587 0
M  V30 1985 H 185.804 2.19629 -3.5518 0
M  V30 1986 N 186.241 1.57166 -0.116904 0
M  V30 1987 C 187.657 1.5779 0.239693 0
M  V30 1988 C 187.857 1.1295 1.66867 0
M  V30 1989 O 186.913 0.81592 2.38954 0
M  V30 1990 C 188.226 3.00699 0.00828202 0
M  V30 1991 C 189.774 3.12912 0.0743438 0
M  V30 1992 C 190.249 4.57817 -0.129348 0
M  V30 1993 N 191.74 4.63139 -0.075247 0
M  V30 1994 C 192.475 5.73023 -0.207788 0
M  V30 1995 N 191.971 6.91665 -0.396382 0
M  V30 1996 N 193.764 5.61906 -0.14751 0
M  V30 1997 H 185.915 1.84615 -1.05029 0
M  V30 1998 H 188.178 0.85311 -0.41341 0
M  V30 1999 H 187.884 3.37784 -0.979531 0
M  V30 2000 H 187.758 3.69848 0.741077 0
M  V30 2001 H 190.145 2.75686 1.05268 0
M  V30 2002 H 190.226 2.4631 -0.690297 0
M  V30 2003 H 189.87 4.95742 -1.10465 0
M  V30 2004 H 189.8 5.22507 0.655253 0
M  V30 2005 H 192.291 3.7784 0.0670898 0
M  V30 2006 H 192.604 7.71255 -0.488437 0
M  V30 2007 H 190.949 6.93654 -0.432329 0
M  V30 2008 H 194.14 4.681 -0.00115036 0
M  V30 2009 H 194.313 6.47501 -0.254247 0
M  V30 2010 N 187.719 -0.156864 1.56817 0
M  V30 2011 C 188.667 -1.21319 1.98455 0
M  V30 2012 C 189.661 -1.45025 0.875444 0
M  V30 2013 O 190.867 -1.45435 1.0606 0
M  V30 2014 H 187.242 -0.408142 0.631605 0
M  V30 2015 H 189.213 -0.835244 2.86472 0
M  V30 2016 C 187.962 -2.54148 2.37285 0
M  V30 2017 H 187.285 -2.36733 3.22176 0
M  V30 2018 H 188.725 -3.26712 2.70251 0
M  V30 2019 C 187.184 -3.13967 1.22173 0
M  V30 2020 O 187.714 -3.98357 0.517149 0
M  V30 2021 N 185.92 -2.7327 0.988536 0
M  V30 2022 H 185.467 -2.04744 1.56326 0
M  V30 2023 H 185.425 -3.13628 0.220209 0
M  V30 2024 N 189.197 -1.51736 -0.425897 0
M  V30 2025 C 190.127 -1.76827 -1.52494 0
M  V30 2026 C 191.108 -0.618524 -1.58456 0
M  V30 2027 O 192.293 -0.862416 -1.74 0
M  V30 2028 C 189.423 -1.90374 -2.90474 0
M  V30 2029 C 188.377 -3.0588 -2.99369 0
M  V30 2030 C 187.703 -3.04625 -4.3944 0
M  V30 2031 C 189.003 -4.45644 -2.72394 0
M  V30 2032 H 190.697 -2.68855 -1.31748 0
M  V30 2033 H 188.243 -1.29372 -0.632362 0
M  V30 2034 H 190.196 -2.0651 -3.6733 0
M  V30 2035 H 188.92 -0.95004 -3.12477 0
M  V30 2036 H 187.579 -2.89467 -2.24954 0
M  V30 2037 H 187.227 -2.0701 -4.58428 0
M  V30 2038 H 186.927 -3.82195 -4.46319 0
M  V30 2039 H 188.451 -3.22869 -5.18255 0
M  V30 2040 H 189.865 -4.62348 -3.38979 0
M  V30 2041 H 188.262 -5.25006 -2.9067 0
M  V30 2042 H 189.332 -4.54893 -1.67929 0
M  V30 2043 N 190.675 0.682077 -1.42076 0
M  V30 2044 C 191.924 1.43786 -1.41451 0
M  V30 2045 C 192.237 1.95574 -0.0317074 0
M  V30 2046 O 193.443 2.71326 0.0971462 0
M  V30 2047 C 191.899 2.60071 -2.48779 0
M  V30 2048 C 191.507 2.15013 -3.93031 0
M  V30 2049 C 193.251 3.37626 -2.57311 0
M  V30 2050 C 191.158 3.28336 -4.91883 0
M  V30 2051 H 190.088 0.540143 -0.526082 0
M  V30 2052 H 192.739 0.739157 -1.67955 0
M  V30 2053 H 191.121 3.32275 -2.15429 0
M  V30 2054 H 192.295 1.5001 -4.35699 0
M  V30 2055 H 190.61 1.50416 -3.88284 0
M  V30 2056 H 193.207 4.22012 -3.28345 0
M  V30 2057 H 193.55 3.83727 -1.61429 0
M  V30 2058 H 194.083 2.72488 -2.89819 0
M  V30 2059 H 190.822 2.87234 -5.89217 0
M  V30 2060 H 190.342 3.92145 -4.53853 0
M  V30 2061 H 192.021 3.93913 -5.13265 0
M  V30 2062 N 192.153 1.28127 0.917671 0
M  V30 2063 C 193.401 1.14825 1.66312 0
M  V30 2064 C 193.722 -0.304379 1.9261 0
M  V30 2065 O 192.992 -1.21149 1.53947 0
M  V30 2066 H 191.572 0.421953 0.616413 0
M  V30 2067 H 194.234 1.608 1.10134 0
M  V30 2068 H 193.33 1.68489 2.62712 0
M  V30 2069 N 193.631 -1.12557 1.10312 0
M  V30 2070 C 194.877 -1.84311 0.846011 0
M  V30 2071 C 195.21 -1.83805 -0.626859 0
M  V30 2072 O 194.485 -1.28268 -1.46211 0
M  V30 2073 C 194.768 -3.32048 1.39341 0
M  V30 2074 C 194.621 -3.41016 2.93305 0
M  V30 2075 C 195.94 -4.27764 1.03468 0
M  V30 2076 H 193.059 -0.669192 0.30879 0
M  V30 2077 H 195.701 -1.32057 1.36605 0
M  V30 2078 H 193.851 -3.76678 0.951087 0
M  V30 2079 H 195.523 -3.05031 3.46055 0
M  V30 2080 H 193.766 -2.81603 3.29973 0
M  V30 2081 H 194.437 -4.44948 3.26689 0
M  V30 2082 H 196.913 -3.91253 1.41633 0
M  V30 2083 H 195.789 -5.29549 1.44463 0
M  V30 2084 H 196.05 -4.42064 -0.0560404 0
M  V30 2085 N 195.109 -0.891671 -1.2995 0
M  V30 2086 C 196.337 -0.52866 -2.00032 0
M  V30 2087 C 196.752 0.884574 -1.66795 0
M  V30 2088 O 196.109 1.5827 -0.908669 0
M  V30 2089 C 196.16 -0.701814 -3.54622 0
M  V30 2090 O 195.881 -2.05942 -3.86678 0
M  V30 2091 C 197.382 -0.342683 -4.41973 0
M  V30 2092 H 194.602 -0.203659 -0.639347 0
M  V30 2093 H 197.146 -1.19881 -1.65677 0
M  V30 2094 H 195.301 -0.0789468 -3.8732 0
M  V30 2095 H 195.715 -2.08291 -4.81368 0
M  V30 2096 H 197.189 -0.514709 -5.49595 0
M  V30 2097 H 197.666 0.71975 -4.33262 0
M  V30 2098 H 198.272 -0.942154 -4.14733 0
M  V30 2099 N 196.587 1.43421 -0.653314 0
M  V30 2100 C 197.815 2.06163 -0.174491 0
M  V30 2101 C 198.23 1.48969 1.1599 0
M  V30 2102 O 197.587 0.621042 1.71608 0
M  V30 2103 C 197.638 3.61417 -0.0774865 0
M  V30 2104 O 197.359 4.16485 -1.35912 0
M  V30 2105 C 198.86 4.41235 0.427402 0
M  V30 2106 H 196.08 0.664946 -0.0899353 0
M  V30 2107 H 198.624 1.83924 -0.893988 0
M  V30 2108 H 196.779 3.82841 0.59257 0
M  V30 2109 H 197.193 5.10153 -1.21839 0
M  V30 2110 H 198.667 5.5021 0.44423 0
M  V30 2111 H 199.144 4.14268 1.45873 0
M  V30 2112 H 199.75 4.2478 -0.210167 0
M  V30 2113 N 198.065 0.39524 1.52563 0
M  V30 2114 C 198.995 -0.428384 2.29537 0
M  V30 2115 C 199.976 -1.05831 1.33169 0
M  V30 2116 O 201.161 -1.06995 1.62067 0
M  V30 2117 C 198.291 -1.55274 3.10656 0
M  V30 2118 C 197.245 -1.04855 4.14957 0
M  V30 2119 C 196.571 -2.26543 4.84337 0
M  V30 2120 C 197.871 -0.112324 5.22179 0
M  V30 2121 H 199.565 0.213867 2.98635 0
M  V30 2122 H 197.111 0.104298 1.43622 0
M  V30 2123 H 199.064 -2.1358 3.63265 0
M  V30 2124 H 197.788 -2.22266 2.39302 0
M  V30 2125 H 196.447 -0.487985 3.63338 0
M  V30 2126 H 196.095 -2.92059 4.09525 0
M  V30 2127 H 195.795 -1.93466 5.54837 0
M  V30 2128 H 197.319 -2.85481 5.39753 0
M  V30 2129 H 198.733 -0.603752 5.70112 0
M  V30 2130 H 197.13 0.128968 5.99961 0
M  V30 2131 H 198.2 0.837052 4.77621 0
M  V30 2132 N 199.544 -1.57102 0.125237 0
M  V30 2133 C 200.791 -1.95407 -0.531248 0
M  V30 2134 C 201.119 -1.0089 -1.66287 0
M  V30 2135 O 200.374 -0.0339431 -1.95671 0
M  V30 2136 C 200.673 -3.40096 -1.09862 0
M  V30 2137 C 200.339 -4.50815 -0.0876989 0
M  V30 2138 C 199.001 -4.80824 0.19026 0
M  V30 2139 C 201.353 -5.17724 0.600902 0
M  V30 2140 C 198.681 -5.75058 1.163 0
M  V30 2141 C 201.033 -6.13005 1.56231 0
M  V30 2142 C 199.697 -6.41403 1.8482 0
M  V30 2143 H 198.967 -0.715046 -0.194397 0
M  V30 2144 H 201.614 -1.90373 0.207463 0
M  V30 2145 H 199.919 -3.41855 -1.91422 0
M  V30 2146 H 201.616 -3.6705 -1.61478 0
M  V30 2147 H 198.206 -4.27444 -0.314528 0
M  V30 2148 H 202.39 -4.94691 0.399333 0
M  V30 2149 H 197.646 -5.95362 1.39117 0
M  V30 2150 H 201.82 -6.63934 2.10153 0
M  V30 2151 H 199.447 -7.14229 2.60349 0
M  V30 2152 N 201.022 0.148545 -1.56898 0
M  V30 2153 C 202.27 0.859717 -1.82902 0
M  V30 2154 C 202.591 1.81775 -0.70588 0
M  V30 2155 O 201.861 1.93994 0.272586 0
M  V30 2156 H 200.441 0.320469 -0.674766 0
M  V30 2157 H 203.103 0.142918 -1.94375 0
M  V30 2158 H 202.199 1.4229 -2.77777 0
M  V30 2159 N 202.5 1.5196 0.417844 0
M  V30 2160 C 203.746 1.65836 1.16732 0
M  V30 2161 C 204.079 0.382881 1.90388 0
M  V30 2162 O 203.354 -0.618368 1.84408 0
M  V30 2163 C 203.637 2.87466 2.16876 0
M  V30 2164 C 203.49 4.25041 1.47174 0
M  V30 2165 C 204.809 3.04613 3.17646 0
M  V30 2166 H 201.928 0.603515 0.423011 0
M  V30 2167 H 204.57 1.84494 0.454105 0
M  V30 2168 H 202.72 2.71689 2.777 0
M  V30 2169 H 204.392 4.52527 0.895376 0
M  V30 2170 H 202.635 4.26843 0.773806 0
M  V30 2171 H 203.306 5.06176 2.20204 0
M  V30 2172 H 205.782 3.1923 2.66892 0
M  V30 2173 H 204.658 3.91247 3.8499 0
M  V30 2174 H 204.919 2.17541 3.84874 0
M  V30 2175 N 203.978 -0.674533 1.42435 0
M  V30 2176 C 205.224 -1.43671 1.43131 0
M  V30 2177 C 205.557 -1.94142 0.0476021 0
M  V30 2178 O 204.832 -1.70924 -0.928188 0
M  V30 2179 C 205.115 -2.63355 2.45594 0
M  V30 2180 C 204.968 -2.18514 3.93156 0
M  V30 2181 C 206.287 -3.65571 2.45043 0
M  V30 2182 H 203.406 -0.521077 0.521198 0
M  V30 2183 H 206.048 -0.766551 1.7385 0
M  V30 2184 H 204.198 -3.2053 2.19528 0
M  V30 2185 H 205.87 -1.66504 4.30202 0
M  V30 2186 H 204.113 -1.50086 4.07009 0
M  V30 2187 H 204.784 -3.04484 4.60428 0
M  V30 2188 H 207.26 -3.18113 2.68223 0
M  V30 2189 H 206.136 -4.46893 3.18713 0
M  V30 2190 H 206.397 -4.16716 1.47649 0
M  V30 2191 N 205.456 -1.28612 -0.910864 0
M  V30 2192 C 206.386 -1.15326 -2.03032 0
M  V30 2193 C 207.367 -0.0502924 -1.70026 0
M  V30 2194 O 208.552 -0.227797 -1.92859 0
M  V30 2195 C 205.682 -0.817343 -3.37545 0
M  V30 2196 C 204.636 -1.8754 -3.84724 0
M  V30 2197 C 203.962 -1.39305 -5.16235 0
M  V30 2198 C 205.262 -3.28244 -4.06267 0
M  V30 2199 H 206.956 -2.08975 -2.14406 0
M  V30 2200 H 204.502 -1.00612 -1.03021 0
M  V30 2201 H 206.455 -0.711151 -4.15356 0
M  V30 2202 H 205.179 0.154846 -3.26233 0
M  V30 2203 H 203.838 -1.97079 -3.09121 0
M  V30 2204 H 203.486 -0.409846 -5.01328 0
M  V30 2205 H 203.186 -2.10057 -5.48771 0
M  V30 2206 H 204.71 -1.30014 -5.96598 0
M  V30 2207 H 206.124 -3.21611 -4.74594 0
M  V30 2208 H 204.521 -3.96855 -4.5014 0
M  V30 2209 H 205.591 -3.72048 -3.10979 0
M  V30 2210 N 206.934 1.1197 -1.10907 0
M  V30 2211 C 208.181 1.83588 -0.854507 0
M  V30 2212 C 208.509 1.84357 0.6199 0
M  V30 2213 O 207.764 1.28809 1.47332 0
M  V30 2214 C 208.063 3.30749 -1.35425 0
M  V30 2215 C 207.729 3.50146 -2.84093 0
M  V30 2216 C 206.391 3.55148 -3.2469 0
M  V30 2217 C 208.743 3.56857 -3.79872 0
M  V30 2218 C 206.071 3.6441 -4.59806 0
M  V30 2219 C 208.423 3.6765 -5.14797 0
M  V30 2220 C 207.087 3.7091 -5.54961 0
M  V30 2221 H 206.357 0.671795 -0.312686 0
M  V30 2222 H 209.004 1.32091 -1.38652 0
M  V30 2223 H 207.309 3.84703 -0.742361 0
M  V30 2224 H 209.006 3.8464 -1.1337 0
M  V30 2225 H 205.596 3.46919 -2.51685 0
M  V30 2226 H 209.78 3.52258 -3.49611 0
M  V30 2227 H 205.036 3.65208 -4.9034 0
M  V30 2228 H 209.21 3.71786 -5.88853 0
M  V30 2229 H 206.837 3.7784 -6.59652 0
M  V30 2230 N 208.412 0.89855 1.29475 0
M  V30 2231 C 209.375 0.380272 2.26023 0
M  V30 2232 C 210.375 -0.484891 1.53315 0
M  V30 2233 O 211.565 -0.290108 1.71767 0
M  V30 2234 C 208.697 -0.45651 3.3783 0
M  V30 2235 H 209.89 1.23295 2.73383 0
M  V30 2236 H 207.443 0.676589 1.40897 0
M  V30 2237 H 208.178 -1.32922 2.95808 0
M  V30 2238 H 207.963 0.163393 3.91759 0
M  V30 2239 H 209.453 -0.810466 4.0966 0
M  V30 2240 N 209.89 -1.43072 0.660911 0
M  V30 2241 C 211.136 -2.0202 0.177708 0
M  V30 2242 C 211.469 -1.52066 -1.20787 0
M  V30 2243 O 210.744 -0.716987 -1.80802 0
M  V30 2244 C 211.027 -3.59561 0.197019 0
M  V30 2245 C 210.88 -4.19727 1.61706 0
M  V30 2246 C 212.199 -4.37664 -0.462396 0
M  V30 2247 H 209.318 -0.734034 0.0660494 0
M  V30 2248 H 211.96 -1.70272 0.843058 0
M  V30 2249 H 210.11 -3.86739 -0.369527 0
M  V30 2250 H 211.782 -4.03553 2.23479 0
M  V30 2251 H 210.025 -3.76084 2.16201 0
M  V30 2252 H 210.696 -5.28834 1.58237 0
M  V30 2253 H 213.172 -4.16095 0.0197215 0
M  V30 2254 H 212.048 -5.47305 -0.418188 0
M  V30 2255 H 212.309 -4.14493 -1.53778 0
M  V30 2256 N 211.368 -0.403325 -1.52352 0
M  V30 2257 C 212.331 0.413051 -2.25447 0
M  V30 2258 C 213.331 0.978513 -1.276 0
M  V30 2259 O 214.521 0.858305 -1.51587 0
M  V30 2260 C 211.653 1.58087 -3.02029 0
M  V30 2261 H 212.846 -0.227094 -2.99039 0
M  V30 2262 H 210.399 -0.155722 -1.55522 0
M  V30 2263 H 211.134 2.25804 -2.32772 0
M  V30 2264 H 210.919 1.18195 -3.73861 0
M  V30 2265 H 212.409 2.1585 -3.57489 0
M  V30 2266 N 212.846 1.57033 -0.133567 0
M  V30 2267 C 213.776 2.1909 0.807567 0
M  V30 2268 C 214.757 1.13517 1.26681 0
M  V30 2269 O 215.942 1.41809 1.32679 0
M  V30 2270 C 213.072 2.80188 2.05212 0
M  V30 2271 C 212.026 3.91471 1.73015 0
M  V30 2272 C 211.352 4.39443 3.04622 0
M  V30 2273 C 212.652 5.12886 0.987168 0
M  V30 2274 H 214.346 2.97988 0.290403 0
M  V30 2275 H 211.892 1.43335 0.138239 0
M  V30 2276 H 213.845 3.22264 2.71521 0
M  V30 2277 H 212.569 1.98601 2.59278 0
M  V30 2278 H 211.228 3.49993 1.0909 0
M  V30 2279 H 210.876 3.54695 3.56651 0
M  V30 2280 H 210.576 5.14495 2.83847 0
M  V30 2281 H 212.1 4.8418 3.72024 0
M  V30 2282 H 213.514 5.51891 1.55208 0
M  V30 2283 H 211.911 5.93615 0.87985 0
M  V30 2284 H 212.981 4.84894 -0.0235286 0
M  V30 2285 N 214.325 -0.140222 1.56975 0
M  V30 2286 C 215.288 -1.15689 1.97861 0
M  V30 2287 C 216.288 -1.3549 0.865974 0
M  V30 2288 O 217.478 -1.32367 1.13246 0
M  V30 2289 C 214.61 -2.51582 2.30042 0
M  V30 2290 H 215.803 -0.805971 2.88867 0
M  V30 2291 H 213.356 -0.383801 1.51515 0
M  V30 2292 H 214.091 -2.91632 1.41849 0
M  V30 2293 H 213.876 -2.38569 3.11171 0
M  V30 2294 H 215.366 -3.24792 2.62488 0
M  V30 2295 N 215.803 -1.52179 -0.40978 0
M  V30 2296 C 216.766 -1.74853 -1.48186 0
M  V30 2297 C 217.766 -0.618417 -1.48433 0
M  V30 2298 O 218.956 -0.886286 -1.49969 0
M  V30 2299 C 216.088 -1.8303 -2.87598 0
M  V30 2300 H 217.281 -2.70559 -1.29374 0
M  V30 2301 H 214.834 -1.42586 -0.640233 0
M  V30 2302 H 215.569 -0.89236 -3.11781 0
M  V30 2303 H 215.354 -2.65187 -2.88822 0
M  V30 2304 H 216.844 -2.02316 -3.65319 0
M  V30 2305 N 217.281 0.66697 -1.42791 0
M  V30 2306 C 218.511 1.45294 -1.46878 0
M  V30 2307 C 218.919 1.89027 -0.0809861 0
M  V30 2308 O 218.262 1.59219 0.916246 0
M  V30 2309 C 218.324 2.72908 -2.34012 0
M  V30 2310 C 217.988 2.51203 -3.81767 0
M  V30 2311 C 218.985 2.15302 -4.73224 0
M  V30 2312 C 216.67 2.65954 -4.26115 0
M  V30 2313 C 218.664 1.94431 -6.07022 0
M  V30 2314 C 216.351 2.44699 -5.59969 0
M  V30 2315 C 217.349 2.08992 -6.5024 0
M  V30 2316 O 217.037 1.87948 -7.81621 0
M  V30 2317 H 216.769 0.453306 -0.501487 0
M  V30 2318 H 219.323 0.826232 -1.88049 0
M  V30 2319 H 217.553 3.38089 -1.87703 0
M  V30 2320 H 219.242 3.34816 -2.29462 0
M  V30 2321 H 220.008 2.03495 -4.40244 0
M  V30 2322 H 215.887 2.92724 -3.56137 0
M  V30 2323 H 219.431 1.66484 -6.77443 0
M  V30 2324 H 215.328 2.56105 -5.9252 0
M  V30 2325 H 216.096 2.02483 -7.93059 0
M  V30 2326 N 218.759 1.29093 0.90403 0
M  V30 2327 C 220.005 1.16986 1.65656 0
M  V30 2328 C 220.338 -0.278925 1.92186 0
M  V30 2329 O 219.613 -1.2019 1.5292 0
M  V30 2330 C 219.896 1.97908 3.0084 0
M  V30 2331 C 219.749 3.50903 2.81403 0
M  V30 2332 C 221.068 1.80208 4.01513 0
M  V30 2333 H 218.187 0.426346 0.601164 0
M  V30 2334 H 220.829 1.58518 1.04747 0
M  V30 2335 H 218.979 1.62616 3.52829 0
M  V30 2336 H 220.651 3.96153 2.36348 0
M  V30 2337 H 218.894 3.76045 2.1627 0
M  V30 2338 H 219.565 4.02791 3.77443 0
M  V30 2339 H 222.041 2.11025 3.58619 0
M  V30 2340 H 220.917 2.39184 4.94047 0
M  V30 2341 H 221.178 0.756119 4.35586 0
M  V30 2342 N 220.237 -1.11381 1.11499 0
M  V30 2343 C 221.486 -1.82494 0.858993 0
M  V30 2344 C 221.799 -1.85605 -0.617278 0
M  V30 2345 O 223.005 -2.52824 -0.989552 0
M  V30 2346 C 221.461 -3.27745 1.48699 0
M  V30 2347 C 221.069 -3.32961 2.99735 0
M  V30 2348 C 222.813 -4.03754 1.31085 0
M  V30 2349 C 220.72 -4.72612 3.55516 0
M  V30 2350 H 219.65 -0.683802 0.317696 0
M  V30 2351 H 222.301 -1.25331 1.34031 0
M  V30 2352 H 220.683 -3.84844 0.933339 0
M  V30 2353 H 221.857 -2.85741 3.61509 0
M  V30 2354 H 220.172 -2.70433 3.16631 0
M  V30 2355 H 222.769 -5.06891 1.70192 0
M  V30 2356 H 223.112 -4.15527 0.253496 0
M  V30 2357 H 223.645 -3.53043 1.83318 0
M  V30 2358 H 220.384 -4.66036 4.60967 0
M  V30 2359 H 219.904 -5.2024 2.98513 0
M  V30 2360 H 221.583 -5.4157 3.53992 0
M  V30 2361 N 221.715 -0.905404 -1.28997 0
M  V30 2362 C 222.625 -0.392246 -2.31298 0
M  V30 2363 C 223.641 0.515889 -1.66176 0
M  V30 2364 O 224.817 0.404093 -1.97304 0
M  V30 2365 C 221.882 0.36686 -3.44754 0
M  V30 2366 C 220.943 -0.573485 -4.25452 0
M  V30 2367 C 220.176 0.149488 -5.33491 0
M  V30 2368 O 220.399 1.37255 -5.5364 0
M  V30 2369 O 219.333 -0.510919 -5.99728 0
M  V30 2370 H 223.159 -1.2411 -2.77183 0
M  V30 2371 H 220.744 -0.669926 -1.33538 0
M  V30 2372 H 222.626 0.795907 -4.13816 0
M  V30 2373 H 221.301 1.19169 -3.00966 0
M  V30 2374 H 220.208 -1.05176 -3.59011 0
M  V30 2375 H 221.541 -1.36489 -4.72897 0
M  V30 2376 N 223.193 1.4272 -0.668489 0
M  V30 2377 C 224.609 1.55992 -0.33745 0
M  V30 2378 C 224.809 1.64933 1.15756 0
M  V30 2379 O 223.865 1.61278 1.94282 0
M  V30 2380 C 225.178 2.81314 -1.06222 0
M  V30 2381 C 226.726 2.95078 -1.04394 0
M  V30 2382 C 227.201 4.23252 -1.74991 0
M  V30 2383 N 228.692 4.3015 -1.71829 0
M  V30 2384 C 229.427 5.28127 -2.23315 0
M  V30 2385 N 228.923 6.32293 -2.83156 0
M  V30 2386 N 230.716 5.19882 -2.13726 0
M  V30 2387 H 222.867 1.3516 -1.63846 0
M  V30 2388 H 225.13 0.650174 -0.689912 0
M  V30 2389 H 224.836 2.80823 -2.11734 0
M  V30 2390 H 224.71 3.72012 -0.62344 0
M  V30 2391 H 227.097 2.951 0.0028244 0
M  V30 2392 H 227.178 2.05627 -1.52155 0
M  V30 2393 H 226.822 4.2399 -2.79633 0
M  V30 2394 H 226.752 5.11626 -1.24685 0
M  V30 2395 H 229.243 3.55499 -1.28175 0
M  V30 2396 H 229.556 7.03398 -3.20079 0
M  V30 2397 H 227.901 6.32873 -2.87223 0
M  V30 2398 H 231.092 4.37423 -1.66669 0
M  V30 2399 H 231.265 5.96077 -2.54158 0
M  V30 2400 N 224.671 0.411399 1.52136 0
M  V30 2401 C 225.948 -0.222308 1.94333 0
M  V30 2402 C 226.328 -1.6242 1.34844 0
M  V30 2403 O 225.676 -2.22384 0.525145 0
M  V30 2404 C 225.886 -0.226345 3.48265 0
M  V30 2405 C 227.234 -0.444592 4.22266 0
M  V30 2406 O 228.258 -0.305602 3.54887 0
M  V30 2407 O 227.117 -0.718749 5.41753 0
M  V30 2408 H 224.211 -0.143907 0.814383 0
M  V30 2409 H 226.757 0.467506 1.63133 0
M  V30 2410 H 225.529 0.75475 3.83952 0
M  V30 2411 H 225.152 -0.960163 3.85832 0
M  V30 2412 N 226.149 -1.5696 0.141893 0
M  V30 2413 C 227.398 -1.95135 -0.510427 0
M  V30 2414 C 227.711 -1.02896 -1.66348 0
M  V30 2415 O 228.917 -1.30629 -2.38009 0
M  V30 2416 C 227.373 -3.46876 -0.959427 0
M  V30 2417 C 226.981 -4.47691 0.166419 0
M  V30 2418 C 228.725 -3.93927 -1.58183 0
M  V30 2419 C 226.632 -5.90636 -0.300565 0
M  V30 2420 H 225.562 -0.728494 -0.194454 0
M  V30 2421 H 228.213 -1.8211 0.22542 0
M  V30 2422 H 226.595 -3.55215 -1.75038 0
M  V30 2423 H 227.769 -4.51043 0.94325 0
M  V30 2424 H 226.084 -4.10527 0.696905 0
M  V30 2425 H 228.681 -4.98158 -1.94275 0
M  V30 2426 H 229.024 -3.3519 -2.46888 0
M  V30 2427 H 229.557 -3.88484 -0.855863 0
M  V30 2428 H 226.296 -6.5318 0.550989 0
M  V30 2429 H 225.816 -5.90655 -1.04338 0
M  V30 2430 H 227.495 -6.42588 -0.754265 0
M  V30 2431 N 227.627 0.131896 -1.57047 0
M  V30 2432 C 228.559 1.1878 -1.9602 0
M  V30 2433 C 229.572 1.38363 -0.857875 0
M  V30 2434 O 230.761 1.37666 -1.13623 0
M  V30 2435 C 227.861 2.55008 -2.23213 0
M  V30 2436 C 227.034 2.56201 -3.54513 0
M  V30 2437 C 226.093 3.7408 -3.70069 0
M  V30 2438 O 225.119 3.58258 -4.42312 0
M  V30 2439 N 226.321 4.92137 -3.07866 0
M  V30 2440 H 229.086 0.85639 -2.87204 0
M  V30 2441 H 226.647 0.321309 -1.5868 0
M  V30 2442 H 228.639 3.32404 -2.30846 0
M  V30 2443 H 227.209 2.80382 -1.3822 0
M  V30 2444 H 226.429 1.64613 -3.58185 0
M  V30 2445 H 227.717 2.54043 -4.4084 0
M  V30 2446 H 227.115 5.07895 -2.49116 0
M  V30 2447 H 225.672 5.67254 -3.21039 0
M  V30 2448 N 229.106 1.52395 0.401703 0
M  V30 2449 C 230.517 1.58899 0.980202 0
M  V30 2450 C 230.868 0.434032 1.91339 0
M  V30 2451 O 229.993 -0.444619 2.11783 0
M  V30 2452 C 230.588 2.87994 1.78451 0
M  V30 2453 C 229.147 2.96953 2.31292 0
M  V30 2454 C 228.294 2.53903 1.11483 0
M  V30 2455 H 231.245 1.57657 0.18168 0
M  V30 2456 H 231.266 2.73765 2.64259 0
M  V30 2457 H 230.778 3.72035 1.10506 0
M  V30 2458 H 228.879 2.17422 3.02586 0
M  V30 2459 H 228.992 4.01344 2.61649 0
M  V30 2460 H 227.356 2.07925 1.47104 0
M  V30 2461 H 228.139 3.40326 0.450928 0
M  V30 2462 N 230.584 -0.659388 1.43143 0
M  V30 2463 C 231.494 -1.80167 1.50256 0
M  V30 2464 C 232.51 -1.69571 0.390106 0
M  V30 2465 O 233.686 -1.90849 0.643319 0
M  V30 2466 C 230.751 -3.16409 1.41725 0
M  V30 2467 C 229.812 -3.38848 2.63591 0
M  V30 2468 C 229.045 -4.68591 2.55458 0
M  V30 2469 O 229.268 -5.47532 1.59891 0
M  V30 2470 O 228.202 -4.92614 3.45854 0
M  V30 2471 H 232.028 -1.77121 2.46702 0
M  V30 2472 H 229.613 -0.817092 1.25076 0
M  V30 2473 H 231.495 -3.9768 1.39387 0
M  V30 2474 H 230.17 -3.20059 0.484118 0
M  V30 2475 H 229.077 -2.57366 2.71502 0
M  V30 2476 H 230.41 -3.4004 3.55856 0
M  V30 2477 N 232.062 -1.29571 -0.897171 0
M  V30 2478 C 233.009 -1.14916 -2.00158 0
M  V30 2479 C 233.979 -0.0418149 -1.66047 0
M  V30 2480 O 235.164 -0.209793 -1.89643 0
M  V30 2481 C 232.304 -0.834307 -3.34863 0
M  V30 2482 C 231.417 -2.02234 -3.8174 0
M  V30 2483 C 230.552 -1.64664 -5.05034 0
M  V30 2484 C 229.591 -2.80033 -5.44286 0
M  V30 2485 N 228.728 -2.42843 -6.58765 0
M  V30 2486 H 233.568 -2.09403 -2.12025 0
M  V30 2487 H 231.105 -1.042 -1.0383 0
M  V30 2488 H 233.063 -0.632436 -4.12379 0
M  V30 2489 H 231.693 0.0736656 -3.22716 0
M  V30 2490 H 230.745 -2.33583 -3.00238 0
M  V30 2491 H 232.057 -2.88673 -4.06779 0
M  V30 2492 H 231.211 -1.4078 -5.9014 0
M  V30 2493 H 229.95 -0.753766 -4.8184 0
M  V30 2494 H 228.955 -3.04596 -4.57713 0
M  V30 2495 H 230.18 -3.69989 -5.6946 0
M  V30 2496 H 228.126 -1.56046 -6.3717 0
M  V30 2497 H 228.043 -3.22815 -6.83613 0
M  V30 2498 H 229.311 -2.22285 -7.47134 0
M  V30 2499 N 233.54 1.10788 -1.12088 0
M  V30 2500 C 234.787 1.82671 -0.873931 0
M  V30 2501 C 235.115 1.85004 0.600311 0
M  V30 2502 O 234.37 1.30365 1.45957 0
M  V30 2503 C 234.669 3.29294 -1.38926 0
M  V30 2504 C 234.335 3.47113 -2.87791 0
M  V30 2505 C 232.997 3.51684 -3.28439 0
M  V30 2506 C 235.349 3.52808 -3.83635 0
M  V30 2507 C 232.677 3.59513 -4.63646 0
M  V30 2508 C 235.029 3.62169 -5.18668 0
M  V30 2509 C 233.693 3.65003 -5.58864 0
M  V30 2510 H 232.963 0.668441 -0.319794 0
M  V30 2511 H 235.61 1.30613 -1.40045 0
M  V30 2512 H 233.915 3.83894 -0.783122 0
M  V30 2513 H 235.612 3.83416 -1.17443 0
M  V30 2514 H 232.202 3.4423 -2.5535 0
M  V30 2515 H 236.386 3.4853 -3.53328 0
M  V30 2516 H 231.642 3.59987 -4.94185 0
M  V30 2517 H 235.816 3.6552 -5.92763 0
M  V30 2518 H 233.443 3.70822 -6.63623 0
M  V30 2519 N 235.018 0.912232 1.28515 0
M  V30 2520 C 236.266 0.543523 1.94654 0
M  V30 2521 C 236.587 -0.9155 1.72173 0
M  V30 2522 O 235.857 -1.64708 1.06058 0
M  V30 2523 H 234.437 0.198017 0.720277 0
M  V30 2524 H 237.099 1.16126 1.56527 0
M  V30 2525 H 236.195 0.736684 3.03281 0
M  V30 2526 N 236.496 -1.42363 0.676048 0
M  V30 2527 C 237.721 -2.06377 0.205705 0
M  V30 2528 C 238.146 -1.50463 -1.12883 0
M  V30 2529 O 237.504 -0.623619 -1.70237 0
M  V30 2530 C 237.552 -3.60277 0.152655 0
M  V30 2531 O 236.656 -4.02935 -0.87845 0
M  V30 2532 H 235.997 -0.655588 0.105359 0
M  V30 2533 H 238.527 -1.82475 0.925412 0
M  V30 2534 H 238.537 -4.07993 -0.0230675 0
M  V30 2535 H 237.212 -4.00346 1.12675 0
M  V30 2536 H 235.789 -3.66764 -0.673668 0
M  V30 2537 N 237.974 -0.419461 -1.51915 0
M  V30 2538 C 239.223 0.154346 -2.01109 0
M  V30 2539 C 239.536 1.45338 -1.30905 0
M  V30 2540 O 240.742 2.10906 -1.7097 0
M  V30 2541 C 239.198 0.325615 -3.58424 0
M  V30 2542 C 238.806 -0.961934 -4.37551 0
M  V30 2543 C 240.55 0.854155 -4.15818 0
M  V30 2544 C 238.457 -0.757287 -5.86531 0
M  V30 2545 H 237.387 0.0614563 -0.751491 0
M  V30 2546 H 240.038 -0.54649 -1.75173 0
M  V30 2547 H 238.42 1.08903 -3.80731 0
M  V30 2548 H 239.594 -1.7323 -4.26999 0
M  V30 2549 H 237.909 -1.41766 -3.91524 0
M  V30 2550 H 240.506 1.02346 -5.24814 0
M  V30 2551 H 240.849 1.83172 -3.73837 0
M  V30 2552 H 241.382 0.149528 -3.97519 0
M  V30 2553 H 238.121 -1.70671 -6.32892 0
M  V30 2554 H 237.641 -0.0264061 -5.99794 0
M  V30 2555 H 239.32 -0.403482 -6.45741 0
M  V30 2556 N 239.452 1.56882 -0.150215 0
M  V30 2557 C 240.863 1.82995 0.370076 0
M  V30 2558 C 241.214 1.06907 1.64515 0
M  V30 2559 O 240.339 0.315369 2.1409 0
M  V30 2560 C 240.934 3.31942 0.678208 0
M  V30 2561 C 239.493 3.58625 1.14301 0
M  V30 2562 C 238.64 2.76792 0.167778 0
M  V30 2563 H 241.591 1.54209 -0.374858 0
M  V30 2564 H 241.612 3.48272 1.53254 0
M  V30 2565 H 241.124 3.87294 -0.249991 0
M  V30 2566 H 239.225 3.08664 2.08704 0
M  V30 2567 H 239.338 4.67073 1.06676 0
M  V30 2568 H 237.702 2.45972 0.661037 0
M  V30 2569 H 238.485 3.34916 -0.754069 0
M  V30 2570 N 240.93 -0.123565 1.57115 0
M  V30 2571 C 241.862 -1.17739 1.96648 0
M  V30 2572 C 242.875 -1.37906 0.865201 0
M  V30 2573 O 244.064 -1.37062 1.14351 0
M  V30 2574 C 241.164 -2.53821 2.24562 0
M  V30 2575 C 240.337 -2.54317 3.55867 0
M  V30 2576 C 239.396 -3.72112 3.72047 0
M  V30 2577 O 238.422 -3.55907 4.44206 0
M  V30 2578 N 239.624 -4.90498 3.10471 0
M  V30 2579 H 242.389 -0.841147 2.87654 0
M  V30 2580 H 239.95 -0.31289 1.58848 0
M  V30 2581 H 241.942 -3.31175 2.32606 0
M  V30 2582 H 240.512 -2.79645 1.39705 0
M  V30 2583 H 239.732 -1.62711 3.59053 0
M  V30 2584 H 241.02 -2.51701 4.42181 0
M  V30 2585 H 240.418 -5.06567 2.51806 0
M  V30 2586 H 238.975 -5.65544 3.24043 0
M  V30 2587 N 242.408 -1.52605 -0.393616 0
M  V30 2588 C 243.371 -1.76415 -1.46323 0
M  V30 2589 C 244.371 -0.634126 -1.47768 0
M  V30 2590 O 245.561 -0.902142 -1.4902 0
M  V30 2591 C 242.693 -1.8607 -2.85641 0
M  V30 2592 H 243.886 -2.71916 -1.26498 0
M  V30 2593 H 241.439 -1.43257 -0.625073 0
M  V30 2594 H 242.174 -0.925378 -3.10817 0
M  V30 2595 H 241.959 -2.68235 -2.85993 0
M  V30 2596 H 243.449 -2.06179 -3.63153 0
M  V30 2597 N 243.887 0.651787 -1.4349 0
M  V30 2598 C 244.82 1.77668 -1.43211 0
M  V30 2599 C 245.798 1.59931 -0.29338 0
M  V30 2600 O 246.982 1.82095 -0.487191 0
M  V30 2601 C 244.109 3.14986 -1.24505 0
M  V30 2602 C 243.155 3.51421 -2.41673 0
M  V30 2603 S 243.988 3.51234 -4.04222 0
M  V30 2604 C 245.144 4.91206 -3.87902 0
M  V30 2605 H 245.377 1.77635 -2.38397 0
M  V30 2606 H 242.91 0.824558 -1.30539 0
M  V30 2607 H 244.868 3.94237 -1.144 0
M  V30 2608 H 243.529 3.1258 -0.308651 0
M  V30 2609 H 242.722 4.51291 -2.24393 0
M  V30 2610 H 242.324 2.79585 -2.48411 0
M  V30 2611 H 244.616 5.79902 -3.50315 0
M  V30 2612 H 245.559 5.13537 -4.8753 0
M  V30 2613 H 245.967 4.64808 -3.20334 0
M  V30 2614 N 245.365 1.30045 0.890287 0
M  V30 2615 C 246.611 1.19747 1.64415 0
M  V30 2616 C 246.966 -0.246591 1.90813 0
M  V30 2617 O 246.259 -1.174 1.51419 0
M  V30 2618 C 246.453 1.95409 2.99249 0
M  V30 2619 C 246.282 3.47025 2.86013 0
M  V30 2620 C 245.052 4.1638 2.86279 0
M  V30 2621 C 247.25 4.42353 2.62351 0
M  V30 2622 N 245.232 5.54293 2.63879 0
M  V30 2623 C 246.603 5.67792 2.49022 0
M  V30 2624 C 248.658 4.32009 2.47533 0
M  V30 2625 C 247.361 6.8406 2.22383 0
M  V30 2626 C 249.387 5.48038 2.22279 0
M  V30 2627 C 248.749 6.72455 2.09722 0
M  V30 2628 H 244.848 0.493223 0.60684 0
M  V30 2629 H 247.432 1.6399 1.04954 0
M  V30 2630 H 245.603 1.53565 3.56752 0
M  V30 2631 H 247.335 1.77298 3.63796 0
M  V30 2632 H 244.09 3.68164 2.97913 0
M  V30 2633 H 244.514 6.26852 2.55706 0
M  V30 2634 H 249.156 3.36503 2.55979 0
M  V30 2635 H 246.874 7.79612 2.12675 0
M  V30 2636 H 250.46 5.41939 2.11643 0
M  V30 2637 H 249.34 7.60722 1.90453 0
M  V30 2638 N 246.843 -1.10192 1.12674 0
M  V30 2639 C 248.089 -1.82658 0.894847 0
M  V30 2640 C 248.444 -1.83666 -0.573107 0
M  V30 2641 O 247.737 -1.28816 -1.41835 0
M  V30 2642 C 247.931 -3.28552 1.4067 0
M  V30 2643 C 247.76 -3.41756 2.92289 0
M  V30 2644 C 246.53 -3.54021 3.60551 0
M  V30 2645 C 248.728 -3.34949 3.90274 0
M  V30 2646 N 246.71 -3.55827 5.0026 0
M  V30 2647 C 248.081 -3.43531 5.16127 0
M  V30 2648 C 250.136 -3.18565 3.8265 0
M  V30 2649 C 248.839 -3.37416 6.3525 0
M  V30 2650 C 250.865 -3.13772 5.01299 0
M  V30 2651 C 250.227 -3.22938 6.26012 0
M  V30 2652 H 246.326 -0.683044 0.380756 0
M  V30 2653 H 248.91 -1.31752 1.43351 0
M  V30 2654 H 247.081 -3.77946 0.895055 0
M  V30 2655 H 248.813 -3.88991 1.11661 0
M  V30 2656 H 245.568 -3.57135 3.1105 0
M  V30 2657 H 245.992 -3.60335 5.73138 0
M  V30 2658 H 250.634 -3.10354 2.87124 0
M  V30 2659 H 248.352 -3.44391 7.3104 0
M  V30 2660 H 251.938 -3.02242 4.97133 0
M  V30 2661 H 250.818 -3.19235 7.16281 0
M  V30 2662 N 248.321 -0.919034 -1.28029 0
M  V30 2663 C 249.284 -0.416182 -2.2539 0
M  V30 2664 C 250.284 0.460438 -1.54067 0
M  V30 2665 O 251.474 0.262744 -1.72207 0
M  V30 2666 C 248.606 0.402707 -3.38513 0
M  V30 2667 H 249.799 -1.27629 -2.71387 0
M  V30 2668 H 247.352 -0.698919 -1.39803 0
M  V30 2669 H 248.087 1.282 -2.97885 0
M  V30 2670 H 247.872 -0.225698 -3.9145 0
M  V30 2671 H 249.362 0.745191 -4.10897 0
M  V30 2672 N 249.799 1.42003 -0.683588 0
M  V30 2673 C 251.045 2.01712 -0.209825 0
M  V30 2674 C 251.378 1.53968 1.18353 0
M  V30 2675 O 250.653 0.745661 1.79639 0
M  V30 2676 C 250.936 3.59202 -0.254197 0
M  V30 2677 C 250.789 4.17102 -1.68363 0
M  V30 2678 C 252.108 4.38344 0.392709 0
M  V30 2679 H 249.227 0.732891 -0.0777189 0
M  V30 2680 H 251.869 1.68909 -0.87004 0
M  V30 2681 H 250.019 3.87278 0.307954 0
M  V30 2682 H 251.691 3.99946 -2.29871 0
M  V30 2683 H 249.934 3.72597 -2.22157 0
M  V30 2684 H 250.605 5.26249 -1.6663 0
M  V30 2685 H 253.081 4.16011 -0.0859162 0
M  V30 2686 H 251.957 5.47901 0.331063 0
M  V30 2687 H 252.218 4.16887 1.47164 0
M  V30 2688 N 251.277 0.427512 1.51691 0
M  V30 2689 C 252.523 -0.142439 2.02299 0
M  V30 2690 C 252.856 -1.43214 1.31162 0
M  V30 2691 O 252.131 -1.89833 0.423511 0
M  V30 2692 C 252.414 -0.371301 3.58181 0
M  V30 2693 C 252.267 0.936358 4.39946 0
M  V30 2694 C 253.586 -1.14542 4.24933 0
M  V30 2695 H 250.705 -0.0502937 0.735282 0
M  V30 2696 H 253.347 0.564584 1.81418 0
M  V30 2697 H 251.497 -0.973559 3.76104 0
M  V30 2698 H 253.169 1.57184 4.33694 0
M  V30 2699 H 251.412 1.5432 4.05423 0
M  V30 2700 H 252.083 0.730388 5.47147 0
M  V30 2701 H 254.559 -0.635362 4.11221 0
M  V30 2702 H 253.435 -1.27431 5.33903 0
M  V30 2703 H 253.696 -2.17093 3.85127 0
M  V30 2704 N 252.755 -1.56801 0.158532 0
M  V30 2705 C 253.983 -2.00859 -0.496303 0
M  V30 2706 C 254.398 -1.03871 -1.57659 0
M  V30 2707 O 253.755 -0.0375165 -1.82461 0
M  V30 2708 C 253.806 -3.4479 -1.08638 0
M  V30 2709 O 253.527 -4.38072 -0.0492322 0
M  V30 2710 C 255.028 -4.04185 -1.8207 0
M  V30 2711 H 252.248 -0.65864 -0.128199 0
M  V30 2712 H 254.792 -2.02885 0.256506 0
M  V30 2713 H 252.947 -3.43579 -1.78975 0
M  V30 2714 H 253.361 -5.2227 -0.483102 0
M  V30 2715 H 254.835 -5.06857 -2.18633 0
M  V30 2716 H 255.312 -3.45549 -2.71095 0
M  V30 2717 H 255.918 -4.0906 -1.16405 0
M  V30 2718 N 254.233 0.115231 -1.57178 0
M  V30 2719 C 255.163 1.1423 -2.03651 0
M  V30 2720 C 256.144 1.42967 -0.921655 0
M  V30 2721 O 257.329 1.53343 -1.19162 0
M  V30 2722 C 254.459 2.4675 -2.44401 0
M  V30 2723 C 253.413 2.32467 -3.59365 0
M  V30 2724 C 252.739 3.69984 -3.86026 0
M  V30 2725 C 254.039 1.78203 -4.90959 0
M  V30 2726 H 255.733 0.755749 -2.89705 0
M  V30 2727 H 253.279 0.362093 -1.39373 0
M  V30 2728 H 255.232 3.18854 -2.75517 0
M  V30 2729 H 253.956 2.87302 -1.55322 0
M  V30 2730 H 252.615 1.62811 -3.28463 0
M  V30 2731 H 252.263 4.08028 -2.94147 0
M  V30 2732 H 251.963 3.61279 -4.63412 0
M  V30 2733 H 253.487 4.43587 -4.19599 0
M  V30 2734 H 254.901 2.40128 -5.20587 0
M  V30 2735 H 253.298 1.8031 -5.72371 0
M  V30 2736 H 254.368 0.739876 -4.79222 0
M  V30 2737 N 255.711 1.52812 0.385517 0
M  V30 2738 C 256.936 1.72207 1.15583 0
M  V30 2739 C 257.361 0.441034 1.82857 0
M  V30 2740 O 256.719 -0.603465 1.70962 0
M  V30 2741 C 256.767 2.87476 2.17692 0
M  V30 2742 O 255.871 2.54693 3.24354 0
M  V30 2743 H 255.212 0.572526 0.336319 0
M  V30 2744 H 257.742 1.99618 0.448744 0
M  V30 2745 H 257.752 3.13072 2.6163 0
M  V30 2746 H 256.427 3.80408 1.68115 0
M  V30 2747 H 255.004 2.3985 2.85529 0
M  V30 2748 N 257.189 -0.644168 1.43834 0
M  V30 2749 C 258.417 -1.43147 1.49387 0
M  V30 2750 C 258.832 -1.88452 0.114583 0
M  V30 2751 O 258.189 -1.60047 -0.876989 0
M  V30 2752 C 258.24 -2.66046 2.44748 0
M  V30 2753 O 257.961 -2.22633 3.77314 0
M  V30 2754 C 259.462 -3.59311 2.59635 0
M  V30 2755 H 256.682 -0.439447 0.507077 0
M  V30 2756 H 259.226 -0.78895 1.88669 0
M  V30 2757 H 257.381 -3.26418 2.08638 0
M  V30 2758 H 257.795 -3.02216 4.28679 0
M  V30 2759 H 259.269 -4.42187 3.30416 0
M  V30 2760 H 259.746 -4.07259 1.64427 0
M  V30 2761 H 260.352 -3.04816 2.96593 0
M  V30 2762 N 258.668 -1.30515 -0.883378 0
M  V30 2763 C 259.896 -1.22359 -1.66841 0
M  V30 2764 C 260.311 0.213296 -1.87591 0
M  V30 2765 O 259.668 1.14075 -1.42454 0
M  V30 2766 C 259.719 -1.95011 -3.04389 0
M  V30 2767 O 259.44 -3.3309 -2.84575 0
M  V30 2768 C 260.941 -1.93532 -3.98824 0
M  V30 2769 H 258.161 -0.423371 -0.520575 0
M  V30 2770 H 260.705 -1.72167 -1.10357 0
M  V30 2771 H 258.86 -1.48997 -3.57601 0
M  V30 2772 H 259.274 -3.69907 -3.71846 0
M  V30 2773 H 260.748 -2.48902 -4.92699 0
M  V30 2774 H 261.225 -0.914627 -4.29571 0
M  V30 2775 H 261.831 -2.39364 -3.51547 0
M  V30 2776 N 260.146 1.09593 -1.13257 0
M  V30 2777 C 261.394 1.81375 -0.891492 0
M  V30 2778 C 261.715 1.86049 0.584009 0
M  V30 2779 O 260.985 1.34481 1.42449 0
M  V30 2780 H 259.565 0.671708 -0.326828 0
M  V30 2781 H 262.227 1.3256 -1.42877 0
M  V30 2782 H 261.323 2.84612 -1.28071 0
M  V30 2783 N 261.624 0.925811 1.2754 0
M  V30 2784 C 262.854 0.580666 1.98272 0
M  V30 2785 C 263.262 -0.845207 1.69272 0
M  V30 2786 O 262.605 -1.57306 0.948707 0
M  V30 2787 C 262.667 0.724418 3.52126 0
M  V30 2788 C 262.331 2.12206 4.04744 0
M  V30 2789 C 263.328 3.09604 4.17662 0
M  V30 2790 C 261.013 2.4385 4.39138 0
M  V30 2791 C 263.007 4.36755 4.64246 0
M  V30 2792 C 260.694 3.71237 4.85414 0
M  V30 2793 C 261.692 4.67503 4.97926 0
M  V30 2794 O 261.38 5.92624 5.43187 0
M  V30 2795 H 261.112 0.218987 0.639547 0
M  V30 2796 H 263.666 1.24452 1.63404 0
M  V30 2797 H 261.896 0.0034663 3.867 0
M  V30 2798 H 263.585 0.384607 4.04074 0
M  V30 2799 H 264.351 2.86478 3.91351 0
M  V30 2800 H 260.23 1.69665 4.28643 0
M  V30 2801 H 263.774 5.11898 4.73927 0
M  V30 2802 H 259.671 3.94182 5.11166 0
M  V30 2803 H 260.439 5.95585 5.61445 0
M  V30 2804 N 263.102 -1.41638 0.69111 0
M  V30 2805 C 264.35 -2.00902 0.219758 0
M  V30 2806 C 264.671 -1.54994 -1.18329 0
M  V30 2807 O 263.941 -0.778628 -1.79762 0
M  V30 2808 H 262.521 -0.74289 0.0782558 0
M  V30 2809 H 265.183 -1.73327 0.891271 0
M  V30 2810 H 264.279 -3.11224 0.233708 0
M  V30 2811 N 264.58 -0.43555 -1.51462 0
M  V30 2812 C 265.857 0.191364 -1.94662 0
M  V30 2813 C 266.237 1.60254 -1.37411 0
M  V30 2814 O 265.585 2.2152 -0.560458 0
M  V30 2815 C 265.795 0.17091 -3.48581 0
M  V30 2816 C 267.143 0.377357 -4.2292 0
M  V30 2817 O 268.167 0.249104 -3.55328 0
M  V30 2818 O 267.026 0.63247 -5.42828 0
M  V30 2819 H 264.12 0.130932 -0.816569 0
M  V30 2820 H 266.666 -0.4934 -1.62369 0
M  V30 2821 H 265.438 -0.815738 -3.82703 0
M  V30 2822 H 265.061 0.898659 -3.87311 0
M  V30 2823 N 266.058 1.56714 -0.166846 0
M  V30 2824 C 267.286 2.0112 0.485644 0
M  V30 2825 C 267.701 1.04705 1.57106 0
M  V30 2826 O 267.058 0.0471923 1.82439 0
M  V30 2827 C 267.109 3.45361 1.06808 0
M  V30 2828 O 266.83 4.38092 0.0259995 0
M  V30 2829 C 268.331 4.05145 1.79924 0
M  V30 2830 H 265.551 0.65931 0.124704 0
M  V30 2831 H 268.095 2.02746 -0.267262 0
M  V30 2832 H 266.25 3.44524 1.7715 0
M  V30 2833 H 266.664 5.22519 0.455398 0
M  V30 2834 H 268.138 5.08009 2.15942 0
M  V30 2835 H 268.615 3.46982 2.69258 0
M  V30 2836 H 269.221 4.09672 1.14234 0
M  V30 2837 N 267.536 -0.106894 1.57237 0
M  V30 2838 C 268.785 -0.811163 1.8467 0
M  V30 2839 C 269.098 -1.80469 0.754342 0
M  V30 2840 O 270.304 -2.55601 0.915439 0
M  V30 2841 C 268.76 -1.49337 3.27454 0
M  V30 2842 C 268.368 -0.540217 4.44731 0
M  V30 2843 C 270.112 -2.18206 3.64124 0
M  V30 2844 C 268.019 -1.22634 5.78545 0
M  V30 2845 H 266.949 -0.306679 0.688813 0
M  V30 2846 H 269.6 -0.0639887 1.83388 0
M  V30 2847 H 267.982 -2.2876 3.23241 0
M  V30 2848 H 269.156 0.221659 4.60267 0
M  V30 2849 H 267.471 0.042146 4.16379 0
M  V30 2850 H 270.068 -2.70253 4.61376 0
M  V30 2851 H 270.411 -2.96562 2.92158 0
M  V30 2852 H 270.944 -1.45658 3.70174 0
M  V30 2853 H 267.683 -0.483832 6.53712 0
M  V30 2854 H 267.203 -1.95993 5.66874 0
M  V30 2855 H 268.882 -1.75615 6.2271 0
M  V30 2856 N 269.014 -1.53014 -0.377408 0
M  V30 2857 C 270.425 -1.60438 -0.954798 0
M  V30 2858 C 270.776 -0.464418 -1.90624 0
M  V30 2859 O 269.901 0.41087 -2.12464 0
M  V30 2860 C 270.496 -2.90797 -1.73847 0
M  V30 2861 C 269.055 -3.00595 -2.26538 0
M  V30 2862 C 268.202 -2.55645 -1.07429 0
M  V30 2863 H 271.153 -1.57926 -0.156575 0
M  V30 2864 H 271.174 -2.77935 -2.5987 0
M  V30 2865 H 270.686 -3.73746 -1.04574 0
M  V30 2866 H 268.787 -2.22208 -2.99089 0
M  V30 2867 H 268.9 -4.05456 -2.5523 0
M  V30 2868 H 267.264 -2.10239 -1.43777 0
M  V30 2869 H 268.047 -3.41 -0.396728 0
M  V30 2870 N 270.492 0.636531 -1.44174 0
M  V30 2871 C 271.424 1.7618 -1.46606 0
M  V30 2872 C 272.437 1.58768 -0.360091 0
M  V30 2873 O 273.626 1.67181 -0.625518 0
M  V30 2874 C 270.726 3.13833 -1.27915 0
M  V30 2875 C 269.899 3.57753 -2.51658 0
M  V30 2876 C 268.958 4.74265 -2.27945 0
M  V30 2877 O 267.984 4.82852 -3.01401 0
M  V30 2878 N 269.186 5.65604 -1.30662 0
M  V30 2879 H 271.951 1.74567 -2.43612 0
M  V30 2880 H 269.512 0.820924 -1.39544 0
M  V30 2881 H 271.504 3.8949 -1.09907 0
M  V30 2882 H 270.074 3.10121 -0.39293 0
M  V30 2883 H 269.294 2.72362 -2.84978 0
M  V30 2884 H 270.582 3.83847 -3.33974 0
M  V30 2885 H 269.98 5.61354 -0.699844 0
M  V30 2886 H 268.537 6.40913 -1.18634 0
M  V30 2887 N 271.97 1.30982 0.876444 0
M  V30 2888 C 273.195 1.23373 1.66715 0
M  V30 2889 C 273.62 -0.19885 1.87046 0
M  V30 2890 O 272.978 -1.1427 1.40756 0
M  V30 2891 C 273.026 1.97644 3.01611 0
M  V30 2892 O 272.13 1.30935 3.91062 0
M  V30 2893 H 271.471 0.426279 0.509099 0
M  V30 2894 H 274.001 1.72944 1.09323 0
M  V30 2895 H 274.011 2.06992 3.51594 0
M  V30 2896 H 272.686 3.01829 2.86133 0
M  V30 2897 H 271.263 1.29996 3.49507 0
M  V30 2898 N 273.449 -1.08991 1.13837 0
M  V30 2899 C 274.696 -1.81258 0.902882 0
M  V30 2900 C 275.024 -1.85936 -0.570803 0
M  V30 2901 O 274.279 -1.3267 -1.43865 0
M  V30 2902 C 274.578 -3.27042 1.44147 0
M  V30 2903 C 274.244 -3.4249 2.93276 0
M  V30 2904 C 272.906 -3.46414 3.33992 0
M  V30 2905 C 275.258 -3.4666 3.892 0
M  V30 2906 C 272.586 -3.52091 4.69307 0
M  V30 2907 C 274.938 -3.53872 5.24364 0
M  V30 2908 C 273.602 -3.56066 5.646 0
M  V30 2909 H 272.872 -0.663268 0.330388 0
M  V30 2910 H 275.519 -1.28368 1.42105 0
M  V30 2911 H 273.824 -3.82599 0.844097 0
M  V30 2912 H 275.521 -3.81499 1.23528 0
M  V30 2913 H 272.111 -3.40124 2.60794 0
M  V30 2914 H 276.295 -3.42865 3.58828 0
M  V30 2915 H 271.551 -3.52079 4.9985 0
M  V30 2916 H 275.725 -3.56043 5.98503 0
M  V30 2917 H 273.352 -3.60218 6.69438 0
M  V30 2918 N 274.927 -0.932562 -1.27047 0
M  V30 2919 C 275.89 -0.440064 -2.24936 0
M  V30 2920 C 276.89 0.444071 -1.54547 0
M  V30 2921 O 278.08 0.244465 -1.72476 0
M  V30 2922 C 275.212 0.36678 -3.38921 0
M  V30 2923 H 276.405 -1.305 -2.70018 0
M  V30 2924 H 273.958 -0.713707 -1.39054 0
M  V30 2925 H 274.693 1.25033 -2.99228 0
M  V30 2926 H 274.478 -0.267204 -3.91188 0
M  V30 2927 H 275.968 0.701567 -4.11665 0
M  V30 2928 N 276.405 1.4127 -0.698611 0
M  V30 2929 C 277.653 2.00782 -0.230409 0
M  V30 2930 C 277.974 1.5562 1.17505 0
M  V30 2931 O 277.244 0.78815 1.79346 0
M  V30 2932 H 275.824 0.742464 -0.0821944 0
M  V30 2933 H 278.486 1.72852 -0.90045 0
M  V30 2934 H 277.582 3.11095 -0.25021 0
M  V30 2935 N 277.883 0.443576 1.51229 0
M  V30 2936 C 279.299 0.0962001 1.5931 0
M  V30 2937 C 279.499 -1.39501 1.45402 0
M  V30 2938 O 278.555 -2.16557 1.29843 0
M  V30 2939 C 279.868 0.621875 2.94199 0
M  V30 2940 C 281.416 0.582865 3.07525 0
M  V30 2941 C 281.891 1.08562 4.44948 0
M  V30 2942 N 283.382 1.04387 4.51284 0
M  V30 2943 C 284.117 1.40368 5.55954 0
M  V30 2944 N 283.613 1.83664 6.68011 0
M  V30 2945 N 285.406 1.32145 5.46346 0
M  V30 2946 H 277.557 1.41376 1.58514 0
M  V30 2947 H 279.82 0.582965 0.747567 0
M  V30 2948 H 279.526 1.66546 3.09767 0
M  V30 2949 H 279.4 0.0502125 3.77167 0
M  V30 2950 H 281.787 -0.451749 2.91622 0
M  V30 2951 H 281.868 1.191 2.26382 0
M  V30 2952 H 281.512 2.11873 4.61598 0
M  V30 2953 H 281.442 0.453956 5.2464 0
M  V30 2954 H 283.933 0.725986 3.70861 0
M  V30 2955 H 284.246 2.0934 7.43906 0
M  V30 2956 H 282.591 1.87596 6.69203 0
M  V30 2957 H 285.782 0.981808 4.57688 0
M  V30 2958 H 285.955 1.60514 6.27805 0
M  V30 2959 N 279.361 -1.56624 0.175154 0
M  V30 2960 C 280.607 -1.9729 -0.469506 0
M  V30 2961 C 280.94 -1.06128 -1.62636 0
M  V30 2962 O 280.215 -0.109183 -1.94193 0
M  V30 2963 C 280.498 -3.47375 -0.948804 0
M  V30 2964 C 280.351 -4.49317 0.208491 0
M  V30 2965 C 281.67 -4.00652 -1.82116 0
M  V30 2966 H 278.789 -0.717317 -0.16919 0
M  V30 2967 H 281.431 -1.88184 0.262062 0
M  V30 2968 H 279.581 -3.55267 -1.57219 0
M  V30 2969 H 281.253 -4.53482 0.845682 0
M  V30 2970 H 279.496 -4.25121 0.863395 0
M  V30 2971 H 280.167 -5.51741 -0.169059 0
M  V30 2972 H 282.643 -3.95416 -1.2956 0
M  V30 2973 H 281.519 -5.06075 -2.12554 0
M  V30 2974 H 281.78 -3.44699 -2.7683 0
M  V30 2975 N 280.839 0.0985539 -1.57292 0
M  V30 2976 C 281.769 1.12064 -2.04851 0
M  V30 2977 C 282.75 1.41981 -0.936767 0
M  V30 2978 O 283.935 1.52071 -1.20781 0
M  V30 2979 C 281.065 2.44144 -2.47004 0
M  V30 2980 C 280.019 2.28643 -3.6181 0
M  V30 2981 C 279.345 3.65869 -3.89929 0
M  V30 2982 C 280.645 1.72986 -4.92822 0
M  V30 2983 H 282.339 0.724979 -2.9049 0
M  V30 2984 H 279.885 0.34729 -1.39749 0
M  V30 2985 H 281.838 3.15914 -2.78884 0
M  V30 2986 H 280.562 2.85639 -1.5836 0
M  V30 2987 H 279.221 1.59318 -3.30172 0
M  V30 2988 H 278.869 4.04885 -2.98458 0
M  V30 2989 H 278.569 3.56344 -4.67218 0
M  V30 2990 H 280.093 4.39112 -4.2428 0
M  V30 2991 H 281.507 2.34593 -5.23105 0
M  V30 2992 H 279.904 1.74229 -5.74251 0
M  V30 2993 H 280.974 0.689007 -4.7998 0
M  V30 2994 N 282.317 1.53212 0.369288 0
M  V30 2995 C 283.28 1.7872 1.43498 0
M  V30 2996 C 284.28 0.657554 1.46741 0
M  V30 2997 O 285.47 0.925736 1.47566 0
M  V30 2998 C 282.602 1.90591 2.82645 0
M  V30 2999 H 283.795 2.73894 1.22156 0
M  V30 3000 H 281.348 1.44233 0.602203 0
M  V30 3001 H 282.083 0.974709 3.09306 0
M  V30 3002 H 281.868 2.72751 2.8169 0
M  V30 3003 H 283.358 2.11931 3.59826 0
M  V30 3004 N 283.795 -0.628877 1.44509 0
M  V30 3005 C 285.043 -1.38565 1.4712 0
M  V30 3006 C 285.364 -1.94712 0.105899 0
M  V30 3007 O 284.634 -1.75912 -0.862079 0
M  V30 3008 H 283.214 -0.514333 0.541729 0
M  V30 3009 H 285.876 -0.740018 1.80305 0
M  V30 3010 H 284.972 -2.21583 2.19789 0
M  V30 3011 N 285.273 -1.31445 -0.869486 0
M  V30 3012 C 286.236 -1.19094 -1.9583 0
M  V30 3013 C 287.236 -0.117906 -1.60367 0
M  V30 3014 O 288.426 -0.367208 -1.70286 0
M  V30 3015 C 285.558 -0.828165 -3.30688 0
M  V30 3016 H 286.751 -2.15842 -2.08212 0
M  V30 3017 H 284.304 -1.15063 -1.05784 0
M  V30 3018 H 285.039 0.138142 -3.24006 0
M  V30 3019 H 284.824 -1.6038 -3.578 0
M  V30 3020 H 286.314 -0.765658 -4.10521 0
M  V30 3021 N 286.751 1.08385 -1.14413 0
M  V30 3022 C 287.997 1.81044 -0.913834 0
M  V30 3023 C 288.33 1.86004 0.558209 0
M  V30 3024 O 287.605 1.33606 1.4135 0
M  V30 3025 C 287.888 3.26648 -1.51569 0
M  V30 3026 C 287.741 3.29895 -3.0576 0
M  V30 3027 C 289.06 4.23629 -1.19273 0
M  V30 3028 H 286.179 0.65727 -0.333414 0
M  V30 3029 H 288.821 1.26896 -1.41412 0
M  V30 3030 H 286.971 3.72889 -1.09023 0
M  V30 3031 H 288.643 2.91977 -3.57137 0
M  V30 3032 H 286.886 2.69163 -3.40197 0
M  V30 3033 H 287.557 4.32516 -3.42977 0
M  V30 3034 H 290.033 3.85727 -1.56057 0
M  V30 3035 H 288.909 5.23822 -1.64017 0
M  V30 3036 H 289.17 4.41968 -0.108068 0
M  V30 3037 N 288.23 0.939286 1.26551 0
M  V30 3038 C 289.163 0.391702 2.24813 0
M  V30 3039 C 290.141 -0.518421 1.54114 0
M  V30 3040 O 291.325 -0.456299 1.82894 0
M  V30 3041 C 288.452 -0.437382 3.35864 0
M  V30 3042 C 287.498 0.410946 4.24516 0
M  V30 3043 S 288.331 1.83372 5.03125 0
M  V30 3044 C 289.487 1.01264 6.17654 0
M  V30 3045 H 289.72 1.22448 2.70913 0
M  V30 3046 H 287.253 0.742269 1.35387 0
M  V30 3047 H 289.211 -0.909837 4.0029 0
M  V30 3048 H 287.872 -1.24482 2.8838 0
M  V30 3049 H 287.065 -0.224191 5.03501 0
M  V30 3050 H 286.667 0.818014 3.64945 0
M  V30 3051 H 288.959 0.254023 6.77024 0
M  V30 3052 H 289.902 1.77589 6.85469 0
M  V30 3053 H 290.31 0.549532 5.61819 0
M  V30 3054 N 289.708 -1.40897 0.706093 0
M  V30 3055 C 290.641 -2.282 -0.00328781 0
M  V30 3056 C 291.619 -1.42816 -0.77732 0
M  V30 3057 O 292.803 -1.72237 -0.765944 0
M  V30 3058 C 289.93 -3.23226 -1.01205 0
M  V30 3059 C 288.976 -4.25222 -0.329955 0
M  V30 3060 S 289.809 -5.27269 0.935298 0
M  V30 3061 C 290.965 -6.25859 -0.0716061 0
M  V30 3062 H 291.198 -2.88016 0.737143 0
M  V30 3063 H 288.731 -1.46191 0.496756 0
M  V30 3064 H 290.689 -3.78503 -1.58888 0
M  V30 3065 H 289.35 -2.62485 -1.72513 0
M  V30 3066 H 288.543 -4.92023 -1.09221 0
M  V30 3067 H 288.145 -3.73595 0.174069 0
M  V30 3068 H 290.437 -6.71204 -0.921521 0
M  V30 3069 H 291.38 -7.0586 0.562765 0
M  V30 3070 H 291.788 -5.62852 -0.431088 0
M  V30 3071 N 291.186 -0.45159 -1.50991 0
M  V30 3072 C 292.411 0.110667 -2.07105 0
M  V30 3073 C 292.836 1.3446 -1.31538 0
M  V30 3074 O 292.194 1.77743 -0.357365 0
M  V30 3075 C 292.242 0.397238 -3.58405 0
M  V30 3076 O 291.346 1.48124 -3.84881 0
M  V30 3077 H 290.687 -0.00439271 -0.663985 0
M  V30 3078 H 293.217 -0.637026 -1.9443 0
M  V30 3079 H 293.227 0.64351 -4.02893 0
M  V30 3080 H 291.902 -0.504553 -4.12828 0
M  V30 3081 H 290.479 1.22381 -3.52246 0
M  V30 3082 N 292.664 1.56529 -0.183458 0
M  V30 3083 C 293.912 1.96855 0.457452 0
M  V30 3084 C 294.233 1.07104 1.62953 0
M  V30 3085 O 293.503 0.139887 1.954 0
M  V30 3086 H 292.083 0.72693 0.171992 0
M  V30 3087 H 294.745 1.93056 -0.267476 0
M  V30 3088 H 293.841 3.01423 0.809368 0
M  V30 3089 N 294.142 -0.090211 1.57342 0
M  V30 3090 C 295.391 -0.791531 1.8552 0
M  V30 3091 C 295.704 -1.79659 0.773441 0
M  V30 3092 O 296.91 -2.54616 0.942497 0
M  V30 3093 C 295.366 -1.45856 3.2902 0
M  V30 3094 C 294.974 -0.493017 4.45279 0
M  V30 3095 C 296.718 -2.14332 3.66418 0
M  V30 3096 C 294.625 -1.16491 5.79814 0
M  V30 3097 H 293.555 -0.299356 0.692027 0
M  V30 3098 H 296.206 -0.0445343 1.83446 0
M  V30 3099 H 294.588 -2.25318 3.2565 0
M  V30 3100 H 295.762 0.270464 4.60006 0
M  V30 3101 H 294.077 0.0863061 4.16311 0
M  V30 3102 H 296.674 -2.65344 4.64216 0
M  V30 3103 H 297.017 -2.93447 2.95287 0
M  V30 3104 H 297.55 -1.41724 3.71698 0
M  V30 3105 H 294.289 -0.41447 6.54188 0
M  V30 3106 H 293.809 -1.8997 5.68921 0
M  V30 3107 H 295.488 -1.69001 6.24538 0
M  V30 3108 N 295.62 -1.53406 -0.361157 0
M  V30 3109 C 296.868 -1.69467 -1.10115 0
M  V30 3110 C 297.189 -0.451352 -1.89705 0
M  V30 3111 O 296.459 0.534636 -1.88463 0
M  V30 3112 H 295.039 -0.624749 -0.409508 0
M  V30 3113 H 297.701 -1.90609 -0.406699 0
M  V30 3114 H 296.797 -2.55774 -1.78847 0
M  V30 3115 N 297.098 0.621204 -1.44841 0
M  V30 3116 C 298.347 1.37658 -1.47422 0
M  V30 3117 C 298.66 1.95264 -0.114629 0
M  V30 3118 O 299.866 2.71494 -0.0180199 0
M  V30 3119 C 298.322 2.49285 -2.59586 0
M  V30 3120 C 297.93 1.98149 -4.01797 0
M  V30 3121 C 299.674 3.26409 -2.71399 0
M  V30 3122 C 297.581 3.07178 -5.05367 0
M  V30 3123 H 296.511 0.517344 -0.548517 0
M  V30 3124 H 299.162 0.667257 -1.70938 0
M  V30 3125 H 297.544 3.22839 -2.29328 0
M  V30 3126 H 298.718 1.31395 -4.41669 0
M  V30 3127 H 297.033 1.33812 -3.94314 0
M  V30 3128 H 299.63 4.07706 -3.45948 0
M  V30 3129 H 299.973 3.76535 -1.77559 0
M  V30 3130 H 300.506 2.5995 -3.01116 0
M  V30 3131 H 297.245 2.61985 -6.00869 0
M  V30 3132 H 296.765 3.72542 -4.70077 0
M  V30 3133 H 298.444 3.71789 -5.29511 0
M  V30 3134 N 298.576 1.31904 0.862503 0
M  V30 3135 C 299.823 1.22017 1.61611 0
M  V30 3136 C 300.151 -0.21991 1.93253 0
M  V30 3137 O 299.406 -1.17076 1.56817 0
M  V30 3138 C 299.705 2.01713 2.95037 0
M  V30 3139 C 299.371 3.51145 2.82857 0
M  V30 3140 C 298.033 3.91889 2.79243 0
M  V30 3141 C 300.385 4.46204 2.69353 0
M  V30 3142 C 297.713 5.25947 2.59993 0
M  V30 3143 C 300.065 5.80397 2.5164 0
M  V30 3144 C 298.729 6.20352 2.46413 0
M  V30 3145 H 297.999 0.44649 0.591378 0
M  V30 3146 H 300.646 1.63248 1.00111 0
M  V30 3147 H 298.951 1.53185 3.60613 0
M  V30 3148 H 300.648 1.91437 3.52353 0
M  V30 3149 H 297.238 3.1878 2.86491 0
M  V30 3150 H 301.422 4.15652 2.71196 0
M  V30 3151 H 296.678 5.5597 2.54376 0
M  V30 3152 H 300.852 6.53676 2.40169 0
M  V30 3153 H 298.479 7.24172 2.31256 0
M  V30 3154 N 300.054 -1.07777 1.14986 0
M  V30 3155 C 301.302 -1.79934 0.920235 0
M  V30 3156 C 301.623 -1.86955 -0.554336 0
M  V30 3157 O 300.893 -1.36731 -1.40291 0
M  V30 3158 H 299.473 -0.666424 0.337473 0
M  V30 3159 H 302.135 -1.3027 1.44968 0
M  V30 3160 H 301.231 -2.82539 1.32583 0
M  V30 3161 N 301.532 -0.945985 -1.26051 0
M  V30 3162 C 302.462 -0.477172 -2.28572 0
M  V30 3163 C 303.443 0.472032 -1.63419 0
M  V30 3164 O 304.628 0.372853 -1.90587 0
M  V30 3165 C 301.758 0.253975 -3.4637 0
M  V30 3166 C 300.712 -0.609135 -4.23643 0
M  V30 3167 C 300.038 0.252252 -5.34105 0
M  V30 3168 C 301.338 -1.8829 -4.8718 0
M  V30 3169 H 303.032 -1.33402 -2.68038 0
M  V30 3170 H 300.578 -0.642904 -1.28852 0
M  V30 3171 H 302.531 0.593016 -4.17207 0
M  V30 3172 H 301.255 1.145 -3.05871 0
M  V30 3173 H 299.914 -0.931138 -3.54578 0
M  V30 3174 H 299.562 1.14278 -4.89846 0
M  V30 3175 H 299.262 -0.32188 -5.86718 0
M  V30 3176 H 300.786 0.586454 -6.07777 0
M  V30 3177 H 302.2 -1.61081 -5.50205 0
M  V30 3178 H 300.597 -2.40199 -5.49931 0
M  V30 3179 H 301.667 -2.59134 -4.09851 0
M  V30 3180 N 303.011 1.40521 -0.713556 0
M  V30 3181 C 304.257 2.01714 -0.261382 0
M  V30 3182 C 304.612 1.55562 1.13217 0
M  V30 3183 O 303.905 0.764893 1.7567 0
M  V30 3184 C 304.099 3.56317 -0.278 0
M  V30 3185 C 303.928 4.17476 -1.67163 0
M  V30 3186 C 302.698 4.50998 -2.2788 0
M  V30 3187 C 304.896 4.42472 -2.6215 0
M  V30 3188 N 302.878 4.9754 -3.5962 0
M  V30 3189 C 304.249 4.90985 -3.78594 0
M  V30 3190 C 306.304 4.24508 -2.60188 0
M  V30 3191 C 305.007 5.2342 -4.9338 0
M  V30 3192 C 307.033 4.58043 -3.741 0
M  V30 3193 C 306.395 5.06743 -4.89276 0
M  V30 3194 H 302.494 0.769104 -0.141434 0
M  V30 3195 H 305.078 1.70785 -0.934915 0
M  V30 3196 H 303.249 3.8668 0.36509 0
M  V30 3197 H 304.981 4.0425 0.190695 0
M  V30 3198 H 301.736 4.38062 -1.79997 0
M  V30 3199 H 302.16 5.25196 -4.27198 0
M  V30 3200 H 306.802 3.86078 -1.72348 0
M  V30 3201 H 304.52 5.60765 -5.81866 0
M  V30 3202 H 308.106 4.45785 -3.73854 0
M  V30 3203 H 306.986 5.32204 -5.75959 0
M  V30 3204 N 304.489 0.459591 1.5075 0
M  V30 3205 C 305.452 -0.329093 2.26825 0
M  V30 3206 C 306.452 -0.930481 1.31144 0
M  V30 3207 O 307.642 -0.801453 1.54669 0
M  V30 3208 C 304.774 -1.46768 3.07688 0
M  V30 3209 H 305.967 0.337924 2.9799 0
M  V30 3210 H 303.52 0.213336 1.54837 0
M  V30 3211 H 304.255 -2.17009 2.40993 0
M  V30 3212 H 304.04 -1.04238 3.77991 0
M  V30 3213 H 305.53 -2.02433 3.65254 0
M  V30 3214 N 305.967 -1.56429 0.191757 0
M  V30 3215 C 307.215 -1.97095 -0.447006 0
M  V30 3216 C 307.536 -1.07967 -1.62383 0
M  V30 3217 O 306.806 -0.150248 -1.95323 0
M  V30 3218 H 305.386 -0.727832 -0.168135 0
M  V30 3219 H 308.048 -1.92911 0.27771 0
M  V30 3220 H 307.144 -3.01848 -0.793371 0
M  V30 3221 N 307.445 0.0818655 -1.57387 0
M  V30 3222 C 308.694 0.781681 -1.85937 0
M  V30 3223 C 309.007 1.79246 -0.782957 0
M  V30 3224 O 310.213 2.54112 -0.955987 0
M  V30 3225 C 308.669 1.44109 -3.29789 0
M  V30 3226 C 308.277 0.469396 -4.45534 0
M  V30 3227 C 310.021 2.12386 -3.67549 0
M  V30 3228 C 307.928 1.13415 -5.80423 0
M  V30 3229 H 306.858 0.295682 -0.693605 0
M  V30 3230 H 309.509 0.0348051 -1.83467 0
M  V30 3231 H 307.891 2.23588 -3.2684 0
M  V30 3232 H 309.065 -0.294856 -4.59856 0
M  V30 3233 H 307.38 -0.108383 -4.16259 0
M  V30 3234 H 309.977 2.62878 -4.65617 0
M  V30 3235 H 310.32 2.91877 -2.96839 0
M  V30 3236 H 310.853 1.39751 -3.72444 0
M  V30 3237 H 307.592 0.379771 -6.54399 0
M  V30 3238 H 307.112 1.8695 -5.69921 0
M  V30 3239 H 308.791 1.65686 -6.25426 0
M  V30 3240 N 308.923 1.53595 0.353017 0
M  V30 3241 C 309.853 1.83902 1.43883 0
M  V30 3242 C 310.834 0.693421 1.55324 0
M  V30 3243 O 312.019 0.944452 1.69687 0
M  V30 3244 C 309.149 2.04016 2.8106 0
M  V30 3245 C 308.103 3.19814 2.84434 0
M  V30 3246 C 307.429 3.25244 4.24406 0
M  V30 3247 C 308.729 4.58133 2.50822 0
M  V30 3248 H 310.423 2.74835 1.1877 0
M  V30 3249 H 307.969 1.32242 0.569917 0
M  V30 3250 H 309.922 2.238 3.57059 0
M  V30 3251 H 308.646 1.09804 3.07588 0
M  V30 3252 H 307.305 2.9987 2.10887 0
M  V30 3253 H 306.953 2.28646 4.48029 0
M  V30 3254 H 306.653 4.03054 4.27576 0
M  V30 3255 H 308.177 3.47228 5.0226 0
M  V30 3256 H 309.591 4.77995 3.16534 0
M  V30 3257 H 307.988 5.38276 2.6529 0
M  V30 3258 H 309.058 4.62387 1.46034 0
M  V30 3259 N 310.401 -0.613514 1.45168 0
M  V30 3260 C 311.364 -1.7065 1.53007 0
M  V30 3261 C 312.364 -1.5548 0.410184 0
M  V30 3262 O 313.554 -1.60656 0.673455 0
M  V30 3263 C 310.686 -3.09875 1.42093 0
M  V30 3264 H 311.879 -1.65068 2.50385 0
M  V30 3265 H 309.432 -0.828728 1.32521 0
M  V30 3266 H 310.167 -3.21039 0.458769 0
M  V30 3267 H 309.952 -3.22293 2.23315 0
M  V30 3268 H 311.442 -3.895 1.50598 0
M  V30 3269 N 311.879 -1.3236 -0.855495 0
M  V30 3270 C 313.107 -1.2587 -1.64208 0
M  V30 3271 C 313.522 0.173457 -1.88002 0
M  V30 3272 O 312.879 1.11027 -1.44842 0
M  V30 3273 C 312.93 -2.01424 -3.00184 0
M  V30 3274 O 312.651 -3.39051 -2.77445 0
M  V30 3275 C 314.152 -2.01948 -3.94629 0
M  V30 3276 H 311.372 -0.434318 -0.511477 0
M  V30 3277 H 313.916 -1.74469 -1.0668 0
M  V30 3278 H 312.071 -1.56549 -3.5436 0
M  V30 3279 H 312.485 -3.77711 -3.63916 0
M  V30 3280 H 313.959 -2.59297 -4.87308 0
M  V30 3281 H 314.436 -1.00554 -4.27534 0
M  V30 3282 H 315.042 -2.46767 -3.4639 0
M  V30 3283 N 313.357 1.07166 -1.15556 0
M  V30 3284 C 314.605 1.79443 -0.929764 0
M  V30 3285 C 314.926 1.87246 0.544414 0
M  V30 3286 O 314.196 1.37473 1.39564 0
M  V30 3287 H 312.776 0.664625 -0.341003 0
M  V30 3288 H 315.438 1.29499 -1.45657 0
M  V30 3289 H 314.534 2.81832 -1.34079 0
M  V30 3290 N 314.835 0.952656 1.25548 0
M  V30 3291 C 316.082 0.606373 1.93208 0
M  V30 3292 C 316.41 -0.85631 1.74636 0
M  V30 3293 O 315.665 -1.62951 1.08376 0
M  V30 3294 C 315.964 0.908818 3.45652 0
M  V30 3295 C 315.63 2.35722 3.84378 0
M  V30 3296 C 314.292 2.75312 3.9466 0
M  V30 3297 C 316.644 3.29793 4.03591 0
M  V30 3298 C 313.972 4.08047 4.21562 0
M  V30 3299 C 316.324 4.62138 4.31985 0
M  V30 3300 C 314.988 5.01528 4.40484 0
M  V30 3301 H 314.258 0.221888 0.706998 0
M  V30 3302 H 316.905 1.20132 1.49133 0
M  V30 3303 H 315.21 0.231456 3.91116 0
M  V30 3304 H 316.907 0.619498 3.96186 0
M  V30 3305 H 313.497 2.04017 3.76928 0
M  V30 3306 H 317.681 3.00397 3.95064 0
M  V30 3307 H 312.937 4.38212 4.26357 0
M  V30 3308 H 317.111 5.35012 4.45797 0
M  V30 3309 H 314.738 6.04406 4.61083 0
M  V30 3310 N 316.313 -1.40141 0.720998 0
M  V30 3311 C 317.543 -2.04798 0.27226 0
M  V30 3312 C 317.951 -1.54442 -1.09289 0
M  V30 3313 O 317.294 -0.698342 -1.69908 0
M  V30 3314 C 317.356 -3.59048 0.18027 0
M  V30 3315 C 317.02 -4.32317 1.48159 0
M  V30 3316 C 318.017 -4.59902 2.42458 0
M  V30 3317 C 315.702 -4.71125 1.74202 0
M  V30 3318 C 317.696 -5.25288 3.61042 0
M  V30 3319 C 315.383 -5.36242 2.93066 0
M  V30 3320 C 316.381 -5.63254 3.86308 0
M  V30 3321 O 316.069 -6.27024 5.03086 0
M  V30 3322 H 315.801 -0.665419 0.119139 0
M  V30 3323 H 318.355 -1.80436 0.981432 0
M  V30 3324 H 316.585 -3.82251 -0.58489 0
M  V30 3325 H 318.274 -4.05221 -0.234618 0
M  V30 3326 H 319.04 -4.30379 2.23604 0
M  V30 3327 H 314.919 -4.49466 1.02477 0
M  V30 3328 H 318.463 -5.46289 4.33837 0
M  V30 3329 H 314.36 -5.65185 3.11826 0
M  V30 3330 H 315.128 -6.4552 5.03235 0
M  V30 3331 N 317.792 -0.46758 -1.50504 0
M  V30 3332 C 318.724 0.364655 -2.26281 0
M  V30 3333 C 319.737 0.960151 -1.31472 0
M  V30 3334 O 320.926 0.849153 -1.57008 0
M  V30 3335 C 318.026 1.52509 -3.02645 0
M  V30 3336 C 317.199 1.04302 -4.24782 0
M  V30 3337 C 316.258 2.07709 -4.8347 0
M  V30 3338 O 315.284 1.65913 -5.44483 0
M  V30 3339 N 316.486 3.40485 -4.70159 0
M  V30 3340 H 319.251 -0.28495 -2.98342 0
M  V30 3341 H 316.812 -0.298163 -1.59131 0
M  V30 3342 H 318.804 2.21371 -3.38787 0
M  V30 3343 H 317.374 2.07945 -2.33404 0
M  V30 3344 H 316.594 0.180393 -3.93787 0
M  V30 3345 H 317.882 0.698798 -5.03978 0
M  V30 3346 H 317.28 3.77155 -4.21629 0
M  V30 3347 H 315.837 4.05156 -5.1058 0
M  V30 3348 N 319.27 1.56325 -0.20005 0
M  V30 3349 C 320.18 2.22931 0.730668 0
M  V30 3350 C 321.196 1.22997 1.23076 0
M  V30 3351 O 322.372 1.55748 1.27689 0
M  V30 3352 C 319.437 2.87948 1.93098 0
M  V30 3353 C 318.498 4.03166 1.47497 0
M  V30 3354 C 317.731 4.65073 2.61807 0
M  V30 3355 O 317.954 4.25913 3.79413 0
M  V30 3356 O 316.888 5.54452 2.34237 0
M  V30 3357 H 320.714 3.03084 0.193391 0
M  V30 3358 H 318.299 1.49371 0.0294621 0
M  V30 3359 H 320.181 3.29063 2.6324 0
M  V30 3360 H 318.856 2.10771 2.45677 0
M  V30 3361 H 317.763 3.66664 0.742201 0
M  V30 3362 H 319.096 4.82022 0.995796 0
M  V30 3363 N 320.748 -0.0735177 1.57428 0
M  V30 3364 C 321.994 -0.774145 1.87443 0
M  V30 3365 C 322.327 -1.77311 0.792103 0
M  V30 3366 O 321.602 -1.93492 -0.197793 0
M  V30 3367 C 321.885 -1.48367 3.28115 0
M  V30 3368 C 321.738 -0.501227 4.46999 0
M  V30 3369 C 323.057 -2.429 3.66998 0
M  V30 3370 H 320.176 -0.279971 0.681752 0
M  V30 3371 H 322.818 -0.0373616 1.89963 0
M  V30 3372 H 320.968 -2.11171 3.26097 0
M  V30 3373 H 322.64 0.121468 4.6114 0
M  V30 3374 H 320.883 0.183593 4.33411 0
M  V30 3375 H 321.554 -1.03526 5.42205 0
M  V30 3376 H 324.03 -1.90175 3.70098 0
M  V30 3377 H 322.906 -2.89549 4.66318 0
M  V30 3378 H 323.167 -3.27628 2.96837 0
M  V30 3379 N 322.226 -1.5378 -0.344866 0
M  V30 3380 C 323.642 -1.44015 -0.687888 0
M  V30 3381 C 323.842 -0.595834 -1.92489 0
M  V30 3382 O 322.898 -0.0863064 -2.52352 0
M  V30 3383 C 324.211 -2.87481 -0.881758 0
M  V30 3384 C 325.759 -2.97247 -0.980459 0
M  V30 3385 C 326.234 -4.41819 -1.20665 0
M  V30 3386 N 327.725 -4.45339 -1.27389 0
M  V30 3387 C 328.46 -5.54333 -1.46639 0
M  V30 3388 N 327.956 -6.73335 -1.63071 0
M  V30 3389 N 329.749 -5.41944 -1.49176 0
M  V30 3390 H 321.9 -2.07169 0.468475 0
M  V30 3391 H 324.163 -0.93643 0.147655 0
M  V30 3392 H 323.869 -3.51672 -0.0443444 0
M  V30 3393 H 323.743 -3.32352 -1.78388 0
M  V30 3394 H 326.13 -2.33197 -1.8084 0
M  V30 3395 H 326.211 -2.5574 -0.0552713 0
M  V30 3396 H 325.855 -5.06449 -0.383652 0
M  V30 3397 H 325.785 -4.80917 -2.14539 0
M  V30 3398 H 328.276 -3.59585 -1.1622 0
M  V30 3399 H 328.589 -7.52165 -1.77391 0
M  V30 3400 H 326.934 -6.76282 -1.60209 0
M  V30 3401 H 330.125 -4.47932 -1.3592 0
M  V30 3402 H 330.298 -6.26946 -1.63837 0
M  V30 3403 N 323.704 0.605807 -1.45491 0
M  V30 3404 C 325.12 0.926751 -1.29936 0
M  V30 3405 C 325.32 1.99896 -0.253706 0
M  V30 3406 O 324.376 2.50038 0.351737 0
M  V30 3407 C 325.689 1.36599 -2.67883 0
M  V30 3408 C 327.237 1.4801 -2.75793 0
M  V30 3409 C 327.712 1.95309 -4.14268 0
M  V30 3410 N 329.203 2.0254 -4.16571 0
M  V30 3411 C 329.938 2.40363 -5.20589 0
M  V30 3412 N 329.434 2.77143 -6.34952 0
M  V30 3413 N 331.227 2.40718 -5.07948 0
M  V30 3414 H 323.378 -0.102862 -2.12151 0
M  V30 3415 H 325.641 0.016639 -0.947854 0
M  V30 3416 H 325.347 0.652306 -3.45598 0
M  V30 3417 H 325.221 2.33215 -2.96463 0
M  V30 3418 H 327.608 2.1847 -1.98381 0
M  V30 3419 H 327.689 0.497041 -2.50925 0
M  V30 3420 H 327.333 1.25436 -4.92167 0
M  V30 3421 H 327.263 2.94532 -4.3653 0
M  V30 3422 H 329.754 1.76699 -3.34045 0
M  V30 3423 H 330.067 3.0489 -7.10114 0
M  V30 3424 H 328.412 2.74834 -6.3835 0
M  V30 3425 H 331.603 2.11392 -4.1765 0
M  V30 3426 H 331.776 2.69869 -5.89131 0
M  V30 3427 N 325.182 1.32811 0.848464 0
M  V30 3428 C 326.43 1.23479 1.59991 0
M  V30 3429 C 326.751 -0.201853 1.93952 0
M  V30 3430 O 326.021 -1.12818 1.60153 0
M  V30 3431 H 324.601 0.454034 0.593179 0
M  V30 3432 H 327.263 1.66412 1.01455 0
M  V30 3433 H 326.359 1.82178 2.53412 0
M  V30 3434 N 326.66 -1.06551 1.16123 0
M  V30 3435 C 327.937 -1.76097 0.85142 0
M  V30 3436 C 328.317 -2.00802 -0.6513 0
M  V30 3437 O 327.665 -1.63302 -1.59827 0
M  V30 3438 C 327.875 -3.06384 1.67122 0
M  V30 3439 C 329.223 -3.80585 1.88255 0
M  V30 3440 O 330.247 -3.16218 1.63966 0
M  V30 3441 O 329.106 -4.96212 2.2899 0
M  V30 3442 H 326.2 -0.765102 0.313923 0
M  V30 3443 H 328.746 -1.12844 1.26745 0
M  V30 3444 H 327.518 -2.84071 2.69108 0
M  V30 3445 H 327.141 -3.77371 1.25206 0
M  V30 3446 N 328.138 -0.959301 -1.25041 0
M  V30 3447 C 329.385 -0.616611 -1.92884 0
M  V30 3448 C 329.713 0.847036 -1.75087 0
M  V30 3449 O 328.968 1.62374 -1.09239 0
M  V30 3450 C 329.267 -0.927136 -3.45165 0
M  V30 3451 C 328.933 -2.37757 -3.83122 0
M  V30 3452 C 327.595 -2.77402 -3.93194 0
M  V30 3453 C 329.947 -3.31929 -4.01836 0
M  V30 3454 C 327.275 -4.10277 -4.19392 0
M  V30 3455 C 329.627 -4.64423 -4.29528 0
M  V30 3456 C 328.291 -5.03857 -4.37818 0
M  V30 3457 H 327.561 -0.225634 -0.705812 0
M  V30 3458 H 330.208 -1.20921 -1.48493 0
M  V30 3459 H 328.513 -0.252195 -3.90987 0
M  V30 3460 H 330.21 -0.6405 -3.95852 0
M  V30 3461 H 326.8 -2.06013 -3.75841 0
M  V30 3462 H 330.984 -3.02488 -3.93465 0
M  V30 3463 H 326.24 -4.40467 -4.24027 0
M  V30 3464 H 330.414 -5.37369 -4.42953 0
M  V30 3465 H 328.041 -6.06843 -4.57871 0
M  V30 3466 N 329.616 1.39756 -0.72842 0
M  V30 3467 C 330.862 2.00942 -0.273892 0
M  V30 3468 C 331.195 1.57656 1.13394 0
M  V30 3469 O 330.47 0.802434 1.77176 0
M  V30 3470 C 330.753 3.58211 -0.368346 0
M  V30 3471 C 330.606 4.11534 -1.81548 0
M  V30 3472 C 331.925 4.39372 0.253054 0
M  V30 3473 H 329.044 0.730047 -0.100996 0
M  V30 3474 H 331.686 1.66056 -0.923337 0
M  V30 3475 H 329.836 3.88061 0.184588 0
M  V30 3476 H 331.508 3.92431 -2.42478 0
M  V30 3477 H 329.751 3.65341 -2.33898 0
M  V30 3478 H 330.422 5.20682 -1.83288 0
M  V30 3479 H 332.898 4.15527 -0.218224 0
M  V30 3480 H 331.774 5.48677 0.156585 0
M  V30 3481 H 332.035 4.21358 1.33826 0
M  V30 3482 N 331.094 0.475555 1.50254 0
M  V30 3483 C 332.51 0.12997 1.5907 0
M  V30 3484 C 332.71 -1.36385 1.48328 0
M  V30 3485 O 331.766 -2.13754 1.34407 0
M  V30 3486 C 333.079 0.684139 2.92814 0
M  V30 3487 C 334.627 0.647965 3.0622 0
M  V30 3488 C 335.102 1.17975 4.42545 0
M  V30 3489 N 336.593 1.13936 4.48969 0
M  V30 3490 C 337.328 1.52129 5.52851 0
M  V30 3491 N 336.824 1.97793 6.63965 0
M  V30 3492 N 338.617 1.43704 5.4342 0
M  V30 3493 H 330.768 1.44706 1.55479 0
M  V30 3494 H 333.031 0.598691 0.735033 0
M  V30 3495 H 332.737 1.73079 3.06164 0
M  V30 3496 H 332.611 0.130204 3.76975 0
M  V30 3497 H 334.998 -0.38979 2.92514 0
M  V30 3498 H 335.079 1.23876 2.23805 0
M  V30 3499 H 334.723 2.21616 4.57 0
M  V30 3500 H 334.653 0.565138 5.23559 0
M  V30 3501 H 337.144 0.804488 3.69238 0
M  V30 3502 H 337.457 2.25072 7.39299 0
M  V30 3503 H 335.802 2.01749 6.65073 0
M  V30 3504 H 338.993 1.07867 4.55502 0
M  V30 3505 H 339.166 1.73794 6.24259 0
M  V30 3506 N 332.573 -1.56217 0.208337 0
M  V30 3507 C 333.521 -2.21053 -0.723769 0
M  V30 3508 C 334.515 -1.18578 -1.20978 0
M  V30 3509 O 335.721 -1.36691 -1.17114 0
M  V30 3510 H 332.096 -0.708595 -0.251788 0
M  V30 3511 H 334.067 -2.98006 -0.153365 0
M  V30 3512 C 332.816 -2.89417 -1.927 0
M  V30 3513 H 332.139 -3.68019 -1.56212 0
M  V30 3514 H 333.579 -3.38201 -2.55727 0
M  V30 3515 C 332.038 -1.91166 -2.77411 0
M  V30 3516 O 332.568 -1.42026 -3.75754 0
M  V30 3517 N 330.774 -1.59105 -2.43175 0
M  V30 3518 H 330.321 -1.99259 -1.63259 0
M  V30 3519 H 330.279 -0.936255 -3.00136 0
M  V30 3520 N 334.051 0.0651679 -1.57465 0
M  V30 3521 C 335.297 0.758912 -1.88712 0
M  V30 3522 C 335.652 1.7485 -0.802819 0
M  V30 3523 O 334.945 1.90632 0.192359 0
M  V30 3524 C 335.139 1.50081 -3.24362 0
M  V30 3525 C 334.968 0.584579 -4.45884 0
M  V30 3526 C 333.738 0.219039 -5.04825 0
M  V30 3527 C 335.936 -0.121559 -5.14156 0
M  V30 3528 N 333.918 -0.702222 -6.09871 0
M  V30 3529 C 335.289 -0.899767 -6.13436 0
M  V30 3530 C 337.344 -0.192331 -4.97528 0
M  V30 3531 C 336.047 -1.74218 -6.97883 0
M  V30 3532 C 338.073 -1.02174 -5.82507 0
M  V30 3533 C 337.435 -1.78798 -6.8133 0
M  V30 3534 H 333.534 0.25293 -0.739967 0
M  V30 3535 H 336.118 0.0201744 -1.9469 0
M  V30 3536 H 334.289 2.21023 -3.1938 0
M  V30 3537 H 336.021 2.14409 -3.43236 0
M  V30 3538 H 332.776 0.57336 -4.70117 0
M  V30 3539 H 333.2 -1.15629 -6.67052 0
M  V30 3540 H 337.842 0.385741 -4.21037 0
M  V30 3541 H 335.56 -2.3312 -7.73745 0
M  V30 3542 H 339.146 -1.07957 -5.71696 0
M  V30 3543 H 338.026 -2.41942 -7.45945 0
M  V30 3544 N 335.529 1.53961 0.336706 0
M  V30 3545 C 336.461 1.78751 1.4346 0
M  V30 3546 C 337.474 0.669019 1.48418 0
M  V30 3547 O 338.663 0.945884 1.51378 0
M  V30 3548 C 335.763 1.87844 2.82078 0
M  V30 3549 C 334.936 3.17854 3.00479 0
M  V30 3550 C 333.995 3.17816 4.19379 0
M  V30 3551 O 333.021 3.91511 4.13168 0
M  V30 3552 N 334.223 2.40669 5.2826 0
M  V30 3553 H 336.988 2.73493 1.22563 0
M  V30 3554 H 334.549 1.53096 0.526625 0
M  V30 3555 H 336.541 1.85261 3.59806 0
M  V30 3556 H 335.111 1.00257 2.96086 0
M  V30 3557 H 334.331 3.33504 2.10163 0
M  V30 3558 H 335.619 4.03718 3.0966 0
M  V30 3559 H 335.017 1.8036 5.36178 0
M  V30 3560 H 333.574 2.43877 6.04456 0
M  V30 3561 N 337.007 -0.598083 1.45811 0
M  V30 3562 C 337.937 -1.71873 1.58057 0
M  V30 3563 C 338.918 -1.64533 0.431615 0
M  V30 3564 O 340.103 -1.82787 0.65595 0
M  V30 3565 C 337.233 -3.10495 1.55597 0
M  V30 3566 C 336.187 -3.32654 2.69305 0
M  V30 3567 C 335.513 -4.71646 2.51902 0
M  V30 3568 C 336.813 -3.21981 4.11248 0
M  V30 3569 H 338.507 -1.61881 2.51863 0
M  V30 3570 H 336.053 -0.777372 1.21214 0
M  V30 3571 H 338.006 -3.88699 1.6276 0
M  V30 3572 H 336.73 -3.2135 0.583255 0
M  V30 3573 H 335.389 -2.56843 2.61586 0
M  V30 3574 H 335.037 -4.79246 1.52748 0
M  V30 3575 H 334.737 -4.87426 3.2816 0
M  V30 3576 H 336.261 -5.52038 2.60933 0
M  V30 3577 H 337.675 -3.90049 4.20161 0
M  V30 3578 H 336.072 -3.49289 4.87972 0
M  V30 3579 H 337.142 -2.1928 4.32486 0
M  V30 3580 N 338.485 -1.33259 -0.841409 0
M  V30 3581 C 339.731 -1.24757 -1.59886 0
M  V30 3582 C 340.064 0.186913 -1.93298 0
M  V30 3583 O 339.339 1.12757 -1.5848 0
M  V30 3584 C 339.622 -2.12036 -2.91055 0
M  V30 3585 C 339.475 -3.63929 -2.6434 0
M  V30 3586 C 340.794 -1.9916 -3.92458 0
M  V30 3587 H 337.913 -0.454542 -0.580138 0
M  V30 3588 H 340.555 -1.63335 -0.970647 0
M  V30 3589 H 338.705 -1.79265 -3.44669 0
M  V30 3590 H 340.377 -4.06978 -2.17178 0
M  V30 3591 H 338.62 -3.85935 -1.98082 0
M  V30 3592 H 339.291 -4.20341 -3.57796 0
M  V30 3593 H 341.767 -2.27895 -3.48143 0
M  V30 3594 H 340.643 -2.62484 -4.82072 0
M  V30 3595 H 340.904 -0.963082 -4.31482 0
M  V30 3596 N 339.963 1.05934 -1.16686 0
M  V30 3597 C 340.926 2.11669 -0.879144 0
M  V30 3598 C 341.926 1.60294 0.127445 0
M  V30 3599 O 343.116 1.7389 -0.103865 0
M  V30 3600 C 340.248 3.39438 -0.315425 0
M  V30 3601 H 341.441 2.38626 -1.81653 0
M  V30 3602 H 338.994 1.22058 -0.976299 0
M  V30 3603 H 339.729 3.18132 0.629468 0
M  V30 3604 H 339.514 3.78034 -1.04079 0
M  V30 3605 H 341.004 4.17391 -0.132189 0
M  V30 3606 N 341.441 0.965919 1.2453 0
M  V30 3607 C 342.404 0.499547 2.2369 0
M  V30 3608 C 343.404 -0.40294 1.5567 0
M  V30 3609 O 344.594 -0.19865 1.73064 0
M  V30 3610 C 341.726 -0.276792 3.39774 0
M  V30 3611 H 342.919 1.37613 2.66463 0
M  V30 3612 H 340.472 0.750324 1.37112 0
M  V30 3613 H 341.207 -1.17055 3.02438 0
M  V30 3614 H 340.992 0.370826 3.90343 0
M  V30 3615 H 342.482 -0.592175 4.1338 0
M  V30 3616 N 342.919 -1.39368 0.735821 0
M  V30 3617 C 344.165 -2.00794 0.284544 0
M  V30 3618 C 344.498 -1.58255 -1.12557 0
M  V30 3619 O 343.773 -0.811819 -1.76748 0
M  V30 3620 C 344.056 -3.58011 0.387337 0
M  V30 3621 C 343.909 -4.10566 1.83728 0
M  V30 3622 C 345.228 -4.395 -0.22975 0
M  V30 3623 H 342.347 -0.729501 0.104866 0
M  V30 3624 H 344.989 -1.65564 0.93213 0
M  V30 3625 H 343.139 -3.88154 -0.164006 0
M  V30 3626 H 344.811 -3.91139 2.44556 0
M  V30 3627 H 343.054 -3.64095 2.35833 0
M  V30 3628 H 343.725 -5.19702 1.86047 0
M  V30 3629 H 346.201 -4.15406 0.240257 0
M  V30 3630 H 345.077 -5.48752 -0.127485 0
M  V30 3631 H 345.338 -4.22062 -1.3159 0
M  V30 3632 N 344.397 -0.483516 -1.5 0
M  V30 3633 C 345.808 -0.0314176 -1.86674 0
M  V30 3634 C 346.159 1.37728 -1.39733 0
M  V30 3635 O 345.284 2.02327 -0.767635 0
M  V30 3636 C 345.879 -0.0502376 -3.38763 0
M  V30 3637 C 344.438 0.346442 -3.74802 0
M  V30 3638 C 343.585 -0.430366 -2.7394 0
M  V30 3639 H 346.536 -0.697182 -1.42566 0
M  V30 3640 H 346.557 0.749116 -3.73053 0
M  V30 3641 H 346.069 -1.07563 -3.72897 0
M  V30 3642 H 344.17 1.37572 -3.46273 0
M  V30 3643 H 344.283 0.0391486 -4.79084 0
M  V30 3644 H 342.647 0.117557 -2.54429 0
M  V30 3645 H 343.43 -1.4555 -3.10918 0
M  V30 3646 N 345.875 1.56104 -0.216619 0
M  V30 3647 C 346.805 2.23063 0.690296 0
M  V30 3648 C 347.786 1.20072 1.20485 0
M  V30 3649 O 348.971 1.48643 1.24976 0
M  V30 3650 C 346.101 2.90672 1.90072 0
M  V30 3651 C 345.055 4.00092 1.5202 0
M  V30 3652 C 344.381 4.54972 2.80899 0
M  V30 3653 C 345.681 5.17398 0.71391 0
M  V30 3654 H 347.375 2.99109 0.132038 0
M  V30 3655 H 344.921 1.43866 0.0620664 0
M  V30 3656 H 346.874 3.36204 2.54057 0
M  V30 3657 H 345.598 2.12066 2.48386 0
M  V30 3658 H 344.257 3.55283 0.903839 0
M  V30 3659 H 343.905 3.73102 3.37348 0
M  V30 3660 H 343.605 5.28817 2.56176 0
M  V30 3661 H 345.129 5.0322 3.45836 0
M  V30 3662 H 346.543 5.59342 1.25735 0
M  V30 3663 H 344.94 5.97444 0.563951 0
M  V30 3664 H 346.01 4.84088 -0.280527 0
M  V30 3665 N 347.353 -0.0568162 1.57498 0
M  V30 3666 C 348.6 -0.753104 1.87975 0
M  V30 3667 C 348.928 -1.76815 0.81035 0
M  V30 3668 O 348.183 -1.94756 -0.19199 0
M  V30 3669 C 348.482 -1.48359 3.25153 0
M  V30 3670 C 348.148 -0.60713 4.46794 0
M  V30 3671 C 346.81 -0.365642 4.79809 0
M  V30 3672 C 349.162 -0.000305978 5.212 0
M  V30 3673 C 346.49 0.491905 5.84634 0
M  V30 3674 C 348.842 0.844781 6.26934 0
M  V30 3675 C 347.506 1.096 6.58441 0
M  V30 3676 H 346.776 -0.27558 0.687849 0
M  V30 3677 H 349.423 -0.0135173 1.91495 0
M  V30 3678 H 347.728 -2.29577 3.17492 0
M  V30 3679 H 349.425 -2.02739 3.45974 0
M  V30 3680 H 346.015 -0.805487 4.20963 0
M  V30 3681 H 350.199 -0.173961 4.95995 0
M  V30 3682 H 345.455 0.695131 6.07436 0
M  V30 3683 H 349.629 1.32165 6.83744 0
M  V30 3684 H 347.256 1.76224 7.39492 0
M  V30 3685 N 348.832 -1.54138 -0.328536 0
M  V30 3686 C 349.764 -1.79509 -1.4251 0
M  V30 3687 C 350.777 -0.67688 -1.48061 0
M  V30 3688 O 351.966 -0.953898 -1.50874 0
M  V30 3689 C 349.066 -1.89337 -2.81078 0
M  V30 3690 C 348.239 -3.19443 -2.98789 0
M  V30 3691 C 347.298 -3.20036 -4.17688 0
M  V30 3692 O 346.324 -3.93697 -4.11086 0
M  V30 3693 N 347.526 -2.43467 -5.26976 0
M  V30 3694 H 350.291 -2.74139 -1.21111 0
M  V30 3695 H 347.852 -1.53373 -0.518499 0
M  V30 3696 H 349.844 -1.87167 -3.58818 0
M  V30 3697 H 348.414 -1.01826 -2.95551 0
M  V30 3698 H 347.634 -3.34614 -2.08391 0
M  V30 3699 H 348.922 -4.05354 -3.07515 0
M  V30 3700 H 348.32 -1.83201 -5.35214 0
M  V30 3701 H 346.877 -2.4708 -6.03154 0
M  V30 3702 N 350.31 0.590341 -1.46126 0
M  V30 3703 C 351.257 1.69994 -1.56111 0
M  V30 3704 C 352.227 1.61065 -0.405867 0
M  V30 3705 O 353.412 1.8039 -0.621613 0
M  V30 3706 C 350.552 3.08326 -1.55013 0
M  V30 3707 C 349.665 3.27936 -2.81215 0
M  V30 3708 C 348.8 4.56473 -2.71673 0
M  V30 3709 C 347.839 4.694 -3.92849 0
M  V30 3710 N 346.976 5.89254 -3.81738 0
M  V30 3711 H 351.816 1.60797 -2.50895 0
M  V30 3712 H 349.353 0.783799 -1.24479 0
M  V30 3713 H 351.311 3.88383 -1.52362 0
M  V30 3714 H 349.941 3.16439 -0.637667 0
M  V30 3715 H 348.993 2.41536 -2.93879 0
M  V30 3716 H 350.305 3.33357 -3.71045 0
M  V30 3717 H 349.459 5.44748 -2.67085 0
M  V30 3718 H 348.198 4.53477 -1.7947 0
M  V30 3719 H 347.203 3.79544 -3.97777 0
M  V30 3720 H 348.428 4.7418 -4.86138 0
M  V30 3721 H 346.374 5.87271 -2.92317 0
M  V30 3722 H 346.291 5.95911 -4.65217 0
M  V30 3723 H 347.559 6.79981 -3.81112 0
M  V30 3724 N 351.788 1.33704 0.83433 0
M  V30 3725 C 352.718 1.26967 1.95963 0
M  V30 3726 C 353.699 0.149337 1.69443 0
M  V30 3727 O 354.884 0.339852 1.91203 0
M  V30 3728 C 352.014 1.01275 3.32206 0
M  V30 3729 C 350.968 2.09652 3.73136 0
M  V30 3730 C 350.294 1.69166 5.07235 0
M  V30 3731 C 351.594 3.51372 3.86439 0
M  V30 3732 H 353.288 2.2112 2.01857 0
M  V30 3733 H 350.834 1.06447 0.969793 0
M  V30 3734 H 352.787 0.952106 4.10503 0
M  V30 3735 H 351.511 0.0356203 3.26581 0
M  V30 3736 H 350.17 2.14766 2.97104 0
M  V30 3737 H 349.818 0.701437 4.98085 0
M  V30 3738 H 349.518 2.41694 5.35591 0
M  V30 3739 H 351.042 1.64576 5.88003 0
M  V30 3740 H 352.456 3.48734 4.55036 0
M  V30 3741 H 350.853 4.22425 4.26236 0
M  V30 3742 H 351.923 3.89546 2.88759 0
M  V30 3743 N 353.266 -1.05314 1.17247 0
M  V30 3744 C 354.514 -1.77941 0.958194 0
M  V30 3745 C 354.835 -1.88089 -0.514556 0
M  V30 3746 O 354.105 -1.39676 -1.37359 0
M  V30 3747 H 352.685 -0.659116 0.351533 0
M  V30 3748 H 355.347 -1.27166 1.47699 0
M  V30 3749 H 354.443 -2.79663 1.38546 0
M  V30 3750 N 354.744 -0.972509 -1.24016 0
M  V30 3751 C 356.155 -0.67517 -1.74064 0
M  V30 3752 C 356.506 0.808939 -1.78747 0
M  V30 3753 O 355.631 1.63286 -1.42009 0
M  V30 3754 C 356.226 -1.21889 -3.16115 0
M  V30 3755 C 354.785 -0.971358 -3.6365 0
M  V30 3756 C 353.932 -1.35134 -2.42145 0
M  V30 3757 H 356.883 -1.14727 -1.09651 0
M  V30 3758 H 356.904 -0.587489 -3.75937 0
M  V30 3759 H 356.416 -2.29906 -3.12674 0
M  V30 3760 H 354.517 0.0930686 -3.72484 0
M  V30 3761 H 354.63 -1.62039 -4.50866 0
M  V30 3762 H 352.994 -0.769751 -2.4279 0
M  V30 3763 H 353.777 -2.4411 -2.41381 0
M  V30 3764 N 356.222 1.38976 -0.743202 0
M  V30 3765 C 357.185 2.28901 -0.117014 0
M  V30 3766 C 358.185 1.46698 0.658503 0
M  V30 3767 O 359.375 1.67274 0.486305 0
M  V30 3768 C 356.507 3.30309 0.84315 0
M  V30 3769 H 357.7 2.8578 -0.909373 0
M  V30 3770 H 355.253 1.47761 -0.509547 0
M  V30 3771 H 355.988 2.785 1.66157 0
M  V30 3772 H 355.773 3.91029 0.289594 0
M  V30 3773 H 357.263 3.97577 1.2776 0
M  V30 3774 N 357.7 0.491464 1.49741 0
M  V30 3775 C 358.946 -0.0565092 2.02721 0
M  V30 3776 C 359.279 -1.37522 1.37118 0
M  V30 3777 O 358.554 -1.87866 0.503645 0
M  V30 3778 C 358.837 -0.219051 3.59433 0
M  V30 3779 C 358.69 1.12211 4.35579 0
M  V30 3780 C 360.009 -0.964157 4.29409 0
M  V30 3781 H 357.128 -0.0190627 0.736753 0
M  V30 3782 H 359.77 0.641021 1.7886 0
M  V30 3783 H 357.92 -0.813165 3.79895 0
M  V30 3784 H 359.592 1.75437 4.26637 0
M  V30 3785 H 357.835 1.71377 3.98513 0
M  V30 3786 H 358.506 0.961794 5.43556 0
M  V30 3787 H 360.982 -0.460378 4.13545 0
M  V30 3788 H 359.858 -1.04671 5.38828 0
M  V30 3789 H 360.119 -2.00563 3.93988 0
M  V30 3790 N 359.178 -1.55987 0.224894 0
M  V30 3791 C 360.108 -2.23426 -0.678457 0
M  V30 3792 C 361.089 -1.20709 -1.19847 0
M  V30 3793 O 362.274 -1.49304 -1.24186 0
M  V30 3794 C 359.404 -2.91676 -1.88527 0
M  V30 3795 C 358.358 -4.00893 -1.49896 0
M  V30 3796 C 357.684 -4.56455 -2.78483 0
M  V30 3797 C 358.984 -5.17769 -0.686461 0
M  V30 3798 H 360.678 -2.99175 -0.116173 0
M  V30 3799 H 358.224 -1.43897 -0.054436 0
M  V30 3800 H 360.177 -3.37547 -2.5227 0
M  V30 3801 H 358.901 -2.1338 -2.47258 0
M  V30 3802 H 357.56 -3.55758 -0.884985 0
M  V30 3803 H 357.208 -3.74886 -3.35365 0
M  V30 3804 H 356.908 -5.30169 -2.53368 0
M  V30 3805 H 358.432 -5.05047 -3.43162 0
M  V30 3806 H 359.846 -5.60001 -1.22767 0
M  V30 3807 H 358.243 -5.97735 -0.532259 0
M  V30 3808 H 359.313 -4.83932 0.306196 0
M  V30 3809 N 360.656 0.0484629 -1.57525 0
M  V30 3810 C 361.902 0.744226 -1.88651 0
M  V30 3811 C 362.235 1.76029 -0.820212 0
M  V30 3812 O 361.51 1.93782 0.166985 0
M  V30 3813 C 361.793 1.43128 -3.30434 0
M  V30 3814 C 361.646 0.43005 -4.47739 0
M  V30 3815 C 362.965 2.37031 -3.70816 0
M  V30 3816 H 360.084 0.269089 -0.68612 0
M  V30 3817 H 362.726 0.00713532 -1.89999 0
M  V30 3818 H 360.876 2.05956 -3.29415 0
M  V30 3819 H 362.548 -0.194816 -4.60888 0
M  V30 3820 H 360.791 -0.252522 -4.33064 0
M  V30 3821 H 361.462 0.948874 -5.43783 0
M  V30 3822 H 363.938 1.84263 -3.73077 0
M  V30 3823 H 362.814 2.82094 -4.70865 0
M  V30 3824 H 363.075 3.22864 -3.02012 0
M  V30 3825 N 362.134 1.5431 0.320358 0
M  V30 3826 C 363.044 1.86946 1.41734 0
M  V30 3827 C 364.06 0.761689 1.56443 0
M  V30 3828 O 365.236 1.05629 1.71477 0
M  V30 3829 C 362.301 2.09293 2.76401 0
M  V30 3830 C 361.362 3.33082 2.70841 0
M  V30 3831 C 360.595 3.54353 3.99086 0
M  V30 3832 O 360.818 2.79002 4.97508 0
M  V30 3833 O 359.752 4.47838 4.0215 0
M  V30 3834 H 363.578 2.80232 1.17062 0
M  V30 3835 H 361.163 1.40255 0.514673 0
M  V30 3836 H 363.045 2.25303 3.56113 0
M  V30 3837 H 361.72 1.19194 3.00956 0
M  V30 3838 H 360.627 3.22454 1.89668 0
M  V30 3839 H 361.96 4.23249 2.5124 0
M  V30 3840 N 363.613 -0.582584 1.46437 0
M  V30 3841 C 364.862 -1.337 1.5102 0
M  V30 3842 C 365.175 -1.94891 0.166359 0
M  V30 3843 O 366.381 -2.71351 0.0899954 0
M  V30 3844 C 364.837 -2.42315 2.66104 0
M  V30 3845 C 364.445 -1.87427 4.06909 0
M  V30 3846 C 366.189 -3.19099 2.79958 0
M  V30 3847 C 364.096 -2.93672 5.13333 0
M  V30 3848 H 363.026 -0.502619 0.562041 0
M  V30 3849 H 365.677 -0.621701 1.72647 0
M  V30 3850 H 364.059 -3.16645 2.37807 0
M  V30 3851 H 365.233 -1.19639 4.44998 0
M  V30 3852 H 363.548 -1.2331 3.97723 0
M  V30 3853 H 366.145 -3.9839 3.56636 0
M  V30 3854 H 366.488 -3.71695 1.87479 0
M  V30 3855 H 367.021 -2.51875 3.07902 0
M  V30 3856 H 363.76 -2.45962 6.07604 0
M  V30 3857 H 363.28 -3.59948 4.79789 0
M  V30 3858 H 364.959 -3.5762 5.39182 0
M  V30 3859 N 365.091 -1.34144 -0.827227 0
M  V30 3860 C 366.337 -1.26446 -1.58554 0
M  V30 3861 C 366.67 0.1664 -1.93486 0
M  V30 3862 O 365.945 1.1107 -1.59667 0
M  V30 3863 C 366.228 -2.15111 -2.8879 0
M  V30 3864 C 366.081 -3.66712 -2.60465 0
M  V30 3865 C 367.4 -2.03311 -3.90324 0
M  V30 3866 H 364.519 -0.46067 -0.575284 0
M  V30 3867 H 367.161 -1.64356 -0.953269 0
M  V30 3868 H 365.311 -1.8291 -3.42748 0
M  V30 3869 H 366.983 -4.09259 -2.1285 0
M  V30 3870 H 365.226 -3.88014 -1.93978 0
M  V30 3871 H 365.897 -4.24112 -3.53317 0
M  V30 3872 H 368.373 -2.31574 -3.45706 0
M  V30 3873 H 367.249 -2.67582 -4.79261 0
M  V30 3874 H 367.51 -1.00879 -4.30437 0
M  V30 3875 N 366.569 1.04691 -1.17803 0
M  V30 3876 C 367.985 1.29963 -0.926379 0
M  V30 3877 C 368.185 1.97251 0.411635 0
M  V30 3878 O 367.241 2.24922 1.14744 0
M  V30 3879 C 368.554 2.16447 -2.08737 0
M  V30 3880 C 370.102 2.29814 -2.12496 0
M  V30 3881 C 370.577 3.19661 -3.27995 0
M  V30 3882 N 372.068 3.27247 -3.27816 0
M  V30 3883 C 372.803 3.96906 -4.13827 0
M  V30 3884 N 372.299 4.6895 -5.09959 0
M  V30 3885 N 374.092 3.93122 -4.01761 0
M  V30 3886 H 366.243 0.594182 -2.0392 0
M  V30 3887 H 368.506 0.324649 -0.890678 0
M  V30 3888 H 368.212 1.74304 -3.05469 0
M  V30 3889 H 368.086 3.17103 -2.04268 0
M  V30 3890 H 370.473 2.71196 -1.16347 0
M  V30 3891 H 370.554 1.2877 -2.21025 0
M  V30 3892 H 370.198 2.78991 -4.24413 0
M  V30 3893 H 370.128 4.20722 -3.16703 0
M  V30 3894 H 372.619 2.75921 -2.58217 0
M  V30 3895 H 372.932 5.19679 -5.71974 0
M  V30 3896 H 371.277 4.67875 -5.13924 0
M  V30 3897 H 374.468 3.35967 -3.2595 0
M  V30 3898 H 374.641 4.47139 -4.6901 0
M  V30 3899 N 368.047 0.979072 1.23499 0
M  V30 3900 C 369.01 0.523244 2.23147 0
M  V30 3901 C 370.01 -0.386406 1.56088 0
M  V30 3902 O 371.2 -0.180283 1.73265 0
M  V30 3903 C 368.332 -0.240739 3.40049 0
M  V30 3904 H 369.525 1.40432 2.64989 0
M  V30 3905 H 367.078 0.764824 1.36309 0
M  V30 3906 H 367.813 -1.13841 3.03662 0
M  V30 3907 H 367.598 0.412207 3.89927 0
M  V30 3908 H 369.088 -0.548297 4.13985 0
M  V30 3909 N 369.525 -1.3858 0.750561 0
M  V30 3910 C 370.455 -2.33102 0.136237 0
M  V30 3911 C 371.436 -1.54713 -0.706965 0
M  V30 3912 O 372.621 -1.83043 -0.648769 0
M  V30 3913 C 369.751 -3.38882 -0.760017 0
M  V30 3914 C 368.705 -4.27995 -0.0197785 0
M  V30 3915 C 368.031 -5.24605 -1.03408 0
M  V30 3916 C 369.331 -5.09554 1.14684 0
M  V30 3917 H 371.025 -2.84726 0.925822 0
M  V30 3918 H 368.571 -1.36898 0.446654 0
M  V30 3919 H 370.524 -4.0397 -1.19943 0
M  V30 3920 H 369.248 -2.85734 -1.58189 0
M  V30 3921 H 367.907 -3.64409 0.400184 0
M  V30 3922 H 367.555 -4.67746 -1.84994 0
M  V30 3923 H 367.255 -5.85081 -0.543464 0
M  V30 3924 H 368.779 -5.9257 -1.47288 0
M  V30 3925 H 370.193 -5.67899 0.785118 0
M  V30 3926 H 368.59 -5.7925 1.56812 0
M  V30 3927 H 369.66 -4.4347 1.96118 0
M  V30 3928 N 371.003 -0.499398 -1.49478 0
M  V30 3929 C 372.419 -0.155261 -1.58843 0
M  V30 3930 C 372.619 1.34008 -1.50479 0
M  V30 3931 O 371.675 2.11589 -1.37791 0
M  V30 3932 C 372.988 -0.730636 -2.91689 0
M  V30 3933 C 374.536 -0.696599 -3.0515 0
M  V30 3934 C 375.011 -1.25001 -4.40612 0
M  V30 3935 N 376.502 -1.21064 -4.47099 0
M  V30 3936 C 377.237 -1.60905 -5.50361 0
M  V30 3937 N 376.733 -2.08331 -6.60735 0
M  V30 3938 N 378.526 -1.52331 -5.41065 0
M  V30 3939 H 370.677 -1.47162 -1.53158 0
M  V30 3940 H 372.94 -0.610309 -0.725415 0
M  V30 3941 H 372.646 -1.77928 -3.03372 0
M  V30 3942 H 372.52 -0.190161 -3.7672 0
M  V30 3943 H 374.907 0.343204 -2.93097 0
M  V30 3944 H 374.988 -1.2742 -2.21806 0
M  V30 3945 H 374.632 -2.28859 -4.53416 0
M  V30 3946 H 374.562 -0.64836 -5.22593 0
M  V30 3947 H 377.053 -0.863128 -3.67911 0
M  V30 3948 H 377.366 -2.36805 -7.35624 0
M  V30 3949 H 375.711 -2.12304 -6.6178 0
M  V30 3950 H 378.902 -1.151 -4.53729 0
M  V30 3951 H 379.075 -1.83704 -6.21415 0
M  V30 3952 N 372.481 1.55866 -0.233164 0
M  V30 3953 C 373.444 2.1953 0.658715 0
M  V30 3954 C 374.444 1.16053 1.11303 0
M  V30 3955 O 375.634 1.41218 1.01996 0
M  V30 3956 C 372.766 2.82791 1.90373 0
M  V30 3957 H 373.959 2.99721 0.10347 0
M  V30 3958 H 371.512 1.56291 0.0164245 0
M  V30 3959 H 372.247 2.06501 2.50056 0
M  V30 3960 H 372.032 3.58578 1.58632 0
M  V30 3961 H 373.522 3.31556 2.53891 0
M  V30 3962 N 373.959 -0.0401083 1.57549 0
M  V30 3963 C 375.375 -0.395556 1.54621 0
M  V30 3964 C 375.575 -1.77281 0.957799 0
M  V30 3965 O 374.631 -2.45888 0.574031 0
M  V30 3966 C 375.944 -0.307535 2.99123 0
M  V30 3967 C 377.492 -0.385425 3.10618 0
M  V30 3968 C 377.967 -0.326973 4.56831 0
M  V30 3969 N 379.458 -0.386102 4.61588 0
M  V30 3970 C 380.193 -0.363591 5.72246 0
M  V30 3971 N 379.689 -0.29402 6.92176 0
M  V30 3972 N 381.482 -0.412503 5.60584 0
M  V30 3973 H 373.633 0.861325 1.94152 0
M  V30 3974 H 375.896 0.326445 0.890021 0
M  V30 3975 H 375.602 0.638461 3.45856 0
M  V30 3976 H 375.476 -1.10552 3.60636 0
M  V30 3977 H 377.863 -1.32185 2.63839 0
M  V30 3978 H 377.944 0.44171 2.51957 0
M  V30 3979 H 377.588 0.605738 5.04275 0
M  V30 3980 H 377.518 -1.17207 5.13391 0
M  V30 3981 H 380.009 -0.442832 3.75296 0
M  V30 3982 H 380.322 -0.28164 7.72287 0
M  V30 3983 H 378.667 -0.260232 6.94513 0
M  V30 3984 H 381.858 -0.464769 4.65787 0
M  V30 3985 H 382.031 -0.391492 6.46816 0
M  V30 3986 N 375.437 -1.54477 -0.31217 0
M  V30 3987 C 376.665 -1.77205 -1.068 0
M  V30 3988 C 377.08 -0.526114 -1.81321 0
M  V30 3989 O 376.437 0.503647 -1.75413 0
M  V30 3990 C 376.488 -2.97253 -2.05725 0
M  V30 3991 O 376.209 -4.1703 -1.34228 0
M  V30 3992 C 377.71 -3.32281 -2.93435 0
M  V30 3993 H 374.93 -0.591287 -0.317208 0
M  V30 3994 H 377.474 -2.01398 -0.354834 0
M  V30 3995 H 375.629 -2.753 -2.72559 0
M  V30 3996 H 376.043 -4.84636 -2.00571 0
M  V30 3997 H 377.517 -4.19551 -3.58721 0
M  V30 3998 H 377.994 -2.49945 -3.61143 0
M  V30 3999 H 378.6 -3.56353 -2.32147 0
M  V30 4000 N 376.915 0.57481 -1.46744 0
M  V30 4001 C 378.161 1.3347 -1.52688 0
M  V30 4002 C 378.494 1.93353 -0.181229 0
M  V30 4003 O 377.769 1.76912 0.808237 0
M  V30 4004 C 378.052 2.45811 -2.63152 0
M  V30 4005 C 377.905 1.90912 -4.07275 0
M  V30 4006 C 379.224 3.47822 -2.69644 0
M  V30 4007 H 376.343 0.483935 -0.555856 0
M  V30 4008 H 378.985 0.644968 -1.78718 0
M  V30 4009 H 377.135 3.04646 -2.41088 0
M  V30 4010 H 378.807 1.36473 -4.4065 0
M  V30 4011 H 377.05 1.21691 -4.16382 0
M  V30 4012 H 377.721 2.72042 -4.80309 0
M  V30 4013 H 380.197 2.9888 -2.895 0
M  V30 4014 H 379.073 4.23876 -3.48742 0
M  V30 4015 H 379.334 4.05555 -1.76005 0
M  V30 4016 N 378.394 1.34581 0.820102 0
M  V30 4017 C 379.805 1.24298 1.39309 0
M  V30 4018 C 380.156 -0.130351 1.95767 0
M  V30 4019 O 379.281 -1.0308 1.90272 0
M  V30 4020 C 379.876 2.25054 2.53251 0
M  V30 4021 C 378.435 2.18552 3.0645 0
M  V30 4022 C 377.582 2.11503 1.79337 0
M  V30 4023 H 380.533 1.45906 0.624262 0
M  V30 4024 H 380.554 1.86917 3.31425 0
M  V30 4025 H 380.066 3.24996 2.1213 0
M  V30 4026 H 378.167 1.21976 3.52069 0
M  V30 4027 H 378.28 3.0993 3.65349 0
M  V30 4028 H 376.644 1.57268 2.00347 0
M  V30 4029 H 377.427 3.13284 1.40386 0
M  V30 4030 N 379.872 -1.04064 1.18357 0
M  V30 4031 C 380.835 -2.10243 0.912707 0
M  V30 4032 C 381.835 -1.60477 -0.101928 0
M  V30 4033 O 383.025 -1.73703 0.131517 0
M  V30 4034 C 380.157 -3.38893 0.369387 0
M  V30 4035 H 381.35 -2.35706 1.85426 0
M  V30 4036 H 378.903 -1.20489 0.995594 0
M  V30 4037 H 379.638 -3.19094 -0.578776 0
M  V30 4038 H 379.423 -3.76331 1.1008 0
M  V30 4039 H 380.913 -4.17128 0.198575 0
M  V30 4040 N 381.35 -0.985608 -1.22978 0
M  V30 4041 C 382.598 -0.656087 -1.91154 0
M  V30 4042 C 382.919 0.813561 -1.77218 0
M  V30 4043 O 382.189 1.58244 -1.1548 0
M  V30 4044 H 380.769 -0.239674 -0.707506 0
M  V30 4045 H 383.431 -1.25054 -1.49491 0
M  V30 4046 H 382.527 -0.912253 -2.9847 0
M  V30 4047 N 382.828 1.3818 -0.7579 0
M  V30 4048 C 383.791 2.28764 -0.141286 0
M  V30 4049 C 384.791 1.47388 0.642907 0
M  V30 4050 O 385.981 1.67781 0.468536 0
M  V30 4051 C 383.113 3.31184 0.808069 0
M  V30 4052 H 384.306 2.848 -0.939633 0
M  V30 4053 H 381.859 1.47212 -0.525191 0
M  V30 4054 H 382.594 2.80247 1.63193 0
M  V30 4055 H 382.379 3.91314 0.248104 0
M  V30 4056 H 383.869 3.98909 1.23536 0
M  V30 4057 N 384.306 0.507319 1.49211 0
M  V30 4058 C 385.552 -0.0350047 2.0277 0
M  V30 4059 C 385.885 -1.3606 1.38569 0
M  V30 4060 O 385.16 -1.87321 0.523542 0
M  V30 4061 C 385.443 -0.180916 3.59645 0
M  V30 4062 C 385.296 1.16825 4.34364 0
M  V30 4063 C 386.615 -0.918558 4.30407 0
M  V30 4064 H 383.734 -0.0112473 0.736914 0
M  V30 4065 H 386.376 0.659956 1.7817 0
M  V30 4066 H 384.526 -0.772826 3.80736 0
M  V30 4067 H 386.198 1.79952 4.24753 0
M  V30 4068 H 384.441 1.75594 3.96673 0
M  V30 4069 H 385.112 1.01939 5.42506 0
M  V30 4070 H 387.588 -0.41649 4.1401 0
M  V30 4071 H 386.464 -0.989505 5.39907 0
M  V30 4072 H 386.725 -1.96373 3.96093 0
M  V30 4073 N 385.784 -1.5574 0.241426 0
M  V30 4074 C 387.033 -1.97986 -0.385295 0
M  V30 4075 C 387.346 -1.13267 -1.59468 0
M  V30 4076 O 388.552 -1.45501 -2.2922 0
M  V30 4077 C 387.008 -3.52275 -0.736884 0
M  V30 4078 C 386.616 -4.45726 0.450796 0
M  V30 4079 C 388.36 -4.03189 -1.3281 0
M  V30 4080 C 386.267 -5.91352 0.0756662 0
M  V30 4081 H 385.197 -0.739386 -0.147731 0
M  V30 4082 H 387.848 -1.80308 0.340779 0
M  V30 4083 H 386.23 -3.65628 -1.52094 0
M  V30 4084 H 387.404 -4.44131 1.22819 0
M  V30 4085 H 385.719 -4.05264 0.956573 0
M  V30 4086 H 388.316 -5.09505 -1.62201 0
M  V30 4087 H 388.659 -3.50212 -2.25071 0
M  V30 4088 H 389.192 -3.93141 -0.607069 0
M  V30 4089 H 385.931 -6.48354 0.965272 0
M  V30 4090 H 385.451 -5.96095 -0.665635 0
M  V30 4091 H 387.13 -6.46084 -0.344075 0
M  V30 4092 N 387.262 0.0317525 -1.57568 0
M  V30 4093 C 388.502 0.727979 -1.90997 0
M  V30 4094 C 388.866 1.72664 -0.839708 0
M  V30 4095 O 390.067 2.47092 -1.05825 0
M  V30 4096 C 388.338 1.38239 -3.29583 0
M  V30 4097 S 389.897 2.10814 -3.84841 0
M  V30 4098 H 386.715 0.241226 -0.668828 0
M  V30 4099 H 389.317 -0.0173037 -1.95492 0
M  V30 4100 H 388.021 0.642288 -4.05343 0
M  V30 4101 H 387.552 2.16628 -3.28384 0
M  V30 4102 H 389.567 3.3792 -3.63352 0
M  V30 4103 N 388.74 1.54641 0.303973 0
M  V30 4104 C 390.156 1.45788 0.649463 0
M  V30 4105 C 390.356 0.64666 1.90842 0
M  V30 4106 O 389.412 0.153183 2.52035 0
M  V30 4107 C 390.725 2.89718 0.805227 0
M  V30 4108 C 392.273 2.99742 0.901305 0
M  V30 4109 C 392.748 4.44863 1.08909 0
M  V30 4110 N 394.239 4.48559 1.15536 0
M  V30 4111 C 394.974 5.58026 1.3189 0
M  V30 4112 N 394.47 6.77422 1.45161 0
M  V30 4113 N 396.263 5.45708 1.34755 0
M  V30 4114 H 388.414 2.05854 -0.523237 0
M  V30 4115 H 390.677 0.932186 -0.172431 0
M  V30 4116 H 390.383 3.51666 -0.0489108 0
M  V30 4117 H 390.257 3.36964 1.69513 0
M  V30 4118 H 392.644 2.3791 1.74593 0
M  V30 4119 H 392.725 2.55797 -0.0125531 0
M  V30 4120 H 392.369 5.07288 0.249241 0
M  V30 4121 H 392.299 4.86436 2.01713 0
M  V30 4122 H 394.79 3.6254 1.06646 0
M  V30 4123 H 395.103 7.56604 1.57387 0
M  V30 4124 H 393.448 6.80292 1.42223 0
M  V30 4125 H 396.639 4.51378 1.23996 0
M  V30 4126 H 396.812 6.3107 1.47157 0
M  V30 4127 N 390.218 -0.567019 1.47046 0
M  V30 4128 C 391.467 -1.32091 1.5243 0
M  V30 4129 C 391.78 -1.94704 0.187021 0
M  V30 4130 O 392.986 -2.7124 0.118771 0
M  V30 4131 C 391.442 -2.39479 2.68659 0
M  V30 4132 C 391.05 -1.831 4.08874 0
M  V30 4133 C 392.794 -3.16111 2.83327 0
M  V30 4134 C 390.701 -2.8821 5.16419 0
M  V30 4135 H 389.631 -0.496629 0.56734 0
M  V30 4136 H 392.282 -0.603354 1.73297 0
M  V30 4137 H 390.664 -3.14105 2.41152 0
M  V30 4138 H 391.838 -1.14913 4.46242 0
M  V30 4139 H 390.153 -1.19085 3.99008 0
M  V30 4140 H 392.75 -3.94585 3.60842 0
M  V30 4141 H 393.093 -3.69686 1.91411 0
M  V30 4142 H 393.626 -2.48595 3.10556 0
M  V30 4143 H 390.365 -2.39504 6.10179 0
M  V30 4144 H 389.885 -3.54839 4.8358 0
M  V30 4145 H 391.564 -3.51881 5.42945 0
M  V30 4146 N 391.696 -1.35014 -0.812953 0
M  V30 4147 C 392.944 -1.27678 -1.56661 0
M  V30 4148 C 393.265 0.150359 -1.94419 0
M  V30 4149 O 392.535 1.08532 -1.63088 0
M  V30 4150 H 391.115 -0.469602 -0.580933 0
M  V30 4151 H 393.777 -1.69043 -0.970076 0
M  V30 4152 H 392.873 -1.88833 -2.48492 0
M  V30 4153 N 393.175 1.03435 -1.18907 0
M  V30 4154 C 394.085 2.15075 -0.937015 0
M  V30 4155 C 395.101 1.73706 0.101085 0
M  V30 4156 O 396.277 2.01232 -0.0822948 0
M  V30 4157 C 393.342 3.43458 -0.473057 0
M  V30 4158 C 392.403 3.99172 -1.57989 0
M  V30 4159 C 391.636 5.21427 -1.13797 0
M  V30 4160 O 391.859 5.704 0.000725941 0
M  V30 4161 O 390.793 5.69837 -1.9383 0
M  V30 4162 H 394.619 2.39198 -1.87131 0
M  V30 4163 H 392.204 1.13506 -0.971427 0
M  V30 4164 H 394.086 4.20811 -0.222702 0
M  V30 4165 H 392.761 3.20793 0.432869 0
M  V30 4166 H 391.668 3.23178 -1.88433 0
M  V30 4167 H 393.001 4.2619 -2.46217 0
M  V30 4168 N 394.653 0.992116 1.22453 0
M  V30 4169 C 396.064 0.702776 1.72968 0
M  V30 4170 C 396.415 -0.780399 1.80012 0
M  V30 4171 O 395.54 -1.61007 1.44589 0
M  V30 4172 C 396.135 1.26903 3.14135 0
M  V30 4173 C 394.694 1.02909 3.62059 0
M  V30 4174 C 393.841 1.38969 2.39964 0
M  V30 4175 H 396.792 1.16457 1.07812 0
M  V30 4176 H 396.813 0.647223 3.74955 0
M  V30 4177 H 396.325 2.34851 3.08977 0
M  V30 4178 H 394.426 -0.0337979 3.72585 0
M  V30 4179 H 394.539 1.69191 4.48231 0
M  V30 4180 H 392.903 0.808279 2.41535 0
M  V30 4181 H 393.686 2.4792 2.37467 0
M  V30 4182 N 396.131 -1.37776 0.765217 0
M  V30 4183 C 397.379 -1.99454 0.325943 0
M  V30 4184 C 397.7 -1.61049 -1.09947 0
M  V30 4185 O 396.97 -0.872821 -1.75381 0
M  V30 4186 H 395.55 -0.737697 0.117525 0
M  V30 4187 H 398.212 -1.68359 0.981895 0
M  V30 4188 H 397.308 -3.09547 0.398353 0
M  V30 4189 N 397.609 -0.515225 -1.4894 0
M  V30 4190 C 398.886 0.0879088 -1.95402 0
M  V30 4191 C 399.266 1.52745 -1.45712 0
M  V30 4192 O 398.614 2.18238 -0.677093 0
M  V30 4193 C 398.824 -0.0141055 -3.48997 0
M  V30 4194 C 400.172 0.152646 -4.24326 0
M  V30 4195 O 401.196 0.0604025 -3.56149 0
M  V30 4196 O 400.055 0.34384 -5.45417 0
M  V30 4197 H 397.149 0.0874636 -0.822362 0
M  V30 4198 H 399.695 -0.578775 -1.59525 0
M  V30 4199 H 398.467 -1.01745 -3.77841 0
M  V30 4200 H 398.09 0.692091 -3.9153 0
M  V30 4201 N 399.087 1.5561 -0.249682 0
M  V30 4202 C 400.503 1.59254 0.105103 0
M  V30 4203 C 400.703 1.26685 1.56694 0
M  V30 4204 O 399.759 1.0155 2.31179 0
M  V30 4205 C 401.072 2.99687 -0.246592 0
M  V30 4206 C 402.62 3.12416 -0.191118 0
M  V30 4207 C 403.095 4.55074 -0.516885 0
M  V30 4208 N 404.586 4.60835 -0.467489 0
M  V30 4209 C 405.321 5.69201 -0.69268 0
M  V30 4210 N 404.817 6.85817 -0.981146 0
M  V30 4211 N 406.61 5.58635 -0.623198 0
M  V30 4212 H 398.761 1.75049 -1.20298 0
M  V30 4213 H 401.024 0.815003 -0.484225 0
M  V30 4214 H 400.73 3.28267 -1.26228 0
M  V30 4215 H 400.604 3.74798 0.424962 0
M  V30 4216 H 402.991 2.83615 0.815247 0
M  V30 4217 H 403.072 2.39573 -0.896563 0
M  V30 4218 H 402.716 4.84596 -1.52082 0
M  V30 4219 H 402.646 5.26181 0.210068 0
M  V30 4220 H 405.137 3.7705 -0.253373 0
M  V30 4221 H 405.45 7.64341 -1.14032 0
M  V30 4222 H 403.795 6.87494 -1.01865 0
M  V30 4223 H 406.986 4.66406 -0.397863 0
M  V30 4224 H 407.159 6.43017 -0.802093 0
M  V30 4225 N 400.565 -0.0233959 1.57583 0
M  V30 4226 C 401.498 -1.05549 2.02323 0
M  V30 4227 C 402.476 -1.34843 0.908626 0
M  V30 4228 O 403.66 -1.47404 1.17491 0
M  V30 4229 C 400.787 -2.38885 2.40108 0
M  V30 4230 C 399.833 -2.2541 3.62067 0
M  V30 4231 S 400.666 -1.60217 5.1097 0
M  V30 4232 C 401.822 -2.95032 5.52003 0
M  V30 4233 H 402.055 -0.674435 2.89549 0
M  V30 4234 H 399.588 -0.23355 1.52623 0
M  V30 4235 H 401.546 -3.15562 2.62547 0
M  V30 4236 H 400.207 -2.74137 1.53323 0
M  V30 4237 H 399.4 -3.23854 3.86179 0
M  V30 4238 H 399.002 -1.56876 3.39508 0
M  V30 4239 H 401.294 -3.91357 5.53033 0
M  V30 4240 H 402.237 -2.75646 6.52246 0
M  V30 4241 H 402.645 -2.97865 4.79517 0
M  V30 4242 N 402.043 -1.548 -0.295768 0
M  V30 4243 C 403.29 -1.74329 -1.03032 0
M  V30 4244 C 403.618 -0.531915 -1.87085 0
M  V30 4245 O 402.873 0.486052 -1.89568 0
M  V30 4246 C 403.172 -2.98797 -1.961 0
M  V30 4247 C 402.838 -4.32356 -1.2798 0
M  V30 4248 C 401.5 -4.68661 -1.09135 0
M  V30 4249 C 403.852 -5.15128 -0.793243 0
M  V30 4250 C 401.18 -5.85312 -0.403269 0
M  V30 4251 C 403.532 -6.32488 -0.118854 0
M  V30 4252 C 402.196 -6.6745 0.0815043 0
M  V30 4253 H 401.466 -0.637916 -0.37702 0
M  V30 4254 H 404.113 -1.8906 -0.304696 0
M  V30 4255 H 402.418 -2.78869 -2.75207 0
M  V30 4256 H 404.115 -3.11102 -2.53015 0
M  V30 4257 H 400.705 -4.03808 -1.43655 0
M  V30 4258 H 404.889 -4.87575 -0.92653 0
M  V30 4259 H 400.145 -6.1094 -0.237098 0
M  V30 4260 H 404.319 -6.95892 0.266035 0
M  V30 4261 H 401.946 -7.57695 0.616685 0
M  V30 4262 N 403.521 0.559213 -1.47345 0
M  V30 4263 C 404.768 1.31648 -1.53867 0
M  V30 4264 C 405.096 1.93468 -0.200104 0
M  V30 4265 O 404.351 1.78295 0.806799 0
M  V30 4266 C 404.65 2.44853 -2.6035 0
M  V30 4267 C 404.316 2.00876 -4.03683 0
M  V30 4268 C 402.978 1.88599 -4.42701 0
M  V30 4269 C 405.33 1.67279 -4.93626 0
M  V30 4270 C 402.658 1.41017 -5.69501 0
M  V30 4271 C 405.01 1.21169 -6.20887 0
M  V30 4272 C 403.674 1.07487 -6.58789 0
M  V30 4273 H 402.944 0.481734 -0.56304 0
M  V30 4274 H 405.591 0.627301 -1.80934 0
M  V30 4275 H 403.896 3.19318 -2.27032 0
M  V30 4276 H 405.593 3.03039 -2.62619 0
M  V30 4277 H 402.183 2.11374 -3.72853 0
M  V30 4278 H 406.367 1.75638 -4.64182 0
M  V30 4279 H 401.623 1.29086 -5.97618 0
M  V30 4280 H 405.797 0.942345 -6.89995 0
M  V30 4281 H 403.424 0.703946 -7.56934 0
M  V30 4282 N 404.999 1.35443 0.805782 0
M  V30 4283 C 406.245 1.28952 1.56522 0
M  V30 4284 C 406.578 -0.135597 1.93726 0
M  V30 4285 O 405.853 -1.08516 1.61414 0
M  V30 4286 C 406.136 2.19678 2.85331 0
M  V30 4287 C 405.989 3.7081 2.54598 0
M  V30 4288 C 407.308 2.09495 3.8704 0
M  V30 4289 H 404.427 0.469764 0.567883 0
M  V30 4290 H 407.069 1.65851 0.927001 0
M  V30 4291 H 405.219 1.8834 3.39795 0
M  V30 4292 H 406.891 4.12593 2.06312 0
M  V30 4293 H 405.134 3.91051 1.8778 0
M  V30 4294 H 405.805 4.29679 3.46525 0
M  V30 4295 H 408.281 2.37045 3.41978 0
M  V30 4296 H 407.157 2.75173 4.74943 0
M  V30 4297 H 407.418 1.07714 4.28777 0
M  V30 4298 N 406.477 -1.02803 1.19454 0
M  V30 4299 C 407.723 -1.76478 0.999171 0
M  V30 4300 C 408.056 -1.88456 -0.468828 0
M  V30 4301 O 407.331 -1.40198 -1.34814 0
M  V30 4302 C 407.614 -3.19044 1.66981 0
M  V30 4303 C 407.467 -3.14932 3.21151 0
M  V30 4304 C 408.786 -4.17456 1.39349 0
M  V30 4305 H 405.905 -0.640614 0.364393 0
M  V30 4306 H 408.547 -1.20005 1.47305 0
M  V30 4307 H 406.697 -3.67263 1.2669 0
M  V30 4308 H 408.369 -2.74605 3.70661 0
M  V30 4309 H 406.612 -2.52625 3.52652 0
M  V30 4310 H 407.283 -4.1566 3.63223 0
M  V30 4311 H 409.759 -3.77842 1.74283 0
M  V30 4312 H 408.635 -5.154 1.88823 0
M  V30 4313 H 408.896 -4.40949 0.318813 0
M  V30 4314 N 407.956 -0.998596 -1.21925 0
M  V30 4315 C 408.866 -0.562736 -2.27751 0
M  V30 4316 C 409.882 0.391203 -1.69545 0
M  V30 4317 O 411.058 0.256625 -1.99758 0
M  V30 4318 C 408.123 0.11012 -3.46525 0
M  V30 4319 C 407.184 -0.887495 -4.20026 0
M  V30 4320 C 406.417 -0.246654 -5.3313 0
M  V30 4321 O 406.64 0.958088 -5.62296 0
M  V30 4322 O 405.574 -0.954374 -5.94286 0
M  V30 4323 H 409.4 -1.44329 -2.67213 0
M  V30 4324 H 406.985 -0.767135 -1.28201 0
M  V30 4325 H 408.867 0.486756 -4.18579 0
M  V30 4326 H 407.542 0.965154 -3.08976 0
M  V30 4327 H 406.449 -1.31517 -3.5022 0
M  V30 4328 H 407.782 -1.71191 -4.6147 0
M  V30 4329 N 409.434 1.37368 -0.772513 0
M  V30 4330 C 410.682 1.99279 -0.336516 0
M  V30 4331 C 411.003 1.6163 1.09091 0
M  V30 4332 O 410.273 0.882109 1.74916 0
M  V30 4333 H 408.853 0.737063 -0.121435 0
M  V30 4334 H 411.515 1.67836 -0.990809 0
M  V30 4335 H 410.611 3.09332 -0.414763 0
M  V30 4336 N 410.912 0.523116 1.48665 0
M  V30 4337 C 412.137 -0.0117284 2.07397 0
M  V30 4338 C 412.562 -1.28031 1.37803 0
M  V30 4339 O 411.92 -1.75836 0.441762 0
M  V30 4340 C 411.968 -0.225786 3.59892 0
M  V30 4341 O 411.072 -1.29592 3.91509 0
M  V30 4342 H 410.413 0.0360673 0.66302 0
M  V30 4343 H 412.943 0.729066 1.9117 0
M  V30 4344 H 412.953 -0.450552 4.05505 0
M  V30 4345 H 411.628 0.700944 4.09951 0
M  V30 4346 H 410.205 -1.05436 3.57684 0
M  V30 4347 N 412.39 -1.55475 0.257931 0
M  V30 4348 C 413.636 -1.99502 -0.364266 0
M  V30 4349 C 413.969 -1.146 -1.56782 0
M  V30 4350 O 413.244 -0.211968 -1.93342 0
M  V30 4351 C 413.527 -3.51917 -0.763333 0
M  V30 4352 C 413.38 -4.4758 0.446371 0
M  V30 4353 C 414.699 -4.09742 -1.60623 0
M  V30 4354 H 411.818 -0.725277 -0.130929 0
M  V30 4355 H 414.46 -1.8653 0.361446 0
M  V30 4356 H 412.61 -3.63101 -1.38166 0
M  V30 4357 H 414.282 -4.48362 1.08487 0
M  V30 4358 H 412.525 -4.19947 1.08753 0
M  V30 4359 H 413.196 -5.51862 0.123645 0
M  V30 4360 H 415.672 -4.01727 -1.08418 0
M  V30 4361 H 414.548 -5.16631 -1.85429 0
M  V30 4362 H 414.809 -3.58889 -2.58169 0
M  V30 4363 N 413.868 0.0150385 -1.57593 0
M  V30 4364 C 415.093 0.718067 -1.94573 0
M  V30 4365 C 415.518 1.6734 -0.859005 0
M  V30 4366 O 414.876 1.80362 0.184147 0
M  V30 4367 C 414.924 1.43918 -3.30636 0
M  V30 4368 O 414.028 2.55299 -3.23876 0
M  V30 4369 H 413.369 0.192125 -0.635597 0
M  V30 4370 H 415.899 -0.0336708 -2.04572 0
M  V30 4371 H 415.909 1.80598 -3.65853 0
M  V30 4372 H 414.584 0.738619 -4.09289 0
M  V30 4373 H 413.161 2.21058 -3.00312 0
M  V30 4374 N 415.346 1.54954 0.287554 0
M  V30 4375 C 416.592 1.75132 1.02257 0
M  V30 4376 C 416.925 0.542858 1.86458 0
M  V30 4377 O 416.2 -0.459856 1.88986 0
M  V30 4378 C 416.483 3.04812 1.91733 0
M  V30 4379 C 416.336 4.35985 1.10622 0
M  V30 4380 C 417.655 3.30438 2.90687 0
M  V30 4381 H 414.774 0.637194 0.370341 0
M  V30 4382 H 417.416 1.87678 0.296111 0
M  V30 4383 H 415.566 2.94247 2.53675 0
M  V30 4384 H 417.238 4.58487 0.508636 0
M  V30 4385 H 415.481 4.31865 0.409271 0
M  V30 4386 H 416.152 5.23017 1.76513 0
M  V30 4387 H 418.628 3.40701 2.38877 0
M  V30 4388 H 417.504 4.22467 3.50447 0
M  V30 4389 H 417.765 2.49377 3.65053 0
M  V30 4390 N 416.824 -0.551391 1.4764 0
M  V30 4391 C 417.787 -1.64007 1.60107 0
M  V30 4392 C 418.787 -1.53601 0.47576 0
M  V30 4393 O 419.977 -1.57655 0.740988 0
M  V30 4394 C 417.109 -3.03569 1.55108 0
M  V30 4395 H 418.302 -1.543 2.57161 0
M  V30 4396 H 415.855 -0.771776 1.35917 0
M  V30 4397 H 416.59 -3.18804 0.594519 0
M  V30 4398 H 416.375 -3.12532 2.36783 0
M  V30 4399 H 417.865 -3.82762 1.66982 0
M  V30 4400 N 418.302 -1.35869 -0.798587 0
M  V30 4401 C 419.53 -1.32722 -1.58722 0
M  V30 4402 C 419.945 0.0935631 -1.88568 0
M  V30 4403 O 419.302 1.04784 -1.49421 0
M  V30 4404 C 419.353 -2.13974 -2.91371 0
M  V30 4405 O 419.074 -3.50514 -2.62815 0
M  V30 4406 C 420.575 -2.18504 -3.85708 0
M  V30 4407 H 417.795 -0.45562 -0.492596 0
M  V30 4408 H 420.339 -1.78837 -0.991843 0
M  V30 4409 H 418.494 -1.71438 -3.47402 0
M  V30 4410 H 418.908 -3.92806 -3.47568 0
M  V30 4411 H 420.382 -2.79732 -4.75872 0
M  V30 4412 H 420.859 -1.18597 -4.22885 0
M  V30 4413 H 421.465 -2.61236 -3.35612 0
M  V30 4414 N 419.78 1.02168 -1.19998 0
M  V30 4415 C 421.191 1.57135 -1.00825 0
M  V30 4416 C 421.542 1.91276 0.436818 0
M  V30 4417 O 420.667 1.71679 1.3174 0
M  V30 4418 C 421.262 2.85514 -1.82393 0
M  V30 4419 C 419.821 3.37027 -1.67601 0
M  V30 4420 C 418.968 2.10388 -1.80644 0
M  V30 4421 H 421.919 0.846106 -1.34264 0
M  V30 4422 H 421.94 3.56711 -1.32429 0
M  V30 4423 H 421.452 2.60634 -2.87561 0
M  V30 4424 H 419.553 3.66878 -0.650485 0
M  V30 4425 H 419.666 4.09572 -2.4857 0
M  V30 4426 H 418.03 2.22601 -1.23778 0
M  V30 4427 H 418.813 1.8794 -2.87286 0
M  V30 4428 N 421.258 1.00505 1.21394 0
M  V30 4429 C 422.206 0.558623 2.25792 0
M  V30 4430 C 423.2 -0.396848 1.64686 0
M  V30 4431 O 424.406 -0.268035 1.77993 0
M  V30 4432 H 420.781 0.1623 0.734277 0
M  V30 4433 H 422.752 1.4503 2.60785 0
M  V30 4434 C 421.501 -0.0989574 3.47559 0
M  V30 4435 H 420.824 0.627225 3.94849 0
M  V30 4436 H 422.264 -0.3746 4.22342 0
M  V30 4437 C 420.723 -1.33817 3.09184 0
M  V30 4438 O 421.253 -2.43252 3.19674 0
M  V30 4439 N 419.459 -1.21793 2.63846 0
M  V30 4440 H 419.006 -0.32746 2.5551 0
M  V30 4441 H 418.964 -2.04809 2.38539 0
M  V30 4442 N 422.737 -1.36956 0.779787 0
M  V30 4443 C 424.148 -1.82094 0.412156 0
M  V30 4444 C 424.499 -1.64926 -1.06273 0
M  V30 4445 O 423.624 -1.16483 -1.82375 0
M  V30 4446 C 424.219 -3.3059 0.741319 0
M  V30 4447 C 422.778 -3.73974 0.426641 0
M  V30 4448 C 421.925 -2.59368 0.980987 0
M  V30 4449 H 424.876 -1.25314 0.973758 0
M  V30 4450 H 424.897 -3.80489 0.028887 0
M  V30 4451 H 424.409 -3.43054 1.81482 0
M  V30 4452 H 422.51 -3.67076 -0.639215 0
M  V30 4453 H 422.623 -4.69778 0.940515 0
M  V30 4454 H 420.987 -2.51463 0.404757 0
M  V30 4455 H 421.77 -2.74621 2.06005 0
M  V30 4456 N 424.215 -0.530993 -1.48385 0
M  V30 4457 C 425.461 0.00274135 -2.028 0
M  V30 4458 C 425.794 1.33838 -1.40716 0
M  V30 4459 O 425.069 1.86465 -0.553277 0
M  V30 4460 C 425.352 0.123676 -3.59888 0
M  V30 4461 C 425.205 -1.2372 -4.3245 0
M  V30 4462 C 426.524 0.849967 -4.31814 0
M  V30 4463 H 423.643 -0.000477758 -0.737 0
M  V30 4464 H 426.285 -0.688217 -1.77098 0
M  V30 4465 H 424.435 0.712157 -3.81917 0
M  V30 4466 H 426.107 -1.86687 -4.21836 0
M  V30 4467 H 424.35 -1.81882 -3.93829 0
M  V30 4468 H 425.021 -1.10557 -5.40815 0
M  V30 4469 H 427.497 0.350572 -4.14621 0
M  V30 4470 H 426.373 0.903486 -5.41413 0
M  V30 4471 H 426.634 1.90047 -3.99167 0
M  V30 4472 N 425.693 1.55336 -0.266172 0
M  V30 4473 C 426.603 2.2583 0.635458 0
M  V30 4474 C 427.619 1.28106 1.17749 0
M  V30 4475 O 428.795 1.61024 1.20968 0
M  V30 4476 C 425.86 2.95879 1.80712 0
M  V30 4477 C 424.921 4.09059 1.30265 0
M  V30 4478 C 424.154 4.75759 2.41846 0
M  V30 4479 O 424.377 4.41622 3.61007 0
M  V30 4480 O 423.311 5.63888 2.1051 0
M  V30 4481 H 427.137 3.03631 0.0646693 0
M  V30 4482 H 424.722 1.49361 -0.0339177 0
M  V30 4483 H 426.604 3.39932 2.49047 0
M  V30 4484 H 425.279 2.21002 2.36516 0
M  V30 4485 H 424.186 3.69482 0.586019 0
M  V30 4486 H 425.519 4.85811 0.790458 0
M  V30 4487 N 427.171 -0.0066808 1.57599 0
M  V30 4488 C 428.101 -0.999296 2.11036 0
M  V30 4489 C 429.082 -1.36278 1.01795 0
M  V30 4490 O 430.267 -1.4477 1.29442 0
M  V30 4491 C 427.397 -2.29328 2.60818 0
M  V30 4492 C 426.351 -2.07159 3.74525 0
M  V30 4493 C 425.677 -3.42512 4.10596 0
M  V30 4494 C 426.977 -1.43959 5.02069 0
M  V30 4495 H 428.671 -0.554382 2.94223 0
M  V30 4496 H 426.217 -0.265221 1.41536 0
M  V30 4497 H 428.17 -2.99117 2.96828 0
M  V30 4498 H 426.894 -2.7592 1.74745 0
M  V30 4499 H 425.553 -1.39797 3.38899 0
M  V30 4500 H 425.201 -3.86795 3.21556 0
M  V30 4501 H 424.901 -3.28498 4.87199 0
M  V30 4502 H 426.425 -4.13628 4.4916 0
M  V30 4503 H 427.839 -2.03696 5.35893 0
M  V30 4504 H 426.236 -1.40452 5.83432 0
M  V30 4505 H 427.306 -0.407992 4.83181 0
M  V30 4506 N 428.649 -1.55105 -0.279332 0
M  V30 4507 C 429.897 -1.75066 -1.00977 0
M  V30 4508 C 430.218 -0.551276 -1.87045 0
M  V30 4509 O 429.488 0.433984 -1.91032 0
M  V30 4510 H 428.068 -0.645578 -0.375816 0
M  V30 4511 H 430.73 -1.92497 -0.305089 0
M  V30 4512 H 429.826 -2.64894 -1.65038 0
M  V30 4513 N 430.127 0.543554 -1.4793 0
M  V30 4514 C 431.538 1.12561 -1.48953 0
M  V30 4515 C 431.889 1.94578 -0.251754 0
M  V30 4516 O 431.014 2.0665 0.642255 0
M  V30 4517 C 431.609 2.04801 -2.69892 0
M  V30 4518 C 430.168 2.58251 -2.73831 0
M  V30 4519 C 429.315 1.34918 -2.42265 0
M  V30 4520 H 432.266 0.32947 -1.55242 0
M  V30 4521 H 432.287 2.88886 -2.47639 0
M  V30 4522 H 431.799 1.4508 -3.59963 0
M  V30 4523 H 429.9 3.21732 -1.87934 0
M  V30 4524 H 430.013 2.98312 -3.74895 0
M  V30 4525 H 428.377 1.66046 -1.93134 0
M  V30 4526 H 429.16 0.769693 -3.3456 0
M  V30 4527 N 431.605 1.3629 0.791371 0
M  V30 4528 C 432.853 1.30154 1.5461 0
M  V30 4529 C 433.174 -0.119409 1.94634 0
M  V30 4530 O 432.444 -1.05924 1.64794 0
M  V30 4531 H 431.024 0.478784 0.573389 0
M  V30 4532 H 433.686 1.70565 0.94306 0
M  V30 4533 H 432.782 1.92762 2.45457 0
M  V30 4534 N 433.083 -1.0153 1.20538 0
M  V30 4535 C 434.046 -2.0826 0.957098 0
M  V30 4536 C 435.046 -1.60657 -0.0678655 0
M  V30 4537 O 436.236 -1.73385 0.168332 0
M  V30 4538 C 433.368 -3.38033 0.441188 0
M  V30 4539 H 434.561 -2.31719 1.90384 0
M  V30 4540 H 432.114 -1.1835 1.02093 0
M  V30 4541 H 432.849 -3.20249 -0.510961 0
M  V30 4542 H 432.634 -3.73911 1.18038 0
M  V30 4543 H 434.124 -4.16613 0.287009 0
M  V30 4544 N 434.561 -1.01147 -1.20859 0
M  V30 4545 C 435.808 -0.697865 -1.90095 0
M  V30 4546 C 436.136 0.772014 -1.78522 0
M  V30 4547 O 435.391 1.57595 -1.16027 0
M  V30 4548 C 435.69 -1.0727 -3.40922 0
M  V30 4549 C 435.356 -2.53792 -3.72693 0
M  V30 4550 C 434.018 -2.93829 -3.81075 0
M  V30 4551 C 436.37 -3.48674 -3.87397 0
M  V30 4552 C 433.698 -4.27696 -4.01613 0
M  V30 4553 C 436.05 -4.82223 -4.09444 0
M  V30 4554 C 434.714 -5.21973 -4.16054 0
M  V30 4555 H 433.984 -0.255367 -0.695607 0
M  V30 4556 H 436.631 -1.27111 -1.43231 0
M  V30 4557 H 434.936 -0.417799 -3.89566 0
M  V30 4558 H 436.633 -0.807818 -3.92779 0
M  V30 4559 H 433.223 -2.21768 -3.66765 0
M  V30 4560 H 437.407 -3.18904 -3.80281 0
M  V30 4561 H 432.663 -4.58055 -4.04964 0
M  V30 4562 H 436.837 -5.55672 -4.19763 0
M  V30 4563 H 434.464 -6.25717 -4.31721 0
M  V30 4564 N 436.039 1.36541 -0.78704 0
M  V30 4565 C 437.286 1.99304 -0.358341 0
M  V30 4566 C 437.614 1.62467 1.06933 0
M  V30 4567 O 436.869 0.870019 1.75297 0
M  V30 4568 C 437.168 3.54343 -0.466485 0
M  V30 4569 C 436.834 4.10993 -1.85461 0
M  V30 4570 C 435.496 4.26177 -2.23443 0
M  V30 4571 C 437.848 4.41895 -2.76366 0
M  V30 4572 C 435.176 4.69573 -3.51736 0
M  V30 4573 C 437.528 4.86722 -4.04084 0
M  V30 4574 C 436.192 5.00112 -4.42091 0
M  V30 4575 H 435.462 0.729306 -0.131126 0
M  V30 4576 H 438.109 1.63068 -1.00404 0
M  V30 4577 H 436.414 3.90918 0.262719 0
M  V30 4578 H 438.111 4.00833 -0.115854 0
M  V30 4579 H 434.701 3.99612 -1.54946 0
M  V30 4580 H 438.885 4.29735 -2.48277 0
M  V30 4581 H 434.141 4.78127 -3.81057 0
M  V30 4582 H 438.315 5.09598 -4.7464 0
M  V30 4583 H 435.942 5.33498 -5.41557 0
M  V30 4584 N 437.518 0.538854 1.48102 0
M  V30 4585 C 438.766 0.00798599 2.02098 0
M  V30 4586 C 439.087 -1.33922 1.41739 0
M  V30 4587 O 438.357 -1.86932 0.585934 0
M  V30 4588 H 436.937 -3.62179e-05 0.747 0
M  V30 4589 H 439.599 0.7047 1.81714 0
M  V30 4590 H 438.695 -0.0937672 3.11959 0
M  V30 4591 N 438.996 -1.55193 0.274407 0
M  V30 4592 C 439.906 -2.26164 -0.623473 0
M  V30 4593 C 440.922 -1.28729 -1.17068 0
M  V30 4594 O 442.098 -1.61663 -1.20112 0
M  V30 4595 C 439.163 -2.96833 -1.7914 0
M  V30 4596 C 438.224 -4.09745 -1.28093 0
M  V30 4597 C 437.457 -4.77034 -2.3932 0
M  V30 4598 O 437.68 -4.4353 -3.5866 0
M  V30 4599 O 436.614 -5.64996 -2.07516 0
M  V30 4600 H 440.44 -3.03661 -0.0485661 0
M  V30 4601 H 438.025 -1.49341 0.0418382 0
M  V30 4602 H 439.907 -3.41248 -2.4724 0
M  V30 4603 H 438.582 -2.22253 -2.35341 0
M  V30 4604 H 437.489 -3.69787 -0.566416 0
M  V30 4605 H 438.822 -4.86224 -0.764683 0
M  V30 4606 N 440.474 -0.00167713 -1.576 0
M  V30 4607 C 441.407 1.02317 -2.03977 0
M  V30 4608 C 442.385 1.33381 -0.929963 0
M  V30 4609 O 443.569 1.45517 -1.19822 0
M  V30 4610 C 440.696 2.35035 -2.43878 0
M  V30 4611 C 439.742 2.19621 -3.65607 0
M  V30 4612 S 440.575 1.52068 -5.13455 0
M  V30 4613 C 441.731 2.86212 -5.56627 0
M  V30 4614 H 441.964 0.628285 -2.90585 0
M  V30 4615 H 439.497 0.209239 -1.52976 0
M  V30 4616 H 441.455 3.11345 -2.67534 0
M  V30 4617 H 440.116 2.71663 -1.57665 0
M  V30 4618 H 439.309 3.1767 -3.91282 0
M  V30 4619 H 438.911 1.51455 -3.41961 0
M  V30 4620 H 441.203 3.82509 -5.59189 0
M  V30 4621 H 442.146 2.65235 -6.56549 0
M  V30 4622 H 442.554 2.90199 -4.84195 0
M  V30 4623 N 441.952 1.55251 0.271103 0
M  V30 4624 C 442.915 1.87484 1.31842 0
M  V30 4625 C 443.915 0.749545 1.42262 0
M  V30 4626 O 445.105 1.01771 1.4138 0
M  V30 4627 C 442.237 2.0818 2.69951 0
M  V30 4628 H 443.43 2.81108 1.0449 0
M  V30 4629 H 440.983 1.47771 0.509258 0
M  V30 4630 H 441.718 1.16944 3.02481 0
M  V30 4631 H 441.503 2.90114 2.63774 0
M  V30 4632 H 442.993 2.34385 3.4562 0
M  V30 4633 N 443.43 -0.535701 1.48216 0
M  V30 4634 C 444.36 -1.65014 1.65204 0
M  V30 4635 C 445.341 -1.62554 0.501011 0
M  V30 4636 O 446.526 -1.7984 0.732886 0
M  V30 4637 C 443.656 -3.03616 1.68626 0
M  V30 4638 C 442.61 -3.20932 2.83172 0
M  V30 4639 C 441.936 -4.60537 2.71679 0
M  V30 4640 C 443.236 -3.04249 4.24535 0
M  V30 4641 H 444.93 -1.51053 2.58502 0
M  V30 4642 H 442.476 -0.725262 1.24402 0
M  V30 4643 H 444.429 -3.81446 1.79099 0
M  V30 4644 H 443.153 -3.18587 0.719026 0
M  V30 4645 H 441.812 -2.45517 2.72244 0
M  V30 4646 H 441.46 -4.72336 1.72937 0
M  V30 4647 H 441.16 -4.73069 3.48538 0
M  V30 4648 H 442.684 -5.40475 2.84112 0
M  V30 4649 H 444.098 -3.71877 4.36326 0
M  V30 4650 H 442.495 -3.28278 5.02348 0
M  V30 4651 H 443.565 -2.00739 4.41397 0
M  V30 4652 N 444.908 -1.36708 -0.784132 0
M  V30 4653 C 446.157 -1.30559 -1.53744 0
M  V30 4654 C 446.47 0.111374 -1.95283 0
M  V30 4655 O 447.676 0.29527 -2.6989 0
M  V30 4656 C 446.132 -2.29098 -2.77565 0
M  V30 4657 C 445.74 -3.76258 -2.43174 0
M  V30 4658 C 447.484 -2.31936 -3.55536 0
M  V30 4659 C 445.391 -4.6656 -3.63422 0
M  V30 4660 H 444.321 -0.48518 -0.577162 0
M  V30 4661 H 446.972 -1.62101 -0.859981 0
M  V30 4662 H 445.354 -1.90557 -3.47137 0
M  V30 4663 H 446.528 -4.23565 -1.81465 0
M  V30 4664 H 444.843 -3.76246 -1.78403 0
M  V30 4665 H 447.44 -2.9661 -4.44889 0
M  V30 4666 H 447.783 -1.3294 -3.94503 0
M  V30 4667 H 448.316 -2.6912 -2.92949 0
M  V30 4668 H 445.055 -5.66638 -3.29547 0
M  V30 4669 H 444.575 -4.23966 -4.24279 0
M  V30 4670 H 446.254 -4.8309 -4.30387 0
M  V30 4671 N 446.386 1.0089 -1.21074 0
M  V30 4672 C 447.611 1.78727 -1.05221 0
M  V30 4673 C 448.036 1.83932 0.393795 0
M  V30 4674 O 447.394 1.28004 1.28393 0
M  V30 4675 C 447.442 3.20665 -1.64944 0
M  V30 4676 O 446.546 4.02632 -0.892273 0
M  V30 4677 H 445.887 0.550973 -0.370574 0
M  V30 4678 H 448.417 1.26847 -1.60534 0
M  V30 4679 H 448.427 3.71352 -1.69002 0
M  V30 4680 H 447.102 3.16191 -2.70177 0
M  V30 4681 H 445.679 3.61207 -0.926492 0
M  V30 4682 N 447.864 1.01787 1.20321 0
M  V30 4683 C 449.112 0.706538 1.89347 0
M  V30 4684 C 449.433 -0.766289 1.79313 0
M  V30 4685 O 448.703 -1.55126 1.19635 0
M  V30 4686 H 447.283 0.258348 0.700903 0
M  V30 4687 H 449.945 1.28974 1.46122 0
M  V30 4688 H 449.041 0.991066 2.95946 0
M  V30 4689 N 449.342 -1.36122 0.79427 0
M  V30 4690 C 450.252 -2.33769 0.197296 0
M  V30 4691 C 451.268 -1.61276 -0.653153 0
M  V30 4692 O 452.444 -1.9323 -0.5678 0
M  V30 4693 C 449.509 -3.40474 -0.654098 0
M  V30 4694 C 448.57 -4.28759 0.215411 0
M  V30 4695 C 447.803 -5.30368 -0.595443 0
M  V30 4696 O 448.026 -5.40211 -1.83107 0
M  V30 4697 O 446.96 -6.019 0.00721351 0
M  V30 4698 H 450.786 -2.86597 1.00478 0
M  V30 4699 H 448.371 -1.38676 0.555818 0
M  V30 4700 H 450.253 -4.05703 -1.13944 0
M  V30 4701 H 448.928 -2.89937 -1.43938 0
M  V30 4702 H 447.835 -3.66554 0.747615 0
M  V30 4703 H 449.168 -4.82661 0.964332 0
M  V30 4704 N 450.82 -0.546701 -1.47814 0
M  V30 4705 C 452.231 -0.110564 -1.86372 0
M  V30 4706 C 452.582 1.31678 -1.45449 0
M  V30 4707 O 451.707 1.98889 -0.852758 0
M  V30 4708 C 452.302 -0.193873 -3.38245 0
M  V30 4709 C 450.861 0.187164 -3.75934 0
M  V30 4710 C 450.008 -0.546166 -2.71868 0
M  V30 4711 H 452.959 -0.757022 -1.39481 0
M  V30 4712 H 452.98 0.590218 -3.75895 0
M  V30 4713 H 452.492 -1.23282 -3.67999 0
M  V30 4714 H 450.593 1.22762 -3.51796 0
M  V30 4715 H 450.706 -0.164083 -4.78819 0
M  V30 4716 H 449.07 0.00953904 -2.54698 0
M  V30 4717 H 449.853 -1.58606 -3.04465 0
M  V30 4718 N 452.299 1.55045 -0.282633 0
M  V30 4719 C 453.715 1.59441 0.0712997 0
M  V30 4720 C 453.915 1.2998 1.53972 0
M  V30 4721 O 452.971 1.06431 2.28973 0
M  V30 4722 C 454.284 2.99097 -0.310104 0
M  V30 4723 C 455.832 3.1194 -0.257343 0
M  V30 4724 C 456.307 4.53875 -0.613297 0
M  V30 4725 N 457.798 4.5974 -0.565134 0
M  V30 4726 C 458.533 5.67603 -0.81326 0
M  V30 4727 N 458.029 6.83582 -1.1264 0
M  V30 4728 N 459.822 5.57187 -0.741553 0
M  V30 4729 H 451.973 1.72458 -1.23984 0
M  V30 4730 H 454.236 0.804549 -0.501403 0
M  V30 4731 H 453.942 3.25516 -1.33163 0
M  V30 4732 H 453.816 3.75616 0.345366 0
M  V30 4733 H 456.203 2.85281 0.754905 0
M  V30 4734 H 456.284 2.37618 -0.947178 0
M  V30 4735 H 455.928 4.81261 -1.62327 0
M  V30 4736 H 455.858 5.26508 0.09841 0
M  V30 4737 H 458.349 3.76427 -0.333294 0
M  V30 4738 H 458.662 7.6175 -1.30219 0
M  V30 4739 H 457.007 6.85179 -1.16425 0
M  V30 4740 H 460.198 4.65457 -0.496705 0
M  V30 4741 H 460.371 6.41171 -0.938306 0
M  V30 4742 N 453.777 0.010035 1.57597 0
M  V30 4743 C 455.002 -0.687021 1.95691 0
M  V30 4744 C 455.427 -1.65952 0.885519 0
M  V30 4745 O 454.785 -1.80633 -0.15543 0
M  V30 4746 C 454.833 -1.3864 3.32884 0
M  V30 4747 O 453.937 -2.50115 3.27897 0
M  V30 4748 H 453.278 -0.181989 0.638573 0
M  V30 4749 H 455.808 0.0662122 2.04493 0
M  V30 4750 H 455.818 -1.74754 3.6868 0
M  V30 4751 H 454.493 -0.673411 4.10412 0
M  V30 4752 H 453.07 -2.16253 3.03791 0
M  V30 4753 N 455.255 -1.55392 -0.262866 0
M  V30 4754 C 456.218 -1.88181 -1.30846 0
M  V30 4755 C 457.218 -0.757079 -1.41862 0
M  V30 4756 O 458.408 -1.02519 -1.40838 0
M  V30 4757 C 455.54 -2.09609 -2.68844 0
M  V30 4758 H 456.733 -2.81659 -1.02997 0
M  V30 4759 H 454.286 -1.48039 -0.501414 0
M  V30 4760 H 455.021 -1.18547 -3.01856 0
M  V30 4761 H 454.806 -2.91508 -2.62231 0
M  V30 4762 H 456.296 -2.36215 -3.44372 0
M  V30 4763 N 456.733 0.527833 -1.48498 0
M  V30 4764 C 457.961 1.30823 -1.6029 0
M  V30 4765 C 458.376 1.86945 -0.263974 0
M  V30 4766 O 457.733 1.6651 0.747034 0
M  V30 4767 C 457.784 2.45756 -2.65116 0
M  V30 4768 O 457.505 1.91946 -3.93813 0
M  V30 4769 C 459.006 3.37543 -2.87367 0
M  V30 4770 H 456.226 0.397763 -0.540394 0
M  V30 4771 H 458.77 0.636529 -1.94341 0
M  V30 4772 H 456.925 3.08806 -2.33917 0
M  V30 4773 H 457.339 2.67195 -4.51339 0
M  V30 4774 H 458.813 4.14532 -3.6451 0
M  V30 4775 H 459.29 3.92905 -1.9627 0
M  V30 4776 H 459.896 2.80283 -3.19878 0
M  V30 4777 N 458.211 1.37122 0.776871 0
M  V30 4778 C 459.457 1.32243 1.53752 0
M  V30 4779 C 459.79 -0.0944745 1.9397 0
M  V30 4780 O 459.065 -1.05068 1.6368 0
M  V30 4781 C 459.348 2.25681 2.80607 0
M  V30 4782 C 459.201 3.76127 2.46676 0
M  V30 4783 C 460.52 2.17657 3.82509 0
M  V30 4784 H 457.639 0.481704 0.557791 0
M  V30 4785 H 460.281 1.6778 0.891612 0
M  V30 4786 H 458.431 1.95505 3.35723 0
M  V30 4787 H 460.103 4.16877 1.97513 0
M  V30 4788 H 458.346 3.94946 1.79443 0
M  V30 4789 H 459.017 4.36933 3.37333 0
M  V30 4790 H 461.493 2.44245 3.36873 0
M  V30 4791 H 460.369 2.85185 4.69 0
M  V30 4792 H 460.63 1.16785 4.26396 0
M  V30 4793 N 459.689 -1.00246 1.21608 0
M  V30 4794 C 460.914 -1.78167 1.06167 0
M  V30 4795 C 461.339 -1.84138 -0.384035 0
M  V30 4796 O 460.697 -1.28683 -1.27712 0
M  V30 4797 C 460.745 -3.19786 1.66642 0
M  V30 4798 O 459.849 -4.02153 0.913613 0
M  V30 4799 H 459.19 -0.549 0.37349 0
M  V30 4800 H 461.72 -1.25994 1.61204 0
M  V30 4801 H 461.73 -3.70451 1.70969 0
M  V30 4802 H 460.405 -3.14754 2.7185 0
M  V30 4803 H 458.982 -3.60711 0.945635 0
M  V30 4804 N 461.167 -1.02423 -1.1978 0
M  V30 4805 C 462.13 -0.605703 -2.21052 0
M  V30 4806 C 463.13 0.328209 -1.57415 0
M  V30 4807 O 464.32 0.115853 -1.73814 0
M  V30 4808 C 461.452 0.114366 -3.40708 0
M  V30 4809 H 462.645 -1.5017 -2.59594 0
M  V30 4810 H 460.198 -0.814888 -1.33376 0
M  V30 4811 H 460.933 1.02492 -3.07678 0
M  V30 4812 H 460.718 -0.556641 -3.88129 0
M  V30 4813 H 462.208 0.394272 -4.15735 0
M  V30 4814 N 462.645 1.35699 -0.801477 0
M  V30 4815 C 463.608 2.28199 -0.213994 0
M  V30 4816 C 464.608 1.49359 0.595691 0
M  V30 4817 O 465.798 1.69186 0.414921 0
M  V30 4818 C 462.93 3.33587 0.702297 0
M  V30 4819 H 464.123 2.81666 -1.02976 0
M  V30 4820 H 461.676 1.45467 -0.571759 0
M  V30 4821 H 462.411 2.85297 1.54195 0
M  V30 4822 H 462.196 3.91906 0.123484 0
M  V30 4823 H 463.686 4.02638 1.10783 0
M  V30 4824 N 464.123 0.554532 1.47522 0
M  V30 4825 C 465.351 0.034257 2.06872 0
M  V30 4826 C 465.766 -1.25826 1.40759 0
M  V30 4827 O 465.123 -1.75425 0.503217 0
M  V30 4828 C 465.174 -0.167827 3.6111 0
M  V30 4829 O 464.895 1.07351 4.24744 0
M  V30 4830 C 466.396 -0.72569 4.3732 0
M  V30 4831 H 463.616 0.0446275 0.669514 0
M  V30 4832 H 466.16 0.767181 1.89564 0
M  V30 4833 H 464.315 -0.850872 3.7794 0
M  V30 4834 H 464.729 0.869563 5.17242 0
M  V30 4835 H 466.203 -0.816394 5.45929 0
M  V30 4836 H 466.68 -1.73635 4.0342 0
M  V30 4837 H 467.286 -0.0784292 4.25228 0
M  V30 4838 N 465.601 -1.54893 0.290851 0
M  V30 4839 C 466.829 -2.04343 -0.324288 0
M  V30 4840 C 467.244 -1.16859 -1.48289 0
M  V30 4841 O 466.601 -0.192018 -1.81487 0
M  V30 4842 C 466.652 -3.52756 -0.79026 0
M  V30 4843 O 466.373 -4.36913 0.322213 0
M  V30 4844 C 467.874 -4.18161 -1.4716 0
M  V30 4845 H 465.094 -0.667135 -0.0719173 0
M  V30 4846 H 467.638 -1.99981 0.427529 0
M  V30 4847 H 465.793 -3.57511 -1.49213 0
M  V30 4848 H 466.207 -5.24486 -0.0387372 0
M  V30 4849 H 467.681 -5.23562 -1.7489 0
M  V30 4850 H 468.158 -3.67282 -2.40834 0
M  V30 4851 H 468.764 -4.17454 -0.813178 0
M  V30 4852 N 467.08 -0.0183926 -1.57589 0
M  V30 4853 C 468.326 0.663543 -1.91638 0
M  V30 4854 C 468.659 1.72392 -0.894134 0
M  V30 4855 O 467.934 1.94316 0.0846449 0
M  V30 4856 C 468.217 1.28984 -3.36207 0
M  V30 4857 C 468.07 0.239761 -4.49161 0
M  V30 4858 C 469.389 2.2109 -3.80536 0
M  V30 4859 H 466.508 0.239746 -0.696915 0
M  V30 4860 H 469.15 -0.073456 -1.89858 0
M  V30 4861 H 467.3 1.91799 -3.37854 0
M  V30 4862 H 468.972 -0.390119 -4.59647 0
M  V30 4863 H 467.215 -0.435972 -4.31604 0
M  V30 4864 H 467.886 0.717383 -5.47319 0
M  V30 4865 H 470.362 1.68273 -3.80557 0
M  V30 4866 H 469.238 2.61869 -4.82406 0
M  V30 4867 H 469.499 3.09764 -3.15434 0
M  V30 4868 N 468.558 1.5553 0.254621 0
M  V30 4869 C 469.783 1.81383 1.00573 0
M  V30 4870 C 470.208 0.594419 1.78461 0
M  V30 4871 O 469.566 -0.456403 1.75461 0
M  V30 4872 C 469.614 3.04892 1.92545 0
M  V30 4873 O 468.718 2.81266 3.01601 0
M  V30 4874 H 468.059 0.598969 0.286587 0
M  V30 4875 H 470.589 2.02703 0.277952 0
M  V30 4876 H 470.599 3.34119 2.34155 0
M  V30 4877 H 469.274 3.93287 1.3527 0
M  V30 4878 H 467.851 2.63185 2.64174 0
M  V30 4879 N 470.036 -0.519951 1.48776 0
M  V30 4880 C 470.966 -1.63253 1.66945 0
M  V30 4881 C 471.947 -1.62014 0.518224 0
M  V30 4882 O 473.132 -1.79053 0.751919 0
M  V30 4883 C 470.262 -3.0181 1.71836 0
M  V30 4884 C 469.216 -3.17911 2.8656 0
M  V30 4885 C 468.542 -4.5763 2.76548 0
M  V30 4886 C 469.842 -2.99729 4.27738 0
M  V30 4887 H 471.536 -1.48302 2.6009 0
M  V30 4888 H 469.082 -0.712026 1.25165 0
M  V30 4889 H 471.035 -3.79525 1.83135 0
M  V30 4890 H 469.759 -3.17806 0.752775 0
M  V30 4891 H 468.418 -2.42616 2.74833 0
M  V30 4892 H 468.066 -4.70476 1.77937 0
M  V30 4893 H 467.766 -4.69346 3.53536 0
M  V30 4894 H 469.29 -5.37431 2.89828 0
M  V30 4895 H 470.704 -3.67228 4.40246 0
M  V30 4896 H 469.101 -3.22932 5.05801 0
M  V30 4897 H 470.171 -1.96047 4.43502 0
M  V30 4898 N 471.514 -1.37532 -0.769588 0
M  V30 4899 C 472.444 -1.36172 -1.89682 0
M  V30 4900 C 473.425 -0.23001 -1.68538 0
M  V30 4901 O 474.61 -0.43069 -1.89364 0
M  V30 4902 C 471.74 -1.1701 -3.26995 0
M  V30 4903 C 470.694 -2.27216 -3.62708 0
M  V30 4904 C 470.02 -1.93174 -4.98586 0
M  V30 4905 C 471.32 -3.6941 -3.69234 0
M  V30 4906 H 473.014 -2.30499 -1.91078 0
M  V30 4907 H 470.56 -1.10953 -0.917902 0
M  V30 4908 H 472.513 -1.14688 -4.05493 0
M  V30 4909 H 471.237 -0.191395 -3.26039 0
M  V30 4910 H 469.896 -2.28697 -2.86519 0
M  V30 4911 H 469.544 -0.938281 -4.94171 0
M  V30 4912 H 469.244 -2.66973 -5.23449 0
M  V30 4913 H 470.768 -1.92443 -5.79481 0
M  V30 4914 H 472.182 -3.70047 -4.37879 0
M  V30 4915 H 470.579 -4.4228 -4.05597 0
M  V30 4916 H 471.649 -4.0288 -2.69844 0
M  V30 4917 N 472.992 0.995999 -1.22138 0
M  V30 4918 C 474.217 1.77601 -1.0711 0
M  V30 4919 C 474.642 1.84339 0.374264 0
M  V30 4920 O 474 1.29359 1.27028 0
M  V30 4921 C 474.048 3.18897 -1.68336 0
M  V30 4922 O 473.152 4.01663 -0.934928 0
M  V30 4923 H 472.493 0.547011 -0.376397 0
M  V30 4924 H 475.023 1.25137 -1.6187 0
M  V30 4925 H 475.033 3.69539 -1.72931 0
M  V30 4926 H 473.708 3.13308 -2.73516 0
M  V30 4927 H 472.285 3.60204 -0.964751 0
M  V30 4928 N 474.47 1.03057 1.19235 0
M  V30 4929 C 475.4 0.633497 2.24742 0
M  V30 4930 C 476.381 -0.358335 1.66283 0
M  V30 4931 O 477.566 -0.240676 1.92703 0
M  V30 4932 C 474.696 -0.0147648 3.47297 0
M  V30 4933 C 473.65 0.899527 4.18441 0
M  V30 4934 C 472.976 0.116281 5.34574 0
M  V30 4935 C 474.276 2.21404 4.73051 0
M  V30 4936 H 475.97 1.5155 2.58211 0
M  V30 4937 H 473.516 0.73014 1.24117 0
M  V30 4938 H 475.469 -0.304202 4.20301 0
M  V30 4939 H 474.193 -0.931577 3.13032 0
M  V30 4940 H 472.852 1.17319 3.47321 0
M  V30 4941 H 472.5 -0.802619 4.96555 0
M  V30 4942 H 472.2 0.725293 5.83107 0
M  V30 4943 H 473.724 -0.166376 6.10373 0
M  V30 4944 H 475.138 1.98601 5.37802 0
M  V30 4945 H 473.535 2.77512 5.32078 0
M  V30 4946 H 474.605 2.86752 3.91026 0
M  V30 4947 N 475.948 -1.35272 0.808662 0
M  V30 4948 C 476.898 -2.27181 0.193124 0
M  V30 4949 C 477.882 -1.47871 -0.634265 0
M  V30 4950 O 479.074 -1.70048 -0.491182 0
M  V30 4951 C 476.203 -3.36979 -0.655751 0
M  V30 4952 C 475.289 -4.23712 0.181481 0
M  V30 4953 N 475.68 -4.90225 1.24551 0
M  V30 4954 C 473.978 -4.45985 -0.0365493 0
M  V30 4955 C 474.679 -5.54537 1.75682 0
M  V30 4956 N 473.655 -5.33107 1.06294 0
M  V30 4957 H 477.457 -2.76101 1.00724 0
M  V30 4958 H 474.971 -1.48823 0.650029 0
M  V30 4959 H 476.968 -4.01774 -1.11279 0
M  V30 4960 H 475.628 -2.89611 -1.46819 0
M  V30 4961 H 476.639 -4.91641 1.62818 0
M  V30 4962 H 473.316 -4.09409 -0.817964 0
M  V30 4963 H 474.706 -6.17597 2.64621 0
M  V30 4964 N 477.426 -0.562348 -1.47226 0
M  V30 4965 C 478.651 -0.0432632 -2.07355 0
M  V30 4966 C 479.076 1.24332 -1.41149 0
M  V30 4967 O 478.434 1.74603 -0.488226 0
M  V30 4968 C 478.482 0.130288 -3.60365 0
M  V30 4969 O 477.586 1.19166 -3.94808 0
M  V30 4970 H 476.927 -0.0536334 -0.66183 0
M  V30 4971 H 479.457 -0.779495 -1.89169 0
M  V30 4972 H 479.467 0.342881 -4.06557 0
M  V30 4973 H 478.142 -0.809389 -4.07948 0
M  V30 4974 H 476.719 0.959153 -3.60354 0
M  V30 4975 N 478.904 1.54736 -0.299062 0
M  V30 4976 C 479.867 2.22127 0.565012 0
M  V30 4977 C 480.867 1.20669 1.06281 0
M  V30 4978 O 482.057 1.45417 0.959145 0
M  V30 4979 C 479.189 2.90611 1.78208 0
M  V30 4980 H 480.382 2.99891 -0.0237448 0
M  V30 4981 H 477.935 1.5622 -0.0498788 0
M  V30 4982 H 478.67 2.16921 2.41072 0
M  V30 4983 H 478.455 3.64984 1.43281 0
M  V30 4984 H 479.945 3.42026 2.396 0
M  V30 4985 N 480.382 0.0267497 1.57577 0
M  V30 4986 C 481.659 -0.690926 1.82991 0
M  V30 4987 C 482.039 -1.90471 0.910164 0
M  V30 4988 O 481.387 -2.28474 -0.0347985 0
M  V30 4989 C 481.597 -1.07139 3.32148 0
M  V30 4990 C 482.945 -1.46402 3.98562 0
M  V30 4991 O 483.969 -1.16443 3.36629 0
M  V30 4992 O 482.828 -2.02214 5.07712 0
M  V30 4993 H 479.922 -0.338747 0.75444 0
M  V30 4994 H 482.468 0.0542506 1.69613 0
M  V30 4995 H 481.24 -0.207394 3.9075 0
M  V30 4996 H 480.863 -1.87481 3.50623 0
M  V30 4997 N 481.861 -1.55662 -0.24637 0
M  V30 4998 C 483.108 -1.77519 -0.974335 0
M  V30 4999 C 483.436 -0.591165 -1.85298 0
M  V30 5000 O 482.691 0.425497 -1.91018 0
M  V30 5001 C 482.99 -3.04885 -1.86494 0
M  V30 5002 C 482.656 -4.36209 -1.14161 0
M  V30 5003 C 481.318 -4.71896 -0.941701 0
M  V30 5004 C 483.67 -5.17391 -0.628957 0
M  V30 5005 C 480.998 -5.86299 -0.216852 0
M  V30 5006 C 483.35 -6.32546 0.0824273 0
M  V30 5007 C 482.014 -6.66853 0.293807 0
M  V30 5008 H 481.284 -0.649588 -0.356535 0
M  V30 5009 H 483.931 -1.89934 -0.244394 0
M  V30 5010 H 482.236 -2.87484 -2.66196 0
M  V30 5011 H 483.933 -3.18994 -2.42989 0
M  V30 5012 H 480.523 -4.08174 -1.30736 0
M  V30 5013 H 484.707 -4.90276 -0.770943 0
M  V30 5014 H 479.963 -6.11385 -0.0426124 0
M  V30 5015 H 484.137 -6.94693 0.487292 0
M  V30 5016 H 481.764 -7.55349 0.857428 0
M  V30 5017 N 483.339 0.512053 -1.4905 0
M  V30 5018 C 484.271 1.63121 -1.6101 0
M  V30 5019 C 485.284 1.55145 -0.493352 0
M  V30 5020 O 486.473 1.61278 -0.764955 0
M  V30 5021 C 483.573 3.01863 -1.54052 0
M  V30 5022 C 482.746 3.35138 -2.81072 0
M  V30 5023 C 481.805 4.5324 -2.67319 0
M  V30 5024 O 480.831 4.55571 -3.41238 0
M  V30 5025 N 482.033 5.52495 -1.78127 0
M  V30 5026 H 484.798 1.53292 -2.5753 0
M  V30 5027 H 482.359 0.699706 -1.45999 0
M  V30 5028 H 484.351 3.78774 -1.42521 0
M  V30 5029 H 482.921 3.05675 -0.654345 0
M  V30 5030 H 482.141 2.4723 -3.07036 0
M  V30 5031 H 483.429 3.54162 -3.65304 0
M  V30 5032 H 482.827 5.53403 -1.17308 0
M  V30 5033 H 481.384 6.28553 -1.72525 0
M  V30 5034 N 484.817 1.37938 0.762283 0
M  V30 5035 C 485.75 1.2884 1.88349 0
M  V30 5036 C 486.728 0.167084 1.61739 0
M  V30 5037 O 487.912 0.34292 1.85355 0
M  V30 5038 C 485.039 0.994257 3.23778 0
M  V30 5039 C 484.085 2.13376 3.69287 0
M  V30 5040 S 484.918 3.75439 3.81845 0
M  V30 5041 C 486.074 3.48195 5.20107 0
M  V30 5042 H 486.307 2.23736 1.95779 0
M  V30 5043 H 483.84 1.23672 0.924368 0
M  V30 5044 H 485.798 0.83138 4.01993 0
M  V30 5045 H 484.459 0.0626251 3.14038 0
M  V30 5046 H 483.652 1.88319 4.67495 0
M  V30 5047 H 483.254 2.25726 2.98201 0
M  V30 5048 H 485.546 3.0377 6.05583 0
M  V30 5049 H 486.489 4.45765 5.50181 0
M  V30 5050 H 486.897 2.82905 4.88493 0
M  V30 5051 N 486.295 -0.989507 1.22664 0
M  V30 5052 C 487.225 -2.09847 1.02404 0
M  V30 5053 C 488.206 -1.70007 -0.0561303 0
M  V30 5054 O 489.391 -1.93906 0.106748 0
M  V30 5055 C 486.521 -3.41996 0.604663 0
M  V30 5056 C 485.475 -3.95699 1.63115 0
M  V30 5057 C 484.801 -5.23936 1.0675 0
M  V30 5058 C 486.101 -4.25999 3.02196 0
M  V30 5059 H 487.795 -2.27054 1.95158 0
M  V30 5060 H 485.341 -1.09111 0.939727 0
M  V30 5061 H 487.294 -4.1899 0.45002 0
M  V30 5062 H 486.018 -3.24626 -0.35855 0
M  V30 5063 H 484.677 -3.2084 1.77362 0
M  V30 5064 H 484.325 -5.02909 0.0955422 0
M  V30 5065 H 484.025 -5.60833 1.75328 0
M  V30 5066 H 485.549 -6.0356 0.924516 0
M  V30 5067 H 486.963 -4.93777 2.91303 0
M  V30 5068 H 485.36 -4.74076 3.67929 0
M  V30 5069 H 486.43 -3.33636 3.51873 0
M  V30 5070 N 487.773 -1.03688 -1.18687 0
M  V30 5071 C 489.013 -0.746858 -1.90267 0
M  V30 5072 C 489.377 0.712075 -1.78307 0
M  V30 5073 O 490.578 1.11553 -2.44559 0
M  V30 5074 C 488.849 -1.19543 -3.36815 0
M  V30 5075 S 490.408 -1.03047 -4.26529 0
M  V30 5076 H 487.226 -0.271663 -0.657054 0
M  V30 5077 H 489.828 -1.32838 -1.43437 0
M  V30 5078 H 488.532 -2.2527 -3.43047 0
M  V30 5079 H 488.063 -0.607533 -3.88681 0
M  V30 5080 H 490.078 0.0543232 -4.9617 0
M  V30 5081 N 489.251 1.34841 -0.815825 0
M  V30 5082 C 490.476 2.03261 -0.41226 0
M  V30 5083 C 490.901 1.61055 0.971751 0
M  V30 5084 O 490.259 0.7917 1.63101 0
M  V30 5085 C 490.307 3.56914 -0.514289 0
M  V30 5086 O 489.411 4.09728 0.468675 0
M  V30 5087 H 488.752 0.641664 -0.170771 0
M  V30 5088 H 491.282 1.72241 -1.10427 0
M  V30 5089 H 491.292 4.06156 -0.387457 0
M  V30 5090 H 489.967 3.86982 -1.52375 0
M  V30 5091 H 488.544 3.71681 0.301316 0
M  V30 5092 N 490.729 0.570148 1.46925 0
M  V30 5093 C 491.954 0.0542592 2.07329 0
M  V30 5094 C 492.379 -1.23582 1.41806 0
M  V30 5095 O 491.737 -1.74341 0.497479 0
M  V30 5096 C 491.785 -0.111175 3.60429 0
M  V30 5097 O 490.889 -1.17071 3.95434 0
M  V30 5098 H 490.23 0.0571425 0.661537 0
M  V30 5099 H 492.76 0.789516 1.88753 0
M  V30 5100 H 492.77 -0.321315 4.06733 0
M  V30 5101 H 491.445 0.831012 4.07513 0
M  V30 5102 H 490.022 -0.940029 3.60857 0
M  V30 5103 N 492.207 -1.54576 0.307264 0
M  V30 5104 C 493.432 -2.05139 -0.305379 0
M  V30 5105 C 493.857 -1.18278 -1.46259 0
M  V30 5106 O 493.215 -0.188243 -1.8032 0
M  V30 5107 C 493.263 -3.53066 -0.733283 0
M  V30 5108 O 492.367 -3.69206 -1.83741 0
M  V30 5109 H 491.708 -0.661444 -0.0582105 0
M  V30 5110 H 494.238 -1.99569 0.450931 0
M  V30 5111 H 494.248 -3.95034 -1.02039 0
M  V30 5112 H 492.923 -4.15746 0.113198 0
M  V30 5113 H 491.5 -3.39143 -1.55037 0
M  V30 5114 N 493.685 -0.035106 -1.57561 0
M  V30 5115 C 495.096 0.502885 -1.798 0
M  V30 5116 C 495.447 1.71892 -0.945921 0
M  V30 5117 O 494.572 2.15822 -0.157991 0
M  V30 5118 C 495.167 0.919097 -3.26095 0
M  V30 5119 C 493.726 1.40216 -3.49308 0
M  V30 5120 C 492.873 0.369709 -2.74824 0
M  V30 5121 H 495.824 -0.261102 -1.56537 0
M  V30 5122 H 495.845 1.78308 -3.36135 0
M  V30 5123 H 495.357 0.0338526 -3.88085 0
M  V30 5124 H 493.458 2.30714 -2.92578 0
M  V30 5125 H 493.571 1.40541 -4.58023 0
M  V30 5126 H 491.935 0.839113 -2.40481 0
M  V30 5127 H 492.718 -0.507173 -3.39533 0
M  V30 5128 N 495.163 1.55791 0.238111 0
M  V30 5129 C 496.073 1.94196 1.31625 0
M  V30 5130 C 497.089 0.843545 1.52185 0
M  V30 5131 O 498.265 1.1457 1.65637 0
M  V30 5132 C 495.33 2.2365 2.64918 0
M  V30 5133 C 494.391 3.46971 2.52804 0
M  V30 5134 C 493.624 3.7501 3.79741 0
M  V30 5135 O 493.847 3.04982 4.82019 0
M  V30 5136 O 492.781 4.68525 3.77846 0
M  V30 5137 H 496.607 2.86044 1.02043 0
M  V30 5138 H 494.192 1.42786 0.439603 0
M  V30 5139 H 496.074 2.43863 3.4367 0
M  V30 5140 H 494.749 1.34979 2.94215 0
M  V30 5141 H 493.656 3.32055 1.72309 0
M  V30 5142 H 494.989 4.35971 2.28451 0
M  V30 5143 N 496.642 -0.504142 1.49319 0
M  V30 5144 C 497.891 -1.25507 1.57895 0
M  V30 5145 C 498.204 -1.93735 0.269433 0
M  V30 5146 O 499.41 -2.70492 0.233706 0
M  V30 5147 C 497.866 -2.27869 2.78574 0
M  V30 5148 C 497.474 -1.65594 4.16272 0
M  V30 5149 C 499.218 -3.0381 2.96479 0
M  V30 5150 C 497.125 -2.66048 5.28178 0
M  V30 5151 H 496.055 -0.47212 0.587894 0
M  V30 5152 H 498.706 -0.52931 1.757 0
M  V30 5153 H 497.088 -3.03594 2.54257 0
M  V30 5154 H 498.262 -0.958826 4.50714 0
M  V30 5155 H 496.577 -1.02055 4.037 0
M  V30 5156 H 499.174 -3.78925 3.77253 0
M  V30 5157 H 499.517 -3.61235 2.06918 0
M  V30 5158 H 500.05 -2.352 3.20821 0
M  V30 5159 H 496.789 -2.13408 6.19788 0
M  V30 5160 H 496.309 -3.34009 4.98195 0
M  V30 5161 H 497.988 -3.28536 5.57381 0
M  V30 5162 N 498.12 -1.38341 -0.754957 0
M  V30 5163 C 499.083 -1.35262 -1.85032 0
M  V30 5164 C 500.083 -0.253393 -1.58791 0
M  V30 5165 O 501.273 -0.510205 -1.66561 0
M  V30 5166 C 498.405 -1.10544 -3.22479 0
M  V30 5167 H 499.598 -2.32712 -1.8917 0
M  V30 5168 H 497.151 -1.23614 -0.956515 0
M  V30 5169 H 497.886 -0.136952 -3.24011 0
M  V30 5170 H 497.671 -1.90127 -3.4292 0
M  V30 5171 H 499.161 -1.11082 -4.02555 0
M  V30 5172 N 499.598 0.982988 -1.23187 0
M  V30 5173 C 500.508 2.10907 -1.02739 0
M  V30 5174 C 501.524 1.73979 0.0273188 0
M  V30 5175 O 502.7 2.00702 -0.16757 0
M  V30 5176 C 499.765 3.41142 -0.618304 0
M  V30 5177 C 498.826 3.92112 -1.74777 0
M  V30 5178 C 498.059 5.16131 -1.3581 0
M  V30 5179 O 498.282 5.6989 -0.241201 0
M  V30 5180 O 497.216 5.61103 -2.17824 0
M  V30 5181 H 501.042 2.31046 -1.97108 0
M  V30 5182 H 498.627 1.09284 -1.01869 0
M  V30 5183 H 500.509 4.19488 -0.400982 0
M  V30 5184 H 499.184 3.2234 0.296421 0
M  V30 5185 H 498.091 3.14895 -2.0197 0
M  V30 5186 H 499.424 4.15364 -2.64071 0
M  V30 5187 N 501.076 1.04316 1.18135 0
M  V30 5188 C 502.325 0.74319 1.87509 0
M  V30 5189 C 502.638 -0.732136 1.81381 0
M  V30 5190 O 503.844 -1.14572 2.46141 0
M  V30 5191 C 502.3 1.27913 3.36402 0
M  V30 5192 C 501.908 2.78326 3.51053 0
M  V30 5193 C 503.652 1.0558 4.11161 0
M  V30 5194 C 501.559 3.25266 4.93919 0
M  V30 5195 H 500.489 0.274313 0.702331 0
M  V30 5196 H 503.14 1.25931 1.33467 0
M  V30 5197 H 501.522 0.690853 3.89927 0
M  V30 5198 H 502.696 3.42933 3.07788 0
M  V30 5199 H 501.011 2.991 2.89704 0
M  V30 5200 H 503.608 1.38161 5.16542 0
M  V30 5201 H 503.951 -0.00684729 4.16299 0
M  V30 5202 H 504.484 1.60882 3.63816 0
M  V30 5203 H 501.223 4.30922 4.9395 0
M  V30 5204 H 500.743 2.65396 5.3789 0
M  V30 5205 H 502.422 3.19433 5.62647 0
M  V30 5206 N 502.554 -1.34406 0.822964 0
M  V30 5207 C 503.801 -1.98284 0.411057 0
M  V30 5208 C 504.129 -1.65245 -1.02588 0
M  V30 5209 O 503.384 -0.91619 -1.72929 0
M  V30 5210 C 503.683 -3.52981 0.560268 0
M  V30 5211 C 503.349 -4.05931 1.96293 0
M  V30 5212 C 502.011 -4.20103 2.34664 0
M  V30 5213 C 504.363 -4.34412 2.87985 0
M  V30 5214 C 501.691 -4.60082 3.64062 0
M  V30 5215 C 504.043 -4.75838 4.16847 0
M  V30 5216 C 502.707 -4.88215 4.55195 0
M  V30 5217 H 501.977 -0.725573 0.150416 0
M  V30 5218 H 504.624 -1.60349 1.04692 0
M  V30 5219 H 502.929 -3.91477 -0.158982 0
M  V30 5220 H 504.626 -4.00385 0.222087 0
M  V30 5221 H 501.216 -3.95363 1.65487 0
M  V30 5222 H 505.4 -4.23001 2.59584 0
M  V30 5223 H 500.656 -4.67856 3.93599 0
M  V30 5224 H 504.83 -4.96834 4.87984 0
M  V30 5225 H 502.457 -5.18952 5.55512 0
M  V30 5226 N 504.032 -0.577932 -1.46621 0
M  V30 5227 C 505.448 -0.239242 -1.57797 0
M  V30 5228 C 505.648 1.25843 -1.57371 0
M  V30 5229 O 504.704 2.03988 -1.48813 0
M  V30 5230 C 506.017 -0.884227 -2.87405 0
M  V30 5231 C 507.565 -0.857373 -3.01028 0
M  V30 5232 C 508.04 -1.48181 -4.33366 0
M  V30 5233 N 509.531 -1.44593 -4.40053 0
M  V30 5234 C 510.266 -1.89852 -5.41058 0
M  V30 5235 N 509.762 -2.43062 -6.48762 0
M  V30 5236 N 511.555 -1.80797 -5.3223 0
M  V30 5237 H 503.706 -1.55073 -1.45142 0
M  V30 5238 H 505.969 -0.647903 -0.692044 0
M  V30 5239 H 505.675 -1.93759 -2.93514 0
M  V30 5240 H 505.549 -0.389585 -3.75183 0
M  V30 5241 H 507.936 0.187357 -2.94505 0
M  V30 5242 H 508.017 -1.38999 -2.14739 0
M  V30 5243 H 507.661 -2.52572 -4.40647 0
M  V30 5244 H 507.591 -0.924464 -5.18422 0
M  V30 5245 H 510.082 -1.05694 -3.62819 0
M  V30 5246 H 510.395 -2.75466 -7.22038 0
M  V30 5247 H 508.74 -2.47085 -6.49595 0
M  V30 5248 H 511.931 -1.38989 -4.46989 0
M  V30 5249 H 512.104 -2.16385 -6.10804 0
M  V30 5250 N 505.51 1.54411 -0.315457 0
M  V30 5251 C 506.457 2.24048 0.554166 0
M  V30 5252 C 507.427 1.2283 1.11812 0
M  V30 5253 O 508.612 1.51491 1.15997 0
M  V30 5254 C 505.752 2.99574 1.71316 0
M  V30 5255 C 504.865 4.15594 1.17922 0
M  V30 5256 C 504 4.78669 2.30324 0
M  V30 5257 C 503.039 5.86807 1.74137 0
M  V30 5258 N 502.176 6.43777 2.8017 0
M  V30 5259 H 507.016 2.97964 -0.0462602 0
M  V30 5260 H 504.553 1.47059 -0.0346009 0
M  V30 5261 H 506.511 3.41604 2.39505 0
M  V30 5262 H 505.141 2.28008 2.285 0
M  V30 5263 H 504.193 3.78404 0.389136 0
M  V30 5264 H 505.505 4.93459 0.728012 0
M  V30 5265 H 504.659 5.23626 3.06433 0
M  V30 5266 H 503.398 4.00168 2.78778 0
M  V30 5267 H 502.403 5.41261 0.965236 0
M  V30 5268 H 503.628 6.67201 1.2657 0
M  V30 5269 H 501.574 5.68153 3.2793 0
M  V30 5270 H 501.491 7.17031 2.39588 0
M  V30 5271 H 502.759 6.9339 3.56132 0
M  V30 5272 N 506.988 0.0434614 1.5754 0
M  V30 5273 C 508.216 -0.641835 1.96693 0
M  V30 5274 C 508.631 -1.64832 0.920652 0
M  V30 5275 O 507.988 -1.82247 -0.095993 0
M  V30 5276 C 508.039 -1.33557 3.35924 0
M  V30 5277 O 507.76 -0.369403 4.3654 0
M  V30 5278 C 509.261 -2.11135 3.89791 0
M  V30 5279 H 506.481 -0.176013 0.647503 0
M  V30 5280 H 509.025 0.107478 2.04217 0
M  V30 5281 H 507.18 -2.03617 3.29574 0
M  V30 5282 H 507.594 -0.863674 5.1734 0
M  V30 5283 H 509.068 -2.55107 4.89514 0
M  V30 5284 H 509.545 -2.95634 3.24803 0
M  V30 5285 H 510.151 -1.46002 3.99454 0
M  V30 5286 N 508.466 -1.55915 -0.229846 0
M  V30 5287 C 509.429 -1.90914 -1.26824 0
M  V30 5288 C 510.429 -0.786999 -1.40225 0
M  V30 5289 O 511.619 -1.05484 -1.38632 0
M  V30 5290 C 508.751 -2.15264 -2.64337 0
M  V30 5291 H 509.944 -2.8378 -0.969998 0
M  V30 5292 H 507.497 -1.49069 -0.4699 0
M  V30 5293 H 508.232 -1.24923 -2.99274 0
M  V30 5294 H 508.017 -2.97005 -2.55989 0
M  V30 5295 H 509.507 -2.43467 -3.39284 0
M  V30 5296 N 509.944 0.496216 -1.49584 0
M  V30 5297 C 510.874 1.60576 -1.69521 0
M  V30 5298 C 511.855 1.61169 -0.543933 0
M  V30 5299 O 513.04 1.77834 -0.78031 0
M  V30 5300 C 510.17 2.99038 -1.76616 0
M  V30 5301 C 509.124 3.13312 -2.91581 0
M  V30 5302 C 508.45 4.53172 -2.83794 0
M  V30 5303 C 509.75 2.92886 -4.32452 0
M  V30 5304 H 511.444 1.44146 -2.62416 0
M  V30 5305 H 508.99 0.692024 -1.26282 0
M  V30 5306 H 510.943 3.76564 -1.8915 0
M  V30 5307 H 509.667 3.16568 -0.80324 0
M  V30 5308 H 508.326 2.38213 -2.78658 0
M  V30 5309 H 507.974 4.67585 -1.854 0
M  V30 5310 H 507.674 4.63662 -3.60958 0
M  V30 5311 H 509.198 5.32752 -2.98342 0
M  V30 5312 H 510.612 3.60178 -4.46032 0
M  V30 5313 H 509.009 3.14844 -5.10875 0
M  V30 5314 H 510.079 1.88966 -4.46565 0
M  V30 5315 N 511.423 1.38739 0.74761 0
M  V30 5316 C 512.333 1.38696 1.89211 0
M  V30 5317 C 513.349 0.283303 1.71678 0
M  V30 5318 O 514.525 0.522713 1.94498 0
M  V30 5319 C 511.59 1.21662 3.24653 0
M  V30 5320 C 510.651 2.41886 3.54669 0
M  V30 5321 C 509.884 2.25655 4.83648 0
M  V30 5322 O 510.107 1.25339 5.56459 0
M  V30 5323 O 509.041 3.14372 5.13277 0
M  V30 5324 H 512.867 2.35143 1.92202 0
M  V30 5325 H 510.452 1.19721 0.893708 0
M  V30 5326 H 512.334 1.14246 4.05618 0
M  V30 5327 H 511.009 0.283024 3.2246 0
M  V30 5328 H 509.916 2.54877 2.73841 0
M  V30 5329 H 511.249 3.33895 3.61628 0
M  V30 5330 N 512.901 -0.976442 1.23707 0
M  V30 5331 C 514.317 -1.24341 1.00058 0
M  V30 5332 C 514.517 -1.99315 -0.295932 0
M  V30 5333 O 513.573 -2.3123 -1.01435 0
M  V30 5334 C 514.886 -2.03909 2.21001 0
M  V30 5335 C 516.434 -2.17034 2.25534 0
M  V30 5336 C 516.909 -2.99994 3.46075 0
M  V30 5337 N 518.4 -3.07578 3.46338 0
M  V30 5338 C 519.135 -3.72104 4.36264 0
M  V30 5339 N 518.631 -4.3842 5.36432 0
M  V30 5340 N 520.424 -3.69029 4.23998 0
M  V30 5341 H 512.575 -0.47428 2.07037 0
M  V30 5342 H 514.838 -0.272167 0.908091 0
M  V30 5343 H 514.544 -1.56198 3.15111 0
M  V30 5344 H 514.418 -3.04654 2.22409 0
M  V30 5345 H 516.805 -2.63951 1.31961 0
M  V30 5346 H 516.886 -1.15664 2.28156 0
M  V30 5347 H 516.53 -2.53772 4.39957 0
M  V30 5348 H 516.46 -4.01541 3.40694 0
M  V30 5349 H 518.951 -2.60397 2.73865 0
M  V30 5350 H 519.264 -4.85447 6.013 0
M  V30 5351 H 517.609 -4.37116 5.40328 0
M  V30 5352 H 520.8 -3.16392 3.44984 0
M  V30 5353 H 520.973 -4.19034 4.94282 0
M  V30 5354 N 514.379 -1.04941 -1.1758 0
M  V30 5355 C 515.795 -0.770282 -1.39781 0
M  V30 5356 C 515.995 0.636417 -1.91186 0
M  V30 5357 O 515.051 1.39923 -2.10185 0
M  V30 5358 C 516.364 -1.82376 -2.3908 0
M  V30 5359 C 517.912 -1.84569 -2.52791 0
M  V30 5360 C 518.387 -2.88933 -3.55361 0
M  V30 5361 N 519.878 -2.8788 -3.62877 0
M  V30 5362 C 520.613 -3.65282 -4.41992 0
M  V30 5363 N 520.109 -4.52461 -5.24643 0
M  V30 5364 N 521.902 -3.53732 -4.36841 0
M  V30 5365 H 514.053 -1.95705 -0.825438 0
M  V30 5366 H 516.316 -0.847284 -0.425222 0
M  V30 5367 H 516.022 -2.83323 -2.08376 0
M  V30 5368 H 515.896 -1.66327 -3.38549 0
M  V30 5369 H 518.283 -0.842879 -2.82807 0
M  V30 5370 H 518.364 -2.04696 -1.53406 0
M  V30 5371 H 518.008 -3.89398 -3.26085 0
M  V30 5372 H 517.938 -2.66059 -4.54445 0
M  V30 5373 H 520.429 -2.24666 -3.03864 0
M  V30 5374 H 520.742 -5.08211 -5.82187 0
M  V30 5375 H 519.087 -4.56524 -5.24033 0
M  V30 5376 H 522.278 -2.85021 -3.71323 0
M  V30 5377 H 522.451 -4.14302 -4.98255 0
M  V30 5378 N 515.857 1.33968 -0.830081 0
M  V30 5379 C 517.105 1.97672 -0.420734 0
M  V30 5380 C 517.426 1.66111 1.02138 0
M  V30 5381 O 516.696 0.955503 1.71017 0
M  V30 5382 H 515.276 0.73125 -0.152587 0
M  V30 5383 H 517.938 1.63483 -1.0611 0
M  V30 5384 H 517.034 3.07294 -0.545588 0
M  V30 5385 N 517.335 0.585699 1.46312 0
M  V30 5386 C 518.298 -0.135673 2.28798 0
M  V30 5387 C 519.298 -0.815988 1.38558 0
M  V30 5388 O 520.488 -0.667487 1.60904 0
M  V30 5389 C 517.62 -1.20163 3.1902 0
M  V30 5390 H 518.813 0.589257 2.94054 0
M  V30 5391 H 516.366 0.343794 1.52472 0
M  V30 5392 H 517.101 -1.95804 2.58517 0
M  V30 5393 H 516.886 -0.718282 3.85465 0
M  V30 5394 H 518.376 -1.70749 3.81096 0
M  V30 5395 N 518.813 -1.54241 0.323641 0
M  V30 5396 C 519.776 -2.22997 -0.529602 0
M  V30 5397 C 520.776 -1.22345 -1.04347 0
M  V30 5398 O 521.966 -1.46924 -0.935889 0
M  V30 5399 C 519.098 -2.93409 -1.73562 0
M  V30 5400 H 520.291 -2.99815 0.0714518 0
M  V30 5401 H 517.844 -1.56121 0.0747258 0
M  V30 5402 H 518.579 -2.20729 -2.37591 0
M  V30 5403 H 518.364 -3.67217 -1.37456 0
M  V30 5404 H 519.854 -3.45794 -2.34128 0
M  V30 5405 N 520.291 -0.0518155 -1.57515 0
M  V30 5406 C 521.254 0.907547 -2.10467 0
M  V30 5407 C 522.254 1.23947 -1.02439 0
M  V30 5408 O 523.444 1.17604 -1.2851 0
M  V30 5409 C 520.576 2.21723 -2.58944 0
M  V30 5410 H 521.769 0.44851 -2.96527 0
M  V30 5411 H 519.322 0.196598 -1.55059 0
M  V30 5412 H 520.057 2.72206 -1.76279 0
M  V30 5413 H 519.842 1.98935 -3.37886 0
M  V30 5414 H 521.332 2.90441 -3.00056 0
M  V30 5415 N 521.769 1.56035 0.221574 0
M  V30 5416 C 522.994 1.83476 0.967026 0
M  V30 5417 C 523.419 0.632139 1.7716 0
M  V30 5418 O 522.777 -0.419082 1.7639 0
M  V30 5419 C 522.825 3.08907 1.86034 0
M  V30 5420 O 521.929 2.876 2.95567 0
M  V30 5421 H 521.27 0.604913 0.273817 0
M  V30 5422 H 523.8 2.03247 0.234893 0
M  V30 5423 H 523.81 3.3901 2.27016 0
M  V30 5424 H 522.485 3.96068 1.26898 0
M  V30 5425 H 521.062 2.6873 2.58532 0
M  V30 5426 N 523.247 -0.488276 1.49845 0
M  V30 5427 C 524.21 -1.57069 1.66919 0
M  V30 5428 C 525.21 -1.51445 0.540479 0
M  V30 5429 O 526.4 -1.5437 0.807188 0
M  V30 5430 C 523.532 -2.96718 1.67844 0
M  V30 5431 H 524.725 -1.43254 2.63474 0
M  V30 5432 H 522.278 -0.713435 1.39068 0
M  V30 5433 H 523.013 -3.15996 0.7292 0
M  V30 5434 H 522.798 -3.02208 2.49826 0
M  V30 5435 H 524.288 -3.75335 1.83066 0
M  V30 5436 O 524.764 -1.48549 -0.633678 0
M  V30 5437 H 525.455 -1.447 -1.28769 0
M  V30 END ATOM
M  V30 BEGIN BOND
M  V30 END BOND
M  V30 END CTAB
M  END
$$$$
