drugbank_target|Q99497 Protein deglycase DJ-1 (DB09130)
 OpenBabel12092119453D

  0  0  0     0  0            999 V3000
M  V30 BEGIN CTAB
M  V30 COUNTS 2839 2856 0 0 0
M  V30 BEGIN ATOM
M  V30 1 H -0.908 1.98254 -0.117106 0
M  V30 2 N 0 1.576 0 0
M  V30 3 C 0.933 2.03868 1.02534 0
M  V30 4 C 1.911 0.928543 1.3348 0
M  V30 5 O 3.095 1.19667 1.45644 0
M  V30 6 C 0.222 2.43627 2.35294 0
M  V30 7 C -0.732 3.65373 2.2001 0
M  V30 8 S 0.101 5.13292 1.52614 0
M  V30 9 C 1.257 5.56322 2.86805 0
M  V30 10 H 1.49 2.90518 0.631377 0
M  V30 11 H -0.977 1.52953 0.210867 0
M  V30 12 H 0.981 2.67203 3.11629 0
M  V30 13 H -0.358 1.57376 2.7183 0
M  V30 14 H -1.165 3.90944 3.18086 0
M  V30 15 H -1.563 3.418 1.51819 0
M  V30 16 H 0.729 5.58782 3.83104 0
M  V30 17 H 1.672 6.56266 2.65933 0
M  V30 18 H 2.08 4.83886 2.90714 0
M  V30 19 N 1.4781 -0.272755 1.55222 0
M  V30 20 C 2.4411 -1.32041 1.87344 0
M  V30 21 C 3.4411 -1.42342 0.74803 0
M  V30 22 O 4.6311 -1.41488 1.0162 0
M  V30 23 C 1.7631 -2.70173 2.07893 0
M  V30 24 H 2.9561 -1.04789 2.80997 0
M  V30 25 H 0.5091 -0.51083 1.47717 0
M  V30 26 H 1.2441 -3.02605 1.16622 0
M  V30 27 H 1.0291 -2.64082 2.89833 0
M  V30 28 H 2.5191 -3.45869 2.34017 0
M  V30 29 N 2.9562 -1.48159 -0.537278 0
M  V30 30 C 4.1812 -1.59707 -1.32319 0
M  V30 31 C 4.6062 -0.254859 -1.86365 0
M  V30 32 O 3.9642 0.772378 -1.64024 0
M  V30 33 C 4.0122 -2.6412 -2.45505 0
M  V30 34 O 3.1162 -2.20774 -3.48328 0
M  V30 35 H 2.4572 -0.535791 -0.392204 0
M  V30 36 H 4.9872 -1.94092 -0.647268 0
M  V30 37 H 4.9972 -2.85166 -2.91795 0
M  V30 38 H 3.6722 -3.61567 -2.05528 0
M  V30 39 H 2.2492 -2.09911 -3.08207 0
M  V30 40 N 4.4343 0.785586 -1.36625 0
M  V30 41 C 5.3813 1.89838 -1.31264 0
M  V30 42 C 6.3513 1.65115 -0.180633 0
M  V30 43 O 7.5363 1.87222 -0.36777 0
M  V30 44 C 4.6763 3.26706 -1.11163 0
M  V30 45 C 3.7893 3.63476 -2.33472 0
M  V30 46 C 2.9243 4.89481 -2.06353 0
M  V30 47 C 1.9633 5.18941 -3.24602 0
M  V30 48 N 1.1003 6.36131 -2.97123 0
M  V30 49 H 5.9403 1.93756 -2.26413 0
M  V30 50 H 3.4773 0.947454 -1.12524 0
M  V30 51 H 5.4353 4.05639 -0.975337 0
M  V30 52 H 4.0653 3.222 -0.196674 0
M  V30 53 H 3.1173 2.79636 -2.57891 0
M  V30 54 H 4.4293 3.81193 -3.21704 0
M  V30 55 H 3.5833 5.76288 -1.89675 0
M  V30 56 H 2.3223 4.73841 -1.15437 0
M  V30 57 H 1.3273 4.30615 -3.41834 0
M  V30 58 H 2.5523 5.36498 -4.16349 0
M  V30 59 H 0.4983 6.21875 -2.08823 0
M  V30 60 H 0.4153 6.54198 -3.78894 0
M  V30 61 H 1.6833 7.2591 -2.84033 0
M  V30 62 N 5.9124 1.20967 1.01018 0
M  V30 63 C 7.3284 0.965905 1.27053 0
M  V30 64 C 7.5284 -0.350785 1.98423 0
M  V30 65 O 6.5844 -1.07773 2.28344 0
M  V30 66 C 7.8974 2.15294 2.09926 0
M  V30 67 C 9.4454 2.19463 2.23171 0
M  V30 68 C 9.9204 3.3767 3.09424 0
M  V30 69 N 11.4114 3.37724 3.17012 0
M  V30 70 C 12.1464 4.25837 3.83993 0
M  V30 71 N 11.6424 5.24138 4.53047 0
M  V30 72 N 13.4354 4.1366 3.80581 0
M  V30 73 H 5.5864 2.0565 0.531194 0
M  V30 74 H 7.8494 0.90024 0.297106 0
M  V30 75 H 7.5554 3.10684 1.64828 0
M  V30 76 H 7.4294 2.13923 3.10672 0
M  V30 77 H 9.8164 1.24632 2.6749 0
M  V30 78 H 9.8974 2.2488 1.21912 0
M  V30 79 H 9.5414 4.32791 2.65808 0
M  V30 80 H 9.4714 3.29491 4.10784 0
M  V30 81 H 11.9624 2.6658 2.6785 0
M  V30 82 H 12.2754 5.87684 5.01844 0
M  V30 83 H 10.6204 5.28068 4.5185 0
M  V30 84 H 13.8114 3.36127 3.25785 0
M  V30 85 H 13.9844 4.82538 4.32505 0
M  V30 86 N 7.3905 -1.2043 1.01659 0
M  V30 87 C 8.3535 -2.21433 0.591616 0
M  V30 88 C 9.3535 -1.57203 -0.338226 0
M  V30 89 O 10.5435 -1.73737 -0.126918 0
M  V30 90 C 7.6755 -3.40628 -0.136058 0
M  V30 91 H 8.8685 -2.60545 1.48514 0
M  V30 92 H 6.4215 -1.33893 0.806379 0
M  V30 93 H 7.1565 -3.07019 -1.04449 0
M  V30 94 H 6.9415 -3.88475 0.531917 0
M  V30 95 H 8.4315 -4.15475 -0.420735 0
M  V30 96 N 8.8686 -0.792821 -1.36206 0
M  V30 97 C 9.7986 -0.207853 -2.32573 0
M  V30 98 C 10.7796 0.659055 -1.56813 0
M  V30 99 O 11.9646 0.592176 -1.84951 0
M  V30 100 C 9.0946 0.655449 -3.41059 0
M  V30 101 C 8.0486 -0.111842 -4.27854 0
M  V30 102 C 7.3746 0.872274 -5.27537 0
M  V30 103 C 8.6746 -1.30299 -5.05786 0
M  V30 104 H 10.3686 -1.01294 -2.81744 0
M  V30 105 H 7.9146 -0.48854 -1.3546 0
M  V30 106 H 9.8676 1.07464 -4.07467 0
M  V30 107 H 8.5916 1.49328 -2.90463 0
M  V30 108 H 7.2506 -0.512053 -3.63006 0
M  V30 109 H 6.8986 1.70523 -4.73214 0
M  V30 110 H 6.5986 0.363291 -5.86476 0
M  V30 111 H 8.1226 1.28996 -5.96818 0
M  V30 112 H 9.5366 -0.959379 -5.65216 0
M  V30 113 H 7.9336 -1.7455 -5.74154 0
M  V30 114 H 9.0036 -2.09663 -4.37229 0
M  V30 115 N 10.3467 1.47872 -0.545128 0
M  V30 116 C 11.5927 2.02793 -0.0166104 0
M  V30 117 C 11.9257 1.41987 1.32489 0
M  V30 118 O 11.2007 0.571045 1.85928 0
M  V30 119 C 11.4837 3.59989 0.0893294 0
M  V30 120 C 11.3367 4.3125 -1.27841 0
M  V30 121 C 12.6557 4.32606 0.808724 0
M  V30 122 H 9.7747 0.736962 -0.00751035 0
M  V30 123 H 12.4167 1.76433 -0.705085 0
M  V30 124 H 10.5667 3.82579 0.675681 0
M  V30 125 H 12.2387 4.20035 -1.90704 0
M  V30 126 H 10.4817 3.92076 -1.85632 0
M  V30 127 H 11.1527 5.39736 -1.15713 0
M  V30 128 H 13.6287 4.14936 0.310992 0
M  V30 129 H 12.5047 5.42251 0.851782 0
M  V30 130 H 12.7657 4.00963 1.86229 0
M  V30 131 N 11.8248 0.280983 1.55075 0
M  V30 132 C 13.0738 -0.334784 1.98902 0
M  V30 133 C 13.3868 -1.56534 1.17288 0
M  V30 134 O 14.5928 -2.25443 1.51287 0
M  V30 135 C 13.0488 -0.646994 3.54037 0
M  V30 136 C 12.6568 0.564085 4.44435 0
M  V30 137 C 14.4008 -1.22506 4.06439 0
M  V30 138 C 12.3078 0.226137 5.90967 0
M  V30 139 H 11.2378 -0.128866 0.742906 0
M  V30 140 H 13.8888 0.386556 1.79382 0
M  V30 141 H 12.2708 -1.42739 3.6938 0
M  V30 142 H 13.4448 1.34082 4.40861 0
M  V30 143 H 11.7598 1.0594 4.02698 0
M  V30 144 H 14.3568 -1.49182 5.13468 0
M  V30 145 H 14.6998 -2.16085 3.55827 0
M  V30 146 H 15.2328 -0.50682 3.94558 0
M  V30 147 H 11.9718 1.12996 6.45687 0
M  V30 148 H 11.4918 -0.513717 5.97596 0
M  V30 149 H 13.1708 -0.179539 6.46751 0
M  V30 150 N 13.3029 -1.57598 0.00835791 0
M  V30 151 C 14.2329 -2.1198 -0.979113 0
M  V30 152 C 15.2139 -1.03091 -1.35301 0
M  V30 153 O 16.3989 -1.30818 -1.43528 0
M  V30 154 C 13.5289 -2.62995 -2.26828 0
M  V30 155 C 12.4829 -3.76485 -2.03576 0
M  V30 156 C 11.8089 -4.13846 -3.38579 0
M  V30 157 C 13.1089 -5.0342 -1.39161 0
M  V30 158 H 14.8029 -2.94738 -0.526281 0
M  V30 159 H 12.3489 -1.41783 -0.251704 0
M  V30 160 H 14.3019 -2.99669 -2.96271 0
M  V30 161 H 13.0259 -1.7737 -2.7424 0
M  V30 162 H 11.6849 -3.40217 -1.36557 0
M  V30 163 H 11.3329 -3.25232 -3.83709 0
M  V30 164 H 11.0329 -4.90312 -3.23834 0
M  V30 165 H 12.5569 -4.53086 -4.09323 0
M  V30 166 H 13.9709 -5.37812 -1.98573 0
M  V30 167 H 12.3679 -5.84746 -1.34878 0
M  V30 168 H 13.4379 -4.83548 -0.361868 0
M  V30 169 N 14.781 0.264519 -1.55364 0
M  V30 170 C 15.744 1.31046 -1.88042 0
M  V30 171 C 16.744 1.41943 -0.755569 0
M  V30 172 O 17.934 1.40947 -1.02369 0
M  V30 173 C 15.066 2.69067 -2.09323 0
M  V30 174 H 16.259 1.03297 -2.81549 0
M  V30 175 H 13.812 0.502989 -1.47986 0
M  V30 176 H 14.547 3.01982 -1.18226 0
M  V30 177 H 14.332 2.62542 -2.91229 0
M  V30 178 H 15.822 3.44623 -2.35848 0
M  V30 179 N 16.2591 1.48442 0.529413 0
M  V30 180 C 17.2061 1.63007 1.63394 0
M  V30 181 C 18.1761 0.47212 1.59249 0
M  V30 182 O 19.3611 0.695673 1.77666 0
M  V30 183 C 16.5011 1.6763 3.01653 0
M  V30 184 C 15.6141 2.94535 3.16027 0
M  V30 185 C 14.7491 2.90316 4.44849 0
M  V30 186 C 13.7881 4.11923 4.52754 0
M  V30 187 N 12.9251 4.05777 5.72965 0
M  V30 188 H 17.7651 2.5733 1.50285 0
M  V30 189 H 15.3021 1.27613 0.731656 0
M  V30 190 H 17.2601 1.68292 3.81751 0
M  V30 191 H 15.8901 0.76797 3.13532 0
M  V30 192 H 14.9421 3.03615 2.29177 0
M  V30 193 H 16.2541 3.84512 3.17729 0
M  V30 194 H 15.4081 2.89382 5.33238 0
M  V30 195 H 14.1471 1.98068 4.45668 0
M  V30 196 H 13.1521 4.13131 3.62771 0
M  V30 197 H 14.3771 5.0533 4.53672 0
M  V30 198 H 12.3231 3.16351 5.74681 0
M  V30 199 H 12.2401 4.8946 5.76164 0
M  V30 200 H 13.5081 4.08904 6.6364 0
M  V30 201 N 17.7372 -0.778329 1.37039 0
M  V30 202 C 18.9852 -1.53361 1.31623 0
M  V30 203 C 19.3062 -1.94739 -0.100831 0
M  V30 204 O 18.5762 -1.65797 -1.04347 0
M  V30 205 H 17.1562 -0.568794 0.484234 0
M  V30 206 H 19.8182 -0.926742 1.71457 0
M  V30 207 H 18.9142 -2.43606 1.95096 0
M  V30 208 N 19.2153 -1.21501 -1.00376 0
M  V30 209 C 20.1783 -0.976927 -2.07337 0
M  V30 210 C 21.1783 0.0525322 -1.60714 0
M  V30 211 O 22.3683 -0.184869 -1.73216 0
M  V30 212 C 19.5003 -0.473423 -3.37597 0
M  V30 213 H 20.6933 -1.92587 -2.29892 0
M  V30 214 H 18.2463 -1.03217 -1.17371 0
M  V30 215 H 18.9813 0.480379 -3.20722 0
M  V30 216 H 18.7663 -1.216 -3.72768 0
M  V30 217 H 20.2563 -0.32675 -4.1632 0
M  V30 218 N 20.6934 1.19889 -1.02296 0
M  V30 219 C 21.6034 2.26571 -0.608508 0
M  V30 220 C 22.6194 1.70299 0.356964 0
M  V30 221 O 23.7954 2.00235 0.216326 0
M  V30 222 C 20.8604 3.46677 0.0402814 0
M  V30 223 C 19.9214 4.18153 -0.97194 0
M  V30 224 C 19.1544 5.32525 -0.354016 0
M  V30 225 O 19.3774 5.64112 0.844604 0
M  V30 226 O 18.3114 5.92242 -1.07391 0
M  V30 227 H 22.1374 2.64251 -1.49684 0
M  V30 228 H 19.7224 1.26629 -0.792809 0
M  V30 229 H 21.6044 4.19475 0.402324 0
M  V30 230 H 20.2794 3.10858 0.902707 0
M  V30 231 H 19.1864 3.47499 -1.38546 0
M  V30 232 H 20.5194 4.57927 -1.80454 0
M  V30 233 N 22.1715 0.800033 1.35784 0
M  V30 234 C 23.0815 0.207204 2.33683 0
M  V30 235 C 24.0975 -0.64631 1.61551 0
M  V30 236 O 25.2735 -0.559604 1.93469 0
M  V30 237 C 22.3385 -0.639659 3.40748 0
M  V30 238 C 21.3995 0.233585 4.28664 0
M  V30 239 C 20.6325 -0.572954 5.30616 0
M  V30 240 O 20.8555 -1.80816 5.40982 0
M  V30 241 O 19.7895 0.0327285 6.01891 0
M  V30 242 H 23.6155 1.01692 2.86169 0
M  V30 243 H 21.2005 0.561691 1.38439 0
M  V30 244 H 23.0825 -1.12223 4.06182 0
M  V30 245 H 21.7575 -1.42708 2.90544 0
M  V30 246 H 20.6645 0.763147 3.66233 0
M  V30 247 H 21.9975 0.984784 4.82248 0
M  V30 248 N 23.6496 -1.47581 0.552962 0
M  V30 249 C 24.5826 -2.26883 -0.244857 0
M  V30 250 C 25.5606 -1.33784 -0.924147 0
M  V30 251 O 26.7446 -1.6316 -0.943981 0
M  V30 252 C 23.8716 -3.10695 -1.34856 0
M  V30 253 C 22.9176 -4.19339 -0.778268 0
M  V30 254 S 23.7506 -5.34207 0.37184 0
M  V30 255 C 24.9066 -6.21584 -0.733779 0
M  V30 256 H 25.1396 -2.94202 0.428087 0
M  V30 257 H 22.6726 -1.50628 0.339197 0
M  V30 258 H 24.6306 -3.59555 -1.98066 0
M  V30 259 H 23.2916 -2.42746 -1.99332 0
M  V30 260 H 22.4846 -4.77695 -1.60696 0
M  V30 261 H 22.0866 -3.73338 -0.222422 0
M  V30 262 H 24.3786 -6.57676 -1.62692 0
M  V30 263 H 25.3216 -7.07851 -0.187668 0
M  V30 264 H 25.7296 -5.55125 -1.02454 0
M  V30 265 N 25.1277 -0.289203 -1.54924 0
M  V30 266 C 26.0377 0.601863 -2.26748 0
M  V30 267 C 27.0537 1.15834 -1.2984 0
M  V30 268 O 28.2297 1.18564 -1.62802 0
M  V30 269 C 25.2947 1.76299 -2.98529 0
M  V30 270 C 24.3557 1.24178 -4.10948 0
M  V30 271 C 23.5887 2.34757 -4.79296 0
M  V30 272 O 23.8117 3.54411 -4.46933 0
M  V30 273 O 22.7457 2.02115 -5.66951 0
M  V30 274 H 26.5717 0.0195879 -3.03694 0
M  V30 275 H 24.1567 -0.0560868 -1.49295 0
M  V30 276 H 26.0387 2.43973 -3.43592 0
M  V30 277 H 24.7137 2.33209 -2.24488 0
M  V30 278 H 23.6207 0.531104 -3.70311 0
M  V30 279 H 24.9537 0.718252 -4.86931 0
M  V30 280 N 26.6058 1.57591 -0.0167156 0
M  V30 281 C 27.8338 1.95575 0.675128 0
M  V30 282 C 28.2488 0.892542 1.6637 0
M  V30 283 O 27.6058 -0.126912 1.82058 0
M  V30 284 C 27.6568 3.33608 1.39239 0
M  V30 285 O 27.3778 4.3585 0.443444 0
M  V30 286 C 28.8788 3.86151 2.17721 0
M  V30 287 H 26.0988 0.644423 0.186978 0
M  V30 288 H 28.6428 2.0437 -0.0728 0
M  V30 289 H 26.7978 3.2607 2.09182 0
M  V30 290 H 27.2118 5.158 0.951358 0
M  V30 291 H 28.6858 4.85114 2.63379 0
M  V30 292 H 29.1628 3.19738 3.01105 0
M  V30 293 H 29.7688 3.96918 1.52761 0
M  V30 294 N 28.0839 -0.256276 1.55502 0
M  V30 295 C 29.3299 -0.987079 1.77157 0
M  V30 296 C 29.6629 -1.85327 0.580315 0
M  V30 297 O 28.9379 -1.89874 -0.421686 0
M  V30 298 C 29.2209 -1.85553 3.08613 0
M  V30 299 C 29.0739 -1.01816 4.38125 0
M  V30 300 C 30.3929 -2.8397 3.36228 0
M  V30 301 H 27.5119 -0.357428 0.644526 0
M  V30 302 H 30.1539 -0.258239 1.88237 0
M  V30 303 H 28.3039 -2.47695 2.99298 0
M  V30 304 H 29.9759 -0.416159 4.59419 0
M  V30 305 H 28.2189 -0.322178 4.32602 0
M  V30 306 H 28.8899 -1.65939 5.26468 0
M  V30 307 H 31.3659 -2.31964 3.45445 0
M  V30 308 H 30.2419 -3.41864 4.29442 0
M  V30 309 H 30.5029 -3.59955 2.56681 0
M  V30 310 N 29.562 -1.4872 -0.521534 0
M  V30 311 C 30.811 -1.56419 -1.27341 0
M  V30 312 C 31.124 -0.246805 -1.94037 0
M  V30 313 O 32.33 -0.202122 -2.70747 0
M  V30 314 C 30.786 -2.75896 -2.31105 0
M  V30 315 C 30.394 -4.14311 -1.70441 0
M  V30 316 C 32.138 -2.92913 -3.07249 0
M  V30 317 C 30.045 -5.25038 -2.72194 0
M  V30 318 H 28.975 -0.582344 -0.478949 0
M  V30 319 H 31.626 -1.75071 -0.549779 0
M  V30 320 H 30.008 -2.50697 -3.06541 0
M  V30 321 H 31.182 -4.49564 -1.01136 0
M  V30 322 H 29.497 -4.02482 -1.06759 0
M  V30 323 H 32.094 -3.72805 -3.83302 0
M  V30 324 H 32.437 -2.02689 -3.63625 0
M  V30 325 H 32.97 -3.18054 -2.38928 0
M  V30 326 H 29.709 -6.17255 -2.20627 0
M  V30 327 H 29.229 -4.94263 -3.39801 0
M  V30 328 H 30.908 -5.53508 -3.35019 0
M  V30 329 N 31.0401 0.771051 -1.3745 0
M  V30 330 C 32.4511 1.34737 -1.29239 0
M  V30 331 C 32.8021 1.96109 0.0596908 0
M  V30 332 O 31.9271 1.93865 0.961534 0
M  V30 333 C 32.5221 2.44973 -2.34037 0
M  V30 334 C 31.0811 2.98372 -2.29458 0
M  V30 335 C 30.2281 1.71595 -2.17831 0
M  V30 336 H 33.1791 0.571256 -1.48062 0
M  V30 337 H 33.2001 3.24471 -1.98744 0
M  V30 338 H 32.7121 2.00276 -3.32432 0
M  V30 339 H 30.8131 3.47443 -1.34589 0
M  V30 340 H 30.9261 3.53939 -3.229 0
M  V30 341 H 29.2901 1.94547 -1.64388 0
M  V30 342 H 30.0731 1.29001 -3.18141 0
M  V30 343 N 32.5182 1.22032 0.997298 0
M  V30 344 C 33.7642 1.04376 1.73878 0
M  V30 345 C 34.0972 -0.420716 1.89588 0
M  V30 346 O 33.3722 -1.31202 1.43583 0
M  V30 347 C 33.6552 1.75047 3.14691 0
M  V30 348 C 33.5082 3.29062 3.06656 0
M  V30 349 C 34.8272 1.49928 4.13775 0
M  V30 350 H 31.9462 0.380578 0.631133 0
M  V30 351 H 34.5882 1.50312 1.16217 0
M  V30 352 H 32.7382 1.35996 3.63919 0
M  V30 353 H 34.4102 3.7753 2.65083 0
M  V30 354 H 32.6532 3.58967 2.43568 0
M  V30 355 H 33.3242 3.73683 4.06282 0
M  V30 356 H 35.8002 1.83842 3.73285 0
M  V30 357 H 34.6762 2.01878 5.10428 0
M  V30 358 H 34.9372 0.430929 4.39995 0
M  V30 359 N 33.9963 -1.19345 1.0293 0
M  V30 360 C 35.2733 -1.84811 0.640642 0
M  V30 361 C 35.6533 -1.91855 -0.88062 0
M  V30 362 O 35.0013 -1.43587 -1.7775 0
M  V30 363 C 35.2113 -3.23755 1.30321 0
M  V30 364 C 36.5593 -3.99912 1.42673 0
M  V30 365 O 37.5833 -3.33155 1.26041 0
M  V30 366 O 36.4423 -5.19494 1.6967 0
M  V30 367 H 33.5363 -0.796443 0.222726 0
M  V30 368 H 36.0823 -1.26831 1.12748 0
M  V30 369 H 34.8543 -3.13466 2.34211 0
M  V30 370 H 34.4773 -3.89381 0.804261 0
M  V30 371 N 35.4744 -0.807222 -1.35358 0
M  V30 372 C 36.7204 -0.388463 -1.99045 0
M  V30 373 C 37.0534 1.04184 -1.63888 0
M  V30 374 O 36.3284 1.72292 -0.902535 0
M  V30 375 C 36.6114 -0.572783 -3.55515 0
M  V30 376 C 36.4644 -2.04807 -4.00468 0
M  V30 377 C 37.7834 0.00114064 -4.401 0
M  V30 378 H 34.9024 -0.142619 -0.723069 0
M  V30 379 H 37.5444 -1.01687 -1.60498 0
M  V30 380 H 35.6944 -0.0378425 -3.88482 0
M  V30 381 H 37.3664 -2.64544 -3.77908 0
M  V30 382 H 35.6094 -2.54427 -3.51353 0
M  V30 383 H 36.2804 -2.12792 -5.09337 0
M  V30 384 H 38.7564 -0.455716 -4.13597 0
M  V30 385 H 37.6324 -0.157737 -5.48673 0
M  V30 386 H 37.8934 1.09488 -4.28328 0
M  V30 387 N 36.9525 1.47285 -0.560781 0
M  V30 388 C 37.8855 2.27009 0.232821 0
M  V30 389 C 38.8635 1.34273 0.917039 0
M  V30 390 O 40.0475 1.63659 0.935315 0
M  V30 391 C 37.1745 3.11406 1.33206 0
M  V30 392 C 36.2205 4.19746 0.756019 0
M  V30 393 S 37.0535 5.34003 -0.400165 0
M  V30 394 C 38.2095 6.21964 0.700805 0
M  V30 395 H 38.4425 2.93971 -0.443683 0
M  V30 396 H 35.9755 1.50446 -0.347181 0
M  V30 397 H 37.9335 3.60601 1.96156 0
M  V30 398 H 36.5945 2.438 1.98041 0
M  V30 399 H 35.7875 4.78541 1.5816 0
M  V30 400 H 35.3895 3.73451 0.202619 0
M  V30 401 H 37.6815 6.58529 1.59202 0
M  V30 402 H 38.6245 7.07941 0.150126 0
M  V30 403 H 39.0325 5.5566 0.995083 0
M  V30 404 N 38.4306 0.297415 1.54768 0
M  V30 405 C 39.8466 -0.0560823 1.59501 0
M  V30 406 C 40.0466 -1.52725 1.31444 0
M  V30 407 O 39.1026 -2.27947 1.08611 0
M  V30 408 C 40.4156 0.338631 2.98787 0
M  V30 409 C 41.9636 0.287097 3.11681 0
M  V30 410 C 42.4386 0.656579 4.53269 0
M  V30 411 N 43.9296 0.608977 4.59179 0
M  V30 412 C 44.6646 0.867385 5.66802 0
M  V30 413 N 44.1606 1.19157 6.82476 0
M  V30 414 N 45.9536 0.794687 5.56454 0
M  V30 415 H 38.1046 1.25624 1.71267 0
M  V30 416 H 40.3676 0.509057 0.799728 0
M  V30 417 H 40.0736 1.36263 3.2423 0
M  V30 418 H 39.9476 -0.309508 3.75928 0
M  V30 419 H 42.3346 -0.727649 2.85988 0
M  V30 420 H 42.4156 0.969809 2.36703 0
M  V30 421 H 42.0596 1.66912 4.7969 0
M  V30 422 H 41.9896 -0.0481649 5.26578 0
M  V30 423 H 44.4806 0.369198 3.76092 0
M  V30 424 H 44.7936 1.37482 7.60473 0
M  V30 425 H 43.1386 1.22958 6.84037 0
M  V30 426 H 46.3296 0.541098 4.64962 0
M  V30 427 H 46.5026 0.999445 6.40246 0
M  V30 428 N 39.9087 -1.5758 0.0250728 0
M  V30 429 C 41.3247 -1.56124 -0.331282 0
M  V30 430 C 41.5247 -1.03029 -1.73169 0
M  V30 431 O 40.5807 -0.675215 -2.43305 0
M  V30 432 C 41.8937 -3.00139 -0.183584 0
M  V30 433 C 43.4417 -3.11946 -0.256654 0
M  V30 434 C 43.9167 -4.57793 -0.137792 0
M  V30 435 N 45.4077 -4.6279 -0.194904 0
M  V30 436 C 46.1427 -5.7326 -0.126655 0
M  V30 437 N 45.6387 -6.928 -0.00755288 0
M  V30 438 N 47.4317 -5.61811 -0.180348 0
M  V30 439 H 39.5827 -1.90424 0.94087 0
M  V30 440 H 41.8457 -0.875761 0.362968 0
M  V30 441 H 41.5517 -3.4292 0.780927 0
M  V30 442 H 41.4257 -3.64899 -0.955448 0
M  V30 443 H 43.8127 -2.69079 -1.21162 0
M  V30 444 H 43.8937 -2.49915 0.545517 0
M  V30 445 H 43.5377 -5.01339 0.813739 0
M  V30 446 H 43.4677 -5.17798 -0.958775 0
M  V30 447 H 45.9587 -3.76807 -0.287267 0
M  V30 448 H 46.2717 -7.72791 0.0379428 0
M  V30 449 H 44.6167 -6.94995 0.0271731 0
M  V30 450 H 47.8077 -4.6731 -0.271767 0
M  V30 451 H 47.9807 -6.47882 -0.123697 0
M  V30 452 N 41.3868 0.248026 -1.55636 0
M  V30 453 C 42.3498 1.29044 -1.89421 0
M  V30 454 C 43.3498 1.41134 -0.770581 0
M  V30 455 O 44.5398 1.39854 -1.03858 0
M  V30 456 C 41.6718 2.66831 -2.12165 0
M  V30 457 H 42.8648 1.00305 -2.82629 0
M  V30 458 H 40.4178 0.487265 -1.48511 0
M  V30 459 H 41.1528 3.00711 -1.21422 0
M  V30 460 H 40.9378 2.59438 -2.93997 0
M  V30 461 H 42.4278 3.42103 -2.3949 0
M  V30 462 N 42.8649 1.48995 0.513639 0
M  V30 463 C 44.1129 1.57531 1.26604 0
M  V30 464 C 44.4339 0.258236 1.93283 0
M  V30 465 O 43.7039 -0.721502 1.8213 0
M  V30 466 H 42.2839 0.580387 0.470276 0
M  V30 467 H 44.9459 1.85552 0.596373 0
M  V30 468 H 44.0419 2.36486 2.03669 0
M  V30 469 N 44.343 -0.763751 1.37857 0
M  V30 470 C 45.592 -1.51789 1.32827 0
M  V30 471 C 45.905 -1.95426 -0.0823719 0
M  V30 472 O 47.111 -2.70298 -0.255172 0
M  V30 473 C 45.567 -2.74133 2.33193 0
M  V30 474 C 45.175 -2.37562 3.79827 0
M  V30 475 C 46.919 -3.52054 2.37188 0
M  V30 476 C 44.826 -3.56456 4.71904 0
M  V30 477 H 43.756 -0.569896 0.493695 0
M  V30 478 H 46.407 -0.835822 1.63359 0
M  V30 479 H 44.789 -3.4427 1.9569 0
M  V30 480 H 45.963 -1.75157 4.26212 0
M  V30 481 H 44.278 -1.72798 3.78853 0
M  V30 482 H 46.875 -4.40437 3.03182 0
M  V30 483 H 47.218 -3.92486 1.38782 0
M  V30 484 H 47.751 -2.88921 2.7344 0
M  V30 485 H 44.49 -3.21099 5.71468 0
M  V30 486 H 44.01 -4.17938 4.30218 0
M  V30 487 H 45.689 -4.23168 4.89426 0
M  V30 488 N 45.8211 -1.22559 -0.990812 0
M  V30 489 C 46.7681 -0.997519 -2.0813 0
M  V30 490 C 47.7381 0.0814702 -1.659 0
M  V30 491 O 48.9231 -0.0685424 -1.90677 0
M  V30 492 C 46.0631 -0.583615 -3.40129 0
M  V30 493 C 45.1761 -1.7336 -3.9569 0
M  V30 494 C 44.3111 -1.26748 -5.15857 0
M  V30 495 C 43.3501 -2.38888 -5.63559 0
M  V30 496 N 42.4871 -1.93308 -6.74964 0
M  V30 497 H 47.3271 -1.93099 -2.26973 0
M  V30 498 H 44.8641 -0.962114 -1.11273 0
M  V30 499 H 46.8221 -0.324801 -4.15934 0
M  V30 500 H 45.4521 0.312845 -3.2128 0
M  V30 501 H 44.5041 -2.10669 -3.16738 0
M  V30 502 H 45.8161 -2.57704 -4.27071 0
M  V30 503 H 44.9701 -0.966173 -5.98957 0
M  V30 504 H 43.7091 -0.394272 -4.86104 0
M  V30 505 H 42.7141 -2.69805 -4.79046 0
M  V30 506 H 43.9391 -3.26728 -5.95336 0
M  V30 507 H 41.8851 -1.08352 -6.4699 0
M  V30 508 H 41.8021 -2.71217 -7.05675 0
M  V30 509 H 43.0701 -1.66252 -7.61564 0
M  V30 510 N 47.2992 1.18797 -1.03562 0
M  V30 511 C 48.5452 1.8893 -0.737113 0
M  V30 512 C 48.8782 1.79837 0.732956 0
M  V30 513 O 48.1532 1.19525 1.5344 0
M  V30 514 C 48.4362 3.39607 -1.19745 0
M  V30 515 C 48.2892 3.57537 -2.72924 0
M  V30 516 C 49.6082 4.33069 -0.783526 0
M  V30 517 H 46.7272 0.686057 -0.269249 0
M  V30 518 H 49.3692 1.39797 -1.28673 0
M  V30 519 H 47.5192 3.81583 -0.729855 0
M  V30 520 H 49.1912 3.24688 -3.27682 0
M  V30 521 H 47.4342 3.00363 -3.12993 0
M  V30 522 H 48.1052 4.63238 -3.00191 0
M  V30 523 H 50.5812 3.98846 -1.18581 0
M  V30 524 H 49.4572 5.3707 -1.13343 0
M  V30 525 H 49.7182 4.40986 0.313681 0
M  V30 526 N 48.7773 0.814389 1.34928 0
M  V30 527 C 50.0053 0.411136 2.02774 0
M  V30 528 C 50.4203 -0.980316 1.61354 0
M  V30 529 O 49.7773 -1.63299 0.814847 0
M  V30 530 C 49.8283 0.493865 3.58111 0
M  V30 531 O 49.5493 1.83047 3.98027 0
M  V30 532 C 51.0503 0.0844174 4.4322 0
M  V30 533 H 48.2703 0.166037 0.650133 0
M  V30 534 H 50.8143 1.10018 1.72384 0
M  V30 535 H 48.9693 -0.147006 3.87121 0
M  V30 536 H 49.3833 1.79872 4.92693 0
M  V30 537 H 50.8573 0.193404 5.51661 0
M  V30 538 H 51.3343 -0.97113 4.28329 0
M  V30 539 H 51.9403 0.69875 4.19521 0
M  V30 540 N 50.2554 -1.46986 0.568584 0
M  V30 541 C 51.5014 -2.02741 0.0488709 0
M  V30 542 C 51.8344 -1.44077 -1.30214 0
M  V30 543 O 51.1094 -0.600552 -1.84996 0
M  V30 544 C 51.3924 -3.60086 -0.032047 0
M  V30 545 C 51.2454 -4.29162 1.34686 0
M  V30 546 C 52.5644 -4.33838 -0.739798 0
M  V30 547 H 49.6834 -0.736749 0.0192338 0
M  V30 548 H 52.3254 -1.75289 0.733065 0
M  V30 549 H 50.4754 -3.83606 -0.61473 0
M  V30 550 H 52.1474 -4.16948 1.97362 0
M  V30 551 H 50.3904 -3.89073 1.91846 0
M  V30 552 H 51.0614 -5.37826 1.24285 0
M  V30 553 H 53.5374 -4.15378 -0.244939 0
M  V30 554 H 52.4134 -5.43537 -0.765406 0
M  V30 555 H 52.6744 -4.03875 -1.79827 0
M  V30 556 N 51.7335 -0.305618 -1.54608 0
M  V30 557 C 52.6965 0.555591 -2.22364 0
M  V30 558 C 53.6965 1.05768 -1.21119 0
M  V30 559 O 54.8865 0.952972 -1.45822 0
M  V30 560 C 52.0185 1.76974 -2.91364 0
M  V30 561 H 53.2115 -0.0364572 -2.99878 0
M  V30 562 H 50.7645 -0.0565007 -1.56198 0
M  V30 563 H 51.4995 2.40151 -2.17941 0
M  V30 564 H 51.2845 1.41732 -3.65588 0
M  V30 565 H 52.7745 2.38148 -3.43038 0
M  V30 566 N 53.2116 1.57565 -0.0334293 0
M  V30 567 C 54.4596 1.91598 0.642999 0
M  V30 568 C 54.7806 0.910847 1.7242 0
M  V30 569 O 54.0506 -0.0469931 1.95844 0
M  V30 570 H 52.6306 0.707228 0.240496 0
M  V30 571 H 55.2926 1.94726 -0.0822488 0
M  V30 572 H 54.3886 2.92336 1.09298 0
M  V30 573 N 54.6897 -0.239769 1.55765 0
M  V30 574 C 55.6197 -1.30052 1.9393 0
M  V30 575 C 56.6007 -1.49839 0.805132 0
M  V30 576 O 57.7857 -1.62328 1.06599 0
M  V30 577 C 54.9157 -2.65391 2.2402 0
M  V30 578 C 53.8697 -2.60289 3.39755 0
M  V30 579 C 53.1957 -3.99489 3.55405 0
M  V30 580 C 54.4957 -2.16654 4.75246 0
M  V30 581 H 56.1897 -0.983573 2.82783 0
M  V30 582 H 53.7357 -0.471701 1.36055 0
M  V30 583 H 55.6887 -3.3974 2.49308 0
M  V30 584 H 54.4127 -2.98736 1.32 0
M  V30 585 H 53.0717 -1.88398 3.14487 0
M  V30 586 H 52.7197 -4.30112 2.60793 0
M  V30 587 H 52.4197 -3.96962 4.33238 0
M  V30 588 H 53.9437 -4.75528 3.83022 0
M  V30 589 H 55.3577 -2.80737 4.99859 0
M  V30 590 H 53.7547 -2.25223 5.56232 0
M  V30 591 H 54.8247 -1.11835 4.71827 0
M  V30 592 N 56.1678 -1.49265 -0.50573 0
M  V30 593 C 57.1308 -1.65075 -1.59006 0
M  V30 594 C 58.1308 -0.522768 -1.52065 0
M  V30 595 O 59.3208 -0.789117 -1.55302 0
M  V30 596 C 56.4528 -1.64369 -2.98656 0
M  V30 597 H 57.6458 -2.61784 -1.46319 0
M  V30 598 H 55.1988 -1.38226 -0.729616 0
M  V30 599 H 55.9338 -0.692272 -3.16825 0
M  V30 600 H 55.7188 -2.46282 -3.05103 0
M  V30 601 H 57.2088 -1.78674 -3.77446 0
M  V30 602 N 57.6459 0.756429 -1.3826 0
M  V30 603 C 58.8939 1.51248 -1.34047 0
M  V30 604 C 59.2149 1.94875 0.0698372 0
M  V30 605 O 58.4849 1.67436 1.01696 0
M  V30 606 H 57.0649 0.561018 -0.493222 0
M  V30 607 H 59.7269 0.899347 -1.7291 0
M  V30 608 H 58.8229 2.40472 -1.98947 0
M  V30 609 N 59.124 1.23083 0.984299 0
M  V30 610 C 60.071 1.00854 2.07598 0
M  V30 611 C 61.041 -0.0726709 1.65941 0
M  V30 612 O 62.226 0.0786535 1.90638 0
M  V30 613 C 59.366 0.601645 3.39815 0
M  V30 614 C 58.479 1.75456 3.94765 0
M  V30 615 C 57.614 1.29482 5.15177 0
M  V30 616 C 56.653 2.41873 5.62284 0
M  V30 617 N 55.79 1.96885 6.73929 0
M  V30 618 H 60.63 1.943 2.25946 0
M  V30 619 H 58.167 0.968001 1.10762 0
M  V30 620 H 60.125 0.346854 4.15756 0
M  V30 621 H 58.755 -0.295803 3.21442 0
M  V30 622 H 57.807 2.12346 3.15616 0
M  V30 623 H 59.119 2.59965 4.25699 0
M  V30 624 H 58.273 0.997923 5.98437 0
M  V30 625 H 57.012 0.420046 4.85888 0
M  V30 626 H 56.017 2.72342 4.77608 0
M  V30 627 H 57.242 3.29881 5.93595 0
M  V30 628 H 55.188 1.11782 6.46406 0
M  V30 629 H 55.105 2.74956 7.04227 0
M  V30 630 H 56.373 1.70289 7.60672 0
M  V30 631 N 60.6021 -1.18246 1.0419 0
M  V30 632 C 61.8791 -1.84121 0.660208 0
M  V30 633 C 62.2591 -1.92778 -0.860221 0
M  V30 634 O 61.6071 -1.45464 -1.76217 0
M  V30 635 C 61.8171 -3.22355 1.33747 0
M  V30 636 C 63.1651 -3.98376 1.46906 0
M  V30 637 O 64.1891 -3.31799 1.29568 0
M  V30 638 O 63.0481 -5.17665 1.75171 0
M  V30 639 H 60.1421 -0.794036 0.231161 0
M  V30 640 H 62.6881 -1.25628 1.14087 0
M  V30 641 H 61.4601 -3.10964 2.37522 0
M  V30 642 H 61.0831 -3.88506 0.845515 0
M  V30 643 N 62.0802 -0.821533 -1.34494 0
M  V30 644 C 63.4912 -0.467956 -1.8074 0
M  V30 645 C 63.8422 1.01151 -1.68116 0
M  V30 646 O 62.9672 1.78707 -1.22036 0
M  V30 647 C 63.5622 -0.842627 -3.28154 0
M  V30 648 C 62.1212 -0.541439 -3.72485 0
M  V30 649 C 61.2682 -1.06028 -2.56229 0
M  V30 650 H 64.2192 -1.01183 -1.22261 0
M  V30 651 H 64.2402 -0.145876 -3.8022 0
M  V30 652 H 63.7522 -1.91945 -3.37311 0
M  V30 653 H 61.8532 0.526034 -3.68868 0
M  V30 654 H 61.9662 -1.08453 -4.66663 0
M  V30 655 H 60.3302 -0.481892 -2.501 0
M  V30 656 H 61.1132 -2.14352 -2.68157 0
M  V30 657 N 63.5583 1.46682 -0.576371 0
M  V30 658 C 64.8043 2.02712 -0.0596221 0
M  V30 659 C 65.1373 1.44765 1.29448 0
M  V30 660 O 64.4123 0.610355 1.84675 0
M  V30 661 C 64.6953 3.60098 0.0129503 0
M  V30 662 C 64.5483 4.28441 -1.3696 0
M  V30 663 C 65.8673 4.34224 0.71678 0
M  V30 664 H 62.9863 0.736637 -0.0231407 0
M  V30 665 H 65.6283 1.74898 -0.742351 0
M  V30 666 H 63.7783 3.83926 0.594378 0
M  V30 667 H 65.4503 4.15896 -1.9957 0
M  V30 668 H 63.6933 3.8805 -1.93907 0
M  V30 669 H 64.3643 5.3716 -1.27135 0
M  V30 670 H 66.8403 4.15503 0.222908 0
M  V30 671 H 65.7163 5.43936 0.73657 0
M  V30 672 H 65.9773 4.04823 1.77682 0
M  V30 673 N 65.0364 0.313813 1.54444 0
M  V30 674 C 65.9684 -0.590425 2.21465 0
M  V30 675 C 66.9814 -1.08753 1.21147 0
M  V30 676 O 68.1704 -1.00278 1.4767 0
M  V30 677 C 65.2704 -1.82179 2.85769 0
M  V30 678 C 64.4434 -1.46502 4.12136 0
M  V30 679 C 63.5024 -2.55288 4.60124 0
M  V30 680 O 62.5284 -2.19842 5.25032 0
M  V30 681 N 63.7304 -3.86053 4.33525 0
M  V30 682 H 66.4954 -0.0166033 2.99695 0
M  V30 683 H 64.0564 0.136578 1.61323 0
M  V30 684 H 66.0484 -2.54328 3.14801 0
M  V30 685 H 64.6184 -2.30369 2.11303 0
M  V30 686 H 63.8384 -0.575595 3.89975 0
M  V30 687 H 65.1264 -1.20221 4.94393 0
M  V30 688 H 64.5244 -4.17654 3.81552 0
M  V30 689 H 63.0814 -4.54461 4.67235 0
M  V30 690 N 66.5145 -1.57545 0.0417849 0
M  V30 691 C 67.7545 -1.94185 -0.63809 0
M  V30 692 C 68.1185 -0.919339 -1.68559 0
M  V30 693 O 69.3195 -1.17236 -2.41886 0
M  V30 694 C 67.5905 -3.35672 -1.22714 0
M  V30 695 S 69.1495 -3.94256 -1.92633 0
M  V30 696 H 65.9675 -0.679353 -0.209764 0
M  V30 697 H 68.5695 -1.95199 0.108479 0
M  V30 698 H 67.2735 -4.07898 -0.452503 0
M  V30 699 H 66.8045 -3.38132 -2.01073 0
M  V30 700 H 68.8195 -3.7872 -3.20602 0
M  V30 701 N 67.9926 0.231505 -1.5589 0
M  V30 702 C 69.2176 0.978689 -1.82856 0
M  V30 703 C 69.6426 1.77559 -0.620846 0
M  V30 704 O 69.0006 1.76119 0.430305 0
M  V30 705 C 69.0486 1.87997 -3.07716 0
M  V30 706 O 68.1526 2.97393 -2.85712 0
M  V30 707 H 67.4936 0.277663 -0.603158 0
M  V30 708 H 70.0236 0.24783 -2.03093 0
M  V30 709 H 70.0336 2.2917 -3.37558 0
M  V30 710 H 68.7086 1.29417 -3.95252 0
M  V30 711 H 67.2856 2.60238 -2.67078 0
M  V30 712 N 69.4707 1.49531 0.497807 0
M  V30 713 C 70.8867 1.36365 0.829266 0
M  V30 714 C 71.0867 0.399184 1.97506 0
M  V30 715 O 70.1427 -0.167977 2.51941 0
M  V30 716 C 71.4557 2.77153 1.16647 0
M  V30 717 C 73.0037 2.85877 1.27449 0
M  V30 718 C 73.4787 4.2744 1.64497 0
M  V30 719 N 74.9697 4.30265 1.7154 0
M  V30 720 C 75.7047 5.3677 2.01656 0
M  V30 721 N 75.2007 6.53516 2.29976 0
M  V30 722 N 76.9937 5.24189 2.02934 0
M  V30 723 H 69.1447 2.10831 -0.257703 0
M  V30 724 H 71.4077 0.946534 -0.0527091 0
M  V30 725 H 71.1137 3.49442 0.397872 0
M  V30 726 H 70.9877 3.12722 2.10915 0
M  V30 727 H 73.3747 2.13824 2.0338 0
M  V30 728 H 73.4557 2.53887 0.312244 0
M  V30 729 H 73.0997 5.00021 0.891151 0
M  V30 730 H 73.0297 4.56896 2.61827 0
M  V30 731 H 75.5207 3.4607 1.51802 0
M  V30 732 H 75.8337 7.30506 2.52153 0
M  V30 733 H 74.1787 6.56737 2.27425 0
M  V30 734 H 77.3697 4.31988 1.80289 0
M  V30 735 H 77.5427 6.07286 2.26071 0
M  V30 736 N 70.9488 -0.749086 1.3866 0
M  V30 737 C 72.2258 -1.4992 1.25632 0
M  V30 738 C 72.6058 -2.10633 -0.140317 0
M  V30 739 O 71.9538 -1.97437 -1.15025 0
M  V30 740 C 72.1638 -2.56195 2.36992 0
M  V30 741 C 73.5118 -3.22972 2.75634 0
M  V30 742 O 74.5358 -2.66502 2.36337 0
M  V30 743 O 73.3948 -4.25122 3.43415 0
M  V30 744 H 70.4888 -0.665067 0.491544 0
M  V30 745 H 73.0348 -0.784113 1.50498 0
M  V30 746 H 71.8068 -2.09612 3.30422 0
M  V30 747 H 71.4298 -3.35279 2.13714 0
M  V30 748 N 72.4269 -1.23603 -0.977757 0
M  V30 749 C 73.6729 -1.07129 -1.72195 0
M  V30 750 C 74.0059 0.390501 -1.90233 0
M  V30 751 O 73.2809 1.28902 -1.45653 0
M  V30 752 C 73.5639 -1.80031 -3.11867 0
M  V30 753 C 73.4169 -3.33899 -3.01383 0
M  V30 754 C 74.7359 -1.56492 -4.11337 0
M  V30 755 H 71.8549 -0.390571 -0.624999 0
M  V30 756 H 74.4969 -1.52142 -1.13811 0
M  V30 757 H 72.6469 -1.41768 -3.6171 0
M  V30 758 H 74.3189 -3.81699 -2.59043 0
M  V30 759 H 72.5619 -3.62796 -2.37827 0
M  V30 760 H 73.2329 -3.801 -4.00285 0
M  V30 761 H 75.7089 -1.89757 -3.70313 0
M  V30 762 H 74.5849 -2.09973 -5.07151 0
M  V30 763 H 74.8459 -0.500874 -4.39254 0
M  V30 764 N 73.905 1.17692 -1.04816 0
M  V30 765 C 75.151 1.88137 -0.75711 0
M  V30 766 C 75.484 1.80604 0.713841 0
M  V30 767 O 74.759 1.21146 1.52164 0
M  V30 768 C 75.042 3.38318 -1.2334 0
M  V30 769 C 74.895 3.54622 -2.76701 0
M  V30 770 C 76.214 4.32214 -0.829415 0
M  V30 771 H 73.333 0.683163 -0.27651 0
M  V30 772 H 75.975 1.38424 -1.30149 0
M  V30 773 H 74.125 3.80787 -0.770286 0
M  V30 774 H 75.797 3.21194 -3.31107 0
M  V30 775 H 74.04 2.97026 -3.16161 0
M  V30 776 H 74.711 4.60028 -3.05088 0
M  V30 777 H 77.187 3.97565 -1.22805 0
M  V30 778 H 76.063 5.35838 -1.19033 0
M  V30 779 H 76.324 4.41294 0.266891 0
M  V30 780 N 75.3831 0.828654 1.34056 0
M  V30 781 C 76.6321 0.415828 1.97367 0
M  V30 782 C 76.9451 -1.02796 1.6641 0
M  V30 783 O 78.1511 -1.54497 2.23255 0
M  V30 784 C 76.6071 0.692601 3.53173 0
M  V30 785 C 76.2151 2.15038 3.93017 0
M  V30 786 C 77.9591 0.346222 4.23086 0
M  V30 787 C 75.8661 2.37174 5.41758 0
M  V30 788 H 74.7961 0.151755 0.738571 0
M  V30 789 H 77.4471 1.01581 1.52819 0
M  V30 790 H 75.8291 0.0223764 3.95994 0
M  V30 791 H 77.0031 2.86024 3.61285 0
M  V30 792 H 75.3181 2.45875 3.36057 0
M  V30 793 H 77.9151 0.48937 5.32456 0
M  V30 794 H 78.2581 -0.709842 4.10204 0
M  V30 795 H 78.7911 0.971258 3.85761 0
M  V30 796 H 75.5301 3.41308 5.59633 0
M  V30 797 H 75.0501 1.70738 5.74986 0
M  V30 798 H 76.7291 2.19818 6.08514 0
M  V30 799 N 76.8612 -1.46375 0.584142 0
M  V30 800 C 78.1012 -2.0427 0.0729695 0
M  V30 801 C 78.4652 -1.44563 -1.26355 0
M  V30 802 O 79.6662 -1.93667 -1.86405 0
M  V30 803 C 77.9372 -3.57399 0.00967464 0
M  V30 804 S 79.4962 -4.36551 -0.443714 0
M  V30 805 H 76.3142 -0.709975 0.0381673 0
M  V30 806 H 78.9162 -1.79398 0.776962 0
M  V30 807 H 77.6202 -3.98372 0.986319 0
M  V30 808 H 77.1512 -3.8681 -0.717044 0
M  V30 809 H 79.1662 -4.66237 -1.69816 0
M  V30 810 N 78.3393 -0.321999 -1.54275 0
M  V30 811 C 79.7503 0.166384 -1.85957 0
M  V30 812 C 80.1013 1.51747 -1.24367 0
M  V30 813 O 79.2263 2.09317 -0.549124 0
M  V30 814 C 79.8213 0.308681 -3.37391 0
M  V30 815 C 78.3803 0.741286 -3.69028 0
M  V30 816 C 77.5273 -0.137937 -2.76957 0
M  V30 817 H 80.4783 -0.542335 -1.49146 0
M  V30 818 H 80.4993 1.13984 -3.63026 0
M  V30 819 H 80.0113 -0.674809 -3.82188 0
M  V30 820 H 78.1123 1.73458 -3.29762 0
M  V30 821 H 78.2253 0.546118 -4.75977 0
M  V30 822 H 76.5893 0.386251 -2.51754 0
M  V30 823 H 77.3723 -1.11816 -3.2458 0
M  V30 824 N 79.8174 1.5752 -0.0501392 0
M  V30 825 C 81.0944 1.83996 0.663685 0
M  V30 826 C 81.4744 0.938339 1.89099 0
M  V30 827 O 80.8224 -0.00087759 2.285 0
M  V30 828 C 81.0324 3.33702 1.02196 0
M  V30 829 C 82.3804 4.00691 1.40469 0
M  V30 830 O 83.4044 3.38321 1.11433 0
M  V30 831 O 82.2634 5.10658 1.94654 0
M  V30 832 H 79.3574 0.759385 0.32751 0
M  V30 833 H 81.9034 1.69514 -0.0794238 0
M  V30 834 H 80.6754 3.91015 0.149364 0
M  V30 835 H 80.2984 3.53368 1.82255 0
M  V30 836 N 81.2955 -0.223234 1.56011 0
M  V30 837 C 82.2585 -1.26014 1.9145 0
M  V30 838 C 83.2585 -1.3989 0.792937 0
M  V30 839 O 84.4485 -1.38184 1.0607 0
M  V30 840 C 81.5805 -2.63422 2.16383 0
M  V30 841 H 82.7735 -0.95796 2.84189 0
M  V30 842 H 80.3265 -0.463576 1.49267 0
M  V30 843 H 81.0615 -2.98741 1.2619 0
M  V30 844 H 80.8465 -2.54728 2.98088 0
M  V30 845 H 82.3365 -3.38249 2.44903 0
M  V30 846 N 82.7736 -1.49793 -0.48987 0
M  V30 847 C 83.9986 -1.63836 -1.27172 0
M  V30 848 C 84.4236 -0.31402 -1.8546 0
M  V30 849 O 83.7816 0.719803 -1.66399 0
M  V30 850 C 83.8296 -2.71797 -2.36978 0
M  V30 851 O 82.9336 -2.31744 -3.41128 0
M  V30 852 H 82.2746 -0.547997 -0.37496 0
M  V30 853 H 84.8046 -1.96053 -0.585191 0
M  V30 854 H 84.8146 -2.94305 -2.82575 0
M  V30 855 H 83.4896 -3.67923 -1.93921 0
M  V30 856 H 82.0666 -2.1961 -3.01373 0
M  V30 857 N 84.2517 0.741722 -1.39055 0
M  V30 858 C 85.1817 1.869 -1.39966 0
M  V30 859 C 86.1627 1.6804 -0.26392 0
M  V30 860 O 87.3477 1.88458 -0.468755 0
M  V30 861 C 84.4777 3.24572 -1.23574 0
M  V30 862 C 83.4317 3.58056 -2.34477 0
M  V30 863 C 82.7577 4.94593 -2.0318 0
M  V30 864 C 84.0577 3.61716 -3.76774 0
M  V30 865 H 85.7517 1.86395 -2.34302 0
M  V30 866 H 83.2977 0.895361 -1.1278 0
M  V30 867 H 85.2507 4.031 -1.22834 0
M  V30 868 H 83.9747 3.25587 -0.257045 0
M  V30 869 H 82.6337 2.81854 -2.34423 0
M  V30 870 H 82.2817 4.92181 -1.03765 0
M  V30 871 H 81.9817 5.17964 -2.77465 0
M  V30 872 H 83.5057 5.75486 -2.04079 0
M  V30 873 H 84.9197 4.30335 -3.78794 0
M  V30 874 H 83.3167 3.96603 -4.50362 0
M  V30 875 H 84.3867 2.61672 -4.08235 0
M  V30 876 N 85.7298 1.2412 0.971189 0
M  V30 877 C 86.6398 1.04747 2.09917 0
M  V30 878 C 87.6558 -0.0107162 1.73997 0
M  V30 879 O 88.8318 0.186714 2.00533 0
M  V30 880 C 85.8968 0.650828 3.40537 0
M  V30 881 C 84.9578 1.7851 3.90426 0
M  V30 882 C 84.1908 1.40729 5.14812 0
M  V30 883 O 84.4138 0.29557 5.69634 0
M  V30 884 O 83.3478 2.23168 5.58999 0
M  V30 885 H 87.1738 1.99304 2.29154 0
M  V30 886 H 84.7588 1.02908 1.08307 0
M  V30 887 H 86.6408 0.440992 4.19086 0
M  V30 888 H 85.3158 -0.265649 3.22608 0
M  V30 889 H 84.2228 2.04966 3.12953 0
M  V30 890 H 85.5558 2.68023 4.12825 0
M  V30 891 N 87.2079 -1.17134 1.05439 0
M  V30 892 C 88.4849 -1.83411 0.679699 0
M  V30 893 C 88.8649 -1.9368 -0.839726 0
M  V30 894 O 88.2129 -1.47325 -1.74664 0
M  V30 895 C 88.4229 -3.20918 1.37159 0
M  V30 896 C 89.7709 -3.96796 1.51123 0
M  V30 897 O 90.7949 -3.30406 1.3308 0
M  V30 898 O 89.6539 -5.15778 1.80651 0
M  V30 899 H 86.7479 -0.79154 0.239569 0
M  V30 900 H 89.2939 -1.24411 1.15413 0
M  V30 901 H 88.0659 -3.08428 2.40807 0
M  V30 902 H 87.6889 -3.87587 0.886674 0
M  V30 903 N 88.686 -0.835752 -1.33615 0
M  V30 904 C 89.649 -0.272 -2.2758 0
M  V30 905 C 90.649 0.557487 -1.50827 0
M  V30 906 O 91.839 0.37173 -1.70188 0
M  V30 907 C 88.971 0.617173 -3.35267 0
M  V30 908 H 90.164 -1.10111 -2.78954 0
M  V30 909 H 87.717 -0.608594 -1.43965 0
M  V30 910 H 88.452 1.46884 -2.89129 0
M  V30 911 H 88.237 0.0237066 -3.92093 0
M  V30 912 H 89.727 1.005 -4.05326 0
M  V30 913 N 90.1641 1.46063 -0.591896 0
M  V30 914 C 91.1111 2.30399 0.136069 0
M  V30 915 C 92.0811 1.41169 0.875238 0
M  V30 916 O 93.2661 1.70112 0.86409 0
M  V30 917 C 90.4061 3.25804 1.13781 0
M  V30 918 C 89.5191 4.30134 0.401137 0
M  V30 919 C 88.6541 5.12659 1.39121 0
M  V30 920 C 87.6931 6.0873 0.641462 0
M  V30 921 N 86.8301 6.8409 1.58004 0
M  V30 922 H 91.6701 2.92118 -0.589144 0
M  V30 923 H 89.2071 1.43959 -0.302342 0
M  V30 924 H 91.1651 3.79569 1.73156 0
M  V30 925 H 89.7951 2.65872 1.83062 0
M  V30 926 H 88.8471 3.79152 -0.307826 0
M  V30 927 H 90.1591 4.98458 -0.184565 0
M  V30 928 H 89.3131 5.70747 2.05749 0
M  V30 929 H 88.0521 4.44316 2.01084 0
M  V30 930 H 87.0571 5.49786 -0.0385419 0
M  V30 931 H 88.2821 6.79095 0.0270945 0
M  V30 932 H 86.2281 6.18449 2.18761 0
M  V30 933 H 86.1451 7.48709 1.04738 0
M  V30 934 H 87.4131 7.4673 2.23639 0
M  V30 935 N 91.6422 0.330177 1.54103 0
M  V30 936 C 92.5892 -0.532762 2.24567 0
M  V30 937 C 93.5592 -1.10635 1.23892 0
M  V30 938 O 94.7442 -1.14546 1.5259 0
M  V30 939 C 91.8842 -1.6845 3.01195 0
M  V30 940 C 90.9972 -1.13951 4.167 0
M  V30 941 C 90.1322 -2.25746 4.80845 0
M  V30 942 C 89.1712 -1.6853 5.88442 0
M  V30 943 N 88.3082 -2.74014 6.46421 0
M  V30 944 H 93.1482 0.0746905 2.97906 0
M  V30 945 H 90.6852 0.048632 1.4702 0
M  V30 946 H 92.6432 -2.36234 3.43874 0
M  V30 947 H 91.2732 -2.26314 2.30178 0
M  V30 948 H 90.3252 -0.35301 3.78758 0
M  V30 949 H 91.6372 -0.680892 4.94131 0
M  V30 950 H 90.7912 -3.01422 5.26526 0
M  V30 951 H 89.5302 -2.74947 4.0281 0
M  V30 952 H 88.5352 -0.913543 5.42157 0
M  V30 953 H 89.7602 -1.20198 6.68378 0
M  V30 954 H 87.7062 -3.22494 5.71256 0
M  V30 955 H 87.6232 -2.32735 7.19285 0
M  V30 956 H 88.8912 -3.49499 6.96757 0
M  V30 957 N 93.1203 -1.57491 0.0584922 0
M  V30 958 C 94.0303 -2.15448 -0.928414 0
M  V30 959 C 95.0463 -1.11416 -1.3365 0
M  V30 960 O 96.2223 -1.4362 -1.41193 0
M  V30 961 C 93.2873 -2.69393 -2.18239 0
M  V30 962 C 92.3483 -3.88249 -1.83196 0
M  V30 963 C 91.5813 -4.39613 -3.02616 0
M  V30 964 O 91.8043 -3.90023 -4.16219 0
M  V30 965 O 90.7383 -5.31111 -2.83204 0
M  V30 966 H 94.5643 -3.00112 -0.465483 0
M  V30 967 H 92.1493 -1.48499 -0.163826 0
M  V30 968 H 94.0313 -3.04026 -2.91798 0
M  V30 969 H 92.7063 -1.87796 -2.63656 0
M  V30 970 H 91.6133 -3.58492 -1.06931 0
M  V30 971 H 92.9463 -4.71098 -1.42573 0
M  V30 972 N 94.5984 0.214957 -1.56127 0
M  V30 973 C 95.8464 0.936518 -1.79091 0
M  V30 974 C 96.1674 1.84606 -0.628148 0
M  V30 975 O 95.4374 1.92664 0.35462 0
M  V30 976 H 94.0174 0.3488 -0.660566 0
M  V30 977 H 96.6794 0.22523 -1.93594 0
M  V30 978 H 95.7754 1.53943 -2.71492 0
M  V30 979 N 96.0765 1.50051 0.48192 0
M  V30 980 C 97.4875 1.5348 1.06305 0
M  V30 981 C 97.8385 0.331997 1.93371 0
M  V30 982 O 96.9635 -0.556256 2.09129 0
M  V30 983 C 97.5585 2.7813 1.93466 0
M  V30 984 C 96.1175 2.84275 2.46707 0
M  V30 985 C 95.2645 2.47637 1.24785 0
M  V30 986 H 98.2155 1.56472 0.264995 0
M  V30 987 H 98.2365 2.59372 2.78399 0
M  V30 988 H 97.7485 3.65654 1.30072 0
M  V30 989 H 95.8495 2.01077 3.13686 0
M  V30 990 H 95.9625 3.8691 2.82555 0
M  V30 991 H 94.3265 1.99835 1.57918 0
M  V30 992 H 95.1095 3.37457 0.630694 0
M  V30 993 N 97.5546 -0.734337 1.39446 0
M  V30 994 C 98.7846 -1.52137 1.39778 0
M  V30 995 C 99.1926 -1.89198 -0.00929312 0
M  V30 996 O 98.5356 -1.54666 -0.991168 0
M  V30 997 C 98.5976 -2.83762 2.20724 0
M  V30 998 C 98.2616 -2.69131 3.69347 0
M  V30 999 C 99.2586 -2.37635 4.62413 0
M  V30 1000 C 96.9436 -2.85982 4.1294 0
M  V30 1001 C 98.9376 -2.23172 5.97054 0
M  V30 1002 C 96.6246 -2.71137 5.47657 0
M  V30 1003 C 97.6226 -2.39777 6.39528 0
M  V30 1004 O 97.3106 -2.25026 7.71763 0
M  V30 1005 H 97.0426 -0.476717 0.479288 0
M  V30 1006 H 99.5966 -0.915012 1.83893 0
M  V30 1007 H 97.8266 -3.4666 1.71359 0
M  V30 1008 H 99.5156 -3.45383 2.13226 0
M  V30 1009 H 100.282 -2.24267 4.30034 0
M  V30 1010 H 96.1606 -3.09383 3.41765 0
M  V30 1011 H 99.7046 -1.98617 6.68728 0
M  V30 1012 H 95.6016 -2.84083 5.79626 0
M  V30 1013 H 96.3696 -2.40091 7.82495 0
M  V30 1014 N 99.0327 -1.24633 -0.964593 0
M  V30 1015 C 100.31 -0.995809 -1.68354 0
M  V30 1016 C 100.69 0.480964 -2.05548 0
M  V30 1017 O 100.038 1.45599 -1.76105 0
M  V30 1018 C 100.248 -1.92177 -2.91323 0
M  V30 1019 C 101.596 -2.19446 -3.63495 0
M  V30 1020 O 102.62 -1.89855 -3.01386 0
M  V30 1021 O 101.479 -2.69714 -4.75307 0
M  V30 1022 H 98.5727 -0.376854 -0.736146 0
M  V30 1023 H 101.119 -1.35745 -1.0184 0
M  V30 1024 H 99.8907 -2.91938 -2.60553 0
M  V30 1025 H 99.5137 -1.56349 -3.65569 0
M  V30 1026 N 100.511 1.16574 -1.06058 0
M  V30 1027 C 101.757 1.87324 -0.777022 0
M  V30 1028 C 102.09 1.81351 0.694645 0
M  V30 1029 O 101.365 1.22753 1.50871 0
M  V30 1030 C 101.648 3.36991 -1.26922 0
M  V30 1031 C 101.501 3.51667 -2.80447 0
M  V30 1032 C 102.82 4.3131 -0.87521 0
M  V30 1033 H 99.9388 0.680191 -0.28374 0
M  V30 1034 H 102.581 1.37036 -1.3161 0
M  V30 1035 H 100.731 3.79949 -0.81063 0
M  V30 1036 H 102.403 3.17664 -3.34495 0
M  V30 1037 H 100.646 2.93656 -3.19294 0
M  V30 1038 H 101.317 4.56766 -3.0995 0
M  V30 1039 H 103.793 3.9624 -1.27014 0
M  V30 1040 H 102.669 5.34545 -1.2471 0
M  V30 1041 H 102.93 4.41552 0.220071 0
M  V30 1042 N 101.989 0.842826 1.3317 0
M  V30 1043 C 103.235 0.441099 1.97945 0
M  V30 1044 C 103.568 -0.998024 1.66593 0
M  V30 1045 O 102.843 -1.69839 0.947898 0
M  V30 1046 C 103.126 0.666841 3.53872 0
M  V30 1047 C 102.979 2.15352 3.94897 0
M  V30 1048 C 104.298 0.115544 4.39948 0
M  V30 1049 H 101.417 0.161739 0.719034 0
M  V30 1050 H 104.059 1.05907 1.57746 0
M  V30 1051 H 102.209 0.140828 3.88245 0
M  V30 1052 H 103.881 2.7447 3.70761 0
M  V30 1053 H 102.124 2.63653 3.44484 0
M  V30 1054 H 102.795 2.26221 5.03516 0
M  V30 1055 H 105.271 0.565213 4.12243 0
M  V30 1056 H 104.147 0.303152 5.48062 0
M  V30 1057 H 104.408 -0.980935 4.3108 0
M  V30 1058 N 103.467 -1.45747 0.599634 0
M  V30 1059 C 104.713 -2.02592 0.0918643 0
M  V30 1060 C 105.046 -1.46806 -1.27128 0
M  V30 1061 O 104.321 -0.639658 -1.83681 0
M  V30 1062 C 104.604 -3.60073 0.0443398 0
M  V30 1063 C 104.457 -4.26208 1.43759 0
M  V30 1064 C 105.776 -4.35309 -0.647608 0
M  V30 1065 H 102.895 -0.736175 0.034857 0
M  V30 1066 H 105.537 -1.73694 0.770081 0
M  V30 1067 H 103.687 -3.84823 -0.533224 0
M  V30 1068 H 105.359 -4.12668 2.06162 0
M  V30 1069 H 103.602 -3.84916 2.00056 0
M  V30 1070 H 104.273 -5.35069 1.35665 0
M  V30 1071 H 106.749 -4.15805 -0.156776 0
M  V30 1072 H 105.625 -5.45038 -0.649942 0
M  V30 1073 H 105.886 -4.07598 -1.71219 0
M  V30 1074 N 104.945 -0.338344 -1.53925 0
M  V30 1075 C 105.875 0.51328 -2.27789 0
M  V30 1076 C 106.856 1.107 -1.29149 0
M  V30 1077 O 108.041 1.12937 -1.57984 0
M  V30 1078 C 105.171 1.66697 -3.04679 0
M  V30 1079 C 104.125 1.20183 -4.1078 0
M  V30 1080 C 103.451 2.44363 -4.75595 0
M  V30 1081 C 104.751 0.30605 -5.21403 0
M  V30 1082 H 106.445 -0.102883 -2.99223 0
M  V30 1083 H 103.991 -0.0509219 -1.4391 0
M  V30 1084 H 105.944 2.26915 -3.55088 0
M  V30 1085 H 104.668 2.30995 -2.30887 0
M  V30 1086 H 103.327 0.622499 -3.61276 0
M  V30 1087 H 102.975 3.07057 -3.98403 0
M  V30 1088 H 102.675 2.13925 -5.47275 0
M  V30 1089 H 104.199 3.05317 -5.28786 0
M  V30 1090 H 105.613 0.814929 -5.67478 0
M  V30 1091 H 104.01 0.0937929 -6.00027 0
M  V30 1092 H 105.08 -0.65921 -4.80398 0
M  V30 1093 N 106.423 1.57458 -0.0668435 0
M  V30 1094 C 107.834 1.80776 0.466558 0
M  V30 1095 C 108.185 0.980361 1.69951 0
M  V30 1096 O 107.31 0.201441 2.1546 0
M  V30 1097 C 107.905 3.27881 0.85321 0
M  V30 1098 C 106.464 3.52062 1.3315 0
M  V30 1099 C 105.611 2.75513 0.314264 0
M  V30 1100 H 108.562 1.5598 -0.292588 0
M  V30 1101 H 108.583 3.39659 1.715 0
M  V30 1102 H 108.095 3.88075 -0.0443439 0
M  V30 1103 H 106.196 2.97167 2.24772 0
M  V30 1104 H 106.309 4.60762 1.31285 0
M  V30 1105 H 104.673 2.42123 0.790492 0
M  V30 1106 H 105.456 3.38442 -0.575477 0
M  V30 1107 N 107.901 -0.206675 1.56239 0
M  V30 1108 C 109.149 -0.927007 1.79586 0
M  V30 1109 C 109.47 -1.8427 0.637929 0
M  V30 1110 O 108.74 -1.92849 -0.344398 0
M  V30 1111 H 107.32 -0.345292 0.662407 0
M  V30 1112 H 109.982 -0.21496 1.93711 0
M  V30 1113 H 109.078 -1.52501 2.72305 0
M  V30 1114 N 109.379 -1.50304 -0.473955 0
M  V30 1115 C 110.627 -1.60832 -1.22382 0
M  V30 1116 C 110.948 -0.30939 -1.9253 0
M  V30 1117 O 110.218 0.67296 -1.83978 0
M  V30 1118 H 108.798 -0.592652 -0.454723 0
M  V30 1119 H 111.46 -1.87068 -0.546968 0
M  V30 1120 H 110.556 -2.41803 -1.97327 0
M  V30 1121 N 110.857 0.726932 -1.39834 0
M  V30 1122 C 111.805 1.86235 -1.39353 0
M  V30 1123 C 112.799 1.67144 -0.275555 0
M  V30 1124 O 114.005 1.74387 -0.44601 0
M  V30 1125 H 110.38 0.613174 -0.43534 0
M  V30 1126 H 112.351 1.83756 -2.35109 0
M  V30 1127 C 111.1 3.23995 -1.26185 0
M  V30 1128 H 110.423 3.39285 -2.11484 0
M  V30 1129 H 111.863 4.03609 -1.29907 0
M  V30 1130 C 110.322 3.36888 0.0290018 0
M  V30 1131 O 110.852 3.89152 0.99619 0
M  V30 1132 N 109.058 2.90446 0.0947437 0
M  V30 1133 H 108.605 2.48102 -0.693035 0
M  V30 1134 H 108.563 2.99451 0.957932 0
M  V30 1135 N 112.336 1.25143 0.95797 0
M  V30 1136 C 113.266 1.07711 2.07173 0
M  V30 1137 C 114.247 -0.0128462 1.70095 0
M  V30 1138 O 115.432 0.156061 1.93572 0
M  V30 1139 C 112.562 0.691503 3.40346 0
M  V30 1140 C 111.516 1.73132 3.9142 0
M  V30 1141 C 110.842 1.20049 5.21049 0
M  V30 1142 C 112.142 3.1294 4.1817 0
M  V30 1143 H 113.836 2.00873 2.22014 0
M  V30 1144 H 111.382 0.967191 1.06684 0
M  V30 1145 H 113.335 0.556505 4.17709 0
M  V30 1146 H 112.059 -0.275819 3.25433 0
M  V30 1147 H 110.718 1.8547 3.16222 0
M  V30 1148 H 110.366 0.223499 5.02503 0
M  V30 1149 H 110.066 1.89545 5.56189 0
M  V30 1150 H 111.59 1.07782 6.01012 0
M  V30 1151 H 113.004 3.03775 4.86203 0
M  V30 1152 H 111.401 3.79875 4.64559 0
M  V30 1153 H 112.471 3.6025 3.24573 0
M  V30 1154 N 113.814 -1.1601 1.06675 0
M  V30 1155 C 115.062 -1.86264 0.784229 0
M  V30 1156 C 115.383 -1.82328 -0.691488 0
M  V30 1157 O 114.653 -1.25947 -1.50047 0
M  V30 1158 H 113.233 -0.689621 0.28711 0
M  V30 1159 H 115.895 -1.40664 1.34906 0
M  V30 1160 H 114.991 -2.91595 1.11259 0
M  V30 1161 N 115.292 -0.849877 -1.32721 0
M  V30 1162 C 116.255 -0.296122 -2.27279 0
M  V30 1163 C 117.255 0.541458 -1.5141 0
M  V30 1164 O 118.445 0.353658 -1.70572 0
M  V30 1165 C 115.577 0.581579 -3.35902 0
M  V30 1166 H 116.77 -1.13064 -2.77771 0
M  V30 1167 H 114.323 -0.62383 -1.43311 0
M  V30 1168 H 115.058 1.43809 -2.9067 0
M  V30 1169 H 114.843 -0.0178814 -3.92096 0
M  V30 1170 H 116.333 0.961951 -4.0637 0
M  V30 1171 N 116.77 1.45427 -0.607355 0
M  V30 1172 C 117.702 2.2871 0.149752 0
M  V30 1173 C 118.715 1.39937 0.831958 0
M  V30 1174 O 119.904 1.64313 0.697385 0
M  V30 1175 C 117.004 3.15673 1.23304 0
M  V30 1176 C 116.177 4.32722 0.637996 0
M  V30 1177 C 115.236 5.00895 1.61215 0
M  V30 1178 O 114.262 5.57697 1.13854 0
M  V30 1179 N 115.464 5.00159 2.94655 0
M  V30 1180 H 118.229 2.94328 -0.564882 0
M  V30 1181 H 115.79 1.55612 -0.446823 0
M  V30 1182 H 117.782 3.58144 1.88454 0
M  V30 1183 H 116.352 2.51965 1.8502 0
M  V30 1184 H 115.572 3.93734 -0.191572 0
M  V30 1185 H 116.86 5.08321 0.220665 0
M  V30 1186 H 116.258 4.553 3.35735 0
M  V30 1187 H 114.815 5.46495 3.55228 0
M  V30 1188 N 118.248 0.346503 1.53744 0
M  V30 1189 C 119.196 -0.52422 2.26616 0
M  V30 1190 C 120.19 -1.09948 1.28871 0
M  V30 1191 O 121.396 -1.04488 1.46568 0
M  V30 1192 H 117.771 -0.187743 0.728187 0
M  V30 1193 H 119.742 0.11239 2.98188 0
M  V30 1194 C 118.491 -1.66186 3.05414 0
M  V30 1195 H 117.814 -1.22848 3.80458 0
M  V30 1196 H 119.254 -2.24622 3.59612 0
M  V30 1197 C 117.713 -2.59302 2.1509 0
M  V30 1198 O 118.243 -3.61628 1.74895 0
M  V30 1199 N 116.449 -2.28055 1.8011 0
M  V30 1200 H 115.996 -1.44883 2.12994 0
M  V30 1201 H 115.954 -2.90615 1.19958 0
M  V30 1202 N 119.726 -1.57421 0.075193 0
M  V30 1203 C 120.656 -2.15942 -0.888324 0
M  V30 1204 C 121.637 -1.08737 -1.30806 0
M  V30 1205 O 122.822 -1.36787 -1.37851 0
M  V30 1206 C 119.952 -2.72379 -2.1547 0
M  V30 1207 C 118.906 -3.8478 -1.87425 0
M  V30 1208 C 118.232 -4.27834 -3.20721 0
M  V30 1209 C 119.532 -5.08869 -1.17684 0
M  V30 1210 H 121.226 -2.96705 -0.400799 0
M  V30 1211 H 118.772 -1.42723 -0.191342 0
M  V30 1212 H 120.725 -3.11965 -2.83295 0
M  V30 1213 H 119.449 -1.88841 -2.6647 0
M  V30 1214 H 118.108 -3.45703 -1.22004 0
M  V30 1215 H 117.756 -3.41214 -3.6957 0
M  V30 1216 H 117.456 -5.03605 -3.02746 0
M  V30 1217 H 118.98 -4.70039 -3.89738 0
M  V30 1218 H 120.394 -5.4575 -1.75584 0
M  V30 1219 H 118.791 -5.8994 -1.09956 0
M  V30 1220 H 119.861 -4.84648 -0.156453 0
M  V30 1221 N 121.204 0.198386 -1.56346 0
M  V30 1222 C 122.429 0.939682 -1.84891 0
M  V30 1223 C 122.854 1.76202 -0.658369 0
M  V30 1224 O 122.212 1.76993 0.392851 0
M  V30 1225 C 122.26 1.81428 -3.11635 0
M  V30 1226 O 121.364 2.91265 -2.91956 0
M  V30 1227 H 120.705 0.264807 -0.608912 0
M  V30 1228 H 123.235 0.204695 -2.03573 0
M  V30 1229 H 123.245 2.21958 -3.42343 0
M  V30 1230 H 121.92 1.21004 -3.97908 0
M  V30 1231 H 120.497 2.54514 -2.72538 0
M  V30 1232 N 122.682 1.50554 0.465978 0
M  V30 1233 C 123.592 1.72585 1.58907 0
M  V30 1234 C 124.608 0.60911 1.6299 0
M  V30 1235 O 125.784 0.88804 1.80765 0
M  V30 1236 C 122.849 1.81995 2.95091 0
M  V30 1237 C 121.91 3.05751 3.01355 0
M  V30 1238 C 121.143 3.14702 4.31043 0
M  V30 1239 O 121.366 2.30313 5.21835 0
M  V30 1240 O 120.3 4.07468 4.43005 0
M  V30 1241 H 124.126 2.67799 1.43239 0
M  V30 1242 H 121.711 1.34711 0.646013 0
M  V30 1243 H 123.593 1.90335 3.75966 0
M  V30 1244 H 122.268 0.899659 3.10947 0
M  V30 1245 H 121.175 3.02908 2.19539 0
M  V30 1246 H 122.508 3.97375 2.90437 0
M  V30 1247 N 124.16 -0.719506 1.40217 0
M  V30 1248 C 125.385 -1.51371 1.4178 0
M  V30 1249 C 125.81 -1.88091 0.0182355 0
M  V30 1250 O 125.168 -1.52997 -0.972707 0
M  V30 1251 C 125.216 -2.768 2.31115 0
M  V30 1252 O 124.32 -3.73349 1.7517 0
M  V30 1253 H 123.661 -0.456529 0.482159 0
M  V30 1254 H 126.191 -0.88644 1.844 0
M  V30 1255 H 126.201 -3.25371 2.46167 0
M  V30 1256 H 124.876 -2.49407 3.3282 0
M  V30 1257 H 123.453 -3.32179 1.69444 0
M  V30 1258 N 125.638 -1.25649 -0.95132 0
M  V30 1259 C 126.601 -1.06399 -2.03007 0
M  V30 1260 C 127.601 -0.0156794 -1.60792 0
M  V30 1261 O 128.791 -0.25817 -1.72276 0
M  V30 1262 C 125.923 -0.616184 -3.35285 0
M  V30 1263 H 127.116 -2.02164 -2.21517 0
M  V30 1264 H 124.669 -1.08103 -1.12887 0
M  V30 1265 H 125.404 0.343917 -3.22471 0
M  V30 1266 H 125.189 -1.37301 -3.67275 0
M  V30 1267 H 126.679 -0.503032 -4.14559 0
M  V30 1268 N 127.117 1.15442 -1.07289 0
M  V30 1269 C 128.08 2.18358 -0.696591 0
M  V30 1270 C 129.08 1.58637 0.262837 0
M  V30 1271 O 130.27 1.74145 0.0438809 0
M  V30 1272 C 127.402 3.4089 -0.0266151 0
M  V30 1273 H 128.595 2.53162 -1.60776 0
M  V30 1274 H 126.148 1.29893 -0.869342 0
M  V30 1275 H 126.883 3.11653 0.896822 0
M  V30 1276 H 126.668 3.85495 -0.716657 0
M  V30 1277 H 128.158 4.17009 0.222028 0
M  V30 1278 N 128.595 0.856903 1.32268 0
M  V30 1279 C 129.841 0.462069 1.97466 0
M  V30 1280 C 130.174 -0.980298 1.67642 0
M  V30 1281 O 129.449 -1.68824 0.965858 0
M  V30 1282 C 129.732 0.704336 3.53145 0
M  V30 1283 C 129.585 2.19529 3.9259 0
M  V30 1284 C 130.904 0.1622 4.39801 0
M  V30 1285 H 128.023 0.169357 0.717278 0
M  V30 1286 H 130.665 1.07574 1.56614 0
M  V30 1287 H 128.815 0.181999 3.88073 0
M  V30 1288 H 130.487 2.78387 3.67829 0
M  V30 1289 H 128.73 2.67292 3.41668 0
M  V30 1290 H 129.401 2.31549 5.01088 0
M  V30 1291 H 131.877 0.608905 4.11621 0
M  V30 1292 H 130.753 0.361265 5.4771 0
M  V30 1293 H 131.014 -0.935158 4.32096 0
M  V30 1294 N 130.073 -1.45103 0.615059 0
M  V30 1295 C 131.02 -2.30586 -0.0993978 0
M  V30 1296 C 131.99 -1.42544 -0.852669 0
M  V30 1297 O 133.175 -1.71465 -0.836917 0
M  V30 1298 C 130.315 -3.27572 -1.08583 0
M  V30 1299 C 129.428 -4.30717 -0.332656 0
M  V30 1300 C 128.563 -5.14807 -1.30947 0
M  V30 1301 C 127.602 -6.09673 -0.544538 0
M  V30 1302 N 126.739 -6.86517 -1.47101 0
M  V30 1303 H 131.579 -2.91144 0.635542 0
M  V30 1304 H 129.116 -1.4346 0.325206 0
M  V30 1305 H 131.074 -3.82276 -1.67095 0
M  V30 1306 H 129.704 -2.68751 -1.78809 0
M  V30 1307 H 128.756 -3.78615 0.368107 0
M  V30 1308 H 130.068 -4.98102 0.263842 0
M  V30 1309 H 129.222 -5.73948 -1.96643 0
M  V30 1310 H 127.961 -4.47458 -1.9399 0
M  V30 1311 H 126.966 -5.49656 0.126003 0
M  V30 1312 H 128.191 -6.79052 0.080947 0
M  V30 1313 H 126.137 -6.21851 -2.08895 0
M  V30 1314 H 126.054 -7.50281 -0.928137 0
M  V30 1315 H 127.322 -7.50194 -2.11731 0
M  V30 1316 N 131.551 -0.354651 -1.53558 0
M  V30 1317 C 132.461 0.50515 -2.29097 0
M  V30 1318 C 133.477 1.10223 -1.34636 0
M  V30 1319 O 134.653 1.11553 -1.67684 0
M  V30 1320 C 131.718 1.63479 -3.05738 0
M  V30 1321 C 130.779 1.06636 -4.15845 0
M  V30 1322 C 130.012 2.14217 -4.88822 0
M  V30 1323 O 130.235 3.35137 -4.61562 0
M  V30 1324 O 129.169 1.77887 -5.75013 0
M  V30 1325 H 132.995 -0.109237 -3.03503 0
M  V30 1326 H 130.58 -0.119357 -1.48922 0
M  V30 1327 H 132.462 2.2918 -3.5363 0
M  V30 1328 H 131.137 2.23478 -2.34178 0
M  V30 1329 H 130.044 0.373565 -3.7223 0
M  V30 1330 H 131.377 0.511081 -4.89539 0
M  V30 1331 N 133.029 1.57378 -0.0835403 0
M  V30 1332 C 134.278 1.93106 0.582498 0
M  V30 1333 C 134.591 0.96651 1.70053 0
M  V30 1334 O 135.797 1.21705 2.42693 0
M  V30 1335 C 134.253 3.43076 1.08751 0
M  V30 1336 C 133.861 4.48 -0.000146404 0
M  V30 1337 C 135.605 3.87785 1.72694 0
M  V30 1338 C 133.512 5.89113 0.519568 0
M  V30 1339 H 132.442 0.720775 0.221358 0
M  V30 1340 H 135.093 1.82821 -0.157675 0
M  V30 1341 H 133.475 3.48474 1.88101 0
M  V30 1342 H 134.649 4.54233 -0.775199 0
M  V30 1343 H 132.964 4.1283 -0.54406 0
M  V30 1344 H 135.561 4.90604 2.1263 0
M  V30 1345 H 135.904 3.25796 2.59158 0
M  V30 1346 H 136.437 3.8504 0.999457 0
M  V30 1347 H 133.176 6.54775 -0.308186 0
M  V30 1348 H 132.696 5.86376 1.26188 0
M  V30 1349 H 134.375 6.39346 0.992237 0
M  V30 1350 N 134.507 -0.190092 1.56449 0
M  V30 1351 C 135.437 -1.23816 1.97969 0
M  V30 1352 C 136.418 -1.47201 0.852395 0
M  V30 1353 O 137.603 -1.58854 1.1171 0
M  V30 1354 C 134.733 -2.5813 2.3235 0
M  V30 1355 C 133.687 -2.49348 3.47864 0
M  V30 1356 C 133.013 -3.8798 3.67934 0
M  V30 1357 C 134.313 -2.01424 4.81898 0
M  V30 1358 H 136.007 -0.89311 2.85769 0
M  V30 1359 H 133.553 -0.428177 1.37487 0
M  V30 1360 H 135.506 -3.31637 2.59991 0
M  V30 1361 H 134.23 -2.94386 1.41438 0
M  V30 1362 H 132.889 -1.78297 3.20321 0
M  V30 1363 H 132.537 -4.21597 2.74344 0
M  V30 1364 H 132.237 -3.82978 4.45648 0
M  V30 1365 H 133.761 -4.63101 3.97957 0
M  V30 1366 H 135.175 -2.64693 5.08538 0
M  V30 1367 H 133.572 -2.07413 5.63116 0
M  V30 1368 H 134.642 -0.967677 4.75146 0
M  V30 1369 N 135.985 -1.50799 -0.457987 0
M  V30 1370 C 136.932 -1.70617 -1.5543 0
M  V30 1371 C 137.902 -0.547562 -1.56815 0
M  V30 1372 O 139.087 -0.779647 -1.74144 0
M  V30 1373 C 136.227 -1.81831 -2.93311 0
M  V30 1374 C 135.34 -3.09278 -3.01615 0
M  V30 1375 C 134.475 -3.11209 -4.30491 0
M  V30 1376 C 133.514 -4.33055 -4.32585 0
M  V30 1377 N 132.651 -4.32652 -5.52952 0
M  V30 1378 H 137.491 -2.64207 -1.37836 0
M  V30 1379 H 135.028 -1.30959 -0.669937 0
M  V30 1380 H 136.986 -1.86314 -3.73287 0
M  V30 1381 H 135.616 -0.916685 -3.0951 0
M  V30 1382 H 134.668 -3.14203 -2.1443 0
M  V30 1383 H 135.98 -3.99233 -2.99022 0
M  V30 1384 H 135.134 -3.14494 -5.18824 0
M  V30 1385 H 133.873 -2.19106 -4.35711 0
M  V30 1386 H 132.878 -4.29969 -3.42647 0
M  V30 1387 H 134.103 -5.264 -4.29046 0
M  V30 1388 H 132.049 -3.43409 -5.58933 0
M  V30 1389 H 131.966 -5.16392 -5.52155 0
M  V30 1390 H 133.234 -4.40101 -6.43375 0
M  V30 1391 N 137.463 0.71206 -1.40597 0
M  V30 1392 C 138.373 1.8562 -1.43466 0
M  V30 1393 C 139.389 1.70902 -0.326902 0
M  V30 1394 O 140.565 1.93105 -0.572043 0
M  V30 1395 C 137.63 3.21451 -1.29884 0
M  V30 1396 C 136.691 3.48398 -2.50833 0
M  V30 1397 C 135.924 4.77749 -2.3789 0
M  V30 1398 O 136.147 5.53089 -1.39459 0
M  V30 1399 O 135.081 5.05111 -3.27333 0
M  V30 1400 H 138.907 1.86155 -2.39958 0
M  V30 1401 H 136.492 0.86295 -1.21957 0
M  V30 1402 H 138.374 4.02579 -1.24531 0
M  V30 1403 H 137.049 3.21636 -0.364997 0
M  V30 1404 H 135.956 2.67265 -2.61763 0
M  V30 1405 H 137.289 3.53014 -3.4299 0
M  V30 1406 N 138.941 1.26152 0.944643 0
M  V30 1407 C 139.873 1.03199 2.04652 0
M  V30 1408 C 140.886 -0.00642356 1.62799 0
M  V30 1409 O 142.075 0.233263 1.76969 0
M  V30 1410 C 139.175 0.540111 3.34568 0
M  V30 1411 C 138.348 1.64697 4.05208 0
M  V30 1412 C 137.407 1.15374 5.13396 0
M  V30 1413 O 136.433 1.85013 5.38293 0
M  V30 1414 N 137.635 0.00031529 5.805 0
M  V30 1415 H 140.4 1.9808 2.2491 0
M  V30 1416 H 137.961 1.17491 1.11389 0
M  V30 1417 H 139.953 0.194401 4.04233 0
M  V30 1418 H 138.523 -0.315021 3.11009 0
M  V30 1419 H 137.743 2.16379 3.29506 0
M  V30 1420 H 139.031 2.3903 4.49157 0
M  V30 1421 H 138.429 -0.581336 5.62705 0
M  V30 1422 H 136.986 -0.286346 6.51171 0
M  V30 1423 N 140.419 -1.14872 1.07899 0
M  V30 1424 C 141.329 -2.2341 0.715915 0
M  V30 1425 C 142.345 -1.71808 -0.275306 0
M  V30 1426 O 143.521 -2.01039 -0.120545 0
M  V30 1427 C 140.586 -3.46474 0.125168 0
M  V30 1428 C 139.647 -4.13039 1.17034 0
M  V30 1429 C 138.88 -5.30229 0.607688 0
M  V30 1430 O 139.103 -5.675 -0.574497 0
M  V30 1431 O 138.037 -5.86444 1.35526 0
M  V30 1432 H 141.863 -2.56808 1.62121 0
M  V30 1433 H 139.448 -1.22702 0.852322 0
M  V30 1434 H 141.33 -4.20917 -0.201729 0
M  V30 1435 H 140.005 -3.14811 -0.753364 0
M  V30 1436 H 138.912 -3.40493 1.54968 0
M  V30 1437 H 140.245 -4.48796 2.02097 0
M  V30 1438 N 141.898 -0.863906 -1.31812 0
M  V30 1439 C 142.846 -0.30422 -2.30602 0
M  V30 1440 C 143.84 0.577419 -1.59255 0
M  V30 1441 O 145.046 0.464194 -1.73912 0
M  V30 1442 H 141.421 -0.0796877 -0.747766 0
M  V30 1443 H 143.392 -1.15148 -2.75288 0
M  V30 1444 C 142.141 0.484617 -3.44306 0
M  V30 1445 H 141.464 -0.18451 -3.99374 0
M  V30 1446 H 142.904 0.841664 -4.15562 0
M  V30 1447 C 141.363 1.6735 -2.92396 0
M  V30 1448 O 141.893 2.77273 -2.90659 0
M  V30 1449 N 140.099 1.50362 -2.48676 0
M  V30 1450 H 139.646 0.609402 -2.50288 0
M  V30 1451 H 139.604 2.30051 -2.14299 0
M  V30 1452 N 143.376 1.44774 -0.622745 0
M  V30 1453 C 144.792 1.56986 -0.287652 0
M  V30 1454 C 144.992 1.61167 1.20944 0
M  V30 1455 O 144.048 1.55015 1.99315 0
M  V30 1456 C 145.361 2.84551 -0.972188 0
M  V30 1457 C 146.909 2.9825 -0.949536 0
M  V30 1458 C 147.384 4.28605 -1.61437 0
M  V30 1459 N 148.875 4.35399 -1.58057 0
M  V30 1460 C 149.61 5.34964 -2.064 0
M  V30 1461 N 149.106 6.40981 -2.62897 0
M  V30 1462 N 150.899 5.26419 -1.97078 0
M  V30 1463 H 143.05 1.40304 -1.59463 0
M  V30 1464 H 145.313 0.671794 -0.668878 0
M  V30 1465 H 145.019 2.87417 -2.02693 0
M  V30 1466 H 144.893 3.73807 -0.504771 0
M  V30 1467 H 147.28 2.94941 0.0967067 0
M  V30 1468 H 147.361 2.10364 -1.45536 0
M  V30 1469 H 147.005 4.32672 -2.66002 0
M  V30 1470 H 146.935 5.15334 -1.08344 0
M  V30 1471 H 149.426 3.59397 -1.16801 0
M  V30 1472 H 149.739 7.13225 -2.97539 0
M  V30 1473 H 148.084 6.4169 -2.66943 0
M  V30 1474 H 151.275 4.42504 -1.52669 0
M  V30 1475 H 151.448 6.03861 -2.35066 0
M  V30 1476 N 144.854 0.36279 1.53368 0
M  V30 1477 C 145.801 -0.485008 2.25646 0
M  V30 1478 C 146.771 -1.07982 1.2621 0
M  V30 1479 O 147.956 -1.11284 1.54986 0
M  V30 1480 C 145.096 -1.62023 3.04701 0
M  V30 1481 C 144.209 -1.05086 4.19024 0
M  V30 1482 C 143.344 -2.15496 4.85525 0
M  V30 1483 C 142.383 -1.5601 5.91884 0
M  V30 1484 N 141.52 -2.60241 6.52088 0
M  V30 1485 H 146.36 0.137864 2.97681 0
M  V30 1486 H 143.897 0.0798061 1.46883 0
M  V30 1487 H 145.855 -2.28887 3.48807 0
M  V30 1488 H 144.485 -2.2138 2.34927 0
M  V30 1489 H 143.537 -0.27259 3.79422 0
M  V30 1490 H 144.849 -0.575926 4.95464 0
M  V30 1491 H 144.003 -2.90186 5.32801 0
M  V30 1492 H 142.742 -2.66341 4.08551 0
M  V30 1493 H 141.747 -0.798338 5.43973 0
M  V30 1494 H 142.972 -1.05994 6.70777 0
M  V30 1495 H 140.918 -3.10304 5.77968 0
M  V30 1496 H 140.835 -2.17426 7.24059 0
M  V30 1497 H 142.103 -3.34641 7.04014 0
M  V30 1498 N 146.332 -1.57332 0.0918853 0
M  V30 1499 C 147.58 -1.93853 -0.571446 0
M  V30 1500 C 147.901 -0.974212 -1.6892 0
M  V30 1501 O 147.171 -0.0257254 -1.95883 0
M  V30 1502 H 145.751 -0.715666 -0.214082 0
M  V30 1503 H 148.413 -1.94287 0.154464 0
M  V30 1504 H 147.509 -2.96191 -0.983729 0
M  V30 1505 N 147.81 0.181792 -1.56548 0
M  V30 1506 C 148.74 1.22765 -1.98623 0
M  V30 1507 C 149.721 1.46747 -0.860189 0
M  V30 1508 O 150.906 1.58259 -1.12551 0
M  V30 1509 C 148.036 2.56894 -2.33715 0
M  V30 1510 C 146.99 2.475 -3.49182 0
M  V30 1511 C 146.316 3.86023 -3.69986 0
M  V30 1512 C 147.616 1.98866 -4.82959 0
M  V30 1513 H 149.31 0.877942 -2.86239 0
M  V30 1514 H 146.856 0.42088 -1.37712 0
M  V30 1515 H 148.809 3.30253 -2.61746 0
M  V30 1516 H 147.533 2.93632 -1.42997 0
M  V30 1517 H 146.192 1.76596 -3.21262 0
M  V30 1518 H 145.84 4.20136 -2.76576 0
M  V30 1519 H 145.54 3.80609 -4.47672 0
M  V30 1520 H 147.064 4.60984 -4.00407 0
M  V30 1521 H 148.478 2.61992 -5.09934 0
M  V30 1522 H 146.875 2.04424 -5.64208 0
M  V30 1523 H 147.945 0.942465 -4.75653 0
M  V30 1524 N 149.288 1.51039 0.449983 0
M  V30 1525 C 150.537 1.62317 1.19733 0
M  V30 1526 C 150.85 0.339101 1.92638 0
M  V30 1527 O 152.056 0.331069 2.69474 0
M  V30 1528 C 150.512 2.86608 2.17678 0
M  V30 1529 C 150.12 4.21972 1.50479 0
M  V30 1530 C 151.864 3.07239 2.92924 0
M  V30 1531 C 149.771 5.37426 2.46834 0
M  V30 1532 H 148.701 0.604532 0.450619 0
M  V30 1533 H 151.352 1.77494 0.465625 0
M  V30 1534 H 149.734 2.65037 2.94231 0
M  V30 1535 H 150.908 4.53878 0.795716 0
M  V30 1536 H 149.223 4.07117 0.874344 0
M  V30 1537 H 151.82 3.90668 3.65079 0
M  V30 1538 H 152.163 2.19807 3.5354 0
M  V30 1539 H 152.696 3.29091 2.23481 0
M  V30 1540 H 149.435 6.27079 1.90926 0
M  V30 1541 H 148.955 5.09912 3.15832 0
M  V30 1542 H 150.634 5.68862 3.08228 0
M  V30 1543 N 150.766 -0.704594 1.40972 0
M  V30 1544 C 151.729 -1.80035 1.41845 0
M  V30 1545 C 152.729 -1.57774 0.310474 0
M  V30 1546 O 153.919 -1.64613 0.56992 0
M  V30 1547 C 151.051 -3.18284 1.22098 0
M  V30 1548 H 152.244 -1.80658 2.3938 0
M  V30 1549 H 149.797 -0.911329 1.26982 0
M  V30 1550 H 150.532 -3.23306 0.253672 0
M  V30 1551 H 150.317 -3.35843 2.02366 0
M  V30 1552 H 151.807 -3.98289 1.25522 0
M  V30 1553 N 152.244 -1.26651 -0.937939 0
M  V30 1554 C 153.207 -1.08546 -2.01867 0
M  V30 1555 C 154.207 -0.0327327 -1.60767 0
M  V30 1556 O 155.397 -0.276427 -1.71993 0
M  V30 1557 C 152.529 -0.651711 -3.34613 0
M  V30 1558 H 153.722 -2.04502 -2.1936 0
M  V30 1559 H 151.275 -1.09294 -1.11734 0
M  V30 1560 H 152.01 0.309696 -3.22818 0
M  V30 1561 H 151.795 -1.41189 -3.65798 0
M  V30 1562 H 153.285 -0.546973 -4.14002 0
M  V30 1563 N 153.722 1.14298 -1.08507 0
M  V30 1564 C 154.971 1.84708 -0.810305 0
M  V30 1565 C 155.284 1.83903 0.666271 0
M  V30 1566 O 156.49 2.50112 1.05624 0
M  V30 1567 C 154.946 3.31572 -1.39957 0
M  V30 1568 C 154.554 3.40791 -2.90801 0
M  V30 1569 C 156.298 4.07087 -1.20334 0
M  V30 1570 C 154.205 4.81872 -3.4286 0
M  V30 1571 H 153.135 0.691985 -0.299454 0
M  V30 1572 H 155.786 1.28841 -1.30661 0
M  V30 1573 H 154.168 3.87183 -0.830976 0
M  V30 1574 H 155.342 2.95225 -3.53806 0
M  V30 1575 H 153.657 2.78732 -3.0935 0
M  V30 1576 H 156.254 5.11225 -1.56693 0
M  V30 1577 H 156.597 4.16054 -0.143237 0
M  V30 1578 H 157.13 3.57779 -1.73893 0
M  V30 1579 H 153.869 4.78094 -4.48449 0
M  V30 1580 H 153.389 5.27972 -2.84615 0
M  V30 1581 H 155.068 5.50765 -3.39509 0
M  V30 1582 N 155.201 0.870884 1.31352 0
M  V30 1583 C 156.441 0.488783 1.9847 0
M  V30 1584 C 156.805 -0.941536 1.67329 0
M  V30 1585 O 158.006 -1.42903 2.27667 0
M  V30 1586 C 156.277 0.739688 3.49662 0
M  V30 1587 S 157.836 0.457582 4.36408 0
M  V30 1588 H 154.654 0.18242 0.6872 0
M  V30 1589 H 157.256 1.12711 1.59739 0
M  V30 1590 H 155.96 1.77944 3.69816 0
M  V30 1591 H 155.491 0.0883905 3.93301 0
M  V30 1592 H 157.506 -0.709752 4.91098 0
M  V30 1593 N 156.679 -1.44442 0.630414 0
M  V30 1594 C 157.642 -2.29107 -0.0652523 0
M  V30 1595 C 158.642 -1.41002 -0.772995 0
M  V30 1596 O 159.832 -1.62881 -0.617692 0
M  V30 1597 C 156.964 -3.22564 -1.10296 0
M  V30 1598 H 158.157 -2.92103 0.679401 0
M  V30 1599 H 155.71 -1.51343 0.390517 0
M  V30 1600 H 156.445 -2.64416 -1.87762 0
M  V30 1601 H 156.23 -3.87491 -0.59941 0
M  V30 1602 H 157.72 -3.86167 -1.5895 0
M  V30 1603 N 158.157 -0.370918 -1.53173 0
M  V30 1604 C 159.405 0.216673 -2.00935 0
M  V30 1605 C 159.726 1.48845 -1.25977 0
M  V30 1606 O 158.996 1.92286 -0.374551 0
M  V30 1607 H 157.576 0.0830565 -0.742368 0
M  V30 1608 H 160.238 -0.49838 -1.8842 0
M  V30 1609 H 159.334 0.439893 -3.08984 0
M  V30 1610 N 159.635 1.57281 -0.100228 0
M  V30 1611 C 161.046 1.81725 0.428107 0
M  V30 1612 C 161.397 1.01619 1.67833 0
M  V30 1613 O 160.522 0.247098 2.14985 0
M  V30 1614 C 161.117 3.29617 0.78347 0
M  V30 1615 C 159.676 3.54808 1.25653 0
M  V30 1616 C 158.823 2.76118 0.255752 0
M  V30 1617 H 161.774 1.55324 -0.325608 0
M  V30 1618 H 161.795 3.4322 1.64256 0
M  V30 1619 H 161.307 3.87893 -0.12665 0
M  V30 1620 H 159.408 3.01868 2.18418 0
M  V30 1621 H 159.521 4.63443 1.21482 0
M  V30 1622 H 157.885 2.43745 0.738956 0
M  V30 1623 H 158.668 3.37145 -0.647136 0
M  V30 1624 N 161.113 -0.173488 1.56642 0
M  V30 1625 C 162.341 -0.906095 1.86004 0
M  V30 1626 C 162.756 -1.75921 0.685355 0
M  V30 1627 O 162.113 -1.79198 -0.345578 0
M  V30 1628 C 162.164 -1.78462 3.14378 0
M  V30 1629 O 161.885 -0.965914 4.27319 0
M  V30 1630 C 163.386 -2.62707 3.57071 0
M  V30 1631 H 160.606 -0.263341 0.617165 0
M  V30 1632 H 163.15 -0.174236 2.03756 0
M  V30 1633 H 161.305 -2.46984 2.98459 0
M  V30 1634 H 161.719 -1.56655 5.00559 0
M  V30 1635 H 163.193 -3.19969 4.49804 0
M  V30 1636 H 163.67 -3.37472 2.81086 0
M  V30 1637 H 164.276 -1.99521 3.75595 0
M  V30 1638 N 162.591 -1.51276 -0.441967 0
M  V30 1639 C 163.554 -1.7167 -1.51862 0
M  V30 1640 C 164.554 -0.586793 -1.49711 0
M  V30 1641 O 165.744 -0.854276 -1.51815 0
M  V30 1642 C 162.876 -1.76889 -2.91416 0
M  V30 1643 H 164.069 -2.67754 -1.35084 0
M  V30 1644 H 161.622 -1.41196 -0.670333 0
M  V30 1645 H 162.357 -0.826026 -3.13604 0
M  V30 1646 H 162.142 -2.59001 -2.94382 0
M  V30 1647 H 163.632 -1.94522 -3.69528 0
M  V30 1648 N 164.069 0.697108 -1.41344 0
M  V30 1649 C 164.999 1.82353 -1.45841 0
M  V30 1650 C 165.98 1.67115 -0.317247 0
M  V30 1651 O 167.165 1.86871 -0.528474 0
M  V30 1652 C 164.295 3.20476 -1.33838 0
M  V30 1653 C 163.249 3.50415 -2.4575 0
M  V30 1654 C 162.575 4.87878 -2.18813 0
M  V30 1655 C 163.875 3.49546 -3.88091 0
M  V30 1656 H 165.569 1.78846 -2.40113 0
M  V30 1657 H 163.115 0.859028 -1.15571 0
M  V30 1658 H 165.068 3.98988 -1.35596 0
M  V30 1659 H 163.792 3.24604 -0.360498 0
M  V30 1660 H 162.451 2.74253 -2.43271 0
M  V30 1661 H 162.099 4.8863 -1.19371 0
M  V30 1662 H 161.799 5.08875 -2.93803 0
M  V30 1663 H 163.323 5.68702 -2.22284 0
M  V30 1664 H 164.737 4.18066 -3.92293 0
M  V30 1665 H 163.134 3.82075 -4.62751 0
M  V30 1666 H 164.204 2.48552 -4.16353 0
M  V30 1667 N 165.547 1.27147 0.931209 0
M  V30 1668 C 166.477 1.12081 2.04842 0
M  V30 1669 C 167.458 0.0232364 1.70084 0
M  V30 1670 O 168.643 0.197085 1.93197 0
M  V30 1671 C 165.773 0.76354 3.38803 0
M  V30 1672 C 164.727 1.81396 3.87659 0
M  V30 1673 C 164.053 1.31075 5.18385 0
M  V30 1674 C 165.353 3.21739 4.11438 0
M  V30 1675 H 167.047 2.05537 2.17703 0
M  V30 1676 H 164.593 0.989603 1.04608 0
M  V30 1677 H 166.546 0.644982 4.16435 0
M  V30 1678 H 165.27 -0.206727 3.25945 0
M  V30 1679 H 163.929 1.92136 3.12217 0
M  V30 1680 H 163.577 0.330037 5.01916 0
M  V30 1681 H 163.277 2.013 5.52044 0
M  V30 1682 H 164.801 1.20506 5.98591 0
M  V30 1683 H 166.215 3.14019 4.79651 0
M  V30 1684 H 164.612 3.89644 4.56397 0
M  V30 1685 H 165.682 3.67054 3.16859 0
M  V30 1686 N 167.025 -1.13721 1.09112 0
M  V30 1687 C 167.988 -2.17222 0.731241 0
M  V30 1688 C 168.988 -1.59035 -0.237566 0
M  V30 1689 O 170.178 -1.74192 -0.0161704 0
M  V30 1690 C 167.31 -3.40804 0.0808443 0
M  V30 1691 H 168.503 -2.50573 1.64783 0
M  V30 1692 H 166.056 -1.28493 0.889897 0
M  V30 1693 H 166.791 -3.1304 -0.847127 0
M  V30 1694 H 166.576 -3.84306 0.777896 0
M  V30 1695 H 168.066 -4.1731 -0.155657 0
M  V30 1696 N 168.503 -0.877838 -1.30888 0
M  V30 1697 C 169.453 -0.310872 -2.25871 0
M  V30 1698 C 170.437 0.556596 -1.50966 0
M  V30 1699 O 171.629 0.402187 -1.7237 0
M  V30 1700 C 168.758 0.479821 -3.3993 0
M  V30 1701 C 167.844 -0.401333 -4.22197 0
M  V30 1702 N 168.235 -1.49848 -4.83093 0
M  V30 1703 C 166.533 -0.195167 -4.45573 0
M  V30 1704 C 167.234 -2.0425 -5.44662 0
M  V30 1705 N 166.21 -1.33843 -5.26865 0
M  V30 1706 H 170.012 -1.1493 -2.70496 0
M  V30 1707 H 167.526 -0.726458 -1.45246 0
M  V30 1708 H 169.523 0.902582 -4.07012 0
M  V30 1709 H 168.183 1.31577 -2.96846 0
M  V30 1710 H 169.194 -1.88137 -4.82519 0
M  V30 1711 H 165.871 0.604192 -4.13105 0
M  V30 1712 H 167.261 -2.96345 -6.03017 0
M  V30 1713 N 169.982 1.44106 -0.638065 0
M  V30 1714 C 170.892 2.34513 0.0637334 0
M  V30 1715 C 171.908 1.53018 0.828346 0
M  V30 1716 O 173.084 1.85723 0.779036 0
M  V30 1717 C 170.149 3.31095 1.02844 0
M  V30 1718 C 169.21 4.28497 0.26244 0
M  V30 1719 C 168.443 5.20465 1.1812 0
M  V30 1720 O 168.666 5.16514 2.42011 0
M  V30 1721 O 167.6 5.98251 0.661774 0
M  V30 1722 H 171.426 2.95989 -0.68003 0
M  V30 1723 H 169.011 1.43994 -0.398252 0
M  V30 1724 H 170.893 3.90526 1.58327 0
M  V30 1725 H 169.568 2.72144 1.7527 0
M  V30 1726 H 168.475 3.72592 -0.335602 0
M  V30 1727 H 169.808 4.90388 -0.421936 0
M  V30 1728 N 171.46 0.379036 1.52974 0
M  V30 1729 C 172.709 -0.207612 2.00629 0
M  V30 1730 C 173.022 -1.48758 1.27006 0
M  V30 1731 O 174.228 -2.15365 1.65318 0
M  V30 1732 C 172.684 -0.42053 3.57435 0
M  V30 1733 C 172.292 0.845587 4.39948 0
M  V30 1734 C 174.036 -0.964102 4.13407 0
M  V30 1735 C 171.943 0.601513 5.88333 0
M  V30 1736 H 170.873 -0.0813591 0.749598 0
M  V30 1737 H 173.524 0.499853 1.76561 0
M  V30 1738 H 171.906 -1.18959 3.7771 0
M  V30 1739 H 173.08 1.61848 4.31442 0
M  V30 1740 H 171.395 1.31336 3.95145 0
M  V30 1741 H 173.992 -1.16225 5.21916 0
M  V30 1742 H 174.335 -1.93019 3.68849 0
M  V30 1743 H 174.868 -0.25487 3.96983 0
M  V30 1744 H 171.607 1.53831 6.37194 0
M  V30 1745 H 171.127 -0.132628 5.99653 0
M  V30 1746 H 172.806 0.232134 6.46583 0
M  V30 1747 N 172.938 -1.57226 0.108567 0
M  V30 1748 C 174.186 -1.94448 -0.550853 0
M  V30 1749 C 174.507 -0.992074 -1.67878 0
M  V30 1750 O 173.777 -0.0465 -1.95845 0
M  V30 1751 H 172.357 -0.717897 -0.206479 0
M  V30 1752 H 175.019 -1.94112 0.175062 0
M  V30 1753 H 174.115 -2.97218 -0.952259 0
M  V30 1754 N 174.416 0.165178 -1.56732 0
M  V30 1755 C 175.663 0.880807 -1.8234 0
M  V30 1756 C 175.991 1.81977 -0.686621 0
M  V30 1757 O 175.246 1.92971 0.325697 0
M  V30 1758 C 175.545 1.70405 -3.1416 0
M  V30 1759 C 175.211 0.913475 -4.4155 0
M  V30 1760 C 173.873 0.695303 -4.7615 0
M  V30 1761 C 176.225 0.359349 -5.1996 0
M  V30 1762 C 173.553 -0.0879947 -5.86634 0
M  V30 1763 C 175.905 -0.410893 -6.31264 0
M  V30 1764 C 174.569 -0.639808 -6.64427 0
M  V30 1765 H 173.839 0.32231 -0.667231 0
M  V30 1766 H 176.486 0.145402 -1.90947 0
M  V30 1767 H 174.791 2.50903 -3.00923 0
M  V30 1768 H 176.488 2.26091 -3.31186 0
M  V30 1769 H 173.078 1.09357 -4.14414 0
M  V30 1770 H 177.262 0.515228 -4.93618 0
M  V30 1771 H 172.518 -0.27503 -6.10781 0
M  V30 1772 H 176.692 -0.847494 -6.91224 0
M  V30 1773 H 174.319 -1.24864 -7.49875 0
M  V30 1774 N 175.894 1.51508 0.433938 0
M  V30 1775 C 177.142 1.6402 1.18075 0
M  V30 1776 C 177.463 0.360328 1.91642 0
M  V30 1777 O 176.733 -0.623945 1.85698 0
M  V30 1778 H 175.313 0.6045 0.43885 0
M  V30 1779 H 177.975 1.88452 0.497178 0
M  V30 1780 H 177.071 2.46949 1.90847 0
M  V30 1781 N 177.372 -0.689602 1.41712 0
M  V30 1782 C 178.597 -1.48329 1.44959 0
M  V30 1783 C 179.022 -1.8801 0.0581283 0
M  V30 1784 O 178.38 -1.55026 -0.940035 0
M  V30 1785 C 178.428 -2.71835 2.36935 0
M  V30 1786 O 177.532 -3.69549 1.8305 0
M  V30 1787 H 176.873 -0.446199 0.491734 0
M  V30 1788 H 179.403 -0.847127 1.86239 0
M  V30 1789 H 179.413 -3.20076 2.53013 0
M  V30 1790 H 178.088 -2.42291 3.38035 0
M  V30 1791 H 176.665 -3.2851 1.76452 0
M  V30 1792 N 178.85 -1.27639 -0.924453 0
M  V30 1793 C 179.797 -1.10644 -2.0255 0
M  V30 1794 C 180.767 -0.00658438 -1.66099 0
M  V30 1795 O 181.952 -0.16952 -1.90045 0
M  V30 1796 C 179.092 -0.76309 -3.36557 0
M  V30 1797 C 178.205 -1.94091 -3.85944 0
M  V30 1798 C 177.34 -1.53914 -5.08413 0
M  V30 1799 C 176.379 -2.68425 -5.50104 0
M  V30 1800 N 175.516 -2.28815 -6.63768 0
M  V30 1801 H 180.356 -2.04858 -2.16419 0
M  V30 1802 H 177.893 -1.01974 -1.06017 0
M  V30 1803 H 179.851 -0.544822 -4.13627 0
M  V30 1804 H 178.481 0.142102 -3.22487 0
M  V30 1805 H 177.533 -2.27162 -3.05125 0
M  V30 1806 H 178.845 -2.7998 -4.12811 0
M  V30 1807 H 177.999 -1.28231 -5.92994 0
M  V30 1808 H 176.738 -0.651391 -4.8333 0
M  V30 1809 H 175.743 -2.94819 -4.64071 0
M  V30 1810 H 176.968 -3.57826 -5.7718 0
M  V30 1811 H 174.914 -1.42495 -6.40337 0
M  V30 1812 H 174.831 -3.08242 -6.90306 0
M  V30 1813 H 176.099 -2.06387 -7.51681 0
M  V30 1814 N 180.328 1.1314 -1.09713 0
M  V30 1815 C 181.574 1.84757 -0.836224 0
M  V30 1816 C 181.907 1.8347 0.636598 0
M  V30 1817 O 181.182 1.27491 1.46889 0
M  V30 1818 C 181.465 3.32782 -1.37578 0
M  V30 1819 C 181.318 3.42567 -2.91493 0
M  V30 1820 C 182.637 4.28307 -1.01198 0
M  V30 1821 H 179.756 0.67082 -0.305236 0
M  V30 1822 H 182.398 1.3278 -1.35903 0
M  V30 1823 H 180.548 3.77177 -0.931097 0
M  V30 1824 H 182.22 3.06862 -3.44432 0
M  V30 1825 H 180.463 2.83349 -3.28475 0
M  V30 1826 H 181.134 4.46674 -3.24324 0
M  V30 1827 H 183.61 3.91999 -1.39556 0
M  V30 1828 H 182.486 5.30307 -1.41653 0
M  V30 1829 H 182.747 4.42029 0.0794833 0
M  V30 1830 N 181.806 0.884767 1.30421 0
M  V30 1831 C 183.034 0.518044 2.0031 0
M  V30 1832 C 183.449 -0.893408 1.66324 0
M  V30 1833 O 182.806 -1.5875 0.900262 0
M  V30 1834 C 182.857 0.682997 3.54989 0
M  V30 1835 O 182.578 2.03888 3.87764 0
M  V30 1836 C 184.079 0.31924 4.42149 0
M  V30 1837 H 181.299 0.200265 0.640418 0
M  V30 1838 H 183.843 1.19001 1.6631 0
M  V30 1839 H 181.998 0.0584052 3.87356 0
M  V30 1840 H 182.412 2.05735 4.82466 0
M  V30 1841 H 183.886 0.485555 5.4986 0
M  V30 1842 H 184.363 -0.742717 4.32875 0
M  V30 1843 H 184.969 0.920147 4.15227 0
M  V30 1844 N 183.284 -1.43765 0.645699 0
M  V30 1845 C 184.512 -2.06253 0.163556 0
M  V30 1846 C 184.927 -1.48352 -1.16778 0
M  V30 1847 O 184.284 -0.611932 -1.71935 0
M  V30 1848 C 184.335 -3.61453 0.0583186 0
M  V30 1849 O 184.056 -4.172 1.33702 0
M  V30 1850 C 185.557 -4.41002 -0.450795 0
M  V30 1851 H 182.777 -0.665413 0.0864077 0
M  V30 1852 H 185.321 -1.84396 0.884222 0
M  V30 1853 H 183.476 -3.82522 -0.612865 0
M  V30 1854 H 183.89 -5.10791 1.19131 0
M  V30 1855 H 185.364 -5.49966 -0.473403 0
M  V30 1856 H 185.841 -4.13488 -1.48068 0
M  V30 1857 H 186.447 -4.24886 0.187637 0
M  V30 1858 N 184.763 -0.387143 -1.52771 0
M  V30 1859 C 185.713 0.465942 -2.23188 0
M  V30 1860 C 186.697 1.03138 -1.23496 0
M  V30 1861 O 187.889 0.957845 -1.48843 0
M  V30 1862 C 185.018 1.59384 -3.04059 0
M  V30 1863 C 184.104 1.04024 -4.11144 0
M  V30 1864 N 184.495 0.211416 -5.05358 0
M  V30 1865 C 182.793 1.31295 -4.26237 0
M  V30 1866 C 183.494 -0.0941698 -5.81624 0
M  V30 1867 N 182.47 0.509207 -5.4121 0
M  V30 1868 H 186.272 -0.173856 -2.93385 0
M  V30 1869 H 183.786 -0.19633 -1.61209 0
M  V30 1870 H 185.783 2.21738 -3.53041 0
M  V30 1871 H 184.443 2.23648 -2.35397 0
M  V30 1872 H 185.454 -0.151151 -5.17679 0
M  V30 1873 H 182.131 1.95679 -3.68803 0
M  V30 1874 H 183.521 -0.765572 -6.67524 0
M  V30 1875 N 186.241 1.57166 -0.116904 0
M  V30 1876 C 187.652 1.82169 0.408809 0
M  V30 1877 C 188.003 1.03393 1.66746 0
M  V30 1878 O 187.128 0.269886 2.1471 0
M  V30 1879 C 187.723 3.30429 0.748466 0
M  V30 1880 C 186.282 3.5612 1.21882 0
M  V30 1881 C 185.429 2.76374 0.226452 0
M  V30 1882 H 188.38 1.5497 -0.342063 0
M  V30 1883 H 188.401 3.44943 1.60607 0
M  V30 1884 H 187.913 3.87737 -0.167784 0
M  V30 1885 H 186.014 3.04168 2.15204 0
M  V30 1886 H 186.127 4.64705 1.16559 0
M  V30 1887 H 184.491 2.44515 0.713063 0
M  V30 1888 H 185.274 3.3644 -0.682859 0
M  V30 1889 N 187.719 -0.156864 1.56817 0
M  V30 1890 C 188.649 -1.19589 2.00551 0
M  V30 1891 C 189.63 -1.4536 0.883426 0
M  V30 1892 O 190.815 -1.56449 1.15054 0
M  V30 1893 C 187.945 -2.53143 2.37773 0
M  V30 1894 C 186.899 -2.41913 3.53075 0
M  V30 1895 C 186.225 -3.80088 3.76081 0
M  V30 1896 C 187.525 -1.91157 4.86062 0
M  V30 1897 H 189.219 -0.832293 2.87599 0
M  V30 1898 H 186.765 -0.398918 1.38364 0
M  V30 1899 H 188.718 -3.26047 2.66967 0
M  V30 1900 H 187.442 -2.91319 1.4765 0
M  V30 1901 H 186.101 -1.71462 3.24031 0
M  V30 1902 H 185.749 -4.15683 2.83225 0
M  V30 1903 H 185.449 -3.73439 4.53671 0
M  V30 1904 H 186.973 -4.54556 4.0769 0
M  V30 1905 H 188.387 -2.53846 5.14038 0
M  V30 1906 H 186.784 -1.95422 5.67389 0
M  V30 1907 H 187.854 -0.866673 4.77092 0
M  V30 1908 N 189.197 -1.51736 -0.425897 0
M  V30 1909 C 190.16 -1.73271 -1.50032 0
M  V30 1910 C 191.16 -0.602639 -1.4908 0
M  V30 1911 O 192.35 -0.87033 -1.509 0
M  V30 1912 C 189.482 -1.79969 -2.89523 0
M  V30 1913 H 190.675 -2.69172 -1.32237 0
M  V30 1914 H 188.228 -1.41899 -0.65532 0
M  V30 1915 H 188.963 -0.859241 -3.1271 0
M  V30 1916 H 188.748 -2.62109 -2.91619 0
M  V30 1917 H 190.238 -1.9843 -3.67444 0
M  V30 1918 N 190.675 0.682077 -1.42076 0
M  V30 1919 C 191.622 1.79578 -1.44984 0
M  V30 1920 C 192.592 1.6332 -0.302614 0
M  V30 1921 O 193.777 1.83978 -0.505633 0
M  V30 1922 C 190.917 3.1756 -1.35091 0
M  V30 1923 C 190.03 3.45156 -2.59791 0
M  V30 1924 C 189.165 4.72826 -2.42093 0
M  V30 1925 C 188.204 4.93433 -3.62202 0
M  V30 1926 N 187.341 6.12338 -3.43491 0
M  V30 1927 H 192.181 1.76427 -2.40161 0
M  V30 1928 H 189.718 0.861376 -1.19242 0
M  V30 1929 H 191.676 3.97287 -1.27354 0
M  V30 1930 H 190.306 3.19854 -0.435133 0
M  V30 1931 H 189.358 2.59736 -2.77923 0
M  V30 1932 H 190.67 3.5628 -3.49094 0
M  V30 1933 H 189.824 5.60631 -2.319 0
M  V30 1934 H 188.563 4.63973 -1.50268 0
M  V30 1935 H 187.568 4.04073 -3.72834 0
M  V30 1936 H 188.793 5.04136 -4.54998 0
M  V30 1937 H 186.739 6.04672 -2.54377 0
M  V30 1938 H 186.656 6.2429 -4.26377 0
M  V30 1939 H 187.924 7.02841 -3.37097 0
M  V30 1940 N 192.153 1.28127 0.917671 0
M  V30 1941 C 193.43 1.05761 1.64542 0
M  V30 1942 C 193.81 -0.404344 2.07191 0
M  V30 1943 O 193.158 -1.38963 1.81388 0
M  V30 1944 C 193.368 2.02857 2.83989 0
M  V30 1945 C 194.716 2.32786 3.551 0
M  V30 1946 O 195.74 2.0091 2.94132 0
M  V30 1947 O 194.599 2.87169 4.64969 0
M  V30 1948 H 191.693 0.403916 0.721652 0
M  V30 1949 H 194.239 1.39431 0.967322 0
M  V30 1950 H 193.011 3.01407 2.49538 0
M  V30 1951 H 192.634 1.69809 3.59514 0
M  V30 1952 N 193.631 -1.12557 1.10312 0
M  V30 1953 C 194.578 -2.18247 0.750781 0
M  V30 1954 C 195.548 -1.63853 -0.272293 0
M  V30 1955 O 196.733 -1.90195 -0.151862 0
M  V30 1956 C 193.873 -3.44591 0.187379 0
M  V30 1957 C 192.986 -4.13046 1.2656 0
M  V30 1958 C 192.121 -5.27034 0.663978 0
M  V30 1959 C 191.16 -5.87353 1.72287 0
M  V30 1960 N 190.297 -6.92757 1.1416 0
M  V30 1961 H 195.137 -2.47732 1.65628 0
M  V30 1962 H 192.674 -1.21629 0.827337 0
M  V30 1963 H 194.632 -4.16904 -0.157148 0
M  V30 1964 H 193.262 -3.15527 -0.681355 0
M  V30 1965 H 192.314 -3.38924 1.72727 0
M  V30 1966 H 193.626 -4.53947 2.06721 0
M  V30 1967 H 192.78 -6.06104 0.268824 0
M  V30 1968 H 191.519 -4.87407 -0.169082 0
M  V30 1969 H 190.524 -5.06971 2.12746 0
M  V30 1970 H 191.749 -6.29051 2.55875 0
M  V30 1971 H 189.695 -6.5517 0.329984 0
M  V30 1972 H 189.612 -7.3225 1.88007 0
M  V30 1973 H 190.88 -7.75658 0.772956 0
M  V30 1974 N 195.109 -0.891671 -1.2995 0
M  V30 1975 C 196.042 -0.307994 -2.26112 0
M  V30 1976 C 197.02 0.575262 -1.52084 0
M  V30 1977 O 198.204 0.523864 -1.81074 0
M  V30 1978 C 195.331 0.561734 -3.34009 0
M  V30 1979 C 194.377 -0.253107 -4.25748 0
M  V30 1980 S 195.21 -1.64572 -5.09584 0
M  V30 1981 C 196.366 -0.782699 -6.20987 0
M  V30 1982 H 196.599 -1.12309 -2.75271 0
M  V30 1983 H 194.132 -0.691509 -1.38049 0
M  V30 1984 H 196.09 1.05777 -3.96638 0
M  V30 1985 H 194.751 1.35099 -2.83561 0
M  V30 1986 H 193.944 0.410908 -5.02322 0
M  V30 1987 H 193.546 -0.682004 -3.67729 0
M  V30 1988 H 195.838 -0.00257476 -6.775 0
M  V30 1989 H 196.781 -1.52026 -6.91588 0
M  V30 1990 H 197.189 -0.340638 -5.63471 0
M  V30 1991 N 196.587 1.43421 -0.653314 0
M  V30 1992 C 197.52 2.2803 0.0879804 0
M  V30 1993 C 198.498 1.39833 0.82979 0
M  V30 1994 O 199.682 1.69275 0.829341 0
M  V30 1995 C 196.809 3.19247 1.13132 0
M  V30 1996 C 195.855 4.23704 0.487546 0
M  V30 1997 S 196.688 5.30377 -0.738961 0
M  V30 1998 C 197.844 6.25162 0.30384 0
M  V30 1999 H 198.077 2.90554 -0.629739 0
M  V30 2000 H 195.61 1.47934 -0.442156 0
M  V30 2001 H 197.568 3.72346 1.72827 0
M  V30 2002 H 196.229 2.55901 1.82136 0
M  V30 2003 H 195.422 4.87631 1.27407 0
M  V30 2004 H 195.024 3.73983 -0.0352915 0
M  V30 2005 H 197.316 6.67321 1.17 0
M  V30 2006 H 198.259 7.07463 -0.300402 0
M  V30 2007 H 198.667 5.60864 0.63969 0
M  V30 2008 N 198.065 0.39524 1.52563 0
M  V30 2009 C 199.013 -0.451859 2.28169 0
M  V30 2010 C 200.007 -1.05792 1.32304 0
M  V30 2011 O 201.213 -0.997718 1.49818 0
M  V30 2012 H 197.588 -0.164481 0.733792 0
M  V30 2013 H 199.559 0.207199 2.9768 0
M  V30 2014 C 198.308 -1.56385 3.10546 0
M  V30 2015 H 197.631 -1.10682 3.84174 0
M  V30 2016 H 199.071 -2.13067 3.66577 0
M  V30 2017 C 197.53 -2.52328 2.23231 0
M  V30 2018 O 198.06 -3.5588 1.86312 0
M  V30 2019 N 196.266 -2.22209 1.87274 0
M  V30 2020 H 195.813 -1.38033 2.17496 0
M  V30 2021 H 195.771 -2.86652 1.29143 0
M  V30 2022 N 199.544 -1.57102 0.125237 0
M  V30 2023 C 200.792 -1.95021 -0.530198 0
M  V30 2024 C 201.113 -1.00982 -1.66816 0
M  V30 2025 O 200.383 -0.0672693 -1.95784 0
M  V30 2026 H 198.963 -0.720046 -0.198853 0
M  V30 2027 H 201.625 -1.93916 0.19564 0
M  V30 2028 H 200.721 -2.98211 -0.920681 0
M  V30 2029 N 201.022 0.148545 -1.56898 0
M  V30 2030 C 202.27 0.859717 -1.82902 0
M  V30 2031 C 202.591 1.81775 -0.70588 0
M  V30 2032 O 201.861 1.93994 0.272586 0
M  V30 2033 H 200.441 0.320469 -0.674766 0
M  V30 2034 H 203.103 0.142918 -1.94375 0
M  V30 2035 H 202.199 1.4229 -2.77777 0
M  V30 2036 N 202.5 1.5196 0.417844 0
M  V30 2037 C 203.45 1.7106 1.5074 0
M  V30 2038 C 204.434 0.564487 1.50673 0
M  V30 2039 O 205.626 0.821206 1.56797 0
M  V30 2040 C 202.755 1.85677 2.88754 0
M  V30 2041 C 201.841 3.06133 2.93502 0
M  V30 2042 N 202.232 4.28987 2.67962 0
M  V30 2043 C 200.53 3.05787 3.24669 0
M  V30 2044 C 201.231 5.10395 2.79055 0
M  V30 2045 N 200.207 4.45455 3.11561 0
M  V30 2046 H 204.009 2.63696 1.29775 0
M  V30 2047 H 201.523 1.49873 0.625436 0
M  V30 2048 H 203.52 1.97475 3.67164 0
M  V30 2049 H 202.18 0.942348 3.10725 0
M  V30 2050 H 203.191 4.57607 2.4252 0
M  V30 2051 H 199.868 2.2405 3.52289 0
M  V30 2052 H 201.258 6.18247 2.63097 0
M  V30 2053 N 203.978 -0.674533 1.42435 0
M  V30 2054 C 205.208 -1.46071 1.46105 0
M  V30 2055 C 205.616 -1.89067 0.0709605 0
M  V30 2056 O 204.959 -1.58731 -0.924677 0
M  V30 2057 C 205.021 -2.74145 2.32561 0
M  V30 2058 C 204.685 -2.53224 3.8043 0
M  V30 2059 C 205.682 -2.17809 4.72075 0
M  V30 2060 C 203.367 -2.6821 4.24698 0
M  V30 2061 C 205.361 -1.97648 6.05982 0
M  V30 2062 C 203.048 -2.47665 5.58664 0
M  V30 2063 C 204.046 -2.12437 6.49122 0
M  V30 2064 O 203.734 -1.9209 7.80613 0
M  V30 2065 H 203.466 -0.455959 0.499076 0
M  V30 2066 H 206.02 -0.836193 1.87609 0
M  V30 2067 H 204.25 -3.3908 1.85908 0
M  V30 2068 H 205.939 -3.36028 2.27683 0
M  V30 2069 H 206.705 -2.05826 4.39159 0
M  V30 2070 H 202.584 -2.94609 3.54579 0
M  V30 2071 H 206.128 -1.70075 6.7655 0
M  V30 2072 H 202.025 -2.59244 5.91154 0
M  V30 2073 H 202.793 -2.06686 7.91974 0
M  V30 2074 N 205.456 -1.28612 -0.910864 0
M  V30 2075 C 206.684 -1.18792 -1.69399 0
M  V30 2076 C 207.099 0.253039 -1.87097 0
M  V30 2077 O 206.456 1.17071 -1.40003 0
M  V30 2078 C 206.507 -1.88511 -3.08457 0
M  V30 2079 O 206.228 -3.26979 -2.91576 0
M  V30 2080 C 207.729 -1.85029 -4.02839 0
M  V30 2081 H 204.949 -0.412233 -0.529438 0
M  V30 2082 H 207.493 -1.69788 -1.13984 0
M  V30 2083 H 205.648 -1.41379 -3.60681 0
M  V30 2084 H 206.062 -3.61936 -3.79608 0
M  V30 2085 H 207.536 -2.38395 -4.97867 0
M  V30 2086 H 208.013 -0.823303 -4.31414 0
M  V30 2087 H 208.619 -2.31853 -3.56545 0
M  V30 2088 N 206.934 1.1197 -1.10907 0
M  V30 2089 C 208.164 1.8713 -0.875553 0
M  V30 2090 C 208.572 1.8016 0.577843 0
M  V30 2091 O 207.915 1.17699 1.41042 0
M  V30 2092 C 207.977 3.37005 -1.2517 0
M  V30 2093 C 207.641 3.67748 -2.71313 0
M  V30 2094 C 208.638 3.65698 -3.69542 0
M  V30 2095 C 206.323 3.96928 -3.07821 0
M  V30 2096 C 208.317 3.92395 -5.023 0
M  V30 2097 C 206.004 4.23284 -4.40765 0
M  V30 2098 C 207.002 4.21005 -5.37814 0
M  V30 2099 O 206.69 4.46704 -6.68364 0
M  V30 2100 H 206.422 0.598786 -0.313737 0
M  V30 2101 H 208.976 1.42568 -1.47863 0
M  V30 2102 H 207.206 3.82146 -0.591741 0
M  V30 2103 H 208.895 3.93519 -0.994877 0
M  V30 2104 H 209.661 3.43211 -3.42682 0
M  V30 2105 H 205.54 3.97841 -2.32902 0
M  V30 2106 H 209.084 3.90531 -5.78041 0
M  V30 2107 H 204.981 4.45246 -4.67361 0
M  V30 2108 H 205.749 4.64299 -6.74069 0
M  V30 2109 N 208.412 0.89855 1.29475 0
M  V30 2110 C 209.637 0.538561 2.00285 0
M  V30 2111 C 210.062 -0.869135 1.66816 0
M  V30 2112 O 209.42 -1.57831 0.892145 0
M  V30 2113 C 209.468 0.736475 3.52999 0
M  V30 2114 O 208.572 -0.211537 4.11857 0
M  V30 2115 H 207.913 0.210563 0.62973 0
M  V30 2116 H 210.443 1.20982 1.64998 0
M  V30 2117 H 210.453 0.640685 4.02938 0
M  V30 2118 H 209.128 1.76276 3.76696 0
M  V30 2119 H 207.705 -0.0682991 3.72837 0
M  V30 2120 N 209.89 -1.43072 0.660911 0
M  V30 2121 C 210.8 -2.34585 -0.0264163 0
M  V30 2122 C 211.816 -1.54316 -0.803898 0
M  V30 2123 O 212.992 -1.86939 -0.749391 0
M  V30 2124 C 210.057 -3.32689 -0.975639 0
M  V30 2125 C 209.118 -4.2886 -0.194236 0
M  V30 2126 C 208.351 -5.22278 -1.09825 0
M  V30 2127 O 208.574 -5.20299 -2.33763 0
M  V30 2128 O 207.508 -5.99228 -0.566513 0
M  V30 2129 H 211.334 -2.94869 0.727034 0
M  V30 2130 H 208.919 -1.43342 0.42111 0
M  V30 2131 H 210.801 -3.92995 -1.52094 0
M  V30 2132 H 209.476 -2.74898 -1.70918 0
M  V30 2133 H 208.383 -3.72011 0.394835 0
M  V30 2134 H 209.716 -4.89655 0.499899 0
M  V30 2135 N 211.368 -0.403325 -1.52352 0
M  V30 2136 C 212.316 0.439752 -2.28405 0
M  V30 2137 C 213.31 1.05089 -1.32863 0
M  V30 2138 O 214.516 0.989759 -1.50345 0
M  V30 2139 H 210.891 0.160587 -0.734653 0
M  V30 2140 H 212.862 -0.222983 -2.97566 0
M  V30 2141 C 211.611 1.54736 -3.11371 0
M  V30 2142 H 210.934 1.08643 -3.84755 0
M  V30 2143 H 212.374 2.1112 -3.67701 0
M  V30 2144 C 210.833 2.51141 -2.24566 0
M  V30 2145 O 211.363 3.54887 -1.88196 0
M  V30 2146 N 209.569 2.21213 -1.8845 0
M  V30 2147 H 209.116 1.36878 -2.18225 0
M  V30 2148 H 209.074 2.85963 -1.30662 0
M  V30 2149 N 212.846 1.57033 -0.133567 0
M  V30 2150 C 214.262 1.58035 0.222944 0
M  V30 2151 C 214.462 1.14713 1.6566 0
M  V30 2152 O 213.518 0.841218 2.38075 0
M  V30 2153 C 214.831 3.00691 -0.0236116 0
M  V30 2154 C 216.379 3.12973 0.0411512 0
M  V30 2155 C 216.854 4.57654 -0.177899 0
M  V30 2156 N 218.345 4.63033 -0.124365 0
M  V30 2157 C 219.08 5.72771 -0.268553 0
M  V30 2158 N 218.576 6.91206 -0.46972 0
M  V30 2159 N 220.369 5.61718 -0.2071 0
M  V30 2160 H 212.52 1.8349 -1.06981 0
M  V30 2161 H 214.783 0.848677 -0.422436 0
M  V30 2162 H 214.489 3.36726 -1.0153 0
M  V30 2163 H 214.363 3.70614 0.701808 0
M  V30 2164 H 216.75 2.76787 1.02338 0
M  V30 2165 H 216.831 2.45564 -0.716383 0
M  V30 2166 H 216.475 4.94542 -1.15717 0
M  V30 2167 H 216.405 5.23173 0.599797 0
M  V30 2168 H 218.896 3.7789 0.027011 0
M  V30 2169 H 219.209 7.70693 -0.570212 0
M  V30 2170 H 217.554 6.93156 -0.505876 0
M  V30 2171 H 220.745 4.68072 -0.0507986 0
M  V30 2172 H 220.918 6.47195 -0.322909 0
M  V30 2173 N 214.325 -0.140222 1.56975 0
M  V30 2174 C 215.571 -0.852949 1.83991 0
M  V30 2175 C 215.904 -1.80512 0.716187 0
M  V30 2176 O 215.179 -1.92479 -0.279681 0
M  V30 2177 C 215.462 -1.6215 3.21527 0
M  V30 2178 C 215.315 -0.690363 4.4447 0
M  V30 2179 C 216.634 -2.58247 3.56366 0
M  V30 2180 H 213.753 -0.308634 0.669264 0
M  V30 2181 H 216.395 -0.117898 1.89634 0
M  V30 2182 H 214.545 -2.24812 3.16847 0
M  V30 2183 H 216.217 -0.0742264 4.6124 0
M  V30 2184 H 214.46 -0.000396433 4.338 0
M  V30 2185 H 215.131 -1.2643 5.37326 0
M  V30 2186 H 217.607 -2.05701 3.61699 0
M  V30 2187 H 216.483 -3.09067 4.53617 0
M  V30 2188 H 216.744 -3.39923 2.82674 0
M  V30 2189 N 215.803 -1.52179 -0.40978 0
M  V30 2190 C 216.713 -1.78364 -1.52392 0
M  V30 2191 C 217.729 -0.669183 -1.60617 0
M  V30 2192 O 218.905 -0.954518 -1.77344 0
M  V30 2193 C 215.97 -1.92822 -2.88133 0
M  V30 2194 C 215.031 -3.16725 -2.898 0
M  V30 2195 C 214.264 -3.30483 -4.19067 0
M  V30 2196 O 214.487 -2.49522 -5.12928 0
M  V30 2197 O 213.421 -4.2363 -4.27576 0
M  V30 2198 H 217.247 -2.72931 -1.33201 0
M  V30 2199 H 214.832 -1.37016 -0.59557 0
M  V30 2200 H 216.714 -2.04157 -3.68643 0
M  V30 2201 H 215.389 -1.01444 -3.07393 0
M  V30 2202 H 214.296 -3.10848 -2.08146 0
M  V30 2203 H 215.629 -4.07881 -2.75489 0
M  V30 2204 N 217.281 0.66697 -1.42791 0
M  V30 2205 C 218.228 1.7803 -1.4688 0
M  V30 2206 C 219.198 1.6299 -0.319919 0
M  V30 2207 O 220.383 1.83432 -0.525118 0
M  V30 2208 C 217.523 3.1611 -1.38451 0
M  V30 2209 C 216.636 3.42381 -2.63437 0
M  V30 2210 C 215.771 4.70232 -2.47094 0
M  V30 2211 C 214.81 4.89564 -3.67415 0
M  V30 2212 N 213.947 6.08661 -3.49966 0
M  V30 2213 H 218.787 1.7387 -2.42019 0
M  V30 2214 H 216.324 0.84868 -1.20149 0
M  V30 2215 H 218.282 3.95914 -1.31561 0
M  V30 2216 H 216.912 3.19374 -0.469033 0
M  V30 2217 H 215.964 2.56774 -2.80662 0
M  V30 2218 H 217.276 3.52557 -3.52853 0
M  V30 2219 H 216.43 5.5814 -2.37834 0
M  V30 2220 H 215.169 4.62353 -1.5518 0
M  V30 2221 H 214.174 4.00096 -3.77099 0
M  V30 2222 H 215.399 4.99282 -4.6032 0
M  V30 2223 H 213.345 6.0194 -2.60776 0
M  V30 2224 H 213.262 6.19733 -4.32975 0
M  V30 2225 H 214.53 6.99226 -3.44532 0
M  V30 2226 N 218.759 1.29093 0.90403 0
M  V30 2227 C 220.036 1.075 1.63411 0
M  V30 2228 C 220.416 -0.382346 2.07609 0
M  V30 2229 O 219.764 -1.37031 1.82851 0
M  V30 2230 C 219.974 2.05858 2.81822 0
M  V30 2231 C 221.322 2.36539 3.52611 0
M  V30 2232 O 222.346 2.04019 2.91984 0
M  V30 2233 O 221.205 2.92085 4.61897 0
M  V30 2234 H 218.299 0.411547 0.717327 0
M  V30 2235 H 220.845 1.40449 0.952479 0
M  V30 2236 H 219.617 3.04037 2.46327 0
M  V30 2237 H 219.24 1.73613 3.57693 0
M  V30 2238 N 220.237 -1.11381 1.11499 0
M  V30 2239 C 221.485 -1.8277 0.862524 0
M  V30 2240 C 221.806 -1.85097 -0.613534 0
M  V30 2241 O 221.076 -1.32198 -1.4457 0
M  V30 2242 H 219.656 -0.676823 0.316101 0
M  V30 2243 H 222.318 -1.34816 1.4075 0
M  V30 2244 H 221.414 -2.86614 1.23527 0
M  V30 2245 N 221.715 -0.905404 -1.28997 0
M  V30 2246 C 222.645 -0.404212 -2.29975 0
M  V30 2247 C 223.626 0.523784 -1.61835 0
M  V30 2248 O 224.811 0.433298 -1.89304 0
M  V30 2249 C 221.941 0.364042 -3.45387 0
M  V30 2250 C 220.895 -0.474048 -4.25367 0
M  V30 2251 C 220.221 0.422045 -5.33032 0
M  V30 2252 C 221.521 -1.72696 -4.92923 0
M  V30 2253 H 223.215 -1.24807 -2.72146 0
M  V30 2254 H 220.761 -0.601585 -1.30832 0
M  V30 2255 H 222.714 0.725447 -4.15109 0
M  V30 2256 H 221.438 1.24174 -3.02074 0
M  V30 2257 H 220.097 -0.81786 -3.57361 0
M  V30 2258 H 219.745 1.29804 -4.85963 0
M  V30 2259 H 219.445 -0.135057 -5.87445 0
M  V30 2260 H 220.969 0.779517 -6.05604 0
M  V30 2261 H 222.383 -1.43495 -5.55051 0
M  V30 2262 H 220.78 -2.22582 -5.57295 0
M  V30 2263 H 221.85 -2.45964 -4.17887 0
M  V30 2264 N 223.193 1.4272 -0.668489 0
M  V30 2265 C 224.442 2.00846 -0.185389 0
M  V30 2266 C 224.755 1.53442 1.21305 0
M  V30 2267 O 225.961 2.03944 1.79218 0
M  V30 2268 C 224.417 3.58805 -0.280591 0
M  V30 2269 C 224.025 4.15198 -1.68268 0
M  V30 2270 C 225.769 4.24255 0.14412 0
M  V30 2271 C 223.676 5.655 -1.73099 0
M  V30 2272 H 222.606 0.751145 -0.0655475 0
M  V30 2273 H 225.257 1.63516 -0.832752 0
M  V30 2274 H 223.639 3.93608 0.434553 0
M  V30 2275 H 224.813 3.91866 -2.42441 0
M  V30 2276 H 223.128 3.62176 -2.05469 0
M  V30 2277 H 225.725 5.34547 0.128086 0
M  V30 2278 H 226.068 3.99277 1.17827 0
M  V30 2279 H 226.601 3.94389 -0.519798 0
M  V30 2280 H 223.34 5.95268 -2.74475 0
M  V30 2281 H 222.86 5.90842 -1.03274 0
M  V30 2282 H 224.539 6.29808 -1.48158 0
M  V30 2283 N 224.671 0.411399 1.52136 0
M  V30 2284 C 225.601 -0.404015 2.29978 0
M  V30 2285 C 226.582 -1.04412 1.34284 0
M  V30 2286 O 227.767 -1.0527 1.63192 0
M  V30 2287 C 224.897 -1.5197 3.12286 0
M  V30 2288 C 223.851 -1.00448 4.16046 0
M  V30 2289 C 223.177 -2.21393 4.86712 0
M  V30 2290 C 224.477 -0.0569336 5.22269 0
M  V30 2291 H 226.171 0.245529 2.98392 0
M  V30 2292 H 223.717 0.119525 1.43503 0
M  V30 2293 H 225.67 -2.09715 3.6551 0
M  V30 2294 H 224.394 -2.19716 2.41646 0
M  V30 2295 H 223.053 -0.449421 3.63835 0
M  V30 2296 H 222.701 -2.87699 4.12599 0
M  V30 2297 H 222.401 -1.87571 5.56858 0
M  V30 2298 H 223.925 -2.7974 5.4275 0
M  V30 2299 H 225.339 -0.54325 5.7072 0
M  V30 2300 H 223.736 0.192594 5.99791 0
M  V30 2301 H 224.806 0.887663 4.76706 0
M  V30 2302 N 226.149 -1.5696 0.141893 0
M  V30 2303 C 227.377 -2.00322 -0.517579 0
M  V30 2304 C 227.792 -1.02193 -1.58752 0
M  V30 2305 O 227.149 -0.0181619 -1.82491 0
M  V30 2306 C 227.2 -3.43618 -1.12289 0
M  V30 2307 O 226.921 -4.37995 -0.0956929 0
M  V30 2308 C 228.422 -4.02231 -1.86347 0
M  V30 2309 H 225.642 -0.657243 -0.135177 0
M  V30 2310 H 228.186 -2.03146 0.234973 0
M  V30 2311 H 226.341 -3.41662 -1.82609 0
M  V30 2312 H 226.755 -5.21729 -0.538469 0
M  V30 2313 H 228.229 -5.04509 -2.23997 0
M  V30 2314 H 228.706 -3.42655 -2.74744 0
M  V30 2315 H 229.312 -4.07802 -1.20737 0
M  V30 2316 N 227.627 0.131896 -1.57047 0
M  V30 2317 C 228.852 0.860418 -1.8871 0
M  V30 2318 C 229.277 1.73251 -0.73251 0
M  V30 2319 O 228.635 1.785 0.317429 0
M  V30 2320 C 228.683 1.68047 -3.19049 0
M  V30 2321 O 227.787 2.7862 -3.04047 0
M  V30 2322 H 227.128 0.238743 -0.619595 0
M  V30 2323 H 229.658 0.118169 -2.04258 0
M  V30 2324 H 229.668 2.07238 -3.51449 0
M  V30 2325 H 228.343 1.04018 -4.02682 0
M  V30 2326 H 226.92 2.42726 -2.83088 0
M  V30 2327 N 229.106 1.52395 0.401703 0
M  V30 2328 C 230.522 1.41363 0.740864 0
M  V30 2329 C 230.722 0.523982 1.94568 0
M  V30 2330 O 229.778 -0.00741204 2.52499 0
M  V30 2331 C 231.091 2.84011 0.987847 0
M  V30 2332 C 232.639 2.93404 1.09011 0
M  V30 2333 C 233.114 4.37036 1.3698 0
M  V30 2334 N 234.605 4.40304 1.43829 0
M  V30 2335 C 235.34 5.48508 1.67112 0
M  V30 2336 N 234.836 6.66819 1.87949 0
M  V30 2337 N 236.629 5.36034 1.69187 0
M  V30 2338 H 228.78 2.08765 -0.391262 0
M  V30 2339 H 231.043 0.941265 -0.112798 0
M  V30 2340 H 230.749 3.51265 0.174835 0
M  V30 2341 H 230.623 3.25502 1.906 0
M  V30 2342 H 233.01 2.26325 1.8937 0
M  V30 2343 H 233.091 2.55359 0.15015 0
M  V30 2344 H 232.735 5.04676 0.571353 0
M  V30 2345 H 232.665 4.72623 2.3224 0
M  V30 2346 H 235.156 3.55024 1.29486 0
M  V30 2347 H 235.469 7.45063 2.05185 0
M  V30 2348 H 233.814 6.6987 1.85199 0
M  V30 2349 H 237.005 4.42579 1.52451 0
M  V30 2350 H 237.178 6.20434 1.86993 0
M  V30 2351 N 230.584 -0.659388 1.43143 0
M  V30 2352 C 231.832 -1.41654 1.44147 0
M  V30 2353 C 232.153 -1.94893 0.0645739 0
M  V30 2354 O 231.423 -1.74044 -0.899198 0
M  V30 2355 H 230.003 -0.525708 0.530697 0
M  V30 2356 H 232.665 -0.778097 1.78694 0
M  V30 2357 H 231.761 -2.26195 2.1504 0
M  V30 2358 N 232.062 -1.29571 -0.897171 0
M  V30 2359 C 233.473 -1.15964 -1.46319 0
M  V30 2360 C 233.824 0.244267 -1.94674 0
M  V30 2361 O 232.949 1.13998 -1.83939 0
M  V30 2362 C 233.544 -2.09906 -2.65942 0
M  V30 2363 C 232.103 -2.00314 -3.18671 0
M  V30 2364 C 231.25 -2.00687 -1.91363 0
M  V30 2365 H 234.201 -1.42019 -0.708268 0
M  V30 2366 H 234.222 -1.67276 -3.41759 0
M  V30 2367 H 233.734 -3.12075 -2.30718 0
M  V30 2368 H 231.835 -1.01242 -3.58582 0
M  V30 2369 H 231.948 -2.88102 -3.82798 0
M  V30 2370 H 230.312 -1.45319 -2.09175 0
M  V30 2371 H 231.095 -3.04566 -1.58413 0
M  V30 2372 N 233.54 1.10788 -1.12088 0
M  V30 2373 C 234.788 1.8231 -0.872205 0
M  V30 2374 C 235.109 1.85419 0.603709 0
M  V30 2375 O 234.379 1.32963 1.43867 0
M  V30 2376 H 232.959 0.675137 -0.319686 0
M  V30 2377 H 235.621 1.34068 -1.41463 0
M  V30 2378 H 234.717 2.85955 -1.25045 0
M  V30 2379 N 235.018 0.912232 1.28515 0
M  V30 2380 C 236.246 0.560416 1.99166 0
M  V30 2381 C 236.661 -0.857927 1.68182 0
M  V30 2382 O 236.018 -1.56805 0.933733 0
M  V30 2383 C 236.069 0.758142 3.53461 0
M  V30 2384 O 235.79 2.12067 3.83352 0
M  V30 2385 C 237.291 0.412954 4.41372 0
M  V30 2386 H 234.511 0.213805 0.636026 0
M  V30 2387 H 237.055 1.22502 1.63749 0
M  V30 2388 H 235.21 0.140556 3.87145 0
M  V30 2389 H 235.624 2.15923 4.77993 0
M  V30 2390 H 237.098 0.60208 5.48707 0
M  V30 2391 H 237.575 -0.65073 4.34353 0
M  V30 2392 H 238.181 1.00802 4.13182 0
M  V30 2393 N 236.496 -1.42363 0.676048 0
M  V30 2394 C 237.721 -2.06377 0.205705 0
M  V30 2395 C 238.146 -1.50463 -1.12883 0
M  V30 2396 O 237.504 -0.623619 -1.70237 0
M  V30 2397 C 237.552 -3.60277 0.152655 0
M  V30 2398 O 236.656 -4.02935 -0.87845 0
M  V30 2399 H 235.997 -0.655588 0.105359 0
M  V30 2400 H 238.527 -1.82475 0.925412 0
M  V30 2401 H 238.537 -4.07993 -0.0230675 0
M  V30 2402 H 237.212 -4.00346 1.12675 0
M  V30 2403 H 235.789 -3.66764 -0.673668 0
M  V30 2404 N 237.974 -0.419461 -1.51915 0
M  V30 2405 C 239.221 0.152939 -2.01922 0
M  V30 2406 C 239.549 1.4426 -1.30458 0
M  V30 2407 O 238.804 1.91514 -0.402593 0
M  V30 2408 C 239.103 0.437067 -3.54717 0
M  V30 2409 C 238.769 -0.764632 -4.44369 0
M  V30 2410 C 237.431 -1.09423 -4.68594 0
M  V30 2411 C 239.783 -1.56713 -4.97082 0
M  V30 2412 C 237.111 -2.22732 -5.42777 0
M  V30 2413 C 239.463 -2.69107 -5.72507 0
M  V30 2414 C 238.127 -3.02541 -5.95 0
M  V30 2415 H 237.397 0.0559644 -0.738884 0
M  V30 2416 H 240.044 -0.562998 -1.83037 0
M  V30 2417 H 238.349 1.23469 -3.71837 0
M  V30 2418 H 240.046 0.893083 -3.90928 0
M  V30 2419 H 236.636 -0.497775 -4.257 0
M  V30 2420 H 240.82 -1.32571 -4.78266 0
M  V30 2421 H 236.076 -2.48971 -5.58411 0
M  V30 2422 H 240.25 -3.31671 -6.12346 0
M  V30 2423 H 237.877 -3.90457 -6.52264 0
M  V30 2424 N 239.452 1.56882 -0.150215 0
M  V30 2425 C 240.362 2.20494 0.801222 0
M  V30 2426 C 241.378 1.19019 1.26927 0
M  V30 2427 O 242.554 1.51607 1.32579 0
M  V30 2428 C 239.619 2.81659 2.02161 0
M  V30 2429 C 238.68 3.9827 1.60249 0
M  V30 2430 C 237.913 4.56508 2.7647 0
M  V30 2431 O 238.136 4.13627 3.92771 0
M  V30 2432 O 237.07 5.46719 2.51757 0
M  V30 2433 H 240.896 3.02315 0.289717 0
M  V30 2434 H 238.481 1.49202 0.0769684 0
M  V30 2435 H 240.363 3.20522 2.73576 0
M  V30 2436 H 239.038 2.02849 2.52258 0
M  V30 2437 H 237.945 3.64117 0.858477 0
M  V30 2438 H 239.278 4.78609 1.14864 0
M  V30 2439 N 240.93 -0.123565 1.57115 0
M  V30 2440 C 242.177 -0.832153 1.84612 0
M  V30 2441 C 242.505 -1.80093 0.734627 0
M  V30 2442 O 241.76 -1.93766 -0.27442 0
M  V30 2443 C 242.059 -1.62016 3.18568 0
M  V30 2444 C 241.725 -0.796084 4.43817 0
M  V30 2445 C 240.387 -0.568816 4.77826 0
M  V30 2446 C 242.739 -0.221364 5.2073 0
M  V30 2447 C 240.067 0.243499 5.86194 0
M  V30 2448 C 242.419 0.578117 6.29953 0
M  V30 2449 C 241.083 0.815744 6.62497 0
M  V30 2450 H 240.353 -0.304507 0.675542 0
M  V30 2451 H 243 -0.0947248 1.91266 0
M  V30 2452 H 241.305 -2.42837 3.0747 0
M  V30 2453 H 243.002 -2.17231 3.37064 0
M  V30 2454 H 239.592 -0.983307 4.17168 0
M  V30 2455 H 243.776 -0.384173 4.94811 0
M  V30 2456 H 239.032 0.436871 6.09837 0
M  V30 2457 H 243.206 1.03046 6.88734 0
M  V30 2458 H 240.833 1.44701 7.46301 0
M  V30 2459 N 242.408 -1.52605 -0.393616 0
M  V30 2460 C 243.371 -1.76415 -1.46323 0
M  V30 2461 C 244.371 -0.634126 -1.47768 0
M  V30 2462 O 245.561 -0.902142 -1.4902 0
M  V30 2463 C 242.693 -1.8607 -2.85641 0
M  V30 2464 H 243.886 -2.71916 -1.26498 0
M  V30 2465 H 241.439 -1.43257 -0.625073 0
M  V30 2466 H 242.174 -0.925378 -3.10817 0
M  V30 2467 H 241.959 -2.68235 -2.85993 0
M  V30 2468 H 243.449 -2.06179 -3.63153 0
M  V30 2469 N 243.887 0.651787 -1.4349 0
M  V30 2470 C 244.817 1.77621 -1.51569 0
M  V30 2471 C 245.798 1.66022 -0.370253 0
M  V30 2472 O 246.983 1.85095 -0.587658 0
M  V30 2473 C 244.113 3.16056 -1.43966 0
M  V30 2474 C 243.067 3.4242 -2.56774 0
M  V30 2475 C 242.393 4.8067 -2.34223 0
M  V30 2476 C 243.693 3.37023 -3.99015 0
M  V30 2477 H 245.387 1.71117 -2.45681 0
M  V30 2478 H 242.933 0.821825 -1.18246 0
M  V30 2479 H 244.886 3.94472 -1.48221 0
M  V30 2480 H 243.61 3.23293 -0.463586 0
M  V30 2481 H 242.269 2.66375 -2.51873 0
M  V30 2482 H 241.917 4.84585 -1.34856 0
M  V30 2483 H 241.617 4.9927 -3.09844 0
M  V30 2484 H 243.141 5.61342 -2.40265 0
M  V30 2485 H 244.555 4.05374 -4.05395 0
M  V30 2486 H 242.952 3.67159 -4.74673 0
M  V30 2487 H 244.022 2.3518 -4.2405 0
M  V30 2488 N 245.365 1.30045 0.890287 0
M  V30 2489 C 246.328 1.15963 1.977 0
M  V30 2490 C 247.328 0.0923777 1.60534 0
M  V30 2491 O 248.518 0.340071 1.70848 0
M  V30 2492 C 245.65 0.775451 3.31963 0
M  V30 2493 H 246.843 2.12502 2.11619 0
M  V30 2494 H 244.396 1.13366 1.07601 0
M  V30 2495 H 245.131 -0.189671 3.23745 0
M  V30 2496 H 244.916 1.54668 3.60306 0
M  V30 2497 H 246.406 0.700251 4.11687 0
M  V30 2498 N 246.843 -1.10192 1.12674 0
M  V30 2499 C 248.092 -1.81573 0.8783 0
M  V30 2500 C 248.405 -1.86249 -0.597557 0
M  V30 2501 O 249.611 -2.5386 -0.962681 0
M  V30 2502 C 248.067 -3.26149 1.52167 0
M  V30 2503 C 247.675 -3.29763 3.03249 0
M  V30 2504 C 249.419 -4.0234 1.3536 0
M  V30 2505 C 247.326 -4.68815 3.60508 0
M  V30 2506 H 246.256 -0.680394 0.324931 0
M  V30 2507 H 248.907 -1.23902 1.35353 0
M  V30 2508 H 247.289 -3.83832 0.974104 0
M  V30 2509 H 248.463 -2.8189 3.6452 0
M  V30 2510 H 246.778 -2.67059 3.19481 0
M  V30 2511 H 249.375 -5.05058 1.75559 0
M  V30 2512 H 249.718 -4.15235 0.297554 0
M  V30 2513 H 250.251 -3.51079 1.87052 0
M  V30 2514 H 246.99 -4.61121 4.65884 0
M  V30 2515 H 246.51 -5.17045 3.04014 0
M  V30 2516 H 248.189 -5.37785 3.59717 0
M  V30 2517 N 248.321 -0.919034 -1.28029 0
M  V30 2518 C 249.567 -0.555757 -1.95036 0
M  V30 2519 C 249.9 0.899198 -1.72128 0
M  V30 2520 O 249.175 1.64023 -1.04531 0
M  V30 2521 C 249.458 -0.872024 -3.49382 0
M  V30 2522 C 249.311 -2.3801 -3.81669 0
M  V30 2523 C 250.63 -0.37185 -4.38526 0
M  V30 2524 H 247.749 -0.203386 -0.708381 0
M  V30 2525 H 250.391 -1.14924 -1.51303 0
M  V30 2526 H 248.541 -0.366946 -3.86763 0
M  V30 2527 H 250.213 -2.9562 -3.54128 0
M  V30 2528 H 248.456 -2.83289 -3.28526 0
M  V30 2529 H 249.127 -2.55192 -4.8947 0
M  V30 2530 H 251.603 -0.804602 -4.08247 0
M  V30 2531 H 250.479 -0.622173 -5.45362 0
M  V30 2532 H 250.74 0.727934 -4.36066 0
M  V30 2533 N 249.799 1.42003 -0.683588 0
M  V30 2534 C 250.709 2.34597 -0.0109075 0
M  V30 2535 C 251.725 1.55576 0.779245 0
M  V30 2536 O 252.901 1.88107 0.719555 0
M  V30 2537 C 249.966 3.34199 0.922588 0
M  V30 2538 C 249.027 4.29115 0.125984 0
M  V30 2539 C 248.26 5.23959 1.01502 0
M  V30 2540 O 248.483 5.23952 2.25456 0
M  V30 2541 O 247.417 6.00053 0.47111 0
M  V30 2542 H 251.243 2.93675 -0.773853 0
M  V30 2543 H 248.828 1.42654 -0.443861 0
M  V30 2544 H 250.71 3.95365 1.45823 0
M  V30 2545 H 249.385 2.77582 1.66523 0
M  V30 2546 H 248.292 3.71335 -0.453969 0
M  V30 2547 H 249.625 4.88798 -0.577736 0
M  V30 2548 N 251.277 0.427512 1.51691 0
M  V30 2549 C 252.24 -0.377132 2.26076 0
M  V30 2550 C 253.24 -0.958089 1.29141 0
M  V30 2551 O 254.43 -0.83408 1.52934 0
M  V30 2552 C 251.562 -1.53262 3.04506 0
M  V30 2553 H 252.755 0.27464 2.9864 0
M  V30 2554 H 250.308 0.180445 1.55255 0
M  V30 2555 H 251.043 -2.22072 2.36335 0
M  V30 2556 H 250.828 -1.12232 3.75694 0
M  V30 2557 H 252.318 -2.10135 3.60878 0
M  V30 2558 N 252.755 -1.56801 0.158532 0
M  V30 2559 C 253.685 -2.20347 -0.772609 0
M  V30 2560 C 254.666 -1.15518 -1.24859 0
M  V30 2561 O 255.851 -1.43902 -1.30406 0
M  V30 2562 C 252.981 -2.83417 -2.00729 0
M  V30 2563 C 251.935 -3.94174 -1.66765 0
M  V30 2564 C 251.261 -4.44233 -2.97592 0
M  V30 2565 C 252.561 -5.14392 -0.905447 0
M  V30 2566 H 254.255 -2.98413 -0.242959 0
M  V30 2567 H 251.801 -1.43537 -0.115419 0
M  V30 2568 H 253.754 -3.26543 -2.6636 0
M  V30 2569 H 252.478 -2.02701 -2.56086 0
M  V30 2570 H 251.137 -3.51684 -1.03508 0
M  V30 2571 H 250.785 -3.60325 -3.50963 0
M  V30 2572 H 250.485 -5.18945 -2.75626 0
M  V30 2573 H 252.009 -4.90037 -3.64274 0
M  V30 2574 H 253.423 -5.5429 -1.46408 0
M  V30 2575 H 251.82 -5.9494 -0.7853 0
M  V30 2576 H 252.89 -4.84795 0.100668 0
M  V30 2577 N 254.233 0.115231 -1.57178 0
M  V30 2578 C 255.181 1.16014 -2.01602 0
M  V30 2579 C 256.175 1.42653 -0.913587 0
M  V30 2580 O 257.381 1.42571 -1.09879 0
M  V30 2581 H 253.756 0.391252 -0.642204 0
M  V30 2582 H 255.727 0.758998 -2.88586 0
M  V30 2583 C 254.476 2.47767 -2.4394 0
M  V30 2584 H 253.799 2.28108 -3.28339 0
M  V30 2585 H 255.239 3.19432 -2.78818 0
M  V30 2586 C 253.698 3.10617 -1.30455 0
M  V30 2587 O 254.228 3.96846 -0.622585 0
M  V30 2588 N 252.434 2.70553 -1.06064 0
M  V30 2589 H 251.981 2.00527 -1.61699 0
M  V30 2590 H 251.939 3.12934 -0.303284 0
M  V30 2591 N 255.711 1.52812 0.385517 0
M  V30 2592 C 256.959 1.67694 1.12797 0
M  V30 2593 C 257.28 0.421115 1.90399 0
M  V30 2594 O 256.55 -0.564551 1.87589 0
M  V30 2595 H 255.13 0.618155 0.419396 0
M  V30 2596 H 257.792 1.89938 0.436972 0
M  V30 2597 H 256.888 2.52896 1.82894 0
M  V30 2598 N 257.189 -0.644168 1.43834 0
M  V30 2599 C 258.136 -1.75671 1.49694 0
M  V30 2600 C 259.106 -1.6246 0.345809 0
M  V30 2601 O 260.291 -1.82573 0.554234 0
M  V30 2602 C 257.431 -3.13867 1.43463 0
M  V30 2603 C 256.544 -3.38147 2.6885 0
M  V30 2604 C 255.679 -4.66241 2.54544 0
M  V30 2605 C 254.718 -4.83657 3.75157 0
M  V30 2606 N 253.855 -6.03016 3.59605 0
M  V30 2607 H 258.695 -1.69998 2.44754 0
M  V30 2608 H 256.232 -0.829458 1.21484 0
M  V30 2609 H 258.19 -3.9377 1.37843 0
M  V30 2610 H 256.82 -3.18588 0.519783 0
M  V30 2611 H 255.872 -2.52276 2.84712 0
M  V30 2612 H 257.184 -3.46899 3.58417 0
M  V30 2613 H 256.338 -5.54285 2.46683 0
M  V30 2614 H 255.077 -4.59826 1.62516 0
M  V30 2615 H 254.082 -3.94046 3.83416 0
M  V30 2616 H 255.307 -4.91896 4.68204 0
M  V30 2617 H 253.253 -5.97715 2.7032 0
M  V30 2618 H 253.17 -6.12766 4.42779 0
M  V30 2619 H 254.438 -6.93657 3.55613 0
M  V30 2620 N 258.668 -1.30515 -0.883378 0
M  V30 2621 C 259.578 -1.18959 -2.02203 0
M  V30 2622 C 260.594 -0.109172 -1.73657 0
M  V30 2623 O 261.77 -0.324413 -1.9877 0
M  V30 2624 C 258.835 -0.883871 -3.35244 0
M  V30 2625 C 257.896 -2.04982 -3.77201 0
M  V30 2626 C 257.129 -1.75859 -5.03894 0
M  V30 2627 O 257.352 -0.687276 -5.66244 0
M  V30 2628 O 256.286 -2.61146 -5.42297 0
M  V30 2629 H 260.112 -2.14616 -2.1488 0
M  V30 2630 H 257.697 -1.10124 -1.0096 0
M  V30 2631 H 259.579 -0.728644 -4.15053 0
M  V30 2632 H 258.254 0.0427798 -3.23672 0
M  V30 2633 H 257.161 -2.26038 -2.9809 0
M  V30 2634 H 258.494 -2.95825 -3.93381 0
M  V30 2635 N 260.146 1.09593 -1.13257 0
M  V30 2636 C 261.392 1.82003 -0.89458 0
M  V30 2637 C 261.725 1.85402 0.577906 0
M  V30 2638 O 261 1.32099 1.42759 0
M  V30 2639 C 261.283 3.28237 -1.48096 0
M  V30 2640 C 261.136 3.3312 -3.02244 0
M  V30 2641 C 262.455 4.24871 -1.14774 0
M  V30 2642 H 259.574 0.66077 -0.326424 0
M  V30 2643 H 262.216 1.28389 -1.40058 0
M  V30 2644 H 260.366 3.74024 -1.05062 0
M  V30 2645 H 262.038 2.95748 -3.54021 0
M  V30 2646 H 260.281 2.72756 -3.37323 0
M  V30 2647 H 260.952 4.3613 -3.38371 0
M  V30 2648 H 263.428 3.87361 -1.51957 0
M  V30 2649 H 262.304 5.25532 -1.58452 0
M  V30 2650 H 262.565 4.42058 -0.0611849 0
M  V30 2651 N 261.624 0.925811 1.2754 0
M  V30 2652 C 262.587 0.428129 2.25166 0
M  V30 2653 C 263.587 -0.452261 1.54309 0
M  V30 2654 O 264.777 -0.253608 1.72344 0
M  V30 2655 C 261.909 -0.384749 3.38722 0
M  V30 2656 H 263.102 1.29066 2.70706 0
M  V30 2657 H 260.655 0.706323 1.3943 0
M  V30 2658 H 261.39 -1.26618 2.98561 0
M  V30 2659 H 261.175 0.246454 3.91325 0
M  V30 2660 H 262.665 -0.723389 4.11287 0
M  V30 2661 N 263.102 -1.41638 0.69111 0
M  V30 2662 C 264.065 -2.29178 0.0319786 0
M  V30 2663 C 265.065 -1.44153 -0.712496 0
M  V30 2664 O 266.255 -1.65354 -0.548053 0
M  V30 2665 C 263.387 -3.26952 -0.965161 0
M  V30 2666 H 264.58 -2.88959 0.802681 0
M  V30 2667 H 262.133 -1.4955 0.454356 0
M  V30 2668 H 262.868 -2.72142 -1.76378 0
M  V30 2669 H 262.653 -3.89685 -0.434522 0
M  V30 2670 H 264.143 -3.92561 -1.42428 0
M  V30 2671 N 264.58 -0.43555 -1.51462 0
M  V30 2672 C 265.512 0.41257 -2.25456 0
M  V30 2673 C 266.525 0.987822 -1.29406 0
M  V30 2674 O 267.714 0.882266 -1.55172 0
M  V30 2675 C 264.814 1.58894 -2.99342 0
M  V30 2676 C 263.987 1.13288 -4.22474 0
M  V30 2677 C 263.046 2.17917 -4.78956 0
M  V30 2678 O 262.072 1.77425 -5.40841 0
M  V30 2679 N 263.274 3.50382 -4.62832 0
M  V30 2680 H 266.039 -0.221603 -2.9888 0
M  V30 2681 H 263.6 -0.264342 -1.59727 0
M  V30 2682 H 265.592 2.28508 -3.34015 0
M  V30 2683 H 264.162 2.12849 -2.28941 0
M  V30 2684 H 263.382 0.263881 -3.93316 0
M  V30 2685 H 264.67 0.805542 -5.02383 0
M  V30 2686 H 264.068 3.86013 -4.13534 0
M  V30 2687 H 262.625 4.15895 -5.01871 0
M  V30 2688 N 266.058 1.56714 -0.166846 0
M  V30 2689 C 267.304 1.97039 0.479962 0
M  V30 2690 C 267.637 1.05264 1.63197 0
M  V30 2691 O 266.912 0.0988833 1.94248 0
M  V30 2692 C 267.195 3.46867 0.967212 0
M  V30 2693 C 267.048 4.49421 -0.18466 0
M  V30 2694 C 268.367 3.9968 1.84238 0
M  V30 2695 H 265.486 0.71641 0.172992 0
M  V30 2696 H 268.128 1.8832 -0.252079 0
M  V30 2697 H 266.278 3.54428 1.59101 0
M  V30 2698 H 267.95 4.53924 -0.821621 0
M  V30 2699 H 266.193 4.25573 -0.840837 0
M  V30 2700 H 266.864 5.51644 0.198317 0
M  V30 2701 H 269.34 3.94723 1.31655 0
M  V30 2702 H 268.216 5.04941 2.15234 0
M  V30 2703 H 268.477 3.43226 2.78654 0
M  V30 2704 N 267.536 -0.106894 1.57237 0
M  V30 2705 C 268.483 -1.13049 2.01217 0
M  V30 2706 C 269.453 -1.40471 0.886403 0
M  V30 2707 O 270.638 -1.52133 1.15153 0
M  V30 2708 C 267.778 -2.4487 2.43172 0
M  V30 2709 C 266.891 -2.24281 3.69218 0
M  V30 2710 C 266.026 -3.49417 4.00101 0
M  V30 2711 C 265.065 -3.24038 5.19294 0
M  V30 2712 N 264.202 -4.41409 5.45988 0
M  V30 2713 H 269.042 -0.748456 2.88448 0
M  V30 2714 H 266.579 -0.358054 1.42676 0
M  V30 2715 H 268.537 -3.21786 2.65537 0
M  V30 2716 H 267.167 -2.80944 1.58967 0
M  V30 2717 H 266.219 -1.38224 3.54398 0
M  V30 2718 H 267.531 -2.01512 4.56283 0
M  V30 2719 H 266.685 -4.34746 4.2318 0
M  V30 2720 H 265.424 -3.75229 3.11535 0
M  V30 2721 H 264.429 -2.37102 4.96047 0
M  V30 2722 H 265.654 -2.99584 6.09447 0
M  V30 2723 H 263.6 -4.67319 4.60379 0
M  V30 2724 H 263.517 -4.21788 6.274 0
M  V30 2725 H 264.785 -5.27836 5.73593 0
M  V30 2726 N 269.014 -1.53014 -0.377408 0
M  V30 2727 C 269.977 -1.77957 -1.44444 0
M  V30 2728 C 270.977 -0.649763 -1.47087 0
M  V30 2729 O 272.167 -0.917897 -1.48055 0
M  V30 2730 C 269.299 -1.89089 -2.83651 0
M  V30 2731 H 270.492 -2.73243 -1.23606 0
M  V30 2732 H 268.045 -1.43912 -0.609844 0
M  V30 2733 H 268.78 -0.958293 -3.09818 0
M  V30 2734 H 268.565 -2.71254 -2.83132 0
M  V30 2735 H 270.055 -2.1002 -3.60945 0
M  V30 2736 N 270.492 0.636531 -1.44174 0
M  V30 2737 C 271.903 1.21806 -1.41493 0
M  V30 2738 C 272.254 1.95785 -0.1275 0
M  V30 2739 O 271.379 2.02147 0.772376 0
M  V30 2740 C 271.974 2.21551 -2.56321 0
M  V30 2741 C 270.533 2.75143 -2.56853 0
M  V30 2742 C 269.68 1.50052 -2.33195 0
M  V30 2743 H 272.631 0.427531 -1.52833 0
M  V30 2744 H 272.652 3.0405 -2.28765 0
M  V30 2745 H 272.164 1.67679 -3.50008 0
M  V30 2746 H 270.265 3.33033 -1.67093 0
M  V30 2747 H 270.378 3.2155 -3.55165 0
M  V30 2748 H 268.742 1.77993 -1.82183 0
M  V30 2749 H 269.525 0.980903 -3.28988 0
M  V30 2750 N 271.97 1.30982 0.876444 0
M  V30 2751 C 272.9 1.20668 1.99903 0
M  V30 2752 C 273.881 0.095354 1.69833 0
M  V30 2753 O 275.066 0.27885 1.92188 0
M  V30 2754 C 272.196 0.90655 3.3526 0
M  V30 2755 C 271.15 1.97675 3.79617 0
M  V30 2756 C 270.476 1.52943 5.1236 0
M  V30 2757 C 271.776 3.389 3.97422 0
M  V30 2758 H 273.47 2.14586 2.0879 0
M  V30 2759 H 271.016 1.03308 1.00317 0
M  V30 2760 H 272.969 0.821025 4.13324 0
M  V30 2761 H 271.693 -0.0682969 3.26529 0
M  V30 2762 H 270.352 2.05205 3.03787 0
M  V30 2763 H 270 0.54262 5.00065 0
M  V30 2764 H 269.7 2.24532 5.43009 0
M  V30 2765 H 271.224 1.45786 5.92941 0
M  V30 2766 H 272.638 3.34081 4.659 0
M  V30 2767 H 271.035 4.0865 4.3946 0
M  V30 2768 H 272.105 3.80163 3.01006 0
M  V30 2769 N 273.449 -1.08991 1.13837 0
M  V30 2770 C 274.695 -1.81526 0.90422 0
M  V30 2771 C 275.028 -1.85706 -0.568066 0
M  V30 2772 O 274.303 -1.32855 -1.42056 0
M  V30 2773 C 274.586 -3.27447 1.49835 0
M  V30 2774 C 274.439 -3.31512 3.04006 0
M  V30 2775 C 275.758 -4.24256 1.17025 0
M  V30 2776 H 272.877 -0.659029 0.329923 0
M  V30 2777 H 275.519 -1.27644 1.40737 0
M  V30 2778 H 273.669 -3.73462 1.07044 0
M  V30 2779 H 275.341 -2.93867 3.55584 0
M  V30 2780 H 273.584 -2.70963 3.38765 0
M  V30 2781 H 274.255 -4.34329 3.40679 0
M  V30 2782 H 276.731 -3.86549 1.54009 0
M  V30 2783 H 275.607 -5.24684 1.61237 0
M  V30 2784 H 275.868 -4.42019 0.0846274 0
M  V30 2785 N 274.927 -0.932562 -1.27047 0
M  V30 2786 C 275.857 -0.452902 -2.29066 0
M  V30 2787 C 276.838 0.489338 -1.62909 0
M  V30 2788 O 278.023 0.393046 -1.90181 0
M  V30 2789 C 275.153 0.290698 -3.46081 0
M  V30 2790 C 274.107 -0.564168 -4.24265 0
M  V30 2791 C 273.433 0.308886 -5.33807 0
M  V30 2792 C 274.733 -1.83112 -4.89149 0
M  V30 2793 H 276.427 -1.30552 -2.69437 0
M  V30 2794 H 273.973 -0.629201 -1.29526 0
M  V30 2795 H 275.926 0.637233 -4.16554 0
M  V30 2796 H 274.65 1.17738 -3.0464 0
M  V30 2797 H 273.309 -0.893477 -3.55545 0
M  V30 2798 H 272.957 1.19467 -4.88607 0
M  V30 2799 H 272.657 -0.259633 -5.87026 0
M  V30 2800 H 274.181 0.650884 -6.07121 0
M  V30 2801 H 275.595 -1.55236 -5.51883 0
M  V30 2802 H 273.992 -2.34353 -5.52448 0
M  V30 2803 H 275.062 -2.54772 -4.12576 0
M  V30 2804 N 276.405 1.4127 -0.698611 0
M  V30 2805 C 277.352 2.30773 -0.0352094 0
M  V30 2806 C 278.322 1.47273 0.768111 0
M  V30 2807 O 279.507 1.76053 0.735524 0
M  V30 2808 C 276.647 3.33346 0.893 0
M  V30 2809 C 275.76 4.31924 0.0809695 0
M  V30 2810 C 274.895 5.21566 1.0071 0
M  V30 2811 C 273.934 6.11811 0.188155 0
M  V30 2812 N 273.071 6.93926 1.06825 0
M  V30 2813 H 277.911 2.86943 -0.804207 0
M  V30 2814 H 275.448 1.4132 -0.408294 0
M  V30 2815 H 277.406 3.91368 1.44523 0
M  V30 2816 H 276.036 2.78719 1.62836 0
M  V30 2817 H 275.088 3.75825 -0.588224 0
M  V30 2818 H 276.4 4.95716 -0.553801 0
M  V30 2819 H 275.554 5.84437 1.62845 0
M  V30 2820 H 274.293 4.58008 1.67572 0
M  V30 2821 H 273.298 5.47986 -0.446254 0
M  V30 2822 H 274.523 6.77425 -0.476716 0
M  V30 2823 H 272.469 6.32973 1.72283 0
M  V30 2824 H 272.386 7.54416 0.489123 0
M  V30 2825 H 273.654 7.61262 1.67632 0
M  V30 2826 N 277.883 0.443576 1.51229 0
M  V30 2827 C 279.16 -0.181038 1.9476 0
M  V30 2828 C 279.54 -1.59523 1.38259 0
M  V30 2829 O 278.888 -2.2122 0.572198 0
M  V30 2830 C 279.098 -0.152422 3.48667 0
M  V30 2831 C 280.446 -0.354923 4.23114 0
M  V30 2832 O 281.47 -0.230257 3.55455 0
M  V30 2833 O 280.329 -0.603674 5.43156 0
M  V30 2834 H 277.423 -0.1266 0.817252 0
M  V30 2835 H 279.969 0.502004 1.62105 0
M  V30 2836 H 278.741 0.836022 3.82265 0
M  V30 2837 H 278.364 -0.878107 3.87782 0
M  V30 2838 O 279.4 -1.58373 0.316273 0
M  V30 2839 H 280.091 -1.92143 -0.24513 0
M  V30 END ATOM
M  V30 BEGIN BOND
M  V30 END BOND
M  V30 END CTAB
M  END
$$$$
