drugbank_target|Q99470 Stromal cell-derived factor 2 (DB02201)
 OpenBabel12092120533D

  0  0  0     0  0            999 V3000
M  V30 BEGIN CTAB
M  V30 COUNTS 3191 3229 0 0 0
M  V30 BEGIN ATOM
M  V30 1 H -0.908 1.98254 -0.117106 0
M  V30 2 N 0 1.576 0 0
M  V30 3 C 0.933 2.03868 1.02534 0
M  V30 4 C 1.911 0.928543 1.3348 0
M  V30 5 O 3.095 1.19667 1.45644 0
M  V30 6 C 0.222 2.43627 2.35294 0
M  V30 7 C -0.732 3.65373 2.2001 0
M  V30 8 S 0.101 5.13292 1.52614 0
M  V30 9 C 1.257 5.56322 2.86805 0
M  V30 10 H 1.49 2.90518 0.631377 0
M  V30 11 H -0.977 1.52953 0.210867 0
M  V30 12 H 0.981 2.67203 3.11629 0
M  V30 13 H -0.358 1.57376 2.7183 0
M  V30 14 H -1.165 3.90944 3.18086 0
M  V30 15 H -1.563 3.418 1.51819 0
M  V30 16 H 0.729 5.58782 3.83104 0
M  V30 17 H 1.672 6.56266 2.65933 0
M  V30 18 H 2.08 4.83886 2.90714 0
M  V30 19 N 1.4781 -0.272755 1.55222 0
M  V30 20 C 2.4411 -1.32041 1.87344 0
M  V30 21 C 3.4411 -1.42342 0.74803 0
M  V30 22 O 4.6311 -1.41488 1.0162 0
M  V30 23 C 1.7631 -2.70173 2.07893 0
M  V30 24 H 2.9561 -1.04789 2.80997 0
M  V30 25 H 0.5091 -0.51083 1.47717 0
M  V30 26 H 1.2441 -3.02605 1.16622 0
M  V30 27 H 1.0291 -2.64082 2.89833 0
M  V30 28 H 2.5191 -3.45869 2.34017 0
M  V30 29 N 2.9562 -1.48159 -0.537278 0
M  V30 30 C 4.2022 -1.56035 -1.29541 0
M  V30 31 C 4.5352 -0.230377 -1.92829 0
M  V30 32 O 3.8102 0.762952 -1.78911 0
M  V30 33 C 4.0932 -2.69323 -2.39034 0
M  V30 34 C 3.9462 -4.12002 -1.80485 0
M  V30 35 C 5.2652 -2.78408 -3.40847 0
M  V30 36 H 2.3842 -0.567992 -0.469632 0
M  V30 37 H 5.0262 -1.80302 -0.599277 0
M  V30 38 H 3.1762 -2.48763 -2.98412 0
M  V30 39 H 4.8482 -4.43981 -1.25215 0
M  V30 40 H 3.0912 -4.19344 -1.11055 0
M  V30 41 H 3.7622 -4.87077 -2.59731 0
M  V30 42 H 6.2382 -2.97012 -2.91416 0
M  V30 43 H 5.1142 -3.59416 -4.14863 0
M  V30 44 H 5.3752 -1.86269 -4.00944 0
M  V30 45 N 4.4343 0.785586 -1.36625 0
M  V30 46 C 5.6803 1.54591 -1.31261 0
M  V30 47 C 6.0133 1.93906 0.106823 0
M  V30 48 O 5.2883 1.63007 1.06108 0
M  V30 49 C 5.5713 2.82038 -2.23889 0
M  V30 50 C 5.4243 2.49066 -3.74548 0
M  V30 51 C 6.7433 3.83887 -2.15217 0
M  V30 52 H 3.8623 0.560846 -0.478143 0
M  V30 53 H 6.5043 0.902278 -1.67209 0
M  V30 54 H 4.6543 3.36961 -1.93363 0
M  V30 55 H 6.3263 2.00164 -4.15611 0
M  V30 56 H 4.5693 1.81954 -3.93796 0
M  V30 57 H 5.2403 3.40109 -4.34776 0
M  V30 58 H 7.7163 3.38421 -2.42096 0
M  V30 59 H 6.5923 4.70806 -2.82193 0
M  V30 60 H 6.8533 4.27131 -1.14068 0
M  V30 61 N 5.9124 1.20967 1.01018 0
M  V30 62 C 7.3234 1.02319 1.56165 0
M  V30 63 C 7.6744 -0.418546 1.91684 0
M  V30 64 O 6.7994 -1.30096 1.72928 0
M  V30 65 C 7.3944 1.85109 2.8376 0
M  V30 66 C 5.9534 1.70809 3.35412 0
M  V30 67 C 5.1004 1.82643 2.08655 0
M  V30 68 H 8.0514 1.35065 0.833255 0
M  V30 69 H 8.0724 1.35827 3.55431 0
M  V30 70 H 7.5844 2.90035 2.57878 0
M  V30 71 H 5.6854 0.685464 3.66241 0
M  V30 72 H 5.7984 2.52467 4.07182 0
M  V30 73 H 4.1624 1.25896 2.21409 0
M  V30 74 H 4.9454 2.89066 1.85191 0
M  V30 75 N 7.3905 -1.2043 1.01659 0
M  V30 76 C 8.3205 -2.25466 0.607226 0
M  V30 77 C 9.3015 -1.65853 -0.377716 0
M  V30 78 O 10.4865 -1.92409 -0.263149 0
M  V30 79 C 7.6165 -3.47256 -0.0552949 0
M  V30 80 C 6.5705 -4.19462 0.850632 0
M  V30 81 C 5.8965 -5.34673 0.0538859 0
M  V30 82 C 7.1965 -4.75603 2.15868 0
M  V30 83 H 8.8905 -2.59962 1.48526 0
M  V30 84 H 6.4365 -1.2496 0.715605 0
M  V30 85 H 8.3895 -4.19917 -0.353233 0
M  V30 86 H 7.1135 -3.11924 -0.968045 0
M  V30 87 H 5.7725 -3.48667 1.13257 0
M  V30 88 H 5.4205 -4.95585 -0.860514 0
M  V30 89 H 5.1205 -5.83913 0.657192 0
M  V30 90 H 6.6445 -6.10138 -0.237598 0
M  V30 91 H 8.0585 -5.40083 1.92311 0
M  V30 92 H 6.4555 -5.3528 2.71284 0
M  V30 93 H 7.5255 -3.94346 2.82169 0
M  V30 94 N 8.8686 -0.792821 -1.36206 0
M  V30 95 C 9.7986 -0.207853 -2.32573 0
M  V30 96 C 10.7796 0.659055 -1.56813 0
M  V30 97 O 11.9646 0.592176 -1.84951 0
M  V30 98 C 9.0946 0.655449 -3.41059 0
M  V30 99 C 8.0486 -0.111842 -4.27854 0
M  V30 100 C 7.3746 0.872274 -5.27537 0
M  V30 101 C 8.6746 -1.30299 -5.05786 0
M  V30 102 H 10.3686 -1.01294 -2.81744 0
M  V30 103 H 7.9146 -0.48854 -1.3546 0
M  V30 104 H 9.8676 1.07464 -4.07467 0
M  V30 105 H 8.5916 1.49328 -2.90463 0
M  V30 106 H 7.2506 -0.512053 -3.63006 0
M  V30 107 H 6.8986 1.70523 -4.73214 0
M  V30 108 H 6.5986 0.363291 -5.86476 0
M  V30 109 H 8.1226 1.28996 -5.96818 0
M  V30 110 H 9.5366 -0.959379 -5.65216 0
M  V30 111 H 7.9336 -1.7455 -5.74154 0
M  V30 112 H 9.0036 -2.09663 -4.37229 0
M  V30 113 N 10.3467 1.47872 -0.545128 0
M  V30 114 C 11.2767 2.32661 0.197793 0
M  V30 115 C 12.2577 1.43041 0.920504 0
M  V30 116 O 13.4427 1.71912 0.90333 0
M  V30 117 C 10.5727 3.24569 1.23582 0
M  V30 118 C 9.5267 4.23333 0.630323 0
M  V30 119 C 8.8527 5.0448 1.77211 0
M  V30 120 C 10.1527 5.20704 -0.407974 0
M  V30 121 H 11.8467 2.95024 -0.510045 0
M  V30 122 H 9.3927 1.4187 -0.246731 0
M  V30 123 H 11.3457 3.8272 1.76362 0
M  V30 124 H 10.0697 2.60236 1.97344 0
M  V30 125 H 8.7287 3.6639 0.123922 0
M  V30 126 H 8.3767 4.36561 2.49847 0
M  V30 127 H 8.0767 5.71339 1.37281 0
M  V30 128 H 9.6007 5.65487 2.3034 0
M  V30 129 H 11.0147 5.7329 0.033305 0
M  V30 130 H 9.4117 5.95699 -0.725486 0
M  V30 131 H 10.4817 4.66917 -1.30828 0
M  V30 132 N 11.8248 0.280983 1.55075 0
M  V30 133 C 12.7548 -0.597469 2.25727 0
M  V30 134 C 13.7358 -1.15417 1.24952 0
M  V30 135 O 14.9208 -1.18722 1.53684 0
M  V30 136 C 12.0508 -1.7789 2.98283 0
M  V30 137 C 11.0048 -1.35347 4.06036 0
M  V30 138 C 10.3308 -2.61846 4.66198 0
M  V30 139 C 11.6308 -0.499354 5.19907 0
M  V30 140 H 13.3248 -0.00824265 2.99399 0
M  V30 141 H 10.8708 -0.0025244 1.44 0
M  V30 142 H 12.8238 -2.39937 3.46422 0
M  V30 143 H 11.5478 -2.39405 2.22155 0
M  V30 144 H 10.2068 -0.756156 3.58717 0
M  V30 145 H 9.8548 -3.21632 3.86732 0
M  V30 146 H 9.5548 -2.3409 5.38958 0
M  V30 147 H 11.0788 -3.24732 5.1709 0
M  V30 148 H 12.4928 -1.02498 5.64063 0
M  V30 149 H 10.8898 -0.316424 5.99265 0
M  V30 150 H 11.9598 0.480459 4.82514 0
M  V30 151 N 13.3029 -1.57598 0.00835791 0
M  V30 152 C 14.5509 -1.90551 -0.6734 0
M  V30 153 C 14.8719 -0.883301 -1.73847 0
M  V30 154 O 14.1419 0.0781442 -1.95744 0
M  V30 155 H 12.7219 -0.703312 -0.251717 0
M  V30 156 H 15.3839 -1.94833 0.0512592 0
M  V30 157 H 14.4799 -2.9056 -1.13935 0
M  V30 158 N 14.781 0.264519 -1.55364 0
M  V30 159 C 16.029 0.993021 -1.76021 0
M  V30 160 C 16.35 1.86511 -0.569099 0
M  V30 161 O 15.62 1.91438 0.415735 0
M  V30 162 H 14.2 0.369639 -0.649135 0
M  V30 163 H 16.862 0.286707 -1.9278 0
M  V30 164 H 15.958 1.62502 -2.66457 0
M  V30 165 N 16.2591 1.48442 0.529413 0
M  V30 166 C 17.1891 1.65902 1.64313 0
M  V30 167 C 18.1701 0.507897 1.6234 0
M  V30 168 O 19.3551 0.740503 1.79528 0
M  V30 169 C 16.4851 1.69911 3.02898 0
M  V30 170 C 15.4391 2.8453 3.19729 0
M  V30 171 C 14.7651 2.73629 4.59381 0
M  V30 172 C 16.0651 4.25821 3.02447 0
M  V30 173 H 17.7591 2.5914 1.49955 0
M  V30 174 H 15.3051 1.24709 0.719982 0
M  V30 175 H 17.2581 1.80715 3.80684 0
M  V30 176 H 15.9821 0.732524 3.18279 0
M  V30 177 H 14.6411 2.73283 2.44361 0
M  V30 178 H 14.2891 1.74938 4.71599 0
M  V30 179 H 13.9891 3.50541 4.71588 0
M  V30 180 H 15.5131 2.86401 5.39265 0
M  V30 181 H 16.9271 4.37898 3.70024 0
M  V30 182 H 15.3241 5.03735 3.26146 0
M  V30 183 H 16.3941 4.42244 1.98867 0
M  V30 184 N 17.7372 -0.778329 1.37039 0
M  V30 185 C 18.9832 -1.53817 1.33086 0
M  V30 186 C 19.3382 -1.92208 -0.0860346 0
M  V30 187 O 18.6312 -1.60713 -1.04316 0
M  V30 188 C 18.8252 -2.81845 2.19768 0
M  V30 189 C 18.6542 -2.55967 3.69744 0
M  V30 190 C 17.4242 -2.50428 4.38878 0
M  V30 191 C 19.6222 -2.2441 4.62758 0
M  V30 192 N 17.6042 -2.16564 5.74433 0
M  V30 193 C 18.9752 -2.0063 5.86641 0
M  V30 194 C 21.0302 -2.1051 4.5121 0
M  V30 195 C 19.7332 -1.64354 7.00272 0
M  V30 196 C 21.7592 -1.75634 5.64718 0
M  V30 197 C 21.1212 -1.52709 6.87648 0
M  V30 198 H 17.2202 -0.563434 0.542279 0
M  V30 199 H 19.8042 -0.908617 1.72198 0
M  V30 200 H 17.9752 -3.42649 1.82883 0
M  V30 201 H 19.7072 -3.47682 2.07122 0
M  V30 202 H 16.4622 -2.66056 3.91805 0
M  V30 203 H 16.8862 -2.02348 6.46053 0
M  V30 204 H 21.5282 -2.26919 3.56746 0
M  V30 205 H 19.2462 -1.46683 7.94676 0
M  V30 206 H 22.8322 -1.65546 5.57751 0
M  V30 207 H 21.7122 -1.2612 7.73992 0
M  V30 208 N 19.2153 -1.21501 -1.00376 0
M  V30 209 C 20.4403 -1.05977 -1.78279 0
M  V30 210 C 20.8653 0.385994 -1.84097 0
M  V30 211 O 20.2233 1.27849 -1.28547 0
M  V30 212 C 20.2713 -1.66302 -3.19963 0
M  V30 213 O 19.3753 -0.909333 -4.0225 0
M  V30 214 H 18.7163 -0.372906 -0.549397 0
M  V30 215 H 21.2463 -1.6107 -1.26165 0
M  V30 216 H 21.2563 -1.70574 -3.70632 0
M  V30 217 H 19.9313 -2.71515 -3.15043 0
M  V30 218 H 18.5083 -0.941795 -3.60811 0
M  V30 219 N 20.6934 1.19889 -1.02296 0
M  V30 220 C 21.6564 2.21116 -0.603351 0
M  V30 221 C 22.6564 1.5738 0.329884 0
M  V30 222 O 23.8464 1.73802 0.117702 0
M  V30 223 C 20.9784 3.40696 0.117992 0
M  V30 224 H 22.1714 2.59754 -1.49893 0
M  V30 225 H 19.7244 1.33463 -0.813468 0
M  V30 226 H 20.4594 3.07569 1.0282 0
M  V30 227 H 20.2444 3.88188 -0.552511 0
M  V30 228 H 21.7344 4.15692 0.398696 0
M  V30 229 N 22.1715 0.800033 1.35784 0
M  V30 230 C 23.4175 0.377901 1.99248 0
M  V30 231 C 23.7505 -1.05052 1.63333 0
M  V30 232 O 23.0255 -1.72768 0.893385 0
M  V30 233 C 23.3085 0.553922 3.55814 0
M  V30 234 C 23.1615 2.0268 4.01548 0
M  V30 235 C 24.4805 -0.0244802 4.40093 0
M  V30 236 H 21.5995 0.138782 0.723815 0
M  V30 237 H 24.2415 1.00835 1.61035 0
M  V30 238 H 22.3915 0.0172398 3.88496 0
M  V30 239 H 24.0635 2.62536 3.79305 0
M  V30 240 H 22.3065 2.5256 3.52698 0
M  V30 241 H 22.9775 2.10087 5.10458 0
M  V30 242 H 25.4535 0.433775 4.13833 0
M  V30 243 H 24.3295 0.128637 5.48749 0
M  V30 244 H 24.5905 -1.11758 4.27741 0
M  V30 245 N 23.6496 -1.47581 0.552962 0
M  V30 246 C 24.8976 -2.02082 0.0272703 0
M  V30 247 C 25.2186 -1.4301 -1.32563 0
M  V30 248 O 24.4886 -0.603745 -1.86365 0
M  V30 249 H 23.0686 -0.746966 0.00709182 0
M  V30 250 H 25.7306 -1.81033 0.722008 0
M  V30 251 H 24.8266 -3.12034 -0.0639951 0
M  V30 252 N 25.1277 -0.289203 -1.54924 0
M  V30 253 C 26.0907 0.579144 -2.21762 0
M  V30 254 C 27.0907 1.07047 -1.1999 0
M  V30 255 O 28.2807 0.968384 -1.44803 0
M  V30 256 C 25.4127 1.80055 -2.8947 0
M  V30 257 H 26.6057 -0.00464908 -2.999 0
M  V30 258 H 24.1587 -0.0399306 -1.56249 0
M  V30 259 H 24.8937 2.42449 -2.15381 0
M  V30 260 H 24.6787 1.45602 -3.64064 0
M  V30 261 H 26.1687 2.41773 -3.40493 0
M  V30 262 N 26.6058 1.57591 -0.0167156 0
M  V30 263 C 27.8308 1.9598 0.67872 0
M  V30 264 C 28.2558 0.892546 1.65575 0
M  V30 265 O 27.6138 -0.147772 1.80697 0
M  V30 266 C 27.6618 3.33468 1.37227 0
M  V30 267 O 26.7658 3.28954 2.48722 0
M  V30 268 H 26.1068 0.639339 0.17928 0
M  V30 269 H 28.6368 2.04463 -0.0748802 0
M  V30 270 H 28.6468 3.69417 1.7319 0
M  V30 271 H 27.3218 4.10694 0.656007 0
M  V30 272 H 25.8988 3.04705 2.14963 0
M  V30 273 N 28.0839 -0.256276 1.55502 0
M  V30 274 C 29.3089 -1.00766 1.81276 0
M  V30 275 C 29.7339 -1.78524 0.59252 0
M  V30 276 O 29.0919 -1.75413 -0.45827 0
M  V30 277 C 29.1399 -1.92869 3.04687 0
M  V30 278 O 28.2439 -3.019 2.80945 0
M  V30 279 H 27.5849 -0.287224 0.598664 0
M  V30 280 H 30.1149 -0.280109 2.02674 0
M  V30 281 H 30.1249 -2.34511 3.33869 0
M  V30 282 H 28.7999 -1.35689 3.93143 0
M  V30 283 H 27.3769 -2.64454 2.62904 0
M  V30 284 N 29.562 -1.4872 -0.521534 0
M  V30 285 C 30.492 -1.66771 -1.63431 0
M  V30 286 C 31.473 -0.516499 -1.62069 0
M  V30 287 O 32.658 -0.750013 -1.79132 0
M  V30 288 C 29.788 -1.71515 -3.01993 0
M  V30 289 C 28.742 -2.86222 -3.18216 0
M  V30 290 C 28.068 -2.76061 -4.57924 0
M  V30 291 C 29.368 -4.27419 -3.00184 0
M  V30 292 H 31.062 -2.59932 -1.48579 0
M  V30 293 H 28.608 -1.25089 -0.713358 0
M  V30 294 H 30.561 -1.82731 -3.7972 0
M  V30 295 H 29.285 -0.749393 -3.17886 0
M  V30 296 H 27.944 -2.74575 -2.42908 0
M  V30 297 H 27.592 -1.77437 -4.70665 0
M  V30 298 H 27.292 -3.53037 -4.69722 0
M  V30 299 H 28.816 -2.89256 -5.37739 0
M  V30 300 H 30.23 -4.39855 -3.67697 0
M  V30 301 H 28.627 -5.05458 -3.2347 0
M  V30 302 H 29.697 -4.43293 -1.96518 0
M  V30 303 N 31.0401 0.771051 -1.3745 0
M  V30 304 C 32.2881 1.52661 -1.32435 0
M  V30 305 C 32.6091 1.9479 0.0905024 0
M  V30 306 O 31.8791 1.66348 1.03466 0
M  V30 307 H 30.4591 0.566218 -0.487244 0
M  V30 308 H 33.1211 0.917636 -1.71946 0
M  V30 309 H 32.2171 2.42568 -1.96385 0
M  V30 310 N 32.5182 1.22032 0.997298 0
M  V30 311 C 33.7642 1.04376 1.73878 0
M  V30 312 C 34.0972 -0.420716 1.89588 0
M  V30 313 O 33.3722 -1.31202 1.43583 0
M  V30 314 C 33.6552 1.75047 3.14691 0
M  V30 315 C 33.5082 3.29062 3.06656 0
M  V30 316 C 34.8272 1.49928 4.13775 0
M  V30 317 H 31.9462 0.380578 0.631133 0
M  V30 318 H 34.5882 1.50312 1.16217 0
M  V30 319 H 32.7382 1.35996 3.63919 0
M  V30 320 H 34.4102 3.7753 2.65083 0
M  V30 321 H 32.6532 3.58967 2.43568 0
M  V30 322 H 33.3242 3.73683 4.06282 0
M  V30 323 H 35.8002 1.83842 3.73285 0
M  V30 324 H 34.6762 2.01878 5.10428 0
M  V30 325 H 34.9372 0.430929 4.39995 0
M  V30 326 N 33.9963 -1.19345 1.0293 0
M  V30 327 C 35.2423 -1.89318 0.727083 0
M  V30 328 C 35.5753 -1.79446 -0.742483 0
M  V30 329 O 34.8503 -1.1871 -1.54072 0
M  V30 330 C 35.1333 -3.40238 1.17942 0
M  V30 331 C 34.9863 -3.58979 2.71024 0
M  V30 332 C 36.3053 -4.33479 0.760548 0
M  V30 333 H 33.4243 -0.687475 0.265606 0
M  V30 334 H 36.0663 -1.40477 1.2793 0
M  V30 335 H 34.2163 -3.81964 0.709608 0
M  V30 336 H 35.8883 -3.26421 3.25955 0
M  V30 337 H 34.1313 -3.02018 3.11396 0
M  V30 338 H 34.8023 -4.64823 2.9773 0
M  V30 339 H 37.2783 -3.99469 1.16464 0
M  V30 340 H 36.1543 -5.37664 1.10493 0
M  V30 341 H 36.4153 -4.40813 -0.337063 0
M  V30 342 N 35.4744 -0.807222 -1.35358 0
M  V30 343 C 36.7024 -0.400377 -2.02989 0
M  V30 344 C 37.1174 0.988859 -1.60832 0
M  V30 345 O 36.4744 1.63729 -0.806175 0
M  V30 346 C 36.5254 -0.474867 -3.58368 0
M  V30 347 O 36.2464 -1.80933 -3.98992 0
M  V30 348 C 37.7474 -0.0609112 -4.43258 0
M  V30 349 H 34.9674 -0.162587 -0.651004 0
M  V30 350 H 37.5114 -1.09102 -1.72965 0
M  V30 351 H 35.6664 0.167534 -3.87038 0
M  V30 352 H 36.0804 -1.77256 -4.9364 0
M  V30 353 H 37.5544 -0.164145 -5.51756 0
M  V30 354 H 38.0314 0.993831 -4.27808 0
M  V30 355 H 38.6374 -0.676492 -4.19885 0
M  V30 356 N 36.9525 1.47285 -0.560781 0
M  V30 357 C 38.1925 2.0436 -0.0404627 0
M  V30 358 C 38.5565 1.42534 1.28639 0
M  V30 359 O 39.7575 1.90677 1.89462 0
M  V30 360 C 38.0285 3.57369 0.0471856 0
M  V30 361 S 39.5875 4.3579 0.513109 0
M  V30 362 H 36.4055 0.710492 -0.0268674 0
M  V30 363 H 39.0075 1.80611 -0.748323 0
M  V30 364 H 37.7115 3.9989 -0.922817 0
M  V30 365 H 37.2425 3.8562 0.778491 0
M  V30 366 H 39.2575 4.63476 1.77212 0
M  V30 367 N 38.4306 0.297415 1.54768 0
M  V30 368 C 39.6786 -0.312295 1.99673 0
M  V30 369 C 39.9996 -1.54686 1.18732 0
M  V30 370 O 39.2696 -1.93854 0.282382 0
M  V30 371 H 37.8496 -0.118381 0.73756 0
M  V30 372 H 40.5116 0.407915 1.90583 0
M  V30 373 H 39.6076 -0.586813 3.06534 0
M  V30 374 N 39.9087 -1.5758 0.0250728 0
M  V30 375 C 41.1337 -1.96337 -0.668317 0
M  V30 376 C 41.5587 -0.901314 -1.651 0
M  V30 377 O 40.9167 0.138187 -1.80773 0
M  V30 378 C 40.9647 -3.34191 -1.35457 0
M  V30 379 O 40.0687 -3.30269 -2.46974 0
M  V30 380 H 39.4097 -0.640281 -0.175887 0
M  V30 381 H 41.9397 -2.0442 0.0857224 0
M  V30 382 H 41.9497 -3.70331 -1.71228 0
M  V30 383 H 40.6247 -4.11036 -0.634218 0
M  V30 384 H 39.2017 -3.05841 -2.13344 0
M  V30 385 N 41.3868 0.248026 -1.55636 0
M  V30 386 C 42.6328 0.97767 -1.77678 0
M  V30 387 C 42.9658 1.85016 -0.590135 0
M  V30 388 O 42.2408 1.90095 0.411611 0
M  V30 389 C 42.5238 1.83914 -3.09593 0
M  V30 390 C 42.3768 0.99491 -4.38659 0
M  V30 391 C 43.6958 2.82183 -3.37729 0
M  V30 392 H 40.8148 0.354005 -0.646413 0
M  V30 393 H 43.4568 0.248253 -1.88371 0
M  V30 394 H 41.6068 2.46104 -3.00608 0
M  V30 395 H 43.2788 0.391789 -4.59633 0
M  V30 396 H 41.5218 0.299231 -4.32767 0
M  V30 397 H 42.1928 1.63145 -5.2734 0
M  V30 398 H 44.6688 2.30129 -3.4667 0
M  V30 399 H 43.5448 3.39582 -4.31249 0
M  V30 400 H 43.8058 3.58588 -2.58586 0
M  V30 401 N 42.8649 1.48995 0.513639 0
M  V30 402 C 44.1109 1.58076 1.27042 0
M  V30 403 C 44.4439 0.261026 1.92438 0
M  V30 404 O 43.7189 -0.734393 1.80103 0
M  V30 405 C 44.0019 2.73091 2.34719 0
M  V30 406 C 43.8549 4.14821 1.73907 0
M  V30 407 C 45.1739 2.83796 3.36375 0
M  V30 408 H 42.2929 0.575391 0.460536 0
M  V30 409 H 44.9349 1.81232 0.570516 0
M  V30 410 H 43.0849 2.53479 2.94416 0
M  V30 411 H 44.7569 4.45917 1.18135 0
M  V30 412 H 42.9999 4.21058 1.0437 0
M  V30 413 H 43.6709 4.91147 2.51949 0
M  V30 414 H 46.1469 3.01611 2.86653 0
M  V30 415 H 45.0229 3.65971 4.09093 0
M  V30 416 H 45.2839 1.92624 3.9793 0
M  V30 417 N 44.343 -0.763751 1.37857 0
M  V30 418 C 45.29 -1.87726 1.34267 0
M  V30 419 C 46.26 -1.64807 0.206879 0
M  V30 420 O 47.445 -1.86613 0.397508 0
M  V30 421 C 44.585 -3.24896 1.16346 0
M  V30 422 C 43.698 -3.59716 2.39225 0
M  V30 423 C 42.833 -4.86137 2.14114 0
M  V30 424 C 41.872 -5.13711 3.32817 0
M  V30 425 N 41.009 -6.31323 3.07206 0
M  V30 426 H 45.849 -1.90129 2.29466 0
M  V30 427 H 43.386 -0.929433 1.14017 0
M  V30 428 H 45.344 -4.04036 1.03975 0
M  V30 429 H 43.974 -3.21847 0.247909 0
M  V30 430 H 43.026 -2.75498 2.62307 0
M  V30 431 H 44.338 -3.76027 3.27728 0
M  V30 432 H 43.492 -5.73198 1.9882 0
M  V30 433 H 42.231 -4.71945 1.22961 0
M  V30 434 H 41.236 -4.25123 3.48641 0
M  V30 435 H 42.461 -5.29807 4.24832 0
M  V30 436 H 40.407 -6.18474 2.1869 0
M  V30 437 H 40.324 -6.48087 3.89254 0
M  V30 438 H 41.592 -7.213 2.95546 0
M  V30 439 N 45.8211 -1.22559 -0.990812 0
M  V30 440 C 46.7511 -1.0218 -2.09956 0
M  V30 441 C 47.7321 0.0579394 -1.70001 0
M  V30 442 O 48.9171 -0.104684 -1.93918 0
M  V30 443 C 46.0471 -0.601023 -3.4206 0
M  V30 444 C 45.0011 -1.62694 -3.95872 0
M  V30 445 C 44.3271 -1.06193 -5.24049 0
M  V30 446 C 45.6271 -3.01743 -4.2632 0
M  V30 447 H 47.3211 -1.94916 -2.27262 0
M  V30 448 H 44.8671 -0.938566 -1.09211 0
M  V30 449 H 46.8201 -0.445561 -4.19038 0
M  V30 450 H 45.5441 0.362005 -3.24588 0
M  V30 451 H 44.2031 -1.77021 -3.21028 0
M  V30 452 H 43.8511 -0.0901903 -5.02919 0
M  V30 453 H 43.5511 -1.74732 -5.61019 0
M  V30 454 H 45.0751 -0.918092 -6.03658 0
M  V30 455 H 46.4891 -2.90777 -4.94087 0
M  V30 456 H 44.8861 -3.67425 -4.74467 0
M  V30 457 H 45.9561 -3.51518 -3.34011 0
M  V30 458 N 47.2992 1.18797 -1.03562 0
M  V30 459 C 48.2292 2.24472 -0.643019 0
M  V30 460 C 49.2102 1.66433 0.351283 0
M  V30 461 O 50.3952 1.92803 0.232505 0
M  V30 462 C 47.5252 3.473 4.24935e-05 0
M  V30 463 C 46.4792 4.18055 -0.917257 0
M  V30 464 C 45.8052 5.34519 -0.138941 0
M  V30 465 C 47.1052 4.72109 -2.23407 0
M  V30 466 H 48.7992 2.57566 -1.52643 0
M  V30 467 H 46.3452 1.23806 -0.735394 0
M  V30 468 H 48.2982 4.20426 0.286383 0
M  V30 469 H 47.0222 3.13424 0.918299 0
M  V30 470 H 45.6812 3.46821 -1.1879 0
M  V30 471 H 45.3292 4.96891 0.781562 0
M  V30 472 H 45.0292 5.82794 -0.750005 0
M  V30 473 H 46.5532 6.10438 0.1405 0
M  V30 474 H 47.9672 5.36955 -2.00879 0
M  V30 475 H 46.3642 5.30897 -2.79765 0
M  V30 476 H 47.4342 3.89807 -2.88407 0
M  V30 477 N 48.7773 0.814389 1.34928 0
M  V30 478 C 49.7253 0.218424 2.31572 0
M  V30 479 C 50.7193 -0.636128 1.57002 0
M  V30 480 O 51.9253 -0.52842 1.72069 0
M  V30 481 H 48.3003 0.0518799 0.750208 0
M  V30 482 H 50.2713 1.04852 2.79372 0
M  V30 483 C 49.0203 -0.61207 3.4227 0
M  V30 484 H 48.3433 0.0361578 3.99784 0
M  V30 485 H 49.7833 -0.995317 4.12152 0
M  V30 486 C 48.2423 -1.78087 2.85984 0
M  V30 487 O 48.7723 -2.8787 2.80168 0
M  V30 488 N 46.9783 -1.59488 2.42924 0
M  V30 489 H 46.5253 -0.701874 2.47854 0
M  V30 490 H 46.4833 -2.37846 2.05613 0
M  V30 491 N 50.2554 -1.46986 0.568584 0
M  V30 492 C 51.4834 -2.0683 0.0539956 0
M  V30 493 C 51.8984 -1.41953 -1.24478 0
M  V30 494 O 51.2554 -0.519933 -1.74937 0
M  V30 495 C 51.3064 -3.61254 -0.133362 0
M  V30 496 O 51.0274 -4.237 1.11399 0
M  V30 497 C 52.5284 -4.37992 -0.683927 0
M  V30 498 H 49.7484 -0.669058 0.0510141 0
M  V30 499 H 52.2924 -1.88824 0.785234 0
M  V30 500 H 50.4474 -3.78735 -0.81477 0
M  V30 501 H 50.8614 -5.16388 0.91888 0
M  V30 502 H 52.3354 -5.46684 -0.764263 0
M  V30 503 H 52.8124 -4.05058 -1.69778 0
M  V30 504 H 53.4184 -4.25283 -0.0378494 0
M  V30 505 N 51.7335 -0.305618 -1.54608 0
M  V30 506 C 53.1495 0.0476228 -1.59529 0
M  V30 507 C 53.3495 1.52025 -1.32252 0
M  V30 508 O 52.4055 2.27368 -1.09818 0
M  V30 509 C 53.7185 -0.354471 -2.98603 0
M  V30 510 C 55.2665 -0.303622 -3.11524 0
M  V30 511 C 55.7415 -0.680608 -4.52915 0
M  V30 512 N 57.2325 -0.63332 -4.5885 0
M  V30 513 C 57.9675 -0.897432 -5.66334 0
M  V30 514 N 57.4635 -1.22775 -6.81834 0
M  V30 515 N 59.2565 -0.824186 -5.56025 0
M  V30 516 H 51.4075 -1.2653 -1.70599 0
M  V30 517 H 53.6705 -0.513291 -0.797017 0
M  V30 518 H 53.3765 -1.3798 -3.23503 0
M  V30 519 H 53.2505 0.289568 -3.76087 0
M  V30 520 H 55.6375 0.712472 -2.8637 0
M  V30 521 H 55.7185 -0.982348 -2.36185 0
M  V30 522 H 55.3625 -1.69453 -4.78799 0
M  V30 523 H 55.2925 0.0202385 -5.26596 0
M  V30 524 H 57.7835 -0.389138 -3.75891 0
M  V30 525 H 58.0965 -1.41513 -7.59733 0
M  V30 526 H 56.4415 -1.26583 -6.83375 0
M  V30 527 H 59.6325 -0.565748 -4.64669 0
M  V30 528 H 59.8055 -1.03338 -6.39707 0
M  V30 529 N 53.2116 1.57565 -0.0334293 0
M  V30 530 C 54.1616 2.06978 0.956237 0
M  V30 531 C 55.1456 0.971193 1.28283 0
M  V30 532 O 56.3376 1.23471 1.26822 0
M  V30 533 C 53.4666 2.60393 2.23719 0
M  V30 534 C 52.5526 3.7719 1.93877 0
M  V30 535 N 52.9436 4.87639 1.34321 0
M  V30 536 C 51.2416 3.85758 2.23845 0
M  V30 537 C 51.9426 5.68825 1.21709 0
M  V30 538 N 50.9186 5.1587 1.71404 0
M  V30 539 H 54.7206 2.89773 0.490815 0
M  V30 540 H 52.2346 1.61492 0.171478 0
M  V30 541 H 54.2316 2.94088 2.95496 0
M  V30 542 H 52.8916 1.79031 2.70884 0
M  V30 543 H 53.9026 5.07803 1.01767 0
M  V30 544 H 50.5796 3.1531 2.73653 0
M  V30 545 H 51.9696 6.67631 0.75621 0
M  V30 546 N 54.6897 -0.239769 1.55765 0
M  V30 547 C 55.6377 -1.31668 1.91745 0
M  V30 548 C 56.6317 -1.49462 0.797338 0
M  V30 549 O 57.8377 -1.50852 0.982021 0
M  V30 550 H 54.2127 -0.441048 0.609082 0
M  V30 551 H 56.1837 -0.985923 2.81642 0
M  V30 552 C 54.9327 -2.66368 2.2348 0
M  V30 553 H 54.2557 -2.53478 3.09175 0
M  V30 554 H 55.6957 -3.40578 2.52553 0
M  V30 555 C 54.1547 -3.20002 1.05359 0
M  V30 556 O 54.6847 -4.00538 0.305261 0
M  V30 557 N 52.8907 -2.78126 0.842292 0
M  V30 558 H 52.4377 -2.12742 1.45253 0
M  V30 559 H 52.3957 -3.14354 0.053652 0
M  V30 560 N 56.1678 -1.49265 -0.50573 0
M  V30 561 C 57.4138 -1.58748 -1.26202 0
M  V30 562 C 57.7468 -0.271227 -1.92297 0
M  V30 563 O 57.0218 0.724831 -1.80489 0
M  V30 564 C 57.3048 -2.74332 -2.33268 0
M  V30 565 C 57.1578 -4.15737 -1.71705 0
M  V30 566 C 58.4768 -2.85576 -3.34865 0
M  V30 567 H 55.5958 -0.577826 -0.457478 0
M  V30 568 H 58.2378 -1.81532 -0.560897 0
M  V30 569 H 56.3878 -2.55036 -2.93068 0
M  V30 570 H 58.0598 -4.46537 -1.15769 0
M  V30 571 H 56.3028 -4.21605 -1.02135 0
M  V30 572 H 56.9738 -4.92477 -2.49341 0
M  V30 573 H 59.4498 -3.03127 -2.8505 0
M  V30 574 H 58.3258 -3.68135 -4.07146 0
M  V30 575 H 58.5868 -1.94732 -3.96903 0
M  V30 576 N 57.6459 0.756429 -1.3826 0
M  V30 577 C 59.0619 1.0591 -1.19395 0
M  V30 578 C 59.2619 2.01459 -0.0406567 0
M  V30 579 O 58.3179 2.44909 0.614467 0
M  V30 580 C 59.6309 1.64191 -2.51916 0
M  V30 581 C 61.1789 1.76376 -2.58574 0
M  V30 582 C 61.6539 2.38069 -3.91264 0
M  V30 583 N 63.1449 2.45503 -3.92788 0
M  V30 584 C 63.8799 2.94126 -4.92217 0
M  V30 585 N 63.3759 3.42805 -6.02043 0
M  V30 586 N 65.1689 2.9314 -4.7961 0
M  V30 587 H 57.3199 0.122313 -2.12048 0
M  V30 588 H 59.5829 0.116892 -0.940766 0
M  V30 589 H 59.2889 1.01451 -3.3675 0
M  V30 590 H 59.1629 2.6329 -2.70108 0
M  V30 591 H 61.5499 2.38244 -1.74137 0
M  V30 592 H 61.6309 0.759894 -2.44252 0
M  V30 593 H 61.2749 1.76835 -4.76121 0
M  V30 594 H 61.2049 3.39091 -4.02895 0
M  V30 595 H 63.6959 2.1107 -3.13461 0
M  V30 596 H 64.0089 3.78354 -6.73846 0
M  V30 597 H 62.3539 3.4087 -6.05667 0
M  V30 598 H 65.5449 2.54419 -3.92923 0
M  V30 599 H 65.7179 3.30721 -5.5725 0
M  V30 600 N 59.124 1.23083 0.984299 0
M  V30 601 C 60.054 1.03292 2.09411 0
M  V30 602 C 61.035 -0.048923 1.7003 0
M  V30 603 O 62.22 0.114967 1.93859 0
M  V30 604 C 59.35 0.619155 3.41736 0
M  V30 605 C 58.304 1.64791 3.95004 0
M  V30 606 C 57.63 1.0897 5.23478 0
M  V30 607 C 58.93 3.03999 4.24714 0
M  V30 608 H 60.624 1.96119 2.26225 0
M  V30 609 H 58.17 0.944344 1.08711 0
M  V30 610 H 60.123 0.467777 4.18796 0
M  V30 611 H 58.847 -0.344786 3.24775 0
M  V30 612 H 57.506 1.78721 3.20085 0
M  V30 613 H 57.154 0.11686 5.02864 0
M  V30 614 H 56.854 1.77704 5.60085 0
M  V30 615 H 58.378 0.950093 6.03163 0
M  V30 616 H 59.792 2.93393 4.92538 0
M  V30 617 H 58.189 3.69936 4.72512 0
M  V30 618 H 59.259 3.53285 3.32142 0
M  V30 619 N 60.6021 -1.18246 1.0419 0
M  V30 620 C 61.5521 -2.19843 0.604392 0
M  V30 621 C 62.5361 -1.56962 -0.353814 0
M  V30 622 O 63.7281 -1.76156 -0.17267 0
M  V30 623 C 60.8571 -3.43287 -0.0298975 0
M  V30 624 C 59.9431 -4.13288 0.951531 0
M  V30 625 N 60.3341 -4.59271 2.11906 0
M  V30 626 C 58.6321 -4.39165 0.7778 0
M  V30 627 C 59.3331 -5.13173 2.73912 0
M  V30 628 N 58.3091 -5.04763 2.01779 0
M  V30 629 H 62.1111 -2.53089 1.4941 0
M  V30 630 H 59.6251 -1.34465 0.910658 0
M  V30 631 H 61.6221 -4.15334 -0.361037 0
M  V30 632 H 60.2821 -3.11537 -0.915127 0
M  V30 633 H 61.2931 -4.5368 2.49789 0
M  V30 634 H 57.9701 -4.17461 -0.0572331 0
M  V30 635 H 59.3601 -5.58947 3.72864 0
M  V30 636 N 62.0802 -0.821533 -1.34494 0
M  V30 637 C 63.3052 -0.420873 -2.03085 0
M  V30 638 C 63.7302 0.964915 -1.61465 0
M  V30 639 O 63.0882 1.62763 -0.798607 0
M  V30 640 C 63.1362 -0.529414 -3.56693 0
M  V30 641 O 62.2402 0.451302 -4.09923 0
M  V30 642 H 61.5812 -0.173489 -0.640935 0
M  V30 643 H 64.1112 -1.11157 -1.71771 0
M  V30 644 H 64.1212 -0.404671 -4.05988 0
M  V30 645 H 62.7962 -1.54014 -3.86332 0
M  V30 646 H 61.3732 0.285558 -3.71805 0
M  V30 647 N 63.5583 1.46682 -0.576371 0
M  V30 648 C 64.5083 2.27278 0.181288 0
M  V30 649 C 65.4923 1.35497 0.867721 0
M  V30 650 O 66.6843 1.59717 0.762863 0
M  V30 651 C 63.8133 3.21703 1.19841 0
M  V30 652 C 62.8993 4.20969 0.51442 0
M  V30 653 N 63.2903 5.03999 -0.426407 0
M  V30 654 C 61.5883 4.39373 0.765963 0
M  V30 655 C 62.2893 5.75812 -0.825565 0
M  V30 656 N 61.2653 5.43315 -0.176116 0
M  V30 657 H 65.0673 2.88863 -0.541785 0
M  V30 658 H 62.5813 1.57455 -0.397697 0
M  V30 659 H 64.5783 3.78145 1.75533 0
M  V30 660 H 63.2383 2.61677 1.92238 0
M  V30 661 H 64.2493 5.11659 -0.8016 0
M  V30 662 H 60.9263 3.90502 1.47698 0
M  V30 663 H 62.3163 6.52577 -1.59976 0
M  V30 664 N 65.0364 0.313813 1.54444 0
M  V30 665 C 66.3134 -0.345447 1.92525 0
M  V30 666 C 66.6934 -1.70667 1.24242 0
M  V30 667 O 66.0414 -2.25273 0.382654 0
M  V30 668 C 66.2514 -0.44737 3.46121 0
M  V30 669 C 67.5994 -0.712238 4.18584 0
M  V30 670 O 68.6234 -0.530678 3.52225 0
M  V30 671 O 67.4824 -1.06183 5.36085 0
M  V30 672 H 64.5764 -0.195407 0.803583 0
M  V30 673 H 67.1224 0.362813 1.65776 0
M  V30 674 H 65.8944 0.509043 3.87975 0
M  V30 675 H 65.5174 -1.20359 3.78945 0
M  V30 676 N 66.5145 -1.57545 0.0417849 0
M  V30 677 C 67.7605 -1.92601 -0.635021 0
M  V30 678 C 68.0935 -0.919627 -1.71045 0
M  V30 679 O 67.3685 0.0557892 -1.9442 0
M  V30 680 C 67.6515 -3.38085 -1.23979 0
M  V30 681 C 67.5045 -4.49467 -0.173057 0
M  V30 682 C 68.8235 -3.83776 -2.15416 0
M  V30 683 H 65.9425 -0.700397 -0.229374 0
M  V30 684 H 68.5845 -1.89728 0.101633 0
M  V30 685 H 66.7345 -3.40664 -1.86762 0
M  V30 686 H 68.4065 -4.59018 0.458312 0
M  V30 687 H 66.6495 -4.30909 0.499996 0
M  V30 688 H 67.3205 -5.48323 -0.636054 0
M  V30 689 H 69.7965 -3.83013 -1.62605 0
M  V30 690 H 68.6725 -4.8624 -2.54679 0
M  V30 691 H 68.9335 -3.19998 -3.05047 0
M  V30 692 N 67.9926 0.231505 -1.5589 0
M  V30 693 C 69.4086 0.580748 -1.48659 0
M  V30 694 C 69.6086 1.87617 -0.73498 0
M  V30 695 O 68.6646 2.51046 -0.270586 0
M  V30 696 C 69.9776 0.669202 -2.93159 0
M  V30 697 C 71.5256 0.760499 -3.03621 0
M  V30 698 C 72.0006 0.880383 -4.49459 0
M  V30 699 N 73.4916 0.944861 -4.53461 0
M  V30 700 C 74.2266 1.05716 -5.63571 0
M  V30 701 N 73.7226 1.13403 -6.83456 0
M  V30 702 N 75.5156 1.09152 -5.514 0
M  V30 703 H 67.6666 -0.618695 -2.03189 0
M  V30 704 H 69.9296 -0.215728 -0.923128 0
M  V30 705 H 69.6356 -0.212904 -3.51055 0
M  V30 706 H 69.5096 1.5361 -3.44505 0
M  V30 707 H 71.8966 1.63305 -2.45796 0
M  V30 708 H 71.9776 -0.131864 -2.5546 0
M  V30 709 H 71.6216 0.0123284 -5.07899 0
M  V30 710 H 71.5516 1.78802 -4.95316 0
M  V30 711 H 74.0426 0.896176 -3.6712 0
M  V30 712 H 74.3556 1.21921 -7.63122 0
M  V30 713 H 72.7006 1.10333 -6.86186 0
M  V30 714 H 75.8916 1.02805 -4.56671 0
M  V30 715 H 76.0646 1.17558 -6.37247 0
M  V30 716 N 69.4707 1.49531 0.497807 0
M  V30 717 C 70.7007 1.62657 1.27382 0
M  V30 718 C 71.1087 0.298488 1.86831 0
M  V30 719 O 70.4517 -0.72647 1.68725 0
M  V30 720 C 70.5137 2.6393 2.44093 0
M  V30 721 C 70.1777 4.08195 2.05489 0
M  V30 722 C 71.1747 4.949 1.59279 0
M  V30 723 C 68.8597 4.53948 2.15026 0
M  V30 724 C 70.8537 6.25397 1.23113 0
M  V30 725 C 68.5407 5.84458 1.78473 0
M  V30 726 C 69.5387 6.70006 1.32591 0
M  V30 727 O 69.2267 7.98083 0.965327 0
M  V30 728 H 68.9587 0.550429 0.392434 0
M  V30 729 H 71.5127 1.96325 0.603801 0
M  V30 730 H 69.7427 2.25449 3.14181 0
M  V30 731 H 71.4317 2.66552 3.06113 0
M  V30 732 H 72.1977 4.60779 1.51354 0
M  V30 733 H 68.0767 3.87525 2.4969 0
M  V30 734 H 71.6207 6.92125 0.872299 0
M  V30 735 H 67.5177 6.18107 1.86048 0
M  V30 736 H 68.2857 8.11122 1.09652 0
M  V30 737 N 70.9488 -0.749086 1.3866 0
M  V30 738 C 72.1968 -1.50535 1.34847 0
M  V30 739 C 72.5178 -1.94909 -0.0595016 0
M  V30 740 O 71.7878 -1.67973 -1.00806 0
M  V30 741 H 70.3678 -0.558395 0.49619 0
M  V30 742 H 73.0298 -0.890165 1.73384 0
M  V30 743 H 72.1258 -2.39413 2.00219 0
M  V30 744 N 72.4269 -1.23603 -0.977757 0
M  V30 745 C 73.6519 -1.09735 -1.75991 0
M  V30 746 C 74.0769 0.346858 -1.84874 0
M  V30 747 O 73.4349 1.25093 -1.3123 0
M  V30 748 C 73.4829 -1.73051 -3.16363 0
M  V30 749 O 72.5869 -0.994452 -4.0023 0
M  V30 750 H 71.9279 -0.384476 -0.541364 0
M  V30 751 H 74.4579 -1.6371 -1.2272 0
M  V30 752 H 74.4679 -1.78398 -3.66931 0
M  V30 753 H 73.1429 -2.78137 -3.09213 0
M  V30 754 H 71.7199 -1.01812 -3.58732 0
M  V30 755 N 73.905 1.17692 -1.04816 0
M  V30 756 C 75.153 1.87488 -0.754497 0
M  V30 757 C 75.474 1.81205 0.720407 0
M  V30 758 O 74.744 1.23544 1.52032 0
M  V30 759 H 73.324 0.694101 -0.276102 0
M  V30 760 H 75.986 1.42793 -1.32651 0
M  V30 761 H 75.082 2.93328 -1.06606 0
M  V30 762 N 75.3831 0.828654 1.34056 0
M  V30 763 C 76.6081 0.431637 2.02859 0
M  V30 764 C 77.0331 -0.956339 1.61975 0
M  V30 765 O 76.3911 -1.62338 0.807228 0
M  V30 766 C 76.4391 0.548323 3.56407 0
M  V30 767 O 75.5431 -0.429556 4.10157 0
M  V30 768 H 74.8841 0.176886 0.640006 0
M  V30 769 H 77.4141 1.12066 1.71179 0
M  V30 770 H 77.4241 0.426196 4.05768 0
M  V30 771 H 76.0991 1.5606 3.8551 0
M  V30 772 H 74.6761 -0.265836 3.71951 0
M  V30 773 N 76.8612 -1.46375 0.584142 0
M  V30 774 C 78.1092 -2.01978 0.0701287 0
M  V30 775 C 78.4302 -1.4579 -1.295 0
M  V30 776 O 77.7002 -0.64314 -1.85042 0
M  V30 777 H 76.2802 -0.746648 0.0229345 0
M  V30 778 H 78.9422 -1.79461 0.760245 0
M  V30 779 H 78.0382 -3.121 0.0022064 0
M  V30 780 N 78.3393 -0.321999 -1.54275 0
M  V30 781 C 79.2713 0.578671 -2.21775 0
M  V30 782 C 80.2843 1.08109 -1.21722 0
M  V30 783 O 81.4733 0.994938 -1.482 0
M  V30 784 C 78.5733 1.80661 -2.86731 0
M  V30 785 C 77.7463 1.44314 -4.12907 0
M  V30 786 C 76.8053 2.52845 -4.61472 0
M  V30 787 O 75.8313 2.17054 -5.2619 0
M  V30 788 N 77.0333 3.83748 -4.35566 0
M  V30 789 H 79.7983 0.000709447 -2.997 0
M  V30 790 H 77.3593 -0.145132 -1.61248 0
M  V30 791 H 79.3513 2.52655 -3.16145 0
M  V30 792 H 77.9213 2.29245 -2.12521 0
M  V30 793 H 77.1413 0.554906 -3.90275 0
M  V30 794 H 78.4293 1.17598 -4.95023 0
M  V30 795 H 77.8273 4.15625 -3.83761 0
M  V30 796 H 76.3843 4.51977 -4.69638 0
M  V30 797 N 79.8174 1.5752 -0.0501392 0
M  V30 798 C 80.7494 2.08413 0.95376 0
M  V30 799 C 81.7624 1.01175 1.27544 0
M  V30 800 O 82.9514 1.28744 1.23641 0
M  V30 801 C 80.0514 2.51138 2.27559 0
M  V30 802 C 79.2244 3.817 2.13598 0
M  V30 803 C 78.2834 4.10749 3.28895 0
M  V30 804 O 77.3094 4.80685 3.04845 0
M  V30 805 N 78.5114 3.62579 4.5334 0
M  V30 806 H 81.2764 2.95165 0.519383 0
M  V30 807 H 78.8374 1.61327 0.136127 0
M  V30 808 H 80.8294 2.67648 3.03557 0
M  V30 809 H 79.3994 1.6964 2.62567 0
M  V30 810 H 78.6194 3.74782 1.22197 0
M  V30 811 H 79.9074 4.67201 2.01496 0
M  V30 812 H 79.3054 3.06039 4.75769 0
M  V30 813 H 77.8624 3.84329 5.26436 0
M  V30 814 N 81.2955 -0.223234 1.56011 0
M  V30 815 C 82.5205 -0.968978 1.83373 0
M  V30 816 C 82.9455 -1.77227 0.630254 0
M  V30 817 O 82.3035 -1.76345 -0.420959 0
M  V30 818 C 82.3515 -1.86363 3.08709 0
M  V30 819 O 81.4555 -2.95873 2.87285 0
M  V30 820 H 80.7965 -0.274461 0.604622 0
M  V30 821 H 83.3265 -0.237056 2.03222 0
M  V30 822 H 83.3365 -2.27376 3.38768 0
M  V30 823 H 82.0115 -1.27319 3.95933 0
M  V30 824 H 80.5885 -2.58818 2.68454 0
M  V30 825 N 82.7736 -1.49793 -0.48987 0
M  V30 826 C 84.0196 -1.60078 -1.24511 0
M  V30 827 C 84.3526 -0.291608 -1.91998 0
M  V30 828 O 83.6276 0.705647 -1.81248 0
M  V30 829 C 83.9106 -2.76791 -2.30345 0
M  V30 830 C 83.7636 -4.17535 -1.67286 0
M  V30 831 C 85.0826 -2.89111 -3.31817 0
M  V30 832 H 82.2016 -0.582645 -0.451324 0
M  V30 833 H 84.8436 -1.82117 -0.541612 0
M  V30 834 H 82.9936 -2.5813 -2.90346 0
M  V30 835 H 84.6656 -4.4774 -1.11026 0
M  V30 836 H 82.9086 -4.22665 -0.976577 0
M  V30 837 H 83.5796 -4.95094 -2.44103 0
M  V30 838 H 86.0556 -3.06133 -2.81819 0
M  V30 839 H 84.9316 -3.72433 -4.03219 0
M  V30 840 H 85.1926 -1.9893 -3.94815 0
M  V30 841 N 84.2517 0.741722 -1.39055 0
M  V30 842 C 85.4797 1.53098 -1.39171 0
M  V30 843 C 85.8947 1.88794 0.0155099 0
M  V30 844 O 85.2517 1.53626 0.985159 0
M  V30 845 C 85.3027 2.82274 -2.2584 0
M  V30 846 O 85.0237 2.48097 -3.61081 0
M  V30 847 C 86.5247 3.76343 -2.34266 0
M  V30 848 H 83.7447 0.473335 -0.4756 0
M  V30 849 H 86.2887 0.917045 -1.82785 0
M  V30 850 H 84.4437 3.40015 -1.85656 0
M  V30 851 H 84.8577 3.31029 -4.06842 0
M  V30 852 H 86.3317 4.63898 -2.9917 0
M  V30 853 H 86.8087 4.17619 -1.35982 0
M  V30 854 H 87.4147 3.24523 -2.74891 0
M  V30 855 N 85.7298 1.2412 0.971189 0
M  V30 856 C 86.9778 1.07668 1.71032 0
M  V30 857 C 87.2988 -0.385797 1.91146 0
M  V30 858 O 86.5688 -1.27569 1.4867 0
M  V30 859 H 85.1488 0.395429 0.633755 0
M  V30 860 H 87.8108 1.55984 1.16855 0
M  V30 861 H 86.9068 1.57195 2.69622 0
M  V30 862 N 87.2079 -1.17134 1.05439 0
M  V30 863 C 88.4539 -1.87733 0.767077 0
M  V30 864 C 88.7869 -1.8098 -0.704253 0
M  V30 865 O 88.0619 -1.21951 -1.5152 0
M  V30 866 C 88.3449 -3.37659 1.25133 0
M  V30 867 C 88.1979 -3.53149 2.78578 0
M  V30 868 C 89.5169 -4.31768 0.852324 0
M  V30 869 H 86.6359 -0.681687 0.280129 0
M  V30 870 H 89.2779 -1.37732 1.30881 0
M  V30 871 H 87.4279 -3.80373 0.790469 0
M  V30 872 H 89.0999 -3.19434 3.32806 0
M  V30 873 H 87.3429 -2.95345 3.17732 0
M  V30 874 H 88.0139 -4.58403 3.07523 0
M  V30 875 H 90.4899 -3.96909 1.24911 0
M  V30 876 H 89.3659 -5.35199 1.21873 0
M  V30 877 H 89.6269 -4.41429 -0.243485 0
M  V30 878 N 88.686 -0.835752 -1.33615 0
M  V30 879 C 89.914 -0.443344 -2.02094 0
M  V30 880 C 90.329 0.954522 -1.62894 0
M  V30 881 O 89.686 1.61982 -0.840723 0
M  V30 882 C 89.737 -0.550775 -3.5728 0
M  V30 883 O 89.458 -1.89356 -3.95065 0
M  V30 884 C 90.959 -0.154919 -4.43029 0
M  V30 885 H 88.179 -0.176359 -0.647409 0
M  V30 886 H 90.723 -1.12746 -1.70612 0
M  V30 887 H 88.878 0.0853997 -3.87306 0
M  V30 888 H 89.292 -1.87687 -4.89769 0
M  V30 889 H 90.766 -0.281144 -5.51284 0
M  V30 890 H 91.243 0.902863 -4.2982 0
M  V30 891 H 91.849 -0.765404 -4.18356 0
M  V30 892 N 90.1641 1.46063 -0.591896 0
M  V30 893 C 91.3891 2.07226 -0.0850314 0
M  V30 894 C 91.8141 1.43625 1.21463 0
M  V30 895 O 91.1721 0.523305 1.73583 0
M  V30 896 C 91.2201 3.60554 0.0576567 0
M  V30 897 O 90.3241 3.97128 1.11188 0
M  V30 898 H 89.6651 0.660615 -0.0669568 0
M  V30 899 H 92.1951 1.8756 -0.81745 0
M  V30 900 H 92.2051 4.07165 0.2609 0
M  V30 901 H 90.8801 4.06235 -0.891416 0
M  V30 902 H 89.4571 3.62213 0.886356 0
M  V30 903 N 91.6422 0.330177 1.54103 0
M  V30 904 C 92.8882 -0.270806 2.00984 0
M  V30 905 C 93.2212 -1.51265 1.21789 0
M  V30 906 O 92.4962 -1.92142 0.301927 0
M  V30 907 C 92.7792 -0.598339 3.55094 0
M  V30 908 C 92.6322 0.654674 4.4501 0
M  V30 909 C 93.9512 -1.41334 4.16789 0
M  V30 910 H 91.0702 -0.0969531 0.730595 0
M  V30 911 H 93.7122 0.448066 1.84641 0
M  V30 912 H 91.8622 -1.21078 3.69151 0
M  V30 913 H 93.5342 1.29285 4.42813 0
M  V30 914 H 91.7772 1.28224 4.14416 0
M  V30 915 H 92.4482 0.380944 5.50684 0
M  V30 916 H 94.9242 -0.895597 4.06347 0
M  V30 917 H 93.8002 -1.61127 5.24718 0
M  V30 918 H 94.0612 -2.41146 3.70541 0
M  V30 919 N 93.1203 -1.57491 0.0584922 0
M  V30 920 C 94.3973 -1.84346 -0.653918 0
M  V30 921 C 94.7773 -0.948355 -1.88599 0
M  V30 922 O 94.1253 -0.0112403 -2.28497 0
M  V30 923 C 94.3353 -3.34239 -1.00425 0
M  V30 924 C 95.6833 -4.01431 -1.38342 0
M  V30 925 O 96.7073 -3.38907 -1.09637 0
M  V30 926 O 95.5663 -5.11683 -1.91943 0
M  V30 927 H 92.6603 -0.761112 -0.323478 0
M  V30 928 H 95.2063 -1.6947 0.0884125 0
M  V30 929 H 93.9783 -3.91089 -0.128625 0
M  V30 930 H 93.6013 -3.54329 -1.80378 0
M  V30 931 N 94.5984 0.214957 -1.56127 0
M  V30 932 C 95.8754 0.963093 -1.70247 0
M  V30 933 C 96.2554 2.02166 -0.60764 0
M  V30 934 O 95.6034 2.25244 0.384385 0
M  V30 935 C 95.8134 1.56756 -3.11815 0
M  V30 936 C 97.1614 2.0573 -3.7143 0
M  V30 937 O 98.1854 1.66637 -3.14818 0
M  V30 938 O 97.0444 2.77603 -4.70743 0
M  V30 939 H 94.1384 0.450321 -0.693643 0
M  V30 940 H 96.6844 0.206219 -1.68442 0
M  V30 941 H 95.4564 0.803533 -3.82961 0
M  V30 942 H 95.0794 2.3898 -3.17765 0
M  V30 943 N 96.0765 1.50051 0.48192 0
M  V30 944 C 97.3015 1.64508 1.26301 0
M  V30 945 C 97.7265 0.323851 1.85291 0
M  V30 946 O 97.0845 -0.710969 1.66778 0
M  V30 947 C 97.1325 2.7305 2.35533 0
M  V30 948 O 96.2365 2.3355 3.39895 0
M  V30 949 H 95.5775 0.549978 0.372048 0
M  V30 950 H 98.1075 1.9636 0.574786 0
M  V30 951 H 98.1175 2.95799 2.8101 0
M  V30 952 H 96.7925 3.68946 1.91967 0
M  V30 953 H 95.3695 2.21205 3.00204 0
M  V30 954 N 97.5546 -0.734337 1.39446 0
M  V30 955 C 98.5026 -1.86971 1.38364 0
M  V30 956 C 99.4966 -1.67288 0.266687 0
M  V30 957 O 100.703 -1.74621 0.436755 0
M  V30 958 H 97.0776 -0.615474 0.432082 0
M  V30 959 H 99.0486 -1.85 2.34132 0
M  V30 960 C 97.7976 -3.2466 1.24465 0
M  V30 961 H 97.1206 -3.40402 2.09682 0
M  V30 962 H 98.5606 -4.04292 1.27764 0
M  V30 963 C 97.0196 -3.36867 -0.0468674 0
M  V30 964 O 97.5496 -3.88618 -1.01681 0
M  V30 965 N 95.7556 -2.90391 -0.110145 0
M  V30 966 H 95.3026 -2.48466 0.679868 0
M  V30 967 H 95.2606 -2.98939 -0.973799 0
M  V30 968 N 99.0327 -1.24633 -0.964593 0
M  V30 969 C 100.258 -1.11596 -1.74818 0
M  V30 970 C 100.683 0.32723 -1.85232 0
M  V30 971 O 100.041 1.23695 -1.32549 0
M  V30 972 C 100.089 -1.76397 -3.1451 0
M  V30 973 O 99.1927 -1.03685 -3.99153 0
M  V30 974 H 98.5337 -0.390196 -0.537255 0
M  V30 975 H 101.064 -1.65002 -1.20977 0
M  V30 976 H 101.074 -1.8228 -3.65018 0
M  V30 977 H 99.7487 -2.81401 -3.06246 0
M  V30 978 H 98.3257 -1.05611 -3.57632 0
M  V30 979 N 100.511 1.16574 -1.06058 0
M  V30 980 C 101.741 1.90675 -0.795397 0
M  V30 981 C 102.149 1.77547 0.653735 0
M  V30 982 O 101.492 1.11611 1.45907 0
M  V30 983 C 101.554 3.42011 -1.10764 0
M  V30 984 C 101.218 3.78924 -2.55471 0
M  V30 985 C 102.215 3.81042 -3.53699 0
M  V30 986 C 99.8998 4.09626 -2.90708 0
M  V30 987 C 101.894 4.13346 -4.85205 0
M  V30 988 C 99.5808 4.41597 -4.22416 0
M  V30 989 C 100.579 4.43436 -5.19474 0
M  V30 990 O 100.267 4.74649 -6.48817 0
M  V30 991 H 99.9988 0.611554 -0.288058 0
M  V30 992 H 102.553 1.48711 -1.41683 0
M  V30 993 H 100.783 3.84312 -0.429128 0
M  V30 994 H 102.472 3.97384 -0.827077 0
M  V30 995 H 103.238 3.57437 -3.27817 0
M  V30 996 H 99.1168 4.07361 -2.15819 0
M  V30 997 H 102.661 4.14696 -5.60957 0
M  V30 998 H 98.5578 4.64667 -4.48056 0
M  V30 999 H 99.3258 4.9247 -6.5377 0
M  V30 1000 N 101.989 0.842826 1.3317 0
M  V30 1001 C 103.235 0.450342 1.98352 0
M  V30 1002 C 103.59 -0.980508 1.65541 0
M  V30 1003 O 102.883 -1.67678 0.927065 0
M  V30 1004 C 103.077 0.612607 3.52111 0
M  V30 1005 C 102.906 2.05768 3.99862 0
M  V30 1006 C 101.676 2.69374 4.27511 0
M  V30 1007 C 103.874 3.02688 4.15794 0
M  V30 1008 N 101.856 4.04915 4.61429 0
M  V30 1009 C 103.227 4.23186 4.53115 0
M  V30 1010 C 105.282 2.99041 3.98094 0
M  V30 1011 C 103.985 5.40518 4.74587 0
M  V30 1012 C 106.011 4.15607 4.20743 0
M  V30 1013 C 105.373 5.3486 4.58371 0
M  V30 1014 H 101.472 0.213296 0.752349 0
M  V30 1015 H 104.056 1.09173 1.61212 0
M  V30 1016 H 102.227 0.000998822 3.884 0
M  V30 1017 H 103.959 0.191179 4.04248 0
M  V30 1018 H 100.714 2.20485 4.19146 0
M  V30 1019 H 101.138 4.74798 4.82593 0
M  V30 1020 H 105.78 2.0797 3.68114 0
M  V30 1021 H 103.498 6.3213 5.03425 0
M  V30 1022 H 107.084 4.14207 4.08563 0
M  V30 1023 H 105.964 6.23558 4.75547 0
M  V30 1024 N 103.467 -1.45747 0.599634 0
M  V30 1025 C 104.883 -1.57424 0.26264 0
M  V30 1026 C 105.083 -1.59222 -1.23493 0
M  V30 1027 O 104.139 -1.51825 -2.01756 0
M  V30 1028 C 105.452 -2.86061 0.926795 0
M  V30 1029 C 107 -2.99722 0.901967 0
M  V30 1030 C 107.475 -4.31119 1.54598 0
M  V30 1031 N 108.966 -4.37858 1.5111 0
M  V30 1032 C 109.701 -5.3818 1.97863 0
M  V30 1033 N 109.197 -6.45083 2.52666 0
M  V30 1034 N 110.99 -5.29487 1.88679 0
M  V30 1035 H 103.141 -1.42823 1.57211 0
M  V30 1036 H 105.404 -0.68235 0.658105 0
M  V30 1037 H 105.11 -2.90605 1.98095 0
M  V30 1038 H 104.984 -3.74563 0.445238 0
M  V30 1039 H 107.371 -2.9475 -0.143617 0
M  V30 1040 H 107.452 -2.12652 1.42171 0
M  V30 1041 H 107.096 -4.36849 2.59085 0
M  V30 1042 H 107.026 -5.16992 1.00132 0
M  V30 1043 H 109.517 -3.61209 1.11068 0
M  V30 1044 H 109.83 -7.17869 2.86155 0
M  V30 1045 H 108.175 -6.45856 2.56701 0
M  V30 1046 H 111.366 -4.44877 1.4561 0
M  V30 1047 H 111.539 -6.07524 2.25429 0
M  V30 1048 N 104.945 -0.338344 -1.53925 0
M  V30 1049 C 106.194 0.260732 -2.00008 0
M  V30 1050 C 106.507 1.52073 -1.23017 0
M  V30 1051 O 107.713 2.19672 -1.5955 0
M  V30 1052 C 106.169 0.51515 -3.56194 0
M  V30 1053 C 105.777 -0.728645 -4.42035 0
M  V30 1054 C 107.521 1.07337 -4.10706 0
M  V30 1055 C 105.428 -0.445315 -5.89721 0
M  V30 1056 H 104.358 0.101205 -0.747177 0
M  V30 1057 H 107.009 -0.452866 -1.77824 0
M  V30 1058 H 105.391 1.28932 -3.74423 0
M  V30 1059 H 106.565 -1.50352 -4.35581 0
M  V30 1060 H 104.88 -1.20813 -3.98489 0
M  V30 1061 H 107.477 1.30022 -5.18651 0
M  V30 1062 H 107.82 2.0273 -3.63602 0
M  V30 1063 H 108.353 0.360034 -3.96167 0
M  V30 1064 H 105.092 -1.36883 -6.41049 0
M  V30 1065 H 104.612 0.291569 -5.99091 0
M  V30 1066 H 106.291 -0.0606218 -6.46972 0
M  V30 1067 N 106.423 1.57458 -0.0668435 0
M  V30 1068 C 107.839 1.56947 0.289772 0
M  V30 1069 C 108.039 1.07584 1.70376 0
M  V30 1070 O 107.095 0.739486 2.41429 0
M  V30 1071 C 108.408 3.0052 0.103943 0
M  V30 1072 C 109.956 3.12517 0.173857 0
M  V30 1073 C 110.431 4.57997 0.0163682 0
M  V30 1074 N 111.922 4.63144 0.0721352 0
M  V30 1075 C 112.657 5.73394 -0.0253794 0
M  V30 1076 N 112.153 6.92576 -0.176133 0
M  V30 1077 N 113.946 5.62091 0.0313305 0
M  V30 1078 H 106.097 1.87863 -0.991027 0
M  V30 1079 H 108.36 0.86583 -0.38606 0
M  V30 1080 H 108.066 3.40729 -0.871572 0
M  V30 1081 H 107.94 3.67304 0.858366 0
M  V30 1082 H 110.327 2.72197 1.13985 0
M  V30 1083 H 110.408 2.48381 -0.611586 0
M  V30 1084 H 110.052 4.99005 -0.946374 0
M  V30 1085 H 109.982 5.20158 0.821153 0
M  V30 1086 H 112.473 3.77436 0.187263 0
M  V30 1087 H 112.786 7.72418 -0.242821 0
M  V30 1088 H 111.131 6.94678 -0.211429 0
M  V30 1089 H 114.322 4.67867 0.147773 0
M  V30 1090 H 114.495 6.47982 -0.048121 0
M  V30 1091 N 107.901 -0.206675 1.56239 0
M  V30 1092 C 109.149 -0.927007 1.79586 0
M  V30 1093 C 109.47 -1.8427 0.637929 0
M  V30 1094 O 108.74 -1.92849 -0.344398 0
M  V30 1095 H 107.32 -0.345292 0.662407 0
M  V30 1096 H 109.982 -0.21496 1.93711 0
M  V30 1097 H 109.078 -1.52501 2.72305 0
M  V30 1098 N 109.379 -1.50304 -0.473955 0
M  V30 1099 C 110.326 -1.68959 -1.57231 0
M  V30 1100 C 111.296 -0.530899 -1.57387 0
M  V30 1101 O 112.481 -0.761133 -1.74961 0
M  V30 1102 C 109.621 -1.7871 -2.95223 0
M  V30 1103 C 108.734 -3.06061 -3.04878 0
M  V30 1104 C 107.869 -3.06626 -4.33767 0
M  V30 1105 C 106.908 -4.28443 -4.37154 0
M  V30 1106 N 106.045 -4.26763 -5.5751 0
M  V30 1107 H 110.885 -2.6273 -1.40631 0
M  V30 1108 H 108.422 -1.30241 -0.683789 0
M  V30 1109 H 110.38 -1.82344 -3.75242 0
M  V30 1110 H 109.01 -0.883806 -3.10465 0
M  V30 1111 H 108.062 -3.11911 -2.17751 0
M  V30 1112 H 109.374 -3.96039 -3.0324 0
M  V30 1113 H 108.528 -3.08973 -5.22131 0
M  V30 1114 H 107.267 -2.14473 -4.3801 0
M  V30 1115 H 106.272 -4.2631 -3.47188 0
M  V30 1116 H 107.497 -5.2182 -4.34605 0
M  V30 1117 H 105.443 -3.37462 -5.62544 0
M  V30 1118 H 105.36 -5.10507 -5.57601 0
M  V30 1119 H 106.628 -4.33253 -6.48006 0
M  V30 1120 N 110.857 0.726932 -1.39834 0
M  V30 1121 C 112.082 1.52121 -1.40976 0
M  V30 1122 C 112.507 1.88098 -0.00826029 0
M  V30 1123 O 111.865 1.52479 0.980807 0
M  V30 1124 C 111.913 2.78021 -2.29644 0
M  V30 1125 O 111.017 3.74272 -1.73188 0
M  V30 1126 H 110.358 0.45908 -0.479731 0
M  V30 1127 H 112.888 0.896207 -1.83927 0
M  V30 1128 H 112.898 3.26671 -2.44438 0
M  V30 1129 H 111.573 2.51169 -3.31492 0
M  V30 1130 H 110.15 3.33073 -1.6768 0
M  V30 1131 N 112.336 1.25143 0.95797 0
M  V30 1132 C 113.299 1.05321 2.03569 0
M  V30 1133 C 114.299 0.007152 1.60798 0
M  V30 1134 O 115.489 0.24903 1.72411 0
M  V30 1135 C 112.621 0.598394 3.35607 0
M  V30 1136 H 113.814 2.00986 2.22586 0
M  V30 1137 H 111.367 1.07502 1.13459 0
M  V30 1138 H 112.102 -0.361014 3.22284 0
M  V30 1139 H 111.887 1.35351 3.67998 0
M  V30 1140 H 113.377 0.48104 4.1482 0
M  V30 1141 N 113.814 -1.1601 1.06675 0
M  V30 1142 C 115.042 -1.90527 0.806667 0
M  V30 1143 C 115.457 -1.77643 -0.639396 0
M  V30 1144 O 114.814 -1.12369 -1.43803 0
M  V30 1145 C 114.865 -3.41106 1.19705 0
M  V30 1146 O 114.586 -3.53608 2.58636 0
M  V30 1147 C 116.087 -4.32663 0.965266 0
M  V30 1148 H 113.307 -0.604053 0.292166 0
M  V30 1149 H 115.851 -1.47026 1.4214 0
M  V30 1150 H 114.006 -3.82296 0.626774 0
M  V30 1151 H 114.42 -4.47011 2.74375 0
M  V30 1152 H 115.894 -5.36763 1.288 0
M  V30 1153 H 116.371 -4.39089 -0.0987936 0
M  V30 1154 H 116.977 -3.97206 1.52011 0
M  V30 1155 N 115.292 -0.849877 -1.32721 0
M  V30 1156 C 116.538 -0.451591 -1.97708 0
M  V30 1157 C 116.871 0.989175 -1.6712 0
M  V30 1158 O 116.146 1.69334 -0.956891 0
M  V30 1159 C 116.429 -0.685598 -3.53513 0
M  V30 1160 C 116.282 -2.17444 -3.93749 0
M  V30 1161 C 117.601 -0.138874 -4.39881 0
M  V30 1162 H 114.72 -0.16555 -0.718166 0
M  V30 1163 H 117.362 -1.06742 -1.57182 0
M  V30 1164 H 115.512 -0.161416 -3.88165 0
M  V30 1165 H 117.184 -2.76433 -3.693 0
M  V30 1166 H 115.427 -2.65476 -3.43081 0
M  V30 1167 H 116.098 -2.28888 -5.02309 0
M  V30 1168 H 118.574 -0.587068 -4.11938 0
M  V30 1169 H 117.45 -0.332213 -5.47894 0
M  V30 1170 H 117.711 0.95806 -4.31594 0
M  V30 1171 N 116.77 1.45427 -0.607355 0
M  V30 1172 C 118.01 2.04128 -0.105458 0
M  V30 1173 C 118.374 1.46555 1.24039 0
M  V30 1174 O 119.575 1.96608 1.833 0
M  V30 1175 C 117.846 3.57338 -0.0665324 0
M  V30 1176 S 119.405 4.37201 0.374207 0
M  V30 1177 H 116.223 0.709278 -0.0494575 0
M  V30 1178 H 118.825 1.78139 -0.805404 0
M  V30 1179 H 117.529 3.96752 -1.04957 0
M  V30 1180 H 117.06 3.87902 0.655415 0
M  V30 1181 H 119.075 4.6888 1.62377 0
M  V30 1182 N 118.248 0.346503 1.53744 0
M  V30 1183 C 119.158 -0.517293 2.28826 0
M  V30 1184 C 120.174 -1.10935 1.3405 0
M  V30 1185 O 121.35 -1.1244 1.6709 0
M  V30 1186 C 118.415 -1.65098 3.04866 0
M  V30 1187 C 117.476 -1.0884 4.15274 0
M  V30 1188 C 116.709 -2.16806 4.87679 0
M  V30 1189 O 116.932 -3.3758 4.59778 0
M  V30 1190 O 115.866 -1.80934 5.74061 0
M  V30 1191 H 119.692 0.0931396 3.03557 0
M  V30 1192 H 117.277 0.111458 1.48984 0
M  V30 1193 H 119.159 -2.31053 3.5241 0
M  V30 1194 H 117.834 -2.24717 2.32989 0
M  V30 1195 H 116.741 -0.3933 3.72027 0
M  V30 1196 H 118.074 -0.537036 4.89261 0
M  V30 1197 N 119.726 -1.57421 0.075193 0
M  V30 1198 C 121.142 -1.57099 -0.281444 0
M  V30 1199 C 121.342 -1.08486 -1.69803 0
M  V30 1200 O 120.398 -0.752279 -2.41033 0
M  V30 1201 C 121.711 -3.00571 -0.0880041 0
M  V30 1202 C 123.259 -3.12605 -0.157281 0
M  V30 1203 C 123.734 -4.57999 0.0079207 0
M  V30 1204 N 125.225 -4.63176 -0.0475725 0
M  V30 1205 C 125.96 -5.73373 0.0557876 0
M  V30 1206 N 125.456 -6.92473 0.21286 0
M  V30 1207 N 127.249 -5.621 -0.00152098 0
M  V30 1208 H 119.4 -1.87335 1.00098 0
M  V30 1209 H 121.663 -0.86377 0.390646 0
M  V30 1210 H 121.369 -3.40262 0.889629 0
M  V30 1211 H 121.243 -3.67754 -0.838875 0
M  V30 1212 H 123.63 -2.72798 -1.1254 0
M  V30 1213 H 123.711 -2.48053 0.62475 0
M  V30 1214 H 123.355 -4.98496 0.972824 0
M  V30 1215 H 123.285 -5.20586 -0.793556 0
M  V30 1216 H 125.776 -3.7753 -0.167244 0
M  V30 1217 H 126.089 -7.72279 0.283781 0
M  V30 1218 H 124.434 -6.94556 0.248267 0
M  V30 1219 H 127.625 -4.67938 -0.122958 0
M  V30 1220 H 127.798 -6.47948 0.0824844 0
M  V30 1221 N 121.204 0.198386 -1.56346 0
M  V30 1222 C 122.452 0.91747 -1.80075 0
M  V30 1223 C 122.773 1.83929 -0.647692 0
M  V30 1224 O 122.043 1.93029 0.334166 0
M  V30 1225 H 120.623 0.341774 -0.664228 0
M  V30 1226 H 123.285 0.204684 -1.93822 0
M  V30 1227 H 122.381 1.51055 -2.7311 0
M  V30 1228 N 122.682 1.50554 0.465978 0
M  V30 1229 C 123.91 1.65563 1.24083 0
M  V30 1230 C 124.325 0.341051 1.85694 0
M  V30 1231 O 123.682 -0.677543 1.69457 0
M  V30 1232 C 123.733 2.75051 2.34583 0
M  V30 1233 O 123.454 4.01413 1.75497 0
M  V30 1234 C 124.955 3.01078 3.25372 0
M  V30 1235 H 122.175 0.55638 0.375077 0
M  V30 1236 H 124.719 1.96807 0.555624 0
M  V30 1237 H 122.874 2.46486 2.9887 0
M  V30 1238 H 123.288 4.62002 2.48303 0
M  V30 1239 H 124.762 3.81339 3.99105 0
M  V30 1240 H 125.239 2.12349 3.84453 0
M  V30 1241 H 125.845 3.31194 2.66816 0
M  V30 1242 N 124.16 -0.719506 1.40217 0
M  V30 1243 C 125.571 -1.29848 1.34151 0
M  V30 1244 C 125.922 -1.96196 0.0131349 0
M  V30 1245 O 125.047 -1.973 -0.88892 0
M  V30 1246 C 125.642 -2.36118 2.42968 0
M  V30 1247 C 124.201 -2.8965 2.40374 0
M  V30 1248 C 123.348 -1.63393 2.24049 0
M  V30 1249 H 126.299 -0.51591 1.5008 0
M  V30 1250 H 126.32 -3.16871 2.10649 0
M  V30 1251 H 125.832 -1.878 3.39636 0
M  V30 1252 H 123.933 -3.42208 1.47392 0
M  V30 1253 H 124.046 -3.4171 3.35814 0
M  V30 1254 H 122.41 -1.88312 1.71495 0
M  V30 1255 H 123.193 -1.17104 3.2271 0
M  V30 1256 N 125.638 -1.25649 -0.95132 0
M  V30 1257 C 126.887 -1.09988 -1.69073 0
M  V30 1258 C 127.2 0.358355 -1.92289 0
M  V30 1259 O 128.406 0.635466 -2.63958 0
M  V30 1260 C 126.862 -1.92012 -3.044 0
M  V30 1261 C 126.47 -3.42347 -2.88968 0
M  V30 1262 C 128.214 -1.8493 -3.82101 0
M  V30 1263 C 126.121 -4.16655 -4.19705 0
M  V30 1264 H 125.051 -0.407993 -0.63408 0
M  V30 1265 H 127.702 -1.49873 -1.05879 0
M  V30 1266 H 126.084 -1.44952 -3.68517 0
M  V30 1267 H 127.258 -3.97104 -2.33762 0
M  V30 1268 H 125.573 -3.50557 -2.24719 0
M  V30 1269 H 128.17 -2.37739 -4.78941 0
M  V30 1270 H 128.513 -0.817883 -4.08187 0
M  V30 1271 H 129.046 -2.29758 -3.2474 0
M  V30 1272 H 125.785 -5.20224 -3.98807 0
M  V30 1273 H 125.305 -3.66681 -4.74663 0
M  V30 1274 H 126.984 -4.24551 -4.88227 0
M  V30 1275 N 127.117 1.15442 -1.07289 0
M  V30 1276 C 128.064 2.20161 -0.692653 0
M  V30 1277 C 129.034 1.63073 0.31564 0
M  V30 1278 O 130.219 1.89725 0.202235 0
M  V30 1279 C 127.359 3.44967 -0.0959509 0
M  V30 1280 C 126.472 4.16256 -1.15564 0
M  V30 1281 C 125.607 5.28609 -0.524011 0
M  V30 1282 C 124.646 5.91715 -1.56653 0
M  V30 1283 N 123.783 6.9554 -0.957531 0
M  V30 1284 H 128.623 2.52037 -1.59002 0
M  V30 1285 H 126.16 1.2378 -0.794798 0
M  V30 1286 H 128.118 4.16341 0.267628 0
M  V30 1287 H 126.748 3.1361 0.764772 0
M  V30 1288 H 125.8 3.43385 -1.6368 0
M  V30 1289 H 127.112 4.59268 -1.94613 0
M  V30 1290 H 126.266 6.06604 -0.108032 0
M  V30 1291 H 125.005 4.86787 0.29825 0
M  V30 1292 H 124.01 5.12433 -1.9923 0
M  V30 1293 H 125.235 6.35614 -2.39107 0
M  V30 1294 H 123.181 6.55814 -0.156162 0
M  V30 1295 H 123.098 7.36977 -1.68526 0
M  V30 1296 H 124.366 7.77435 -0.567032 0
M  V30 1297 N 128.595 0.856903 1.32268 0
M  V30 1298 C 129.835 0.467705 1.98977 0
M  V30 1299 C 130.199 -0.959231 1.66321 0
M  V30 1300 O 131.4 -1.4531 2.26138 0
M  V30 1301 C 129.671 0.70256 3.50427 0
M  V30 1302 S 131.23 0.411269 4.36868 0
M  V30 1303 H 128.048 0.175121 0.689096 0
M  V30 1304 H 130.65 1.1101 1.60925 0
M  V30 1305 H 129.354 1.74012 3.71683 0
M  V30 1306 H 128.885 0.0466707 3.93372 0
M  V30 1307 H 130.9 -0.761799 4.90317 0
M  V30 1308 N 130.073 -1.45103 0.615059 0
M  V30 1309 C 131.321 -2.01784 0.112955 0
M  V30 1310 C 131.642 -1.48504 -1.26378 0
M  V30 1311 O 130.912 -0.682245 -1.83636 0
M  V30 1312 H 129.492 -0.745993 0.0387668 0
M  V30 1313 H 132.154 -1.77808 0.798141 0
M  V30 1314 H 131.25 -3.12025 0.0684069 0
M  V30 1315 N 131.551 -0.354651 -1.53558 0
M  V30 1316 C 132.483 0.5315 -2.22952 0
M  V30 1317 C 133.496 1.05503 -1.23988 0
M  V30 1318 O 134.685 0.963279 -1.50277 0
M  V30 1319 C 131.785 1.74538 -2.90499 0
M  V30 1320 C 130.958 1.35524 -4.15875 0
M  V30 1321 C 130.017 2.42999 -4.66731 0
M  V30 1322 O 129.043 2.05844 -5.30676 0
M  V30 1323 N 130.245 3.74423 -4.43608 0
M  V30 1324 H 133.01 -0.0628615 -2.99634 0
M  V30 1325 H 130.571 -0.179302 -1.60904 0
M  V30 1326 H 132.563 2.45892 -3.21433 0
M  V30 1327 H 131.133 2.24686 -2.17336 0
M  V30 1328 H 130.353 0.471998 -3.91364 0
M  V30 1329 H 131.641 1.07071 -4.97406 0
M  V30 1330 H 131.039 4.07391 -3.92491 0
M  V30 1331 H 129.596 4.41913 -4.7912 0
M  V30 1332 N 133.029 1.57378 -0.0835403 0
M  V30 1333 C 134.44 1.81261 0.447358 0
M  V30 1334 C 134.791 0.998331 1.68902 0
M  V30 1335 O 133.916 0.224282 2.15235 0
M  V30 1336 C 134.511 3.28767 0.818386 0
M  V30 1337 C 133.07 3.53455 1.29409 0
M  V30 1338 C 132.217 2.75831 0.285024 0
M  V30 1339 H 135.168 1.5566 -0.309115 0
M  V30 1340 H 135.189 3.41459 1.67887 0
M  V30 1341 H 134.701 3.88006 -0.0855019 0
M  V30 1342 H 132.802 2.99534 2.21608 0
M  V30 1343 H 132.915 4.62128 1.2639 0
M  V30 1344 H 131.279 2.42947 0.764767 0
M  V30 1345 H 132.062 3.37813 -0.611341 0
M  V30 1346 N 134.507 -0.190092 1.56449 0
M  V30 1347 C 135.756 -0.907912 1.80111 0
M  V30 1348 C 136.069 -1.84214 0.657619 0
M  V30 1349 O 137.275 -2.60094 0.778663 0
M  V30 1350 C 135.731 -1.66485 3.19078 0
M  V30 1351 C 135.339 -0.7752 4.41242 0
M  V30 1352 C 137.083 -2.37201 3.52045 0
M  V30 1353 C 134.99 -1.53129 5.71231 0
M  V30 1354 H 133.92 -0.34276 0.671589 0
M  V30 1355 H 136.571 -0.161109 1.82791 0
M  V30 1356 H 134.953 -2.45572 3.10661 0
M  V30 1357 H 136.127 -0.0226298 4.60794 0
M  V30 1358 H 134.442 -0.178627 4.16017 0
M  V30 1359 H 137.039 -2.94329 4.46402 0
M  V30 1360 H 137.382 -3.11632 2.76028 0
M  V30 1361 H 137.915 -1.65075 3.61932 0
M  V30 1362 H 134.654 -0.82967 6.50228 0
M  V30 1363 H 134.174 -2.25767 5.55688 0
M  V30 1364 H 135.853 -2.08377 6.12526 0
M  V30 1365 N 135.985 -1.50799 -0.457987 0
M  V30 1366 C 137.401 -1.38515 -0.792819 0
M  V30 1367 C 137.601 -0.451409 -1.96379 0
M  V30 1368 O 136.657 0.10112 -2.52297 0
M  V30 1369 C 137.97 -2.80149 -1.09258 0
M  V30 1370 C 139.518 -2.89156 -1.19825 0
M  V30 1371 C 139.993 -4.31651 -1.53106 0
M  V30 1372 N 141.484 -4.34662 -1.60072 0
M  V30 1373 C 142.219 -5.41928 -1.87354 0
M  V30 1374 N 141.715 -6.59384 -2.12568 0
M  V30 1375 N 143.508 -5.29385 -1.88965 0
M  V30 1376 H 135.659 -2.10073 0.313511 0
M  V30 1377 H 137.922 -0.944803 0.0777862 0
M  V30 1378 H 137.628 -3.50374 -0.305084 0
M  V30 1379 H 137.502 -3.18204 -2.02549 0
M  V30 1380 H 139.889 -2.19141 -1.97639 0
M  V30 1381 H 139.97 -2.54626 -0.244821 0
M  V30 1382 H 139.614 -5.02208 -0.758266 0
M  V30 1383 H 139.544 -4.63678 -2.49621 0
M  V30 1384 H 142.035 -3.49973 -1.42573 0
M  V30 1385 H 142.348 -7.36934 -2.32696 0
M  V30 1386 H 140.693 -6.62535 -2.09933 0
M  V30 1387 H 143.884 -4.36616 -1.68772 0
M  V30 1388 H 144.057 -6.13066 -2.09891 0
M  V30 1389 N 137.463 0.71206 -1.40597 0
M  V30 1390 C 138.393 1.83889 -1.43899 0
M  V30 1391 C 139.374 1.67442 -0.299504 0
M  V30 1392 O 140.559 1.87421 -0.508624 0
M  V30 1393 C 137.689 3.21877 -1.30431 0
M  V30 1394 C 136.643 3.53002 -2.42019 0
M  V30 1395 C 135.969 4.90172 -2.13626 0
M  V30 1396 C 137.269 3.53643 -3.84362 0
M  V30 1397 H 138.963 1.81383 -2.38203 0
M  V30 1398 H 136.509 0.871237 -1.14654 0
M  V30 1399 H 138.462 4.00404 -1.31357 0
M  V30 1400 H 137.186 3.24968 -0.326049 0
M  V30 1401 H 135.845 2.76818 -2.40349 0
M  V30 1402 H 135.493 4.89869 -1.14182 0
M  V30 1403 H 135.193 5.11962 -2.88389 0
M  V30 1404 H 136.717 5.71028 -2.1624 0
M  V30 1405 H 138.131 4.22203 -3.87837 0
M  V30 1406 H 136.528 3.86961 -4.58673 0
M  V30 1407 H 137.598 2.52954 -4.13693 0
M  V30 1408 N 138.941 1.26152 0.944643 0
M  V30 1409 C 140.169 1.14259 1.72489 0
M  V30 1410 C 140.584 -0.302555 1.8636 0
M  V30 1411 O 139.941 -1.20741 1.36849 0
M  V30 1412 C 139.992 1.80266 3.13347 0
M  V30 1413 O 139.713 3.19133 3.00143 0
M  V30 1414 C 141.214 1.74283 4.07603 0
M  V30 1415 H 138.434 0.398051 0.540181 0
M  V30 1416 H 140.978 1.66706 1.18446 0
M  V30 1417 H 139.133 1.31766 3.64303 0
M  V30 1418 H 139.547 3.51744 3.89071 0
M  V30 1419 H 141.021 2.25111 5.04013 0
M  V30 1420 H 141.498 0.708631 4.33446 0
M  V30 1421 H 142.104 2.22319 3.62567 0
M  V30 1422 N 140.419 -1.14872 1.07899 0
M  V30 1423 C 141.369 -2.17809 0.674027 0
M  V30 1424 C 142.353 -1.58008 -0.303699 0
M  V30 1425 O 143.545 -1.76616 -0.11654 0
M  V30 1426 C 140.674 -3.43208 0.0793318 0
M  V30 1427 C 139.76 -4.10051 1.08253 0
M  V30 1428 N 140.151 -4.52296 2.2641 0
M  V30 1429 C 138.449 -4.36469 0.917124 0
M  V30 1430 C 139.15 -5.04199 2.901 0
M  V30 1431 N 138.126 -4.98088 2.17736 0
M  V30 1432 H 141.928 -2.48207 1.57386 0
M  V30 1433 H 139.442 -1.315 0.952976 0
M  V30 1434 H 141.439 -4.16272 -0.228719 0
M  V30 1435 H 140.099 -3.14291 -0.815551 0
M  V30 1436 H 141.11 -4.45504 2.64096 0
M  V30 1437 H 137.787 -4.17432 0.0756078 0
M  V30 1438 H 139.177 -5.46802 3.90458 0
M  V30 1439 N 141.898 -0.863906 -1.31812 0
M  V30 1440 C 143.144 -0.472535 -1.97218 0
M  V30 1441 C 143.477 0.971394 -1.68159 0
M  V30 1442 O 142.752 1.68309 -0.974798 0
M  V30 1443 C 143.035 -0.723054 -3.52766 0
M  V30 1444 C 142.888 -2.21608 -3.91421 0
M  V30 1445 C 144.207 -0.185522 -4.39709 0
M  V30 1446 H 141.326 -0.173158 -0.71637 0
M  V30 1447 H 143.968 -1.08403 -1.56041 0
M  V30 1448 H 142.118 -0.202577 -3.87971 0
M  V30 1449 H 143.79 -2.80334 -3.66347 0
M  V30 1450 H 142.033 -2.691 -3.40246 0
M  V30 1451 H 142.704 -2.34203 -4.99853 0
M  V30 1452 H 145.18 -0.630726 -4.11292 0
M  V30 1453 H 144.056 -0.390306 -5.47511 0
M  V30 1454 H 144.317 0.912229 -4.32586 0
M  V30 1455 N 143.376 1.44774 -0.622745 0
M  V30 1456 C 144.324 2.32387 0.0994683 0
M  V30 1457 C 145.318 1.46859 0.844326 0
M  V30 1458 O 146.524 1.63254 0.758174 0
M  V30 1459 H 142.899 0.750273 0.0509291 0
M  V30 1460 H 144.87 2.91062 -0.65767 0
M  V30 1461 C 143.619 3.30723 1.07319 0
M  V30 1462 H 142.942 3.96541 0.509462 0
M  V30 1463 H 144.382 3.94725 1.54817 0
M  V30 1464 C 142.841 2.59021 2.15429 0
M  V30 1465 O 143.371 2.38286 3.23393 0
M  V30 1466 N 141.577 2.189 1.91131 0
M  V30 1467 H 141.124 2.35964 1.03337 0
M  V30 1468 H 141.082 1.71251 2.63668 0
M  V30 1469 N 144.854 0.36279 1.53368 0
M  V30 1470 C 146.082 -0.228613 2.05633 0
M  V30 1471 C 146.497 -1.42676 1.23649 0
M  V30 1472 O 145.854 -1.80394 0.27647 0
M  V30 1473 C 145.905 -0.624845 3.56059 0
M  V30 1474 O 145.626 0.525675 4.34935 0
M  V30 1475 C 147.127 -1.27493 4.24571 0
M  V30 1476 H 144.347 -0.0407183 0.669763 0
M  V30 1477 H 146.891 0.520352 1.97769 0
M  V30 1478 H 145.046 -1.32373 3.64083 0
M  V30 1479 H 145.46 0.205969 5.24095 0
M  V30 1480 H 146.934 -1.50277 5.31151 0
M  V30 1481 H 147.411 -2.23439 3.78116 0
M  V30 1482 H 148.017 -0.617558 4.20792 0
M  V30 1483 N 146.332 -1.57332 0.0918853 0
M  V30 1484 C 147.58 -1.93853 -0.571446 0
M  V30 1485 C 147.901 -0.974212 -1.6892 0
M  V30 1486 O 147.171 -0.0257254 -1.95883 0
M  V30 1487 H 145.751 -0.715666 -0.214082 0
M  V30 1488 H 148.413 -1.94287 0.154464 0
M  V30 1489 H 147.509 -2.96191 -0.983729 0
M  V30 1490 N 147.81 0.181792 -1.56548 0
M  V30 1491 C 149.226 0.53316 -1.50431 0
M  V30 1492 C 149.426 1.85184 -0.794297 0
M  V30 1493 O 148.482 2.50058 -0.350318 0
M  V30 1494 C 149.795 0.575597 -2.9514 0
M  V30 1495 C 151.343 0.663519 -3.05886 0
M  V30 1496 C 151.818 0.736946 -4.52032 0
M  V30 1497 N 153.309 0.800118 -4.56237 0
M  V30 1498 C 154.044 0.877327 -5.66649 0
M  V30 1499 N 153.54 0.916016 -6.86718 0
M  V30 1500 N 155.333 0.915542 -5.54594 0
M  V30 1501 H 147.484 -0.683025 -2.01118 0
M  V30 1502 H 149.747 -0.244988 -0.915797 0
M  V30 1503 H 149.453 -0.324482 -3.502 0
M  V30 1504 H 149.327 1.42572 -3.49218 0
M  V30 1505 H 151.714 1.55403 -2.50867 0
M  V30 1506 H 151.795 -0.21307 -2.54911 0
M  V30 1507 H 151.439 -0.149262 -5.07681 0
M  V30 1508 H 151.369 1.62953 -5.00753 0
M  V30 1509 H 153.86 0.778926 -3.69785 0
M  V30 1510 H 154.173 0.975813 -7.66614 0
M  V30 1511 H 152.518 0.884469 -6.89349 0
M  V30 1512 H 155.709 0.882245 -4.59711 0
M  V30 1513 H 155.882 0.972253 -6.40665 0
M  V30 1514 N 149.288 1.51039 0.449983 0
M  V30 1515 C 150.236 1.71995 1.5659 0
M  V30 1516 C 151.23 0.586029 1.5894 0
M  V30 1517 O 152.436 0.76709 1.62837 0
M  V30 1518 H 148.811 0.543233 0.520001 0
M  V30 1519 H 150.782 2.65562 1.36085 0
M  V30 1520 C 149.531 1.8506 2.9436 0
M  V30 1521 H 148.854 2.71712 2.93279 0
M  V30 1522 H 150.294 2.0374 3.71842 0
M  V30 1523 C 148.753 0.607277 3.31382 0
M  V30 1524 O 149.283 -0.243903 4.00959 0
M  V30 1525 N 147.489 0.455073 2.87015 0
M  V30 1526 H 147.036 1.14879 2.30566 0
M  V30 1527 H 146.994 -0.375611 3.12148 0
M  V30 1528 N 150.766 -0.704594 1.40972 0
M  V30 1529 C 151.696 -1.83124 1.44872 0
M  V30 1530 C 152.677 -1.67281 0.30838 0
M  V30 1531 O 153.862 -1.87149 0.518556 0
M  V30 1532 C 150.992 -3.21181 1.32136 0
M  V30 1533 C 149.946 -3.51714 2.43888 0
M  V30 1534 C 149.272 -4.89032 2.16222 0
M  V30 1535 C 150.572 -3.516 3.86232 0
M  V30 1536 H 152.266 -1.80117 2.39161 0
M  V30 1537 H 149.812 -0.865145 1.15114 0
M  V30 1538 H 151.765 -3.99702 1.33479 0
M  V30 1539 H 150.489 -3.24791 0.343279 0
M  V30 1540 H 149.148 -2.75539 2.41813 0
M  V30 1541 H 148.796 -4.89256 1.16778 0
M  V30 1542 H 148.496 -5.10426 2.911 0
M  V30 1543 H 150.02 -5.69873 2.19265 0
M  V30 1544 H 151.434 -4.2014 3.9007 0
M  V30 1545 H 149.831 -3.84523 4.60719 0
M  V30 1546 H 150.901 -2.50757 4.15029 0
M  V30 1547 N 152.244 -1.26651 -0.937939 0
M  V30 1548 C 153.194 -1.05156 -2.02302 0
M  V30 1549 C 154.178 0.0171233 -1.60891 0
M  V30 1550 O 155.37 -0.200213 -1.75864 0
M  V30 1551 C 152.499 -0.689962 -3.36295 0
M  V30 1552 C 151.585 -1.79626 -3.84181 0
M  V30 1553 N 151.976 -3.03422 -4.04684 0
M  V30 1554 C 150.274 -1.6806 -4.13124 0
M  V30 1555 C 150.975 -3.75345 -4.444 0
M  V30 1556 N 149.951 -3.03051 -4.51288 0
M  V30 1557 H 153.753 -1.99117 -2.1617 0
M  V30 1558 H 151.267 -1.17216 -1.12402 0
M  V30 1559 H 153.264 -0.517112 -4.13681 0
M  V30 1560 H 151.924 0.242139 -3.23796 0
M  V30 1561 H 152.935 -3.39293 -3.91281 0
M  V30 1562 H 149.612 -0.818629 -4.09396 0
M  V30 1563 H 151.002 -4.81691 -4.68427 0
M  V30 1564 N 153.722 1.14298 -1.08507 0
M  V30 1565 C 154.947 1.8976 -0.837001 0
M  V30 1566 C 155.372 1.78097 0.605228 0
M  V30 1567 O 154.73 1.12188 1.4242 0
M  V30 1568 C 154.778 3.37685 -1.26495 0
M  V30 1569 O 153.882 4.10281 -0.417514 0
M  V30 1570 H 153.223 0.590365 -0.303917 0
M  V30 1571 H 155.753 1.44672 -1.44676 0
M  V30 1572 H 155.763 3.88501 -1.24625 0
M  V30 1573 H 154.438 3.45492 -2.31534 0
M  V30 1574 H 153.015 3.69536 -0.499722 0
M  V30 1575 N 155.201 0.870884 1.31352 0
M  V30 1576 C 156.151 0.298889 2.26032 0
M  V30 1577 C 157.135 -0.564595 1.50669 0
M  V30 1578 O 158.327 -0.411323 1.72154 0
M  V30 1579 C 155.456 -0.497842 3.39671 0
M  V30 1580 C 154.542 0.378937 4.22404 0
M  V30 1581 N 154.933 1.47284 4.83881 0
M  V30 1582 C 153.231 0.171535 4.4567 0
M  V30 1583 C 153.932 2.01359 5.45738 0
M  V30 1584 N 152.908 1.31047 5.27568 0
M  V30 1585 H 156.71 1.13494 2.71102 0
M  V30 1586 H 154.224 0.718745 1.45629 0
M  V30 1587 H 156.221 -0.924155 4.06528 0
M  V30 1588 H 154.881 -1.33149 2.96144 0
M  V30 1589 H 155.892 1.85575 4.8351 0
M  V30 1590 H 152.569 -0.626091 4.12779 0
M  V30 1591 H 153.959 2.93143 6.0458 0
M  V30 1592 N 156.679 -1.44442 0.630414 0
M  V30 1593 C 157.629 -2.27794 -0.0968103 0
M  V30 1594 C 158.613 -1.38624 -0.816834 0
M  V30 1595 O 159.805 -1.62438 -0.70306 0
M  V30 1596 C 156.934 -3.25929 -1.07819 0
M  V30 1597 C 156.02 -4.22588 -0.357826 0
M  V30 1598 N 156.411 -5.0207 0.613169 0
M  V30 1599 C 154.709 -4.41914 -0.602365 0
M  V30 1600 C 155.41 -5.72351 1.03871 0
M  V30 1601 N 154.386 -5.42287 0.377642 0
M  V30 1602 H 158.188 -2.86653 0.648621 0
M  V30 1603 H 155.702 -1.55871 0.455862 0
M  V30 1604 H 157.699 -3.84399 -1.61378 0
M  V30 1605 H 156.359 -2.68631 -1.82393 0
M  V30 1606 H 157.37 -5.08331 0.990947 0
M  V30 1607 H 154.047 -3.95714 -1.33103 0
M  V30 1608 H 155.437 -6.4619 1.84086 0
M  V30 1609 N 158.157 -0.370918 -1.53173 0
M  V30 1610 C 159.404 0.217102 -2.01333 0
M  V30 1611 C 159.732 1.48338 -1.25802 0
M  V30 1612 O 158.987 1.92698 -0.34146 0
M  V30 1613 C 159.286 0.549696 -3.53147 0
M  V30 1614 C 158.952 -0.622872 -4.46577 0
M  V30 1615 C 157.614 -0.944595 -4.71838 0
M  V30 1616 C 159.966 -1.40819 -5.01816 0
M  V30 1617 C 157.294 -2.05351 -5.49589 0
M  V30 1618 C 159.646 -2.50757 -5.80778 0
M  V30 1619 C 158.31 -2.83458 -6.04324 0
M  V30 1620 H 157.58 0.0794431 -0.736729 0
M  V30 1621 H 160.227 -0.504481 -1.84736 0
M  V30 1622 H 158.532 1.35237 -3.6772 0
M  V30 1623 H 160.229 1.017 -3.87889 0
M  V30 1624 H 156.819 -0.36209 -4.27068 0
M  V30 1625 H 161.003 -1.17289 -4.82242 0
M  V30 1626 H 156.259 -2.3108 -5.6605 0
M  V30 1627 H 160.433 -3.12022 -6.22588 0
M  V30 1628 H 158.06 -3.69508 -6.64355 0
M  V30 1629 N 159.635 1.57281 -0.100228 0
M  V30 1630 C 160.863 1.98879 0.570509 0
M  V30 1631 C 161.278 0.979476 1.61405 0
M  V30 1632 O 160.635 -0.0302288 1.82475 0
M  V30 1633 C 160.686 3.4052 1.2136 0
M  V30 1634 O 160.407 4.37588 0.211786 0
M  V30 1635 C 161.908 3.97149 1.96945 0
M  V30 1636 H 159.128 0.653428 0.152555 0
M  V30 1637 H 161.672 2.03697 -0.18103 0
M  V30 1638 H 159.827 3.367 1.91603 0
M  V30 1639 H 160.241 5.20118 0.676607 0
M  V30 1640 H 161.715 4.98393 2.37294 0
M  V30 1641 H 162.192 3.3525 2.83733 0
M  V30 1642 H 162.798 4.04458 1.31506 0
M  V30 1643 N 161.113 -0.173488 1.56642 0
M  V30 1644 C 162.338 -0.910149 1.86363 0
M  V30 1645 C 162.763 -1.75132 0.686318 0
M  V30 1646 O 162.121 -1.77595 -0.364643 0
M  V30 1647 C 162.169 -1.76447 3.14482 0
M  V30 1648 O 161.273 -2.86584 2.96553 0
M  V30 1649 H 160.614 -0.255086 0.613047 0
M  V30 1650 H 163.144 -0.172283 2.03873 0
M  V30 1651 H 163.154 -2.16483 3.45831 0
M  V30 1652 H 161.829 -1.14658 3.99783 0
M  V30 1653 H 160.406 -2.50146 2.76553 0
M  V30 1654 N 162.591 -1.51276 -0.441967 0
M  V30 1655 C 164.002 -1.56244 -1.02199 0
M  V30 1656 C 164.353 -0.383149 -1.92422 0
M  V30 1657 O 163.478 0.500613 -2.1053 0
M  V30 1658 C 164.073 -2.83162 -1.86024 0
M  V30 1659 C 162.632 -2.90716 -2.39084 0
M  V30 1660 C 161.779 -2.50858 -1.18175 0
M  V30 1661 H 164.73 -1.5712 -0.223416 0
M  V30 1662 H 164.751 -2.66663 -2.71425 0
M  V30 1663 H 164.263 -3.68974 -1.20331 0
M  V30 1664 H 162.364 -2.09323 -3.08244 0
M  V30 1665 H 162.477 -3.94266 -2.72198 0
M  V30 1666 H 160.841 -2.03951 -1.52565 0
M  V30 1667 H 161.624 -3.3901 -0.541001 0
M  V30 1668 N 164.069 0.697108 -1.41344 0
M  V30 1669 C 164.999 1.82353 -1.45841 0
M  V30 1670 C 165.98 1.67115 -0.317247 0
M  V30 1671 O 167.165 1.86871 -0.528474 0
M  V30 1672 C 164.295 3.20476 -1.33838 0
M  V30 1673 C 163.249 3.50415 -2.4575 0
M  V30 1674 C 162.575 4.87878 -2.18813 0
M  V30 1675 C 163.875 3.49546 -3.88091 0
M  V30 1676 H 165.569 1.78846 -2.40113 0
M  V30 1677 H 163.115 0.859028 -1.15571 0
M  V30 1678 H 165.068 3.98988 -1.35596 0
M  V30 1679 H 163.792 3.24604 -0.360498 0
M  V30 1680 H 162.451 2.74253 -2.43271 0
M  V30 1681 H 162.099 4.8863 -1.19371 0
M  V30 1682 H 161.799 5.08875 -2.93803 0
M  V30 1683 H 163.323 5.68702 -2.22284 0
M  V30 1684 H 164.737 4.18066 -3.92293 0
M  V30 1685 H 163.134 3.82075 -4.62751 0
M  V30 1686 H 164.204 2.48552 -4.16353 0
M  V30 1687 N 165.547 1.27147 0.931209 0
M  V30 1688 C 166.772 1.16191 1.71797 0
M  V30 1689 C 167.197 -0.278004 1.86034 0
M  V30 1690 O 166.555 -1.20137 1.35782 0
M  V30 1691 C 166.603 1.84673 3.09723 0
M  V30 1692 O 165.707 1.14231 3.96264 0
M  V30 1693 H 165.048 0.404303 0.526721 0
M  V30 1694 H 167.578 1.68152 1.1656 0
M  V30 1695 H 167.588 1.91893 3.60057 0
M  V30 1696 H 166.263 2.89421 2.98677 0
M  V30 1697 H 164.84 1.15056 3.54706 0
M  V30 1698 N 167.025 -1.13721 1.09112 0
M  V30 1699 C 168.273 -1.84559 0.823562 0
M  V30 1700 C 168.594 -1.83754 -0.652658 0
M  V30 1701 O 167.864 -1.29102 -1.47342 0
M  V30 1702 H 166.444 -0.683376 0.301673 0
M  V30 1703 H 169.106 -1.37771 1.37859 0
M  V30 1704 H 168.202 -2.8917 1.17419 0
M  V30 1705 N 168.503 -0.877838 -1.30888 0
M  V30 1706 C 169.451 -0.328662 -2.30266 0
M  V30 1707 C 170.445 0.560496 -1.59859 0
M  V30 1708 O 171.651 0.445722 -1.74394 0
M  V30 1709 H 168.026 -0.0876142 -0.746879 0
M  V30 1710 H 169.997 -1.18061 -2.74051 0
M  V30 1711 C 168.746 0.448071 -3.44801 0
M  V30 1712 H 168.069 -0.226859 -3.99156 0
M  V30 1713 H 169.509 0.797541 -4.16432 0
M  V30 1714 C 167.968 1.64239 -2.94155 0
M  V30 1715 O 168.498 2.74175 -2.93583 0
M  V30 1716 N 166.704 1.47716 -2.50256 0
M  V30 1717 H 166.251 0.582821 -2.5092 0
M  V30 1718 H 166.209 2.27765 -2.16727 0
M  V30 1719 N 169.982 1.44106 -0.638065 0
M  V30 1720 C 170.914 2.28976 0.101205 0
M  V30 1721 C 171.927 1.4167 0.802088 0
M  V30 1722 O 173.116 1.65755 0.662375 0
M  V30 1723 C 170.216 3.18217 1.16581 0
M  V30 1724 C 169.389 4.33978 0.546066 0
M  V30 1725 C 168.448 5.04202 1.50554 0
M  V30 1726 O 167.474 5.59986 1.01999 0
M  V30 1727 N 168.676 5.06296 2.8398 0
M  V30 1728 H 171.441 2.93064 -0.627186 0
M  V30 1729 H 169.002 1.54629 -0.479731 0
M  V30 1730 H 170.994 3.62061 1.80815 0
M  V30 1731 H 169.564 2.55833 1.79634 0
M  V30 1732 H 168.784 3.93239 -0.275046 0
M  V30 1733 H 170.072 5.08675 0.112793 0
M  V30 1734 H 169.47 4.62319 3.26002 0
M  V30 1735 H 168.027 5.53907 3.43556 0
M  V30 1736 N 171.46 0.379036 1.52974 0
M  V30 1737 C 172.37 -0.468639 2.29872 0
M  V30 1738 C 173.386 -1.08067 1.36373 0
M  V30 1739 O 174.562 -1.08871 1.69438 0
M  V30 1740 C 171.627 -1.58594 3.083 0
M  V30 1741 C 170.688 -1.00007 4.17489 0
M  V30 1742 C 169.921 -2.06413 4.92168 0
M  V30 1743 O 170.144 -3.27751 4.66835 0
M  V30 1744 O 169.078 -1.68717 5.7777 0
M  V30 1745 H 172.904 0.157508 3.03291 0
M  V30 1746 H 170.489 0.143035 1.48714 0
M  V30 1747 H 172.371 -2.23525 3.57232 0
M  V30 1748 H 171.046 -2.19724 2.37703 0
M  V30 1749 H 169.953 -0.314299 3.72777 0
M  V30 1750 H 171.286 -0.433135 4.90291 0
M  V30 1751 N 172.938 -1.57226 0.108567 0
M  V30 1752 C 174.184 -1.95121 -0.552761 0
M  V30 1753 C 174.517 -0.991345 -1.66991 0
M  V30 1754 O 173.792 -0.0267211 -1.94482 0
M  V30 1755 C 174.075 -3.43039 -1.09528 0
M  V30 1756 C 173.928 -4.49797 0.0177332 0
M  V30 1757 C 175.247 -3.92567 -1.98945 0
M  V30 1758 H 172.366 -0.709496 -0.199461 0
M  V30 1759 H 175.008 -1.89126 0.182011 0
M  V30 1760 H 173.158 -3.48279 -1.72146 0
M  V30 1761 H 174.83 -4.56661 0.652584 0
M  V30 1762 H 173.073 -4.284 0.682309 0
M  V30 1763 H 173.744 -5.50528 -0.402919 0
M  V30 1764 H 176.22 -3.89565 -1.46214 0
M  V30 1765 H 175.096 -4.96605 -2.33827 0
M  V30 1766 H 175.357 -3.32648 -2.91201 0
M  V30 1767 N 174.416 0.165178 -1.56732 0
M  V30 1768 C 175.641 0.900253 -1.86843 0
M  V30 1769 C 176.066 1.74766 -0.695596 0
M  V30 1770 O 175.424 1.77786 0.35522 0
M  V30 1771 C 175.472 1.74777 -3.15413 0
M  V30 1772 O 174.576 2.85007 -2.98068 0
M  V30 1773 H 173.917 0.251832 -0.614391 0
M  V30 1774 H 176.447 0.161468 -2.03962 0
M  V30 1775 H 176.457 2.14646 -3.46974 0
M  V30 1776 H 175.132 1.12537 -4.00385 0
M  V30 1777 H 173.709 2.48676 -2.77875 0
M  V30 1778 N 175.894 1.51508 0.433938 0
M  V30 1779 C 176.857 1.72473 1.50949 0
M  V30 1780 C 177.857 0.594725 1.49398 0
M  V30 1781 O 179.047 0.862315 1.5136 0
M  V30 1782 C 176.179 1.78431 2.90474 0
M  V30 1783 H 177.372 2.68467 1.33662 0
M  V30 1784 H 174.925 1.41549 0.662836 0
M  V30 1785 H 175.66 0.842645 3.13161 0
M  V30 1786 H 175.445 2.60558 2.93005 0
M  V30 1787 H 176.935 1.96479 3.68491 0
M  V30 1788 N 177.372 -0.689602 1.41712 0
M  V30 1789 C 178.619 -1.44966 1.4139 0
M  V30 1790 C 178.947 -1.94484 0.025105 0
M  V30 1791 O 178.202 -1.70307 -0.964048 0
M  V30 1792 C 178.501 -2.67298 2.37247 0
M  V30 1793 C 178.167 -2.36405 3.83958 0
M  V30 1794 C 176.829 -2.27691 4.23923 0
M  V30 1795 C 179.181 -2.11043 4.76561 0
M  V30 1796 C 176.509 -1.91719 5.54492 0
M  V30 1797 C 178.861 -1.76578 6.07456 0
M  V30 1798 C 177.525 -1.66363 6.46436 0
M  V30 1799 H 176.795 -0.53047 0.517381 0
M  V30 1800 H 179.442 -0.787655 1.74552 0
M  V30 1801 H 177.747 -3.38461 1.9736 0
M  V30 1802 H 179.444 -3.25452 2.34269 0
M  V30 1803 H 176.034 -2.44085 3.52308 0
M  V30 1804 H 180.218 -2.16717 4.46483 0
M  V30 1805 H 175.474 -1.82367 5.83568 0
M  V30 1806 H 179.648 -1.55974 6.78708 0
M  V30 1807 H 177.275 -1.38258 7.47522 0
M  V30 1808 N 178.85 -1.27639 -0.924453 0
M  V30 1809 C 180.098 -1.13941 -1.66918 0
M  V30 1810 C 180.419 0.314589 -1.92446 0
M  V30 1811 O 179.689 1.21964 -1.53303 0
M  V30 1812 H 178.269 -0.418678 -0.618642 0
M  V30 1813 H 180.931 -1.60213 -1.10985 0
M  V30 1814 H 180.027 -1.67094 -2.63602 0
M  V30 1815 N 180.328 1.1314 -1.09713 0
M  V30 1816 C 181.238 2.22242 -0.751367 0
M  V30 1817 C 182.254 1.72224 0.247938 0
M  V30 1818 O 183.43 2.01205 0.0885463 0
M  V30 1819 C 180.495 3.46231 -0.180274 0
M  V30 1820 C 179.556 4.11125 -1.2359 0
M  V30 1821 C 178.789 5.29195 -0.691966 0
M  V30 1822 O 179.012 5.68342 0.48414 0
M  V30 1823 O 177.946 5.84214 -1.44838 0
M  V30 1824 H 181.772 2.54197 -1.66186 0
M  V30 1825 H 179.357 1.21331 -0.871735 0
M  V30 1826 H 181.239 4.21185 0.134739 0
M  V30 1827 H 179.914 3.1597 0.703185 0
M  V30 1828 H 178.821 3.37985 -1.60366 0
M  V30 1829 H 180.154 4.45524 -2.09211 0
M  V30 1830 N 181.806 0.884767 1.30421 0
M  V30 1831 C 182.716 0.355398 2.31892 0
M  V30 1832 C 183.732 -0.542261 1.65335 0
M  V30 1833 O 184.908 -0.435432 1.96637 0
M  V30 1834 C 181.973 -0.421661 3.44126 0
M  V30 1835 C 181.034 0.505727 4.26311 0
M  V30 1836 C 180.267 -0.234343 5.33185 0
M  V30 1837 O 180.49 -1.46045 5.51386 0
M  V30 1838 O 179.424 0.415443 6.00465 0
M  V30 1839 H 183.25 1.19685 2.79122 0
M  V30 1840 H 180.835 0.648596 1.34587 0
M  V30 1841 H 182.717 -0.861641 4.12497 0
M  V30 1842 H 181.392 -1.23942 2.99032 0
M  V30 1843 H 180.299 0.994513 3.60639 0
M  V30 1844 H 181.632 1.28948 4.75009 0
M  V30 1845 N 183.284 -1.43765 0.645699 0
M  V30 1846 C 184.532 -2.01499 0.155731 0
M  V30 1847 C 184.853 -1.51151 -1.232 0
M  V30 1848 O 184.123 -0.721044 -1.82148 0
M  V30 1849 H 182.703 -0.745003 0.0545817 0
M  V30 1850 H 185.365 -1.76075 0.835677 0
M  V30 1851 H 184.461 -3.1181 0.134577 0
M  V30 1852 N 184.763 -0.387143 -1.52771 0
M  V30 1853 C 185.673 0.456442 -2.30117 0
M  V30 1854 C 186.689 1.07342 -1.36944 0
M  V30 1855 O 187.865 1.07971 -1.70013 0
M  V30 1856 C 184.93 1.56957 -3.09136 0
M  V30 1857 C 183.991 0.977916 -4.18014 0
M  V30 1858 C 183.224 2.038 -4.93256 0
M  V30 1859 O 183.447 3.25271 -4.68567 0
M  V30 1860 O 182.381 1.6565 -5.78657 0
M  V30 1861 H 186.207 -0.17359 -3.03203 0
M  V30 1862 H 183.792 -0.150919 -1.48636 0
M  V30 1863 H 185.674 2.21628 -3.58412 0
M  V30 1864 H 184.349 2.18461 -2.38865 0
M  V30 1865 H 183.256 0.294525 -3.72939 0
M  V30 1866 H 184.589 0.407128 -4.90513 0
M  V30 1867 N 186.241 1.57166 -0.116904 0
M  V30 1868 C 187.489 1.94737 0.540533 0
M  V30 1869 C 187.81 1.00096 1.67349 0
M  V30 1870 O 187.08 0.0568854 1.95817 0
M  V30 1871 H 185.66 0.718981 0.202669 0
M  V30 1872 H 188.322 1.94017 -0.185353 0
M  V30 1873 H 187.418 2.97719 0.936483 0
M  V30 1874 N 187.719 -0.156864 1.56817 0
M  V30 1875 C 188.996 -0.899244 1.73704 0
M  V30 1876 C 189.376 -1.99771 0.682254 0
M  V30 1877 O 188.724 -2.26515 -0.300522 0
M  V30 1878 C 188.934 -1.45075 3.17418 0
M  V30 1879 C 190.282 -1.91802 3.7881 0
M  V30 1880 O 191.306 -1.54838 3.20786 0
M  V30 1881 O 190.165 -2.5994 4.80722 0
M  V30 1882 H 187.259 -0.424267 0.709878 0
M  V30 1883 H 189.805 -0.143561 1.69092 0
M  V30 1884 H 188.577 -0.660846 3.85679 0
M  V30 1885 H 188.2 -2.27021 3.26416 0
M  V30 1886 N 189.197 -1.51736 -0.425897 0
M  V30 1887 C 190.427 -1.68549 -1.19476 0
M  V30 1888 C 190.835 -0.387288 -1.85194 0
M  V30 1889 O 190.178 0.645142 -1.71999 0
M  V30 1890 C 190.24 -2.75275 -2.31223 0
M  V30 1891 C 189.904 -4.17534 -1.8578 0
M  V30 1892 C 190.901 -5.01936 -1.35485 0
M  V30 1893 C 188.586 -4.6369 -1.93123 0
M  V30 1894 C 190.58 -6.30559 -0.931347 0
M  V30 1895 C 188.267 -5.92307 -1.50384 0
M  V30 1896 C 189.265 -6.75569 -1.00473 0
M  V30 1897 O 188.953 -8.0178 -0.583452 0
M  V30 1898 H 188.685 -0.568525 -0.365725 0
M  V30 1899 H 191.239 -1.98982 -0.509444 0
M  V30 1900 H 189.469 -2.40182 -3.03067 0
M  V30 1901 H 191.158 -2.80853 -2.93047 0
M  V30 1902 H 191.924 -4.67475 -1.29197 0
M  V30 1903 H 187.803 -3.98997 -2.30916 0
M  V30 1904 H 191.347 -6.95498 -0.541084 0
M  V30 1905 H 187.244 -6.2628 -1.56346 0
M  V30 1906 H 188.012 -8.1543 -0.708275 0
M  V30 1907 N 190.675 0.682077 -1.42076 0
M  V30 1908 C 191.605 1.80796 -1.47767 0
M  V30 1909 C 192.586 1.6677 -0.334954 0
M  V30 1910 O 193.771 1.863 -0.548264 0
M  V30 1911 C 190.901 3.19038 -1.37229 0
M  V30 1912 C 189.855 3.47789 -2.49453 0
M  V30 1913 C 189.181 4.8553 -2.23975 0
M  V30 1914 C 190.481 3.45411 -3.91776 0
M  V30 1915 H 192.175 1.7629 -2.41997 0
M  V30 1916 H 189.721 0.846721 -1.16476 0
M  V30 1917 H 191.674 3.97528 -1.39821 0
M  V30 1918 H 190.398 3.24204 -0.394907 0
M  V30 1919 H 189.057 2.71657 -2.46166 0
M  V30 1920 H 188.705 4.87337 -1.24547 0
M  V30 1921 H 188.405 5.0573 -2.99184 0
M  V30 1922 H 189.929 5.66312 -2.28304 0
M  V30 1923 H 191.343 4.13882 -3.96705 0
M  V30 1924 H 189.74 3.77145 -4.66778 0
M  V30 1925 H 190.81 2.44122 -4.18966 0
M  V30 1926 N 192.153 1.28127 0.917671 0
M  V30 1927 C 193.43 1.05761 1.64542 0
M  V30 1928 C 193.81 -0.404344 2.07191 0
M  V30 1929 O 193.158 -1.38963 1.81388 0
M  V30 1930 C 193.368 2.02857 2.83989 0
M  V30 1931 C 194.716 2.32786 3.551 0
M  V30 1932 O 195.74 2.0091 2.94132 0
M  V30 1933 O 194.599 2.87169 4.64969 0
M  V30 1934 H 191.693 0.403916 0.721652 0
M  V30 1935 H 194.239 1.39431 0.967322 0
M  V30 1936 H 193.011 3.01407 2.49538 0
M  V30 1937 H 192.634 1.69809 3.59514 0
M  V30 1938 N 193.631 -1.12557 1.10312 0
M  V30 1939 C 194.908 -1.80363 0.756878 0
M  V30 1940 C 195.288 -1.97067 -0.756824 0
M  V30 1941 O 194.636 -1.54601 -1.68259 0
M  V30 1942 C 194.846 -3.14812 1.50647 0
M  V30 1943 C 196.194 -3.90029 1.67817 0
M  V30 1944 O 197.218 -3.24464 1.46974 0
M  V30 1945 O 196.077 -5.07652 2.02365 0
M  V30 1946 H 193.171 -0.780667 0.272926 0
M  V30 1947 H 195.717 -1.19404 1.20586 0
M  V30 1948 H 194.489 -2.97936 2.53672 0
M  V30 1949 H 194.112 -3.83478 1.05026 0
M  V30 1950 N 195.109 -0.891671 -1.2995 0
M  V30 1951 C 196.355 -0.523649 -1.96544 0
M  V30 1952 C 196.71 0.918394 -1.69066 0
M  V30 1953 O 196.003 1.64122 -0.988659 0
M  V30 1954 C 196.197 -0.742868 -3.49594 0
M  V30 1955 C 196.026 -2.20467 -3.9195 0
M  V30 1956 C 194.796 -2.85055 -4.17219 0
M  V30 1957 C 196.994 -3.17912 -4.04273 0
M  V30 1958 N 194.976 -4.21762 -4.46083 0
M  V30 1959 C 196.347 -4.39712 -4.37097 0
M  V30 1960 C 198.402 -3.1361 -3.86721 0
M  V30 1961 C 197.105 -5.5776 -4.54199 0
M  V30 1962 C 199.131 -4.30936 -4.05028 0
M  V30 1963 C 198.493 -5.51504 -4.38204 0
M  V30 1964 H 194.592 -0.241072 -0.743914 0
M  V30 1965 H 197.176 -1.15081 -1.5705 0
M  V30 1966 H 195.347 -0.14515 -3.88129 0
M  V30 1967 H 197.079 -0.341081 -4.0326 0
M  V30 1968 H 193.834 -2.35889 -4.10674 0
M  V30 1969 H 194.258 -4.92382 -4.64638 0
M  V30 1970 H 198.9 -2.21489 -3.60142 0
M  V30 1971 H 196.618 -6.50379 -4.79618 0
M  V30 1972 H 200.204 -4.29085 -3.92909 0
M  V30 1973 H 199.084 -6.40778 -4.52077 0
M  V30 1974 N 196.587 1.43421 -0.653314 0
M  V30 1975 C 197.815 2.06163 -0.174491 0
M  V30 1976 C 198.23 1.48969 1.1599 0
M  V30 1977 O 197.587 0.621042 1.71608 0
M  V30 1978 C 197.638 3.61417 -0.0774865 0
M  V30 1979 O 197.359 4.16485 -1.35912 0
M  V30 1980 C 198.86 4.41235 0.427402 0
M  V30 1981 H 196.08 0.664946 -0.0899353 0
M  V30 1982 H 198.624 1.83924 -0.893988 0
M  V30 1983 H 196.779 3.82841 0.59257 0
M  V30 1984 H 197.193 5.10153 -1.21839 0
M  V30 1985 H 198.667 5.5021 0.44423 0
M  V30 1986 H 199.144 4.14268 1.45873 0
M  V30 1987 H 199.75 4.2478 -0.210167 0
M  V30 1988 N 198.065 0.39524 1.52563 0
M  V30 1989 C 199.311 -0.185318 2.01952 0
M  V30 1990 C 199.644 -1.45964 1.28095 0
M  V30 1991 O 198.919 -1.90689 0.38315 0
M  V30 1992 C 199.202 -0.447193 3.57312 0
M  V30 1993 C 199.055 0.842828 4.41833 0
M  V30 1994 C 200.374 -1.23529 4.22408 0
M  V30 1995 H 197.493 -0.0658788 0.73405 0
M  V30 1996 H 200.135 0.525975 1.82575 0
M  V30 1997 H 198.285 -1.05312 3.73954 0
M  V30 1998 H 199.957 1.4795 4.36931 0
M  V30 1999 H 198.2 1.45686 4.08605 0
M  V30 2000 H 198.871 0.614165 5.48573 0
M  V30 2001 H 201.347 -0.722445 4.0978 0
M  V30 2002 H 200.223 -1.38727 5.3108 0
M  V30 2003 H 200.484 -2.25213 3.80436 0
M  V30 2004 N 199.544 -1.57102 0.125237 0
M  V30 2005 C 200.474 -2.18659 -0.819174 0
M  V30 2006 C 201.455 -1.12843 -1.27281 0
M  V30 2007 O 202.64 -1.41104 -1.33429 0
M  V30 2008 C 199.77 -2.79096 -2.06695 0
M  V30 2009 C 198.724 -3.90548 -1.75088 0
M  V30 2010 C 198.05 -4.37821 -3.06948 0
M  V30 2011 C 199.35 -5.12356 -1.01435 0
M  V30 2012 H 201.044 -2.9783 -0.306202 0
M  V30 2013 H 198.59 -1.4326 -0.145839 0
M  V30 2014 H 200.543 -3.2082 -2.73226 0
M  V30 2015 H 199.267 -1.97223 -2.60328 0
M  V30 2016 H 197.926 -3.49409 -1.10944 0
M  V30 2017 H 197.574 -3.52799 -3.58527 0
M  V30 2018 H 197.274 -5.12982 -2.86571 0
M  V30 2019 H 198.798 -4.822 -3.74587 0
M  V30 2020 H 200.212 -5.5106 -1.58132 0
M  V30 2021 H 198.609 -5.9314 -0.911319 0
M  V30 2022 H 199.679 -4.849 -0.00218681 0
M  V30 2023 N 201.022 0.148545 -1.56898 0
M  V30 2024 C 202.262 0.86765 -1.85071 0
M  V30 2025 C 202.626 1.78417 -0.709317 0
M  V30 2026 O 203.827 2.54261 -0.872049 0
M  V30 2027 C 202.098 1.62306 -3.1842 0
M  V30 2028 S 203.657 2.3878 -3.68143 0
M  V30 2029 H 200.475 0.290174 -0.649092 0
M  V30 2030 H 203.077 0.127755 -1.95082 0
M  V30 2031 H 201.781 0.941192 -3.99462 0
M  V30 2032 H 201.312 2.4039 -3.1141 0
M  V30 2033 H 203.327 3.63942 -3.37285 0
M  V30 2034 N 202.5 1.5196 0.417844 0
M  V30 2035 C 203.448 1.75278 1.52907 0
M  V30 2036 C 204.442 0.619611 1.57662 0
M  V30 2037 O 205.648 0.801457 1.61173 0
M  V30 2038 H 202.023 0.554141 0.508362 0
M  V30 2039 H 203.994 2.68389 1.30422 0
M  V30 2040 C 202.743 1.91262 2.90369 0
M  V30 2041 H 202.066 2.77872 2.8745 0
M  V30 2042 H 203.506 2.11581 3.67436 0
M  V30 2043 C 201.965 0.677431 3.30019 0
M  V30 2044 O 202.495 -0.158799 4.01386 0
M  V30 2045 N 200.701 0.515851 2.85985 0
M  V30 2046 H 200.248 1.19744 2.28077 0
M  V30 2047 H 200.206 -0.309315 3.12875 0
M  V30 2048 N 203.978 -0.674533 1.42435 0
M  V30 2049 C 205.226 -1.43175 1.42637 0
M  V30 2050 C 205.547 -1.94951 0.0438992 0
M  V30 2051 O 204.817 -1.7308 -0.917607 0
M  V30 2052 H 203.397 -0.531307 0.525092 0
M  V30 2053 H 206.059 -0.797006 1.77859 0
M  V30 2054 H 205.155 -2.28463 2.12629 0
M  V30 2055 N 205.456 -1.28612 -0.910864 0
M  V30 2056 C 206.867 -1.14406 -1.47541 0
M  V30 2057 C 207.218 0.264901 -1.94403 0
M  V30 2058 O 206.343 1.15942 -1.82719 0
M  V30 2059 C 206.938 -2.07073 -2.68153 0
M  V30 2060 C 205.497 -1.96923 -3.20778 0
M  V30 2061 C 204.644 -1.98646 -1.93481 0
M  V30 2062 H 207.595 -1.41259 -0.723291 0
M  V30 2063 H 207.616 -1.63642 -3.43514 0
M  V30 2064 H 207.128 -3.09611 -2.34015 0
M  V30 2065 H 205.229 -0.97433 -3.59635 0
M  V30 2066 H 205.342 -2.84026 -3.85832 0
M  V30 2067 H 203.706 -1.43093 -2.10705 0
M  V30 2068 H 204.489 -3.02868 -1.61634 0
M  V30 2069 N 206.934 1.1197 -1.10907 0
M  V30 2070 C 208.164 1.8713 -0.875553 0
M  V30 2071 C 208.572 1.8016 0.577843 0
M  V30 2072 O 207.915 1.17699 1.41042 0
M  V30 2073 C 207.977 3.37005 -1.2517 0
M  V30 2074 C 207.641 3.67748 -2.71313 0
M  V30 2075 C 208.638 3.65698 -3.69542 0
M  V30 2076 C 206.323 3.96928 -3.07821 0
M  V30 2077 C 208.317 3.92395 -5.023 0
M  V30 2078 C 206.004 4.23284 -4.40765 0
M  V30 2079 C 207.002 4.21005 -5.37814 0
M  V30 2080 O 206.69 4.46704 -6.68364 0
M  V30 2081 H 206.422 0.598786 -0.313737 0
M  V30 2082 H 208.976 1.42568 -1.47863 0
M  V30 2083 H 207.206 3.82146 -0.591741 0
M  V30 2084 H 208.895 3.93519 -0.994877 0
M  V30 2085 H 209.661 3.43211 -3.42682 0
M  V30 2086 H 205.54 3.97841 -2.32902 0
M  V30 2087 H 209.084 3.90531 -5.78041 0
M  V30 2088 H 204.981 4.45246 -4.67361 0
M  V30 2089 H 205.749 4.64299 -6.74069 0
M  V30 2090 N 208.412 0.89855 1.29475 0
M  V30 2091 C 209.658 0.534065 1.96263 0
M  V30 2092 C 210.013 -0.909415 1.69551 0
M  V30 2093 O 209.306 -1.63596 0.997349 0
M  V30 2094 C 209.5 0.761398 3.49195 0
M  V30 2095 C 209.329 2.22542 3.90775 0
M  V30 2096 C 208.099 2.87264 4.15701 0
M  V30 2097 C 210.297 3.20051 4.02581 0
M  V30 2098 N 208.279 4.24121 4.4384 0
M  V30 2099 C 209.65 4.42023 4.34759 0
M  V30 2100 C 211.705 3.15657 3.85052 0
M  V30 2101 C 210.408 5.60161 4.51235 0
M  V30 2102 C 212.434 4.33078 4.02737 0
M  V30 2103 C 211.796 5.5382 4.35273 0
M  V30 2104 H 207.895 0.245013 0.742625 0
M  V30 2105 H 210.479 1.15912 1.56437 0
M  V30 2106 H 208.65 0.165732 3.88046 0
M  V30 2107 H 210.382 0.362462 4.03074 0
M  V30 2108 H 207.137 2.38064 4.09417 0
M  V30 2109 H 207.561 4.94839 4.6202 0
M  V30 2110 H 212.203 2.23396 3.58962 0
M  V30 2111 H 209.921 6.52913 4.76162 0
M  V30 2112 H 213.507 4.31163 3.90628 0
M  V30 2113 H 212.387 6.43166 4.48672 0
M  V30 2114 N 209.89 -1.43072 0.660911 0
M  V30 2115 C 211.136 -2.0202 0.177708 0
M  V30 2116 C 211.469 -1.52066 -1.20787 0
M  V30 2117 O 210.744 -0.716987 -1.80802 0
M  V30 2118 C 211.027 -3.59561 0.197019 0
M  V30 2119 C 210.88 -4.19727 1.61706 0
M  V30 2120 C 212.199 -4.37664 -0.462396 0
M  V30 2121 H 209.318 -0.734034 0.0660494 0
M  V30 2122 H 211.96 -1.70272 0.843058 0
M  V30 2123 H 210.11 -3.86739 -0.369527 0
M  V30 2124 H 211.782 -4.03553 2.23479 0
M  V30 2125 H 210.025 -3.76084 2.16201 0
M  V30 2126 H 210.696 -5.28834 1.58237 0
M  V30 2127 H 213.172 -4.16095 0.0197215 0
M  V30 2128 H 212.048 -5.47305 -0.418188 0
M  V30 2129 H 212.309 -4.14493 -1.53778 0
M  V30 2130 N 211.368 -0.403325 -1.52352 0
M  V30 2131 C 212.784 -0.0539281 -1.59509 0
M  V30 2132 C 212.984 1.43307 -1.41652 0
M  V30 2133 O 212.04 2.19924 -1.24056 0
M  V30 2134 C 213.353 -0.543654 -2.95745 0
M  V30 2135 C 214.901 -0.501125 -3.08962 0
M  V30 2136 C 215.376 -0.967267 -4.47669 0
M  V30 2137 N 216.867 -0.923849 -4.53893 0
M  V30 2138 C 217.602 -1.25578 -5.5948 0
M  V30 2139 N 217.098 -1.65889 -6.72646 0
M  V30 2140 N 218.891 -1.17613 -5.49658 0
M  V30 2141 H 211.042 -1.37123 -1.62206 0
M  V30 2142 H 213.305 -0.56294 -0.76276 0
M  V30 2143 H 213.011 -1.58275 -3.14073 0
M  V30 2144 H 212.885 0.0498042 -3.77167 0
M  V30 2145 H 215.272 0.528909 -2.90321 0
M  V30 2146 H 215.353 -1.13056 -2.2946 0
M  V30 2147 H 214.997 -1.9956 -4.67053 0
M  V30 2148 H 214.927 -0.314698 -5.25659 0
M  V30 2149 H 217.418 -0.627403 -3.72655 0
M  V30 2150 H 217.731 -1.89543 -7.49195 0
M  V30 2151 H 216.076 -1.69787 -6.73942 0
M  V30 2152 H 219.267 -0.860115 -4.6013 0
M  V30 2153 H 219.44 -1.43812 -6.3184 0
M  V30 2154 N 212.846 1.57033 -0.133567 0
M  V30 2155 C 214.123 1.87256 0.56522 0
M  V30 2156 C 214.503 1.03726 1.83859 0
M  V30 2157 O 213.851 0.120247 2.28183 0
M  V30 2158 C 214.061 3.3865 0.843636 0
M  V30 2159 C 215.409 4.07574 1.19032 0
M  V30 2160 O 216.433 3.43752 0.933429 0
M  V30 2161 O 215.292 5.20259 1.67312 0
M  V30 2162 H 212.386 0.775678 0.286796 0
M  V30 2163 H 214.932 1.68855 -0.169168 0
M  V30 2164 H 213.704 3.91257 -0.0581149 0
M  V30 2165 H 213.327 3.62532 1.63268 0
M  V30 2166 N 214.325 -0.140222 1.56975 0
M  V30 2167 C 215.573 -0.850005 1.83356 0
M  V30 2168 C 215.894 -1.81399 0.71551 0
M  V30 2169 O 215.164 -1.94136 -0.262294 0
M  V30 2170 H 213.744 -0.316886 0.676456 0
M  V30 2171 H 216.406 -0.132608 1.94448 0
M  V30 2172 H 215.502 -1.40814 2.78528 0
M  V30 2173 N 215.803 -1.52179 -0.40978 0
M  V30 2174 C 216.713 -1.78364 -1.52392 0
M  V30 2175 C 217.729 -0.669183 -1.60617 0
M  V30 2176 O 218.905 -0.954518 -1.77344 0
M  V30 2177 C 215.97 -1.92822 -2.88133 0
M  V30 2178 C 215.031 -3.16725 -2.898 0
M  V30 2179 C 214.264 -3.30483 -4.19067 0
M  V30 2180 O 214.487 -2.49522 -5.12928 0
M  V30 2181 O 213.421 -4.2363 -4.27576 0
M  V30 2182 H 217.247 -2.72931 -1.33201 0
M  V30 2183 H 214.832 -1.37016 -0.59557 0
M  V30 2184 H 216.714 -2.04157 -3.68643 0
M  V30 2185 H 215.389 -1.01444 -3.07393 0
M  V30 2186 H 214.296 -3.10848 -2.08146 0
M  V30 2187 H 215.629 -4.07881 -2.75489 0
M  V30 2188 N 217.281 0.66697 -1.42791 0
M  V30 2189 C 218.527 1.4291 -1.43891 0
M  V30 2190 C 218.86 1.94114 -0.0578972 0
M  V30 2191 O 218.135 1.71414 0.91911 0
M  V30 2192 C 218.418 2.62049 -2.46987 0
M  V30 2193 C 218.271 2.16426 -3.94309 0
M  V30 2194 C 219.59 3.64266 -2.46978 0
M  V30 2195 H 216.709 0.518306 -0.523954 0
M  V30 2196 H 219.351 0.757321 -1.74255 0
M  V30 2197 H 217.501 3.19361 -2.21225 0
M  V30 2198 H 219.173 1.64221 -4.31079 0
M  V30 2199 H 217.416 1.47925 -4.078 0
M  V30 2200 H 218.087 3.02038 -4.62036 0
M  V30 2201 H 220.563 3.16686 -2.69906 0
M  V30 2202 H 219.439 4.45196 -3.21079 0
M  V30 2203 H 219.7 4.15927 -1.49857 0
M  V30 2204 N 218.759 1.29093 0.90403 0
M  V30 2205 C 220.175 1.07011 1.1841 0
M  V30 2206 C 220.375 -0.181358 2.00682 0
M  V30 2207 O 219.431 -0.880331 2.36657 0
M  V30 2208 C 220.744 2.32311 1.90924 0
M  V30 2209 C 222.292 2.37587 2.03768 0
M  V30 2210 C 222.767 3.62679 2.79693 0
M  V30 2211 N 224.258 3.63376 2.87249 0
M  V30 2212 C 224.993 4.56848 3.46522 0
M  V30 2213 N 224.489 5.60648 4.06996 0
M  V30 2214 N 226.282 4.44426 3.44154 0
M  V30 2215 H 218.433 2.09412 0.354993 0
M  V30 2216 H 220.696 0.922181 0.219742 0
M  V30 2217 H 220.402 3.23536 1.37905 0
M  V30 2218 H 220.276 2.39483 2.91424 0
M  V30 2219 H 222.663 1.46853 2.55965 0
M  V30 2220 H 222.744 2.34403 1.02415 0
M  V30 2221 H 222.388 4.53762 2.28173 0
M  V30 2222 H 222.318 3.63119 3.81381 0
M  V30 2223 H 224.809 2.88321 2.44293 0
M  V30 2224 H 225.122 6.28101 4.50232 0
M  V30 2225 H 223.467 5.64463 4.05471 0
M  V30 2226 H 226.658 3.62529 2.96126 0
M  V30 2227 H 226.831 5.17457 3.90054 0
M  V30 2228 N 220.237 -1.11381 1.11499 0
M  V30 2229 C 221.484 -1.83132 0.864231 0
M  V30 2230 C 221.812 -1.84683 -0.610114 0
M  V30 2231 O 221.067 -1.29589 -1.46646 0
M  V30 2232 C 221.366 -3.30026 1.37177 0
M  V30 2233 C 221.032 -3.48634 2.85946 0
M  V30 2234 C 219.694 -3.53421 3.26569 0
M  V30 2235 C 222.046 -3.54837 3.81759 0
M  V30 2236 C 219.374 -3.61967 4.61733 0
M  V30 2237 C 221.726 -3.64915 5.1674 0
M  V30 2238 C 220.39 -3.67962 5.5692 0
M  V30 2239 H 219.66 -0.670127 0.316245 0
M  V30 2240 H 222.307 -1.31354 1.3935 0
M  V30 2241 H 220.612 -3.84304 0.762753 0
M  V30 2242 H 222.309 -3.84034 1.15408 0
M  V30 2243 H 218.899 -3.45579 2.53521 0
M  V30 2244 H 223.083 -3.50399 3.51474 0
M  V30 2245 H 218.339 -3.62603 4.92269 0
M  V30 2246 H 222.513 -3.68658 5.90816 0
M  V30 2247 H 220.14 -3.74336 6.61647 0
M  V30 2248 N 221.715 -0.905404 -1.28997 0
M  V30 2249 C 222.662 -0.385892 -2.27551 0
M  V30 2250 C 223.632 0.535113 -1.57244 0
M  V30 2251 O 224.817 0.459119 -1.85194 0
M  V30 2252 C 221.957 0.375461 -3.43051 0
M  V30 2253 C 221.07 -0.577092 -4.28128 0
M  V30 2254 C 220.205 0.201879 -5.30816 0
M  V30 2255 C 219.244 -0.744829 -6.07551 0
M  V30 2256 N 218.381 9.42587e-05 -7.021 0
M  V30 2257 H 223.221 -1.23139 -2.71368 0
M  V30 2258 H 220.758 -0.618542 -1.33463 0
M  V30 2259 H 222.716 0.832992 -4.088 0
M  V30 2260 H 221.346 1.18537 -3.00248 0
M  V30 2261 H 220.398 -1.15315 -3.62501 0
M  V30 2262 H 221.71 -1.30152 -4.8152 0
M  V30 2263 H 220.864 0.720351 -6.02408 0
M  V30 2264 H 219.603 0.959413 -4.7817 0
M  V30 2265 H 218.608 -1.27475 -5.34818 0
M  V30 2266 H 219.833 -1.50178 -6.62286 0
M  V30 2267 H 217.779 0.739791 -6.51815 0
M  V30 2268 H 217.696 -0.664321 -7.53076 0
M  V30 2269 H 218.964 0.498644 -7.77903 0
M  V30 2270 N 223.193 1.4272 -0.668489 0
M  V30 2271 C 224.143 2.27971 0.0363806 0
M  V30 2272 C 225.127 1.40741 0.779794 0
M  V30 2273 O 226.319 1.64245 0.659745 0
M  V30 2274 C 223.448 3.28673 0.991398 0
M  V30 2275 C 222.534 4.23388 0.245658 0
M  V30 2276 N 222.925 5.00267 -0.746069 0
M  V30 2277 C 221.223 4.43355 0.484988 0
M  V30 2278 C 221.924 5.69396 -1.19009 0
M  V30 2279 N 220.9 5.41095 -0.521287 0
M  V30 2280 H 224.702 2.84833 -0.724394 0
M  V30 2281 H 222.216 1.54607 -0.497028 0
M  V30 2282 H 224.213 3.88543 1.51129 0
M  V30 2283 H 222.873 2.73373 1.75207 0
M  V30 2284 H 223.884 5.05525 -1.12537 0
M  V30 2285 H 220.561 3.99104 1.22565 0
M  V30 2286 H 221.951 6.41083 -2.01153 0
M  V30 2287 N 224.671 0.411399 1.52136 0
M  V30 2288 C 225.896 -0.165538 2.06738 0
M  V30 2289 C 226.321 -1.379 1.27926 0
M  V30 2290 O 225.679 -1.78628 0.310114 0
M  V30 2291 C 225.727 -0.492124 3.57226 0
M  V30 2292 O 224.831 -1.58276 3.80818 0
M  V30 2293 H 224.172 -0.0132132 0.663869 0
M  V30 2294 H 226.702 0.585253 1.96051 0
M  V30 2295 H 226.712 -0.750104 4.01045 0
M  V30 2296 H 225.387 0.394922 4.14021 0
M  V30 2297 H 223.964 -1.31677 3.48877 0
M  V30 2298 N 226.149 -1.5696 0.141893 0
M  V30 2299 C 227.374 -2.00754 -0.520838 0
M  V30 2300 C 227.799 -1.0213 -1.57959 0
M  V30 2301 O 227.157 0.00371324 -1.813 0
M  V30 2302 C 227.205 -3.43318 -1.10294 0
M  V30 2303 O 226.309 -3.47679 -2.21795 0
M  V30 2304 H 225.65 -0.651564 -0.127908 0
M  V30 2305 H 228.18 -2.03221 0.23712 0
M  V30 2306 H 228.19 -3.82012 -1.43287 0
M  V30 2307 H 226.865 -4.14608 -0.327574 0
M  V30 2308 H 225.442 -3.20824 -1.9007 0
M  V30 2309 N 227.627 0.131896 -1.57047 0
M  V30 2310 C 228.855 0.856461 -1.88341 0
M  V30 2311 C 229.27 1.74042 -0.731757 0
M  V30 2312 O 228.627 1.80051 0.297945 0
M  V30 2313 C 228.678 1.70064 -3.18999 0
M  V30 2314 O 228.399 0.852278 -4.2973 0
M  V30 2315 C 229.9 2.53148 -3.63911 0
M  V30 2316 H 227.12 0.246885 -0.62393 0
M  V30 2317 H 229.664 0.120152 -2.04147 0
M  V30 2318 H 227.819 2.38984 -3.04902 0
M  V30 2319 H 228.233 1.43329 -5.04537 0
M  V30 2320 H 229.707 3.07931 -4.58129 0
M  V30 2321 H 230.184 3.29901 -2.89935 0
M  V30 2322 H 230.79 1.89492 -3.80753 0
M  V30 2323 N 229.106 1.52395 0.401703 0
M  V30 2324 C 230.016 1.7917 1.51444 0
M  V30 2325 C 231.032 0.677691 1.6026 0
M  V30 2326 O 232.208 0.963909 1.76835 0
M  V30 2327 C 229.273 1.94347 2.87107 0
M  V30 2328 C 228.334 3.18257 2.88116 0
M  V30 2329 C 227.567 3.32701 4.17308 0
M  V30 2330 O 227.79 2.52238 5.11598 0
M  V30 2331 O 226.724 4.25891 4.25324 0
M  V30 2332 H 230.55 2.73633 1.31752 0
M  V30 2333 H 228.135 1.3733 0.588296 0
M  V30 2334 H 230.017 2.06109 3.67555 0
M  V30 2335 H 228.692 1.03073 3.06851 0
M  V30 2336 H 227.599 3.11947 2.06494 0
M  V30 2337 H 228.932 4.09336 2.73322 0
M  V30 2338 N 230.584 -0.659388 1.43143 0
M  V30 2339 C 231.83 -1.42145 1.44647 0
M  V30 2340 C 232.163 -1.9408 0.0681907 0
M  V30 2341 O 231.438 -1.71899 -0.910007 0
M  V30 2342 C 231.721 -2.60735 2.48373 0
M  V30 2343 C 231.574 -2.14332 3.95451 0
M  V30 2344 C 232.893 -3.62951 2.48906 0
M  V30 2345 H 230.012 -0.51552 0.526696 0
M  V30 2346 H 232.654 -0.748069 1.74654 0
M  V30 2347 H 230.804 -3.18184 2.22916 0
M  V30 2348 H 232.476 -1.61932 4.31944 0
M  V30 2349 H 230.719 -1.4576 4.08578 0
M  V30 2350 H 231.39 -2.99583 4.63631 0
M  V30 2351 H 233.866 -3.1525 2.71582 0
M  V30 2352 H 232.742 -4.43487 3.23435 0
M  V30 2353 H 233.003 -4.15126 1.52061 0
M  V30 2354 N 232.062 -1.29571 -0.897171 0
M  V30 2355 C 232.992 -1.17473 -2.01798 0
M  V30 2356 C 233.973 -0.068323 -1.69963 0
M  V30 2357 O 235.158 -0.248239 -1.92607 0
M  V30 2358 C 232.288 -0.853099 -3.36659 0
M  V30 2359 C 231.242 -1.9161 -3.82713 0
M  V30 2360 C 230.568 -1.44773 -5.14728 0
M  V30 2361 C 231.868 -3.32535 -4.02763 0
M  V30 2362 H 233.562 -2.11237 -2.12177 0
M  V30 2363 H 231.108 -1.01699 -1.01948 0
M  V30 2364 H 233.061 -0.755165 -4.14578 0
M  V30 2365 H 231.785 0.120236 -3.26379 0
M  V30 2366 H 230.444 -2.00346 -3.07013 0
M  V30 2367 H 230.092 -0.462995 -5.00865 0
M  V30 2368 H 229.792 -2.15865 -5.46513 0
M  V30 2369 H 231.316 -1.36334 -5.95185 0
M  V30 2370 H 232.73 -3.26626 -4.71156 0
M  V30 2371 H 231.127 -4.01607 -4.45905 0
M  V30 2372 H 232.197 -3.75326 -3.07016 0
M  V30 2373 N 233.54 1.10788 -1.12088 0
M  V30 2374 C 234.47 2.19083 -0.807755 0
M  V30 2375 C 235.451 1.6858 0.226859 0
M  V30 2376 O 236.636 1.93997 0.0888475 0
M  V30 2377 C 233.766 3.46344 -0.257576 0
M  V30 2378 C 232.72 4.101 -1.22483 0
M  V30 2379 C 232.046 5.32016 -0.535052 0
M  V30 2380 C 233.346 4.54236 -2.57811 0
M  V30 2381 H 235.04 2.45534 -1.71328 0
M  V30 2382 H 232.586 1.1801 -0.825205 0
M  V30 2383 H 234.539 4.21392 -0.0262679 0
M  V30 2384 H 233.263 3.19373 0.683278 0
M  V30 2385 H 231.922 3.37054 -1.44189 0
M  V30 2386 H 231.57 5.01319 0.410827 0
M  V30 2387 H 231.27 5.75625 -1.18024 0
M  V30 2388 H 232.794 6.09799 -0.312695 0
M  V30 2389 H 234.208 5.20575 -2.40155 0
M  V30 2390 H 232.605 5.08682 -3.18375 0
M  V30 2391 H 233.675 3.6734 -3.16528 0
M  V30 2392 N 235.018 0.912232 1.28515 0
M  V30 2393 C 236.243 0.559774 1.99703 0
M  V30 2394 C 236.668 -0.851393 1.67729 0
M  V30 2395 O 236.026 -1.56875 0.908834 0
M  V30 2396 C 236.074 0.773874 3.52198 0
M  V30 2397 O 235.178 -0.167842 4.12058 0
M  V30 2398 H 234.519 0.21723 0.627461 0
M  V30 2399 H 237.049 1.22725 1.63706 0
M  V30 2400 H 237.059 0.683386 4.02236 0
M  V30 2401 H 235.734 1.80261 3.74805 0
M  V30 2402 H 234.311 -0.0287509 3.72889 0
M  V30 2403 N 236.496 -1.42363 0.676048 0
M  V30 2404 C 237.742 -2.0182 0.199125 0
M  V30 2405 C 238.075 -1.53339 -1.19168 0
M  V30 2406 O 237.35 -0.736124 -1.80032 0
M  V30 2407 C 237.633 -3.59331 0.235144 0
M  V30 2408 C 237.486 -4.17989 1.66149 0
M  V30 2409 C 238.805 -4.3813 -0.41595 0
M  V30 2410 H 235.924 -0.733293 0.0738311 0
M  V30 2411 H 238.566 -1.69368 0.86107 0
M  V30 2412 H 236.716 -3.87109 -0.328487 0
M  V30 2413 H 238.388 -4.0116 2.27747 0
M  V30 2414 H 236.631 -3.7377 2.20178 0
M  V30 2415 H 237.302 -5.27126 1.63837 0
M  V30 2416 H 239.778 -4.16051 0.0638529 0
M  V30 2417 H 238.654 -5.47717 -0.360115 0
M  V30 2418 H 238.915 -4.16101 -1.49373 0
M  V30 2419 N 237.974 -0.419461 -1.51915 0
M  V30 2420 C 239.202 0.152136 -2.0634 0
M  V30 2421 C 239.617 1.37988 -1.28859 0
M  V30 2422 O 238.974 1.79243 -0.343232 0
M  V30 2423 C 239.025 0.492266 -3.58133 0
M  V30 2424 O 238.746 -0.686736 -4.32684 0
M  V30 2425 C 240.247 1.11648 -4.2901 0
M  V30 2426 H 237.467 0.0158325 -0.670813 0
M  V30 2427 H 240.011 -0.593394 -1.95702 0
M  V30 2428 H 238.166 1.18769 -3.68745 0
M  V30 2429 H 238.58 -0.400341 -5.2297 0
M  V30 2430 H 240.054 1.3046 -5.36362 0
M  V30 2431 H 240.531 2.09251 -3.86148 0
M  V30 2432 H 241.137 0.460958 -4.22795 0
M  V30 2433 N 239.452 1.56882 -0.150215 0
M  V30 2434 C 240.7 1.9584 0.499105 0
M  V30 2435 C 241.021 1.03623 1.65188 0
M  V30 2436 O 240.291 0.0984084 1.95653 0
M  V30 2437 H 238.871 0.723119 0.187373 0
M  V30 2438 H 241.533 1.9358 -0.226466 0
M  V30 2439 H 240.629 2.99638 0.873122 0
M  V30 2440 N 240.93 -0.123565 1.57115 0
M  V30 2441 C 241.84 -1.17074 2.033 0
M  V30 2442 C 242.856 -1.4561 0.952559 0
M  V30 2443 O 244.032 -1.56817 1.26374 0
M  V30 2444 C 241.097 -2.47857 2.42421 0
M  V30 2445 C 240.158 -2.26758 3.64526 0
M  V30 2446 C 239.391 -3.51305 4.01771 0
M  V30 2447 O 239.614 -4.5843 3.39409 0
M  V30 2448 O 238.548 -3.42578 4.94898 0
M  V30 2449 H 242.374 -0.808555 2.92739 0
M  V30 2450 H 239.959 -0.334027 1.45618 0
M  V30 2451 H 241.841 -3.2492 2.68338 0
M  V30 2452 H 240.516 -2.83558 1.5613 0
M  V30 2453 H 239.423 -1.47569 3.43765 0
M  V30 2454 H 240.756 -1.95963 4.51508 0
M  V30 2455 N 242.408 -1.52605 -0.393616 0
M  V30 2456 C 243.34 -1.73303 -1.49995 0
M  V30 2457 C 244.353 -0.613473 -1.50799 0
M  V30 2458 O 245.542 -0.889049 -1.54784 0
M  V30 2459 C 242.642 -1.77245 -2.88855 0
M  V30 2460 C 241.815 -3.06483 -3.12069 0
M  V30 2461 C 240.874 -3.02033 -4.30886 0
M  V30 2462 O 239.9 -3.75907 -4.27414 0
M  V30 2463 N 241.102 -2.20897 -5.36828 0
M  V30 2464 H 243.867 -2.68756 -1.32629 0
M  V30 2465 H 241.428 -1.51036 -0.583083 0
M  V30 2466 H 243.42 -1.7178 -3.66434 0
M  V30 2467 H 241.99 -0.891993 -2.99603 0
M  V30 2468 H 241.21 -3.25474 -2.22396 0
M  V30 2469 H 242.498 -3.91947 -3.2443 0
M  V30 2470 H 241.896 -1.60336 -5.42502 0
M  V30 2471 H 240.453 -2.21275 -6.13091 0
M  V30 2472 N 243.887 0.651787 -1.4349 0
M  V30 2473 C 245.117 1.43728 -1.48411 0
M  V30 2474 C 245.525 1.8893 -0.10103 0
M  V30 2475 O 244.868 1.60182 0.899307 0
M  V30 2476 C 244.93 2.70411 -2.36893 0
M  V30 2477 C 244.594 2.4714 -3.8441 0
M  V30 2478 C 245.591 2.10271 -4.75481 0
M  V30 2479 C 243.276 2.6142 -4.28912 0
M  V30 2480 C 245.27 1.87982 -6.0905 0
M  V30 2481 C 242.957 2.38746 -5.62533 0
M  V30 2482 C 243.955 2.02083 -6.5242 0
M  V30 2483 O 243.643 1.79647 -7.8357 0
M  V30 2484 H 243.375 0.447962 -0.506267 0
M  V30 2485 H 245.929 0.80624 -1.88915 0
M  V30 2486 H 244.159 3.36079 -1.91278 0
M  V30 2487 H 245.848 3.32364 -2.33 0
M  V30 2488 H 246.614 1.98814 -4.42378 0
M  V30 2489 H 242.493 2.88931 -3.59222 0
M  V30 2490 H 246.037 1.5929 -6.7917 0
M  V30 2491 H 241.934 2.49806 -5.95203 0
M  V30 2492 H 242.702 1.9406 -7.95162 0
M  V30 2493 N 245.365 1.30045 0.890287 0
M  V30 2494 C 246.613 1.18327 1.63839 0
M  V30 2495 C 246.934 -0.263455 1.93212 0
M  V30 2496 O 246.204 -1.17856 1.56482 0
M  V30 2497 H 244.784 0.434933 0.607324 0
M  V30 2498 H 247.446 1.631 1.06698 0
M  V30 2499 H 246.542 1.74024 2.59079 0
M  V30 2500 N 246.843 -1.10192 1.12674 0
M  V30 2501 C 248.259 -1.34235 0.863317 0
M  V30 2502 C 248.459 -1.95062 -0.505277 0
M  V30 2503 O 247.515 -2.19192 -1.25345 0
M  V30 2504 C 248.828 -2.2616 1.98172 0
M  V30 2505 C 250.376 -2.3969 2.0129 0
M  V30 2506 C 250.851 -3.34946 3.1237 0
M  V30 2507 N 252.342 -3.42515 3.11829 0
M  V30 2508 C 253.077 -4.16199 3.94419 0
M  V30 2509 N 252.573 -4.92747 4.87004 0
M  V30 2510 N 254.366 -4.11843 3.82547 0
M  V30 2511 H 246.517 -0.690798 2.00853 0
M  V30 2512 H 248.78 -0.366774 0.874174 0
M  V30 2513 H 248.486 -1.8868 2.96804 0
M  V30 2514 H 248.36 -3.26488 1.88906 0
M  V30 2515 H 250.747 -2.76438 1.03276 0
M  V30 2516 H 250.828 -1.39169 2.14629 0
M  V30 2517 H 250.472 -2.98923 4.10619 0
M  V30 2518 H 250.402 -4.35353 2.96269 0
M  V30 2519 H 252.893 -2.87926 2.44759 0
M  V30 2520 H 253.206 -5.46376 5.46528 0
M  V30 2521 H 251.551 -4.91862 4.91016 0
M  V30 2522 H 254.742 -3.51136 3.0955 0
M  V30 2523 H 254.915 -4.69007 4.47142 0
M  V30 2524 N 248.321 -0.919034 -1.28029 0
M  V30 2525 C 249.732 -0.600735 -1.76771 0
M  V30 2526 C 250.083 0.884024 -1.75156 0
M  V30 2527 O 249.208 1.69163 -1.34956 0
M  V30 2528 C 249.803 -1.08372 -3.21 0
M  V30 2529 C 248.362 -0.816248 -3.67443 0
M  V30 2530 C 247.509 -1.24742 -2.47658 0
M  V30 2531 H 250.46 -1.09974 -1.14418 0
M  V30 2532 H 250.481 -0.427512 -3.78091 0
M  V30 2533 H 249.993 -2.16437 -3.22144 0
M  V30 2534 H 248.094 0.250968 -3.71754 0
M  V30 2535 H 248.207 -1.4277 -4.57333 0
M  V30 2536 H 246.571 -0.666083 -2.45836 0
M  V30 2537 H 247.354 -2.33653 -2.51518 0
M  V30 2538 N 249.799 1.42003 -0.683588 0
M  V30 2539 C 251.048 2.00638 -0.206681 0
M  V30 2540 C 251.361 1.5472 1.19671 0
M  V30 2541 O 252.567 2.05833 1.77045 0
M  V30 2542 C 251.023 3.58487 -0.318632 0
M  V30 2543 C 250.631 4.1339 -1.72663 0
M  V30 2544 C 252.375 4.24384 0.0991141 0
M  V30 2545 C 250.282 5.63633 -1.79087 0
M  V30 2546 H 249.212 0.750408 -0.0735107 0
M  V30 2547 H 251.863 1.62624 -0.850048 0
M  V30 2548 H 250.245 3.94047 0.392781 0
M  V30 2549 H 251.419 3.89273 -2.46583 0
M  V30 2550 H 249.734 3.59976 -2.09299 0
M  V30 2551 H 252.331 5.34652 0.0713833 0
M  V30 2552 H 252.674 4.00505 1.13586 0
M  V30 2553 H 253.207 3.93816 -0.561599 0
M  V30 2554 H 249.946 5.92323 -2.80774 0
M  V30 2555 H 249.466 5.89714 -1.09535 0
M  V30 2556 H 251.145 6.28201 -1.5483 0
M  V30 2557 N 251.277 0.427512 1.51691 0
M  V30 2558 C 252.502 -0.143601 2.06902 0
M  V30 2559 C 252.927 -1.36536 1.29382 0
M  V30 2560 O 252.285 -1.78289 0.329043 0
M  V30 2561 C 252.333 -0.454207 3.57728 0
M  V30 2562 O 251.437 -1.54228 3.82475 0
M  V30 2563 H 250.778 -0.00617128 0.663971 0
M  V30 2564 H 253.308 0.606014 1.95419 0
M  V30 2565 H 253.318 -0.707525 4.01818 0
M  V30 2566 H 251.993 0.438812 4.13579 0
M  V30 2567 H 250.57 -1.2797 3.50254 0
M  V30 2568 N 252.755 -1.56801 0.158532 0
M  V30 2569 C 254.003 -1.96102 -0.488712 0
M  V30 2570 C 254.324 -1.04498 -1.64636 0
M  V30 2571 O 253.594 -0.108783 -1.95598 0
M  V30 2572 H 252.174 -0.724102 -0.183535 0
M  V30 2573 H 254.836 -1.93457 0.236728 0
M  V30 2574 H 253.932 -3.00097 -0.857219 0
M  V30 2575 N 254.233 0.115231 -1.57178 0
M  V30 2576 C 255.165 1.16694 -1.97269 0
M  V30 2577 C 256.178 1.37445 -0.872502 0
M  V30 2578 O 257.367 1.36454 -1.15077 0
M  V30 2579 C 254.467 2.52627 -2.25905 0
M  V30 2580 C 253.64 2.52427 -3.57211 0
M  V30 2581 C 252.699 3.70134 -3.74016 0
M  V30 2582 O 251.725 3.53546 -4.46087 0
M  V30 2583 N 252.927 4.88844 -3.13068 0
M  V30 2584 H 255.692 0.82588 -2.88096 0
M  V30 2585 H 253.253 0.304461 -1.59011 0
M  V30 2586 H 255.245 3.29937 -2.34359 0
M  V30 2587 H 253.815 2.789 -1.41186 0
M  V30 2588 H 253.035 1.60805 -3.5991 0
M  V30 2589 H 254.323 2.49353 -4.43509 0
M  V30 2590 H 253.721 5.05225 -2.54489 0
M  V30 2591 H 252.278 5.63817 -3.27037 0
M  V30 2592 N 255.711 1.52812 0.385517 0
M  V30 2593 C 256.658 1.77838 1.47113 0
M  V30 2594 C 257.628 0.621757 1.54024 0
M  V30 2595 O 258.813 0.861846 1.70226 0
M  V30 2596 C 255.953 1.95618 2.84302 0
M  V30 2597 C 255.066 3.23316 2.86515 0
M  V30 2598 C 254.201 3.31394 4.15152 0
M  V30 2599 C 253.24 4.53201 4.1143 0
M  V30 2600 N 252.377 4.58542 5.3168 0
M  V30 2601 H 257.217 2.70482 1.25073 0
M  V30 2602 H 254.754 1.34006 0.606692 0
M  V30 2603 H 256.712 2.03912 3.63972 0
M  V30 2604 H 255.342 1.06331 3.04784 0
M  V30 2605 H 254.394 3.24076 1.99195 0
M  V30 2606 H 255.706 4.13045 2.79634 0
M  V30 2607 H 254.86 3.3889 5.03228 0
M  V30 2608 H 253.599 2.39645 4.24761 0
M  V30 2609 H 252.604 4.45827 3.21742 0
M  V30 2610 H 253.829 5.46271 4.03442 0
M  V30 2611 H 251.775 3.69686 5.41912 0
M  V30 2612 H 251.692 5.42148 5.26889 0
M  V30 2613 H 252.96 4.70296 6.21644 0
M  V30 2614 N 257.189 -0.644168 1.43834 0
M  V30 2615 C 258.099 -1.78563 1.52159 0
M  V30 2616 C 259.115 -1.69147 0.408069 0
M  V30 2617 O 260.291 -1.90156 0.663524 0
M  V30 2618 C 257.356 -3.14888 1.45073 0
M  V30 2619 C 256.417 -3.36034 2.6717 0
M  V30 2620 C 255.65 -4.65855 2.60413 0
M  V30 2621 O 255.873 -5.45805 1.65689 0
M  V30 2622 O 254.807 -4.88918 3.5106 0
M  V30 2623 H 258.633 -1.74494 2.48567 0
M  V30 2624 H 256.218 -0.80378 1.25935 0
M  V30 2625 H 258.1 -3.96179 1.43597 0
M  V30 2626 H 256.775 -3.19528 0.518037 0
M  V30 2627 H 255.682 -2.54472 2.74217 0
M  V30 2628 H 257.015 -3.36247 3.59442 0
M  V30 2629 N 258.668 -1.30515 -0.883378 0
M  V30 2630 C 259.914 -1.19607 -1.63774 0
M  V30 2631 C 260.247 0.248314 -1.92606 0
M  V30 2632 O 259.522 1.17742 -1.54813 0
M  V30 2633 C 259.805 -2.02669 -2.97653 0
M  V30 2634 C 259.658 -3.55335 -2.75784 0
M  V30 2635 C 260.977 -1.86573 -3.98596 0
M  V30 2636 H 258.096 -0.435856 -0.594305 0
M  V30 2637 H 260.738 -1.60165 -1.02212 0
M  V30 2638 H 258.888 -1.68208 -3.50197 0
M  V30 2639 H 260.56 -3.99863 -2.30016 0
M  V30 2640 H 258.803 -3.79438 -2.1026 0
M  V30 2641 H 259.474 -4.08745 -3.70988 0
M  V30 2642 H 261.95 -2.16703 -3.55217 0
M  V30 2643 H 260.826 -2.47014 -4.90179 0
M  V30 2644 H 261.087 -0.825321 -4.34328 0
M  V30 2645 N 260.146 1.09593 -1.13257 0
M  V30 2646 C 261.096 2.14345 -0.777179 0
M  V30 2647 C 262.08 1.59277 0.227966 0
M  V30 2648 O 263.272 1.76971 0.0321413 0
M  V30 2649 C 260.401 3.42439 -0.242991 0
M  V30 2650 C 259.487 4.04419 -1.27694 0
M  V30 2651 N 259.878 4.40979 -2.47732 0
M  V30 2652 C 258.176 4.31596 -1.12432 0
M  V30 2653 C 258.877 4.89784 -3.13826 0
M  V30 2654 N 257.853 4.87133 -2.41252 0
M  V30 2655 H 261.655 2.40415 -1.69049 0
M  V30 2656 H 259.169 1.26803 -1.01463 0
M  V30 2657 H 261.166 4.16889 0.0298496 0
M  V30 2658 H 259.826 3.17824 0.66467 0
M  V30 2659 H 260.837 4.32396 -2.85051 0
M  V30 2660 H 257.514 4.16595 -0.274684 0
M  V30 2661 H 258.904 5.2755 -4.16102 0
M  V30 2662 N 261.624 0.925811 1.2754 0
M  V30 2663 C 262.872 0.564138 1.94067 0
M  V30 2664 C 263.193 -0.897188 1.73134 0
M  V30 2665 O 262.463 -1.63573 1.07799 0
M  V30 2666 H 261.043 0.205645 0.718136 0
M  V30 2667 H 263.705 1.1778 1.55287 0
M  V30 2668 H 262.801 0.76881 3.02483 0
M  V30 2669 N 263.102 -1.41638 0.69111 0
M  V30 2670 C 264.035 -2.28183 -0.0274913 0
M  V30 2671 C 265.013 -1.41984 -0.792424 0
M  V30 2672 O 266.197 -1.71415 -0.784169 0
M  V30 2673 C 263.324 -3.22135 -1.04628 0
M  V30 2674 C 262.37 -4.24848 -0.375037 0
M  V30 2675 S 263.203 -5.28231 0.879321 0
M  V30 2676 C 264.359 -6.25748 -0.137983 0
M  V30 2677 H 264.592 -2.88782 0.706553 0
M  V30 2678 H 262.125 -1.46709 0.481222 0
M  V30 2679 H 264.083 -3.76797 -1.62894 0
M  V30 2680 H 262.744 -2.6064 -1.75287 0
M  V30 2681 H 261.937 -4.90837 -1.14433 0
M  V30 2682 H 261.539 -3.73758 0.134434 0
M  V30 2683 H 263.831 -6.70188 -0.992659 0
M  V30 2684 H 264.774 -7.06417 0.487867 0
M  V30 2685 H 265.182 -5.62363 -0.490762 0
M  V30 2686 N 264.58 -0.43555 -1.51462 0
M  V30 2687 C 265.543 0.365137 -2.26273 0
M  V30 2688 C 266.543 0.951227 -1.29647 0
M  V30 2689 O 267.733 0.825958 -1.53374 0
M  V30 2690 C 264.865 1.51645 -3.05314 0
M  V30 2691 H 266.058 -0.290474 -2.9849 0
M  V30 2692 H 263.611 -0.188676 -1.55157 0
M  V30 2693 H 264.346 2.20816 -2.3751 0
M  V30 2694 H 264.131 1.10238 -3.76284 0
M  V30 2695 H 265.621 2.08218 -3.61987 0
M  V30 2696 N 266.058 1.56714 -0.166846 0
M  V30 2697 C 266.99 2.14914 0.796537 0
M  V30 2698 C 268.003 1.10357 1.19688 0
M  V30 2699 O 269.192 1.37561 1.13751 0
M  V30 2700 C 266.292 2.67326 2.08303 0
M  V30 2701 C 265.465 3.96493 1.84696 0
M  V30 2702 C 264.524 4.34014 2.97521 0
M  V30 2703 O 263.55 5.01973 2.6835 0
M  V30 2704 N 264.752 3.95208 4.25196 0
M  V30 2705 H 267.517 2.98205 0.299006 0
M  V30 2706 H 265.078 1.61892 0.0160839 0
M  V30 2707 H 267.07 2.89428 2.82867 0
M  V30 2708 H 265.64 1.88649 2.4926 0
M  V30 2709 H 264.86 3.82814 0.940602 0
M  V30 2710 H 266.148 4.8086 1.66285 0
M  V30 2711 H 265.546 3.40487 4.51758 0
M  V30 2712 H 264.103 4.2232 4.96477 0
M  V30 2713 N 267.536 -0.106894 1.57237 0
M  V30 2714 C 268.947 -0.662723 1.74542 0
M  V30 2715 C 269.298 -1.7971 0.787319 0
M  V30 2716 O 268.423 -2.16368 -0.0369636 0
M  V30 2717 C 269.018 -1.20896 3.16496 0
M  V30 2718 C 267.577 -1.71096 3.35266 0
M  V30 2719 C 266.724 -0.615642 2.7038 0
M  V30 2720 H 269.675 0.119106 1.58252 0
M  V30 2721 H 269.696 -2.07847 3.18716 0
M  V30 2722 H 269.208 -0.383122 3.86204 0
M  V30 2723 H 267.309 -2.56119 2.70618 0
M  V30 2724 H 267.422 -1.81208 4.43509 0
M  V30 2725 H 265.786 -1.05222 2.31949 0
M  V30 2726 H 266.569 0.199419 3.4272 0
M  V30 2727 N 269.014 -1.53014 -0.377408 0
M  V30 2728 C 270.239 -1.72818 -1.14668 0
M  V30 2729 C 270.664 -0.450725 -1.8262 0
M  V30 2730 O 270.022 0.59439 -1.7128 0
M  V30 2731 C 270.07 -2.88627 -2.16164 0
M  V30 2732 O 269.174 -2.56409 -3.22998 0
M  V30 2733 H 268.515 -0.574301 -0.333278 0
M  V30 2734 H 271.045 -1.99853 -0.438152 0
M  V30 2735 H 271.055 -3.14455 -2.59966 0
M  V30 2736 H 269.73 -3.81294 -1.66095 0
M  V30 2737 H 268.307 -2.4136 -2.84253 0
M  V30 2738 N 270.492 0.636531 -1.44174 0
M  V30 2739 C 271.424 1.7618 -1.46606 0
M  V30 2740 C 272.437 1.58768 -0.360091 0
M  V30 2741 O 273.626 1.67181 -0.625518 0
M  V30 2742 C 270.726 3.13833 -1.27915 0
M  V30 2743 C 269.899 3.57753 -2.51658 0
M  V30 2744 C 268.958 4.74265 -2.27945 0
M  V30 2745 O 267.984 4.82852 -3.01401 0
M  V30 2746 N 269.186 5.65604 -1.30662 0
M  V30 2747 H 271.951 1.74567 -2.43612 0
M  V30 2748 H 269.512 0.820924 -1.39544 0
M  V30 2749 H 271.504 3.8949 -1.09907 0
M  V30 2750 H 270.074 3.10121 -0.39293 0
M  V30 2751 H 269.294 2.72362 -2.84978 0
M  V30 2752 H 270.582 3.83847 -3.33974 0
M  V30 2753 H 269.98 5.61354 -0.699844 0
M  V30 2754 H 268.537 6.40913 -1.18634 0
M  V30 2755 N 271.97 1.30982 0.876444 0
M  V30 2756 C 272.918 1.18006 2.00443 0
M  V30 2757 C 273.912 0.0898871 1.69161 0
M  V30 2758 O 275.118 0.251333 1.78237 0
M  V30 2759 H 271.493 0.365196 0.65737 0
M  V30 2760 H 273.464 2.13453 2.0852 0
M  V30 2761 C 272.213 0.897521 3.35916 0
M  V30 2762 H 271.536 1.7285 3.60504 0
M  V30 2763 H 272.976 0.846874 4.15456 0
M  V30 2764 C 271.435 -0.399674 3.34521 0
M  V30 2765 O 271.965 -1.41852 3.7582 0
M  V30 2766 N 270.171 -0.413893 2.87637 0
M  V30 2767 H 269.718 0.41571 2.54224 0
M  V30 2768 H 269.676 -1.28175 2.87086 0
M  V30 2769 N 273.449 -1.08991 1.13837 0
M  V30 2770 C 274.397 -2.17841 0.815347 0
M  V30 2771 C 275.391 -1.68164 -0.204233 0
M  V30 2772 O 276.597 -1.79897 -0.0609304 0
M  V30 2773 H 272.972 -0.710654 0.245915 0
M  V30 2774 H 274.943 -2.42315 1.74143 0
M  V30 2775 C 273.692 -3.46381 0.302614 0
M  V30 2776 H 273.015 -3.84979 1.0785 0
M  V30 2777 H 274.455 -4.23844 0.115074 0
M  V30 2778 C 272.914 -3.22556 -0.972591 0
M  V30 2779 O 273.444 -3.45599 -2.04754 0
M  V30 2780 N 271.65 -2.76134 -0.905455 0
M  V30 2781 H 271.197 -2.57582 -0.0305421 0
M  V30 2782 H 271.155 -2.60571 -1.75926 0
M  V30 2783 N 274.927 -0.932562 -1.27047 0
M  V30 2784 C 276.157 -0.591173 -1.97961 0
M  V30 2785 C 276.565 0.836219 -1.69717 0
M  V30 2786 O 275.908 1.56801 -0.957036 0
M  V30 2787 C 275.97 -0.743082 -3.51736 0
M  V30 2788 C 275.634 -2.1435 -4.03613 0
M  V30 2789 C 276.631 -3.11815 -4.16014 0
M  V30 2790 C 274.316 -2.46175 -4.37839 0
M  V30 2791 C 276.31 -4.39211 -4.61923 0
M  V30 2792 C 273.997 -3.73806 -4.83438 0
M  V30 2793 C 274.995 -4.70137 -4.95439 0
M  V30 2794 O 274.683 -5.95496 -5.40037 0
M  V30 2795 H 274.415 -0.222375 -0.638377 0
M  V30 2796 H 276.969 -1.25317 -1.62742 0
M  V30 2797 H 275.199 -0.0239739 -3.86693 0
M  V30 2798 H 276.888 -0.40603 -4.03864 0
M  V30 2799 H 277.654 -2.88549 -3.89826 0
M  V30 2800 H 273.533 -1.71936 -4.27737 0
M  V30 2801 H 277.077 -5.14404 -4.71205 0
M  V30 2802 H 272.974 -3.96888 -5.09068 0
M  V30 2803 H 273.742 -5.98554 -5.58279 0
M  V30 2804 N 276.405 1.4127 -0.698611 0
M  V30 2805 C 277.651 2.01979 -0.239972 0
M  V30 2806 C 278.006 1.54353 1.14861 0
M  V30 2807 O 277.299 0.746218 1.76471 0
M  V30 2808 C 277.493 3.56592 -0.240192 0
M  V30 2809 C 277.322 4.19226 -1.62726 0
M  V30 2810 C 276.092 4.53389 -2.23084 0
M  V30 2811 C 278.29 4.45228 -2.57443 0
M  V30 2812 N 276.272 5.01327 -3.54323 0
M  V30 2813 C 277.643 4.94973 -3.73365 0
M  V30 2814 C 279.698 4.27243 -2.55671 0
M  V30 2815 C 278.401 5.28624 -4.878 0
M  V30 2816 C 280.427 4.61985 -3.69221 0
M  V30 2817 C 279.789 5.11904 -4.83873 0
M  V30 2818 H 275.888 0.770561 -0.133269 0
M  V30 2819 H 278.472 1.71767 -0.916748 0
M  V30 2820 H 276.643 3.86271 0.406082 0
M  V30 2821 H 278.375 4.04025 0.23356 0
M  V30 2822 H 275.13 4.39946 -1.75341 0
M  V30 2823 H 275.554 5.29697 -4.21604 0
M  V30 2824 H 280.196 3.87884 -1.68243 0
M  V30 2825 H 277.914 5.66905 -5.75885 0
M  V30 2826 H 281.5 4.49725 -3.69105 0
M  V30 2827 H 280.38 5.38282 -5.70282 0
M  V30 2828 N 277.883 0.443576 1.51229 0
M  V30 2829 C 278.83 -0.364716 2.279 0
M  V30 2830 C 279.8 -1.0114 1.31757 0
M  V30 2831 O 280.985 -1.02912 1.60667 0
M  V30 2832 C 278.125 -1.45644 3.12861 0
M  V30 2833 C 277.238 -0.827269 4.24005 0
M  V30 2834 C 276.373 -1.89456 4.96266 0
M  V30 2835 C 275.412 -1.24416 5.99322 0
M  V30 2836 N 274.549 -2.25309 6.64966 0
M  V30 2837 H 279.389 0.295464 2.96532 0
M  V30 2838 H 276.926 0.157554 1.46254 0
M  V30 2839 H 278.884 -2.10076 3.6045 0
M  V30 2840 H 277.514 -2.08616 2.46331 0
M  V30 2841 H 276.566 -0.0710839 3.80334 0
M  V30 2842 H 277.878 -0.312481 4.9782 0
M  V30 2843 H 277.032 -2.61535 5.47434 0
M  V30 2844 H 275.771 -2.4431 4.22095 0
M  V30 2845 H 274.776 -0.508868 5.4744 0
M  V30 2846 H 276.001 -0.702882 6.75453 0
M  V30 2847 H 273.947 -2.79231 5.93604 0
M  V30 2848 H 273.864 -1.78739 7.34567 0
M  V30 2849 H 275.132 -2.96853 7.20763 0
M  V30 2850 N 279.361 -1.56624 0.175154 0
M  V30 2851 C 280.324 -2.16934 -0.739738 0
M  V30 2852 C 281.324 -1.11842 -1.15533 0
M  V30 2853 O 282.514 -1.37335 -1.07167 0
M  V30 2854 C 279.646 -2.75531 -2.00738 0
M  V30 2855 H 280.839 -2.99131 -0.214639 0
M  V30 2856 H 278.392 -1.56123 -0.0744197 0
M  V30 2857 H 279.127 -1.97078 -2.57548 0
M  V30 2858 H 278.912 -3.52444 -1.71831 0
M  V30 2859 H 280.402 -3.21904 -2.66021 0
M  V30 2860 N 280.839 0.0985539 -1.57292 0
M  V30 2861 C 281.772 1.15082 -1.97057 0
M  V30 2862 C 282.75 1.39025 -0.843255 0
M  V30 2863 O 283.934 1.52842 -1.10325 0
M  V30 2864 C 281.061 2.50069 -2.28437 0
M  V30 2865 C 280.107 2.42428 -3.509 0
M  V30 2866 S 280.94 1.84414 -5.02744 0
M  V30 2867 C 282.096 3.21032 -5.37298 0
M  V30 2868 H 282.329 0.811815 -2.86002 0
M  V30 2869 H 279.862 0.306102 -1.51335 0
M  V30 2870 H 281.82 3.27729 -2.47192 0
M  V30 2871 H 280.481 2.8114 -1.40069 0
M  V30 2872 H 279.674 3.41911 -3.70288 0
M  V30 2873 H 279.276 1.72896 -3.31637 0
M  V30 2874 H 281.568 4.17297 -5.33731 0
M  V30 2875 H 282.511 3.06452 -6.38352 0
M  V30 2876 H 282.919 3.20404 -4.64759 0
M  V30 2877 N 282.317 1.53212 0.369288 0
M  V30 2878 C 283.227 1.82342 1.47609 0
M  V30 2879 C 284.243 0.711532 1.58787 0
M  V30 2880 O 285.419 1.0012 1.74751 0
M  V30 2881 C 282.484 2.00393 2.8292 0
M  V30 2882 C 281.545 3.24297 2.81301 0
M  V30 2883 C 280.778 3.41478 4.10157 0
M  V30 2884 O 281.001 2.63033 5.06132 0
M  V30 2885 O 279.935 4.34817 4.16194 0
M  V30 2886 H 283.761 2.76366 1.25918 0
M  V30 2887 H 281.346 1.38547 0.559034 0
M  V30 2888 H 283.228 2.13859 3.63101 0
M  V30 2889 H 281.903 1.09559 3.04596 0
M  V30 2890 H 280.81 3.16257 1.99831 0
M  V30 2891 H 282.143 4.15041 2.64578 0
M  V30 2892 N 283.795 -0.628877 1.44509 0
M  V30 2893 C 285.043 -1.38565 1.4712 0
M  V30 2894 C 285.364 -1.94712 0.105899 0
M  V30 2895 O 284.634 -1.75912 -0.862079 0
M  V30 2896 H 283.214 -0.514333 0.541729 0
M  V30 2897 H 285.876 -0.740018 1.80305 0
M  V30 2898 H 284.972 -2.21583 2.19789 0
M  V30 2899 N 285.273 -1.31445 -0.869486 0
M  V30 2900 C 286.522 -1.20517 -1.61736 0
M  V30 2901 C 286.835 0.235341 -1.94179 0
M  V30 2902 O 288.041 0.466312 -2.67465 0
M  V30 2903 C 286.497 -2.10982 -2.91573 0
M  V30 2904 C 286.105 -3.60032 -2.66611 0
M  V30 2905 C 287.849 -2.08856 -3.69567 0
M  V30 2906 C 285.756 -4.42503 -3.92358 0
M  V30 2907 H 284.686 -0.447493 -0.606849 0
M  V30 2908 H 287.337 -1.56303 -0.96133 0
M  V30 2909 H 285.719 -1.68095 -3.58553 0
M  V30 2910 H 286.893 -4.11167 -2.08035 0
M  V30 2911 H 285.208 -3.64139 -2.0197 0
M  V30 2912 H 287.805 -2.67716 -4.62852 0
M  V30 2913 H 288.148 -1.07582 -4.02159 0
M  V30 2914 H 288.681 -2.49945 -3.09471 0
M  V30 2915 H 285.42 -5.44533 -3.64916 0
M  V30 2916 H 284.94 -3.96125 -4.50383 0
M  V30 2917 H 286.619 -4.54741 -4.60238 0
M  V30 2918 N 286.751 1.08385 -1.14413 0
M  V30 2919 C 287.998 1.80776 -0.912482 0
M  V30 2920 C 288.326 1.86236 0.560934 0
M  V30 2921 O 287.581 1.33431 1.43159 0
M  V30 2922 C 287.88 3.26273 -1.45879 0
M  V30 2923 C 287.546 3.4093 -2.95089 0
M  V30 2924 C 286.208 3.44638 -3.35824 0
M  V30 2925 C 288.56 3.44591 -3.91033 0
M  V30 2926 C 285.888 3.49597 -4.71167 0
M  V30 2927 C 288.24 3.51086 -5.26233 0
M  V30 2928 C 286.904 3.53067 -5.6648 0
M  V30 2929 H 286.174 0.661507 -0.333901 0
M  V30 2930 H 288.821 1.27613 -1.42784 0
M  V30 2931 H 287.126 3.82146 -0.864376 0
M  V30 2932 H 288.823 3.80839 -1.2555 0
M  V30 2933 H 285.413 3.38736 -2.62594 0
M  V30 2934 H 289.597 3.40957 -3.60641 0
M  V30 2935 H 284.853 3.49424 -5.0171 0
M  V30 2936 H 289.027 3.52864 -6.00383 0
M  V30 2937 H 286.654 3.56662 -6.71339 0
M  V30 2938 N 288.23 0.939286 1.26551 0
M  V30 2939 C 289.163 0.391702 2.24813 0
M  V30 2940 C 290.141 -0.518421 1.54114 0
M  V30 2941 O 291.325 -0.456299 1.82894 0
M  V30 2942 C 288.452 -0.437382 3.35864 0
M  V30 2943 C 287.498 0.410946 4.24516 0
M  V30 2944 S 288.331 1.83372 5.03125 0
M  V30 2945 C 289.487 1.01264 6.17654 0
M  V30 2946 H 289.72 1.22448 2.70913 0
M  V30 2947 H 287.253 0.742269 1.35387 0
M  V30 2948 H 289.211 -0.909837 4.0029 0
M  V30 2949 H 287.872 -1.24482 2.8838 0
M  V30 2950 H 287.065 -0.224191 5.03501 0
M  V30 2951 H 286.667 0.818014 3.64945 0
M  V30 2952 H 288.959 0.254023 6.77024 0
M  V30 2953 H 289.902 1.77589 6.85469 0
M  V30 2954 H 290.31 0.549532 5.61819 0
M  V30 2955 N 289.708 -1.40897 0.706093 0
M  V30 2956 C 290.655 -2.30751 0.0474474 0
M  V30 2957 C 291.625 -1.47678 -0.76029 0
M  V30 2958 O 292.81 -1.76441 -0.726177 0
M  V30 2959 C 289.95 -3.33815 -0.875309 0
M  V30 2960 C 289.063 -4.31961 -0.0580623 0
M  V30 2961 C 288.198 -5.22093 -0.979425 0
M  V30 2962 C 287.237 -6.11902 -0.155706 0
M  V30 2963 N 286.374 -6.94482 -1.03144 0
M  V30 2964 H 291.214 -2.86513 0.819413 0
M  V30 2965 H 288.751 -1.41102 0.415783 0
M  V30 2966 H 290.709 -3.92129 -1.42446 0
M  V30 2967 H 289.339 -2.79579 -1.61356 0
M  V30 2968 H 288.391 -3.75507 0.608147 0
M  V30 2969 H 289.703 -4.95415 0.580082 0
M  V30 2970 H 288.857 -5.85292 -1.59744 0
M  V30 2971 H 287.596 -4.5889 -1.65141 0
M  V30 2972 H 286.601 -5.47742 0.475309 0
M  V30 2973 H 287.826 -6.77162 0.512635 0
M  V30 2974 H 285.772 -6.33877 -1.68924 0
M  V30 2975 H 285.689 -7.54665 -0.449108 0
M  V30 2976 H 286.957 -7.6214 -1.63593 0
M  V30 2977 N 291.186 -0.45159 -1.50991 0
M  V30 2978 C 292.597 0.00818571 -1.86698 0
M  V30 2979 C 292.948 1.40661 -1.3678 0
M  V30 2980 O 292.073 2.0391 -0.724546 0
M  V30 2981 C 292.668 0.0216303 -3.38793 0
M  V30 2982 C 291.227 0.425865 -3.73983 0
M  V30 2983 C 290.374 -0.372163 -2.74791 0
M  V30 2984 H 293.325 -0.666785 -1.44013 0
M  V30 2985 H 293.346 0.828078 -3.7138 0
M  V30 2986 H 292.858 -0.996288 -3.75094 0
M  V30 2987 H 290.959 1.44886 -3.43277 0
M  V30 2988 H 291.072 0.140761 -4.78893 0
M  V30 2989 H 289.436 0.171498 -2.54122 0
M  V30 2990 H 290.219 -1.38922 -3.13935 0
M  V30 2991 N 292.664 1.56529 -0.183458 0
M  V30 2992 C 293.889 2.02064 0.467428 0
M  V30 2993 C 294.314 1.06282 1.55196 0
M  V30 2994 O 293.672 0.0443565 1.81246 0
M  V30 2995 C 293.72 3.46122 1.01153 0
M  V30 2996 O 292.824 3.53437 2.12499 0
M  V30 2997 H 292.165 0.654726 0.110588 0
M  V30 2998 H 294.695 2.02521 -0.290917 0
M  V30 2999 H 294.705 3.85676 1.33108 0
M  V30 3000 H 293.38 4.15331 0.217533 0
M  V30 3001 H 291.957 3.2575 1.81497 0
M  V30 3002 N 294.142 -0.090211 1.57342 0
M  V30 3003 C 295.052 -1.12735 2.05738 0
M  V30 3004 C 296.068 -1.43557 0.983231 0
M  V30 3005 O 297.244 -1.54101 1.29672 0
M  V30 3006 C 294.309 -2.42659 2.47624 0
M  V30 3007 C 293.37 -2.18975 3.69254 0
M  V30 3008 C 292.603 -3.42704 4.09133 0
M  V30 3009 O 292.826 -4.51127 3.49057 0
M  V30 3010 O 291.76 -3.32003 5.02053 0
M  V30 3011 H 295.586 -0.746279 2.94388 0
M  V30 3012 H 293.171 -0.303064 1.46294 0
M  V30 3013 H 295.053 -3.19155 2.7517 0
M  V30 3014 H 293.728 -2.80182 1.62109 0
M  V30 3015 H 292.635 -1.40244 3.46818 0
M  V30 3016 H 293.968 -1.86342 4.55563 0
M  V30 3017 N 295.62 -1.53406 -0.361157 0
M  V30 3018 C 296.55 -1.83136 -1.44857 0
M  V30 3019 C 297.531 -0.685174 -1.5569 0
M  V30 3020 O 298.716 -0.93544 -1.70186 0
M  V30 3021 C 295.846 -2.02522 -2.82138 0
M  V30 3022 C 294.8 -3.18302 -2.86126 0
M  V30 3023 C 294.126 -3.22989 -4.26125 0
M  V30 3024 C 295.426 -4.56796 -2.53248 0
M  V30 3025 H 297.12 -2.74201 -1.20226 0
M  V30 3026 H 294.666 -1.31938 -0.576922 0
M  V30 3027 H 296.619 -2.21904 -3.58241 0
M  V30 3028 H 295.343 -1.08172 -3.08166 0
M  V30 3029 H 294.002 -2.98747 -2.12475 0
M  V30 3030 H 293.65 -2.26267 -4.49235 0
M  V30 3031 H 293.35 -4.00781 -4.29708 0
M  V30 3032 H 294.874 -3.44559 -5.04094 0
M  V30 3033 H 296.288 -4.7631 -3.19064 0
M  V30 3034 H 294.685 -5.36862 -2.68141 0
M  V30 3035 H 295.755 -4.61606 -1.48484 0
M  V30 3036 N 297.098 0.621204 -1.44841 0
M  V30 3037 C 298.028 1.74366 -1.55303 0
M  V30 3038 C 299.009 1.65199 -0.405385 0
M  V30 3039 O 300.194 1.83807 -0.626787 0
M  V30 3040 C 297.324 3.12931 -1.50637 0
M  V30 3041 C 296.278 3.36896 -2.63979 0
M  V30 3042 C 295.604 4.75594 -2.44366 0
M  V30 3043 C 296.904 3.28483 -4.06074 0
M  V30 3044 H 298.598 1.65867 -2.49256 0
M  V30 3045 H 296.144 0.796558 -1.19962 0
M  V30 3046 H 298.097 3.9124 -1.56555 0
M  V30 3047 H 296.821 3.22237 -0.532057 0
M  V30 3048 H 295.48 2.60972 -2.57467 0
M  V30 3049 H 295.128 4.81616 -1.45105 0
M  V30 3050 H 294.828 4.92586 -3.20364 0
M  V30 3051 H 296.352 5.5612 -2.52117 0
M  V30 3052 H 297.766 3.96684 -4.13902 0
M  V30 3053 H 296.163 3.57008 -4.82354 0
M  V30 3054 H 297.233 2.26133 -4.28943 0
M  V30 3055 N 298.576 1.31904 0.862503 0
M  V30 3056 C 299.523 1.20182 1.9704 0
M  V30 3057 C 300.493 0.0858247 1.65878 0
M  V30 3058 O 301.678 0.26 1.8902 0
M  V30 3059 C 298.818 0.922797 3.32533 0
M  V30 3060 C 297.931 2.12284 3.76244 0
M  V30 3061 C 297.066 1.77996 5.00491 0
M  V30 3062 C 296.105 2.94366 5.36671 0
M  V30 3063 N 295.242 2.60223 6.52095 0
M  V30 3064 H 300.082 2.14951 2.06398 0
M  V30 3065 H 297.619 1.06917 1.01031 0
M  V30 3066 H 299.577 0.741548 4.10557 0
M  V30 3067 H 298.207 0.0119227 3.22798 0
M  V30 3068 H 297.259 2.41461 2.9394 0
M  V30 3069 H 298.571 2.99357 3.98982 0
M  V30 3070 H 297.725 1.56377 5.862 0
M  V30 3071 H 296.464 0.881252 4.79672 0
M  V30 3072 H 295.469 3.16625 4.49476 0
M  V30 3073 H 296.694 3.84957 5.59451 0
M  V30 3074 H 294.64 1.72884 6.32809 0
M  V30 3075 H 294.557 3.40827 6.74814 0
M  V30 3076 H 295.825 2.42016 7.40978 0
M  V30 3077 N 300.054 -1.07777 1.14986 0
M  V30 3078 C 301.017 -2.13041 0.845358 0
M  V30 3079 C 302.017 -1.60071 -0.152931 0
M  V30 3080 O 303.207 -1.74033 0.0761879 0
M  V30 3081 C 300.339 -3.39896 0.261383 0
M  V30 3082 H 301.532 -2.41485 1.77834 0
M  V30 3083 H 299.085 -1.23595 0.956757 0
M  V30 3084 H 299.82 -3.17091 -0.68 0
M  V30 3085 H 299.605 -3.79642 0.980514 0
M  V30 3086 H 301.095 -4.17548 0.0657687 0
M  V30 3087 N 301.532 -0.945985 -1.26051 0
M  V30 3088 C 302.442 -0.465633 -2.29933 0
M  V30 3089 C 303.458 0.462761 -1.67733 0
M  V30 3090 O 304.634 0.341118 -1.9849 0
M  V30 3091 C 301.699 0.256994 -3.45746 0
M  V30 3092 C 300.76 -0.708549 -4.23412 0
M  V30 3093 C 299.993 -0.0203135 -5.33696 0
M  V30 3094 O 300.216 1.19571 -5.57726 0
M  V30 3095 O 299.15 -0.701459 -5.97799 0
M  V30 3096 H 302.976 -1.32866 -2.73094 0
M  V30 3097 H 300.561 -0.712071 -1.31339 0
M  V30 3098 H 302.443 0.663852 -4.16138 0
M  V30 3099 H 301.118 1.09533 -3.04605 0
M  V30 3100 H 300.025 -1.16545 -3.55483 0
M  V30 3101 H 301.358 -1.51465 -4.68315 0
M  V30 3102 N 303.011 1.40521 -0.713556 0
M  V30 3103 C 303.974 2.29098 -0.0684347 0
M  V30 3104 C 304.974 1.45268 0.689472 0
M  V30 3105 O 306.164 1.66205 0.521677 0
M  V30 3106 C 303.296 3.28446 0.913024 0
M  V30 3107 H 304.489 2.87645 -0.84855 0
M  V30 3108 H 302.042 1.48809 -0.47809 0
M  V30 3109 H 302.777 2.74913 1.72027 0
M  V30 3110 H 302.562 3.90327 0.372472 0
M  V30 3111 H 304.052 3.94777 1.36165 0
M  V30 3112 N 304.489 0.459591 1.5075 0
M  V30 3113 C 305.439 -0.358926 2.25157 0
M  V30 3114 C 306.423 -0.971285 1.28276 0
M  V30 3115 O 307.615 -0.885739 1.53244 0
M  V30 3116 C 304.744 -1.44695 3.11317 0
M  V30 3117 C 303.83 -0.842894 4.15639 0
M  V30 3118 N 304.221 0.0299373 5.05791 0
M  V30 3119 C 302.519 -1.10809 4.32015 0
M  V30 3120 C 303.22 0.371563 5.80512 0
M  V30 3121 N 302.196 -0.250409 5.43023 0
M  V30 3122 H 305.998 0.313636 2.92222 0
M  V30 3123 H 303.512 0.273021 1.60089 0
M  V30 3124 H 305.509 -2.04641 3.63218 0
M  V30 3125 H 304.169 -2.12162 2.45799 0
M  V30 3126 H 305.18 0.39797 5.16369 0
M  V30 3127 H 301.857 -1.7786 3.77719 0
M  V30 3128 H 303.247 1.08319 6.63111 0
M  V30 3129 N 305.967 -1.56429 0.191757 0
M  V30 3130 C 306.917 -2.15548 -0.743184 0
M  V30 3131 C 307.901 -1.09531 -1.17863 0
M  V30 3132 O 309.093 -1.35602 -1.13759 0
M  V30 3133 C 306.222 -2.81577 -1.96391 0
M  V30 3134 C 305.308 -3.9478 -1.54951 0
M  V30 3135 N 305.699 -4.98677 -0.845876 0
M  V30 3136 C 303.997 -4.06319 -1.83905 0
M  V30 3137 C 304.698 -5.78183 -0.638724 0
M  V30 3138 N 303.674 -5.30495 -1.18643 0
M  V30 3139 H 307.476 -2.9324 -0.196839 0
M  V30 3140 H 304.99 -1.62398 -0.0081603 0
M  V30 3141 H 306.987 -3.22321 -2.64415 0
M  V30 3142 H 305.647 -2.05371 -2.51501 0
M  V30 3143 H 306.658 -5.15464 -0.501704 0
M  V30 3144 H 303.335 -3.41238 -2.40548 0
M  V30 3145 H 304.725 -6.71851 -0.0807929 0
M  V30 3146 N 307.445 0.0818655 -1.57387 0
M  V30 3147 C 308.408 1.08265 -2.02018 0
M  V30 3148 C 309.408 1.32183 -0.915664 0
M  V30 3149 O 310.598 1.28073 -1.18081 0
M  V30 3150 C 307.73 2.42871 -2.39221 0
M  V30 3151 H 308.923 0.698204 -2.91659 0
M  V30 3152 H 306.476 0.327303 -1.52835 0
M  V30 3153 H 307.211 2.86167 -1.52575 0
M  V30 3154 H 306.996 2.26855 -3.19811 0
M  V30 3155 H 308.486 3.14826 -2.74362 0
M  V30 3156 N 308.923 1.53595 0.353017 0
M  V30 3157 C 309.833 1.83897 1.45667 0
M  V30 3158 C 310.849 0.728334 1.58023 0
M  V30 3159 O 312.025 1.01968 1.73679 0
M  V30 3160 C 309.09 2.03383 2.80778 0
M  V30 3161 C 308.151 3.27262 2.77845 0
M  V30 3162 C 307.384 3.45809 4.06512 0
M  V30 3163 O 307.607 2.68387 5.03314 0
M  V30 3164 O 306.541 4.39207 4.11559 0
M  V30 3165 H 310.367 2.77686 1.2298 0
M  V30 3166 H 307.952 1.39132 0.544308 0
M  V30 3167 H 309.834 2.17698 3.60812 0
M  V30 3168 H 308.509 1.12783 3.03417 0
M  V30 3169 H 307.416 3.18359 1.96465 0
M  V30 3170 H 308.749 4.17824 2.60161 0
M  V30 3171 N 310.401 -0.613514 1.45168 0
M  V30 3172 C 311.331 -1.7354 1.56225 0
M  V30 3173 C 312.312 -1.64981 0.41414 0
M  V30 3174 O 313.497 -1.83472 0.636526 0
M  V30 3175 C 310.627 -3.12128 1.52295 0
M  V30 3176 C 309.581 -3.35491 2.65762 0
M  V30 3177 C 308.907 -4.74291 2.46885 0
M  V30 3178 C 310.207 -3.26325 4.0781 0
M  V30 3179 H 311.901 -1.64543 2.50132 0
M  V30 3180 H 309.447 -0.790185 1.20383 0
M  V30 3181 H 311.4 -3.90404 1.58628 0
M  V30 3182 H 310.124 -3.2195 0.549139 0
M  V30 3183 H 308.783 -2.59603 2.58847 0
M  V30 3184 H 308.431 -4.80839 1.47657 0
M  V30 3185 H 308.131 -4.9088 3.22972 0
M  V30 3186 H 309.655 -5.54775 2.55063 0
M  V30 3187 H 311.069 -3.94483 4.16 0
M  V30 3188 H 309.466 -3.54445 4.8424 0
M  V30 3189 H 310.536 -2.23855 4.30136 0
M  V30 3190 O 311.918 -1.42644 -0.757294 0
M  V30 3191 H 312.609 -1.33267 -1.40569 0
M  V30 END ATOM
M  V30 BEGIN BOND
M  V30 END BOND
M  V30 END CTAB
M  END
$$$$
