drugbank_target|Q99437 V-type proton ATPase 21 kDa proteolipid subunit (DB01133)
 OpenBabel12092121233D

  0  0  0     0  0            999 V3000
M  V30 BEGIN CTAB
M  V30 COUNTS 3055 3089 0 0 0
M  V30 BEGIN ATOM
M  V30 1 H -0.908 1.98254 -0.117106 0
M  V30 2 N 0 1.576 0 0
M  V30 3 C 0.933 2.03868 1.02534 0
M  V30 4 C 1.911 0.928543 1.3348 0
M  V30 5 O 3.095 1.19667 1.45644 0
M  V30 6 C 0.222 2.43627 2.35294 0
M  V30 7 C -0.732 3.65373 2.2001 0
M  V30 8 S 0.101 5.13292 1.52614 0
M  V30 9 C 1.257 5.56322 2.86805 0
M  V30 10 H 1.49 2.90518 0.631377 0
M  V30 11 H -0.977 1.52953 0.210867 0
M  V30 12 H 0.981 2.67203 3.11629 0
M  V30 13 H -0.358 1.57376 2.7183 0
M  V30 14 H -1.165 3.90944 3.18086 0
M  V30 15 H -1.563 3.418 1.51819 0
M  V30 16 H 0.729 5.58782 3.83104 0
M  V30 17 H 1.672 6.56266 2.65933 0
M  V30 18 H 2.08 4.83886 2.90714 0
M  V30 19 N 1.4781 -0.272755 1.55222 0
M  V30 20 C 2.7061 -1.02255 1.79865 0
M  V30 21 C 3.1211 -1.79924 0.572088 0
M  V30 22 O 2.4781 -1.76638 -0.458842 0
M  V30 23 C 2.5291 -1.98094 3.02392 0
M  V30 24 O 2.2501 -1.23572 4.20311 0
M  V30 25 C 3.7511 -2.84884 3.39641 0
M  V30 26 H 0.9711 -0.302057 0.599168 0
M  V30 27 H 3.5151 -0.303465 2.02236 0
M  V30 28 H 1.6701 -2.65465 2.82147 0
M  V30 29 H 2.0841 -1.88172 4.89583 0
M  V30 30 H 3.5581 -3.47927 4.28545 0
M  V30 31 H 4.0351 -3.54665 2.59055 0
M  V30 32 H 4.6411 -2.23003 3.62146 0
M  V30 33 N 2.9562 -1.48159 -0.537278 0
M  V30 34 C 4.2042 -1.55497 -1.29094 0
M  V30 35 C 4.5252 -0.227454 -1.93669 0
M  V30 36 O 3.7952 0.750386 -1.80959 0
M  V30 37 H 2.3752 -0.572832 -0.47945 0
M  V30 38 H 5.0372 -1.84579 -0.625818 0
M  V30 39 H 4.1332 -2.33216 -2.07405 0
M  V30 40 N 4.4343 0.785586 -1.36625 0
M  V30 41 C 5.3643 1.91259 -1.33949 0
M  V30 42 C 6.3453 1.68795 -0.210325 0
M  V30 43 O 7.5303 1.89854 -0.408561 0
M  V30 44 C 4.6603 3.28339 -1.13186 0
M  V30 45 C 3.6143 3.65335 -2.22967 0
M  V30 46 C 2.9403 5.00806 -1.87342 0
M  V30 47 C 4.2403 3.7352 -3.65075 0
M  V30 48 H 5.9343 1.93755 -2.28253 0
M  V30 49 H 3.4803 0.930788 -1.09874 0
M  V30 50 H 5.4333 4.06804 -1.09948 0
M  V30 51 H 4.1573 3.2624 -0.153332 0
M  V30 52 H 2.8163 2.89169 -2.25337 0
M  V30 53 H 2.4643 4.95233 -0.880545 0
M  V30 54 H 2.1643 5.26529 -2.60846 0
M  V30 55 H 3.6883 5.81687 -1.85667 0
M  V30 56 H 5.1023 4.42168 -3.64911 0
M  V30 57 H 3.4993 4.10731 -4.37516 0
M  V30 58 H 4.5693 2.74527 -3.99703 0
M  V30 59 N 5.9124 1.20967 1.01018 0
M  V30 60 C 6.8754 0.965918 2.07853 0
M  V30 61 C 7.8754 -0.0610545 1.60684 0
M  V30 62 O 9.0654 0.175681 1.73312 0
M  V30 63 C 6.1974 0.455513 3.37843 0
M  V30 64 H 7.3904 1.91365 2.3091 0
M  V30 65 H 4.9434 1.02594 1.17916 0
M  V30 66 H 5.6784 -0.497381 3.20463 0
M  V30 67 H 5.4634 1.19622 3.73407 0
M  V30 68 H 6.9534 0.304667 4.16487 0
M  V30 69 N 7.3905 -1.2043 1.01659 0
M  V30 70 C 8.3205 -2.25466 0.607226 0
M  V30 71 C 9.3015 -1.65853 -0.377716 0
M  V30 72 O 10.4865 -1.92409 -0.263149 0
M  V30 73 C 7.6165 -3.47256 -0.0552949 0
M  V30 74 C 6.5705 -4.19462 0.850632 0
M  V30 75 C 5.8965 -5.34673 0.0538859 0
M  V30 76 C 7.1965 -4.75603 2.15868 0
M  V30 77 H 8.8905 -2.59962 1.48526 0
M  V30 78 H 6.4365 -1.2496 0.715605 0
M  V30 79 H 8.3895 -4.19917 -0.353233 0
M  V30 80 H 7.1135 -3.11924 -0.968045 0
M  V30 81 H 5.7725 -3.48667 1.13257 0
M  V30 82 H 5.4205 -4.95585 -0.860514 0
M  V30 83 H 5.1205 -5.83913 0.657192 0
M  V30 84 H 6.6445 -6.10138 -0.237598 0
M  V30 85 H 8.0585 -5.40083 1.92311 0
M  V30 86 H 6.4555 -5.3528 2.71284 0
M  V30 87 H 7.5255 -3.94346 2.82169 0
M  V30 88 N 8.8686 -0.792821 -1.36206 0
M  V30 89 C 9.7986 -0.207853 -2.32573 0
M  V30 90 C 10.7796 0.659055 -1.56813 0
M  V30 91 O 11.9646 0.592176 -1.84951 0
M  V30 92 C 9.0946 0.655449 -3.41059 0
M  V30 93 C 8.0486 -0.111842 -4.27854 0
M  V30 94 C 7.3746 0.872274 -5.27537 0
M  V30 95 C 8.6746 -1.30299 -5.05786 0
M  V30 96 H 10.3686 -1.01294 -2.81744 0
M  V30 97 H 7.9146 -0.48854 -1.3546 0
M  V30 98 H 9.8676 1.07464 -4.07467 0
M  V30 99 H 8.5916 1.49328 -2.90463 0
M  V30 100 H 7.2506 -0.512053 -3.63006 0
M  V30 101 H 6.8986 1.70523 -4.73214 0
M  V30 102 H 6.5986 0.363291 -5.86476 0
M  V30 103 H 8.1226 1.28996 -5.96818 0
M  V30 104 H 9.5366 -0.959379 -5.65216 0
M  V30 105 H 7.9336 -1.7455 -5.74154 0
M  V30 106 H 9.0036 -2.09663 -4.37229 0
M  V30 107 N 10.3467 1.47872 -0.545128 0
M  V30 108 C 11.5767 2.06589 -0.0210534 0
M  V30 109 C 11.9847 1.39997 1.27269 0
M  V30 110 O 11.3277 0.486421 1.77143 0
M  V30 111 C 11.3897 3.58574 0.257933 0
M  V30 112 C 11.0537 4.47132 -0.944573 0
M  V30 113 C 12.0507 4.85986 -1.84699 0
M  V30 114 C 9.7357 4.88821 -1.15584 0
M  V30 115 C 11.7297 5.65314 -2.94446 0
M  V30 116 C 9.4167 5.67916 -2.25642 0
M  V30 117 C 10.4147 6.06073 -3.14905 0
M  V30 118 O 10.1027 6.83578 -4.23057 0
M  V30 119 H 9.8347 0.674971 -0.0372899 0
M  V30 120 H 12.3887 1.91037 -0.754599 0
M  V30 121 H 10.6187 3.72295 1.04564 0
M  V30 122 H 12.3077 3.99356 0.72592 0
M  V30 123 H 13.0737 4.54388 -1.69577 0
M  V30 124 H 8.9527 4.58595 -0.470279 0
M  V30 125 H 12.4967 5.95016 -3.64145 0
M  V30 126 H 8.3937 5.98927 -2.40742 0
M  V30 127 H 9.1617 7.01954 -4.20954 0
M  V30 128 N 11.8248 0.280983 1.55075 0
M  V30 129 C 13.0498 -0.340154 2.04592 0
M  V30 130 C 13.4748 -1.48246 1.15779 0
M  V30 131 O 12.8328 -1.80614 0.15761 0
M  V30 132 C 12.8808 -0.793104 3.5177 0
M  V30 133 O 11.9848 -1.89981 3.66034 0
M  V30 134 H 11.3258 -0.0694289 0.66036 0
M  V30 135 H 13.8558 0.416993 2.00306 0
M  V30 136 H 13.8658 -1.08729 3.93245 0
M  V30 137 H 12.5408 0.0426163 4.15878 0
M  V30 138 H 11.1178 -1.60771 3.36463 0
M  V30 139 N 13.3029 -1.57598 0.00835791 0
M  V30 140 C 14.5509 -1.90551 -0.6734 0
M  V30 141 C 14.8719 -0.883301 -1.73847 0
M  V30 142 O 14.1419 0.0781442 -1.95744 0
M  V30 143 H 12.7219 -0.703312 -0.251717 0
M  V30 144 H 15.3839 -1.94833 0.0512592 0
M  V30 145 H 14.4799 -2.9056 -1.13935 0
M  V30 146 N 14.781 0.264519 -1.55364 0
M  V30 147 C 16.027 0.99646 -1.76631 0
M  V30 148 C 16.36 1.85632 -0.570478 0
M  V30 149 O 15.635 1.89647 0.43175 0
M  V30 150 C 15.918 1.87187 -3.07625 0
M  V30 151 C 15.771 1.04138 -4.37579 0
M  V30 152 C 17.09 2.85749 -3.34717 0
M  V30 153 H 14.209 0.360841 -0.642622 0
M  V30 154 H 16.851 0.268218 -1.88097 0
M  V30 155 H 15.001 2.49279 -2.9798 0
M  V30 156 H 16.673 0.440517 -4.59192 0
M  V30 157 H 14.916 0.345115 -4.32425 0
M  V30 158 H 15.587 1.68729 -5.2558 0
M  V30 159 H 18.063 2.33793 -3.4421 0
M  V30 160 H 16.939 3.44136 -4.27623 0
M  V30 161 H 17.2 3.61311 -2.54768 0
M  V30 162 N 16.2591 1.48442 0.529413 0
M  V30 163 C 17.5061 1.56488 1.28521 0
M  V30 164 C 17.8341 0.239042 1.93025 0
M  V30 165 O 17.0891 -0.770713 1.79885 0
M  V30 166 C 17.3881 2.6523 2.39558 0
M  V30 167 C 17.0541 4.07648 1.92702 0
M  V30 168 C 15.7161 4.46411 1.79641 0
M  V30 169 C 18.0681 4.96896 1.573 0
M  V30 170 C 15.3961 5.72226 1.29514 0
M  V30 171 C 17.7481 6.23202 1.08636 0
M  V30 172 C 16.4121 6.60821 0.941919 0
M  V30 173 H 15.6821 0.572631 0.470292 0
M  V30 174 H 18.3291 1.82161 0.59072 0
M  V30 175 H 16.6341 2.33419 3.14679 0
M  V30 176 H 18.3311 2.68671 2.97686 0
M  V30 177 H 14.9211 3.77036 2.03819 0
M  V30 178 H 19.1051 4.67626 1.66251 0
M  V30 179 H 14.3611 6.00097 1.17019 0
M  V30 180 H 18.5351 6.91753 0.803136 0
M  V30 181 H 16.1621 7.58198 0.5513 0
M  V30 182 N 17.7372 -0.778329 1.37039 0
M  V30 183 C 18.9832 -1.53892 1.32079 0
M  V30 184 C 19.3162 -1.9396 -0.0965386 0
M  V30 185 O 18.5912 -1.63568 -1.05242 0
M  V30 186 C 18.8742 -2.80847 2.25382 0
M  V30 187 C 18.7272 -2.47076 3.75864 0
M  V30 188 C 20.0462 -3.82741 2.1725 0
M  V30 189 H 17.1652 -0.558303 0.48111 0
M  V30 190 H 19.8072 -0.893397 1.67685 0
M  V30 191 H 17.9572 -3.35931 1.95148 0
M  V30 192 H 19.6292 -1.97957 4.16666 0
M  V30 193 H 17.8722 -1.79863 3.94755 0
M  V30 194 H 18.5432 -3.37798 4.36574 0
M  V30 195 H 21.0192 -3.37133 2.43887 0
M  V30 196 H 19.8952 -4.69303 2.84686 0
M  V30 197 H 20.1562 -4.2652 1.16331 0
M  V30 198 N 19.2153 -1.21501 -1.00376 0
M  V30 199 C 20.1783 -0.976927 -2.07337 0
M  V30 200 C 21.1783 0.0525322 -1.60714 0
M  V30 201 O 22.3683 -0.184869 -1.73216 0
M  V30 202 C 19.5003 -0.473423 -3.37597 0
M  V30 203 H 20.6933 -1.92587 -2.29892 0
M  V30 204 H 18.2463 -1.03217 -1.17371 0
M  V30 205 H 18.9813 0.480379 -3.20722 0
M  V30 206 H 18.7663 -1.216 -3.72768 0
M  V30 207 H 20.2563 -0.32675 -4.1632 0
M  V30 208 N 20.6934 1.19889 -1.02296 0
M  V30 209 C 21.9404 1.8942 -0.715972 0
M  V30 210 C 22.2684 1.79251 0.754944 0
M  V30 211 O 21.5234 1.17526 1.56481 0
M  V30 212 C 21.8224 3.39883 -1.10518 0
M  V30 213 C 21.4884 3.70254 -2.57337 0
M  V30 214 C 20.1504 3.78254 -2.97452 0
M  V30 215 C 22.5024 3.84052 -3.52354 0
M  V30 216 C 19.8304 3.97514 -4.31509 0
M  V30 217 C 22.1824 4.04824 -4.86108 0
M  V30 218 C 20.8464 4.11054 -5.25919 0
M  V30 219 H 20.1164 0.693138 -0.261993 0
M  V30 220 H 22.7634 1.42012 -1.28472 0
M  V30 221 H 21.0684 3.8915 -0.454953 0
M  V30 222 H 22.7654 3.9199 -0.845261 0
M  V30 223 H 19.3554 3.64632 -2.25258 0
M  V30 224 H 23.5394 3.77221 -3.22518 0
M  V30 225 H 18.7954 4.00574 -4.61898 0
M  V30 226 H 22.9694 4.14442 -5.59653 0
M  V30 227 H 20.5964 4.2573 -6.29808 0
M  V30 228 N 22.1715 0.800033 1.35784 0
M  V30 229 C 23.4175 0.38701 1.99684 0
M  V30 230 C 23.7725 -1.03268 1.62338 0
M  V30 231 O 23.0655 -1.70543 0.87325 0
M  V30 232 C 23.2595 0.500276 3.53881 0
M  V30 233 C 23.0885 1.92942 4.06206 0
M  V30 234 C 21.8585 2.55637 4.35865 0
M  V30 235 C 24.0565 2.89307 4.25213 0
M  V30 236 N 22.0385 3.9003 4.74078 0
M  V30 237 C 23.4095 4.08556 4.66349 0
M  V30 238 C 25.4645 2.86225 4.07406 0
M  V30 239 C 24.1675 5.25146 4.91543 0
M  V30 240 C 26.1935 4.02011 4.33752 0
M  V30 241 C 25.5555 5.20007 4.75155 0
M  V30 242 H 21.6545 0.189252 0.758754 0
M  V30 243 H 24.2385 1.03988 1.64604 0
M  V30 244 H 22.4095 -0.122568 3.88207 0
M  V30 245 H 24.1415 0.0624733 4.04652 0
M  V30 246 H 20.8965 2.07039 4.25948 0
M  V30 247 H 21.3205 4.59205 4.97454 0
M  V30 248 H 25.9625 1.96154 3.74544 0
M  V30 249 H 23.6805 6.15794 5.23281 0
M  V30 250 H 27.2665 4.00999 4.21534 0
M  V30 251 H 26.1465 6.08113 4.95145 0
M  V30 252 N 23.6496 -1.47581 0.552962 0
M  V30 253 C 24.6126 -2.28439 -0.186605 0
M  V30 254 C 25.6126 -1.36706 -0.84665 0
M  V30 255 O 26.8026 -1.59378 -0.703164 0
M  V30 256 C 23.9346 -3.16264 -1.2724 0
M  V30 257 H 25.1276 -2.95294 0.523609 0
M  V30 258 H 22.6806 -1.532 0.309745 0
M  V30 259 H 23.4156 -2.54091 -2.01514 0
M  V30 260 H 23.2006 -3.83769 -0.803968 0
M  V30 261 H 24.6906 -3.77198 -1.79196 0
M  V30 262 N 25.1277 -0.289203 -1.54924 0
M  V30 263 C 26.3677 0.324536 -2.01807 0
M  V30 264 C 26.7317 1.5199 -1.17316 0
M  V30 265 O 27.9327 2.20422 -1.53843 0
M  V30 266 C 26.2037 0.683578 -3.50802 0
M  V30 267 S 27.7627 1.28185 -4.19659 0
M  V30 268 H 24.5807 0.100236 -0.703899 0
M  V30 269 H 27.1827 -0.414325 -1.91059 0
M  V30 270 H 25.8867 -0.195073 -4.09936 0
M  V30 271 H 25.4177 1.45354 -3.65562 0
M  V30 272 H 27.4327 2.57006 -4.24456 0
M  V30 273 N 26.6058 1.57591 -0.0167156 0
M  V30 274 C 27.5688 2.08393 0.954204 0
M  V30 275 C 28.5688 0.996531 1.26198 0
M  V30 276 O 29.7588 1.25858 1.20438 0
M  V30 277 C 26.8908 2.5394 2.27436 0
M  V30 278 H 28.0838 2.95455 0.514451 0
M  V30 279 H 25.6368 1.54582 0.231089 0
M  V30 280 H 26.3718 1.70171 2.76066 0
M  V30 281 H 26.1568 3.33371 2.06412 0
M  V30 282 H 27.6468 2.93512 2.97053 0
M  V30 283 N 28.0839 -0.256276 1.55502 0
M  V30 284 C 29.0139 -1.32102 1.92539 0
M  V30 285 C 29.9949 -1.50684 0.789194 0
M  V30 286 O 31.1799 -1.63449 1.04872 0
M  V30 287 C 28.3099 -2.67752 2.21192 0
M  V30 288 C 27.2639 -2.63878 3.36975 0
M  V30 289 C 26.5899 -4.03236 3.51147 0
M  V30 290 C 27.8899 -2.21682 4.72921 0
M  V30 291 H 29.5839 -1.01351 2.81724 0
M  V30 292 H 27.1299 -0.486105 1.35547 0
M  V30 293 H 29.0829 -3.42365 2.45691 0
M  V30 294 H 27.8069 -3.0012 1.28824 0
M  V30 295 H 26.4659 -1.91722 3.12471 0
M  V30 296 H 26.1139 -4.32854 2.56216 0
M  V30 297 H 25.8139 -4.01535 4.29003 0
M  V30 298 H 27.3379 -4.79563 3.77957 0
M  V30 299 H 28.7519 -2.86023 4.96854 0
M  V30 300 H 27.1489 -2.3111 5.53812 0
M  V30 301 H 28.2189 -1.16833 4.70615 0
M  V30 302 N 29.562 -1.4872 -0.521534 0
M  V30 303 C 30.525 -1.63379 -1.60748 0
M  V30 304 C 31.525 -0.50661 -1.52611 0
M  V30 305 O 32.715 -0.772601 -1.5613 0
M  V30 306 C 29.847 -1.61192 -3.00383 0
M  V30 307 H 31.04 -2.60217 -1.49087 0
M  V30 308 H 28.593 -1.37444 -0.744235 0
M  V30 309 H 29.328 -0.65863 -3.17541 0
M  V30 310 H 29.113 -2.43032 -3.07698 0
M  V30 311 H 30.603 -1.7466 -3.7932 0
M  V30 312 N 31.0401 0.771051 -1.3745 0
M  V30 313 C 32.2861 1.5319 -1.32894 0
M  V30 314 C 32.6191 1.94008 0.0862511 0
M  V30 315 O 31.8941 1.64124 1.04373 0
M  V30 316 C 32.1771 2.79648 -2.26868 0
M  V30 317 C 32.0301 2.45079 -3.77169 0
M  V30 318 C 33.3491 3.81583 -2.19277 0
M  V30 319 H 30.4681 0.555744 -0.484064 0
M  V30 320 H 33.1101 0.884492 -1.68157 0
M  V30 321 H 31.2601 3.34891 -1.96926 0
M  V30 322 H 32.9321 1.95745 -4.1771 0
M  V30 323 H 31.1751 1.77767 -3.95704 0
M  V30 324 H 31.8461 3.35478 -4.38359 0
M  V30 325 H 34.3221 3.35835 -2.45671 0
M  V30 326 H 33.1981 4.67787 -2.87171 0
M  V30 327 H 33.4591 4.25897 -1.18592 0
M  V30 328 N 32.5182 1.22032 0.997298 0
M  V30 329 C 33.7662 1.04016 1.73278 0
M  V30 330 C 34.0872 -0.426255 1.90284 0
M  V30 331 O 33.3572 -1.30694 1.45931 0
M  V30 332 H 31.9372 0.381897 0.642 0
M  V30 333 H 34.5992 1.5347 1.20137 0
M  V30 334 H 33.6952 1.51441 2.72896 0
M  V30 335 N 33.9963 -1.19345 1.0293 0
M  V30 336 C 35.2423 -1.89318 0.727083 0
M  V30 337 C 35.5753 -1.79446 -0.742483 0
M  V30 338 O 34.8503 -1.1871 -1.54072 0
M  V30 339 C 35.1333 -3.40238 1.17942 0
M  V30 340 C 34.9863 -3.58979 2.71024 0
M  V30 341 C 36.3053 -4.33479 0.760548 0
M  V30 342 H 33.4243 -0.687475 0.265606 0
M  V30 343 H 36.0663 -1.40477 1.2793 0
M  V30 344 H 34.2163 -3.81964 0.709608 0
M  V30 345 H 35.8883 -3.26421 3.25955 0
M  V30 346 H 34.1313 -3.02018 3.11396 0
M  V30 347 H 34.8023 -4.64823 2.9773 0
M  V30 348 H 37.2783 -3.99469 1.16464 0
M  V30 349 H 36.1543 -5.37664 1.10493 0
M  V30 350 H 36.4153 -4.40813 -0.337063 0
M  V30 351 N 35.4744 -0.807222 -1.35358 0
M  V30 352 C 36.7144 -0.393534 -2.00576 0
M  V30 353 C 37.0784 1.0203 -1.62647 0
M  V30 354 O 38.2794 1.53603 -2.20589 0
M  V30 355 C 36.5504 -0.572017 -3.52793 0
M  V30 356 S 38.1094 -0.248845 -4.38094 0
M  V30 357 H 34.9274 -0.149425 -0.695121 0
M  V30 358 H 37.5294 -1.04961 -1.64935 0
M  V30 359 H 36.2334 -1.60097 -3.77885 0
M  V30 360 H 35.7644 0.099359 -3.93275 0
M  V30 361 H 37.7794 0.943253 -4.87152 0
M  V30 362 N 36.9525 1.47285 -0.560781 0
M  V30 363 C 38.1825 2.06555 -0.0429638 0
M  V30 364 C 38.5905 1.41339 1.25777 0
M  V30 365 O 37.9335 0.505182 1.76617 0
M  V30 366 C 37.9955 3.58827 0.219887 0
M  V30 367 C 37.6595 4.46105 -0.991944 0
M  V30 368 C 38.6565 4.84 -1.89843 0
M  V30 369 C 36.3415 4.87567 -1.20762 0
M  V30 370 C 38.3355 5.6216 -3.00425 0
M  V30 371 C 36.0225 5.65491 -2.31653 0
M  V30 372 C 37.0205 6.02699 -3.21315 0
M  V30 373 O 36.7085 6.79052 -4.30283 0
M  V30 374 H 36.4405 0.674537 -0.0444468 0
M  V30 375 H 38.9945 1.90225 -0.774818 0
M  V30 376 H 37.2245 3.73383 1.00609 0
M  V30 377 H 38.9135 4.00103 0.683522 0
M  V30 378 H 39.6795 4.52564 -1.74387 0
M  V30 379 H 35.5585 4.5807 -0.518893 0
M  V30 380 H 39.1025 5.9112 -3.70436 0
M  V30 381 H 34.9995 5.9634 -2.47081 0
M  V30 382 H 35.7675 6.9745 -4.28376 0
M  V30 383 N 38.4306 0.297415 1.54768 0
M  V30 384 C 39.6586 -0.315623 2.04478 0
M  V30 385 C 40.0736 -1.47792 1.17486 0
M  V30 386 O 39.4306 -1.81404 0.19971 0
M  V30 387 C 39.4816 -0.7753 3.53088 0
M  V30 388 O 39.2026 0.340732 4.36773 0
M  V30 389 C 40.7036 -1.45386 4.18781 0
M  V30 390 H 37.9236 -0.0690887 0.667434 0
M  V30 391 H 40.4676 0.436003 1.99798 0
M  V30 392 H 38.6226 -1.47696 3.58141 0
M  V30 393 H 39.0366 -0.0165035 5.24497 0
M  V30 394 H 40.5106 -1.72669 5.24299 0
M  V30 395 H 40.9876 -2.39275 3.68299 0
M  V30 396 H 41.5936 -0.795475 4.17795 0
M  V30 397 N 39.9087 -1.5758 0.0250728 0
M  V30 398 C 41.1577 -1.90811 -0.653767 0
M  V30 399 C 41.4707 -0.90273 -1.73523 0
M  V30 400 O 42.6767 -1.12614 -2.47043 0
M  V30 401 C 41.1327 -3.38804 -1.21409 0
M  V30 402 C 40.7407 -4.47692 -0.166126 0
M  V30 403 C 42.4847 -3.81108 -1.86967 0
M  V30 404 C 40.3917 -5.86779 -0.737856 0
M  V30 405 H 39.3217 -0.712063 -0.247956 0
M  V30 406 H 41.9727 -1.83281 0.0897137 0
M  V30 407 H 40.3547 -3.41252 -2.00905 0
M  V30 408 H 41.5287 -4.56797 0.606079 0
M  V30 409 H 39.8437 -4.14565 0.390466 0
M  V30 410 H 42.4407 -4.82375 -2.30692 0
M  V30 411 H 42.7837 -3.15953 -2.71071 0
M  V30 412 H 43.3167 -3.81065 -1.14167 0
M  V30 413 H 40.0557 -6.55468 0.0649577 0
M  V30 414 H 39.5757 -5.81288 -1.47864 0
M  V30 415 H 41.2547 -6.35223 -1.22884 0
M  V30 416 N 41.3868 0.248026 -1.55636 0
M  V30 417 C 42.6338 0.976224 -1.77415 0
M  V30 418 C 42.9618 1.85361 -0.589193 0
M  V30 419 O 42.2168 1.90973 0.427529 0
M  V30 420 C 42.5158 1.86819 -3.04686 0
M  V30 421 C 42.1818 1.14625 -4.36087 0
M  V30 422 C 40.8438 0.946723 -4.71795 0
M  V30 423 C 43.1958 0.634463 -5.17324 0
M  V30 424 C 40.5238 0.223091 -5.86276 0
M  V30 425 C 42.8758 -0.0756959 -6.32555 0
M  V30 426 C 41.5398 -0.286711 -6.66884 0
M  V30 427 H 40.8098 0.357226 -0.649208 0
M  V30 428 H 43.4568 0.246415 -1.89908 0
M  V30 429 H 41.7618 2.66502 -2.872 0
M  V30 430 H 43.4588 2.43329 -3.18735 0
M  V30 431 H 40.0488 1.3117 -4.08035 0
M  V30 432 H 44.2328 0.77616 -4.90193 0
M  V30 433 H 39.4888 0.0491185 -6.1138 0
M  V30 434 H 43.6628 -0.479899 -6.94745 0
M  V30 435 H 41.2898 -0.849389 -7.5544 0
M  V30 436 N 42.8649 1.48995 0.513639 0
M  V30 437 C 44.1419 1.48338 1.27495 0
M  V30 438 C 44.5219 0.204065 2.10111 0
M  V30 439 O 43.8699 -0.813881 2.13514 0
M  V30 440 C 44.0799 2.75498 2.14247 0
M  V30 441 C 45.4279 3.24484 2.73852 0
M  V30 442 O 46.4519 2.76528 2.24523 0
M  V30 443 O 45.3109 4.07974 3.6362 0
M  V30 444 H 42.4049 0.593149 0.576284 0
M  V30 445 H 44.9509 1.61246 0.528948 0
M  V30 446 H 43.7229 3.60109 1.53092 0
M  V30 447 H 43.3459 2.6539 2.96064 0
M  V30 448 N 44.343 -0.763751 1.37857 0
M  V30 449 C 45.273 -1.89103 1.36975 0
M  V30 450 C 46.254 -1.68439 0.237152 0
M  V30 451 O 47.439 -1.8918 0.438713 0
M  V30 452 C 44.569 -3.26496 1.18395 0
M  V30 453 C 43.523 -3.61741 2.28751 0
M  V30 454 C 42.849 -4.97762 1.95286 0
M  V30 455 C 44.149 -3.67665 3.70972 0
M  V30 456 H 45.843 -1.90099 2.31307 0
M  V30 457 H 43.389 -0.91319 1.11341 0
M  V30 458 H 45.342 -4.05003 1.16406 0
M  V30 459 H 44.066 -3.25955 0.205215 0
M  V30 460 H 42.725 -2.85547 2.29909 0
M  V30 461 H 42.373 -4.93769 0.959221 0
M  V30 462 H 42.073 -5.22313 2.69189 0
M  V30 463 H 43.597 -5.7866 1.94898 0
M  V30 464 H 45.011 -4.36307 3.719 0
M  V30 465 H 43.408 -4.03718 4.43995 0
M  V30 466 H 44.478 -2.68134 4.0402 0
M  V30 467 N 45.8211 -1.22559 -0.990812 0
M  V30 468 C 47.0691 -1.04933 -1.72724 0
M  V30 469 C 47.3901 0.416158 -1.90508 0
M  V30 470 O 46.6601 1.29918 -1.46622 0
M  V30 471 H 45.2401 -0.385296 -0.639965 0
M  V30 472 H 47.9021 -1.54105 -1.19322 0
M  V30 473 H 46.9981 -1.52886 -2.72089 0
M  V30 474 N 47.2992 1.18797 -1.03562 0
M  V30 475 C 48.5462 1.8865 -0.736023 0
M  V30 476 C 48.8742 1.80041 0.735889 0
M  V30 477 O 48.1292 1.19179 1.55225 0
M  V30 478 C 48.4282 3.38692 -1.14117 0
M  V30 479 C 48.0942 3.67504 -2.6125 0
M  V30 480 C 46.7562 3.75078 -3.01447 0
M  V30 481 C 49.1082 3.80293 -3.56408 0
M  V30 482 C 46.4362 3.92915 -4.35701 0
M  V30 483 C 48.7882 3.99645 -4.90374 0
M  V30 484 C 47.4522 4.05453 -5.30249 0
M  V30 485 H 46.7222 0.690321 -0.26933 0
M  V30 486 H 49.3692 1.40641 -1.29971 0
M  V30 487 H 47.6742 3.88645 -0.496202 0
M  V30 488 H 49.3712 3.91072 -0.886789 0
M  V30 489 H 45.9612 3.62223 -2.29113 0
M  V30 490 H 50.1452 3.73779 -3.26501 0
M  V30 491 H 45.4012 3.95653 -4.66121 0
M  V30 492 H 49.5752 4.08482 -5.64017 0
M  V30 493 H 47.2022 4.19027 -6.34288 0
M  V30 494 N 48.7773 0.814389 1.34928 0
M  V30 495 C 50.1933 0.499084 1.51596 0
M  V30 496 C 50.3933 -0.978319 1.76157 0
M  V30 497 O 49.4493 -1.76309 1.80752 0
M  V30 498 C 50.7623 1.35121 2.68631 0
M  V30 499 C 52.3103 1.34746 2.82511 0
M  V30 500 C 52.7853 2.18388 4.0258 0
M  V30 501 N 54.2763 2.15966 4.09772 0
M  V30 502 C 55.0113 2.77437 5.01813 0
M  V30 503 N 54.5073 3.47866 5.99134 0
M  V30 504 N 56.3003 2.67037 4.94619 0
M  V30 505 H 48.4513 1.7711 1.17243 0
M  V30 506 H 50.7143 0.754256 0.574284 0
M  V30 507 H 50.4203 2.40001 2.57085 0
M  V30 508 H 50.2943 1.00991 3.63429 0
M  V30 509 H 52.6813 0.30648 2.93504 0
M  V30 510 H 52.7623 1.72869 1.88547 0
M  V30 511 H 52.4063 3.2253 3.92347 0
M  V30 512 H 52.3363 1.77621 4.9574 0
M  V30 513 H 54.8273 1.64729 3.40107 0
M  V30 514 H 55.1403 3.92038 6.65977 0
M  V30 515 H 53.4853 3.51972 5.99284 0
M  V30 516 H 56.6763 2.11597 4.17546 0
M  V30 517 H 56.8493 3.15232 5.66156 0
M  V30 518 N 50.2554 -1.46986 0.568584 0
M  V30 519 C 51.5024 -2.02441 0.0487986 0
M  V30 520 C 51.8304 -1.44169 -1.30559 0
M  V30 521 O 51.0854 -0.591213 -1.86556 0
M  V30 522 C 51.3844 -3.57306 -0.081836 0
M  V30 523 C 51.0504 -4.34552 1.20313 0
M  V30 524 C 49.7124 -4.55376 1.5552 0
M  V30 525 C 52.0644 -4.79016 2.05411 0
M  V30 526 C 49.3924 -5.17913 2.7565 0
M  V30 527 C 51.7444 -5.42879 3.24754 0
M  V30 528 C 50.4084 -5.61933 3.60261 0
M  V30 529 H 49.6784 -0.740785 0.0178567 0
M  V30 530 H 52.3254 -1.76525 0.742384 0
M  V30 531 H 50.6304 -3.8228 -0.858463 0
M  V30 532 H 52.3274 -3.97876 -0.499546 0
M  V30 533 H 48.9174 -4.18631 0.919014 0
M  V30 534 H 53.1014 -4.62696 1.79516 0
M  V30 535 H 48.3574 -5.30858 3.03315 0
M  V30 536 H 52.5314 -5.76293 3.90973 0
M  V30 537 H 50.1584 -6.10161 4.53439 0
M  V30 538 N 51.7335 -0.305618 -1.54608 0
M  V30 539 C 53.0105 0.355652 -1.92339 0
M  V30 540 C 53.3905 1.71324 -1.23335 0
M  V30 541 O 52.7385 2.25473 -0.370702 0
M  V30 542 C 52.9485 0.46572 -3.45879 0
M  V30 543 C 54.2965 0.734426 -4.182 0
M  V30 544 O 55.3205 0.54935 -3.51938 0
M  V30 545 O 54.1795 1.09024 -5.35515 0
M  V30 546 H 51.2735 0.199666 -0.802535 0
M  V30 547 H 53.8195 -0.354017 -1.65966 0
M  V30 548 H 52.5915 -0.488461 -3.88239 0
M  V30 549 H 52.2145 1.22367 -3.78301 0
M  V30 550 N 53.2116 1.57565 -0.0334293 0
M  V30 551 C 54.4576 1.92262 0.645226 0
M  V30 552 C 54.7906 0.910543 1.71531 0
M  V30 553 O 54.0656 -0.066099 1.94388 0
M  V30 554 C 54.3486 3.37422 1.2577 0
M  V30 555 C 54.2016 4.49369 0.196891 0
M  V30 556 C 55.5206 3.82628 2.17449 0
M  V30 557 H 52.6396 0.699171 0.233085 0
M  V30 558 H 55.2816 1.89779 -0.0915694 0
M  V30 559 H 53.4316 3.39669 1.88566 0
M  V30 560 H 55.1036 4.59254 -0.433962 0
M  V30 561 H 53.3466 4.31168 -0.477137 0
M  V30 562 H 54.0176 5.47978 0.665124 0
M  V30 563 H 56.4936 3.82145 1.64634 0
M  V30 564 H 55.3696 4.84883 2.57254 0
M  V30 565 H 55.6306 3.18376 3.0674 0
M  V30 566 N 54.6897 -0.239769 1.55765 0
M  V30 567 C 55.6527 -1.28038 1.90103 0
M  V30 568 C 56.6527 -1.40723 0.778055 0
M  V30 569 O 57.8427 -1.39301 1.04599 0
M  V30 570 C 54.9747 -2.65702 2.13577 0
M  V30 571 H 56.1677 -0.988048 2.83157 0
M  V30 572 H 53.7207 -0.479382 1.48767 0
M  V30 573 H 54.4557 -3.00063 1.23015 0
M  V30 574 H 54.2407 -2.57875 2.95369 0
M  V30 575 H 55.7307 -3.40828 2.41301 0
M  V30 576 N 56.1678 -1.49265 -0.50573 0
M  V30 577 C 57.4138 -1.59723 -1.25937 0
M  V30 578 C 57.7688 -0.278236 -1.90378 0
M  V30 579 O 57.0618 0.72113 -1.77511 0
M  V30 580 C 57.2558 -2.69008 -2.35308 0
M  V30 581 C 57.0848 -4.11405 -1.81592 0
M  V30 582 C 55.8548 -4.78252 -1.63105 0
M  V30 583 C 58.0528 -4.96792 -1.33048 0
M  V30 584 N 56.0348 -6.0498 -1.04269 0
M  V30 585 C 57.4058 -6.13962 -0.863168 0
M  V30 586 C 59.4608 -4.82828 -1.21577 0
M  V30 587 C 58.1638 -7.18705 -0.292489 0
M  V30 588 C 60.1898 -5.87716 -0.65907 0
M  V30 589 C 59.5518 -7.0411 -0.201954 0
M  V30 590 H 55.6508 -0.638864 -0.450973 0
M  V30 591 H 58.2348 -1.86251 -0.567326 0
M  V30 592 H 56.4058 -2.4426 -3.01979 0
M  V30 593 H 58.1378 -2.69013 -3.02348 0
M  V30 594 H 54.8928 -4.34974 -1.87336 0
M  V30 595 H 55.3168 -6.72631 -0.767919 0
M  V30 596 H 59.9588 -3.93159 -1.55518 0
M  V30 597 H 57.6768 -8.08078 0.0591987 0
M  V30 598 H 61.2628 -5.7897 -0.573156 0
M  V30 599 H 60.1428 -7.83885 0.222101 0
M  V30 600 N 57.6459 0.756429 -1.3826 0
M  V30 601 C 58.8929 1.51547 -1.34312 0
M  V30 602 C 59.2209 1.94382 0.0677144 0
M  V30 603 O 58.4759 1.65514 1.04421 0
M  V30 604 C 58.7749 2.78313 -2.24224 0
M  V30 605 C 58.4409 2.54455 -3.72241 0
M  V30 606 C 57.1029 2.47657 -4.12576 0
M  V30 607 C 59.4549 2.3354 -4.65949 0
M  V30 608 C 56.7829 2.17956 -5.44713 0
M  V30 609 C 59.1349 2.05359 -5.9834 0
M  V30 610 C 57.7989 1.97016 -6.37762 0
M  V30 611 H 57.0689 0.55455 -0.491482 0
M  V30 612 H 59.7159 0.870039 -1.70595 0
M  V30 613 H 58.0209 3.47492 -1.80987 0
M  V30 614 H 59.7179 3.36259 -2.18474 0
M  V30 615 H 56.3079 2.60616 -3.40261 0
M  V30 616 H 60.4919 2.37772 -4.35635 0
M  V30 617 H 55.7479 2.10003 -5.74203 0
M  V30 618 H 59.9219 1.88179 -6.70494 0
M  V30 619 H 57.5489 1.73766 -7.40074 0
M  V30 620 N 59.124 1.23083 0.984299 0
M  V30 621 C 60.054 1.03292 2.09411 0
M  V30 622 C 61.035 -0.048923 1.7003 0
M  V30 623 O 62.22 0.114967 1.93859 0
M  V30 624 C 59.35 0.619155 3.41736 0
M  V30 625 C 58.304 1.64791 3.95004 0
M  V30 626 C 57.63 1.0897 5.23478 0
M  V30 627 C 58.93 3.03999 4.24714 0
M  V30 628 H 60.624 1.96119 2.26225 0
M  V30 629 H 58.17 0.944344 1.08711 0
M  V30 630 H 60.123 0.467777 4.18796 0
M  V30 631 H 58.847 -0.344786 3.24775 0
M  V30 632 H 57.506 1.78721 3.20085 0
M  V30 633 H 57.154 0.11686 5.02864 0
M  V30 634 H 56.854 1.77704 5.60085 0
M  V30 635 H 58.378 0.950093 6.03163 0
M  V30 636 H 59.792 2.93393 4.92538 0
M  V30 637 H 58.189 3.69936 4.72512 0
M  V30 638 H 59.259 3.53285 3.32142 0
M  V30 639 N 60.6021 -1.18246 1.0419 0
M  V30 640 C 61.8301 -1.92195 0.766072 0
M  V30 641 C 62.2451 -1.76247 -0.676933 0
M  V30 642 O 61.6021 -1.09293 -1.46155 0
M  V30 643 C 61.6531 -3.43568 1.12442 0
M  V30 644 O 61.3741 -3.59015 2.51078 0
M  V30 645 C 62.8751 -4.34613 0.873275 0
M  V30 646 H 60.0951 -0.610114 0.279288 0
M  V30 647 H 62.6391 -1.50007 1.38989 0
M  V30 648 H 60.7941 -3.8354 0.545542 0
M  V30 649 H 61.2081 -4.5273 2.64831 0
M  V30 650 H 62.6821 -5.39374 1.17385 0
M  V30 651 H 63.1591 -4.38781 -0.191909 0
M  V30 652 H 63.7651 -4.00341 1.43551 0
M  V30 653 N 62.0802 -0.821533 -1.34494 0
M  V30 654 C 62.9902 -0.244355 -2.33324 0
M  V30 655 C 64.0062 0.620527 -1.62559 0
M  V30 656 O 65.1822 0.528754 -1.94335 0
M  V30 657 C 62.2472 0.585368 -3.41723 0
M  V30 658 C 61.3082 -0.301752 -4.28238 0
M  V30 659 C 60.5412 0.488466 -5.3146 0
M  V30 660 O 60.7642 1.72186 -5.4379 0
M  V30 661 O 59.6982 -0.12848 -6.01763 0
M  V30 662 H 63.5242 -1.06231 -2.84515 0
M  V30 663 H 61.1092 -0.583645 -1.37528 0
M  V30 664 H 62.9912 1.05747 -4.07916 0
M  V30 665 H 61.6662 1.38068 -2.92778 0
M  V30 666 H 60.5732 -0.821315 -3.64973 0
M  V30 667 H 61.9062 -1.06138 -4.8062 0
M  V30 668 N 63.5583 1.46682 -0.576371 0
M  V30 669 C 64.7863 2.06798 -0.0649635 0
M  V30 670 C 65.2013 1.42612 1.23723 0
M  V30 671 O 64.5583 0.529203 1.74659 0
M  V30 672 C 64.6093 3.6132 0.114202 0
M  V30 673 O 64.3303 4.23104 -1.13644 0
M  V30 674 C 65.8313 4.38349 0.66069 0
M  V30 675 H 63.0513 0.668778 -0.0545616 0
M  V30 676 H 65.5953 1.88404 -0.795237 0
M  V30 677 H 63.7503 3.79162 0.794673 0
M  V30 678 H 64.1643 5.15894 -0.946253 0
M  V30 679 H 65.6383 5.47081 0.73526 0
M  V30 680 H 66.1153 4.05953 1.67627 0
M  V30 681 H 66.7213 4.25297 0.0152951 0
M  V30 682 N 65.0364 0.313813 1.54444 0
M  V30 683 C 66.2614 -0.296681 2.05267 0
M  V30 684 C 66.6864 -1.45757 1.18897 0
M  V30 685 O 66.0444 -1.80239 0.195886 0
M  V30 686 C 66.0924 -0.71831 3.53373 0
M  V30 687 O 65.1964 -1.82175 3.69981 0
M  V30 688 H 64.5374 -0.0554061 0.661684 0
M  V30 689 H 67.0674 0.459387 1.99376 0
M  V30 690 H 67.0774 -1.00364 3.95463 0
M  V30 691 H 65.7524 0.130821 4.15694 0
M  V30 692 H 64.3294 -1.53598 3.39797 0
M  V30 693 N 66.5145 -1.57545 0.0417849 0
M  V30 694 C 67.9255 -1.80011 -0.495259 0
M  V30 695 C 68.2765 -0.953199 -1.71489 0
M  V30 696 O 67.4015 -0.167138 -2.15754 0
M  V30 697 C 67.9965 -3.26482 -0.905265 0
M  V30 698 C 66.5555 -3.499 -1.38734 0
M  V30 699 C 65.7025 -2.74979 -0.358056 0
M  V30 700 H 68.6535 -1.56425 0.267736 0
M  V30 701 H 68.6745 -3.36887 -1.76882 0
M  V30 702 H 68.1865 -3.88096 -0.017401 0
M  V30 703 H 66.2875 -2.93553 -2.29471 0
M  V30 704 H 66.4005 -4.58615 -1.38598 0
M  V30 705 H 64.7645 -2.40834 -0.828912 0
M  V30 706 H 65.5475 -3.39315 0.521561 0
M  V30 707 N 67.9926 0.231505 -1.5589 0
M  V30 708 C 69.2396 0.957352 -1.78441 0
M  V30 709 C 69.5676 1.84726 -0.60882 0
M  V30 710 O 68.8226 1.91416 0.40725 0
M  V30 711 C 69.1216 1.83577 -3.0665 0
M  V30 712 C 68.7876 1.09993 -4.37278 0
M  V30 713 C 67.4496 0.896629 -4.72773 0
M  V30 714 C 69.8016 0.579558 -5.17968 0
M  V30 715 C 67.1296 0.160896 -5.86479 0
M  V30 716 C 69.4816 -0.142783 -6.32439 0
M  V30 717 C 68.1456 -0.357427 -6.66542 0
M  V30 718 H 67.4156 0.35032 -0.65296 0
M  V30 719 H 70.0626 0.226259 -1.90159 0
M  V30 720 H 68.3676 2.63441 -2.90011 0
M  V30 721 H 70.0646 2.39934 -3.21298 0
M  V30 722 H 66.6546 1.26835 -4.09403 0
M  V30 723 H 70.8386 0.724125 -4.90989 0
M  V30 724 H 66.0946 -0.0157293 -6.11398 0
M  V30 725 H 70.2686 -0.553559 -6.94196 0
M  V30 726 H 67.8956 -0.929466 -7.54497 0
M  V30 727 N 69.4707 1.49531 0.497807 0
M  V30 728 C 70.4037 1.61043 1.6168 0
M  V30 729 C 71.3817 0.459386 1.55976 0
M  V30 730 O 72.5657 0.675358 1.75986 0
M  V30 731 C 69.6927 1.56833 3.00202 0
M  V30 732 C 68.7387 2.77173 3.24156 0
M  V30 733 S 69.5717 4.38808 3.06933 0
M  V30 734 C 70.7277 4.37248 4.47845 0
M  V30 735 H 70.9607 2.55702 1.51671 0
M  V30 736 H 68.4937 1.38462 0.683201 0
M  V30 737 H 70.4517 1.55089 3.80076 0
M  V30 738 H 69.1127 0.634561 3.07623 0
M  V30 739 H 68.3057 2.70456 4.25288 0
M  V30 740 H 67.9077 2.76346 2.5201 0
M  V30 741 H 70.1997 4.09164 5.39992 0
M  V30 742 H 71.1427 5.38668 4.59612 0
M  V30 743 H 71.5507 3.67286 4.28674 0
M  V30 744 N 70.9488 -0.749086 1.3866 0
M  V30 745 C 72.1948 -1.50959 1.36319 0
M  V30 746 C 72.5498 -1.92347 -0.0452451 0
M  V30 747 O 71.8428 -1.6289 -1.00884 0
M  V30 748 C 72.0368 -2.7712 2.25697 0
M  V30 749 C 71.8658 -2.48067 3.7509 0
M  V30 750 C 70.6358 -2.41062 4.44091 0
M  V30 751 C 72.8338 -2.14544 4.67414 0
M  V30 752 N 70.8158 -2.04331 5.78897 0
M  V30 753 C 72.1868 -1.88141 5.90765 0
M  V30 754 C 74.2418 -2.00892 4.55573 0
M  V30 755 C 72.9448 -1.49463 7.036 0
M  V30 756 C 74.9708 -1.63616 5.68317 0
M  V30 757 C 74.3328 -1.38088 6.90732 0
M  V30 758 H 70.4318 -0.551804 0.554108 0
M  V30 759 H 73.0158 -0.871886 1.74087 0
M  V30 760 H 71.1868 -3.38693 1.9011 0
M  V30 761 H 72.9188 -3.4321 2.1445 0
M  V30 762 H 69.6738 -2.57685 3.9736 0
M  V30 763 H 70.0978 -1.88598 6.502 0
M  V30 764 H 74.7398 -2.19301 3.61479 0
M  V30 765 H 72.4578 -1.29794 7.97608 0
M  V30 766 H 76.0438 -1.53678 5.61137 0
M  V30 767 H 74.9238 -1.09674 7.76493 0
M  V30 768 N 72.4269 -1.23603 -0.977757 0
M  V30 769 C 73.6519 -1.09735 -1.75991 0
M  V30 770 C 74.0769 0.346858 -1.84874 0
M  V30 771 O 73.4349 1.25093 -1.3123 0
M  V30 772 C 73.4829 -1.73051 -3.16363 0
M  V30 773 O 72.5869 -0.994452 -4.0023 0
M  V30 774 H 71.9279 -0.384476 -0.541364 0
M  V30 775 H 74.4579 -1.6371 -1.2272 0
M  V30 776 H 74.4679 -1.78398 -3.66931 0
M  V30 777 H 73.1429 -2.78137 -3.09213 0
M  V30 778 H 71.7199 -1.01812 -3.58732 0
M  V30 779 N 73.905 1.17692 -1.04816 0
M  V30 780 C 74.853 2.23632 -0.63966 0
M  V30 781 C 75.847 1.6601 0.337219 0
M  V30 782 O 77.053 1.78844 0.203693 0
M  V30 783 H 73.428 0.727949 -0.188665 0
M  V30 784 H 75.399 2.55387 -1.54337 0
M  V30 785 C 74.148 3.4769 -0.0264051 0
M  V30 786 H 73.471 3.92331 -0.769164 0
M  V30 787 H 74.911 4.23418 0.222098 0
M  V30 788 C 73.37 3.13807 1.22584 0
M  V30 789 O 73.9 3.28236 2.31569 0
M  V30 790 N 72.106 2.68065 1.12202 0
M  V30 791 H 71.653 2.56525 0.235133 0
M  V30 792 H 71.611 2.45767 1.96076 0
M  V30 793 N 75.3831 0.828654 1.34056 0
M  V30 794 C 76.3131 0.269443 2.3194 0
M  V30 795 C 77.2941 -0.617247 1.58506 0
M  V30 796 O 78.4791 -0.542931 1.86456 0
M  V30 797 C 75.6091 -0.564793 3.42677 0
M  V30 798 C 74.5631 0.225241 4.27407 0
M  V30 799 C 73.8891 -0.7321 5.29664 0
M  V30 800 C 75.1891 1.43663 5.02154 0
M  V30 801 H 76.8831 1.08728 2.7896 0
M  V30 802 H 74.4291 0.524283 1.34117 0
M  V30 803 H 76.3821 -0.966233 4.10173 0
M  V30 804 H 75.1061 -1.41574 2.9432 0
M  V30 805 H 73.7651 0.608117 3.61521 0
M  V30 806 H 73.4131 -1.57916 4.77568 0
M  V30 807 H 73.1131 -0.20767 5.87233 0
M  V30 808 H 74.6371 -1.13128 6.00029 0
M  V30 809 H 76.0511 1.1089 5.62473 0
M  V30 810 H 74.4481 1.89711 5.69324 0
M  V30 811 H 75.5181 2.21181 4.31517 0
M  V30 812 N 76.8612 -1.46375 0.584142 0
M  V30 813 C 78.1092 -2.01978 0.0701287 0
M  V30 814 C 78.4302 -1.4579 -1.295 0
M  V30 815 O 77.7002 -0.64314 -1.85042 0
M  V30 816 H 76.2802 -0.746648 0.0229345 0
M  V30 817 H 78.9422 -1.79461 0.760245 0
M  V30 818 H 78.0382 -3.121 0.0022064 0
M  V30 819 N 78.3393 -0.321999 -1.54275 0
M  V30 820 C 79.5883 0.281931 -1.9972 0
M  V30 821 C 79.9013 1.53369 -1.21397 0
M  V30 822 O 81.1073 2.21352 -1.57211 0
M  V30 823 C 79.5633 0.5529 -3.55628 0
M  V30 824 C 79.1713 -0.681721 -4.42783 0
M  V30 825 C 80.9153 1.11687 -4.09544 0
M  V30 826 C 78.8223 -0.382742 -5.9016 0
M  V30 827 H 77.7523 0.109124 -0.746062 0
M  V30 828 H 80.4033 -0.43398 -1.78294 0
M  V30 829 H 78.7853 1.32896 -3.73035 0
M  V30 830 H 79.9593 -1.45723 -4.37151 0
M  V30 831 H 78.2743 -1.1658 -3.99748 0
M  V30 832 H 80.8713 1.35515 -5.17242 0
M  V30 833 H 81.2143 2.06575 -3.61431 0
M  V30 834 H 81.7473 0.402032 -3.95763 0
M  V30 835 H 78.4863 -1.30076 -6.42464 0
M  V30 836 H 78.0063 0.355094 -5.98748 0
M  V30 837 H 79.6853 0.00800157 -6.47 0
M  V30 838 N 79.8174 1.5752 -0.0501392 0
M  V30 839 C 81.0654 1.9227 0.622642 0
M  V30 840 C 81.3864 0.929083 1.71444 0
M  V30 841 O 80.6564 -0.0262186 1.95882 0
M  V30 842 H 79.2364 0.709739 0.232981 0
M  V30 843 H 81.8984 1.94628 -0.102898 0
M  V30 844 H 80.9944 2.93479 1.06191 0
M  V30 845 N 81.2955 -0.223234 1.56011 0
M  V30 846 C 82.2255 -1.27988 1.95298 0
M  V30 847 C 83.2065 -1.48976 0.820979 0
M  V30 848 O 84.3915 -1.61188 1.08315 0
M  V30 849 C 81.5215 -2.63 2.26822 0
M  V30 850 C 80.4755 -2.56671 3.42497 0
M  V30 851 C 79.8015 -3.95697 3.59622 0
M  V30 852 C 81.1015 -2.11601 4.77517 0
M  V30 853 H 82.7955 -0.953525 2.8381 0
M  V30 854 H 80.3415 -0.457244 1.36548 0
M  V30 855 H 82.2945 -3.37077 2.52898 0
M  V30 856 H 81.0185 -2.9732 1.35161 0
M  V30 857 H 79.6775 -1.85051 3.16467 0
M  V30 858 H 79.3255 -4.27322 2.6534 0
M  V30 859 H 79.0255 -3.92345 4.37424 0
M  V30 860 H 80.5495 -4.71438 3.88044 0
M  V30 861 H 81.9635 -2.7542 5.02809 0
M  V30 862 H 80.3605 -2.19311 5.5859 0
M  V30 863 H 81.4305 -1.06824 4.72987 0
M  V30 864 N 82.7736 -1.49793 -0.48987 0
M  V30 865 C 83.7366 -1.66752 -1.57246 0
M  V30 866 C 84.7366 -0.538867 -1.51502 0
M  V30 867 O 85.9266 -0.805545 -1.54456 0
M  V30 868 C 83.0586 -1.67528 -2.96896 0
M  V30 869 H 84.2516 -2.63321 -1.43534 0
M  V30 870 H 81.8046 -1.38992 -0.714914 0
M  V30 871 H 82.5396 -0.725837 -3.16073 0
M  V30 872 H 82.3246 -2.49504 -3.02473 0
M  V30 873 H 83.8146 -1.82667 -3.7553 0
M  V30 874 N 84.2517 0.741722 -1.39055 0
M  V30 875 C 85.5007 1.49656 -1.35225 0
M  V30 876 C 85.8137 1.95533 0.0512708 0
M  V30 877 O 87.0197 2.7067 0.212138 0
M  V30 878 C 85.4757 2.70389 -2.37525 0
M  V30 879 C 85.0837 2.31489 -3.83558 0
M  V30 880 C 86.8277 3.48236 -2.42759 0
M  V30 881 C 84.7347 3.48903 -4.77515 0
M  V30 882 H 83.6647 0.56197 -0.502699 0
M  V30 883 H 86.3157 0.809727 -1.64668 0
M  V30 884 H 84.6977 3.41113 -2.01142 0
M  V30 885 H 85.8717 1.68354 -4.28945 0
M  V30 886 H 84.1867 1.66749 -3.81554 0
M  V30 887 H 86.7837 4.35558 -3.1015 0
M  V30 888 H 87.1267 3.90229 -1.45008 0
M  V30 889 H 87.6597 2.84535 -2.78002 0
M  V30 890 H 84.3987 3.11966 -5.76504 0
M  V30 891 H 83.9187 4.11041 -4.36813 0
M  V30 892 H 85.5977 4.15328 -4.96096 0
M  V30 893 N 85.7298 1.2412 0.971189 0
M  V30 894 C 86.9548 1.10667 1.75407 0
M  V30 895 C 87.3798 -0.337048 1.85056 0
M  V30 896 O 86.7378 -1.24396 1.31892 0
M  V30 897 C 86.7858 1.74726 3.15441 0
M  V30 898 O 85.8898 1.01566 3.99697 0
M  V30 899 H 85.2308 0.387341 0.539317 0
M  V30 900 H 87.7608 1.64358 1.2185 0
M  V30 901 H 87.7708 1.80341 3.6598 0
M  V30 902 H 86.4458 2.79773 3.07734 0
M  V30 903 H 85.0228 1.03713 3.58187 0
M  V30 904 N 87.2079 -1.17134 1.05439 0
M  V30 905 C 88.1379 -2.2342 0.678649 0
M  V30 906 C 89.1189 -1.66971 -0.32476 0
M  V30 907 O 90.3039 -1.93149 -0.201802 0
M  V30 908 C 87.4339 -3.47256 0.0552099 0
M  V30 909 C 86.3879 -4.16543 0.98365 0
M  V30 910 C 85.7139 -5.34231 0.223961 0
M  V30 911 C 87.0139 -4.68495 2.3089 0
M  V30 912 H 88.7079 -2.55105 1.56722 0
M  V30 913 H 86.2539 -1.2262 0.754998 0
M  V30 914 H 88.2069 -4.20828 -0.21946 0
M  V30 915 H 86.9309 -3.14846 -0.868319 0
M  V30 916 H 85.5899 -3.44887 1.24293 0
M  V30 917 H 85.2379 -4.98071 -0.702412 0
M  V30 918 H 84.9379 -5.81527 0.842627 0
M  V30 919 H 86.4619 -6.10585 -0.0433671 0
M  V30 920 H 87.8759 -5.33691 2.09396 0
M  V30 921 H 86.2729 -5.26379 2.88176 0
M  V30 922 H 87.3429 -3.85169 2.94572 0
M  V30 923 N 88.686 -0.835752 -1.33615 0
M  V30 924 C 89.911 -0.442389 -2.02627 0
M  V30 925 C 90.336 0.947735 -1.62479 0
M  V30 926 O 89.694 1.61907 -0.815826 0
M  V30 927 C 89.742 -0.567216 -3.56111 0
M  V30 928 O 88.846 0.407799 -4.10379 0
M  V30 929 H 88.187 -0.180278 -0.639059 0
M  V30 930 H 90.717 -1.12972 -1.70583 0
M  V30 931 H 90.727 -0.447708 -4.05536 0
M  V30 932 H 89.402 -1.58103 -3.84677 0
M  V30 933 H 87.979 0.246107 -3.72087 0
M  V30 934 N 90.1641 1.46063 -0.591896 0
M  V30 935 C 91.4101 2.02638 -0.0811191 0
M  V30 936 C 91.7431 1.4613 1.27905 0
M  V30 937 O 91.0181 0.629908 1.84017 0
M  V30 938 C 91.3011 3.60091 -0.0252436 0
M  V30 939 C 91.1541 4.26965 -1.41496 0
M  V30 940 C 92.4731 4.3496 0.670685 0
M  V30 941 H 89.5921 0.73635 -0.0309524 0
M  V30 942 H 92.2341 1.741 -0.760859 0
M  V30 943 H 90.3841 3.84535 0.553624 0
M  V30 944 H 92.0561 4.13756 -2.0397 0
M  V30 945 H 90.2991 3.85971 -1.98011 0
M  V30 946 H 90.9701 5.35781 -1.32825 0
M  V30 947 H 93.4461 4.15716 0.178825 0
M  V30 948 H 92.3221 5.44686 0.678837 0
M  V30 949 H 92.5831 4.06685 1.73379 0
M  V30 950 N 91.6422 0.330177 1.54103 0
M  V30 951 C 92.8882 -0.270806 2.00984 0
M  V30 952 C 93.2212 -1.51265 1.21789 0
M  V30 953 O 92.4962 -1.92142 0.301927 0
M  V30 954 C 92.7792 -0.598339 3.55094 0
M  V30 955 C 92.6322 0.654674 4.4501 0
M  V30 956 C 93.9512 -1.41334 4.16789 0
M  V30 957 H 91.0702 -0.0969531 0.730595 0
M  V30 958 H 93.7122 0.448066 1.84641 0
M  V30 959 H 91.8622 -1.21078 3.69151 0
M  V30 960 H 93.5342 1.29285 4.42813 0
M  V30 961 H 91.7772 1.28224 4.14416 0
M  V30 962 H 92.4482 0.380944 5.50684 0
M  V30 963 H 94.9242 -0.895597 4.06347 0
M  V30 964 H 93.8002 -1.61127 5.24718 0
M  V30 965 H 94.0612 -2.41146 3.70541 0
M  V30 966 N 93.1203 -1.57491 0.0584922 0
M  V30 967 C 94.3683 -1.92597 -0.612436 0
M  V30 968 C 94.6893 -0.938162 -1.70949 0
M  V30 969 O 93.9593 0.0158301 -1.95894 0
M  V30 970 H 92.5393 -0.710964 -0.229214 0
M  V30 971 H 95.2013 -1.94571 0.113218 0
M  V30 972 H 94.2973 -2.94038 -1.04633 0
M  V30 973 N 94.5984 0.214957 -1.56127 0
M  V30 974 C 95.5614 1.24997 -1.92116 0
M  V30 975 C 96.5614 1.39467 -0.800344 0
M  V30 976 O 97.7514 1.37619 -1.06802 0
M  V30 977 C 94.8834 2.62271 -2.17777 0
M  V30 978 H 96.0764 0.942875 -2.84693 0
M  V30 979 H 93.6294 0.455654 -1.49511 0
M  V30 980 H 94.3644 2.98068 -1.27773 0
M  V30 981 H 94.1494 2.53143 -2.99434 0
M  V30 982 H 95.6394 3.36946 -2.46693 0
M  V30 983 N 96.0765 1.50051 0.48192 0
M  V30 984 C 97.0395 1.67584 1.5636 0
M  V30 985 C 98.0395 0.546894 1.51214 0
M  V30 986 O 99.2295 0.813725 1.54026 0
M  V30 987 C 96.3615 1.691 2.96003 0
M  V30 988 H 97.5545 2.64078 1.42136 0
M  V30 989 H 95.1075 1.39369 0.707533 0
M  V30 990 H 95.8425 0.742589 3.15684 0
M  V30 991 H 95.6275 2.51105 3.01146 0
M  V30 992 H 97.1175 1.84656 3.74556 0
M  V30 993 N 97.5546 -0.734337 1.39446 0
M  V30 994 C 98.8006 -1.49505 1.37913 0
M  V30 995 C 99.1556 -1.92384 -0.0248416 0
M  V30 996 O 98.4486 -1.6395 -0.991506 0
M  V30 997 C 98.6426 -2.74711 2.28623 0
M  V30 998 C 98.4716 -2.44075 3.777 0
M  V30 999 C 97.2416 -2.36338 4.46623 0
M  V30 1000 C 99.4396 -2.09574 4.69663 0
M  V30 1001 N 97.4216 -1.9818 5.81032 0
M  V30 1002 C 98.7926 -1.81865 5.92727 0
M  V30 1003 C 100.848 -1.96048 4.57678 0
M  V30 1004 C 99.5506 -1.41992 7.05146 0
M  V30 1005 C 101.577 -1.57579 5.7002 0
M  V30 1006 C 100.939 -1.30754 6.92158 0
M  V30 1007 H 97.0376 -0.545896 0.55993 0
M  V30 1008 H 99.6216 -0.853373 1.75002 0
M  V30 1009 H 97.7926 -3.36657 1.93692 0
M  V30 1010 H 99.5246 -3.40916 2.18078 0
M  V30 1011 H 96.2796 -2.53456 4.00071 0
M  V30 1012 H 96.7036 -1.81691 6.52163 0
M  V30 1013 H 101.346 -2.15455 3.63784 0
M  V30 1014 H 99.0636 -1.21327 7.9894 0
M  V30 1015 H 102.65 -1.47718 5.62735 0
M  V30 1016 H 101.53 -1.01432 7.77612 0
M  V30 1017 N 99.0327 -1.24633 -0.964593 0
M  V30 1018 C 100.281 -1.08573 -1.70459 0
M  V30 1019 C 100.602 0.375655 -1.91347 0
M  V30 1020 O 99.8717 1.26779 -1.49345 0
M  V30 1021 H 98.4517 -0.398784 -0.631649 0
M  V30 1022 H 101.114 -1.56601 -1.16026 0
M  V30 1023 H 100.21 -1.58623 -2.68785 0
M  V30 1024 N 100.511 1.16574 -1.06058 0
M  V30 1025 C 101.76 1.86385 -0.770944 0
M  V30 1026 C 102.073 1.82448 0.705129 0
M  V30 1027 O 103.279 2.47815 1.10905 0
M  V30 1028 C 101.735 3.34466 -1.32893 0
M  V30 1029 C 101.343 3.46883 -2.83507 0
M  V30 1030 C 103.087 4.09548 -1.11672 0
M  V30 1031 C 100.994 4.89036 -3.32562 0
M  V30 1032 H 99.9238 0.698181 -0.284709 0
M  V30 1033 H 102.575 1.31583 -1.27899 0
M  V30 1034 H 100.957 3.88859 -0.748662 0
M  V30 1035 H 102.131 3.02663 -3.47465 0
M  V30 1036 H 100.446 2.85232 -3.03368 0
M  V30 1037 H 103.043 5.14434 -1.45814 0
M  V30 1038 H 103.386 4.16264 -0.0549535 0
M  V30 1039 H 103.919 3.61387 -1.66265 0
M  V30 1040 H 100.658 4.87499 -4.38207 0
M  V30 1041 H 100.178 5.3389 -2.73351 0
M  V30 1042 H 101.857 5.57843 -3.2775 0
M  V30 1043 N 101.989 0.842826 1.3317 0
M  V30 1044 C 103.219 0.453397 2.01564 0
M  V30 1045 C 103.627 -0.951147 1.63554 0
M  V30 1046 O 102.97 -1.63021 0.846746 0
M  V30 1047 C 103.032 0.499013 3.5602 0
M  V30 1048 C 102.696 1.86037 4.1742 0
M  V30 1049 C 103.693 2.82416 4.36506 0
M  V30 1050 C 101.378 2.15428 4.53757 0
M  V30 1051 C 103.372 4.06346 4.91082 0
M  V30 1052 C 101.059 3.39615 5.0804 0
M  V30 1053 C 102.057 4.3489 5.26649 0
M  V30 1054 O 101.745 5.5688 5.79776 0
M  V30 1055 H 101.477 0.177871 0.652179 0
M  V30 1056 H 104.031 1.13808 1.70988 0
M  V30 1057 H 102.261 -0.242467 3.85939 0
M  V30 1058 H 103.95 0.126852 4.05702 0
M  V30 1059 H 104.716 2.6101 4.08777 0
M  V30 1060 H 100.595 1.42061 4.38565 0
M  V30 1061 H 104.139 4.80722 5.05522 0
M  V30 1062 H 100.036 3.60876 5.352 0
M  V30 1063 H 100.804 5.58674 5.98185 0
M  V30 1064 N 103.467 -1.45747 0.599634 0
M  V30 1065 C 104.716 -2.01502 0.0893511 0
M  V30 1066 C 105.029 -1.4748 -1.28488 0
M  V30 1067 O 106.235 -1.95161 -1.88745 0
M  V30 1068 C 104.691 -3.59735 0.109082 0
M  V30 1069 C 104.299 -4.22754 1.48267 0
M  V30 1070 C 106.043 -4.23085 -0.346374 0
M  V30 1071 C 103.95 -5.73115 1.45921 0
M  V30 1072 H 102.88 -0.753417 0.0296347 0
M  V30 1073 H 105.531 -1.67303 0.753788 0
M  V30 1074 H 103.913 -3.91087 -0.621854 0
M  V30 1075 H 105.087 -4.02987 2.23468 0
M  V30 1076 H 103.402 -3.71567 1.87955 0
M  V30 1077 H 105.999 -5.33327 -0.38298 0
M  V30 1078 H 106.342 -3.93201 -1.36743 0
M  V30 1079 H 106.875 -3.9642 0.331038 0
M  V30 1080 H 103.614 -6.07685 2.45762 0
M  V30 1081 H 103.134 -5.95097 0.749665 0
M  V30 1082 H 104.813 -6.3616 1.17941 0
M  V30 1083 N 104.945 -0.338344 -1.53925 0
M  V30 1084 C 106.173 0.261298 -2.05243 0
M  V30 1085 C 106.588 1.44625 -1.21363 0
M  V30 1086 O 105.945 1.80811 -0.247736 0
M  V30 1087 C 105.996 0.681412 -3.5502 0
M  V30 1088 O 105.717 -0.456414 -4.35716 0
M  V30 1089 C 107.218 1.34232 -4.22489 0
M  V30 1090 H 104.438 0.0513685 -0.669031 0
M  V30 1091 H 106.982 -0.488822 -1.98572 0
M  V30 1092 H 105.137 1.38148 -3.61931 0
M  V30 1093 H 105.551 -0.122564 -5.24357 0
M  V30 1094 H 107.025 1.58708 -5.28693 0
M  V30 1095 H 107.502 2.29426 -3.74514 0
M  V30 1096 H 108.108 0.684424 -4.19757 0
M  V30 1097 N 106.423 1.57458 -0.0668435 0
M  V30 1098 C 107.671 1.92919 0.602214 0
M  V30 1099 C 107.992 0.947215 1.70449 0
M  V30 1100 O 107.262 -0.00544117 1.95899 0
M  V30 1101 H 105.842 0.71217 0.22544 0
M  V30 1102 H 108.504 1.94508 -0.123535 0
M  V30 1103 H 107.6 2.94589 1.03073 0
M  V30 1104 N 107.901 -0.206675 1.56239 0
M  V30 1105 C 109.126 -0.949474 1.8439 0
M  V30 1106 C 109.551 -1.76549 0.649016 0
M  V30 1107 O 108.909 -1.76782 -0.402231 0
M  V30 1108 C 108.957 -1.83078 3.10668 0
M  V30 1109 O 108.061 -2.9281 2.90407 0
M  V30 1110 H 107.402 -0.268033 0.607499 0
M  V30 1111 H 109.932 -0.215488 2.03462 0
M  V30 1112 H 109.942 -2.2377 3.41161 0
M  V30 1113 H 108.617 -1.23112 3.97261 0
M  V30 1114 H 107.194 -2.55956 2.71184 0
M  V30 1115 N 109.379 -1.50304 -0.473955 0
M  V30 1116 C 110.604 -1.65175 -1.25427 0
M  V30 1117 C 111.029 -0.333673 -1.85117 0
M  V30 1118 O 110.387 0.702114 -1.67153 0
M  V30 1119 C 110.435 -2.74295 -2.34082 0
M  V30 1120 O 109.539 -2.35349 -3.38651 0
M  V30 1121 H 108.88 -0.551944 -0.369126 0
M  V30 1122 H 111.41 -1.96662 -0.564364 0
M  V30 1123 H 111.42 -2.97285 -2.79438 0
M  V30 1124 H 110.095 -3.69959 -1.90008 0
M  V30 1125 H 108.672 -2.22794 -2.99027 0
M  V30 1126 N 110.857 0.726932 -1.39834 0
M  V30 1127 C 112.106 1.48214 -1.36805 0
M  V30 1128 C 112.419 1.95576 0.0305291 0
M  V30 1129 O 113.625 2.7088 0.183417 0
M  V30 1130 C 112.081 2.67854 -2.40379 0
M  V30 1131 C 111.689 2.27408 -3.85992 0
M  V30 1132 C 113.433 3.45641 -2.46439 0
M  V30 1133 C 111.34 3.43819 -4.81189 0
M  V30 1134 H 110.27 0.556606 -0.508631 0
M  V30 1135 H 112.921 0.792216 -1.65518 0
M  V30 1136 H 111.303 3.3896 -2.04749 0
M  V30 1137 H 112.477 1.63795 -4.30706 0
M  V30 1138 H 110.792 1.62692 -3.83302 0
M  V30 1139 H 113.389 4.32244 -3.14753 0
M  V30 1140 H 113.732 3.88669 -1.49139 0
M  V30 1141 H 114.265 2.8157 -2.81004 0
M  V30 1142 H 111.004 3.05834 -5.79781 0
M  V30 1143 H 110.524 4.06385 -4.41148 0
M  V30 1144 H 112.203 4.10043 -5.00474 0
M  V30 1145 N 112.336 1.25143 0.95797 0
M  V30 1146 C 113.585 1.0909 1.69654 0
M  V30 1147 C 113.898 -0.368548 1.92097 0
M  V30 1148 O 115.104 -0.649455 2.63618 0
M  V30 1149 C 113.56 1.90395 3.05414 0
M  V30 1150 C 113.168 3.4081 2.90779 0
M  V30 1151 C 114.912 1.82901 3.83076 0
M  V30 1152 C 112.819 4.14423 4.21909 0
M  V30 1153 H 111.749 0.404625 0.636235 0
M  V30 1154 H 114.4 1.4931 1.06672 0
M  V30 1155 H 112.782 1.42996 3.69281 0
M  V30 1156 H 113.956 3.95859 2.35865 0
M  V30 1157 H 112.271 3.49361 2.26575 0
M  V30 1158 H 114.868 2.35196 4.80195 0
M  V30 1159 H 115.211 0.796224 4.08615 0
M  V30 1160 H 115.744 2.28033 3.25954 0
M  V30 1161 H 112.483 5.18102 4.01561 0
M  V30 1162 H 112.003 3.64159 4.76601 0
M  V30 1163 H 113.682 4.21956 4.90471 0
M  V30 1164 N 113.814 -1.1601 1.06675 0
M  V30 1165 C 115.062 -1.86264 0.784229 0
M  V30 1166 C 115.383 -1.82328 -0.691488 0
M  V30 1167 O 114.653 -1.25947 -1.50047 0
M  V30 1168 H 113.233 -0.689621 0.28711 0
M  V30 1169 H 115.895 -1.40664 1.34906 0
M  V30 1170 H 114.991 -2.91595 1.11259 0
M  V30 1171 N 115.292 -0.849877 -1.32721 0
M  V30 1172 C 116.54 -0.450032 -1.97026 0
M  V30 1173 C 116.861 0.996604 -1.67609 0
M  V30 1174 O 116.131 1.6958 -0.980786 0
M  V30 1175 H 114.711 -0.163426 -0.728904 0
M  V30 1176 H 117.373 -1.08526 -1.6189 0
M  V30 1177 H 116.469 -0.591146 -3.0645 0
M  V30 1178 N 116.77 1.45427 -0.607355 0
M  V30 1179 C 118.018 2.01841 -0.102253 0
M  V30 1180 C 118.339 1.47832 1.27164 0
M  V30 1181 O 117.609 0.672497 1.83995 0
M  V30 1182 H 116.189 0.746188 -0.0348101 0
M  V30 1183 H 118.851 1.78229 -0.7887 0
M  V30 1184 H 117.947 3.12057 -0.0518585 0
M  V30 1185 N 118.248 0.346503 1.53744 0
M  V30 1186 C 119.494 -0.249473 2.0126 0
M  V30 1187 C 119.827 -1.49965 1.23386 0
M  V30 1188 O 119.102 -1.91811 0.32229 0
M  V30 1189 C 119.385 -0.560643 3.55709 0
M  V30 1190 C 119.238 0.701836 4.44291 0
M  V30 1191 C 120.557 -1.36905 4.18264 0
M  V30 1192 H 117.676 -0.0891987 0.731582 0
M  V30 1193 H 120.318 0.467624 1.84156 0
M  V30 1194 H 118.468 -1.17156 3.70414 0
M  V30 1195 H 120.14 1.33974 4.41417 0
M  V30 1196 H 118.383 1.32612 4.13033 0
M  V30 1197 H 119.054 0.43933 5.50249 0
M  V30 1198 H 121.53 -0.852448 4.07275 0
M  V30 1199 H 120.406 -1.55553 5.26398 0
M  V30 1200 H 120.667 -2.37203 3.73078 0
M  V30 1201 N 119.726 -1.57421 0.075193 0
M  V30 1202 C 120.673 -2.12915 -0.890843 0
M  V30 1203 C 121.643 -1.04252 -1.29309 0
M  V30 1204 O 122.828 -1.31933 -1.37834 0
M  V30 1205 C 119.968 -2.69795 -2.15186 0
M  V30 1206 C 119.081 -3.92624 -1.80194 0
M  V30 1207 C 118.216 -4.37736 -3.00933 0
M  V30 1208 C 117.255 -5.53205 -2.61974 0
M  V30 1209 N 116.392 -5.9326 -3.75483 0
M  V30 1210 H 121.232 -2.95156 -0.410735 0
M  V30 1211 H 118.769 -1.45854 -0.191086 0
M  V30 1212 H 120.727 -3.00883 -2.89008 0
M  V30 1213 H 119.357 -1.90313 -2.60731 0
M  V30 1214 H 118.409 -3.67977 -0.964218 0
M  V30 1215 H 119.721 -4.76482 -1.47534 0
M  V30 1216 H 118.875 -4.70503 -3.8303 0
M  V30 1217 H 117.614 -3.52739 -3.36789 0
M  V30 1218 H 116.619 -5.20086 -1.783 0
M  V30 1219 H 117.844 -6.39936 -2.27284 0
M  V30 1220 H 115.79 -5.11212 -4.11094 0
M  V30 1221 H 115.707 -6.71865 -3.46602 0
M  V30 1222 H 116.975 -6.30651 -4.58148 0
M  V30 1223 N 121.204 0.198386 -1.56346 0
M  V30 1224 C 122.167 1.22952 -1.93431 0
M  V30 1225 C 123.167 1.38611 -0.815092 0
M  V30 1226 O 124.357 1.36479 -1.08255 0
M  V30 1227 C 121.489 2.59946 -2.20546 0
M  V30 1228 H 122.682 0.912626 -2.85677 0
M  V30 1229 H 120.235 0.43977 -1.49986 0
M  V30 1230 H 120.97 2.96696 -1.30927 0
M  V30 1231 H 120.755 2.49953 -3.02102 0
M  V30 1232 H 122.245 3.3431 -2.50253 0
M  V30 1233 N 122.682 1.50554 0.465978 0
M  V30 1234 C 124.093 1.54599 1.04671 0
M  V30 1235 C 124.444 0.352488 1.93008 0
M  V30 1236 O 123.569 -0.534044 2.09707 0
M  V30 1237 C 124.164 2.80166 1.90505 0
M  V30 1238 C 122.723 2.86876 2.43678 0
M  V30 1239 C 121.87 2.48947 1.22151 0
M  V30 1240 H 124.821 1.56744 0.248384 0
M  V30 1241 H 124.842 2.62311 2.75633 0
M  V30 1242 H 124.354 3.67013 1.26186 0
M  V30 1243 H 122.455 2.04393 3.11536 0
M  V30 1244 H 122.568 3.89885 2.78436 0
M  V30 1245 H 120.932 2.01498 1.5579 0
M  V30 1246 H 121.715 3.38107 0.594866 0
M  V30 1247 N 124.16 -0.719506 1.40217 0
M  V30 1248 C 125.576 -1.02707 1.22161 0
M  V30 1249 C 125.776 -2.0128 0.0940557 0
M  V30 1250 O 124.832 -2.46452 -0.549318 0
M  V30 1251 C 126.145 -1.57454 2.56181 0
M  V30 1252 C 127.693 -1.69458 2.63159 0
M  V30 1253 C 128.168 -2.27611 3.97438 0
M  V30 1254 N 129.659 -2.35002 3.99159 0
M  V30 1255 C 130.394 -2.80972 4.99842 0
M  V30 1256 N 129.89 -3.26723 6.10921 0
M  V30 1257 N 131.683 -2.80321 4.87213 0
M  V30 1258 H 123.834 -0.0660492 2.12297 0
M  V30 1259 H 126.097 -0.0919077 0.943534 0
M  V30 1260 H 125.803 -0.924873 3.39321 0
M  V30 1261 H 125.677 -2.56036 2.76993 0
M  V30 1262 H 128.064 -2.33543 1.80393 0
M  V30 1263 H 128.145 -0.694867 2.46181 0
M  V30 1264 H 127.789 -1.6415 4.80643 0
M  V30 1265 H 127.719 -3.2829 4.11744 0
M  V30 1266 H 130.21 -2.02685 3.18947 0
M  V30 1267 H 130.523 -3.60355 6.8364 0
M  V30 1268 H 128.868 -3.24692 6.14492 0
M  V30 1269 H 132.059 -2.43912 3.9953 0
M  V30 1270 H 132.232 -3.15831 5.65822 0
M  V30 1271 N 125.638 -1.25649 -0.95132 0
M  V30 1272 C 126.887 -1.09988 -1.69073 0
M  V30 1273 C 127.2 0.358355 -1.92289 0
M  V30 1274 O 128.406 0.635466 -2.63958 0
M  V30 1275 C 126.862 -1.92012 -3.044 0
M  V30 1276 C 126.47 -3.42347 -2.88968 0
M  V30 1277 C 128.214 -1.8493 -3.82101 0
M  V30 1278 C 126.121 -4.16655 -4.19705 0
M  V30 1279 H 125.051 -0.407993 -0.63408 0
M  V30 1280 H 127.702 -1.49873 -1.05879 0
M  V30 1281 H 126.084 -1.44952 -3.68517 0
M  V30 1282 H 127.258 -3.97104 -2.33762 0
M  V30 1283 H 125.573 -3.50557 -2.24719 0
M  V30 1284 H 128.17 -2.37739 -4.78941 0
M  V30 1285 H 128.513 -0.817883 -4.08187 0
M  V30 1286 H 129.046 -2.29758 -3.2474 0
M  V30 1287 H 125.785 -5.20224 -3.98807 0
M  V30 1288 H 125.305 -3.66681 -4.74663 0
M  V30 1289 H 126.984 -4.24551 -4.88227 0
M  V30 1290 N 127.117 1.15442 -1.07289 0
M  V30 1291 C 128.064 2.20161 -0.692653 0
M  V30 1292 C 129.034 1.63073 0.31564 0
M  V30 1293 O 130.219 1.89725 0.202235 0
M  V30 1294 C 127.359 3.44967 -0.0959509 0
M  V30 1295 C 126.472 4.16256 -1.15564 0
M  V30 1296 C 125.607 5.28609 -0.524011 0
M  V30 1297 C 124.646 5.91715 -1.56653 0
M  V30 1298 N 123.783 6.9554 -0.957531 0
M  V30 1299 H 128.623 2.52037 -1.59002 0
M  V30 1300 H 126.16 1.2378 -0.794798 0
M  V30 1301 H 128.118 4.16341 0.267628 0
M  V30 1302 H 126.748 3.1361 0.764772 0
M  V30 1303 H 125.8 3.43385 -1.6368 0
M  V30 1304 H 127.112 4.59268 -1.94613 0
M  V30 1305 H 126.266 6.06604 -0.108032 0
M  V30 1306 H 125.005 4.86787 0.29825 0
M  V30 1307 H 124.01 5.12433 -1.9923 0
M  V30 1308 H 125.235 6.35614 -2.39107 0
M  V30 1309 H 123.181 6.55814 -0.156162 0
M  V30 1310 H 123.098 7.36977 -1.68526 0
M  V30 1311 H 124.366 7.77435 -0.567032 0
M  V30 1312 N 128.595 0.856903 1.32268 0
M  V30 1313 C 129.823 0.475439 2.01363 0
M  V30 1314 C 130.238 -0.928486 1.64392 0
M  V30 1315 O 129.595 -1.60624 0.866387 0
M  V30 1316 C 129.646 0.607545 3.56358 0
M  V30 1317 O 129.367 1.95617 3.92002 0
M  V30 1318 C 130.868 0.225382 4.42727 0
M  V30 1319 H 128.088 0.186636 0.644521 0
M  V30 1320 H 130.632 1.15446 1.68797 0
M  V30 1321 H 128.787 -0.0237719 3.87393 0
M  V30 1322 H 129.201 1.95455 4.86721 0
M  V30 1323 H 130.675 0.368813 5.50767 0
M  V30 1324 H 131.152 -0.834369 4.31202 0
M  V30 1325 H 131.758 0.831864 4.17085 0
M  V30 1326 N 130.073 -1.45103 0.615059 0
M  V30 1327 C 131.02 -2.30586 -0.0993978 0
M  V30 1328 C 131.99 -1.42544 -0.852669 0
M  V30 1329 O 133.175 -1.71465 -0.836917 0
M  V30 1330 C 130.315 -3.27572 -1.08583 0
M  V30 1331 C 129.428 -4.30717 -0.332656 0
M  V30 1332 C 128.563 -5.14807 -1.30947 0
M  V30 1333 C 127.602 -6.09673 -0.544538 0
M  V30 1334 N 126.739 -6.86517 -1.47101 0
M  V30 1335 H 131.579 -2.91144 0.635542 0
M  V30 1336 H 129.116 -1.4346 0.325206 0
M  V30 1337 H 131.074 -3.82276 -1.67095 0
M  V30 1338 H 129.704 -2.68751 -1.78809 0
M  V30 1339 H 128.756 -3.78615 0.368107 0
M  V30 1340 H 130.068 -4.98102 0.263842 0
M  V30 1341 H 129.222 -5.73948 -1.96643 0
M  V30 1342 H 127.961 -4.47458 -1.9399 0
M  V30 1343 H 126.966 -5.49656 0.126003 0
M  V30 1344 H 128.191 -6.79052 0.080947 0
M  V30 1345 H 126.137 -6.21851 -2.08895 0
M  V30 1346 H 126.054 -7.50281 -0.928137 0
M  V30 1347 H 127.322 -7.50194 -2.11731 0
M  V30 1348 N 131.551 -0.354651 -1.53558 0
M  V30 1349 C 132.499 0.512195 -2.26891 0
M  V30 1350 C 133.493 1.09263 -1.29452 0
M  V30 1351 O 134.699 1.03709 -1.47121 0
M  V30 1352 H 131.074 0.183878 -0.729173 0
M  V30 1353 H 133.045 -0.128202 -2.98124 0
M  V30 1354 C 131.794 1.64563 -3.06291 0
M  V30 1355 H 131.117 1.20829 -3.81104 0
M  V30 1356 H 132.557 2.22711 -3.60799 0
M  V30 1357 C 131.016 2.58158 -2.16462 0
M  V30 1358 O 131.546 3.60695 -1.76811 0
M  V30 1359 N 129.752 2.27096 -1.81317 0
M  V30 1360 H 129.299 1.43751 -2.1376 0
M  V30 1361 H 129.257 2.89975 -1.21498 0
M  V30 1362 N 133.029 1.57378 -0.0835403 0
M  V30 1363 C 133.959 2.1641 0.87686 0
M  V30 1364 C 134.94 1.09429 1.30228 0
M  V30 1365 O 136.125 1.37516 1.37124 0
M  V30 1366 C 133.255 2.73517 2.14022 0
M  V30 1367 C 132.209 3.85769 1.85381 0
M  V30 1368 C 131.535 4.29529 3.18448 0
M  V30 1369 C 132.835 5.09486 1.14984 0
M  V30 1370 H 134.529 2.96914 0.385059 0
M  V30 1371 H 132.075 1.42823 0.18377 0
M  V30 1372 H 134.028 3.13463 2.81636 0
M  V30 1373 H 132.752 1.90252 2.65465 0
M  V30 1374 H 131.411 3.46345 1.20169 0
M  V30 1375 H 131.059 3.43169 3.67755 0
M  V30 1376 H 130.759 5.05204 3.00071 0
M  V30 1377 H 132.283 4.72099 3.8724 0
M  V30 1378 H 133.697 5.46674 1.72687 0
M  V30 1379 H 132.094 5.90515 1.06826 0
M  V30 1380 H 133.164 4.84724 0.130749 0
M  V30 1381 N 134.507 -0.190092 1.56449 0
M  V30 1382 C 135.753 -0.911052 1.81184 0
M  V30 1383 C 136.086 -1.82699 0.658396 0
M  V30 1384 O 135.361 -1.91491 -0.340775 0
M  V30 1385 C 135.644 -1.72297 3.16205 0
M  V30 1386 C 135.497 -0.831419 4.42049 0
M  V30 1387 C 136.816 -2.69454 3.47969 0
M  V30 1388 H 133.935 -0.32977 0.659106 0
M  V30 1389 H 136.577 -0.178169 1.89163 0
M  V30 1390 H 134.727 -2.34778 3.09534 0
M  V30 1391 H 136.399 -0.220929 4.60771 0
M  V30 1392 H 134.642 -0.138406 4.33579 0
M  V30 1393 H 135.313 -1.43461 5.33032 0
M  V30 1394 H 137.789 -2.17104 3.54972 0
M  V30 1395 H 136.665 -3.23342 4.43555 0
M  V30 1396 H 136.926 -3.48744 2.71717 0
M  V30 1397 N 135.985 -1.50799 -0.457987 0
M  V30 1398 C 137.21 -1.66496 -1.23668 0
M  V30 1399 C 137.635 -0.353288 -1.84752 0
M  V30 1400 O 136.993 0.684346 -1.67888 0
M  V30 1401 C 137.041 -2.76763 -2.3116 0
M  V30 1402 O 136.145 -2.38928 -3.36136 0
M  V30 1403 H 135.486 -0.555828 -0.363252 0
M  V30 1404 H 138.016 -1.9725 -0.543474 0
M  V30 1405 H 138.026 -3.00232 -2.76269 0
M  V30 1406 H 136.701 -3.71954 -1.86073 0
M  V30 1407 H 135.278 -2.25953 -2.96647 0
M  V30 1408 N 137.463 0.71206 -1.40597 0
M  V30 1409 C 138.712 1.46754 -1.38369 0
M  V30 1410 C 139.025 1.95598 0.0097839 0
M  V30 1411 O 140.231 2.71059 0.154677 0
M  V30 1412 C 138.687 2.65289 -2.43207 0
M  V30 1413 C 138.295 2.23301 -3.88382 0
M  V30 1414 C 140.039 3.43008 -2.50091 0
M  V30 1415 C 137.946 3.38696 -4.84808 0
M  V30 1416 H 136.876 0.55118 -0.514506 0
M  V30 1417 H 139.527 0.774616 -1.66349 0
M  V30 1418 H 137.909 3.36769 -2.08332 0
M  V30 1419 H 139.083 1.59218 -4.32419 0
M  V30 1420 H 137.398 1.58618 -3.85006 0
M  V30 1421 H 139.995 4.28881 -3.1932 0
M  V30 1422 H 140.338 3.87065 -1.53253 0
M  V30 1423 H 140.871 2.78574 -2.83974 0
M  V30 1424 H 137.61 2.99668 -5.82992 0
M  V30 1425 H 137.13 4.01683 -4.45433 0
M  V30 1426 H 138.809 4.04712 -5.04794 0
M  V30 1427 N 138.941 1.26152 0.944643 0
M  V30 1428 C 140.19 1.10883 1.68487 0
M  V30 1429 C 140.503 -0.348153 1.92477 0
M  V30 1430 O 141.709 -0.621459 2.64292 0
M  V30 1431 C 140.165 1.93624 3.03377 0
M  V30 1432 C 139.773 3.43875 2.87148 0
M  V30 1433 C 141.517 1.86954 3.81115 0
M  V30 1434 C 139.424 4.18875 4.1749 0
M  V30 1435 H 138.354 0.41135 0.631907 0
M  V30 1436 H 141.005 1.50433 1.05082 0
M  V30 1437 H 139.387 1.46904 3.67743 0
M  V30 1438 H 140.561 3.98338 2.31653 0
M  V30 1439 H 138.876 3.51744 2.22856 0
M  V30 1440 H 141.473 2.40275 4.77673 0
M  V30 1441 H 141.816 0.839518 4.07747 0
M  V30 1442 H 142.349 2.31477 3.23517 0
M  V30 1443 H 139.088 5.22332 3.96043 0
M  V30 1444 H 138.608 3.69193 4.72712 0
M  V30 1445 H 140.287 4.27134 4.85968 0
M  V30 1446 N 140.419 -1.14872 1.07899 0
M  V30 1447 C 141.666 -1.85789 0.805532 0
M  V30 1448 C 141.994 -1.82649 -0.668561 0
M  V30 1449 O 141.249 -1.24858 -1.50695 0
M  V30 1450 C 141.548 -3.34223 1.26609 0
M  V30 1451 C 141.214 -3.57555 2.74709 0
M  V30 1452 C 139.876 -3.63631 3.1516 0
M  V30 1453 C 142.228 -3.66803 3.70277 0
M  V30 1454 C 139.556 -3.76473 4.49983 0
M  V30 1455 C 141.908 -3.8117 5.04869 0
M  V30 1456 C 140.572 -3.85494 5.44932 0
M  V30 1457 H 139.842 -0.679849 0.294765 0
M  V30 1458 H 142.489 -1.3572 1.35101 0
M  V30 1459 H 140.794 -3.86536 0.640103 0
M  V30 1460 H 142.491 -3.87511 1.03132 0
M  V30 1461 H 139.081 -3.5347 2.42398 0
M  V30 1462 H 143.265 -3.61404 3.40149 0
M  V30 1463 H 138.521 -3.7808 4.80484 0
M  V30 1464 H 142.695 -3.87268 5.78789 0
M  V30 1465 H 140.322 -3.95197 6.49403 0
M  V30 1466 N 141.898 -0.863906 -1.31812 0
M  V30 1467 C 143.138 -0.47825 -1.98726 0
M  V30 1468 C 143.502 0.950397 -1.66828 0
M  V30 1469 O 144.703 1.44109 -2.26905 0
M  V30 1470 C 142.974 -0.721134 -3.50049 0
M  V30 1471 S 144.533 -0.434432 -4.36644 0
M  V30 1472 H 141.351 -0.178773 -0.688158 0
M  V30 1473 H 143.953 -1.11862 -1.60334 0
M  V30 1474 H 142.657 -1.75981 -3.70755 0
M  V30 1475 H 142.188 -0.0675315 -3.93342 0
M  V30 1476 H 144.203 0.735786 -4.90714 0
M  V30 1477 N 143.376 1.44774 -0.622745 0
M  V30 1478 C 144.286 2.34433 0.0886031 0
M  V30 1479 C 145.302 1.52131 0.844529 0
M  V30 1480 O 146.478 1.84886 0.798691 0
M  V30 1481 C 143.543 3.29986 1.0635 0
M  V30 1482 C 142.604 4.28195 0.307873 0
M  V30 1483 C 141.837 5.19183 1.23633 0
M  V30 1484 O 142.06 5.13918 2.47476 0
M  V30 1485 O 140.994 5.97515 0.725189 0
M  V30 1486 H 144.82 2.96693 -0.648599 0
M  V30 1487 H 142.405 1.44408 -0.382957 0
M  V30 1488 H 144.287 3.88825 1.6246 0
M  V30 1489 H 142.962 2.70269 1.78146 0
M  V30 1490 H 141.869 3.72927 -0.296064 0
M  V30 1491 H 143.202 4.90808 -0.3699 0
M  V30 1492 N 144.854 0.36279 1.53368 0
M  V30 1493 C 145.817 -0.472679 2.24273 0
M  V30 1494 C 146.817 -1.012 1.24961 0
M  V30 1495 O 148.007 -0.898194 1.49259 0
M  V30 1496 C 145.139 -1.66039 2.97731 0
M  V30 1497 H 146.332 0.14773 2.99536 0
M  V30 1498 H 143.885 0.114434 1.55881 0
M  V30 1499 H 144.62 -2.31896 2.26704 0
M  V30 1500 H 144.405 -1.28066 3.70596 0
M  V30 1501 H 145.895 -2.25252 3.51641 0
M  V30 1502 N 146.332 -1.57332 0.0918853 0
M  V30 1503 C 147.578 -1.94524 -0.573425 0
M  V30 1504 C 147.911 -0.973578 -1.68033 0
M  V30 1505 O 147.186 -0.00609226 -1.94499 0
M  V30 1506 C 147.469 -3.41858 -1.13161 0
M  V30 1507 C 147.322 -4.4979 -0.0299747 0
M  V30 1508 C 148.641 -3.90435 -2.03098 0
M  V30 1509 H 145.76 -0.70734 -0.206975 0
M  V30 1510 H 148.402 -1.89309 0.161942 0
M  V30 1511 H 146.552 -3.46433 -1.7583 0
M  V30 1512 H 148.224 -4.57327 0.604112 0
M  V30 1513 H 146.467 -4.291 0.636833 0
M  V30 1514 H 147.138 -5.50069 -0.461287 0
M  V30 1515 H 149.614 -3.87992 -1.50338 0
M  V30 1516 H 148.49 -4.94097 -2.39081 0
M  V30 1517 H 148.751 -3.29541 -2.94712 0
M  V30 1518 N 147.81 0.181792 -1.56548 0
M  V30 1519 C 148.773 1.20894 -1.94724 0
M  V30 1520 C 149.773 1.37738 -0.829747 0
M  V30 1521 O 150.963 1.35323 -1.09697 0
M  V30 1522 C 148.095 2.57593 -2.23291 0
M  V30 1523 H 149.288 0.882275 -2.86629 0
M  V30 1524 H 146.841 0.423838 -1.50444 0
M  V30 1525 H 147.576 2.95291 -1.34067 0
M  V30 1526 H 147.361 2.46735 -3.04736 0
M  V30 1527 H 148.851 3.31637 -2.53785 0
M  V30 1528 N 149.288 1.51039 0.449983 0
M  V30 1529 C 150.537 1.62317 1.19733 0
M  V30 1530 C 150.85 0.339101 1.92638 0
M  V30 1531 O 152.056 0.331069 2.69474 0
M  V30 1532 C 150.512 2.86608 2.17678 0
M  V30 1533 C 150.12 4.21972 1.50479 0
M  V30 1534 C 151.864 3.07239 2.92924 0
M  V30 1535 C 149.771 5.37426 2.46834 0
M  V30 1536 H 148.701 0.604532 0.450619 0
M  V30 1537 H 151.352 1.77494 0.465625 0
M  V30 1538 H 149.734 2.65037 2.94231 0
M  V30 1539 H 150.908 4.53878 0.795716 0
M  V30 1540 H 149.223 4.07117 0.874344 0
M  V30 1541 H 151.82 3.90668 3.65079 0
M  V30 1542 H 152.163 2.19807 3.5354 0
M  V30 1543 H 152.696 3.29091 2.23481 0
M  V30 1544 H 149.435 6.27079 1.90926 0
M  V30 1545 H 148.955 5.09912 3.15832 0
M  V30 1546 H 150.634 5.68862 3.08228 0
M  V30 1547 N 150.766 -0.704594 1.40972 0
M  V30 1548 C 151.996 -1.49138 1.42974 0
M  V30 1549 C 152.404 -1.89175 0.0308406 0
M  V30 1550 O 151.747 -1.56734 -0.958138 0
M  V30 1551 C 151.809 -2.79016 2.26694 0
M  V30 1552 C 151.473 -2.61236 3.74973 0
M  V30 1553 C 152.47 -2.27773 4.67349 0
M  V30 1554 C 150.155 -2.77158 4.18914 0
M  V30 1555 C 152.149 -2.10457 6.01653 0
M  V30 1556 C 149.836 -2.59459 5.53285 0
M  V30 1557 C 150.834 -2.26158 6.4447 0
M  V30 1558 O 150.522 -2.08605 7.76363 0
M  V30 1559 H 150.254 -0.466443 0.489292 0
M  V30 1560 H 152.808 -0.8758 1.85793 0
M  V30 1561 H 151.038 -3.42947 1.78673 0
M  V30 1562 H 152.727 -3.40782 2.20504 0
M  V30 1563 H 153.493 -2.15095 4.34694 0
M  V30 1564 H 149.372 -3.02064 3.48251 0
M  V30 1565 H 152.916 -1.84387 6.72791 0
M  V30 1566 H 148.813 -2.71725 5.85522 0
M  V30 1567 H 149.581 -2.23439 7.87412 0
M  V30 1568 N 152.244 -1.26651 -0.937939 0
M  V30 1569 C 153.492 -1.12165 -1.68118 0
M  V30 1570 C 153.813 0.334983 -1.92101 0
M  V30 1571 O 153.083 1.23583 -1.52 0
M  V30 1572 H 151.663 -0.412093 -0.623048 0
M  V30 1573 H 154.325 -1.59027 -1.12678 0
M  V30 1574 H 153.421 -1.64289 -2.6536 0
M  V30 1575 N 153.722 1.14298 -1.08507 0
M  V30 1576 C 154.971 1.84708 -0.810305 0
M  V30 1577 C 155.284 1.83903 0.666271 0
M  V30 1578 O 156.49 2.50112 1.05624 0
M  V30 1579 C 154.946 3.31572 -1.39957 0
M  V30 1580 C 154.554 3.40791 -2.90801 0
M  V30 1581 C 156.298 4.07087 -1.20334 0
M  V30 1582 C 154.205 4.81872 -3.4286 0
M  V30 1583 H 153.135 0.691985 -0.299454 0
M  V30 1584 H 155.786 1.28841 -1.30661 0
M  V30 1585 H 154.168 3.87183 -0.830976 0
M  V30 1586 H 155.342 2.95225 -3.53806 0
M  V30 1587 H 153.657 2.78732 -3.0935 0
M  V30 1588 H 156.254 5.11225 -1.56693 0
M  V30 1589 H 156.597 4.16054 -0.143237 0
M  V30 1590 H 157.13 3.57779 -1.73893 0
M  V30 1591 H 153.869 4.78094 -4.48449 0
M  V30 1592 H 153.389 5.27972 -2.84615 0
M  V30 1593 H 155.068 5.50765 -3.39509 0
M  V30 1594 N 155.201 0.870884 1.31352 0
M  V30 1595 C 156.45 0.478408 1.95944 0
M  V30 1596 C 156.763 -0.974493 1.69597 0
M  V30 1597 O 157.969 -1.47316 2.28058 0
M  V30 1598 C 156.425 0.804609 3.50791 0
M  V30 1599 C 156.033 2.27433 3.85977 0
M  V30 1600 C 157.777 0.480648 4.2177 0
M  V30 1601 C 155.684 2.5429 5.33939 0
M  V30 1602 H 154.614 0.175175 0.733369 0
M  V30 1603 H 157.265 1.06391 1.4951 0
M  V30 1604 H 155.647 0.148347 3.95722 0
M  V30 1605 H 156.821 2.97373 3.52002 0
M  V30 1606 H 155.136 2.56442 3.28065 0
M  V30 1607 H 157.733 0.658519 5.30629 0
M  V30 1608 H 158.076 -0.578979 4.12254 0
M  V30 1609 H 158.609 1.09349 3.82476 0
M  V30 1610 H 155.348 3.58939 5.48491 0
M  V30 1611 H 154.868 1.88945 5.69263 0
M  V30 1612 H 156.547 2.39066 6.01212 0
M  V30 1613 N 156.679 -1.44442 0.630414 0
M  V30 1614 C 157.612 -2.27862 -0.124247 0
M  V30 1615 C 158.59 -1.38495 -0.851931 0
M  V30 1616 O 159.774 -1.67935 -0.856166 0
M  V30 1617 C 156.901 -3.17407 -1.18197 0
M  V30 1618 C 155.947 -4.22875 -0.554892 0
M  V30 1619 S 156.78 -5.31485 0.654489 0
M  V30 1620 C 157.936 -6.246 -0.40326 0
M  V30 1621 H 158.169 -2.91519 0.583435 0
M  V30 1622 H 155.702 -1.48618 0.418565 0
M  V30 1623 H 157.66 -3.69549 -1.78728 0
M  V30 1624 H 156.321 -2.52971 -1.86184 0
M  V30 1625 H 155.514 -4.85542 -1.35148 0
M  V30 1626 H 155.116 -3.73992 -0.0242105 0
M  V30 1627 H 157.408 -6.65375 -1.27602 0
M  V30 1628 H 158.351 -7.07851 0.187813 0
M  V30 1629 H 158.759 -5.59775 -0.728837 0
M  V30 1630 N 158.157 -0.370918 -1.53173 0
M  V30 1631 C 159.12 0.460778 -2.24521 0
M  V30 1632 C 160.12 1.00536 -1.25496 0
M  V30 1633 O 161.31 0.890266 -1.49733 0
M  V30 1634 C 158.442 1.64457 -2.98608 0
M  V30 1635 H 159.635 -0.163613 -2.99453 0
M  V30 1636 H 157.188 -0.122699 -1.55818 0
M  V30 1637 H 157.923 2.30691 -2.2793 0
M  V30 1638 H 157.708 1.26099 -3.7127 0
M  V30 1639 H 159.198 2.23384 -3.5283 0
M  V30 1640 N 159.635 1.57281 -0.100228 0
M  V30 1641 C 160.884 1.93713 0.561984 0
M  V30 1642 C 161.197 0.984492 1.69018 0
M  V30 1643 O 162.403 1.24273 2.41389 0
M  V30 1644 C 160.859 3.4421 1.05106 0
M  V30 1645 C 160.467 4.47975 -0.0476628 0
M  V30 1646 C 162.211 3.89595 1.68571 0
M  V30 1647 C 160.118 5.89631 0.457055 0
M  V30 1648 H 159.048 0.723082 0.2137 0
M  V30 1649 H 161.699 1.82644 -0.177057 0
M  V30 1650 H 160.081 3.50449 1.84395 0
M  V30 1651 H 161.255 4.53385 -0.823333 0
M  V30 1652 H 159.57 4.1223 -0.587816 0
M  V30 1653 H 162.167 4.92832 2.07414 0
M  V30 1654 H 162.51 3.28526 2.55688 0
M  V30 1655 H 163.043 3.86078 0.958562 0
M  V30 1656 H 159.782 6.54411 -0.377616 0
M  V30 1657 H 159.302 5.87681 1.19962 0
M  V30 1658 H 160.981 6.40363 0.92437 0
M  V30 1659 N 161.113 -0.173488 1.56642 0
M  V30 1660 C 162.359 -0.891784 1.8214 0
M  V30 1661 C 162.692 -1.8199 0.677736 0
M  V30 1662 O 161.967 -1.91842 -0.320446 0
M  V30 1663 C 162.25 -1.68933 3.18015 0
M  V30 1664 C 162.103 -0.784487 4.42906 0
M  V30 1665 C 163.422 -2.65748 3.50808 0
M  V30 1666 H 160.541 -0.322761 0.662567 0
M  V30 1667 H 163.183 -0.158095 1.89341 0
M  V30 1668 H 161.333 -2.31482 3.12007 0
M  V30 1669 H 163.005 -0.172046 4.60979 0
M  V30 1670 H 161.248 -0.0924117 4.33702 0
M  V30 1671 H 161.919 -1.37799 5.34524 0
M  V30 1672 H 164.395 -2.13327 3.57255 0
M  V30 1673 H 163.271 -3.18619 4.4696 0
M  V30 1674 H 163.532 -3.45842 2.75401 0
M  V30 1675 N 162.591 -1.51276 -0.441967 0
M  V30 1676 C 163.84 -1.6295 -1.18871 0
M  V30 1677 C 164.153 -0.349312 -1.92456 0
M  V30 1678 O 165.359 -0.345355 -2.69295 0
M  V30 1679 C 163.815 -2.87759 -2.16155 0
M  V30 1680 C 163.423 -4.22764 -1.48239 0
M  V30 1681 C 165.167 -3.08788 -2.91291 0
M  V30 1682 C 163.074 -5.38728 -2.4398 0
M  V30 1683 H 162.004 -0.606913 -0.447406 0
M  V30 1684 H 164.655 -1.77739 -0.456205 0
M  V30 1685 H 163.037 -2.66593 -2.92821 0
M  V30 1686 H 164.211 -4.54293 -0.771635 0
M  V30 1687 H 162.526 -4.07575 -0.852741 0
M  V30 1688 H 165.123 -3.92599 -3.63002 0
M  V30 1689 H 165.466 -2.21679 -3.5237 0
M  V30 1690 H 165.999 -3.30272 -2.21733 0
M  V30 1691 H 162.738 -6.28082 -1.87598 0
M  V30 1692 H 162.258 -5.1158 -3.13123 0
M  V30 1693 H 163.937 -5.70489 -3.05207 0
M  V30 1694 N 164.069 0.697108 -1.41344 0
M  V30 1695 C 165.294 1.49096 -1.44171 0
M  V30 1696 C 165.719 1.88038 -0.0481568 0
M  V30 1697 O 165.077 1.54525 0.948243 0
M  V30 1698 C 165.125 2.73088 -2.3549 0
M  V30 1699 O 164.229 3.70514 -1.81088 0
M  V30 1700 H 163.57 0.448801 -0.489361 0
M  V30 1701 H 166.1 0.856992 -1.85787 0
M  V30 1702 H 166.11 3.21413 -2.51312 0
M  V30 1703 H 164.785 2.44081 -3.36745 0
M  V30 1704 H 163.362 3.29441 -1.74708 0
M  V30 1705 N 165.547 1.27147 0.931209 0
M  V30 1706 C 166.495 1.09398 2.05268 0
M  V30 1707 C 167.489 0.0180591 1.6939 0
M  V30 1708 O 168.695 0.17551 1.79142 0
M  V30 1709 H 165.07 0.336986 0.672268 0
M  V30 1710 H 167.041 2.04416 2.17386 0
M  V30 1711 C 165.79 0.75424 3.39421 0
M  V30 1712 H 165.113 1.57404 3.67511 0
M  V30 1713 H 166.553 0.669903 4.18674 0
M  V30 1714 C 165.012 -0.541197 3.32525 0
M  V30 1715 O 165.542 -1.57664 3.69466 0
M  V30 1716 N 163.748 -0.535517 2.85623 0
M  V30 1717 H 163.295 0.307511 2.55758 0
M  V30 1718 H 163.253 -1.40236 2.81392 0
M  V30 1719 N 167.025 -1.13721 1.09112 0
M  V30 1720 C 167.958 -2.18094 0.67158 0
M  V30 1721 C 168.936 -1.59414 -0.320299 0
M  V30 1722 O 170.12 -1.87183 -0.222444 0
M  V30 1723 C 167.247 -3.38698 -0.0111189 0
M  V30 1724 C 166.293 -4.15966 0.942055 0
M  V30 1725 S 167.126 -4.7604 2.45246 0
M  V30 1726 C 168.282 -5.99994 1.78208 0
M  V30 1727 H 168.515 -2.53344 1.55577 0
M  V30 1728 H 166.048 -1.24967 0.906789 0
M  V30 1729 H 168.006 -4.08559 -0.398716 0
M  V30 1730 H 166.667 -3.01756 -0.871905 0
M  V30 1731 H 165.86 -5.02318 0.411396 0
M  V30 1732 H 165.462 -3.51745 1.2709 0
M  V30 1733 H 167.754 -6.68441 1.10424 0
M  V30 1734 H 168.697 -6.57662 2.62463 0
M  V30 1735 H 169.105 -5.50432 1.25238 0
M  V30 1736 N 168.503 -0.877838 -1.30888 0
M  V30 1737 C 169.466 -0.344265 -2.266 0
M  V30 1738 C 170.466 0.50922 -1.52524 0
M  V30 1739 O 171.656 0.317398 -1.71284 0
M  V30 1740 C 168.788 0.510198 -3.37061 0
M  V30 1741 H 169.981 -1.1893 -2.7531 0
M  V30 1742 H 167.534 -0.654088 -1.41956 0
M  V30 1743 H 168.269 1.37612 -2.93655 0
M  V30 1744 H 168.054 -0.101047 -3.9197 0
M  V30 1745 H 169.544 0.875537 -4.08319 0
M  V30 1746 N 169.982 1.44106 -0.638065 0
M  V30 1747 C 170.892 2.34513 0.0637334 0
M  V30 1748 C 171.908 1.53018 0.828346 0
M  V30 1749 O 173.084 1.85723 0.779036 0
M  V30 1750 C 170.149 3.31095 1.02844 0
M  V30 1751 C 169.21 4.28497 0.26244 0
M  V30 1752 C 168.443 5.20465 1.1812 0
M  V30 1753 O 168.666 5.16514 2.42011 0
M  V30 1754 O 167.6 5.98251 0.661774 0
M  V30 1755 H 171.426 2.95989 -0.68003 0
M  V30 1756 H 169.011 1.43994 -0.398252 0
M  V30 1757 H 170.893 3.90526 1.58327 0
M  V30 1758 H 169.568 2.72144 1.7527 0
M  V30 1759 H 168.475 3.72592 -0.335602 0
M  V30 1760 H 169.808 4.90388 -0.421936 0
M  V30 1761 N 171.46 0.379036 1.52974 0
M  V30 1762 C 172.871 -0.0972525 1.86447 0
M  V30 1763 C 173.222 -1.47027 1.29914 0
M  V30 1764 O 172.347 -2.07135 0.626433 0
M  V30 1765 C 172.942 -0.183248 3.38304 0
M  V30 1766 C 171.501 -0.603812 3.71525 0
M  V30 1767 C 170.648 0.240632 2.76254 0
M  V30 1768 H 173.599 0.597316 1.4703 0
M  V30 1769 H 173.62 -1.00432 3.67006 0
M  V30 1770 H 173.132 0.816191 3.79421 0
M  V30 1771 H 171.233 -1.61099 3.35973 0
M  V30 1772 H 171.346 -0.369086 4.77676 0
M  V30 1773 H 169.71 -0.292548 2.53014 0
M  V30 1774 H 170.493 1.23786 3.20206 0
M  V30 1775 N 172.938 -1.57226 0.108567 0
M  V30 1776 C 174.185 -1.94833 -0.551943 0
M  V30 1777 C 174.513 -0.991204 -1.67348 0
M  V30 1778 O 173.768 -0.0131878 -1.95696 0
M  V30 1779 C 174.067 -3.38911 -1.13463 0
M  V30 1780 C 173.733 -4.50696 -0.135509 0
M  V30 1781 C 172.395 -4.80998 0.139252 0
M  V30 1782 C 174.747 -5.18333 0.545957 0
M  V30 1783 C 172.075 -5.76259 1.10194 0
M  V30 1784 C 174.427 -6.14627 1.49721 0
M  V30 1785 C 173.091 -6.43327 1.78006 0
M  V30 1786 H 172.361 -0.712944 -0.20197 0
M  V30 1787 H 175.008 -1.90582 0.18726 0
M  V30 1788 H 173.313 -3.39805 -1.95037 0
M  V30 1789 H 175.01 -3.65317 -1.65362 0
M  V30 1790 H 171.6 -4.27087 -0.359846 0
M  V30 1791 H 175.784 -4.95087 0.346842 0
M  V30 1792 H 171.04 -5.96804 1.32795 0
M  V30 1793 H 175.214 -6.66126 2.03099 0
M  V30 1794 H 172.841 -7.1695 2.52759 0
M  V30 1795 N 174.416 0.165178 -1.56732 0
M  V30 1796 C 175.641 0.900253 -1.86843 0
M  V30 1797 C 176.066 1.74766 -0.695596 0
M  V30 1798 O 175.424 1.77786 0.35522 0
M  V30 1799 C 175.472 1.74777 -3.15413 0
M  V30 1800 O 174.576 2.85007 -2.98068 0
M  V30 1801 H 173.917 0.251832 -0.614391 0
M  V30 1802 H 176.447 0.161468 -2.03962 0
M  V30 1803 H 176.457 2.14646 -3.46974 0
M  V30 1804 H 175.132 1.12537 -4.00385 0
M  V30 1805 H 173.709 2.48676 -2.77875 0
M  V30 1806 N 175.894 1.51508 0.433938 0
M  V30 1807 C 176.857 1.72473 1.50949 0
M  V30 1808 C 177.857 0.594725 1.49398 0
M  V30 1809 O 179.047 0.862315 1.5136 0
M  V30 1810 C 176.179 1.78431 2.90474 0
M  V30 1811 H 177.372 2.68467 1.33662 0
M  V30 1812 H 174.925 1.41549 0.662836 0
M  V30 1813 H 175.66 0.842645 3.13161 0
M  V30 1814 H 175.445 2.60558 2.93005 0
M  V30 1815 H 176.935 1.96479 3.68491 0
M  V30 1816 N 177.372 -0.689602 1.41712 0
M  V30 1817 C 178.6 -1.47827 1.44758 0
M  V30 1818 C 179.015 -1.88721 0.0545703 0
M  V30 1819 O 178.372 -1.57176 -0.927463 0
M  V30 1820 C 178.423 -2.73698 2.3616 0
M  V30 1821 O 178.144 -2.34524 3.7004 0
M  V30 1822 C 179.645 -3.67389 2.48072 0
M  V30 1823 H 176.865 -0.455357 0.49284 0
M  V30 1824 H 179.409 -0.848574 1.86063 0
M  V30 1825 H 177.564 -3.32891 1.98148 0
M  V30 1826 H 177.978 -3.15701 4.18847 0
M  V30 1827 H 179.452 -4.52475 3.16181 0
M  V30 1828 H 179.929 -4.12284 1.51388 0
M  V30 1829 H 180.535 -3.14097 2.86746 0
M  V30 1830 N 178.85 -1.27639 -0.924453 0
M  V30 1831 C 180.127 -1.04887 -1.651 0
M  V30 1832 C 180.507 0.415327 -2.06974 0
M  V30 1833 O 179.855 1.39923 -1.80648 0
M  V30 1834 C 180.065 -2.01348 -2.85061 0
M  V30 1835 C 181.413 -2.30899 -3.56329 0
M  V30 1836 O 182.437 -1.99348 -2.95193 0
M  V30 1837 O 181.296 -2.84699 -4.66485 0
M  V30 1838 H 178.39 -0.400083 -0.723784 0
M  V30 1839 H 180.936 -1.38916 -0.974703 0
M  V30 1840 H 179.708 -3.0008 -2.51133 0
M  V30 1841 H 179.331 -1.679 -3.6041 0
M  V30 1842 N 180.328 1.1314 -1.09713 0
M  V30 1843 C 181.739 1.66029 -0.853885 0
M  V30 1844 C 182.09 1.86241 0.617142 0
M  V30 1845 O 181.215 1.5834 1.47503 0
M  V30 1846 C 181.81 3.01599 -1.5435 0
M  V30 1847 C 180.369 3.51467 -1.34714 0
M  V30 1848 C 179.516 2.26648 -1.59769 0
M  V30 1849 H 182.467 0.970226 -1.25588 0
M  V30 1850 H 182.488 3.67709 -0.978267 0
M  V30 1851 H 182 2.86856 -2.6141 0
M  V30 1852 H 180.101 3.71408 -0.297838 0
M  V30 1853 H 180.214 4.314 -2.08401 0
M  V30 1854 H 178.578 2.33385 -1.01998 0
M  V30 1855 H 179.361 2.14467 -2.68065 0
M  V30 1856 N 181.806 0.884767 1.30421 0
M  V30 1857 C 182.753 0.349642 2.28136 0
M  V30 1858 C 183.723 -0.560061 1.56373 0
M  V30 1859 O 184.908 -0.488524 1.8444 0
M  V30 1860 C 182.048 -0.42999 3.42411 0
M  V30 1861 C 181.161 0.508907 4.28992 0
M  V30 1862 C 180.296 -0.286301 5.30428 0
M  V30 1863 C 179.335 0.648079 6.08659 0
M  V30 1864 N 178.472 -0.111792 7.02011 0
M  V30 1865 H 183.312 1.18807 2.73293 0
M  V30 1866 H 180.849 0.597231 1.3443 0
M  V30 1867 H 182.807 -0.897923 4.07423 0
M  V30 1868 H 181.437 -1.23299 2.98324 0
M  V30 1869 H 180.489 1.09533 3.64289 0
M  V30 1870 H 181.801 1.22475 4.8353 0
M  V30 1871 H 180.955 -0.816098 6.01186 0
M  V30 1872 H 179.694 -1.03536 4.76583 0
M  V30 1873 H 178.699 1.18951 5.36778 0
M  V30 1874 H 179.924 1.39623 6.64592 0
M  V30 1875 H 177.87 -0.843395 6.50556 0
M  V30 1876 H 177.787 0.544429 7.54037 0
M  V30 1877 H 179.055 -0.622339 7.77012 0
M  V30 1878 N 183.284 -1.43765 0.645699 0
M  V30 1879 C 184.247 -2.29163 -0.0409488 0
M  V30 1880 C 185.247 -1.41813 -0.757996 0
M  V30 1881 O 186.437 -1.63527 -0.600382 0
M  V30 1882 C 183.569 -3.23716 -1.06869 0
M  V30 1883 H 184.762 -2.91366 0.710345 0
M  V30 1884 H 182.315 -1.5092 0.406547 0
M  V30 1885 H 183.05 -2.66393 -1.84947 0
M  V30 1886 H 182.835 -3.88105 -0.558277 0
M  V30 1887 H 184.325 -3.87831 -1.54845 0
M  V30 1888 N 184.763 -0.387143 -1.52771 0
M  V30 1889 C 186.012 0.19697 -2.00736 0
M  V30 1890 C 186.325 1.48082 -1.27793 0
M  V30 1891 O 187.531 2.14485 -1.66458 0
M  V30 1892 C 185.987 0.401568 -3.57653 0
M  V30 1893 C 185.595 -0.868907 -4.39493 0
M  V30 1894 C 187.339 0.942164 -4.13912 0
M  V30 1895 C 185.246 -0.632705 -5.88006 0
M  V30 1896 H 184.176 0.0773827 -0.750019 0
M  V30 1897 H 186.827 -0.50921 -1.76293 0
M  V30 1898 H 185.209 1.16954 -3.78335 0
M  V30 1899 H 186.383 -1.64133 -4.30577 0
M  V30 1900 H 184.698 -1.33429 -3.94443 0
M  V30 1901 H 187.295 1.13455 -5.22525 0
M  V30 1902 H 187.638 1.9106 -3.69867 0
M  V30 1903 H 188.171 0.233814 -3.97112 0
M  V30 1904 H 184.91 -1.57208 -6.36369 0
M  V30 1905 H 184.43 0.100825 -5.99715 0
M  V30 1906 H 186.109 -0.26642 -6.46451 0
M  V30 1907 N 186.241 1.57166 -0.116904 0
M  V30 1908 C 187.489 1.94737 0.540533 0
M  V30 1909 C 187.81 1.00096 1.67349 0
M  V30 1910 O 187.08 0.0568854 1.95817 0
M  V30 1911 H 185.66 0.718981 0.202669 0
M  V30 1912 H 188.322 1.94017 -0.185353 0
M  V30 1913 H 187.418 2.97719 0.936483 0
M  V30 1914 N 187.719 -0.156864 1.56817 0
M  V30 1915 C 188.669 -1.19891 1.93934 0
M  V30 1916 C 189.653 -1.39061 0.809372 0
M  V30 1917 O 190.845 -1.40789 1.07273 0
M  V30 1918 C 187.974 -2.53493 2.31508 0
M  V30 1919 C 187.06 -2.37957 3.51052 0
M  V30 1920 N 187.451 -1.92158 4.67877 0
M  V30 1921 C 185.749 -2.68739 3.55943 0
M  V30 1922 C 186.45 -1.8943 5.49992 0
M  V30 1923 N 185.426 -2.32375 4.91429 0
M  V30 1924 H 189.228 -0.836746 2.81737 0
M  V30 1925 H 186.742 -0.365012 1.58245 0
M  V30 1926 H 188.739 -3.28811 2.56299 0
M  V30 1927 H 187.399 -2.905 1.45051 0
M  V30 1928 H 188.41 -1.62274 4.91821 0
M  V30 1929 H 185.087 -3.09687 2.80001 0
M  V30 1930 H 186.477 -1.55596 6.53636 0
M  V30 1931 N 189.197 -1.51736 -0.425897 0
M  V30 1932 C 190.613 -1.40166 -0.76326 0
M  V30 1933 C 190.813 -0.492962 -1.95377 0
M  V30 1934 O 189.869 0.0475815 -2.52455 0
M  V30 1935 C 191.182 -2.82403 -1.03291 0
M  V30 1936 C 192.73 -2.91632 -1.13665 0
M  V30 1937 C 193.205 -4.34801 -1.43916 0
M  V30 1938 N 194.696 -4.3796 -1.50816 0
M  V30 1939 C 195.431 -5.4578 -1.75817 0
M  V30 1940 N 194.927 -6.63744 -1.98534 0
M  V30 1941 N 196.72 -5.33274 -1.77694 0
M  V30 1942 H 188.871 -2.09361 0.358 0
M  V30 1943 H 191.134 -0.942941 0.0978094 0
M  V30 1944 H 190.84 -3.50943 -0.230696 0
M  V30 1945 H 190.714 -3.22428 -1.95754 0
M  V30 1946 H 193.101 -2.23284 -1.92947 0
M  V30 1947 H 193.182 -2.55088 -0.190756 0
M  V30 1948 H 192.826 -5.03703 -0.65157 0
M  V30 1949 H 192.756 -4.68868 -2.39729 0
M  V30 1950 H 195.247 -3.52919 -1.35118 0
M  V30 1951 H 195.56 -7.41704 -2.17013 0
M  V30 1952 H 193.905 -6.66839 -1.95832 0
M  V30 1953 H 197.096 -4.40098 -1.59473 0
M  V30 1954 H 197.269 -6.1738 -1.9684 0
M  V30 1955 N 190.675 0.682077 -1.42076 0
M  V30 1956 C 191.623 1.81707 -1.45208 0
M  V30 1957 C 192.617 1.66183 -0.328591 0
M  V30 1958 O 193.823 1.7288 -0.501264 0
M  V30 1959 H 190.198 0.599014 -0.454628 0
M  V30 1960 H 192.169 1.76183 -2.40836 0
M  V30 1961 C 190.918 3.19816 -1.36428 0
M  V30 1962 H 190.241 3.32385 -2.22171 0
M  V30 1963 H 191.681 3.99272 -1.42681 0
M  V30 1964 C 190.14 3.36809 -0.078191 0
M  V30 1965 O 190.67 3.92124 0.87188 0
M  V30 1966 N 188.876 2.906 0.00229266 0
M  V30 1967 H 188.423 2.45772 -0.771616 0
M  V30 1968 H 188.381 3.02347 0.862179 0
M  V30 1969 N 192.153 1.28127 0.917671 0
M  V30 1970 C 193.383 1.17722 1.6978 0
M  V30 1971 C 193.791 -0.267261 1.87303 0
M  V30 1972 O 193.134 -1.19286 1.39702 0
M  V30 1973 C 193.196 1.79958 3.11216 0
M  V30 1974 C 192.86 3.29187 3.16993 0
M  V30 1975 C 193.857 4.25679 2.98485 0
M  V30 1976 C 191.542 3.70075 3.39632 0
M  V30 1977 C 193.536 5.61035 3.02521 0
M  V30 1978 C 191.223 5.05557 3.433 0
M  V30 1979 C 192.221 6.00847 3.24764 0
M  V30 1980 O 191.909 7.33859 3.28187 0
M  V30 1981 H 191.641 0.409788 0.537634 0
M  V30 1982 H 194.195 1.69694 1.15728 0
M  V30 1983 H 192.425 1.22475 3.66793 0
M  V30 1984 H 194.114 1.64125 3.71238 0
M  V30 1985 H 194.88 3.95426 2.80826 0
M  V30 1986 H 190.759 2.96373 3.53106 0
M  V30 1987 H 194.303 6.35388 2.87971 0
M  V30 1988 H 190.2 5.35462 3.60486 0
M  V30 1989 H 190.968 7.42436 3.44575 0
M  V30 1990 N 193.631 -1.12557 1.10312 0
M  V30 1991 C 194.581 -2.16331 0.720076 0
M  V30 1992 C 195.565 -1.58616 -0.270115 0
M  V30 1993 O 196.757 -1.76823 -0.0790507 0
M  V30 1994 C 193.886 -3.42963 0.152113 0
M  V30 1995 C 192.972 -4.07663 1.16927 0
M  V30 1996 N 193.363 -4.47392 2.35953 0
M  V30 1997 C 191.661 -4.34425 1.0095 0
M  V30 1998 C 192.362 -4.97932 3.0073 0
M  V30 1999 N 191.338 -4.93358 2.28252 0
M  V30 2000 H 195.14 -2.44813 1.62616 0
M  V30 2001 H 192.654 -1.29449 0.980654 0
M  V30 2002 H 194.651 -4.16664 -0.14037 0
M  V30 2003 H 193.311 -3.1595 -0.748701 0
M  V30 2004 H 194.322 -4.39802 2.73486 0
M  V30 2005 H 190.999 -4.17177 0.164134 0
M  V30 2006 H 192.389 -5.38397 4.01969 0
M  V30 2007 N 195.109 -0.891671 -1.2995 0
M  V30 2008 C 196.072 -0.36828 -2.26222 0
M  V30 2009 C 197.072 0.493014 -1.53056 0
M  V30 2010 O 198.262 0.299213 -1.71611 0
M  V30 2011 C 195.394 0.47442 -3.37583 0
M  V30 2012 H 196.587 -1.21844 -2.74033 0
M  V30 2013 H 194.14 -0.669107 -1.41254 0
M  V30 2014 H 194.875 1.34489 -2.95099 0
M  V30 2015 H 194.66 -0.142615 -3.91841 0
M  V30 2016 H 196.15 0.83218 -4.09224 0
M  V30 2017 N 196.587 1.43421 -0.653314 0
M  V30 2018 C 197.835 2.01414 -0.166415 0
M  V30 2019 C 198.156 1.51803 1.22397 0
M  V30 2020 O 197.426 0.730693 1.81763 0
M  V30 2021 H 196.006 0.744703 -0.0585319 0
M  V30 2022 H 198.668 1.75629 -0.845003 0
M  V30 2023 H 197.764 3.11734 -0.151111 0
M  V30 2024 N 198.065 0.39524 1.52563 0
M  V30 2025 C 199.295 -0.184675 2.05773 0
M  V30 2026 C 199.703 -1.40571 1.26635 0
M  V30 2027 O 199.046 -1.81105 0.30769 0
M  V30 2028 C 199.108 -0.613551 3.54226 0
M  V30 2029 C 198.772 0.49484 4.54313 0
M  V30 2030 C 199.769 1.3541 5.01956 0
M  V30 2031 C 197.454 0.663565 4.97898 0
M  V30 2032 C 199.448 2.36716 5.91814 0
M  V30 2033 C 197.135 1.67996 5.87555 0
M  V30 2034 C 198.133 2.53017 6.34406 0
M  V30 2035 O 197.821 3.52917 7.22291 0
M  V30 2036 H 197.553 -0.030077 0.675331 0
M  V30 2037 H 200.107 0.560708 1.97599 0
M  V30 2038 H 198.337 -1.411 3.60038 0
M  V30 2039 H 200.026 -1.11981 3.90148 0
M  V30 2040 H 200.792 1.23509 4.6901 0
M  V30 2041 H 196.671 0.0114913 4.60999 0
M  V30 2042 H 200.215 3.03113 6.28306 0
M  V30 2043 H 196.112 1.79933 6.19915 0
M  V30 2044 H 196.88 3.48996 7.40367 0
M  V30 2045 N 199.544 -1.57102 0.125237 0
M  V30 2046 C 200.769 -2.0019 -0.542101 0
M  V30 2047 C 201.194 -1.00449 -1.59034 0
M  V30 2048 O 200.552 0.0229423 -1.81285 0
M  V30 2049 C 200.6 -3.42129 -1.13929 0
M  V30 2050 O 199.704 -3.45307 -2.2547 0
M  V30 2051 H 199.045 -0.650171 -0.134812 0
M  V30 2052 H 201.575 -2.03461 0.215553 0
M  V30 2053 H 201.585 -3.80471 -1.4733 0
M  V30 2054 H 200.26 -4.14237 -0.371531 0
M  V30 2055 H 198.837 -3.1879 -1.93462 0
M  V30 2056 N 201.022 0.148545 -1.56898 0
M  V30 2057 C 201.955 1.21293 -1.93296 0
M  V30 2058 C 202.933 1.41637 -0.798599 0
M  V30 2059 O 204.117 1.56275 -1.05406 0
M  V30 2060 C 201.244 2.5721 -2.20365 0
M  V30 2061 C 200.29 2.53469 -3.4301 0
M  V30 2062 S 201.123 2.00315 -4.96623 0
M  V30 2063 C 202.279 3.37964 -5.26812 0
M  V30 2064 H 202.512 0.902393 -2.83274 0
M  V30 2065 H 200.045 0.354094 -1.50285 0
M  V30 2066 H 202.003 3.35427 -2.36641 0
M  V30 2067 H 200.664 2.85454 -1.31054 0
M  V30 2068 H 199.857 3.53518 -3.59223 0
M  V30 2069 H 199.459 1.83359 -3.25968 0
M  V30 2070 H 201.751 4.34066 -5.20185 0
M  V30 2071 H 202.694 3.26606 -6.28279 0
M  V30 2072 H 203.102 3.35028 -4.54331 0
M  V30 2073 N 202.5 1.5196 0.417844 0
M  V30 2074 C 203.747 1.65591 1.16559 0
M  V30 2075 C 204.075 0.381565 1.90721 0
M  V30 2076 O 203.33 -0.635156 1.85106 0
M  V30 2077 C 203.629 2.82269 2.19223 0
M  V30 2078 C 203.295 4.20819 1.61933 0
M  V30 2079 C 201.957 4.58506 1.46033 0
M  V30 2080 C 204.309 5.07196 1.20008 0
M  V30 2081 C 201.637 5.80257 0.867113 0
M  V30 2082 C 203.989 6.29544 0.621086 0
M  V30 2083 C 202.653 6.65987 0.449144 0
M  V30 2084 H 201.923 0.605939 0.42652 0
M  V30 2085 H 204.57 1.86041 0.45397 0
M  V30 2086 H 202.875 2.56118 2.96498 0
M  V30 2087 H 204.572 2.90012 2.76936 0
M  V30 2088 H 201.162 3.91116 1.7529 0
M  V30 2089 H 205.346 4.7867 1.31105 0
M  V30 2090 H 200.602 6.07124 0.721833 0
M  V30 2091 H 204.776 6.95805 0.287798 0
M  V30 2092 H 202.403 7.60199 -0.012632 0
M  V30 2093 N 203.978 -0.674533 1.42435 0
M  V30 2094 C 205.226 -1.43175 1.42637 0
M  V30 2095 C 205.547 -1.94951 0.0438992 0
M  V30 2096 O 204.817 -1.7308 -0.917607 0
M  V30 2097 H 203.397 -0.531307 0.525092 0
M  V30 2098 H 206.059 -0.797006 1.77859 0
M  V30 2099 H 205.155 -2.28463 2.12629 0
M  V30 2100 N 205.456 -1.28612 -0.910864 0
M  V30 2101 C 206.419 -1.12803 -1.9952 0
M  V30 2102 C 207.419 -0.0668264 -1.60661 0
M  V30 2103 O 208.609 -0.312847 -1.71368 0
M  V30 2104 C 205.741 -0.72254 -3.33155 0
M  V30 2105 H 206.934 -2.09109 -2.14973 0
M  V30 2106 H 204.487 -1.11639 -1.09391 0
M  V30 2107 H 205.222 0.241152 -3.23402 0
M  V30 2108 H 205.007 -1.48916 -3.62721 0
M  V30 2109 H 206.497 -0.634666 -4.12749 0
M  V30 2110 N 206.934 1.1197 -1.10907 0
M  V30 2111 C 208.182 1.83225 -0.852819 0
M  V30 2112 C 208.503 1.84769 0.623341 0
M  V30 2113 O 207.773 1.3143 1.45269 0
M  V30 2114 H 206.353 0.67849 -0.312507 0
M  V30 2115 H 209.015 1.3556 -1.40033 0
M  V30 2116 H 208.111 2.87265 -1.22005 0
M  V30 2117 N 208.412 0.89855 1.29475 0
M  V30 2118 C 209.342 0.39201 2.30186 0
M  V30 2119 C 210.323 -0.532359 1.61555 0
M  V30 2120 O 211.508 -0.443331 1.89072 0
M  V30 2121 C 208.638 -0.382353 3.45189 0
M  V30 2122 C 207.592 0.451483 4.25612 0
M  V30 2123 C 206.918 -0.450307 5.328 0
M  V30 2124 C 208.218 1.70079 4.93832 0
M  V30 2125 H 209.912 1.23362 2.72804 0
M  V30 2126 H 207.458 0.594638 1.31149 0
M  V30 2127 H 209.411 -0.747451 4.14718 0
M  V30 2128 H 208.135 -1.25774 3.01411 0
M  V30 2129 H 206.794 0.798897 3.57789 0
M  V30 2130 H 206.442 -1.32379 4.85268 0
M  V30 2131 H 206.142 0.103902 5.87508 0
M  V30 2132 H 207.666 -0.811623 6.05182 0
M  V30 2133 H 209.08 1.40549 5.55805 0
M  V30 2134 H 207.477 2.19623 5.58467 0
M  V30 2135 H 208.547 2.43744 4.19186 0
M  V30 2136 N 209.89 -1.43072 0.660911 0
M  V30 2137 C 211.118 -2.06067 0.185422 0
M  V30 2138 C 211.533 -1.49582 -1.15198 0
M  V30 2139 O 210.89 -0.630134 -1.71276 0
M  V30 2140 C 210.941 -3.61371 0.0966523 0
M  V30 2141 O 210.662 -4.15758 1.38119 0
M  V30 2142 C 212.163 -4.41455 -0.403996 0
M  V30 2143 H 209.383 -0.664459 0.0934604 0
M  V30 2144 H 211.927 -1.83447 0.90373 0
M  V30 2145 H 210.082 -3.8315 -0.572259 0
M  V30 2146 H 210.496 -5.09499 1.24542 0
M  V30 2147 H 211.97 -5.50437 -0.415045 0
M  V30 2148 H 212.447 -4.15036 -1.43674 0
M  V30 2149 H 213.053 -4.24663 0.232691 0
M  V30 2150 N 211.368 -0.403325 -1.52352 0
M  V30 2151 C 212.614 0.174605 -2.02047 0
M  V30 2152 C 212.947 1.45282 -1.28867 0
M  V30 2153 O 212.222 1.90483 -0.393257 0
M  V30 2154 C 212.505 0.428238 -3.57545 0
M  V30 2155 C 212.358 -0.866248 -4.4138 0
M  V30 2156 C 213.677 1.21287 -4.23057 0
M  V30 2157 H 210.796 0.0619851 -0.734389 0
M  V30 2158 H 213.438 -0.53565 -1.82293 0
M  V30 2159 H 211.588 1.03327 -3.74507 0
M  V30 2160 H 213.26 -1.50265 -4.3614 0
M  V30 2161 H 211.503 -1.47851 -4.07827 0
M  V30 2162 H 212.174 -0.643249 -5.48239 0
M  V30 2163 H 214.65 0.700703 -4.10158 0
M  V30 2164 H 213.526 1.35909 -5.31808 0
M  V30 2165 H 213.787 2.23193 -3.81625 0
M  V30 2166 N 212.846 1.57033 -0.133567 0
M  V30 2167 C 214.094 1.953 0.519848 0
M  V30 2168 C 214.415 1.01866 1.66278 0
M  V30 2169 O 213.685 0.0776513 1.95746 0
M  V30 2170 H 212.265 0.721091 0.195032 0
M  V30 2171 H 214.927 1.93809 -0.205921 0
M  V30 2172 H 214.023 2.98695 0.904854 0
M  V30 2173 N 214.325 -0.140222 1.56975 0
M  V30 2174 C 215.255 -1.17456 2.01808 0
M  V30 2175 C 216.236 -1.44415 0.898794 0
M  V30 2176 O 217.421 -1.5522 1.16707 0
M  V30 2177 C 214.551 -2.50607 2.40444 0
M  V30 2178 C 213.505 -2.38155 3.55621 0
M  V30 2179 C 212.831 -3.76078 3.80091 0
M  V30 2180 C 214.131 -1.85991 4.88062 0
M  V30 2181 H 215.825 -0.801743 2.88466 0
M  V30 2182 H 213.371 -0.38422 1.38779 0
M  V30 2183 H 215.324 -3.23197 2.7041 0
M  V30 2184 H 214.048 -2.89737 1.50732 0
M  V30 2185 H 212.707 -1.68016 3.25832 0
M  V30 2186 H 212.355 -4.12656 2.87618 0
M  V30 2187 H 212.055 -3.68606 4.57606 0
M  V30 2188 H 213.579 -4.50206 4.12488 0
M  V30 2189 H 214.993 -2.4838 5.16701 0
M  V30 2190 H 213.39 -1.89393 5.6943 0
M  V30 2191 H 214.46 -0.816023 4.77984 0
M  V30 2192 N 215.803 -1.52179 -0.40978 0
M  V30 2193 C 217.028 -1.70347 -1.18308 0
M  V30 2194 C 217.453 -0.411887 -1.83535 0
M  V30 2195 O 216.811 0.630587 -1.6998 0
M  V30 2196 C 216.859 -2.83977 -2.22238 0
M  V30 2197 O 215.963 -2.495 -3.28365 0
M  V30 2198 H 215.304 -0.567103 -0.345384 0
M  V30 2199 H 217.834 -1.98879 -0.480445 0
M  V30 2200 H 217.844 -3.0887 -2.66577 0
M  V30 2201 H 216.519 -3.77685 -1.74146 0
M  V30 2202 H 215.096 -2.35277 -2.89308 0
M  V30 2203 N 217.281 0.66697 -1.42791 0
M  V30 2204 C 218.229 1.80157 -1.47127 0
M  V30 2205 C 219.223 1.65825 -0.346199 0
M  V30 2206 O 220.429 1.72338 -0.519572 0
M  V30 2207 H 216.804 0.594158 -0.460956 0
M  V30 2208 H 218.775 1.73619 -2.42692 0
M  V30 2209 C 217.524 3.18351 -1.39813 0
M  V30 2210 H 216.847 3.3001 -2.25684 0
M  V30 2211 H 218.287 3.97736 -1.46908 0
M  V30 2212 C 216.746 3.36707 -0.11391 0
M  V30 2213 O 217.276 3.93027 0.830241 0
M  V30 2214 N 215.482 2.90586 -0.0285295 0
M  V30 2215 H 215.029 2.4494 -0.79764 0
M  V30 2216 H 214.987 3.03245 0.830063 0
M  V30 2217 N 218.759 1.29093 0.90403 0
M  V30 2218 C 219.689 1.16401 2.02418 0
M  V30 2219 C 220.67 0.0593085 1.69997 0
M  V30 2220 O 221.855 0.238021 1.92736 0
M  V30 2221 C 218.985 0.835233 3.37107 0
M  V30 2222 C 217.939 1.89578 3.83724 0
M  V30 2223 C 217.265 1.42041 5.15489 0
M  V30 2224 C 218.565 3.30394 4.04521 0
M  V30 2225 H 220.259 2.10109 2.13295 0
M  V30 2226 H 217.805 1.01157 1.02486 0
M  V30 2227 H 219.758 0.733169 4.14973 0
M  V30 2228 H 218.482 -0.137543 3.2631 0
M  V30 2229 H 217.141 1.98715 3.08071 0
M  V30 2230 H 216.789 0.436426 5.01103 0
M  V30 2231 H 216.489 2.12964 5.4765 0
M  V30 2232 H 218.013 1.33176 5.959 0
M  V30 2233 H 219.427 3.24123 4.72882 0
M  V30 2234 H 217.824 3.99237 4.48029 0
M  V30 2235 H 218.894 3.73692 3.09002 0
M  V30 2236 N 220.237 -1.11381 1.11499 0
M  V30 2237 C 221.484 -1.83132 0.864231 0
M  V30 2238 C 221.812 -1.84683 -0.610114 0
M  V30 2239 O 221.067 -1.29589 -1.46646 0
M  V30 2240 C 221.366 -3.30026 1.37177 0
M  V30 2241 C 221.032 -3.48634 2.85946 0
M  V30 2242 C 219.694 -3.53421 3.26569 0
M  V30 2243 C 222.046 -3.54837 3.81759 0
M  V30 2244 C 219.374 -3.61967 4.61733 0
M  V30 2245 C 221.726 -3.64915 5.1674 0
M  V30 2246 C 220.39 -3.67962 5.5692 0
M  V30 2247 H 219.66 -0.670127 0.316245 0
M  V30 2248 H 222.307 -1.31354 1.3935 0
M  V30 2249 H 220.612 -3.84304 0.762753 0
M  V30 2250 H 222.309 -3.84034 1.15408 0
M  V30 2251 H 218.899 -3.45579 2.53521 0
M  V30 2252 H 223.083 -3.50399 3.51474 0
M  V30 2253 H 218.339 -3.62603 4.92269 0
M  V30 2254 H 222.513 -3.68658 5.90816 0
M  V30 2255 H 220.14 -3.74336 6.61647 0
M  V30 2256 N 221.715 -0.905404 -1.28997 0
M  V30 2257 C 222.955 -0.541232 -1.97104 0
M  V30 2258 C 223.319 0.896841 -1.69767 0
M  V30 2259 O 224.52 1.36817 -2.31375 0
M  V30 2260 C 222.791 -0.832134 -3.47578 0
M  V30 2261 S 224.35 -0.573127 -4.35041 0
M  V30 2262 H 221.168 -0.200576 -0.682122 0
M  V30 2263 H 223.77 -1.16906 -1.56694 0
M  V30 2264 H 222.474 -1.87687 -3.64968 0
M  V30 2265 H 222.005 -0.192636 -3.92928 0
M  V30 2266 H 224.02 0.579297 -4.92807 0
M  V30 2267 N 223.193 1.4272 -0.668489 0
M  V30 2268 C 224.441 2.01226 -0.187769 0
M  V30 2269 C 224.762 1.53092 1.2078 0
M  V30 2270 O 224.032 0.74993 1.80977 0
M  V30 2271 H 222.612 0.744041 -0.0664272 0
M  V30 2272 H 225.274 1.74723 -0.863583 0
M  V30 2273 H 224.37 3.11556 -0.184166 0
M  V30 2274 N 224.671 0.411399 1.52136 0
M  V30 2275 C 225.917 -0.163888 2.02137 0
M  V30 2276 C 226.25 -1.44597 1.29636 0
M  V30 2277 O 225.525 -1.90272 0.403353 0
M  V30 2278 C 225.808 -0.40927 3.57767 0
M  V30 2279 C 225.661 0.889643 4.40914 0
M  V30 2280 C 226.98 -1.19042 4.23694 0
M  V30 2281 H 224.099 -0.0580896 0.734707 0
M  V30 2282 H 226.741 0.54531 1.82007 0
M  V30 2283 H 224.891 -1.0134 3.7505 0
M  V30 2284 H 226.563 1.52575 4.35337 0
M  V30 2285 H 224.806 1.50011 4.07037 0
M  V30 2286 H 225.477 0.672314 5.4789 0
M  V30 2287 H 227.953 -0.678942 4.10524 0
M  V30 2288 H 226.829 -1.33086 5.32522 0
M  V30 2289 H 227.09 -2.21166 3.82803 0
M  V30 2290 N 226.149 -1.5696 0.141893 0
M  V30 2291 C 227.389 -1.9785 -0.513304 0
M  V30 2292 C 227.753 -1.02467 -1.62371 0
M  V30 2293 O 228.954 -1.32382 -2.33941 0
M  V30 2294 C 227.225 -3.42797 -1.01118 0
M  V30 2295 S 228.784 -4.05709 -1.67169 0
M  V30 2296 H 225.602 -0.691318 -0.166135 0
M  V30 2297 H 228.204 -1.94114 0.232398 0
M  V30 2298 H 226.908 -4.0995 -0.192179 0
M  V30 2299 H 226.439 -3.50235 -1.79162 0
M  V30 2300 H 228.454 -3.98342 -2.95868 0
M  V30 2301 N 227.627 0.131896 -1.57047 0
M  V30 2302 C 228.873 0.843179 -1.84441 0
M  V30 2303 C 229.206 1.80129 -0.725749 0
M  V30 2304 O 228.481 1.92624 0.269469 0
M  V30 2305 C 228.764 1.60442 -3.22382 0
M  V30 2306 C 228.617 0.666782 -4.4483 0
M  V30 2307 C 229.936 2.56354 -3.5773 0
M  V30 2308 H 227.055 0.305081 -0.670891 0
M  V30 2309 H 229.697 0.107839 -1.89694 0
M  V30 2310 H 227.847 2.23128 -3.18035 0
M  V30 2311 H 229.519 0.0497646 -4.61273 0
M  V30 2312 H 227.762 -0.022609 -4.33794 0
M  V30 2313 H 228.433 1.23579 -5.37989 0
M  V30 2314 H 230.909 2.0378 -3.62785 0
M  V30 2315 H 229.785 3.06657 -4.5525 0
M  V30 2316 H 230.046 3.38419 -2.84473 0
M  V30 2317 N 229.106 1.52395 0.401703 0
M  V30 2318 C 230.354 1.66488 1.14569 0
M  V30 2319 C 230.675 0.400897 1.90835 0
M  V30 2320 O 229.945 -0.584415 1.8698 0
M  V30 2321 H 228.525 0.613672 0.425929 0
M  V30 2322 H 231.187 1.89464 0.457093 0
M  V30 2323 H 230.283 2.50942 1.85566 0
M  V30 2324 N 230.584 -0.659388 1.43143 0
M  V30 2325 C 231.833 -1.41518 1.43721 0
M  V30 2326 C 232.146 -1.95499 0.0628176 0
M  V30 2327 O 233.352 -2.71446 -0.0539683 0
M  V30 2328 C 231.808 -2.5608 2.52885 0
M  V30 2329 C 231.416 -2.08733 3.96402 0
M  V30 2330 C 233.16 -3.3349 2.62649 0
M  V30 2331 C 231.067 -3.20469 4.97045 0
M  V30 2332 H 229.997 -0.531705 0.534608 0
M  V30 2333 H 232.648 -0.712343 1.69109 0
M  V30 2334 H 231.03 -3.28805 2.20688 0
M  V30 2335 H 232.204 -1.43059 4.3803 0
M  V30 2336 H 230.519 -1.44219 3.90627 0
M  V30 2337 H 233.116 -4.16734 3.35017 0
M  V30 2338 H 233.459 -3.8111 1.67513 0
M  V30 2339 H 233.992 -2.67842 2.94118 0
M  V30 2340 H 230.731 -2.77824 5.93712 0
M  V30 2341 H 230.251 -3.84874 4.60034 0
M  V30 2342 H 231.93 -3.85698 5.19467 0
M  V30 2343 N 232.062 -1.29571 -0.897171 0
M  V30 2344 C 233.308 -1.17863 -1.65034 0
M  V30 2345 C 233.641 0.268729 -1.92332 0
M  V30 2346 O 232.916 1.19378 -1.53555 0
M  V30 2347 C 233.199 -1.995 -2.99786 0
M  V30 2348 C 233.052 -3.5239 -2.79538 0
M  V30 2349 C 234.371 -1.82335 -4.00552 0
M  V30 2350 H 231.49 -0.429528 -0.598895 0
M  V30 2351 H 234.132 -1.59072 -1.03905 0
M  V30 2352 H 232.282 -1.64485 -3.51962 0
M  V30 2353 H 233.954 -3.97401 -2.34244 0
M  V30 2354 H 232.197 -3.77187 -2.14273 0
M  V30 2355 H 232.868 -4.04787 -3.75302 0
M  V30 2356 H 235.344 -2.12924 -3.57495 0
M  V30 2357 H 234.22 -2.41801 -4.92771 0
M  V30 2358 H 234.481 -0.779209 -4.35179 0
M  V30 2359 N 233.54 1.10788 -1.12088 0
M  V30 2360 C 234.788 1.8231 -0.872205 0
M  V30 2361 C 235.109 1.85419 0.603709 0
M  V30 2362 O 234.379 1.32963 1.43867 0
M  V30 2363 H 232.959 0.675137 -0.319686 0
M  V30 2364 H 235.621 1.34068 -1.41463 0
M  V30 2365 H 234.717 2.85955 -1.25045 0
M  V30 2366 N 235.018 0.912232 1.28515 0
M  V30 2367 C 236.243 0.559774 1.99703 0
M  V30 2368 C 236.668 -0.851393 1.67729 0
M  V30 2369 O 236.026 -1.56875 0.908834 0
M  V30 2370 C 236.074 0.773874 3.52198 0
M  V30 2371 O 235.178 -0.167842 4.12058 0
M  V30 2372 H 234.519 0.21723 0.627461 0
M  V30 2373 H 237.049 1.22725 1.63706 0
M  V30 2374 H 237.059 0.683386 4.02236 0
M  V30 2375 H 235.734 1.80261 3.74805 0
M  V30 2376 H 234.311 -0.0287509 3.72889 0
M  V30 2377 N 236.496 -1.42363 0.676048 0
M  V30 2378 C 237.744 -2.01123 0.198437 0
M  V30 2379 C 238.065 -1.53731 -1.19966 0
M  V30 2380 O 237.335 -0.759518 -1.80577 0
M  V30 2381 H 235.915 -0.743678 0.0703721 0
M  V30 2382 H 238.577 -1.74263 0.872837 0
M  V30 2383 H 237.673 -3.11454 0.200686 0
M  V30 2384 N 237.974 -0.419461 -1.51915 0
M  V30 2385 C 238.937 0.389116 -2.25873 0
M  V30 2386 C 239.937 0.964924 -1.28631 0
M  V30 2387 O 241.127 0.842179 -1.52489 0
M  V30 2388 C 238.259 1.54874 -3.03689 0
M  V30 2389 H 239.452 -0.258799 -2.98781 0
M  V30 2390 H 237.005 -0.172209 -1.55348 0
M  V30 2391 H 237.74 2.23323 -2.35154 0
M  V30 2392 H 237.525 1.14223 -3.75094 0
M  V30 2393 H 239.015 2.12046 -3.59759 0
M  V30 2394 N 239.452 1.56882 -0.150215 0
M  V30 2395 C 240.415 2.1573 0.774157 0
M  V30 2396 C 241.415 1.0999 1.17298 0
M  V30 2397 O 242.605 1.35613 1.09338 0
M  V30 2398 C 239.737 2.72302 2.05096 0
M  V30 2399 H 240.93 2.98752 0.262201 0
M  V30 2400 H 238.483 1.55985 0.099248 0
M  V30 2401 H 239.218 1.92956 2.6065 0
M  V30 2402 H 239.003 3.49665 1.77416 0
M  V30 2403 H 240.493 3.17632 2.71109 0
M  V30 2404 N 240.93 -0.123565 1.57115 0
M  V30 2405 C 241.86 -1.15309 2.03042 0
M  V30 2406 C 242.841 -1.43454 0.914061 0
M  V30 2407 O 244.026 -1.53973 1.18347 0
M  V30 2408 C 241.156 -2.48043 2.43089 0
M  V30 2409 C 240.11 -2.3437 3.58127 0
M  V30 2410 C 239.436 -3.72026 3.84059 0
M  V30 2411 C 240.736 -1.80804 4.90007 0
M  V30 2412 H 242.43 -0.771102 2.893 0
M  V30 2413 H 239.976 -0.369479 1.39179 0
M  V30 2414 H 241.929 -3.20311 2.73823 0
M  V30 2415 H 240.653 -2.88122 1.53796 0
M  V30 2416 H 239.312 -1.64551 3.27595 0
M  V30 2417 H 238.96 -4.09582 2.91979 0
M  V30 2418 H 238.66 -3.63732 4.6149 0
M  V30 2419 H 240.184 -4.45806 4.1724 0
M  V30 2420 H 241.598 -2.42886 5.19307 0
M  V30 2421 H 239.995 -1.83343 5.71407 0
M  V30 2422 H 241.065 -0.76528 4.78823 0
M  V30 2423 N 242.408 -1.52605 -0.393616 0
M  V30 2424 C 243.371 -1.76415 -1.46323 0
M  V30 2425 C 244.371 -0.634126 -1.47768 0
M  V30 2426 O 245.561 -0.902142 -1.4902 0
M  V30 2427 C 242.693 -1.8607 -2.85641 0
M  V30 2428 H 243.886 -2.71916 -1.26498 0
M  V30 2429 H 241.439 -1.43257 -0.625073 0
M  V30 2430 H 242.174 -0.925378 -3.10817 0
M  V30 2431 H 241.959 -2.68235 -2.85993 0
M  V30 2432 H 243.449 -2.06179 -3.63153 0
M  V30 2433 N 243.887 0.651787 -1.4349 0
M  V30 2434 C 245.164 1.40909 -1.35661 0
M  V30 2435 C 245.544 2.11099 -0.00511733 0
M  V30 2436 O 244.892 2.04892 1.0115 0
M  V30 2437 C 245.102 2.3926 -2.54078 0
M  V30 2438 C 246.45 3.03217 -2.97228 0
M  V30 2439 O 247.474 2.49588 -2.54135 0
M  V30 2440 O 246.333 4.00455 -3.71885 0
M  V30 2441 H 243.427 0.629625 -0.536191 0
M  V30 2442 H 245.973 0.678575 -1.55542 0
M  V30 2443 H 244.745 1.86352 -3.44076 0
M  V30 2444 H 244.368 3.1976 -2.36303 0
M  V30 2445 N 245.365 1.30045 0.890287 0
M  V30 2446 C 246.328 1.15963 1.977 0
M  V30 2447 C 247.328 0.0923777 1.60534 0
M  V30 2448 O 248.518 0.340071 1.70848 0
M  V30 2449 C 245.65 0.775451 3.31963 0
M  V30 2450 H 246.843 2.12502 2.11619 0
M  V30 2451 H 244.396 1.13366 1.07601 0
M  V30 2452 H 245.131 -0.189671 3.23745 0
M  V30 2453 H 244.916 1.54668 3.60306 0
M  V30 2454 H 246.406 0.700251 4.11687 0
M  V30 2455 N 246.843 -1.10192 1.12674 0
M  V30 2456 C 247.775 -2.16418 0.754701 0
M  V30 2457 C 248.788 -1.61309 -0.21986 0
M  V30 2458 O 249.977 -1.785 -0.000826841 0
M  V30 2459 C 247.077 -3.38762 0.096698 0
M  V30 2460 C 246.25 -4.23307 1.10136 0
M  V30 2461 C 245.309 -5.24092 0.470513 0
M  V30 2462 O 244.335 -5.57906 1.12824 0
M  V30 2463 N 245.537 -5.75491 -0.760948 0
M  V30 2464 H 248.302 -2.48943 1.66875 0
M  V30 2465 H 245.863 -1.25834 1.01869 0
M  V30 2466 H 247.855 -4.03291 -0.337384 0
M  V30 2467 H 246.425 -3.04192 -0.720153 0
M  V30 2468 H 245.645 -3.55036 1.71299 0
M  V30 2469 H 246.933 -4.76624 1.78064 0
M  V30 2470 H 246.331 -5.50222 -1.31424 0
M  V30 2471 H 244.888 -6.41792 -1.13781 0
M  V30 2472 N 248.321 -0.919034 -1.28029 0
M  V30 2473 C 249.269 -0.401753 -2.29104 0
M  V30 2474 C 250.263 0.509354 -1.61561 0
M  V30 2475 O 251.469 0.390014 -1.75724 0
M  V30 2476 H 247.844 -0.111331 -0.743713 0
M  V30 2477 H 249.815 -1.2672 -2.70156 0
M  V30 2478 C 248.564 0.338148 -3.46052 0
M  V30 2479 H 247.887 -0.353732 -3.98232 0
M  V30 2480 H 249.327 0.664653 -4.18758 0
M  V30 2481 C 247.786 1.54798 -2.99231 0
M  V30 2482 O 248.316 2.64696 -3.02157 0
M  V30 2483 N 246.522 1.3968 -2.54829 0
M  V30 2484 H 246.069 0.502698 -2.52647 0
M  V30 2485 H 246.027 2.20755 -2.23863 0
M  V30 2486 N 249.799 1.42003 -0.683588 0
M  V30 2487 C 251.21 1.84501 -0.285736 0
M  V30 2488 C 251.561 1.57213 1.17382 0
M  V30 2489 O 250.686 1.03642 1.89966 0
M  V30 2490 C 251.281 3.34912 -0.511821 0
M  V30 2491 C 249.84 3.76025 -0.168005 0
M  V30 2492 C 248.987 2.6551 -0.799983 0
M  V30 2493 H 251.938 1.31724 -0.885119 0
M  V30 2494 H 251.959 3.79784 0.233292 0
M  V30 2495 H 251.471 3.54741 -1.57418 0
M  V30 2496 H 249.572 3.61801 0.890567 0
M  V30 2497 H 249.685 4.75141 -0.614661 0
M  V30 2498 H 248.049 2.53654 -0.230568 0
M  V30 2499 H 248.832 2.8816 -1.86597 0
M  V30 2500 N 251.277 0.427512 1.51691 0
M  V30 2501 C 252.502 -0.143601 2.06902 0
M  V30 2502 C 252.927 -1.36536 1.29382 0
M  V30 2503 O 252.285 -1.78289 0.329043 0
M  V30 2504 C 252.333 -0.454207 3.57728 0
M  V30 2505 O 251.437 -1.54228 3.82475 0
M  V30 2506 H 250.778 -0.00617128 0.663971 0
M  V30 2507 H 253.308 0.606014 1.95419 0
M  V30 2508 H 253.318 -0.707525 4.01818 0
M  V30 2509 H 251.993 0.438812 4.13579 0
M  V30 2510 H 250.57 -1.2797 3.50254 0
M  V30 2511 N 252.755 -1.56801 0.158532 0
M  V30 2512 C 253.685 -2.20347 -0.772609 0
M  V30 2513 C 254.666 -1.15518 -1.24859 0
M  V30 2514 O 255.851 -1.43902 -1.30406 0
M  V30 2515 C 252.981 -2.83417 -2.00729 0
M  V30 2516 C 251.935 -3.94174 -1.66765 0
M  V30 2517 C 251.261 -4.44233 -2.97592 0
M  V30 2518 C 252.561 -5.14392 -0.905447 0
M  V30 2519 H 254.255 -2.98413 -0.242959 0
M  V30 2520 H 251.801 -1.43537 -0.115419 0
M  V30 2521 H 253.754 -3.26543 -2.6636 0
M  V30 2522 H 252.478 -2.02701 -2.56086 0
M  V30 2523 H 251.137 -3.51684 -1.03508 0
M  V30 2524 H 250.785 -3.60325 -3.50963 0
M  V30 2525 H 250.485 -5.18945 -2.75626 0
M  V30 2526 H 252.009 -4.90037 -3.64274 0
M  V30 2527 H 253.423 -5.5429 -1.46408 0
M  V30 2528 H 251.82 -5.9494 -0.7853 0
M  V30 2529 H 252.89 -4.84795 0.100668 0
M  V30 2530 N 254.233 0.115231 -1.57178 0
M  V30 2531 C 255.48 0.822351 -1.8505 0
M  V30 2532 C 255.808 1.79701 -0.744168 0
M  V30 2533 O 255.063 1.93909 0.26414 0
M  V30 2534 C 255.362 1.60324 -3.19423 0
M  V30 2535 C 255.028 0.772536 -4.44233 0
M  V30 2536 C 253.69 0.543468 -4.78121 0
M  V30 2537 C 256.042 0.193746 -5.2084 0
M  V30 2538 C 253.37 -0.274583 -5.86057 0
M  V30 2539 C 255.722 -0.611517 -6.29637 0
M  V30 2540 C 254.386 -0.850867 -6.62055 0
M  V30 2541 H 253.656 0.30092 -0.677147 0
M  V30 2542 H 256.303 0.0845802 -1.91313 0
M  V30 2543 H 254.608 2.41203 -3.08753 0
M  V30 2544 H 256.305 2.1544 -3.38211 0
M  V30 2545 H 252.895 0.96117 -4.17683 0
M  V30 2546 H 257.079 0.357926 -4.95008 0
M  V30 2547 H 252.335 -0.469206 -6.09597 0
M  V30 2548 H 256.509 -1.06697 -6.88178 0
M  V30 2549 H 254.136 -1.48657 -7.45523 0
M  V30 2550 N 255.711 1.52812 0.385517 0
M  V30 2551 C 256.957 1.68275 1.13188 0
M  V30 2552 C 257.29 0.423179 1.89533 0
M  V30 2553 O 256.565 -0.579113 1.85679 0
M  V30 2554 C 256.848 2.92001 2.1073 0
M  V30 2555 C 256.701 4.28067 1.38125 0
M  V30 2556 C 258.02 3.11283 3.11113 0
M  V30 2557 H 255.139 0.612352 0.410115 0
M  V30 2558 H 257.781 1.85415 0.414869 0
M  V30 2559 H 255.931 2.77519 2.71874 0
M  V30 2560 H 257.603 4.54324 0.799187 0
M  V30 2561 H 255.846 4.28388 0.683092 0
M  V30 2562 H 256.517 5.10733 2.09417 0
M  V30 2563 H 258.993 3.2482 2.6006 0
M  V30 2564 H 257.869 3.99325 3.76605 0
M  V30 2565 H 258.13 2.25656 3.80173 0
M  V30 2566 N 257.189 -0.644168 1.43834 0
M  V30 2567 C 258.136 -1.75671 1.49694 0
M  V30 2568 C 259.106 -1.6246 0.345809 0
M  V30 2569 O 260.291 -1.82573 0.554234 0
M  V30 2570 C 257.431 -3.13867 1.43463 0
M  V30 2571 C 256.544 -3.38147 2.6885 0
M  V30 2572 C 255.679 -4.66241 2.54544 0
M  V30 2573 C 254.718 -4.83657 3.75157 0
M  V30 2574 N 253.855 -6.03016 3.59605 0
M  V30 2575 H 258.695 -1.69998 2.44754 0
M  V30 2576 H 256.232 -0.829458 1.21484 0
M  V30 2577 H 258.19 -3.9377 1.37843 0
M  V30 2578 H 256.82 -3.18588 0.519783 0
M  V30 2579 H 255.872 -2.52276 2.84712 0
M  V30 2580 H 257.184 -3.46899 3.58417 0
M  V30 2581 H 256.338 -5.54285 2.46683 0
M  V30 2582 H 255.077 -4.59826 1.62516 0
M  V30 2583 H 254.082 -3.94046 3.83416 0
M  V30 2584 H 255.307 -4.91896 4.68204 0
M  V30 2585 H 253.253 -5.97715 2.7032 0
M  V30 2586 H 253.17 -6.12766 4.42779 0
M  V30 2587 H 254.438 -6.93657 3.55613 0
M  V30 2588 N 258.668 -1.30515 -0.883378 0
M  V30 2589 C 259.917 -1.18795 -1.63005 0
M  V30 2590 C 260.23 0.255923 -1.93919 0
M  V30 2591 O 261.436 0.494654 -2.66956 0
M  V30 2592 C 259.892 -2.07878 -2.93794 0
M  V30 2593 C 259.5 -3.57184 -2.70414 0
M  V30 2594 C 261.244 -2.04924 -3.71761 0
M  V30 2595 C 259.151 -4.38317 -3.97029 0
M  V30 2596 H 258.081 -0.441031 -0.611562 0
M  V30 2597 H 260.732 -1.55275 -0.977854 0
M  V30 2598 H 259.114 -1.64283 -3.60315 0
M  V30 2599 H 260.288 -4.08937 -2.12384 0
M  V30 2600 H 258.603 -3.61976 -2.0582 0
M  V30 2601 H 261.2 -2.62792 -4.65665 0
M  V30 2602 H 261.543 -1.0331 -4.03277 0
M  V30 2603 H 262.076 -2.46649 -3.12104 0
M  V30 2604 H 258.815 -5.40632 -3.70671 0
M  V30 2605 H 258.335 -3.91326 -4.54559 0
M  V30 2606 H 260.014 -4.49834 -4.65036 0
M  V30 2607 N 260.146 1.09593 -1.13257 0
M  V30 2608 C 261.076 2.18214 -0.830946 0
M  V30 2609 C 262.057 1.68812 0.208966 0
M  V30 2610 O 263.242 1.9408 0.0682666 0
M  V30 2611 C 260.372 3.46051 -0.294296 0
M  V30 2612 C 259.326 4.08778 -1.26826 0
M  V30 2613 C 258.652 5.31419 -0.591449 0
M  V30 2614 C 259.952 4.51476 -2.62615 0
M  V30 2615 H 261.646 2.43703 -1.73923 0
M  V30 2616 H 259.192 1.17128 -0.837675 0
M  V30 2617 H 261.145 4.2134 -0.0709606 0
M  V30 2618 H 259.869 3.20079 0.649366 0
M  V30 2619 H 258.528 3.35505 -1.47756 0
M  V30 2620 H 258.176 5.01727 0.357633 0
M  V30 2621 H 257.876 5.74341 -1.24123 0
M  V30 2622 H 259.4 6.09433 -0.377355 0
M  V30 2623 H 260.814 5.17999 -2.45663 0
M  V30 2624 H 259.211 5.05277 -3.23752 0
M  V30 2625 H 260.281 3.63962 -3.20406 0
M  V30 2626 N 261.624 0.925811 1.2754 0
M  V30 2627 C 262.873 0.561084 1.93739 0
M  V30 2628 C 263.186 -0.901685 1.73577 0
M  V30 2629 O 264.392 -1.37511 2.34101 0
M  V30 2630 C 262.848 0.952668 3.47062 0
M  V30 2631 C 262.456 2.43599 3.75983 0
M  V30 2632 C 264.2 0.659103 4.19352 0
M  V30 2633 C 262.107 2.76707 5.22673 0
M  V30 2634 H 261.037 0.206122 0.725279 0
M  V30 2635 H 263.688 1.12637 1.44863 0
M  V30 2636 H 262.07 0.316053 3.94737 0
M  V30 2637 H 263.244 3.12035 3.39073 0
M  V30 2638 H 261.559 2.70125 3.16893 0
M  V30 2639 H 264.156 0.882985 5.27359 0
M  V30 2640 H 264.499 -0.403607 4.14339 0
M  V30 2641 H 265.032 1.25473 3.77494 0
M  V30 2642 H 261.771 3.8188 5.32774 0
M  V30 2643 H 261.291 2.12919 5.60737 0
M  V30 2644 H 262.97 2.6435 5.90532 0
M  V30 2645 N 263.102 -1.41638 0.69111 0
M  V30 2646 C 264.348 -2.01598 0.220519 0
M  V30 2647 C 264.681 -1.54594 -1.17535 0
M  V30 2648 O 263.956 -0.755177 -1.79241 0
M  V30 2649 C 264.239 -3.59062 0.273243 0
M  V30 2650 C 264.092 -4.16203 1.70573 0
M  V30 2651 C 265.411 -4.38546 -0.369457 0
M  V30 2652 H 262.53 -0.732468 0.0816045 0
M  V30 2653 H 265.172 -1.68445 0.878986 0
M  V30 2654 H 263.322 -3.87435 -0.287411 0
M  V30 2655 H 264.994 -3.98722 2.31989 0
M  V30 2656 H 263.237 -3.71414 2.2413 0
M  V30 2657 H 263.908 -5.25358 1.69419 0
M  V30 2658 H 266.384 -4.1596 0.107977 0
M  V30 2659 H 265.26 -5.48069 -0.302002 0
M  V30 2660 H 265.521 -4.17662 -1.44951 0
M  V30 2661 N 264.58 -0.43555 -1.51462 0
M  V30 2662 C 265.49 0.383001 -2.31453 0
M  V30 2663 C 266.506 1.02931 -1.4029 0
M  V30 2664 O 267.682 1.02507 -1.73362 0
M  V30 2665 C 264.747 1.47043 -3.13973 0
M  V30 2666 C 263.808 0.844433 -4.20913 0
M  V30 2667 C 263.041 1.88004 -4.9949 0
M  V30 2668 O 263.264 3.10199 -4.78678 0
M  V30 2669 O 262.198 1.47157 -5.83634 0
M  V30 2670 H 266.024 -0.269964 -3.02498 0
M  V30 2671 H 263.609 -0.19813 -1.4808 0
M  V30 2672 H 265.491 2.10113 -3.65281 0
M  V30 2673 H 264.166 2.10751 -2.45695 0
M  V30 2674 H 263.073 0.175729 -3.73687 0
M  V30 2675 H 264.406 0.250869 -4.9156 0
M  V30 2676 N 266.058 1.56714 -0.166846 0
M  V30 2677 C 267.307 1.95922 0.479318 0
M  V30 2678 C 267.62 1.05529 1.6469 0
M  V30 2679 O 268.826 1.34399 2.35901 0
M  V30 2680 C 267.282 3.48359 0.90412 0
M  V30 2681 C 266.89 4.47369 -0.237621 0
M  V30 2682 C 268.634 3.96394 1.51896 0
M  V30 2683 C 266.541 5.91039 0.206561 0
M  V30 2684 H 265.471 0.731495 0.18284 0
M  V30 2685 H 268.122 1.81728 -0.254363 0
M  V30 2686 H 266.504 3.57955 1.69365 0
M  V30 2687 H 267.678 4.49485 -1.01489 0
M  V30 2688 H 265.993 4.09366 -0.762128 0
M  V30 2689 H 268.59 5.01186 1.86325 0
M  V30 2690 H 268.933 3.39075 2.41524 0
M  V30 2691 H 269.466 3.89796 0.79395 0
M  V30 2692 H 266.205 6.52221 -0.654834 0
M  V30 2693 H 265.725 5.9224 0.949282 0
M  V30 2694 H 267.404 6.43707 0.651939 0
M  V30 2695 N 267.536 -0.106894 1.57237 0
M  V30 2696 C 268.783 -0.812526 1.85484 0
M  V30 2697 C 269.111 -1.79304 0.753687 0
M  V30 2698 O 268.366 -1.94047 -0.253853 0
M  V30 2699 C 268.665 -1.58628 3.20268 0
M  V30 2700 C 268.331 -0.748967 4.44636 0
M  V30 2701 C 266.993 -0.518104 4.78403 0
M  V30 2702 C 269.345 -0.166122 5.20935 0
M  V30 2703 C 266.673 0.305659 5.85903 0
M  V30 2704 C 269.025 0.644899 6.29304 0
M  V30 2705 C 267.689 0.885965 6.61594 0
M  V30 2706 H 266.959 -0.297324 0.678734 0
M  V30 2707 H 269.606 -0.0744332 1.91355 0
M  V30 2708 H 267.911 -2.39562 3.10028 0
M  V30 2709 H 269.608 -2.13643 3.39349 0
M  V30 2710 H 266.198 -0.939006 4.18187 0
M  V30 2711 H 270.382 -0.33167 4.95191 0
M  V30 2712 H 265.638 0.501528 6.0934 0
M  V30 2713 H 269.812 1.10345 6.87602 0
M  V30 2714 H 267.439 1.52609 7.44725 0
M  V30 2715 N 269.014 -1.53014 -0.377408 0
M  V30 2716 C 270.262 -1.6829 -1.11906 0
M  V30 2717 C 270.583 -0.431206 -1.90173 0
M  V30 2718 O 269.853 0.554595 -1.87886 0
M  V30 2719 H 268.433 -0.620371 -0.416112 0
M  V30 2720 H 271.095 -1.90167 -0.426893 0
M  V30 2721 H 270.191 -2.53862 -1.8155 0
M  V30 2722 N 270.492 0.636531 -1.44174 0
M  V30 2723 C 271.717 1.42847 -1.50364 0
M  V30 2724 C 272.142 1.87665 -0.127867 0
M  V30 2725 O 271.5 1.58408 0.88185 0
M  V30 2726 C 271.548 2.62854 -2.4686 0
M  V30 2727 O 270.652 3.62501 -1.9664 0
M  V30 2728 H 269.993 0.427642 -0.507955 0
M  V30 2729 H 272.523 0.777422 -1.89255 0
M  V30 2730 H 272.533 3.10465 -2.64718 0
M  V30 2731 H 271.208 2.29578 -3.46795 0
M  V30 2732 H 269.785 3.21735 -1.88523 0
M  V30 2733 N 271.97 1.30982 0.876444 0
M  V30 2734 C 272.933 1.18054 1.96459 0
M  V30 2735 C 273.933 0.109399 1.60427 0
M  V30 2736 O 275.123 0.358173 1.70478 0
M  V30 2737 C 272.255 0.810616 3.31122 0
M  V30 2738 H 273.448 2.14735 2.09354 0
M  V30 2739 H 271.001 1.145 1.06392 0
M  V30 2740 H 271.736 -0.155322 3.23928 0
M  V30 2741 H 271.521 1.58481 3.58645 0
M  V30 2742 H 273.011 0.743876 4.10921 0
M  V30 2743 N 273.449 -1.08991 1.13837 0
M  V30 2744 C 274.698 -1.80631 0.897509 0
M  V30 2745 C 275.011 -1.86872 -0.57777 0
M  V30 2746 O 276.217 -2.54866 -0.935701 0
M  V30 2747 C 274.673 -3.24517 1.55618 0
M  V30 2748 C 274.281 -3.26529 3.0673 0
M  V30 2749 C 276.025 -4.00882 1.3962 0
M  V30 2750 C 273.932 -4.64965 3.65461 0
M  V30 2751 H 272.862 -0.67691 0.332129 0
M  V30 2752 H 275.513 -1.2246 1.3666 0
M  V30 2753 H 273.895 -3.82778 1.01476 0
M  V30 2754 H 275.069 -2.78008 3.67489 0
M  V30 2755 H 273.384 -2.63656 3.22296 0
M  V30 2756 H 275.981 -5.03167 1.80906 0
M  V30 2757 H 276.324 -4.14896 0.341578 0
M  V30 2758 H 276.857 -3.49075 1.90766 0
M  V30 2759 H 273.596 -4.56153 4.70749 0
M  V30 2760 H 273.116 -5.13792 3.09481 0
M  V30 2761 H 274.795 -5.3394 3.654 0
M  V30 2762 N 274.927 -0.932562 -1.27047 0
M  V30 2763 C 276.175 -0.574422 -1.93765 0
M  V30 2764 C 276.496 0.887993 -1.73608 0
M  V30 2765 O 275.766 1.62999 -1.08665 0
M  V30 2766 H 274.346 -0.209451 -0.717035 0
M  V30 2767 H 277.008 -1.18601 -1.5466 0
M  V30 2768 H 276.104 -0.784841 -3.02071 0
M  V30 2769 N 276.405 1.4127 -0.698611 0
M  V30 2770 C 277.335 2.33447 -0.049629 0
M  V30 2771 C 278.316 1.51982 0.763898 0
M  V30 2772 O 279.501 1.80509 0.716257 0
M  V30 2773 C 276.631 3.35828 0.885267 0
M  V30 2774 C 275.585 4.27627 0.178613 0
M  V30 2775 C 274.911 5.20406 1.22807 0
M  V30 2776 C 276.211 5.13459 -0.956933 0
M  V30 2777 H 277.905 2.87966 -0.81951 0
M  V30 2778 H 275.451 1.38461 -0.395538 0
M  V30 2779 H 277.404 3.9924 1.34854 0
M  V30 2780 H 276.128 2.79666 1.68685 0
M  V30 2781 H 274.787 3.65643 -0.26466 0
M  V30 2782 H 274.435 4.60558 2.02226 0
M  V30 2783 H 274.135 5.82661 0.760239 0
M  V30 2784 H 275.659 5.86695 1.69179 0
M  V30 2785 H 277.073 5.70421 -0.573805 0
M  V30 2786 H 275.47 5.8467 -1.35205 0
M  V30 2787 H 276.54 4.50443 -1.79524 0
M  V30 2788 N 277.883 0.443576 1.51229 0
M  V30 2789 C 279.13 -0.120796 2.02139 0
M  V30 2790 C 279.458 -1.42166 1.32736 0
M  V30 2791 O 278.713 -1.90849 0.43301 0
M  V30 2792 C 279.012 -0.380579 3.55368 0
M  V30 2793 C 278.678 0.83523 4.43097 0
M  V30 2794 C 277.34 1.16864 4.66794 0
M  V30 2795 C 279.692 1.64601 4.94526 0
M  V30 2796 C 277.02 2.31339 5.39165 0
M  V30 2797 C 279.372 2.78181 5.68153 0
M  V30 2798 C 278.036 3.11969 5.90112 0
M  V30 2799 H 277.306 -0.0442023 0.73968 0
M  V30 2800 H 279.953 0.592046 1.82118 0
M  V30 2801 H 278.258 -1.17538 3.73754 0
M  V30 2802 H 279.955 -0.830777 3.923 0
M  V30 2803 H 276.545 0.565437 4.24854 0
M  V30 2804 H 280.729 1.40163 4.76097 0
M  V30 2805 H 275.985 2.57823 5.5438 0
M  V30 2806 H 280.159 3.41371 6.06992 0
M  V30 2807 H 277.786 4.00784 6.45969 0
M  V30 2808 N 279.361 -1.56624 0.175154 0
M  V30 2809 C 280.609 -1.96609 -0.467885 0
M  V30 2810 C 280.93 -1.06238 -1.63519 0
M  V30 2811 O 280.2 -0.129523 -1.95471 0
M  V30 2812 H 278.78 -0.726008 -0.175845 0
M  V30 2813 H 281.442 -1.93195 0.257234 0
M  V30 2814 H 280.538 -3.00989 -0.825342 0
M  V30 2815 N 280.839 0.0985539 -1.57292 0
M  V30 2816 C 282.085 0.803867 -1.86188 0
M  V30 2817 C 282.418 1.78549 -0.763794 0
M  V30 2818 O 281.693 1.93153 0.22855 0
M  V30 2819 C 281.976 1.53568 -3.25713 0
M  V30 2820 C 281.829 0.572277 -4.46145 0
M  V30 2821 C 283.148 2.48708 -3.63087 0
M  V30 2822 H 280.267 0.290781 -0.677211 0
M  V30 2823 H 282.909 0.0675783 -1.8988 0
M  V30 2824 H 281.059 2.16332 -3.22696 0
M  V30 2825 H 282.731 -0.0480894 -4.61275 0
M  V30 2826 H 280.974 -0.114618 -4.33649 0
M  V30 2827 H 281.645 1.12139 -5.40489 0
M  V30 2828 H 284.121 1.96039 -3.67026 0
M  V30 2829 H 282.997 2.96932 -4.61652 0
M  V30 2830 H 283.258 3.32309 -2.91588 0
M  V30 2831 N 282.317 1.53212 0.369288 0
M  V30 2832 C 283.566 1.68436 1.10961 0
M  V30 2833 C 283.879 0.440738 1.9057 0
M  V30 2834 O 285.085 0.473446 2.6734 0
M  V30 2835 C 283.541 2.97744 2.0218 0
M  V30 2836 C 283.149 4.29355 1.279 0
M  V30 2837 C 284.893 3.22334 2.76226 0
M  V30 2838 C 282.8 5.49755 2.17999 0
M  V30 2839 H 281.73 0.627568 0.41794 0
M  V30 2840 H 284.381 1.79713 0.370884 0
M  V30 2841 H 282.763 2.8026 2.79768 0
M  V30 2842 H 283.937 4.57458 0.554007 0
M  V30 2843 H 282.252 4.11179 0.657311 0
M  V30 2844 H 284.849 4.09471 3.43857 0
M  V30 2845 H 285.192 2.38238 3.41392 0
M  V30 2846 H 285.725 3.40475 2.05723 0
M  V30 2847 H 282.464 6.36318 1.57417 0
M  V30 2848 H 281.984 5.25937 2.88359 0
M  V30 2849 H 283.663 5.84401 2.77641 0
M  V30 2850 N 283.795 -0.628877 1.44509 0
M  V30 2851 C 285.041 -1.39045 1.47629 0
M  V30 2852 C 285.374 -1.93892 0.109343 0
M  V30 2853 O 284.649 -1.7379 -0.87334 0
M  V30 2854 C 284.932 -2.55408 2.53848 0
M  V30 2855 C 284.785 -2.05896 3.99909 0
M  V30 2856 C 286.104 -3.5759 2.56549 0
M  V30 2857 H 283.223 -0.504232 0.537512 0
M  V30 2858 H 285.865 -0.710854 1.76201 0
M  V30 2859 H 284.015 -3.13384 2.29615 0
M  V30 2860 H 285.687 -1.52734 4.35282 0
M  V30 2861 H 283.93 -1.37061 4.11578 0
M  V30 2862 H 284.601 -2.89681 4.69882 0
M  V30 2863 H 287.077 -3.09419 2.78207 0
M  V30 2864 H 285.953 -4.36527 3.32769 0
M  V30 2865 H 286.214 -4.11808 1.60832 0
M  V30 2866 N 285.273 -1.31445 -0.869486 0
M  V30 2867 C 286.236 -1.19094 -1.9583 0
M  V30 2868 C 287.236 -0.117906 -1.60367 0
M  V30 2869 O 288.426 -0.367208 -1.70286 0
M  V30 2870 C 285.558 -0.828165 -3.30688 0
M  V30 2871 H 286.751 -2.15842 -2.08212 0
M  V30 2872 H 284.304 -1.15063 -1.05784 0
M  V30 2873 H 285.039 0.138142 -3.24006 0
M  V30 2874 H 284.824 -1.6038 -3.578 0
M  V30 2875 H 286.314 -0.765658 -4.10521 0
M  V30 2876 N 286.751 1.08385 -1.14413 0
M  V30 2877 C 288 1.80153 -0.907076 0
M  V30 2878 C 288.313 1.87176 0.567851 0
M  V30 2879 O 289.519 2.55359 0.922172 0
M  V30 2880 C 287.975 3.23687 -1.57336 0
M  V30 2881 C 287.583 3.24897 -3.08457 0
M  V30 2882 C 289.327 4.00136 -1.41744 0
M  V30 2883 C 287.234 4.6302 -3.67921 0
M  V30 2884 H 286.164 0.675139 -0.335714 0
M  V30 2885 H 288.815 1.21733 -1.37307 0
M  V30 2886 H 287.197 3.82234 -1.03505 0
M  V30 2887 H 288.371 2.76055 -3.68958 0
M  V30 2888 H 286.686 2.61943 -3.2369 0
M  V30 2889 H 289.283 5.02201 -1.83572 0
M  V30 2890 H 289.626 4.14709 -0.363576 0
M  V30 2891 H 290.159 3.48058 -1.92614 0
M  V30 2892 H 286.898 4.5365 -4.73161 0
M  V30 2893 H 286.418 5.12143 -3.12201 0
M  V30 2894 H 288.097 5.31994 -3.68227 0
M  V30 2895 N 288.23 0.939286 1.26551 0
M  V30 2896 C 289.16 0.465044 2.28822 0
M  V30 2897 C 290.141 -0.480692 1.63167 0
M  V30 2898 O 291.326 -0.382955 1.90387 0
M  V30 2899 C 288.456 -0.27234 3.46231 0
M  V30 2900 C 287.41 0.58666 4.2396 0
M  V30 2901 C 286.736 -0.280573 5.33963 0
M  V30 2902 C 288.036 1.85704 4.88171 0
M  V30 2903 H 289.73 1.31979 2.68741 0
M  V30 2904 H 287.276 0.636061 1.29191 0
M  V30 2905 H 289.229 -0.615133 4.16886 0
M  V30 2906 H 287.953 -1.16121 3.0526 0
M  V30 2907 H 286.612 0.91232 3.55067 0
M  V30 2908 H 286.26 -1.16874 4.89234 0
M  V30 2909 H 285.96 0.29076 5.8688 0
M  V30 2910 H 287.484 -0.618678 6.07458 0
M  V30 2911 H 288.898 1.58161 5.51052 0
M  V30 2912 H 287.295 2.37279 5.51197 0
M  V30 2913 H 288.365 2.56957 4.11219 0
M  V30 2914 N 289.708 -1.40897 0.706093 0
M  V30 2915 C 290.64 -2.29199 0.00815776 0
M  V30 2916 C 291.653 -1.45336 -0.733582 0
M  V30 2917 O 292.842 -1.68727 -0.582537 0
M  V30 2918 C 289.942 -3.23417 -1.01265 0
M  V30 2919 C 289.115 -4.36089 -0.338387 0
M  V30 2920 C 288.174 -5.10811 -1.26326 0
M  V30 2921 O 287.2 -5.64215 -0.751651 0
M  V30 2922 N 288.402 -5.19269 -2.595 0
M  V30 2923 H 291.167 -2.89738 0.766297 0
M  V30 2924 H 288.728 -1.52164 0.55296 0
M  V30 2925 H 290.72 -3.70276 -1.63334 0
M  V30 2926 H 289.29 -2.64112 -1.67223 0
M  V30 2927 H 288.51 -3.91479 0.462352 0
M  V30 2928 H 289.798 -5.08634 0.130031 0
M  V30 2929 H 289.196 -4.77347 -3.03573 0
M  V30 2930 H 287.753 -5.69667 -3.16737 0
M  V30 2931 N 291.186 -0.45159 -1.50991 0
M  V30 2932 C 292.414 0.108334 -2.06616 0
M  V30 2933 C 292.829 1.35224 -1.31757 0
M  V30 2934 O 292.186 1.78475 -0.381174 0
M  V30 2935 C 292.237 0.41619 -3.59096 0
M  V30 2936 O 291.958 -0.778361 -4.3113 0
M  V30 2937 C 293.459 1.02523 -4.31282 0
M  V30 2938 H 290.679 0.00159995 -0.670998 0
M  V30 2939 H 293.223 -0.634771 -1.94399 0
M  V30 2940 H 291.378 1.10921 -3.71181 0
M  V30 2941 H 291.792 -0.511181 -5.22003 0
M  V30 2942 H 293.266 1.19053 -5.39009 0
M  V30 2943 H 293.743 2.01013 -3.905 0
M  V30 2944 H 294.349 0.371173 -4.23677 0
M  V30 2945 N 292.664 1.56529 -0.183458 0
M  V30 2946 C 293.889 2.02064 0.467428 0
M  V30 2947 C 294.314 1.06282 1.55196 0
M  V30 2948 O 293.672 0.0443565 1.81246 0
M  V30 2949 C 293.72 3.46122 1.01153 0
M  V30 2950 O 292.824 3.53437 2.12499 0
M  V30 2951 H 292.165 0.654726 0.110588 0
M  V30 2952 H 294.695 2.02521 -0.290917 0
M  V30 2953 H 294.705 3.85676 1.33108 0
M  V30 2954 H 293.38 4.15331 0.217533 0
M  V30 2955 H 291.957 3.2575 1.81497 0
M  V30 2956 N 294.142 -0.090211 1.57342 0
M  V30 2957 C 295.558 -0.444547 1.53284 0
M  V30 2958 C 295.758 -1.80238 0.900914 0
M  V30 2959 O 294.814 -2.4759 0.495513 0
M  V30 2960 C 296.127 -0.402543 2.97993 0
M  V30 2961 C 297.675 -0.48405 3.09234 0
M  V30 2962 C 298.15 -0.472144 4.5556 0
M  V30 2963 N 299.641 -0.532757 4.60126 0
M  V30 2964 C 300.376 -0.545462 5.708 0
M  V30 2965 N 299.872 -0.514082 6.9089 0
M  V30 2966 N 301.665 -0.59064 5.58988 0
M  V30 2967 H 293.816 0.799121 1.96794 0
M  V30 2968 H 296.079 0.297965 0.899956 0
M  V30 2969 H 295.785 0.528106 3.47712 0
M  V30 2970 H 295.659 -1.21969 3.56936 0
M  V30 2971 H 298.046 -1.40512 2.595 0
M  V30 2972 H 298.127 0.361328 2.53235 0
M  V30 2973 H 297.771 0.445 5.05947 0
M  V30 2974 H 297.701 -1.3348 5.09402 0
M  V30 2975 H 300.192 -0.562006 3.73698 0
M  V30 2976 H 300.505 -0.527195 7.71 0
M  V30 2977 H 298.85 -0.481054 6.93333 0
M  V30 2978 H 302.041 -0.61272 4.64073 0
M  V30 2979 H 302.214 -0.597073 6.45243 0
M  V30 2980 N 295.62 -1.53406 -0.361157 0
M  V30 2981 C 296.866 -1.70054 -1.10496 0
M  V30 2982 C 297.199 -0.453278 -1.88836 0
M  V30 2983 O 296.474 0.5495 -1.86576 0
M  V30 2984 C 296.757 -2.95317 -2.06058 0
M  V30 2985 C 296.61 -4.3021 -1.31298 0
M  V30 2986 C 297.929 -3.16193 -3.06121 0
M  V30 2987 H 295.048 -0.618799 -0.400321 0
M  V30 2988 H 297.69 -1.86052 -0.385318 0
M  V30 2989 H 295.84 -2.81809 -2.67425 0
M  V30 2990 H 297.512 -4.55538 -0.726807 0
M  V30 2991 H 295.755 -4.29421 -0.614853 0
M  V30 2992 H 296.426 -5.14 -2.01265 0
M  V30 2993 H 298.902 -3.28916 -2.5486 0
M  V30 2994 H 297.778 -4.05266 -3.70204 0
M  V30 2995 H 298.039 -2.31676 -3.76535 0
M  V30 2996 N 297.098 0.621204 -1.44841 0
M  V30 2997 C 298.045 1.73267 -1.5247 0
M  V30 2998 C 299.015 1.6189 -0.371611 0
M  V30 2999 O 300.2 1.81668 -0.58321 0
M  V30 3000 C 297.34 3.11545 -1.48438 0
M  V30 3001 C 296.453 3.33827 -2.74196 0
M  V30 3002 C 295.588 4.62133 -2.61929 0
M  V30 3003 C 294.627 4.77627 -3.82804 0
M  V30 3004 N 293.764 5.97219 -3.69153 0
M  V30 3005 H 298.604 1.66082 -2.47428 0
M  V30 3006 H 296.141 0.810026 -1.22788 0
M  V30 3007 H 298.099 3.91528 -1.4409 0
M  V30 3008 H 296.729 3.1772 -0.570402 0
M  V30 3009 H 295.781 2.47715 -2.88689 0
M  V30 3010 H 297.093 3.41153 -3.6389 0
M  V30 3011 H 296.247 5.50291 -2.5547 0
M  V30 3012 H 294.986 4.57182 -1.69811 0
M  V30 3013 H 293.991 3.87896 -3.89637 0
M  V30 3014 H 295.216 4.84385 -4.75971 0
M  V30 3015 H 293.162 5.93339 -2.79794 0
M  V30 3016 H 293.079 6.05644 -4.52472 0
M  V30 3017 H 294.347 6.87912 -3.66603 0
M  V30 3018 N 298.576 1.31904 0.862503 0
M  V30 3019 C 299.509 1.14514 1.97388 0
M  V30 3020 C 300.487 0.0466493 1.62533 0
M  V30 3021 O 301.671 0.204484 1.87388 0
M  V30 3022 C 298.798 0.751347 3.30261 0
M  V30 3023 C 297.844 1.85395 3.84098 0
M  V30 3024 S 298.677 3.46081 4.08642 0
M  V30 3025 C 299.833 3.08655 5.44502 0
M  V30 3026 H 300.066 2.08597 2.11836 0
M  V30 3027 H 297.599 1.16475 1.01356 0
M  V30 3028 H 299.557 0.530901 4.07052 0
M  V30 3029 H 298.218 -0.170493 3.13637 0
M  V30 3030 H 297.411 1.53122 4.80177 0
M  V30 3031 H 297.013 2.02984 3.14123 0
M  V30 3032 H 299.305 2.58012 6.26447 0
M  V30 3033 H 300.248 4.03726 5.81731 0
M  V30 3034 H 300.656 2.45891 5.08132 0
M  V30 3035 N 300.054 -1.07777 1.14986 0
M  V30 3036 C 301.302 -1.79934 0.920235 0
M  V30 3037 C 301.623 -1.86955 -0.554336 0
M  V30 3038 O 300.893 -1.36731 -1.40291 0
M  V30 3039 H 299.473 -0.666424 0.337473 0
M  V30 3040 H 302.135 -1.3027 1.44968 0
M  V30 3041 H 301.231 -2.82539 1.32583 0
M  V30 3042 N 301.532 -0.945985 -1.26051 0
M  V30 3043 C 302.809 -0.513816 -1.88731 0
M  V30 3044 C 303.189 1.00872 -1.8544 0
M  V30 3045 O 302.537 1.8708 -1.312 0
M  V30 3046 C 302.747 -1.08062 -3.31849 0
M  V30 3047 C 304.095 -1.1522 -4.08668 0
M  V30 3048 O 305.119 -1.03155 -3.40936 0
M  V30 3049 O 303.978 -1.34044 -5.29806 0
M  V30 3050 H 301.072 -0.168193 -0.809716 0
M  V30 3051 H 303.618 -1.03886 -1.34186 0
M  V30 3052 H 302.39 -2.1241 -3.2863 0
M  V30 3053 H 302.013 -0.538307 -3.93939 0
M  V30 3054 O 303.049 1.37208 -0.85184 0
M  V30 3055 H 303.74 1.88528 -0.444614 0
M  V30 END ATOM
M  V30 BEGIN BOND
M  V30 END BOND
M  V30 END CTAB
M  END
$$$$
