drugbank_target|Q99571 P2X purinoceptor 4 (DB09119; DB14575)
 OpenBabel12092121033D

  0  0  0     0  0            999 V3000
M  V30 BEGIN CTAB
M  V30 COUNTS 6095 6161 0 0 0
M  V30 BEGIN ATOM
M  V30 1 H -0.908 1.98254 -0.117106 0
M  V30 2 N 0 1.576 0 0
M  V30 3 C 0.933 2.03868 1.02534 0
M  V30 4 C 1.911 0.928543 1.3348 0
M  V30 5 O 3.095 1.19667 1.45644 0
M  V30 6 C 0.222 2.43627 2.35294 0
M  V30 7 C -0.732 3.65373 2.2001 0
M  V30 8 S 0.101 5.13292 1.52614 0
M  V30 9 C 1.257 5.56322 2.86805 0
M  V30 10 H 1.49 2.90518 0.631377 0
M  V30 11 H -0.977 1.52953 0.210867 0
M  V30 12 H 0.981 2.67203 3.11629 0
M  V30 13 H -0.358 1.57376 2.7183 0
M  V30 14 H -1.165 3.90944 3.18086 0
M  V30 15 H -1.563 3.418 1.51819 0
M  V30 16 H 0.729 5.58782 3.83104 0
M  V30 17 H 1.672 6.56266 2.65933 0
M  V30 18 H 2.08 4.83886 2.90714 0
M  V30 19 N 1.4781 -0.272755 1.55222 0
M  V30 20 C 2.4411 -1.32041 1.87344 0
M  V30 21 C 3.4411 -1.42342 0.74803 0
M  V30 22 O 4.6311 -1.41488 1.0162 0
M  V30 23 C 1.7631 -2.70173 2.07893 0
M  V30 24 H 2.9561 -1.04789 2.80997 0
M  V30 25 H 0.5091 -0.51083 1.47717 0
M  V30 26 H 1.2441 -3.02605 1.16622 0
M  V30 27 H 1.0291 -2.64082 2.89833 0
M  V30 28 H 2.5191 -3.45869 2.34017 0
M  V30 29 N 2.9562 -1.48159 -0.537278 0
M  V30 30 C 4.2042 -1.55497 -1.29094 0
M  V30 31 C 4.5252 -0.227454 -1.93669 0
M  V30 32 O 3.7952 0.750386 -1.80959 0
M  V30 33 H 2.3752 -0.572832 -0.47945 0
M  V30 34 H 5.0372 -1.84579 -0.625818 0
M  V30 35 H 4.1332 -2.33216 -2.07405 0
M  V30 36 N 4.4343 0.785586 -1.36625 0
M  V30 37 C 5.6743 1.55678 -1.32453 0
M  V30 38 C 6.0383 1.91769 0.0941089 0
M  V30 39 O 7.2393 2.67536 0.26042 0
M  V30 40 C 5.5103 2.79701 -2.22491 0
M  V30 41 S 7.0693 3.69907 -2.36038 0
M  V30 42 H 3.8873 0.533141 -0.470405 0
M  V30 43 H 6.4893 0.924953 -1.72235 0
M  V30 44 H 5.1933 2.51244 -3.24507 0
M  V30 45 H 4.7243 3.47854 -1.83742 0
M  V30 46 H 6.7393 4.71016 -1.56072 0
M  V30 47 N 5.9124 1.20967 1.01018 0
M  V30 48 C 7.1524 1.03511 1.76252 0
M  V30 49 C 7.5164 -0.42458 1.87247 0
M  V30 50 O 8.7174 -0.719508 2.58991 0
M  V30 51 C 6.9884 1.70726 3.13986 0
M  V30 52 S 8.5474 1.68458 4.05176 0
M  V30 53 H 5.3654 0.371037 0.606508 0
M  V30 54 H 7.9674 1.53628 1.20908 0
M  V30 55 H 6.6714 2.76128 3.03614 0
M  V30 56 H 6.2024 1.20767 3.74405 0
M  V30 57 H 8.2174 0.721987 4.90919 0
M  V30 58 N 7.3905 -1.2043 1.01659 0
M  V30 59 C 8.3535 -2.21433 0.591616 0
M  V30 60 C 9.3535 -1.57203 -0.338226 0
M  V30 61 O 10.5435 -1.73737 -0.126918 0
M  V30 62 C 7.6755 -3.40628 -0.136058 0
M  V30 63 H 8.8685 -2.60545 1.48514 0
M  V30 64 H 6.4215 -1.33893 0.806379 0
M  V30 65 H 7.1565 -3.07019 -1.04449 0
M  V30 66 H 6.9415 -3.88475 0.531917 0
M  V30 67 H 8.4315 -4.15475 -0.420735 0
M  V30 68 N 8.8686 -0.792821 -1.36206 0
M  V30 69 C 9.8316 -0.199459 -2.2833 0
M  V30 70 C 10.8316 0.605189 -1.48977 0
M  V30 71 O 12.0216 0.425685 -1.68919 0
M  V30 72 C 9.1536 0.723523 -3.33134 0
M  V30 73 H 10.3466 -1.01181 -2.82316 0
M  V30 74 H 7.8996 -0.562485 -1.45828 0
M  V30 75 H 8.6346 1.56008 -2.84309 0
M  V30 76 H 8.4196 0.148436 -3.91819 0
M  V30 77 H 9.9096 1.13344 -4.01924 0
M  V30 78 N 10.3467 1.47872 -0.545128 0
M  V30 79 C 11.2767 2.32661 0.197793 0
M  V30 80 C 12.2577 1.43041 0.920504 0
M  V30 81 O 13.4427 1.71912 0.90333 0
M  V30 82 C 10.5727 3.24569 1.23582 0
M  V30 83 C 9.5267 4.23333 0.630323 0
M  V30 84 C 8.8527 5.0448 1.77211 0
M  V30 85 C 10.1527 5.20704 -0.407974 0
M  V30 86 H 11.8467 2.95024 -0.510045 0
M  V30 87 H 9.3927 1.4187 -0.246731 0
M  V30 88 H 11.3457 3.8272 1.76362 0
M  V30 89 H 10.0697 2.60236 1.97344 0
M  V30 90 H 8.7287 3.6639 0.123922 0
M  V30 91 H 8.3767 4.36561 2.49847 0
M  V30 92 H 8.0767 5.71339 1.37281 0
M  V30 93 H 9.6007 5.65487 2.3034 0
M  V30 94 H 11.0147 5.7329 0.033305 0
M  V30 95 H 9.4117 5.95699 -0.725486 0
M  V30 96 H 10.4817 4.66917 -1.30828 0
M  V30 97 N 11.8248 0.280983 1.55075 0
M  V30 98 C 12.7878 -0.590896 2.21452 0
M  V30 99 C 13.7878 -1.07682 1.19421 0
M  V30 100 O 14.9778 -0.97605 1.44288 0
M  V30 101 C 12.1098 -1.81587 2.88511 0
M  V30 102 H 13.3028 -0.0112554 2.99898 0
M  V30 103 H 10.8558 0.0316438 1.56268 0
M  V30 104 H 11.5908 -2.43587 2.14093 0
M  V30 105 H 11.3758 -1.4753 3.63287 0
M  V30 106 H 12.8658 -2.43575 3.39206 0
M  V30 107 N 13.3029 -1.57598 0.00835791 0
M  V30 108 C 14.2659 -2.07884 -0.965242 0
M  V30 109 C 15.2659 -0.989825 -1.26725 0
M  V30 110 O 16.4559 -1.25218 -1.21104 0
M  V30 111 C 13.5879 -2.52731 -2.28779 0
M  V30 112 H 14.7809 -2.95178 -0.530112 0
M  V30 113 H 12.3339 -1.54458 -0.239283 0
M  V30 114 H 13.0689 -1.68705 -2.76964 0
M  V30 115 H 12.8539 -3.32272 -2.08177 0
M  V30 116 H 14.3439 -2.91933 -2.98605 0
M  V30 117 N 14.781 0.264519 -1.55364 0
M  V30 118 C 16.028 0.994986 -1.7637 0
M  V30 119 C 16.356 1.85976 -0.5695 0
M  V30 120 O 15.611 1.90509 0.44776 0
M  V30 121 C 15.91 1.9004 -3.02687 0
M  V30 122 C 15.576 1.19243 -4.34847 0
M  V30 123 C 14.238 0.996709 -4.70764 0
M  V30 124 C 16.59 0.689296 -5.16622 0
M  V30 125 C 13.918 0.285261 -5.86006 0
M  V30 126 C 16.27 -0.00860079 -6.32599 0
M  V30 127 C 14.934 -0.215963 -6.67151 0
M  V30 128 H 14.204 0.364091 -0.645383 0
M  V30 129 H 16.851 0.266543 -1.89636 0
M  V30 130 H 15.156 2.69533 -2.84357 0
M  V30 131 H 16.853 2.46695 -3.16137 0
M  V30 132 H 13.443 1.3549 -4.06621 0
M  V30 133 H 17.627 0.828108 -4.89342 0
M  V30 134 H 12.883 0.113961 -6.11294 0
M  V30 135 H 17.057 -0.406186 -6.95214 0
M  V30 136 H 14.684 -0.769217 -7.56298 0
M  V30 137 N 16.2591 1.48442 0.529413 0
M  V30 138 C 17.1891 1.65902 1.64313 0
M  V30 139 C 18.1701 0.507897 1.6234 0
M  V30 140 O 19.3551 0.740503 1.79528 0
M  V30 141 C 16.4851 1.69911 3.02898 0
M  V30 142 C 15.4391 2.8453 3.19729 0
M  V30 143 C 14.7651 2.73629 4.59381 0
M  V30 144 C 16.0651 4.25821 3.02447 0
M  V30 145 H 17.7591 2.5914 1.49955 0
M  V30 146 H 15.3051 1.24709 0.719982 0
M  V30 147 H 17.2581 1.80715 3.80684 0
M  V30 148 H 15.9821 0.732524 3.18279 0
M  V30 149 H 14.6411 2.73283 2.44361 0
M  V30 150 H 14.2891 1.74938 4.71599 0
M  V30 151 H 13.9891 3.50541 4.71588 0
M  V30 152 H 15.5131 2.86401 5.39265 0
M  V30 153 H 16.9271 4.37898 3.70024 0
M  V30 154 H 15.3241 5.03735 3.26146 0
M  V30 155 H 16.3941 4.42244 1.98867 0
M  V30 156 N 17.7372 -0.778329 1.37039 0
M  V30 157 C 18.9842 -1.53665 1.31884 0
M  V30 158 C 19.3122 -1.9425 -0.0986303 0
M  V30 159 O 18.5672 -1.63832 -1.07041 0
M  V30 160 C 18.8662 -2.81845 2.19768 0
M  V30 161 C 18.5322 -2.60345 3.68146 0
M  V30 162 C 17.1942 -2.5419 4.08584 0
M  V30 163 C 19.5462 -2.40923 4.62175 0
M  V30 164 C 16.8742 -2.26594 5.41177 0
M  V30 165 C 19.2262 -2.14852 5.94997 0
M  V30 166 C 17.8902 -2.07137 6.34547 0
M  V30 167 H 17.1602 -0.562299 0.482598 0
M  V30 168 H 19.8072 -0.897069 1.69189 0
M  V30 169 H 18.1122 -3.50328 1.75436 0
M  V30 170 H 19.8092 -3.39692 2.13097 0
M  V30 171 H 16.3992 -2.65996 3.36072 0
M  V30 172 H 20.5832 -2.44673 4.31797 0
M  V30 173 H 15.8392 -2.19111 5.70789 0
M  V30 174 H 20.0132 -1.98822 6.67415 0
M  V30 175 H 17.6402 -1.85518 7.37216 0
M  V30 176 N 19.2153 -1.21501 -1.00376 0
M  V30 177 C 20.1253 -0.991447 -2.12621 0
M  V30 178 C 21.1413 0.0568446 -1.73907 0
M  V30 179 O 22.3173 -0.13348 -2.00957 0
M  V30 180 C 19.3823 -0.560312 -3.42142 0
M  V30 181 C 18.4433 -1.68096 -3.95022 0
M  V30 182 C 17.6763 -1.2703 -5.18362 0
M  V30 183 O 17.8993 -0.144438 -5.70217 0
M  V30 184 O 16.8333 -2.08269 -5.64719 0
M  V30 185 H 20.6593 -1.93158 -2.34358 0
M  V30 186 H 18.2443 -0.999999 -1.10997 0
M  V30 187 H 20.1263 -0.329724 -4.20108 0
M  V30 188 H 18.8013 0.351089 -3.2179 0
M  V30 189 H 17.7083 -1.96597 -3.18278 0
M  V30 190 H 19.0413 -2.56983 -4.19786 0
M  V30 191 N 20.6934 1.19889 -1.02296 0
M  V30 192 C 21.9234 1.93109 -0.734332 0
M  V30 193 C 22.3314 1.75377 0.709889 0
M  V30 194 O 21.6744 1.06912 1.49384 0
M  V30 195 C 21.7364 3.45362 -0.99827 0
M  V30 196 C 21.4004 3.8686 -2.43287 0
M  V30 197 C 22.3974 3.92102 -3.41397 0
M  V30 198 C 20.0824 4.18668 -2.77529 0
M  V30 199 C 22.0764 4.28573 -4.71809 0
M  V30 200 C 19.7634 4.54813 -4.08153 0
M  V30 201 C 20.7614 4.59739 -5.05103 0
M  V30 202 O 20.4494 4.95051 -6.33388 0
M  V30 203 H 20.1814 0.620409 -0.268456 0
M  V30 204 H 22.7354 1.53144 -1.3688 0
M  V30 205 H 20.9654 3.85482 -0.306645 0
M  V30 206 H 22.6544 3.99814 -0.700234 0
M  V30 207 H 23.4204 3.67685 -3.1628 0
M  V30 208 H 19.2994 4.14021 -2.0275 0
M  V30 209 H 22.8434 4.32333 -5.4748 0
M  V30 210 H 18.7404 4.78687 -4.33047 0
M  V30 211 H 19.5084 5.1302 -6.37772 0
M  V30 212 N 22.1715 0.800033 1.35784 0
M  V30 213 C 23.4485 0.30088 1.93272 0
M  V30 214 C 23.8285 -1.20857 1.73081 0
M  V30 215 O 23.1765 -2.00502 1.09596 0
M  V30 216 C 23.3865 0.70511 3.41803 0
M  V30 217 C 24.7345 0.690871 4.18942 0
M  V30 218 O 25.7585 0.646244 3.50289 0
M  V30 219 O 24.6175 0.74332 5.41421 0
M  V30 220 H 21.7115 0.0771605 0.823393 0
M  V30 221 H 24.2575 0.88329 1.449 0
M  V30 222 H 23.0295 1.74571 3.50201 0
M  V30 223 H 22.6525 0.0971541 3.97481 0
M  V30 224 N 23.6496 -1.47581 0.552962 0
M  V30 225 C 24.8776 -2.06875 0.0320556 0
M  V30 226 C 25.2926 -1.40625 -1.25976 0
M  V30 227 O 24.6496 -0.501349 -1.75479 0
M  V30 228 C 24.7006 -3.61092 -0.17167 0
M  V30 229 O 24.4216 -4.24858 1.06899 0
M  V30 230 C 25.9226 -4.37242 -0.730344 0
M  V30 231 H 23.1426 -0.669561 0.043915 0
M  V30 232 H 25.6866 -1.89646 0.765163 0
M  V30 233 H 23.8416 -3.7785 -0.854894 0
M  V30 234 H 24.2556 -5.17334 0.864059 0
M  V30 235 H 25.7296 -5.45842 -0.822203 0
M  V30 236 H 26.2066 -4.03235 -1.74064 0
M  V30 237 H 26.8126 -4.25219 -0.0829543 0
M  V30 238 N 25.1277 -0.289203 -1.54924 0
M  V30 239 C 26.5387 0.205791 -1.85562 0
M  V30 240 C 26.8897 1.54351 -1.2112 0
M  V30 241 O 26.0147 2.10435 -0.504601 0
M  V30 242 C 26.6097 0.380177 -3.3666 0
M  V30 243 C 25.1687 0.819395 -3.67373 0
M  V30 244 C 24.3157 -0.079159 -2.77187 0
M  V30 245 H 27.2667 -0.510577 -1.50262 0
M  V30 246 H 27.2877 1.21659 -3.60526 0
M  V30 247 H 26.7997 -0.593589 -3.83534 0
M  V30 248 H 24.9007 1.80413 -3.26009 0
M  V30 249 H 25.0137 0.646957 -4.74712 0
M  V30 250 H 23.3777 0.439565 -2.50878 0
M  V30 251 H 24.1607 -1.04906 -3.26878 0
M  V30 252 N 26.6058 1.57591 -0.0167156 0
M  V30 253 C 28.0218 1.55946 0.339557 0
M  V30 254 C 28.2218 1.02109 1.73713 0
M  V30 255 O 27.2778 0.662303 2.43659 0
M  V30 256 C 28.5908 3.00037 0.199499 0
M  V30 257 C 30.1388 3.11805 0.273193 0
M  V30 258 C 30.6138 4.57713 0.162068 0
M  V30 259 N 32.1048 4.6268 0.219444 0
M  V30 260 C 32.8398 5.73185 0.157054 0
M  V30 261 N 32.3358 6.92786 0.0442936 0
M  V30 262 N 34.1288 5.61707 0.21014 0
M  V30 263 H 26.2798 1.90921 -0.930758 0
M  V30 264 H 28.5428 0.877674 -0.358319 0
M  V30 265 H 28.2488 3.4333 -0.76273 0
M  V30 266 H 28.1228 3.64387 0.974786 0
M  V30 267 H 30.5098 2.68433 1.22587 0
M  V30 268 H 30.5908 2.50201 -0.532256 0
M  V30 269 H 30.2348 5.01763 -0.78714 0
M  V30 270 H 30.1648 5.17283 0.986222 0
M  V30 271 H 32.6558 3.76649 0.307246 0
M  V30 272 H 32.9688 7.728 0.00304069 0
M  V30 273 H 31.3138 6.94999 0.00968457 0
M  V30 274 H 34.5048 4.6716 0.296546 0
M  V30 275 H 34.6778 6.47807 0.158054 0
M  V30 276 N 28.0839 -0.256276 1.55502 0
M  V30 277 C 29.3329 -0.983486 1.76098 0
M  V30 278 C 29.6459 -1.86837 0.578896 0
M  V30 279 O 30.8519 -2.63163 0.667648 0
M  V30 280 C 29.3079 -1.79868 3.1173 0
M  V30 281 C 28.9159 -0.961648 4.37557 0
M  V30 282 C 30.6599 -2.51919 3.41668 0
M  V30 283 C 28.5669 -1.77219 5.64223 0
M  V30 284 H 27.4969 -0.370936 0.656447 0
M  V30 285 H 30.1479 -0.238492 1.81944 0
M  V30 286 H 28.5299 -2.58527 2.99966 0
M  V30 287 H 29.7039 -0.218048 4.60284 0
M  V30 288 H 28.0189 -0.354913 4.14885 0
M  V30 289 H 30.6159 -3.12998 4.33516 0
M  V30 290 H 30.9589 -3.23059 2.62562 0
M  V30 291 H 31.4919 -1.80278 3.54605 0
M  V30 292 H 28.2309 -1.10471 6.46124 0
M  V30 293 H 27.7509 -2.49132 5.45613 0
M  V30 294 H 29.4299 -2.34169 6.03137 0
M  V30 295 N 29.562 -1.4872 -0.521534 0
M  V30 296 C 30.808 -1.574 -1.27879 0
M  V30 297 C 31.141 -0.250817 -1.92573 0
M  V30 298 O 30.416 0.743934 -1.79711 0
M  V30 299 C 30.699 -2.71843 -2.36164 0
M  V30 300 C 30.552 -4.13893 -1.76105 0
M  V30 301 C 31.871 -2.82008 -3.37875 0
M  V30 302 H 28.99 -0.572941 -0.463581 0
M  V30 303 H 31.632 -1.80927 -0.580119 0
M  V30 304 H 29.782 -2.51914 -2.95756 0
M  V30 305 H 31.454 -4.45284 -1.20499 0
M  V30 306 H 29.697 -4.20498 -1.06601 0
M  V30 307 H 30.368 -4.89804 -2.5455 0
M  V30 308 H 32.844 -3.00086 -2.88249 0
M  V30 309 H 31.72 -3.63796 -4.11028 0
M  V30 310 H 31.981 -1.90511 -3.98946 0
M  V30 311 N 31.0401 0.771051 -1.3745 0
M  V30 312 C 31.9701 1.89827 -1.3597 0
M  V30 313 C 32.9511 1.68562 -0.228216 0
M  V30 314 O 34.1361 1.8941 -0.428675 0
M  V30 315 C 31.2661 3.2712 -1.16662 0
M  V30 316 C 30.2201 3.6295 -2.2683 0
M  V30 317 C 29.5461 4.98791 -1.92644 0
M  V30 318 C 30.8461 3.69627 -3.69017 0
M  V30 319 H 32.5401 1.91323 -2.30295 0
M  V30 320 H 30.0861 0.919082 -1.10855 0
M  V30 321 H 32.0391 4.05615 -1.14256 0
M  V30 322 H 30.7631 3.26059 -0.187926 0
M  V30 323 H 29.4221 2.86763 -2.28392 0
M  V30 324 H 29.0701 4.94271 -0.933021 0
M  V30 325 H 28.7701 5.23733 -2.66416 0
M  V30 326 H 30.2941 5.79685 -1.91826 0
M  V30 327 H 31.7081 4.38273 -3.69581 0
M  V30 328 H 30.1051 4.06067 -4.41848 0
M  V30 329 H 31.1751 2.70273 -4.02592 0
M  V30 330 N 32.5182 1.22032 0.997298 0
M  V30 331 C 33.7672 1.03637 1.73038 0
M  V30 332 C 34.0802 -0.429475 1.90827 0
M  V30 333 O 35.2862 -0.732995 2.61418 0
M  V30 334 C 33.7422 1.80582 3.11317 0
M  V30 335 C 33.3502 3.31387 3.01474 0
M  V30 336 C 35.0942 1.70621 3.88701 0
M  V30 337 C 33.0012 4.00791 4.3488 0
M  V30 338 H 31.9312 0.384179 0.648785 0
M  V30 339 H 34.5822 1.4584 1.11368 0
M  V30 340 H 32.9642 1.31175 3.73643 0
M  V30 341 H 34.1382 3.88155 2.4834 0
M  V30 342 H 32.4532 3.41976 2.37575 0
M  V30 343 H 35.0502 2.19799 4.87434 0
M  V30 344 H 35.3932 0.665823 4.10941 0
M  V30 345 H 35.9262 2.17547 3.33044 0
M  V30 346 H 32.6652 5.05064 4.1784 0
M  V30 347 H 32.1852 3.48811 4.87945 0
M  V30 348 H 33.8642 4.06139 5.03647 0
M  V30 349 N 33.9963 -1.19345 1.0293 0
M  V30 350 C 35.4123 -1.41069 0.746446 0
M  V30 351 C 35.6123 -1.90078 -0.668776 0
M  V30 352 O 34.6683 -2.0778 -1.4347 0
M  V30 353 C 35.9813 -2.42141 1.78292 0
M  V30 354 C 37.5293 -2.55887 1.80252 0
M  V30 355 C 38.0043 -3.60214 2.8286 0
M  V30 356 N 39.4953 -3.67711 2.81679 0
M  V30 357 C 40.2303 -4.48128 3.57727 0
M  V30 358 N 39.7263 -5.32248 4.43491 0
M  V30 359 N 41.5193 -4.42782 3.46267 0
M  V30 360 H 33.6703 -0.858536 1.94275 0
M  V30 361 H 35.9333 -0.439541 0.839945 0
M  V30 362 H 35.6393 -2.13155 2.79746 0
M  V30 363 H 35.5133 -3.41323 1.60557 0
M  V30 364 H 37.9003 -2.84196 0.794757 0
M  V30 365 H 37.9813 -1.56858 2.02062 0
M  V30 366 H 37.6253 -3.32647 3.83807 0
M  V30 367 H 37.5553 -4.58895 2.58307 0
M  V30 368 H 40.0463 -3.07634 2.19476 0
M  V30 369 H 40.3593 -5.90729 4.98256 0
M  V30 370 H 38.7043 -5.31707 4.47564 0
M  V30 371 H 41.8953 -3.76107 2.78677 0
M  V30 372 H 42.0683 -5.05215 4.05785 0
M  V30 373 N 35.4744 -0.807222 -1.35358 0
M  V30 374 C 36.6994 -0.399309 -2.0352 0
M  V30 375 C 37.1244 0.981986 -1.60433 0
M  V30 376 O 36.4824 1.63601 -0.781299 0
M  V30 377 C 36.5304 -0.491552 -3.57234 0
M  V30 378 O 35.6344 0.494754 -4.09421 0
M  V30 379 H 34.9754 -0.166682 -0.642739 0
M  V30 380 H 37.5054 -1.09328 -1.72941 0
M  V30 381 H 37.5154 -0.361588 -4.06395 0
M  V30 382 H 36.1904 -1.49907 -3.87944 0
M  V30 383 H 34.7674 0.324977 -3.71481 0
M  V30 384 N 36.9525 1.47285 -0.560781 0
M  V30 385 C 38.3685 1.58065 -0.22081 0
M  V30 386 C 38.5685 1.55892 1.27671 0
M  V30 387 O 37.6245 1.46422 2.0571 0
M  V30 388 C 38.9375 2.88418 -0.850625 0
M  V30 389 C 40.4855 3.02009 -0.822184 0
M  V30 390 C 40.9605 4.35066 -1.43113 0
M  V30 391 N 42.4515 4.41711 -1.39448 0
M  V30 392 C 43.1865 5.43237 -1.83525 0
M  V30 393 N 42.6825 6.51555 -2.35474 0
M  V30 394 N 44.4755 5.34304 -1.74574 0
M  V30 395 H 36.6265 1.46941 -1.53369 0
M  V30 396 H 38.8895 0.699558 -0.639783 0
M  V30 397 H 38.5955 2.95755 -1.9032 0
M  V30 398 H 38.4695 3.75612 -0.345773 0
M  V30 399 H 40.8565 2.94266 0.221714 0
M  V30 400 H 40.9375 2.16347 -1.36483 0
M  V30 401 H 40.5815 4.43565 -2.47412 0
M  V30 402 H 40.5115 5.19465 -0.863899 0
M  V30 403 H 43.0025 3.64027 -1.01452 0
M  V30 404 H 43.3155 7.25203 -2.67021 0
M  V30 405 H 41.6605 6.52435 -2.39487 0
M  V30 406 H 44.8515 4.48581 -1.33763 0
M  V30 407 H 45.0245 6.13288 -2.09242 0
M  V30 408 N 38.4306 0.297415 1.54768 0
M  V30 409 C 39.3776 -0.580276 2.23386 0
M  V30 410 C 40.3476 -1.13238 1.21517 0
M  V30 411 O 41.5326 -1.17757 1.50126 0
M  V30 412 C 38.6726 -1.74801 2.97555 0
M  V30 413 C 37.7856 -1.22764 4.1419 0
M  V30 414 C 36.9206 -2.35895 4.75949 0
M  V30 415 C 35.9596 -1.80974 5.84735 0
M  V30 416 N 35.0966 -2.87664 6.40464 0
M  V30 417 H 39.9366 0.0114833 2.97998 0
M  V30 418 H 37.4736 0.0174361 1.4709 0
M  V30 419 H 39.4316 -2.43475 3.38786 0
M  V30 420 H 38.0616 -2.31145 2.25326 0
M  V30 421 H 37.1136 -0.433271 3.77924 0
M  V30 422 H 38.4256 -0.785551 4.92575 0
M  V30 423 H 37.5796 -3.12523 5.20014 0
M  V30 424 H 36.3186 -2.83429 3.96887 0
M  V30 425 H 35.3236 -1.02834 5.40097 0
M  V30 426 H 36.5486 -1.34348 6.65678 0
M  V30 427 H 34.4946 -3.34538 5.64287 0
M  V30 428 H 34.4116 -2.4794 7.14186 0
M  V30 429 H 35.6796 -3.642 6.89187 0
M  V30 430 N 39.9087 -1.5758 0.0250728 0
M  V30 431 C 41.1547 -1.91917 -0.655413 0
M  V30 432 C 41.4877 -0.901433 -1.72011 0
M  V30 433 O 40.7627 0.0764069 -1.9435 0
M  V30 434 C 41.0457 -3.36751 -1.27558 0
M  V30 435 C 40.8987 -4.49258 -0.220719 0
M  V30 436 C 42.2177 -3.81469 -2.19475 0
M  V30 437 H 39.3367 -0.697925 -0.23679 0
M  V30 438 H 41.9787 -1.89825 0.0815036 0
M  V30 439 H 40.1287 -3.38664 -1.90365 0
M  V30 440 H 41.8007 -4.59478 0.409601 0
M  V30 441 H 40.0437 -4.31415 0.454264 0
M  V30 442 H 40.7147 -5.47618 -0.694175 0
M  V30 443 H 43.1907 -3.81266 -1.66659 0
M  V30 444 H 42.0667 -4.83512 -2.59822 0
M  V30 445 H 42.3277 -3.16744 -3.08424 0
M  V30 446 N 41.3868 0.248026 -1.55636 0
M  V30 447 C 42.6348 0.974295 -1.77065 0
M  V30 448 C 42.9558 1.85897 -0.588849 0
M  V30 449 O 42.2258 1.91868 0.395407 0
M  V30 450 H 40.8058 0.362733 -0.653019 0
M  V30 451 H 43.4678 0.266244 -1.93073 0
M  V30 452 H 42.5638 1.59667 -2.68166 0
M  V30 453 N 42.8649 1.48995 0.513639 0
M  V30 454 C 43.7949 1.67636 1.62544 0
M  V30 455 C 44.7759 0.525087 1.61793 0
M  V30 456 O 45.9609 0.759502 1.78732 0
M  V30 457 C 43.0909 1.73114 3.01079 0
M  V30 458 C 42.0449 2.87905 3.16693 0
M  V30 459 C 41.3709 2.78486 4.56453 0
M  V30 460 C 42.6709 4.29005 2.97913 0
M  V30 461 H 44.3649 2.60716 1.47198 0
M  V30 462 H 41.9109 1.25465 0.706714 0
M  V30 463 H 43.8639 1.84742 3.78746 0
M  V30 464 H 42.5879 0.766241 3.17484 0
M  V30 465 H 41.2469 2.75859 2.41448 0
M  V30 466 H 40.8949 1.7993 4.69717 0
M  V30 467 H 40.5949 3.55523 4.67843 0
M  V30 468 H 42.1189 2.92104 5.36197 0
M  V30 469 H 43.5329 4.41798 3.65359 0
M  V30 470 H 41.9299 5.07166 3.20785 0
M  V30 471 H 42.9999 4.44329 1.94165 0
M  V30 472 N 44.343 -0.763751 1.37857 0
M  V30 473 C 45.276 -1.88486 1.28639 0
M  V30 474 C 46.254 -1.61757 0.165363 0
M  V30 475 O 47.438 -1.85391 0.340948 0
M  V30 476 C 44.565 -3.23884 0.990811 0
M  V30 477 C 43.611 -3.69514 2.12983 0
M  V30 478 S 44.444 -3.82244 3.75033 0
M  V30 479 C 45.6 -5.20477 3.47641 0
M  V30 480 H 45.833 -1.96017 2.23527 0
M  V30 481 H 43.366 -0.925684 1.23574 0
M  V30 482 H 45.324 -4.02081 0.827101 0
M  V30 483 H 43.985 -3.14044 0.0592832 0
M  V30 484 H 43.178 -4.67696 1.87821 0
M  V30 485 H 42.78 -2.98441 2.25408 0
M  V30 486 H 45.072 -6.05905 3.03125 0
M  V30 487 H 46.015 -5.50655 4.4518 0
M  V30 488 H 46.423 -4.88793 2.82385 0
M  V30 489 N 45.8211 -1.22559 -0.990812 0
M  V30 490 C 46.7691 -0.994798 -2.10253 0
M  V30 491 C 47.7631 0.0627798 -1.69284 0
M  V30 492 O 48.9691 -0.0898392 -1.79776 0
M  V30 493 H 45.3441 -0.304527 -0.687581 0
M  V30 494 H 47.3151 -1.93812 -2.26891 0
M  V30 495 C 46.0641 -0.591439 -3.42633 0
M  V30 496 H 45.3871 -1.3969 -3.74602 0
M  V30 497 H 46.8271 -0.469385 -4.21394 0
M  V30 498 C 45.2861 0.699232 -3.29564 0
M  V30 499 O 45.8161 1.75112 -3.61523 0
M  V30 500 N 44.0221 0.671182 -2.82743 0
M  V30 501 H 43.5691 -0.185136 -2.56934 0
M  V30 502 H 43.5271 1.53502 -2.7438 0
M  V30 503 N 47.2992 1.18797 -1.03562 0
M  V30 504 C 48.7152 1.40671 -0.753917 0
M  V30 505 C 48.9152 1.9043 0.658686 0
M  V30 506 O 47.9712 2.08538 1.42366 0
M  V30 507 C 49.2842 2.41192 -1.79574 0
M  V30 508 C 50.8322 2.54928 -1.81606 0
M  V30 509 C 51.3072 3.58709 -2.84766 0
M  V30 510 N 52.7982 3.66212 -2.83625 0
M  V30 511 C 53.5332 4.46225 -3.60098 0
M  V30 512 N 53.0292 5.29888 -4.46308 0
M  V30 513 N 54.8222 4.40939 -3.4861 0
M  V30 514 H 46.9732 0.848221 -1.94728 0
M  V30 515 H 49.2362 0.435081 -0.842264 0
M  V30 516 H 48.9422 2.11669 -2.80872 0
M  V30 517 H 48.8162 3.40467 -1.62365 0
M  V30 518 H 51.2032 2.83771 -0.809817 0
M  V30 519 H 51.2842 1.55784 -2.02891 0
M  V30 520 H 50.9282 3.30607 -3.85566 0
M  V30 521 H 50.8582 4.57519 -2.60737 0
M  V30 522 H 53.3492 3.06466 -2.21105 0
M  V30 523 H 53.6622 5.88078 -5.01382 0
M  V30 524 H 52.0072 5.29326 -4.50377 0
M  V30 525 H 55.1982 3.74624 -2.80668 0
M  V30 526 H 55.3712 5.03056 -4.08459 0
M  V30 527 N 48.7773 0.814389 1.34928 0
M  V30 528 C 49.7403 0.235759 2.27984 0
M  V30 529 C 50.7403 -0.581412 1.49921 0
M  V30 530 O 51.9303 -0.398758 1.69575 0
M  V30 531 C 49.0623 -0.670433 3.34242 0
M  V30 532 H 50.2553 1.05659 2.80671 0
M  V30 533 H 47.8083 0.585614 1.44915 0
M  V30 534 H 48.5433 -1.51466 2.86755 0
M  V30 535 H 48.3283 -0.0860822 3.92005 0
M  V30 536 H 49.8183 -1.06935 4.03676 0
M  V30 537 N 50.2554 -1.46986 0.568584 0
M  V30 538 C 51.5014 -2.02741 0.0488709 0
M  V30 539 C 51.8344 -1.44077 -1.30214 0
M  V30 540 O 51.1094 -0.600552 -1.84996 0
M  V30 541 C 51.3924 -3.60086 -0.032047 0
M  V30 542 C 51.2454 -4.29162 1.34686 0
M  V30 543 C 52.5644 -4.33838 -0.739798 0
M  V30 544 H 49.6834 -0.736749 0.0192338 0
M  V30 545 H 52.3254 -1.75289 0.733065 0
M  V30 546 H 50.4754 -3.83606 -0.61473 0
M  V30 547 H 52.1474 -4.16948 1.97362 0
M  V30 548 H 50.3904 -3.89073 1.91846 0
M  V30 549 H 51.0614 -5.37826 1.24285 0
M  V30 550 H 53.5374 -4.15378 -0.244939 0
M  V30 551 H 52.4134 -5.43537 -0.765406 0
M  V30 552 H 52.6744 -4.03875 -1.79827 0
M  V30 553 N 51.7335 -0.305618 -1.54608 0
M  V30 554 C 52.6655 0.602161 -2.21149 0
M  V30 555 C 53.6785 1.09394 -1.20569 0
M  V30 556 O 54.8675 1.0106 -1.47136 0
M  V30 557 C 51.9675 1.83692 -2.84799 0
M  V30 558 C 51.1405 1.48686 -4.11353 0
M  V30 559 C 50.1995 2.57725 -4.58764 0
M  V30 560 O 49.2255 2.22623 -5.23858 0
M  V30 561 N 50.4275 3.88346 -4.31471 0
M  V30 562 H 53.1925 0.0324966 -2.99682 0
M  V30 563 H 50.7535 -0.128021 -1.61393 0
M  V30 564 H 52.7455 2.55994 -3.13448 0
M  V30 565 H 51.3155 2.31486 -2.10078 0
M  V30 566 H 50.5355 0.596269 -3.89664 0
M  V30 567 H 51.8235 1.22842 -4.93748 0
M  V30 568 H 51.2215 4.19671 -3.79331 0
M  V30 569 H 49.7785 4.56932 -4.64818 0
M  V30 570 N 53.2116 1.57565 -0.0334293 0
M  V30 571 C 54.1416 2.13511 0.945265 0
M  V30 572 C 55.1226 1.05231 1.33643 0
M  V30 573 O 56.3076 1.33084 1.41429 0
M  V30 574 C 53.4376 2.6657 2.22616 0
M  V30 575 C 52.3916 3.79676 1.97561 0
M  V30 576 C 51.7176 4.1918 3.31952 0
M  V30 577 C 53.0176 5.0557 1.31135 0
M  V30 578 H 54.7116 2.95538 0.479325 0
M  V30 579 H 52.2576 1.42166 0.229115 0
M  V30 580 H 54.2106 3.04344 2.91466 0
M  V30 581 H 52.9346 1.8171 2.71384 0
M  V30 582 H 51.5936 3.42347 1.31127 0
M  V30 583 H 51.2416 3.31296 3.78487 0
M  V30 584 H 50.9416 4.95402 3.15992 0
M  V30 585 H 52.4656 4.59541 4.02063 0
M  V30 586 H 53.8796 5.40903 1.89992 0
M  V30 587 H 52.2766 5.86818 1.25559 0
M  V30 588 H 53.3466 4.84062 0.284894 0
M  V30 589 N 54.6897 -0.239769 1.55765 0
M  V30 590 C 55.6197 -1.30052 1.9393 0
M  V30 591 C 56.6007 -1.49839 0.805132 0
M  V30 592 O 57.7857 -1.62328 1.06599 0
M  V30 593 C 54.9157 -2.65391 2.2402 0
M  V30 594 C 53.8697 -2.60289 3.39755 0
M  V30 595 C 53.1957 -3.99489 3.55405 0
M  V30 596 C 54.4957 -2.16654 4.75246 0
M  V30 597 H 56.1897 -0.983573 2.82783 0
M  V30 598 H 53.7357 -0.471701 1.36055 0
M  V30 599 H 55.6887 -3.3974 2.49308 0
M  V30 600 H 54.4127 -2.98736 1.32 0
M  V30 601 H 53.0717 -1.88398 3.14487 0
M  V30 602 H 52.7197 -4.30112 2.60793 0
M  V30 603 H 52.4197 -3.96962 4.33238 0
M  V30 604 H 53.9437 -4.75528 3.83022 0
M  V30 605 H 55.3577 -2.80737 4.99859 0
M  V30 606 H 53.7547 -2.25223 5.56232 0
M  V30 607 H 54.8247 -1.11835 4.71827 0
M  V30 608 N 56.1678 -1.49265 -0.50573 0
M  V30 609 C 57.4168 -1.57761 -1.25675 0
M  V30 610 C 57.7298 -0.267371 -1.93764 0
M  V30 611 O 58.9358 -0.230827 -2.70517 0
M  V30 612 C 57.3918 -2.78332 -2.28165 0
M  V30 613 C 56.9998 -4.16096 -1.66037 0
M  V30 614 C 58.7438 -2.96155 -3.04125 0
M  V30 615 C 56.6508 -5.27895 -2.6661 0
M  V30 616 H 55.5808 -0.587391 -0.472745 0
M  V30 617 H 58.2318 -1.75644 -0.53118 0
M  V30 618 H 56.6138 -2.53934 -3.03865 0
M  V30 619 H 57.7878 -4.50612 -0.963622 0
M  V30 620 H 56.1028 -4.03591 -1.02484 0
M  V30 621 H 58.6998 -3.76849 -3.79327 0
M  V30 622 H 59.0428 -2.06534 -3.61455 0
M  V30 623 H 59.5758 -3.2057 -2.35541 0
M  V30 624 H 56.3148 -6.1956 -2.14068 0
M  V30 625 H 55.8348 -4.97839 -3.34539 0
M  V30 626 H 57.5138 -5.57031 -3.29129 0
M  V30 627 N 57.6459 0.756429 -1.3826 0
M  V30 628 C 58.5759 1.88374 -1.37976 0
M  V30 629 C 59.5569 1.68311 -0.246082 0
M  V30 630 O 60.7419 1.88944 -0.44874 0
M  V30 631 C 57.8719 3.25864 -1.20125 0
M  V30 632 C 56.8259 3.60523 -2.30666 0
M  V30 633 C 56.1519 4.9672 -1.97923 0
M  V30 634 C 57.4519 3.65692 -3.72916 0
M  V30 635 H 59.1459 1.88869 -2.32312 0
M  V30 636 H 56.6919 0.907272 -1.11824 0
M  V30 637 H 58.6449 4.0438 -1.18552 0
M  V30 638 H 57.3689 3.25841 -0.222498 0
M  V30 639 H 56.0279 2.84324 -2.3142 0
M  V30 640 H 55.6759 4.93253 -0.985393 0
M  V30 641 H 55.3759 5.20878 -2.71955 0
M  V30 642 H 56.8999 5.77618 -1.97964 0
M  V30 643 H 58.3139 4.34328 -3.74208 0
M  V30 644 H 56.7109 4.01358 -4.4613 0
M  V30 645 H 57.7809 2.65987 -4.05436 0
M  V30 646 N 59.124 1.23083 0.984299 0
M  V30 647 C 60.087 1.00979 2.05757 0
M  V30 648 C 61.087 -0.0269573 1.60777 0
M  V30 649 O 62.277 0.212403 1.729 0
M  V30 650 C 59.409 0.527072 3.36801 0
M  V30 651 H 60.602 1.9622 2.26799 0
M  V30 652 H 58.155 1.05072 1.15714 0
M  V30 653 H 58.89 -0.429294 3.21446 0
M  V30 654 H 58.675 1.27515 3.70786 0
M  V30 655 H 60.165 0.392942 4.15747 0
M  V30 656 N 60.6021 -1.18246 1.0419 0
M  V30 657 C 61.8321 -1.91916 0.764961 0
M  V30 658 C 62.2401 -1.76485 -0.681898 0
M  V30 659 O 61.5831 -1.09275 -1.47664 0
M  V30 660 C 61.6451 -3.4373 1.05309 0
M  V30 661 C 61.3091 -3.8294 2.4941 0
M  V30 662 C 62.3061 -3.86621 3.47592 0
M  V30 663 C 59.9911 -4.142 2.84155 0
M  V30 664 C 61.9851 -4.21013 4.78568 0
M  V30 665 C 59.6721 -4.48262 4.15337 0
M  V30 666 C 60.6701 -4.51645 5.12353 0
M  V30 667 O 60.3581 -4.84911 6.41183 0
M  V30 668 H 60.0901 -0.61606 0.278292 0
M  V30 669 H 62.6441 -1.50947 1.39299 0
M  V30 670 H 60.8741 -3.84946 0.367933 0
M  V30 671 H 62.5631 -3.9865 0.763752 0
M  V30 672 H 63.3291 -3.62607 3.22089 0
M  V30 673 H 59.2081 -4.10743 2.09311 0
M  V30 674 H 62.7521 -4.23568 5.54289 0
M  V30 675 H 58.6491 -4.71737 4.40607 0
M  V30 676 H 59.4171 -5.02809 6.45852 0
M  V30 677 N 62.0802 -0.821533 -1.34494 0
M  V30 678 C 63.3262 -0.409552 -1.98622 0
M  V30 679 C 63.6592 1.0244 -1.64984 0
M  V30 680 O 62.9342 1.71325 -0.920758 0
M  V30 681 C 63.2172 -0.610458 -3.54888 0
M  V30 682 C 63.0702 -2.09043 -3.98273 0
M  V30 683 C 64.3892 -0.0455379 -4.40076 0
M  V30 684 H 61.5082 -0.15028 -0.721516 0
M  V30 685 H 64.1502 -1.03384 -1.59411 0
M  V30 686 H 62.3002 -0.079044 -3.8842 0
M  V30 687 H 63.9722 -2.68537 -3.75081 0
M  V30 688 H 62.2152 -2.58139 -3.48635 0
M  V30 689 H 62.8862 -2.18182 -5.07051 0
M  V30 690 H 65.3622 -0.499557 -4.1309 0
M  V30 691 H 64.2382 -0.215922 -5.48475 0
M  V30 692 H 64.4992 1.04939 -4.29465 0
M  V30 693 N 63.5583 1.46682 -0.576371 0
M  V30 694 C 64.8073 2.01619 -0.0572825 0
M  V30 695 C 65.1203 1.45417 1.30818 0
M  V30 696 O 66.3263 1.92133 1.91825 0
M  V30 697 C 64.7823 3.59863 -0.0518371 0
M  V30 698 C 64.3903 4.25059 -1.41523 0
M  V30 699 C 66.1343 4.2248 0.413639 0
M  V30 700 C 64.0413 5.75364 -1.36785 0
M  V30 701 H 62.9713 0.753794 -0.0176448 0
M  V30 702 H 65.6223 1.68481 -0.727076 0
M  V30 703 H 64.0043 3.90048 0.683994 0
M  V30 704 H 65.1783 4.06491 -2.17029 0
M  V30 705 H 63.4933 3.7451 -1.8202 0
M  V30 706 H 66.0903 5.3265 0.467779 0
M  V30 707 H 66.4333 3.90976 1.42982 0
M  V30 708 H 66.9663 3.96897 -0.267929 0
M  V30 709 H 63.7053 6.11518 -2.36063 0
M  V30 710 H 63.2253 5.96214 -0.654895 0
M  V30 711 H 64.9043 6.37955 -1.07805 0
M  V30 712 N 65.0364 0.313813 1.54444 0
M  V30 713 C 66.2844 -0.291099 1.99993 0
M  V30 714 C 66.6054 -1.53418 1.20366 0
M  V30 715 O 65.8754 -1.93544 0.302927 0
M  V30 716 H 64.4554 -0.110552 0.738774 0
M  V30 717 H 67.1174 0.428106 1.9014 0
M  V30 718 H 66.2134 -0.554268 3.07139 0
M  V30 719 N 66.5145 -1.57545 0.0417849 0
M  V30 720 C 67.7605 -1.93424 -0.629168 0
M  V30 721 C 68.1155 -0.919564 -1.69002 0
M  V30 722 O 67.4085 0.0626178 -1.91498 0
M  V30 723 C 67.6025 -3.33794 -1.27735 0
M  V30 724 C 67.4315 -4.48822 -0.280806 0
M  V30 725 C 66.2015 -5.05148 0.123869 0
M  V30 726 C 68.3995 -5.12148 0.470012 0
M  V30 727 N 66.3815 -6.03703 1.11426 0
M  V30 728 C 67.7525 -6.05921 1.31377 0
M  V30 729 C 69.8075 -4.95078 0.529343 0
M  V30 730 C 68.5105 -6.84459 2.21152 0
M  V30 731 C 70.5365 -5.74235 1.41448 0
M  V30 732 C 69.8985 -6.67634 2.24598 0
M  V30 733 H 65.9975 -0.755418 -0.202158 0
M  V30 734 H 68.5815 -1.94378 0.111923 0
M  V30 735 H 66.7525 -3.33635 -1.98852 0
M  V30 736 H 68.4845 -3.56988 -1.90635 0
M  V30 737 H 65.2395 -4.72923 -0.253178 0
M  V30 738 H 65.6635 -6.57674 1.60607 0
M  V30 739 H 70.3055 -4.22683 -0.0992798 0
M  V30 740 H 68.0235 -7.56151 2.85063 0
M  V30 741 H 71.6095 -5.63057 1.46484 0
M  V30 742 H 70.4895 -7.27817 2.9198 0
M  V30 743 N 67.9926 0.231505 -1.5589 0
M  V30 744 C 69.2386 0.95877 -1.78705 0
M  V30 745 C 69.5716 1.8438 -0.609725 0
M  V30 746 O 68.8466 1.90521 0.391426 0
M  V30 747 C 69.1296 1.8062 -3.11526 0
M  V30 748 C 68.9826 0.948328 -4.39689 0
M  V30 749 C 70.3016 2.78585 -3.40703 0
M  V30 750 H 67.4206 0.347129 -0.650131 0
M  V30 751 H 70.0626 0.228259 -1.88624 0
M  V30 752 H 68.2126 2.42902 -3.03201 0
M  V30 753 H 69.8846 0.343016 -4.60023 0
M  V30 754 H 68.1276 0.253314 -4.3306 0
M  V30 755 H 68.7986 1.57543 -5.29041 0
M  V30 756 H 71.2746 2.26439 -3.49091 0
M  V30 757 H 70.1506 3.34988 -4.34826 0
M  V30 758 H 70.4116 3.55825 -2.62375 0
M  V30 759 N 69.4707 1.49531 0.497807 0
M  V30 760 C 70.7177 1.59179 1.25173 0
M  V30 761 C 71.0457 0.279932 1.92475 0
M  V30 762 O 70.3007 -0.732383 1.81479 0
M  V30 763 C 70.5997 2.70252 2.33878 0
M  V30 764 C 70.2657 4.11644 1.84012 0
M  V30 765 C 68.9277 4.50121 1.70132 0
M  V30 766 C 71.2797 5.00121 1.46725 0
M  V30 767 C 68.6077 5.74845 1.17348 0
M  V30 768 C 70.9597 6.25366 0.95392 0
M  V30 769 C 69.6237 6.6267 0.801538 0
M  V30 770 H 68.8937 0.582478 0.45804 0
M  V30 771 H 71.5407 1.83373 0.551948 0
M  V30 772 H 69.8457 2.40041 3.09657 0
M  V30 773 H 71.5427 2.74925 2.9192 0
M  V30 774 H 68.1327 3.81274 1.95775 0
M  V30 775 H 72.3167 4.71048 1.56294 0
M  V30 776 H 67.5727 6.02444 1.04264 0
M  V30 777 H 71.7467 6.93301 0.656225 0
M  V30 778 H 69.3737 7.59197 0.390351 0
M  V30 779 N 70.9488 -0.749086 1.3866 0
M  V30 780 C 72.1948 -1.51056 1.35314 0
M  V30 781 C 72.5278 -1.94121 -0.0553751 0
M  V30 782 O 71.8028 -1.65763 -1.01749 0
M  V30 783 C 72.0858 -2.76003 2.31288 0
M  V30 784 C 71.9388 -2.39047 3.8102 0
M  V30 785 C 73.2578 -3.78046 2.2532 0
M  V30 786 H 70.3768 -0.547972 0.492844 0
M  V30 787 H 73.0188 -0.857628 1.69543 0
M  V30 788 H 71.1688 -3.31716 2.02229 0
M  V30 789 H 72.8408 -1.89074 4.20771 0
M  V30 790 H 71.0838 -1.71449 3.98482 0
M  V30 791 H 71.7548 -3.28462 4.4364 0
M  V30 792 H 74.2308 -3.31884 2.50983 0
M  V30 793 H 73.1068 -4.63159 2.94576 0
M  V30 794 H 73.3678 -4.23957 1.25352 0
M  V30 795 N 72.4269 -1.23603 -0.977757 0
M  V30 796 C 73.6729 -1.08136 -1.72274 0
M  V30 797 C 74.0279 0.377453 -1.88661 0
M  V30 798 O 73.3209 1.27552 -1.42972 0
M  V30 799 C 73.5149 -1.7433 -3.11999 0
M  V30 800 C 73.3439 -3.26498 -3.0924 0
M  V30 801 C 72.1139 -3.9567 -3.14282 0
M  V30 802 C 74.3119 -4.2323 -2.92201 0
M  V30 803 N 72.2939 -5.34799 -3.01436 0
M  V30 804 C 73.6649 -5.49289 -2.87544 0
M  V30 805 C 75.7199 -4.13931 -2.76705 0
M  V30 806 C 74.4229 -6.67116 -2.68978 0
M  V30 807 C 76.4489 -5.31424 -2.59504 0
M  V30 808 C 75.8109 -6.5641 -2.55548 0
M  V30 809 H 71.9099 -0.450247 -0.639376 0
M  V30 810 H 74.4939 -1.5637 -1.16002 0
M  V30 811 H 72.6649 -1.28624 -3.66484 0
M  V30 812 H 74.3969 -1.51815 -3.75146 0
M  V30 813 H 71.1519 -3.46767 -3.22567 0
M  V30 814 H 71.5759 -6.07748 -2.98281 0
M  V30 815 H 76.2179 -3.1807 -2.78552 0
M  V30 816 H 73.9359 -7.63109 -2.65876 0
M  V30 817 H 77.5219 -5.26072 -2.48474 0
M  V30 818 H 76.4019 -7.45795 -2.42405 0
M  V30 819 N 73.905 1.17692 -1.04816 0
M  V30 820 C 74.815 2.25229 -0.65643 0
M  V30 821 C 75.831 1.71018 0.320761 0
M  V30 822 O 77.007 2.00649 0.173805 0
M  V30 823 C 74.072 3.46684 -0.0332629 0
M  V30 824 C 73.133 4.15997 -1.06042 0
M  V30 825 C 72.366 5.31654 -0.466893 0
M  V30 826 O 72.589 5.65777 0.724758 0
M  V30 827 O 71.523 5.89831 -1.1993 0
M  V30 828 H 75.349 2.61016 -1.55255 0
M  V30 829 H 72.934 1.24919 -0.81949 0
M  V30 830 H 74.816 4.20234 0.313256 0
M  V30 831 H 73.491 3.12703 0.836566 0
M  V30 832 H 72.398 3.44482 -1.45886 0
M  V30 833 H 73.731 4.53996 -1.90127 0
M  V30 834 N 75.3831 0.828654 1.34056 0
M  V30 835 C 76.3301 0.252567 2.29414 0
M  V30 836 C 77.3001 -0.62588 1.53857 0
M  V30 837 O 78.4851 -0.566312 1.82202 0
M  V30 838 C 75.6251 -0.574831 3.40279 0
M  V30 839 C 74.7381 0.326499 4.30764 0
M  V30 840 C 73.8731 -0.511016 5.28736 0
M  V30 841 C 72.9121 0.389342 6.1086 0
M  V30 842 N 72.0491 -0.409439 7.00905 0
M  V30 843 H 76.8891 1.07108 2.78086 0
M  V30 844 H 74.4261 0.539677 1.36843 0
M  V30 845 H 76.3841 -1.06992 4.03248 0
M  V30 846 H 75.0141 -1.35841 2.92826 0
M  V30 847 H 74.0661 0.939837 3.68607 0
M  V30 848 H 75.3781 1.01857 4.88289 0
M  V30 849 H 74.5321 -1.07035 5.97184 0
M  V30 850 H 73.2711 -1.23657 4.71763 0
M  V30 851 H 72.2761 0.960769 5.4134 0
M  V30 852 H 73.5011 1.1131 6.69916 0
M  V30 853 H 71.4471 -1.11856 6.46393 0
M  V30 854 H 71.3641 0.224126 7.55668 0
M  V30 855 H 72.6321 -0.951336 7.73673 0
M  V30 856 N 76.8612 -1.46375 0.584142 0
M  V30 857 C 78.1092 -2.01978 0.0701287 0
M  V30 858 C 78.4302 -1.4579 -1.295 0
M  V30 859 O 77.7002 -0.64314 -1.85042 0
M  V30 860 H 76.2802 -0.746648 0.0229345 0
M  V30 861 H 78.9422 -1.79461 0.760245 0
M  V30 862 H 78.0382 -3.121 0.0022064 0
M  V30 863 N 78.3393 -0.321999 -1.54275 0
M  V30 864 C 79.5693 0.282642 -2.04658 0
M  V30 865 C 79.9773 1.46453 -1.19784 0
M  V30 866 O 79.3203 1.82367 -0.220932 0
M  V30 867 C 79.3823 0.781857 -3.50895 0
M  V30 868 C 79.0463 -0.277517 -4.56157 0
M  V30 869 C 80.0433 -1.11307 -5.07845 0
M  V30 870 C 77.7283 -0.425256 -5.00497 0
M  V30 871 C 79.7223 -2.08211 -6.02434 0
M  V30 872 C 77.4093 -1.39771 -5.94901 0
M  V30 873 C 78.4073 -2.2246 -6.45756 0
M  V30 874 O 78.0953 -3.18054 -7.38307 0
M  V30 875 H 77.8273 0.0622636 -0.673126 0
M  V30 876 H 80.3813 -0.465792 -2.00049 0
M  V30 877 H 78.6113 1.58118 -3.52896 0
M  V30 878 H 80.3003 1.30467 -3.84361 0
M  V30 879 H 81.0663 -1.00991 -4.74369 0
M  V30 880 H 76.9453 0.20847 -4.60528 0
M  V30 881 H 80.4893 -2.72791 -6.42052 0
M  V30 882 H 76.3863 -1.50152 -6.27794 0
M  V30 883 H 77.1543 -3.13275 -7.56175 0
M  V30 884 N 79.8174 1.5752 -0.0501392 0
M  V30 885 C 80.7494 2.08413 0.95376 0
M  V30 886 C 81.7624 1.01175 1.27544 0
M  V30 887 O 82.9514 1.28744 1.23641 0
M  V30 888 C 80.0514 2.51138 2.27559 0
M  V30 889 C 79.2244 3.817 2.13598 0
M  V30 890 C 78.2834 4.10749 3.28895 0
M  V30 891 O 77.3094 4.80685 3.04845 0
M  V30 892 N 78.5114 3.62579 4.5334 0
M  V30 893 H 81.2764 2.95165 0.519383 0
M  V30 894 H 78.8374 1.61327 0.136127 0
M  V30 895 H 80.8294 2.67648 3.03557 0
M  V30 896 H 79.3994 1.6964 2.62567 0
M  V30 897 H 78.6194 3.74782 1.22197 0
M  V30 898 H 79.9074 4.67201 2.01496 0
M  V30 899 H 79.3054 3.06039 4.75769 0
M  V30 900 H 77.8624 3.84329 5.26436 0
M  V30 901 N 81.2955 -0.223234 1.56011 0
M  V30 902 C 82.2055 -1.29766 1.95443 0
M  V30 903 C 83.2215 -1.51373 0.858028 0
M  V30 904 O 84.3975 -1.64536 1.16146 0
M  V30 905 C 81.4625 -2.62772 2.26167 0
M  V30 906 C 80.5235 -2.49482 3.49367 0
M  V30 907 C 79.7565 -3.76145 3.78616 0
M  V30 908 O 79.9795 -4.79087 3.09568 0
M  V30 909 O 78.9135 -3.73358 4.72109 0
M  V30 910 H 82.7395 -0.99309 2.87004 0
M  V30 911 H 80.3245 -0.425958 1.43199 0
M  V30 912 H 82.2065 -3.41327 2.47131 0
M  V30 913 H 80.8815 -2.92913 1.37781 0
M  V30 914 H 79.7885 -1.69133 3.33684 0
M  V30 915 H 81.1215 -2.2428 4.38131 0
M  V30 916 N 82.7736 -1.49793 -0.48987 0
M  V30 917 C 84.0016 -1.63568 -1.26701 0
M  V30 918 C 84.4166 -0.311465 -1.86213 0
M  V30 919 O 83.7736 0.704416 -1.68357 0
M  V30 920 C 83.8246 -2.71284 -2.38929 0
M  V30 921 O 83.5456 -3.9857 -1.81861 0
M  V30 922 C 85.0466 -2.95864 -3.3012 0
M  V30 923 H 82.2666 -0.550342 -0.383881 0
M  V30 924 H 84.8106 -1.95898 -0.586864 0
M  V30 925 H 82.9656 -2.417 -3.02753 0
M  V30 926 H 83.3796 -4.57993 -2.55622 0
M  V30 927 H 84.8536 -3.74941 -4.05121 0
M  V30 928 H 85.3306 -2.06206 -3.87783 0
M  V30 929 H 85.9366 -3.26907 -2.72051 0
M  V30 930 N 84.2517 0.741722 -1.39055 0
M  V30 931 C 85.5287 1.49252 -1.26425 0
M  V30 932 C 85.9087 2.10705 0.129144 0
M  V30 933 O 85.2567 1.98045 1.13976 0
M  V30 934 C 85.4667 2.54934 -2.38347 0
M  V30 935 C 86.8147 3.21506 -2.77343 0
M  V30 936 O 87.8387 2.65245 -2.37747 0
M  V30 937 O 86.6977 4.23294 -3.45665 0
M  V30 938 H 83.7917 0.662451 -0.495064 0
M  V30 939 H 86.3377 0.776121 -1.50912 0
M  V30 940 H 85.1097 2.07857 -3.31529 0
M  V30 941 H 84.7327 3.34141 -2.15489 0
M  V30 942 N 85.7298 1.2412 0.971189 0
M  V30 943 C 86.9548 1.10667 1.75407 0
M  V30 944 C 87.3798 -0.337048 1.85056 0
M  V30 945 O 86.7378 -1.24396 1.31892 0
M  V30 946 C 86.7858 1.74726 3.15441 0
M  V30 947 O 85.8898 1.01566 3.99697 0
M  V30 948 H 85.2308 0.387341 0.539317 0
M  V30 949 H 87.7608 1.64358 1.2185 0
M  V30 950 H 87.7708 1.80341 3.6598 0
M  V30 951 H 86.4458 2.79773 3.07734 0
M  V30 952 H 85.0228 1.03713 3.58187 0
M  V30 953 N 87.2079 -1.17134 1.05439 0
M  V30 954 C 88.4539 -1.87733 0.767077 0
M  V30 955 C 88.7869 -1.8098 -0.704253 0
M  V30 956 O 88.0619 -1.21951 -1.5152 0
M  V30 957 C 88.3449 -3.37659 1.25133 0
M  V30 958 C 88.1979 -3.53149 2.78578 0
M  V30 959 C 89.5169 -4.31768 0.852324 0
M  V30 960 H 86.6359 -0.681687 0.280129 0
M  V30 961 H 89.2779 -1.37732 1.30881 0
M  V30 962 H 87.4279 -3.80373 0.790469 0
M  V30 963 H 89.0999 -3.19434 3.32806 0
M  V30 964 H 87.3429 -2.95345 3.17732 0
M  V30 965 H 88.0139 -4.58403 3.07523 0
M  V30 966 H 90.4899 -3.96909 1.24911 0
M  V30 967 H 89.3659 -5.35199 1.21873 0
M  V30 968 H 89.6269 -4.41429 -0.243485 0
M  V30 969 N 88.686 -0.835752 -1.33615 0
M  V30 970 C 89.932 -0.430596 -1.98176 0
M  V30 971 C 90.265 1.00684 -1.66061 0
M  V30 972 O 89.54 1.70339 -0.938877 0
M  V30 973 C 89.823 -0.648065 -3.5422 0
M  V30 974 C 89.676 -2.13255 -3.96033 0
M  V30 975 C 90.995 -0.0922113 -4.40003 0
M  V30 976 H 88.114 -0.157924 -0.719881 0
M  V30 977 H 90.756 -1.05069 -1.58305 0
M  V30 978 H 88.906 -0.120237 -3.88314 0
M  V30 979 H 90.578 -2.725 -3.72211 0
M  V30 980 H 88.821 -2.61823 -3.45878 0
M  V30 981 H 89.492 -2.23547 -5.04708 0
M  V30 982 H 91.968 -0.543343 -4.12537 0
M  V30 983 H 90.844 -0.274083 -5.48215 0
M  V30 984 H 91.105 1.00378 -4.30554 0
M  V30 985 N 90.1641 1.46063 -0.591896 0
M  V30 986 C 91.3891 2.07226 -0.0850314 0
M  V30 987 C 91.8141 1.43625 1.21463 0
M  V30 988 O 91.1721 0.523305 1.73583 0
M  V30 989 C 91.2201 3.60554 0.0576567 0
M  V30 990 O 90.3241 3.97128 1.11188 0
M  V30 991 H 89.6651 0.660615 -0.0669568 0
M  V30 992 H 92.1951 1.8756 -0.81745 0
M  V30 993 H 92.2051 4.07165 0.2609 0
M  V30 994 H 90.8801 4.06235 -0.891416 0
M  V30 995 H 89.4571 3.62213 0.886356 0
M  V30 996 N 91.6422 0.330177 1.54103 0
M  V30 997 C 92.8672 -0.274893 2.0557 0
M  V30 998 C 93.2922 -1.44487 1.20437 0
M  V30 999 O 92.6502 -1.80021 0.214991 0
M  V30 1000 C 92.6982 -0.68079 3.54115 0
M  V30 1001 O 91.8022 -1.7824 3.71893 0
M  V30 1002 H 91.1432 -0.0483849 0.662235 0
M  V30 1003 H 93.6732 0.480508 1.98878 0
M  V30 1004 H 93.6832 -0.961635 3.96505 0
M  V30 1005 H 92.3582 0.174903 4.15532 0
M  V30 1006 H 90.9352 -1.49985 3.41407 0
M  V30 1007 N 93.1203 -1.57491 0.0584922 0
M  V30 1008 C 94.3663 -1.93264 -0.614558 0
M  V30 1009 C 94.6993 -0.937717 -1.7006 0
M  V30 1010 O 93.9743 0.0351652 -1.94468 0
M  V30 1011 C 94.2573 -3.3938 -1.20386 0
M  V30 1012 C 94.1103 -4.49625 -0.125375 0
M  V30 1013 C 95.4293 -3.86039 -2.11334 0
M  V30 1014 H 92.5483 -0.702791 -0.221933 0
M  V30 1015 H 95.1903 -1.8961 0.12175 0
M  V30 1016 H 93.3403 -3.42626 -1.83139 0
M  V30 1017 H 95.0123 -4.58506 0.506971 0
M  V30 1018 H 93.2553 -4.30354 0.545672 0
M  V30 1019 H 93.9263 -5.48967 -0.577861 0
M  V30 1020 H 96.4023 -3.84716 -1.58534 0
M  V30 1021 H 95.2783 -4.88914 -2.49507 0
M  V30 1022 H 95.5393 -3.23215 -3.01636 0
M  V30 1023 N 94.5984 0.214957 -1.56127 0
M  V30 1024 C 95.8264 0.955092 -1.83536 0
M  V30 1025 C 96.2414 1.77677 -0.638472 0
M  V30 1026 O 95.5984 1.78219 0.392968 0
M  V30 1027 C 95.6494 1.86734 -3.09536 0
M  V30 1028 O 95.3704 1.07887 -4.24608 0
M  V30 1029 C 96.8714 2.72082 -3.4998 0
M  V30 1030 H 94.0914 0.279611 -0.609966 0
M  V30 1031 H 96.6354 0.228197 -2.03223 0
M  V30 1032 H 94.7904 2.5481 -2.91806 0
M  V30 1033 H 95.2044 1.69872 -4.9623 0
M  V30 1034 H 96.6784 3.31782 -4.41163 0
M  V30 1035 H 97.1554 3.44806 -2.7204 0
M  V30 1036 H 97.7614 2.09409 -3.70173 0
M  V30 1037 N 96.0765 1.50051 0.48192 0
M  V30 1038 C 97.3045 1.64237 1.25832 0
M  V30 1039 C 97.7195 0.321336 1.86045 0
M  V30 1040 O 97.0765 -0.695478 1.68729 0
M  V30 1041 C 97.1275 2.72548 2.37487 0
M  V30 1042 O 96.8485 3.99529 1.79745 0
M  V30 1043 C 98.3495 2.9761 3.28547 0
M  V30 1044 H 95.5695 0.55237 0.380957 0
M  V30 1045 H 98.1135 1.96207 0.576467 0
M  V30 1046 H 96.2685 2.43303 3.01467 0
M  V30 1047 H 96.6825 4.59342 2.5319 0
M  V30 1048 H 98.1565 3.77084 4.03127 0
M  V30 1049 H 98.6335 2.0826 3.86684 0
M  V30 1050 H 99.2395 3.28345 2.70314 0
M  V30 1051 N 97.5546 -0.734337 1.39446 0
M  V30 1052 C 98.5016 -1.84835 1.38219 0
M  V30 1053 C 99.4716 -1.64331 0.24179 0
M  V30 1054 O 100.657 -1.85728 0.437002 0
M  V30 1055 C 97.7966 -3.22355 1.23212 0
M  V30 1056 C 96.9096 -3.5456 2.46801 0
M  V30 1057 C 96.0446 -4.81485 2.24377 0
M  V30 1058 C 95.0836 -5.06536 3.43639 0
M  V30 1059 N 94.2206 -6.24665 3.20528 0
M  V30 1060 H 99.0606 -1.85219 2.33448 0
M  V30 1061 H 96.5976 -0.905039 1.15963 0
M  V30 1062 H 98.5556 -4.0174 1.12522 0
M  V30 1063 H 97.1856 -3.21248 0.316121 0
M  V30 1064 H 96.2376 -2.69872 2.68092 0
M  V30 1065 H 97.5496 -3.6899 3.3563 0
M  V30 1066 H 96.7036 -5.68852 2.10933 0
M  V30 1067 H 95.4426 -4.6923 1.32944 0
M  V30 1068 H 94.4476 -4.17632 3.5758 0
M  V30 1069 H 95.6726 -5.20676 4.35974 0
M  V30 1070 H 93.6186 -6.13696 2.3176 0
M  V30 1071 H 93.5356 -6.39685 4.02913 0
M  V30 1072 H 94.8036 -7.14868 3.10779 0
M  V30 1073 N 99.0327 -1.24633 -0.964593 0
M  V30 1074 C 100.279 -1.08949 -1.71049 0
M  V30 1075 C 100.612 0.370302 -1.90637 0
M  V30 1076 O 99.8867 1.27349 -1.47011 0
M  V30 1077 C 100.17 -1.83329 -3.0994 0
M  V30 1078 C 100.023 -3.37077 -2.97824 0
M  V30 1079 C 101.342 -1.60846 -4.09654 0
M  V30 1080 H 98.4607 -0.397178 -0.620821 0
M  V30 1081 H 101.103 -1.5334 -1.12191 0
M  V30 1082 H 99.2527 -1.45597 -3.60186 0
M  V30 1083 H 100.925 -3.84425 -2.5498 0
M  V30 1084 H 99.1677 -3.65298 -2.33965 0
M  V30 1085 H 99.8387 -3.84324 -3.96231 0
M  V30 1086 H 102.315 -1.93674 -3.68279 0
M  V30 1087 H 101.191 -2.1534 -5.04896 0
M  V30 1088 H 101.452 -0.547434 -4.38698 0
M  V30 1089 N 100.511 1.16574 -1.06058 0
M  V30 1090 C 101.458 2.20883 -0.669263 0
M  V30 1091 C 102.428 1.62729 0.332918 0
M  V30 1092 O 103.613 1.895 0.222346 0
M  V30 1093 C 100.753 3.45049 -0.0593572 0
M  V30 1094 C 99.8658 4.17458 -1.11143 0
M  V30 1095 C 99.0008 5.29135 -0.467916 0
M  V30 1096 C 98.0398 5.93343 -1.50369 0
M  V30 1097 N 97.1768 6.96516 -0.883706 0
M  V30 1098 H 102.017 2.53709 -1.5632 0
M  V30 1099 H 99.5538 1.24616 -0.781625 0
M  V30 1100 H 101.512 4.16033 0.311771 0
M  V30 1101 H 100.142 3.12781 0.797992 0
M  V30 1102 H 99.1938 3.45101 -1.60029 0
M  V30 1103 H 100.506 4.61307 -1.89731 0
M  V30 1104 H 99.6598 6.06684 -0.0436871 0
M  V30 1105 H 98.3988 4.86443 0.349864 0
M  V30 1106 H 97.4038 5.14517 -1.93784 0
M  V30 1107 H 98.6288 6.38114 -2.32352 0
M  V30 1108 H 96.5748 6.55943 -0.086595 0
M  V30 1109 H 96.4918 7.38723 -1.607 0
M  V30 1110 H 97.7598 7.77993 -0.484543 0
M  V30 1111 N 101.989 0.842826 1.3317 0
M  V30 1112 C 103.237 0.439577 1.97262 0
M  V30 1113 C 103.558 -1.00548 1.67078 0
M  V30 1114 O 102.828 -1.70098 0.971779 0
M  V30 1115 H 101.408 0.159558 0.72976 0
M  V30 1116 H 104.07 1.07665 1.62463 0
M  V30 1117 H 103.166 0.574886 3.0676 0
M  V30 1118 N 103.467 -1.45747 0.599634 0
M  V30 1119 C 104.713 -2.02592 0.0918643 0
M  V30 1120 C 105.046 -1.46806 -1.27128 0
M  V30 1121 O 104.321 -0.639658 -1.83681 0
M  V30 1122 C 104.604 -3.60073 0.0443398 0
M  V30 1123 C 104.457 -4.26208 1.43759 0
M  V30 1124 C 105.776 -4.35309 -0.647608 0
M  V30 1125 H 102.895 -0.736175 0.034857 0
M  V30 1126 H 105.537 -1.73694 0.770081 0
M  V30 1127 H 103.687 -3.84823 -0.533224 0
M  V30 1128 H 105.359 -4.12668 2.06162 0
M  V30 1129 H 103.602 -3.84916 2.00056 0
M  V30 1130 H 104.273 -5.35069 1.35665 0
M  V30 1131 H 106.749 -4.15805 -0.156776 0
M  V30 1132 H 105.625 -5.45038 -0.649942 0
M  V30 1133 H 105.886 -4.07598 -1.71219 0
M  V30 1134 N 104.945 -0.338344 -1.53925 0
M  V30 1135 C 105.908 0.508299 -2.23493 0
M  V30 1136 C 106.908 1.03175 -1.23335 0
M  V30 1137 O 108.098 0.921826 -1.47811 0
M  V30 1138 C 105.23 1.70754 -2.95052 0
M  V30 1139 H 106.423 -0.100058 -2.99733 0
M  V30 1140 H 103.976 -0.0896198 -1.56043 0
M  V30 1141 H 104.711 2.35474 -2.22986 0
M  V30 1142 H 104.496 1.33946 -3.68512 0
M  V30 1143 H 105.986 2.30818 -3.48013 0
M  V30 1144 N 106.423 1.57458 -0.0668435 0
M  V30 1145 C 107.669 1.93587 0.6043 0
M  V30 1146 C 108.002 0.946722 1.69561 0
M  V30 1147 O 107.277 -0.0248516 1.94484 0
M  V30 1148 C 107.56 3.40014 1.18585 0
M  V30 1149 C 107.413 4.49685 0.101529 0
M  V30 1150 C 108.732 3.87154 2.09284 0
M  V30 1151 H 105.851 0.703958 0.218202 0
M  V30 1152 H 108.493 1.89542 -0.131804 0
M  V30 1153 H 106.643 3.43592 1.81319 0
M  V30 1154 H 108.315 4.5823 -0.531279 0
M  V30 1155 H 106.558 4.30059 -0.568487 0
M  V30 1156 H 107.229 5.49266 0.54874 0
M  V30 1157 H 109.705 3.85551 1.56491 0
M  V30 1158 H 108.581 4.90231 2.46911 0
M  V30 1159 H 108.842 3.2481 2.99918 0
M  V30 1160 N 107.901 -0.206675 1.56239 0
M  V30 1161 C 109.129 -0.945345 1.8404 0
M  V30 1162 C 109.544 -1.77336 0.647885 0
M  V30 1163 O 108.901 -1.78425 -0.383511 0
M  V30 1164 C 108.952 -1.8509 3.10522 0
M  V30 1165 O 108.673 -1.05634 4.25174 0
M  V30 1166 C 110.174 -2.70222 3.51418 0
M  V30 1167 H 107.394 -0.276372 0.61144 0
M  V30 1168 H 109.938 -0.217417 2.03341 0
M  V30 1169 H 108.093 -2.53259 2.93153 0
M  V30 1170 H 108.507 -1.67238 4.97124 0
M  V30 1171 H 109.981 -3.29438 4.42916 0
M  V30 1172 H 110.458 -3.43358 2.73864 0
M  V30 1173 H 111.064 -2.07443 3.71278 0
M  V30 1174 N 109.379 -1.50304 -0.473955 0
M  V30 1175 C 110.327 -1.69482 -1.59307 0
M  V30 1176 C 111.321 -0.560669 -1.59853 0
M  V30 1177 O 112.527 -0.741087 -1.64036 0
M  V30 1178 H 108.902 -0.534892 -0.528578 0
M  V30 1179 H 110.873 -2.63364 -1.40293 0
M  V30 1180 C 109.622 -1.80354 -2.97267 0
M  V30 1181 H 108.945 -2.67012 -2.97564 0
M  V30 1182 H 110.385 -1.97798 -3.75036 0
M  V30 1183 C 108.844 -0.55448 -3.32306 0
M  V30 1184 O 109.374 0.307661 -4.0052 0
M  V30 1185 N 107.58 -0.409354 -2.87702 0
M  V30 1186 H 107.127 -1.11196 -2.32364 0
M  V30 1187 H 107.085 0.425223 -3.11511 0
M  V30 1188 N 110.857 0.726932 -1.39834 0
M  V30 1189 C 112.085 1.51613 -1.40787 0
M  V30 1190 C 112.5 1.88799 -0.00451505 0
M  V30 1191 O 111.857 1.54662 0.968809 0
M  V30 1192 C 111.908 2.79863 -2.28821 0
M  V30 1193 O 111.629 2.44253 -3.63692 0
M  V30 1194 C 113.13 3.73837 -2.38245 0
M  V30 1195 H 110.35 0.468264 -0.480593 0
M  V30 1196 H 112.894 0.897607 -1.83748 0
M  V30 1197 H 111.049 3.38027 -1.89252 0
M  V30 1198 H 111.463 3.26695 -4.1033 0
M  V30 1199 H 112.937 4.60699 -3.04073 0
M  V30 1200 H 113.414 4.16153 -1.40403 0
M  V30 1201 H 114.02 3.21589 -2.78317 0
M  V30 1202 N 112.336 1.25143 0.95797 0
M  V30 1203 C 113.561 1.12521 1.74223 0
M  V30 1204 C 113.986 -0.317402 1.85403 0
M  V30 1205 O 113.344 -1.2299 1.33204 0
M  V30 1206 C 113.392 1.78062 3.1357 0
M  V30 1207 O 112.496 1.058 3.98598 0
M  V30 1208 H 111.837 0.39304 0.535178 0
M  V30 1209 H 114.367 1.65641 1.201 0
M  V30 1210 H 114.377 1.84213 3.64046 0
M  V30 1211 H 113.052 2.83021 3.04749 0
M  V30 1212 H 111.629 1.07506 3.57067 0
M  V30 1213 N 113.814 -1.1601 1.06675 0
M  V30 1214 C 114.761 -2.20525 0.680967 0
M  V30 1215 C 115.731 -1.62904 -0.324283 0
M  V30 1216 O 116.916 -1.89615 -0.212294 0
M  V30 1217 C 114.056 -3.45013 0.0776551 0
M  V30 1218 C 113.169 -4.16863 1.13355 0
M  V30 1219 C 112.304 -5.2888 0.49597 0
M  V30 1220 C 111.343 -5.92537 1.53513 0
M  V30 1221 N 110.48 -6.96038 0.920631 0
M  V30 1222 H 115.32 -2.52876 1.57663 0
M  V30 1223 H 112.857 -1.24199 0.788223 0
M  V30 1224 H 114.815 -4.16193 -0.289704 0
M  V30 1225 H 113.445 -3.132 -0.781393 0
M  V30 1226 H 112.497 -3.44248 1.61857 0
M  V30 1227 H 113.809 -4.60294 1.92174 0
M  V30 1228 H 112.963 -6.06653 0.0758604 0
M  V30 1229 H 111.702 -4.86622 -0.324062 0
M  V30 1230 H 110.707 -5.13482 1.9651 0
M  V30 1231 H 111.932 -6.36873 2.35733 0
M  V30 1232 H 109.878 -6.55888 0.12138 0
M  V30 1233 H 109.795 -7.3786 1.64616 0
M  V30 1234 H 111.063 -7.77725 0.525795 0
M  V30 1235 N 115.292 -0.849877 -1.32721 0
M  V30 1236 C 116.222 -0.306308 -2.31482 0
M  V30 1237 C 117.203 0.591952 -1.59468 0
M  V30 1238 O 118.388 0.513199 -1.87296 0
M  V30 1239 C 115.518 0.510204 -3.43532 0
M  V30 1240 C 114.472 -0.293209 -4.26994 0
M  V30 1241 C 113.798 0.647743 -5.30762 0
M  V30 1242 C 115.098 -1.51634 -4.99804 0
M  V30 1243 H 116.792 -1.13153 -2.77195 0
M  V30 1244 H 114.338 -0.545553 -1.33266 0
M  V30 1245 H 116.291 0.900856 -4.11658 0
M  V30 1246 H 115.015 1.36874 -2.96535 0
M  V30 1247 H 113.674 -0.665555 -3.60508 0
M  V30 1248 H 113.322 1.50299 -4.8002 0
M  V30 1249 H 113.022 0.11422 -5.87489 0
M  V30 1250 H 114.546 1.03567 -6.01753 0
M  V30 1251 H 115.96 -1.19824 -5.60638 0
M  V30 1252 H 114.357 -1.98745 -5.66234 0
M  V30 1253 H 115.427 -2.28018 -4.27943 0
M  V30 1254 N 116.77 1.45427 -0.607355 0
M  V30 1255 C 118.018 2.01841 -0.102253 0
M  V30 1256 C 118.339 1.47832 1.27164 0
M  V30 1257 O 117.609 0.672497 1.83995 0
M  V30 1258 H 116.189 0.746188 -0.0348101 0
M  V30 1259 H 118.851 1.78229 -0.7887 0
M  V30 1260 H 117.947 3.12057 -0.0518585 0
M  V30 1261 N 118.248 0.346503 1.53744 0
M  V30 1262 C 119.495 -0.249104 2.00962 0
M  V30 1263 C 119.823 -1.5032 1.23426 0
M  V30 1264 O 119.078 -1.93217 0.310761 0
M  V30 1265 C 119.377 -0.605809 3.52228 0
M  V30 1266 C 119.043 0.551747 4.47512 0
M  V30 1267 C 117.705 0.86941 4.73281 0
M  V30 1268 C 120.057 1.32818 5.03993 0
M  V30 1269 C 117.385 1.96582 5.52786 0
M  V30 1270 C 119.737 2.41486 5.84694 0
M  V30 1271 C 118.401 2.73808 6.08757 0
M  V30 1272 H 117.671 -0.0911538 0.735372 0
M  V30 1273 H 120.318 0.475027 1.85515 0
M  V30 1274 H 118.623 -1.4107 3.65522 0
M  V30 1275 H 120.32 -1.07858 3.86222 0
M  V30 1276 H 116.91 0.294102 4.2759 0
M  V30 1277 H 121.094 1.09602 4.84047 0
M  V30 1278 H 116.35 2.22045 5.69654 0
M  V30 1279 H 120.524 3.02078 6.27473 0
M  V30 1280 H 118.151 3.58892 6.7015 0
M  V30 1281 N 119.726 -1.57421 0.075193 0
M  V30 1282 C 121.142 -1.57099 -0.281444 0
M  V30 1283 C 121.342 -1.08486 -1.69803 0
M  V30 1284 O 120.398 -0.752279 -2.41033 0
M  V30 1285 C 121.711 -3.00571 -0.0880041 0
M  V30 1286 C 123.259 -3.12605 -0.157281 0
M  V30 1287 C 123.734 -4.57999 0.0079207 0
M  V30 1288 N 125.225 -4.63176 -0.0475725 0
M  V30 1289 C 125.96 -5.73373 0.0557876 0
M  V30 1290 N 125.456 -6.92473 0.21286 0
M  V30 1291 N 127.249 -5.621 -0.00152098 0
M  V30 1292 H 119.4 -1.87335 1.00098 0
M  V30 1293 H 121.663 -0.86377 0.390646 0
M  V30 1294 H 121.369 -3.40262 0.889629 0
M  V30 1295 H 121.243 -3.67754 -0.838875 0
M  V30 1296 H 123.63 -2.72798 -1.1254 0
M  V30 1297 H 123.711 -2.48053 0.62475 0
M  V30 1298 H 123.355 -4.98496 0.972824 0
M  V30 1299 H 123.285 -5.20586 -0.793556 0
M  V30 1300 H 125.776 -3.7753 -0.167244 0
M  V30 1301 H 126.089 -7.72279 0.283781 0
M  V30 1302 H 124.434 -6.94556 0.248267 0
M  V30 1303 H 127.625 -4.67938 -0.122958 0
M  V30 1304 H 127.798 -6.47948 0.0824844 0
M  V30 1305 N 121.204 0.198386 -1.56346 0
M  V30 1306 C 122.453 0.917451 -1.79627 0
M  V30 1307 C 122.766 1.8456 -0.64784 0
M  V30 1308 O 123.972 2.60504 -0.764859 0
M  V30 1309 C 122.428 1.68175 -3.18191 0
M  V30 1310 C 122.036 0.798589 -4.40825 0
M  V30 1311 C 123.78 2.39065 -3.50782 0
M  V30 1312 C 121.687 1.56157 -5.70411 0
M  V30 1313 H 120.617 0.346317 -0.669762 0
M  V30 1314 H 123.268 0.170801 -1.82703 0
M  V30 1315 H 121.65 2.47216 -3.09354 0
M  V30 1316 H 122.824 0.0470665 -4.60776 0
M  V30 1317 H 121.139 0.200686 -4.15916 0
M  V30 1318 H 123.736 2.96692 -4.44835 0
M  V30 1319 H 124.079 3.13091 -2.74371 0
M  V30 1320 H 124.612 1.66993 -3.61052 0
M  V30 1321 H 121.351 0.864142 -6.49779 0
M  V30 1322 H 120.871 2.2871 -5.54483 0
M  V30 1323 H 122.55 2.11622 -6.11412 0
M  V30 1324 N 122.682 1.50554 0.465978 0
M  V30 1325 C 123.928 1.63006 1.21658 0
M  V30 1326 C 124.283 0.328613 1.89573 0
M  V30 1327 O 123.576 -0.673813 1.79361 0
M  V30 1328 C 123.77 2.75152 2.28093 0
M  V30 1329 C 123.599 4.16075 1.7062 0
M  V30 1330 C 122.369 4.82408 1.50368 0
M  V30 1331 C 124.567 5.00145 1.1983 0
M  V30 1332 N 122.549 6.07532 0.881924 0
M  V30 1333 C 123.92 6.16035 0.700083 0
M  V30 1334 C 125.975 4.85882 1.08733 0
M  V30 1335 C 124.678 7.19228 0.101835 0
M  V30 1336 C 126.704 5.89257 0.503016 0
M  V30 1337 C 126.066 7.04398 0.0152005 0
M  V30 1338 H 122.165 0.650596 0.433877 0
M  V30 1339 H 124.749 1.8769 0.517746 0
M  V30 1340 H 122.92 2.52181 2.95397 0
M  V30 1341 H 124.652 2.76935 2.95109 0
M  V30 1342 H 121.407 4.39788 1.75737 0
M  V30 1343 H 121.831 6.7443 0.589312 0
M  V30 1344 H 126.473 3.97144 1.4504 0
M  V30 1345 H 124.191 8.07637 -0.273426 0
M  V30 1346 H 127.777 5.80286 0.419451 0
M  V30 1347 H 126.657 7.83021 -0.429856 0
M  V30 1348 N 124.16 -0.719506 1.40217 0
M  V30 1349 C 125.437 -1.47221 1.28784 0
M  V30 1350 C 125.817 -2.10883 -0.0956067 0
M  V30 1351 O 125.165 -1.99833 -1.10811 0
M  V30 1352 C 125.375 -2.5111 2.42373 0
M  V30 1353 C 126.723 -3.17053 2.82423 0
M  V30 1354 O 127.747 -2.61429 2.41937 0
M  V30 1355 O 126.606 -4.17742 3.52355 0
M  V30 1356 H 123.7 -0.654491 0.50554 0
M  V30 1357 H 126.246 -0.752014 1.52128 0
M  V30 1358 H 125.018 -2.02556 3.34793 0
M  V30 1359 H 124.641 -3.3067 2.20778 0
M  V30 1360 N 125.638 -1.25649 -0.95132 0
M  V30 1361 C 126.884 -1.10757 -1.69884 0
M  V30 1362 C 127.217 0.350061 -1.91019 0
M  V30 1363 O 126.492 1.25783 -1.48354 0
M  V30 1364 C 126.775 -1.86606 -3.07978 0
M  V30 1365 C 126.628 -3.40217 -2.94232 0
M  V30 1366 C 127.947 -1.65182 -4.07925 0
M  V30 1367 H 125.066 -0.40374 -0.616574 0
M  V30 1368 H 127.708 -1.54521 -1.10558 0
M  V30 1369 H 125.858 -1.49409 -3.58621 0
M  V30 1370 H 127.53 -3.87108 -2.50889 0
M  V30 1371 H 125.773 -3.67759 -2.30078 0
M  V30 1372 H 126.444 -3.88505 -3.92133 0
M  V30 1373 H 128.92 -1.9757 -3.66204 0
M  V30 1374 H 127.796 -2.20683 -5.02583 0
M  V30 1375 H 128.057 -0.593933 -4.38092 0
M  V30 1376 N 127.117 1.15442 -1.07289 0
M  V30 1377 C 128.08 2.18358 -0.696591 0
M  V30 1378 C 129.08 1.58637 0.262837 0
M  V30 1379 O 130.27 1.74145 0.0438809 0
M  V30 1380 C 127.402 3.4089 -0.0266151 0
M  V30 1381 H 128.595 2.53162 -1.60776 0
M  V30 1382 H 126.148 1.29893 -0.869342 0
M  V30 1383 H 126.883 3.11653 0.896822 0
M  V30 1384 H 126.668 3.85495 -0.716657 0
M  V30 1385 H 128.158 4.17009 0.222028 0
M  V30 1386 N 128.595 0.856903 1.32268 0
M  V30 1387 C 129.872 0.382583 1.91822 0
M  V30 1388 C 130.252 -1.13407 1.78051 0
M  V30 1389 O 129.6 -1.95673 1.18001 0
M  V30 1390 C 129.81 0.849446 3.38505 0
M  V30 1391 C 131.158 0.867936 4.15634 0
M  V30 1392 O 132.182 0.794232 3.47232 0
M  V30 1393 O 131.041 0.972286 5.37781 0
M  V30 1394 H 128.135 0.112014 0.819379 0
M  V30 1395 H 130.681 0.943952 1.41024 0
M  V30 1396 H 129.453 1.89267 3.42482 0
M  V30 1397 H 129.076 0.265652 3.96712 0
M  V30 1398 N 130.073 -1.45103 0.615059 0
M  V30 1399 C 131.303 -2.06254 0.119596 0
M  V30 1400 C 131.711 -1.4591 -1.20445 0
M  V30 1401 O 131.054 -0.570384 -1.7462 0
M  V30 1402 C 131.116 -3.59396 -0.0865591 0
M  V30 1403 C 130.78 -4.42116 1.15683 0
M  V30 1404 C 131.777 -4.7662 2.07676 0
M  V30 1405 C 129.462 -4.82749 1.38775 0
M  V30 1406 C 131.456 -5.50622 3.21082 0
M  V30 1407 C 129.143 -5.56504 2.52481 0
M  V30 1408 C 130.141 -5.90358 3.43463 0
M  V30 1409 O 129.829 -6.62615 4.55189 0
M  V30 1410 H 129.561 -0.672423 0.0694512 0
M  V30 1411 H 132.115 -1.87219 0.844885 0
M  V30 1412 H 130.345 -3.76859 -0.866823 0
M  V30 1413 H 132.034 -4.02365 -0.534555 0
M  V30 1414 H 132.8 -4.4578 1.91063 0
M  V30 1415 H 128.679 -4.55829 0.688545 0
M  V30 1416 H 132.223 -5.76965 3.92119 0
M  V30 1417 H 128.12 -5.86759 2.69043 0
M  V30 1418 H 128.888 -6.81071 4.53966 0
M  V30 1419 N 131.551 -0.354651 -1.53558 0
M  V30 1420 C 132.797 0.238797 -2.01389 0
M  V30 1421 C 133.13 1.49309 -1.2418 0
M  V30 1422 O 132.405 1.91638 -0.332457 0
M  V30 1423 C 132.688 0.541771 -3.56001 0
M  V30 1424 C 132.541 -0.725388 -4.43912 0
M  V30 1425 C 133.86 1.34685 -4.18984 0
M  V30 1426 H 130.979 0.0853177 -0.732045 0
M  V30 1427 H 133.621 -0.477384 -1.83905 0
M  V30 1428 H 131.771 1.15189 -3.71031 0
M  V30 1429 H 133.443 -1.36313 -4.407 0
M  V30 1430 H 131.686 -1.34801 -4.12324 0
M  V30 1431 H 132.357 -0.468505 -5.50008 0
M  V30 1432 H 134.833 0.830837 -4.07721 0
M  V30 1433 H 133.709 1.52759 -5.27215 0
M  V30 1434 H 133.97 2.35221 -3.74331 0
M  V30 1435 N 133.029 1.57378 -0.0835403 0
M  V30 1436 C 134.278 1.93106 0.582498 0
M  V30 1437 C 134.591 0.96651 1.70053 0
M  V30 1438 O 135.797 1.21705 2.42693 0
M  V30 1439 C 134.253 3.43076 1.08751 0
M  V30 1440 C 133.861 4.48 -0.000146404 0
M  V30 1441 C 135.605 3.87785 1.72694 0
M  V30 1442 C 133.512 5.89113 0.519568 0
M  V30 1443 H 132.442 0.720775 0.221358 0
M  V30 1444 H 135.093 1.82821 -0.157675 0
M  V30 1445 H 133.475 3.48474 1.88101 0
M  V30 1446 H 134.649 4.54233 -0.775199 0
M  V30 1447 H 132.964 4.1283 -0.54406 0
M  V30 1448 H 135.561 4.90604 2.1263 0
M  V30 1449 H 135.904 3.25796 2.59158 0
M  V30 1450 H 136.437 3.8504 0.999457 0
M  V30 1451 H 133.176 6.54775 -0.308186 0
M  V30 1452 H 132.696 5.86376 1.26188 0
M  V30 1453 H 134.375 6.39346 0.992237 0
M  V30 1454 N 134.507 -0.190092 1.56449 0
M  V30 1455 C 135.918 -0.754312 1.70784 0
M  V30 1456 C 136.269 -1.83631 0.690951 0
M  V30 1457 O 135.394 -2.15868 -0.151604 0
M  V30 1458 C 135.989 -1.37503 3.09642 0
M  V30 1459 C 134.548 -1.88628 3.25725 0
M  V30 1460 C 133.695 -0.758098 2.66736 0
M  V30 1461 H 136.646 0.0350524 1.58661 0
M  V30 1462 H 136.667 -2.2445 3.0725 0
M  V30 1463 H 136.179 -0.587302 3.83631 0
M  V30 1464 H 134.28 -2.70103 2.56661 0
M  V30 1465 H 134.393 -2.04462 4.3328 0
M  V30 1466 H 132.757 -1.17369 2.26046 0
M  V30 1467 H 133.54 0.0174705 3.43296 0
M  V30 1468 N 135.985 -1.50799 -0.457987 0
M  V30 1469 C 136.948 -1.7005 -1.53674 0
M  V30 1470 C 137.948 -0.570881 -1.50325 0
M  V30 1471 O 139.138 -0.838126 -1.52712 0
M  V30 1472 C 136.27 -1.73788 -2.93276 0
M  V30 1473 H 137.463 -2.66306 -1.37917 0
M  V30 1474 H 135.016 -1.40477 -0.685271 0
M  V30 1475 H 135.751 -0.792717 -3.14462 0
M  V30 1476 H 135.536 -2.55864 -2.97113 0
M  V30 1477 H 137.026 -1.90591 -3.71571 0
M  V30 1478 N 137.463 0.71206 -1.40597 0
M  V30 1479 C 138.395 1.83704 -1.37061 0
M  V30 1480 C 139.408 1.60453 -0.275426 0
M  V30 1481 O 140.597 1.70262 -0.53602 0
M  V30 1482 C 137.697 3.20172 -1.11099 0
M  V30 1483 C 136.87 3.7059 -2.3234 0
M  V30 1484 C 135.929 4.85681 -2.02485 0
M  V30 1485 O 134.955 4.9815 -2.75382 0
M  V30 1486 N 136.157 5.71735 -1.00497 0
M  V30 1487 H 138.922 1.87235 -2.34016 0
M  V30 1488 H 136.483 0.893739 -1.34996 0
M  V30 1489 H 138.475 3.94768 -0.891064 0
M  V30 1490 H 137.045 3.11767 -0.227989 0
M  V30 1491 H 136.265 2.87085 -2.7014 0
M  V30 1492 H 137.553 4.01011 -3.13157 0
M  V30 1493 H 136.951 5.64275 -0.401298 0
M  V30 1494 H 135.508 6.463 -0.844942 0
M  V30 1495 N 138.941 1.26152 0.944643 0
M  V30 1496 C 139.851 1.09176 2.07648 0
M  V30 1497 C 140.867 0.0261935 1.7398 0
M  V30 1498 O 142.043 0.229208 2.00091 0
M  V30 1499 C 139.108 0.722915 3.39079 0
M  V30 1500 C 138.169 1.86752 3.86552 0
M  V30 1501 C 137.402 1.51617 5.11711 0
M  V30 1502 O 137.625 0.416331 5.68879 0
M  V30 1503 O 136.559 2.34975 5.54139 0
M  V30 1504 H 140.385 2.0412 2.24875 0
M  V30 1505 H 137.97 1.05182 1.061 0
M  V30 1506 H 139.852 0.529787 4.18056 0
M  V30 1507 H 138.527 -0.197159 3.23099 0
M  V30 1508 H 137.434 2.11558 3.08535 0
M  V30 1509 H 138.767 2.76719 4.07047 0
M  V30 1510 N 140.419 -1.14872 1.07899 0
M  V30 1511 C 141.329 -2.2341 0.715915 0
M  V30 1512 C 142.345 -1.71808 -0.275306 0
M  V30 1513 O 143.521 -2.01039 -0.120545 0
M  V30 1514 C 140.586 -3.46474 0.125168 0
M  V30 1515 C 139.647 -4.13039 1.17034 0
M  V30 1516 C 138.88 -5.30229 0.607688 0
M  V30 1517 O 139.103 -5.675 -0.574497 0
M  V30 1518 O 138.037 -5.86444 1.35526 0
M  V30 1519 H 141.863 -2.56808 1.62121 0
M  V30 1520 H 139.448 -1.22702 0.852322 0
M  V30 1521 H 141.33 -4.20917 -0.201729 0
M  V30 1522 H 140.005 -3.14811 -0.753364 0
M  V30 1523 H 138.912 -3.40493 1.54968 0
M  V30 1524 H 140.245 -4.48796 2.02097 0
M  V30 1525 N 141.898 -0.863906 -1.31812 0
M  V30 1526 C 142.846 -0.30422 -2.30602 0
M  V30 1527 C 143.84 0.577419 -1.59255 0
M  V30 1528 O 145.046 0.464194 -1.73912 0
M  V30 1529 H 141.421 -0.0796877 -0.747766 0
M  V30 1530 H 143.392 -1.15148 -2.75288 0
M  V30 1531 C 142.141 0.484617 -3.44306 0
M  V30 1532 H 141.464 -0.18451 -3.99374 0
M  V30 1533 H 142.904 0.841664 -4.15562 0
M  V30 1534 C 141.363 1.6735 -2.92396 0
M  V30 1535 O 141.893 2.77273 -2.90659 0
M  V30 1536 N 140.099 1.50362 -2.48676 0
M  V30 1537 H 139.646 0.609402 -2.50288 0
M  V30 1538 H 139.604 2.30051 -2.14299 0
M  V30 1539 N 143.376 1.44774 -0.622745 0
M  V30 1540 C 144.601 2.06999 -0.128968 0
M  V30 1541 C 145.026 1.4617 1.1839 0
M  V30 1542 O 144.384 0.560007 1.72434 0
M  V30 1543 C 144.432 3.60595 -0.0188351 0
M  V30 1544 O 143.536 3.99398 1.02739 0
M  V30 1545 H 142.877 0.659047 -0.0809544 0
M  V30 1546 H 145.407 1.85784 -0.85705 0
M  V30 1547 H 145.417 4.07627 0.174476 0
M  V30 1548 H 144.092 4.04252 -0.977384 0
M  V30 1549 H 142.669 3.64011 0.809326 0
M  V30 1550 N 144.854 0.36279 1.53368 0
M  V30 1551 C 145.784 -0.476976 2.28576 0
M  V30 1552 C 146.765 -1.08631 1.30894 0
M  V30 1553 O 147.95 -1.10409 1.59761 0
M  V30 1554 C 145.08 -1.61828 3.07293 0
M  V30 1555 C 144.034 -1.13633 4.1264 0
M  V30 1556 C 143.36 -2.36766 4.79423 0
M  V30 1557 C 144.66 -0.223061 5.21823 0
M  V30 1558 H 146.354 0.150474 2.99022 0
M  V30 1559 H 143.9 0.0738103 1.43811 0
M  V30 1560 H 145.853 -2.21237 3.58653 0
M  V30 1561 H 144.577 -2.27292 2.34533 0
M  V30 1562 H 143.236 -0.564945 3.62221 0
M  V30 1563 H 142.884 -3.0068 4.03238 0
M  V30 1564 H 142.584 -2.05192 5.50609 0
M  V30 1565 H 144.108 -2.96865 5.33576 0
M  V30 1566 H 145.522 -0.724545 5.68703 0
M  V30 1567 H 143.919 0.001678 6.001 0
M  V30 1568 H 144.989 0.735553 4.79289 0
M  V30 1569 N 146.332 -1.57332 0.0918853 0
M  V30 1570 C 147.579 -1.94236 -0.572577 0
M  V30 1571 C 147.907 -0.973398 -1.6839 0
M  V30 1572 O 147.162 0.00756912 -1.95699 0
M  V30 1573 C 147.461 -3.37689 -1.17051 0
M  V30 1574 C 147.127 -4.50527 -0.183304 0
M  V30 1575 C 145.789 -4.81119 0.0882276 0
M  V30 1576 C 148.141 -5.18883 0.49095 0
M  V30 1577 C 145.469 -5.77395 1.04076 0
M  V30 1578 C 147.821 -6.1618 1.43193 0
M  V30 1579 C 146.485 -6.45179 1.71173 0
M  V30 1580 H 145.755 -0.710762 -0.209521 0
M  V30 1581 H 148.402 -1.9077 0.167036 0
M  V30 1582 H 146.707 -3.37718 -1.9863 0
M  V30 1583 H 148.404 -3.63543 -1.69227 0
M  V30 1584 H 144.994 -4.26681 -0.405124 0
M  V30 1585 H 149.178 -4.95427 0.294312 0
M  V30 1586 H 144.434 -5.98179 1.26457 0
M  V30 1587 H 148.608 -6.68243 1.96023 0
M  V30 1588 H 146.235 -7.1959 2.4514 0
M  V30 1589 N 147.81 0.181792 -1.56548 0
M  V30 1590 C 149.056 0.901431 -1.81665 0
M  V30 1591 C 149.389 1.82347 -0.668075 0
M  V30 1592 O 148.664 1.91669 0.330615 0
M  V30 1593 C 148.947 1.70618 -3.17115 0
M  V30 1594 C 148.8 0.807964 -4.42484 0
M  V30 1595 C 150.119 2.67605 -3.49393 0
M  V30 1596 H 147.238 0.32627 -0.660846 0
M  V30 1597 H 149.88 0.168134 -1.89255 0
M  V30 1598 H 148.03 2.33133 -3.10775 0
M  V30 1599 H 149.702 0.19649 -4.60881 0
M  V30 1600 H 147.945 0.115411 -4.33646 0
M  V30 1601 H 148.616 1.40632 -5.33785 0
M  V30 1602 H 151.092 2.15218 -3.56118 0
M  V30 1603 H 149.968 3.20985 -4.45264 0
M  V30 1604 H 150.229 3.47298 -2.73563 0
M  V30 1605 N 149.288 1.51039 0.449983 0
M  V30 1606 C 150.221 1.66105 1.56474 0
M  V30 1607 C 151.199 0.508776 1.54435 0
M  V30 1608 O 152.383 0.731005 1.73749 0
M  V30 1609 C 149.51 1.66304 2.9506 0
M  V30 1610 C 148.556 2.87346 3.15174 0
M  V30 1611 S 149.389 4.4835 2.92818 0
M  V30 1612 C 150.545 4.51274 4.33708 0
M  V30 1613 H 150.778 2.60397 1.43459 0
M  V30 1614 H 148.311 1.40565 0.638805 0
M  V30 1615 H 150.269 1.67103 3.74949 0
M  V30 1616 H 148.93 0.732108 3.05449 0
M  V30 1617 H 148.123 2.83849 4.16468 0
M  V30 1618 H 147.725 2.84223 2.43091 0
M  V30 1619 H 150.017 4.26136 5.26701 0
M  V30 1620 H 150.96 5.53017 4.42242 0
M  V30 1621 H 151.368 3.80738 4.16772 0
M  V30 1622 N 150.766 -0.704594 1.40972 0
M  V30 1623 C 151.994 -1.49354 1.43182 0
M  V30 1624 C 152.409 -1.88768 0.0345508 0
M  V30 1625 O 151.766 -1.56184 -0.944081 0
M  V30 1626 C 151.817 -2.76187 2.33244 0
M  V30 1627 O 151.538 -2.38436 3.67532 0
M  V30 1628 C 153.039 -3.7 2.44162 0
M  V30 1629 H 150.259 -0.460559 0.487982 0
M  V30 1630 H 152.803 -0.868261 1.85153 0
M  V30 1631 H 150.958 -3.34974 1.94606 0
M  V30 1632 H 151.372 -3.20126 4.15475 0
M  V30 1633 H 152.846 -4.55803 3.11364 0
M  V30 1634 H 153.323 -4.13867 1.47006 0
M  V30 1635 H 153.929 -3.17121 2.83398 0
M  V30 1636 N 152.244 -1.26651 -0.937939 0
M  V30 1637 C 153.192 -1.08308 -2.05845 0
M  V30 1638 C 154.186 -0.0090757 -1.69398 0
M  V30 1639 O 155.392 -0.166007 -1.79233 0
M  V30 1640 H 151.767 -0.333416 -0.674046 0
M  V30 1641 H 153.738 -2.03261 -2.18467 0
M  V30 1642 C 152.487 -0.736229 -3.39816 0
M  V30 1643 H 151.81 -1.55453 -3.6834 0
M  V30 1644 H 153.25 -0.64769 -4.19024 0
M  V30 1645 C 151.709 0.558824 -3.32233 0
M  V30 1646 O 152.239 1.59621 -3.68624 0
M  V30 1647 N 150.445 0.550657 -2.85335 0
M  V30 1648 H 149.992 -0.293943 -2.55917 0
M  V30 1649 H 149.95 1.41726 -2.80644 0
M  V30 1650 N 153.722 1.14298 -1.08507 0
M  V30 1651 C 154.968 1.85633 -0.816581 0
M  V30 1652 C 155.301 1.82784 0.656021 0
M  V30 1653 O 154.576 1.25926 1.48233 0
M  V30 1654 C 154.859 3.34223 -1.34041 0
M  V30 1655 C 154.712 3.45639 -2.87843 0
M  V30 1656 C 156.031 4.29356 -0.9665 0
M  V30 1657 H 153.15 0.67402 -0.298104 0
M  V30 1658 H 155.792 1.34214 -1.34487 0
M  V30 1659 H 153.942 3.78144 -0.89104 0
M  V30 1660 H 155.614 3.10498 -3.41158 0
M  V30 1661 H 153.857 2.86817 -3.25451 0
M  V30 1662 H 154.528 4.50089 -3.19569 0
M  V30 1663 H 157.004 3.93457 -1.35391 0
M  V30 1664 H 155.88 5.3178 -1.3602 0
M  V30 1665 H 156.141 4.41919 0.126362 0
M  V30 1666 N 155.201 0.870884 1.31352 0
M  V30 1667 C 156.45 0.478408 1.95944 0
M  V30 1668 C 156.763 -0.974493 1.69597 0
M  V30 1669 O 157.969 -1.47316 2.28058 0
M  V30 1670 C 156.425 0.804609 3.50791 0
M  V30 1671 C 156.033 2.27433 3.85977 0
M  V30 1672 C 157.777 0.480648 4.2177 0
M  V30 1673 C 155.684 2.5429 5.33939 0
M  V30 1674 H 154.614 0.175175 0.733369 0
M  V30 1675 H 157.265 1.06391 1.4951 0
M  V30 1676 H 155.647 0.148347 3.95722 0
M  V30 1677 H 156.821 2.97373 3.52002 0
M  V30 1678 H 155.136 2.56442 3.28065 0
M  V30 1679 H 157.733 0.658519 5.30629 0
M  V30 1680 H 158.076 -0.578979 4.12254 0
M  V30 1681 H 158.609 1.09349 3.82476 0
M  V30 1682 H 155.348 3.58939 5.48491 0
M  V30 1683 H 154.868 1.88945 5.69263 0
M  V30 1684 H 156.547 2.39066 6.01212 0
M  V30 1685 N 156.679 -1.44442 0.630414 0
M  V30 1686 C 157.609 -2.33418 -0.0618083 0
M  V30 1687 C 158.59 -1.48165 -0.835541 0
M  V30 1688 O 159.775 -1.76886 -0.801564 0
M  V30 1689 C 156.905 -3.31222 -1.04449 0
M  V30 1690 C 155.859 -4.26288 -0.382436 0
M  V30 1691 C 155.185 -5.13954 -1.47497 0
M  V30 1692 C 156.485 -5.1744 0.710865 0
M  V30 1693 H 158.179 -2.91548 0.681184 0
M  V30 1694 H 155.725 -1.40191 0.329026 0
M  V30 1695 H 157.678 -3.92351 -1.53748 0
M  V30 1696 H 156.402 -2.71299 -1.81836 0
M  V30 1697 H 155.061 -3.6649 0.0899054 0
M  V30 1698 H 154.709 -4.50385 -2.2397 0
M  V30 1699 H 154.409 -5.7837 -1.03737 0
M  V30 1700 H 155.933 -5.77955 -1.96979 0
M  V30 1701 H 157.347 -5.72509 0.300996 0
M  V30 1702 H 155.744 -5.90455 1.07156 0
M  V30 1703 H 156.814 -4.58496 1.57829 0
M  V30 1704 N 158.157 -0.370918 -1.53173 0
M  V30 1705 C 159.385 0.217704 -2.05751 0
M  V30 1706 C 159.8 1.42018 -1.24404 0
M  V30 1707 O 159.157 1.80245 -0.286033 0
M  V30 1708 C 159.208 0.605954 -3.56385 0
M  V30 1709 O 158.929 -0.548734 -4.3465 0
M  V30 1710 C 160.43 1.2524 -4.25241 0
M  V30 1711 H 157.65 0.0371659 -0.66997 0
M  V30 1712 H 160.194 -0.530832 -1.9749 0
M  V30 1713 H 158.349 1.3044 -3.6478 0
M  V30 1714 H 158.763 -0.23376 -5.23979 0
M  V30 1715 H 160.237 1.47458 -5.3194 0
M  V30 1716 H 160.714 2.2143 -3.79296 0
M  V30 1717 H 161.32 0.595233 -4.21114 0
M  V30 1718 N 159.635 1.57281 -0.100228 0
M  V30 1719 C 160.568 2.09976 0.893612 0
M  V30 1720 C 161.546 1.01155 1.27304 0
M  V30 1721 O 162.73 1.28687 1.37739 0
M  V30 1722 C 159.857 2.58098 2.19324 0
M  V30 1723 C 158.903 3.78626 1.96328 0
M  V30 1724 S 159.736 5.21959 1.19662 0
M  V30 1725 C 160.892 5.73435 2.50844 0
M  V30 1726 H 161.125 2.93946 0.44534 0
M  V30 1727 H 158.658 1.53985 0.113167 0
M  V30 1728 H 160.616 2.8648 2.94005 0
M  V30 1729 H 159.277 1.74344 2.61272 0
M  V30 1730 H 158.47 4.10382 2.92579 0
M  V30 1731 H 158.072 3.50763 1.29775 0
M  V30 1732 H 160.364 5.82015 3.46792 0
M  V30 1733 H 161.307 6.7185 2.23659 0
M  V30 1734 H 161.715 5.01395 2.59352 0
M  V30 1735 N 161.113 -0.173488 1.56642 0
M  V30 1736 C 162.061 -1.23417 1.97157 0
M  V30 1737 C 163.055 -1.45946 0.860013 0
M  V30 1738 O 164.261 -1.46551 1.04512 0
M  V30 1739 H 160.636 -0.414818 0.62724 0
M  V30 1740 H 162.607 -0.865582 2.8557 0
M  V30 1741 C 161.356 -2.5665 2.34576 0
M  V30 1742 H 160.679 -2.40137 3.19647 0
M  V30 1743 H 162.119 -3.2956 2.6677 0
M  V30 1744 C 160.578 -3.15245 1.18836 0
M  V30 1745 O 161.108 -3.98883 0.474869 0
M  V30 1746 N 159.314 -2.74303 0.959497 0
M  V30 1747 H 158.861 -2.0639 1.54146 0
M  V30 1748 H 158.819 -3.13844 0.186932 0
M  V30 1749 N 162.591 -1.51276 -0.441967 0
M  V30 1750 C 163.523 -1.68444 -1.55433 0
M  V30 1751 C 164.536 -0.565187 -1.52674 0
M  V30 1752 O 165.725 -0.839356 -1.57534 0
M  V30 1753 C 162.825 -1.67966 -2.94348 0
M  V30 1754 C 161.998 -2.964 -3.21661 0
M  V30 1755 C 161.057 -2.88171 -4.40277 0
M  V30 1756 O 160.083 -3.62119 -4.39157 0
M  V30 1757 N 161.285 -2.03706 -5.43584 0
M  V30 1758 H 164.05 -2.644 -1.41112 0
M  V30 1759 H 161.611 -1.49104 -0.630838 0
M  V30 1760 H 163.603 -1.60035 -3.71713 0
M  V30 1761 H 162.173 -0.796225 -3.0229 0
M  V30 1762 H 161.393 -3.18234 -2.32638 0
M  V30 1763 H 162.681 -3.81427 -3.36736 0
M  V30 1764 H 162.079 -1.42995 -5.47329 0
M  V30 1765 H 160.636 -2.01658 -6.1982 0
M  V30 1766 N 164.069 0.697108 -1.41344 0
M  V30 1767 C 165.297 1.48593 -1.43972 0
M  V30 1768 C 165.712 1.88747 -0.0445612 0
M  V30 1769 O 165.069 1.56682 0.935785 0
M  V30 1770 C 165.12 2.74946 -2.34706 0
M  V30 1771 O 164.841 2.36484 -3.68791 0
M  V30 1772 C 166.342 3.687 -2.46121 0
M  V30 1773 H 163.562 0.457964 -0.490418 0
M  V30 1774 H 166.106 0.858429 -1.8561 0
M  V30 1775 H 164.261 3.33937 -1.9638 0
M  V30 1776 H 164.675 3.17918 -4.17167 0
M  V30 1777 H 166.149 4.54145 -3.13777 0
M  V30 1778 H 166.626 4.13081 -1.49199 0
M  V30 1779 H 167.232 3.15613 -2.85076 0
M  V30 1780 N 165.547 1.27147 0.931209 0
M  V30 1781 C 166.479 1.05364 2.03546 0
M  V30 1782 C 167.492 0.0108438 1.62796 0
M  V30 1783 O 168.681 0.25202 1.76712 0
M  V30 1784 C 165.781 0.575566 3.33977 0
M  V30 1785 C 164.954 1.68985 4.03439 0
M  V30 1786 C 164.013 1.20813 5.12143 0
M  V30 1787 O 163.039 1.90712 5.363 0
M  V30 1788 N 164.241 0.0618851 5.80467 0
M  V30 1789 H 167.006 2.00454 2.22796 0
M  V30 1790 H 164.567 1.18666 1.10136 0
M  V30 1791 H 166.559 0.237264 4.04004 0
M  V30 1792 H 165.129 -0.282016 3.11325 0
M  V30 1793 H 164.349 2.19861 3.27192 0
M  V30 1794 H 165.637 2.4378 4.46597 0
M  V30 1795 H 165.035 -0.521621 5.6329 0
M  V30 1796 H 163.592 -0.217264 6.51438 0
M  V30 1797 N 167.025 -1.13721 1.09112 0
M  V30 1798 C 168.273 -1.84559 0.823562 0
M  V30 1799 C 168.594 -1.83754 -0.652658 0
M  V30 1800 O 167.864 -1.29102 -1.47342 0
M  V30 1801 H 166.444 -0.683376 0.301673 0
M  V30 1802 H 169.106 -1.37771 1.37859 0
M  V30 1803 H 168.202 -2.8917 1.17419 0
M  V30 1804 N 168.503 -0.877838 -1.30888 0
M  V30 1805 C 169.433 -0.35534 -2.3078 0
M  V30 1806 C 170.414 0.557994 -1.60687 0
M  V30 1807 O 171.599 0.473355 -1.88343 0
M  V30 1808 C 168.729 0.437221 -3.44537 0
M  V30 1809 C 167.683 -0.383715 -4.26276 0
M  V30 1810 C 167.009 0.535014 -5.32017 0
M  V30 1811 C 168.309 -1.62201 -4.96476 0
M  V30 1812 H 170.003 -1.19007 -2.74732 0
M  V30 1813 H 167.549 -0.573698 -1.32078 0
M  V30 1814 H 169.502 0.813334 -4.13477 0
M  V30 1815 H 168.226 1.30553 -2.99372 0
M  V30 1816 H 166.885 -0.741874 -3.59015 0
M  V30 1817 H 166.533 1.40083 -4.831 0
M  V30 1818 H 166.233 -0.0104211 -5.87599 0
M  V30 1819 H 167.757 0.907799 -6.03814 0
M  V30 1820 H 169.171 -1.31689 -5.5797 0
M  V30 1821 H 167.568 -2.10711 -5.61891 0
M  V30 1822 H 168.638 -2.37044 -4.23011 0
M  V30 1823 N 169.982 1.44106 -0.638065 0
M  V30 1824 C 171.222 2.03858 -0.148733 0
M  V30 1825 C 171.586 1.49153 1.20903 0
M  V30 1826 O 172.787 2.00452 1.79088 0
M  V30 1827 C 171.058 3.57117 -0.142314 0
M  V30 1828 S 172.617 4.37897 0.281385 0
M  V30 1829 H 169.435 0.708069 -0.0644912 0
M  V30 1830 H 172.037 1.7639 -0.843009 0
M  V30 1831 H 170.741 3.94436 -1.13349 0
M  V30 1832 H 170.272 3.89205 0.572988 0
M  V30 1833 H 172.287 4.72218 1.52395 0
M  V30 1834 N 171.46 0.379036 1.52974 0
M  V30 1835 C 172.871 -0.0972525 1.86447 0
M  V30 1836 C 173.222 -1.47027 1.29914 0
M  V30 1837 O 172.347 -2.07135 0.626433 0
M  V30 1838 C 172.942 -0.183248 3.38304 0
M  V30 1839 C 171.501 -0.603812 3.71525 0
M  V30 1840 C 170.648 0.240632 2.76254 0
M  V30 1841 H 173.599 0.597316 1.4703 0
M  V30 1842 H 173.62 -1.00432 3.67006 0
M  V30 1843 H 173.132 0.816191 3.79421 0
M  V30 1844 H 171.233 -1.61099 3.35973 0
M  V30 1845 H 171.346 -0.369086 4.77676 0
M  V30 1846 H 169.71 -0.292548 2.53014 0
M  V30 1847 H 170.493 1.23786 3.20206 0
M  V30 1848 N 172.938 -1.57226 0.108567 0
M  V30 1849 C 173.848 -2.18292 -0.859401 0
M  V30 1850 C 174.864 -1.15612 -1.30038 0
M  V30 1851 O 176.04 -1.48039 -1.36552 0
M  V30 1852 C 173.105 -2.762 -2.09558 0
M  V30 1853 C 172.166 -3.93881 -1.70752 0
M  V30 1854 C 171.399 -4.49018 -2.88477 0
M  V30 1855 O 171.622 -4.03068 -4.036 0
M  V30 1856 O 170.556 -5.39852 -2.66164 0
M  V30 1857 H 174.382 -3.01441 -0.369769 0
M  V30 1858 H 171.967 -1.48945 -0.1165 0
M  V30 1859 H 173.849 -3.13156 -2.81978 0
M  V30 1860 H 172.524 -1.96089 -2.57548 0
M  V30 1861 H 171.431 -3.61713 -0.954714 0
M  V30 1862 H 172.764 -4.75396 -1.27513 0
M  V30 1863 N 174.416 0.165178 -1.56732 0
M  V30 1864 C 175.665 0.879143 -1.81532 0
M  V30 1865 C 175.978 1.83144 -0.686842 0
M  V30 1866 O 177.184 2.58823 -0.819944 0
M  V30 1867 C 175.64 1.61388 -3.21686 0
M  V30 1868 C 175.248 0.704904 -4.4242 0
M  V30 1869 C 176.992 2.3157 -3.55774 0
M  V30 1870 C 174.899 1.44022 -5.73595 0
M  V30 1871 H 173.829 0.332033 -0.676957 0
M  V30 1872 H 176.48 0.132008 -1.83025 0
M  V30 1873 H 174.862 2.40599 -3.14529 0
M  V30 1874 H 176.036 -0.0506815 -4.60772 0
M  V30 1875 H 174.351 0.112419 -4.16248 0
M  V30 1876 H 176.948 2.8719 -4.51028 0
M  V30 1877 H 177.291 3.07201 -2.8095 0
M  V30 1878 H 177.824 1.59297 -3.64513 0
M  V30 1879 H 174.563 0.72612 -6.51466 0
M  V30 1880 H 174.083 2.16898 -5.5921 0
M  V30 1881 H 175.762 1.98606 -6.15764 0
M  V30 1882 N 175.894 1.51508 0.433938 0
M  V30 1883 C 177.305 1.56784 1.01369 0
M  V30 1884 C 177.656 0.393349 1.92217 0
M  V30 1885 O 176.781 -0.489441 2.10792 0
M  V30 1886 C 177.376 2.84144 1.8452 0
M  V30 1887 C 175.935 2.9198 2.37539 0
M  V30 1888 C 175.082 2.51482 1.16843 0
M  V30 1889 H 178.033 1.57236 0.215081 0
M  V30 1890 H 178.054 2.68098 2.70007 0
M  V30 1891 H 177.566 3.69607 1.18373 0
M  V30 1892 H 175.667 2.10955 3.0713 0
M  V30 1893 H 175.78 3.95704 2.70103 0
M  V30 1894 H 174.144 2.04758 1.51481 0
M  V30 1895 H 174.927 3.39293 0.523015 0
M  V30 1896 N 177.372 -0.689602 1.41712 0
M  V30 1897 C 178.649 -1.44457 1.31877 0
M  V30 1898 C 179.029 -2.11039 -0.0508537 0
M  V30 1899 O 178.377 -2.02138 -1.06547 0
M  V30 1900 C 178.587 -2.45913 2.47645 0
M  V30 1901 C 179.935 -3.10991 2.89084 0
M  V30 1902 O 180.959 -2.56238 2.47428 0
M  V30 1903 O 179.818 -4.10174 3.61137 0
M  V30 1904 H 176.912 -0.64362 0.519309 0
M  V30 1905 H 179.458 -0.719576 1.53689 0
M  V30 1906 H 178.23 -1.95409 3.39015 0
M  V30 1907 H 177.853 -3.25913 2.27742 0
M  V30 1908 N 178.85 -1.27639 -0.924453 0
M  V30 1909 C 179.813 -1.10681 -2.00705 0
M  V30 1910 C 180.813 -0.0497823 -1.60723 0
M  V30 1911 O 182.003 -0.294654 -1.7169 0
M  V30 1912 C 179.135 -0.687164 -3.33902 0
M  V30 1913 H 180.328 -2.06817 -2.17179 0
M  V30 1914 H 177.881 -1.10473 -1.10569 0
M  V30 1915 H 178.616 0.275439 -3.23128 0
M  V30 1916 H 178.401 -1.45061 -3.6428 0
M  V30 1917 H 179.891 -0.590853 -4.13399 0
M  V30 1918 N 180.328 1.1314 -1.09713 0
M  V30 1919 C 181.556 1.88321 -0.856898 0
M  V30 1920 C 181.971 1.79276 0.592073 0
M  V30 1921 O 181.328 1.16142 1.40774 0
M  V30 1922 C 181.379 3.37812 -1.28706 0
M  V30 1923 O 181.1 3.46627 -2.67921 0
M  V30 1924 C 182.601 4.29952 -1.07964 0
M  V30 1925 H 179.821 0.596094 -0.308079 0
M  V30 1926 H 182.365 1.43205 -1.45988 0
M  V30 1927 H 180.52 3.805 -0.727912 0
M  V30 1928 H 180.934 4.39579 -2.8613 0
M  V30 1929 H 182.408 5.33159 -1.42986 0
M  V30 1930 H 182.885 4.39196 -0.0176577 0
M  V30 1931 H 183.491 3.93036 -1.62489 0
M  V30 1932 N 181.806 0.884767 1.30421 0
M  V30 1933 C 183.034 0.518044 2.0031 0
M  V30 1934 C 183.449 -0.893408 1.66324 0
M  V30 1935 O 182.806 -1.5875 0.900262 0
M  V30 1936 C 182.857 0.682997 3.54989 0
M  V30 1937 O 182.578 2.03888 3.87764 0
M  V30 1938 C 184.079 0.31924 4.42149 0
M  V30 1939 H 181.299 0.200265 0.640418 0
M  V30 1940 H 183.843 1.19001 1.6631 0
M  V30 1941 H 181.998 0.0584052 3.87356 0
M  V30 1942 H 182.412 2.05735 4.82466 0
M  V30 1943 H 183.886 0.485555 5.4986 0
M  V30 1944 H 184.363 -0.742717 4.32875 0
M  V30 1945 H 184.969 0.920147 4.15227 0
M  V30 1946 N 183.284 -1.43765 0.645699 0
M  V30 1947 C 184.53 -2.02197 0.156271 0
M  V30 1948 C 184.863 -1.50776 -1.22393 0
M  V30 1949 O 184.138 -0.697771 -1.81553 0
M  V30 1950 C 184.421 -3.59749 0.158872 0
M  V30 1951 C 184.274 -4.21419 1.57245 0
M  V30 1952 C 185.593 -4.37149 -0.50879 0
M  V30 1953 H 182.712 -0.734694 0.0582602 0
M  V30 1954 H 185.354 -1.71157 0.824951 0
M  V30 1955 H 183.504 -3.86325 -0.410525 0
M  V30 1956 H 185.176 -4.059 2.19186 0
M  V30 1957 H 183.419 -3.78356 2.122 0
M  V30 1958 H 184.09 -5.30482 1.52619 0
M  V30 1959 H 186.566 -4.16093 -0.024412 0
M  V30 1960 H 185.442 -5.4683 -0.476213 0
M  V30 1961 H 185.703 -4.12839 -1.58165 0
M  V30 1962 N 184.763 -0.387143 -1.52771 0
M  V30 1963 C 186.003 0.195537 -2.03463 0
M  V30 1964 C 186.367 1.44222 -1.26744 0
M  V30 1965 O 187.568 2.10192 -1.67549 0
M  V30 1966 C 185.839 0.459097 -3.54439 0
M  V30 1967 S 187.398 1.01237 -4.26962 0
M  V30 1968 H 184.216 0.0552675 -0.708849 0
M  V30 1969 H 186.818 -0.534992 -1.88037 0
M  V30 1970 H 185.522 -0.455382 -4.07866 0
M  V30 1971 H 185.053 1.21811 -3.74066 0
M  V30 1972 H 187.068 2.29492 -4.39941 0
M  V30 1973 N 186.241 1.57166 -0.116904 0
M  V30 1974 C 187.188 2.15202 0.83408 0
M  V30 1975 C 188.158 1.07644 1.26499 0
M  V30 1976 O 189.343 1.35541 1.34288 0
M  V30 1977 C 186.483 2.75405 2.07957 0
M  V30 1978 C 185.596 3.97264 1.69721 0
M  V30 1979 C 184.731 4.45561 2.89221 0
M  V30 1980 C 183.77 5.59956 2.47215 0
M  V30 1981 N 182.907 6.03006 3.59622 0
M  V30 1982 H 187.747 2.96141 0.332335 0
M  V30 1983 H 185.284 1.46309 0.152349 0
M  V30 1984 H 187.242 3.08439 2.80929 0
M  V30 1985 H 185.872 1.97159 2.55594 0
M  V30 1986 H 184.924 3.70404 0.866316 0
M  V30 1987 H 186.236 4.80226 1.34849 0
M  V30 1988 H 185.39 4.80493 3.7042 0
M  V30 1989 H 184.129 3.61544 3.27318 0
M  V30 1990 H 183.134 5.2463 1.64448 0
M  V30 1991 H 184.359 6.45738 2.10238 0
M  V30 1992 H 182.305 5.21931 3.97396 0
M  V30 1993 H 182.222 6.80819 3.28667 0
M  V30 1994 H 183.49 6.42576 4.41267 0
M  V30 1995 N 187.719 -0.156864 1.56817 0
M  V30 1996 C 188.944 -0.890331 1.87318 0
M  V30 1997 C 189.369 -1.74394 0.704855 0
M  V30 1998 O 188.727 -1.77972 -0.345786 0
M  V30 1999 C 188.775 -1.73102 3.16336 0
M  V30 2000 O 187.879 -2.83422 2.99576 0
M  V30 2001 H 187.22 -0.24857 0.615718 0
M  V30 2002 H 189.75 -0.150649 2.04045 0
M  V30 2003 H 189.76 -2.12803 3.48107 0
M  V30 2004 H 188.435 -1.10412 4.00976 0
M  V30 2005 H 187.012 -2.47199 2.7919 0
M  V30 2006 N 189.197 -1.51736 -0.425897 0
M  V30 2007 C 190.474 -1.55519 -1.1863 0
M  V30 2008 C 190.854 -0.326219 -2.08564 0
M  V30 2009 O 190.202 0.688012 -2.17896 0
M  V30 2010 C 190.412 -2.87521 -1.9782 0
M  V30 2011 C 191.76 -3.39899 -2.54468 0
M  V30 2012 O 192.784 -2.89148 -2.08019 0
M  V30 2013 O 191.643 -4.2848 -3.39215 0
M  V30 2014 H 188.737 -0.625739 -0.540721 0
M  V30 2015 H 191.283 -1.64055 -0.434038 0
M  V30 2016 H 190.055 -3.68422 -1.31836 0
M  V30 2017 H 189.678 -2.822 -2.80088 0
M  V30 2018 N 190.675 0.682077 -1.42076 0
M  V30 2019 C 191.638 1.77756 -1.44691 0
M  V30 2020 C 192.638 1.5726 -0.335535 0
M  V30 2021 O 193.828 1.63686 -0.596037 0
M  V30 2022 C 190.96 3.16301 -1.27146 0
M  V30 2023 H 192.153 1.76826 -2.42224 0
M  V30 2024 H 189.706 0.891012 -1.28416 0
M  V30 2025 H 190.441 3.22862 -0.305075 0
M  V30 2026 H 190.226 3.32581 -2.07683 0
M  V30 2027 H 191.716 3.96241 -1.31843 0
M  V30 2028 N 192.153 1.28127 0.917671 0
M  V30 2029 C 193.378 1.18007 1.70555 0
M  V30 2030 C 193.803 -0.258257 1.86319 0
M  V30 2031 O 193.161 -1.1869 1.37049 0
M  V30 2032 C 193.209 1.87948 3.07746 0
M  V30 2033 O 192.313 1.18427 3.9503 0
M  V30 2034 H 191.654 0.409867 0.522403 0
M  V30 2035 H 194.184 1.69379 1.1477 0
M  V30 2036 H 194.194 1.95701 3.58001 0
M  V30 2037 H 192.869 2.92573 2.95591 0
M  V30 2038 H 191.446 1.18811 3.53466 0
M  V30 2039 N 193.631 -1.12557 1.10312 0
M  V30 2040 C 194.871 -1.8568 0.854543 0
M  V30 2041 C 195.235 -1.82091 -0.608843 0
M  V30 2042 O 196.436 -2.50544 -0.973717 0
M  V30 2043 C 194.707 -3.2942 1.38626 0
M  V30 2044 S 196.266 -4.19931 1.27293 0
M  V30 2045 H 193.084 -0.640427 0.308827 0
M  V30 2046 H 195.686 -1.35599 1.40831 0
M  V30 2047 H 194.39 -3.2959 2.44537 0
M  V30 2048 H 193.921 -3.84566 0.82902 0
M  V30 2049 H 195.936 -4.95668 0.229776 0
M  V30 2050 N 195.109 -0.891671 -1.2995 0
M  V30 2051 C 196.337 -0.52866 -2.00032 0
M  V30 2052 C 196.752 0.884574 -1.66795 0
M  V30 2053 O 196.109 1.5827 -0.908669 0
M  V30 2054 C 196.16 -0.701814 -3.54622 0
M  V30 2055 O 195.881 -2.05942 -3.86678 0
M  V30 2056 C 197.382 -0.342683 -4.41973 0
M  V30 2057 H 194.602 -0.203659 -0.639347 0
M  V30 2058 H 197.146 -1.19881 -1.65677 0
M  V30 2059 H 195.301 -0.0789468 -3.8732 0
M  V30 2060 H 195.715 -2.08291 -4.81368 0
M  V30 2061 H 197.189 -0.514709 -5.49595 0
M  V30 2062 H 197.666 0.71975 -4.33262 0
M  V30 2063 H 198.272 -0.942154 -4.14733 0
M  V30 2064 N 196.587 1.43421 -0.653314 0
M  V30 2065 C 197.55 2.29182 0.0287951 0
M  V30 2066 C 198.55 1.42213 0.750465 0
M  V30 2067 O 199.74 1.63843 0.591701 0
M  V30 2068 C 196.872 3.24278 1.05151 0
M  V30 2069 H 198.065 2.90985 -0.725786 0
M  V30 2070 H 195.618 1.50702 -0.414545 0
M  V30 2071 H 196.353 2.6737 1.83532 0
M  V30 2072 H 196.138 3.88396 0.537687 0
M  V30 2073 H 197.628 3.88647 1.52786 0
M  V30 2074 N 198.065 0.39524 1.52563 0
M  V30 2075 C 199.313 -0.184678 2.01254 0
M  V30 2076 C 199.634 -1.46822 1.28329 0
M  V30 2077 O 198.904 -1.91666 0.405094 0
M  V30 2078 H 197.484 -0.0712355 0.743596 0
M  V30 2079 H 200.146 0.528293 1.87603 0
M  V30 2080 H 199.242 -0.390681 3.09645 0
M  V30 2081 N 199.544 -1.57102 0.125237 0
M  V30 2082 C 200.769 -2.0019 -0.542101 0
M  V30 2083 C 201.194 -1.00449 -1.59034 0
M  V30 2084 O 200.552 0.0229423 -1.81285 0
M  V30 2085 C 200.6 -3.42129 -1.13929 0
M  V30 2086 O 199.704 -3.45307 -2.2547 0
M  V30 2087 H 199.045 -0.650171 -0.134812 0
M  V30 2088 H 201.575 -2.03461 0.215553 0
M  V30 2089 H 201.585 -3.80471 -1.4733 0
M  V30 2090 H 200.26 -4.14237 -0.371531 0
M  V30 2091 H 198.837 -3.1879 -1.93462 0
M  V30 2092 N 201.022 0.148545 -1.56898 0
M  V30 2093 C 201.985 1.16736 -1.97244 0
M  V30 2094 C 202.985 1.35947 -0.858777 0
M  V30 2095 O 204.175 1.32966 -1.12542 0
M  V30 2096 C 201.307 2.52798 -2.28705 0
M  V30 2097 H 202.5 0.821279 -2.88435 0
M  V30 2098 H 200.053 0.391831 -1.51309 0
M  V30 2099 H 200.788 2.92381 -1.403 0
M  V30 2100 H 200.573 2.40216 -3.09901 0
M  V30 2101 H 202.063 3.26179 -2.60762 0
M  V30 2102 N 202.5 1.5196 0.417844 0
M  V30 2103 C 203.748 1.65263 1.16329 0
M  V30 2104 C 204.069 0.380634 1.91249 0
M  V30 2105 O 203.339 -0.604214 1.86349 0
M  V30 2106 H 201.919 0.60912 0.432414 0
M  V30 2107 H 204.581 1.88969 0.477162 0
M  V30 2108 H 203.677 2.4896 1.88217 0
M  V30 2109 N 203.978 -0.674533 1.42435 0
M  V30 2110 C 205.206 -1.46283 1.46317 0
M  V30 2111 C 205.621 -1.88653 0.0745836 0
M  V30 2112 O 204.978 -1.58151 -0.91074 0
M  V30 2113 C 205.029 -2.71178 2.3905 0
M  V30 2114 O 204.75 -2.30586 3.72507 0
M  V30 2115 C 206.251 -3.64738 2.51955 0
M  V30 2116 H 203.471 -0.450104 0.497642 0
M  V30 2117 H 206.015 -0.828792 1.86953 0
M  V30 2118 H 204.17 -3.3077 2.01667 0
M  V30 2119 H 204.584 -3.11241 4.22172 0
M  V30 2120 H 206.058 -4.49096 3.20962 0
M  V30 2121 H 206.535 -4.10656 1.55752 0
M  V30 2122 H 207.141 -3.11038 2.90061 0
M  V30 2123 N 205.456 -1.28612 -0.910864 0
M  V30 2124 C 206.406 -1.09423 -2.00026 0
M  V30 2125 C 207.39 -0.0170079 -1.60891 0
M  V30 2126 O 208.582 -0.237472 -1.754 0
M  V30 2127 C 205.711 -0.76114 -3.34756 0
M  V30 2128 C 204.797 -1.87735 -3.80285 0
M  V30 2129 N 205.188 -3.11938 -3.98156 0
M  V30 2130 C 203.486 -1.76786 -4.09467 0
M  V30 2131 C 204.187 -3.84687 -4.36338 0
M  V30 2132 N 203.163 -3.12555 -4.44759 0
M  V30 2133 H 206.965 -2.03658 -2.11898 0
M  V30 2134 H 204.479 -1.19573 -1.09891 0
M  V30 2135 H 206.476 -0.604743 -4.12491 0
M  V30 2136 H 205.136 0.173403 -3.24237 0
M  V30 2137 H 206.147 -3.47516 -3.83996 0
M  V30 2138 H 202.824 -0.905284 -4.07567 0
M  V30 2139 H 204.214 -4.91518 -4.58104 0
M  V30 2140 N 206.934 1.1197 -1.10907 0
M  V30 2141 C 208.159 1.87942 -0.877064 0
M  V30 2142 C 208.584 1.79341 0.567314 0
M  V30 2143 O 207.942 1.15184 1.40009 0
M  V30 2144 C 207.99 3.34926 -1.33629 0
M  V30 2145 O 207.094 4.09303 -0.504447 0
M  V30 2146 H 206.435 0.583785 -0.316371 0
M  V30 2147 H 208.965 1.4157 -1.47712 0
M  V30 2148 H 208.975 3.8577 -1.32837 0
M  V30 2149 H 207.65 3.40504 -2.3881 0
M  V30 2150 H 206.227 3.68393 -0.577993 0
M  V30 2151 N 208.412 0.89855 1.29475 0
M  V30 2152 C 209.36 0.365253 2.29714 0
M  V30 2153 C 210.354 -0.534993 1.6073 0
M  V30 2154 O 211.56 -0.417921 1.75081 0
M  V30 2155 H 207.935 0.0994853 0.74539 0
M  V30 2156 H 209.906 1.22406 2.72138 0
M  V30 2157 C 208.655 -0.393159 3.4547 0
M  V30 2158 H 207.978 0.290332 3.98744 0
M  V30 2159 H 209.418 -0.731189 4.17648 0
M  V30 2160 C 207.877 -1.59539 2.9673 0
M  V30 2161 O 208.407 -2.69469 2.97908 0
M  V30 2162 N 206.613 -1.43716 2.52575 0
M  V30 2163 H 206.16 -0.542828 2.51816 0
M  V30 2164 H 206.118 -2.24288 2.20323 0
M  V30 2165 N 209.89 -1.43072 0.660911 0
M  V30 2166 C 211.138 -2.01323 0.177094 0
M  V30 2167 C 211.459 -1.5245 -1.2159 0
M  V30 2168 O 210.729 -0.740322 -1.81373 0
M  V30 2169 H 209.309 -0.744382 0.0624804 0
M  V30 2170 H 211.971 -1.75179 0.854305 0
M  V30 2171 H 211.067 -3.11649 0.167641 0
M  V30 2172 N 211.368 -0.403325 -1.52352 0
M  V30 2173 C 212.614 0.174605 -2.02047 0
M  V30 2174 C 212.947 1.45282 -1.28867 0
M  V30 2175 O 212.222 1.90483 -0.393257 0
M  V30 2176 C 212.505 0.428238 -3.57545 0
M  V30 2177 C 212.358 -0.866248 -4.4138 0
M  V30 2178 C 213.677 1.21287 -4.23057 0
M  V30 2179 H 210.796 0.0619851 -0.734389 0
M  V30 2180 H 213.438 -0.53565 -1.82293 0
M  V30 2181 H 211.588 1.03327 -3.74507 0
M  V30 2182 H 213.26 -1.50265 -4.3614 0
M  V30 2183 H 211.503 -1.47851 -4.07827 0
M  V30 2184 H 212.174 -0.643249 -5.48239 0
M  V30 2185 H 214.65 0.700703 -4.10158 0
M  V30 2186 H 213.526 1.35909 -5.31808 0
M  V30 2187 H 213.787 2.23193 -3.81625 0
M  V30 2188 N 212.846 1.57033 -0.133567 0
M  V30 2189 C 214.071 2.00475 0.531477 0
M  V30 2190 C 214.496 1.01291 1.58499 0
M  V30 2191 O 213.854 -0.0133279 1.81295 0
M  V30 2192 C 213.902 3.42729 1.12113 0
M  V30 2193 O 213.006 3.46498 2.23636 0
M  V30 2194 H 212.347 0.650876 0.131362 0
M  V30 2195 H 214.877 2.03344 -0.22634 0
M  V30 2196 H 214.887 3.81246 1.4531 0
M  V30 2197 H 213.562 4.14428 0.349557 0
M  V30 2198 H 212.139 3.19811 1.91769 0
M  V30 2199 N 214.325 -0.140222 1.56975 0
M  V30 2200 C 215.553 -0.866437 1.87884 0
M  V30 2201 C 215.968 -1.74428 0.722517 0
M  V30 2202 O 215.325 -1.79891 -0.30749 0
M  V30 2203 C 215.376 -1.71753 3.18093 0
M  V30 2204 O 215.097 -0.875056 4.29272 0
M  V30 2205 C 216.598 -2.55074 3.62563 0
M  V30 2206 H 213.818 -0.25019 0.622612 0
M  V30 2207 H 216.362 -0.130977 2.0408 0
M  V30 2208 H 214.517 -2.40598 3.03631 0
M  V30 2209 H 214.931 -1.46002 5.03769 0
M  V30 2210 H 216.405 -3.10356 4.5649 0
M  V30 2211 H 216.882 -3.31434 2.88181 0
M  V30 2212 H 217.488 -1.91509 3.79743 0
M  V30 2213 N 215.803 -1.52179 -0.40978 0
M  V30 2214 C 217.051 -1.65878 -1.15451 0
M  V30 2215 C 217.372 -0.390771 -1.91044 0
M  V30 2216 O 216.642 0.594323 -1.86667 0
M  V30 2217 H 215.222 -0.611405 -0.429177 0
M  V30 2218 H 217.884 -1.89219 -0.467134 0
M  V30 2219 H 216.98 -2.49954 -1.86894 0
M  V30 2220 N 217.281 0.66697 -1.42791 0
M  V30 2221 C 218.697 0.981027 -1.25889 0
M  V30 2222 C 218.897 2.00793 -0.168695 0
M  V30 2223 O 217.953 2.48321 0.45747 0
M  V30 2224 C 219.266 1.47838 -2.61848 0
M  V30 2225 C 220.814 1.59575 -2.69267 0
M  V30 2226 C 221.289 2.12704 -4.05612 0
M  V30 2227 N 222.78 2.20026 -4.07606 0
M  V30 2228 C 223.515 2.62227 -5.09926 0
M  V30 2229 N 223.011 3.03824 -6.22626 0
M  V30 2230 N 224.804 2.62045 -4.97281 0
M  V30 2231 H 216.955 -0.0127891 -2.12396 0
M  V30 2232 H 219.218 0.0568258 -0.946295 0
M  V30 2233 H 218.924 0.798299 -3.4252 0
M  V30 2234 H 218.798 2.45579 -2.86305 0
M  V30 2235 H 221.185 2.26687 -1.88936 0
M  V30 2236 H 221.266 0.60302 -2.48591 0
M  V30 2237 H 220.91 1.46198 -4.86404 0
M  V30 2238 H 220.84 3.12782 -4.23645 0
M  V30 2239 H 223.331 1.90708 -3.2625 0
M  V30 2240 H 223.644 3.34734 -6.96544 0
M  V30 2241 H 221.989 3.01662 -6.26119 0
M  V30 2242 H 225.18 2.28916 -4.08308 0
M  V30 2243 H 225.353 2.94613 -5.77154 0
M  V30 2244 N 218.759 1.29093 0.90403 0
M  V30 2245 C 219.999 1.18076 1.66845 0
M  V30 2246 C 220.363 -0.26436 1.90171 0
M  V30 2247 O 221.564 -0.497423 2.64157 0
M  V30 2248 C 219.835 1.96722 2.98388 0
M  V30 2249 S 221.394 2.0219 3.89441 0
M  V30 2250 H 218.212 0.421104 0.572881 0
M  V30 2251 H 220.814 1.63322 1.07453 0
M  V30 2252 H 219.518 3.00866 2.7912 0
M  V30 2253 H 219.049 1.52064 3.62823 0
M  V30 2254 H 221.064 1.13545 4.83034 0
M  V30 2255 N 220.237 -1.11381 1.11499 0
M  V30 2256 C 221.483 -1.83403 0.865512 0
M  V30 2257 C 221.816 -1.84459 -0.607329 0
M  V30 2258 O 221.091 -1.29811 -1.44842 0
M  V30 2259 C 221.374 -3.30552 1.42855 0
M  V30 2260 C 221.227 -3.37886 2.96906 0
M  V30 2261 C 222.546 -4.26643 1.08 0
M  V30 2262 H 219.665 -0.665879 0.31587 0
M  V30 2263 H 222.307 -1.30601 1.37998 0
M  V30 2264 H 220.457 -3.75648 0.990985 0
M  V30 2265 H 222.129 -3.01343 3.49271 0
M  V30 2266 H 220.372 -2.78088 3.32941 0
M  V30 2267 H 221.043 -4.41458 3.31389 0
M  V30 2268 H 223.519 -3.89729 1.45775 0
M  V30 2269 H 222.395 -5.27986 1.50072 0
M  V30 2270 H 222.656 -4.42099 -0.00915037 0
M  V30 2271 N 221.715 -0.905404 -1.28997 0
M  V30 2272 C 222.678 -0.392253 -2.25819 0
M  V30 2273 C 223.678 0.476753 -1.5357 0
M  V30 2274 O 224.868 0.280994 -1.71919 0
M  V30 2275 C 222 0.438588 -3.38067 0
M  V30 2276 H 223.193 -1.24743 -2.72725 0
M  V30 2277 H 220.746 -0.684051 -1.40536 0
M  V30 2278 H 221.481 1.31352 -2.96508 0
M  V30 2279 H 221.266 -0.184167 -3.91667 0
M  V30 2280 H 222.756 0.78873 -4.10084 0
M  V30 2281 N 223.193 1.4272 -0.668489 0
M  V30 2282 C 224.44 2.01624 -0.18814 0
M  V30 2283 C 224.768 1.5282 1.20317 0
M  V30 2284 O 224.023 0.718323 1.8204 0
M  V30 2285 C 224.322 3.57021 -0.164499 0
M  V30 2286 C 223.988 4.25232 -1.49962 0
M  V30 2287 C 222.65 4.4358 -1.8652 0
M  V30 2288 C 225.002 4.63727 -2.37921 0
M  V30 2289 C 222.33 4.97694 -3.10674 0
M  V30 2290 C 224.682 5.19218 -3.6138 0
M  V30 2291 C 223.346 5.3578 -3.98115 0
M  V30 2292 H 222.616 0.737795 -0.0688454 0
M  V30 2293 H 225.263 1.70991 -0.862225 0
M  V30 2294 H 223.568 3.87285 0.593079 0
M  V30 2295 H 225.265 4.00372 0.224271 0
M  V30 2296 H 221.855 4.11306 -1.20522 0
M  V30 2297 H 226.039 4.4923 -2.10964 0
M  V30 2298 H 221.295 5.08702 -3.39164 0
M  V30 2299 H 225.469 5.4799 -4.29743 0
M  V30 2300 H 223.096 5.77475 -4.94395 0
M  V30 2301 N 224.671 0.411399 1.52136 0
M  V30 2302 C 225.619 -0.427633 2.28635 0
M  V30 2303 C 226.613 -1.04383 1.33419 0
M  V30 2304 O 227.819 -0.981772 1.50868 0
M  V30 2305 H 224.194 -0.156689 0.735495 0
M  V30 2306 H 226.165 0.238761 2.97443 0
M  V30 2307 C 224.914 -1.53082 3.12188 0
M  V30 2308 H 224.237 -1.06601 3.85326 0
M  V30 2309 H 225.677 -2.09167 3.68816 0
M  V30 2310 C 224.136 -2.49946 2.25895 0
M  V30 2311 O 224.666 -3.53884 1.90076 0
M  V30 2312 N 222.872 -2.2021 1.8962 0
M  V30 2313 H 222.419 -1.35719 2.18948 0
M  V30 2314 H 222.377 -2.85266 1.32176 0
M  V30 2315 N 226.149 -1.5696 0.141893 0
M  V30 2316 C 227.397 -1.95573 -0.509484 0
M  V30 2317 C 227.718 -1.02746 -1.65736 0
M  V30 2318 O 226.988 -0.0880311 -1.95702 0
M  V30 2319 H 225.568 -0.722115 -0.191205 0
M  V30 2320 H 228.23 -1.93697 0.216196 0
M  V30 2321 H 227.326 -2.99171 -0.889 0
M  V30 2322 N 227.627 0.131896 -1.57047 0
M  V30 2323 C 228.852 0.860418 -1.8871 0
M  V30 2324 C 229.277 1.73251 -0.73251 0
M  V30 2325 O 228.635 1.785 0.317429 0
M  V30 2326 C 228.683 1.68047 -3.19049 0
M  V30 2327 O 227.787 2.7862 -3.04047 0
M  V30 2328 H 227.128 0.238743 -0.619595 0
M  V30 2329 H 229.658 0.118169 -2.04258 0
M  V30 2330 H 229.668 2.07238 -3.51449 0
M  V30 2331 H 228.343 1.04018 -4.02682 0
M  V30 2332 H 226.92 2.42726 -2.83088 0
M  V30 2333 N 229.106 1.52395 0.401703 0
M  V30 2334 C 230.352 1.67065 1.14966 0
M  V30 2335 C 230.685 0.403052 1.89971 0
M  V30 2336 O 229.96 -0.598774 1.85054 0
M  V30 2337 C 230.243 2.8975 2.13815 0
M  V30 2338 C 230.096 4.26578 1.42658 0
M  V30 2339 C 231.415 3.07965 3.14397 0
M  V30 2340 H 228.534 0.607968 0.416587 0
M  V30 2341 H 231.176 1.84965 0.434511 0
M  V30 2342 H 229.326 2.74619 2.74803 0
M  V30 2343 H 230.998 4.53451 0.847329 0
M  V30 2344 H 229.241 4.27639 0.72849 0
M  V30 2345 H 229.912 5.08483 2.14823 0
M  V30 2346 H 232.388 3.22043 2.63491 0
M  V30 2347 H 231.264 3.95308 3.80819 0
M  V30 2348 H 231.525 2.21611 3.82545 0
M  V30 2349 N 230.584 -0.659388 1.43143 0
M  V30 2350 C 231.531 -1.77249 1.47822 0
M  V30 2351 C 232.501 -1.62818 0.328558 0
M  V30 2352 O 233.686 -1.83151 0.534838 0
M  V30 2353 C 230.826 -3.15371 1.40126 0
M  V30 2354 C 229.939 -3.4098 2.65249 0
M  V30 2355 C 229.074 -4.68915 2.49584 0
M  V30 2356 C 228.113 -4.87608 3.70006 0
M  V30 2357 N 227.25 -6.06796 3.53189 0
M  V30 2358 H 232.09 -1.72584 2.42938 0
M  V30 2359 H 229.627 -0.842297 1.20598 0
M  V30 2360 H 231.585 -3.9521 1.33659 0
M  V30 2361 H 230.215 -3.19121 0.485964 0
M  V30 2362 H 229.267 -2.55282 2.8202 0
M  V30 2363 H 230.579 -3.50681 3.54717 0
M  V30 2364 H 229.733 -5.56871 2.4079 0
M  V30 2365 H 228.472 -4.61524 1.5763 0
M  V30 2366 H 227.477 -3.9809 3.79215 0
M  V30 2367 H 228.702 -4.96834 4.62961 0
M  V30 2368 H 226.648 -6.00549 2.63965 0
M  V30 2369 H 226.565 -6.17428 4.36255 0
M  V30 2370 H 227.833 -6.9739 3.48236 0
M  V30 2371 N 232.062 -1.29571 -0.897171 0
M  V30 2372 C 233.29 -1.20583 -1.68129 0
M  V30 2373 C 233.705 0.233181 -1.87354 0
M  V30 2374 O 233.062 1.15579 -1.41236 0
M  V30 2375 C 233.113 -1.91772 -3.06441 0
M  V30 2376 O 232.834 -3.30053 -2.88091 0
M  V30 2377 C 234.335 -1.89291 -4.00854 0
M  V30 2378 H 231.555 -0.417826 -0.525036 0
M  V30 2379 H 234.099 -1.70987 -1.12177 0
M  V30 2380 H 232.254 -1.45196 -3.59161 0
M  V30 2381 H 232.668 -3.65942 -3.75748 0
M  V30 2382 H 234.142 -2.43662 -4.95311 0
M  V30 2383 H 234.619 -0.869014 -4.30517 0
M  V30 2384 H 235.225 -2.35622 -3.54066 0
M  V30 2385 N 233.54 1.10788 -1.12088 0
M  V30 2386 C 234.78 1.84297 -0.883974 0
M  V30 2387 C 235.144 1.83036 0.579797 0
M  V30 2388 O 236.345 2.52061 0.933734 0
M  V30 2389 C 234.616 3.27173 -1.43849 0
M  V30 2390 S 236.175 4.17853 -1.33957 0
M  V30 2391 H 232.993 0.635433 -0.318977 0
M  V30 2392 H 235.595 1.33341 -1.4297 0
M  V30 2393 H 234.299 3.25658 -2.49749 0
M  V30 2394 H 233.83 3.83198 -0.890096 0
M  V30 2395 H 235.845 4.95239 -0.308603 0
M  V30 2396 N 235.018 0.912232 1.28515 0
M  V30 2397 C 235.928 0.404506 2.31086 0
M  V30 2398 C 236.944 -0.50707 1.66448 0
M  V30 2399 O 238.12 -0.393624 1.97516 0
M  V30 2400 C 235.185 -0.348572 3.44943 0
M  V30 2401 C 234.246 0.59604 4.25142 0
M  V30 2402 C 233.479 -0.121194 5.33562 0
M  V30 2403 O 233.702 -1.34317 5.5436 0
M  V30 2404 O 232.636 0.542716 5.99448 0
M  V30 2405 H 236.462 1.25579 2.76521 0
M  V30 2406 H 234.047 0.676998 1.33181 0
M  V30 2407 H 235.929 -0.77395 4.14232 0
M  V30 2408 H 234.604 -1.17571 3.01594 0
M  V30 2409 H 233.511 1.07079 3.58448 0
M  V30 2410 H 234.844 1.38995 4.72167 0
M  V30 2411 N 236.496 -1.42363 0.676048 0
M  V30 2412 C 237.742 -2.0182 0.199125 0
M  V30 2413 C 238.075 -1.53339 -1.19168 0
M  V30 2414 O 237.35 -0.736124 -1.80032 0
M  V30 2415 C 237.633 -3.59331 0.235144 0
M  V30 2416 C 237.486 -4.17989 1.66149 0
M  V30 2417 C 238.805 -4.3813 -0.41595 0
M  V30 2418 H 235.924 -0.733293 0.0738311 0
M  V30 2419 H 238.566 -1.69368 0.86107 0
M  V30 2420 H 236.716 -3.87109 -0.328487 0
M  V30 2421 H 238.388 -4.0116 2.27747 0
M  V30 2422 H 236.631 -3.7377 2.20178 0
M  V30 2423 H 237.302 -5.27126 1.63837 0
M  V30 2424 H 239.778 -4.16051 0.0638529 0
M  V30 2425 H 238.654 -5.47717 -0.360115 0
M  V30 2426 H 238.915 -4.16101 -1.49373 0
M  V30 2427 N 237.974 -0.419461 -1.51915 0
M  V30 2428 C 238.937 0.389116 -2.25873 0
M  V30 2429 C 239.937 0.964924 -1.28631 0
M  V30 2430 O 241.127 0.842179 -1.52489 0
M  V30 2431 C 238.259 1.54874 -3.03689 0
M  V30 2432 H 239.452 -0.258799 -2.98781 0
M  V30 2433 H 237.005 -0.172209 -1.55348 0
M  V30 2434 H 237.74 2.23323 -2.35154 0
M  V30 2435 H 237.525 1.14223 -3.75094 0
M  V30 2436 H 239.015 2.12046 -3.59759 0
M  V30 2437 N 239.452 1.56882 -0.150215 0
M  V30 2438 C 240.415 2.1573 0.774157 0
M  V30 2439 C 241.415 1.0999 1.17298 0
M  V30 2440 O 242.605 1.35613 1.09338 0
M  V30 2441 C 239.737 2.72302 2.05096 0
M  V30 2442 H 240.93 2.98752 0.262201 0
M  V30 2443 H 238.483 1.55985 0.099248 0
M  V30 2444 H 239.218 1.92956 2.6065 0
M  V30 2445 H 239.003 3.49665 1.77416 0
M  V30 2446 H 240.493 3.17632 2.71109 0
M  V30 2447 N 240.93 -0.123565 1.57115 0
M  V30 2448 C 242.176 -0.828428 1.85765 0
M  V30 2449 C 242.531 -1.77709 0.737371 0
M  V30 2450 O 241.824 -1.89787 -0.262978 0
M  V30 2451 C 242.018 -1.62016 3.18568 0
M  V30 2452 C 241.847 -0.749663 4.43407 0
M  V30 2453 C 240.617 -0.406251 5.03664 0
M  V30 2454 C 242.815 -0.0693505 5.14253 0
M  V30 2455 N 240.797 0.475389 6.12057 0
M  V30 2456 C 242.168 0.671474 6.16353 0
M  V30 2457 C 244.223 0.00754393 4.97899 0
M  V30 2458 C 242.926 1.48197 7.03868 0
M  V30 2459 C 244.952 0.804845 5.85898 0
M  V30 2460 C 244.314 1.53388 6.87497 0
M  V30 2461 H 240.413 -0.280219 0.73007 0
M  V30 2462 H 242.997 -0.0924183 1.94481 0
M  V30 2463 H 241.168 -2.32724 3.10957 0
M  V30 2464 H 242.9 -2.27 3.35042 0
M  V30 2465 H 239.655 -0.747446 4.67665 0
M  V30 2466 H 240.079 0.907924 6.70884 0
M  V30 2467 H 244.721 -0.541741 4.19315 0
M  V30 2468 H 242.439 2.04242 7.81864 0
M  V30 2469 H 246.025 0.866642 5.75309 0
M  V30 2470 H 244.905 2.1409 7.5441 0
M  V30 2471 N 242.408 -1.52605 -0.393616 0
M  V30 2472 C 243.648 -1.6911 -1.1481 0
M  V30 2473 C 244.012 -0.41969 -1.87357 0
M  V30 2474 O 245.213 -0.461034 -2.64817 0
M  V30 2475 C 243.484 -2.88909 -2.10395 0
M  V30 2476 S 245.043 -3.25977 -2.93742 0
M  V30 2477 H 241.861 -0.595337 -0.38871 0
M  V30 2478 H 244.463 -1.90641 -0.433178 0
M  V30 2479 H 243.167 -3.79672 -1.55812 0
M  V30 2480 H 242.698 -2.69698 -2.86403 0
M  V30 2481 H 244.713 -2.75806 -4.12487 0
M  V30 2482 N 243.887 0.651787 -1.4349 0
M  V30 2483 C 245.298 1.233 -1.40193 0
M  V30 2484 C 245.649 1.9591 -0.106727 0
M  V30 2485 O 244.774 2.01316 0.793773 0
M  V30 2486 C 245.369 2.24257 -2.53957 0
M  V30 2487 C 243.928 2.77852 -2.5392 0
M  V30 2488 C 243.075 1.52517 -2.3159 0
M  V30 2489 H 246.026 0.443717 -1.52371 0
M  V30 2490 H 246.047 3.0646 -2.25528 0
M  V30 2491 H 245.559 1.71382 -3.4821 0
M  V30 2492 H 243.66 3.34786 -1.63551 0
M  V30 2493 H 243.773 3.25299 -3.51735 0
M  V30 2494 H 242.137 1.79915 -1.80285 0
M  V30 2495 H 242.92 1.01574 -3.27929 0
M  V30 2496 N 245.365 1.30045 0.890287 0
M  V30 2497 C 246.611 1.18737 1.64406 0
M  V30 2498 C 246.944 -0.258525 1.92472 0
M  V30 2499 O 246.219 -1.18562 1.54186 0
M  V30 2500 C 246.502 2.01087 2.98724 0
M  V30 2501 C 246.355 3.53867 2.77665 0
M  V30 2502 C 247.674 1.84457 3.9958 0
M  V30 2503 H 244.793 0.432698 0.596608 0
M  V30 2504 H 247.435 1.5962 1.0306 0
M  V30 2505 H 245.585 1.66349 3.51084 0
M  V30 2506 H 247.257 3.98637 2.32133 0
M  V30 2507 H 245.5 3.78318 2.12269 0
M  V30 2508 H 246.171 4.06772 3.7315 0
M  V30 2509 H 248.647 2.14817 3.56361 0
M  V30 2510 H 247.523 2.44411 4.91482 0
M  V30 2511 H 247.784 0.802276 4.3476 0
M  V30 2512 N 246.843 -1.10192 1.12674 0
M  V30 2513 C 247.753 -2.20172 0.810026 0
M  V30 2514 C 248.769 -1.72821 -0.202188 0
M  V30 2515 O 249.945 -2.01369 -0.0351691 0
M  V30 2516 C 247.01 -3.45631 0.272007 0
M  V30 2517 C 246.071 -4.07704 1.34447 0
M  V30 2518 C 245.304 -5.27175 0.832029 0
M  V30 2519 O 245.527 -5.69425 -0.333284 0
M  V30 2520 O 244.461 -5.80168 1.60277 0
M  V30 2521 H 248.287 -2.49701 1.72867 0
M  V30 2522 H 245.872 -1.18977 0.903597 0
M  V30 2523 H 247.754 -4.21394 -0.0230219 0
M  V30 2524 H 246.429 -3.17723 -0.619164 0
M  V30 2525 H 245.336 -3.33614 1.6927 0
M  V30 2526 H 246.669 -4.3982 2.2095 0
M  V30 2527 N 248.321 -0.919034 -1.28029 0
M  V30 2528 C 249.598 -0.473668 -1.89778 0
M  V30 2529 C 249.978 1.04783 -1.83259 0
M  V30 2530 O 249.326 1.8982 -1.27202 0
M  V30 2531 C 249.536 -1.00998 -3.34066 0
M  V30 2532 C 250.884 -1.06525 -4.1102 0
M  V30 2533 O 251.908 -0.958996 -3.43048 0
M  V30 2534 O 250.767 -1.22776 -5.3253 0
M  V30 2535 H 247.861 -0.15098 -0.813101 0
M  V30 2536 H 250.407 -1.01016 -1.36359 0
M  V30 2537 H 249.179 -2.05392 -3.33061 0
M  V30 2538 H 248.802 -0.454626 -3.94992 0
M  V30 2539 N 249.799 1.42003 -0.683588 0
M  V30 2540 C 251.076 1.95112 -0.138075 0
M  V30 2541 C 251.456 1.62359 1.34918 0
M  V30 2542 O 250.804 0.924311 2.08971 0
M  V30 2543 C 251.014 3.46505 -0.416581 0
M  V30 2544 C 252.362 4.23254 -0.337834 0
M  V30 2545 O 253.386 3.54468 -0.35082 0
M  V30 2546 O 252.245 5.45743 -0.287596 0
M  V30 2547 H 249.339 0.826961 -0.00797996 0
M  V30 2548 H 251.885 1.51784 -0.758924 0
M  V30 2549 H 250.657 3.63582 -1.4465 0
M  V30 2550 H 250.28 3.969 0.235839 0
M  V30 2551 N 251.277 0.427512 1.51691 0
M  V30 2552 C 252.505 -0.141191 2.06418 0
M  V30 2553 C 252.92 -1.37303 1.29589 0
M  V30 2554 O 252.277 -1.79059 0.352732 0
M  V30 2555 C 252.328 -0.473266 3.58389 0
M  V30 2556 O 252.049 0.709673 4.32314 0
M  V30 2557 C 253.55 -1.09371 4.29596 0
M  V30 2558 H 250.77 -0.0122747 0.670888 0
M  V30 2559 H 253.314 0.603764 1.95384 0
M  V30 2560 H 251.469 -1.16812 3.69369 0
M  V30 2561 H 251.883 0.42807 5.2275 0
M  V30 2562 H 253.357 -1.27613 5.37046 0
M  V30 2563 H 253.834 -2.072 3.87253 0
M  V30 2564 H 254.44 -0.43853 4.23033 0
M  V30 2565 N 252.755 -1.56801 0.158532 0
M  V30 2566 C 253.705 -2.13923 -0.788738 0
M  V30 2567 C 254.689 -1.07006 -1.2016 0
M  V30 2568 O 255.881 -1.33159 -1.1661 0
M  V30 2569 C 253.01 -2.77348 -2.02319 0
M  V30 2570 C 252.096 -3.91404 -1.6329 0
M  V30 2571 N 252.487 -4.9677 -0.951463 0
M  V30 2572 C 250.785 -4.02326 -1.92482 0
M  V30 2573 C 251.486 -5.76698 -0.761221 0
M  V30 2574 N 250.462 -5.27859 -1.29869 0
M  V30 2575 H 254.264 -2.92757 -0.258995 0
M  V30 2576 H 251.778 -1.62344 -0.0426055 0
M  V30 2577 H 253.775 -3.16639 -2.71192 0
M  V30 2578 H 252.435 -1.99991 -2.558 0
M  V30 2579 H 253.446 -5.14284 -0.610928 0
M  V30 2580 H 250.123 -3.36059 -2.47732 0
M  V30 2581 H 251.513 -6.71529 -0.223284 0
M  V30 2582 N 254.233 0.115231 -1.57178 0
M  V30 2583 C 255.479 0.82357 -1.85325 0
M  V30 2584 C 255.812 1.79349 -0.744814 0
M  V30 2585 O 255.087 1.92899 0.249024 0
M  V30 2586 C 255.37 1.57014 -3.24066 0
M  V30 2587 C 255.223 0.619565 -4.45513 0
M  V30 2588 C 256.542 2.52545 -3.60429 0
M  V30 2589 H 253.661 0.297948 -0.674089 0
M  V30 2590 H 256.303 0.0877138 -1.89797 0
M  V30 2591 H 254.453 2.19742 -3.20383 0
M  V30 2592 H 256.125 0.000837639 -4.613 0
M  V30 2593 H 254.368 -0.0686174 -4.33746 0
M  V30 2594 H 255.039 1.17866 -5.3927 0
M  V30 2595 H 257.515 1.9992 -3.64926 0
M  V30 2596 H 256.391 3.01811 -4.58477 0
M  V30 2597 H 256.652 3.35383 -2.88047 0
M  V30 2598 N 255.711 1.52812 0.385517 0
M  V30 2599 C 257.122 1.5993 0.963293 0
M  V30 2600 C 257.473 0.454302 1.90868 0
M  V30 2601 O 256.598 -0.422132 2.12243 0
M  V30 2602 C 257.193 2.89871 1.75387 0
M  V30 2603 C 255.752 2.99389 2.28129 0
M  V30 2604 C 254.899 2.55071 1.08783 0
M  V30 2605 H 257.85 1.5784 0.164948 0
M  V30 2606 H 257.871 2.76553 2.61341 0
M  V30 2607 H 257.383 3.73186 1.06554 0
M  V30 2608 H 255.484 2.20619 3.00263 0
M  V30 2609 H 255.597 4.04096 2.57377 0
M  V30 2610 H 253.961 2.09473 1.4489 0
M  V30 2611 H 254.744 3.40785 0.414807 0
M  V30 2612 N 257.189 -0.644168 1.43834 0
M  V30 2613 C 258.121 -1.76955 1.45669 0
M  V30 2614 C 259.134 -1.58956 0.351666 0
M  V30 2615 O 260.323 -1.6751 0.616644 0
M  V30 2616 C 257.423 -3.14507 1.26248 0
M  V30 2617 C 256.596 -3.59083 2.49757 0
M  V30 2618 C 255.655 -4.75467 2.25427 0
M  V30 2619 O 254.681 -4.84444 2.98836 0
M  V30 2620 N 255.883 -5.66289 1.27661 0
M  V30 2621 H 258.648 -1.75856 2.42682 0
M  V30 2622 H 256.209 -0.828312 1.39106 0
M  V30 2623 H 258.201 -3.90067 1.0784 0
M  V30 2624 H 256.771 -3.10325 0.376478 0
M  V30 2625 H 255.991 -2.7387 2.8353 0
M  V30 2626 H 257.279 -3.85613 3.31934 0
M  V30 2627 H 256.677 -5.61718 0.670064 0
M  V30 2628 H 255.234 -6.41533 1.15234 0
M  V30 2629 N 258.668 -1.30515 -0.883378 0
M  V30 2630 C 260.079 -1.17509 -1.45081 0
M  V30 2631 C 260.43 0.223605 -1.94922 0
M  V30 2632 O 259.555 1.12041 -1.85137 0
M  V30 2633 C 260.15 -2.12715 -2.63701 0
M  V30 2634 C 258.709 -2.03682 -3.16529 0
M  V30 2635 C 257.856 -2.02706 -1.89224 0
M  V30 2636 H 260.807 -1.42762 -0.693165 0
M  V30 2637 H 260.828 -1.70891 -3.39965 0
M  V30 2638 H 260.34 -3.14505 -2.27395 0
M  V30 2639 H 258.441 -1.05039 -3.57488 0
M  V30 2640 H 258.554 -2.92146 -3.7972 0
M  V30 2641 H 256.918 -1.4753 -2.07622 0
M  V30 2642 H 257.701 -3.06229 -1.55174 0
M  V30 2643 N 260.146 1.09593 -1.13257 0
M  V30 2644 C 261.109 2.14359 -0.811358 0
M  V30 2645 C 262.109 1.59808 0.178377 0
M  V30 2646 O 263.299 1.74132 -0.0484911 0
M  V30 2647 C 260.431 3.40269 -0.207276 0
M  V30 2648 H 261.624 2.44284 -1.73969 0
M  V30 2649 H 259.177 1.25102 -0.936973 0
M  V30 2650 H 259.912 3.15969 0.73036 0
M  V30 2651 H 259.697 3.81154 -0.919992 0
M  V30 2652 H 261.187 4.176 0.000667944 0
M  V30 2653 N 261.624 0.925811 1.2754 0
M  V30 2654 C 262.871 0.565255 1.94451 0
M  V30 2655 C 263.199 -0.89316 1.7278 0
M  V30 2656 O 262.454 -1.65213 1.04895 0
M  V30 2657 C 262.753 0.835296 3.47502 0
M  V30 2658 C 262.419 2.27515 3.89291 0
M  V30 2659 C 261.081 2.66879 4.00411 0
M  V30 2660 C 263.433 3.21158 4.10496 0
M  V30 2661 C 260.761 3.99014 4.30122 0
M  V30 2662 C 263.113 4.52871 4.4169 0
M  V30 2663 C 261.777 4.92072 4.51023 0
M  V30 2664 H 261.047 0.206841 0.711546 0
M  V30 2665 H 263.694 1.16942 1.51647 0
M  V30 2666 H 261.999 0.148442 3.91519 0
M  V30 2667 H 263.696 0.535322 3.97411 0
M  V30 2668 H 260.286 1.95976 3.81171 0
M  V30 2669 H 264.47 2.9195 4.01346 0
M  V30 2670 H 259.726 4.2907 4.35556 0
M  V30 2671 H 263.9 5.25436 4.57045 0
M  V30 2672 H 261.527 5.9449 4.738 0
M  V30 2673 N 263.102 -1.41638 0.69111 0
M  V30 2674 C 264.032 -2.3347 0.037248 0
M  V30 2675 C 265.013 -1.51575 -0.771947 0
M  V30 2676 O 266.198 -1.80126 -0.72582 0
M  V30 2677 C 263.328 -3.35354 -0.903064 0
M  V30 2678 C 262.282 -4.27526 -0.201288 0
M  V30 2679 C 261.608 -5.19747 -1.25565 0
M  V30 2680 C 262.908 -5.13959 0.929689 0
M  V30 2681 H 264.602 -2.88397 0.804227 0
M  V30 2682 H 262.148 -1.38669 0.388189 0
M  V30 2683 H 264.101 -3.98519 -1.36969 0
M  V30 2684 H 262.825 -2.78767 -1.70166 0
M  V30 2685 H 261.484 -3.65779 0.245265 0
M  V30 2686 H 261.132 -4.59479 -2.04666 0
M  V30 2687 H 260.832 -5.8225 -0.791128 0
M  V30 2688 H 262.356 -5.85789 -1.72288 0
M  V30 2689 H 263.77 -5.70718 0.543546 0
M  V30 2690 H 262.167 -5.85379 1.32103 0
M  V30 2691 H 263.237 -4.51389 1.77133 0
M  V30 2692 N 264.58 -0.43555 -1.51462 0
M  V30 2693 C 265.527 0.376797 -2.27703 0
M  V30 2694 C 266.497 1.01838 -1.31219 0
M  V30 2695 O 267.682 1.03762 -1.60119 0
M  V30 2696 C 264.822 1.47301 -3.12084 0
M  V30 2697 C 263.935 0.849744 -4.2356 0
M  V30 2698 C 263.07 1.92086 -4.95254 0
M  V30 2699 C 262.109 1.27593 -5.98654 0
M  V30 2700 N 261.246 2.28833 -6.63762 0
M  V30 2701 H 266.086 -0.279734 -2.96684 0
M  V30 2702 H 263.623 -0.149795 -1.46335 0
M  V30 2703 H 265.581 2.11984 -3.59331 0
M  V30 2704 H 264.211 2.0992 -2.45221 0
M  V30 2705 H 263.263 0.0912529 -3.80291 0
M  V30 2706 H 264.575 0.338878 -4.97648 0
M  V30 2707 H 263.729 2.64435 -5.46039 0
M  V30 2708 H 262.468 2.46545 -4.20793 0
M  V30 2709 H 261.473 0.537893 -5.47162 0
M  V30 2710 H 262.698 0.738693 -6.7507 0
M  V30 2711 H 260.644 2.82375 -5.92115 0
M  V30 2712 H 260.561 1.82632 -7.33608 0
M  V30 2713 H 261.829 3.00671 -7.19178 0
M  V30 2714 N 266.058 1.56714 -0.166846 0
M  V30 2715 C 267.021 2.16539 0.751232 0
M  V30 2716 C 268.021 1.11228 1.16125 0
M  V30 2717 O 269.211 1.36765 1.07894 0
M  V30 2718 C 266.343 2.74462 2.02196 0
M  V30 2719 H 267.536 2.99013 0.230499 0
M  V30 2720 H 265.089 1.56081 0.0826982 0
M  V30 2721 H 265.824 1.95709 2.58589 0
M  V30 2722 H 265.609 3.51527 1.73698 0
M  V30 2723 H 267.099 3.20489 2.67725 0
M  V30 2724 N 267.536 -0.106894 1.57237 0
M  V30 2725 C 268.499 -1.11466 2.0027 0
M  V30 2726 C 269.499 -1.33623 0.894519 0
M  V30 2727 O 270.689 -1.29935 1.16028 0
M  V30 2728 C 267.821 -2.46646 2.35327 0
M  V30 2729 H 269.014 -0.744516 2.90512 0
M  V30 2730 H 266.567 -0.351576 1.52295 0
M  V30 2731 H 267.302 -2.88558 1.48003 0
M  V30 2732 H 267.087 -2.31915 3.16161 0
M  V30 2733 H 268.577 -3.19151 2.69318 0
M  V30 2734 N 269.014 -1.53014 -0.377408 0
M  V30 2735 C 269.924 -1.81557 -1.48574 0
M  V30 2736 C 270.94 -0.703102 -1.59162 0
M  V30 2737 O 272.116 -0.99192 -1.75279 0
M  V30 2738 C 269.181 -1.9889 -2.83978 0
M  V30 2739 C 268.242 -3.22801 -2.83016 0
M  V30 2740 C 267.475 -3.39298 -4.11962 0
M  V30 2741 O 267.698 -2.60345 -5.0752 0
M  V30 2742 O 266.632 -4.32604 -4.18494 0
M  V30 2743 H 270.458 -2.75695 -1.27382 0
M  V30 2744 H 268.043 -1.38248 -0.566373 0
M  V30 2745 H 269.925 -2.11931 -3.6423 0
M  V30 2746 H 268.6 -1.07942 -3.05172 0
M  V30 2747 H 267.507 -3.15193 -2.01505 0
M  V30 2748 H 268.84 -4.13632 -2.66775 0
M  V30 2749 N 270.492 0.636531 -1.44174 0
M  V30 2750 C 271.44 1.76995 -1.50915 0
M  V30 2751 C 272.434 1.65053 -0.381295 0
M  V30 2752 O 273.64 1.71197 -0.55601 0
M  V30 2753 H 270.015 0.584247 -0.473455 0
M  V30 2754 H 271.986 1.68432 -2.4632 0
M  V30 2755 C 270.735 3.15314 -1.46534 0
M  V30 2756 H 270.058 3.25149 -2.32633 0
M  V30 2757 H 271.498 3.9453 -1.55312 0
M  V30 2758 C 269.957 3.3639 -0.185305 0
M  V30 2759 O 270.487 3.94699 0.746688 0
M  V30 2760 N 268.693 2.9046 -0.0901606 0
M  V30 2761 H 268.24 2.43193 -0.849416 0
M  V30 2762 H 268.198 3.04937 0.765553 0
M  V30 2763 N 271.97 1.30982 0.876444 0
M  V30 2764 C 273.217 1.20296 1.62896 0
M  V30 2765 C 273.545 -0.240395 1.93009 0
M  V30 2766 O 272.8 -1.18733 1.55567 0
M  V30 2767 C 273.099 1.98572 2.9716 0
M  V30 2768 C 272.765 3.48125 2.86566 0
M  V30 2769 C 271.427 3.88905 2.83383 0
M  V30 2770 C 273.779 4.43322 2.74071 0
M  V30 2771 C 271.107 5.2316 2.65556 0
M  V30 2772 C 273.459 5.77695 2.57781 0
M  V30 2773 C 272.123 6.17704 2.52979 0
M  V30 2774 H 271.393 0.440193 0.59608 0
M  V30 2775 H 274.04 1.62177 1.01837 0
M  V30 2776 H 272.345 1.49352 3.62217 0
M  V30 2777 H 274.042 1.8769 3.54364 0
M  V30 2778 H 270.632 3.15723 2.89856 0
M  V30 2779 H 274.816 4.12752 2.75589 0
M  V30 2780 H 270.072 5.53241 2.60259 0
M  V30 2781 H 274.246 6.51091 2.47089 0
M  V30 2782 H 271.873 7.21678 2.38924 0
M  V30 2783 N 273.449 -1.08991 1.13837 0
M  V30 2784 C 274.677 -1.85011 0.926202 0
M  V30 2785 C 275.092 -1.8135 -0.525127 0
M  V30 2786 O 274.449 -1.21287 -1.36366 0
M  V30 2787 C 274.5 -3.32802 1.41155 0
M  V30 2788 O 274.221 -3.36444 2.80601 0
M  V30 2789 C 275.722 -4.25649 1.23847 0
M  V30 2790 H 272.942 -0.584249 0.32999 0
M  V30 2791 H 275.486 -1.37688 1.51202 0
M  V30 2792 H 273.641 -3.77536 0.868631 0
M  V30 2793 H 274.055 -4.28657 3.02248 0
M  V30 2794 H 275.529 -5.27485 1.62675 0
M  V30 2795 H 276.006 -4.38828 0.18065 0
M  V30 2796 H 276.612 -3.86735 1.76964 0
M  V30 2797 N 274.927 -0.932562 -1.27047 0
M  V30 2798 C 275.857 -0.452902 -2.29066 0
M  V30 2799 C 276.838 0.489338 -1.62909 0
M  V30 2800 O 278.023 0.393046 -1.90181 0
M  V30 2801 C 275.153 0.290698 -3.46081 0
M  V30 2802 C 274.107 -0.564168 -4.24265 0
M  V30 2803 C 273.433 0.308886 -5.33807 0
M  V30 2804 C 274.733 -1.83112 -4.89149 0
M  V30 2805 H 276.427 -1.30552 -2.69437 0
M  V30 2806 H 273.973 -0.629201 -1.29526 0
M  V30 2807 H 275.926 0.637233 -4.16554 0
M  V30 2808 H 274.65 1.17738 -3.0464 0
M  V30 2809 H 273.309 -0.893477 -3.55545 0
M  V30 2810 H 272.957 1.19467 -4.88607 0
M  V30 2811 H 272.657 -0.259633 -5.87026 0
M  V30 2812 H 274.181 0.650884 -6.07121 0
M  V30 2813 H 275.595 -1.55236 -5.51883 0
M  V30 2814 H 273.992 -2.34353 -5.52448 0
M  V30 2815 H 275.062 -2.54772 -4.12576 0
M  V30 2816 N 276.405 1.4127 -0.698611 0
M  V30 2817 C 277.335 2.33447 -0.049629 0
M  V30 2818 C 278.316 1.51982 0.763898 0
M  V30 2819 O 279.501 1.80509 0.716257 0
M  V30 2820 C 276.631 3.35828 0.885267 0
M  V30 2821 C 275.585 4.27627 0.178613 0
M  V30 2822 C 274.911 5.20406 1.22807 0
M  V30 2823 C 276.211 5.13459 -0.956933 0
M  V30 2824 H 277.905 2.87966 -0.81951 0
M  V30 2825 H 275.451 1.38461 -0.395538 0
M  V30 2826 H 277.404 3.9924 1.34854 0
M  V30 2827 H 276.128 2.79666 1.68685 0
M  V30 2828 H 274.787 3.65643 -0.26466 0
M  V30 2829 H 274.435 4.60558 2.02226 0
M  V30 2830 H 274.135 5.82661 0.760239 0
M  V30 2831 H 275.659 5.86695 1.69179 0
M  V30 2832 H 277.073 5.70421 -0.573805 0
M  V30 2833 H 275.47 5.8467 -1.35205 0
M  V30 2834 H 276.54 4.50443 -1.79524 0
M  V30 2835 N 277.883 0.443576 1.51229 0
M  V30 2836 C 279.129 -0.120975 2.02439 0
M  V30 2837 C 279.462 -1.41815 1.32674 0
M  V30 2838 O 278.737 -1.89373 0.443622 0
M  V30 2839 C 279.02 -0.333291 3.58554 0
M  V30 2840 C 278.873 0.982968 4.38928 0
M  V30 2841 C 280.192 -1.10028 4.26124 0
M  V30 2842 H 277.311 -0.0424923 0.735774 0
M  V30 2843 H 279.953 0.583794 1.80809 0
M  V30 2844 H 278.103 -0.933614 3.77115 0
M  V30 2845 H 279.775 1.61775 4.32003 0
M  V30 2846 H 278.018 1.58611 4.03763 0
M  V30 2847 H 278.689 0.788379 5.46341 0
M  V30 2848 H 281.165 -0.591711 4.11871 0
M  V30 2849 H 280.041 -1.21761 5.35225 0
M  V30 2850 H 280.302 -2.12996 3.87408 0
M  V30 2851 N 279.361 -1.56624 0.175154 0
M  V30 2852 C 280.308 -2.18149 -0.753634 0
M  V30 2853 C 281.278 -1.12265 -1.22417 0
M  V30 2854 O 282.463 -1.40432 -1.29165 0
M  V30 2855 C 279.603 -2.82933 -1.97592 0
M  V30 2856 C 278.716 -4.03289 -1.5486 0
M  V30 2857 C 277.851 -4.55988 -2.72485 0
M  V30 2858 C 276.89 -5.68746 -2.26262 0
M  V30 2859 N 276.027 -6.15938 -3.36994 0
M  V30 2860 H 280.867 -2.9717 -0.222195 0
M  V30 2861 H 278.404 -1.46774 -0.0979422 0
M  V30 2862 H 280.362 -3.18653 -2.69288 0
M  V30 2863 H 278.992 -2.06509 -2.481 0
M  V30 2864 H 278.044 -3.73364 -0.728246 0
M  V30 2865 H 279.356 -4.849 -1.16933 0
M  V30 2866 H 278.51 -4.9391 -3.52332 0
M  V30 2867 H 277.249 -3.73443 -3.13674 0
M  V30 2868 H 276.254 -5.30372 -1.44863 0
M  V30 2869 H 277.479 -6.53095 -1.86127 0
M  V30 2870 H 275.425 -5.36321 -3.77751 0
M  V30 2871 H 275.342 -6.92548 -3.03172 0
M  V30 2872 H 276.61 -6.58511 -4.17114 0
M  V30 2873 N 280.839 0.0985539 -1.57292 0
M  V30 2874 C 281.787 1.1387 -2.02821 0
M  V30 2875 C 282.781 1.41676 -0.928666 0
M  V30 2876 O 283.987 1.41398 -1.11385 0
M  V30 2877 H 280.362 0.384419 -0.646317 0
M  V30 2878 H 282.333 0.728347 -2.89375 0
M  V30 2879 C 281.082 2.45166 -2.46554 0
M  V30 2880 H 280.405 2.24613 -3.3074 0
M  V30 2881 H 281.845 3.16456 -2.8219 0
M  V30 2882 C 280.304 3.09216 -1.33742 0
M  V30 2883 O 280.834 3.96163 -0.66464 0
M  V30 2884 N 279.04 2.69413 -1.08928 0
M  V30 2885 H 278.587 1.98801 -1.63817 0
M  V30 2886 H 278.545 3.12594 -0.336458 0
M  V30 2887 N 282.317 1.53212 0.369288 0
M  V30 2888 C 283.265 1.80054 1.47253 0
M  V30 2889 C 284.259 0.669456 1.55611 0
M  V30 2890 O 285.465 0.852328 1.58541 0
M  V30 2891 H 281.84 0.570034 0.490475 0
M  V30 2892 H 283.811 2.72403 1.21817 0
M  V30 2893 C 282.56 2.00403 2.84137 0
M  V30 2894 H 281.883 2.86876 2.78464 0
M  V30 2895 H 283.323 2.23164 3.60519 0
M  V30 2896 C 281.782 0.782081 3.27697 0
M  V30 2897 O 282.312 -0.0310205 4.01688 0
M  V30 2898 N 280.518 0.606573 2.84199 0
M  V30 2899 H 280.065 1.26939 2.24152 0
M  V30 2900 H 280.023 -0.20962 3.137 0
M  V30 2901 N 283.795 -0.628877 1.44509 0
M  V30 2902 C 285.044 -1.38437 1.4669 0
M  V30 2903 C 285.357 -1.95322 0.104272 0
M  V30 2904 O 286.563 -2.715 0.00362163 0
M  V30 2905 C 285.019 -2.50659 2.5826 0
M  V30 2906 C 284.627 -2.00277 4.0074 0
M  V30 2907 C 286.371 -3.27844 2.69664 0
M  V30 2908 C 284.278 -3.09854 5.0373 0
M  V30 2909 H 283.208 -0.520245 0.545766 0
M  V30 2910 H 285.859 -0.676313 1.70582 0
M  V30 2911 H 284.241 -3.2405 2.27612 0
M  V30 2912 H 285.415 -1.33736 4.40966 0
M  V30 2913 H 283.73 -1.35901 3.93599 0
M  V30 2914 H 286.327 -4.09534 3.43781 0
M  V30 2915 H 286.67 -3.77471 1.75559 0
M  V30 2916 H 287.203 -2.61543 2.99733 0
M  V30 2917 H 283.942 -2.65168 5.99472 0
M  V30 2918 H 283.462 -3.7503 4.68095 0
M  V30 2919 H 285.141 -3.74592 5.27532 0
M  V30 2920 N 285.273 -1.31445 -0.869486 0
M  V30 2921 C 286.519 -1.22347 -1.62489 0
M  V30 2922 C 286.874 0.216204 -1.91181 0
M  V30 2923 O 286.167 1.14977 -1.53268 0
M  V30 2924 C 286.361 -2.00145 -2.96102 0
M  V30 2925 C 286.19 -3.51531 -2.80456 0
M  V30 2926 C 284.96 -4.20882 -2.79618 0
M  V30 2927 C 287.158 -4.46471 -2.5528 0
M  V30 2928 N 285.14 -5.58421 -2.55027 0
M  V30 2929 C 286.511 -5.71682 -2.39957 0
M  V30 2930 C 288.566 -4.35892 -2.40629 0
M  V30 2931 C 287.269 -6.87511 -2.11472 0
M  V30 2932 C 289.295 -5.51505 -2.13532 0
M  V30 2933 C 288.657 -6.75707 -1.98998 0
M  V30 2934 H 284.756 -0.502815 -0.598917 0
M  V30 2935 H 287.34 -1.65639 -1.02332 0
M  V30 2936 H 285.511 -1.59221 -3.54264 0
M  V30 2937 H 287.243 -1.83063 -3.60929 0
M  V30 2938 H 283.998 -3.72857 -2.92018 0
M  V30 2939 H 284.422 -6.30841 -2.45701 0
M  V30 2940 H 289.064 -3.40533 -2.50593 0
M  V30 2941 H 286.782 -7.82897 -2.00245 0
M  V30 2942 H 290.368 -5.45238 -2.02995 0
M  V30 2943 H 289.248 -7.63655 -1.78326 0
M  V30 2944 N 286.751 1.08385 -1.14413 0
M  V30 2945 C 287.981 1.8425 -0.934644 0
M  V30 2946 C 288.389 1.81907 0.520234 0
M  V30 2947 O 287.732 1.22126 1.37226 0
M  V30 2948 C 287.794 3.32853 -1.35828 0
M  V30 2949 C 287.458 3.5893 -2.82875 0
M  V30 2950 C 288.455 3.53756 -3.80989 0
M  V30 2951 C 286.14 3.86934 -3.20293 0
M  V30 2952 C 288.134 3.76216 -5.14529 0
M  V30 2953 C 285.821 4.09047 -4.54008 0
M  V30 2954 C 286.819 4.03682 -5.50936 0
M  V30 2955 O 286.507 4.25214 -6.82238 0
M  V30 2956 H 286.239 0.588502 -0.332628 0
M  V30 2957 H 288.793 1.37792 -1.52324 0
M  V30 2958 H 287.023 3.8007 -0.713019 0
M  V30 2959 H 288.712 3.90154 -1.11957 0
M  V30 2960 H 289.478 3.32135 -3.53428 0
M  V30 2961 H 285.357 3.9023 -2.45442 0
M  V30 2962 H 288.901 3.71943 -5.90173 0
M  V30 2963 H 284.798 4.30151 -4.8129 0
M  V30 2964 H 285.566 4.42619 -6.88499 0
M  V30 2965 N 288.23 0.939286 1.26551 0
M  V30 2966 C 289.641 0.628782 1.75793 0
M  V30 2967 C 289.992 -0.856046 1.7654 0
M  V30 2968 O 289.117 -1.66994 1.3763 0
M  V30 2969 C 289.712 1.13465 3.19235 0
M  V30 2970 C 288.271 0.874601 3.66098 0
M  V30 2971 C 287.418 1.28667 2.45642 0
M  V30 2972 H 290.369 1.1178 1.12654 0
M  V30 2973 H 290.39 0.487609 3.77363 0
M  V30 2974 H 289.902 2.21535 3.1866 0
M  V30 2975 H 288.003 -0.191793 3.72106 0
M  V30 2976 H 288.116 1.50028 4.55004 0
M  V30 2977 H 286.48 0.705109 2.44745 0
M  V30 2978 H 287.263 2.37625 2.47769 0
M  V30 2979 N 289.708 -1.40897 0.706093 0
M  V30 2980 C 290.655 -2.30751 0.0474474 0
M  V30 2981 C 291.625 -1.47678 -0.76029 0
M  V30 2982 O 292.81 -1.76441 -0.726177 0
M  V30 2983 C 289.95 -3.33815 -0.875309 0
M  V30 2984 C 289.063 -4.31961 -0.0580623 0
M  V30 2985 C 288.198 -5.22093 -0.979425 0
M  V30 2986 C 287.237 -6.11902 -0.155706 0
M  V30 2987 N 286.374 -6.94482 -1.03144 0
M  V30 2988 H 291.214 -2.86513 0.819413 0
M  V30 2989 H 288.751 -1.41102 0.415783 0
M  V30 2990 H 290.709 -3.92129 -1.42446 0
M  V30 2991 H 289.339 -2.79579 -1.61356 0
M  V30 2992 H 288.391 -3.75507 0.608147 0
M  V30 2993 H 289.703 -4.95415 0.580082 0
M  V30 2994 H 288.857 -5.85292 -1.59744 0
M  V30 2995 H 287.596 -4.5889 -1.65141 0
M  V30 2996 H 286.601 -5.47742 0.475309 0
M  V30 2997 H 287.826 -6.77162 0.512635 0
M  V30 2998 H 285.772 -6.33877 -1.68924 0
M  V30 2999 H 285.689 -7.54665 -0.449108 0
M  V30 3000 H 286.957 -7.6214 -1.63593 0
M  V30 3001 N 291.186 -0.45159 -1.50991 0
M  V30 3002 C 292.433 0.110074 -2.02201 0
M  V30 3003 C 292.761 1.4146 -1.33489 0
M  V30 3004 O 292.016 1.90617 -0.443125 0
M  V30 3005 C 292.315 0.361728 -3.55565 0
M  V30 3006 C 291.981 -0.858717 -4.42648 0
M  V30 3007 C 290.643 -1.19338 -4.66167 0
M  V30 3008 C 292.995 -1.67221 -4.93646 0
M  V30 3009 C 290.323 -2.34195 -5.37931 0
M  V30 3010 C 292.675 -2.8119 -5.6667 0
M  V30 3011 C 291.339 -3.15094 -5.88449 0
M  V30 3012 H 290.609 0.040279 -0.739904 0
M  V30 3013 H 293.256 -0.601696 -1.81802 0
M  V30 3014 H 291.561 1.15554 -3.74372 0
M  V30 3015 H 293.258 0.80996 -3.92735 0
M  V30 3016 H 289.848 -0.58796 -4.24548 0
M  V30 3017 H 294.032 -1.42686 -4.75347 0
M  V30 3018 H 289.288 -2.6076 -5.53005 0
M  V30 3019 H 293.462 -3.44585 -6.05173 0
M  V30 3020 H 291.089 -4.04204 -6.43835 0
M  V30 3021 N 292.664 1.56529 -0.183458 0
M  V30 3022 C 293.612 2.19873 0.758845 0
M  V30 3023 C 294.606 1.16638 1.22849 0
M  V30 3024 O 295.812 1.3481 1.19274 0
M  V30 3025 H 292.187 0.7045 0.263029 0
M  V30 3026 H 294.158 2.97724 0.200755 0
M  V30 3027 C 292.907 2.86314 1.9728 0
M  V30 3028 H 292.23 3.65487 1.62047 0
M  V30 3029 H 293.67 3.3409 2.61075 0
M  V30 3030 C 292.129 1.86729 2.80418 0
M  V30 3031 O 292.659 1.36031 3.77966 0
M  V30 3032 N 290.865 1.55216 2.45675 0
M  V30 3033 H 290.412 1.96636 1.66409 0
M  V30 3034 H 290.37 0.888388 3.01588 0
M  V30 3035 N 294.142 -0.090211 1.57342 0
M  V30 3036 C 295.389 -0.792807 1.86335 0
M  V30 3037 C 295.717 -1.78494 0.772662 0
M  V30 3038 O 294.972 -1.94305 -0.233258 0
M  V30 3039 C 295.271 -1.55222 3.21933 0
M  V30 3040 C 294.937 -0.701765 4.45406 0
M  V30 3041 C 293.599 -0.467334 4.78925 0
M  V30 3042 C 295.951 -0.11086 5.21082 0
M  V30 3043 C 293.279 0.367785 5.85546 0
M  V30 3044 C 295.631 0.711609 6.28585 0
M  V30 3045 C 294.295 0.956086 6.60617 0
M  V30 3046 H 293.565 -0.290109 0.681849 0
M  V30 3047 H 296.212 -0.0541332 1.91423 0
M  V30 3048 H 294.517 -2.3626 3.12551 0
M  V30 3049 H 296.214 -2.10032 3.41595 0
M  V30 3050 H 292.804 -0.894598 4.1916 0
M  V30 3051 H 296.988 -0.279129 4.95514 0
M  V30 3052 H 292.244 0.566128 6.08773 0
M  V30 3053 H 296.418 1.17632 6.86393 0
M  V30 3054 H 294.045 1.60499 7.43064 0
M  V30 3055 N 295.62 -1.53406 -0.361157 0
M  V30 3056 C 296.845 -1.74024 -1.12829 0
M  V30 3057 C 297.27 -0.470069 -1.82132 0
M  V30 3058 O 296.628 0.57619 -1.719 0
M  V30 3059 C 296.676 -2.90903 -2.13091 0
M  V30 3060 O 295.78 -2.59821 -3.20261 0
M  V30 3061 H 295.121 -0.577804 -0.327168 0
M  V30 3062 H 297.651 -2.00307 -0.41693 0
M  V30 3063 H 297.661 -3.17194 -2.56616 0
M  V30 3064 H 296.336 -3.83034 -1.62042 0
M  V30 3065 H 294.913 -2.44362 -2.81677 0
M  V30 3066 N 297.098 0.621204 -1.44841 0
M  V30 3067 C 298.045 1.73267 -1.5247 0
M  V30 3068 C 299.015 1.6189 -0.371611 0
M  V30 3069 O 300.2 1.81668 -0.58321 0
M  V30 3070 C 297.34 3.11545 -1.48438 0
M  V30 3071 C 296.453 3.33827 -2.74196 0
M  V30 3072 C 295.588 4.62133 -2.61929 0
M  V30 3073 C 294.627 4.77627 -3.82804 0
M  V30 3074 N 293.764 5.97219 -3.69153 0
M  V30 3075 H 298.604 1.66082 -2.47428 0
M  V30 3076 H 296.141 0.810026 -1.22788 0
M  V30 3077 H 298.099 3.91528 -1.4409 0
M  V30 3078 H 296.729 3.1772 -0.570402 0
M  V30 3079 H 295.781 2.47715 -2.88689 0
M  V30 3080 H 297.093 3.41153 -3.6389 0
M  V30 3081 H 296.247 5.50291 -2.5547 0
M  V30 3082 H 294.986 4.57182 -1.69811 0
M  V30 3083 H 293.991 3.87896 -3.89637 0
M  V30 3084 H 295.216 4.84385 -4.75971 0
M  V30 3085 H 293.162 5.93339 -2.79794 0
M  V30 3086 H 293.079 6.05644 -4.52472 0
M  V30 3087 H 294.347 6.87912 -3.66603 0
M  V30 3088 N 298.576 1.31904 0.862503 0
M  V30 3089 C 299.992 1.10724 1.14945 0
M  V30 3090 C 300.192 -0.117421 2.01158 0
M  V30 3091 O 299.248 -0.804595 2.39338 0
M  V30 3092 C 300.561 2.38267 1.83437 0
M  V30 3093 C 302.109 2.43949 1.96106 0
M  V30 3094 C 302.584 3.71394 2.68013 0
M  V30 3095 N 304.075 3.72331 2.75543 0
M  V30 3096 C 304.81 4.67641 3.31812 0
M  V30 3097 N 304.306 5.73313 3.88953 0
M  V30 3098 N 306.099 4.5515 3.29841 0
M  V30 3099 H 298.25 2.10436 0.288191 0
M  V30 3100 H 300.513 0.928705 0.190292 0
M  V30 3101 H 300.219 3.27759 1.27542 0
M  V30 3102 H 300.093 2.48633 2.83657 0
M  V30 3103 H 302.48 1.54922 2.51164 0
M  V30 3104 H 302.561 2.37543 0.949059 0
M  V30 3105 H 302.205 4.60791 2.13621 0
M  V30 3106 H 302.135 3.75069 3.69636 0
M  V30 3107 H 304.626 2.95947 2.34997 0
M  V30 3108 H 304.939 6.42107 4.30022 0
M  V30 3109 H 303.284 5.77077 3.87308 0
M  V30 3110 H 306.475 3.71766 2.84443 0
M  V30 3111 H 306.648 5.29604 3.73394 0
M  V30 3112 N 300.054 -1.07777 1.14986 0
M  V30 3113 C 301.002 -2.16964 0.838406 0
M  V30 3114 C 301.996 -1.68372 -0.186386 0
M  V30 3115 O 303.202 -1.79951 -0.0418465 0
M  V30 3116 H 299.577 -0.708006 0.253439 0
M  V30 3117 H 301.548 -2.40454 1.76704 0
M  V30 3118 C 300.297 -3.4604 0.339335 0
M  V30 3119 H 299.62 -3.83813 1.11927 0
M  V30 3120 H 301.06 -4.23698 0.160021 0
M  V30 3121 C 299.519 -3.23569 -0.938325 0
M  V30 3122 O 300.049 -3.47752 -2.01077 0
M  V30 3123 N 298.255 -2.77079 -0.876117 0
M  V30 3124 H 297.802 -2.576 -0.00322037 0
M  V30 3125 H 297.76 -2.62422 -1.73153 0
M  V30 3126 N 301.532 -0.945985 -1.26051 0
M  V30 3127 C 302.781 -0.591836 -1.92822 0
M  V30 3128 C 303.094 0.873956 -1.7499 0
M  V30 3129 O 304.3 1.33769 -2.36259 0
M  V30 3130 C 302.756 -1.00776 -3.45503 0
M  V30 3131 C 302.364 -2.4955 -3.7206 0
M  V30 3132 C 304.108 -0.725735 -4.1825 0
M  V30 3133 C 302.015 -2.84988 -5.18205 0
M  V30 3134 H 300.945 -0.217635 -0.721908 0
M  V30 3135 H 303.596 -1.14927 -1.43052 0
M  V30 3136 H 301.978 -0.378812 -3.94184 0
M  V30 3137 H 303.152 -3.1739 -3.34066 0
M  V30 3138 H 301.467 -2.75133 -3.12555 0
M  V30 3139 H 304.064 -0.966771 -5.25887 0
M  V30 3140 H 304.407 0.337639 -4.14929 0
M  V30 3141 H 304.94 -1.31463 -3.7545 0
M  V30 3142 H 301.679 -3.90307 -5.26631 0
M  V30 3143 H 301.199 -2.21813 -5.57278 0
M  V30 3144 H 302.878 -2.73712 -5.86252 0
M  V30 3145 N 303.011 1.40521 -0.713556 0
M  V30 3146 C 303.941 2.33381 -0.0743864 0
M  V30 3147 C 304.922 1.52784 0.747735 0
M  V30 3148 O 306.107 1.81258 0.697071 0
M  V30 3149 C 303.237 3.36748 0.849598 0
M  V30 3150 C 302.191 4.27793 0.133247 0
M  V30 3151 C 301.517 5.21679 1.17281 0
M  V30 3152 C 302.817 5.12415 -1.01134 0
M  V30 3153 H 304.511 2.87081 -0.850007 0
M  V30 3154 H 302.057 1.38034 -0.410201 0
M  V30 3155 H 304.01 4.00648 1.30612 0
M  V30 3156 H 302.734 2.81439 1.65709 0
M  V30 3157 H 301.393 3.65342 -0.303426 0
M  V30 3158 H 301.041 4.62677 1.9733 0
M  V30 3159 H 300.741 5.83435 0.698397 0
M  V30 3160 H 302.265 5.88456 1.62947 0
M  V30 3161 H 303.679 5.69781 -0.634274 0
M  V30 3162 H 302.076 5.83203 -1.41399 0
M  V30 3163 H 303.146 4.48514 -1.84292 0
M  V30 3164 N 304.489 0.459591 1.5075 0
M  V30 3165 C 305.9 0.00171547 1.867 0
M  V30 3166 C 306.251 -1.39934 1.37525 0
M  V30 3167 O 305.376 -2.03523 0.735349 0
M  V30 3168 C 305.971 -0.00366298 3.388 0
M  V30 3169 C 304.53 -0.406026 3.74204 0
M  V30 3170 C 303.677 0.38673 2.7459 0
M  V30 3171 H 306.628 0.674413 1.43657 0
M  V30 3172 H 306.649 -0.808371 3.71814 0
M  V30 3173 H 306.161 1.01617 3.74561 0
M  V30 3174 H 304.262 -1.43063 3.4404 0
M  V30 3175 H 304.375 -0.115362 4.78961 0
M  V30 3176 H 302.739 -0.158019 2.54209 0
M  V30 3177 H 303.522 1.40585 3.13194 0
M  V30 3178 N 305.967 -1.56429 0.191757 0
M  V30 3179 C 306.915 -2.20273 -0.747174 0
M  V30 3180 C 307.909 -1.17288 -1.22229 0
M  V30 3181 O 309.115 -1.35441 -1.18557 0
M  V30 3182 H 305.49 -0.705885 -0.259289 0
M  V30 3183 H 307.461 -2.97826 -0.184963 0
M  V30 3184 C 306.21 -2.87356 -1.95759 0
M  V30 3185 H 305.533 -3.66341 -1.60106 0
M  V30 3186 H 306.973 -3.3547 -2.59299 0
M  V30 3187 C 305.432 -1.88213 -2.79423 0
M  V30 3188 O 305.962 -1.38033 -3.7724 0
M  V30 3189 N 304.168 -1.56516 -2.44849 0
M  V30 3190 H 303.715 -1.97516 -1.65364 0
M  V30 3191 H 303.673 -0.904369 -3.01112 0
M  V30 3192 N 307.445 0.0818655 -1.57387 0
M  V30 3193 C 308.694 0.781681 -1.85937 0
M  V30 3194 C 309.007 1.79246 -0.782957 0
M  V30 3195 O 310.213 2.54112 -0.955987 0
M  V30 3196 C 308.669 1.44109 -3.29789 0
M  V30 3197 C 308.277 0.469396 -4.45534 0
M  V30 3198 C 310.021 2.12386 -3.67549 0
M  V30 3199 C 307.928 1.13415 -5.80423 0
M  V30 3200 H 306.858 0.295682 -0.693605 0
M  V30 3201 H 309.509 0.0348051 -1.83467 0
M  V30 3202 H 307.891 2.23588 -3.2684 0
M  V30 3203 H 309.065 -0.294856 -4.59856 0
M  V30 3204 H 307.38 -0.108383 -4.16259 0
M  V30 3205 H 309.977 2.62878 -4.65617 0
M  V30 3206 H 310.32 2.91877 -2.96839 0
M  V30 3207 H 310.853 1.39751 -3.72444 0
M  V30 3208 H 307.592 0.379771 -6.54399 0
M  V30 3209 H 307.112 1.8695 -5.69921 0
M  V30 3210 H 308.791 1.65686 -6.25426 0
M  V30 3211 N 308.923 1.53595 0.353017 0
M  V30 3212 C 310.151 1.74311 1.1146 0
M  V30 3213 C 310.566 0.477854 1.82653 0
M  V30 3214 O 309.923 -0.549977 1.74016 0
M  V30 3215 C 309.974 2.91694 2.13534 0
M  V30 3216 O 309.695 4.13325 1.45238 0
M  V30 3217 C 311.196 3.24384 3.02142 0
M  V30 3218 H 308.416 0.582669 0.332773 0
M  V30 3219 H 310.96 2.00386 0.408107 0
M  V30 3220 H 309.115 2.67977 2.79763 0
M  V30 3221 H 309.529 4.79148 2.13349 0
M  V30 3222 H 311.003 4.09893 3.69718 0
M  V30 3223 H 311.48 2.40282 3.67643 0
M  V30 3224 H 312.086 3.50073 2.41514 0
M  V30 3225 N 310.401 -0.613514 1.45168 0
M  V30 3226 C 311.629 -1.39946 1.5239 0
M  V30 3227 C 312.044 -1.88167 0.154531 0
M  V30 3228 O 311.401 -1.61872 -0.842843 0
M  V30 3229 C 311.452 -2.60795 2.50337 0
M  V30 3230 O 311.173 -2.1458 3.81952 0
M  V30 3231 C 312.674 -3.53723 2.67198 0
M  V30 3232 H 309.894 -0.428593 0.516284 0
M  V30 3233 H 312.438 -0.748753 1.903 0
M  V30 3234 H 310.593 -3.21919 2.15515 0
M  V30 3235 H 311.007 -2.93055 4.34993 0
M  V30 3236 H 312.481 -4.35079 3.39721 0
M  V30 3237 H 312.958 -4.0368 1.73029 0
M  V30 3238 H 313.564 -2.98456 3.02992 0
M  V30 3239 N 311.879 -1.3236 -0.855495 0
M  V30 3240 C 313.107 -1.2587 -1.64208 0
M  V30 3241 C 313.522 0.173457 -1.88002 0
M  V30 3242 O 312.879 1.11027 -1.44842 0
M  V30 3243 C 312.93 -2.01424 -3.00184 0
M  V30 3244 O 312.651 -3.39051 -2.77445 0
M  V30 3245 C 314.152 -2.01948 -3.94629 0
M  V30 3246 H 311.372 -0.434318 -0.511477 0
M  V30 3247 H 313.916 -1.74469 -1.0668 0
M  V30 3248 H 312.071 -1.56549 -3.5436 0
M  V30 3249 H 312.485 -3.77711 -3.63916 0
M  V30 3250 H 313.959 -2.59297 -4.87308 0
M  V30 3251 H 314.436 -1.00554 -4.27534 0
M  V30 3252 H 315.042 -2.46767 -3.4639 0
M  V30 3253 N 313.357 1.07166 -1.15556 0
M  V30 3254 C 314.587 1.83248 -0.954133 0
M  V30 3255 C 314.995 1.82449 0.500911 0
M  V30 3256 O 314.338 1.23575 1.35923 0
M  V30 3257 C 314.4 3.31393 -1.39351 0
M  V30 3258 C 314.064 3.5591 -2.86666 0
M  V30 3259 C 315.061 3.49695 -3.8472 0
M  V30 3260 C 312.746 3.83515 -3.24379 0
M  V30 3261 C 314.74 3.70737 -5.18491 0
M  V30 3262 C 312.427 4.04209 -4.58321 0
M  V30 3263 C 313.425 3.97815 -5.55186 0
M  V30 3264 O 313.113 4.17954 -6.86709 0
M  V30 3265 H 312.845 0.584941 -0.338851 0
M  V30 3266 H 315.399 1.36169 -1.53777 0
M  V30 3267 H 313.629 3.79292 -0.75329 0
M  V30 3268 H 315.318 3.88945 -1.16089 0
M  V30 3269 H 316.084 3.28368 -3.56931 0
M  V30 3270 H 311.963 3.87605 -2.49567 0
M  V30 3271 H 315.507 3.65663 -5.94085 0
M  V30 3272 H 311.404 4.25023 -4.85825 0
M  V30 3273 H 312.172 4.35291 -6.93155 0
M  V30 3274 N 314.835 0.952656 1.25548 0
M  V30 3275 C 315.765 0.489287 2.28316 0
M  V30 3276 C 316.746 -0.463359 1.63667 0
M  V30 3277 O 317.931 -0.36274 1.90782 0
M  V30 3278 C 315.061 -0.235603 3.465 0
M  V30 3279 C 314.015 0.631593 4.23314 0
M  V30 3280 C 313.341 -0.223923 5.34231 0
M  V30 3281 C 314.641 1.90871 4.86174 0
M  V30 3282 H 316.335 1.34822 2.67326 0
M  V30 3283 H 313.881 0.649728 1.28509 0
M  V30 3284 H 315.834 -0.570882 4.17515 0
M  V30 3285 H 314.558 -1.12877 3.06474 0
M  V30 3286 H 313.217 0.949929 3.54079 0
M  V30 3287 H 312.865 -1.11678 4.90446 0
M  V30 3288 H 312.565 0.35299 5.86539 0
M  V30 3289 H 314.089 -0.554214 6.0808 0
M  V30 3290 H 315.503 1.63997 5.49343 0
M  V30 3291 H 313.9 2.43112 5.4865 0
M  V30 3292 H 314.97 2.61304 4.08471 0
M  V30 3293 N 316.313 -1.40141 0.720998 0
M  V30 3294 C 317.26 -2.30688 0.071919 0
M  V30 3295 C 318.23 -1.48476 -0.744584 0
M  V30 3296 O 319.415 -1.77201 -0.707423 0
M  V30 3297 C 316.555 -3.34724 -0.839855 0
M  V30 3298 C 315.668 -4.31998 -0.0122438 0
M  V30 3299 C 314.803 -5.23102 -0.923995 0
M  V30 3300 C 313.842 -6.12033 -0.0907969 0
M  V30 3301 N 312.979 -6.95537 -0.957718 0
M  V30 3302 H 317.819 -2.85628 0.849755 0
M  V30 3303 H 315.356 -1.40653 0.430726 0
M  V30 3304 H 317.314 -3.93618 -1.38279 0
M  V30 3305 H 315.944 -2.81274 -1.58381 0
M  V30 3306 H 314.996 -3.74841 0.64794 0
M  V30 3307 H 316.308 -4.94772 0.632595 0
M  V30 3308 H 315.462 -5.86953 -1.53527 0
M  V30 3309 H 314.201 -4.60615 -1.60264 0
M  V30 3310 H 313.206 -5.47207 0.533377 0
M  V30 3311 H 314.431 -6.76581 0.584428 0
M  V30 3312 H 312.377 -6.35633 -1.62192 0
M  V30 3313 H 312.294 -7.55099 -0.36904 0
M  V30 3314 H 313.562 -7.63832 -1.555 0
M  V30 3315 N 317.792 -0.46758 -1.50504 0
M  V30 3316 C 319.017 0.0886943 -2.0721 0
M  V30 3317 C 319.442 1.33057 -1.32956 0
M  V30 3318 O 318.8 1.77354 -0.376197 0
M  V30 3319 C 318.848 0.359202 -3.58806 0
M  V30 3320 O 317.952 1.44034 -3.8643 0
M  V30 3321 H 317.293 -0.0114349 -0.663902 0
M  V30 3322 H 319.823 -0.657613 -1.93744 0
M  V30 3323 H 319.833 0.600742 -4.03553 0
M  V30 3324 H 318.508 -0.548311 -4.1227 0
M  V30 3325 H 317.085 1.18638 -3.53524 0
M  V30 3326 N 319.27 1.56325 -0.20005 0
M  V30 3327 C 320.51 1.99619 0.439519 0
M  V30 3328 C 320.874 1.08423 1.58456 0
M  V30 3329 O 322.075 1.40973 2.28867 0
M  V30 3330 C 320.346 3.46314 0.883258 0
M  V30 3331 S 321.905 4.11634 1.51997 0
M  V30 3332 H 318.723 0.697007 0.140363 0
M  V30 3333 H 321.325 1.93118 -0.304282 0
M  V30 3334 H 320.029 4.10381 0.0398967 0
M  V30 3335 H 319.56 3.56643 1.6604 0
M  V30 3336 H 321.575 4.09049 2.8088 0
M  V30 3337 N 320.748 -0.0735177 1.57428 0
M  V30 3338 C 321.997 -0.771809 1.86349 0
M  V30 3339 C 322.31 -1.78828 0.792452 0
M  V30 3340 O 323.516 -2.53602 0.96945 0
M  V30 3341 C 321.972 -1.42358 3.30548 0
M  V30 3342 C 321.58 -0.445761 4.45777 0
M  V30 3343 C 323.324 -2.10434 3.6867 0
M  V30 3344 C 321.231 -1.10335 5.81016 0
M  V30 3345 H 320.161 -0.291999 0.695164 0
M  V30 3346 H 322.812 -0.0250749 1.83483 0
M  V30 3347 H 321.194 -2.21852 3.28021 0
M  V30 3348 H 322.368 0.319239 4.59693 0
M  V30 3349 H 320.683 0.130457 4.16196 0
M  V30 3350 H 323.28 -2.60405 4.67004 0
M  V30 3351 H 323.623 -2.90298 2.98383 0
M  V30 3352 H 324.156 -1.37773 3.7318 0
M  V30 3353 H 320.895 -0.345061 6.54591 0
M  V30 3354 H 320.415 -1.83925 5.70904 0
M  V30 3355 H 322.094 -1.62367 6.26295 0
M  V30 3356 N 322.226 -1.5378 -0.344866 0
M  V30 3357 C 323.456 -1.74646 -1.10374 0
M  V30 3358 C 323.864 -0.48491 -1.8288 0
M  V30 3359 O 323.207 0.553062 -1.75177 0
M  V30 3360 C 323.269 -2.87145 -2.16306 0
M  V30 3361 C 322.933 -4.26795 -1.63386 0
M  V30 3362 C 323.93 -5.08412 -1.08688 0
M  V30 3363 C 321.615 -4.73276 -1.68272 0
M  V30 3364 C 323.609 -6.34609 -0.595792 0
M  V30 3365 C 321.296 -5.99446 -1.18776 0
M  V30 3366 C 322.294 -6.79946 -0.645215 0
M  V30 3367 O 321.982 -8.03745 -0.157626 0
M  V30 3368 H 321.714 -0.587112 -0.335075 0
M  V30 3369 H 324.268 -2.01403 -0.403252 0
M  V30 3370 H 322.498 -2.55909 -2.89909 0
M  V30 3371 H 324.187 -2.95992 -2.77747 0
M  V30 3372 H 324.953 -4.73666 -1.04236 0
M  V30 3373 H 320.832 -4.10677 -2.09442 0
M  V30 3374 H 324.376 -6.97389 -0.171654 0
M  V30 3375 H 320.273 -6.33687 -1.22928 0
M  V30 3376 H 321.041 -8.18038 -0.275037 0
M  V30 3377 N 323.704 0.605807 -1.45491 0
M  V30 3378 C 324.981 1.36522 -1.40075 0
M  V30 3379 C 325.361 2.10976 -0.0722744 0
M  V30 3380 O 324.709 2.08007 0.945808 0
M  V30 3381 C 324.919 2.31056 -2.61561 0
M  V30 3382 C 326.267 2.93608 -3.06724 0
M  V30 3383 O 327.291 2.41376 -2.61946 0
M  V30 3384 O 326.15 3.88421 -3.84437 0
M  V30 3385 H 323.244 0.612248 -0.555951 0
M  V30 3386 H 325.79 0.628747 -1.57623 0
M  V30 3387 H 324.562 1.75311 -3.49831 0
M  V30 3388 H 324.185 3.12081 -2.46356 0
M  V30 3389 N 325.182 1.32811 0.848464 0
M  V30 3390 C 326.145 1.22194 1.9391 0
M  V30 3391 C 327.145 0.143404 1.60159 0
M  V30 3392 O 328.335 0.394253 1.6968 0
M  V30 3393 C 325.467 0.88067 3.29328 0
M  V30 3394 H 326.66 2.19127 2.04752 0
M  V30 3395 H 324.213 1.16731 1.0394 0
M  V30 3396 H 324.948 -0.0865776 3.24184 0
M  V30 3397 H 324.733 1.66052 3.55203 0
M  V30 3398 H 326.223 0.830871 4.09251 0
M  V30 3399 N 326.66 -1.06551 1.16123 0
M  V30 3400 C 327.607 -2.13961 0.865414 0
M  V30 3401 C 328.577 -1.65066 -0.185055 0
M  V30 3402 O 329.762 -1.90732 -0.05083 0
M  V30 3403 C 326.902 -3.43113 0.369776 0
M  V30 3404 C 326.015 -4.05756 1.48276 0
M  V30 3405 C 325.15 -5.22773 0.942414 0
M  V30 3406 C 324.189 -5.77395 2.03179 0
M  V30 3407 N 323.326 -6.85731 1.50721 0
M  V30 3408 H 328.166 -2.38605 1.78527 0
M  V30 3409 H 325.703 -1.17072 0.890646 0
M  V30 3410 H 327.661 -4.17151 0.0640643 0
M  V30 3411 H 326.291 -3.18695 -0.513143 0
M  V30 3412 H 325.343 -3.29292 1.9045 0
M  V30 3413 H 326.655 -4.42351 2.30493 0
M  V30 3414 H 325.809 -6.03827 0.589729 0
M  V30 3415 H 324.548 -4.87618 0.0895191 0
M  V30 3416 H 323.553 -4.94981 2.3932 0
M  V30 3417 H 324.778 -6.14603 2.8886 0
M  V30 3418 H 322.724 -6.52499 0.676811 0
M  V30 3419 H 322.641 -7.21254 2.26557 0
M  V30 3420 H 323.909 -7.7047 1.18303 0
M  V30 3421 N 328.138 -0.959301 -1.25041 0
M  V30 3422 C 329.366 -0.633949 -1.96948 0
M  V30 3423 C 329.781 0.794916 -1.7125 0
M  V30 3424 O 329.138 1.53231 -0.991287 0
M  V30 3425 C 329.189 -0.888805 -3.50403 0
M  V30 3426 O 328.91 -2.26149 -3.75218 0
M  V30 3427 C 330.411 -0.576482 -4.39536 0
M  V30 3428 H 327.631 -0.237263 -0.627652 0
M  V30 3429 H 330.175 -1.28495 -1.59089 0
M  V30 3430 H 328.33 -0.284145 -3.86357 0
M  V30 3431 H 328.744 -2.33514 -4.6965 0
M  V30 3432 H 330.218 -0.805314 -5.46094 0
M  V30 3433 H 330.695 0.489075 -4.36468 0
M  V30 3434 H 331.301 -1.16067 -4.09156 0
M  V30 3435 N 329.616 1.39756 -0.72842 0
M  V30 3436 C 330.893 1.94574 -0.200079 0
M  V30 3437 C 331.273 1.66569 1.29684 0
M  V30 3438 O 330.621 0.990326 2.05924 0
M  V30 3439 C 330.831 3.45004 -0.526608 0
M  V30 3440 C 332.179 4.21965 -0.472318 0
M  V30 3441 O 333.203 3.53173 -0.463413 0
M  V30 3442 O 332.062 5.44552 -0.461075 0
M  V30 3443 H 329.156 0.826289 -0.0342851 0
M  V30 3444 H 331.702 1.49293 -0.806829 0
M  V30 3445 H 330.474 3.58796 -1.56144 0
M  V30 3446 H 330.097 3.97449 0.109449 0
M  V30 3447 N 331.094 0.475555 1.50254 0
M  V30 3448 C 332.505 0.0215174 1.86688 0
M  V30 3449 C 332.856 -1.38467 1.39001 0
M  V30 3450 O 331.981 -2.02732 0.756894 0
M  V30 3451 C 332.576 0.0322715 3.38785 0
M  V30 3452 C 331.135 -0.366314 3.74613 0
M  V30 3453 C 330.282 0.415832 2.74164 0
M  V30 3454 H 333.233 0.689612 1.42934 0
M  V30 3455 H 333.254 -0.76889 3.7265 0
M  V30 3456 H 332.766 1.05584 3.73462 0
M  V30 3457 H 330.867 -1.39406 3.45538 0
M  V30 3458 H 330.98 -0.064555 4.79057 0
M  V30 3459 H 329.344 -0.131048 2.54363 0
M  V30 3460 H 330.127 1.43899 3.11686 0
M  V30 3461 N 332.573 -1.56217 0.208337 0
M  V30 3462 C 333.82 -1.97949 -0.42692 0
M  V30 3463 C 334.148 -1.09562 -1.60706 0
M  V30 3464 O 333.403 -0.137616 -1.95216 0
M  V30 3465 C 333.702 -3.45441 -0.916797 0
M  V30 3466 C 333.368 -4.50646 0.151391 0
M  V30 3467 C 332.03 -4.79139 0.444867 0
M  V30 3468 C 334.382 -5.13811 0.874492 0
M  V30 3469 C 331.71 -5.68084 1.46619 0
M  V30 3470 C 334.062 -6.03861 1.88506 0
M  V30 3471 C 332.726 -6.30704 2.18559 0
M  V30 3472 H 331.996 -0.724345 -0.156221 0
M  V30 3473 H 334.643 -1.89006 0.308084 0
M  V30 3474 H 332.948 -3.51521 -1.73032 0
M  V30 3475 H 334.645 -3.75094 -1.41794 0
M  V30 3476 H 331.235 -4.28511 -0.0875068 0
M  V30 3477 H 335.419 -4.91879 0.660996 0
M  V30 3478 H 330.675 -5.87151 1.7048 0
M  V30 3479 H 334.849 -6.51861 2.45051 0
M  V30 3480 H 332.476 -6.99424 2.97843 0
M  V30 3481 N 334.051 0.0651679 -1.57465 0
M  V30 3482 C 335.291 0.768329 -1.8941 0
M  V30 3483 C 335.655 1.74406 -0.802894 0
M  V30 3484 O 336.856 2.49281 -1.0056 0
M  V30 3485 C 335.127 1.45199 -3.26576 0
M  V30 3486 S 336.686 2.1893 -3.80283 0
M  V30 3487 H 333.504 0.255359 -0.663561 0
M  V30 3488 H 336.106 0.024167 -1.95485 0
M  V30 3489 H 334.81 0.728123 -4.03889 0
M  V30 3490 H 334.341 2.23545 -3.23715 0
M  V30 3491 H 336.356 3.45551 -3.56102 0
M  V30 3492 N 335.529 1.53961 0.336706 0
M  V30 3493 C 336.94 1.62914 0.911925 0
M  V30 3494 C 337.291 0.514795 1.89326 0
M  V30 3495 O 336.416 -0.354395 2.13478 0
M  V30 3496 C 337.011 2.95304 1.66076 0
M  V30 3497 C 335.57 3.06496 2.18489 0
M  V30 3498 C 334.717 2.58403 1.00613 0
M  V30 3499 H 337.668 1.58285 0.114649 0
M  V30 3500 H 337.689 2.84727 2.5241 0
M  V30 3501 H 337.201 3.76387 0.946276 0
M  V30 3502 H 335.302 2.3006 2.93092 0
M  V30 3503 H 335.415 4.1208 2.44391 0
M  V30 3504 H 333.779 2.13977 1.38152 0
M  V30 3505 H 334.562 3.41932 0.306179 0
M  V30 3506 N 337.007 -0.598083 1.45811 0
M  V30 3507 C 338.256 -1.35295 1.49594 0
M  V30 3508 C 338.569 -1.95057 0.145679 0
M  V30 3509 O 339.775 -2.71431 0.0612099 0
M  V30 3510 C 338.231 -2.45124 2.63519 0
M  V30 3511 C 337.839 -1.91732 4.04899 0
M  V30 3512 C 339.583 -3.2205 2.76558 0
M  V30 3513 C 337.49 -2.991 5.1019 0
M  V30 3514 H 336.42 -0.508552 0.556679 0
M  V30 3515 H 339.071 -0.639977 1.71978 0
M  V30 3516 H 337.453 -3.19149 2.34435 0
M  V30 3517 H 338.627 -1.24352 4.43704 0
M  V30 3518 H 336.942 -1.27522 3.96393 0
M  V30 3519 H 339.539 -4.0215 3.52391 0
M  V30 3520 H 339.882 -3.73663 1.83526 0
M  V30 3521 H 340.415 -2.55127 3.05213 0
M  V30 3522 H 337.154 -2.52393 6.04961 0
M  V30 3523 H 336.674 -3.65017 4.75944 0
M  V30 3524 H 338.353 -3.63318 5.35359 0
M  V30 3525 N 338.485 -1.33259 -0.841409 0
M  V30 3526 C 339.732 -1.24572 -1.5965 0
M  V30 3527 C 340.06 0.189137 -1.93578 0
M  V30 3528 O 339.315 1.14566 -1.5866 0
M  V30 3529 C 339.614 -2.06381 -2.9179 0
M  V30 3530 C 339.28 -3.556 -2.77235 0
M  V30 3531 C 337.942 -3.96282 -2.72973 0
M  V30 3532 C 340.294 -4.50433 -2.62221 0
M  V30 3533 C 337.622 -5.30017 -2.51592 0
M  V30 3534 C 339.974 -5.84327 -2.42374 0
M  V30 3535 C 338.638 -6.24194 -2.36512 0
M  V30 3536 H 337.908 -0.455842 -0.5842 0
M  V30 3537 H 340.555 -1.6482 -0.975016 0
M  V30 3538 H 338.86 -1.58903 -3.5813 0
M  V30 3539 H 340.557 -1.97019 -3.49263 0
M  V30 3540 H 337.147 -3.23298 -2.81384 0
M  V30 3541 H 341.331 -4.19914 -2.64549 0
M  V30 3542 H 336.587 -5.59947 -2.45499 0
M  V30 3543 H 340.761 -6.57414 -2.29739 0
M  V30 3544 H 338.388 -7.27759 -2.19706 0
M  V30 3545 N 339.963 1.05934 -1.16686 0
M  V30 3546 C 341.379 1.30938 -0.912542 0
M  V30 3547 C 341.579 1.96803 0.432533 0
M  V30 3548 O 340.635 2.23693 1.17123 0
M  V30 3549 C 341.948 2.18649 -2.06429 0
M  V30 3550 C 343.496 2.32055 -2.10047 0
M  V30 3551 C 343.971 3.23122 -3.24586 0
M  V30 3552 N 345.462 3.30706 -3.24327 0
M  V30 3553 C 346.197 4.01273 -4.09594 0
M  V30 3554 N 345.693 4.74332 -5.04956 0
M  V30 3555 N 347.486 3.97361 -3.97569 0
M  V30 3556 H 339.637 0.615777 -2.03278 0
M  V30 3557 H 341.9 0.334077 -0.887185 0
M  V30 3558 H 341.606 1.77534 -3.03603 0
M  V30 3559 H 341.48 3.19252 -2.00894 0
M  V30 3560 H 343.867 2.72415 -1.13464 0
M  V30 3561 H 343.948 1.31107 -2.19647 0
M  V30 3562 H 343.592 2.83477 -4.2143 0
M  V30 3563 H 343.522 4.24057 -3.12223 0
M  V30 3564 H 346.013 2.78644 -2.55276 0
M  V30 3565 H 346.326 5.25716 -5.6643 0
M  V30 3566 H 344.671 4.733 -5.08933 0
M  V30 3567 H 347.862 3.39405 -3.22369 0
M  V30 3568 H 348.035 4.52089 -4.64241 0
M  V30 3569 N 341.441 0.965919 1.2453 0
M  V30 3570 C 342.371 0.513476 2.27784 0
M  V30 3571 C 343.352 -0.445974 1.6415 0
M  V30 3572 O 344.537 -0.342485 1.91156 0
M  V30 3573 C 341.667 -0.198839 3.4673 0
M  V30 3574 C 340.621 0.676456 4.2262 0
M  V30 3575 C 339.947 -0.167248 5.34438 0
M  V30 3576 C 341.247 1.96017 4.84123 0
M  V30 3577 H 342.941 1.3765 2.65881 0
M  V30 3578 H 340.487 0.663321 1.27813 0
M  V30 3579 H 342.44 -0.526567 4.18097 0
M  V30 3580 H 341.164 -1.0962 3.07654 0
M  V30 3581 H 339.823 0.98743 3.53052 0
M  V30 3582 H 339.471 -1.0647 4.91603 0
M  V30 3583 H 339.171 0.415181 5.86131 0
M  V30 3584 H 340.695 -0.489688 6.08633 0
M  V30 3585 H 342.109 1.69814 5.47573 0
M  V30 3586 H 340.506 2.48918 5.4604 0
M  V30 3587 H 341.576 2.65622 4.05676 0
M  V30 3588 N 342.919 -1.39368 0.735821 0
M  V30 3589 C 344.167 -2.00101 0.283562 0
M  V30 3590 C 344.488 -1.5868 -1.13338 0
M  V30 3591 O 343.758 -0.835423 -1.77193 0
M  V30 3592 H 342.338 -0.740024 0.101851 0
M  V30 3593 H 345 -1.70404 0.945962 0
M  V30 3594 H 344.096 -3.10323 0.332604 0
M  V30 3595 N 344.397 -0.483516 -1.5 0
M  V30 3596 C 345.344 0.304164 -2.28787 0
M  V30 3597 C 346.314 0.976114 -1.34392 0
M  V30 3598 O 347.499 0.986156 -1.63339 0
M  V30 3599 C 344.639 1.37298 -3.16612 0
M  V30 3600 C 343.752 0.714561 -4.26049 0
M  V30 3601 C 342.887 1.76232 -5.01114 0
M  V30 3602 C 341.926 1.08483 -6.0241 0
M  V30 3603 N 341.063 2.076 -6.70706 0
M  V30 3604 H 345.903 -0.373981 -2.95644 0
M  V30 3605 H 343.44 -0.196275 -1.45785 0
M  V30 3606 H 345.398 2.00445 -3.65893 0
M  V30 3607 H 344.028 2.02012 -2.51776 0
M  V30 3608 H 343.08 -0.0297798 -3.80388 0
M  V30 3609 H 344.392 0.180383 -4.98474 0
M  V30 3610 H 343.546 2.46929 -5.54176 0
M  V30 3611 H 342.285 2.33033 -4.28424 0
M  V30 3612 H 341.29 0.363545 -5.48597 0
M  V30 3613 H 342.515 0.523551 -6.77079 0
M  V30 3614 H 340.461 2.63394 -6.00799 0
M  V30 3615 H 340.378 1.59201 -7.39047 0
M  V30 3616 H 341.646 2.77639 -7.2838 0
M  V30 3617 N 345.875 1.56104 -0.216619 0
M  V30 3618 C 347.124 1.97348 0.416744 0
M  V30 3619 C 347.437 1.10715 1.6125 0
M  V30 3620 O 348.643 1.41836 2.31506 0
M  V30 3621 C 347.099 3.51059 0.792835 0
M  V30 3622 C 346.707 4.46387 -0.379828 0
M  V30 3623 C 348.451 4.01026 1.39208 0
M  V30 3624 C 346.358 5.91397 0.0184223 0
M  V30 3625 H 345.288 0.736942 0.159475 0
M  V30 3626 H 347.939 1.80827 -0.31205 0
M  V30 3627 H 346.321 3.63162 1.57891 0
M  V30 3628 H 347.495 4.46029 -1.15737 0
M  V30 3629 H 345.81 4.06734 -0.891979 0
M  V30 3630 H 348.407 5.0686 1.70286 0
M  V30 3631 H 348.75 3.46587 2.30614 0
M  V30 3632 H 349.283 3.92125 0.669537 0
M  V30 3633 H 346.022 6.49807 -0.862002 0
M  V30 3634 H 345.542 5.94961 0.760384 0
M  V30 3635 H 347.221 6.45455 0.446818 0
M  V30 3636 N 347.353 -0.0568162 1.57498 0
M  V30 3637 C 348.599 -0.75422 1.88253 0
M  V30 3638 C 348.932 -1.76461 0.810865 0
M  V30 3639 O 348.207 -1.93691 -0.177259 0
M  V30 3640 C 348.49 -1.44878 3.2967 0
M  V30 3641 C 348.343 -0.453789 4.47505 0
M  V30 3642 C 349.662 -2.38994 3.69554 0
M  V30 3643 H 346.781 -0.272724 0.684683 0
M  V30 3644 H 349.423 -0.0172113 1.89992 0
M  V30 3645 H 347.573 -2.077 3.28318 0
M  V30 3646 H 349.245 0.170371 4.60985 0
M  V30 3647 H 347.488 0.229552 4.33192 0
M  V30 3648 H 348.159 -0.977699 5.43273 0
M  V30 3649 H 350.635 -1.86239 3.72095 0
M  V30 3650 H 349.511 -2.84587 4.69363 0
M  V30 3651 H 349.772 -3.24461 3.00296 0
M  V30 3652 N 348.832 -1.54138 -0.328536 0
M  V30 3653 C 349.742 -1.86192 -1.42723 0
M  V30 3654 C 350.758 -0.753382 -1.56844 0
M  V30 3655 O 351.934 -1.04718 -1.72035 0
M  V30 3656 C 348.999 -2.07824 -2.77507 0
M  V30 3657 C 348.06 -3.31641 -2.72603 0
M  V30 3658 C 347.293 -3.52232 -4.00959 0
M  V30 3659 O 347.516 -2.7636 -4.9898 0
M  V30 3660 O 346.45 -4.45699 -4.0452 0
M  V30 3661 H 350.276 -2.79608 -1.18547 0
M  V30 3662 H 347.861 -1.3998 -0.522104 0
M  V30 3663 H 349.743 -2.23411 -3.57303 0
M  V30 3664 H 348.418 -1.17596 -3.01584 0
M  V30 3665 H 347.325 -3.21444 -1.91376 0
M  V30 3666 H 348.658 -4.2191 -2.53481 0
M  V30 3667 N 350.31 0.590341 -1.46126 0
M  V30 3668 C 351.258 1.72105 -1.5647 0
M  V30 3669 C 352.252 1.63756 -0.433612 0
M  V30 3670 O 353.458 1.69342 -0.610194 0
M  V30 3671 H 349.833 0.568889 -0.491802 0
M  V30 3672 H 351.804 1.6051 -2.51553 0
M  V30 3673 C 350.553 3.10493 -1.56491 0
M  V30 3674 H 349.876 3.17583 -2.4286 0
M  V30 3675 H 351.316 3.8939 -1.67785 0
M  V30 3676 C 349.775 3.3563 -0.292231 0
M  V30 3677 O 350.305 3.96875 0.620739 0
M  V30 3678 N 348.511 2.90026 -0.182523 0
M  V30 3679 H 348.058 2.40367 -0.926356 0
M  V30 3680 H 348.016 3.07218 0.668152 0
M  V30 3681 N 351.788 1.33704 0.83433 0
M  V30 3682 C 352.751 1.24244 1.92603 0
M  V30 3683 C 353.751 0.160383 1.59998 0
M  V30 3684 O 354.941 0.412228 1.69252 0
M  V30 3685 C 352.073 0.91555 3.28376 0
M  V30 3686 H 353.266 2.21287 2.02416 0
M  V30 3687 H 350.819 1.17827 1.02696 0
M  V30 3688 H 351.554 -0.0521886 3.24258 0
M  V30 3689 H 351.339 1.69811 3.53422 0
M  V30 3690 H 352.829 0.874231 4.08347 0
M  V30 3691 N 353.266 -1.05314 1.17247 0
M  V30 3692 C 354.514 -1.77941 0.958194 0
M  V30 3693 C 354.835 -1.88089 -0.514556 0
M  V30 3694 O 354.105 -1.39676 -1.37359 0
M  V30 3695 H 352.685 -0.659116 0.351533 0
M  V30 3696 H 355.347 -1.27166 1.47699 0
M  V30 3697 H 354.443 -2.79663 1.38546 0
M  V30 3698 N 354.744 -0.972509 -1.24016 0
M  V30 3699 C 355.694 -0.477561 -2.22942 0
M  V30 3700 C 356.678 0.44308 -1.54679 0
M  V30 3701 O 357.87 0.273219 -1.74879 0
M  V30 3702 C 354.999 0.226348 -3.42553 0
M  V30 3703 C 354.085 -0.713403 -4.18057 0
M  V30 3704 N 354.476 -1.8527 -4.70647 0
M  V30 3705 C 352.774 -0.525145 -4.42898 0
M  V30 3706 C 353.475 -2.44089 -5.28011 0
M  V30 3707 N 352.451 -1.72556 -5.15486 0
M  V30 3708 H 356.253 -1.34678 -2.61226 0
M  V30 3709 H 353.767 -0.832196 -1.39457 0
M  V30 3710 H 355.764 0.598184 -4.12586 0
M  V30 3711 H 354.424 1.09195 -3.05788 0
M  V30 3712 H 355.435 -2.2341 -4.67235 0
M  V30 3713 H 352.112 0.296096 -4.16449 0
M  V30 3714 H 353.502 -3.40259 -5.79374 0
M  V30 3715 N 356.222 1.38976 -0.743202 0
M  V30 3716 C 357.447 2.05161 -0.303936 0
M  V30 3717 C 357.872 1.55677 1.05576 0
M  V30 3718 O 357.23 0.704131 1.67068 0
M  V30 3719 C 357.278 3.59138 -0.324373 0
M  V30 3720 O 356.382 4.06668 0.685204 0
M  V30 3721 H 355.723 0.649815 -0.136518 0
M  V30 3722 H 358.253 1.77852 -1.01142 0
M  V30 3723 H 358.263 4.07639 -0.171618 0
M  V30 3724 H 356.938 3.94515 -1.31647 0
M  V30 3725 H 355.515 3.69561 0.497913 0
M  V30 3726 N 357.7 0.491464 1.49741 0
M  V30 3727 C 358.947 -0.0564256 2.02421 0
M  V30 3728 C 359.275 -1.37872 1.37192 0
M  V30 3729 O 358.53 -1.89375 0.493508 0
M  V30 3730 C 358.829 -0.267329 3.56399 0
M  V30 3731 C 358.495 0.975775 4.40215 0
M  V30 3732 C 357.157 1.31655 4.62839 0
M  V30 3733 C 359.509 1.80251 4.89039 0
M  V30 3734 C 356.837 2.48375 5.31532 0
M  V30 3735 C 359.189 2.96116 5.59015 0
M  V30 3736 C 357.853 3.30585 5.79888 0
M  V30 3737 H 357.123 -0.0206476 0.740712 0
M  V30 3738 H 359.77 0.649686 1.80143 0
M  V30 3739 H 358.075 -1.05588 3.77304 0
M  V30 3740 H 359.772 -0.705549 3.94744 0
M  V30 3741 H 356.362 0.700315 4.2284 0
M  V30 3742 H 360.546 1.55239 4.71396 0
M  V30 3743 H 355.802 2.7533 5.45897 0
M  V30 3744 H 359.976 3.60509 5.95824 0
M  V30 3745 H 357.603 4.21132 6.32892 0
M  V30 3746 N 359.178 -1.55987 0.224894 0
M  V30 3747 C 360.11 -2.17722 -0.716224 0
M  V30 3748 C 361.123 -1.14723 -1.15509 0
M  V30 3749 O 362.312 -1.41688 -1.08567 0
M  V30 3750 C 359.412 -2.74873 -1.98238 0
M  V30 3751 C 358.585 -4.03074 -1.69853 0
M  V30 3752 C 357.644 -4.44757 -2.81208 0
M  V30 3753 O 356.67 -5.11587 -2.49534 0
M  V30 3754 N 357.872 -4.10716 -4.10235 0
M  V30 3755 H 360.637 -2.99109 -0.188123 0
M  V30 3756 H 358.198 -1.6184 0.0440123 0
M  V30 3757 H 360.19 -2.99727 -2.7193 0
M  V30 3758 H 358.76 -1.9777 -2.42086 0
M  V30 3759 H 357.98 -3.86041 -0.797875 0
M  V30 3760 H 359.268 -4.86701 -1.48324 0
M  V30 3761 H 358.666 -3.57019 -4.38809 0
M  V30 3762 H 357.223 -4.40455 -4.80461 0
M  V30 3763 N 360.656 0.0484629 -1.57525 0
M  V30 3764 C 361.933 0.777447 -1.79486 0
M  V30 3765 C 362.313 1.94597 -0.818251 0
M  V30 3766 O 361.661 2.28047 0.143767 0
M  V30 3767 C 361.871 1.22864 -3.26658 0
M  V30 3768 C 363.219 1.65251 -3.91123 0
M  V30 3769 O 364.243 1.32372 -3.3069 0
M  V30 3770 O 363.102 2.26207 -4.97486 0
M  V30 3771 H 360.196 0.374357 -0.737419 0
M  V30 3772 H 362.742 0.0267359 -1.69679 0
M  V30 3773 H 361.514 0.393589 -3.89316 0
M  V30 3774 H 361.137 2.03996 -3.41279 0
M  V30 3775 N 362.134 1.5431 0.320358 0
M  V30 3776 C 363.067 1.78769 1.41834 0
M  V30 3777 C 364.045 0.63783 1.49568 0
M  V30 3778 O 365.229 0.875628 1.66928 0
M  V30 3779 C 362.356 1.90712 2.79905 0
M  V30 3780 C 361.402 3.13023 2.89687 0
M  V30 3781 S 362.235 4.71554 2.53766 0
M  V30 3782 C 363.391 4.86408 3.93902 0
M  V30 3783 H 363.624 2.71619 1.20874 0
M  V30 3784 H 361.157 1.45474 0.517377 0
M  V30 3785 H 363.115 1.98279 3.59438 0
M  V30 3786 H 361.776 0.988343 2.98145 0
M  V30 3787 H 360.969 3.18124 3.90913 0
M  V30 3788 H 360.571 3.03803 2.18128 0
M  V30 3789 H 362.863 4.69241 4.88691 0
M  V30 3790 H 363.806 5.88508 3.93782 0
M  V30 3791 H 364.214 4.14689 3.83005 0
M  V30 3792 N 363.613 -0.582584 1.46437 0
M  V30 3793 C 364.576 -1.67366 1.56592 0
M  V30 3794 C 365.576 -1.54575 0.443072 0
M  V30 3795 O 366.766 -1.59191 0.707381 0
M  V30 3796 C 363.898 -3.06791 1.48634 0
M  V30 3797 H 365.091 -1.5972 2.5383 0
M  V30 3798 H 362.644 -0.800432 1.34249 0
M  V30 3799 H 363.379 -3.19993 0.526763 0
M  V30 3800 H 363.164 -3.17484 2.30101 0
M  V30 3801 H 364.654 -3.86218 1.58826 0
M  V30 3802 N 365.091 -1.34144 -0.827227 0
M  V30 3803 C 366.337 -1.26446 -1.58554 0
M  V30 3804 C 366.67 0.1664 -1.93486 0
M  V30 3805 O 365.945 1.1107 -1.59667 0
M  V30 3806 C 366.228 -2.15111 -2.8879 0
M  V30 3807 C 366.081 -3.66712 -2.60465 0
M  V30 3808 C 367.4 -2.03311 -3.90324 0
M  V30 3809 H 364.519 -0.46067 -0.575284 0
M  V30 3810 H 367.161 -1.64356 -0.953269 0
M  V30 3811 H 365.311 -1.8291 -3.42748 0
M  V30 3812 H 366.983 -4.09259 -2.1285 0
M  V30 3813 H 365.226 -3.88014 -1.93978 0
M  V30 3814 H 365.897 -4.24112 -3.53317 0
M  V30 3815 H 368.373 -2.31574 -3.45706 0
M  V30 3816 H 367.249 -2.67582 -4.79261 0
M  V30 3817 H 367.51 -1.00879 -4.30437 0
M  V30 3818 N 366.569 1.04691 -1.17803 0
M  V30 3819 C 367.479 2.16057 -0.914151 0
M  V30 3820 C 368.495 1.73589 0.119503 0
M  V30 3821 O 369.671 2.01308 -0.0609468 0
M  V30 3822 C 366.736 3.4394 -0.436603 0
M  V30 3823 C 365.797 4.00825 -1.53746 0
M  V30 3824 C 365.03 5.22604 -1.0826 0
M  V30 3825 O 365.253 5.70367 0.0612244 0
M  V30 3826 O 364.187 5.7186 -1.87775 0
M  V30 3827 H 368.013 2.41169 -1.84584 0
M  V30 3828 H 365.598 1.1453 -0.959334 0
M  V30 3829 H 367.48 4.21024 -0.178057 0
M  V30 3830 H 366.155 3.20316 0.466869 0
M  V30 3831 H 365.062 3.25158 -1.84995 0
M  V30 3832 H 366.395 4.28778 -2.41683 0
M  V30 3833 N 368.047 0.979072 1.23499 0
M  V30 3834 C 369.295 0.645941 1.91499 0
M  V30 3835 C 369.616 -0.822948 1.76784 0
M  V30 3836 O 368.886 -1.58854 1.14639 0
M  V30 3837 H 367.466 0.235919 0.708767 0
M  V30 3838 H 370.128 1.2426 1.50152 0
M  V30 3839 H 369.224 0.896411 2.9895 0
M  V30 3840 N 369.525 -1.3858 0.750561 0
M  V30 3841 C 370.773 -1.99789 0.30477 0
M  V30 3842 C 371.094 -1.59874 -1.11649 0
M  V30 3843 O 370.364 -0.85417 -1.76297 0
M  V30 3844 H 368.944 -0.738902 0.109694 0
M  V30 3845 H 371.606 -1.69391 0.963983 0
M  V30 3846 H 370.702 -3.09952 0.365499 0
M  V30 3847 N 371.003 -0.499398 -1.49478 0
M  V30 3848 C 372.252 0.0475259 -2.01644 0
M  V30 3849 C 372.565 1.38195 -1.38425 0
M  V30 3850 O 373.771 2.01547 -1.8191 0
M  V30 3851 C 372.227 0.135164 -3.59646 0
M  V30 3852 C 371.835 -1.19252 -4.31837 0
M  V30 3853 C 373.579 0.632538 -4.19761 0
M  V30 3854 C 371.486 -1.06713 -5.81693 0
M  V30 3855 H 370.416 0.0215349 -0.753692 0
M  V30 3856 H 373.067 -0.638577 -1.7203 0
M  V30 3857 H 371.449 0.885681 -3.85969 0
M  V30 3858 H 372.623 -1.9562 -4.17216 0
M  V30 3859 H 370.938 -1.62321 -3.83459 0
M  V30 3860 H 373.535 0.743833 -5.29501 0
M  V30 3861 H 373.878 1.63098 -3.83021 0
M  V30 3862 H 374.411 -0.0613987 -3.97753 0
M  V30 3863 H 371.15 -2.03979 -6.22955 0
M  V30 3864 H 370.67 -0.344307 -5.98811 0
M  V30 3865 H 372.349 -0.745208 -6.42694 0
M  V30 3866 N 372.481 1.55866 -0.233164 0
M  V30 3867 C 373.414 2.16794 0.712442 0
M  V30 3868 C 374.392 1.1158 1.18273 0
M  V30 3869 O 375.576 1.39897 1.26337 0
M  V30 3870 C 372.703 2.75757 1.96661 0
M  V30 3871 C 371.749 3.93902 1.63533 0
M  V30 3872 S 372.582 5.30223 0.74995 0
M  V30 3873 C 373.738 5.92631 2.01343 0
M  V30 3874 H 373.971 2.96662 0.194617 0
M  V30 3875 H 371.504 1.5439 -0.0177425 0
M  V30 3876 H 373.462 3.10367 2.68668 0
M  V30 3877 H 372.123 1.9586 2.45556 0
M  V30 3878 H 371.316 4.33702 2.56747 0
M  V30 3879 H 370.918 3.60499 0.995804 0
M  V30 3880 H 373.21 6.09312 2.96219 0
M  V30 3881 H 374.153 6.88388 1.65915 0
M  V30 3882 H 374.561 5.21571 2.15925 0
M  V30 3883 N 373.959 -0.0401083 1.57549 0
M  V30 3884 C 375.207 -0.731677 1.8839 0
M  V30 3885 C 375.528 -1.76481 0.829425 0
M  V30 3886 O 374.798 -1.95411 -0.1383 0
M  V30 3887 H 373.378 -0.273225 0.695239 0
M  V30 3888 H 376.04 -0.00867725 1.94898 0
M  V30 3889 H 375.136 -1.22816 2.86919 0
M  V30 3890 N 375.437 -1.54477 -0.31217 0
M  V30 3891 C 376.686 -1.72438 -1.04633 0
M  V30 3892 C 376.999 -0.511163 -1.88803 0
M  V30 3893 O 378.205 -0.572341 -2.65399 0
M  V30 3894 C 376.661 -3.05043 -1.9099 0
M  V30 3895 C 376.269 -4.33806 -1.11877 0
M  V30 3896 C 378.013 -3.32364 -2.64073 0
M  V30 3897 C 375.92 -5.57467 -1.97445 0
M  V30 3898 H 374.85 -0.642647 -0.394361 0
M  V30 3899 H 377.501 -1.80966 -0.303929 0
M  V30 3900 H 375.883 -2.90451 -2.69173 0
M  V30 3901 H 377.057 -4.59199 -0.383843 0
M  V30 3902 H 375.372 -4.13336 -0.504252 0
M  V30 3903 H 377.969 -4.21951 -3.28423 0
M  V30 3904 H 378.312 -2.50745 -3.32314 0
M  V30 3905 H 378.845 -3.47875 -1.92944 0
M  V30 3906 H 375.584 -6.41722 -1.33692 0
M  V30 3907 H 375.104 -5.36277 -2.6864 0
M  V30 3908 H 376.783 -5.94303 -2.5576 0
M  V30 3909 N 376.915 0.57481 -1.46744 0
M  V30 3910 C 377.847 1.69804 -1.53946 0
M  V30 3911 C 378.86 1.57098 -0.427106 0
M  V30 3912 O 380.049 1.64378 -0.695863 0
M  V30 3913 C 377.149 3.08125 -1.4111 0
M  V30 3914 C 376.322 3.46757 -2.66605 0
M  V30 3915 C 375.381 4.6417 -2.47855 0
M  V30 3916 O 374.407 4.69634 -3.21609 0
M  V30 3917 N 375.609 5.59553 -1.54534 0
M  V30 3918 H 378.374 1.64077 -2.50796 0
M  V30 3919 H 375.935 0.761 -1.429 0
M  V30 3920 H 377.927 3.84478 -1.26328 0
M  V30 3921 H 376.497 3.08175 -0.524109 0
M  V30 3922 H 375.717 2.6003 -2.96274 0
M  V30 3923 H 377.005 3.69337 -3.49954 0
M  V30 3924 H 376.403 5.57881 -0.937304 0
M  V30 3925 H 374.96 6.35304 -1.45711 0
M  V30 3926 N 378.394 1.34581 0.820102 0
M  V30 3927 C 379.64 1.27285 1.57881 0
M  V30 3928 C 379.973 -0.156137 1.93571 0
M  V30 3929 O 379.248 -1.10222 1.60254 0
M  V30 3930 C 379.531 2.16639 2.87645 0
M  V30 3931 C 379.384 3.68088 2.58517 0
M  V30 3932 C 380.703 2.05378 3.8924 0
M  V30 3933 H 377.822 0.463714 0.572833 0
M  V30 3934 H 380.464 1.64859 0.944539 0
M  V30 3935 H 378.614 1.84725 3.41773 0
M  V30 3936 H 380.286 4.10382 2.10676 0
M  V30 3937 H 378.529 3.89038 1.91917 0
M  V30 3938 H 379.2 4.2598 3.51063 0
M  V30 3939 H 381.676 2.33404 3.44473 0
M  V30 3940 H 380.552 2.7012 4.77835 0
M  V30 3941 H 380.813 1.0316 4.29896 0
M  V30 3942 N 379.872 -1.04064 1.18357 0
M  V30 3943 C 380.82 -2.14187 0.907007 0
M  V30 3944 C 381.814 -1.68879 -0.132725 0
M  V30 3945 O 383.02 -1.79993 0.0154248 0
M  V30 3946 H 379.395 -0.699585 0.275835 0
M  V30 3947 H 381.366 -2.34711 1.84264 0
M  V30 3948 C 380.115 -3.44785 0.449254 0
M  V30 3949 H 379.438 -3.80058 1.24081 0
M  V30 3950 H 380.878 -4.22974 0.294737 0
M  V30 3951 C 379.337 -3.26391 -0.834909 0
M  V30 3952 O 379.867 -3.53973 -1.89911 0
M  V30 3953 N 378.073 -2.79726 -0.787523 0
M  V30 3954 H 377.62 -2.5748 0.0787347 0
M  V30 3955 H 377.578 -2.67798 -1.64716 0
M  V30 3956 N 381.35 -0.985608 -1.22978 0
M  V30 3957 C 382.596 -0.667998 -1.92118 0
M  V30 3958 C 382.951 0.790454 -1.75413 0
M  V30 3959 O 382.244 1.56336 -1.10768 0
M  V30 3960 C 382.438 -1.00014 -3.43121 0
M  V30 3961 C 382.267 -2.48933 -3.74516 0
M  V30 3962 C 381.037 -3.15218 -3.94925 0
M  V30 3963 C 383.235 -3.47024 -3.79577 0
M  V30 3964 N 381.217 -4.53689 -4.13569 0
M  V30 3965 C 382.588 -4.70923 -4.03276 0
M  V30 3966 C 384.643 -3.41432 -3.62393 0
M  V30 3967 C 383.346 -5.89914 -4.11574 0
M  V30 3968 C 385.372 -4.59793 -3.71947 0
M  V30 3969 C 384.734 -5.82489 -3.96088 0
M  V30 3970 H 380.833 -0.295589 -0.723983 0
M  V30 3971 H 383.417 -1.26413 -1.4808 0
M  V30 3972 H 381.588 -0.432655 -3.85983 0
M  V30 3973 H 383.32 -0.63927 -3.99619 0
M  V30 3974 H 380.075 -2.65702 -3.92045 0
M  V30 3975 H 380.499 -5.25492 -4.26834 0
M  V30 3976 H 385.141 -2.47594 -3.4272 0
M  V30 3977 H 382.859 -6.84164 -4.30053 0
M  V30 3978 H 386.445 -4.57048 -3.59998 0
M  V30 3979 H 385.325 -6.72546 -4.033 0
M  V30 3980 N 382.828 1.3818 -0.7579 0
M  V30 3981 C 384.105 1.94106 -0.241306 0
M  V30 3982 C 384.485 1.69282 1.26122 0
M  V30 3983 O 383.833 1.03378 2.03777 0
M  V30 3984 C 384.043 3.43809 -0.59967 0
M  V30 3985 C 385.391 4.20868 -0.561717 0
M  V30 3986 O 386.415 3.5211 -0.538222 0
M  V30 3987 O 385.274 5.43451 -0.576478 0
M  V30 3988 H 382.368 0.825376 -0.0518042 0
M  V30 3989 H 384.914 1.47548 -0.838315 0
M  V30 3990 H 383.686 3.55403 -1.6372 0
M  V30 3991 H 383.309 3.97592 0.0251197 0
M  V30 3992 N 384.306 0.507319 1.49211 0
M  V30 3993 C 385.546 -0.0332372 2.04373 0
M  V30 3994 C 385.91 -1.33694 1.37804 0
M  V30 3995 O 387.111 -1.96213 1.83722 0
M  V30 3996 C 385.382 -0.17599 3.56966 0
M  V30 3997 S 386.941 -0.669882 4.33657 0
M  V30 3998 H 383.759 0.00123603 0.710999 0
M  V30 3999 H 386.361 0.682725 1.83191 0
M  V30 4000 H 385.065 0.778053 4.02957 0
M  V30 4001 H 384.596 -0.917005 3.82563 0
M  V30 4002 H 386.611 -1.93806 4.56786 0
M  V30 4003 N 385.784 -1.5574 0.241426 0
M  V30 4004 C 386.732 -2.22538 -0.676718 0
M  V30 4005 C 387.726 -1.21117 -1.18436 0
M  V30 4006 O 388.932 -1.39144 -1.14188 0
M  V30 4007 H 385.307 -0.713776 -0.236701 0
M  V30 4008 H 387.278 -2.98264 -0.0901187 0
M  V30 4009 C 386.027 -2.93439 -1.86518 0
M  V30 4010 H 385.35 -3.7125 -1.4837 0
M  V30 4011 H 386.79 -3.43549 -2.48495 0
M  V30 4012 C 385.249 -1.97008 -2.73294 0
M  V30 4013 O 385.779 -1.49965 -3.72657 0
M  V30 4014 N 383.985 -1.64227 -2.39745 0
M  V30 4015 H 383.532 -2.02677 -1.58996 0
M  V30 4016 H 383.49 -0.999708 -2.98083 0
M  V30 4017 N 387.262 0.0317525 -1.57568 0
M  V30 4018 C 388.192 1.03274 -2.0942 0
M  V30 4019 C 389.173 1.3788 -0.996143 0
M  V30 4020 O 390.358 1.46811 -1.27122 0
M  V30 4021 C 387.488 2.33448 -2.57137 0
M  V30 4022 C 386.442 2.13091 -3.71182 0
M  V30 4023 C 385.768 3.49001 -4.05095 0
M  V30 4024 C 387.068 1.51928 -4.99715 0
M  V30 4025 H 388.762 0.60112 -2.93303 0
M  V30 4026 H 386.308 0.287705 -1.41097 0
M  V30 4027 H 388.261 3.03802 -2.92032 0
M  V30 4028 H 386.985 2.78665 -1.70333 0
M  V30 4029 H 385.644 1.45171 -3.36632 0
M  V30 4030 H 385.292 3.91862 -3.15362 0
M  V30 4031 H 384.992 3.36207 -4.81911 0
M  V30 4032 H 386.516 4.20721 -4.42522 0
M  V30 4033 H 387.93 2.12196 -5.32584 0
M  V30 4034 H 386.327 1.49716 -5.81124 0
M  V30 4035 H 387.397 0.484811 -4.8247 0
M  V30 4036 N 388.74 1.54641 0.303973 0
M  V30 4037 C 390.017 1.64455 1.05896 0
M  V30 4038 C 390.397 0.490923 2.05312 0
M  V30 4039 O 389.745 -0.512685 2.22674 0
M  V30 4040 C 389.955 3.02331 1.74347 0
M  V30 4041 C 391.303 3.59045 2.26653 0
M  V30 4042 O 392.327 3.04764 1.84384 0
M  V30 4043 O 391.186 4.54081 3.04093 0
M  V30 4044 H 388.28 0.666729 0.489287 0
M  V30 4045 H 390.826 1.66986 0.302298 0
M  V30 4046 H 389.598 3.77734 1.02142 0
M  V30 4047 H 389.221 3.03565 2.56777 0
M  V30 4048 N 390.218 -0.567019 1.47046 0
M  V30 4049 C 391.634 -0.891975 1.32348 0
M  V30 4050 C 391.834 -1.99154 0.306616 0
M  V30 4051 O 390.89 -2.50883 -0.28532 0
M  V30 4052 C 392.203 -1.29449 2.7141 0
M  V30 4053 C 393.751 -1.40646 2.79621 0
M  V30 4054 C 394.226 -1.84257 4.19301 0
M  V30 4055 N 395.717 -1.91424 4.21795 0
M  V30 4056 C 396.452 -2.26476 5.26779 0
M  V30 4057 N 395.948 -2.60211 6.42077 0
M  V30 4058 N 397.741 -2.27166 5.14152 0
M  V30 4059 H 389.892 0.159074 2.11803 0
M  V30 4060 H 392.155 0.00849752 0.947962 0
M  V30 4061 H 391.861 -0.560448 3.47206 0
M  V30 4062 H 391.735 -2.25273 3.02542 0
M  V30 4063 H 394.122 -2.13133 2.04104 0
M  V30 4064 H 394.203 -0.430339 2.52154 0
M  V30 4065 H 393.847 -1.12343 4.95319 0
M  V30 4066 H 393.777 -2.82855 4.44185 0
M  V30 4067 H 396.268 -1.6778 3.38612 0
M  V30 4068 H 396.581 -2.85956 7.17948 0
M  V30 4069 H 394.926 -2.57813 6.45413 0
M  V30 4070 H 398.117 -2.00244 4.23107 0
M  V30 4071 H 398.29 -2.54154 5.96079 0
M  V30 4072 N 391.696 -1.35014 -0.812953 0
M  V30 4073 C 392.659 -1.27292 -1.90602 0
M  V30 4074 C 393.659 -0.185817 -1.59723 0
M  V30 4075 O 394.849 -0.439102 -1.68575 0
M  V30 4076 C 391.981 -0.967676 -3.26877 0
M  V30 4077 H 393.174 -2.24479 -1.9887 0
M  V30 4078 H 390.727 -1.19446 -1.00808 0
M  V30 4079 H 391.462 0.0005954 -3.243 0
M  V30 4080 H 391.247 -1.75412 -3.50675 0
M  V30 4081 H 392.737 -0.939085 -4.06904 0
M  V30 4082 N 393.175 1.03435 -1.18907 0
M  V30 4083 C 394.138 2.09756 -0.923844 0
M  V30 4084 C 395.138 1.60528 0.093416 0
M  V30 4085 O 396.328 1.73631 -0.140727 0
M  V30 4086 C 393.46 3.38692 -0.387354 0
M  V30 4087 H 394.653 2.34719 -1.86674 0
M  V30 4088 H 392.206 1.19959 -1.00197 0
M  V30 4089 H 392.941 3.19396 0.561845 0
M  V30 4090 H 392.726 3.75742 -1.12074 0
M  V30 4091 H 394.216 4.17016 -0.220694 0
M  V30 4092 N 394.653 0.992116 1.22453 0
M  V30 4093 C 395.878 0.685644 1.95739 0
M  V30 4094 C 396.303 -0.743 1.72804 0
M  V30 4095 O 395.661 -1.50778 1.00676 0
M  V30 4096 C 395.709 0.996293 3.46564 0
M  V30 4097 O 394.813 0.0945512 4.12292 0
M  V30 4098 H 394.154 0.256694 0.612376 0
M  V30 4099 H 396.684 1.32888 1.5557 0
M  V30 4100 H 396.694 0.93781 3.97076 0
M  V30 4101 H 395.369 2.03733 3.62582 0
M  V30 4102 H 393.946 0.208451 3.72317 0
M  V30 4103 N 396.131 -1.37776 0.765217 0
M  V30 4104 C 397.061 -2.32945 0.160953 0
M  V30 4105 C 398.042 -1.55454 -0.690516 0
M  V30 4106 O 399.227 -1.83721 -0.629318 0
M  V30 4107 C 396.357 -3.39669 -0.724031 0
M  V30 4108 C 395.311 -4.27992 0.0256173 0
M  V30 4109 C 394.637 -5.25673 -0.978383 0
M  V30 4110 C 395.937 -5.08309 1.20082 0
M  V30 4111 H 397.631 -2.83728 0.955969 0
M  V30 4112 H 395.177 -1.36416 0.461149 0
M  V30 4113 H 397.13 -4.05219 -1.15652 0
M  V30 4114 H 395.854 -2.87396 -1.5515 0
M  V30 4115 H 394.513 -3.63964 0.438812 0
M  V30 4116 H 394.161 -4.69682 -1.80022 0
M  V30 4117 H 393.861 -5.85625 -0.481378 0
M  V30 4118 H 395.385 -5.94098 -1.40995 0
M  V30 4119 H 396.799 -5.67034 0.845307 0
M  V30 4120 H 395.196 -5.77554 1.62947 0
M  V30 4121 H 396.266 -4.41365 2.00811 0
M  V30 4122 N 397.609 -0.515225 -1.4894 0
M  V30 4123 C 398.849 0.0223983 -2.04388 0
M  V30 4124 C 399.213 1.32961 -1.38511 0
M  V30 4125 O 400.414 1.95236 -1.8476 0
M  V30 4126 C 398.685 0.157056 -3.57055 0
M  V30 4127 S 400.244 0.646875 -4.34006 0
M  V30 4128 H 397.062 -0.00500662 -0.710982 0
M  V30 4129 H 399.664 -0.69243 -1.82827 0
M  V30 4130 H 398.368 -0.799412 -4.02539 0
M  V30 4131 H 397.899 0.896704 -3.83044 0
M  V30 4132 H 399.914 1.91381 -4.57808 0
M  V30 4133 N 399.087 1.5561 -0.249682 0
M  V30 4134 C 400.017 2.24477 0.642826 0
M  V30 4135 C 400.998 1.22601 1.17911 0
M  V30 4136 O 402.183 1.5126 1.21795 0
M  V30 4137 C 399.313 2.94638 1.83863 0
M  V30 4138 C 398.267 4.03227 1.435 0
M  V30 4139 C 397.593 4.60828 2.71186 0
M  V30 4140 C 398.893 5.18796 0.604002 0
M  V30 4141 H 400.587 2.99321 0.0685625 0
M  V30 4142 H 398.133 1.43965 0.0315363 0
M  V30 4143 H 400.086 3.41517 2.46868 0
M  V30 4144 H 398.81 2.17287 2.43832 0
M  V30 4145 H 397.469 3.57121 0.828275 0
M  V30 4146 H 397.117 3.80174 3.29358 0
M  V30 4147 H 396.817 5.34132 2.44901 0
M  V30 4148 H 398.341 5.10442 3.35084 0
M  V30 4149 H 399.755 5.61883 1.13842 0
M  V30 4150 H 398.152 5.98506 0.437097 0
M  V30 4151 H 399.222 4.83384 -0.383147 0
M  V30 4152 N 400.565 -0.0233959 1.57583 0
M  V30 4153 C 401.976 -0.56927 1.77809 0
M  V30 4154 C 402.327 -1.75284 0.881472 0
M  V30 4155 O 401.452 -2.1626 0.0777805 0
M  V30 4156 C 402.047 -1.03949 3.22459 0
M  V30 4157 C 400.606 -1.53084 3.43864 0
M  V30 4158 C 399.753 -0.471454 2.73263 0
M  V30 4159 H 402.704 0.202825 1.57399 0
M  V30 4160 H 402.725 -1.90661 3.29285 0
M  V30 4161 H 402.237 -0.177865 3.87692 0
M  V30 4162 H 400.338 -2.41414 2.83814 0
M  V30 4163 H 400.451 -1.57443 4.52491 0
M  V30 4164 H 398.815 -0.927788 2.37201 0
M  V30 4165 H 399.598 0.380808 3.41181 0
M  V30 4166 N 402.043 -1.548 -0.295768 0
M  V30 4167 C 403.459 -1.4613 -0.641722 0
M  V30 4168 C 403.659 -0.656771 -1.90496 0
M  V30 4169 O 402.715 -0.166547 -2.5195 0
M  V30 4170 C 404.028 -2.90141 -0.789852 0
M  V30 4171 C 405.576 -3.00216 -0.885396 0
M  V30 4172 C 406.051 -4.45434 -1.06548 0
M  V30 4173 N 407.542 -4.49166 -1.13156 0
M  V30 4174 C 408.277 -5.58717 -1.28929 0
M  V30 4175 N 407.773 -6.78182 -1.41567 0
M  V30 4176 N 409.566 -5.46415 -1.31859 0
M  V30 4177 H 401.717 -2.05574 0.534147 0
M  V30 4178 H 403.98 -0.931259 0.177372 0
M  V30 4179 H 403.686 -3.51635 0.0675598 0
M  V30 4180 H 403.56 -3.37859 -1.67724 0
M  V30 4181 H 405.947 -2.38833 -1.73329 0
M  V30 4182 H 406.028 -2.55787 0.0261185 0
M  V30 4183 H 405.672 -5.07413 -0.222335 0
M  V30 4184 H 405.602 -4.87499 -1.9913 0
M  V30 4185 H 408.093 -3.631 -1.04721 0
M  V30 4186 H 408.406 -7.57428 -1.53372 0
M  V30 4187 H 406.751 -6.81037 -1.38613 0
M  V30 4188 H 409.942 -4.5203 -1.21601 0
M  V30 4189 H 410.115 -6.31841 -1.43808 0
M  V30 4190 N 403.521 0.559213 -1.47345 0
M  V30 4191 C 404.751 1.33999 -1.57251 0
M  V30 4192 C 405.159 1.87905 -0.220978 0
M  V30 4193 O 404.502 1.65577 0.795617 0
M  V30 4194 C 404.564 2.54798 -2.53611 0
M  V30 4195 C 404.228 2.22192 -3.99349 0
M  V30 4196 C 405.225 1.79607 -4.87891 0
M  V30 4197 C 402.91 2.33613 -4.44669 0
M  V30 4198 C 404.904 1.48868 -6.19772 0
M  V30 4199 C 402.591 2.02487 -5.76578 0
M  V30 4200 C 403.589 1.60183 -6.63951 0
M  V30 4201 O 403.277 1.29451 -7.93409 0
M  V30 4202 H 403.009 0.414858 -0.533731 0
M  V30 4203 H 405.563 0.684465 -1.9366 0
M  V30 4204 H 403.793 3.23235 -2.12265 0
M  V30 4205 H 405.482 3.16873 -2.53666 0
M  V30 4206 H 406.248 1.70278 -4.54126 0
M  V30 4207 H 402.127 2.65501 -3.76869 0
M  V30 4208 H 405.671 1.15775 -6.87926 0
M  V30 4209 H 401.568 2.11448 -6.09885 0
M  V30 4210 H 402.336 1.43098 -8.05894 0
M  V30 4211 N 404.999 1.35443 0.805782 0
M  V30 4212 C 406.224 1.32037 1.59941 0
M  V30 4213 C 406.649 -0.0994215 1.87837 0
M  V30 4214 O 406.007 -1.06648 1.46615 0
M  V30 4215 C 406.055 2.13354 2.90711 0
M  V30 4216 O 405.159 1.5148 3.83572 0
M  V30 4217 H 404.5 0.452666 0.485787 0
M  V30 4218 H 407.03 1.78496 1.00002 0
M  V30 4219 H 407.04 2.25338 3.40128 0
M  V30 4220 H 405.715 3.16572 2.69732 0
M  V30 4221 H 404.292 1.4834 3.42125 0
M  V30 4222 N 406.477 -1.02803 1.19454 0
M  V30 4223 C 407.724 -1.76217 0.997693 0
M  V30 4224 C 408.052 -1.887 -0.47144 0
M  V30 4225 O 407.307 -1.4011 -1.3663 0
M  V30 4226 C 407.606 -3.18941 1.6128 0
M  V30 4227 C 407.272 -3.26463 3.11019 0
M  V30 4228 C 405.934 -3.28223 3.51885 0
M  V30 4229 C 408.286 -3.25542 4.07028 0
M  V30 4230 C 405.614 -3.26719 4.8731 0
M  V30 4231 C 407.966 -3.25579 5.42385 0
M  V30 4232 C 406.63 -3.25637 5.82681 0
M  V30 4233 H 405.9 -0.644823 0.365082 0
M  V30 4234 H 408.547 -1.20655 1.4871 0
M  V30 4235 H 406.852 -3.77587 1.04572 0
M  V30 4236 H 408.549 -3.74415 1.43577 0
M  V30 4237 H 405.139 -3.25822 2.78457 0
M  V30 4238 H 409.323 -3.23362 3.76498 0
M  V30 4239 H 404.579 -3.25089 5.1781 0
M  V30 4240 H 408.753 -3.23817 6.16535 0
M  V30 4241 H 406.38 -3.24226 6.87591 0
M  V30 4242 N 407.956 -0.998596 -1.21925 0
M  V30 4243 C 409.372 -0.710303 -1.42923 0
M  V30 4244 C 409.572 0.716933 -1.88314 0
M  V30 4245 O 408.628 1.48712 -2.04062 0
M  V30 4246 C 409.941 -1.72072 -2.466 0
M  V30 4247 C 411.489 -1.73681 -2.60392 0
M  V30 4248 C 411.964 -2.73601 -3.67296 0
M  V30 4249 N 413.455 -2.7223 -3.7476 0
M  V30 4250 C 414.19 -3.46206 -4.57087 0
M  V30 4251 N 413.686 -4.29802 -5.43362 0
M  V30 4252 N 415.479 -3.34886 -4.51451 0
M  V30 4253 H 407.63 -1.92028 -0.9077 0
M  V30 4254 H 409.893 -0.828487 -0.460775 0
M  V30 4255 H 409.599 -2.74231 -2.20206 0
M  V30 4256 H 409.473 -1.51818 -3.45299 0
M  V30 4257 H 411.86 -0.722173 -2.86127 0
M  V30 4258 H 411.941 -1.98005 -1.61949 0
M  V30 4259 H 411.585 -3.75217 -3.42307 0
M  V30 4260 H 411.515 -2.46545 -4.65321 0
M  V30 4261 H 414.006 -2.11576 -3.1312 0
M  V30 4262 H 414.319 -4.83061 -6.03218 0
M  V30 4263 H 412.664 -4.33887 -5.42925 0
M  V30 4264 H 415.855 -2.69015 -3.83078 0
M  V30 4265 H 416.028 -3.92796 -5.15379 0
M  V30 4266 N 409.434 1.37368 -0.772513 0
M  V30 4267 C 410.85 1.53059 -0.452231 0
M  V30 4268 C 411.05 1.73065 1.03203 0
M  V30 4269 O 410.106 1.75245 1.81784 0
M  V30 4270 C 411.419 2.72659 -1.26797 0
M  V30 4271 C 412.967 2.86521 -1.25995 0
M  V30 4272 C 413.442 4.09105 -2.05905 0
M  V30 4273 N 414.933 4.16219 -2.03263 0
M  V30 4274 C 415.668 5.10107 -2.61875 0
M  V30 4275 N 415.164 6.09547 -3.29278 0
M  V30 4276 N 416.957 5.02596 -2.51701 0
M  V30 4277 H 409.108 1.22634 -1.7342 0
M  V30 4278 H 411.371 0.597206 -0.736239 0
M  V30 4279 H 411.077 2.64343 -2.31982 0
M  V30 4280 H 410.951 3.66363 -0.897672 0
M  V30 4281 H 413.338 2.94308 -0.216081 0
M  V30 4282 H 413.419 1.93774 -1.66989 0
M  V30 4283 H 413.063 4.0208 -3.10313 0
M  V30 4284 H 412.993 5.00968 -1.62292 0
M  V30 4285 H 415.484 3.45012 -1.54192 0
M  V30 4286 H 415.797 6.77718 -3.71374 0
M  V30 4287 H 414.142 6.09824 -3.33377 0
M  V30 4288 H 417.333 4.23855 -1.98657 0
M  V30 4289 H 417.506 5.75582 -2.97673 0
M  V30 4290 N 410.912 0.523116 1.48665 0
M  V30 4291 C 411.842 -0.23231 2.32342 0
M  V30 4292 C 412.823 -0.941637 1.41659 0
M  V30 4293 O 414.008 -0.928751 1.70552 0
M  V30 4294 C 411.138 -1.28387 3.22698 0
M  V30 4295 C 410.092 -0.693098 4.22351 0
M  V30 4296 C 409.418 -1.8468 5.01794 0
M  V30 4297 C 410.718 0.33063 5.21252 0
M  V30 4298 H 412.412 0.466192 2.95748 0
M  V30 4299 H 409.958 0.225643 1.42221 0
M  V30 4300 H 411.911 -1.82024 3.80059 0
M  V30 4301 H 410.635 -2.01186 2.57278 0
M  V30 4302 H 409.294 -0.178299 3.66166 0
M  V30 4303 H 408.942 -2.56301 4.32804 0
M  V30 4304 H 408.642 -1.45747 5.69238 0
M  V30 4305 H 410.166 -2.38709 5.62006 0
M  V30 4306 H 411.58 -0.118407 5.73178 0
M  V30 4307 H 409.977 0.636974 5.9671 0
M  V30 4308 H 411.047 1.23883 4.68808 0
M  V30 4309 N 412.39 -1.55475 0.257931 0
M  V30 4310 C 413.667 -1.91155 -0.414629 0
M  V30 4311 C 414.047 -1.18008 -1.75035 0
M  V30 4312 O 413.395 -0.301193 -2.26506 0
M  V30 4313 C 413.605 -3.44283 -0.571859 0
M  V30 4314 C 414.953 -4.15744 -0.862678 0
M  V30 4315 O 415.977 -3.50083 -0.657314 0
M  V30 4316 O 414.836 -5.31909 -1.2544 0
M  V30 4317 H 411.93 -0.796016 -0.22425 0
M  V30 4318 H 414.476 -1.66976 0.302814 0
M  V30 4319 H 413.248 -3.89558 0.368844 0
M  V30 4320 H 412.871 -3.7436 -1.33943 0
M  V30 4321 N 413.868 0.0150385 -1.57593 0
M  V30 4322 C 415.096 0.714395 -1.94175 0
M  V30 4323 C 415.511 1.68135 -0.858841 0
M  V30 4324 O 414.868 1.81766 0.163567 0
M  V30 4325 C 414.919 1.45933 -3.30735 0
M  V30 4326 O 414.64 0.531167 -4.34868 0
M  V30 4327 C 416.141 2.25456 -3.81686 0
M  V30 4328 H 413.361 0.199923 -0.640525 0
M  V30 4329 H 415.905 -0.0316096 -2.04476 0
M  V30 4330 H 414.06 2.15709 -3.21789 0
M  V30 4331 H 414.474 1.05509 -5.13778 0
M  V30 4332 H 415.948 2.731 -4.79709 0
M  V30 4333 H 416.425 3.07485 -3.13607 0
M  V30 4334 H 417.031 1.60727 -3.9376 0
M  V30 4335 N 415.346 1.54954 0.287554 0
M  V30 4336 C 416.762 1.46469 0.633964 0
M  V30 4337 C 416.962 0.666865 1.90145 0
M  V30 4338 O 416.018 0.179906 2.51858 0
M  V30 4339 C 417.331 2.90556 0.774454 0
M  V30 4340 C 418.879 3.00681 0.869462 0
M  V30 4341 C 419.354 4.45993 1.04184 0
M  V30 4342 N 420.845 4.4976 1.10772 0
M  V30 4343 C 421.58 5.59393 1.25964 0
M  V30 4344 N 421.076 6.78923 1.37968 0
M  V30 4345 N 422.869 5.47107 1.28959 0
M  V30 4346 H 415.02 2.05288 -0.545041 0
M  V30 4347 H 417.283 0.930305 -0.182308 0
M  V30 4348 H 416.989 3.51594 -0.086207 0
M  V30 4349 H 416.863 3.38743 1.6593 0
M  V30 4350 H 419.25 2.39749 1.7206 0
M  V30 4351 H 419.331 2.55769 -0.0396831 0
M  V30 4352 H 418.975 5.07524 0.195422 0
M  V30 4353 H 418.905 4.88548 1.96542 0
M  V30 4354 H 421.396 3.63651 1.02794 0
M  V30 4355 H 421.709 7.58231 1.49353 0
M  V30 4356 H 420.054 6.81763 1.34999 0
M  V30 4357 H 423.245 4.52668 1.19202 0
M  V30 4358 H 423.418 6.32595 1.40455 0
M  V30 4359 N 416.824 -0.551391 1.4764 0
M  V30 4360 C 418.101 -1.31229 1.45046 0
M  V30 4361 C 418.481 -2.10563 0.150527 0
M  V30 4362 O 417.829 -2.11374 -0.867956 0
M  V30 4363 C 418.039 -2.21189 2.69956 0
M  V30 4364 C 419.387 -2.82021 3.1741 0
M  V30 4365 O 420.411 -2.31488 2.70724 0
M  V30 4366 O 419.27 -3.73885 3.98588 0
M  V30 4367 H 416.364 -0.591193 0.578291 0
M  V30 4368 H 418.91 -0.569813 1.59847 0
M  V30 4369 H 417.682 -1.62207 3.56096 0
M  V30 4370 H 417.305 -3.02722 2.57769 0
M  V30 4371 N 418.302 -1.35869 -0.798587 0
M  V30 4372 C 419.548 -1.2978 -1.55836 0
M  V30 4373 C 419.881 0.125322 -1.93795 0
M  V30 4374 O 419.156 1.07658 -1.61987 0
M  V30 4375 C 419.439 -2.21188 -2.84162 0
M  V30 4376 C 419.292 -3.72155 -2.52628 0
M  V30 4377 C 420.611 -2.11545 -3.85923 0
M  V30 4378 H 417.73 -0.472769 -0.565383 0
M  V30 4379 H 420.372 -1.66341 -0.918192 0
M  V30 4380 H 418.522 -1.90139 -3.38791 0
M  V30 4381 H 420.194 -4.13682 -2.04121 0
M  V30 4382 H 418.437 -3.92042 -1.85704 0
M  V30 4383 H 419.108 -4.31511 -3.44242 0
M  V30 4384 H 421.584 -2.38855 -3.40716 0
M  V30 4385 H 420.46 -2.77688 -4.73477 0
M  V30 4386 H 420.721 -1.09987 -4.282 0
M  V30 4387 N 419.78 1.02168 -1.19998 0
M  V30 4388 C 420.69 2.14069 -0.959774 0
M  V30 4389 C 421.706 1.73804 0.082655 0
M  V30 4390 O 422.882 2.01133 -0.103633 0
M  V30 4391 C 419.947 3.42936 -0.509459 0
M  V30 4392 C 419.008 3.97474 -1.62213 0
M  V30 4393 C 418.241 5.2019 -1.19321 0
M  V30 4394 O 418.464 5.70369 -0.0597726 0
M  V30 4395 O 417.398 5.67749 -1.99863 0
M  V30 4396 H 421.224 2.37199 -1.89658 0
M  V30 4397 H 418.809 1.12469 -0.983411 0
M  V30 4398 H 420.691 4.20551 -0.267322 0
M  V30 4399 H 419.366 3.21234 0.398821 0
M  V30 4400 H 418.273 3.21161 -1.9185 0
M  V30 4401 H 419.606 4.23555 -2.50723 0
M  V30 4402 N 421.258 1.00505 1.21394 0
M  V30 4403 C 422.208 0.536503 2.21598 0
M  V30 4404 C 423.192 -0.401914 1.55799 0
M  V30 4405 O 424.384 -0.226757 1.75541 0
M  V30 4406 C 421.513 -0.135446 3.43033 0
M  V30 4407 C 420.599 0.823992 4.16018 0
M  V30 4408 N 420.99 1.97683 4.6557 0
M  V30 4409 C 419.288 0.642387 4.4135 0
M  V30 4410 C 419.989 2.58003 5.21354 0
M  V30 4411 N 418.965 1.86162 5.1073 0
M  V30 4412 H 422.767 1.41557 2.57563 0
M  V30 4413 H 420.281 0.868878 1.37202 0
M  V30 4414 H 422.278 -0.488584 4.14027 0
M  V30 4415 H 420.938 -1.01049 3.08576 0
M  V30 4416 H 421.949 2.3572 4.61147 0
M  V30 4417 H 418.626 -0.185578 4.17087 0
M  V30 4418 H 420.016 3.555 5.70149 0
M  V30 4419 N 422.737 -1.36956 0.779787 0
M  V30 4420 C 423.685 -2.32053 0.15942 0
M  V30 4421 C 424.679 -1.55333 -0.675878 0
M  V30 4422 O 425.885 -1.70668 -0.57204 0
M  V30 4423 H 422.26 -0.751286 0.0327707 0
M  V30 4424 H 424.231 -2.8195 0.977078 0
M  V30 4425 C 422.98 -3.40602 -0.698977 0
M  V30 4426 H 422.303 -3.99746 -0.0655966 0
M  V30 4427 H 423.743 -4.09486 -1.09989 0
M  V30 4428 C 422.202 -2.81359 -1.85307 0
M  V30 4429 O 422.732 -2.72751 -2.94906 0
M  V30 4430 N 420.938 -2.38786 -1.65619 0
M  V30 4431 H 420.485 -2.45987 -0.764725 0
M  V30 4432 H 420.443 -1.99493 -2.43002 0
M  V30 4433 N 424.215 -0.530993 -1.48385 0
M  V30 4434 C 425.461 0.00274135 -2.028 0
M  V30 4435 C 425.794 1.33838 -1.40716 0
M  V30 4436 O 425.069 1.86465 -0.553277 0
M  V30 4437 C 425.352 0.123676 -3.59888 0
M  V30 4438 C 425.205 -1.2372 -4.3245 0
M  V30 4439 C 426.524 0.849967 -4.31814 0
M  V30 4440 H 423.643 -0.000477758 -0.737 0
M  V30 4441 H 426.285 -0.688217 -1.77098 0
M  V30 4442 H 424.435 0.712157 -3.81917 0
M  V30 4443 H 426.107 -1.86687 -4.21836 0
M  V30 4444 H 424.35 -1.81882 -3.93829 0
M  V30 4445 H 425.021 -1.10557 -5.40815 0
M  V30 4446 H 427.497 0.350572 -4.14621 0
M  V30 4447 H 426.373 0.903486 -5.41413 0
M  V30 4448 H 426.634 1.90047 -3.99167 0
M  V30 4449 N 425.693 1.55336 -0.266172 0
M  V30 4450 C 426.918 2.04258 0.359661 0
M  V30 4451 C 427.343 1.14359 1.49344 0
M  V30 4452 O 426.701 0.140369 1.80756 0
M  V30 4453 C 426.749 3.50997 0.826635 0
M  V30 4454 O 425.853 3.64204 1.93466 0
M  V30 4455 H 425.194 0.659668 0.075727 0
M  V30 4456 H 427.724 2.00694 -0.39786 0
M  V30 4457 H 427.734 3.9219 1.12477 0
M  V30 4458 H 426.409 4.159 -0.00293032 0
M  V30 4459 H 424.986 3.34913 1.63974 0
M  V30 4460 N 427.171 -0.0066808 1.57599 0
M  V30 4461 C 428.582 -0.550379 1.78403 0
M  V30 4462 C 428.933 -1.74339 0.900014 0
M  V30 4463 O 428.058 -2.16166 0.100713 0
M  V30 4464 C 428.653 -1.00523 3.23544 0
M  V30 4465 C 427.212 -1.49428 3.45468 0
M  V30 4466 C 426.359 -0.442444 2.73748 0
M  V30 4467 H 429.31 0.219508 1.57175 0
M  V30 4468 H 429.331 -1.87157 3.31289 0
M  V30 4469 H 428.843 -0.136735 3.87859 0
M  V30 4470 H 426.944 -2.3839 2.86358 0
M  V30 4471 H 427.057 -1.52635 4.54136 0
M  V30 4472 H 425.421 -0.902578 2.38171 0
M  V30 4473 H 426.204 0.416973 3.40758 0
M  V30 4474 N 428.649 -1.55105 -0.279332 0
M  V30 4475 C 429.897 -1.75066 -1.00977 0
M  V30 4476 C 430.218 -0.551276 -1.87045 0
M  V30 4477 O 429.488 0.433984 -1.91032 0
M  V30 4478 H 428.068 -0.645578 -0.375816 0
M  V30 4479 H 430.73 -1.92497 -0.305089 0
M  V30 4480 H 429.826 -2.64894 -1.65038 0
M  V30 4481 N 430.127 0.543554 -1.4793 0
M  V30 4482 C 431.357 1.32324 -1.58663 0
M  V30 4483 C 431.765 1.8766 -0.240896 0
M  V30 4484 O 431.108 1.66411 0.778011 0
M  V30 4485 C 431.17 2.52094 -2.56299 0
M  V30 4486 C 430.834 2.17944 -4.01683 0
M  V30 4487 C 431.831 1.74422 -4.89768 0
M  V30 4488 C 429.516 2.28884 -4.47121 0
M  V30 4489 C 431.51 1.42287 -6.21316 0
M  V30 4490 C 429.197 1.96361 -5.78693 0
M  V30 4491 C 430.195 1.53132 -6.65612 0
M  V30 4492 O 429.883 1.21029 -7.94737 0
M  V30 4493 H 429.615 0.409174 -0.538101 0
M  V30 4494 H 432.169 0.663887 -1.94375 0
M  V30 4495 H 430.399 3.20965 -2.15681 0
M  V30 4496 H 432.088 3.14165 -2.57012 0
M  V30 4497 H 432.854 1.65452 -4.55907 0
M  V30 4498 H 428.733 2.61488 -3.79664 0
M  V30 4499 H 432.277 1.08472 -6.89115 0
M  V30 4500 H 428.174 2.04967 -6.12094 0
M  V30 4501 H 428.942 1.34543 -8.07366 0
M  V30 4502 N 431.605 1.3629 0.791371 0
M  V30 4503 C 432.553 1.30514 1.92533 0
M  V30 4504 C 433.547 0.197285 1.68247 0
M  V30 4505 O 434.753 0.364176 1.76278 0
M  V30 4506 H 431.128 0.406263 0.632815 0
M  V30 4507 H 433.099 2.26282 1.94523 0
M  V30 4508 C 431.848 1.10933 3.29529 0
M  V30 4509 H 431.171 1.95427 3.48781 0
M  V30 4510 H 432.611 1.10937 4.0923 0
M  V30 4511 C 431.07 -0.186123 3.36385 0
M  V30 4512 O 431.6 -1.17664 3.84081 0
M  V30 4513 N 429.806 -0.230128 2.89687 0
M  V30 4514 H 429.353 0.576545 2.51065 0
M  V30 4515 H 429.311 -1.09658 2.94657 0
M  V30 4516 N 433.083 -1.0153 1.20538 0
M  V30 4517 C 434.33 -1.75149 1.01633 0
M  V30 4518 C 434.658 -1.89189 -0.451399 0
M  V30 4519 O 433.913 -1.41551 -1.35136 0
M  V30 4520 C 434.212 -3.17213 1.64654 0
M  V30 4521 C 433.878 -3.23146 3.14464 0
M  V30 4522 C 432.54 -3.24472 3.55347 0
M  V30 4523 C 434.892 -3.21207 4.10458 0
M  V30 4524 C 432.22 -3.21532 4.90748 0
M  V30 4525 C 434.572 -3.19808 5.45807 0
M  V30 4526 C 433.236 -3.19439 5.86102 0
M  V30 4527 H 432.506 -0.640914 0.3719 0
M  V30 4528 H 435.153 -1.19071 1.49981 0
M  V30 4529 H 433.458 -3.76457 1.08571 0
M  V30 4530 H 435.155 -3.72871 1.4754 0
M  V30 4531 H 431.745 -3.2285 2.81897 0
M  V30 4532 H 435.929 -3.19351 3.79906 0
M  V30 4533 H 431.185 -3.19578 5.21229 0
M  V30 4534 H 435.359 -3.1726 6.19935 0
M  V30 4535 H 432.986 -3.16915 6.90991 0
M  V30 4536 N 434.561 -1.01147 -1.20859 0
M  V30 4537 C 435.977 -0.725422 -1.42161 0
M  V30 4538 C 436.177 0.696919 -1.89064 0
M  V30 4539 O 435.233 1.46539 -2.05627 0
M  V30 4540 C 436.546 -1.74678 -2.44761 0
M  V30 4541 C 438.094 -1.76433 -2.58535 0
M  V30 4542 C 438.569 -2.77481 -3.64374 0
M  V30 4543 N 440.06 -2.76189 -3.71852 0
M  V30 4544 C 440.795 -3.51035 -4.53389 0
M  V30 4545 N 440.291 -4.35541 -5.38773 0
M  V30 4546 N 442.084 -3.39655 -4.47873 0
M  V30 4547 H 434.235 -1.92979 -0.887282 0
M  V30 4548 H 436.498 -0.833327 -0.451962 0
M  V30 4549 H 436.204 -2.76551 -2.17285 0
M  V30 4550 H 436.078 -1.55472 -3.43669 0
M  V30 4551 H 438.465 -0.75248 -2.85345 0
M  V30 4552 H 438.546 -1.99712 -1.5984 0
M  V30 4553 H 438.19 -3.78827 -3.38308 0
M  V30 4554 H 438.12 -2.51466 -4.6268 0
M  V30 4555 H 440.611 -2.14885 -3.10858 0
M  V30 4556 H 440.924 -4.89432 -5.98061 0
M  V30 4557 H 439.269 -4.39621 -5.38292 0
M  V30 4558 H 442.46 -2.73063 -3.80203 0
M  V30 4559 H 442.633 -3.9824 -5.11184 0
M  V30 4560 N 436.039 1.36541 -0.78704 0
M  V30 4561 C 437.286 1.99304 -0.358341 0
M  V30 4562 C 437.614 1.62467 1.06933 0
M  V30 4563 O 436.869 0.870019 1.75297 0
M  V30 4564 C 437.168 3.54343 -0.466485 0
M  V30 4565 C 436.834 4.10993 -1.85461 0
M  V30 4566 C 435.496 4.26177 -2.23443 0
M  V30 4567 C 437.848 4.41895 -2.76366 0
M  V30 4568 C 435.176 4.69573 -3.51736 0
M  V30 4569 C 437.528 4.86722 -4.04084 0
M  V30 4570 C 436.192 5.00112 -4.42091 0
M  V30 4571 H 435.462 0.729306 -0.131126 0
M  V30 4572 H 438.109 1.63068 -1.00404 0
M  V30 4573 H 436.414 3.90918 0.262719 0
M  V30 4574 H 438.111 4.00833 -0.115854 0
M  V30 4575 H 434.701 3.99612 -1.54946 0
M  V30 4576 H 438.885 4.29735 -2.48277 0
M  V30 4577 H 434.141 4.78127 -3.81057 0
M  V30 4578 H 438.315 5.09598 -4.7464 0
M  V30 4579 H 435.942 5.33498 -5.41557 0
M  V30 4580 N 437.518 0.538854 1.48102 0
M  V30 4581 C 438.481 -0.208395 2.28251 0
M  V30 4582 C 439.481 -0.859656 1.35892 0
M  V30 4583 O 440.671 -0.71834 1.58699 0
M  V30 4584 C 437.803 -1.30252 3.15035 0
M  V30 4585 H 438.996 0.495407 2.9578 0
M  V30 4586 H 436.549 0.295112 1.53489 0
M  V30 4587 H 437.284 -2.0393 2.52157 0
M  V30 4588 H 437.069 -0.840551 3.82985 0
M  V30 4589 H 438.559 -1.82787 3.75471 0
M  V30 4590 N 438.996 -1.55193 0.274407 0
M  V30 4591 C 439.943 -2.225 -0.613374 0
M  V30 4592 C 440.913 -1.19823 -1.15029 0
M  V30 4593 O 442.098 -1.48362 -1.19973 0
M  V30 4594 C 439.238 -2.94927 -1.79199 0
M  V30 4595 C 438.351 -4.12322 -1.28899 0
M  V30 4596 C 437.486 -4.72394 -2.42934 0
M  V30 4597 C 436.525 -5.81984 -1.89634 0
M  V30 4598 N 435.662 -6.36123 -2.9714 0
M  V30 4599 H 440.502 -2.97982 -0.032756 0
M  V30 4600 H 438.039 -1.47099 -0.00440146 0
M  V30 4601 H 439.997 -3.35134 -2.48478 0
M  V30 4602 H 438.627 -2.2187 -2.34465 0
M  V30 4603 H 437.679 -3.7724 -0.489327 0
M  V30 4604 H 438.991 -4.91355 -0.858587 0
M  V30 4605 H 438.145 -5.15317 -3.20208 0
M  V30 4606 H 436.884 -3.92636 -2.8929 0
M  V30 4607 H 435.889 -5.38511 -1.1084 0
M  V30 4608 H 437.114 -6.6361 -1.44215 0
M  V30 4609 H 435.06 -5.59259 -3.42878 0
M  V30 4610 H 434.977 -7.10427 -2.58515 0
M  V30 4611 H 436.245 -6.83704 -3.74391 0
M  V30 4612 N 440.474 -0.00167713 -1.576 0
M  V30 4613 C 441.704 0.692754 -1.94639 0
M  V30 4614 C 442.112 1.67744 -0.87513 0
M  V30 4615 O 441.455 1.8305 0.154382 0
M  V30 4616 C 441.517 1.47881 -3.27676 0
M  V30 4617 C 441.181 0.655518 -4.52274 0
M  V30 4618 C 442.178 -0.0575214 -5.19868 0
M  V30 4619 C 439.863 0.600994 -4.98692 0
M  V30 4620 C 441.857 -0.814052 -6.3218 0
M  V30 4621 C 439.544 -0.15926 -6.10892 0
M  V30 4622 C 440.542 -0.865515 -6.77494 0
M  V30 4623 O 440.23 -1.61336 -7.87544 0
M  V30 4624 H 439.962 0.197792 -0.646417 0
M  V30 4625 H 442.516 -0.049423 -2.05341 0
M  V30 4626 H 440.746 2.2655 -3.13388 0
M  V30 4627 H 442.435 2.05874 -3.49816 0
M  V30 4628 H 443.201 -0.0245611 -4.84994 0
M  V30 4629 H 439.08 1.14025 -4.46676 0
M  V30 4630 H 442.624 -1.36584 -6.84098 0
M  V30 4631 H 438.521 -0.194035 -6.45208 0
M  V30 4632 H 439.289 -1.53025 -8.04068 0
M  V30 4633 N 441.952 1.55251 0.271103 0
M  V30 4634 C 443.182 1.79713 1.01916 0
M  V30 4635 C 443.59 0.571613 1.80359 0
M  V30 4636 O 442.933 -0.468853 1.77616 0
M  V30 4637 C 442.995 2.97138 2.02359 0
M  V30 4638 C 442.659 4.34104 1.42837 0
M  V30 4639 C 443.656 5.13019 0.843071 0
M  V30 4640 C 441.341 4.80765 1.455 0
M  V30 4641 C 443.335 6.36729 0.292333 0
M  V30 4642 C 441.022 6.0443 0.900402 0
M  V30 4643 C 442.02 6.8225 0.32007 0
M  V30 4644 O 441.708 8.03582 -0.226031 0
M  V30 4645 H 441.44 0.602431 0.306681 0
M  V30 4646 H 443.994 2.03097 0.306701 0
M  V30 4647 H 442.224 2.6945 2.77369 0
M  V30 4648 H 443.913 3.08907 2.63309 0
M  V30 4649 H 444.679 4.781 0.815178 0
M  V30 4650 H 440.558 4.20202 1.89609 0
M  V30 4651 H 444.102 6.97414 -0.161274 0
M  V30 4652 H 439.999 6.3883 0.925541 0
M  V30 4653 H 440.767 8.18418 -0.115572 0
M  V30 4654 N 443.43 -0.535701 1.48216 0
M  V30 4655 C 444.846 -0.863701 1.3421 0
M  V30 4656 C 445.046 -1.98458 0.34879 0
M  V30 4657 O 444.102 -2.51432 -0.23204 0
M  V30 4658 C 445.415 -1.23662 2.74095 0
M  V30 4659 C 446.963 -1.34683 2.82541 0
M  V30 4660 C 447.438 -1.75322 4.23115 0
M  V30 4661 N 448.929 -1.82434 4.2576 0
M  V30 4662 C 449.664 -2.15252 5.31464 0
M  V30 4663 N 449.16 -2.46533 6.47452 0
M  V30 4664 N 450.953 -2.16209 5.18855 0
M  V30 4665 H 443.104 0.203965 2.11418 0
M  V30 4666 H 445.367 0.0286033 0.947568 0
M  V30 4667 H 445.073 -0.486674 3.48316 0
M  V30 4668 H 444.947 -2.18805 3.07253 0
M  V30 4669 H 447.334 -2.08756 2.08579 0
M  V30 4670 H 447.415 -0.376756 2.5301 0
M  V30 4671 H 447.059 -1.01812 4.97591 0
M  V30 4672 H 446.989 -2.7337 4.50085 0
M  V30 4673 H 449.48 -1.6056 3.42095 0
M  V30 4674 H 449.793 -2.70662 7.23852 0
M  V30 4675 H 448.138 -2.44065 6.50736 0
M  V30 4676 H 451.329 -1.91224 4.2726 0
M  V30 4677 H 451.502 -2.41453 6.01335 0
M  V30 4678 N 444.908 -1.36708 -0.784132 0
M  V30 4679 C 446.185 -1.21776 -1.53069 0
M  V30 4680 C 446.565 0.193876 -2.10208 0
M  V30 4681 O 445.913 1.20012 -1.94446 0
M  V30 4682 C 446.123 -2.30395 -2.62143 0
M  V30 4683 C 447.471 -2.67325 -3.29882 0
M  V30 4684 O 448.495 -2.29478 -2.7243 0
M  V30 4685 O 447.354 -3.32485 -4.33724 0
M  V30 4686 H 444.448 -0.474459 -0.677361 0
M  V30 4687 H 446.994 -1.48454 -0.82216 0
M  V30 4688 H 445.766 -3.2498 -2.17953 0
M  V30 4689 H 445.389 -2.05112 -3.40609 0
M  V30 4690 N 446.386 1.0089 -1.21074 0
M  V30 4691 C 447.316 2.1145 -0.990523 0
M  V30 4692 C 448.297 1.69897 0.0831699 0
M  V30 4693 O 449.482 1.94052 -0.0758853 0
M  V30 4694 C 446.612 3.42914 -0.550177 0
M  V30 4695 C 445.566 3.98244 -1.56799 0
M  V30 4696 C 444.892 5.25568 -0.984013 0
M  V30 4697 C 446.192 4.30752 -2.95381 0
M  V30 4698 H 447.886 2.3013 -1.91521 0
M  V30 4699 H 445.432 1.10592 -0.92225 0
M  V30 4700 H 447.385 4.19653 -0.383305 0
M  V30 4701 H 446.109 3.24014 0.41015 0
M  V30 4702 H 444.768 3.23621 -1.72236 0
M  V30 4703 H 444.416 5.02998 -0.0155216 0
M  V30 4704 H 444.116 5.63551 -1.66384 0
M  V30 4705 H 445.64 6.04955 -0.828378 0
M  V30 4706 H 447.054 4.98349 -2.8341 0
M  V30 4707 H 445.451 4.79869 -3.60341 0
M  V30 4708 H 446.521 3.39192 -3.46521 0
M  V30 4709 N 447.864 1.01787 1.20321 0
M  V30 4710 C 448.827 0.593972 2.2137 0
M  V30 4711 C 449.827 -0.336553 1.57239 0
M  V30 4712 O 451.017 -0.125069 1.7375 0
M  V30 4713 C 448.149 -0.132433 3.40643 0
M  V30 4714 H 449.342 1.48791 2.60387 0
M  V30 4715 H 446.895 0.807803 1.33807 0
M  V30 4716 H 447.63 -1.04123 3.0713 0
M  V30 4717 H 447.415 0.53605 3.88418 0
M  V30 4718 H 448.905 -0.416314 4.1552 0
M  V30 4719 N 449.342 -1.36122 0.79427 0
M  V30 4720 C 450.59 -1.98718 0.368177 0
M  V30 4721 C 450.911 -1.63345 -1.06506 0
M  V30 4722 O 450.181 -0.909825 -1.73491 0
M  V30 4723 H 448.761 -0.735038 0.133146 0
M  V30 4724 H 451.423 -1.66239 1.01739 0
M  V30 4725 H 450.519 -3.08633 0.463923 0
M  V30 4726 N 450.82 -0.546701 -1.47814 0
M  V30 4727 C 451.768 0.220048 -2.31557 0
M  V30 4728 C 452.762 0.919472 -1.42275 0
M  V30 4729 O 453.968 0.841953 -1.59095 0
M  V30 4730 H 450.343 0.0898334 -0.746615 0
M  V30 4731 H 452.314 -0.505589 -2.94086 0
M  V30 4732 C 451.063 1.24353 -3.24702 0
M  V30 4733 H 450.386 0.714758 -3.93359 0
M  V30 4734 H 451.826 1.75112 -3.8615 0
M  V30 4735 C 450.285 2.28593 -2.47481 0
M  V30 4736 O 450.815 3.35334 -2.21165 0
M  V30 4737 N 449.021 2.02244 -2.08676 0
M  V30 4738 H 448.568 1.15455 -2.30278 0
M  V30 4739 H 448.526 2.72207 -1.57323 0
M  V30 4740 N 452.299 1.55045 -0.282633 0
M  V30 4741 C 453.209 2.26491 0.61147 0
M  V30 4742 C 454.225 1.29348 1.16384 0
M  V30 4743 O 455.401 1.62298 1.19253 0
M  V30 4744 C 452.466 2.97779 1.77563 0
M  V30 4745 C 451.527 4.10418 1.25919 0
M  V30 4746 C 450.76 4.78297 2.36786 0
M  V30 4747 O 450.983 4.45426 3.56303 0
M  V30 4748 O 449.917 5.66089 2.04517 0
M  V30 4749 H 453.743 3.03683 0.0324615 0
M  V30 4750 H 451.328 1.49317 -0.0497576 0
M  V30 4751 H 453.21 3.42554 2.45427 0
M  V30 4752 H 451.885 2.23498 2.34159 0
M  V30 4753 H 450.792 3.70082 0.546797 0
M  V30 4754 H 452.125 4.86622 0.738887 0
M  V30 4755 N 453.777 0.010035 1.57597 0
M  V30 4756 C 454.709 -1.00649 2.05918 0
M  V30 4757 C 455.722 -1.30077 0.978964 0
M  V30 4758 O 456.911 -1.26878 1.25556 0
M  V30 4759 C 454.011 -2.33876 2.45265 0
M  V30 4760 C 453.184 -2.23242 3.7614 0
M  V30 4761 C 452.243 -3.39242 4.02245 0
M  V30 4762 O 451.269 -3.1698 4.72771 0
M  V30 4763 N 452.471 -4.6242 3.50924 0
M  V30 4764 H 455.236 -0.594333 2.93748 0
M  V30 4765 H 452.797 -0.17714 1.60928 0
M  V30 4766 H 454.789 -3.1027 2.59836 0
M  V30 4767 H 453.359 -2.66799 1.62902 0
M  V30 4768 H 452.579 -1.31696 3.71551 0
M  V30 4769 H 453.867 -2.13321 4.61922 0
M  V30 4770 H 453.265 -4.83404 2.93832 0
M  V30 4771 H 451.822 -5.36046 3.70807 0
M  V30 4772 N 455.255 -1.55392 -0.262866 0
M  V30 4773 C 456.671 -1.47459 -0.610582 0
M  V30 4774 C 456.871 -0.697031 -1.8906 0
M  V30 4775 O 455.927 -0.219952 -2.5154 0
M  V30 4776 C 457.24 -2.91751 -0.728131 0
M  V30 4777 C 458.788 -3.02027 -0.821517 0
M  V30 4778 C 459.263 -4.47594 -0.97076 0
M  V30 4779 N 460.754 -4.51465 -1.03603 0
M  V30 4780 C 461.489 -5.61326 -1.17049 0
M  V30 4781 N 460.985 -6.81032 -1.2715 0
M  V30 4782 N 462.778 -5.49089 -1.20239 0
M  V30 4783 H 454.929 -2.04395 0.577632 0
M  V30 4784 H 457.192 -0.927287 0.197086 0
M  V30 4785 H 456.898 -3.51413 0.142132 0
M  V30 4786 H 456.772 -3.4134 -1.6052 0
M  V30 4787 H 459.159 -2.42456 -1.68224 0
M  V30 4788 H 459.24 -2.55674 0.0803688 0
M  V30 4789 H 458.884 -5.07771 -0.114655 0
M  V30 4790 H 458.814 -4.91613 -1.88745 0
M  V30 4791 H 461.305 -3.6524 -0.96996 0
M  V30 4792 H 461.618 -7.60511 -1.37271 0
M  V30 4793 H 459.963 -6.83824 -1.24136 0
M  V30 4794 H 463.154 -4.54507 -1.11985 0
M  V30 4795 H 463.327 -6.34749 -1.30373 0
M  V30 4796 N 456.733 0.527833 -1.48498 0
M  V30 4797 C 457.961 1.30823 -1.6029 0
M  V30 4798 C 458.376 1.86945 -0.263974 0
M  V30 4799 O 457.733 1.6651 0.747034 0
M  V30 4800 C 457.784 2.45756 -2.65116 0
M  V30 4801 O 457.505 1.91946 -3.93813 0
M  V30 4802 C 459.006 3.37543 -2.87367 0
M  V30 4803 H 456.226 0.397763 -0.540394 0
M  V30 4804 H 458.77 0.636529 -1.94341 0
M  V30 4805 H 456.925 3.08806 -2.33917 0
M  V30 4806 H 457.339 2.67195 -4.51339 0
M  V30 4807 H 458.813 4.14532 -3.6451 0
M  V30 4808 H 459.29 3.92905 -1.9627 0
M  V30 4809 H 459.896 2.80283 -3.19878 0
M  V30 4810 N 458.211 1.37122 0.776871 0
M  V30 4811 C 459.141 1.35164 1.90402 0
M  V30 4812 C 460.122 0.221069 1.68657 0
M  V30 4813 O 461.307 0.420642 1.8959 0
M  V30 4814 C 458.437 1.15274 3.27611 0
M  V30 4815 C 457.391 2.25289 3.63908 0
M  V30 4816 C 456.717 1.90527 4.99603 0
M  V30 4817 C 458.017 3.67446 3.71188 0
M  V30 4818 H 459.711 2.29482 1.92297 0
M  V30 4819 H 457.257 1.10465 0.923773 0
M  V30 4820 H 459.21 1.12536 4.06096 0
M  V30 4821 H 457.934 0.174102 3.26136 0
M  V30 4822 H 456.593 2.27174 2.87728 0
M  V30 4823 H 456.241 0.91206 4.94662 0
M  V30 4824 H 455.941 2.64193 5.24858 0
M  V30 4825 H 457.465 1.89367 5.80493 0
M  V30 4826 H 458.879 3.67719 4.39836 0
M  V30 4827 H 457.276 4.40123 4.07936 0
M  V30 4828 H 458.346 4.01443 2.71977 0
M  V30 4829 N 459.689 -1.00246 1.21608 0
M  V30 4830 C 460.938 -1.73476 1.02902 0
M  V30 4831 C 461.251 -1.90643 -0.437561 0
M  V30 4832 O 462.457 -2.61105 -0.74407 0
M  V30 4833 C 460.913 -3.12079 1.79261 0
M  V30 4834 C 460.521 -3.02877 3.30106 0
M  V30 4835 C 462.265 -3.89421 1.68972 0
M  V30 4836 C 460.172 -4.36575 3.98944 0
M  V30 4837 H 459.102 -0.650408 0.381425 0
M  V30 4838 H 461.753 -1.11985 1.45367 0
M  V30 4839 H 460.135 -3.74196 1.2959 0
M  V30 4840 H 461.309 -2.49983 3.87098 0
M  V30 4841 H 459.624 -2.39022 3.40965 0
M  V30 4842 H 462.221 -4.88362 2.17731 0
M  V30 4843 H 462.564 -4.1122 0.648397 0
M  V30 4844 H 463.097 -3.33963 2.16133 0
M  V30 4845 H 459.836 -4.19978 5.03288 0
M  V30 4846 H 459.356 -4.8942 3.4674 0
M  V30 4847 H 461.035 -5.05364 4.04 0
M  V30 4848 N 461.167 -1.02423 -1.1978 0
M  V30 4849 C 462.114 -0.601023 -2.22837 0
M  V30 4850 C 463.084 0.382801 -1.61629 0
M  V30 4851 O 464.269 0.280514 -1.88727 0
M  V30 4852 C 461.409 0.0467755 -3.45068 0
M  V30 4853 C 460.522 -0.98253 -4.20678 0
M  V30 4854 C 459.657 -0.304982 -5.30324 0
M  V30 4855 C 458.696 -1.32052 -5.97686 0
M  V30 4856 N 457.833 -0.669105 -6.98904 0
M  V30 4857 H 462.673 -1.48444 -2.58396 0
M  V30 4858 H 460.21 -0.742936 -1.2696 0
M  V30 4859 H 462.168 0.439556 -4.14878 0
M  V30 4860 H 460.798 0.893796 -3.10179 0
M  V30 4861 H 459.85 -1.49341 -3.49859 0
M  V30 4862 H 461.162 -1.75455 -4.66923 0
M  V30 4863 H 460.316 0.142893 -6.06532 0
M  V30 4864 H 459.055 0.499283 -4.85138 0
M  V30 4865 H 458.06 -1.7787 -5.20233 0
M  V30 4866 H 459.285 -2.1262 -6.44957 0
M  V30 4867 H 457.231 0.115152 -6.55899 0
M  V30 4868 H 457.148 -1.37908 -7.43315 0
M  V30 4869 H 458.416 -0.245076 -7.79115 0
M  V30 4870 N 462.645 1.35699 -0.801477 0
M  V30 4871 C 463.608 2.28199 -0.213994 0
M  V30 4872 C 464.608 1.49359 0.595691 0
M  V30 4873 O 465.798 1.69186 0.414921 0
M  V30 4874 C 462.93 3.33587 0.702297 0
M  V30 4875 H 464.123 2.81666 -1.02976 0
M  V30 4876 H 461.676 1.45467 -0.571759 0
M  V30 4877 H 462.411 2.85297 1.54195 0
M  V30 4878 H 462.196 3.91906 0.123484 0
M  V30 4879 H 463.686 4.02638 1.10783 0
M  V30 4880 N 464.123 0.554532 1.47522 0
M  V30 4881 C 465.353 0.0342074 2.06572 0
M  V30 4882 C 465.761 -1.26375 1.40805 0
M  V30 4883 O 465.104 -1.7683 0.49769 0
M  V30 4884 C 465.166 -0.235096 3.5873 0
M  V30 4885 C 464.83 0.973024 4.46521 0
M  V30 4886 C 465.827 1.8779 4.848 0
M  V30 4887 C 463.512 1.18694 4.88075 0
M  V30 4888 C 465.506 2.98039 5.63428 0
M  V30 4889 C 463.193 2.29254 5.66468 0
M  V30 4890 C 464.191 3.18757 6.04055 0
M  V30 4891 O 463.879 4.27401 6.8087 0
M  V30 4892 H 463.611 0.041587 0.67472 0
M  V30 4893 H 466.165 0.766748 1.90552 0
M  V30 4894 H 464.395 -1.02191 3.72953 0
M  V30 4895 H 466.084 -0.700477 3.9981 0
M  V30 4896 H 466.85 1.72467 4.53299 0
M  V30 4897 H 462.729 0.49947 4.58286 0
M  V30 4898 H 466.273 3.67926 5.92685 0
M  V30 4899 H 462.17 2.4455 5.97382 0
M  V30 4900 H 462.938 4.25415 6.9926 0
M  V30 4901 N 465.601 -1.54893 0.290851 0
M  V30 4902 C 466.849 -1.99538 -0.320756 0
M  V30 4903 C 467.17 -1.18075 -1.55188 0
M  V30 4904 O 466.44 -0.274162 -1.93972 0
M  V30 4905 H 465.02 -0.737052 -0.121507 0
M  V30 4906 H 467.682 -1.90755 0.399832 0
M  V30 4907 H 466.778 -3.06282 -0.599802 0
M  V30 4908 N 467.08 -0.0183926 -1.57589 0
M  V30 4909 C 468.329 0.66185 -1.90532 0
M  V30 4910 C 468.642 1.73904 -0.895366 0
M  V30 4911 O 469.848 2.47518 -1.11566 0
M  V30 4912 C 468.304 1.22844 -3.38286 0
M  V30 4913 C 467.912 0.185103 -4.47617 0
M  V30 4914 C 469.656 1.88581 -3.80312 0
M  V30 4915 C 467.563 0.762723 -5.86461 0
M  V30 4916 H 466.493 0.250972 -0.711006 0
M  V30 4917 H 469.144 -0.0819435 -1.83317 0
M  V30 4918 H 467.526 2.0235 -3.40398 0
M  V30 4919 H 468.7 -0.58671 -4.5705 0
M  V30 4920 H 467.015 -0.372889 -4.14727 0
M  V30 4921 H 469.612 2.32735 -4.81392 0
M  V30 4922 H 469.955 2.72408 -3.14801 0
M  V30 4923 H 470.488 1.15782 -3.80578 0
M  V30 4924 H 467.227 -0.0371713 -6.55489 0
M  V30 4925 H 466.747 1.50327 -5.80656 0
M  V30 4926 H 468.426 1.25576 -6.34697 0
M  V30 4927 N 468.558 1.5553 0.254621 0
M  V30 4928 C 469.974 1.4778 0.602753 0
M  V30 4929 C 470.174 0.707047 1.88688 0
M  V30 4930 O 469.23 0.233288 2.5142 0
M  V30 4931 C 470.543 2.92133 0.712648 0
M  V30 4932 C 472.091 3.02458 0.805488 0
M  V30 4933 C 472.566 4.48102 0.947009 0
M  V30 4934 N 474.057 4.52008 1.01207 0
M  V30 4935 C 474.792 5.61939 1.1407 0
M  V30 4936 N 474.288 6.81697 1.23536 0
M  V30 4937 N 476.081 5.49719 1.17325 0
M  V30 4938 H 468.232 2.04085 -0.588463 0
M  V30 4939 H 470.495 0.926229 -0.202001 0
M  V30 4940 H 470.201 3.51332 -0.160766 0
M  V30 4941 H 470.075 3.42187 1.58707 0
M  V30 4942 H 472.462 2.43344 1.66936 0
M  V30 4943 H 472.543 2.55627 -0.0939266 0
M  V30 4944 H 472.187 5.07824 0.087725 0
M  V30 4945 H 472.117 4.92607 1.86135 0
M  V30 4946 H 474.608 3.65749 0.950577 0
M  V30 4947 H 474.921 7.61228 1.33236 0
M  V30 4948 H 473.266 6.84473 1.20508 0
M  V30 4949 H 476.457 4.55095 1.09573 0
M  V30 4950 H 476.63 6.35432 1.27005 0
M  V30 4951 N 470.036 -0.519951 1.48776 0
M  V30 4952 C 471.283 -1.27522 1.57303 0
M  V30 4953 C 471.611 -1.92869 0.251328 0
M  V30 4954 O 470.866 -1.80372 -0.759243 0
M  V30 4955 C 471.165 -2.37864 2.6675 0
M  V30 4956 C 470.831 -1.90103 4.08867 0
M  V30 4957 C 469.493 -1.76795 4.47546 0
M  V30 4958 C 471.845 -1.54133 4.97888 0
M  V30 4959 C 469.173 -1.25868 5.73039 0
M  V30 4960 C 471.525 -1.04665 6.23881 0
M  V30 4961 C 470.189 -0.899823 6.61407 0
M  V30 4962 H 469.459 -0.466636 0.575614 0
M  V30 4963 H 472.106 -0.579109 1.82534 0
M  V30 4964 H 470.411 -3.13186 2.35418 0
M  V30 4965 H 472.108 -2.95969 2.70561 0
M  V30 4966 H 468.698 -2.01414 3.78326 0
M  V30 4967 H 472.882 -1.6327 4.68675 0
M  V30 4968 H 468.138 -1.13196 6.0083 0
M  V30 4969 H 472.312 -0.759074 6.92251 0
M  V30 4970 H 469.939 -0.503011 7.58534 0
M  V30 4971 N 471.514 -1.37532 -0.769588 0
M  V30 4972 C 472.791 -1.23392 -1.51768 0
M  V30 4973 C 473.171 0.17157 -2.10402 0
M  V30 4974 O 472.519 1.17943 -1.95708 0
M  V30 4975 C 472.729 -2.33163 -2.59685 0
M  V30 4976 C 474.077 -2.70809 -3.27028 0
M  V30 4977 O 475.101 -2.32355 -2.69981 0
M  V30 4978 O 473.96 -3.37066 -4.30173 0
M  V30 4979 H 471.054 -0.481617 -0.67229 0
M  V30 4980 H 473.6 -1.49318 -0.806368 0
M  V30 4981 H 472.372 -3.27273 -2.14494 0
M  V30 4982 H 471.995 -2.08713 -3.38415 0
M  V30 4983 N 472.992 0.995999 -1.22138 0
M  V30 4984 C 474.241 1.72928 -1.03821 0
M  V30 4985 C 474.554 1.90872 0.427444 0
M  V30 4986 O 475.76 2.61496 0.730212 0
M  V30 4987 C 474.216 3.11124 -1.80913 0
M  V30 4988 C 473.824 3.01122 -3.31707 0
M  V30 4989 C 475.568 3.8852 -1.71035 0
M  V30 4990 C 473.475 4.34453 -4.01253 0
M  V30 4991 H 472.405 0.648376 -0.384869 0
M  V30 4992 H 475.056 1.11213 -1.45959 0
M  V30 4993 H 473.438 3.73503 -1.31573 0
M  V30 4994 H 474.612 2.47926 -3.88419 0
M  V30 4995 H 472.927 2.3721 -3.42228 0
M  V30 4996 H 475.524 4.872 -2.20318 0
M  V30 4997 H 475.867 4.1087 -0.670196 0
M  V30 4998 H 476.4 3.32812 -2.17902 0
M  V30 4999 H 473.139 4.17303 -5.05508 0
M  V30 5000 H 472.659 4.87574 -3.49331 0
M  V30 5001 H 474.338 5.03215 -4.06674 0
M  V30 5002 N 474.47 1.03057 1.19235 0
M  V30 5003 C 475.719 0.72326 1.88287 0
M  V30 5004 C 476.032 -0.751333 1.80594 0
M  V30 5005 O 477.238 -1.17176 2.44912 0
M  V30 5006 C 475.694 1.24338 3.3774 0
M  V30 5007 C 475.302 2.74587 3.53986 0
M  V30 5008 C 477.046 1.01213 4.12257 0
M  V30 5009 C 474.953 3.20009 4.97341 0
M  V30 5010 H 473.883 0.266848 0.705201 0
M  V30 5011 H 476.534 1.24509 1.34795 0
M  V30 5012 H 474.916 0.649457 3.90638 0
M  V30 5013 H 476.09 3.39649 3.11408 0
M  V30 5014 H 474.405 2.9601 2.9286 0
M  V30 5015 H 477.002 1.32675 5.17978 0
M  V30 5016 H 477.345 -0.051001 4.16269 0
M  V30 5017 H 477.878 1.57014 3.65501 0
M  V30 5018 H 474.617 4.25659 4.98493 0
M  V30 5019 H 474.137 2.59676 5.40674 0
M  V30 5020 H 475.816 3.13447 5.66003 0
M  V30 5021 N 475.948 -1.35272 0.808662 0
M  V30 5022 C 477.194 -1.99003 0.390581 0
M  V30 5023 C 477.527 -1.63999 -1.0401 0
M  V30 5024 O 476.802 -0.904368 -1.72196 0
M  V30 5025 C 477.085 -3.55454 0.576566 0
M  V30 5026 C 476.938 -4.00249 2.05233 0
M  V30 5027 C 478.257 -4.401 0.00354277 0
M  V30 5028 H 475.376 -0.722917 0.143388 0
M  V30 5029 H 478.018 -1.6039 1.01858 0
M  V30 5030 H 476.168 -3.88477 0.0419766 0
M  V30 5031 H 477.84 -3.77626 2.64946 0
M  V30 5032 H 476.083 -3.51082 2.54801 0
M  V30 5033 H 476.754 -5.0911 2.13333 0
M  V30 5034 H 479.23 -4.13548 0.460117 0
M  V30 5035 H 478.106 -5.48656 0.163575 0
M  V30 5036 H 478.367 -4.28444 -1.09032 0
M  V30 5037 N 477.426 -0.562348 -1.47226 0
M  V30 5038 C 478.673 -0.0402165 -2.0246 0
M  V30 5039 C 479.001 1.31169 -1.43614 0
M  V30 5040 O 478.256 1.86805 -0.5833 0
M  V30 5041 C 478.555 0.0969817 -3.57268 0
M  V30 5042 C 478.221 -1.1847 -4.35058 0
M  V30 5043 C 476.883 -1.53588 -4.56031 0
M  V30 5044 C 479.235 -2.03378 -4.79882 0
M  V30 5045 C 476.563 -2.73452 -5.19077 0
M  V30 5046 C 478.915 -3.2245 -5.44251 0
M  V30 5047 C 477.579 -3.57876 -5.63455 0
M  V30 5048 H 476.849 -0.0147163 -0.740854 0
M  V30 5049 H 479.496 -0.734895 -1.76838 0
M  V30 5050 H 477.801 0.87466 -3.81912 0
M  V30 5051 H 479.498 0.516408 -3.97661 0
M  V30 5052 H 476.088 -0.90126 -4.19017 0
M  V30 5053 H 480.272 -1.77553 -4.63453 0
M  V30 5054 H 475.528 -3.01062 -5.32139 0
M  V30 5055 H 479.702 -3.88526 -5.77945 0
M  V30 5056 H 477.329 -4.50849 -6.12078 0
M  V30 5057 N 478.904 1.54736 -0.299062 0
M  V30 5058 C 480.152 1.99706 0.31017 0
M  V30 5059 C 480.473 1.18896 1.54559 0
M  V30 5060 O 479.743 0.284445 1.93824 0
M  V30 5061 H 478.323 0.737686 0.117596 0
M  V30 5062 H 480.985 1.9054 -0.409943 0
M  V30 5063 H 480.081 3.06596 0.58355 0
M  V30 5064 N 480.382 0.0267497 1.57577 0
M  V30 5065 C 481.329 -0.955894 2.10075 0
M  V30 5066 C 482.299 -1.32453 1.00226 0
M  V30 5067 O 483.484 -1.41826 1.27632 0
M  V30 5068 C 480.624 -2.2338 2.6305 0
M  V30 5069 C 479.737 -1.92183 3.86898 0
M  V30 5070 C 478.872 -3.14251 4.28275 0
M  V30 5071 C 477.911 -2.78862 5.44888 0
M  V30 5072 N 477.048 -3.93548 5.81433 0
M  V30 5073 H 481.888 -0.501303 2.93753 0
M  V30 5074 H 479.425 -0.235847 1.45197 0
M  V30 5075 H 481.383 -2.98124 2.91853 0
M  V30 5076 H 480.013 -2.6646 1.82205 0
M  V30 5077 H 479.065 -1.07692 3.64838 0
M  V30 5078 H 480.377 -1.62117 4.7172 0
M  V30 5079 H 479.531 -3.97317 4.58502 0
M  V30 5080 H 478.27 -3.47476 3.42215 0
M  V30 5081 H 477.275 -1.94208 5.14357 0
M  V30 5082 H 478.5 -2.46855 6.32645 0
M  V30 5083 H 476.446 -4.2662 4.98328 0
M  V30 5084 H 476.363 -3.67098 6.6089 0
M  V30 5085 H 477.631 -4.77325 6.16264 0
M  V30 5086 N 481.861 -1.55662 -0.24637 0
M  V30 5087 C 482.824 -1.89558 -1.28842 0
M  V30 5088 C 483.824 -0.772082 -1.41052 0
M  V30 5089 O 485.014 -1.04007 -1.39743 0
M  V30 5090 C 482.146 -2.12449 -2.66605 0
M  V30 5091 H 483.339 -2.82735 -1.00004 0
M  V30 5092 H 480.892 -1.48562 -0.485684 0
M  V30 5093 H 481.627 -1.21742 -3.00582 0
M  V30 5094 H 481.412 -2.94273 -2.59125 0
M  V30 5095 H 482.902 -2.39854 -3.41847 0
M  V30 5096 N 483.339 0.512053 -1.4905 0
M  V30 5097 C 484.587 1.26436 -1.57665 0
M  V30 5098 C 484.908 1.93255 -0.260293 0
M  V30 5099 O 484.178 1.82206 0.719564 0
M  V30 5100 H 482.758 0.469658 -0.580888 0
M  V30 5101 H 485.42 0.594398 -1.85615 0
M  V30 5102 H 484.516 2.03417 -2.36702 0
M  V30 5103 N 484.817 1.37938 0.762283 0
M  V30 5104 C 485.764 1.34467 1.87583 0
M  V30 5105 C 486.734 0.208633 1.64785 0
M  V30 5106 O 487.919 0.399494 1.86571 0
M  V30 5107 C 485.059 1.16692 3.24772 0
M  V30 5108 C 484.172 2.39608 3.59461 0
M  V30 5109 C 483.307 2.14631 4.85908 0
M  V30 5110 C 482.346 3.33364 5.13357 0
M  V30 5111 N 481.483 3.07877 6.30996 0
M  V30 5112 H 486.323 2.29669 1.89885 0
M  V30 5113 H 483.86 1.14116 0.928219 0
M  V30 5114 H 485.818 1.04405 4.03925 0
M  V30 5115 H 484.448 0.251333 3.2182 0
M  V30 5116 H 483.5 2.626 2.75219 0
M  V30 5117 H 484.812 3.28128 3.75678 0
M  V30 5118 H 483.966 1.99429 5.72986 0
M  V30 5119 H 482.705 1.23463 4.71814 0
M  V30 5120 H 481.71 3.49094 4.24751 0
M  V30 5121 H 482.935 4.25395 5.29354 0
M  V30 5122 H 480.881 2.19348 6.18241 0
M  V30 5123 H 480.798 3.89944 6.47673 0
M  V30 5124 H 482.066 2.96313 7.20985 0
M  V30 5125 N 486.295 -0.989507 1.22664 0
M  V30 5126 C 487.542 -1.72953 1.05325 0
M  V30 5127 C 487.87 -1.90104 -0.411168 0
M  V30 5128 O 487.125 -1.44386 -1.32103 0
M  V30 5129 C 487.424 -3.13649 1.71345 0
M  V30 5130 C 487.09 -3.16403 3.21248 0
M  V30 5131 C 485.752 -3.16862 3.62149 0
M  V30 5132 C 488.104 -3.12428 4.17179 0
M  V30 5133 C 485.432 -3.11051 4.97458 0
M  V30 5134 C 487.784 -3.08159 5.52468 0
M  V30 5135 C 486.448 -3.06935 5.92746 0
M  V30 5136 H 485.718 -0.632881 0.385412 0
M  V30 5137 H 488.365 -1.15863 1.52473 0
M  V30 5138 H 486.67 -3.74069 1.16532 0
M  V30 5139 H 488.367 -3.69658 1.55416 0
M  V30 5140 H 484.957 -3.16798 2.88682 0
M  V30 5141 H 489.141 -3.11221 3.86595 0
M  V30 5142 H 484.397 -3.0845 5.27891 0
M  V30 5143 H 488.571 -3.04039 6.26525 0
M  V30 5144 H 486.198 -3.02186 6.97558 0
M  V30 5145 N 487.773 -1.03688 -1.18687 0
M  V30 5146 C 489.05 -0.652397 -1.84399 0
M  V30 5147 C 489.43 0.868386 -1.92412 0
M  V30 5148 O 488.778 1.76832 -1.44716 0
M  V30 5149 C 488.988 -1.3238 -3.22919 0
M  V30 5150 C 490.336 -1.45216 -3.98996 0
M  V30 5151 O 491.36 -1.2816 -3.32345 0
M  V30 5152 O 490.219 -1.72975 -5.18403 0
M  V30 5153 H 487.313 -0.227793 -0.795009 0
M  V30 5154 H 489.859 -1.13553 -1.2611 0
M  V30 5155 H 488.631 -2.36202 -3.11968 0
M  V30 5156 H 488.254 -0.829039 -3.88861 0
M  V30 5157 N 489.251 1.34841 -0.815825 0
M  V30 5158 C 490.5 1.97755 -0.396976 0
M  V30 5159 C 490.813 1.65422 1.04379 0
M  V30 5160 O 492.019 2.21771 1.5662 0
M  V30 5161 C 490.475 3.53818 -0.658869 0
M  V30 5162 C 490.083 3.95051 -2.11278 0
M  V30 5163 C 491.827 4.23397 -0.305834 0
M  V30 5164 C 489.734 5.43997 -2.31994 0
M  V30 5165 H 488.664 0.739985 -0.1447 0
M  V30 5166 H 491.315 1.53781 -1.00118 0
M  V30 5167 H 489.697 3.95997 0.0154112 0
M  V30 5168 H 490.871 3.63998 -2.82564 0
M  V30 5169 H 489.186 3.38388 -2.42657 0
M  V30 5170 H 491.783 5.32899 -0.43854 0
M  V30 5171 H 492.126 4.09508 0.748952 0
M  V30 5172 H 492.659 3.8667 -0.934403 0
M  V30 5173 H 489.398 5.62865 -3.35952 0
M  V30 5174 H 488.918 5.76589 -1.65244 0
M  V30 5175 H 490.597 6.10584 -2.14001 0
M  V30 5176 N 490.729 0.570148 1.46925 0
M  V30 5177 C 491.978 0.0487352 2.01641 0
M  V30 5178 C 492.291 -1.31433 1.44861 0
M  V30 5179 O 493.497 -1.92638 1.91318 0
M  V30 5180 C 491.953 0.0365817 3.59881 0
M  V30 5181 C 491.561 1.39719 4.25655 0
M  V30 5182 C 493.305 -0.431545 4.22301 0
M  V30 5183 C 491.212 1.34345 5.75939 0
M  V30 5184 H 490.142 0.0144492 0.753862 0
M  V30 5185 H 492.793 0.719928 1.68788 0
M  V30 5186 H 491.175 -0.700522 3.89755 0
M  V30 5187 H 492.349 2.15303 4.07408 0
M  V30 5188 H 490.664 1.80431 3.75278 0
M  V30 5189 H 493.261 -0.490354 5.32447 0
M  V30 5190 H 493.604 -1.44638 3.90366 0
M  V30 5191 H 494.137 0.251102 3.97007 0
M  V30 5192 H 490.876 2.33469 6.12513 0
M  V30 5193 H 490.396 0.629615 5.96486 0
M  V30 5194 H 492.075 1.051 6.38407 0
M  V30 5195 N 492.207 -1.54576 0.307264 0
M  V30 5196 C 493.618 -1.8579 -0.184121 0
M  V30 5197 C 493.969 -1.22914 -1.52927 0
M  V30 5198 O 493.094 -0.529126 -2.09831 0
M  V30 5199 C 493.689 -3.37081 -0.340862 0
M  V30 5200 C 492.248 -3.68304 -0.776465 0
M  V30 5201 C 491.395 -2.77076 0.111503 0
M  V30 5202 H 494.346 -1.49656 0.528078 0
M  V30 5203 H 494.367 -3.61922 -1.17443 0
M  V30 5204 H 493.879 -3.82815 0.638309 0
M  V30 5205 H 491.98 -3.28092 -1.76596 0
M  V30 5206 H 492.093 -4.75434 -0.591512 0
M  V30 5207 H 490.457 -2.51374 -0.410256 0
M  V30 5208 H 491.24 -3.25632 1.08714 0
M  V30 5209 N 493.685 -0.035106 -1.57561 0
M  V30 5210 C 494.913 0.652258 -1.9635 0
M  V30 5211 C 495.328 1.65317 -0.911897 0
M  V30 5212 O 494.685 1.82194 0.105657 0
M  V30 5213 C 494.736 1.35337 -3.35211 0
M  V30 5214 O 494.457 0.392548 -4.36338 0
M  V30 5215 C 495.958 2.13199 -3.88666 0
M  V30 5216 H 493.178 0.179444 -0.646561 0
M  V30 5217 H 495.722 -0.0966459 -2.04271 0
M  V30 5218 H 493.877 2.05362 -3.28489 0
M  V30 5219 H 494.291 0.891097 -5.16875 0
M  V30 5220 H 495.765 2.577 -4.88154 0
M  V30 5221 H 496.242 2.97353 -3.23231 0
M  V30 5222 H 496.848 1.48118 -3.98674 0
M  V30 5223 N 495.163 1.55791 0.238111 0
M  V30 5224 C 496.096 1.86036 1.32158 0
M  V30 5225 C 497.074 0.716216 1.45976 0
M  V30 5226 O 498.258 0.962882 1.62052 0
M  V30 5227 C 495.385 2.05281 2.69402 0
M  V30 5228 C 494.431 3.27939 2.72687 0
M  V30 5229 S 495.264 4.84342 2.28413 0
M  V30 5230 C 496.42 5.06604 3.67565 0
M  V30 5231 H 496.653 2.77644 1.06306 0
M  V30 5232 H 494.186 1.48012 0.439537 0
M  V30 5233 H 496.144 2.17053 3.48423 0
M  V30 5234 H 494.805 1.14499 2.92487 0
M  V30 5235 H 493.998 3.38398 3.73501 0
M  V30 5236 H 493.6 3.14938 2.01717 0
M  V30 5237 H 495.892 4.94486 4.6313 0
M  V30 5238 H 496.835 6.08554 3.62033 0
M  V30 5239 H 497.243 4.34409 3.60485 0
M  V30 5240 N 496.642 -0.504142 1.49319 0
M  V30 5241 C 497.891 -1.25507 1.57895 0
M  V30 5242 C 498.204 -1.93735 0.269433 0
M  V30 5243 O 499.41 -2.70492 0.233706 0
M  V30 5244 C 497.866 -2.27869 2.78574 0
M  V30 5245 C 497.474 -1.65594 4.16272 0
M  V30 5246 C 499.218 -3.0381 2.96479 0
M  V30 5247 C 497.125 -2.66048 5.28178 0
M  V30 5248 H 496.055 -0.47212 0.587894 0
M  V30 5249 H 498.706 -0.52931 1.757 0
M  V30 5250 H 497.088 -3.03594 2.54257 0
M  V30 5251 H 498.262 -0.958826 4.50714 0
M  V30 5252 H 496.577 -1.02055 4.037 0
M  V30 5253 H 499.174 -3.78925 3.77253 0
M  V30 5254 H 499.517 -3.61235 2.06918 0
M  V30 5255 H 500.05 -2.352 3.20821 0
M  V30 5256 H 496.789 -2.13408 6.19788 0
M  V30 5257 H 496.309 -3.34009 4.98195 0
M  V30 5258 H 497.988 -3.28536 5.57381 0
M  V30 5259 N 498.12 -1.38341 -0.754957 0
M  V30 5260 C 499.068 -1.35573 -1.89005 0
M  V30 5261 C 500.062 -0.241824 -1.67665 0
M  V30 5262 O 501.268 -0.410785 -1.7525 0
M  V30 5263 H 497.643 -0.422898 -0.621821 0
M  V30 5264 H 499.614 -2.31359 -1.88455 0
M  V30 5265 C 498.363 -1.19631 -3.26471 0
M  V30 5266 H 497.686 -2.04605 -3.43477 0
M  V30 5267 H 499.126 -1.21748 -4.06144 0
M  V30 5268 C 497.585 0.0968705 -3.36761 0
M  V30 5269 O 498.115 1.07439 -3.87066 0
M  V30 5270 N 496.321 0.153242 -2.90196 0
M  V30 5271 H 495.868 -0.642908 -2.49448 0
M  V30 5272 H 495.826 1.01807 -2.9746 0
M  V30 5273 N 499.598 0.982988 -1.23187 0
M  V30 5274 C 500.847 1.71817 -1.05649 0
M  V30 5275 C 501.16 1.91315 0.407176 0
M  V30 5276 O 502.366 2.62256 0.702436 0
M  V30 5277 C 500.822 3.09188 -1.84203 0
M  V30 5278 C 500.43 2.97586 -3.34882 0
M  V30 5279 C 502.174 3.86684 -1.75146 0
M  V30 5280 C 500.081 4.30173 -4.05839 0
M  V30 5281 H 499.011 0.644258 -0.391724 0
M  V30 5282 H 501.662 1.09659 -1.4713 0
M  V30 5283 H 500.044 3.72087 -1.35527 0
M  V30 5284 H 501.218 2.43793 -3.91026 0
M  V30 5285 H 499.533 2.33567 -3.44725 0
M  V30 5286 H 502.13 4.84836 -2.25473 0
M  V30 5287 H 502.473 4.10136 -0.713737 0
M  V30 5288 H 503.006 3.30482 -2.21419 0
M  V30 5289 H 499.745 4.11918 -5.09906 0
M  V30 5290 H 499.265 4.83841 -3.54482 0
M  V30 5291 H 500.944 4.98873 -4.11989 0
M  V30 5292 N 501.076 1.04316 1.18135 0
M  V30 5293 C 502.324 0.746542 1.87806 0
M  V30 5294 C 502.645 -0.728082 1.80898 0
M  V30 5295 O 501.915 -1.52554 1.22899 0
M  V30 5296 H 500.495 0.273157 0.695265 0
M  V30 5297 H 503.157 1.32044 1.43354 0
M  V30 5298 H 502.253 1.05362 2.93778 0
M  V30 5299 N 502.554 -1.34406 0.822964 0
M  V30 5300 C 503.779 -2.0304 0.423034 0
M  V30 5301 C 504.204 -1.61568 -0.963196 0
M  V30 5302 O 503.562 -0.800339 -1.62678 0
M  V30 5303 C 503.61 -3.56636 0.53321 0
M  V30 5304 O 502.714 -4.09971 -0.446939 0
M  V30 5305 H 502.055 -0.64075 0.174171 0
M  V30 5306 H 504.585 -1.71653 1.11339 0
M  V30 5307 H 504.595 -4.05945 0.408991 0
M  V30 5308 H 503.27 -3.86168 1.54425 0
M  V30 5309 H 501.847 -3.71835 -0.281601 0
M  V30 5310 N 504.032 -0.577932 -1.46621 0
M  V30 5311 C 505.28 -0.061566 -2.02006 0
M  V30 5312 C 505.601 1.30117 -1.4524 0
M  V30 5313 O 504.871 1.85313 -0.63529 0
M  V30 5314 H 503.451 -0.0197692 -0.746738 0
M  V30 5315 H 506.113 -0.752631 -1.79782 0
M  V30 5316 H 505.209 0.0110238 -3.12098 0
M  V30 5317 N 505.51 1.54411 -0.315457 0
M  V30 5318 C 506.44 2.27002 0.547039 0
M  V30 5319 C 507.421 1.27492 1.12605 0
M  V30 5320 O 508.606 1.5629 1.15269 0
M  V30 5321 C 505.736 3.02171 1.71201 0
M  V30 5322 C 504.69 4.0895 1.26268 0
M  V30 5323 C 504.016 4.71915 2.51396 0
M  V30 5324 C 505.316 5.20891 0.383419 0
M  V30 5325 H 507.01 2.99343 -0.0584517 0
M  V30 5326 H 504.556 1.4397 -0.0295527 0
M  V30 5327 H 506.509 3.51681 2.32161 0
M  V30 5328 H 505.233 2.27433 2.34397 0
M  V30 5329 H 503.892 3.60312 0.676062 0
M  V30 5330 H 503.54 3.93801 3.12937 0
M  V30 5331 H 503.24 5.44039 2.22026 0
M  V30 5332 H 504.764 5.24195 3.13133 0
M  V30 5333 H 506.178 5.66206 0.899082 0
M  V30 5334 H 504.575 5.99821 0.182857 0
M  V30 5335 H 505.645 4.81324 -0.587821 0
M  V30 5336 N 506.988 0.0434614 1.5754 0
M  V30 5337 C 507.951 -0.918696 2.09982 0
M  V30 5338 C 508.951 -1.24488 1.01781 0
M  V30 5339 O 510.141 -1.18284 1.27885 0
M  V30 5340 C 507.273 -2.23093 2.57764 0
M  V30 5341 H 508.466 -0.464229 2.96285 0
M  V30 5342 H 506.019 -0.204818 1.54952 0
M  V30 5343 H 506.754 -2.73137 1.74832 0
M  V30 5344 H 506.539 -2.00724 3.36827 0
M  V30 5345 H 508.029 -2.92028 2.98512 0
M  V30 5346 N 508.466 -1.55915 -0.229846 0
M  V30 5347 C 509.396 -1.94754 -1.28815 0
M  V30 5348 C 510.377 -0.814657 -1.49323 0
M  V30 5349 O 511.562 -1.07631 -1.61645 0
M  V30 5350 C 508.692 -2.25705 -2.63959 0
M  V30 5351 C 507.646 -3.41406 -2.5812 0
M  V30 5352 C 506.972 -3.57941 -3.97218 0
M  V30 5353 C 508.272 -4.76616 -2.13623 0
M  V30 5354 H 509.966 -2.83404 -0.965547 0
M  V30 5355 H 507.512 -1.36353 -0.463028 0
M  V30 5356 H 509.465 -2.51467 -3.38146 0
M  V30 5357 H 508.189 -1.339 -2.9789 0
M  V30 5358 H 506.848 -3.1568 -1.86391 0
M  V30 5359 H 506.496 -2.63526 -4.28443 0
M  V30 5360 H 506.196 -4.35757 -3.94195 0
M  V30 5361 H 507.72 -3.86042 -4.73079 0
M  V30 5362 H 509.134 -5.01637 -2.77549 0
M  V30 5363 H 507.531 -5.57655 -2.21677 0
M  V30 5364 H 508.601 -4.7253 -1.08829 0
M  V30 5365 N 509.944 0.496216 -1.49584 0
M  V30 5366 C 510.874 1.60576 -1.69521 0
M  V30 5367 C 511.855 1.61169 -0.543933 0
M  V30 5368 O 513.04 1.77834 -0.78031 0
M  V30 5369 C 510.17 2.99038 -1.76616 0
M  V30 5370 C 509.124 3.13312 -2.91581 0
M  V30 5371 C 508.45 4.53172 -2.83794 0
M  V30 5372 C 509.75 2.92886 -4.32452 0
M  V30 5373 H 511.444 1.44146 -2.62416 0
M  V30 5374 H 508.99 0.692024 -1.26282 0
M  V30 5375 H 510.943 3.76564 -1.8915 0
M  V30 5376 H 509.667 3.16568 -0.80324 0
M  V30 5377 H 508.326 2.38213 -2.78658 0
M  V30 5378 H 507.974 4.67585 -1.854 0
M  V30 5379 H 507.674 4.63662 -3.60958 0
M  V30 5380 H 509.198 5.32752 -2.98342 0
M  V30 5381 H 510.612 3.60178 -4.46032 0
M  V30 5382 H 509.009 3.14844 -5.10875 0
M  V30 5383 H 510.079 1.88966 -4.46565 0
M  V30 5384 N 511.423 1.38739 0.74761 0
M  V30 5385 C 512.671 1.35007 1.50391 0
M  V30 5386 C 512.992 -0.0574274 1.94915 0
M  V30 5387 O 512.262 -1.00628 1.6808 0
M  V30 5388 H 510.842 0.496784 0.557866 0
M  V30 5389 H 513.504 1.73479 0.888319 0
M  V30 5390 H 512.6 2.00474 2.392 0
M  V30 5391 N 512.901 -0.976442 1.23707 0
M  V30 5392 C 513.834 -2.06793 0.964973 0
M  V30 5393 C 514.812 -1.62304 -0.0981472 0
M  V30 5394 O 515.996 -1.88464 0.0369477 0
M  V30 5395 C 513.123 -3.35636 0.454522 0
M  V30 5396 C 512.169 -3.99069 1.50485 0
M  V30 5397 S 513.002 -4.37814 3.0835 0
M  V30 5398 C 514.158 -5.69805 2.58985 0
M  V30 5399 H 514.391 -2.29556 1.88922 0
M  V30 5400 H 511.924 -1.11317 1.06995 0
M  V30 5401 H 513.882 -4.10162 0.166626 0
M  V30 5402 H 512.543 -3.10876 -0.448871 0
M  V30 5403 H 511.736 -4.91896 1.09792 0
M  V30 5404 H 511.338 -3.30938 1.7423 0
M  V30 5405 H 513.63 -6.46919 2.01252 0
M  V30 5406 H 514.573 -6.15345 3.50366 0
M  V30 5407 H 514.981 -5.27994 1.99705 0
M  V30 5408 N 514.379 -1.04941 -1.1758 0
M  V30 5409 C 515.342 -0.652456 -2.19717 0
M  V30 5410 C 516.342 0.294745 -1.58076 0
M  V30 5411 O 517.532 0.0789579 -1.74021 0
M  V30 5412 C 514.664 0.0420712 -3.40874 0
M  V30 5413 H 515.857 -1.55642 -2.5635 0
M  V30 5414 H 513.41 -0.842995 -1.31618 0
M  V30 5415 H 514.145 0.95943 -3.09783 0
M  V30 5416 H 513.93 -0.638844 -3.86861 0
M  V30 5417 H 515.42 0.306 -4.16477 0
M  V30 5418 N 515.857 1.33968 -0.830081 0
M  V30 5419 C 517.085 2.0228 -0.434773 0
M  V30 5420 C 517.5 1.62487 0.961419 0
M  V30 5421 O 516.857 0.833849 1.62337 0
M  V30 5422 C 516.908 3.5751 -0.535625 0
M  V30 5423 O 516.629 3.95864 -1.87679 0
M  V30 5424 C 518.13 4.43091 -0.136137 0
M  V30 5425 H 515.35 0.648151 -0.173613 0
M  V30 5426 H 517.894 1.71089 -1.12022 0
M  V30 5427 H 516.049 3.87266 0.101817 0
M  V30 5428 H 516.463 4.9056 -1.85609 0
M  V30 5429 H 517.937 5.51398 -0.257772 0
M  V30 5430 H 518.414 4.29433 0.921076 0
M  V30 5431 H 519.02 4.18677 -0.747662 0
M  V30 5432 N 517.335 0.585699 1.46312 0
M  V30 5433 C 518.581 0.0725284 2.0267 0
M  V30 5434 C 518.914 -1.28523 1.45586 0
M  V30 5435 O 518.189 -1.84283 0.622101 0
M  V30 5436 C 518.472 0.0099788 3.60099 0
M  V30 5437 C 518.325 1.39685 4.27561 0
M  V30 5438 C 519.644 -0.689117 4.34671 0
M  V30 5439 H 516.763 0.0278307 0.736474 0
M  V30 5440 H 519.405 0.753472 1.74421 0
M  V30 5441 H 517.555 -0.56992 3.84297 0
M  V30 5442 H 519.227 2.02215 4.14617 0
M  V30 5443 H 517.47 1.96374 3.86807 0
M  V30 5444 H 518.141 1.30553 5.36339 0
M  V30 5445 H 520.617 -0.196446 4.15636 0
M  V30 5446 H 519.493 -0.701921 5.44393 0
M  V30 5447 H 519.754 -1.75101 4.05946 0
M  V30 5448 N 518.813 -1.54241 0.323641 0
M  V30 5449 C 519.743 -2.27289 -0.534993 0
M  V30 5450 C 520.724 -1.28087 -1.11927 0
M  V30 5451 O 521.909 -1.56899 -1.14439 0
M  V30 5452 C 519.039 -3.03075 -1.69596 0
M  V30 5453 C 517.993 -4.09614 -1.24098 0
M  V30 5454 C 517.319 -4.73242 -2.4889 0
M  V30 5455 C 518.619 -5.21087 -0.355789 0
M  V30 5456 H 520.313 -2.99308 0.0743257 0
M  V30 5457 H 517.859 -1.43952 0.0371874 0
M  V30 5458 H 519.812 -3.52907 -2.30293 0
M  V30 5459 H 518.536 -2.28673 -2.33187 0
M  V30 5460 H 517.195 -3.60666 -0.656945 0
M  V30 5461 H 516.843 -3.95455 -3.10845 0
M  V30 5462 H 516.543 -5.45209 -2.19138 0
M  V30 5463 H 518.067 -5.25848 -3.10348 0
M  V30 5464 H 519.481 -5.66675 -0.869042 0
M  V30 5465 H 517.878 -5.9991 -0.151045 0
M  V30 5466 H 518.948 -4.81005 0.613339 0
M  V30 5467 N 520.291 -0.0518155 -1.57515 0
M  V30 5468 C 521.531 0.625712 -1.94587 0
M  V30 5469 C 521.895 1.6797 -0.930053 0
M  V30 5470 O 523.096 2.41135 -1.18774 0
M  V30 5471 C 521.367 1.20574 -3.36447 0
M  V30 5472 S 522.926 1.90118 -3.95475 0
M  V30 5473 H 519.744 0.205434 -0.680675 0
M  V30 5474 H 522.346 -0.120906 -1.95126 0
M  V30 5475 H 521.05 0.426521 -4.08178 0
M  V30 5476 H 520.581 1.98916 -3.39405 0
M  V30 5477 H 522.596 3.18184 -3.80753 0
M  V30 5478 N 521.769 1.56035 0.221574 0
M  V30 5479 C 523.046 1.69837 0.970301 0
M  V30 5480 C 523.426 0.599065 2.02421 0
M  V30 5481 O 522.774 -0.393929 2.25079 0
M  V30 5482 C 522.984 3.11148 1.58076 0
M  V30 5483 C 524.332 3.70555 2.07302 0
M  V30 5484 O 525.356 3.14109 1.6797 0
M  V30 5485 O 524.215 4.69562 2.79596 0
M  V30 5486 H 521.309 0.691727 0.453257 0
M  V30 5487 H 523.855 1.68353 0.213358 0
M  V30 5488 H 522.627 3.82617 0.819759 0
M  V30 5489 H 522.25 3.16749 2.40324 0
M  V30 5490 N 523.247 -0.488276 1.49845 0
M  V30 5491 C 524.496 -1.23826 1.59217 0
M  V30 5492 C 524.809 -1.93439 0.289966 0
M  V30 5493 O 526.015 -2.70229 0.262382 0
M  V30 5494 C 524.471 -2.24902 2.80976 0
M  V30 5495 C 524.079 -1.6117 4.18005 0
M  V30 5496 C 525.823 -3.00648 2.99685 0
M  V30 5497 C 523.73 -2.60431 5.3097 0
M  V30 5498 H 522.66 -0.465858 0.592868 0
M  V30 5499 H 525.311 -0.510645 1.76252 0
M  V30 5500 H 523.693 -3.0088 2.57463 0
M  V30 5501 H 524.867 -0.910968 4.51706 0
M  V30 5502 H 523.182 -0.97767 4.0476 0
M  V30 5503 H 525.779 -3.74903 3.81251 0
M  V30 5504 H 526.122 -3.5902 2.10738 0
M  V30 5505 H 526.655 -2.31784 3.23297 0
M  V30 5506 H 523.394 -2.06823 6.22017 0
M  V30 5507 H 522.914 -3.28707 5.01709 0
M  V30 5508 H 524.593 -3.22606 5.60834 0
M  V30 5509 N 524.725 -1.39134 -0.740242 0
M  V30 5510 C 525.974 -1.35384 -1.49512 0
M  V30 5511 C 526.287 0.04919 -1.95538 0
M  V30 5512 O 527.493 0.209257 -2.70692 0
M  V30 5513 C 525.949 -2.37812 -2.70136 0
M  V30 5514 C 525.557 -3.83804 -2.31081 0
M  V30 5515 C 527.301 -2.4313 -3.47977 0
M  V30 5516 C 525.208 -4.77886 -3.48395 0
M  V30 5517 H 524.138 -0.503297 -0.561434 0
M  V30 5518 H 526.789 -1.64754 -0.807974 0
M  V30 5519 H 525.171 -2.01505 -3.40899 0
M  V30 5520 H 526.345 -4.29123 -1.67898 0
M  V30 5521 H 524.66 -3.81732 -1.66343 0
M  V30 5522 H 527.257 -3.10614 -4.35228 0
M  V30 5523 H 527.6 -1.45423 -3.90074 0
M  V30 5524 H 528.133 -2.78304 -2.84239 0
M  V30 5525 H 524.872 -5.76836 -3.11353 0
M  V30 5526 H 524.392 -4.3725 -4.10576 0
M  V30 5527 H 526.071 -4.96538 -4.148 0
M  V30 5528 N 526.204 0.969867 -1.24223 0
M  V30 5529 C 527.45 1.7151 -1.08223 0
M  V30 5530 C 527.783 1.90478 0.37838 0
M  V30 5531 O 527.058 1.4647 1.27971 0
M  V30 5532 C 527.341 3.10714 -1.82013 0
M  V30 5533 C 527.194 2.9925 -3.35811 0
M  V30 5534 C 528.513 4.10332 -1.59108 0
M  V30 5535 H 525.632 0.622499 -0.394543 0
M  V30 5536 H 528.274 1.1284 -1.52863 0
M  V30 5537 H 526.424 3.608 -1.44068 0
M  V30 5538 H 528.096 2.56608 -3.83341 0
M  V30 5539 H 526.339 2.35512 -3.64303 0
M  V30 5540 H 527.01 3.97857 -3.82641 0
M  V30 5541 H 529.486 3.69097 -1.92111 0
M  V30 5542 H 528.362 5.05804 -2.13198 0
M  V30 5543 H 528.623 4.38926 -0.528832 0
M  V30 5544 N 527.682 1.05563 1.17022 0
M  V30 5545 C 528.612 0.681026 2.23348 0
M  V30 5546 C 529.593 -0.322983 1.67005 0
M  V30 5547 O 530.778 -0.199746 1.9317 0
M  V30 5548 C 527.908 0.0589053 3.4725 0
M  V30 5549 C 526.862 0.988082 4.16438 0
M  V30 5550 C 526.188 0.229646 5.34207 0
M  V30 5551 C 527.488 2.31388 4.68249 0
M  V30 5552 H 529.182 1.56993 2.54938 0
M  V30 5553 H 526.728 0.756302 1.2254 0
M  V30 5554 H 528.681 -0.214982 4.20851 0
M  V30 5555 H 527.405 -0.864968 3.14938 0
M  V30 5556 H 526.064 1.24659 3.44754 0
M  V30 5557 H 525.712 -0.697111 4.98146 0
M  V30 5558 H 525.412 0.848815 5.81437 0
M  V30 5559 H 526.936 -0.0368694 6.10589 0
M  V30 5560 H 528.35 2.09964 5.33468 0
M  V30 5561 H 526.747 2.88736 5.26072 0
M  V30 5562 H 527.817 2.94982 3.84855 0
M  V30 5563 N 529.16 -1.33526 0.837174 0
M  V30 5564 C 530.39 -2.01754 0.444848 0
M  V30 5565 C 530.798 -1.63149 -0.958072 0
M  V30 5566 O 530.141 -0.839827 -1.63379 0
M  V30 5567 C 530.203 -3.56228 0.483917 0
M  V30 5568 C 529.867 -4.18205 1.84265 0
M  V30 5569 C 530.864 -4.37699 2.80563 0
M  V30 5570 C 528.549 -4.54667 2.13503 0
M  V30 5571 C 530.543 -4.928 4.04261 0
M  V30 5572 C 528.23 -5.09475 3.37458 0
M  V30 5573 C 529.228 -5.28488 4.32654 0
M  V30 5574 O 528.916 -5.82132 5.54417 0
M  V30 5575 H 528.648 -0.652928 0.175104 0
M  V30 5576 H 531.202 -1.71469 1.13082 0
M  V30 5577 H 529.432 -3.85833 -0.258826 0
M  V30 5578 H 531.121 -4.05752 0.109653 0
M  V30 5579 H 531.887 -4.0988 2.59274 0
M  V30 5580 H 527.766 -4.39164 1.40201 0
M  V30 5581 H 531.31 -5.07555 4.78574 0
M  V30 5582 H 527.207 -5.36725 3.58604 0
M  V30 5583 H 527.975 -6.00548 5.56133 0
M  V30 5584 N 530.638 -0.59345 -1.46 0
M  V30 5585 C 531.878 -0.0859747 -2.04219 0
M  V30 5586 C 532.242 1.25432 -1.45364 0
M  V30 5587 O 533.443 1.85168 -1.9485 0
M  V30 5588 C 531.714 -0.0324314 -3.57385 0
M  V30 5589 S 533.273 0.415908 -4.36824 0
M  V30 5590 H 530.091 -0.0426872 -0.709717 0
M  V30 5591 H 532.693 -0.788369 -1.78899 0
M  V30 5592 H 531.397 -1.01166 -3.97735 0
M  V30 5593 H 530.928 0.6924 -3.87259 0
M  V30 5594 H 532.943 1.66844 -4.67309 0
M  V30 5595 N 532.116 1.54067 -0.331816 0
M  V30 5596 C 533.049 2.20886 0.573127 0
M  V30 5597 C 534.027 1.18876 1.10938 0
M  V30 5598 O 535.211 1.47649 1.17184 0
M  V30 5599 C 532.338 2.87706 1.78726 0
M  V30 5600 C 531.384 4.03505 1.38152 0
M  V30 5601 S 532.217 5.33919 0.41123 0
M  V30 5602 C 533.373 6.04236 1.63246 0
M  V30 5603 H 533.606 2.97299 0.00555737 0
M  V30 5604 H 531.139 1.53964 -0.115893 0
M  V30 5605 H 533.097 3.26825 2.48386 0
M  V30 5606 H 531.758 2.1108 2.32603 0
M  V30 5607 H 530.951 4.49152 2.28645 0
M  V30 5608 H 530.553 3.66102 0.764524 0
M  V30 5609 H 532.845 6.26917 2.56869 0
M  V30 5610 H 533.788 6.97546 1.218 0
M  V30 5611 H 534.196 5.34247 1.82318 0
M  V30 5612 N 533.594 0.0601682 1.57485 0
M  V30 5613 C 534.541 -0.91112 2.12055 0
M  V30 5614 C 535.511 -1.30298 1.03013 0
M  V30 5615 O 536.696 -1.39087 1.30612 0
M  V30 5616 C 533.836 -2.1775 2.67729 0
M  V30 5617 C 532.949 -1.83933 3.90887 0
M  V30 5618 C 532.084 -3.05096 4.34845 0
M  V30 5619 C 531.123 -2.67241 5.5068 0
M  V30 5620 N 530.26 -3.81127 5.8965 0
M  V30 5621 H 535.1 -0.43888 2.9475 0
M  V30 5622 H 532.637 -0.204995 1.45665 0
M  V30 5623 H 534.595 -2.91866 2.98111 0
M  V30 5624 H 533.225 -2.62535 1.87816 0
M  V30 5625 H 532.277 -0.999287 3.6704 0
M  V30 5626 H 533.589 -1.52074 4.75052 0
M  V30 5627 H 532.743 -3.87502 4.66827 0
M  V30 5628 H 531.482 -3.40139 3.49509 0
M  V30 5629 H 530.487 -1.83254 5.18361 0
M  V30 5630 H 531.712 -2.3338 6.37738 0
M  V30 5631 H 529.658 -4.15954 5.07266 0
M  V30 5632 H 529.575 -3.52997 6.68528 0
M  V30 5633 H 530.843 -4.64145 6.2625 0
M  V30 5634 N 535.072 -1.5615 -0.213296 0
M  V30 5635 C 536.019 -1.93086 -1.26437 0
M  V30 5636 C 536.989 -0.789086 -1.4616 0
M  V30 5637 O 538.174 -1.04569 -1.59593 0
M  V30 5638 C 535.314 -2.26003 -2.608 0
M  V30 5639 C 534.427 -3.53156 -2.48807 0
M  V30 5640 C 533.562 -3.7548 -3.7575 0
M  V30 5641 C 532.601 -4.96119 -3.58514 0
M  V30 5642 N 531.738 -5.14791 -4.77425 0
M  V30 5643 H 536.578 -2.82707 -0.942376 0
M  V30 5644 H 534.115 -1.39919 -0.454001 0
M  V30 5645 H 536.073 -2.431 -3.39055 0
M  V30 5646 H 534.703 -1.39546 -2.91079 0
M  V30 5647 H 533.755 -3.44207 -1.61944 0
M  V30 5648 H 535.067 -4.41565 -2.31996 0
M  V30 5649 H 534.221 -3.92718 -4.62447 0
M  V30 5650 H 532.96 -2.85368 -3.95495 0
M  V30 5651 H 531.965 -4.78823 -2.70201 0
M  V30 5652 H 533.19 -5.87724 -3.40231 0
M  V30 5653 H 531.136 -4.27623 -4.97468 0
M  V30 5654 H 531.053 -5.97347 -4.63371 0
M  V30 5655 H 532.321 -5.36471 -5.65525 0
M  V30 5656 N 536.55 0.480323 -1.50102 0
M  V30 5657 C 537.966 0.813295 -1.37323 0
M  V30 5658 C 538.166 1.97027 -0.422206 0
M  V30 5659 O 537.222 2.5212 0.138563 0
M  V30 5660 C 538.535 1.13404 -2.78496 0
M  V30 5661 C 540.083 1.24104 -2.87345 0
M  V30 5662 C 540.558 1.59497 -4.29331 0
M  V30 5663 N 542.049 1.66507 -4.32238 0
M  V30 5664 C 542.784 1.95378 -5.39087 0
M  V30 5665 N 542.28 2.22333 -6.56155 0
M  V30 5666 N 544.073 1.96803 -5.26522 0
M  V30 5667 H 536.224 -0.282291 -2.10516 0
M  V30 5668 H 538.487 -0.063752 -0.945854 0
M  V30 5669 H 538.193 0.357064 -3.49883 0
M  V30 5670 H 538.067 2.07251 -3.15162 0
M  V30 5671 H 540.454 2.00871 -2.16183 0
M  V30 5672 H 540.535 0.282593 -2.54234 0
M  V30 5673 H 540.179 0.832736 -5.01027 0
M  V30 5674 H 540.109 2.56477 -4.59921 0
M  V30 5675 H 542.6 1.47753 -3.47818 0
M  V30 5676 H 542.913 2.43611 -7.33399 0
M  V30 5677 H 541.258 2.19745 -6.59346 0
M  V30 5678 H 544.449 1.75235 -4.34062 0
M  V30 5679 H 544.622 2.18969 -6.09883 0
M  V30 5680 N 538.028 1.39524 0.732853 0
M  V30 5681 C 538.958 1.41153 1.86005 0
M  V30 5682 C 539.939 0.274614 1.67869 0
M  V30 5683 O 541.124 0.480745 1.88155 0
M  V30 5684 C 538.254 1.25638 3.23778 0
M  V30 5685 C 537.208 2.36752 3.56556 0
M  V30 5686 C 536.534 2.06326 4.93289 0
M  V30 5687 C 537.834 3.79069 3.5931 0
M  V30 5688 H 539.528 2.35484 1.84899 0
M  V30 5689 H 537.074 1.13348 0.888162 0
M  V30 5690 H 539.027 1.25398 4.0231 0
M  V30 5691 H 537.751 0.277772 3.25417 0
M  V30 5692 H 536.41 2.36213 2.80355 0
M  V30 5693 H 536.058 1.06897 4.9151 0
M  V30 5694 H 535.758 2.80757 5.16187 0
M  V30 5695 H 537.282 2.07739 5.74175 0
M  V30 5696 H 538.696 3.81526 4.27914 0
M  V30 5697 H 537.093 4.52878 3.93728 0
M  V30 5698 H 538.163 4.09893 2.59068 0
M  V30 5699 N 539.506 -0.963266 1.24736 0
M  V30 5700 C 540.736 -1.73913 1.11524 0
M  V30 5701 C 541.144 -1.86218 -0.334612 0
M  V30 5702 O 540.487 -1.3531 -1.24245 0
M  V30 5703 C 540.549 -3.17501 1.68622 0
M  V30 5704 C 540.213 -3.28655 3.17546 0
M  V30 5705 C 541.21 -3.13637 4.14642 0
M  V30 5706 C 538.895 -3.52753 3.5759 0
M  V30 5707 C 540.889 -3.2255 5.49764 0
M  V30 5708 C 538.576 -3.61303 4.92852 0
M  V30 5709 C 539.574 -3.46214 5.88748 0
M  V30 5710 O 539.262 -3.5443 7.2155 0
M  V30 5711 H 538.994 -0.552057 0.390139 0
M  V30 5712 H 541.548 -1.2177 1.65412 0
M  V30 5713 H 539.778 -3.70969 1.09172 0
M  V30 5714 H 541.467 -3.76914 1.50635 0
M  V30 5715 H 542.233 -2.94899 3.85045 0
M  V30 5716 H 538.112 -3.63561 2.83451 0
M  V30 5717 H 541.656 -3.1069 6.24594 0
M  V30 5718 H 537.553 -3.79556 5.22118 0
M  V30 5719 H 538.321 -3.71116 7.29531 0
M  V30 5720 N 540.985 -1.06182 -1.16461 0
M  V30 5721 C 542.215 -0.797425 -1.9059 0
M  V30 5722 C 542.623 0.651845 -1.77616 0
M  V30 5723 O 541.966 1.45788 -1.11766 0
M  V30 5724 C 542.028 -1.11128 -3.41893 0
M  V30 5725 C 541.692 -2.55874 -3.78652 0
M  V30 5726 C 542.689 -3.54104 -3.80665 0
M  V30 5727 C 540.374 -2.91144 -4.09317 0
M  V30 5728 C 542.368 -4.85645 -4.12829 0
M  V30 5729 C 540.055 -4.22885 -4.41148 0
M  V30 5730 C 541.053 -5.19945 -4.42883 0
M  V30 5731 O 540.741 -6.49322 -4.73959 0
M  V30 5732 H 540.473 -0.288709 -0.611247 0
M  V30 5733 H 543.027 -1.41841 -1.4856 0
M  V30 5734 H 541.257 -0.433217 -3.84266 0
M  V30 5735 H 542.946 -0.831306 -3.97296 0
M  V30 5736 H 543.712 -3.28197 -3.57088 0
M  V30 5737 H 539.591 -2.16252 -4.07131 0
M  V30 5738 H 543.135 -5.61398 -4.14099 0
M  V30 5739 H 539.032 -4.48551 -4.6419 0
M  V30 5740 H 539.8 -6.54294 -4.91774 0
M  V30 5741 N 542.463 1.3308 -0.844243 0
M  V30 5742 C 543.879 1.50447 -0.532729 0
M  V30 5743 C 544.079 1.78292 0.938837 0
M  V30 5744 O 543.135 1.84635 1.72239 0
M  V30 5745 C 544.448 2.65555 -1.41072 0
M  V30 5746 C 545.996 2.7944 -1.41005 0
M  V30 5747 C 546.471 3.97616 -2.27301 0
M  V30 5748 N 547.962 4.0486 -2.2504 0
M  V30 5749 C 548.697 4.95508 -2.88547 0
M  V30 5750 N 548.193 5.91236 -3.61126 0
M  V30 5751 N 549.986 4.88548 -2.77989 0
M  V30 5752 H 542.137 1.13269 -1.79677 0
M  V30 5753 H 544.4 0.55734 -0.766861 0
M  V30 5754 H 544.106 2.51675 -2.45668 0
M  V30 5755 H 543.98 3.61089 -1.09061 0
M  V30 5756 H 546.367 2.92749 -0.371784 0
M  V30 5757 H 546.448 1.8465 -1.77026 0
M  V30 5758 H 546.092 3.85066 -3.3119 0
M  V30 5759 H 546.022 4.91661 -1.88619 0
M  V30 5760 H 548.513 3.36353 -1.72264 0
M  V30 5761 H 548.826 6.57079 -4.06776 0
M  V30 5762 H 547.171 5.91295 -3.65234 0
M  V30 5763 H 550.362 4.12729 -2.20846 0
M  V30 5764 H 550.535 5.58994 -3.27765 0
M  V30 5765 N 543.941 0.601185 1.45683 0
M  V30 5766 C 544.851 -0.123395 2.34275 0
M  V30 5767 C 545.867 -0.86702 1.5086 0
M  V30 5768 O 547.043 -0.826049 1.8368 0
M  V30 5769 C 544.108 -1.11237 3.2837 0
M  V30 5770 C 543.169 -0.371405 4.2769 0
M  V30 5771 C 542.402 -1.31327 5.1729 0
M  V30 5772 O 542.625 -2.55078 5.10188 0
M  V30 5773 O 541.559 -0.813811 5.96373 0
M  V30 5774 H 545.385 0.604483 2.97623 0
M  V30 5775 H 542.97 0.361477 1.44961 0
M  V30 5776 H 544.852 -1.68214 3.8637 0
M  V30 5777 H 543.527 -1.82139 2.67595 0
M  V30 5778 H 542.434 0.24067 3.73325 0
M  V30 5779 H 543.767 0.296998 4.91303 0
M  V30 5780 N 545.419 -1.53889 0.339982 0
M  V30 5781 C 546.366 -2.24902 -0.518452 0
M  V30 5782 C 547.336 -1.24593 -1.09844 0
M  V30 5783 O 548.521 -1.53317 -1.13572 0
M  V30 5784 C 545.661 -3.02262 -1.66529 0
M  V30 5785 C 544.774 -4.17418 -1.11295 0
M  V30 5786 C 543.909 -4.82273 -2.2268 0
M  V30 5787 C 542.948 -5.89503 -1.6478 0
M  V30 5788 N 542.085 -6.48153 -2.69893 0
M  V30 5789 H 546.925 -2.97853 0.0936579 0
M  V30 5790 H 544.462 -1.46986 0.0579924 0
M  V30 5791 H 546.42 -3.45371 -2.3404 0
M  V30 5792 H 545.05 -2.31614 -2.24844 0
M  V30 5793 H 544.102 -3.78976 -0.328886 0
M  V30 5794 H 545.414 -4.94554 -0.649414 0
M  V30 5795 H 544.568 -5.28435 -2.98063 0
M  V30 5796 H 543.307 -4.04552 -2.72376 0
M  V30 5797 H 542.312 -5.42728 -0.879004 0
M  V30 5798 H 543.537 -6.6913 -1.1594 0
M  V30 5799 H 541.483 -5.73298 -3.1885 0
M  V30 5800 H 541.4 -7.20752 -2.28151 0
M  V30 5801 H 542.668 -6.98968 -3.45056 0
M  V30 5802 N 546.897 -0.0685191 -1.57451 0
M  V30 5803 C 547.844 0.899861 -2.12535 0
M  V30 5804 C 548.814 1.29749 -1.03703 0
M  V30 5805 O 549.999 1.38392 -1.31348 0
M  V30 5806 C 547.139 2.16328 -2.6888 0
M  V30 5807 C 546.252 1.81857 -3.91857 0
M  V30 5808 C 545.387 3.02786 -4.36457 0
M  V30 5809 C 544.426 2.64317 -5.5209 0
M  V30 5810 N 543.563 3.77994 -5.91663 0
M  V30 5811 H 548.403 0.423243 -2.94979 0
M  V30 5812 H 545.94 0.197268 -1.45771 0
M  V30 5813 H 547.898 2.90281 -2.99655 0
M  V30 5814 H 546.528 2.61536 -1.89206 0
M  V30 5815 H 545.58 0.979808 -3.67565 0
M  V30 5816 H 546.892 1.49553 -4.75852 0
M  V30 5817 H 546.046 3.85021 -4.68875 0
M  V30 5818 H 544.785 3.38281 -3.51308 0
M  V30 5819 H 543.79 1.80503 -5.19325 0
M  V30 5820 H 545.015 2.29995 -6.38967 0
M  V30 5821 H 542.961 4.13258 -5.09464 0
M  V30 5822 H 542.878 3.49447 -6.7039 0
M  V30 5823 H 544.146 4.60818 -6.28703 0
M  V30 5824 N 548.375 1.56261 0.205012 0
M  V30 5825 C 549.605 1.83874 0.942018 0
M  V30 5826 C 550.013 0.647595 1.77772 0
M  V30 5827 O 549.356 -0.393098 1.79445 0
M  V30 5828 C 549.418 3.05453 1.89575 0
M  V30 5829 C 549.082 4.39772 1.24296 0
M  V30 5830 C 550.079 5.16133 0.624724 0
M  V30 5831 C 547.764 4.86504 1.24978 0
M  V30 5832 C 549.758 6.37396 0.0220117 0
M  V30 5833 C 547.445 6.07705 0.643232 0
M  V30 5834 C 548.443 6.82993 0.0304164 0
M  V30 5835 O 548.131 8.019 -0.566654 0
M  V30 5836 H 547.863 0.614896 0.280854 0
M  V30 5837 H 550.417 2.04215 0.220285 0
M  V30 5838 H 548.647 2.80972 2.65691 0
M  V30 5839 H 550.336 3.19797 2.4997 0
M  V30 5840 H 551.102 4.81127 0.611666 0
M  V30 5841 H 546.981 4.27865 1.71616 0
M  V30 5842 H 550.525 6.96102 -0.456926 0
M  V30 5843 H 546.422 6.42181 0.653759 0
M  V30 5844 H 547.19 8.17192 -0.462588 0
M  V30 5845 N 549.853 -0.472356 1.50355 0
M  V30 5846 C 550.8 -1.57051 1.69126 0
M  V30 5847 C 551.77 -1.5733 0.532574 0
M  V30 5848 O 552.955 -1.7488 0.762994 0
M  V30 5849 C 550.095 -2.95033 1.79024 0
M  V30 5850 C 549.208 -3.04552 3.06386 0
M  V30 5851 C 548.343 -4.33441 3.07087 0
M  V30 5852 C 547.382 -4.36697 4.28908 0
M  V30 5853 N 546.519 -5.57056 4.27356 0
M  V30 5854 H 551.359 -1.40351 2.62879 0
M  V30 5855 H 548.896 -0.682403 1.30314 0
M  V30 5856 H 550.854 -3.75048 1.82744 0
M  V30 5857 H 549.484 -3.10371 0.887109 0
M  V30 5858 H 548.536 -2.17419 3.12143 0
M  V30 5859 H 549.848 -3.02818 3.96362 0
M  V30 5860 H 549.002 -5.21801 3.09529 0
M  V30 5861 H 547.741 -4.37782 2.14939 0
M  V30 5862 H 546.746 -3.46734 4.2668 0
M  V30 5863 H 547.971 -4.34049 5.22282 0
M  V30 5864 H 545.917 -5.62184 3.3806 0
M  V30 5865 H 545.834 -5.57058 5.111 0
M  V30 5866 H 547.102 -6.47545 4.33942 0
M  V30 5867 N 551.331 -1.39911 -0.725443 0
M  V30 5868 C 552.561 -1.40744 -1.51244 0
M  V30 5869 C 552.969 -0.00275403 -1.892 0
M  V30 5870 O 552.312 0.981299 -1.55294 0
M  V30 5871 C 552.374 -2.22527 -2.82351 0
M  V30 5872 C 552.038 -3.71053 -2.66774 0
M  V30 5873 C 553.035 -4.63916 -2.34686 0
M  V30 5874 C 550.72 -4.14753 -2.83347 0
M  V30 5875 C 552.714 -5.98463 -2.19366 0
M  V30 5876 C 550.401 -5.49372 -2.67644 0
M  V30 5877 C 551.399 -6.41042 -2.357 0
M  V30 5878 O 551.087 -7.73181 -2.20107 0
M  V30 5879 H 550.819 -0.482314 -0.473655 0
M  V30 5880 H 553.373 -1.84472 -0.903284 0
M  V30 5881 H 551.603 -1.73563 -3.45562 0
M  V30 5882 H 553.292 -2.15421 -3.44018 0
M  V30 5883 H 554.058 -4.31453 -2.21525 0
M  V30 5884 H 549.937 -3.43728 -3.072 0
M  V30 5885 H 553.481 -6.69979 -1.94354 0
M  V30 5886 H 549.378 -5.81424 -2.80387 0
M  V30 5887 H 550.146 -7.84008 -2.35103 0
M  V30 5888 N 552.809 0.956637 -1.25245 0
M  V30 5889 C 554.055 1.70352 -1.10036 0
M  V30 5890 C 554.388 1.90869 0.358156 0
M  V30 5891 O 553.663 1.47819 1.26411 0
M  V30 5892 C 553.946 3.08766 -1.85298 0
M  V30 5893 C 553.799 2.95672 -3.38966 0
M  V30 5894 C 555.118 4.08622 -1.63451 0
M  V30 5895 H 552.237 0.618279 -0.401123 0
M  V30 5896 H 554.879 1.11212 -1.54051 0
M  V30 5897 H 553.029 3.59252 -1.47887 0
M  V30 5898 H 554.701 2.52527 -3.86041 0
M  V30 5899 H 552.944 2.31634 -3.6678 0
M  V30 5900 H 553.615 3.93776 -3.86839 0
M  V30 5901 H 556.091 3.67038 -1.96015 0
M  V30 5902 H 554.967 5.03514 -2.18551 0
M  V30 5903 H 555.228 4.3834 -0.575357 0
M  V30 5904 N 554.287 1.06798 1.15896 0
M  V30 5905 C 555.197 0.694564 2.24083 0
M  V30 5906 C 556.213 -0.291687 1.71538 0
M  V30 5907 O 557.389 -0.139723 2.00915 0
M  V30 5908 C 554.454 0.0921014 3.46578 0
M  V30 5909 C 553.515 1.13087 4.14137 0
M  V30 5910 C 552.748 0.557064 5.30785 0
M  V30 5911 O 552.971 -0.628623 5.66925 0
M  V30 5912 O 551.905 1.29924 5.8771 0
M  V30 5913 H 555.731 1.59663 2.58344 0
M  V30 5914 H 553.316 0.840575 1.2351 0
M  V30 5915 H 555.198 -0.241884 4.20705 0
M  V30 5916 H 553.873 -0.78337 3.14078 0
M  V30 5917 H 552.78 1.51712 3.41957 0
M  V30 5918 H 554.113 1.97805 4.50704 0
M  V30 5919 N 555.766 -1.3263 0.851289 0
M  V30 5920 C 557.043 -1.91982 0.374448 0
M  V30 5921 C 557.423 -1.77568 -1.14161 0
M  V30 5922 O 556.771 -1.1717 -1.96172 0
M  V30 5923 C 556.981 -3.38862 0.835088 0
M  V30 5924 C 558.329 -4.15999 0.850309 0
M  V30 5925 O 559.353 -3.47566 0.779505 0
M  V30 5926 O 558.212 -5.38189 0.949481 0
M  V30 5927 H 555.306 -0.819846 0.10854 0
M  V30 5928 H 557.852 -1.41422 0.937966 0
M  V30 5929 H 556.624 -3.43281 1.87814 0
M  V30 5930 H 556.247 -3.96821 0.248833 0
M  V30 5931 N 557.244 -0.608902 -1.45362 0
M  V30 5932 C 558.474 -0.110852 -2.06302 0
M  V30 5933 C 558.882 1.21062 -1.45398 0
M  V30 5934 O 558.225 1.74861 -0.562976 0
M  V30 5935 C 558.287 0.101793 -3.59356 0
M  V30 5936 C 557.951 -1.13808 -4.42602 0
M  V30 5937 C 558.948 -2.05653 -4.77496 0
M  V30 5938 C 556.633 -1.36727 -4.83333 0
M  V30 5939 C 558.627 -3.18745 -5.51978 0
M  V30 5940 C 556.314 -2.5012 -5.57569 0
M  V30 5941 C 557.312 -3.40957 -5.91809 0
M  V30 5942 O 557 -4.52376 -6.64538 0
M  V30 5943 H 556.732 -0.0666001 -0.672711 0
M  V30 5944 H 559.286 -0.836942 -1.87575 0
M  V30 5945 H 557.516 0.88279 -3.76489 0
M  V30 5946 H 559.205 0.551607 -4.02134 0
M  V30 5947 H 559.971 -1.89172 -4.46586 0
M  V30 5948 H 555.85 -0.669216 -4.56117 0
M  V30 5949 H 559.394 -3.8967 -5.78622 0
M  V30 5950 H 555.291 -2.66553 -5.87894 0
M  V30 5951 H 556.059 -4.51075 -6.82989 0
M  V30 5952 N 558.722 1.53707 -0.348139 0
M  V30 5953 C 559.632 2.28881 0.514857 0
M  V30 5954 C 560.648 1.34168 1.10793 0
M  V30 5955 O 561.824 1.6721 1.12262 0
M  V30 5956 C 558.889 3.05042 1.64774 0
M  V30 5957 C 557.95 4.15389 1.08398 0
M  V30 5958 C 557.183 4.87909 2.16287 0
M  V30 5959 O 557.406 4.60137 3.3709 0
M  V30 5960 O 556.34 5.74254 1.80323 0
M  V30 5961 H 560.166 3.03547 -0.0963699 0
M  V30 5962 H 557.751 1.48972 -0.113043 0
M  V30 5963 H 559.633 3.52656 2.30677 0
M  V30 5964 H 558.308 2.33228 2.24469 0
M  V30 5965 H 557.215 3.72068 0.389341 0
M  V30 5966 H 558.548 4.89318 0.531829 0
M  V30 5967 N 560.2 0.0768682 1.57412 0
M  V30 5968 C 561.132 -0.918248 2.10002 0
M  V30 5969 C 562.145 -1.25808 1.03325 0
M  V30 5970 O 563.334 -1.21438 1.30824 0
M  V30 5971 C 560.434 -2.23263 2.54964 0
M  V30 5972 C 559.607 -2.07088 3.8527 0
M  V30 5973 C 558.666 -3.21876 4.16272 0
M  V30 5974 O 557.692 -2.96643 4.8579 0
M  V30 5975 N 558.894 -4.4712 3.70221 0
M  V30 5976 H 561.659 -0.469209 2.96004 0
M  V30 5977 H 559.22 -0.108725 1.61535 0
M  V30 5978 H 561.212 -2.9897 2.72762 0
M  V30 5979 H 559.782 -2.59649 1.74072 0
M  V30 5980 H 559.002 -1.15818 3.76802 0
M  V30 5981 H 560.29 -1.93537 4.70554 0
M  V30 5982 H 559.688 -4.70506 3.1407 0
M  V30 5983 H 558.245 -5.19837 3.93209 0
M  V30 5984 N 561.678 -1.56367 -0.196722 0
M  V30 5985 C 562.926 -1.80172 -0.915554 0
M  V30 5986 C 563.247 -0.649649 -1.8386 0
M  V30 5987 O 562.517 0.332111 -1.93064 0
M  V30 5988 H 561.097 -0.664592 -0.341067 0
M  V30 5989 H 563.759 -1.93844 -0.202622 0
M  V30 5990 H 562.855 -2.7327 -1.50764 0
M  V30 5991 N 563.156 0.464375 -1.50603 0
M  V30 5992 C 564.086 1.56944 -1.72889 0
M  V30 5993 C 565.067 1.59979 -0.577997 0
M  V30 5994 O 566.252 1.76138 -0.817855 0
M  V30 5995 C 563.382 2.95225 -1.8292 0
M  V30 5996 C 562.336 3.07056 -2.98162 0
M  V30 5997 C 561.662 4.47051 -2.93343 0
M  V30 5998 C 562.962 2.83648 -4.38567 0
M  V30 5999 H 564.656 1.38547 -2.65415 0
M  V30 6000 H 562.202 0.665082 -1.27721 0
M  V30 6001 H 564.155 3.72467 -1.97095 0
M  V30 6002 H 562.879 3.14793 -0.870209 0
M  V30 6003 H 561.538 2.32248 -2.83648 0
M  V30 6004 H 561.186 4.63547 -1.95276 0
M  V30 6005 H 560.886 4.55902 -3.70712 0
M  V30 6006 H 562.41 5.26304 -3.09575 0
M  V30 6007 H 563.824 3.50636 -4.53572 0
M  V30 6008 H 562.221 3.03937 -5.17438 0
M  V30 6009 H 563.291 1.79451 -4.50472 0
M  V30 6010 N 564.634 1.40294 0.718013 0
M  V30 6011 C 565.597 1.4012 1.81381 0
M  V30 6012 C 566.597 0.295405 1.58063 0
M  V30 6013 O 567.787 0.554187 1.6515 0
M  V30 6014 C 564.919 1.19056 3.19435 0
M  V30 6015 H 566.112 2.37645 1.82933 0
M  V30 6016 H 563.665 1.26107 0.923405 0
M  V30 6017 H 564.4 0.222809 3.23534 0
M  V30 6018 H 564.185 1.99152 3.37758 0
M  V30 6019 H 565.675 1.21716 3.99468 0
M  V30 6020 N 566.112 -0.949982 1.2575 0
M  V30 6021 C 567.337 -1.73503 1.13628 0
M  V30 6022 C 567.762 -1.85601 -0.30559 0
M  V30 6023 O 567.12 -1.33984 -1.22139 0
M  V30 6024 C 567.168 -3.1243 1.80055 0
M  V30 6025 O 566.272 -3.97916 1.08336 0
M  V30 6026 H 565.613 -0.532665 0.396439 0
M  V30 6027 H 568.143 -1.19043 1.66403 0
M  V30 6028 H 568.153 -3.62866 1.86527 0
M  V30 6029 H 566.828 -3.02941 2.84956 0
M  V30 6030 H 565.405 -3.56375 1.09777 0
M  V30 6031 N 567.59 -1.07411 -1.15328 0
M  V30 6032 C 568.5 -0.706438 -2.23711 0
M  V30 6033 C 569.516 0.282586 -1.7169 0
M  V30 6034 O 570.692 0.129066 -2.00986 0
M  V30 6035 C 567.757 -0.11048 -3.46524 0
M  V30 6036 C 566.818 -1.15282 -4.13532 0
M  V30 6037 C 566.051 -0.585205 -5.30482 0
M  V30 6038 O 566.274 0.598549 -5.67251 0
M  V30 6039 O 565.208 -1.33039 -5.87013 0
M  V30 6040 H 569.034 -1.61031 -2.57493 0
M  V30 6041 H 566.619 -0.847113 -1.23062 0
M  V30 6042 H 568.501 0.21957 -4.20828 0
M  V30 6043 H 567.176 0.766703 -3.14489 0
M  V30 6044 H 566.083 -1.53523 -3.41147 0
M  V30 6045 H 567.416 -2.00192 -4.49649 0
M  V30 6046 N 569.068 1.32177 -0.85831 0
M  V30 6047 C 569.998 2.31282 -0.321041 0
M  V30 6048 C 570.979 1.59841 0.581786 0
M  V30 6049 O 572.164 1.87619 0.501262 0
M  V30 6050 C 569.294 3.4385 0.48832 0
M  V30 6051 C 568.248 4.26799 -0.320391 0
M  V30 6052 C 567.574 5.31164 0.613934 0
M  V30 6053 C 568.874 4.98829 -1.54813 0
M  V30 6054 H 570.568 2.76469 -1.14915 0
M  V30 6055 H 568.114 1.32916 -0.554028 0
M  V30 6056 H 570.067 4.12224 0.874626 0
M  V30 6057 H 568.791 2.97401 1.34983 0
M  V30 6058 H 567.45 3.60077 -0.688497 0
M  V30 6059 H 567.098 4.80967 1.47239 0
M  V30 6060 H 566.798 5.8755 0.0768097 0
M  V30 6061 H 568.322 6.024 0.997336 0
M  V30 6062 H 569.736 5.59864 -1.23392 0
M  V30 6063 H 568.133 5.64957 -2.02346 0
M  V30 6064 H 569.203 4.26483 -2.30739 0
M  V30 6065 N 570.547 0.616602 1.45037 0
M  V30 6066 C 571.824 0.0469086 1.95544 0
M  V30 6067 C 572.204 -1.42345 1.55888 0
M  V30 6068 O 571.552 -2.13055 0.825824 0
M  V30 6069 C 571.762 0.254489 3.48071 0
M  V30 6070 C 573.11 0.140025 4.24369 0
M  V30 6071 O 574.134 0.185084 3.55719 0
M  V30 6072 O 572.993 0.0327034 5.4649 0
M  V30 6073 H 570.087 -0.0306051 0.826433 0
M  V30 6074 H 572.633 0.687293 1.55159 0
M  V30 6075 H 571.405 1.27532 3.69934 0
M  V30 6076 H 571.028 -0.42073 3.95368 0
M  V30 6077 N 572.025 -1.5352 0.356285 0
M  V30 6078 C 572.957 -2.23009 -0.529127 0
M  V30 6079 C 573.97 -1.241 -1.05371 0
M  V30 6080 O 575.159 -1.50379 -0.961679 0
M  V30 6081 C 572.259 -2.90685 -1.74229 0
M  V30 6082 C 571.432 -4.16019 -1.35081 0
M  V30 6083 C 570.491 -4.66989 -2.42502 0
M  V30 6084 O 569.517 -5.30895 -2.05279 0
M  V30 6085 N 570.719 -4.44006 -3.7395 0
M  V30 6086 H 573.484 -2.99627 0.0660501 0
M  V30 6087 H 571.045 -1.60885 0.181014 0
M  V30 6088 H 573.037 -3.21695 -2.4555 0
M  V30 6089 H 571.607 -2.17575 -2.24454 0
M  V30 6090 H 570.827 -3.91414 -0.467833 0
M  V30 6091 H 572.115 -4.9752 -1.06542 0
M  V30 6092 H 571.513 -3.92924 -4.06973 0
M  V30 6093 H 570.07 -4.7959 -4.41403 0
M  V30 6094 O 573.542 -0.225101 -1.59924 0
M  V30 6095 H 574.233 0.354711 -1.90425 0
M  V30 END ATOM
M  V30 BEGIN BOND
M  V30 END BOND
M  V30 END CTAB
M  END
$$$$
