drugbank_target|Q99584 Protein S100-A13 (DB00768; DB01025; DB01164; DB01373; DB11093; DB11348; DB14481)
 OpenBabel12092119423D

  0  0  0     0  0            999 V3000
M  V30 BEGIN CTAB
M  V30 COUNTS 1640 1650 0 0 0
M  V30 BEGIN ATOM
M  V30 1 H -0.908 1.98254 -0.117106 0
M  V30 2 N 0 1.576 0 0
M  V30 3 C 0.933 2.03868 1.02534 0
M  V30 4 C 1.911 0.928543 1.3348 0
M  V30 5 O 3.095 1.19667 1.45644 0
M  V30 6 C 0.222 2.43627 2.35294 0
M  V30 7 C -0.732 3.65373 2.2001 0
M  V30 8 S 0.101 5.13292 1.52614 0
M  V30 9 C 1.257 5.56322 2.86805 0
M  V30 10 H 1.49 2.90518 0.631377 0
M  V30 11 H -0.977 1.52953 0.210867 0
M  V30 12 H 0.981 2.67203 3.11629 0
M  V30 13 H -0.358 1.57376 2.7183 0
M  V30 14 H -1.165 3.90944 3.18086 0
M  V30 15 H -1.563 3.418 1.51819 0
M  V30 16 H 0.729 5.58782 3.83104 0
M  V30 17 H 1.672 6.56266 2.65933 0
M  V30 18 H 2.08 4.83886 2.90714 0
M  V30 19 N 1.4781 -0.272755 1.55222 0
M  V30 20 C 2.4411 -1.32041 1.87344 0
M  V30 21 C 3.4411 -1.42342 0.74803 0
M  V30 22 O 4.6311 -1.41488 1.0162 0
M  V30 23 C 1.7631 -2.70173 2.07893 0
M  V30 24 H 2.9561 -1.04789 2.80997 0
M  V30 25 H 0.5091 -0.51083 1.47717 0
M  V30 26 H 1.2441 -3.02605 1.16622 0
M  V30 27 H 1.0291 -2.64082 2.89833 0
M  V30 28 H 2.5191 -3.45869 2.34017 0
M  V30 29 N 2.9562 -1.48159 -0.537278 0
M  V30 30 C 3.9192 -1.61665 -1.62472 0
M  V30 31 C 4.9192 -0.490395 -1.5314 0
M  V30 32 O 6.1092 -0.755998 -1.5694 0
M  V30 33 C 3.2412 -1.57997 -3.02076 0
M  V30 34 H 4.4342 -2.58621 -1.51839 0
M  V30 35 H 1.9872 -1.36647 -0.758771 0
M  V30 36 H 2.7222 -0.624913 -3.18222 0
M  V30 37 H 2.5072 -2.39755 -3.10258 0
M  V30 38 H 3.9972 -1.70627 -3.81151 0
M  V30 39 N 4.4343 0.785586 -1.36625 0
M  V30 40 C 5.3443 1.92964 -1.33425 0
M  V30 41 C 6.3603 1.72394 -0.235851 0
M  V30 42 O 7.5363 1.95866 -0.468878 0
M  V30 43 C 4.6013 3.27884 -1.12662 0
M  V30 44 C 3.6623 3.61204 -2.32013 0
M  V30 45 C 2.8953 4.89687 -2.12231 0
M  V30 46 O 3.1183 5.59704 -1.09945 0
M  V30 47 O 2.0523 5.21752 -3.00098 0
M  V30 48 H 5.8783 1.98613 -2.29753 0
M  V30 49 H 3.4633 0.926384 -1.17211 0
M  V30 50 H 5.3453 4.08614 -1.03016 0
M  V30 51 H 4.0203 3.23118 -0.193991 0
M  V30 52 H 2.9273 2.80765 -2.47228 0
M  V30 53 H 4.2603 3.70698 -3.23796 0
M  V30 54 N 5.9124 1.20967 1.01018 0
M  V30 55 C 7.3234 1.02319 1.56165 0
M  V30 56 C 7.6744 -0.418546 1.91684 0
M  V30 57 O 6.7994 -1.30096 1.72928 0
M  V30 58 C 7.3944 1.85109 2.8376 0
M  V30 59 C 5.9534 1.70809 3.35412 0
M  V30 60 C 5.1004 1.82643 2.08655 0
M  V30 61 H 8.0514 1.35065 0.833255 0
M  V30 62 H 8.0724 1.35827 3.55431 0
M  V30 63 H 7.5844 2.90035 2.57878 0
M  V30 64 H 5.6854 0.685464 3.66241 0
M  V30 65 H 5.7984 2.52467 4.07182 0
M  V30 66 H 4.1624 1.25896 2.21409 0
M  V30 67 H 4.9454 2.89066 1.85191 0
M  V30 68 N 7.3905 -1.2043 1.01659 0
M  V30 69 C 8.3205 -2.25466 0.607226 0
M  V30 70 C 9.3015 -1.65853 -0.377716 0
M  V30 71 O 10.4865 -1.92409 -0.263149 0
M  V30 72 C 7.6165 -3.47256 -0.0552949 0
M  V30 73 C 6.5705 -4.19462 0.850632 0
M  V30 74 C 5.8965 -5.34673 0.0538859 0
M  V30 75 C 7.1965 -4.75603 2.15868 0
M  V30 76 H 8.8905 -2.59962 1.48526 0
M  V30 77 H 6.4365 -1.2496 0.715605 0
M  V30 78 H 8.3895 -4.19917 -0.353233 0
M  V30 79 H 7.1135 -3.11924 -0.968045 0
M  V30 80 H 5.7725 -3.48667 1.13257 0
M  V30 81 H 5.4205 -4.95585 -0.860514 0
M  V30 82 H 5.1205 -5.83913 0.657192 0
M  V30 83 H 6.6445 -6.10138 -0.237598 0
M  V30 84 H 8.0585 -5.40083 1.92311 0
M  V30 85 H 6.4555 -5.3528 2.71284 0
M  V30 86 H 7.5255 -3.94346 2.82169 0
M  V30 87 N 8.8686 -0.792821 -1.36206 0
M  V30 88 C 10.0966 -0.378825 -2.03402 0
M  V30 89 C 10.5116 1.00586 -1.59774 0
M  V30 90 O 9.8686 1.64574 -0.788764 0
M  V30 91 C 9.9196 -0.43683 -3.58851 0
M  V30 92 O 9.6406 -1.76691 -4.00889 0
M  V30 93 C 11.1416 -0.0138943 -4.43298 0
M  V30 94 H 8.3616 -0.155673 -0.652692 0
M  V30 95 H 10.9056 -1.07261 -1.74113 0
M  V30 96 H 9.0606 0.208575 -3.86838 0
M  V30 97 H 9.4746 -1.72011 -4.95492 0
M  V30 98 H 10.9486 -0.105615 -5.51899 0
M  V30 99 H 11.4256 1.03915 -4.2673 0
M  V30 100 H 12.0316 -0.63192 -4.20579 0
M  V30 101 N 10.3467 1.47872 -0.545128 0
M  V30 102 C 11.2567 2.33633 0.212746 0
M  V30 103 C 12.2727 1.4744 0.923983 0
M  V30 104 O 13.4487 1.80393 0.895572 0
M  V30 105 C 10.5137 3.23884 1.23693 0
M  V30 106 C 9.5747 4.25961 0.534417 0
M  V30 107 C 8.8077 5.11899 1.5098 0
M  V30 108 O 9.0307 5.00077 2.7437 0
M  V30 109 O 7.9647 5.92831 1.0409 0
M  V30 110 H 11.7907 2.99714 -0.490416 0
M  V30 111 H 9.3757 1.46235 -0.305871 0
M  V30 112 H 11.2577 3.79666 1.82843 0
M  V30 113 H 9.9327 2.60446 1.92222 0
M  V30 114 H 8.8397 3.73972 -0.0979679 0
M  V30 115 H 10.1727 4.92079 -0.109213 0
M  V30 116 N 11.8248 0.280983 1.55075 0
M  V30 117 C 12.7548 -0.597469 2.25727 0
M  V30 118 C 13.7358 -1.15417 1.24952 0
M  V30 119 O 14.9208 -1.18722 1.53684 0
M  V30 120 C 12.0508 -1.7789 2.98283 0
M  V30 121 C 11.0048 -1.35347 4.06036 0
M  V30 122 C 10.3308 -2.61846 4.66198 0
M  V30 123 C 11.6308 -0.499354 5.19907 0
M  V30 124 H 13.3248 -0.00824265 2.99399 0
M  V30 125 H 10.8708 -0.0025244 1.44 0
M  V30 126 H 12.8238 -2.39937 3.46422 0
M  V30 127 H 11.5478 -2.39405 2.22155 0
M  V30 128 H 10.2068 -0.756156 3.58717 0
M  V30 129 H 9.8548 -3.21632 3.86732 0
M  V30 130 H 9.5548 -2.3409 5.38958 0
M  V30 131 H 11.0788 -3.24732 5.1709 0
M  V30 132 H 12.4928 -1.02498 5.64063 0
M  V30 133 H 10.8898 -0.316424 5.99265 0
M  V30 134 H 11.9598 0.480459 4.82514 0
M  V30 135 N 13.3029 -1.57598 0.00835791 0
M  V30 136 C 14.2129 -2.12385 -0.996487 0
M  V30 137 C 15.2289 -1.07108 -1.37127 0
M  V30 138 O 16.4049 -1.39055 -1.4569 0
M  V30 139 C 13.4699 -2.62314 -2.26699 0
M  V30 140 C 12.5309 -3.82225 -1.95456 0
M  V30 141 C 11.7639 -4.29763 -3.16449 0
M  V30 142 O 11.9869 -3.76584 -4.28416 0
M  V30 143 O 10.9209 -5.21832 -2.99958 0
M  V30 144 H 14.7469 -2.98479 -0.560725 0
M  V30 145 H 12.3319 -1.47903 -0.210987 0
M  V30 146 H 14.2139 -2.94589 -3.01322 0
M  V30 147 H 12.8889 -1.79313 -2.69497 0
M  V30 148 H 11.7959 -3.54909 -1.18282 0
M  V30 149 H 13.1289 -4.66324 -1.57489 0
M  V30 150 N 14.781 0.264519 -1.55364 0
M  V30 151 C 15.691 1.34902 -1.91934 0
M  V30 152 C 16.707 1.53595 -0.817593 0
M  V30 153 O 17.883 1.67558 -1.11742 0
M  V30 154 C 14.948 2.68676 -2.19121 0
M  V30 155 C 14.009 2.58657 -3.4263 0
M  V30 156 C 13.242 3.86051 -3.68511 0
M  V30 157 O 13.465 4.87126 -2.96757 0
M  V30 158 O 12.399 3.85744 -4.62045 0
M  V30 159 H 16.225 1.06883 -2.8427 0
M  V30 160 H 13.81 0.463775 -1.42019 0
M  V30 161 H 15.692 3.47759 -2.37995 0
M  V30 162 H 14.367 2.96463 -1.29966 0
M  V30 163 H 13.274 1.7792 -3.29082 0
M  V30 164 H 14.607 2.35818 -4.32031 0
M  V30 165 N 16.2591 1.48442 0.529413 0
M  V30 166 C 17.4841 1.60406 1.31471 0
M  V30 167 C 17.9091 0.264738 1.86228 0
M  V30 168 O 17.2671 -0.763668 1.64432 0
M  V30 169 C 17.3151 2.65419 2.44101 0
M  V30 170 O 16.4191 2.22618 3.47153 0
M  V30 171 H 15.7601 0.537863 0.389357 0
M  V30 172 H 18.2901 1.94432 0.636965 0
M  V30 173 H 18.3001 2.86709 2.90279 0
M  V30 174 H 16.9751 3.62652 2.03608 0
M  V30 175 H 15.5521 2.11543 3.0709 0
M  V30 176 N 17.7372 -0.778329 1.37039 0
M  V30 177 C 18.9862 -1.53189 1.3121 0
M  V30 178 C 19.2992 -1.95328 -0.103095 0
M  V30 179 O 20.5052 -2.70012 -0.283826 0
M  V30 180 C 18.9612 -2.76591 2.30272 0
M  V30 181 C 18.5692 -2.41577 3.77286 0
M  V30 182 C 20.3132 -3.5455 2.33441 0
M  V30 183 C 18.2202 -3.61441 4.68096 0
M  V30 184 H 17.1502 -0.5751 0.487622 0
M  V30 185 H 19.8012 -0.853101 1.62464 0
M  V30 186 H 18.1832 -3.46326 1.92027 0
M  V30 187 H 19.3572 -1.79668 4.2433 0
M  V30 188 H 17.6722 -1.76806 3.76999 0
M  V30 189 H 20.2692 -4.43628 2.98493 0
M  V30 190 H 20.6122 -3.93936 1.34611 0
M  V30 191 H 21.1452 -2.91805 2.7036 0
M  V30 192 H 17.8842 -3.27142 5.6803 0
M  V30 193 H 17.4042 -4.22478 4.25761 0
M  V30 194 H 19.0832 -4.28335 4.8491 0
M  V30 195 N 19.2153 -1.21501 -1.00376 0
M  V30 196 C 20.1253 -0.991447 -2.12621 0
M  V30 197 C 21.1413 0.0568446 -1.73907 0
M  V30 198 O 22.3173 -0.13348 -2.00957 0
M  V30 199 C 19.3823 -0.560312 -3.42142 0
M  V30 200 C 18.4433 -1.68096 -3.95022 0
M  V30 201 C 17.6763 -1.2703 -5.18362 0
M  V30 202 O 17.8993 -0.144438 -5.70217 0
M  V30 203 O 16.8333 -2.08269 -5.64719 0
M  V30 204 H 20.6593 -1.93158 -2.34358 0
M  V30 205 H 18.2443 -0.999999 -1.10997 0
M  V30 206 H 20.1263 -0.329724 -4.20108 0
M  V30 207 H 18.8013 0.351089 -3.2179 0
M  V30 208 H 17.7083 -1.96597 -3.18278 0
M  V30 209 H 19.0413 -2.56983 -4.19786 0
M  V30 210 N 20.6934 1.19889 -1.02296 0
M  V30 211 C 21.9214 1.9339 -0.735399 0
M  V30 212 C 22.3364 1.75148 0.704887 0
M  V30 213 O 21.6934 1.06954 1.47875 0
M  V30 214 C 21.7444 3.45313 -1.06962 0
M  V30 215 O 21.4654 3.62964 -2.45334 0
M  V30 216 C 22.9664 4.35948 -0.804021 0
M  V30 217 H 20.1864 0.61448 -0.269546 0
M  V30 218 H 22.7304 1.522 -1.36585 0
M  V30 219 H 20.8854 3.84359 -0.484455 0
M  V30 220 H 21.2994 4.56886 -2.57595 0
M  V30 221 H 22.7734 5.41174 -1.0879 0
M  V30 222 H 23.2504 4.3842 0.261691 0
M  V30 223 H 23.8564 4.02574 -1.37164 0
M  V30 224 N 22.1715 0.800033 1.35784 0
M  V30 225 C 23.4175 0.377901 1.99248 0
M  V30 226 C 23.7505 -1.05052 1.63333 0
M  V30 227 O 23.0255 -1.72768 0.893385 0
M  V30 228 C 23.3085 0.553922 3.55814 0
M  V30 229 C 23.1615 2.0268 4.01548 0
M  V30 230 C 24.4805 -0.0244802 4.40093 0
M  V30 231 H 21.5995 0.138782 0.723815 0
M  V30 232 H 24.2415 1.00835 1.61035 0
M  V30 233 H 22.3915 0.0172398 3.88496 0
M  V30 234 H 24.0635 2.62536 3.79305 0
M  V30 235 H 22.3065 2.5256 3.52698 0
M  V30 236 H 22.9775 2.10087 5.10458 0
M  V30 237 H 25.4535 0.433775 4.13833 0
M  V30 238 H 24.3295 0.128637 5.48749 0
M  V30 239 H 24.5905 -1.11758 4.27741 0
M  V30 240 N 23.6496 -1.47581 0.552962 0
M  V30 241 C 24.8956 -2.02782 0.0273648 0
M  V30 242 C 25.2286 -1.42687 -1.31734 0
M  V30 243 O 24.5036 -0.580897 -1.85623 0
M  V30 244 C 24.7866 -3.60031 -0.0702371 0
M  V30 245 C 24.6396 -4.30566 1.30126 0
M  V30 246 C 25.9586 -4.33028 -0.785771 0
M  V30 247 H 23.0776 -0.736912 0.0114185 0
M  V30 248 H 25.7196 -1.76056 0.714432 0
M  V30 249 H 23.8696 -3.82932 -0.655382 0
M  V30 250 H 25.5416 -4.19018 1.92929 0
M  V30 251 H 23.7846 -3.91086 1.87709 0
M  V30 252 H 24.4556 -5.39114 1.18573 0
M  V30 253 H 26.9316 -4.15095 -0.288982 0
M  V30 254 H 25.8076 -5.42695 -0.823013 0
M  V30 255 H 26.0686 -4.01945 -1.841 0
M  V30 256 N 25.1277 -0.289203 -1.54924 0
M  V30 257 C 26.3557 0.326463 -2.04308 0
M  V30 258 C 26.7707 1.48413 -1.16701 0
M  V30 259 O 26.1277 1.81507 -0.190087 0
M  V30 260 C 26.1787 0.794014 -3.52672 0
M  V30 261 O 25.8997 -0.317564 -4.36948 0
M  V30 262 C 27.4007 1.47605 -4.18004 0
M  V30 263 H 24.6207 0.0726272 -0.667058 0
M  V30 264 H 27.1647 -0.425401 -2.00026 0
M  V30 265 H 25.3197 1.49593 -3.57352 0
M  V30 266 H 25.7337 0.0443186 -5.24481 0
M  V30 267 H 27.2077 1.75447 -5.23376 0
M  V30 268 H 27.6847 2.41224 -3.67025 0
M  V30 269 H 28.2907 0.81762 -4.17367 0
M  V30 270 N 26.6058 1.57591 -0.0167156 0
M  V30 271 C 27.8338 1.95575 0.675128 0
M  V30 272 C 28.2488 0.892542 1.6637 0
M  V30 273 O 27.6058 -0.126912 1.82058 0
M  V30 274 C 27.6568 3.33608 1.39239 0
M  V30 275 O 27.3778 4.3585 0.443444 0
M  V30 276 C 28.8788 3.86151 2.17721 0
M  V30 277 H 26.0988 0.644423 0.186978 0
M  V30 278 H 28.6428 2.0437 -0.0728 0
M  V30 279 H 26.7978 3.2607 2.09182 0
M  V30 280 H 27.2118 5.158 0.951358 0
M  V30 281 H 28.6858 4.85114 2.63379 0
M  V30 282 H 29.1628 3.19738 3.01105 0
M  V30 283 H 29.7688 3.96918 1.52761 0
M  V30 284 N 28.0839 -0.256276 1.55502 0
M  V30 285 C 29.3309 -0.985619 1.76895 0
M  V30 286 C 29.6589 -1.85671 0.579355 0
M  V30 287 O 28.9139 -1.90744 -0.437651 0
M  V30 288 C 29.2129 -1.88432 3.03691 0
M  V30 289 C 28.8789 -1.16936 4.35473 0
M  V30 290 C 27.5409 -0.97173 4.71286 0
M  V30 291 C 29.8929 -0.661889 5.1698 0
M  V30 292 C 27.2209 -0.254179 5.86149 0
M  V30 293 C 29.5729 0.042149 6.32586 0
M  V30 294 C 28.2369 0.25134 6.67027 0
M  V30 295 H 27.5069 -0.360663 0.647304 0
M  V30 296 H 30.1539 -0.256483 1.89775 0
M  V30 297 H 28.4589 -2.68021 2.85783 0
M  V30 298 H 30.1559 -2.45015 3.1744 0
M  V30 299 H 26.7459 -1.33332 4.07333 0
M  V30 300 H 30.9299 -0.802145 4.89775 0
M  V30 301 H 26.1859 -0.0815408 6.11346 0
M  V30 302 H 30.3599 0.443049 6.94989 0
M  V30 303 H 27.9869 0.809314 7.5588 0
M  V30 304 N 29.562 -1.4872 -0.521534 0
M  V30 305 C 30.809 -1.57168 -1.27689 0
M  V30 306 C 31.137 -0.249275 -1.92896 0
M  V30 307 O 30.392 0.761162 -1.80291 0
M  V30 308 C 30.691 -2.66497 -2.38148 0
M  V30 309 C 30.357 -4.08664 -1.90538 0
M  V30 310 C 29.019 -4.47357 -1.77271 0
M  V30 311 C 31.371 -4.97724 -1.54663 0
M  V30 312 C 28.699 -5.72905 -1.26478 0
M  V30 313 C 31.051 -6.2377 -1.05329 0
M  V30 314 C 29.715 -6.61311 -0.906861 0
M  V30 315 H 28.985 -0.575117 -0.467249 0
M  V30 316 H 31.632 -1.82472 -0.581051 0
M  V30 317 H 29.937 -2.35085 -3.13437 0
M  V30 318 H 31.634 -2.70246 -2.96257 0
M  V30 319 H 28.224 -3.78111 -2.01816 0
M  V30 320 H 32.408 -4.68501 -1.63768 0
M  V30 321 H 27.664 -6.00709 -1.13835 0
M  V30 322 H 31.838 -6.9217 -0.76644 0
M  V30 323 H 29.465 -7.5848 -0.511083 0
M  V30 324 N 31.0401 0.771051 -1.3745 0
M  V30 325 C 32.2681 1.56015 -1.35893 0
M  V30 326 C 32.6831 1.88718 0.0555523 0
M  V30 327 O 32.0401 1.51502 1.01752 0
M  V30 328 C 32.0911 2.87001 -2.19801 0
M  V30 329 O 31.8121 2.557 -3.55738 0
M  V30 330 C 33.3131 3.81228 -2.26231 0
M  V30 331 H 30.5331 0.483317 -0.465453 0
M  V30 332 H 33.0771 0.955611 -1.80799 0
M  V30 333 H 31.2321 3.43877 -1.78402 0
M  V30 334 H 31.6461 3.39584 -3.99729 0
M  V30 335 H 33.1201 4.70139 -2.89263 0
M  V30 336 H 33.5971 4.20409 -1.27093 0
M  V30 337 H 34.2031 3.30281 -2.67945 0
M  V30 338 N 32.5182 1.22032 0.997298 0
M  V30 339 C 33.7652 1.04222 1.73621 0
M  V30 340 C 34.0932 -0.423264 1.89839 0
M  V30 341 O 33.3482 -1.3302 1.43542 0
M  V30 342 C 33.6472 1.69345 3.14733 0
M  V30 343 C 33.3132 3.19226 3.18442 0
M  V30 344 C 31.9752 3.60124 3.19161 0
M  V30 345 C 34.3272 4.15181 3.15078 0
M  V30 346 C 31.6552 4.95467 3.14212 0
M  V30 347 C 34.0072 5.50495 3.1167 0
M  V30 348 C 32.6712 5.90779 3.10703 0
M  V30 349 H 31.9412 0.381374 0.635323 0
M  V30 350 H 34.5882 1.51732 1.16831 0
M  V30 351 H 32.8932 1.14147 3.74803 0
M  V30 352 H 34.5902 1.53059 3.7064 0
M  V30 353 H 31.1802 2.86659 3.18629 0
M  V30 354 H 35.3642 3.84605 3.13676 0
M  V30 355 H 30.6202 5.25916 3.11805 0
M  V30 356 H 34.7942 6.24576 3.08022 0
M  V30 357 H 32.4212 6.9562 3.06622 0
M  V30 358 N 33.9963 -1.19345 1.0293 0
M  V30 359 C 34.9593 -2.20793 0.615069 0
M  V30 360 C 35.9593 -1.57553 -0.321533 0
M  V30 361 O 37.1493 -1.73862 -0.108483 0
M  V30 362 C 34.2813 -3.40754 -0.0999222 0
M  V30 363 H 35.4743 -2.58955 1.51269 0
M  V30 364 H 33.0273 -1.3303 0.820534 0
M  V30 365 H 33.7623 -3.0811 -1.01187 0
M  V30 366 H 33.5473 -3.87889 0.57309 0
M  V30 367 H 35.0373 -4.15898 -0.376645 0
M  V30 368 N 35.4744 -0.807222 -1.35358 0
M  V30 369 C 36.8904 -0.491038 -1.51858 0
M  V30 370 C 37.0904 0.987648 -1.75635 0
M  V30 371 O 36.1464 1.77265 -1.79815 0
M  V30 372 C 37.4594 -1.33695 -2.69344 0
M  V30 373 C 39.0074 -1.33246 -2.83222 0
M  V30 374 C 39.4824 -2.1625 -4.03733 0
M  V30 375 N 40.9734 -2.1379 -4.10911 0
M  V30 376 C 41.7084 -2.74772 -5.03277 0
M  V30 377 N 41.2044 -3.44684 -6.0097 0
M  V30 378 N 42.9974 -2.6441 -4.96028 0
M  V30 379 H 35.1484 -1.76485 -1.18181 0
M  V30 380 H 37.4114 -0.751199 -0.578276 0
M  V30 381 H 37.1174 -2.38634 -2.58354 0
M  V30 382 H 36.9914 -0.990618 -3.6396 0
M  V30 383 H 39.3784 -0.290911 -2.93663 0
M  V30 384 H 39.4594 -1.71866 -1.89461 0
M  V30 385 H 39.1034 -3.20445 -3.94052 0
M  V30 386 H 39.0334 -1.74989 -4.96675 0
M  V30 387 H 41.5244 -1.62923 -3.40976 0
M  V30 388 H 41.8374 -3.88501 -6.68047 0
M  V30 389 H 40.1824 -3.48788 -6.01142 0
M  V30 390 H 43.3734 -2.0938 -4.18662 0
M  V30 391 H 43.5464 -3.12225 -5.6782 0
M  V30 392 N 36.9525 1.47285 -0.560781 0
M  V30 393 C 37.8845 2.28118 0.222438 0
M  V30 394 C 38.8975 1.37219 0.876056 0
M  V30 395 O 40.0865 1.62011 0.749307 0
M  V30 396 C 37.1865 3.1159 1.33285 0
M  V30 397 C 36.3595 4.30473 0.77534 0
M  V30 398 C 35.4185 4.95513 1.77069 0
M  V30 399 O 34.4445 5.53792 1.31539 0
M  V30 400 N 35.6465 4.90531 3.10418 0
M  V30 401 H 38.4115 2.95976 -0.470958 0
M  V30 402 H 35.9725 1.56955 -0.39709 0
M  V30 403 H 37.9645 3.51967 1.99752 0
M  V30 404 H 36.5345 2.45951 1.92943 0
M  V30 405 H 35.7545 3.94144 -0.0662113 0
M  V30 406 H 37.0425 5.07362 0.382272 0
M  V30 407 H 36.4405 4.44389 3.5005 0
M  V30 408 H 34.9975 5.34917 3.72434 0
M  V30 409 N 38.4306 0.297415 1.54768 0
M  V30 410 C 39.3406 -0.58983 2.27064 0
M  V30 411 C 40.3566 -1.15144 1.30453 0
M  V30 412 O 41.5326 -1.17699 1.63428 0
M  V30 413 C 38.5976 -1.74714 2.9946 0
M  V30 414 C 37.6586 -1.21997 4.11601 0
M  V30 415 C 36.8916 -2.32212 4.80535 0
M  V30 416 O 37.1146 -3.52036 4.48806 0
M  V30 417 O 36.0486 -1.99106 5.68014 0
M  V30 418 H 39.8746 -0.00348199 3.037 0
M  V30 419 H 37.4596 0.0640035 1.49263 0
M  V30 420 H 39.3416 -2.42147 3.44881 0
M  V30 421 H 38.0166 -2.32016 2.25722 0
M  V30 422 H 36.9236 -0.511458 3.70587 0
M  V30 423 H 38.2566 -0.692419 4.87305 0
M  V30 424 N 39.9087 -1.5758 0.0250728 0
M  V30 425 C 41.1567 -1.91255 -0.653151 0
M  V30 426 C 41.4777 -0.901691 -1.729 0
M  V30 427 O 40.7477 0.0573785 -1.95816 0
M  V30 428 H 39.3277 -0.705942 -0.244243 0
M  V30 429 H 41.9897 -1.94767 0.0719209 0
M  V30 430 H 41.0857 -2.91752 -1.10847 0
M  V30 431 N 41.3868 0.248026 -1.55636 0
M  V30 432 C 42.8028 0.596483 -1.48035 0
M  V30 433 C 43.0028 1.88386 -0.715039 0
M  V30 434 O 42.0588 2.51319 -0.243944 0
M  V30 435 C 43.3718 0.700258 -2.92433 0
M  V30 436 C 44.9198 0.792659 -3.02797 0
M  V30 437 C 45.3948 0.928005 -4.485 0
M  V30 438 N 46.8858 0.992903 -4.52433 0
M  V30 439 C 47.6208 1.11687 -5.62418 0
M  V30 440 N 47.1168 1.20645 -6.82214 0
M  V30 441 N 48.9098 1.14994 -5.50212 0
M  V30 442 H 41.0608 -0.597109 -2.03834 0
M  V30 443 H 43.3238 -0.205925 -0.925364 0
M  V30 444 H 43.0298 -0.175658 -3.51261 0
M  V30 445 H 42.9038 1.57255 -3.42857 0
M  V30 446 H 45.2908 1.65903 -2.4405 0
M  V30 447 H 45.3718 -0.104762 -2.55585 0
M  V30 448 H 45.0158 0.0661971 -5.07857 0
M  V30 449 H 44.9458 1.84045 -4.93391 0
M  V30 450 H 47.4368 0.935064 -3.66149 0
M  V30 451 H 47.7498 1.30008 -7.61786 0
M  V30 452 H 46.0948 1.17605 -6.84977 0
M  V30 453 H 49.2858 1.07643 -4.55555 0
M  V30 454 H 49.4588 1.24311 -6.35965 0
M  V30 455 N 42.8649 1.48995 0.513639 0
M  V30 456 C 43.8119 1.6473 1.61656 0
M  V30 457 C 44.7819 0.488984 1.58739 0
M  V30 458 O 45.9669 0.714478 1.76918 0
M  V30 459 C 43.1069 1.7082 2.99858 0
M  V30 460 C 42.2199 2.9787 3.12885 0
M  V30 461 C 41.3549 2.95017 4.41744 0
M  V30 462 C 40.3939 4.16702 4.48359 0
M  V30 463 N 39.5309 4.11832 5.68629 0
M  V30 464 H 44.3709 2.58909 1.47547 0
M  V30 465 H 41.9079 1.28382 0.71808 0
M  V30 466 H 43.8659 1.72331 3.79944 0
M  V30 467 H 42.4959 0.801181 3.12699 0
M  V30 468 H 41.5479 3.06029 2.25944 0
M  V30 469 H 42.8599 3.8786 3.13633 0
M  V30 470 H 42.0139 2.95021 5.30139 0
M  V30 471 H 40.7529 2.02784 4.43542 0
M  V30 472 H 39.7579 4.16955 3.58369 0
M  V30 473 H 40.9829 5.10113 4.48287 0
M  V30 474 H 38.9289 3.22428 5.71293 0
M  V30 475 H 38.8459 4.95543 5.7094 0
M  V30 476 H 40.1139 4.1592 6.59266 0
M  V30 477 N 44.343 -0.763751 1.37857 0
M  V30 478 C 45.62 -1.51244 1.24035 0
M  V30 479 C 46 -2.10472 -0.162649 0
M  V30 480 O 45.348 -1.96206 -1.17112 0
M  V30 481 C 45.558 -2.58694 2.34261 0
M  V30 482 C 46.906 -3.25878 2.72193 0
M  V30 483 O 47.93 -2.68993 2.33497 0
M  V30 484 O 46.789 -4.2874 3.38887 0
M  V30 485 H 43.883 -0.670243 0.484462 0
M  V30 486 H 46.429 -0.800031 1.49658 0
M  V30 487 H 45.201 -2.13105 3.2818 0
M  V30 488 H 44.824 -3.37527 2.10146 0
M  V30 489 N 45.8211 -1.22559 -0.990812 0
M  V30 490 C 47.0461 -1.07862 -1.77145 0
M  V30 491 C 47.4711 0.366447 -1.84496 0
M  V30 492 O 46.8291 1.26478 -1.29896 0
M  V30 493 C 46.8771 -1.69686 -3.18181 0
M  V30 494 O 45.9811 -0.951946 -4.01263 0
M  V30 495 H 45.3221 -0.378712 -0.545411 0
M  V30 496 H 47.8521 -1.62399 -1.2445 0
M  V30 497 H 47.8621 -1.74496 -3.68802 0
M  V30 498 H 46.5371 -2.74841 -3.12146 0
M  V30 499 H 45.1141 -0.980011 -3.59792 0
M  V30 500 N 47.2992 1.18797 -1.03562 0
M  V30 501 C 48.2292 2.24472 -0.643019 0
M  V30 502 C 49.2102 1.66433 0.351283 0
M  V30 503 O 50.3952 1.92803 0.232505 0
M  V30 504 C 47.5252 3.473 4.24935e-05 0
M  V30 505 C 46.4792 4.18055 -0.917257 0
M  V30 506 C 45.8052 5.34519 -0.138941 0
M  V30 507 C 47.1052 4.72109 -2.23407 0
M  V30 508 H 48.7992 2.57566 -1.52643 0
M  V30 509 H 46.3452 1.23806 -0.735394 0
M  V30 510 H 48.2982 4.20426 0.286383 0
M  V30 511 H 47.0222 3.13424 0.918299 0
M  V30 512 H 45.6812 3.46821 -1.1879 0
M  V30 513 H 45.3292 4.96891 0.781562 0
M  V30 514 H 45.0292 5.82794 -0.750005 0
M  V30 515 H 46.5532 6.10438 0.1405 0
M  V30 516 H 47.9672 5.36955 -2.00879 0
M  V30 517 H 46.3642 5.30897 -2.79765 0
M  V30 518 H 47.4342 3.89807 -2.88407 0
M  V30 519 N 48.7773 0.814389 1.34928 0
M  V30 520 C 50.0023 0.410097 2.03305 0
M  V30 521 C 50.4273 -0.973464 1.60951 0
M  V30 522 O 49.7853 -1.63185 0.789964 0
M  V30 523 C 49.8333 0.51049 3.56968 0
M  V30 524 O 48.9373 -0.473035 4.09678 0
M  V30 525 H 48.2783 0.170088 0.641846 0
M  V30 526 H 50.8083 1.10244 1.72358 0
M  V30 527 H 50.8183 0.383135 4.06197 0
M  V30 528 H 49.4933 1.51963 3.87144 0
M  V30 529 H 48.0703 -0.305272 3.71648 0
M  V30 530 N 50.2554 -1.46986 0.568584 0
M  V30 531 C 51.5014 -2.02741 0.0488709 0
M  V30 532 C 51.8344 -1.44077 -1.30214 0
M  V30 533 O 51.1094 -0.600552 -1.84996 0
M  V30 534 C 51.3924 -3.60086 -0.032047 0
M  V30 535 C 51.2454 -4.29162 1.34686 0
M  V30 536 C 52.5644 -4.33838 -0.739798 0
M  V30 537 H 49.6834 -0.736749 0.0192338 0
M  V30 538 H 52.3254 -1.75289 0.733065 0
M  V30 539 H 50.4754 -3.83606 -0.61473 0
M  V30 540 H 52.1474 -4.16948 1.97362 0
M  V30 541 H 50.3904 -3.89073 1.91846 0
M  V30 542 H 51.0614 -5.37826 1.24285 0
M  V30 543 H 53.5374 -4.15378 -0.244939 0
M  V30 544 H 52.4134 -5.43537 -0.765406 0
M  V30 545 H 52.6744 -4.03875 -1.79827 0
M  V30 546 N 51.7335 -0.305618 -1.54608 0
M  V30 547 C 52.6815 0.584119 -2.25146 0
M  V30 548 C 53.6755 1.13326 -1.25911 0
M  V30 549 O 54.8815 1.08337 -1.43747 0
M  V30 550 H 51.2565 0.206983 -0.722954 0
M  V30 551 H 53.2275 -0.033291 -2.98381 0
M  V30 552 C 51.9765 1.74225 -3.009 0
M  V30 553 H 51.2995 1.32892 -3.77067 0
M  V30 554 H 52.7395 2.34077 -3.53531 0
M  V30 555 C 51.1985 2.64914 -2.0814 0
M  V30 556 O 51.7285 3.66137 -1.65246 0
M  V30 557 N 49.9345 2.3275 -1.74 0
M  V30 558 H 49.4815 1.50479 -2.09078 0
M  V30 559 H 49.4395 2.93694 -1.12211 0
M  V30 560 N 53.2116 1.57565 -0.0334293 0
M  V30 561 C 54.1216 2.13943 0.962572 0
M  V30 562 C 55.1376 1.09276 1.35406 0
M  V30 563 O 56.3136 1.41355 1.4346 0
M  V30 564 C 53.3786 2.65887 2.22497 0
M  V30 565 C 52.4396 3.85286 1.8935 0
M  V30 566 C 51.6726 4.34743 3.09571 0
M  V30 567 O 51.8956 3.83352 4.22371 0
M  V30 568 O 50.8296 5.26538 2.91618 0
M  V30 569 H 54.6556 2.99333 0.513169 0
M  V30 570 H 52.2406 1.4822 0.18743 0
M  V30 571 H 54.1226 2.99346 2.96598 0
M  V30 572 H 52.7976 1.83578 2.6661 0
M  V30 573 H 51.7046 3.56746 1.1262 0
M  V30 574 H 53.0376 4.68771 1.5005 0
M  V30 575 N 54.6897 -0.239769 1.55765 0
M  V30 576 C 55.9367 -0.966801 1.7793 0
M  V30 577 C 56.2647 -1.85046 0.599015 0
M  V30 578 O 55.5197 -1.91197 -0.417395 0
M  V30 579 C 55.8187 -1.852 3.05672 0
M  V30 580 C 55.4847 -1.1231 4.36689 0
M  V30 581 C 54.1467 -0.921689 4.72291 0
M  V30 582 C 56.4987 -0.607019 5.17653 0
M  V30 583 C 53.8267 -0.191996 5.86386 0
M  V30 584 C 56.1787 0.109241 6.32506 0
M  V30 585 C 54.8427 0.322073 6.66723 0
M  V30 586 H 54.1127 -0.353778 0.651093 0
M  V30 587 H 56.7597 -0.23634 1.90036 0
M  V30 588 H 55.0647 -2.64975 2.8861 0
M  V30 589 H 56.7617 -2.41635 3.20021 0
M  V30 590 H 53.3517 -1.29004 4.08725 0
M  V30 591 H 57.5357 -0.750153 4.90598 0
M  V30 592 H 52.7917 -0.0166949 6.11398 0
M  V30 593 H 56.9657 0.516737 6.9448 0
M  V30 594 H 54.5927 0.88944 7.54979 0
M  V30 595 N 56.1678 -1.49265 -0.50573 0
M  V30 596 C 57.1148 -1.65585 -1.6078 0
M  V30 597 C 58.0848 -0.497396 -1.58478 0
M  V30 598 O 59.2698 -0.72385 -1.76536 0
M  V30 599 C 56.4098 -1.72408 -2.98948 0
M  V30 600 C 55.5228 -2.99525 -3.11301 0
M  V30 601 C 54.6578 -2.97356 -4.40174 0
M  V30 602 C 53.6968 -4.19074 -4.46143 0
M  V30 603 N 52.8338 -4.14841 -5.66437 0
M  V30 604 H 57.6738 -2.59688 -1.46172 0
M  V30 605 H 55.2108 -1.28761 -0.711261 0
M  V30 606 H 57.1688 -1.74344 -3.79025 0
M  V30 607 H 55.7988 -0.817753 -3.1227 0
M  V30 608 H 54.8508 -3.07222 -2.24318 0
M  V30 609 H 56.1628 -3.89518 -3.11572 0
M  V30 610 H 55.3168 -2.97829 -5.28567 0
M  V30 611 H 54.0558 -2.05133 -4.42461 0
M  V30 612 H 53.0608 -4.1885 -3.56153 0
M  V30 613 H 54.2858 -5.12483 -4.45575 0
M  V30 614 H 52.2318 -3.25453 -5.69575 0
M  V30 615 H 52.1488 -4.98564 -5.68304 0
M  V30 616 H 53.4168 -4.1941 -6.57051 0
M  V30 617 N 57.6459 0.756429 -1.3826 0
M  V30 618 C 58.5559 1.9009 -1.37488 0
M  V30 619 C 59.5719 1.71855 -0.272366 0
M  V30 620 O 60.7479 1.94827 -0.510318 0
M  V30 621 C 57.8129 3.25421 -1.19592 0
M  V30 622 C 56.8739 3.56202 -2.39622 0
M  V30 623 C 56.1069 4.85075 -2.2257 0
M  V30 624 O 56.3299 5.57246 -1.21793 0
M  V30 625 O 55.2639 5.15269 -3.11098 0
M  V30 626 H 59.0899 1.93695 -2.33914 0
M  V30 627 H 56.6749 0.901313 -1.1915 0
M  V30 628 H 58.5569 4.06337 -1.11661 0
M  V30 629 H 57.2319 3.22634 -0.262486 0
M  V30 630 H 56.1389 2.75458 -2.53128 0
M  V30 631 H 57.4719 3.63747 -3.31586 0
M  V30 632 N 59.124 1.23083 0.984299 0
M  V30 633 C 60.054 1.03292 2.09411 0
M  V30 634 C 61.035 -0.048923 1.7003 0
M  V30 635 O 62.22 0.114967 1.93859 0
M  V30 636 C 59.35 0.619155 3.41736 0
M  V30 637 C 58.304 1.64791 3.95004 0
M  V30 638 C 57.63 1.0897 5.23478 0
M  V30 639 C 58.93 3.03999 4.24714 0
M  V30 640 H 60.624 1.96119 2.26225 0
M  V30 641 H 58.17 0.944344 1.08711 0
M  V30 642 H 60.123 0.467777 4.18796 0
M  V30 643 H 58.847 -0.344786 3.24775 0
M  V30 644 H 57.506 1.78721 3.20085 0
M  V30 645 H 57.154 0.11686 5.02864 0
M  V30 646 H 56.854 1.77704 5.60085 0
M  V30 647 H 58.378 0.950093 6.03163 0
M  V30 648 H 59.792 2.93393 4.92538 0
M  V30 649 H 58.189 3.69936 4.72512 0
M  V30 650 H 59.259 3.53285 3.32142 0
M  V30 651 N 60.6021 -1.18246 1.0419 0
M  V30 652 C 61.8481 -1.88536 0.747122 0
M  V30 653 C 62.1811 -1.80223 -0.723409 0
M  V30 654 O 61.4561 -1.20337 -1.52804 0
M  V30 655 C 61.7391 -3.38968 1.21544 0
M  V30 656 C 61.5921 -3.56084 2.74816 0
M  V30 657 C 62.9111 -4.32648 0.806482 0
M  V30 658 H 60.0301 -0.684619 0.272883 0
M  V30 659 H 62.6721 -1.39113 1.29413 0
M  V30 660 H 60.8221 -3.8119 0.750081 0
M  V30 661 H 62.4941 -3.22946 3.29399 0
M  V30 662 H 60.7371 -2.98699 3.14582 0
M  V30 663 H 61.4081 -4.61639 3.02644 0
M  V30 664 H 63.8841 -3.98211 1.20695 0
M  V30 665 H 62.7601 -5.36462 1.1619 0
M  V30 666 H 63.0211 -4.41146 -0.29029 0
M  V30 667 N 62.0802 -0.821533 -1.34494 0
M  V30 668 C 63.3082 -0.421884 -2.02553 0
M  V30 669 C 63.7232 0.971745 -1.61872 0
M  V30 670 O 63.0802 1.62864 -0.823496 0
M  V30 671 C 63.1312 -0.51285 -3.57844 0
M  V30 672 O 62.8522 -1.85155 -3.97051 0
M  V30 673 C 64.3532 -0.107921 -4.43169 0
M  V30 674 H 61.5732 -0.169482 -0.649243 0
M  V30 675 H 64.1172 -1.1093 -1.71798 0
M  V30 676 H 62.2722 0.126474 -3.87193 0
M  V30 677 H 62.6862 -1.82482 -4.91732 0
M  V30 678 H 64.1602 -0.222657 -5.51551 0
M  V30 679 H 64.6372 0.948401 -4.28838 0
M  V30 680 H 65.2432 -0.720989 -4.19144 0
M  V30 681 N 63.5583 1.46682 -0.576371 0
M  V30 682 C 64.4903 2.28341 0.198231 0
M  V30 683 C 65.5033 1.38141 0.861453 0
M  V30 684 O 66.6923 1.62797 0.732082 0
M  V30 685 C 63.7923 3.12986 1.29972 0
M  V30 686 C 62.9653 4.31271 0.729639 0
M  V30 687 C 62.0243 4.97363 1.71803 0
M  V30 688 O 61.0503 5.55156 1.25658 0
M  V30 689 N 62.2523 4.93796 3.05198 0
M  V30 690 H 65.0173 2.9546 -0.502324 0
M  V30 691 H 62.5783 1.56525 -0.413715 0
M  V30 692 H 64.5703 3.54066 1.96008 0
M  V30 693 H 63.1403 2.47984 1.90323 0
M  V30 694 H 62.3603 3.94052 -0.108012 0
M  V30 695 H 63.6483 5.07739 0.328438 0
M  V30 696 H 63.0463 4.48077 3.45317 0
M  V30 697 H 61.6033 5.38837 3.6674 0
M  V30 698 N 65.0364 0.313813 1.54444 0
M  V30 699 C 65.9684 -0.590425 2.21465 0
M  V30 700 C 66.9814 -1.08753 1.21147 0
M  V30 701 O 68.1704 -1.00278 1.4767 0
M  V30 702 C 65.2704 -1.82179 2.85769 0
M  V30 703 C 64.4434 -1.46502 4.12136 0
M  V30 704 C 63.5024 -2.55288 4.60124 0
M  V30 705 O 62.5284 -2.19842 5.25032 0
M  V30 706 N 63.7304 -3.86053 4.33525 0
M  V30 707 H 66.4954 -0.0166033 2.99695 0
M  V30 708 H 64.0564 0.136578 1.61323 0
M  V30 709 H 66.0484 -2.54328 3.14801 0
M  V30 710 H 64.6184 -2.30369 2.11303 0
M  V30 711 H 63.8384 -0.575595 3.89975 0
M  V30 712 H 65.1264 -1.20221 4.94393 0
M  V30 713 H 64.5244 -4.17654 3.81552 0
M  V30 714 H 63.0814 -4.54461 4.67235 0
M  V30 715 N 66.5145 -1.57545 0.0417849 0
M  V30 716 C 67.4445 -2.14009 -0.933929 0
M  V30 717 C 68.4255 -1.05938 -1.33083 0
M  V30 718 O 69.6105 -1.33833 -1.40721 0
M  V30 719 C 66.7405 -2.67747 -2.21199 0
M  V30 720 C 65.6945 -3.80718 -1.95544 0
M  V30 721 C 65.0205 -4.20935 -3.29724 0
M  V30 722 C 66.3205 -5.06258 -1.28452 0
M  V30 723 H 68.0145 -2.95788 -0.463645 0
M  V30 724 H 65.5605 -1.42285 -0.221573 0
M  V30 725 H 67.5135 -3.05886 -2.89848 0
M  V30 726 H 66.2375 -1.83147 -2.70416 0
M  V30 727 H 64.8965 -3.43037 -1.2931 0
M  V30 728 H 64.5445 -3.33298 -3.76724 0
M  V30 729 H 64.2445 -4.9707 -3.13361 0
M  V30 730 H 65.7685 -4.61666 -3.9962 0
M  V30 731 H 67.1825 -5.41903 -1.8712 0
M  V30 732 H 65.5795 -5.87475 -1.22445 0
M  V30 733 H 66.6495 -4.84207 -0.259219 0
M  V30 734 N 67.9926 0.231505 -1.5589 0
M  V30 735 C 69.4036 0.799327 -1.68724 0
M  V30 736 C 69.7546 1.85398 -0.642022 0
M  V30 737 O 68.8796 2.1539 0.208784 0
M  V30 738 C 69.4746 1.45664 -3.05888 0
M  V30 739 C 68.0336 1.97197 -3.20609 0
M  V30 740 C 67.1806 0.828552 -2.64632 0
M  V30 741 H 70.1316 0.00702616 -1.58698 0
M  V30 742 H 70.1526 2.32517 -3.01191 0
M  V30 743 H 69.6646 0.688808 -3.81939 0
M  V30 744 H 67.7656 2.76813 -2.4941 0
M  V30 745 H 67.8786 2.15878 -4.27707 0
M  V30 746 H 66.2426 1.23321 -2.22854 0
M  V30 747 H 67.0256 0.0735544 -3.43221 0
M  V30 748 N 69.4707 1.49531 0.497807 0
M  V30 749 C 70.4207 1.62829 1.59596 0
M  V30 750 C 71.4047 0.483824 1.53453 0
M  V30 751 O 72.5967 0.736937 1.60929 0
M  V30 752 C 69.7257 1.7011 2.98191 0
M  V30 753 C 68.8117 2.90144 3.09317 0
M  V30 754 N 69.2027 4.1418 2.90324 0
M  V30 755 C 67.5007 2.88148 3.40422 0
M  V30 756 C 68.2017 4.94886 3.05717 0
M  V30 757 N 67.1777 4.28314 3.34736 0
M  V30 758 H 70.9797 2.56446 1.4357 0
M  V30 759 H 68.4937 1.46347 0.704001 0
M  V30 760 H 70.4907 1.77735 3.77115 0
M  V30 761 H 69.1507 0.776315 3.15283 0
M  V30 762 H 70.1617 4.44109 2.66436 0
M  V30 763 H 66.8387 2.05061 3.63671 0
M  V30 764 H 68.2287 6.03432 2.95499 0
M  V30 765 N 70.9488 -0.749086 1.3866 0
M  V30 766 C 71.8788 -1.8764 1.38973 0
M  V30 767 C 72.8598 -1.68178 0.255004 0
M  V30 768 O 74.0448 -1.88704 0.458754 0
M  V30 769 C 71.1748 -3.25222 1.21851 0
M  V30 770 C 70.1288 -3.59295 2.32575 0
M  V30 771 C 69.4548 -4.95663 2.00555 0
M  V30 772 C 70.7548 -3.63709 3.7485 0
M  V30 773 H 72.4488 -1.87635 2.3331 0
M  V30 774 H 69.9948 -0.901329 1.12303 0
M  V30 775 H 71.9478 -4.03746 1.20695 0
M  V30 776 H 70.6718 -3.25719 0.239775 0
M  V30 777 H 69.3308 -2.83093 2.32925 0
M  V30 778 H 68.9788 -4.92724 1.01154 0
M  V30 779 H 68.6788 -5.19429 2.74714 0
M  V30 780 H 70.2028 -5.7656 2.01024 0
M  V30 781 H 71.6168 -4.32338 3.76506 0
M  V30 782 H 70.0138 -3.98986 4.48252 0
M  V30 783 H 71.0838 -2.63834 4.06841 0
M  V30 784 N 72.4269 -1.23603 -0.977757 0
M  V30 785 C 73.3569 -1.04401 -2.0886 0
M  V30 786 C 74.3379 0.0399052 -1.70053 0
M  V30 787 O 75.5229 -0.125246 -1.93796 0
M  V30 788 C 72.6529 -0.637269 -3.41403 0
M  V30 789 C 71.6069 -1.66883 -3.94124 0
M  V30 790 C 70.9329 -1.11745 -5.22893 0
M  V30 791 C 72.2329 -3.06247 -4.23096 0
M  V30 792 H 73.9269 -1.97316 -2.25182 0
M  V30 793 H 71.4729 -0.950096 -1.08209 0
M  V30 794 H 73.4259 -0.48998 -4.18542 0
M  V30 795 H 72.1499 0.327557 -3.24953 0
M  V30 796 H 70.8089 -1.80416 -3.19133 0
M  V30 797 H 70.4569 -0.143527 -5.02795 0
M  V30 798 H 70.1569 -1.80672 -5.59134 0
M  V30 799 H 71.6809 -0.982067 -6.02651 0
M  V30 800 H 73.0949 -2.96001 -4.90975 0
M  V30 801 H 71.4919 -3.72436 -4.70544 0
M  V30 802 H 72.5619 -3.55041 -3.30263 0
M  V30 803 N 73.905 1.17692 -1.04816 0
M  V30 804 C 74.852 2.21581 -0.645797 0
M  V30 805 C 75.822 1.62367 0.350159 0
M  V30 806 O 77.007 1.89254 0.242433 0
M  V30 807 C 74.147 3.45092 -0.0227568 0
M  V30 808 C 73.26 4.18613 -1.06709 0
M  V30 809 C 72.395 5.29602 -0.411767 0
M  V30 810 C 71.434 5.94904 -1.44067 0
M  V30 811 N 70.571 6.97414 -0.809781 0
M  V30 812 H 75.411 2.55353 -1.5362 0
M  V30 813 H 72.948 1.25438 -0.768364 0
M  V30 814 H 74.906 4.15679 0.35588 0
M  V30 815 H 73.536 3.11917 0.831122 0
M  V30 816 H 72.588 3.46779 -1.5636 0
M  V30 817 H 73.9 4.63293 -1.84827 0
M  V30 818 H 73.054 6.06696 0.0206623 0
M  V30 819 H 71.793 4.86045 0.401438 0
M  V30 820 H 70.798 5.16544 -1.88316 0
M  V30 821 H 72.023 6.40542 -2.25571 0
M  V30 822 H 69.969 6.55998 -0.0170186 0
M  V30 823 H 69.886 7.40386 -1.52856 0
M  V30 824 H 71.154 7.78463 -0.401999 0
M  V30 825 N 75.3831 0.828654 1.34056 0
M  V30 826 C 76.6601 0.341809 1.9259 0
M  V30 827 C 77.0401 -1.17158 1.75605 0
M  V30 828 O 76.3881 -1.98132 1.13824 0
M  V30 829 C 76.5981 0.777453 3.4023 0
M  V30 830 C 77.9461 0.779579 4.17382 0
M  V30 831 O 78.9701 0.7204 3.48839 0
M  V30 832 O 77.8291 0.857996 5.39723 0
M  V30 833 H 74.9231 0.0946085 0.821571 0
M  V30 834 H 77.4691 0.913827 1.42994 0
M  V30 835 H 76.2411 1.8196 3.46419 0
M  V30 836 H 75.8641 0.181444 3.97186 0
M  V30 837 N 76.8612 -1.46375 0.584142 0
M  V30 838 C 78.1072 -2.02678 0.0703716 0
M  V30 839 C 78.4402 -1.4545 -1.28678 0
M  V30 840 O 77.7152 -0.62014 -1.84349 0
M  V30 841 C 77.9982 -3.60099 0.00614674 0
M  V30 842 C 77.8512 -4.27709 1.3923 0
M  V30 843 C 79.1702 -4.34598 -0.693742 0
M  V30 844 H 76.2892 -0.736504 0.027047 0
M  V30 845 H 78.9312 -1.74501 0.751615 0
M  V30 846 H 77.0812 -3.84236 -0.574009 0
M  V30 847 H 78.7532 -4.14832 2.01773 0
M  V30 848 H 76.9962 -3.87016 1.95962 0
M  V30 849 H 77.6672 -5.36478 1.29982 0
M  V30 850 H 80.1432 -4.15615 -0.200869 0
M  V30 851 H 79.0192 -5.44318 -0.707714 0
M  V30 852 H 79.2802 -4.05759 -1.75533 0
M  V30 853 N 78.3393 -0.321999 -1.54275 0
M  V30 854 C 79.5873 0.280489 -2.00144 0
M  V30 855 C 79.9083 1.52777 -1.21178 0
M  V30 856 O 79.1783 1.9338 -0.313187 0
M  V30 857 H 77.7583 0.106632 -0.73935 0
M  V30 858 H 80.4203 -0.438184 -1.8991 0
M  V30 859 H 79.5163 0.537972 -3.07428 0
M  V30 860 N 79.8174 1.5752 -0.0501392 0
M  V30 861 C 81.0424 1.97376 0.636997 0
M  V30 862 C 81.4674 0.927466 1.63645 0
M  V30 863 O 80.8254 -0.10941 1.8097 0
M  V30 864 C 80.8734 3.36304 1.30123 0
M  V30 865 O 79.9774 3.34156 2.41689 0
M  V30 866 H 79.3184 0.642998 0.165679 0
M  V30 867 H 81.8484 2.04258 -0.118233 0
M  V30 868 H 81.8584 3.73008 1.65315 0
M  V30 869 H 80.5334 4.11993 0.568746 0
M  V30 870 H 79.1104 3.09196 2.08451 0
M  V30 871 N 81.2955 -0.223234 1.56011 0
M  V30 872 C 82.2255 -1.27988 1.95298 0
M  V30 873 C 83.2065 -1.48976 0.820979 0
M  V30 874 O 84.3915 -1.61188 1.08315 0
M  V30 875 C 81.5215 -2.63 2.26822 0
M  V30 876 C 80.4755 -2.56671 3.42497 0
M  V30 877 C 79.8015 -3.95697 3.59622 0
M  V30 878 C 81.1015 -2.11601 4.77517 0
M  V30 879 H 82.7955 -0.953525 2.8381 0
M  V30 880 H 80.3415 -0.457244 1.36548 0
M  V30 881 H 82.2945 -3.37077 2.52898 0
M  V30 882 H 81.0185 -2.9732 1.35161 0
M  V30 883 H 79.6775 -1.85051 3.16467 0
M  V30 884 H 79.3255 -4.27322 2.6534 0
M  V30 885 H 79.0255 -3.92345 4.37424 0
M  V30 886 H 80.5495 -4.71438 3.88044 0
M  V30 887 H 81.9635 -2.7542 5.02809 0
M  V30 888 H 80.3605 -2.19311 5.5859 0
M  V30 889 H 81.4305 -1.06824 4.72987 0
M  V30 890 N 82.7736 -1.49793 -0.48987 0
M  V30 891 C 84.0506 -1.50348 -1.25119 0
M  V30 892 C 84.4306 -0.237466 -2.0976 0
M  V30 893 O 83.7786 0.77981 -2.14782 0
M  V30 894 C 83.9886 -2.78872 -2.09837 0
M  V30 895 C 85.3366 -3.288 -2.68655 0
M  V30 896 O 86.3606 -2.80065 -2.20096 0
M  V30 897 O 85.2196 -4.13707 -3.57083 0
M  V30 898 H 82.3136 -0.602242 -0.566775 0
M  V30 899 H 84.8596 -1.62067 -0.503229 0
M  V30 900 H 83.6316 -3.62499 -1.47343 0
M  V30 901 H 83.2546 -2.70066 -2.91805 0
M  V30 902 N 84.2517 0.741722 -1.39055 0
M  V30 903 C 85.1617 1.88621 -1.39496 0
M  V30 904 C 86.1777 1.71557 -0.290578 0
M  V30 905 O 87.3537 1.94275 -0.530954 0
M  V30 906 C 84.4187 3.24134 -1.23037 0
M  V30 907 C 83.4797 3.5364 -2.43387 0
M  V30 908 C 82.7127 4.82687 -2.27703 0
M  V30 909 O 82.9357 5.55922 -1.27696 0
M  V30 910 O 81.8697 5.1194 -3.16545 0
M  V30 911 H 85.6957 1.91203 -2.35956 0
M  V30 912 H 83.2807 0.888625 -1.20099 0
M  V30 913 H 85.1627 4.0513 -1.15964 0
M  V30 914 H 83.8377 3.22337 -0.296691 0
M  V30 915 H 82.7447 2.72758 -2.56035 0
M  V30 916 H 84.0777 3.60209 -3.35425 0
M  V30 917 N 85.7298 1.2412 0.971189 0
M  V30 918 C 86.6768 1.0305 2.06517 0
M  V30 919 C 87.6468 -0.0550666 1.66009 0
M  V30 920 O 88.8318 0.0988688 1.90544 0
M  V30 921 C 85.9718 0.637653 3.39158 0
M  V30 922 C 85.0848 1.79633 3.92882 0
M  V30 923 C 84.2198 1.34939 5.13775 0
M  V30 924 C 83.2588 2.47823 5.59687 0
M  V30 925 N 82.3958 2.04022 6.71803 0
M  V30 926 H 87.2358 1.96685 2.23873 0
M  V30 927 H 84.7728 0.979694 1.09729 0
M  V30 928 H 86.7308 0.390931 4.15364 0
M  V30 929 H 85.3608 -0.261693 3.21737 0
M  V30 930 H 84.4128 2.15681 3.13346 0
M  V30 931 H 85.7248 2.64466 4.22918 0
M  V30 932 H 84.8788 1.06134 5.97345 0
M  V30 933 H 83.6178 0.471557 4.85415 0
M  V30 934 H 82.6228 2.77392 4.74693 0
M  V30 935 H 83.8478 3.36158 5.90063 0
M  V30 936 H 81.7938 1.18632 6.45184 0
M  V30 937 H 81.7108 2.82409 7.01271 0
M  V30 938 H 82.9788 1.78347 7.58823 0
M  V30 939 N 87.2079 -1.17134 1.05439 0
M  V30 940 C 88.1409 -2.2012 0.601855 0
M  V30 941 C 89.1189 -1.58314 -0.370854 0
M  V30 942 O 90.3029 -1.8638 -0.281882 0
M  V30 943 C 87.4299 -3.38491 -0.118868 0
M  V30 944 C 86.4759 -4.18752 0.809242 0
M  V30 945 S 87.3089 -4.83602 2.29977 0
M  V30 946 C 88.4649 -6.0536 1.59029 0
M  V30 947 H 88.6979 -2.58165 1.47438 0
M  V30 948 H 86.2309 -1.27788 0.866573 0
M  V30 949 H 88.1889 -4.07084 -0.528495 0
M  V30 950 H 86.8499 -2.98829 -0.967465 0
M  V30 951 H 86.0429 -5.03373 0.251379 0
M  V30 952 H 85.6449 -3.5561 1.15835 0
M  V30 953 H 87.9369 -6.71615 0.891017 0
M  V30 954 H 88.8799 -6.65679 2.41407 0
M  V30 955 H 89.2879 -5.54138 1.07663 0
M  V30 956 N 88.686 -0.835752 -1.33615 0
M  V30 957 C 89.633 -0.26473 -2.29277 0
M  V30 958 C 90.603 0.617712 -1.54187 0
M  V30 959 O 91.788 0.556641 -1.825 0
M  V30 960 C 88.928 0.556777 -3.40579 0
M  V30 961 C 88.041 -0.349339 -4.30585 0
M  V30 962 C 87.176 0.482969 -5.29 0
M  V30 963 C 86.215 -0.421732 -6.10645 0
M  V30 964 N 85.352 0.372262 -7.01112 0
M  V30 965 H 90.192 -1.08582 -2.77514 0
M  V30 966 H 87.729 -0.546927 -1.36554 0
M  V30 967 H 89.687 1.04852 -4.03809 0
M  V30 968 H 88.317 1.34286 -2.93542 0
M  V30 969 H 87.369 -0.959372 -3.68104 0
M  V30 970 H 88.681 -1.04445 -4.87742 0
M  V30 971 H 87.835 1.03866 -5.97743 0
M  V30 972 H 86.574 1.21153 -4.72412 0
M  V30 973 H 85.579 -0.989464 -5.40823 0
M  V30 974 H 86.804 -1.14861 -6.69316 0
M  V30 975 H 84.75 1.08426 -6.46977 0
M  V30 976 H 84.667 -0.264198 -7.55538 0
M  V30 977 H 85.935 0.910293 -7.74167 0
M  V30 978 N 90.1641 1.46063 -0.591896 0
M  V30 979 C 91.3891 2.07226 -0.0850314 0
M  V30 980 C 91.8141 1.43625 1.21463 0
M  V30 981 O 91.1721 0.523305 1.73583 0
M  V30 982 C 91.2201 3.60554 0.0576567 0
M  V30 983 O 90.3241 3.97128 1.11188 0
M  V30 984 H 89.6651 0.660615 -0.0669568 0
M  V30 985 H 92.1951 1.8756 -0.81745 0
M  V30 986 H 92.2051 4.07165 0.2609 0
M  V30 987 H 90.8801 4.06235 -0.891416 0
M  V30 988 H 89.4571 3.62213 0.886356 0
M  V30 989 N 91.6422 0.330177 1.54103 0
M  V30 990 C 92.5722 -0.525353 2.27513 0
M  V30 991 C 93.5532 -1.11383 1.2856 0
M  V30 992 O 94.7382 -1.13773 1.57383 0
M  V30 993 C 91.8682 -1.6831 3.03791 0
M  V30 994 C 90.8222 -1.2236 4.10137 0
M  V30 995 C 90.1482 -2.46882 4.74293 0
M  V30 996 C 91.4482 -0.333697 5.21233 0
M  V30 997 H 93.1422 0.087013 2.99274 0
M  V30 998 H 90.6882 0.0432893 1.43935 0
M  V30 999 H 92.6412 -2.28795 3.5388 0
M  V30 1000 H 91.3652 -2.32216 2.29659 0
M  V30 1001 H 90.0242 -0.64165 3.60941 0
M  V30 1002 H 89.6722 -3.09165 3.96769 0
M  V30 1003 H 89.3722 -2.16825 5.46133 0
M  V30 1004 H 90.8962 -3.08117 5.27159 0
M  V30 1005 H 92.3102 -0.845013 5.67038 0
M  V30 1006 H 90.7072 -0.125612 5.99969 0
M  V30 1007 H 91.7772 0.633724 4.80741 0
M  V30 1008 N 93.1203 -1.57491 0.0584922 0
M  V30 1009 C 94.3973 -1.84346 -0.653918 0
M  V30 1010 C 94.7773 -0.948355 -1.88599 0
M  V30 1011 O 94.1253 -0.0112403 -2.28497 0
M  V30 1012 C 94.3353 -3.34239 -1.00425 0
M  V30 1013 C 95.6833 -4.01431 -1.38342 0
M  V30 1014 O 96.7073 -3.38907 -1.09637 0
M  V30 1015 O 95.5663 -5.11683 -1.91943 0
M  V30 1016 H 92.6603 -0.761112 -0.323478 0
M  V30 1017 H 95.2063 -1.6947 0.0884125 0
M  V30 1018 H 93.9783 -3.91089 -0.128625 0
M  V30 1019 H 93.6013 -3.54329 -1.80378 0
M  V30 1020 N 94.5984 0.214957 -1.56127 0
M  V30 1021 C 95.8444 0.939762 -1.79712 0
M  V30 1022 C 96.1774 1.83723 -0.629247 0
M  V30 1023 O 95.4524 1.90925 0.371197 0
M  V30 1024 C 95.7354 1.77306 -3.13424 0
M  V30 1025 C 95.5884 0.90164 -4.40671 0
M  V30 1026 C 96.9074 2.74956 -3.43638 0
M  V30 1027 H 94.0264 0.340214 -0.653776 0
M  V30 1028 H 96.6684 0.20824 -1.88855 0
M  V30 1029 H 94.8184 2.39673 -3.0576 0
M  V30 1030 H 96.4904 0.294206 -4.60361 0
M  V30 1031 H 94.7334 0.207368 -4.33304 0
M  V30 1032 H 95.4044 1.51923 -5.30682 0
M  V30 1033 H 97.8804 2.22724 -3.51473 0
M  V30 1034 H 96.7564 3.30358 -4.38355 0
M  V30 1035 H 97.0174 3.53023 -2.66134 0
M  V30 1036 N 96.0765 1.50051 0.48192 0
M  V30 1037 C 97.0245 1.68635 1.60203 0
M  V30 1038 C 98.0185 0.552184 1.60148 0
M  V30 1039 O 99.2245 0.732377 1.64427 0
M  V30 1040 H 95.5995 0.532081 0.531407 0
M  V30 1041 H 97.5705 2.62616 1.41688 0
M  V30 1042 C 96.3195 1.78775 2.9822 0
M  V30 1043 H 95.6425 2.6543 2.98976 0
M  V30 1044 H 97.0825 1.95806 3.7608 0
M  V30 1045 C 95.5415 0.536849 3.32595 0
M  V30 1046 O 96.0715 -0.328897 4.00351 0
M  V30 1047 N 94.2775 0.394091 2.87915 0
M  V30 1048 H 93.8245 1.09962 2.32951 0
M  V30 1049 H 93.7825 -0.441737 3.11281 0
M  V30 1050 N 97.5546 -0.734337 1.39446 0
M  V30 1051 C 98.4866 -1.85861 1.34121 0
M  V30 1052 C 99.4996 -1.60871 0.249864 0
M  V30 1053 O 100.689 -1.71093 0.508865 0
M  V30 1054 C 97.7886 -3.21899 1.05991 0
M  V30 1055 C 96.9616 -3.74239 2.26415 0
M  V30 1056 C 96.0206 -4.88841 1.94733 0
M  V30 1057 O 95.0466 -5.02468 2.67422 0
M  V30 1058 N 96.2486 -5.73261 0.913884 0
M  V30 1059 H 99.0136 -1.90934 2.31007 0
M  V30 1060 H 96.5746 -0.915102 1.33557 0
M  V30 1061 H 98.5666 -3.96136 0.828147 0
M  V30 1062 H 97.1366 -3.12091 0.178361 0
M  V30 1063 H 96.3566 -2.91347 2.65539 0
M  V30 1064 H 97.6446 -4.05942 3.06738 0
M  V30 1065 H 97.0426 -5.64842 0.311476 0
M  V30 1066 H 95.5996 -6.47563 0.742015 0
M  V30 1067 N 99.0327 -1.24633 -0.964593 0
M  V30 1068 C 100.31 -0.995809 -1.68354 0
M  V30 1069 C 100.69 0.480964 -2.05548 0
M  V30 1070 O 100.038 1.45599 -1.76105 0
M  V30 1071 C 100.248 -1.92177 -2.91323 0
M  V30 1072 C 101.596 -2.19446 -3.63495 0
M  V30 1073 O 102.62 -1.89855 -3.01386 0
M  V30 1074 O 101.479 -2.69714 -4.75307 0
M  V30 1075 H 98.5727 -0.376854 -0.736146 0
M  V30 1076 H 101.119 -1.35745 -1.0184 0
M  V30 1077 H 99.8907 -2.91938 -2.60553 0
M  V30 1078 H 99.5137 -1.56349 -3.65569 0
M  V30 1079 N 100.511 1.16574 -1.06058 0
M  V30 1080 C 101.736 1.91493 -0.796562 0
M  V30 1081 C 102.161 1.76773 0.642868 0
M  V30 1082 O 101.519 1.09142 1.44768 0
M  V30 1083 C 101.567 3.40293 -1.19303 0
M  V30 1084 O 100.671 4.11074 -0.330394 0
M  V30 1085 H 100.012 0.596678 -0.291326 0
M  V30 1086 H 102.542 1.47708 -1.41575 0
M  V30 1087 H 102.552 3.91057 -1.16356 0
M  V30 1088 H 101.227 3.50326 -2.24153 0
M  V30 1089 H 99.8038 3.70513 -0.421225 0
M  V30 1090 N 101.989 0.842826 1.3317 0
M  V30 1091 C 102.899 0.281444 2.32906 0
M  V30 1092 C 103.915 -0.594587 1.63526 0
M  V30 1093 O 105.091 -0.49777 1.95152 0
M  V30 1094 C 102.156 -0.530929 3.42611 0
M  V30 1095 C 101.217 0.369843 4.27704 0
M  V30 1096 C 100.45 -0.403853 5.3217 0
M  V30 1097 O 100.673 -1.63513 5.46461 0
M  V30 1098 O 99.6069 0.224199 6.01482 0
M  V30 1099 H 103.433 1.10744 2.82789 0
M  V30 1100 H 101.018 0.60545 1.36582 0
M  V30 1101 H 102.9 -0.992437 4.09547 0
M  V30 1102 H 101.575 -1.33392 2.94938 0
M  V30 1103 H 100.482 0.879275 3.6362 0
M  V30 1104 H 101.815 1.13771 4.78871 0
M  V30 1105 N 103.467 -1.45747 0.599634 0
M  V30 1106 C 104.397 -2.33235 -0.111306 0
M  V30 1107 C 105.378 -1.46359 -0.866781 0
M  V30 1108 O 106.563 -1.75146 -0.838904 0
M  V30 1109 C 103.693 -3.28932 -1.11451 0
M  V30 1110 C 102.647 -4.25381 -0.472772 0
M  V30 1111 C 101.973 -5.1071 -1.58365 0
M  V30 1112 C 103.273 -5.18831 0.600948 0
M  V30 1113 H 104.967 -2.92927 0.61919 0
M  V30 1114 H 102.513 -1.40857 0.299215 0
M  V30 1115 H 104.466 -3.89002 -1.62036 0
M  V30 1116 H 103.19 -2.67381 -1.8755 0
M  V30 1117 H 101.849 -3.66598 0.0121472 0
M  V30 1118 H 101.497 -4.45533 -2.33473 0
M  V30 1119 H 101.197 -5.7604 -1.15982 0
M  V30 1120 H 102.721 -5.73647 -2.09194 0
M  V30 1121 H 104.135 -5.73019 0.179491 0
M  V30 1122 H 102.532 -5.92595 0.946076 0
M  V30 1123 H 103.602 -4.6174 1.48068 0
M  V30 1124 N 104.945 -0.338344 -1.53925 0
M  V30 1125 C 105.892 0.520845 -2.24846 0
M  V30 1126 C 106.862 1.09976 -1.24477 0
M  V30 1127 O 108.047 1.13735 -1.53196 0
M  V30 1128 C 105.187 1.6685 -3.02084 0
M  V30 1129 C 104.3 1.11739 -4.17299 0
M  V30 1130 C 103.435 2.23193 -4.82036 0
M  V30 1131 C 102.474 1.65407 -5.89328 0
M  V30 1132 N 101.611 2.70582 -6.47866 0
M  V30 1133 H 106.451 -0.0904881 -2.97863 0
M  V30 1134 H 103.988 -0.0564282 -1.46992 0
M  V30 1135 H 105.946 2.34407 -3.45122 0
M  V30 1136 H 104.576 2.2509 -2.31375 0
M  V30 1137 H 103.628 0.332919 -3.7894 0
M  V30 1138 H 104.94 0.654677 -4.94485 0
M  V30 1139 H 104.094 2.98626 -5.28117 0
M  V30 1140 H 102.833 2.72807 -4.04262 0
M  V30 1141 H 101.838 0.884779 -5.42634 0
M  V30 1142 H 103.063 1.16652 -6.69006 0
M  V30 1143 H 101.009 3.1946 -5.72959 0
M  V30 1144 H 100.926 2.28917 -7.20509 0
M  V30 1145 H 102.194 3.45799 -6.98601 0
M  V30 1146 N 106.423 1.57458 -0.0668435 0
M  V30 1147 C 107.67 1.93301 0.603406 0
M  V30 1148 C 107.998 0.946486 1.69917 0
M  V30 1149 O 107.253 -0.0387021 1.95662 0
M  V30 1150 C 107.552 3.35784 1.22409 0
M  V30 1151 C 107.218 4.50179 0.254955 0
M  V30 1152 C 105.88 4.81199 -0.0116746 0
M  V30 1153 C 108.232 5.19598 -0.408338 0
M  V30 1154 C 105.56 5.78978 -0.94877 0
M  V30 1155 C 107.912 6.18381 -1.33372 0
M  V30 1156 C 106.576 6.47821 -1.60887 0
M  V30 1157 H 105.846 0.707338 0.220802 0
M  V30 1158 H 108.493 1.91012 -0.136665 0
M  V30 1159 H 106.798 3.34515 2.03978 0
M  V30 1160 H 108.495 3.60804 1.74989 0
M  V30 1161 H 105.085 4.25983 0.472954 0
M  V30 1162 H 109.269 4.95832 -0.215456 0
M  V30 1163 H 104.525 6.00115 -1.16925 0
M  V30 1164 H 108.699 6.71277 -1.85367 0
M  V30 1165 H 106.326 7.23399 -2.33661 0
M  V30 1166 N 107.901 -0.206675 1.56239 0
M  V30 1167 C 108.849 -1.27571 1.94495 0
M  V30 1168 C 109.843 -1.47737 0.828862 0
M  V30 1169 O 111.049 -1.48735 1.0138 0
M  V30 1170 H 107.424 -0.428029 0.6183 0
M  V30 1171 H 109.395 -0.925961 2.8367 0
M  V30 1172 C 108.144 -2.61568 2.29079 0
M  V30 1173 H 107.467 -2.46863 3.14482 0
M  V30 1174 H 108.907 -3.35144 2.5972 0
M  V30 1175 C 107.366 -3.17695 1.12123 0
M  V30 1176 O 107.896 -3.99801 0.390153 0
M  V30 1177 N 106.102 -2.76276 0.901097 0
M  V30 1178 H 105.649 -2.09613 1.49733 0
M  V30 1179 H 105.607 -3.1417 0.120319 0
M  V30 1180 N 109.379 -1.50304 -0.473955 0
M  V30 1181 C 110.289 -1.7174 -1.5982 0
M  V30 1182 C 111.305 -0.600457 -1.63311 0
M  V30 1183 O 112.481 -0.878441 -1.81233 0
M  V30 1184 C 109.546 -1.80427 -2.96052 0
M  V30 1185 C 108.607 -3.04148 -3.02972 0
M  V30 1186 C 107.84 -3.12411 -4.32706 0
M  V30 1187 O 108.063 -2.27542 -5.23049 0
M  V30 1188 O 106.997 -4.05113 -4.45159 0
M  V30 1189 H 110.823 -2.67035 -1.44657 0
M  V30 1190 H 108.408 -1.34366 -0.653148 0
M  V30 1191 H 110.29 -1.88338 -3.7697 0
M  V30 1192 H 108.965 -0.883156 -3.11419 0
M  V30 1193 H 107.872 -3.0174 -2.21142 0
M  V30 1194 H 109.205 -3.95829 -2.92541 0
M  V30 1195 N 110.857 0.726932 -1.39834 0
M  V30 1196 C 112.087 1.51393 -1.40583 0
M  V30 1197 C 112.495 1.892 -0.000740625 0
M  V30 1198 O 111.838 1.55189 0.982951 0
M  V30 1199 C 111.9 2.82588 -2.22226 0
M  V30 1200 C 111.564 2.67169 -3.70769 0
M  V30 1201 C 112.561 2.3518 -4.63666 0
M  V30 1202 C 110.246 2.83788 -4.14451 0
M  V30 1203 C 112.24 2.20002 -5.98229 0
M  V30 1204 C 109.927 2.68229 -5.49087 0
M  V30 1205 C 110.925 2.36382 -6.4079 0
M  V30 1206 O 110.613 2.2093 -7.72946 0
M  V30 1207 H 110.345 0.474168 -0.48181 0
M  V30 1208 H 112.899 0.905247 -1.84376 0
M  V30 1209 H 111.129 3.45746 -1.73195 0
M  V30 1210 H 112.818 3.44247 -2.15055 0
M  V30 1211 H 113.584 2.21984 -4.31217 0
M  V30 1212 H 109.463 3.07566 -3.43401 0
M  V30 1213 H 113.007 1.95067 -6.69772 0
M  V30 1214 H 108.904 2.81006 -5.81125 0
M  V30 1215 H 109.672 2.35937 -7.83757 0
M  V30 1216 N 112.336 1.25143 0.95797 0
M  V30 1217 C 113.582 1.10863 1.70531 0
M  V30 1218 C 113.937 -0.347391 1.89238 0
M  V30 1219 O 113.23 -1.25262 1.44983 0
M  V30 1220 C 113.424 1.79272 3.09187 0
M  V30 1221 C 113.253 3.31376 3.04006 0
M  V30 1222 C 112.023 4.0062 3.07948 0
M  V30 1223 C 114.221 4.27825 2.8543 0
M  V30 1224 N 112.203 5.39526 2.9289 0
M  V30 1225 C 113.574 5.53794 2.78769 0
M  V30 1226 C 115.629 4.1828 2.70085 0
M  V30 1227 C 114.332 6.7131 2.58331 0
M  V30 1228 C 116.358 5.35485 2.51017 0
M  V30 1229 C 115.72 6.60393 2.45073 0
M  V30 1230 H 111.819 0.460362 0.632132 0
M  V30 1231 H 114.403 1.58196 1.13499 0
M  V30 1232 H 112.574 1.34439 3.64391 0
M  V30 1233 H 114.306 1.57764 3.72683 0
M  V30 1234 H 111.061 3.51855 3.17009 0
M  V30 1235 H 111.485 6.12416 2.88574 0
M  V30 1236 H 116.127 3.22461 2.73457 0
M  V30 1237 H 113.845 7.67243 2.53701 0
M  V30 1238 H 117.431 5.29959 2.40073 0
M  V30 1239 H 116.311 7.49557 2.30509 0
M  V30 1240 N 113.814 -1.1601 1.06675 0
M  V30 1241 C 115.23 -1.38622 0.790948 0
M  V30 1242 C 115.43 -1.92109 -0.607965 0
M  V30 1243 O 114.486 -2.12239 -1.36787 0
M  V30 1244 C 115.799 -2.36347 1.85905 0
M  V30 1245 C 117.347 -2.50023 1.88301 0
M  V30 1246 C 117.822 -3.51033 2.94176 0
M  V30 1247 N 119.313 -3.58563 2.93235 0
M  V30 1248 C 120.048 -4.36521 3.71803 0
M  V30 1249 N 119.544 -5.17869 4.602 0
M  V30 1250 N 121.337 -4.31541 3.60178 0
M  V30 1251 H 113.488 -0.796294 1.96908 0
M  V30 1252 H 115.751 -0.412597 0.853503 0
M  V30 1253 H 115.457 -2.04147 2.86386 0
M  V30 1254 H 115.331 -3.36042 1.71334 0
M  V30 1255 H 117.718 -2.81524 0.884769 0
M  V30 1256 H 117.799 -1.5035 2.06951 0
M  V30 1257 H 117.443 -3.20268 3.94196 0
M  V30 1258 H 117.373 -4.50445 2.72776 0
M  V30 1259 H 119.864 -3.00496 2.29152 0
M  V30 1260 H 120.177 -5.74578 5.16797 0
M  V30 1261 H 118.522 -5.17199 4.64253 0
M  V30 1262 H 121.713 -3.67051 2.90502 0
M  V30 1263 H 121.886 -4.9205 4.21653 0
M  V30 1264 N 115.292 -0.849877 -1.32721 0
M  V30 1265 C 116.222 -0.306308 -2.31482 0
M  V30 1266 C 117.203 0.591952 -1.59468 0
M  V30 1267 O 118.388 0.513199 -1.87296 0
M  V30 1268 C 115.518 0.510204 -3.43532 0
M  V30 1269 C 114.472 -0.293209 -4.26994 0
M  V30 1270 C 113.798 0.647743 -5.30762 0
M  V30 1271 C 115.098 -1.51634 -4.99804 0
M  V30 1272 H 116.792 -1.13153 -2.77195 0
M  V30 1273 H 114.338 -0.545553 -1.33266 0
M  V30 1274 H 116.291 0.900856 -4.11658 0
M  V30 1275 H 115.015 1.36874 -2.96535 0
M  V30 1276 H 113.674 -0.665555 -3.60508 0
M  V30 1277 H 113.322 1.50299 -4.8002 0
M  V30 1278 H 113.022 0.11422 -5.87489 0
M  V30 1279 H 114.546 1.03567 -6.01753 0
M  V30 1280 H 115.96 -1.19824 -5.60638 0
M  V30 1281 H 114.357 -1.98745 -5.66234 0
M  V30 1282 H 115.427 -2.28018 -4.27943 0
M  V30 1283 N 116.77 1.45427 -0.607355 0
M  V30 1284 C 118.019 2.01452 -0.100036 0
M  V30 1285 C 118.332 1.48159 1.27704 0
M  V30 1286 O 119.538 1.96159 1.87707 0
M  V30 1287 C 117.994 3.59672 -0.128158 0
M  V30 1288 C 117.602 4.21962 -1.50507 0
M  V30 1289 C 119.346 4.23262 0.323932 0
M  V30 1290 C 117.253 5.72333 -1.48959 0
M  V30 1291 H 116.183 0.75325 -0.0336299 0
M  V30 1292 H 118.834 1.66901 -0.76265 0
M  V30 1293 H 117.216 3.91411 0.601105 0
M  V30 1294 H 118.39 4.01796 -2.25602 0
M  V30 1295 H 116.705 3.70565 -1.89923 0
M  V30 1296 H 119.302 5.33522 0.354691 0
M  V30 1297 H 119.645 3.93921 1.34656 0
M  V30 1298 H 120.178 3.96239 -0.352056 0
M  V30 1299 H 116.917 6.06373 -2.48981 0
M  V30 1300 H 116.437 5.94691 -0.781214 0
M  V30 1301 H 118.116 6.35525 -1.21313 0
M  V30 1302 N 118.248 0.346503 1.53744 0
M  V30 1303 C 119.496 -0.248612 2.00565 0
M  V30 1304 C 119.817 -1.5083 1.23593 0
M  V30 1305 O 119.087 -1.92858 0.343912 0
M  V30 1306 H 117.667 -0.0948564 0.740953 0
M  V30 1307 H 120.329 0.468341 1.89189 0
M  V30 1308 H 119.425 -0.488994 3.08245 0
M  V30 1309 N 119.726 -1.57421 0.075193 0
M  V30 1310 C 120.636 -2.1642 -0.905511 0
M  V30 1311 C 121.652 -1.12828 -1.32461 0
M  V30 1312 O 122.828 -1.45109 -1.39661 0
M  V30 1313 C 119.893 -2.71693 -2.15369 0
M  V30 1314 C 118.954 -3.90171 -1.79068 0
M  V30 1315 C 118.187 -4.42798 -2.97936 0
M  V30 1316 O 118.41 -3.94416 -4.12058 0
M  V30 1317 O 117.344 -5.34085 -2.77555 0
M  V30 1318 H 121.17 -3.00588 -0.433626 0
M  V30 1319 H 118.755 -1.48664 -0.148067 0
M  V30 1320 H 120.637 -3.07104 -2.88557 0
M  V30 1321 H 119.312 -1.90582 -2.61649 0
M  V30 1322 H 118.219 -3.59606 -1.03122 0
M  V30 1323 H 119.552 -4.72584 -1.37569 0
M  V30 1324 N 121.204 0.198386 -1.56346 0
M  V30 1325 C 122.134 1.24865 -1.9731 0
M  V30 1326 C 123.115 1.47651 -0.844576 0
M  V30 1327 O 124.3 1.59444 -1.10866 0
M  V30 1328 C 121.43 2.59358 -2.30977 0
M  V30 1329 C 120.384 2.5119 -3.46537 0
M  V30 1330 C 119.71 3.89926 -3.65871 0
M  V30 1331 C 121.01 2.03977 -4.80823 0
M  V30 1332 H 122.704 0.908252 -2.85291 0
M  V30 1333 H 120.25 0.435462 -1.37258 0
M  V30 1334 H 122.203 3.33011 -2.58228 0
M  V30 1335 H 120.927 2.95132 -1.39874 0
M  V30 1336 H 119.586 1.79993 -3.19371 0
M  V30 1337 H 119.234 4.23046 -2.72105 0
M  V30 1338 H 118.934 3.85336 -4.4361 0
M  V30 1339 H 120.458 4.65205 -3.95495 0
M  V30 1340 H 121.872 2.67386 -5.07127 0
M  V30 1341 H 120.269 2.10397 -5.62008 0
M  V30 1342 H 121.339 0.992861 -4.74626 0
M  V30 1343 N 122.682 1.50554 0.465978 0
M  V30 1344 C 123.645 1.69233 1.54574 0
M  V30 1345 C 124.645 0.562901 1.50626 0
M  V30 1346 O 125.835 0.830016 1.53155 0
M  V30 1347 C 122.967 1.7223 2.94193 0
M  V30 1348 H 124.16 2.65571 1.39327 0
M  V30 1349 H 121.713 1.40111 0.692711 0
M  V30 1350 H 122.448 0.77603 3.14878 0
M  V30 1351 H 122.233 2.54285 2.98466 0
M  V30 1352 H 123.723 1.88618 3.72576 0
M  V30 1353 N 124.16 -0.719506 1.40217 0
M  V30 1354 C 125.107 -1.83359 1.40172 0
M  V30 1355 C 126.077 -1.64065 0.259206 0
M  V30 1356 O 127.262 -1.85254 0.456677 0
M  V30 1357 C 124.402 -3.2103 1.26624 0
M  V30 1358 C 123.515 -3.51923 2.50548 0
M  V30 1359 C 122.65 -4.79079 2.29471 0
M  V30 1360 C 121.689 -5.02863 3.48992 0
M  V30 1361 N 120.826 -6.2123 3.27135 0
M  V30 1362 H 125.666 -1.82733 2.35399 0
M  V30 1363 H 123.203 -0.892688 1.16917 0
M  V30 1364 H 125.161 -4.00524 1.16776 0
M  V30 1365 H 123.791 -3.20895 0.350176 0
M  V30 1366 H 122.843 -2.67014 2.70939 0
M  V30 1367 H 124.155 -3.6541 3.39525 0
M  V30 1368 H 123.309 -5.66582 2.16955 0
M  V30 1369 H 122.048 -4.67794 1.37913 0
M  V30 1370 H 121.053 -4.13816 3.6199 0
M  V30 1371 H 122.278 -5.16023 4.41472 0
M  V30 1372 H 120.224 -6.11204 2.38256 0
M  V30 1373 H 120.141 -6.35375 4.09675 0
M  V30 1374 H 121.409 -7.11532 3.18344 0
M  V30 1375 N 125.638 -1.25649 -0.95132 0
M  V30 1376 C 126.548 -1.08073 -2.08224 0
M  V30 1377 C 127.564 -0.0169666 -1.73992 0
M  V30 1378 O 128.74 -0.218593 -2.0021 0
M  V30 1379 C 125.805 -0.704922 -3.39458 0
M  V30 1380 C 124.866 -1.84699 -3.87537 0
M  V30 1381 C 124.099 -1.48902 -5.12508 0
M  V30 1382 O 124.322 -0.386156 -5.69091 0
M  V30 1383 O 123.256 -2.32033 -5.55378 0
M  V30 1384 H 127.082 -2.02924 -2.25954 0
M  V30 1385 H 124.667 -1.04618 -1.06656 0
M  V30 1386 H 126.549 -0.507609 -4.18332 0
M  V30 1387 H 125.224 0.214291 -3.2299 0
M  V30 1388 H 124.131 -2.09919 -3.09653 0
M  V30 1389 H 125.464 -2.74557 -4.08509 0
M  V30 1390 N 127.117 1.15442 -1.07289 0
M  V30 1391 C 128.366 1.85557 -0.790669 0
M  V30 1392 C 128.679 1.83186 0.685739 0
M  V30 1393 O 129.885 2.48977 1.0827 0
M  V30 1394 C 128.341 3.33038 -1.36433 0
M  V30 1395 C 127.949 3.43856 -2.8717 0
M  V30 1396 C 129.693 4.0834 -1.1601 0
M  V30 1397 C 127.6 4.85482 -3.3773 0
M  V30 1398 H 126.53 0.695122 -0.292098 0
M  V30 1399 H 129.181 1.30219 -1.29287 0
M  V30 1400 H 127.563 3.88043 -0.789864 0
M  V30 1401 H 128.737 2.98961 -3.50655 0
M  V30 1402 H 127.052 2.81998 -3.06376 0
M  V30 1403 H 129.649 5.12859 -1.51262 0
M  V30 1404 H 129.992 4.16182 -0.0991007 0
M  V30 1405 H 130.525 3.59603 -1.70089 0
M  V30 1406 H 127.264 4.82823 -4.43353 0
M  V30 1407 H 126.784 5.30961 -2.78999 0
M  V30 1408 H 128.463 5.54335 -3.33648 0
M  V30 1409 N 128.595 0.856903 1.32268 0
M  V30 1410 C 130.011 0.547061 1.49931 0
M  V30 1411 C 130.211 -0.921781 1.7918 0
M  V30 1412 O 129.267 -1.70469 1.8627 0
M  V30 1413 C 130.58 1.43599 2.64196 0
M  V30 1414 C 132.128 1.43665 2.78081 0
M  V30 1415 C 132.603 2.31085 3.95428 0
M  V30 1416 N 134.094 2.28893 4.02694 0
M  V30 1417 C 134.829 2.93262 4.92732 0
M  V30 1418 N 134.325 3.66751 5.87763 0
M  V30 1419 N 136.118 2.82638 4.85873 0
M  V30 1420 H 128.269 1.8075 1.11549 0
M  V30 1421 H 130.532 0.772144 0.549997 0
M  V30 1422 H 130.238 2.48058 2.49319 0
M  V30 1423 H 130.112 1.12502 3.60032 0
M  V30 1424 H 132.499 0.399701 2.92381 0
M  V30 1425 H 132.58 1.7878 1.82952 0
M  V30 1426 H 132.224 3.34849 3.81888 0
M  V30 1427 H 132.154 1.93302 4.89839 0
M  V30 1428 H 134.645 1.75466 3.34694 0
M  V30 1429 H 134.958 4.13027 6.53168 0
M  V30 1430 H 133.303 3.70859 5.87783 0
M  V30 1431 H 136.494 2.24774 4.10602 0
M  V30 1432 H 136.667 3.33084 5.55841 0
M  V30 1433 N 130.073 -1.45103 0.615059 0
M  V30 1434 C 131.02 -2.30586 -0.0993978 0
M  V30 1435 C 131.99 -1.42544 -0.852669 0
M  V30 1436 O 133.175 -1.71465 -0.836917 0
M  V30 1437 C 130.315 -3.27572 -1.08583 0
M  V30 1438 C 129.428 -4.30717 -0.332656 0
M  V30 1439 C 128.563 -5.14807 -1.30947 0
M  V30 1440 C 127.602 -6.09673 -0.544538 0
M  V30 1441 N 126.739 -6.86517 -1.47101 0
M  V30 1442 H 131.579 -2.91144 0.635542 0
M  V30 1443 H 129.116 -1.4346 0.325206 0
M  V30 1444 H 131.074 -3.82276 -1.67095 0
M  V30 1445 H 129.704 -2.68751 -1.78809 0
M  V30 1446 H 128.756 -3.78615 0.368107 0
M  V30 1447 H 130.068 -4.98102 0.263842 0
M  V30 1448 H 129.222 -5.73948 -1.96643 0
M  V30 1449 H 127.961 -4.47458 -1.9399 0
M  V30 1450 H 126.966 -5.49656 0.126003 0
M  V30 1451 H 128.191 -6.79052 0.080947 0
M  V30 1452 H 126.137 -6.21851 -2.08895 0
M  V30 1453 H 126.054 -7.50281 -0.928137 0
M  V30 1454 H 127.322 -7.50194 -2.11731 0
M  V30 1455 N 131.551 -0.354651 -1.53558 0
M  V30 1456 C 132.498 0.496968 -2.25386 0
M  V30 1457 C 133.468 1.0865 -1.25636 0
M  V30 1458 O 134.653 1.12104 -1.54394 0
M  V30 1459 C 131.793 1.63637 -3.03837 0
M  V30 1460 C 130.906 1.07307 -4.18461 0
M  V30 1461 C 130.041 2.18068 -4.84376 0
M  V30 1462 C 129.08 1.59147 -5.91049 0
M  V30 1463 N 128.217 2.63695 -6.50699 0
M  V30 1464 H 133.057 -0.122075 -2.9775 0
M  V30 1465 H 130.594 -0.0720154 -1.46924 0
M  V30 1466 H 132.552 2.30734 -3.47589 0
M  V30 1467 H 131.182 2.22623 -2.33749 0
M  V30 1468 H 130.234 0.292708 -3.79272 0
M  V30 1469 H 131.546 0.602193 -4.95152 0
M  V30 1470 H 130.7 2.93007 -5.31255 0
M  V30 1471 H 129.439 2.68504 -4.07133 0
M  V30 1472 H 128.444 0.827175 -5.43542 0
M  V30 1473 H 129.669 1.09549 -6.70206 0
M  V30 1474 H 127.615 3.13365 -5.76315 0
M  V30 1475 H 127.532 2.21263 -7.22896 0
M  V30 1476 H 128.8 3.3837 -7.02229 0
M  V30 1477 N 133.029 1.57378 -0.0835403 0
M  V30 1478 C 133.976 2.13384 0.879539 0
M  V30 1479 C 134.946 1.04936 1.28754 0
M  V30 1480 O 136.131 1.32662 1.37133 0
M  V30 1481 C 133.271 2.70932 2.13752 0
M  V30 1482 C 132.384 3.93575 1.7811 0
M  V30 1483 C 131.519 4.39326 2.98607 0
M  V30 1484 C 130.558 5.54587 2.59037 0
M  V30 1485 N 129.695 5.95243 3.72331 0
M  V30 1486 H 134.535 2.9537 0.395076 0
M  V30 1487 H 132.072 1.45953 0.183349 0
M  V30 1488 H 134.03 3.02411 2.87408 0
M  V30 1489 H 132.66 1.91693 2.59718 0
M  V30 1490 H 131.712 3.68483 0.94469 0
M  V30 1491 H 133.024 4.77258 1.45005 0
M  V30 1492 H 132.178 4.72528 3.80529 0
M  V30 1493 H 130.917 3.5452 3.34913 0
M  V30 1494 H 129.922 5.21024 1.75539 0
M  V30 1495 H 131.147 6.41133 2.23887 0
M  V30 1496 H 129.093 5.13385 4.08378 0
M  V30 1497 H 129.01 6.73694 3.43034 0
M  V30 1498 H 130.278 6.33072 4.54797 0
M  V30 1499 N 134.507 -0.190092 1.56449 0
M  V30 1500 C 135.784 -0.935886 1.71757 0
M  V30 1501 C 136.164 -2.01173 0.639726 0
M  V30 1502 O 135.512 -2.25827 -0.348502 0
M  V30 1503 C 135.722 -1.51775 3.1427 0
M  V30 1504 C 137.07 -1.99794 3.74656 0
M  V30 1505 O 138.094 -1.61607 3.1743 0
M  V30 1506 O 136.953 -2.70079 4.751 0
M  V30 1507 H 134.047 -0.439229 0.700719 0
M  V30 1508 H 136.593 -0.179395 1.68749 0
M  V30 1509 H 135.365 -0.742505 3.84191 0
M  V30 1510 H 134.988 -2.33894 3.21527 0
M  V30 1511 N 135.985 -1.50799 -0.457987 0
M  V30 1512 C 136.915 -1.73553 -1.5621 0
M  V30 1513 C 137.896 -0.584774 -1.59732 0
M  V30 1514 O 139.081 -0.825314 -1.7579 0
M  V30 1515 C 136.211 -1.84169 -2.94447 0
M  V30 1516 C 135.165 -2.99461 -3.0579 0
M  V30 1517 C 134.491 -2.95235 -4.45803 0
M  V30 1518 C 135.791 -4.39766 -2.81786 0
M  V30 1519 H 137.485 -2.66 -1.37421 0
M  V30 1520 H 135.031 -1.28002 -0.659662 0
M  V30 1521 H 136.984 -1.98672 -3.71628 0
M  V30 1522 H 135.708 -0.883545 -3.14422 0
M  V30 1523 H 134.367 -2.8463 -2.31044 0
M  V30 1524 H 134.015 -1.97239 -4.62715 0
M  V30 1525 H 133.715 -3.72642 -4.54326 0
M  V30 1526 H 135.239 -3.11803 -5.24987 0
M  V30 1527 H 136.653 -4.55054 -3.4871 0
M  V30 1528 H 135.05 -5.18722 -3.0174 0
M  V30 1529 H 136.12 -4.51229 -1.7754 0
M  V30 1530 N 137.463 0.71206 -1.40597 0
M  V30 1531 C 138.41 1.82613 -1.41142 0
M  V30 1532 C 139.38 1.63925 -0.267903 0
M  V30 1533 O 140.565 1.85009 -0.466495 0
M  V30 1534 C 137.705 3.20354 -1.28324 0
M  V30 1535 C 136.818 3.50589 -2.52411 0
M  V30 1536 C 135.953 4.77855 -2.32009 0
M  V30 1537 C 134.992 5.01005 -3.51654 0
M  V30 1538 N 134.129 6.19487 -3.30425 0
M  V30 1539 H 138.969 1.81482 -2.36365 0
M  V30 1540 H 136.506 0.886475 -1.17388 0
M  V30 1541 H 138.464 3.99899 -1.18899 0
M  V30 1542 H 137.094 3.20705 -0.367189 0
M  V30 1543 H 136.146 2.65573 -2.72351 0
M  V30 1544 H 137.458 3.63604 -3.41458 0
M  V30 1545 H 136.612 5.65424 -2.19956 0
M  V30 1546 H 135.351 4.67056 -1.40392 0
M  V30 1547 H 134.356 4.1189 -3.64179 0
M  V30 1548 H 135.581 5.13674 -4.44202 0
M  V30 1549 H 133.527 6.09932 -2.41494 0
M  V30 1550 H 133.444 6.33194 -4.13039 0
M  V30 1551 H 134.712 7.09834 -3.22113 0
M  V30 1552 N 138.941 1.26152 0.944643 0
M  V30 1553 C 140.19 1.10883 1.68487 0
M  V30 1554 C 140.503 -0.348153 1.92477 0
M  V30 1555 O 141.709 -0.621459 2.64292 0
M  V30 1556 C 140.165 1.93624 3.03377 0
M  V30 1557 C 139.773 3.43875 2.87148 0
M  V30 1558 C 141.517 1.86954 3.81115 0
M  V30 1559 C 139.424 4.18875 4.1749 0
M  V30 1560 H 138.354 0.41135 0.631907 0
M  V30 1561 H 141.005 1.50433 1.05082 0
M  V30 1562 H 139.387 1.46904 3.67743 0
M  V30 1563 H 140.561 3.98338 2.31653 0
M  V30 1564 H 138.876 3.51744 2.22856 0
M  V30 1565 H 141.473 2.40275 4.77673 0
M  V30 1566 H 141.816 0.839518 4.07747 0
M  V30 1567 H 142.349 2.31477 3.23517 0
M  V30 1568 H 139.088 5.22332 3.96043 0
M  V30 1569 H 138.608 3.69193 4.72712 0
M  V30 1570 H 140.287 4.27134 4.85968 0
M  V30 1571 N 140.419 -1.14872 1.07899 0
M  V30 1572 C 141.835 -1.37776 0.805606 0
M  V30 1573 C 142.035 -1.92743 -0.587555 0
M  V30 1574 O 141.091 -2.13678 -1.34528 0
M  V30 1575 C 142.404 -2.34361 1.88402 0
M  V30 1576 C 143.952 -2.48012 1.90942 0
M  V30 1577 C 144.427 -3.47893 2.97883 0
M  V30 1578 N 145.918 -3.55433 2.97021 0
M  V30 1579 C 146.653 -4.32553 3.76412 0
M  V30 1580 N 146.149 -5.12959 4.65666 0
M  V30 1581 N 147.942 -4.27697 3.64735 0
M  V30 1582 H 140.093 -0.775365 1.97742 0
M  V30 1583 H 142.356 -0.403521 0.857831 0
M  V30 1584 H 142.062 -2.01098 2.88535 0
M  V30 1585 H 141.936 -3.34206 1.74889 0
M  V30 1586 H 144.323 -2.8057 0.914579 0
M  V30 1587 H 144.404 -1.48147 2.08534 0
M  V30 1588 H 144.048 -3.16069 3.97571 0
M  V30 1589 H 143.978 -4.47527 2.77538 0
M  V30 1590 H 146.469 -2.98048 2.32326 0
M  V30 1591 H 146.782 -5.69065 5.22862 0
M  V30 1592 H 145.127 -5.12245 4.69712 0
M  V30 1593 H 148.318 -3.63949 2.94378 0
M  V30 1594 H 148.491 -4.8755 4.26848 0
M  V30 1595 N 141.898 -0.863906 -1.31812 0
M  V30 1596 C 142.845 -0.313303 -2.28664 0
M  V30 1597 C 143.815 0.584868 -1.55462 0
M  V30 1598 O 145 0.517805 -1.83639 0
M  V30 1599 C 142.14 0.48441 -3.41683 0
M  V30 1600 C 141.253 -0.440594 -4.29747 0
M  V30 1601 C 140.388 0.370652 -5.29905 0
M  V30 1602 C 139.427 -0.551164 -6.09613 0
M  V30 1603 N 138.564 0.223462 -7.01744 0
M  V30 1604 H 143.404 -1.14444 -2.75148 0
M  V30 1605 H 140.941 -0.575769 -1.35364 0
M  V30 1606 H 142.899 0.962627 -4.05943 0
M  V30 1607 H 141.529 1.28029 -2.96325 0
M  V30 1608 H 140.581 -1.03724 -3.65986 0
M  V30 1609 H 141.893 -1.14767 -4.85417 0
M  V30 1610 H 141.047 0.911638 -5.99812 0
M  V30 1611 H 139.786 1.11105 -4.74876 0
M  V30 1612 H 138.791 -1.10396 -5.38603 0
M  V30 1613 H 140.016 -1.29032 -6.66729 0
M  V30 1614 H 137.962 0.946787 -6.49132 0
M  V30 1615 H 137.879 -0.424399 -7.54808 0
M  V30 1616 H 139.147 0.745876 -7.75923 0
M  V30 1617 N 143.376 1.44774 -0.622745 0
M  V30 1618 C 144.323 2.30635 0.0871679 0
M  V30 1619 C 145.293 1.42994 0.845097 0
M  V30 1620 O 146.478 1.71907 0.827812 0
M  V30 1621 C 143.618 3.28144 1.06844 0
M  V30 1622 C 142.731 4.30888 0.309809 0
M  V30 1623 C 141.866 5.15494 1.28215 0
M  V30 1624 C 140.905 6.09953 0.512198 0
M  V30 1625 N 140.042 6.87287 1.43458 0
M  V30 1626 H 144.882 2.90803 -0.650974 0
M  V30 1627 H 142.419 1.43286 -0.33281 0
M  V30 1628 H 144.377 3.83157 1.65066 0
M  V30 1629 H 143.007 2.69695 1.77382 0
M  V30 1630 H 142.059 3.78414 -0.388181 0
M  V30 1631 H 143.371 4.97955 -0.290254 0
M  V30 1632 H 142.525 5.74983 1.93596 0
M  V30 1633 H 141.264 4.48481 1.91614 0
M  V30 1634 H 140.269 5.49581 -0.155151 0
M  V30 1635 H 141.494 6.78999 -0.116958 0
M  V30 1636 H 139.44 6.2295 2.05594 0
M  V30 1637 H 139.357 7.50763 0.888335 0
M  V30 1638 H 140.625 7.51306 2.07749 0
M  V30 1639 O 144.893 0.504988 1.53402 0
M  V30 1640 H 145.584 -0.0115839 1.93697 0
M  V30 END ATOM
M  V30 BEGIN BOND
M  V30 END BOND
M  V30 END CTAB
M  END
$$$$
