drugbank_target|Q99572 P2X purinoceptor 7 (DB01069)
 OpenBabel12092121213D

  0  0  0     0  0            999 V3000
M  V30 BEGIN CTAB
M  V30 COUNTS 9572 9699 0 0 0
M  V30 BEGIN ATOM
M  V30 1 H -0.908 1.98254 -0.117106 0
M  V30 2 N 0 1.576 0 0
M  V30 3 C 0.933 2.03868 1.02534 0
M  V30 4 C 1.911 0.928543 1.3348 0
M  V30 5 O 3.095 1.19667 1.45644 0
M  V30 6 C 0.222 2.43627 2.35294 0
M  V30 7 C -0.732 3.65373 2.2001 0
M  V30 8 S 0.101 5.13292 1.52614 0
M  V30 9 C 1.257 5.56322 2.86805 0
M  V30 10 H 1.49 2.90518 0.631377 0
M  V30 11 H -0.977 1.52953 0.210867 0
M  V30 12 H 0.981 2.67203 3.11629 0
M  V30 13 H -0.358 1.57376 2.7183 0
M  V30 14 H -1.165 3.90944 3.18086 0
M  V30 15 H -1.563 3.418 1.51819 0
M  V30 16 H 0.729 5.58782 3.83104 0
M  V30 17 H 1.672 6.56266 2.65933 0
M  V30 18 H 2.08 4.83886 2.90714 0
M  V30 19 N 1.4781 -0.272755 1.55222 0
M  V30 20 C 2.8891 -0.84378 1.66545 0
M  V30 21 C 3.2401 -1.87035 0.592641 0
M  V30 22 O 2.3651 -2.14761 -0.265818 0
M  V30 23 C 2.9601 -1.53723 3.01918 0
M  V30 24 C 1.5191 -2.05628 3.15268 0
M  V30 25 C 0.6661 -0.898424 2.62343 0
M  V30 26 H 3.6171 -0.0490998 1.58624 0
M  V30 27 H 3.6381 -2.40421 2.94921 0
M  V30 28 H 3.1501 -0.78983 3.79978 0
M  V30 29 H 1.2511 -2.83329 2.41983 0
M  V30 30 H 1.3641 -2.27142 4.21833 0
M  V30 31 H -0.2719 -1.29186 2.19506 0
M  V30 32 H 0.5111 -0.164528 3.42906 0
M  V30 33 N 2.9562 -1.48159 -0.537278 0
M  V30 34 C 3.9192 -1.61665 -1.62472 0
M  V30 35 C 4.9192 -0.490395 -1.5314 0
M  V30 36 O 6.1092 -0.755998 -1.5694 0
M  V30 37 C 3.2412 -1.57997 -3.02076 0
M  V30 38 H 4.4342 -2.58621 -1.51839 0
M  V30 39 H 1.9872 -1.36647 -0.758771 0
M  V30 40 H 2.7222 -0.624913 -3.18222 0
M  V30 41 H 2.5072 -2.39755 -3.10258 0
M  V30 42 H 3.9972 -1.70627 -3.81151 0
M  V30 43 N 4.4343 0.785586 -1.36625 0
M  V30 44 C 5.6743 1.55678 -1.32453 0
M  V30 45 C 6.0383 1.91769 0.0941089 0
M  V30 46 O 7.2393 2.67536 0.26042 0
M  V30 47 C 5.5103 2.79701 -2.22491 0
M  V30 48 S 7.0693 3.69907 -2.36038 0
M  V30 49 H 3.8873 0.533141 -0.470405 0
M  V30 50 H 6.4893 0.924953 -1.72235 0
M  V30 51 H 5.1933 2.51244 -3.24507 0
M  V30 52 H 4.7243 3.47854 -1.83742 0
M  V30 53 H 6.7393 4.71016 -1.56072 0
M  V30 54 N 5.9124 1.20967 1.01018 0
M  V30 55 C 7.1524 1.03511 1.76252 0
M  V30 56 C 7.5164 -0.42458 1.87247 0
M  V30 57 O 8.7174 -0.719508 2.58991 0
M  V30 58 C 6.9884 1.70726 3.13986 0
M  V30 59 S 8.5474 1.68458 4.05176 0
M  V30 60 H 5.3654 0.371037 0.606508 0
M  V30 61 H 7.9674 1.53628 1.20908 0
M  V30 62 H 6.6714 2.76128 3.03614 0
M  V30 63 H 6.2024 1.20767 3.74405 0
M  V30 64 H 8.2174 0.721987 4.90919 0
M  V30 65 N 7.3905 -1.2043 1.01659 0
M  V30 66 C 8.6155 -1.94318 0.724942 0
M  V30 67 C 9.0405 -1.74266 -0.708034 0
M  V30 68 O 8.3985 -1.03694 -1.48719 0
M  V30 69 C 8.4465 -3.44486 1.06591 0
M  V30 70 O 7.5505 -4.12017 0.177599 0
M  V30 71 H 6.8915 -0.60708 0.26898 0
M  V30 72 H 9.4215 -1.52861 1.35995 0
M  V30 73 H 9.4315 -3.95106 1.01762 0
M  V30 74 H 8.1065 -3.58404 2.10997 0
M  V30 75 H 6.6835 -3.71821 0.283421 0
M  V30 76 N 8.8686 -0.792821 -1.36206 0
M  V30 77 C 10.1086 -0.372238 -2.00982 0
M  V30 78 C 10.4726 1.03749 -1.61555 0
M  V30 79 O 11.6736 1.55934 -2.18948 0
M  V30 80 C 9.9446 -0.534566 -3.5338 0
M  V30 81 S 11.5036 -0.202365 -4.38333 0
M  V30 82 H 8.3216 -0.142044 -0.696667 0
M  V30 83 H 10.9236 -1.03206 -1.66039 0
M  V30 84 H 9.6276 -1.5608 -3.79562 0
M  V30 85 H 9.1586 0.141065 -3.93147 0
M  V30 86 H 11.1736 0.994869 -4.86124 0
M  V30 87 N 10.3467 1.47872 -0.545128 0
M  V30 88 C 11.5717 2.07391 -0.0190611 0
M  V30 89 C 11.9967 1.39688 1.25971 0
M  V30 90 O 11.3547 0.467816 1.7516 0
M  V30 91 C 11.4027 3.60188 0.172335 0
M  V30 92 O 10.5067 3.9339 1.23766 0
M  V30 93 H 9.8477 0.662411 -0.0459059 0
M  V30 94 H 12.3777 1.90066 -0.757365 0
M  V30 95 H 12.3877 4.06129 0.390305 0
M  V30 96 H 11.0627 4.08865 -0.761725 0
M  V30 97 H 9.6397 3.5921 1.00114 0
M  V30 98 N 11.8248 0.280983 1.55075 0
M  V30 99 C 13.1018 -0.386207 1.91749 0
M  V30 100 C 13.4818 -1.73264 1.20594 0
M  V30 101 O 12.8298 -2.26034 0.334784 0
M  V30 102 C 13.0398 -0.520687 3.45094 0
M  V30 103 C 14.3878 -0.800865 4.16979 0
M  V30 104 O 15.4118 -0.605271 3.5102 0
M  V30 105 O 14.2708 -1.1753 5.33712 0
M  V30 106 H 11.3648 -0.212408 0.799257 0
M  V30 107 H 13.9108 0.327568 1.66509 0
M  V30 108 H 12.6828 0.426633 3.88967 0
M  V30 109 H 12.3058 -1.2837 3.76307 0
M  V30 110 N 13.3029 -1.57598 0.00835791 0
M  V30 111 C 14.5489 -1.91211 -0.675732 0
M  V30 112 C 14.8819 -0.883139 -1.72958 0
M  V30 113 O 14.1569 0.097016 -1.94258 0
M  V30 114 C 14.4399 -3.35379 -1.31123 0
M  V30 115 C 14.2929 -4.48999 -0.268356 0
M  V30 116 C 15.6119 -3.7912 -2.23508 0
M  V30 117 H 12.7309 -0.695374 -0.244179 0
M  V30 118 H 15.3729 -1.89901 0.0613655 0
M  V30 119 H 13.5229 -3.36626 -1.93946 0
M  V30 120 H 15.1949 -4.59887 0.360844 0
M  V30 121 H 13.4379 -4.31873 0.408482 0
M  V30 122 H 14.1089 -5.46851 -0.752218 0
M  V30 123 H 16.5849 -3.79477 -1.70693 0
M  V30 124 H 15.4609 -4.80729 -2.64936 0
M  V30 125 H 15.7219 -3.13455 -3.11766 0
M  V30 126 N 14.781 0.264519 -1.55364 0
M  V30 127 C 16.028 0.994986 -1.7637 0
M  V30 128 C 16.356 1.85976 -0.5695 0
M  V30 129 O 15.611 1.90509 0.44776 0
M  V30 130 C 15.91 1.9004 -3.02687 0
M  V30 131 C 15.576 1.19243 -4.34847 0
M  V30 132 C 14.238 0.996709 -4.70764 0
M  V30 133 C 16.59 0.689296 -5.16622 0
M  V30 134 C 13.918 0.285261 -5.86006 0
M  V30 135 C 16.27 -0.00860079 -6.32599 0
M  V30 136 C 14.934 -0.215963 -6.67151 0
M  V30 137 H 14.204 0.364091 -0.645383 0
M  V30 138 H 16.851 0.266543 -1.89636 0
M  V30 139 H 15.156 2.69533 -2.84357 0
M  V30 140 H 16.853 2.46695 -3.16137 0
M  V30 141 H 13.443 1.3549 -4.06621 0
M  V30 142 H 17.627 0.828108 -4.89342 0
M  V30 143 H 12.883 0.113961 -6.11294 0
M  V30 144 H 17.057 -0.406186 -6.95214 0
M  V30 145 H 14.684 -0.769217 -7.56298 0
M  V30 146 N 16.2591 1.48442 0.529413 0
M  V30 147 C 17.1911 1.59095 1.64989 0
M  V30 148 C 18.2041 0.475212 1.5571 0
M  V30 149 O 19.3931 0.746081 1.6216 0
M  V30 150 C 16.4931 1.50518 3.0364 0
M  V30 151 C 15.6661 2.77142 3.38395 0
M  V30 152 C 14.7251 2.62012 4.56329 0
M  V30 153 O 13.7511 3.35898 4.59522 0
M  V30 154 N 14.9531 1.71667 5.54536 0
M  V30 155 H 17.7181 2.55723 1.56287 0
M  V30 156 H 15.2791 1.45173 0.716697 0
M  V30 157 H 17.2711 1.38091 3.80412 0
M  V30 158 H 15.8411 0.618627 3.06418 0
M  V30 159 H 15.0611 3.0413 2.50796 0
M  V30 160 H 16.3491 3.61146 3.58401 0
M  V30 161 H 15.7471 1.10841 5.54735 0
M  V30 162 H 14.3041 1.65178 6.30523 0
M  V30 163 N 17.7372 -0.778329 1.37039 0
M  V30 164 C 18.9672 -1.56507 1.34868 0
M  V30 165 C 19.3752 -1.89072 -0.0694802 0
M  V30 166 O 18.7182 -1.51434 -1.03987 0
M  V30 167 C 18.7802 -2.90641 2.11585 0
M  V30 168 C 18.4442 -2.80746 3.60598 0
M  V30 169 C 19.4412 -2.52226 4.54618 0
M  V30 170 C 17.1262 -2.98974 4.03633 0
M  V30 171 C 19.1202 -2.42054 5.89651 0
M  V30 172 C 16.8072 -2.88423 5.38754 0
M  V30 173 C 17.8052 -2.60002 6.31576 0
M  V30 174 O 17.4932 -2.49465 7.64214 0
M  V30 175 H 17.2252 -0.491723 0.463879 0
M  V30 176 H 19.7792 -0.973053 1.80889 0
M  V30 177 H 18.0092 -3.51936 1.60243 0
M  V30 178 H 19.6982 -3.51992 2.0213 0
M  V30 179 H 20.4642 -2.37835 4.22681 0
M  V30 180 H 16.3432 -3.20099 3.31749 0
M  V30 181 H 19.8872 -2.19791 6.62071 0
M  V30 182 H 15.7842 -3.0238 5.70295 0
M  V30 183 H 16.5522 -2.64864 7.74461 0
M  V30 184 N 19.2153 -1.21501 -1.00376 0
M  V30 185 C 20.1253 -0.991447 -2.12621 0
M  V30 186 C 21.1413 0.0568446 -1.73907 0
M  V30 187 O 22.3173 -0.13348 -2.00957 0
M  V30 188 C 19.3823 -0.560312 -3.42142 0
M  V30 189 C 18.4433 -1.68096 -3.95022 0
M  V30 190 C 17.6763 -1.2703 -5.18362 0
M  V30 191 O 17.8993 -0.144438 -5.70217 0
M  V30 192 O 16.8333 -2.08269 -5.64719 0
M  V30 193 H 20.6593 -1.93158 -2.34358 0
M  V30 194 H 18.2443 -0.999999 -1.10997 0
M  V30 195 H 20.1263 -0.329724 -4.20108 0
M  V30 196 H 18.8013 0.351089 -3.2179 0
M  V30 197 H 17.7083 -1.96597 -3.18278 0
M  V30 198 H 19.0413 -2.56983 -4.19786 0
M  V30 199 N 20.6934 1.19889 -1.02296 0
M  V30 200 C 21.9214 1.9339 -0.735399 0
M  V30 201 C 22.3364 1.75148 0.704887 0
M  V30 202 O 21.6934 1.06954 1.47875 0
M  V30 203 C 21.7444 3.45313 -1.06962 0
M  V30 204 O 21.4654 3.62964 -2.45334 0
M  V30 205 C 22.9664 4.35948 -0.804021 0
M  V30 206 H 20.1864 0.61448 -0.269546 0
M  V30 207 H 22.7304 1.522 -1.36585 0
M  V30 208 H 20.8854 3.84359 -0.484455 0
M  V30 209 H 21.2994 4.56886 -2.57595 0
M  V30 210 H 22.7734 5.41174 -1.0879 0
M  V30 211 H 23.2504 4.3842 0.261691 0
M  V30 212 H 23.8564 4.02574 -1.37164 0
M  V30 213 N 22.1715 0.800033 1.35784 0
M  V30 214 C 23.1195 0.193851 2.31791 0
M  V30 215 C 24.1135 -0.652744 1.56319 0
M  V30 216 O 25.3195 -0.546641 1.71499 0
M  V30 217 H 21.6945 0.04392 0.750716 0
M  V30 218 H 23.6655 1.01883 2.80468 0
M  V30 219 C 22.4145 -0.648338 3.41602 0
M  V30 220 H 21.7375 -0.00624665 3.998 0
M  V30 221 H 23.1775 -1.03898 4.11073 0
M  V30 222 C 21.6365 -1.8111 2.84079 0
M  V30 223 O 22.1665 -2.90825 2.77099 0
M  V30 224 N 20.3725 -1.62056 2.41218 0
M  V30 225 H 19.9195 -0.728123 2.47095 0
M  V30 226 H 19.8775 -2.40013 2.03079 0
M  V30 227 N 23.6496 -1.47581 0.552962 0
M  V30 228 C 24.5966 -2.29957 -0.197108 0
M  V30 229 C 25.5666 -1.38799 -0.912359 0
M  V30 230 O 26.7516 -1.67761 -0.908888 0
M  V30 231 C 23.8916 -3.22672 -1.22379 0
M  V30 232 C 23.0046 -4.28919 -0.515038 0
M  V30 233 C 22.1396 -5.0879 -1.52664 0
M  V30 234 C 21.1786 -6.06815 -0.802631 0
M  V30 235 N 20.3156 -6.7966 -1.76086 0
M  V30 236 H 25.1556 -2.93578 0.511486 0
M  V30 237 H 22.6926 -1.4471 0.264067 0
M  V30 238 H 24.6506 -3.74845 -1.83159 0
M  V30 239 H 23.2806 -2.60925 -1.90047 0
M  V30 240 H 22.3326 -3.79835 0.207192 0
M  V30 241 H 23.6446 -4.98773 0.0523425 0
M  V30 242 H 22.7986 -5.65091 -2.20809 0
M  V30 243 H 21.5376 -4.38828 -2.12794 0
M  V30 244 H 20.5426 -5.49695 -0.107238 0
M  V30 245 H 21.7676 -6.78784 -0.207135 0
M  V30 246 H 19.7136 -6.12432 -2.35081 0
M  V30 247 H 19.6306 -7.45669 -1.24552 0
M  V30 248 H 20.8986 -7.40538 -2.43359 0
M  V30 249 N 25.1277 -0.289203 -1.54924 0
M  V30 250 C 26.3737 0.323998 -2.00195 0
M  V30 251 C 26.7067 1.54441 -1.17735 0
M  V30 252 O 25.9817 1.92875 -0.250878 0
M  V30 253 C 26.2647 0.692276 -3.53383 0
M  V30 254 C 26.1177 -0.536457 -4.46589 0
M  V30 255 C 27.4367 1.52335 -4.12895 0
M  V30 256 H 24.5557 0.116289 -0.727768 0
M  V30 257 H 27.1977 -0.398954 -1.85764 0
M  V30 258 H 25.3477 1.30822 -3.65811 0
M  V30 259 H 27.0197 -1.17499 -4.46085 0
M  V30 260 H 25.2627 -1.17192 -4.1767 0
M  V30 261 H 25.9337 -0.234806 -5.515 0
M  V30 262 H 28.4097 1.00302 -4.0383 0
M  V30 263 H 27.2857 1.74982 -5.20262 0
M  V30 264 H 27.5467 2.50886 -3.64018 0
M  V30 265 N 26.6058 1.57591 -0.0167156 0
M  V30 266 C 27.8338 1.95575 0.675128 0
M  V30 267 C 28.2488 0.892542 1.6637 0
M  V30 268 O 27.6058 -0.126912 1.82058 0
M  V30 269 C 27.6568 3.33608 1.39239 0
M  V30 270 O 27.3778 4.3585 0.443444 0
M  V30 271 C 28.8788 3.86151 2.17721 0
M  V30 272 H 26.0988 0.644423 0.186978 0
M  V30 273 H 28.6428 2.0437 -0.0728 0
M  V30 274 H 26.7978 3.2607 2.09182 0
M  V30 275 H 27.2118 5.158 0.951358 0
M  V30 276 H 28.6858 4.85114 2.63379 0
M  V30 277 H 29.1628 3.19738 3.01105 0
M  V30 278 H 29.7688 3.96918 1.52761 0
M  V30 279 N 28.0839 -0.256276 1.55502 0
M  V30 280 C 29.4999 -0.604325 1.47716 0
M  V30 281 C 29.6999 -1.88763 0.705039 0
M  V30 282 O 28.7559 -2.51445 0.230613 0
M  V30 283 C 30.0689 -0.715756 2.92057 0
M  V30 284 C 31.6169 -0.808706 3.02372 0
M  V30 285 C 32.0919 -0.951777 4.48001 0
M  V30 286 N 33.5829 -1.01688 4.519 0
M  V30 287 C 34.3179 -1.14668 5.61817 0
M  V30 288 N 33.8139 -1.24261 6.81565 0
M  V30 289 N 35.6069 -1.1791 5.49594 0
M  V30 290 H 27.7579 0.586291 2.04148 0
M  V30 291 H 30.0209 0.201015 0.926443 0
M  V30 292 H 29.7269 0.157027 3.51349 0
M  V30 293 H 29.6009 -1.59071 3.42018 0
M  V30 294 H 31.9879 -1.67195 2.43166 0
M  V30 295 H 32.0689 0.0912063 2.55637 0
M  V30 296 H 31.7129 -0.0931291 5.07815 0
M  V30 297 H 31.6429 -1.86659 4.92408 0
M  V30 298 H 34.1339 -0.954468 3.65648 0
M  V30 299 H 34.4469 -1.34046 7.61086 0
M  V30 300 H 32.7919 -1.21236 6.84344 0
M  V30 301 H 35.9829 -1.10057 4.54978 0
M  V30 302 H 36.1559 -1.27681 6.35296 0
M  V30 303 N 29.562 -1.4872 -0.521534 0
M  V30 304 C 30.811 -1.56419 -1.27341 0
M  V30 305 C 31.124 -0.246805 -1.94037 0
M  V30 306 O 32.33 -0.202122 -2.70747 0
M  V30 307 C 30.786 -2.75896 -2.31105 0
M  V30 308 C 30.394 -4.14311 -1.70441 0
M  V30 309 C 32.138 -2.92913 -3.07249 0
M  V30 310 C 30.045 -5.25038 -2.72194 0
M  V30 311 H 28.975 -0.582344 -0.478949 0
M  V30 312 H 31.626 -1.75071 -0.549779 0
M  V30 313 H 30.008 -2.50697 -3.06541 0
M  V30 314 H 31.182 -4.49564 -1.01136 0
M  V30 315 H 29.497 -4.02482 -1.06759 0
M  V30 316 H 32.094 -3.72805 -3.83302 0
M  V30 317 H 32.437 -2.02689 -3.63625 0
M  V30 318 H 32.97 -3.18054 -2.38928 0
M  V30 319 H 29.709 -6.17255 -2.20627 0
M  V30 320 H 29.229 -4.94263 -3.39801 0
M  V30 321 H 30.908 -5.53508 -3.35019 0
M  V30 322 N 31.0401 0.771051 -1.3745 0
M  V30 323 C 31.9721 1.89352 -1.29146 0
M  V30 324 C 32.9851 1.61477 -0.207124 0
M  V30 325 O 34.1741 1.72382 -0.463324 0
M  V30 326 C 31.2741 3.24596 -0.974195 0
M  V30 327 C 30.4471 3.80111 -2.16413 0
M  V30 328 C 29.5061 4.93832 -1.81703 0
M  V30 329 O 28.5321 5.09382 -2.54006 0
M  V30 330 N 29.7341 5.75483 -0.761573 0
M  V30 331 H 32.4991 1.96991 -2.25864 0
M  V30 332 H 30.0601 0.950191 -1.31084 0
M  V30 333 H 32.0521 3.98193 -0.722828 0
M  V30 334 H 30.6221 3.12454 -0.0955527 0
M  V30 335 H 29.8421 2.98284 -2.57721 0
M  V30 336 H 31.1301 4.13932 -2.95867 0
M  V30 337 H 30.5281 5.65469 -0.161609 0
M  V30 338 H 29.0851 6.49302 -0.570064 0
M  V30 339 N 32.5182 1.22032 0.997298 0
M  V30 340 C 33.7432 1.06921 1.77715 0
M  V30 341 C 34.1682 -0.376226 1.84299 0
M  V30 342 O 33.5262 -1.27165 1.29223 0
M  V30 343 C 33.5742 1.67996 3.19076 0
M  V30 344 O 32.6782 0.930653 4.01762 0
M  V30 345 H 32.0192 0.375814 0.547412 0
M  V30 346 H 34.5492 1.61737 1.25309 0
M  V30 347 H 34.5592 1.72538 3.69723 0
M  V30 348 H 33.2342 2.73182 3.13599 0
M  V30 349 H 31.8112 0.960917 3.60307 0
M  V30 350 N 33.9963 -1.19345 1.0293 0
M  V30 351 C 34.9293 -2.21347 0.555029 0
M  V30 352 C 35.9073 -1.57492 -0.404351 0
M  V30 353 O 37.0913 -1.85741 -0.321352 0
M  V30 354 C 34.2183 -3.38163 -0.19064 0
M  V30 355 C 33.2643 -4.20375 0.720236 0
M  V30 356 S 34.0973 -4.88371 2.19668 0
M  V30 357 C 35.2533 -6.08597 1.46153 0
M  V30 358 H 35.4863 -2.61235 1.41929 0
M  V30 359 H 33.0193 -1.29598 0.839272 0
M  V30 360 H 34.9773 -4.05871 -0.614724 0
M  V30 361 H 33.6383 -2.9671 -1.03063 0
M  V30 362 H 32.8313 -5.03793 0.14455 0
M  V30 363 H 32.4333 -3.57987 1.08266 0
M  V30 364 H 34.7253 -6.73354 0.748357 0
M  V30 365 H 35.6683 -6.7065 2.27233 0
M  V30 366 H 36.0763 -5.56297 0.958842 0
M  V30 367 N 35.4744 -0.807222 -1.35358 0
M  V30 368 C 36.4224 -0.20614 -2.31685 0
M  V30 369 C 37.4164 0.644445 -1.56663 0
M  V30 370 O 38.6224 0.537538 -1.71786 0
M  V30 371 H 34.9974 -0.0479006 -0.750473 0
M  V30 372 H 36.9684 -1.03369 -2.79924 0
M  V30 373 C 35.7174 0.630212 -3.41941 0
M  V30 374 H 35.0404 -0.0149558 -3.99797 0
M  V30 375 H 36.4804 1.01716 -4.11619 0
M  V30 376 C 34.9394 1.79601 -2.85035 0
M  V30 377 O 35.4694 2.89351 -2.78637 0
M  V30 378 N 33.6754 1.60774 -2.42074 0
M  V30 379 H 33.2224 0.715009 -2.47478 0
M  V30 380 H 33.1804 2.38933 -2.04349 0
M  V30 381 N 36.9525 1.47285 -0.560781 0
M  V30 382 C 38.1825 2.06555 -0.0429638 0
M  V30 383 C 38.5905 1.41339 1.25777 0
M  V30 384 O 37.9335 0.505182 1.76617 0
M  V30 385 C 37.9955 3.58827 0.219887 0
M  V30 386 C 37.6595 4.46105 -0.991944 0
M  V30 387 C 38.6565 4.84 -1.89843 0
M  V30 388 C 36.3415 4.87567 -1.20762 0
M  V30 389 C 38.3355 5.6216 -3.00425 0
M  V30 390 C 36.0225 5.65491 -2.31653 0
M  V30 391 C 37.0205 6.02699 -3.21315 0
M  V30 392 O 36.7085 6.79052 -4.30283 0
M  V30 393 H 36.4405 0.674537 -0.0444468 0
M  V30 394 H 38.9945 1.90225 -0.774818 0
M  V30 395 H 37.2245 3.73383 1.00609 0
M  V30 396 H 38.9135 4.00103 0.683522 0
M  V30 397 H 39.6795 4.52564 -1.74387 0
M  V30 398 H 35.5585 4.5807 -0.518893 0
M  V30 399 H 39.1025 5.9112 -3.70436 0
M  V30 400 H 34.9995 5.9634 -2.47081 0
M  V30 401 H 35.7675 6.9745 -4.28376 0
M  V30 402 N 38.4306 0.297415 1.54768 0
M  V30 403 C 39.6786 -0.312295 1.99673 0
M  V30 404 C 39.9996 -1.54686 1.18732 0
M  V30 405 O 39.2696 -1.93854 0.282382 0
M  V30 406 H 37.8496 -0.118381 0.73756 0
M  V30 407 H 40.5116 0.407915 1.90583 0
M  V30 408 H 39.6076 -0.586813 3.06534 0
M  V30 409 N 39.9087 -1.5758 0.0250728 0
M  V30 410 C 41.1367 -1.9593 -0.664747 0
M  V30 411 C 41.5517 -0.901352 -1.65895 0
M  V30 412 O 40.9087 0.117255 -1.82123 0
M  V30 413 C 40.9597 -3.34342 -1.37468 0
M  V30 414 O 40.6807 -4.36079 -0.420324 0
M  V30 415 C 42.1817 -3.873 -2.1567 0
M  V30 416 H 39.4017 -0.645405 -0.183557 0
M  V30 417 H 41.9457 -2.04329 0.0836372 0
M  V30 418 H 40.1007 -3.27175 -2.0745 0
M  V30 419 H 40.5147 -5.16297 -0.923991 0
M  V30 420 H 41.9887 -4.86504 -2.60803 0
M  V30 421 H 42.4657 -3.21331 -2.99405 0
M  V30 422 H 43.0717 -3.97723 -1.50654 0
M  V30 423 N 41.3868 0.248026 -1.55636 0
M  V30 424 C 42.6358 0.974134 -1.76617 0
M  V30 425 C 42.9488 1.86528 -0.588796 0
M  V30 426 O 44.1548 2.62805 -0.681594 0
M  V30 427 C 42.6108 1.78213 -3.12679 0
M  V30 428 C 42.2188 0.93843 -4.38061 0
M  V30 429 C 43.9628 2.50104 -3.42999 0
M  V30 430 C 41.8698 1.74225 -5.65155 0
M  V30 431 H 40.7998 0.36745 -0.658405 0
M  V30 432 H 43.4508 0.22884 -1.82067 0
M  V30 433 H 41.8328 2.56933 -3.01333 0
M  V30 434 H 43.0068 0.193635 -4.60393 0
M  V30 435 H 41.3218 0.332905 -4.15067 0
M  V30 436 H 43.9188 3.10694 -4.3517 0
M  V30 437 H 44.2618 3.21662 -2.64271 0
M  V30 438 H 44.7948 1.78395 -3.55556 0
M  V30 439 H 41.5338 1.07043 -6.46701 0
M  V30 440 H 41.0538 2.46235 -5.46926 0
M  V30 441 H 42.7328 2.30967 -6.0437 0
M  V30 442 N 42.8649 1.48995 0.513639 0
M  V30 443 C 43.8119 1.6473 1.61656 0
M  V30 444 C 44.7819 0.488984 1.58739 0
M  V30 445 O 45.9669 0.714478 1.76918 0
M  V30 446 C 43.1069 1.7082 2.99858 0
M  V30 447 C 42.2199 2.9787 3.12885 0
M  V30 448 C 41.3549 2.95017 4.41744 0
M  V30 449 C 40.3939 4.16702 4.48359 0
M  V30 450 N 39.5309 4.11832 5.68629 0
M  V30 451 H 44.3709 2.58909 1.47547 0
M  V30 452 H 41.9079 1.28382 0.71808 0
M  V30 453 H 43.8659 1.72331 3.79944 0
M  V30 454 H 42.4959 0.801181 3.12699 0
M  V30 455 H 41.5479 3.06029 2.25944 0
M  V30 456 H 42.8599 3.8786 3.13633 0
M  V30 457 H 42.0139 2.95021 5.30139 0
M  V30 458 H 40.7529 2.02784 4.43542 0
M  V30 459 H 39.7579 4.16955 3.58369 0
M  V30 460 H 40.9829 5.10113 4.48287 0
M  V30 461 H 38.9289 3.22428 5.71293 0
M  V30 462 H 38.8459 4.95543 5.7094 0
M  V30 463 H 40.1139 4.1592 6.59266 0
M  V30 464 N 44.343 -0.763751 1.37857 0
M  V30 465 C 45.589 -1.52396 1.3471 0
M  V30 466 C 45.944 -1.92288 -0.0656435 0
M  V30 467 O 45.237 -1.6181 -1.02606 0
M  V30 468 C 45.431 -2.79499 2.22745 0
M  V30 469 C 45.26 -2.52031 3.72438 0
M  V30 470 C 44.03 -2.45759 4.4151 0
M  V30 471 C 46.228 -2.19489 4.65112 0
M  V30 472 N 44.21 -2.1046 5.76697 0
M  V30 473 C 45.581 -1.94396 5.88736 0
M  V30 474 C 47.636 -2.05712 4.53417 0
M  V30 475 C 46.339 -1.56917 7.01975 0
M  V30 476 C 48.365 -1.69634 5.66549 0
M  V30 477 C 47.727 -1.45407 6.89229 0
M  V30 478 H 43.826 -0.55765 0.548225 0
M  V30 479 H 46.41 -0.890302 1.73152 0
M  V30 480 H 44.581 -3.4069 1.86507 0
M  V30 481 H 46.313 -3.45465 2.10798 0
M  V30 482 H 43.068 -2.61885 3.94605 0
M  V30 483 H 43.492 -1.95484 6.48163 0
M  V30 484 H 48.134 -2.23123 3.59133 0
M  V30 485 H 45.852 -1.38246 7.96187 0
M  V30 486 H 49.438 -1.59621 5.59475 0
M  V30 487 H 48.318 -1.17904 7.75286 0
M  V30 488 N 45.8211 -1.22559 -0.990812 0
M  V30 489 C 47.0681 -1.05141 -1.73065 0
M  V30 490 C 47.3961 0.413191 -1.9006 0
M  V30 491 O 46.6511 1.32257 -1.44245 0
M  V30 492 C 46.9501 -1.71011 -3.13831 0
M  V30 493 C 46.6161 -3.20911 -3.16745 0
M  V30 494 C 45.2781 -3.61812 -3.17247 0
M  V30 495 C 47.6301 -4.16846 -3.12872 0
M  V30 496 C 44.9581 -4.97127 -3.1158 0
M  V30 497 C 47.3101 -5.5214 -3.08746 0
M  V30 498 C 45.9741 -5.92419 -3.07565 0
M  V30 499 H 45.2441 -0.384738 -0.633291 0
M  V30 500 H 47.8911 -1.5235 -1.16025 0
M  V30 501 H 46.1961 -1.16133 -3.74193 0
M  V30 502 H 47.8931 -1.55023 -3.69823 0
M  V30 503 H 44.4831 -2.88344 -3.17105 0
M  V30 504 H 48.6671 -3.86263 -3.11632 0
M  V30 505 H 43.9231 -5.27562 -3.09012 0
M  V30 506 H 48.0971 -6.26201 -3.04705 0
M  V30 507 H 45.7241 -6.97236 -3.02929 0
M  V30 508 N 47.2992 1.18797 -1.03562 0
M  V30 509 C 48.5462 1.8865 -0.736023 0
M  V30 510 C 48.8742 1.80041 0.735889 0
M  V30 511 O 48.1292 1.19179 1.55225 0
M  V30 512 C 48.4282 3.38692 -1.14117 0
M  V30 513 C 48.0942 3.67504 -2.6125 0
M  V30 514 C 46.7562 3.75078 -3.01447 0
M  V30 515 C 49.1082 3.80293 -3.56408 0
M  V30 516 C 46.4362 3.92915 -4.35701 0
M  V30 517 C 48.7882 3.99645 -4.90374 0
M  V30 518 C 47.4522 4.05453 -5.30249 0
M  V30 519 H 46.7222 0.690321 -0.26933 0
M  V30 520 H 49.3692 1.40641 -1.29971 0
M  V30 521 H 47.6742 3.88645 -0.496202 0
M  V30 522 H 49.3712 3.91072 -0.886789 0
M  V30 523 H 45.9612 3.62223 -2.29113 0
M  V30 524 H 50.1452 3.73779 -3.26501 0
M  V30 525 H 45.4012 3.95653 -4.66121 0
M  V30 526 H 49.5752 4.08482 -5.64017 0
M  V30 527 H 47.2022 4.19027 -6.34288 0
M  V30 528 N 48.7773 0.814389 1.34928 0
M  V30 529 C 49.7273 0.202752 2.27097 0
M  V30 530 C 50.7113 -0.62799 1.48139 0
M  V30 531 O 51.9033 -0.483969 1.70255 0
M  V30 532 C 49.0323 -0.64146 3.37254 0
M  V30 533 C 48.1183 0.19944 4.23631 0
M  V30 534 N 48.5093 1.26628 4.89693 0
M  V30 535 C 46.8073 -0.0176433 4.45997 0
M  V30 536 C 47.5083 1.78031 5.53787 0
M  V30 537 N 46.4843 1.08553 5.32651 0
M  V30 538 H 50.2863 1.01893 2.75672 0
M  V30 539 H 47.8003 0.656332 1.48546 0
M  V30 540 H 49.7973 -1.09575 4.02243 0
M  V30 541 H 48.4573 -1.4559 2.9023 0
M  V30 542 H 49.4683 1.64901 4.90946 0
M  V30 543 H 46.1453 -0.800601 4.09752 0
M  V30 544 H 47.5353 2.67236 6.16469 0
M  V30 545 N 50.2554 -1.46986 0.568584 0
M  V30 546 C 51.5014 -2.02741 0.0488709 0
M  V30 547 C 51.8344 -1.44077 -1.30214 0
M  V30 548 O 51.1094 -0.600552 -1.84996 0
M  V30 549 C 51.3924 -3.60086 -0.032047 0
M  V30 550 C 51.2454 -4.29162 1.34686 0
M  V30 551 C 52.5644 -4.33838 -0.739798 0
M  V30 552 H 49.6834 -0.736749 0.0192338 0
M  V30 553 H 52.3254 -1.75289 0.733065 0
M  V30 554 H 50.4754 -3.83606 -0.61473 0
M  V30 555 H 52.1474 -4.16948 1.97362 0
M  V30 556 H 50.3904 -3.89073 1.91846 0
M  V30 557 H 51.0614 -5.37826 1.24285 0
M  V30 558 H 53.5374 -4.15378 -0.244939 0
M  V30 559 H 52.4134 -5.43537 -0.765406 0
M  V30 560 H 52.6744 -4.03875 -1.79827 0
M  V30 561 N 51.7335 -0.305618 -1.54608 0
M  V30 562 C 52.9825 0.303098 -1.9941 0
M  V30 563 C 53.2955 1.54648 -1.19764 0
M  V30 564 O 54.5015 2.23007 -1.54855 0
M  V30 565 C 52.9575 0.590588 -3.55021 0
M  V30 566 C 52.5655 -0.634719 -4.43481 0
M  V30 567 C 54.3095 1.16025 -4.08336 0
M  V30 568 C 52.2165 -0.320126 -5.90533 0
M  V30 569 H 51.1465 0.117031 -0.744862 0
M  V30 570 H 53.7975 -0.415045 -1.78745 0
M  V30 571 H 52.1795 1.36845 -3.71604 0
M  V30 572 H 53.3535 -1.41079 -4.38672 0
M  V30 573 H 51.6685 -1.12333 -4.00962 0
M  V30 574 H 54.2655 1.40994 -5.15776 0
M  V30 575 H 54.6085 2.10397 -3.5922 0
M  V30 576 H 55.1415 0.443985 -3.95315 0
M  V30 577 H 51.8805 -1.23254 -6.43808 0
M  V30 578 H 51.4005 0.418579 -5.98338 0
M  V30 579 H 53.0795 0.0766241 -6.46955 0
M  V30 580 N 53.2116 1.57565 -0.0334293 0
M  V30 581 C 54.4606 1.91155 0.643639 0
M  V30 582 C 54.7736 0.91192 1.73042 0
M  V30 583 O 55.9796 1.13923 2.46442 0
M  V30 584 C 54.4356 3.39443 1.1961 0
M  V30 585 C 54.0436 4.47774 0.142381 0
M  V30 586 C 55.7876 3.82094 1.84944 0
M  V30 587 C 53.6946 5.87162 0.706727 0
M  V30 588 H 52.6246 0.713368 0.244176 0
M  V30 589 H 55.2756 1.8323 -0.0994323 0
M  V30 590 H 53.6576 3.42313 1.99092 0
M  V30 591 H 54.8316 4.56469 -0.630296 0
M  V30 592 H 53.1466 4.14352 -0.412446 0
M  V30 593 H 55.7436 4.83591 2.2813 0
M  V30 594 H 56.0866 3.17386 2.69392 0
M  V30 595 H 56.6196 3.81665 1.12145 0
M  V30 596 H 53.3586 6.55424 -0.0997178 0
M  V30 597 H 52.8786 5.82064 1.44779 0
M  V30 598 H 54.5576 6.35866 1.19514 0
M  V30 599 N 54.6897 -0.239769 1.55765 0
M  V30 600 C 55.9367 -0.966801 1.7793 0
M  V30 601 C 56.2647 -1.85046 0.599015 0
M  V30 602 O 55.5197 -1.91197 -0.417395 0
M  V30 603 C 55.8187 -1.852 3.05672 0
M  V30 604 C 55.4847 -1.1231 4.36689 0
M  V30 605 C 54.1467 -0.921689 4.72291 0
M  V30 606 C 56.4987 -0.607019 5.17653 0
M  V30 607 C 53.8267 -0.191996 5.86386 0
M  V30 608 C 56.1787 0.109241 6.32506 0
M  V30 609 C 54.8427 0.322073 6.66723 0
M  V30 610 H 54.1127 -0.353778 0.651093 0
M  V30 611 H 56.7597 -0.23634 1.90036 0
M  V30 612 H 55.0647 -2.64975 2.8861 0
M  V30 613 H 56.7617 -2.41635 3.20021 0
M  V30 614 H 53.3517 -1.29004 4.08725 0
M  V30 615 H 57.5357 -0.750153 4.90598 0
M  V30 616 H 52.7917 -0.0166949 6.11398 0
M  V30 617 H 56.9657 0.516737 6.9448 0
M  V30 618 H 54.5927 0.88944 7.54979 0
M  V30 619 N 56.1678 -1.49265 -0.50573 0
M  V30 620 C 57.3928 -1.62478 -1.28902 0
M  V30 621 C 57.8178 -0.294332 -1.85783 0
M  V30 622 O 57.1758 0.737412 -1.65626 0
M  V30 623 C 57.2238 -2.69268 -2.39848 0
M  V30 624 O 56.3278 -2.28113 -3.43567 0
M  V30 625 H 55.6688 -0.54399 -0.380751 0
M  V30 626 H 58.1988 -1.95421 -0.605952 0
M  V30 627 H 58.2088 -2.91291 -2.85681 0
M  V30 628 H 56.8838 -3.65846 -1.97812 0
M  V30 629 H 55.4608 -2.16401 -3.03685 0
M  V30 630 N 57.6459 0.756429 -1.3826 0
M  V30 631 C 58.8759 1.54341 -1.3734 0
M  V30 632 C 59.2839 1.89159 0.0393917 0
M  V30 633 O 58.6269 1.5307 1.01565 0
M  V30 634 C 58.6889 2.87238 -2.16182 0
M  V30 635 C 58.3529 2.74973 -3.65019 0
M  V30 636 C 59.3499 2.44962 -4.58574 0
M  V30 637 C 57.0349 2.92515 -4.08338 0
M  V30 638 C 59.0289 2.32642 -5.93428 0
M  V30 639 C 56.7159 2.79815 -5.43274 0
M  V30 640 C 57.7139 2.49921 -6.35632 0
M  V30 641 O 57.4019 2.37275 -7.68086 0
M  V30 642 H 57.1339 0.484281 -0.471643 0
M  V30 643 H 59.6879 0.944152 -1.82414 0
M  V30 644 H 57.9179 3.49342 -1.65822 0
M  V30 645 H 59.6069 3.48731 -2.07705 0
M  V30 646 H 60.3729 2.31081 -4.26412 0
M  V30 647 H 56.2519 3.14781 -3.368 0
M  V30 648 H 59.7959 2.0923 -6.65484 0
M  V30 649 H 55.6929 2.93269 -5.75034 0
M  V30 650 H 56.4609 2.52509 -7.78577 0
M  V30 651 N 59.124 1.23083 0.984299 0
M  V30 652 C 60.37 1.06214 1.72761 0
M  V30 653 C 60.703 -0.400584 1.90024 0
M  V30 654 O 59.978 -1.29672 1.44967 0
M  V30 655 C 60.261 1.78375 3.12817 0
M  V30 656 C 60.114 3.32296 3.03149 0
M  V30 657 C 61.433 1.54309 4.12161 0
M  V30 658 H 58.552 0.387251 0.627061 0
M  V30 659 H 61.194 1.51536 1.14616 0
M  V30 660 H 59.344 1.39848 3.62457 0
M  V30 661 H 61.016 3.8032 2.61064 0
M  V30 662 H 59.259 3.6153 2.39747 0
M  V30 663 H 59.93 3.77972 4.02295 0
M  V30 664 H 62.406 1.87791 3.71314 0
M  V30 665 H 61.282 2.07281 5.08258 0
M  V30 666 H 61.543 0.477572 4.39513 0
M  V30 667 N 60.6021 -1.18246 1.0419 0
M  V30 668 C 61.8421 -1.89948 0.754916 0
M  V30 669 C 62.2061 -1.78608 -0.70451 0
M  V30 670 O 63.4071 -2.4503 -1.10516 0
M  V30 671 C 61.6781 -3.36305 1.20969 0
M  V30 672 S 63.2371 -4.26088 1.04854 0
M  V30 673 H 60.0551 -0.655897 0.274446 0
M  V30 674 H 62.6571 -1.42873 1.33445 0
M  V30 675 H 61.3611 -3.42089 2.26722 0
M  V30 676 H 60.8921 -3.8842 0.624004 0
M  V30 677 H 62.9071 -4.96189 -0.0332896 0
M  V30 678 N 62.0802 -0.821533 -1.34494 0
M  V30 679 C 63.3272 -0.408946 -1.98328 0
M  V30 680 C 63.6552 1.02764 -1.65136 0
M  V30 681 O 62.9102 1.73026 -0.914349 0
M  V30 682 C 63.2092 -0.556512 -3.53041 0
M  V30 683 C 62.8752 -1.95861 -4.0614 0
M  V30 684 C 61.5372 -2.34217 -4.20352 0
M  V30 685 C 63.8892 -2.87523 -4.34718 0
M  V30 686 C 61.2172 -3.63572 -4.6047 0
M  V30 687 C 63.5692 -4.1634 -4.76281 0
M  V30 688 C 62.2332 -4.54675 -4.88699 0
M  V30 689 H 61.5032 -0.149644 -0.725732 0
M  V30 690 H 64.1502 -1.04521 -1.6046 0
M  V30 691 H 62.4552 0.163148 -3.9146 0
M  V30 692 H 64.1522 -0.217826 -4.00408 0
M  V30 693 H 60.7422 -1.65066 -3.95539 0
M  V30 694 H 64.9262 -2.59133 -4.23277 0
M  V30 695 H 60.1822 -3.93101 -4.68275 0
M  V30 696 H 64.3562 -4.87455 -4.97354 0
M  V30 697 H 61.9832 -5.54959 -5.19542 0
M  V30 698 N 63.5583 1.46682 -0.576371 0
M  V30 699 C 64.5213 2.28707 0.150239 0
M  V30 700 C 65.5213 1.38035 0.824794 0
M  V30 701 O 66.7113 1.60476 0.677719 0
M  V30 702 C 63.8433 3.18248 1.22192 0
M  V30 703 H 65.0363 2.94423 -0.570521 0
M  V30 704 H 62.5893 1.52688 -0.334078 0
M  V30 705 H 63.3243 2.57265 1.97447 0
M  V30 706 H 63.1093 3.85 0.742812 0
M  V30 707 H 64.5993 3.80001 1.73172 0
M  V30 708 N 65.0364 0.313813 1.54444 0
M  V30 709 C 65.9664 -0.549454 2.26943 0
M  V30 710 C 66.9474 -1.12741 1.27372 0
M  V30 711 O 68.1324 -1.15436 1.56167 0
M  V30 712 C 65.2624 -1.71523 3.01989 0
M  V30 713 C 64.2164 -1.26703 4.08816 0
M  V30 714 C 63.5424 -2.51898 4.71647 0
M  V30 715 C 64.8424 -0.388962 5.2085 0
M  V30 716 H 66.5364 0.0552661 2.99349 0
M  V30 717 H 64.0824 0.0280207 1.43973 0
M  V30 718 H 66.0354 -2.32535 3.51433 0
M  V30 719 H 64.7594 -2.34639 2.27183 0
M  V30 720 H 63.4184 -0.679896 3.6024 0
M  V30 721 H 63.0664 -3.13356 3.93468 0
M  V30 722 H 62.7664 -2.22605 5.43802 0
M  V30 723 H 64.2904 -3.1369 5.23861 0
M  V30 724 H 65.7044 -0.905107 5.6611 0
M  V30 725 H 64.1014 -0.18924 5.99802 0
M  V30 726 H 65.1714 0.582699 4.81386 0
M  V30 727 N 66.5145 -1.57545 0.0417849 0
M  V30 728 C 67.7605 -1.92601 -0.635021 0
M  V30 729 C 68.0935 -0.919627 -1.71045 0
M  V30 730 O 67.3685 0.0557892 -1.9442 0
M  V30 731 C 67.6515 -3.38085 -1.23979 0
M  V30 732 C 67.5045 -4.49467 -0.173057 0
M  V30 733 C 68.8235 -3.83776 -2.15416 0
M  V30 734 H 65.9425 -0.700397 -0.229374 0
M  V30 735 H 68.5845 -1.89728 0.101633 0
M  V30 736 H 66.7345 -3.40664 -1.86762 0
M  V30 737 H 68.4065 -4.59018 0.458312 0
M  V30 738 H 66.6495 -4.30909 0.499996 0
M  V30 739 H 67.3205 -5.48323 -0.636054 0
M  V30 740 H 69.7965 -3.83013 -1.62605 0
M  V30 741 H 68.6725 -4.8624 -2.54679 0
M  V30 742 H 68.9335 -3.19998 -3.05047 0
M  V30 743 N 67.9926 0.231505 -1.5589 0
M  V30 744 C 69.2176 0.978689 -1.82856 0
M  V30 745 C 69.6426 1.77559 -0.620846 0
M  V30 746 O 69.0006 1.76119 0.430305 0
M  V30 747 C 69.0486 1.87997 -3.07716 0
M  V30 748 O 68.1526 2.97393 -2.85712 0
M  V30 749 H 67.4936 0.277663 -0.603158 0
M  V30 750 H 70.0236 0.24783 -2.03093 0
M  V30 751 H 70.0336 2.2917 -3.37558 0
M  V30 752 H 68.7086 1.29417 -3.95252 0
M  V30 753 H 67.2856 2.60238 -2.67078 0
M  V30 754 N 69.4707 1.49531 0.497807 0
M  V30 755 C 70.7477 1.49682 1.25915 0
M  V30 756 C 71.1277 0.226339 2.09883 0
M  V30 757 O 70.4757 -0.791189 2.14365 0
M  V30 758 C 70.6857 2.77755 2.11313 0
M  V30 759 C 72.0337 3.27371 2.70395 0
M  V30 760 O 73.0577 2.78894 2.21578 0
M  V30 761 O 71.9167 4.11808 3.59272 0
M  V30 762 H 69.0107 0.599228 0.56996 0
M  V30 763 H 71.5567 1.61798 0.511816 0
M  V30 764 H 70.3287 3.61713 1.49264 0
M  V30 765 H 69.9517 2.68515 2.93233 0
M  V30 766 N 70.9488 -0.749086 1.3866 0
M  V30 767 C 71.8958 -1.86291 1.36251 0
M  V30 768 C 72.8658 -1.64578 0.224347 0
M  V30 769 O 74.0508 -1.86181 0.417279 0
M  V30 770 C 71.1908 -3.23644 1.19786 0
M  V30 771 C 70.3038 -3.57158 2.43027 0
M  V30 772 C 69.4388 -4.83838 2.19258 0
M  V30 773 C 68.4778 -5.10152 3.38247 0
M  V30 774 N 67.6148 -6.28029 3.13884 0
M  V30 775 H 72.4548 -1.87685 2.3147 0
M  V30 776 H 69.9918 -0.917287 1.14997 0
M  V30 777 H 71.9498 -4.0291 1.08254 0
M  V30 778 H 70.5798 -3.21566 0.282031 0
M  V30 779 H 69.6318 -2.72701 2.65214 0
M  V30 780 H 70.9438 -3.7253 3.31697 0
M  V30 781 H 70.0978 -5.71057 2.04888 0
M  V30 782 H 68.8368 -4.70614 1.2796 0
M  V30 783 H 67.8418 -4.21401 3.53131 0
M  V30 784 H 69.0668 -5.25271 4.30427 0
M  V30 785 H 67.0128 -6.1612 2.25238 0
M  V30 786 H 66.9298 -6.43922 3.96106 0
M  V30 787 H 68.1978 -7.18124 3.03179 0
M  V30 788 N 72.4269 -1.23603 -0.977757 0
M  V30 789 C 73.3569 -1.04401 -2.0886 0
M  V30 790 C 74.3379 0.0399052 -1.70053 0
M  V30 791 O 75.5229 -0.125246 -1.93796 0
M  V30 792 C 72.6529 -0.637269 -3.41403 0
M  V30 793 C 71.6069 -1.66883 -3.94124 0
M  V30 794 C 70.9329 -1.11745 -5.22893 0
M  V30 795 C 72.2329 -3.06247 -4.23096 0
M  V30 796 H 73.9269 -1.97316 -2.25182 0
M  V30 797 H 71.4729 -0.950096 -1.08209 0
M  V30 798 H 73.4259 -0.48998 -4.18542 0
M  V30 799 H 72.1499 0.327557 -3.24953 0
M  V30 800 H 70.8089 -1.80416 -3.19133 0
M  V30 801 H 70.4569 -0.143527 -5.02795 0
M  V30 802 H 70.1569 -1.80672 -5.59134 0
M  V30 803 H 71.6809 -0.982067 -6.02651 0
M  V30 804 H 73.0949 -2.96001 -4.90975 0
M  V30 805 H 71.4919 -3.72436 -4.70544 0
M  V30 806 H 72.5619 -3.55041 -3.30263 0
M  V30 807 N 73.905 1.17692 -1.04816 0
M  V30 808 C 75.135 1.91508 -0.775128 0
M  V30 809 C 75.543 1.76844 0.67253 0
M  V30 810 O 74.886 1.10057 1.47082 0
M  V30 811 C 74.948 3.43167 -1.0713 0
M  V30 812 C 74.612 3.81612 -2.51438 0
M  V30 813 C 75.609 3.84772 -3.49638 0
M  V30 814 C 73.294 4.12687 -2.86348 0
M  V30 815 C 75.288 4.18469 -4.80794 0
M  V30 816 C 72.975 4.46053 -4.17708 0
M  V30 817 C 73.973 4.48921 -5.14741 0
M  V30 818 O 73.661 4.81504 -6.43746 0
M  V30 819 H 73.393 0.614575 -0.281555 0
M  V30 820 H 75.947 1.50206 -1.40098 0
M  V30 821 H 74.177 3.84745 -0.388342 0
M  V30 822 H 75.866 3.98239 -0.784883 0
M  V30 823 H 76.632 3.60893 -3.24008 0
M  V30 824 H 72.511 4.09627 -2.11486 0
M  V30 825 H 76.055 4.20623 -5.56527 0
M  V30 826 H 71.952 4.69393 -4.43103 0
M  V30 827 H 72.72 4.99377 -6.4851 0
M  V30 828 N 75.3831 0.828654 1.34056 0
M  V30 829 C 76.3151 0.212052 2.28217 0
M  V30 830 C 77.3281 -0.601362 1.51286 0
M  V30 831 O 78.5171 -0.430104 1.73241 0
M  V30 832 C 75.6171 -0.72088 3.31144 0
M  V30 833 C 74.7901 0.0509587 4.3737 0
M  V30 834 C 73.8491 -0.803766 5.20025 0
M  V30 835 O 72.8751 -0.246667 5.68665 0
M  V30 836 N 74.0771 -2.1227 5.40298 0
M  V30 837 H 76.8421 1.02105 2.81771 0
M  V30 838 H 74.4031 0.686153 1.46641 0
M  V30 839 H 76.3951 -1.29742 3.8334 0
M  V30 840 H 74.9651 -1.43061 2.77943 0
M  V30 841 H 74.1851 0.808831 3.85813 0
M  V30 842 H 75.4731 0.582065 5.0546 0
M  V30 843 H 74.8711 -2.59898 5.02464 0
M  V30 844 H 73.4281 -2.64796 5.95589 0
M  V30 845 N 76.8612 -1.46375 0.584142 0
M  V30 846 C 78.2772 -1.57694 0.245929 0
M  V30 847 C 78.4772 -1.57903 -1.25175 0
M  V30 848 O 77.5332 -1.49676 -2.03355 0
M  V30 849 C 78.8462 -2.87028 0.896402 0
M  V30 850 C 80.3942 -3.00662 0.870127 0
M  V30 851 C 80.8692 -4.32734 1.50017 0
M  V30 852 N 82.3602 -4.39436 1.46458 0
M  V30 853 C 83.0952 -5.40248 1.92144 0
M  V30 854 N 82.5912 -6.47726 2.4581 0
M  V30 855 N 84.3842 -5.31459 1.83052 0
M  V30 856 H 76.5352 -1.44483 1.55687 0
M  V30 857 H 78.7982 -0.689291 0.650831 0
M  V30 858 H 78.5042 -2.9269 1.95002 0
M  V30 859 H 78.3782 -3.75014 0.405486 0
M  V30 860 H 80.7652 -2.94581 -0.174871 0
M  V30 861 H 80.8462 -2.14148 1.39908 0
M  V30 862 H 80.4902 -4.39573 2.54437 0
M  V30 863 H 80.4202 -5.18025 0.946432 0
M  V30 864 H 82.9112 -3.62367 1.07231 0
M  V30 865 H 83.2242 -7.20863 2.78525 0
M  V30 866 H 81.5692 -6.48542 2.49836 0
M  V30 867 H 84.7602 -4.46396 1.40883 0
M  V30 868 H 84.9332 -6.09881 2.18973 0
M  V30 869 N 78.3393 -0.321999 -1.54275 0
M  V30 870 C 79.2863 0.544664 -2.24281 0
M  V30 871 C 80.2563 1.1129 -1.23303 0
M  V30 872 O 81.4413 1.15354 -1.51981 0
M  V30 873 C 78.5813 1.70045 -3.00298 0
M  V30 874 C 77.6943 1.16159 -4.1609 0
M  V30 875 C 76.8293 2.28293 -4.79641 0
M  V30 876 C 75.8683 1.71648 -5.8754 0
M  V30 877 N 75.0053 2.77438 -6.44959 0
M  V30 878 H 79.8453 -0.0588907 -2.97942 0
M  V30 879 H 77.3823 -0.0408345 -1.47043 0
M  V30 880 H 79.3403 2.38054 -3.42616 0
M  V30 881 H 77.9703 2.27531 -2.28975 0
M  V30 882 H 77.0223 0.373092 -3.78566 0
M  V30 883 H 78.3343 0.707087 -4.93763 0
M  V30 884 H 77.4883 3.0421 -5.2492 0
M  V30 885 H 76.2273 2.77079 -4.01346 0
M  V30 886 H 75.2323 0.942282 -5.41665 0
M  V30 887 H 76.4573 1.23741 -6.67731 0
M  V30 888 H 74.4033 3.25519 -5.69538 0
M  V30 889 H 74.3203 2.36547 -7.1804 0
M  V30 890 H 75.5883 3.53189 -6.94894 0
M  V30 891 N 79.8174 1.5752 -0.0501392 0
M  V30 892 C 80.7274 2.14952 0.939827 0
M  V30 893 C 81.7434 1.10706 1.34239 0
M  V30 894 O 82.9194 1.42869 1.41952 0
M  V30 895 C 79.9844 2.68232 2.19665 0
M  V30 896 C 79.0454 3.87272 1.85253 0
M  V30 897 C 78.2784 4.38002 3.04943 0
M  V30 898 O 78.5014 3.87811 4.18281 0
M  V30 899 O 77.4354 5.29602 2.86017 0
M  V30 900 H 81.2614 2.9986 0.481392 0
M  V30 901 H 78.8464 1.4841 0.171699 0
M  V30 902 H 80.7284 3.02475 2.93406 0
M  V30 903 H 79.4034 1.86395 2.64648 0
M  V30 904 H 78.3104 3.5792 1.0883 0
M  V30 905 H 79.6434 4.70336 1.4507 0
M  V30 906 N 81.2955 -0.223234 1.56011 0
M  V30 907 C 82.7065 -0.790368 1.69145 0
M  V30 908 C 83.0575 -1.85055 0.651845 0
M  V30 909 O 82.1825 -2.15498 -0.197359 0
M  V30 910 C 82.7775 -1.4404 3.06656 0
M  V30 911 C 81.3365 -1.95494 3.2165 0
M  V30 912 C 80.4835 -0.814506 2.65068 0
M  V30 913 H 83.4345 0.00139011 1.587 0
M  V30 914 H 83.4555 -2.30916 3.0242 0
M  V30 915 H 82.9675 -0.668543 3.82298 0
M  V30 916 H 81.0685 -2.75487 2.50874 0
M  V30 917 H 81.1815 -2.13607 4.28846 0
M  V30 918 H 79.5455 -1.22137 2.23505 0
M  V30 919 H 80.3285 -0.0553515 3.43255 0
M  V30 920 N 82.7736 -1.49793 -0.48987 0
M  V30 921 C 84.0196 -1.60078 -1.24511 0
M  V30 922 C 84.3526 -0.291608 -1.91998 0
M  V30 923 O 83.6276 0.705647 -1.81248 0
M  V30 924 C 83.9106 -2.76791 -2.30345 0
M  V30 925 C 83.7636 -4.17535 -1.67286 0
M  V30 926 C 85.0826 -2.89111 -3.31817 0
M  V30 927 H 82.2016 -0.582645 -0.451324 0
M  V30 928 H 84.8436 -1.82117 -0.541612 0
M  V30 929 H 82.9936 -2.5813 -2.90346 0
M  V30 930 H 84.6656 -4.4774 -1.11026 0
M  V30 931 H 82.9086 -4.22665 -0.976577 0
M  V30 932 H 83.5796 -4.95094 -2.44103 0
M  V30 933 H 86.0556 -3.06133 -2.81819 0
M  V30 934 H 84.9316 -3.72433 -4.03219 0
M  V30 935 H 85.1926 -1.9893 -3.94815 0
M  V30 936 N 84.2517 0.741722 -1.39055 0
M  V30 937 C 85.5007 1.49656 -1.35225 0
M  V30 938 C 85.8137 1.95533 0.0512708 0
M  V30 939 O 87.0197 2.7067 0.212138 0
M  V30 940 C 85.4757 2.70389 -2.37525 0
M  V30 941 C 85.0837 2.31489 -3.83558 0
M  V30 942 C 86.8277 3.48236 -2.42759 0
M  V30 943 C 84.7347 3.48903 -4.77515 0
M  V30 944 H 83.6647 0.56197 -0.502699 0
M  V30 945 H 86.3157 0.809727 -1.64668 0
M  V30 946 H 84.6977 3.41113 -2.01142 0
M  V30 947 H 85.8717 1.68354 -4.28945 0
M  V30 948 H 84.1867 1.66749 -3.81554 0
M  V30 949 H 86.7837 4.35558 -3.1015 0
M  V30 950 H 87.1267 3.90229 -1.45008 0
M  V30 951 H 87.6597 2.84535 -2.78002 0
M  V30 952 H 84.3987 3.11966 -5.76504 0
M  V30 953 H 83.9187 4.11041 -4.36813 0
M  V30 954 H 85.5977 4.15328 -4.96096 0
M  V30 955 N 85.7298 1.2412 0.971189 0
M  V30 956 C 86.9548 1.10667 1.75407 0
M  V30 957 C 87.3798 -0.337048 1.85056 0
M  V30 958 O 86.7378 -1.24396 1.31892 0
M  V30 959 C 86.7858 1.74726 3.15441 0
M  V30 960 O 85.8898 1.01566 3.99697 0
M  V30 961 H 85.2308 0.387341 0.539317 0
M  V30 962 H 87.7608 1.64358 1.2185 0
M  V30 963 H 87.7708 1.80341 3.6598 0
M  V30 964 H 86.4458 2.79773 3.07734 0
M  V30 965 H 85.0228 1.03713 3.58187 0
M  V30 966 N 87.2079 -1.17134 1.05439 0
M  V30 967 C 88.4329 -1.91913 0.786396 0
M  V30 968 C 88.8579 -1.7643 -0.652234 0
M  V30 969 O 88.2159 -1.08372 -1.45345 0
M  V30 970 C 88.2639 -3.40921 1.17497 0
M  V30 971 O 87.3679 -4.11244 0.308589 0
M  V30 972 H 86.7089 -0.598215 0.288158 0
M  V30 973 H 89.2389 -1.48457 1.4079 0
M  V30 974 H 89.2489 -3.91668 1.14281 0
M  V30 975 H 87.9239 -3.5151 2.22292 0
M  V30 976 H 86.5009 -3.70731 0.40157 0
M  V30 977 N 88.686 -0.835752 -1.33615 0
M  V30 978 C 89.932 -0.430596 -1.98176 0
M  V30 979 C 90.265 1.00684 -1.66061 0
M  V30 980 O 89.54 1.70339 -0.938877 0
M  V30 981 C 89.823 -0.648065 -3.5422 0
M  V30 982 C 89.676 -2.13255 -3.96033 0
M  V30 983 C 90.995 -0.0922113 -4.40003 0
M  V30 984 H 88.114 -0.157924 -0.719881 0
M  V30 985 H 90.756 -1.05069 -1.58305 0
M  V30 986 H 88.906 -0.120237 -3.88314 0
M  V30 987 H 90.578 -2.725 -3.72211 0
M  V30 988 H 88.821 -2.61823 -3.45878 0
M  V30 989 H 89.492 -2.23547 -5.04708 0
M  V30 990 H 91.968 -0.543343 -4.12537 0
M  V30 991 H 90.844 -0.274083 -5.48215 0
M  V30 992 H 91.105 1.00378 -4.30554 0
M  V30 993 N 90.1641 1.46063 -0.591896 0
M  V30 994 C 91.1141 2.27458 0.157172 0
M  V30 995 C 92.0981 1.3641 0.853301 0
M  V30 996 O 93.2901 1.60517 0.74588 0
M  V30 997 C 90.4191 3.22956 1.16423 0
M  V30 998 C 89.5051 4.2149 0.469742 0
M  V30 999 N 89.8961 5.03519 -0.479839 0
M  V30 1000 C 88.1941 4.40161 0.719319 0
M  V30 1001 C 88.8951 5.74904 -0.886591 0
M  V30 1002 N 87.8711 5.43097 -0.233731 0
M  V30 1003 H 91.6731 2.88272 -0.572392 0
M  V30 1004 H 89.1871 1.57024 -0.414375 0
M  V30 1005 H 91.1841 3.79986 1.71513 0
M  V30 1006 H 89.8441 2.63701 1.89451 0
M  V30 1007 H 90.8551 5.1078 -0.855823 0
M  V30 1008 H 87.5321 3.92046 1.43548 0
M  V30 1009 H 88.9221 6.50844 -1.66888 0
M  V30 1010 N 91.6422 0.330177 1.54103 0
M  V30 1011 C 92.8702 -0.272179 2.05102 0
M  V30 1012 C 93.2852 -1.45267 1.20595 0
M  V30 1013 O 92.6422 -1.8094 0.238144 0
M  V30 1014 C 92.6932 -0.70023 3.54653 0
M  V30 1015 O 92.4142 0.433301 4.35952 0
M  V30 1016 C 93.9152 -1.3647 4.21771 0
M  V30 1017 H 91.1352 -0.0549159 0.668749 0
M  V30 1018 H 93.6792 0.478285 1.98828 0
M  V30 1019 H 91.8342 -1.40066 3.61193 0
M  V30 1020 H 92.2482 0.0947539 5.24414 0
M  V30 1021 H 93.7222 -1.61509 5.27843 0
M  V30 1022 H 94.1992 -2.31409 3.73292 0
M  V30 1023 H 94.8052 -0.706675 4.19388 0
M  V30 1024 N 93.1203 -1.57491 0.0584922 0
M  V30 1025 C 94.0673 -2.11958 -0.913376 0
M  V30 1026 C 95.0373 -1.02875 -1.30407 0
M  V30 1027 O 96.2223 -1.30464 -1.39226 0
M  V30 1028 C 93.3623 -2.67497 -2.18035 0
M  V30 1029 C 92.4753 -3.90691 -1.84349 0
M  V30 1030 C 91.6103 -4.3452 -3.05559 0
M  V30 1031 C 90.6493 -5.50395 -2.67827 0
M  V30 1032 N 89.7863 -5.89244 -3.81754 0
M  V30 1033 H 94.6263 -2.94704 -0.442017 0
M  V30 1034 H 92.1633 -1.45643 -0.206545 0
M  V30 1035 H 94.1213 -2.978 -2.92183 0
M  V30 1036 H 92.7513 -1.87537 -2.62735 0
M  V30 1037 H 91.8033 -3.66934 -1.00319 0
M  V30 1038 H 93.1153 -4.7489 -1.5258 0
M  V30 1039 H 92.2693 -4.66414 -3.87998 0
M  V30 1040 H 91.0083 -3.49147 -3.40511 0
M  V30 1041 H 90.0133 -5.18165 -1.83806 0
M  V30 1042 H 91.2383 -6.3749 -2.34059 0
M  V30 1043 H 89.1843 -5.06823 -4.16493 0
M  V30 1044 H 89.1013 -6.68151 -3.53708 0
M  V30 1045 H 90.3693 -6.25756 -4.64811 0
M  V30 1046 N 94.5984 0.214957 -1.56127 0
M  V30 1047 C 95.8444 0.939762 -1.79712 0
M  V30 1048 C 96.1774 1.83723 -0.629247 0
M  V30 1049 O 95.4524 1.90925 0.371197 0
M  V30 1050 C 95.7354 1.77306 -3.13424 0
M  V30 1051 C 95.5884 0.90164 -4.40671 0
M  V30 1052 C 96.9074 2.74956 -3.43638 0
M  V30 1053 H 94.0264 0.340214 -0.653776 0
M  V30 1054 H 96.6684 0.20824 -1.88855 0
M  V30 1055 H 94.8184 2.39673 -3.0576 0
M  V30 1056 H 96.4904 0.294206 -4.60361 0
M  V30 1057 H 94.7334 0.207368 -4.33304 0
M  V30 1058 H 95.4044 1.51923 -5.30682 0
M  V30 1059 H 97.8804 2.22724 -3.51473 0
M  V30 1060 H 96.7564 3.30358 -4.38355 0
M  V30 1061 H 97.0174 3.53023 -2.66134 0
M  V30 1062 N 96.0765 1.50051 0.48192 0
M  V30 1063 C 97.0235 1.68122 1.58125 0
M  V30 1064 C 97.9935 0.522545 1.57666 0
M  V30 1065 O 99.1785 0.751844 1.75362 0
M  V30 1066 C 96.3185 1.77142 2.96167 0
M  V30 1067 C 95.4315 3.0444 3.06497 0
M  V30 1068 C 94.5665 3.04321 4.35387 0
M  V30 1069 C 93.6055 4.26118 4.3942 0
M  V30 1070 N 92.7425 4.238 5.59766 0
M  V30 1071 H 97.5825 2.6198 1.42022 0
M  V30 1072 H 95.1195 1.29877 0.690687 0
M  V30 1073 H 97.0775 1.80352 3.76203 0
M  V30 1074 H 95.7075 0.867329 3.1093 0
M  V30 1075 H 94.7595 3.10752 2.19402 0
M  V30 1076 H 96.0715 3.94426 3.05336 0
M  V30 1077 H 95.2255 3.062 5.23762 0
M  V30 1078 H 93.9645 2.12147 4.39141 0
M  V30 1079 H 92.9695 4.24463 3.49444 0
M  V30 1080 H 94.1945 5.19507 4.37366 0
M  V30 1081 H 92.1405 3.34474 5.64326 0
M  V30 1082 H 92.0575 5.07542 5.60301 0
M  V30 1083 H 93.3255 4.2981 6.50295 0
M  V30 1084 N 97.5546 -0.734337 1.39446 0
M  V30 1085 C 98.8026 -1.49096 1.36436 0
M  V30 1086 C 99.1236 -1.94961 -0.0388255 0
M  V30 1087 O 98.3936 -1.69033 -0.990191 0
M  V30 1088 H 96.9736 -0.5531 0.502085 0
M  V30 1089 H 99.6356 -0.871725 1.74319 0
M  V30 1090 H 98.7316 -2.37276 2.02747 0
M  V30 1091 N 99.0327 -1.24633 -0.964593 0
M  V30 1092 C 100.282 -1.08188 -1.7023 0
M  V30 1093 C 100.595 0.37873 -1.91898 0
M  V30 1094 O 101.801 0.663427 -2.6327 0
M  V30 1095 C 100.257 -1.88773 -3.06419 0
M  V30 1096 C 99.8647 -3.39263 -2.92582 0
M  V30 1097 C 101.609 -1.80867 -3.84041 0
M  V30 1098 C 99.5157 -4.1218 -4.24101 0
M  V30 1099 H 98.4457 -0.401245 -0.638372 0
M  V30 1100 H 101.097 -1.48742 -1.07462 0
M  V30 1101 H 99.4787 -1.41035 -3.70034 0
M  V30 1102 H 100.653 -3.94603 -2.37961 0
M  V30 1103 H 98.9677 -3.48154 -2.28424 0
M  V30 1104 H 101.565 -2.32646 -4.81435 0
M  V30 1105 H 101.908 -0.774543 -4.09031 0
M  V30 1106 H 102.441 -2.26301 -3.27159 0
M  V30 1107 H 99.1797 -5.15965 -4.04303 0
M  V30 1108 H 98.6997 -3.61626 -4.78526 0
M  V30 1109 H 100.379 -4.19349 -4.92702 0
M  V30 1110 N 100.511 1.16574 -1.06058 0
M  V30 1111 C 101.474 2.19085 -0.673392 0
M  V30 1112 C 102.474 1.5835 0.279648 0
M  V30 1113 O 103.664 1.74088 0.0623488 0
M  V30 1114 C 100.796 3.40899 0.00954234 0
M  V30 1115 H 101.989 2.54853 -1.58081 0
M  V30 1116 H 99.5418 1.30808 -0.855516 0
M  V30 1117 H 100.277 3.10684 0.929826 0
M  V30 1118 H 100.062 3.86233 -0.67573 0
M  V30 1119 H 101.552 4.1675 0.266245 0
M  V30 1120 N 101.989 0.842826 1.3317 0
M  V30 1121 C 102.899 0.281444 2.32906 0
M  V30 1122 C 103.915 -0.594587 1.63526 0
M  V30 1123 O 105.091 -0.49777 1.95152 0
M  V30 1124 C 102.156 -0.530929 3.42611 0
M  V30 1125 C 101.217 0.369843 4.27704 0
M  V30 1126 C 100.45 -0.403853 5.3217 0
M  V30 1127 O 100.673 -1.63513 5.46461 0
M  V30 1128 O 99.6069 0.224199 6.01482 0
M  V30 1129 H 103.433 1.10744 2.82789 0
M  V30 1130 H 101.018 0.60545 1.36582 0
M  V30 1131 H 102.9 -0.992437 4.09547 0
M  V30 1132 H 101.575 -1.33392 2.94938 0
M  V30 1133 H 100.482 0.879275 3.6362 0
M  V30 1134 H 101.815 1.13771 4.78871 0
M  V30 1135 N 103.467 -1.45747 0.599634 0
M  V30 1136 C 104.713 -2.02592 0.0918643 0
M  V30 1137 C 105.046 -1.46806 -1.27128 0
M  V30 1138 O 104.321 -0.639658 -1.83681 0
M  V30 1139 C 104.604 -3.60073 0.0443398 0
M  V30 1140 C 104.457 -4.26208 1.43759 0
M  V30 1141 C 105.776 -4.35309 -0.647608 0
M  V30 1142 H 102.895 -0.736175 0.034857 0
M  V30 1143 H 105.537 -1.73694 0.770081 0
M  V30 1144 H 103.687 -3.84823 -0.533224 0
M  V30 1145 H 105.359 -4.12668 2.06162 0
M  V30 1146 H 103.602 -3.84916 2.00056 0
M  V30 1147 H 104.273 -5.35069 1.35665 0
M  V30 1148 H 106.749 -4.15805 -0.156776 0
M  V30 1149 H 105.625 -5.45038 -0.649942 0
M  V30 1150 H 105.886 -4.07598 -1.71219 0
M  V30 1151 N 104.945 -0.338344 -1.53925 0
M  V30 1152 C 105.892 0.520845 -2.24846 0
M  V30 1153 C 106.862 1.09976 -1.24477 0
M  V30 1154 O 108.047 1.13735 -1.53196 0
M  V30 1155 C 105.187 1.6685 -3.02084 0
M  V30 1156 C 104.3 1.11739 -4.17299 0
M  V30 1157 C 103.435 2.23193 -4.82036 0
M  V30 1158 C 102.474 1.65407 -5.89328 0
M  V30 1159 N 101.611 2.70582 -6.47866 0
M  V30 1160 H 106.451 -0.0904881 -2.97863 0
M  V30 1161 H 103.988 -0.0564282 -1.46992 0
M  V30 1162 H 105.946 2.34407 -3.45122 0
M  V30 1163 H 104.576 2.2509 -2.31375 0
M  V30 1164 H 103.628 0.332919 -3.7894 0
M  V30 1165 H 104.94 0.654677 -4.94485 0
M  V30 1166 H 104.094 2.98626 -5.28117 0
M  V30 1167 H 102.833 2.72807 -4.04262 0
M  V30 1168 H 101.838 0.884779 -5.42634 0
M  V30 1169 H 103.063 1.16652 -6.69006 0
M  V30 1170 H 101.009 3.1946 -5.72959 0
M  V30 1171 H 100.926 2.28917 -7.20509 0
M  V30 1172 H 102.194 3.45799 -6.98601 0
M  V30 1173 N 106.423 1.57458 -0.0668435 0
M  V30 1174 C 107.333 2.15937 0.916975 0
M  V30 1175 C 108.349 1.12123 1.33058 0
M  V30 1176 O 109.525 1.44366 1.40429 0
M  V30 1177 C 106.59 2.70547 2.16807 0
M  V30 1178 C 105.651 3.89215 1.81135 0
M  V30 1179 C 104.884 4.41211 3.0028 0
M  V30 1180 O 105.107 3.92225 4.14144 0
M  V30 1181 O 104.041 5.32605 2.80384 0
M  V30 1182 H 107.867 3.00354 0.449561 0
M  V30 1183 H 105.452 1.48584 0.155949 0
M  V30 1184 H 107.334 3.0557 2.90181 0
M  V30 1185 H 106.009 1.89192 2.62656 0
M  V30 1186 H 104.916 3.59054 1.05028 0
M  V30 1187 H 106.249 4.71848 1.40073 0
M  V30 1188 N 107.901 -0.206675 1.56239 0
M  V30 1189 C 108.811 -1.27686 1.96808 0
M  V30 1190 C 109.827 -1.50455 0.874035 0
M  V30 1191 O 111.003 -1.63295 1.17884 0
M  V30 1192 C 108.068 -2.60358 2.28942 0
M  V30 1193 C 107.129 -2.45762 3.51994 0
M  V30 1194 C 106.362 -3.72108 3.82585 0
M  V30 1195 O 106.585 -4.75776 3.14631 0
M  V30 1196 O 105.519 -3.6833 4.76043 0
M  V30 1197 H 109.345 -0.962593 2.88041 0
M  V30 1198 H 106.93 -0.410746 1.43643 0
M  V30 1199 H 108.812 -3.38687 2.50737 0
M  V30 1200 H 107.487 -2.91435 1.4088 0
M  V30 1201 H 106.394 -1.65584 3.35459 0
M  V30 1202 H 107.727 -2.19621 4.40486 0
M  V30 1203 N 109.379 -1.50304 -0.473955 0
M  V30 1204 C 110.628 -1.60392 -1.22301 0
M  V30 1205 C 110.941 -0.308411 -1.93153 0
M  V30 1206 O 112.147 -0.288156 -2.69966 0
M  V30 1207 C 110.603 -2.83109 -2.2221 0
M  V30 1208 C 110.211 -4.19524 -1.57173 0
M  V30 1209 C 111.955 -3.0254 -2.97775 0
M  V30 1210 C 109.862 -5.33431 -2.55353 0
M  V30 1211 H 108.792 -0.597286 -0.460179 0
M  V30 1212 H 111.443 -1.76731 -0.493803 0
M  V30 1213 H 109.825 -2.60322 -2.9841 0
M  V30 1214 H 110.999 -4.52554 -0.867824 0
M  V30 1215 H 109.314 -4.05674 -0.939002 0
M  V30 1216 H 111.911 -3.84811 -3.71248 0
M  V30 1217 H 112.254 -2.14154 -3.56992 0
M  V30 1218 H 112.787 -3.25494 -2.28688 0
M  V30 1219 H 109.526 -6.23962 -2.00878 0
M  V30 1220 H 109.046 -5.04823 -3.23904 0
M  V30 1221 H 110.725 -5.63887 -3.17239 0
M  V30 1222 N 110.857 0.726932 -1.39834 0
M  V30 1223 C 112.103 1.48884 -1.377 0
M  V30 1224 C 112.436 1.94185 0.0244852 0
M  V30 1225 O 111.711 1.67361 0.990986 0
M  V30 1226 C 111.994 2.72288 -2.3565 0
M  V30 1227 C 111.847 2.32956 -3.84775 0
M  V30 1228 C 113.166 3.74414 -2.31306 0
M  V30 1229 H 110.285 0.540062 -0.5015 0
M  V30 1230 H 112.927 0.830547 -1.70886 0
M  V30 1231 H 111.077 3.28457 -2.07481 0
M  V30 1232 H 112.749 1.82356 -4.23726 0
M  V30 1233 H 110.992 1.65088 -4.01159 0
M  V30 1234 H 111.663 3.21362 -4.4881 0
M  V30 1235 H 114.139 3.27849 -2.56231 0
M  V30 1236 H 113.015 4.58414 -3.01907 0
M  V30 1237 H 113.276 4.21909 -1.32081 0
M  V30 1238 N 112.336 1.25143 0.95797 0
M  V30 1239 C 113.246 1.06968 2.08794 0
M  V30 1240 C 114.262 0.00773911 1.73998 0
M  V30 1241 O 115.438 0.207972 2.00323 0
M  V30 1242 C 112.503 0.68691 3.39827 0
M  V30 1243 C 111.564 1.82641 3.88511 0
M  V30 1244 C 110.797 1.46181 5.1329 0
M  V30 1245 O 111.02 0.355971 5.69288 0
M  V30 1246 O 109.954 2.29085 5.566 0
M  V30 1247 H 113.78 2.01723 2.27027 0
M  V30 1248 H 111.365 1.04051 1.07209 0
M  V30 1249 H 113.247 0.485417 4.18595 0
M  V30 1250 H 111.922 -0.231417 3.22872 0
M  V30 1251 H 110.829 2.08274 3.10762 0
M  V30 1252 H 112.162 2.72386 4.09959 0
M  V30 1253 N 113.814 -1.1601 1.06675 0
M  V30 1254 C 114.762 -2.22586 0.675157 0
M  V30 1255 C 115.756 -1.66525 -0.310766 0
M  V30 1256 O 116.962 -1.79145 -0.175215 0
M  V30 1257 H 113.337 -0.724855 0.200223 0
M  V30 1258 H 115.308 -2.52899 1.58381 0
M  V30 1259 C 114.057 -3.47604 0.0817162 0
M  V30 1260 H 113.38 -3.91058 0.831484 0
M  V30 1261 H 114.82 -4.23718 -0.154708 0
M  V30 1262 C 113.279 -3.15718 -1.17576 0
M  V30 1263 O 113.809 -3.31878 -2.26318 0
M  V30 1264 N 112.015 -2.69816 -1.07923 0
M  V30 1265 H 111.562 -2.56866 -0.194293 0
M  V30 1266 H 111.52 -2.48855 -1.92141 0
M  V30 1267 N 115.292 -0.849877 -1.32721 0
M  V30 1268 C 116.54 -0.450032 -1.97026 0
M  V30 1269 C 116.861 0.996604 -1.67609 0
M  V30 1270 O 116.131 1.6958 -0.980786 0
M  V30 1271 H 114.711 -0.163426 -0.728904 0
M  V30 1272 H 117.373 -1.08526 -1.6189 0
M  V30 1273 H 116.469 -0.591146 -3.0645 0
M  V30 1274 N 116.77 1.45427 -0.607355 0
M  V30 1275 C 118.016 2.0254 -0.102607 0
M  V30 1276 C 118.349 1.47478 1.26348 0
M  V30 1277 O 117.624 0.64939 1.83339 0
M  V30 1278 C 117.907 3.60044 -0.0634347 0
M  V30 1279 C 117.76 4.2544 -1.46017 0
M  V30 1280 C 119.079 4.35646 0.624514 0
M  V30 1281 H 116.198 0.73598 -0.0387607 0
M  V30 1282 H 118.84 1.73284 -0.779282 0
M  V30 1283 H 116.99 3.85101 0.512808 0
M  V30 1284 H 118.662 4.11569 -2.08347 0
M  V30 1285 H 116.905 3.83849 -2.02094 0
M  V30 1286 H 117.576 5.34342 -1.385 0
M  V30 1287 H 120.052 4.15882 0.134723 0
M  V30 1288 H 118.928 5.45376 0.621028 0
M  V30 1289 H 119.189 4.08501 1.69055 0
M  V30 1290 N 118.248 0.346503 1.53744 0
M  V30 1291 C 119.195 -0.508914 2.25119 0
M  V30 1292 C 120.165 -1.09315 1.25058 0
M  V30 1293 O 121.35 -1.12921 1.53797 0
M  V30 1294 C 118.49 -1.65246 3.02965 0
M  V30 1295 C 117.603 -1.09525 4.17886 0
M  V30 1296 C 116.738 -2.20634 4.83212 0
M  V30 1297 C 115.777 -1.62279 5.90196 0
M  V30 1298 N 114.914 -2.67143 6.49291 0
M  V30 1299 H 119.754 0.106283 2.9781 0
M  V30 1300 H 117.291 0.0642227 1.4696 0
M  V30 1301 H 119.249 -2.32574 3.4636 0
M  V30 1302 H 117.879 -2.2386 2.32565 0
M  V30 1303 H 116.931 -0.312818 3.79112 0
M  V30 1304 H 118.243 -0.628444 4.94825 0
M  V30 1305 H 117.397 -2.95821 5.29693 0
M  V30 1306 H 116.136 -2.70659 4.05703 0
M  V30 1307 H 115.141 -0.855989 5.43096 0
M  V30 1308 H 116.366 -1.13102 6.69615 0
M  V30 1309 H 114.312 -3.16417 5.74645 0
M  V30 1310 H 114.229 -2.25093 7.21713 0
M  V30 1311 H 115.497 -3.4209 7.00425 0
M  V30 1312 N 119.726 -1.57421 0.075193 0
M  V30 1313 C 120.673 -2.12915 -0.890843 0
M  V30 1314 C 121.643 -1.04252 -1.29309 0
M  V30 1315 O 122.828 -1.31933 -1.37834 0
M  V30 1316 C 119.968 -2.69795 -2.15186 0
M  V30 1317 C 119.081 -3.92624 -1.80194 0
M  V30 1318 C 118.216 -4.37736 -3.00933 0
M  V30 1319 C 117.255 -5.53205 -2.61974 0
M  V30 1320 N 116.392 -5.9326 -3.75483 0
M  V30 1321 H 121.232 -2.95156 -0.410735 0
M  V30 1322 H 118.769 -1.45854 -0.191086 0
M  V30 1323 H 120.727 -3.00883 -2.89008 0
M  V30 1324 H 119.357 -1.90313 -2.60731 0
M  V30 1325 H 118.409 -3.67977 -0.964218 0
M  V30 1326 H 119.721 -4.76482 -1.47534 0
M  V30 1327 H 118.875 -4.70503 -3.8303 0
M  V30 1328 H 117.614 -3.52739 -3.36789 0
M  V30 1329 H 116.619 -5.20086 -1.783 0
M  V30 1330 H 117.844 -6.39936 -2.27284 0
M  V30 1331 H 115.79 -5.11212 -4.11094 0
M  V30 1332 H 115.707 -6.71865 -3.46602 0
M  V30 1333 H 116.975 -6.30651 -4.58148 0
M  V30 1334 N 121.204 0.198386 -1.56346 0
M  V30 1335 C 122.134 1.24865 -1.9731 0
M  V30 1336 C 123.115 1.47651 -0.844576 0
M  V30 1337 O 124.3 1.59444 -1.10866 0
M  V30 1338 C 121.43 2.59358 -2.30977 0
M  V30 1339 C 120.384 2.5119 -3.46537 0
M  V30 1340 C 119.71 3.89926 -3.65871 0
M  V30 1341 C 121.01 2.03977 -4.80823 0
M  V30 1342 H 122.704 0.908252 -2.85291 0
M  V30 1343 H 120.25 0.435462 -1.37258 0
M  V30 1344 H 122.203 3.33011 -2.58228 0
M  V30 1345 H 120.927 2.95132 -1.39874 0
M  V30 1346 H 119.586 1.79993 -3.19371 0
M  V30 1347 H 119.234 4.23046 -2.72105 0
M  V30 1348 H 118.934 3.85336 -4.4361 0
M  V30 1349 H 120.458 4.65205 -3.95495 0
M  V30 1350 H 121.872 2.67386 -5.07127 0
M  V30 1351 H 120.269 2.10397 -5.62008 0
M  V30 1352 H 121.339 0.992861 -4.74626 0
M  V30 1353 N 122.682 1.50554 0.465978 0
M  V30 1354 C 123.928 1.62038 1.21949 0
M  V30 1355 C 124.261 0.322116 1.9151 0
M  V30 1356 O 123.536 -0.676723 1.82348 0
M  V30 1357 C 123.819 2.80421 2.25912 0
M  V30 1358 C 123.672 4.20144 1.60622 0
M  V30 1359 C 124.991 2.94354 3.27176 0
M  V30 1360 H 122.11 0.589752 0.441998 0
M  V30 1361 H 124.752 1.82956 0.51257 0
M  V30 1362 H 122.902 2.62717 2.86203 0
M  V30 1363 H 124.574 4.49449 1.03889 0
M  V30 1364 H 122.817 4.24165 0.909211 0
M  V30 1365 H 123.488 4.98914 2.36196 0
M  V30 1366 H 125.964 3.10578 2.76913 0
M  V30 1367 H 124.84 3.788 3.97242 0
M  V30 1368 H 125.101 2.05186 3.916 0
M  V30 1369 N 124.16 -0.719506 1.40217 0
M  V30 1370 C 125.11 -1.8251 1.36653 0
M  V30 1371 C 126.094 -1.59028 0.244732 0
M  V30 1372 O 127.286 -1.70268 0.483524 0
M  V30 1373 C 124.415 -3.20599 1.22763 0
M  V30 1374 C 123.501 -3.49858 2.39708 0
M  V30 1375 N 123.892 -3.49957 3.6519 0
M  V30 1376 C 122.19 -3.80297 2.33002 0
M  V30 1377 C 122.891 -3.77449 4.42614 0
M  V30 1378 N 121.867 -3.96002 3.72402 0
M  V30 1379 H 125.669 -1.80914 2.31619 0
M  V30 1380 H 123.183 -0.918455 1.33933 0
M  V30 1381 H 125.18 -3.99766 1.18292 0
M  V30 1382 H 123.84 -3.23424 0.287614 0
M  V30 1383 H 124.851 -3.309 3.98404 0
M  V30 1384 H 121.528 -3.90635 1.47346 0
M  V30 1385 H 122.918 -3.83863 5.51451 0
M  V30 1386 N 125.638 -1.25649 -0.95132 0
M  V30 1387 C 126.863 -1.13443 -1.73624 0
M  V30 1388 C 127.288 0.307565 -1.85568 0
M  V30 1389 O 126.646 1.22282 -1.33854 0
M  V30 1390 C 126.694 -1.79723 -3.12621 0
M  V30 1391 O 125.798 -1.07912 -3.98031 0
M  V30 1392 H 125.139 -0.395872 -0.533086 0
M  V30 1393 H 127.669 -1.66276 -1.1922 0
M  V30 1394 H 127.679 -1.86141 -3.63064 0
M  V30 1395 H 126.354 -2.84633 -3.03244 0
M  V30 1396 H 124.931 -1.09398 -3.56492 0
M  V30 1397 N 127.117 1.15442 -1.07289 0
M  V30 1398 C 128.363 1.86489 -0.796846 0
M  V30 1399 C 128.696 1.82078 0.675371 0
M  V30 1400 O 127.971 1.24346 1.4956 0
M  V30 1401 C 128.254 3.35626 -1.30489 0
M  V30 1402 C 128.107 3.48673 -2.84161 0
M  V30 1403 C 129.426 4.30357 -0.920907 0
M  V30 1404 H 126.545 0.677144 -0.290939 0
M  V30 1405 H 129.187 1.35633 -1.33056 0
M  V30 1406 H 127.337 3.79068 -0.850883 0
M  V30 1407 H 129.009 3.14099 -3.37846 0
M  V30 1408 H 127.252 2.90253 -3.22391 0
M  V30 1409 H 127.923 4.53453 -3.14777 0
M  V30 1410 H 130.399 3.94871 -1.3121 0
M  V30 1411 H 129.275 5.33193 -1.30372 0
M  V30 1412 H 129.536 4.4176 0.173226 0
M  V30 1413 N 128.595 0.856903 1.32268 0
M  V30 1414 C 129.842 0.461386 1.97174 0
M  V30 1415 C 130.17 -0.983491 1.67803 0
M  V30 1416 O 129.425 -1.70541 0.959903 0
M  V30 1417 C 129.724 0.649919 3.51441 0
M  V30 1418 C 129.39 2.0656 4.00804 0
M  V30 1419 C 128.052 2.45279 4.13995 0
M  V30 1420 C 130.404 2.98947 4.26943 0
M  V30 1421 C 127.732 3.75653 4.50668 0
M  V30 1422 C 130.084 4.28822 4.65075 0
M  V30 1423 C 128.748 4.67472 4.76472 0
M  V30 1424 H 128.018 0.168833 0.72151 0
M  V30 1425 H 130.665 1.08739 1.57633 0
M  V30 1426 H 128.97 -0.0593018 3.91755 0
M  V30 1427 H 130.667 0.32391 3.9969 0
M  V30 1428 H 127.257 1.75495 3.91024 0
M  V30 1429 H 131.441 2.70265 4.16258 0
M  V30 1430 H 126.697 4.05379 4.57688 0
M  V30 1431 H 130.871 5.0047 4.84255 0
M  V30 1432 H 128.498 5.68539 5.04646 0
M  V30 1433 N 130.073 -1.45103 0.615059 0
M  V30 1434 C 131.35 -1.95549 0.0448276 0
M  V30 1435 C 131.73 -1.55737 -1.4251 0
M  V30 1436 O 131.078 -0.823556 -2.13143 0
M  V30 1437 C 131.288 -3.48098 0.250785 0
M  V30 1438 C 132.636 -4.24384 0.135509 0
M  V30 1439 O 133.66 -3.55738 0.181299 0
M  V30 1440 O 132.519 -5.46493 0.0268878 0
M  V30 1441 H 129.613 -0.8264 -0.0314845 0
M  V30 1442 H 132.159 -1.55232 0.685642 0
M  V30 1443 H 130.931 -3.7007 1.27139 0
M  V30 1444 H 130.554 -3.95323 -0.424937 0
M  V30 1445 N 131.551 -0.354651 -1.53558 0
M  V30 1446 C 132.779 0.239515 -2.05509 0
M  V30 1447 C 133.194 1.4333 -1.2289 0
M  V30 1448 O 132.551 1.80538 -0.266899 0
M  V30 1449 C 132.602 0.643719 -3.55723 0
M  V30 1450 O 132.323 -0.502602 -4.35207 0
M  V30 1451 C 133.824 1.29743 -4.23889 0
M  V30 1452 H 131.044 0.0442697 -0.669538 0
M  V30 1453 H 133.588 -0.509856 -1.98042 0
M  V30 1454 H 131.743 1.34302 -3.63376 0
M  V30 1455 H 132.157 -0.178172 -5.24197 0
M  V30 1456 H 133.631 1.53091 -5.30346 0
M  V30 1457 H 134.108 2.25441 -3.76926 0
M  V30 1458 H 134.714 0.639865 -4.20459 0
M  V30 1459 N 133.029 1.57378 -0.0835403 0
M  V30 1460 C 133.992 2.12252 0.864959 0
M  V30 1461 C 134.992 1.04916 1.21858 0
M  V30 1462 O 136.182 1.30853 1.14991 0
M  V30 1463 C 133.314 2.63358 2.16461 0
M  V30 1464 H 134.507 2.97371 0.388676 0
M  V30 1465 H 132.06 1.55423 0.165317 0
M  V30 1466 H 132.795 1.81727 2.686 0
M  V30 1467 H 132.58 3.41826 1.92087 0
M  V30 1468 H 134.07 3.05847 2.84337 0
M  V30 1469 N 134.507 -0.190092 1.56449 0
M  V30 1470 C 135.784 -0.935886 1.71757 0
M  V30 1471 C 136.164 -2.01173 0.639726 0
M  V30 1472 O 135.512 -2.25827 -0.348502 0
M  V30 1473 C 135.722 -1.51775 3.1427 0
M  V30 1474 C 137.07 -1.99794 3.74656 0
M  V30 1475 O 138.094 -1.61607 3.1743 0
M  V30 1476 O 136.953 -2.70079 4.751 0
M  V30 1477 H 134.047 -0.439229 0.700719 0
M  V30 1478 H 136.593 -0.179395 1.68749 0
M  V30 1479 H 135.365 -0.742505 3.84191 0
M  V30 1480 H 134.988 -2.33894 3.21527 0
M  V30 1481 N 135.985 -1.50799 -0.457987 0
M  V30 1482 C 137.215 -1.65977 -1.23025 0
M  V30 1483 C 137.623 -0.347918 -1.85974 0
M  V30 1484 O 136.966 0.68148 -1.70592 0
M  V30 1485 C 137.028 -2.70309 -2.3701 0
M  V30 1486 C 136.692 -4.135 -1.94594 0
M  V30 1487 C 137.689 -4.98949 -1.46101 0
M  V30 1488 C 135.374 -4.5949 -2.02915 0
M  V30 1489 C 137.368 -6.28442 -1.06489 0
M  V30 1490 C 135.055 -5.88984 -1.62914 0
M  V30 1491 C 136.053 -6.73286 -1.1478 0
M  V30 1492 O 135.741 -8.00362 -0.75339 0
M  V30 1493 H 135.473 -0.56064 -0.377702 0
M  V30 1494 H 138.027 -1.97857 -0.551537 0
M  V30 1495 H 136.257 -2.337 -3.08093 0
M  V30 1496 H 137.946 -2.74574 -2.98938 0
M  V30 1497 H 138.712 -4.6463 -1.39084 0
M  V30 1498 H 134.591 -3.94009 -2.39328 0
M  V30 1499 H 138.135 -6.94194 -0.688488 0
M  V30 1500 H 134.032 -6.22822 -1.69595 0
M  V30 1501 H 134.8 -8.13744 -0.88108 0
M  V30 1502 N 137.463 0.71206 -1.40597 0
M  V30 1503 C 138.691 1.50111 -1.42388 0
M  V30 1504 C 139.106 1.88784 -0.0245395 0
M  V30 1505 O 138.463 1.55681 0.952351 0
M  V30 1506 C 138.514 2.7742 -2.31776 0
M  V30 1507 O 138.235 2.40382 -3.66262 0
M  V30 1508 C 139.736 3.7129 -2.42196 0
M  V30 1509 H 136.956 0.46314 -0.485533 0
M  V30 1510 H 139.5 0.878068 -1.8469 0
M  V30 1511 H 137.655 3.36001 -1.92827 0
M  V30 1512 H 138.069 3.22324 -4.13772 0
M  V30 1513 H 139.543 4.57448 -3.08943 0
M  V30 1514 H 140.02 4.14641 -1.44809 0
M  V30 1515 H 140.626 3.18619 -2.81712 0
M  V30 1516 N 138.941 1.26152 0.944643 0
M  V30 1517 C 140.188 1.11492 1.69044 0
M  V30 1518 C 140.516 -0.342366 1.91463 0
M  V30 1519 O 139.771 -1.26812 1.49054 0
M  V30 1520 C 140.07 1.82541 3.07268 0
M  V30 1521 C 139.736 3.32445 3.04616 0
M  V30 1522 C 138.398 3.73337 3.036 0
M  V30 1523 C 140.75 4.28171 2.97185 0
M  V30 1524 C 138.078 5.08348 2.92915 0
M  V30 1525 C 140.43 5.63218 2.88041 0
M  V30 1526 C 139.094 6.03426 2.85366 0
M  V30 1527 H 138.364 0.407977 0.618576 0
M  V30 1528 H 141.011 1.56551 1.10291 0
M  V30 1529 H 139.316 1.29941 3.69625 0
M  V30 1530 H 141.013 1.68642 3.63815 0
M  V30 1531 H 137.603 2.99915 3.06185 0
M  V30 1532 H 141.787 3.97563 2.97081 0
M  V30 1533 H 137.043 5.38667 2.89219 0
M  V30 1534 H 141.217 6.37078 2.81254 0
M  V30 1535 H 138.844 7.07999 2.76842 0
M  V30 1536 N 140.419 -1.14872 1.07899 0
M  V30 1537 C 141.83 -1.67367 0.827363 0
M  V30 1538 C 142.181 -1.85236 -0.646693 0
M  V30 1539 O 141.306 -1.55974 -1.50004 0
M  V30 1540 C 141.901 -3.04016 1.49532 0
M  V30 1541 C 140.46 -3.53566 1.29106 0
M  V30 1542 C 139.607 -2.29161 1.56143 0
M  V30 1543 H 142.558 -0.990083 1.24028 0
M  V30 1544 H 142.579 -3.69219 0.919643 0
M  V30 1545 H 142.091 -2.90978 2.56814 0
M  V30 1546 H 140.192 -3.71835 0.238713 0
M  V30 1547 H 140.305 -4.34661 2.01511 0
M  V30 1548 H 138.669 -2.34978 0.982717 0
M  V30 1549 H 139.452 -2.18705 2.64619 0
M  V30 1550 N 141.898 -0.863906 -1.31812 0
M  V30 1551 C 142.828 -0.330843 -2.31144 0
M  V30 1552 C 143.809 0.575005 -1.60087 0
M  V30 1553 O 144.994 0.493304 -1.8783 0
M  V30 1554 C 142.124 0.47374 -3.44054 0
M  V30 1555 C 141.078 -0.338481 -4.26659 0
M  V30 1556 C 140.404 0.591412 -5.31419 0
M  V30 1557 C 141.704 -1.56926 -4.98168 0
M  V30 1558 H 143.398 -1.16086 -2.75979 0
M  V30 1559 H 140.944 -0.559657 -1.32679 0
M  V30 1560 H 142.897 0.857143 -4.12591 0
M  V30 1561 H 141.621 1.33721 -2.9797 0
M  V30 1562 H 140.28 -0.703754 -3.59782 0
M  V30 1563 H 139.928 1.45199 -4.81587 0
M  V30 1564 H 139.628 0.0519022 -5.87577 0
M  V30 1565 H 141.152 0.97179 -6.02817 0
M  V30 1566 H 142.566 -1.25764 -5.59336 0
M  V30 1567 H 140.963 -2.04739 -5.64094 0
M  V30 1568 H 142.033 -2.32544 -4.25501 0
M  V30 1569 N 143.376 1.44774 -0.622745 0
M  V30 1570 C 144.308 2.28856 0.125485 0
M  V30 1571 C 145.321 1.40811 0.817069 0
M  V30 1572 O 146.51 1.65044 0.679918 0
M  V30 1573 C 143.61 3.16963 1.19949 0
M  V30 1574 C 142.783 4.33374 0.592064 0
M  V30 1575 C 141.842 5.02577 1.55893 0
M  V30 1576 O 140.868 5.58873 1.07933 0
M  V30 1577 N 142.07 5.03256 2.89334 0
M  V30 1578 H 144.835 2.93713 -0.596068 0
M  V30 1579 H 142.396 1.55129 -0.463303 0
M  V30 1580 H 144.388 3.60123 1.84644 0
M  V30 1581 H 142.958 2.53913 1.82337 0
M  V30 1582 H 142.178 3.93509 -0.233322 0
M  V30 1583 H 143.466 5.08527 0.166738 0
M  V30 1584 H 142.864 4.58836 3.30887 0
M  V30 1585 H 141.421 5.50232 3.49412 0
M  V30 1586 N 144.854 0.36279 1.53368 0
M  V30 1587 C 146.102 -0.227326 2.00817 0
M  V30 1588 C 146.423 -1.49511 1.25186 0
M  V30 1589 O 145.693 -1.92482 0.364348 0
M  V30 1590 H 144.273 -0.0869923 0.741917 0
M  V30 1591 H 146.935 0.488381 1.88682 0
M  V30 1592 H 146.031 -0.456273 3.08747 0
M  V30 1593 N 146.332 -1.57332 0.0918853 0
M  V30 1594 C 147.28 -2.15075 -0.885747 0
M  V30 1595 C 148.274 -1.09277 -1.29441 0
M  V30 1596 O 149.48 -1.27627 -1.26931 0
M  V30 1597 H 145.855 -0.687966 -0.303656 0
M  V30 1598 H 147.826 -2.96047 -0.373995 0
M  V30 1599 C 146.575 -2.74325 -2.13638 0
M  V30 1600 H 145.898 -3.55418 -1.8308 0
M  V30 1601 H 147.338 -3.183 -2.80109 0
M  V30 1602 C 145.797 -1.70062 -2.90827 0
M  V30 1603 O 146.327 -1.13763 -3.85254 0
M  V30 1604 N 144.533 -1.40628 -2.54307 0
M  V30 1605 H 144.08 -1.866 -1.7759 0
M  V30 1606 H 144.038 -0.711043 -3.06254 0
M  V30 1607 N 147.81 0.181792 -1.56548 0
M  V30 1608 C 149.035 0.920019 -1.85877 0
M  V30 1609 C 149.46 1.75494 -0.677021 0
M  V30 1610 O 148.818 1.77399 0.374056 0
M  V30 1611 C 148.866 1.78112 -3.13542 0
M  V30 1612 O 147.97 2.88152 -2.95029 0
M  V30 1613 H 147.311 0.258334 -0.611686 0
M  V30 1614 H 149.841 0.183092 -2.03779 0
M  V30 1615 H 149.851 2.18314 -3.44678 0
M  V30 1616 H 148.526 1.16777 -3.99169 0
M  V30 1617 H 147.103 2.51609 -2.75222 0
M  V30 1618 N 149.288 1.51039 0.449983 0
M  V30 1619 C 150.535 1.63081 1.20045 0
M  V30 1620 C 150.863 0.341024 1.91487 0
M  V30 1621 O 150.118 -0.674276 1.83717 0
M  V30 1622 C 150.417 2.77556 2.25161 0
M  V30 1623 C 150.083 4.17289 1.70823 0
M  V30 1624 C 148.745 4.55305 1.55725 0
M  V30 1625 C 151.097 5.04536 1.3074 0
M  V30 1626 C 148.425 5.78287 0.989999 0
M  V30 1627 C 150.777 6.28085 0.754482 0
M  V30 1628 C 149.441 6.64885 0.590308 0
M  V30 1629 H 148.711 0.596755 0.439277 0
M  V30 1630 H 151.358 1.85037 0.49333 0
M  V30 1631 H 149.663 2.49771 3.01863 0
M  V30 1632 H 151.36 2.84073 2.83026 0
M  V30 1633 H 147.95 3.8731 1.83546 0
M  V30 1634 H 152.134 4.75782 1.41229 0
M  V30 1635 H 147.39 6.05456 0.850451 0
M  V30 1636 H 151.564 6.95038 0.435324 0
M  V30 1637 H 149.191 7.60055 0.14862 0
M  V30 1638 N 150.766 -0.704594 1.40972 0
M  V30 1639 C 152.013 -1.46458 1.39844 0
M  V30 1640 C 152.341 -1.94499 0.00447594 0
M  V30 1641 O 151.596 -1.69275 -0.982057 0
M  V30 1642 C 151.895 -2.698 2.34399 0
M  V30 1643 C 151.561 -2.40464 3.81429 0
M  V30 1644 C 150.223 -2.32174 4.21484 0
M  V30 1645 C 152.575 -2.16086 4.74296 0
M  V30 1646 C 149.903 -1.97589 5.52427 0
M  V30 1647 C 152.255 -1.83011 6.05549 0
M  V30 1648 C 150.919 -1.7321 6.44635 0
M  V30 1649 H 150.189 -0.535927 0.511725 0
M  V30 1650 H 152.836 -0.806124 1.73706 0
M  V30 1651 H 151.141 -3.40536 1.93759 0
M  V30 1652 H 152.838 -3.27919 2.30804 0
M  V30 1653 H 149.428 -2.47808 3.49699 0
M  V30 1654 H 153.612 -2.2144 4.4416 0
M  V30 1655 H 148.868 -1.88547 5.81601 0
M  V30 1656 H 153.042 -1.63164 6.77016 0
M  V30 1657 H 150.669 -1.46179 7.46013 0
M  V30 1658 N 152.244 -1.26651 -0.937939 0
M  V30 1659 C 153.49 -1.12553 -1.687 0
M  V30 1660 C 153.823 0.329782 -1.91379 0
M  V30 1661 O 153.098 1.24202 -1.4968 0
M  V30 1662 C 153.381 -1.89862 -3.05981 0
M  V30 1663 C 153.234 -3.43318 -2.90607 0
M  V30 1664 C 154.553 -1.69499 -4.0615 0
M  V30 1665 H 151.672 -0.410257 -0.612257 0
M  V30 1666 H 154.314 -1.55685 -1.08913 0
M  V30 1667 H 152.464 -1.53204 -3.57017 0
M  V30 1668 H 154.136 -3.89747 -2.46769 0
M  V30 1669 H 152.379 -3.70179 -2.26164 0
M  V30 1670 H 153.05 -3.92642 -3.8799 0
M  V30 1671 H 155.526 -2.01442 -3.64088 0
M  V30 1672 H 154.402 -2.26002 -5.00214 0
M  V30 1673 H 154.663 -0.640365 -4.37438 0
M  V30 1674 N 153.722 1.14298 -1.08507 0
M  V30 1675 C 154.655 2.18447 -0.660004 0
M  V30 1676 C 155.633 1.59242 0.328749 0
M  V30 1677 O 156.817 1.87062 0.232367 0
M  V30 1678 C 153.944 3.38688 0.0290807 0
M  V30 1679 C 152.99 4.1646 -0.919982 0
M  V30 1680 S 153.823 4.77334 -2.42718 0
M  V30 1681 C 154.979 6.00931 -1.75024 0
M  V30 1682 H 155.212 2.54166 -1.54231 0
M  V30 1683 H 152.745 1.25446 -0.900149 0
M  V30 1684 H 154.703 4.08342 0.420378 0
M  V30 1685 H 153.364 3.01289 0.887895 0
M  V30 1686 H 152.557 5.02529 -0.384751 0
M  V30 1687 H 152.159 3.52414 -1.25223 0
M  V30 1688 H 154.451 6.69017 -1.06877 0
M  V30 1689 H 155.394 6.59044 -2.58971 0
M  V30 1690 H 155.802 5.51089 -1.22317 0
M  V30 1691 N 155.201 0.870884 1.31352 0
M  V30 1692 C 156.429 0.49677 2.00848 0
M  V30 1693 C 156.844 -0.910998 1.65367 0
M  V30 1694 O 156.201 -1.59696 0.883374 0
M  V30 1695 C 156.252 0.645308 3.55694 0
M  V30 1696 O 155.973 1.99764 3.89905 0
M  V30 1697 C 157.474 0.272326 4.42463 0
M  V30 1698 H 154.694 0.193462 0.642506 0
M  V30 1699 H 157.238 1.1723 1.67563 0
M  V30 1700 H 155.393 0.0173176 3.87396 0
M  V30 1701 H 155.807 2.00607 4.84621 0
M  V30 1702 H 157.281 0.427208 5.50344 0
M  V30 1703 H 157.758 -0.788587 4.32062 0
M  V30 1704 H 158.364 0.876054 4.1618 0
M  V30 1705 N 156.679 -1.44442 0.630414 0
M  V30 1706 C 157.627 -2.32437 -0.0871428 0
M  V30 1707 C 158.621 -1.47304 -0.836525 0
M  V30 1708 O 159.827 -1.63653 -0.749506 0
M  V30 1709 H 156.202 -0.750533 -0.0469495 0
M  V30 1710 H 158.173 -2.90709 0.673096 0
M  V30 1711 C 156.922 -3.31288 -1.05563 0
M  V30 1712 H 156.245 -3.96805 -0.488426 0
M  V30 1713 H 157.685 -3.9554 -1.52721 0
M  V30 1714 C 156.144 -2.6016 -2.14052 0
M  V30 1715 O 156.674 -2.39997 -3.22124 0
M  V30 1716 N 154.88 -2.19911 -1.89967 0
M  V30 1717 H 154.427 -2.36509 -1.02085 0
M  V30 1718 H 154.385 -1.72646 -2.62756 0
M  V30 1719 N 158.157 -0.370918 -1.53173 0
M  V30 1720 C 159.404 0.217102 -2.01333 0
M  V30 1721 C 159.732 1.48338 -1.25802 0
M  V30 1722 O 158.987 1.92698 -0.34146 0
M  V30 1723 C 159.286 0.549696 -3.53147 0
M  V30 1724 C 158.952 -0.622872 -4.46577 0
M  V30 1725 C 157.614 -0.944595 -4.71838 0
M  V30 1726 C 159.966 -1.40819 -5.01816 0
M  V30 1727 C 157.294 -2.05351 -5.49589 0
M  V30 1728 C 159.646 -2.50757 -5.80778 0
M  V30 1729 C 158.31 -2.83458 -6.04324 0
M  V30 1730 H 157.58 0.0794431 -0.736729 0
M  V30 1731 H 160.227 -0.504481 -1.84736 0
M  V30 1732 H 158.532 1.35237 -3.6772 0
M  V30 1733 H 160.229 1.017 -3.87889 0
M  V30 1734 H 156.819 -0.36209 -4.27068 0
M  V30 1735 H 161.003 -1.17289 -4.82242 0
M  V30 1736 H 156.259 -2.3108 -5.6605 0
M  V30 1737 H 160.433 -3.12022 -6.22588 0
M  V30 1738 H 158.06 -3.69508 -6.64355 0
M  V30 1739 N 159.635 1.57281 -0.100228 0
M  V30 1740 C 160.565 2.17328 0.853857 0
M  V30 1741 C 161.546 1.10804 1.2906 0
M  V30 1742 O 162.731 1.38963 1.35657 0
M  V30 1743 C 159.861 2.75772 2.11109 0
M  V30 1744 C 158.815 3.87713 1.81279 0
M  V30 1745 C 158.141 4.32882 3.13874 0
M  V30 1746 C 159.441 5.10677 1.09574 0
M  V30 1747 H 161.135 2.97305 0.353545 0
M  V30 1748 H 158.681 1.43009 0.168612 0
M  V30 1749 H 160.634 3.16433 2.78296 0
M  V30 1750 H 159.358 1.93057 2.63432 0
M  V30 1751 H 158.017 3.476 1.16489 0
M  V30 1752 H 157.665 3.47051 3.64095 0
M  V30 1753 H 157.365 5.08358 2.94696 0
M  V30 1754 H 158.889 4.7618 3.82211 0
M  V30 1755 H 160.303 5.48474 1.66879 0
M  V30 1756 H 158.7 5.91615 1.00557 0
M  V30 1757 H 159.77 4.84835 0.0793299 0
M  V30 1758 N 161.113 -0.173488 1.56642 0
M  V30 1759 C 162.06 -1.21482 1.96242 0
M  V30 1760 C 163.03 -1.44104 0.826027 0
M  V30 1761 O 164.215 -1.5688 1.08597 0
M  V30 1762 C 161.355 -2.54964 2.32567 0
M  V30 1763 C 160.468 -2.39739 3.59373 0
M  V30 1764 C 159.603 -3.66072 3.84921 0
M  V30 1765 C 158.642 -3.45771 5.05083 0
M  V30 1766 N 157.779 -4.64169 5.26775 0
M  V30 1767 H 162.619 -0.870123 2.85014 0
M  V30 1768 H 160.156 -0.418245 1.41029 0
M  V30 1769 H 162.114 -3.32758 2.5165 0
M  V30 1770 H 160.744 -2.87433 1.46908 0
M  V30 1771 H 159.796 -1.53131 3.48217 0
M  V30 1772 H 161.108 -2.20683 4.47326 0
M  V30 1773 H 160.262 -4.52303 4.0436 0
M  V30 1774 H 159.001 -3.88105 2.9534 0
M  V30 1775 H 158.006 -2.57927 4.85545 0
M  V30 1776 H 159.231 -3.25163 5.96193 0
M  V30 1777 H 157.177 -4.86425 4.40144 0
M  V30 1778 H 157.094 -4.48019 6.08946 0
M  V30 1779 H 158.362 -5.51689 5.5069 0
M  V30 1780 N 162.591 -1.51276 -0.441967 0
M  V30 1781 C 163.819 -1.67516 -1.21434 0
M  V30 1782 C 164.234 -0.37055 -1.85128 0
M  V30 1783 O 163.591 0.650498 -1.70513 0
M  V30 1784 C 163.642 -2.78748 -2.30177 0
M  V30 1785 O 163.363 -4.04154 -1.69089 0
M  V30 1786 C 164.864 -3.06217 -3.20541 0
M  V30 1787 H 162.084 -0.562276 -0.366178 0
M  V30 1788 H 164.628 -1.97666 -0.524244 0
M  V30 1789 H 162.783 -2.5121 -2.94911 0
M  V30 1790 H 163.197 -4.65894 -2.40922 0
M  V30 1791 H 164.671 -3.8764 -3.92987 0
M  V30 1792 H 165.148 -2.18439 -3.81026 0
M  V30 1793 H 165.754 -3.35397 -2.61513 0
M  V30 1794 N 164.069 0.697108 -1.41344 0
M  V30 1795 C 164.979 1.84088 -1.45427 0
M  V30 1796 C 165.995 1.70545 -0.34501 0
M  V30 1797 O 167.171 1.92488 -0.592492 0
M  V30 1798 C 164.236 3.20056 -1.33286 0
M  V30 1799 C 163.297 3.45718 -2.54514 0
M  V30 1800 C 162.53 4.75199 -2.42944 0
M  V30 1801 O 162.753 5.51579 -1.45318 0
M  V30 1802 O 161.687 5.0161 -3.32672 0
M  V30 1803 H 165.513 1.836 -2.41919 0
M  V30 1804 H 163.098 0.849966 -1.22866 0
M  V30 1805 H 164.98 4.01236 -1.28794 0
M  V30 1806 H 163.655 3.2123 -0.39909 0
M  V30 1807 H 162.562 2.64474 -2.64583 0
M  V30 1808 H 163.895 3.49356 -3.46715 0
M  V30 1809 N 165.547 1.27147 0.931209 0
M  V30 1810 C 166.795 1.13055 1.6752 0
M  V30 1811 C 167.116 -0.324791 1.92276 0
M  V30 1812 O 166.386 -1.22775 1.52654 0
M  V30 1813 H 164.966 0.415391 0.620854 0
M  V30 1814 H 167.628 1.59623 1.11833 0
M  V30 1815 H 166.724 1.65694 2.64485 0
M  V30 1816 N 167.025 -1.13721 1.09112 0
M  V30 1817 C 167.957 -2.1871 0.685467 0
M  V30 1818 C 168.97 -1.60527 -0.271068 0
M  V30 1819 O 170.159 -1.78407 -0.0576148 0
M  V30 1820 C 167.259 -3.38898 -0.0111255 0
M  V30 1821 C 166.432 -4.26597 0.966131 0
M  V30 1822 C 165.491 -5.25324 0.303539 0
M  V30 1823 O 164.517 -5.61213 0.950177 0
M  V30 1824 N 165.719 -5.72779 -0.943651 0
M  V30 1825 H 168.484 -2.54126 1.58871 0
M  V30 1826 H 166.045 -1.29012 0.978143 0
M  V30 1827 H 168.037 -4.02014 -0.465517 0
M  V30 1828 H 166.607 -3.01747 -0.816565 0
M  V30 1829 H 165.827 -3.60306 1.59917 0
M  V30 1830 H 167.115 -4.82048 1.6281 0
M  V30 1831 H 166.513 -5.45762 -1.48862 0
M  V30 1832 H 165.07 -6.37847 -1.34142 0
M  V30 1833 N 168.503 -0.877838 -1.30888 0
M  V30 1834 C 169.413 -0.343096 -2.32078 0
M  V30 1835 C 170.429 0.551022 -1.65045 0
M  V30 1836 O 171.605 0.445854 -1.96403 0
M  V30 1837 C 168.67 0.439905 -3.43898 0
M  V30 1838 C 167.731 -0.483111 -4.26573 0
M  V30 1839 C 166.964 0.262616 -5.33053 0
M  V30 1840 O 167.187 1.48967 -5.50604 0
M  V30 1841 O 166.121 -0.383593 -6.00676 0
M  V30 1842 H 169.947 -1.18203 -2.79753 0
M  V30 1843 H 167.532 -0.64145 -1.34929 0
M  V30 1844 H 169.414 0.883504 -4.12034 0
M  V30 1845 H 168.089 1.25526 -2.98371 0
M  V30 1846 H 166.996 -0.975374 -3.61161 0
M  V30 1847 H 168.329 -1.26427 -4.75686 0
M  V30 1848 N 169.982 1.44106 -0.638065 0
M  V30 1849 C 170.914 2.28976 0.101205 0
M  V30 1850 C 171.927 1.4167 0.802088 0
M  V30 1851 O 173.116 1.65755 0.662375 0
M  V30 1852 C 170.216 3.18217 1.16581 0
M  V30 1853 C 169.389 4.33978 0.546066 0
M  V30 1854 C 168.448 5.04202 1.50554 0
M  V30 1855 O 167.474 5.59986 1.01999 0
M  V30 1856 N 168.676 5.06296 2.8398 0
M  V30 1857 H 171.441 2.93064 -0.627186 0
M  V30 1858 H 169.002 1.54629 -0.479731 0
M  V30 1859 H 170.994 3.62061 1.80815 0
M  V30 1860 H 169.564 2.55833 1.79634 0
M  V30 1861 H 168.784 3.93239 -0.275046 0
M  V30 1862 H 170.072 5.08675 0.112793 0
M  V30 1863 H 169.47 4.62319 3.26002 0
M  V30 1864 H 168.027 5.53907 3.43556 0
M  V30 1865 N 171.46 0.379036 1.52974 0
M  V30 1866 C 172.876 0.0285448 1.59574 0
M  V30 1867 C 173.076 -1.45542 1.39355 0
M  V30 1868 O 172.132 -2.2187 1.20541 0
M  V30 1869 C 173.445 0.496535 2.96572 0
M  V30 1870 C 174.993 0.451909 3.0972 0
M  V30 1871 C 175.468 0.895924 4.49152 0
M  V30 1872 N 176.959 0.851522 4.55306 0
M  V30 1873 C 177.694 1.16661 5.61407 0
M  V30 1874 N 177.19 1.55166 6.752 0
M  V30 1875 N 178.983 1.08853 5.51459 0
M  V30 1876 H 171.134 1.34525 1.64367 0
M  V30 1877 H 173.397 0.550733 0.771619 0
M  V30 1878 H 173.103 1.53258 3.16552 0
M  V30 1879 H 172.977 -0.109802 3.7704 0
M  V30 1880 H 175.364 -0.575029 2.89443 0
M  V30 1881 H 175.445 1.09392 2.3123 0
M  V30 1882 H 175.089 1.92104 4.70168 0
M  V30 1883 H 175.019 0.23103 5.26093 0
M  V30 1884 H 177.51 0.568038 3.73606 0
M  V30 1885 H 177.823 1.776 7.52116 0
M  V30 1886 H 176.168 1.59044 6.76557 0
M  V30 1887 H 179.359 0.786803 4.6144 0
M  V30 1888 H 179.532 1.33742 6.34048 0
M  V30 1889 N 172.938 -1.57226 0.108567 0
M  V30 1890 C 173.868 -2.17778 -0.84232 0
M  V30 1891 C 174.849 -1.11487 -1.2847 0
M  V30 1892 O 176.034 -1.39681 -1.34918 0
M  V30 1893 C 173.164 -2.76888 -2.09644 0
M  V30 1894 C 172.118 -3.88669 -1.79221 0
M  V30 1895 C 171.444 -4.34541 -3.11574 0
M  V30 1896 C 172.744 -5.11251 -1.06864 0
M  V30 1897 H 174.438 -2.97489 -0.337774 0
M  V30 1898 H 171.984 -1.43097 -0.161025 0
M  V30 1899 H 173.937 -3.17904 -2.76614 0
M  V30 1900 H 172.661 -1.94451 -2.62405 0
M  V30 1901 H 171.32 -3.48213 -1.14644 0
M  V30 1902 H 170.968 -3.48977 -3.62249 0
M  V30 1903 H 170.668 -5.09914 -2.91996 0
M  V30 1904 H 172.192 -4.782 -3.7968 0
M  V30 1905 H 173.606 -5.49352 -1.63968 0
M  V30 1906 H 172.003 -5.9214 -0.974178 0
M  V30 1907 H 173.073 -4.8487 -0.0536168 0
M  V30 1908 N 174.416 0.165178 -1.56732 0
M  V30 1909 C 175.656 0.887231 -1.8414 0
M  V30 1910 C 176.02 1.79159 -0.690353 0
M  V30 1911 O 177.221 2.55172 -0.845032 0
M  V30 1912 C 175.492 1.65674 -3.16681 0
M  V30 1913 S 177.051 2.42671 -3.6559 0
M  V30 1914 H 173.869 0.297042 -0.645978 0
M  V30 1915 H 176.471 0.148439 -1.94936 0
M  V30 1916 H 175.175 0.983507 -3.98441 0
M  V30 1917 H 174.706 2.43679 -3.08843 0
M  V30 1918 H 176.721 3.67499 -3.33406 0
M  V30 1919 N 175.894 1.51508 0.433938 0
M  V30 1920 C 177.305 1.56784 1.01369 0
M  V30 1921 C 177.656 0.393349 1.92217 0
M  V30 1922 O 176.781 -0.489441 2.10792 0
M  V30 1923 C 177.376 2.84144 1.8452 0
M  V30 1924 C 175.935 2.9198 2.37539 0
M  V30 1925 C 175.082 2.51482 1.16843 0
M  V30 1926 H 178.033 1.57236 0.215081 0
M  V30 1927 H 178.054 2.68098 2.70007 0
M  V30 1928 H 177.566 3.69607 1.18373 0
M  V30 1929 H 175.667 2.10955 3.0713 0
M  V30 1930 H 175.78 3.95704 2.70103 0
M  V30 1931 H 174.144 2.04758 1.51481 0
M  V30 1932 H 174.927 3.39293 0.523015 0
M  V30 1933 N 177.372 -0.689602 1.41712 0
M  V30 1934 C 178.282 -1.83314 1.46401 0
M  V30 1935 C 179.298 -1.7036 0.35405 0
M  V30 1936 O 180.474 -1.92171 0.602692 0
M  V30 1937 C 177.539 -3.19344 1.34982 0
M  V30 1938 C 176.6 -3.44363 2.56344 0
M  V30 1939 C 175.833 -4.73904 2.45461 0
M  V30 1940 O 176.056 -5.508 1.48241 0
M  V30 1941 O 174.99 -4.99839 3.35328 0
M  V30 1942 H 178.816 -1.82314 2.42889 0
M  V30 1943 H 176.401 -0.843438 1.23315 0
M  V30 1944 H 178.283 -4.00547 1.3092 0
M  V30 1945 H 176.958 -3.21014 0.41612 0
M  V30 1946 H 175.865 -2.63067 2.65982 0
M  V30 1947 H 177.198 -3.47512 3.48563 0
M  V30 1948 N 178.85 -1.27639 -0.924453 0
M  V30 1949 C 180.08 -1.16819 -1.70402 0
M  V30 1950 C 180.488 0.277191 -1.87158 0
M  V30 1951 O 179.831 1.20025 -1.39067 0
M  V30 1952 C 179.893 -1.78305 -3.12166 0
M  V30 1953 C 179.557 -3.27502 -3.18734 0
M  V30 1954 C 180.554 -4.2409 -3.00738 0
M  V30 1955 C 178.239 -3.68269 -3.4159 0
M  V30 1956 C 180.233 -5.59422 -3.05492 0
M  V30 1957 C 177.92 -5.0373 -3.45977 0
M  V30 1958 C 178.918 -5.99116 -3.27946 0
M  V30 1959 O 178.606 -7.32108 -3.32074 0
M  V30 1960 H 178.338 -0.406931 -0.539799 0
M  V30 1961 H 180.892 -1.69078 -1.16626 0
M  V30 1962 H 179.122 -1.20528 -3.67437 0
M  V30 1963 H 180.811 -1.62154 -3.72103 0
M  V30 1964 H 181.577 -3.93931 -2.82919 0
M  V30 1965 H 177.456 -2.94496 -3.54673 0
M  V30 1966 H 181 -6.33852 -2.91337 0
M  V30 1967 H 176.897 -5.33543 -3.63321 0
M  V30 1968 H 177.665 -7.40598 -3.48507 0
M  V30 1969 N 180.328 1.1314 -1.09713 0
M  V30 1970 C 181.739 1.66029 -0.853885 0
M  V30 1971 C 182.09 1.86241 0.617142 0
M  V30 1972 O 181.215 1.5834 1.47503 0
M  V30 1973 C 181.81 3.01599 -1.5435 0
M  V30 1974 C 180.369 3.51467 -1.34714 0
M  V30 1975 C 179.516 2.26648 -1.59769 0
M  V30 1976 H 182.467 0.970226 -1.25588 0
M  V30 1977 H 182.488 3.67709 -0.978267 0
M  V30 1978 H 182 2.86856 -2.6141 0
M  V30 1979 H 180.101 3.71408 -0.297838 0
M  V30 1980 H 180.214 4.314 -2.08401 0
M  V30 1981 H 178.578 2.33385 -1.01998 0
M  V30 1982 H 179.361 2.14467 -2.68065 0
M  V30 1983 N 181.806 0.884767 1.30421 0
M  V30 1984 C 183.034 0.518044 2.0031 0
M  V30 1985 C 183.449 -0.893408 1.66324 0
M  V30 1986 O 182.806 -1.5875 0.900262 0
M  V30 1987 C 182.857 0.682997 3.54989 0
M  V30 1988 O 182.578 2.03888 3.87764 0
M  V30 1989 C 184.079 0.31924 4.42149 0
M  V30 1990 H 181.299 0.200265 0.640418 0
M  V30 1991 H 183.843 1.19001 1.6631 0
M  V30 1992 H 181.998 0.0584052 3.87356 0
M  V30 1993 H 182.412 2.05735 4.82466 0
M  V30 1994 H 183.886 0.485555 5.4986 0
M  V30 1995 H 184.363 -0.742717 4.32875 0
M  V30 1996 H 184.969 0.920147 4.15227 0
M  V30 1997 N 183.284 -1.43765 0.645699 0
M  V30 1998 C 184.7 -1.56509 0.312591 0
M  V30 1999 C 184.9 -1.6307 -1.18365 0
M  V30 2000 O 183.956 -1.58167 -1.96824 0
M  V30 2001 C 185.269 -2.82968 1.01733 0
M  V30 2002 C 186.817 -2.96701 0.996865 0
M  V30 2003 C 187.292 -4.25982 1.68236 0
M  V30 2004 N 188.783 -4.32829 1.64964 0
M  V30 2005 C 189.518 -5.31613 2.14885 0
M  V30 2006 N 189.014 -6.36718 2.73061 0
M  V30 2007 N 190.807 -5.23217 2.05428 0
M  V30 2008 H 182.958 -1.3775 1.61675 0
M  V30 2009 H 185.221 -0.661067 0.679481 0
M  V30 2010 H 184.927 -2.84156 2.0724 0
M  V30 2011 H 184.801 -3.72957 0.564177 0
M  V30 2012 H 187.188 -2.95058 -0.0497719 0
M  V30 2013 H 187.269 -2.08022 1.48865 0
M  V30 2014 H 186.913 -4.28386 2.72852 0
M  V30 2015 H 186.843 -5.13545 1.16529 0
M  V30 2016 H 189.334 -3.57493 1.22503 0
M  V30 2017 H 189.647 -7.08401 3.08848 0
M  V30 2018 H 187.992 -6.37362 2.77118 0
M  V30 2019 H 191.183 -4.40019 1.59689 0
M  V30 2020 H 191.356 -6.00045 2.44643 0
M  V30 2021 N 184.763 -0.387143 -1.52771 0
M  V30 2022 C 186.179 -0.037007 -1.59557 0
M  V30 2023 C 186.379 1.44801 -1.40124 0
M  V30 2024 O 185.435 2.21227 -1.21716 0
M  V30 2025 C 186.748 -0.512256 -2.96305 0
M  V30 2026 C 188.296 -0.468328 -3.09476 0
M  V30 2027 C 188.771 -0.919731 -4.4867 0
M  V30 2028 N 190.262 -0.875656 -4.54848 0
M  V30 2029 C 190.997 -1.19637 -5.6078 0
M  V30 2030 N 190.493 -1.58745 -6.74368 0
M  V30 2031 N 192.286 -1.11776 -5.50874 0
M  V30 2032 H 184.437 -1.35395 -1.63652 0
M  V30 2033 H 186.7 -0.554818 -0.768688 0
M  V30 2034 H 186.406 -1.54935 -3.15734 0
M  V30 2035 H 186.28 0.089805 -3.77093 0
M  V30 2036 H 188.667 0.559671 -2.89744 0
M  V30 2037 H 188.748 -1.10616 -2.30646 0
M  V30 2038 H 188.392 -1.94595 -4.69143 0
M  V30 2039 H 188.322 -0.258927 -5.25963 0
M  V30 2040 H 190.813 -0.587843 -3.733 0
M  V30 2041 H 191.126 -1.81586 -7.51163 0
M  V30 2042 H 189.471 -1.6263 -6.75705 0
M  V30 2043 H 192.662 -0.811264 -4.61016 0
M  V30 2044 H 192.835 -1.37103 -6.3333 0
M  V30 2045 N 186.241 1.57166 -0.116904 0
M  V30 2046 C 187.469 1.99473 0.549383 0
M  V30 2047 C 187.884 0.996541 1.60357 0
M  V30 2048 O 187.241 -0.0108731 1.82497 0
M  V30 2049 C 187.292 3.41788 1.17741 0
M  V30 2050 O 187.013 4.37788 0.165362 0
M  V30 2051 C 188.514 3.99216 1.92722 0
M  V30 2052 H 185.734 0.655009 0.145616 0
M  V30 2053 H 188.278 2.03494 -0.202625 0
M  V30 2054 H 186.433 3.38713 1.88021 0
M  V30 2055 H 186.847 5.20806 0.621403 0
M  V30 2056 H 188.321 5.00882 2.31995 0
M  V30 2057 H 188.798 3.3824 2.80161 0
M  V30 2058 H 189.404 4.0583 1.27209 0
M  V30 2059 N 187.719 -0.156864 1.56817 0
M  V30 2060 C 188.649 -1.19589 2.00551 0
M  V30 2061 C 189.63 -1.4536 0.883426 0
M  V30 2062 O 190.815 -1.56449 1.15054 0
M  V30 2063 C 187.945 -2.53143 2.37773 0
M  V30 2064 C 186.899 -2.41913 3.53075 0
M  V30 2065 C 186.225 -3.80088 3.76081 0
M  V30 2066 C 187.525 -1.91157 4.86062 0
M  V30 2067 H 189.219 -0.832293 2.87599 0
M  V30 2068 H 186.765 -0.398918 1.38364 0
M  V30 2069 H 188.718 -3.26047 2.66967 0
M  V30 2070 H 187.442 -2.91319 1.4765 0
M  V30 2071 H 186.101 -1.71462 3.24031 0
M  V30 2072 H 185.749 -4.15683 2.83225 0
M  V30 2073 H 185.449 -3.73439 4.53671 0
M  V30 2074 H 186.973 -4.54556 4.0769 0
M  V30 2075 H 188.387 -2.53846 5.14038 0
M  V30 2076 H 186.784 -1.95422 5.67389 0
M  V30 2077 H 187.854 -0.866673 4.77092 0
M  V30 2078 N 189.197 -1.51736 -0.425897 0
M  V30 2079 C 190.437 -1.66636 -1.18371 0
M  V30 2080 C 190.801 -0.379854 -1.88205 0
M  V30 2081 O 192.002 -0.404758 -2.65735 0
M  V30 2082 C 190.273 -2.84382 -2.16476 0
M  V30 2083 S 191.832 -3.19673 -3.0059 0
M  V30 2084 H 188.65 -0.586957 -0.40125 0
M  V30 2085 H 191.252 -1.89679 -0.473518 0
M  V30 2086 H 189.956 -3.76281 -1.63831 0
M  V30 2087 H 189.487 -2.63562 -2.92059 0
M  V30 2088 H 191.502 -2.66994 -4.18245 0
M  V30 2089 N 190.675 0.682077 -1.42076 0
M  V30 2090 C 191.9 1.47558 -1.45744 0
M  V30 2091 C 192.325 1.87977 -0.0680981 0
M  V30 2092 O 191.683 1.55522 0.9318 0
M  V30 2093 C 191.731 2.70575 -2.38373 0
M  V30 2094 O 190.835 3.68573 -1.85007 0
M  V30 2095 H 190.176 0.443585 -0.494093 0
M  V30 2096 H 192.706 0.837238 -1.86686 0
M  V30 2097 H 192.716 3.18729 -2.54707 0
M  V30 2098 H 191.391 2.40495 -3.39315 0
M  V30 2099 H 189.968 3.2757 -1.78192 0
M  V30 2100 N 192.153 1.28127 0.917671 0
M  V30 2101 C 193.378 1.18007 1.70555 0
M  V30 2102 C 193.803 -0.258257 1.86319 0
M  V30 2103 O 193.161 -1.1869 1.37049 0
M  V30 2104 C 193.209 1.87948 3.07746 0
M  V30 2105 O 192.313 1.18427 3.9503 0
M  V30 2106 H 191.654 0.409867 0.522403 0
M  V30 2107 H 194.184 1.69379 1.1477 0
M  V30 2108 H 194.194 1.95701 3.58001 0
M  V30 2109 H 192.869 2.92573 2.95591 0
M  V30 2110 H 191.446 1.18811 3.53466 0
M  V30 2111 N 193.631 -1.12557 1.10312 0
M  V30 2112 C 194.908 -1.80363 0.756878 0
M  V30 2113 C 195.288 -1.97067 -0.756824 0
M  V30 2114 O 194.636 -1.54601 -1.68259 0
M  V30 2115 C 194.846 -3.14812 1.50647 0
M  V30 2116 C 196.194 -3.90029 1.67817 0
M  V30 2117 O 197.218 -3.24464 1.46974 0
M  V30 2118 O 196.077 -5.07652 2.02365 0
M  V30 2119 H 193.171 -0.780667 0.272926 0
M  V30 2120 H 195.717 -1.19404 1.20586 0
M  V30 2121 H 194.489 -2.97936 2.53672 0
M  V30 2122 H 194.112 -3.83478 1.05026 0
M  V30 2123 N 195.109 -0.891671 -1.2995 0
M  V30 2124 C 196.525 -0.58662 -1.48428 0
M  V30 2125 C 196.725 0.873951 -1.81561 0
M  V30 2126 O 195.781 1.65471 -1.90724 0
M  V30 2127 C 197.094 -1.50553 -2.60296 0
M  V30 2128 C 198.642 -1.50988 -2.74175 0
M  V30 2129 C 199.117 -2.41488 -3.89163 0
M  V30 2130 N 200.608 -2.39489 -3.96483 0
M  V30 2131 C 201.343 -3.06223 -4.84784 0
M  V30 2132 N 200.839 -3.82206 -5.77833 0
M  V30 2133 N 202.632 -2.95421 -4.78208 0
M  V30 2134 H 194.783 -1.83644 -1.06718 0
M  V30 2135 H 197.046 -0.786455 -0.529332 0
M  V30 2136 H 196.752 -2.54581 -2.42654 0
M  V30 2137 H 196.626 -1.22008 -3.56923 0
M  V30 2138 H 199.013 -0.47708 -2.91218 0
M  V30 2139 H 199.094 -1.83567 -1.78148 0
M  V30 2140 H 198.738 -3.44857 -3.72876 0
M  V30 2141 H 198.668 -2.06222 -4.84541 0
M  V30 2142 H 201.159 -1.84278 -3.29924 0
M  V30 2143 H 201.472 -4.302 -6.41988 0
M  V30 2144 H 199.817 -3.86313 -5.77743 0
M  V30 2145 H 203.008 -2.35581 -4.04499 0
M  V30 2146 H 203.181 -3.47704 -5.46814 0
M  V30 2147 N 196.587 1.43421 -0.653314 0
M  V30 2148 C 197.835 2.01414 -0.166415 0
M  V30 2149 C 198.156 1.51803 1.22397 0
M  V30 2150 O 197.426 0.730693 1.81763 0
M  V30 2151 H 196.006 0.744703 -0.0585319 0
M  V30 2152 H 198.668 1.75629 -0.845003 0
M  V30 2153 H 197.764 3.11734 -0.151111 0
M  V30 2154 N 198.065 0.39524 1.52563 0
M  V30 2155 C 199.305 -0.184744 2.03563 0
M  V30 2156 C 199.669 -1.43548 1.27507 0
M  V30 2157 O 200.87 -2.093 1.68662 0
M  V30 2158 C 199.141 -0.440294 3.54678 0
M  V30 2159 S 200.7 -0.989712 4.27493 0
M  V30 2160 H 197.518 -0.0515075 0.709132 0
M  V30 2161 H 200.12 0.544957 1.87751 0
M  V30 2162 H 198.824 0.477005 4.07618 0
M  V30 2163 H 198.355 -1.19825 3.74707 0
M  V30 2164 H 200.37 -2.27155 4.41152 0
M  V30 2165 N 199.544 -1.57102 0.125237 0
M  V30 2166 C 200.491 -2.15641 -0.822655 0
M  V30 2167 C 201.461 -1.08313 -1.25927 0
M  V30 2168 O 202.646 -1.36251 -1.33567 0
M  V30 2169 C 199.786 -2.76504 -2.06494 0
M  V30 2170 C 198.899 -3.98158 -1.67612 0
M  V30 2171 C 198.034 -4.47088 -2.86854 0
M  V30 2172 C 197.073 -5.6126 -2.44242 0
M  V30 2173 N 196.21 -6.04905 -3.56419 0
M  V30 2174 H 201.05 -2.96313 -0.316625 0
M  V30 2175 H 198.587 -1.46388 -0.144588 0
M  V30 2176 H 200.545 -3.09925 -2.79289 0
M  V30 2177 H 199.175 -1.98512 -2.54545 0
M  V30 2178 H 198.227 -3.70858 -0.846661 0
M  V30 2179 H 199.539 -4.80934 -1.32301 0
M  V30 2180 H 198.693 -4.82451 -3.67867 0
M  V30 2181 H 197.432 -3.63275 -3.25396 0
M  V30 2182 H 196.437 -5.25495 -1.61663 0
M  V30 2183 H 197.662 -6.46843 -2.0681 0
M  V30 2184 H 195.608 -5.24032 -3.94623 0
M  V30 2185 H 195.525 -6.82552 -3.25051 0
M  V30 2186 H 196.793 -6.44907 -4.37853 0
M  V30 2187 N 201.022 0.148545 -1.56898 0
M  V30 2188 C 201.969 1.18345 -1.98149 0
M  V30 2189 C 202.939 1.42772 -0.848848 0
M  V30 2190 O 204.124 1.55132 -1.11079 0
M  V30 2191 C 201.264 2.51231 -2.36594 0
M  V30 2192 C 200.377 2.33991 -3.63142 0
M  V30 2193 C 199.512 3.59902 -3.90697 0
M  V30 2194 C 198.551 3.37692 -5.1052 0
M  V30 2195 N 197.688 4.5573 -5.34092 0
M  V30 2196 H 202.528 0.82467 -2.86362 0
M  V30 2197 H 200.065 0.395756 -1.41676 0
M  V30 2198 H 202.023 3.28713 -2.56912 0
M  V30 2199 H 200.653 2.85059 -1.51463 0
M  V30 2200 H 199.705 1.47572 -3.50609 0
M  V30 2201 H 201.017 2.13539 -4.5078 0
M  V30 2202 H 200.171 4.45813 -4.11505 0
M  V30 2203 H 198.91 3.83357 -3.01477 0
M  V30 2204 H 197.915 2.5017 -4.89587 0
M  V30 2205 H 199.14 3.15637 -6.0129 0
M  V30 2206 H 197.086 4.79361 -4.47827 0
M  V30 2207 H 197.003 4.38274 -6.15996 0
M  V30 2208 H 198.271 5.42858 -5.59397 0
M  V30 2209 N 202.5 1.5196 0.417844 0
M  V30 2210 C 203.748 1.65263 1.16329 0
M  V30 2211 C 204.069 0.380634 1.91249 0
M  V30 2212 O 203.339 -0.604214 1.86349 0
M  V30 2213 H 201.919 0.60912 0.432414 0
M  V30 2214 H 204.581 1.88969 0.477162 0
M  V30 2215 H 203.677 2.4896 1.88217 0
M  V30 2216 N 203.978 -0.674533 1.42435 0
M  V30 2217 C 205.224 -1.43521 1.4413 0
M  V30 2218 C 205.579 -1.92316 0.0567773 0
M  V30 2219 O 204.872 -1.68008 -0.921076 0
M  V30 2220 C 205.066 -2.64767 2.40069 0
M  V30 2221 C 204.895 -2.27836 3.87713 0
M  V30 2222 C 203.665 -2.17183 4.56245 0
M  V30 2223 C 205.863 -1.89466 4.78129 0
M  V30 2224 N 203.845 -1.73358 5.88915 0
M  V30 2225 C 205.216 -1.56561 5.99907 0
M  V30 2226 C 207.271 -1.7646 4.65582 0
M  V30 2227 C 205.974 -1.11957 7.10534 0
M  V30 2228 C 208 -1.3326 5.76191 0
M  V30 2229 C 207.362 -1.0128 6.97081 0
M  V30 2230 H 203.461 -0.521656 0.582579 0
M  V30 2231 H 206.045 -0.778381 1.78464 0
M  V30 2232 H 204.216 -3.28139 2.07796 0
M  V30 2233 H 205.948 -3.3136 2.32342 0
M  V30 2234 H 202.703 -2.3626 4.10461 0
M  V30 2235 H 203.127 -1.53867 6.59283 0
M  V30 2236 H 207.769 -1.99831 3.72595 0
M  V30 2237 H 205.487 -0.873318 8.03367 0
M  V30 2238 H 209.073 -1.23717 5.68494 0
M  V30 2239 H 207.953 -0.683597 7.81215 0
M  V30 2240 N 205.456 -1.28612 -0.910864 0
M  V30 2241 C 206.389 -1.07109 -2.01502 0
M  V30 2242 C 207.367 0.013706 -1.62594 0
M  V30 2243 O 208.551 -0.134796 -1.88017 0
M  V30 2244 C 205.678 -0.628255 -3.32822 0
M  V30 2245 C 204.724 -1.71012 -3.90714 0
M  V30 2246 S 205.557 -3.30676 -4.21205 0
M  V30 2247 C 206.713 -2.88234 -5.55583 0
M  V30 2248 H 206.946 -2.00591 -2.19432 0
M  V30 2249 H 204.479 -1.12633 -1.05609 0
M  V30 2250 H 206.437 -0.37946 -4.08742 0
M  V30 2251 H 205.098 0.28678 -3.12788 0
M  V30 2252 H 204.291 -1.35195 -4.85529 0
M  V30 2253 H 203.893 -1.91186 -3.21441 0
M  V30 2254 H 206.185 -2.34584 -6.35591 0
M  V30 2255 H 207.128 -3.81857 -5.96314 0
M  V30 2256 H 207.536 -2.26862 -5.16908 0
M  V30 2257 N 206.934 1.1197 -1.10907 0
M  V30 2258 C 208.211 1.79959 -0.766432 0
M  V30 2259 C 208.591 1.97466 0.746363 0
M  V30 2260 O 207.939 1.55491 1.67436 0
M  V30 2261 C 208.149 3.14009 -1.52314 0
M  V30 2262 C 209.497 3.89134 -1.69883 0
M  V30 2263 O 210.521 3.2368 -1.48692 0
M  V30 2264 O 209.38 5.06572 -2.05054 0
M  V30 2265 H 206.474 0.779208 -0.277062 0
M  V30 2266 H 209.02 1.18762 -1.21217 0
M  V30 2267 H 207.792 2.96587 -2.55249 0
M  V30 2268 H 207.415 3.82915 -1.07059 0
M  V30 2269 N 208.412 0.89855 1.29475 0
M  V30 2270 C 209.823 0.572537 1.77705 0
M  V30 2271 C 210.174 -0.911778 1.73727 0
M  V30 2272 O 209.299 -1.71288 1.32247 0
M  V30 2273 C 209.894 1.03252 3.22683 0
M  V30 2274 C 208.453 0.757687 3.68695 0
M  V30 2275 C 207.6 1.20787 2.49612 0
M  V30 2276 H 210.551 1.08139 1.16153 0
M  V30 2277 H 210.572 0.367307 3.78723 0
M  V30 2278 H 210.084 2.11285 3.25546 0
M  V30 2279 H 208.185 -0.310079 3.71308 0
M  V30 2280 H 208.298 1.35476 4.59547 0
M  V30 2281 H 206.662 0.626888 2.46865 0
M  V30 2282 H 207.445 2.29622 2.55203 0
M  V30 2283 N 209.89 -1.43072 0.660911 0
M  V30 2284 C 210.822 -2.29108 -0.0647641 0
M  V30 2285 C 211.835 -1.42928 -0.779448 0
M  V30 2286 O 213.024 -1.66788 -0.635921 0
M  V30 2287 C 210.124 -3.20032 -1.11503 0
M  V30 2288 C 209.297 -4.34792 -0.476955 0
M  V30 2289 C 208.356 -5.06534 -1.42513 0
M  V30 2290 O 207.382 -5.61538 -0.930771 0
M  V30 2291 N 208.584 -5.1075 -2.75889 0
M  V30 2292 H 211.349 -2.92029 0.673731 0
M  V30 2293 H 208.91 -1.53846 0.50427 0
M  V30 2294 H 210.902 -3.64892 -1.75032 0
M  V30 2295 H 209.472 -2.58658 -1.75541 0
M  V30 2296 H 208.692 -3.92752 0.337572 0
M  V30 2297 H 209.98 -5.0879 -0.0318525 0
M  V30 2298 H 209.378 -4.67447 -3.18606 0
M  V30 2299 H 207.935 -5.59302 -3.347 0
M  V30 2300 N 211.368 -0.403325 -1.52352 0
M  V30 2301 C 212.593 0.176499 -2.06648 0
M  V30 2302 C 213.018 1.38577 -1.27193 0
M  V30 2303 O 212.376 1.7879 -0.300637 0
M  V30 2304 C 212.424 0.511061 -3.5696 0
M  V30 2305 O 211.528 1.60294 -3.79973 0
M  V30 2306 H 210.869 0.0167337 -0.663789 0
M  V30 2307 H 213.399 -0.574848 -1.96359 0
M  V30 2308 H 213.409 0.771362 -4.00642 0
M  V30 2309 H 212.084 -0.37296 -4.14224 0
M  V30 2310 H 210.661 1.33526 -3.48174 0
M  V30 2311 N 212.846 1.57033 -0.133567 0
M  V30 2312 C 213.793 2.16074 0.811208 0
M  V30 2313 C 214.763 1.08979 1.2535 0
M  V30 2314 O 215.948 1.36958 1.32843 0
M  V30 2315 C 213.088 2.77595 2.05024 0
M  V30 2316 C 212.201 3.99042 1.65498 0
M  V30 2317 C 211.336 4.48603 2.84479 0
M  V30 2318 C 210.375 5.62547 2.41262 0
M  V30 2319 N 209.512 6.06787 3.53206 0
M  V30 2320 H 214.352 2.96477 0.300906 0
M  V30 2321 H 211.889 1.46462 0.136822 0
M  V30 2322 H 213.847 3.11402 2.77642 0
M  V30 2323 H 212.477 1.99859 2.53488 0
M  V30 2324 H 211.529 3.71302 0.826981 0
M  V30 2325 H 212.841 4.81629 1.29748 0
M  V30 2326 H 211.995 4.84395 3.65303 0
M  V30 2327 H 210.734 3.64995 3.23465 0
M  V30 2328 H 209.739 5.26345 1.58874 0
M  V30 2329 H 210.964 6.47931 2.03377 0
M  V30 2330 H 208.91 5.26117 3.91838 0
M  V30 2331 H 208.827 6.84266 3.21427 0
M  V30 2332 H 210.095 6.4722 4.34427 0
M  V30 2333 N 214.325 -0.140222 1.56975 0
M  V30 2334 C 215.573 -0.850005 1.83356 0
M  V30 2335 C 215.894 -1.81399 0.71551 0
M  V30 2336 O 215.164 -1.94136 -0.262294 0
M  V30 2337 H 213.744 -0.316886 0.676456 0
M  V30 2338 H 216.406 -0.132608 1.94448 0
M  V30 2339 H 215.502 -1.40814 2.78528 0
M  V30 2340 N 215.803 -1.52179 -0.40978 0
M  V30 2341 C 217.052 -1.65434 -1.15388 0
M  V30 2342 C 217.365 -0.390056 -1.91671 0
M  V30 2343 O 218.571 -0.402399 -2.68501 0
M  V30 2344 C 217.027 -2.92279 -2.10003 0
M  V30 2345 C 216.635 -4.25813 -1.39239 0
M  V30 2346 C 218.379 -3.14897 -2.84675 0
M  V30 2347 C 216.286 -5.43782 -2.32498 0
M  V30 2348 H 215.216 -0.616267 -0.434432 0
M  V30 2349 H 217.867 -1.78666 -0.418401 0
M  V30 2350 H 216.249 -2.72744 -2.871 0
M  V30 2351 H 217.423 -4.55828 -0.675099 0
M  V30 2352 H 215.738 -4.09292 -0.766097 0
M  V30 2353 H 218.335 -4.0021 -3.54593 0
M  V30 2354 H 218.678 -2.29103 -3.47588 0
M  V30 2355 H 219.211 -3.34901 -2.14677 0
M  V30 2356 H 215.95 -6.3192 -1.74233 0
M  V30 2357 H 215.47 -5.18106 -3.02201 0
M  V30 2358 H 217.149 -5.76834 -2.93038 0
M  V30 2359 N 217.281 0.66697 -1.42791 0
M  V30 2360 C 218.213 1.7925 -1.42836 0
M  V30 2361 C 219.226 1.59496 -0.326333 0
M  V30 2362 O 220.415 1.6847 -0.589916 0
M  V30 2363 C 217.515 3.16476 -1.21229 0
M  V30 2364 C 216.688 3.63011 -2.44013 0
M  V30 2365 C 215.747 4.78993 -2.17834 0
M  V30 2366 O 214.773 4.89137 -2.91091 0
M  V30 2367 N 215.975 5.68248 -1.18635 0
M  V30 2368 H 218.74 1.79695 -2.39854 0
M  V30 2369 H 216.301 0.850338 -1.37771 0
M  V30 2370 H 218.293 3.91734 -1.01621 0
M  V30 2371 H 216.863 3.10884 -0.32706 0
M  V30 2372 H 216.083 2.78346 -2.79137 0
M  V30 2373 H 217.371 3.90845 -3.25757 0
M  V30 2374 H 216.769 5.62712 -0.580615 0
M  V30 2375 H 215.326 6.43285 -1.05013 0
M  V30 2376 N 218.759 1.29093 0.90403 0
M  V30 2377 C 219.987 1.19689 1.68766 0
M  V30 2378 C 220.402 -0.243113 1.87228 0
M  V30 2379 O 219.759 -1.16326 1.40621 0
M  V30 2380 C 219.81 1.90144 3.07453 0
M  V30 2381 O 219.531 3.2852 2.89838 0
M  V30 2382 C 221.032 1.87162 4.01852 0
M  V30 2383 H 218.252 0.415035 0.527244 0
M  V30 2384 H 220.796 1.7039 1.13082 0
M  V30 2385 H 218.951 1.43289 3.59926 0
M  V30 2386 H 219.365 3.63944 3.77684 0
M  V30 2387 H 220.839 2.41032 4.96596 0
M  V30 2388 H 221.316 0.84617 4.30972 0
M  V30 2389 H 221.922 2.33741 3.5531 0
M  V30 2390 N 220.237 -1.11381 1.11499 0
M  V30 2391 C 221.485 -1.8277 0.862524 0
M  V30 2392 C 221.806 -1.85097 -0.613534 0
M  V30 2393 O 221.076 -1.32198 -1.4457 0
M  V30 2394 H 219.656 -0.676823 0.316101 0
M  V30 2395 H 222.318 -1.34816 1.4075 0
M  V30 2396 H 221.414 -2.86614 1.23527 0
M  V30 2397 N 221.715 -0.905404 -1.28997 0
M  V30 2398 C 223.131 -0.60233 -1.47798 0
M  V30 2399 C 223.331 0.854645 -1.82478 0
M  V30 2400 O 222.387 1.63439 -1.92468 0
M  V30 2401 C 223.7 -1.53306 -2.58685 0
M  V30 2402 C 225.248 -1.53887 -2.72558 0
M  V30 2403 C 225.723 -2.45602 -3.86579 0
M  V30 2404 N 227.214 -2.43681 -3.93921 0
M  V30 2405 C 227.949 -3.11347 -4.81509 0
M  V30 2406 N 227.445 -3.88313 -5.73746 0
M  V30 2407 N 229.238 -3.00476 -4.75048 0
M  V30 2408 H 221.389 -1.84765 -1.04764 0
M  V30 2409 H 223.652 -0.792025 -0.520961 0
M  V30 2410 H 223.358 -2.57141 -2.39941 0
M  V30 2411 H 223.232 -1.25787 -3.55609 0
M  V30 2412 H 225.619 -0.507941 -2.90696 0
M  V30 2413 H 225.7 -1.85447 -1.76191 0
M  V30 2414 H 225.344 -3.48792 -3.69197 0
M  V30 2415 H 225.274 -2.11349 -4.82327 0
M  V30 2416 H 227.765 -1.87767 -3.27951 0
M  V30 2417 H 228.078 -4.36985 -6.37389 0
M  V30 2418 H 226.423 -3.92419 -5.73614 0
M  V30 2419 H 229.614 -2.39858 -4.01977 0
M  V30 2420 H 229.787 -3.53485 -5.43095 0
M  V30 2421 N 223.193 1.4272 -0.668489 0
M  V30 2422 C 224.433 2.03497 -0.19194 0
M  V30 2423 C 224.797 1.51684 1.17712 0
M  V30 2424 O 225.998 2.04205 1.74796 0
M  V30 2425 C 224.269 3.56734 -0.218032 0
M  V30 2426 S 225.828 4.38395 0.188438 0
M  V30 2427 H 222.646 0.706542 -0.0794959 0
M  V30 2428 H 225.248 1.74563 -0.880235 0
M  V30 2429 H 223.952 3.91943 -1.2169 0
M  V30 2430 H 223.483 3.90333 0.490303 0
M  V30 2431 H 225.498 4.75345 1.42345 0
M  V30 2432 N 224.671 0.411399 1.52136 0
M  V30 2433 C 225.917 -0.163888 2.02137 0
M  V30 2434 C 226.25 -1.44597 1.29636 0
M  V30 2435 O 225.525 -1.90272 0.403353 0
M  V30 2436 C 225.808 -0.40927 3.57767 0
M  V30 2437 C 225.661 0.889643 4.40914 0
M  V30 2438 C 226.98 -1.19042 4.23694 0
M  V30 2439 H 224.099 -0.0580896 0.734707 0
M  V30 2440 H 226.741 0.54531 1.82007 0
M  V30 2441 H 224.891 -1.0134 3.7505 0
M  V30 2442 H 226.563 1.52575 4.35337 0
M  V30 2443 H 224.806 1.50011 4.07037 0
M  V30 2444 H 225.477 0.672314 5.4789 0
M  V30 2445 H 227.953 -0.678942 4.10524 0
M  V30 2446 H 226.829 -1.33086 5.32522 0
M  V30 2447 H 227.09 -2.21166 3.82803 0
M  V30 2448 N 226.149 -1.5696 0.141893 0
M  V30 2449 C 227.395 -1.9625 -0.511248 0
M  V30 2450 C 227.728 -1.02654 -1.64851 0
M  V30 2451 O 227.003 -0.0679676 -1.94381 0
M  V30 2452 C 227.286 -3.45285 -1.02227 0
M  V30 2453 C 227.139 -4.49658 0.113138 0
M  V30 2454 C 228.458 -3.96698 -1.90574 0
M  V30 2455 H 225.577 -0.713567 -0.184367 0
M  V30 2456 H 228.219 -1.88698 0.222087 0
M  V30 2457 H 226.369 -3.51852 -1.64719 0
M  V30 2458 H 228.041 -4.55174 0.749302 0
M  V30 2459 H 226.284 -4.26857 0.773026 0
M  V30 2460 H 226.955 -5.51258 -0.286053 0
M  V30 2461 H 229.431 -3.92578 -1.37918 0
M  V30 2462 H 228.307 -5.01453 -2.2324 0
M  V30 2463 H 228.568 -3.3875 -2.84079 0
M  V30 2464 N 227.627 0.131896 -1.57047 0
M  V30 2465 C 228.857 0.855219 -1.88068 0
M  V30 2466 C 229.265 1.74557 -0.729817 0
M  V30 2467 O 228.608 1.81083 0.308962 0
M  V30 2468 C 228.67 1.75119 -3.13964 0
M  V30 2469 C 228.334 1.03646 -4.45091 0
M  V30 2470 C 229.331 0.383276 -5.18485 0
M  V30 2471 C 227.016 1.02148 -4.91804 0
M  V30 2472 C 229.01 -0.275347 -6.36805 0
M  V30 2473 C 226.697 0.359047 -6.10044 0
M  V30 2474 C 227.695 -0.288222 -6.82392 0
M  V30 2475 O 227.383 -0.94011 -7.98384 0
M  V30 2476 H 227.115 0.251864 -0.627328 0
M  V30 2477 H 229.669 0.124782 -2.05021 0
M  V30 2478 H 227.899 2.52295 -2.9306 0
M  V30 2479 H 229.588 2.3478 -3.31109 0
M  V30 2480 H 230.354 0.386562 -4.83457 0
M  V30 2481 H 226.233 1.5147 -4.35405 0
M  V30 2482 H 229.777 -0.781148 -6.93213 0
M  V30 2483 H 225.674 0.35348 -6.44531 0
M  V30 2484 H 226.442 -0.84329 -8.14144 0
M  V30 2485 N 229.106 1.52395 0.401703 0
M  V30 2486 C 230.016 1.7917 1.51444 0
M  V30 2487 C 231.032 0.677691 1.6026 0
M  V30 2488 O 232.208 0.963909 1.76835 0
M  V30 2489 C 229.273 1.94347 2.87107 0
M  V30 2490 C 228.334 3.18257 2.88116 0
M  V30 2491 C 227.567 3.32701 4.17308 0
M  V30 2492 O 227.79 2.52238 5.11598 0
M  V30 2493 O 226.724 4.25891 4.25324 0
M  V30 2494 H 230.55 2.73633 1.31752 0
M  V30 2495 H 228.135 1.3733 0.588296 0
M  V30 2496 H 230.017 2.06109 3.67555 0
M  V30 2497 H 228.692 1.03073 3.06851 0
M  V30 2498 H 227.599 3.11947 2.06494 0
M  V30 2499 H 228.932 4.09336 2.73322 0
M  V30 2500 N 230.584 -0.659388 1.43143 0
M  V30 2501 C 231.832 -1.41654 1.44147 0
M  V30 2502 C 232.153 -1.94893 0.0645739 0
M  V30 2503 O 231.423 -1.74044 -0.899198 0
M  V30 2504 H 230.003 -0.525708 0.530697 0
M  V30 2505 H 232.665 -0.778097 1.78694 0
M  V30 2506 H 231.761 -2.26195 2.1504 0
M  V30 2507 N 232.062 -1.29571 -0.897171 0
M  V30 2508 C 233.01 -1.14802 -2.02295 0
M  V30 2509 C 234.004 -0.0629637 -1.69283 0
M  V30 2510 O 235.21 -0.222945 -1.78614 0
M  V30 2511 H 231.585 -0.354692 -0.663097 0
M  V30 2512 H 233.556 -2.10108 -2.11889 0
M  V30 2513 C 232.305 -0.843966 -3.37302 0
M  V30 2514 H 231.628 -1.67093 -3.63208 0
M  V30 2515 H 233.068 -0.780672 -4.16751 0
M  V30 2516 C 231.527 0.452843 -3.33843 0
M  V30 2517 O 232.057 1.47813 -3.73516 0
M  V30 2518 N 230.263 0.459601 -2.86943 0
M  V30 2519 H 229.81 -0.375213 -2.54853 0
M  V30 2520 H 229.768 1.32726 -2.85011 0
M  V30 2521 N 233.54 1.10788 -1.12088 0
M  V30 2522 C 234.472 2.16816 -0.743213 0
M  V30 2523 C 235.485 1.6119 0.228412 0
M  V30 2524 O 236.674 1.78497 0.0102931 0
M  V30 2525 C 233.774 3.38809 -0.0787313 0
M  V30 2526 C 232.947 4.23885 -1.0789 0
M  V30 2527 C 232.006 5.24334 -0.442713 0
M  V30 2528 O 231.032 5.58497 -1.09864 0
M  V30 2529 N 232.234 5.75079 0.791457 0
M  V30 2530 H 234.999 2.49825 -1.65552 0
M  V30 2531 H 232.56 1.26373 -1.012 0
M  V30 2532 H 234.552 4.03107 0.358766 0
M  V30 2533 H 233.122 3.03805 0.736275 0
M  V30 2534 H 232.342 3.55939 -1.69414 0
M  V30 2535 H 233.63 4.77562 -1.75533 0
M  V30 2536 H 233.028 5.49517 1.3434 0
M  V30 2537 H 231.585 6.4118 1.17183 0
M  V30 2538 N 235.018 0.912232 1.28515 0
M  V30 2539 C 235.965 0.397954 2.27343 0
M  V30 2540 C 236.935 -0.526766 1.57526 0
M  V30 2541 O 238.12 -0.449292 1.85435 0
M  V30 2542 C 235.26 -0.357263 3.43246 0
M  V30 2543 C 234.373 0.599788 4.27816 0
M  V30 2544 C 233.508 -0.173725 5.30916 0
M  V30 2545 C 232.547 0.777039 6.07148 0
M  V30 2546 N 231.684 0.0371398 7.0209 0
M  V30 2547 H 236.524 1.24577 2.70711 0
M  V30 2548 H 234.061 0.625612 1.33133 0
M  V30 2549 H 236.019 -0.8113 4.09236 0
M  V30 2550 H 234.649 -1.16943 3.00872 0
M  V30 2551 H 233.701 1.17235 3.61884 0
M  V30 2552 H 235.013 1.32704 4.80823 0
M  V30 2553 H 234.167 -0.688394 6.02782 0
M  V30 2554 H 232.906 -0.934041 4.78672 0
M  V30 2555 H 231.911 1.3031 5.34134 0
M  V30 2556 H 233.136 1.53689 6.61481 0
M  V30 2557 H 231.082 -0.705213 6.52198 0
M  V30 2558 H 230.999 0.704249 7.52713 0
M  V30 2559 H 232.267 -0.457383 7.78157 0
M  V30 2560 N 236.496 -1.42363 0.676048 0
M  V30 2561 C 237.724 -2.05859 0.207268 0
M  V30 2562 C 238.139 -1.50796 -1.13605 0
M  V30 2563 O 237.496 -0.648265 -1.70598 0
M  V30 2564 C 237.547 -3.61248 0.134975 0
M  V30 2565 O 237.268 -4.1427 1.42521 0
M  V30 2566 C 238.769 -4.41859 -0.357151 0
M  V30 2567 H 235.989 -0.663431 0.100503 0
M  V30 2568 H 238.533 -1.82479 0.923136 0
M  V30 2569 H 236.688 -3.83735 -0.531588 0
M  V30 2570 H 237.102 -5.0815 1.29939 0
M  V30 2571 H 238.576 -5.50847 -0.356641 0
M  V30 2572 H 239.053 -4.16536 -1.39264 0
M  V30 2573 H 239.659 -4.24392 0.27772 0
M  V30 2574 N 237.974 -0.419461 -1.51915 0
M  V30 2575 C 239.214 0.152336 -2.03832 0
M  V30 2576 C 239.578 1.41501 -1.29775 0
M  V30 2577 O 240.779 2.06591 -1.7197 0
M  V30 2578 C 239.05 0.383812 -3.55333 0
M  V30 2579 S 240.609 0.921577 -4.29013 0
M  V30 2580 H 237.427 0.0402193 -0.709862 0
M  V30 2581 H 240.029 -0.574758 -1.8686 0
M  V30 2582 H 238.733 -0.541794 -4.06808 0
M  V30 2583 H 238.264 1.13849 -3.76566 0
M  V30 2584 H 240.279 2.20108 -4.4471 0
M  V30 2585 N 239.452 1.56882 -0.150215 0
M  V30 2586 C 240.362 2.20494 0.801222 0
M  V30 2587 C 241.378 1.19019 1.26927 0
M  V30 2588 O 242.554 1.51607 1.32579 0
M  V30 2589 C 239.619 2.81659 2.02161 0
M  V30 2590 C 238.68 3.9827 1.60249 0
M  V30 2591 C 237.913 4.56508 2.7647 0
M  V30 2592 O 238.136 4.13627 3.92771 0
M  V30 2593 O 237.07 5.46719 2.51757 0
M  V30 2594 H 240.896 3.02315 0.289717 0
M  V30 2595 H 238.481 1.49202 0.0769684 0
M  V30 2596 H 240.363 3.20522 2.73576 0
M  V30 2597 H 239.038 2.02849 2.52258 0
M  V30 2598 H 237.945 3.64117 0.858477 0
M  V30 2599 H 239.278 4.78609 1.14864 0
M  V30 2600 N 240.93 -0.123565 1.57115 0
M  V30 2601 C 242.176 -0.833386 1.84885 0
M  V30 2602 C 242.509 -1.79742 0.735292 0
M  V30 2603 O 241.784 -1.92764 -0.25925 0
M  V30 2604 C 242.067 -1.5873 3.23228 0
M  V30 2605 C 241.92 -0.643183 4.45178 0
M  V30 2606 C 243.239 -2.54453 3.59085 0
M  V30 2607 H 240.358 -0.301518 0.6725 0
M  V30 2608 H 243 -0.097778 1.89748 0
M  V30 2609 H 241.15 -2.21438 3.19214 0
M  V30 2610 H 242.822 -0.0253015 4.61293 0
M  V30 2611 H 241.065 0.0456139 4.33776 0
M  V30 2612 H 241.736 -1.20724 5.38637 0
M  V30 2613 H 244.212 -2.01853 3.63861 0
M  V30 2614 H 243.088 -3.04238 4.5687 0
M  V30 2615 H 243.349 -3.36906 2.86264 0
M  V30 2616 N 242.408 -1.52605 -0.393616 0
M  V30 2617 C 243.633 -1.71592 -1.16495 0
M  V30 2618 C 244.058 -0.43133 -1.83088 0
M  V30 2619 O 243.416 0.612523 -1.7064 0
M  V30 2620 C 243.464 -2.86318 -2.19213 0
M  V30 2621 O 242.568 -2.52969 -3.257 0
M  V30 2622 H 241.909 -0.570734 -0.33935 0
M  V30 2623 H 244.439 -1.99377 -0.459324 0
M  V30 2624 H 244.449 -3.1168 -2.63286 0
M  V30 2625 H 243.124 -3.79511 -1.7013 0
M  V30 2626 H 241.701 -2.38332 -2.86797 0
M  V30 2627 N 243.887 0.651787 -1.4349 0
M  V30 2628 C 244.85 1.74647 -1.48429 0
M  V30 2629 C 245.85 1.56513 -0.368817 0
M  V30 2630 O 247.04 1.62385 -0.630623 0
M  V30 2631 C 244.172 3.13533 -1.33827 0
M  V30 2632 H 245.365 1.71649 -2.4592 0
M  V30 2633 H 242.918 0.863573 -1.30277 0
M  V30 2634 H 243.653 3.22142 -0.37349 0
M  V30 2635 H 243.438 3.28101 -2.14691 0
M  V30 2636 H 244.928 3.93356 -1.40218 0
M  V30 2637 N 245.365 1.30045 0.890287 0
M  V30 2638 C 246.611 1.19747 1.64415 0
M  V30 2639 C 246.966 -0.246591 1.90813 0
M  V30 2640 O 246.259 -1.174 1.51419 0
M  V30 2641 C 246.453 1.95409 2.99249 0
M  V30 2642 C 246.282 3.47025 2.86013 0
M  V30 2643 C 245.052 4.1638 2.86279 0
M  V30 2644 C 247.25 4.42353 2.62351 0
M  V30 2645 N 245.232 5.54293 2.63879 0
M  V30 2646 C 246.603 5.67792 2.49022 0
M  V30 2647 C 248.658 4.32009 2.47533 0
M  V30 2648 C 247.361 6.8406 2.22383 0
M  V30 2649 C 249.387 5.48038 2.22279 0
M  V30 2650 C 248.749 6.72455 2.09722 0
M  V30 2651 H 244.848 0.493223 0.60684 0
M  V30 2652 H 247.432 1.6399 1.04954 0
M  V30 2653 H 245.603 1.53565 3.56752 0
M  V30 2654 H 247.335 1.77298 3.63796 0
M  V30 2655 H 244.09 3.68164 2.97913 0
M  V30 2656 H 244.514 6.26852 2.55706 0
M  V30 2657 H 249.156 3.36503 2.55979 0
M  V30 2658 H 246.874 7.79612 2.12675 0
M  V30 2659 H 250.46 5.41939 2.11643 0
M  V30 2660 H 249.34 7.60722 1.90453 0
M  V30 2661 N 246.843 -1.10192 1.12674 0
M  V30 2662 C 248.083 -1.83825 0.893736 0
M  V30 2663 C 248.447 -1.83341 -0.570082 0
M  V30 2664 O 249.648 -2.52553 -0.920354 0
M  V30 2665 C 247.919 -3.26405 1.45582 0
M  V30 2666 S 249.478 -4.17136 1.36171 0
M  V30 2667 H 246.296 -0.633732 0.322342 0
M  V30 2668 H 248.898 -1.32581 1.43675 0
M  V30 2669 H 247.602 -3.24329 2.51473 0
M  V30 2670 H 247.133 -3.82721 0.910405 0
M  V30 2671 H 249.148 -4.95069 0.334863 0
M  V30 2672 N 248.321 -0.919034 -1.28029 0
M  V30 2673 C 249.732 -0.600735 -1.76771 0
M  V30 2674 C 250.083 0.884024 -1.75156 0
M  V30 2675 O 249.208 1.69163 -1.34956 0
M  V30 2676 C 249.803 -1.08372 -3.21 0
M  V30 2677 C 248.362 -0.816248 -3.67443 0
M  V30 2678 C 247.509 -1.24742 -2.47658 0
M  V30 2679 H 250.46 -1.09974 -1.14418 0
M  V30 2680 H 250.481 -0.427512 -3.78091 0
M  V30 2681 H 249.993 -2.16437 -3.22144 0
M  V30 2682 H 248.094 0.250968 -3.71754 0
M  V30 2683 H 248.207 -1.4277 -4.57333 0
M  V30 2684 H 246.571 -0.666083 -2.45836 0
M  V30 2685 H 247.354 -2.33653 -2.51518 0
M  V30 2686 N 249.799 1.42003 -0.683588 0
M  V30 2687 C 251.048 2.00638 -0.206681 0
M  V30 2688 C 251.361 1.5472 1.19671 0
M  V30 2689 O 252.567 2.05833 1.77045 0
M  V30 2690 C 251.023 3.58487 -0.318632 0
M  V30 2691 C 250.631 4.1339 -1.72663 0
M  V30 2692 C 252.375 4.24384 0.0991141 0
M  V30 2693 C 250.282 5.63633 -1.79087 0
M  V30 2694 H 249.212 0.750408 -0.0735107 0
M  V30 2695 H 251.863 1.62624 -0.850048 0
M  V30 2696 H 250.245 3.94047 0.392781 0
M  V30 2697 H 251.419 3.89273 -2.46583 0
M  V30 2698 H 249.734 3.59976 -2.09299 0
M  V30 2699 H 252.331 5.34652 0.0713833 0
M  V30 2700 H 252.674 4.00505 1.13586 0
M  V30 2701 H 253.207 3.93816 -0.561599 0
M  V30 2702 H 249.946 5.92323 -2.80774 0
M  V30 2703 H 249.466 5.89714 -1.09535 0
M  V30 2704 H 251.145 6.28201 -1.5483 0
M  V30 2705 N 251.277 0.427512 1.51691 0
M  V30 2706 C 252.187 -0.39527 2.31246 0
M  V30 2707 C 253.203 -1.03674 1.39742 0
M  V30 2708 O 254.379 -1.03425 1.72816 0
M  V30 2709 C 251.444 -1.48706 3.13189 0
M  V30 2710 C 250.505 -0.866743 4.20459 0
M  V30 2711 C 249.738 -1.90651 4.98486 0
M  V30 2712 O 249.961 -3.12733 4.77026 0
M  V30 2713 O 248.895 -1.5025 5.82845 0
M  V30 2714 H 252.721 0.253918 3.02637 0
M  V30 2715 H 250.306 0.190274 1.48183 0
M  V30 2716 H 252.188 -2.12047 3.64162 0
M  V30 2717 H 250.863 -2.12051 2.44573 0
M  V30 2718 H 249.77 -0.195544 3.73589 0
M  V30 2719 H 251.103 -0.276934 4.9142 0
M  V30 2720 N 252.755 -1.56801 0.158532 0
M  V30 2721 C 253.718 -2.16138 -0.762705 0
M  V30 2722 C 254.718 -1.1061 -1.16713 0
M  V30 2723 O 255.908 -1.36191 -1.08617 0
M  V30 2724 C 253.04 -2.73386 -2.03649 0
M  V30 2725 H 254.233 -2.98886 -0.246354 0
M  V30 2726 H 251.786 -1.56035 -0.0909744 0
M  V30 2727 H 252.521 -1.94335 -2.59623 0
M  V30 2728 H 252.306 -3.50601 -1.75559 0
M  V30 2729 H 253.796 -3.19065 -2.6942 0
M  V30 2730 N 254.233 0.115231 -1.57178 0
M  V30 2731 C 255.479 0.82357 -1.85325 0
M  V30 2732 C 255.812 1.79349 -0.744814 0
M  V30 2733 O 255.087 1.92899 0.249024 0
M  V30 2734 C 255.37 1.57014 -3.24066 0
M  V30 2735 C 255.223 0.619565 -4.45513 0
M  V30 2736 C 256.542 2.52545 -3.60429 0
M  V30 2737 H 253.661 0.297948 -0.674089 0
M  V30 2738 H 256.303 0.0877138 -1.89797 0
M  V30 2739 H 254.453 2.19742 -3.20383 0
M  V30 2740 H 256.125 0.000837639 -4.613 0
M  V30 2741 H 254.368 -0.0686174 -4.33746 0
M  V30 2742 H 255.039 1.17866 -5.3927 0
M  V30 2743 H 257.515 1.9992 -3.64926 0
M  V30 2744 H 256.391 3.01811 -4.58477 0
M  V30 2745 H 256.652 3.35383 -2.88047 0
M  V30 2746 N 255.711 1.52812 0.385517 0
M  V30 2747 C 256.621 1.80766 1.49535 0
M  V30 2748 C 257.637 0.694651 1.59532 0
M  V30 2749 O 258.813 0.982611 1.75803 0
M  V30 2750 C 255.878 1.97381 2.85029 0
M  V30 2751 C 254.939 3.21295 2.84724 0
M  V30 2752 C 254.172 3.37108 4.13756 0
M  V30 2753 O 254.395 2.5765 5.08893 0
M  V30 2754 O 253.329 4.30378 4.20783 0
M  V30 2755 H 257.155 2.75015 1.28842 0
M  V30 2756 H 254.74 1.37946 0.573697 0
M  V30 2757 H 256.622 2.09996 3.65349 0
M  V30 2758 H 255.297 1.06322 3.05741 0
M  V30 2759 H 254.204 3.1412 2.03174 0
M  V30 2760 H 255.537 4.12212 2.68965 0
M  V30 2761 N 257.189 -0.644168 1.43834 0
M  V30 2762 C 258.099 -1.78563 1.52159 0
M  V30 2763 C 259.115 -1.69147 0.408069 0
M  V30 2764 O 260.291 -1.90156 0.663524 0
M  V30 2765 C 257.356 -3.14888 1.45073 0
M  V30 2766 C 256.417 -3.36034 2.6717 0
M  V30 2767 C 255.65 -4.65855 2.60413 0
M  V30 2768 O 255.873 -5.45805 1.65689 0
M  V30 2769 O 254.807 -4.88918 3.5106 0
M  V30 2770 H 258.633 -1.74494 2.48567 0
M  V30 2771 H 256.218 -0.80378 1.25935 0
M  V30 2772 H 258.1 -3.96179 1.43597 0
M  V30 2773 H 256.775 -3.19528 0.518037 0
M  V30 2774 H 255.682 -2.54472 2.74217 0
M  V30 2775 H 257.015 -3.36247 3.59442 0
M  V30 2776 N 258.668 -1.30515 -0.883378 0
M  V30 2777 C 259.631 -1.1701 -1.97082 0
M  V30 2778 C 260.631 -0.10089 -1.60483 0
M  V30 2779 O 261.821 -0.349127 -1.70666 0
M  V30 2780 C 258.953 -0.793045 -3.31547 0
M  V30 2781 H 260.146 -2.13622 -2.10489 0
M  V30 2782 H 257.699 -1.13935 -1.06998 0
M  V30 2783 H 258.434 0.172499 -3.23841 0
M  V30 2784 H 258.219 -1.56576 -3.5948 0
M  V30 2785 H 259.709 -0.722073 -4.1131 0
M  V30 2786 N 260.146 1.09593 -1.13257 0
M  V30 2787 C 261.557 1.63229 -0.906274 0
M  V30 2788 C 261.908 1.8811 0.557578 0
M  V30 2789 O 261.033 1.62953 1.42391 0
M  V30 2790 C 261.628 2.96535 -1.63867 0
M  V30 2791 C 260.187 3.47003 -1.45828 0
M  V30 2792 C 259.334 2.2145 -1.66898 0
M  V30 2793 H 262.285 0.92978 -1.28611 0
M  V30 2794 H 262.306 3.64411 -1.09476 0
M  V30 2795 H 261.818 2.78394 -2.70404 0
M  V30 2796 H 259.919 3.70272 -0.415848 0
M  V30 2797 H 260.032 4.24551 -2.2202 0
M  V30 2798 H 258.396 2.30022 -1.09371 0
M  V30 2799 H 259.179 2.0583 -2.74752 0
M  V30 2800 N 261.624 0.925811 1.2754 0
M  V30 2801 C 263.04 0.625767 1.46821 0
M  V30 2802 C 263.24 -0.825506 1.83814 0
M  V30 2803 O 262.296 -1.60356 1.95044 0
M  V30 2804 C 263.609 1.57402 2.56213 0
M  V30 2805 C 265.157 1.58204 2.70075 0
M  V30 2806 C 265.632 2.51721 3.82623 0
M  V30 2807 N 267.123 2.49917 3.89994 0
M  V30 2808 C 267.858 3.18968 4.76494 0
M  V30 2809 N 267.354 3.97391 5.67496 0
M  V30 2810 N 269.147 3.07996 4.70208 0
M  V30 2811 H 261.298 1.86409 1.01811 0
M  V30 2812 H 263.561 0.800213 0.508295 0
M  V30 2813 H 263.267 2.60925 2.35819 0
M  V30 2814 H 263.141 1.31428 3.53563 0
M  V30 2815 H 265.528 0.554124 2.89851 0
M  V30 2816 H 265.609 1.88226 1.73218 0
M  V30 2817 H 265.253 3.54622 3.63601 0
M  V30 2818 H 265.183 2.18996 4.78903 0
M  V30 2819 H 267.674 1.9296 3.24923 0
M  V30 2820 H 267.987 4.4707 6.30356 0
M  V30 2821 H 266.332 4.01495 5.67298 0
M  V30 2822 H 269.523 2.46223 3.9811 0
M  V30 2823 H 269.696 3.6208 5.37403 0
M  V30 2824 N 263.102 -1.41638 0.69111 0
M  V30 2825 C 264.513 -1.84346 0.295517 0
M  V30 2826 C 264.864 -1.57833 -1.16547 0
M  V30 2827 O 263.989 -1.04648 -1.89414 0
M  V30 2828 C 264.584 -3.34636 0.529575 0
M  V30 2829 C 263.143 -3.7593 0.187944 0
M  V30 2830 C 262.29 -2.65082 0.814052 0
M  V30 2831 H 265.241 -1.31253 0.892092 0
M  V30 2832 H 265.262 -3.79903 -0.213148 0
M  V30 2833 H 264.774 -3.53901 1.59297 0
M  V30 2834 H 262.875 -3.62268 -0.871367 0
M  V30 2835 H 262.988 -4.74808 0.63985 0
M  V30 2836 H 261.352 -2.53528 0.244017 0
M  V30 2837 H 262.135 -2.87167 1.88123 0
M  V30 2838 N 264.58 -0.43555 -1.51462 0
M  V30 2839 C 265.543 0.365137 -2.26273 0
M  V30 2840 C 266.543 0.951227 -1.29647 0
M  V30 2841 O 267.733 0.825958 -1.53374 0
M  V30 2842 C 264.865 1.51645 -3.05314 0
M  V30 2843 H 266.058 -0.290474 -2.9849 0
M  V30 2844 H 263.611 -0.188676 -1.55157 0
M  V30 2845 H 264.346 2.20816 -2.3751 0
M  V30 2846 H 264.131 1.10238 -3.76284 0
M  V30 2847 H 265.621 2.08218 -3.61987 0
M  V30 2848 N 266.058 1.56714 -0.166846 0
M  V30 2849 C 266.988 2.20754 0.760913 0
M  V30 2850 C 267.969 1.16178 1.24244 0
M  V30 2851 O 269.154 1.44592 1.29641 0
M  V30 2852 C 266.284 2.84478 1.99223 0
M  V30 2853 C 265.238 3.95053 1.64672 0
M  V30 2854 C 264.564 4.45805 2.95232 0
M  V30 2855 C 265.864 5.14865 0.878155 0
M  V30 2856 H 267.558 2.98537 0.22713 0
M  V30 2857 H 265.104 1.43596 0.107805 0
M  V30 2858 H 267.057 3.27951 2.64624 0
M  V30 2859 H 265.781 2.04056 2.55007 0
M  V30 2860 H 264.44 3.52228 1.01641 0
M  V30 2861 H 264.088 3.62181 3.49047 0
M  V30 2862 H 263.788 5.204 2.7287 0
M  V30 2863 H 265.312 4.91962 3.6167 0
M  V30 2864 H 266.726 5.55059 1.43466 0
M  V30 2865 H 265.123 5.95348 0.753738 0
M  V30 2866 H 266.193 4.84735 -0.126377 0
M  V30 2867 N 267.536 -0.106894 1.57237 0
M  V30 2868 C 268.466 -1.13148 2.04254 0
M  V30 2869 C 269.447 -1.42476 0.929224 0
M  V30 2870 O 270.632 -1.52709 1.19973 0
M  V30 2871 C 267.762 -2.4545 2.45706 0
M  V30 2872 C 266.716 -2.30558 3.60592 0
M  V30 2873 C 266.042 -3.67931 3.87983 0
M  V30 2874 C 267.342 -1.75597 4.91897 0
M  V30 2875 H 269.036 -0.740374 2.90101 0
M  V30 2876 H 266.582 -0.354696 1.39563 0
M  V30 2877 H 268.535 -3.17389 2.77205 0
M  V30 2878 H 267.259 -2.86475 1.56843 0
M  V30 2879 H 265.918 -1.61067 3.29322 0
M  V30 2880 H 265.566 -4.06462 2.96306 0
M  V30 2881 H 265.266 -3.58817 4.65322 0
M  V30 2882 H 266.79 -4.41356 4.21945 0
M  V30 2883 H 268.204 -2.37364 5.21854 0
M  V30 2884 H 266.601 -1.77272 5.73319 0
M  V30 2885 H 267.671 -0.714451 4.79608 0
M  V30 2886 N 269.014 -1.53014 -0.377408 0
M  V30 2887 C 269.962 -1.7927 -1.48206 0
M  V30 2888 C 270.956 -0.661195 -1.55963 0
M  V30 2889 O 272.162 -0.843908 -1.58991 0
M  V30 2890 H 268.537 -0.567425 -0.493491 0
M  V30 2891 H 270.508 -2.71753 -1.2326 0
M  V30 2892 C 269.257 -1.98894 -2.85196 0
M  V30 2893 H 268.58 -2.85395 -2.79981 0
M  V30 2894 H 270.02 -2.21249 -3.61698 0
M  V30 2895 C 268.479 -0.764691 -3.28107 0
M  V30 2896 O 269.009 0.0523226 -4.01666 0
M  V30 2897 N 267.215 -0.591493 -2.84517 0
M  V30 2898 H 266.762 -1.25749 -2.24822 0
M  V30 2899 H 266.72 0.226253 -3.13585 0
M  V30 2900 N 270.492 0.636531 -1.44174 0
M  V30 2901 C 271.717 1.42847 -1.50364 0
M  V30 2902 C 272.142 1.87665 -0.127867 0
M  V30 2903 O 271.5 1.58408 0.88185 0
M  V30 2904 C 271.548 2.62854 -2.4686 0
M  V30 2905 O 270.652 3.62501 -1.9664 0
M  V30 2906 H 269.993 0.427642 -0.507955 0
M  V30 2907 H 272.523 0.777422 -1.89255 0
M  V30 2908 H 272.533 3.10465 -2.64718 0
M  V30 2909 H 271.208 2.29578 -3.46795 0
M  V30 2910 H 269.785 3.21735 -1.88523 0
M  V30 2911 N 271.97 1.30982 0.876444 0
M  V30 2912 C 272.933 1.18054 1.96459 0
M  V30 2913 C 273.933 0.109399 1.60427 0
M  V30 2914 O 275.123 0.358173 1.70478 0
M  V30 2915 C 272.255 0.810616 3.31122 0
M  V30 2916 H 273.448 2.14735 2.09354 0
M  V30 2917 H 271.001 1.145 1.06392 0
M  V30 2918 H 271.736 -0.155322 3.23928 0
M  V30 2919 H 271.521 1.58481 3.58645 0
M  V30 2920 H 273.011 0.743876 4.10921 0
M  V30 2921 N 273.449 -1.08991 1.13837 0
M  V30 2922 C 274.359 -2.19301 0.833333 0
M  V30 2923 C 275.375 -1.73026 -0.183847 0
M  V30 2924 O 276.551 -2.01395 -0.0138092 0
M  V30 2925 C 273.616 -3.45323 0.308651 0
M  V30 2926 C 272.677 -4.06255 1.38764 0
M  V30 2927 C 271.91 -5.26262 0.887896 0
M  V30 2928 O 272.133 -5.69747 -0.27287 0
M  V30 2929 O 271.067 -5.78435 1.66421 0
M  V30 2930 H 274.893 -2.47854 1.75506 0
M  V30 2931 H 272.478 -1.18012 0.916166 0
M  V30 2932 H 274.36 -4.21394 0.0216739 0
M  V30 2933 H 273.035 -3.18362 -0.585431 0
M  V30 2934 H 271.942 -3.318 1.72799 0
M  V30 2935 H 273.275 -4.37452 2.25602 0
M  V30 2936 N 274.927 -0.932562 -1.27047 0
M  V30 2937 C 275.875 -0.42603 -2.28665 0
M  V30 2938 C 276.869 0.49219 -1.62092 0
M  V30 2939 O 278.075 0.371355 -1.76128 0
M  V30 2940 H 274.45 -0.119213 -0.742491 0
M  V30 2941 H 276.421 -1.29579 -2.68797 0
M  V30 2942 C 275.17 0.301426 -3.46391 0
M  V30 2943 H 274.493 -0.39595 -3.97834 0
M  V30 2944 H 275.933 0.6202 -4.1944 0
M  V30 2945 C 274.392 1.51616 -3.00856 0
M  V30 2946 O 274.922 2.61476 -3.04948 0
M  V30 2947 N 273.128 1.36969 -2.56296 0
M  V30 2948 H 272.675 0.475873 -2.53166 0
M  V30 2949 H 272.633 2.18368 -2.26192 0
M  V30 2950 N 276.405 1.4127 -0.698611 0
M  V30 2951 C 277.652 2.0118 -0.230865 0
M  V30 2952 C 277.98 1.55338 1.17049 0
M  V30 2953 O 277.235 0.756775 1.80475 0
M  V30 2954 C 277.534 3.56592 -0.240192 0
M  V30 2955 C 277.2 4.21955 -1.58948 0
M  V30 2956 C 275.862 4.39524 -1.95887 0
M  V30 2957 C 278.214 4.58576 -2.47704 0
M  V30 2958 C 275.542 4.90992 -3.2116 0
M  V30 2959 C 277.894 5.11435 -3.72313 0
M  V30 2960 C 276.558 5.27215 -4.0939 0
M  V30 2961 H 275.828 0.736169 -0.0844796 0
M  V30 2962 H 278.475 1.69124 -0.8983 0
M  V30 2963 H 276.78 3.88456 0.510797 0
M  V30 2964 H 278.477 4.00758 0.139296 0
M  V30 2965 H 275.067 4.08657 -1.29219 0
M  V30 2966 H 279.251 4.44654 -2.20445 0
M  V30 2967 H 274.507 5.01393 -3.49878 0
M  V30 2968 H 278.681 5.38752 -4.4127 0
M  V30 2969 H 276.308 5.66859 -5.06533 0
M  V30 2970 N 277.883 0.443576 1.51229 0
M  V30 2971 C 279.111 -0.11929 2.06556 0
M  V30 2972 C 279.526 -1.35921 1.31038 0
M  V30 2973 O 278.883 -1.78675 0.371704 0
M  V30 2974 C 278.934 -0.435228 3.5887 0
M  V30 2975 O 278.655 0.755486 4.31537 0
M  V30 2976 C 280.156 -1.04808 4.30732 0
M  V30 2977 H 277.376 -0.0051584 0.67098 0
M  V30 2978 H 279.92 0.624453 1.94733 0
M  V30 2979 H 278.075 -1.12887 3.70588 0
M  V30 2980 H 278.489 0.483491 5.22267 0
M  V30 2981 H 279.963 -1.2191 5.3837 0
M  V30 2982 H 280.44 -2.03081 3.89429 0
M  V30 2983 H 281.046 -0.393637 4.23474 0
M  V30 2984 N 279.361 -1.56624 0.175154 0
M  V30 2985 C 280.607 -1.9729 -0.469506 0
M  V30 2986 C 280.94 -1.06128 -1.62636 0
M  V30 2987 O 280.215 -0.109183 -1.94193 0
M  V30 2988 C 280.498 -3.47375 -0.948804 0
M  V30 2989 C 280.351 -4.49317 0.208491 0
M  V30 2990 C 281.67 -4.00652 -1.82116 0
M  V30 2991 H 278.789 -0.717317 -0.16919 0
M  V30 2992 H 281.431 -1.88184 0.262062 0
M  V30 2993 H 279.581 -3.55267 -1.57219 0
M  V30 2994 H 281.253 -4.53482 0.845682 0
M  V30 2995 H 279.496 -4.25121 0.863395 0
M  V30 2996 H 280.167 -5.51741 -0.169059 0
M  V30 2997 H 282.643 -3.95416 -1.2956 0
M  V30 2998 H 281.519 -5.06075 -2.12554 0
M  V30 2999 H 281.78 -3.44699 -2.7683 0
M  V30 3000 N 280.839 0.0985539 -1.57292 0
M  V30 3001 C 281.769 1.12064 -2.04851 0
M  V30 3002 C 282.75 1.41981 -0.936767 0
M  V30 3003 O 283.935 1.52071 -1.20781 0
M  V30 3004 C 281.065 2.44144 -2.47004 0
M  V30 3005 C 280.019 2.28643 -3.6181 0
M  V30 3006 C 279.345 3.65869 -3.89929 0
M  V30 3007 C 280.645 1.72986 -4.92822 0
M  V30 3008 H 282.339 0.724979 -2.9049 0
M  V30 3009 H 279.885 0.34729 -1.39749 0
M  V30 3010 H 281.838 3.15914 -2.78884 0
M  V30 3011 H 280.562 2.85639 -1.5836 0
M  V30 3012 H 279.221 1.59318 -3.30172 0
M  V30 3013 H 278.869 4.04885 -2.98458 0
M  V30 3014 H 278.569 3.56344 -4.67218 0
M  V30 3015 H 280.093 4.39112 -4.2428 0
M  V30 3016 H 281.507 2.34593 -5.23105 0
M  V30 3017 H 279.904 1.74229 -5.74251 0
M  V30 3018 H 280.974 0.689007 -4.7998 0
M  V30 3019 N 282.317 1.53212 0.369288 0
M  V30 3020 C 283.566 1.68436 1.10961 0
M  V30 3021 C 283.879 0.440738 1.9057 0
M  V30 3022 O 285.085 0.473446 2.6734 0
M  V30 3023 C 283.541 2.97744 2.0218 0
M  V30 3024 C 283.149 4.29355 1.279 0
M  V30 3025 C 284.893 3.22334 2.76226 0
M  V30 3026 C 282.8 5.49755 2.17999 0
M  V30 3027 H 281.73 0.627568 0.41794 0
M  V30 3028 H 284.381 1.79713 0.370884 0
M  V30 3029 H 282.763 2.8026 2.79768 0
M  V30 3030 H 283.937 4.57458 0.554007 0
M  V30 3031 H 282.252 4.11179 0.657311 0
M  V30 3032 H 284.849 4.09471 3.43857 0
M  V30 3033 H 285.192 2.38238 3.41392 0
M  V30 3034 H 285.725 3.40475 2.05723 0
M  V30 3035 H 282.464 6.36318 1.57417 0
M  V30 3036 H 281.984 5.25937 2.88359 0
M  V30 3037 H 283.663 5.84401 2.77641 0
M  V30 3038 N 283.795 -0.628877 1.44509 0
M  V30 3039 C 284.742 -1.74074 1.51549 0
M  V30 3040 C 285.712 -1.62084 0.363021 0
M  V30 3041 O 286.897 -1.81975 0.573567 0
M  V30 3042 C 284.037 -3.12328 1.46784 0
M  V30 3043 C 283.15 -3.35277 2.72422 0
M  V30 3044 C 282.285 -4.63515 2.59475 0
M  V30 3045 C 281.324 -4.7965 3.80266 0
M  V30 3046 N 280.461 -5.99168 3.65981 0
M  V30 3047 H 285.301 -1.67392 2.46544 0
M  V30 3048 H 282.838 -0.816527 1.22357 0
M  V30 3049 H 284.796 -3.92286 1.42012 0
M  V30 3050 H 283.426 -3.18018 0.553544 0
M  V30 3051 H 282.478 -2.49242 2.87372 0
M  V30 3052 H 283.79 -3.43078 3.62076 0
M  V30 3053 H 282.944 -5.51638 2.52548 0
M  V30 3054 H 281.683 -4.58076 1.67384 0
M  V30 3055 H 280.688 -3.89957 3.87574 0
M  V30 3056 H 281.913 -4.86902 4.73395 0
M  V30 3057 H 279.859 -5.94814 2.76644 0
M  V30 3058 H 279.776 -6.08035 4.49254 0
M  V30 3059 H 281.044 -6.89846 3.6295 0
M  V30 3060 N 285.273 -1.31445 -0.869486 0
M  V30 3061 C 286.221 -1.19067 -1.99814 0
M  V30 3062 C 287.215 -0.0988569 -1.69111 0
M  V30 3063 O 288.421 -0.260781 -1.78101 0
M  V30 3064 H 284.796 -0.368677 -0.655425 0
M  V30 3065 H 286.767 -2.14555 -2.07385 0
M  V30 3066 C 285.516 -0.915323 -3.35436 0
M  V30 3067 H 284.839 -1.74759 -3.59582 0
M  V30 3068 H 286.279 -0.868895 -4.15001 0
M  V30 3069 C 284.738 0.381928 -3.34728 0
M  V30 3070 O 285.268 1.39857 -3.76567 0
M  V30 3071 N 283.474 0.398633 -2.87853 0
M  V30 3072 H 283.021 -0.429186 -2.54 0
M  V30 3073 H 282.979 1.26651 -2.87762 0
M  V30 3074 N 286.751 1.08385 -1.14413 0
M  V30 3075 C 287.699 2.17406 -0.826888 0
M  V30 3076 C 288.693 1.6827 0.195312 0
M  V30 3077 O 289.899 1.79927 0.0513892 0
M  V30 3078 H 286.274 0.70934 -0.249681 0
M  V30 3079 H 288.245 2.41388 -1.75426 0
M  V30 3080 C 286.994 3.46215 -0.320979 0
M  V30 3081 H 286.317 3.84401 -1.0989 0
M  V30 3082 H 287.757 4.23777 -0.137549 0
M  V30 3083 C 286.216 3.23067 0.955472 0
M  V30 3084 O 286.746 3.4668 2.02918 0
M  V30 3085 N 284.952 2.7661 0.890798 0
M  V30 3086 H 284.499 2.57594 0.0168815 0
M  V30 3087 H 284.457 2.61501 1.74542 0
M  V30 3088 N 288.23 0.939286 1.26551 0
M  V30 3089 C 289.479 0.581601 1.93133 0
M  V30 3090 C 289.792 -0.883224 1.74524 0
M  V30 3091 O 290.998 -1.3502 2.35546 0
M  V30 3092 C 289.454 0.989425 3.46032 0
M  V30 3093 C 289.062 2.47573 3.73379 0
M  V30 3094 C 290.806 0.703544 4.18629 0
M  V30 3095 C 288.713 2.82235 5.19709 0
M  V30 3096 H 287.643 0.213803 0.723052 0
M  V30 3097 H 290.294 1.14167 1.4366 0
M  V30 3098 H 288.676 0.357902 3.94379 0
M  V30 3099 H 289.85 3.15614 3.35744 0
M  V30 3100 H 288.165 2.73471 3.1401 0
M  V30 3101 H 290.762 0.938869 5.26393 0
M  V30 3102 H 291.105 -0.359639 4.14744 0
M  V30 3103 H 291.638 1.2947 3.76141 0
M  V30 3104 H 288.377 3.87509 5.28694 0
M  V30 3105 H 287.897 2.18854 5.58447 0
M  V30 3106 H 289.576 2.70599 5.87695 0
M  V30 3107 N 289.708 -1.40897 0.706093 0
M  V30 3108 C 290.985 -1.94868 0.169099 0
M  V30 3109 C 291.365 -1.64485 -1.32318 0
M  V30 3110 O 290.713 -0.95744 -2.07474 0
M  V30 3111 C 290.923 -3.45798 0.471654 0
M  V30 3112 C 292.271 -4.22663 0.405127 0
M  V30 3113 O 293.295 -3.53865 0.407168 0
M  V30 3114 O 292.154 -5.45216 0.374383 0
M  V30 3115 H 289.248 -0.82673 0.0211352 0
M  V30 3116 H 291.794 -1.50558 0.782976 0
M  V30 3117 H 290.566 -3.61235 1.50416 0
M  V30 3118 H 290.189 -3.97225 -0.172666 0
M  V30 3119 N 291.186 -0.45159 -1.50991 0
M  V30 3120 C 292.433 0.110074 -2.02201 0
M  V30 3121 C 292.761 1.4146 -1.33489 0
M  V30 3122 O 292.016 1.90617 -0.443125 0
M  V30 3123 C 292.315 0.361728 -3.55565 0
M  V30 3124 C 291.981 -0.858717 -4.42648 0
M  V30 3125 C 290.643 -1.19338 -4.66167 0
M  V30 3126 C 292.995 -1.67221 -4.93646 0
M  V30 3127 C 290.323 -2.34195 -5.37931 0
M  V30 3128 C 292.675 -2.8119 -5.6667 0
M  V30 3129 C 291.339 -3.15094 -5.88449 0
M  V30 3130 H 290.609 0.040279 -0.739904 0
M  V30 3131 H 293.256 -0.601696 -1.81802 0
M  V30 3132 H 291.561 1.15554 -3.74372 0
M  V30 3133 H 293.258 0.80996 -3.92735 0
M  V30 3134 H 289.848 -0.58796 -4.24548 0
M  V30 3135 H 294.032 -1.42686 -4.75347 0
M  V30 3136 H 289.288 -2.6076 -5.53005 0
M  V30 3137 H 293.462 -3.44585 -6.05173 0
M  V30 3138 H 291.089 -4.04204 -6.43835 0
M  V30 3139 N 292.664 1.56529 -0.183458 0
M  V30 3140 C 294.075 1.83739 0.331177 0
M  V30 3141 C 294.426 1.10373 1.62211 0
M  V30 3142 O 293.551 0.36071 2.13373 0
M  V30 3143 C 294.146 3.33306 0.607646 0
M  V30 3144 C 292.705 3.60969 1.06668 0
M  V30 3145 C 291.852 2.77086 0.109029 0
M  V30 3146 H 294.803 1.53379 -0.407484 0
M  V30 3147 H 294.824 3.51444 1.45832 0
M  V30 3148 H 294.336 3.86677 -0.332086 0
M  V30 3149 H 292.437 3.13021 2.0211 0
M  V30 3150 H 292.55 4.69231 0.967447 0
M  V30 3151 H 290.914 2.47319 0.608714 0
M  V30 3152 H 291.697 3.33241 -0.82494 0
M  V30 3153 N 294.142 -0.090211 1.57342 0
M  V30 3154 C 295.39 -0.791241 1.85967 0
M  V30 3155 C 295.711 -1.7903 0.772859 0
M  V30 3156 O 294.981 -1.94872 -0.200398 0
M  V30 3157 H 293.561 -0.295205 0.686195 0
M  V30 3158 H 296.223 -0.0706782 1.94772 0
M  V30 3159 H 295.319 -1.31882 2.82867 0
M  V30 3160 N 295.62 -1.53406 -0.361157 0
M  V30 3161 C 296.57 -1.76536 -1.44287 0
M  V30 3162 C 297.554 -0.620019 -1.48474 0
M  V30 3163 O 298.746 -0.878834 -1.53641 0
M  V30 3164 C 295.875 -1.96266 -2.81664 0
M  V30 3165 C 294.961 -3.16815 -2.81938 0
M  V30 3166 N 295.352 -4.38637 -2.51855 0
M  V30 3167 C 293.65 -3.17627 -3.13096 0
M  V30 3168 C 294.351 -5.20401 -2.59919 0
M  V30 3169 N 293.327 -4.56712 -2.94814 0
M  V30 3170 H 297.129 -2.68331 -1.19899 0
M  V30 3171 H 294.643 -1.52091 -0.56938 0
M  V30 3172 H 296.64 -2.10966 -3.59582 0
M  V30 3173 H 295.3 -1.05702 -3.07013 0
M  V30 3174 H 296.311 -4.66293 -2.25369 0
M  V30 3175 H 292.988 -2.36971 -3.43731 0
M  V30 3176 H 294.378 -6.27586 -2.39969 0
M  V30 3177 N 297.098 0.621204 -1.44841 0
M  V30 3178 C 298.046 1.75385 -1.52784 0
M  V30 3179 C 299.04 1.64639 -0.398779 0
M  V30 3180 O 300.246 1.70598 -0.574137 0
M  V30 3181 H 296.621 0.579193 -0.479625 0
M  V30 3182 H 298.592 1.6581 -2.48092 0
M  V30 3183 C 297.341 3.13742 -1.4987 0
M  V30 3184 H 296.664 3.22663 -2.36069 0
M  V30 3185 H 298.104 3.92861 -1.59487 0
M  V30 3186 C 296.563 3.36175 -0.220973 0
M  V30 3187 O 297.093 3.95469 0.704782 0
M  V30 3188 N 295.299 2.90348 -0.120963 0
M  V30 3189 H 294.846 2.42278 -0.875162 0
M  V30 3190 H 294.804 3.05732 0.733168 0
M  V30 3191 N 298.576 1.31904 0.862503 0
M  V30 3192 C 299.806 1.24817 1.64634 0
M  V30 3193 C 300.214 -0.187579 1.88268 0
M  V30 3194 O 299.557 -1.13253 1.44635 0
M  V30 3195 C 299.619 1.92996 3.03303 0
M  V30 3196 C 299.283 3.42336 3.02746 0
M  V30 3197 C 300.28 4.37956 2.80162 0
M  V30 3198 C 297.965 3.84147 3.2363 0
M  V30 3199 C 299.959 5.73361 2.78453 0
M  V30 3200 C 297.646 5.19663 3.21549 0
M  V30 3201 C 298.644 6.14081 2.98988 0
M  V30 3202 O 298.332 7.47118 2.96766 0
M  V30 3203 H 298.064 0.432222 0.519769 0
M  V30 3204 H 300.618 1.7445 1.08427 0
M  V30 3205 H 298.848 1.37922 3.61268 0
M  V30 3206 H 300.537 1.79723 3.63943 0
M  V30 3207 H 301.303 4.06981 2.63802 0
M  V30 3208 H 297.182 3.11083 3.40218 0
M  V30 3209 H 300.726 6.4703 2.60763 0
M  V30 3210 H 296.623 5.5027 3.37451 0
M  V30 3211 H 297.391 7.56382 3.12775 0
M  V30 3212 N 300.054 -1.07777 1.14986 0
M  V30 3213 C 301.282 -1.84018 0.945773 0
M  V30 3214 C 301.697 -1.81897 -0.505863 0
M  V30 3215 O 301.054 -1.22726 -1.35072 0
M  V30 3216 C 301.105 -3.31287 1.44677 0
M  V30 3217 O 300.826 -3.33449 2.84154 0
M  V30 3218 C 302.327 -4.24311 1.28355 0
M  V30 3219 H 299.547 -0.580716 0.336169 0
M  V30 3220 H 302.091 -1.36077 1.52654 0
M  V30 3221 H 300.246 -3.76594 0.908625 0
M  V30 3222 H 300.66 -4.25427 3.06777 0
M  V30 3223 H 302.134 -5.2573 1.68261 0
M  V30 3224 H 302.611 -4.38612 0.227184 0
M  V30 3225 H 303.217 -3.84836 1.81056 0
M  V30 3226 N 301.532 -0.945985 -1.26051 0
M  V30 3227 C 302.76 -0.613025 -1.9761 0
M  V30 3228 C 303.175 0.813035 -1.70397 0
M  V30 3229 O 302.532 1.54274 -0.974979 0
M  V30 3230 C 302.583 -0.85159 -3.51326 0
M  V30 3231 O 302.304 -2.22157 -3.77595 0
M  V30 3232 C 303.805 -0.529831 -4.40122 0
M  V30 3233 H 301.025 -0.230593 -0.630133 0
M  V30 3234 H 303.569 -1.268 -1.60443 0
M  V30 3235 H 301.724 -0.243151 -3.86636 0
M  V30 3236 H 302.138 -2.2852 -4.721 0
M  V30 3237 H 303.612 -0.747348 -5.46917 0
M  V30 3238 H 304.089 0.535341 -4.35925 0
M  V30 3239 H 304.695 -1.11721 -4.10364 0
M  V30 3240 N 303.011 1.40521 -0.713556 0
M  V30 3241 C 304.427 1.54839 -0.386907 0
M  V30 3242 C 304.627 1.68532 1.1045 0
M  V30 3243 O 303.683 1.67377 1.89053 0
M  V30 3244 C 304.996 2.77792 -1.15118 0
M  V30 3245 C 306.544 2.91607 -1.13729 0
M  V30 3246 C 307.019 4.1747 -1.88368 0
M  V30 3247 N 308.51 4.24466 -1.85427 0
M  V30 3248 C 309.245 5.20755 -2.40004 0
M  V30 3249 N 308.741 6.22965 -3.03129 0
M  V30 3250 N 310.534 5.1282 -2.30158 0
M  V30 3251 H 302.685 1.29879 -1.68063 0
M  V30 3252 H 304.948 0.627896 -0.710247 0
M  V30 3253 H 304.654 2.73944 -2.20561 0
M  V30 3254 H 304.528 3.6984 -0.741477 0
M  V30 3255 H 306.915 2.94959 -0.0910608 0
M  V30 3256 H 306.996 2.00682 -1.5862 0
M  V30 3257 H 306.64 4.1488 -2.9298 0
M  V30 3258 H 306.57 5.074 -1.40898 0
M  V30 3259 H 309.061 3.51241 -1.3942 0
M  V30 3260 H 309.374 6.92859 -3.42295 0
M  V30 3261 H 307.719 6.23415 -3.07212 0
M  V30 3262 H 310.91 4.31899 -1.80501 0
M  V30 3263 H 311.083 5.87689 -2.72993 0
M  V30 3264 N 304.489 0.459591 1.5075 0
M  V30 3265 C 305.437 -0.354678 2.2988 0
M  V30 3266 C 306.431 -1.00086 1.36672 0
M  V30 3267 O 307.637 -0.933277 1.53915 0
M  V30 3268 H 304.012 -0.13321 0.740107 0
M  V30 3269 H 305.983 0.333269 2.96533 0
M  V30 3270 C 304.732 -1.43073 3.169 0
M  V30 3271 H 304.055 -0.942882 3.88523 0
M  V30 3272 H 305.495 -1.97328 3.75284 0
M  V30 3273 C 303.954 -2.42633 2.33732 0
M  V30 3274 O 304.484 -3.47658 2.01238 0
M  V30 3275 N 302.69 -2.14066 1.9653 0
M  V30 3276 H 302.237 -1.28685 2.23155 0
M  V30 3277 H 302.195 -2.80917 1.41185 0
M  V30 3278 N 305.967 -1.56429 0.191757 0
M  V30 3279 C 307.216 -1.9666 -0.448088 0
M  V30 3280 C 307.529 -1.08136 -1.62991 0
M  V30 3281 O 308.735 -1.38135 -2.33733 0
M  V30 3282 C 307.191 -3.49753 -0.848585 0
M  V30 3283 C 306.799 -4.46935 0.308764 0
M  V30 3284 C 308.543 -3.9876 -1.4557 0
M  V30 3285 C 306.45 -5.91293 -0.112506 0
M  V30 3286 H 305.38 -0.734312 -0.171179 0
M  V30 3287 H 308.031 -1.81301 0.283242 0
M  V30 3288 H 306.413 -3.60604 -1.63649 0
M  V30 3289 H 307.587 -4.47813 1.08627 0
M  V30 3290 H 305.902 -4.08102 0.827158 0
M  V30 3291 H 308.499 -5.04086 -1.78328 0
M  V30 3292 H 308.842 -3.42875 -2.36099 0
M  V30 3293 H 309.375 -3.9101 -0.731836 0
M  V30 3294 H 306.114 -6.51097 0.758514 0
M  V30 3295 H 305.634 -5.93676 -0.854941 0
M  V30 3296 H 307.313 -6.44663 -0.549448 0
M  V30 3297 N 307.445 0.0818655 -1.57387 0
M  V30 3298 C 308.375 1.09885 -2.06028 0
M  V30 3299 C 309.356 1.4098 -0.951774 0
M  V30 3300 O 310.541 1.50781 -1.22387 0
M  V30 3301 C 307.671 2.4151 -2.4958 0
M  V30 3302 C 306.625 2.24792 -3.64215 0
M  V30 3303 C 305.951 3.61712 -3.93787 0
M  V30 3304 C 307.251 1.67749 -4.94629 0
M  V30 3305 H 308.945 0.694128 -2.91243 0
M  V30 3306 H 306.491 0.332448 -1.4011 0
M  V30 3307 H 308.444 3.12939 -2.82219 0
M  V30 3308 H 307.168 2.83943 -1.61381 0
M  V30 3309 H 305.827 1.55807 -3.31843 0
M  V30 3310 H 305.475 4.01697 -3.02735 0
M  V30 3311 H 305.175 3.51368 -4.70971 0
M  V30 3312 H 306.699 4.34587 -4.28913 0
M  V30 3313 H 308.113 2.29032 -5.25564 0
M  V30 3314 H 306.51 1.68128 -5.76067 0
M  V30 3315 H 307.58 0.638059 -4.80684 0
M  V30 3316 N 308.923 1.53595 0.353017 0
M  V30 3317 C 310.334 1.61937 0.929153 0
M  V30 3318 C 310.685 0.494686 1.89861 0
M  V30 3319 O 309.81 -0.377017 2.1309 0
M  V30 3320 C 310.405 2.93526 1.69199 0
M  V30 3321 C 308.964 3.04161 2.21727 0
M  V30 3322 C 308.111 2.57322 1.03348 0
M  V30 3323 H 311.062 1.58155 0.131431 0
M  V30 3324 H 311.083 2.82034 2.55416 0
M  V30 3325 H 310.595 3.75362 0.986144 0
M  V30 3326 H 308.696 2.26938 2.95516 0
M  V30 3327 H 308.809 4.09465 2.48748 0
M  V30 3328 H 307.173 2.12499 1.40414 0
M  V30 3329 H 307.956 3.41588 0.342428 0
M  V30 3330 N 310.401 -0.613514 1.45168 0
M  V30 3331 C 311.649 -1.36997 1.48581 0
M  V30 3332 C 311.97 -1.94589 0.126545 0
M  V30 3333 O 311.24 -1.76816 -0.843372 0
M  V30 3334 H 309.82 -0.508558 0.547154 0
M  V30 3335 H 312.482 -0.720853 1.81079 0
M  V30 3336 H 311.578 -2.1924 2.22127 0
M  V30 3337 N 311.879 -1.3236 -0.855495 0
M  V30 3338 C 312.809 -1.23833 -1.97958 0
M  V30 3339 C 313.79 -0.122361 -1.69659 0
M  V30 3340 O 314.975 -0.30939 -1.9172 0
M  V30 3341 C 312.105 -0.959772 -3.33775 0
M  V30 3342 C 311.059 -2.03689 -3.76424 0
M  V30 3343 C 310.385 -1.61075 -5.09862 0
M  V30 3344 C 311.685 -3.4518 -3.9198 0
M  V30 3345 H 313.379 -2.1788 -2.0535 0
M  V30 3346 H 310.925 -1.04891 -0.986605 0
M  V30 3347 H 312.878 -0.886678 -4.11966 0
M  V30 3348 H 311.602 0.0163404 -3.26596 0
M  V30 3349 H 310.261 -2.10012 -3.00484 0
M  V30 3350 H 309.909 -0.622107 -4.99138 0
M  V30 3351 H 309.609 -2.33143 -5.39368 0
M  V30 3352 H 311.133 -1.55201 -5.90546 0
M  V30 3353 H 312.547 -3.4145 -4.60526 0
M  V30 3354 H 310.944 -4.1559 -4.32903 0
M  V30 3355 H 312.014 -3.84903 -2.94919 0
M  V30 3356 N 313.357 1.07166 -1.15556 0
M  V30 3357 C 314.305 2.16517 -0.8499 0
M  V30 3358 C 315.299 1.68468 0.177454 0
M  V30 3359 O 316.505 1.79971 0.0323026 0
M  V30 3360 H 312.88 0.706652 -0.25719 0
M  V30 3361 H 314.851 2.39514 -1.77976 0
M  V30 3362 C 313.6 3.45855 -0.357682 0
M  V30 3363 H 312.923 3.83214 -1.13961 0
M  V30 3364 H 314.363 4.23607 -0.182489 0
M  V30 3365 C 312.822 3.24062 0.921152 0
M  V30 3366 O 313.352 3.48813 1.9923 0
M  V30 3367 N 311.558 2.77539 0.86141 0
M  V30 3368 H 311.105 2.57598 -0.0104408 0
M  V30 3369 H 311.063 2.63337 1.71758 0
M  V30 3370 N 314.835 0.952656 1.25548 0
M  V30 3371 C 316.084 0.602053 1.92505 0
M  V30 3372 C 316.397 -0.864663 1.75451 0
M  V30 3373 O 317.603 -1.32514 2.36965 0
M  V30 3374 C 316.059 1.02607 3.44963 0
M  V30 3375 C 315.667 2.51519 3.70732 0
M  V30 3376 C 317.411 0.747905 4.1786 0
M  V30 3377 C 315.318 2.87732 5.16686 0
M  V30 3378 H 314.248 0.22146 0.720744 0
M  V30 3379 H 316.899 1.15684 1.42441 0
M  V30 3380 H 315.281 0.399712 3.93978 0
M  V30 3381 H 316.455 3.19157 3.32378 0
M  V30 3382 H 314.77 2.76786 3.11092 0
M  V30 3383 H 317.367 0.994647 5.25367 0
M  V30 3384 H 317.71 -0.315629 4.15102 0
M  V30 3385 H 318.243 1.33452 3.74747 0
M  V30 3386 H 314.982 3.93095 5.24554 0
M  V30 3387 H 314.502 2.24765 5.56094 0
M  V30 3388 H 316.181 2.76817 5.84792 0
M  V30 3389 N 316.313 -1.40141 0.720998 0
M  V30 3390 C 317.541 -2.05096 0.272656 0
M  V30 3391 C 317.956 -1.54334 -1.0875 0
M  V30 3392 O 317.313 -0.702211 -1.6845 0
M  V30 3393 C 317.364 -3.60636 0.249835 0
M  V30 3394 O 317.085 -4.09526 1.55629 0
M  V30 3395 C 318.586 -4.42772 -0.216396 0
M  V30 3396 H 315.806 -0.659897 0.121558 0
M  V30 3397 H 318.35 -1.79449 0.980723 0
M  V30 3398 H 316.505 -3.85232 -0.409237 0
M  V30 3399 H 316.919 -5.03758 1.4604 0
M  V30 3400 H 318.393 -5.51702 -0.181212 0
M  V30 3401 H 318.87 -4.20756 -1.25941 0
M  V30 3402 H 319.476 -4.23294 0.412596 0
M  V30 3403 N 317.792 -0.46758 -1.50504 0
M  V30 3404 C 319.032 0.0874114 -2.04213 0
M  V30 3405 C 319.396 1.37301 -1.34211 0
M  V30 3406 O 320.597 2.01015 -1.78456 0
M  V30 3407 C 318.868 0.270571 -3.56374 0
M  V30 3408 S 320.427 0.784623 -4.31728 0
M  V30 3409 H 317.245 0.0176153 -0.710782 0
M  V30 3410 H 319.847 -0.633915 -1.84937 0
M  V30 3411 H 318.551 -0.670942 -4.04878 0
M  V30 3412 H 318.082 1.01811 -3.79997 0
M  V30 3413 H 320.097 2.05849 -4.51487 0
M  V30 3414 N 319.27 1.56325 -0.20005 0
M  V30 3415 C 320.498 2.02105 0.442874 0
M  V30 3416 C 320.913 1.08014 1.5485 0
M  V30 3417 O 320.27 0.0858797 1.82298 0
M  V30 3418 C 320.321 3.47549 0.994583 0
M  V30 3419 O 320.042 4.38049 -0.0669322 0
M  V30 3420 C 321.543 4.0887 1.7129 0
M  V30 3421 H 318.763 0.661807 0.110691 0
M  V30 3422 H 321.307 2.02134 -0.310207 0
M  V30 3423 H 319.462 3.48204 1.69803 0
M  V30 3424 H 319.876 5.23368 0.344462 0
M  V30 3425 H 321.35 5.12475 2.05118 0
M  V30 3426 H 321.827 3.52615 2.61838 0
M  V30 3427 H 322.433 4.12002 1.05518 0
M  V30 3428 N 320.748 -0.0735177 1.57428 0
M  V30 3429 C 321.995 -0.772999 1.87166 0
M  V30 3430 C 322.323 -1.77665 0.791551 0
M  V30 3431 O 321.578 -1.94541 -0.212636 0
M  V30 3432 C 321.877 -1.51799 3.23561 0
M  V30 3433 C 321.543 -0.654484 4.46125 0
M  V30 3434 C 320.205 -0.416511 4.79394 0
M  V30 3435 C 322.557 -0.0555862 5.2117 0
M  V30 3436 C 319.885 0.429869 5.85123 0
M  V30 3437 C 322.237 0.778239 6.27795 0
M  V30 3438 C 320.901 1.0261 6.59566 0
M  V30 3439 H 320.171 -0.282861 0.684888 0
M  V30 3440 H 322.818 -0.0338272 1.9147 0
M  V30 3441 H 321.123 -2.32932 3.1504 0
M  V30 3442 H 322.82 -2.06397 3.43804 0
M  V30 3443 H 319.41 -0.850091 4.20085 0
M  V30 3444 H 323.594 -0.226558 4.95783 0
M  V30 3445 H 318.85 0.630665 6.08139 0
M  V30 3446 H 323.024 1.24906 6.85107 0
M  V30 3447 H 320.651 1.68371 7.4132 0
M  V30 3448 N 322.226 -1.5378 -0.344866 0
M  V30 3449 C 323.176 -1.78057 -1.42407 0
M  V30 3450 C 324.16 -0.635732 -1.47808 0
M  V30 3451 O 325.352 -0.89508 -1.527 0
M  V30 3452 C 322.481 -1.99242 -2.79566 0
M  V30 3453 C 321.567 -3.19787 -2.78562 0
M  V30 3454 N 321.958 -4.41284 -2.47189 0
M  V30 3455 C 320.256 -3.2093 -3.0971 0
M  V30 3456 C 320.957 -5.23128 -2.54385 0
M  V30 3457 N 319.933 -4.59813 -2.89953 0
M  V30 3458 H 323.735 -2.69588 -1.17046 0
M  V30 3459 H 321.249 -1.52687 -0.553217 0
M  V30 3460 H 323.246 -2.14768 -3.57324 0
M  V30 3461 H 321.906 -1.08953 -3.05875 0
M  V30 3462 H 322.917 -4.68657 -2.20411 0
M  V30 3463 H 319.594 -2.40603 -3.41199 0
M  V30 3464 H 320.984 -6.30096 -2.333 0
M  V30 3465 N 323.704 0.605807 -1.45491 0
M  V30 3466 C 324.651 1.7164 -1.54299 0
M  V30 3467 C 325.621 1.61486 -0.388761 0
M  V30 3468 O 326.806 1.81039 -0.602445 0
M  V30 3469 C 323.946 3.09953 -1.51734 0
M  V30 3470 C 323.059 3.309 -2.77721 0
M  V30 3471 C 322.194 4.59329 -2.66816 0
M  V30 3472 C 321.233 4.7354 -3.87848 0
M  V30 3473 N 320.37 5.9327 -3.75467 0
M  V30 3474 H 325.21 1.63449 -2.49176 0
M  V30 3475 H 322.747 0.796957 -1.23641 0
M  V30 3476 H 324.705 3.89977 -1.48235 0
M  V30 3477 H 323.335 3.17098 -0.604068 0
M  V30 3478 H 322.387 2.44639 -2.913 0
M  V30 3479 H 323.699 3.37274 -3.67488 0
M  V30 3480 H 322.853 5.4755 -2.61292 0
M  V30 3481 H 321.592 4.55355 -1.74651 0
M  V30 3482 H 320.597 3.83741 -3.93729 0
M  V30 3483 H 321.822 4.79309 -4.81082 0
M  V30 3484 H 319.768 5.90338 -2.86072 0
M  V30 3485 H 319.685 6.00811 -4.5887 0
M  V30 3486 H 320.953 6.83984 -3.73879 0
M  V30 3487 N 325.182 1.32811 0.848464 0
M  V30 3488 C 326.41 1.26739 1.63538 0
M  V30 3489 C 326.825 -0.163484 1.88091 0
M  V30 3490 O 326.182 -1.10258 1.45429 0
M  V30 3491 C 326.233 2.03013 2.99112 0
M  V30 3492 O 325.954 3.40518 2.75643 0
M  V30 3493 C 327.455 2.04038 3.93552 0
M  V30 3494 H 324.675 0.437024 0.509167 0
M  V30 3495 H 327.219 1.75033 1.05753 0
M  V30 3496 H 325.374 1.58426 3.53525 0
M  V30 3497 H 325.788 3.79635 3.61908 0
M  V30 3498 H 327.262 2.61877 4.85926 0
M  V30 3499 H 327.739 1.0282 4.26995 0
M  V30 3500 H 328.345 2.486 3.45077 0
M  V30 3501 N 326.66 -1.06551 1.16123 0
M  V30 3502 C 327.592 -2.13908 0.823171 0
M  V30 3503 C 328.605 -1.61926 -0.16843 0
M  V30 3504 O 329.794 -1.78412 0.055962 0
M  V30 3505 C 326.894 -3.38283 0.204424 0
M  V30 3506 C 326.067 -4.19589 1.23548 0
M  V30 3507 C 325.126 -5.2233 0.637011 0
M  V30 3508 O 324.152 -5.54034 1.30516 0
M  V30 3509 N 325.354 -5.77621 -0.577474 0
M  V30 3510 H 328.119 -2.43508 1.74711 0
M  V30 3511 H 325.68 -1.2253 1.05821 0
M  V30 3512 H 327.672 -4.0416 -0.208909 0
M  V30 3513 H 326.242 -3.06329 -0.623012 0
M  V30 3514 H 325.462 -3.49406 1.82507 0
M  V30 3515 H 326.75 -4.70718 1.93137 0
M  V30 3516 H 326.148 -5.54125 -1.13853 0
M  V30 3517 H 324.705 -6.45087 -0.933053 0
M  V30 3518 N 328.138 -0.959301 -1.25041 0
M  V30 3519 C 329.086 -0.474437 -2.2771 0
M  V30 3520 C 330.08 0.457697 -1.631 0
M  V30 3521 O 331.286 0.333912 -1.76876 0
M  V30 3522 H 327.661 -0.134936 -0.739795 0
M  V30 3523 H 329.632 -1.35251 -2.65988 0
M  V30 3524 C 328.381 0.227884 -3.46952 0
M  V30 3525 H 327.704 -0.480248 -3.96905 0
M  V30 3526 H 329.144 0.531091 -4.20661 0
M  V30 3527 C 327.603 1.452 -3.04004 0
M  V30 3528 O 328.133 2.54949 -3.10426 0
M  V30 3529 N 326.339 1.31502 -2.59144 0
M  V30 3530 H 325.886 0.422065 -2.54119 0
M  V30 3531 H 325.844 2.13521 -2.30773 0
M  V30 3532 N 329.616 1.39756 -0.72842 0
M  V30 3533 C 331.027 1.83498 -0.344289 0
M  V30 3534 C 331.378 1.60868 1.12321 0
M  V30 3535 O 330.503 1.09634 1.86573 0
M  V30 3536 C 331.098 3.33114 -0.618112 0
M  V30 3537 C 329.657 3.753 -0.287549 0
M  V30 3538 C 328.804 2.62831 -0.884048 0
M  V30 3539 H 331.755 1.28842 -0.926578 0
M  V30 3540 H 331.776 3.80334 0.112349 0
M  V30 3541 H 331.288 3.49553 -1.68625 0
M  V30 3542 H 329.389 3.64451 0.775012 0
M  V30 3543 H 329.502 4.72945 -0.765512 0
M  V30 3544 H 327.866 2.52792 -0.311149 0
M  V30 3545 H 328.649 2.82078 -1.95671 0
M  V30 3546 N 331.094 0.475555 1.50254 0
M  V30 3547 C 332.026 -0.352649 2.26471 0
M  V30 3548 C 333.039 -0.953165 1.3198 0
M  V30 3549 O 334.228 -0.840815 1.57457 0
M  V30 3550 C 331.328 -1.50902 3.0345 0
M  V30 3551 C 330.501 -1.02047 4.25329 0
M  V30 3552 C 329.56 -2.05142 4.84565 0
M  V30 3553 O 328.586 -1.63023 5.45355 0
M  V30 3554 N 329.788 -3.37987 4.71959 0
M  V30 3555 H 332.553 0.300767 2.98187 0
M  V30 3556 H 330.114 0.306598 1.5897 0
M  V30 3557 H 332.106 -2.19572 3.39956 0
M  V30 3558 H 330.676 -2.06705 2.34504 0
M  V30 3559 H 329.896 -0.159507 3.93877 0
M  V30 3560 H 331.184 -0.672061 5.04342 0
M  V30 3561 H 330.582 -3.74913 4.23623 0
M  V30 3562 H 329.139 -4.02443 5.12721 0
M  V30 3563 N 332.573 -1.56217 0.208337 0
M  V30 3564 C 333.813 -1.99849 -0.428927 0
M  V30 3565 C 334.177 -1.09262 -1.57879 0
M  V30 3566 O 335.378 -1.42185 -2.28116 0
M  V30 3567 C 333.649 -3.46777 -0.864879 0
M  V30 3568 S 335.208 -4.12434 -1.49811 0
M  V30 3569 H 332.026 -0.697742 -0.136665 0
M  V30 3570 H 334.628 -1.92953 0.314519 0
M  V30 3571 H 333.332 -4.10396 -0.0181326 0
M  V30 3572 H 332.863 -3.57518 -1.64147 0
M  V30 3573 H 334.878 -4.10532 -2.78707 0
M  V30 3574 N 334.051 0.0651679 -1.57465 0
M  V30 3575 C 335.462 0.616213 -1.76238 0
M  V30 3576 C 335.813 1.7756 -0.834689 0
M  V30 3577 O 334.938 2.1639 -0.0204156 0
M  V30 3578 C 335.533 1.12462 -3.1959 0
M  V30 3579 C 334.092 1.62147 -3.39684 0
M  V30 3580 C 333.239 0.543739 -2.71917 0
M  V30 3581 H 336.19 -0.161022 -1.57881 0
M  V30 3582 H 336.211 1.99324 -3.24114 0
M  V30 3583 H 335.723 0.280592 -3.87084 0
M  V30 3584 H 333.824 2.48854 -2.77313 0
M  V30 3585 H 333.937 1.69385 -4.48158 0
M  V30 3586 H 332.301 0.990352 -2.34657 0
M  V30 3587 H 333.084 -0.290216 -3.42071 0
M  V30 3588 N 335.529 1.53961 0.336706 0
M  V30 3589 C 336.778 1.70751 1.07363 0
M  V30 3590 C 337.091 0.481061 1.89592 0
M  V30 3591 O 338.297 0.530046 2.66276 0
M  V30 3592 C 336.753 3.01965 1.95818 0
M  V30 3593 C 336.361 4.31971 1.18764 0
M  V30 3594 C 338.105 3.28121 2.69327 0
M  V30 3595 C 336.012 5.54255 2.06289 0
M  V30 3596 H 334.942 0.636292 0.404535 0
M  V30 3597 H 337.593 1.80459 0.332681 0
M  V30 3598 H 335.975 2.86132 2.7376 0
M  V30 3599 H 337.149 4.5853 0.456849 0
M  V30 3600 H 335.464 4.12481 0.569946 0
M  V30 3601 H 338.061 4.16673 3.35094 0
M  V30 3602 H 338.404 2.45426 3.36261 0
M  V30 3603 H 338.937 3.44762 1.98454 0
M  V30 3604 H 335.676 6.39513 1.43885 0
M  V30 3605 H 335.196 5.31935 2.77138 0
M  V30 3606 H 336.875 5.90159 2.65182 0
M  V30 3607 N 337.007 -0.598083 1.45811 0
M  V30 3608 C 338.254 -1.35681 1.50323 0
M  V30 3609 C 338.582 -1.9393 0.148739 0
M  V30 3610 O 337.837 -1.76094 -0.853787 0
M  V30 3611 C 338.136 -2.51669 2.53766 0
M  V30 3612 C 337.802 -2.11508 3.98215 0
M  V30 3613 C 336.464 -2.0027 4.37545 0
M  V30 3614 C 338.816 -1.80308 4.89018 0
M  V30 3615 C 336.144 -1.56067 5.65562 0
M  V30 3616 C 338.496 -1.37589 6.17456 0
M  V30 3617 C 337.16 -1.24916 6.55708 0
M  V30 3618 H 336.43 -0.496492 0.550069 0
M  V30 3619 H 339.077 -0.675052 1.79207 0
M  V30 3620 H 337.382 -3.25225 2.18486 0
M  V30 3621 H 339.079 -3.09895 2.54492 0
M  V30 3622 H 335.669 -2.21185 3.67117 0
M  V30 3623 H 339.853 -1.87884 4.59362 0
M  V30 3624 H 335.109 -1.44886 5.93985 0
M  V30 3625 H 339.283 -1.12495 6.87254 0
M  V30 3626 H 336.91 -0.904386 7.54801 0
M  V30 3627 N 338.485 -1.33259 -0.841409 0
M  V30 3628 C 339.901 -1.12538 -1.13169 0
M  V30 3629 C 340.101 0.0854037 -2.01319 0
M  V30 3630 O 339.157 0.766417 -2.40587 0
M  V30 3631 C 340.47 -2.41156 -1.79623 0
M  V30 3632 C 342.018 -2.47038 -1.922 0
M  V30 3633 C 342.493 -3.7561 -2.6207 0
M  V30 3634 N 343.984 -3.76667 -2.69585 0
M  V30 3635 C 344.719 -4.72861 -3.2433 0
M  V30 3636 N 344.215 -5.79428 -3.79783 0
M  V30 3637 N 346.008 -4.6034 -3.22558 0
M  V30 3638 H 338.159 -2.10868 -0.254676 0
M  V30 3639 H 340.422 -0.931615 -0.175493 0
M  V30 3640 H 340.128 -3.29747 -1.22311 0
M  V30 3641 H 340.002 -2.53114 -2.79666 0
M  V30 3642 H 342.389 -1.58898 -2.48667 0
M  V30 3643 H 342.47 -2.39022 -0.911148 0
M  V30 3644 H 342.114 -4.64131 -2.06263 0
M  V30 3645 H 342.044 -3.80902 -3.63622 0
M  V30 3646 H 344.535 -2.99648 -2.30259 0
M  V30 3647 H 344.848 -6.48867 -4.19752 0
M  V30 3648 H 343.193 -5.83166 -3.78078 0
M  V30 3649 H 346.384 -3.76244 -2.78492 0
M  V30 3650 H 346.557 -5.35478 -3.64921 0
M  V30 3651 N 339.963 1.05934 -1.16686 0
M  V30 3652 C 340.893 2.1546 -0.899949 0
M  V30 3653 C 341.874 1.69391 0.155154 0
M  V30 3654 O 343.059 1.94199 0.00648693 0
M  V30 3655 C 340.189 3.44939 -0.404241 0
M  V30 3656 C 339.143 4.04536 -1.39767 0
M  V30 3657 C 338.469 5.29268 -0.760216 0
M  V30 3658 C 339.769 4.42893 -2.76845 0
M  V30 3659 H 341.463 2.38046 -1.81588 0
M  V30 3660 H 339.009 1.14404 -0.874514 0
M  V30 3661 H 340.962 4.20901 -0.204971 0
M  V30 3662 H 339.686 3.21983 0.547206 0
M  V30 3663 H 338.345 3.30635 -1.58355 0
M  V30 3664 H 337.993 5.02611 0.197831 0
M  V30 3665 H 337.693 5.70101 -1.42332 0
M  V30 3666 H 339.217 6.07924 -0.57105 0
M  V30 3667 H 340.631 5.09921 -2.62019 0
M  V30 3668 H 339.028 4.94721 -3.39663 0
M  V30 3669 H 340.098 3.53584 -3.31823 0
M  V30 3670 N 341.441 0.965919 1.2453 0
M  V30 3671 C 342.689 0.625593 1.92174 0
M  V30 3672 C 343.01 -0.841652 1.75901 0
M  V30 3673 O 342.28 -1.60061 1.12948 0
M  V30 3674 H 340.86 0.228388 0.71123 0
M  V30 3675 H 343.522 1.2266 1.51461 0
M  V30 3676 H 342.618 0.864653 2.99884 0
M  V30 3677 N 342.919 -1.39368 0.735821 0
M  V30 3678 C 344.196 -1.94465 0.210395 0
M  V30 3679 C 344.576 -1.67254 -1.28799 0
M  V30 3680 O 343.924 -1.00123 -2.05396 0
M  V30 3681 C 344.134 -3.4472 0.544897 0
M  V30 3682 C 345.482 -4.21708 0.494689 0
M  V30 3683 O 346.506 -3.52922 0.482136 0
M  V30 3684 O 345.365 -5.44299 0.489947 0
M  V30 3685 H 342.459 -0.826096 0.0386666 0
M  V30 3686 H 345.005 -1.48863 0.814735 0
M  V30 3687 H 343.777 -3.57963 1.58045 0
M  V30 3688 H 343.4 -3.97502 -0.08837 0
M  V30 3689 N 344.397 -0.483516 -1.5 0
M  V30 3690 C 345.646 0.0689102 -2.01582 0
M  V30 3691 C 345.959 1.39655 -1.36952 0
M  V30 3692 O 347.165 2.03465 -1.79762 0
M  V30 3693 C 345.621 0.173302 -3.59483 0
M  V30 3694 C 345.229 -1.14665 -4.33077 0
M  V30 3695 C 346.973 0.677024 -4.19066 0
M  V30 3696 C 344.88 -1.00537 -5.82792 0
M  V30 3697 H 343.81 0.0295277 -0.753422 0
M  V30 3698 H 346.461 -0.620295 -1.72698 0
M  V30 3699 H 344.843 0.926569 -3.85007 0
M  V30 3700 H 346.017 -1.91184 -4.19268 0
M  V30 3701 H 344.332 -1.58244 -3.85159 0
M  V30 3702 H 346.929 0.799952 -5.28682 0
M  V30 3703 H 347.272 1.67151 -3.81269 0
M  V30 3704 H 347.805 -0.0192083 -3.97795 0
M  V30 3705 H 344.544 -1.9736 -6.25083 0
M  V30 3706 H 344.064 -0.280776 -5.99142 0
M  V30 3707 H 345.743 -0.677 -6.43448 0
M  V30 3708 N 345.875 1.56104 -0.216619 0
M  V30 3709 C 347.122 1.98172 0.416416 0
M  V30 3710 C 347.45 1.10413 1.60122 0
M  V30 3711 O 346.705 0.147967 1.9514 0
M  V30 3712 C 347.004 3.45923 0.898464 0
M  V30 3713 C 346.67 4.50559 -0.175288 0
M  V30 3714 C 345.332 4.78897 -0.470271 0
M  V30 3715 C 347.684 5.1334 -0.901728 0
M  V30 3716 C 345.012 5.67299 -1.4963 0
M  V30 3717 C 347.364 6.02853 -1.91705 0
M  V30 3718 C 346.028 6.29537 -2.21901 0
M  V30 3719 H 345.298 0.725164 0.152377 0
M  V30 3720 H 347.945 1.88839 -0.318103 0
M  V30 3721 H 346.25 3.52434 1.71165 0
M  V30 3722 H 347.947 3.75841 1.39803 0
M  V30 3723 H 344.537 4.28551 0.0647806 0
M  V30 3724 H 348.721 4.91521 -0.687072 0
M  V30 3725 H 343.977 5.86239 -1.73592 0
M  V30 3726 H 348.151 6.50552 -2.48505 0
M  V30 3727 H 345.778 6.97835 -3.01548 0
M  V30 3728 N 347.353 -0.0568162 1.57498 0
M  V30 3729 C 348.769 -0.411933 1.54192 0
M  V30 3730 C 348.969 -1.78287 0.938942 0
M  V30 3731 O 348.025 -2.46483 0.547919 0
M  V30 3732 C 349.338 -0.339244 2.9878 0
M  V30 3733 C 350.886 -0.418348 3.10192 0
M  V30 3734 C 351.361 -0.375407 4.56459 0
M  V30 3735 N 352.852 -0.435038 4.61153 0
M  V30 3736 C 353.587 -0.424265 5.71828 0
M  V30 3737 N 353.083 -0.367418 6.91825 0
M  V30 3738 N 354.876 -0.471938 5.60115 0
M  V30 3739 H 347.027 0.840684 1.95055 0
M  V30 3740 H 349.29 0.316987 0.893433 0
M  V30 3741 H 348.996 0.601742 3.46514 0
M  V30 3742 H 348.87 -1.14371 3.59443 0
M  V30 3743 H 351.257 -1.34976 2.62422 0
M  V30 3744 H 351.338 0.414962 2.52412 0
M  V30 3745 H 350.982 0.552219 5.04889 0
M  V30 3746 H 350.912 -1.22645 5.12119 0
M  V30 3747 H 353.403 -0.482612 3.74806 0
M  V30 3748 H 353.716 -0.363535 7.71944 0
M  V30 3749 H 352.061 -0.333879 6.94198 0
M  V30 3750 H 355.252 -0.514145 4.65268 0
M  V30 3751 H 355.425 -0.460073 6.46365 0
M  V30 3752 N 348.832 -1.54138 -0.328536 0
M  V30 3753 C 349.742 -1.86192 -1.42723 0
M  V30 3754 C 350.758 -0.753382 -1.56844 0
M  V30 3755 O 351.934 -1.04718 -1.72035 0
M  V30 3756 C 348.999 -2.07824 -2.77507 0
M  V30 3757 C 348.06 -3.31641 -2.72603 0
M  V30 3758 C 347.293 -3.52232 -4.00959 0
M  V30 3759 O 347.516 -2.7636 -4.9898 0
M  V30 3760 O 346.45 -4.45699 -4.0452 0
M  V30 3761 H 350.276 -2.79608 -1.18547 0
M  V30 3762 H 347.861 -1.3998 -0.522104 0
M  V30 3763 H 349.743 -2.23411 -3.57303 0
M  V30 3764 H 348.418 -1.17596 -3.01584 0
M  V30 3765 H 347.325 -3.21444 -1.91376 0
M  V30 3766 H 348.658 -4.2191 -2.53481 0
M  V30 3767 N 350.31 0.590341 -1.46126 0
M  V30 3768 C 351.538 1.37504 -1.54597 0
M  V30 3769 C 351.953 1.87897 -0.184447 0
M  V30 3770 O 351.31 1.63192 0.816984 0
M  V30 3771 C 351.361 2.56779 -2.54454 0
M  V30 3772 O 351.082 2.08476 -3.85317 0
M  V30 3773 C 352.583 3.49427 -2.72792 0
M  V30 3774 H 349.803 0.420325 -0.523037 0
M  V30 3775 H 352.347 0.718383 -1.91467 0
M  V30 3776 H 350.502 3.1845 -2.20609 0
M  V30 3777 H 350.916 2.86097 -4.396 0
M  V30 3778 H 352.39 4.29619 -3.466 0
M  V30 3779 H 352.867 4.00876 -1.79429 0
M  V30 3780 H 353.473 2.93598 -3.07702 0
M  V30 3781 N 351.788 1.33704 0.83433 0
M  V30 3782 C 353.036 1.25169 1.58673 0
M  V30 3783 C 353.357 -0.18127 1.94156 0
M  V30 3784 O 352.627 -1.11113 1.6134 0
M  V30 3785 H 351.207 0.4603 0.58833 0
M  V30 3786 H 353.869 1.67478 0.996847 0
M  V30 3787 H 352.965 1.84856 2.51465 0
M  V30 3788 N 353.266 -1.05314 1.17247 0
M  V30 3789 C 354.543 -1.75184 0.87005 0
M  V30 3790 C 354.923 -2.01481 -0.629965 0
M  V30 3791 O 354.271 -1.64988 -1.58086 0
M  V30 3792 C 354.481 -3.04594 1.70363 0
M  V30 3793 C 355.829 -3.78567 1.92281 0
M  V30 3794 O 356.853 -3.14461 1.67311 0
M  V30 3795 O 355.712 -4.93755 2.3424 0
M  V30 3796 H 352.806 -0.761729 0.322021 0
M  V30 3797 H 355.352 -1.11493 1.27935 0
M  V30 3798 H 354.124 -2.81201 2.72106 0
M  V30 3799 H 353.747 -3.76022 1.29202 0
M  V30 3800 N 354.744 -0.972509 -1.24016 0
M  V30 3801 C 355.692 -0.498562 -2.27194 0
M  V30 3802 C 356.686 0.440372 -1.63576 0
M  V30 3803 O 357.892 0.315133 -1.7722 0
M  V30 3804 H 354.267 -0.142775 -0.738322 0
M  V30 3805 H 356.238 -1.38065 -2.64539 0
M  V30 3806 C 354.987 0.191072 -3.47175 0
M  V30 3807 H 354.31 -0.522318 -3.96373 0
M  V30 3808 H 355.75 0.486445 -4.212 0
M  V30 3809 C 354.209 1.41967 -3.05527 0
M  V30 3810 O 354.739 2.51642 -3.13112 0
M  V30 3811 N 352.945 1.28746 -2.60524 0
M  V30 3812 H 352.492 0.395089 -2.54552 0
M  V30 3813 H 352.45 2.11061 -2.33025 0
M  V30 3814 N 356.222 1.38976 -0.743202 0
M  V30 3815 C 357.469 2.00343 -0.294752 0
M  V30 3816 C 357.797 1.58983 1.12047 0
M  V30 3817 O 357.052 0.813809 1.77977 0
M  V30 3818 C 357.351 3.55647 -0.353517 0
M  V30 3819 C 357.017 4.16685 -1.72292 0
M  V30 3820 C 355.679 4.3307 -2.09771 0
M  V30 3821 C 358.031 4.50464 -2.62168 0
M  V30 3822 C 355.359 4.80526 -3.36618 0
M  V30 3823 C 357.711 4.99332 -3.88395 0
M  V30 3824 C 356.375 5.13924 -4.25956 0
M  V30 3825 H 355.645 0.733108 -0.107857 0
M  V30 3826 H 358.292 1.6618 -0.951651 0
M  V30 3827 H 356.597 3.89884 0.386954 0
M  V30 3828 H 358.294 4.00998 0.0117269 0
M  V30 3829 H 354.884 4.04339 -1.42155 0
M  V30 3830 H 359.068 4.37416 -2.3448 0
M  V30 3831 H 354.324 4.90008 -3.65653 0
M  V30 3832 H 358.498 5.2444 -4.58187 0
M  V30 3833 H 356.125 5.50457 -5.2431 0
M  V30 3834 N 357.7 0.491464 1.49741 0
M  V30 3835 C 358.925 -0.0557177 2.07325 0
M  V30 3836 C 359.35 -1.30925 1.35056 0
M  V30 3837 O 358.708 -1.76733 0.404365 0
M  V30 3838 C 358.756 -0.302074 3.59333 0
M  V30 3839 O 357.86 -1.37868 3.88672 0
M  V30 3840 H 357.201 0.0219956 0.663636 0
M  V30 3841 H 359.731 0.688352 1.92673 0
M  V30 3842 H 359.741 -0.536464 4.04458 0
M  V30 3843 H 358.416 0.61383 4.11345 0
M  V30 3844 H 356.993 -1.12999 3.55367 0
M  V30 3845 N 359.178 -1.55987 0.224894 0
M  V30 3846 C 360.455 -1.90232 -0.455083 0
M  V30 3847 C 360.835 -1.14269 -1.77499 0
M  V30 3848 O 360.183 -0.253079 -2.27094 0
M  V30 3849 C 360.393 -3.42993 -0.644758 0
M  V30 3850 C 361.741 -4.13821 -0.950669 0
M  V30 3851 O 362.765 -3.4861 -0.731423 0
M  V30 3852 O 361.624 -5.29128 -1.36695 0
M  V30 3853 H 358.718 -0.79108 -0.241084 0
M  V30 3854 H 361.264 -1.67581 0.267327 0
M  V30 3855 H 360.036 -3.90252 0.28613 0
M  V30 3856 H 359.659 -3.71434 -1.41853 0
M  V30 3857 N 360.656 0.0484629 -1.57525 0
M  V30 3858 C 361.902 0.744226 -1.88651 0
M  V30 3859 C 362.235 1.76029 -0.820212 0
M  V30 3860 O 361.51 1.93782 0.166985 0
M  V30 3861 C 361.793 1.43128 -3.30434 0
M  V30 3862 C 361.646 0.43005 -4.47739 0
M  V30 3863 C 362.965 2.37031 -3.70816 0
M  V30 3864 H 360.084 0.269089 -0.68612 0
M  V30 3865 H 362.726 0.00713532 -1.89999 0
M  V30 3866 H 360.876 2.05956 -3.29415 0
M  V30 3867 H 362.548 -0.194816 -4.60888 0
M  V30 3868 H 360.791 -0.252522 -4.33064 0
M  V30 3869 H 361.462 0.948874 -5.43783 0
M  V30 3870 H 363.938 1.84263 -3.73077 0
M  V30 3871 H 362.814 2.82094 -4.70865 0
M  V30 3872 H 363.075 3.22864 -3.02012 0
M  V30 3873 N 362.134 1.5431 0.320358 0
M  V30 3874 C 363.097 1.83195 1.3774 0
M  V30 3875 C 364.097 0.703906 1.44575 0
M  V30 3876 O 365.287 0.972214 1.44546 0
M  V30 3877 C 362.419 1.99487 2.76438 0
M  V30 3878 H 363.612 2.77642 1.1338 0
M  V30 3879 H 361.165 1.46076 0.556012 0
M  V30 3880 H 361.9 1.07262 3.06048 0
M  V30 3881 H 361.685 2.81575 2.7287 0
M  V30 3882 H 363.175 2.23271 3.52902 0
M  V30 3883 N 363.613 -0.582584 1.46437 0
M  V30 3884 C 364.862 -1.337 1.5102 0
M  V30 3885 C 365.175 -1.94891 0.166359 0
M  V30 3886 O 366.381 -2.71351 0.0899954 0
M  V30 3887 C 364.837 -2.42315 2.66104 0
M  V30 3888 C 364.445 -1.87427 4.06909 0
M  V30 3889 C 366.189 -3.19099 2.79958 0
M  V30 3890 C 364.096 -2.93672 5.13333 0
M  V30 3891 H 363.026 -0.502619 0.562041 0
M  V30 3892 H 365.677 -0.621701 1.72647 0
M  V30 3893 H 364.059 -3.16645 2.37807 0
M  V30 3894 H 365.233 -1.19639 4.44998 0
M  V30 3895 H 363.548 -1.2331 3.97723 0
M  V30 3896 H 366.145 -3.9839 3.56636 0
M  V30 3897 H 366.488 -3.71695 1.87479 0
M  V30 3898 H 367.021 -2.51875 3.07902 0
M  V30 3899 H 363.76 -2.45962 6.07604 0
M  V30 3900 H 363.28 -3.59948 4.79789 0
M  V30 3901 H 364.959 -3.5762 5.39182 0
M  V30 3902 N 365.091 -1.34144 -0.827227 0
M  V30 3903 C 366.023 -1.21206 -1.9453 0
M  V30 3904 C 367.036 -0.140176 -1.62195 0
M  V30 3905 O 368.225 -0.391647 -1.7415 0
M  V30 3906 C 365.325 -0.839141 -3.28347 0
M  V30 3907 C 364.498 -2.0051 -3.88734 0
M  V30 3908 C 363.557 -1.61128 -5.00923 0
M  V30 3909 O 362.583 -2.32726 -5.19449 0
M  V30 3910 N 363.785 -0.522958 -5.7814 0
M  V30 3911 H 366.55 -2.17525 -2.06162 0
M  V30 3912 H 364.111 -1.27043 -1.00358 0
M  V30 3913 H 366.103 -0.557556 -4.00841 0
M  V30 3914 H 364.673 0.0337293 -3.12582 0
M  V30 3915 H 363.893 -2.45166 -3.08686 0
M  V30 3916 H 365.181 -2.78498 -4.25812 0
M  V30 3917 H 364.579 0.0723518 -5.65654 0
M  V30 3918 H 363.136 -0.301089 -6.51104 0
M  V30 3919 N 366.569 1.04691 -1.17803 0
M  V30 3920 C 367.817 1.7743 -0.967617 0
M  V30 3921 C 368.138 1.88359 0.504574 0
M  V30 3922 O 367.408 1.40402 1.36617 0
M  V30 3923 H 365.988 0.657242 -0.355024 0
M  V30 3924 H 368.65 1.2638 -1.48371 0
M  V30 3925 H 367.746 2.78924 -1.40027 0
M  V30 3926 N 368.047 0.979072 1.23499 0
M  V30 3927 C 369.295 0.645941 1.91499 0
M  V30 3928 C 369.616 -0.822948 1.76784 0
M  V30 3929 O 368.886 -1.58854 1.14639 0
M  V30 3930 H 367.466 0.235919 0.708767 0
M  V30 3931 H 370.128 1.2426 1.50152 0
M  V30 3932 H 369.224 0.896411 2.9895 0
M  V30 3933 N 369.525 -1.3858 0.750561 0
M  V30 3934 C 370.774 -1.99424 0.302172 0
M  V30 3935 C 371.087 -1.60254 -1.12152 0
M  V30 3936 O 372.293 -2.14046 -1.67023 0
M  V30 3937 C 370.749 -3.56558 0.489307 0
M  V30 3938 C 370.357 -4.04682 1.92189 0
M  V30 3939 C 372.101 -4.24374 0.103478 0
M  V30 3940 C 370.008 -5.54446 2.05775 0
M  V30 3941 H 368.938 -0.746046 0.10923 0
M  V30 3942 H 371.589 -1.58383 0.92667 0
M  V30 3943 H 369.971 -3.95472 -0.204329 0
M  V30 3944 H 371.145 -3.77065 2.64875 0
M  V30 3945 H 369.46 -3.4958 2.26236 0
M  V30 3946 H 372.057 -5.34384 0.183787 0
M  V30 3947 H 372.4 -4.05468 -0.943481 0
M  V30 3948 H 372.933 -3.90688 0.748854 0
M  V30 3949 H 369.672 -5.78252 3.08714 0
M  V30 3950 H 369.192 -5.83816 1.37546 0
M  V30 3951 H 370.871 -6.20099 1.84626 0
M  V30 3952 N 371.003 -0.499398 -1.49478 0
M  V30 3953 C 371.936 0.326491 -2.25852 0
M  V30 3954 C 372.914 0.971776 -1.30366 0
M  V30 3955 O 374.098 1.00219 -1.59651 0
M  V30 3956 C 371.225 1.45969 -3.05632 0
M  V30 3957 C 370.271 0.928938 -4.16261 0
M  V30 3958 S 371.104 -0.179012 -5.35201 0
M  V30 3959 C 372.26 0.957389 -6.18534 0
M  V30 3960 H 372.493 -0.321746 -2.95554 0
M  V30 3961 H 370.026 -0.284674 -1.51753 0
M  V30 3962 H 371.984 2.109 -3.52181 0
M  V30 3963 H 370.645 2.07953 -2.35402 0
M  V30 3964 H 369.838 1.77813 -4.71592 0
M  V30 3965 H 369.44 0.356869 -3.72293 0
M  V30 3966 H 371.732 1.86296 -6.51383 0
M  V30 3967 H 372.675 0.442733 -7.06715 0
M  V30 3968 H 373.083 1.224 -5.5107 0
M  V30 3969 N 372.481 1.55866 -0.233164 0
M  V30 3970 C 373.729 1.9821 0.394593 0
M  V30 3971 C 374.05 1.12234 1.59463 0
M  V30 3972 O 373.32 0.201981 1.94856 0
M  V30 3973 H 371.9 0.732034 0.148778 0
M  V30 3974 H 374.562 1.92107 -0.32876 0
M  V30 3975 H 373.658 3.03845 0.713063 0
M  V30 3976 N 373.959 -0.0401083 1.57549 0
M  V30 3977 C 375.208 -0.732108 1.87944 0
M  V30 3978 C 375.521 -1.77107 0.830206 0
M  V30 3979 O 376.727 -2.51488 1.02302 0
M  V30 3980 C 375.183 -1.35315 3.33494 0
M  V30 3981 C 374.791 -0.351105 4.46622 0
M  V30 3982 C 376.535 -2.02566 3.73051 0
M  V30 3983 C 374.442 -0.979859 5.83226 0
M  V30 3984 H 373.372 -0.277188 0.701201 0
M  V30 3985 H 376.023 0.0138501 1.83495 0
M  V30 3986 H 374.405 -2.14844 3.32653 0
M  V30 3987 H 375.579 0.416674 4.58912 0
M  V30 3988 H 373.894 0.218708 4.15825 0
M  V30 3989 H 376.491 -2.50441 4.72423 0
M  V30 3990 H 376.834 -2.83904 3.04474 0
M  V30 3991 H 377.367 -1.29827 3.76018 0
M  V30 3992 H 374.106 -0.206135 6.55176 0
M  V30 3993 H 373.626 -1.71774 5.74677 0
M  V30 3994 H 375.305 -1.49046 6.29599 0
M  V30 3995 N 375.437 -1.54477 -0.31217 0
M  V30 3996 C 376.347 -1.87695 -1.4074 0
M  V30 3997 C 377.363 -0.769975 -1.56036 0
M  V30 3998 O 378.539 -1.06537 -1.70915 0
M  V30 3999 C 375.604 -2.10755 -2.75287 0
M  V30 4000 C 374.665 -3.34514 -2.69071 0
M  V30 4001 C 373.898 -3.56465 -3.97201 0
M  V30 4002 O 374.121 -2.81637 -4.96021 0
M  V30 4003 O 373.055 -4.49964 -3.9977 0
M  V30 4004 H 376.881 -2.80849 -1.15574 0
M  V30 4005 H 374.466 -1.40526 -0.507228 0
M  V30 4006 H 376.348 -2.27188 -3.54913 0
M  V30 4007 H 375.023 -1.20788 -3.0032 0
M  V30 4008 H 373.93 -3.23456 -1.87955 0
M  V30 4009 H 375.263 -4.24575 -2.48992 0
M  V30 4010 N 376.915 0.57481 -1.46744 0
M  V30 4011 C 378.164 1.32898 -1.51727 0
M  V30 4012 C 378.477 1.948 -0.176692 0
M  V30 4013 O 379.683 2.71299 -0.104385 0
M  V30 4014 C 378.139 2.40901 -2.67385 0
M  V30 4015 C 377.747 1.85266 -4.07898 0
M  V30 4016 C 379.491 3.17609 -2.81646 0
M  V30 4017 C 377.398 2.90945 -5.14883 0
M  V30 4018 H 376.328 0.499631 -0.564699 0
M  V30 4019 H 378.979 0.612536 -1.72975 0
M  V30 4020 H 377.361 3.15379 -2.39483 0
M  V30 4021 H 378.535 1.17278 -4.45626 0
M  V30 4022 H 376.85 1.21199 -3.98371 0
M  V30 4023 H 379.447 3.96493 -3.58744 0
M  V30 4024 H 379.79 3.70696 -1.89448 0
M  V30 4025 H 380.323 2.50239 -3.09233 0
M  V30 4026 H 377.062 2.42736 -6.089 0
M  V30 4027 H 376.582 3.57398 -4.81691 0
M  V30 4028 H 378.261 3.54755 -5.41071 0
M  V30 4029 N 378.394 1.34581 0.820102 0
M  V30 4030 C 379.624 1.29991 1.6058 0
M  V30 4031 C 380.032 -0.127588 1.88769 0
M  V30 4032 O 379.375 -1.08595 1.48165 0
M  V30 4033 C 379.437 2.02548 2.9701 0
M  V30 4034 C 379.101 3.51794 2.91701 0
M  V30 4035 C 380.098 4.46647 2.66087 0
M  V30 4036 C 377.783 3.94249 3.11245 0
M  V30 4037 C 379.777 5.81929 2.60071 0
M  V30 4038 C 377.464 5.2963 3.04853 0
M  V30 4039 C 378.462 6.23282 2.793 0
M  V30 4040 O 378.15 7.56181 2.72847 0
M  V30 4041 H 377.882 0.448539 0.505756 0
M  V30 4042 H 380.436 1.77811 1.02822 0
M  V30 4043 H 378.666 1.49345 3.56697 0
M  V30 4044 H 380.355 1.91211 3.58041 0
M  V30 4045 H 381.121 4.15168 2.5072 0
M  V30 4046 H 377 3.21749 3.30149 0
M  V30 4047 H 380.544 6.54999 2.40046 0
M  V30 4048 H 376.441 5.60727 3.19774 0
M  V30 4049 H 377.209 7.6595 2.88553 0
M  V30 4050 N 379.872 -1.04064 1.18357 0
M  V30 4051 C 381.118 -1.77658 0.990412 0
M  V30 4052 C 381.473 -1.86446 -0.474944 0
M  V30 4053 O 380.766 -1.36153 -1.34807 0
M  V30 4054 C 380.96 -3.20634 1.57888 0
M  V30 4055 C 380.789 -3.25782 3.09994 0
M  V30 4056 C 379.559 -3.34411 3.7881 0
M  V30 4057 C 381.757 -3.13791 4.0748 0
M  V30 4058 N 379.739 -3.28809 5.18418 0
M  V30 4059 C 381.11 -3.15689 5.33611 0
M  V30 4060 C 383.165 -2.97833 3.98998 0
M  V30 4061 C 381.868 -3.03268 6.52243 0
M  V30 4062 C 383.894 -2.86759 5.17227 0
M  V30 4063 C 383.256 -2.893 6.4225 0
M  V30 4064 H 379.355 -0.661901 0.416427 0
M  V30 4065 H 381.939 -1.23968 1.50133 0
M  V30 4066 H 380.11 -3.7267 1.09414 0
M  V30 4067 H 381.842 -3.82525 1.32124 0
M  V30 4068 H 378.597 -3.40144 3.29543 0
M  V30 4069 H 379.021 -3.29448 5.91433 0
M  V30 4070 H 383.663 -2.94698 3.03171 0
M  V30 4071 H 381.381 -3.05156 7.48268 0
M  V30 4072 H 384.967 -2.75465 5.12455 0
M  V30 4073 H 383.847 -2.80818 7.32196 0
M  V30 4074 N 381.35 -0.985608 -1.22978 0
M  V30 4075 C 382.627 -0.573599 -1.87001 0
M  V30 4076 C 383.007 0.949213 -1.88555 0
M  V30 4077 O 382.355 1.82811 -1.37086 0
M  V30 4078 C 382.565 -1.18564 -3.28243 0
M  V30 4079 C 383.913 -1.28163 -4.04796 0
M  V30 4080 O 384.937 -1.13949 -3.37482 0
M  V30 4081 O 383.796 -1.50832 -5.25273 0
M  V30 4082 H 380.89 -0.193868 -0.803955 0
M  V30 4083 H 383.436 -1.08102 -1.30813 0
M  V30 4084 H 382.208 -2.22758 -3.21706 0
M  V30 4085 H 381.831 -0.663363 -3.92027 0
M  V30 4086 N 382.828 1.3818 -0.7579 0
M  V30 4087 C 384.068 2.01864 -0.320968 0
M  V30 4088 C 384.432 1.58863 1.07827 0
M  V30 4089 O 385.633 2.14908 1.61456 0
M  V30 4090 C 383.904 3.54626 -0.44446 0
M  V30 4091 S 385.463 4.38706 -0.0907467 0
M  V30 4092 H 382.281 0.700056 -0.124268 0
M  V30 4093 H 384.883 1.68611 -0.989468 0
M  V30 4094 H 383.587 3.83411 -1.4637 0
M  V30 4095 H 383.118 3.92661 0.241073 0
M  V30 4096 H 385.133 4.83435 1.11826 0
M  V30 4097 N 384.306 0.507319 1.49211 0
M  V30 4098 C 385.254 -0.281364 2.30892 0
M  V30 4099 C 386.248 -0.95687 1.39787 0
M  V30 4100 O 387.454 -0.883838 1.56807 0
M  V30 4101 H 383.829 -0.109597 0.743971 0
M  V30 4102 H 385.8 0.42744 2.95323 0
M  V30 4103 C 384.549 -1.32918 3.21291 0
M  V30 4104 H 383.872 -0.818799 3.91326 0
M  V30 4105 H 385.312 -1.85288 3.81372 0
M  V30 4106 C 383.771 -2.35074 2.41333 0
M  V30 4107 O 384.301 -3.4108 2.12197 0
M  V30 4108 N 382.507 -2.07705 2.03241 0
M  V30 4109 H 382.054 -1.2152 2.27136 0
M  V30 4110 H 382.012 -2.76283 1.50051 0
M  V30 4111 N 385.784 -1.5574 0.241426 0
M  V30 4112 C 386.714 -2.24133 -0.654722 0
M  V30 4113 C 387.695 -1.21974 -1.1856 0
M  V30 4114 O 388.88 -1.50612 -1.22595 0
M  V30 4115 C 386.01 -2.93659 -1.85423 0
M  V30 4116 C 384.964 -4.0246 -1.45636 0
M  V30 4117 C 384.29 -4.59383 -2.73626 0
M  V30 4118 C 385.59 -5.18468 -0.631506 0
M  V30 4119 H 387.284 -2.99281 -0.0844353 0
M  V30 4120 H 384.83 -1.43947 -0.0391707 0
M  V30 4121 H 386.783 -3.40203 -2.48676 0
M  V30 4122 H 385.507 -2.15991 -2.44981 0
M  V30 4123 H 384.166 -3.56676 -0.847202 0
M  V30 4124 H 383.814 -3.78422 -3.3137 0
M  V30 4125 H 383.514 -5.32826 -2.4773 0
M  V30 4126 H 385.038 -5.08658 -3.37786 0
M  V30 4127 H 386.452 -5.61272 -1.1682 0
M  V30 4128 H 384.849 -5.98266 -0.468831 0
M  V30 4129 H 385.919 -4.8358 0.357506 0
M  V30 4130 N 387.262 0.0317525 -1.57568 0
M  V30 4131 C 388.539 0.758366 -1.803 0
M  V30 4132 C 388.919 1.93718 -0.838845 0
M  V30 4133 O 388.267 2.28187 0.119571 0
M  V30 4134 C 388.477 1.19392 -3.27943 0
M  V30 4135 C 389.825 1.61094 -3.92854 0
M  V30 4136 O 390.849 1.28857 -3.32076 0
M  V30 4137 O 389.708 2.20918 -4.99858 0
M  V30 4138 H 386.802 0.366514 -0.741348 0
M  V30 4139 H 389.348 0.00873765 -1.69698 0
M  V30 4140 H 388.12 0.352275 -3.89711 0
M  V30 4141 H 387.743 2.00365 -3.43424 0
M  V30 4142 N 388.74 1.54641 0.303973 0
M  V30 4143 C 390.156 1.45788 0.649463 0
M  V30 4144 C 390.356 0.64666 1.90842 0
M  V30 4145 O 389.412 0.153183 2.52035 0
M  V30 4146 C 390.725 2.89718 0.805227 0
M  V30 4147 C 392.273 2.99742 0.901305 0
M  V30 4148 C 392.748 4.44863 1.08909 0
M  V30 4149 N 394.239 4.48559 1.15536 0
M  V30 4150 C 394.974 5.58026 1.3189 0
M  V30 4151 N 394.47 6.77422 1.45161 0
M  V30 4152 N 396.263 5.45708 1.34755 0
M  V30 4153 H 388.414 2.05854 -0.523237 0
M  V30 4154 H 390.677 0.932186 -0.172431 0
M  V30 4155 H 390.383 3.51666 -0.0489108 0
M  V30 4156 H 390.257 3.36964 1.69513 0
M  V30 4157 H 392.644 2.3791 1.74593 0
M  V30 4158 H 392.725 2.55797 -0.0125531 0
M  V30 4159 H 392.369 5.07288 0.249241 0
M  V30 4160 H 392.299 4.86436 2.01713 0
M  V30 4161 H 394.79 3.6254 1.06646 0
M  V30 4162 H 395.103 7.56604 1.57387 0
M  V30 4163 H 393.448 6.80292 1.42223 0
M  V30 4164 H 396.639 4.51378 1.23996 0
M  V30 4165 H 396.812 6.3107 1.47157 0
M  V30 4166 N 390.218 -0.567019 1.47046 0
M  V30 4167 C 391.464 -1.32434 1.54379 0
M  V30 4168 C 391.819 -1.91365 0.199276 0
M  V30 4169 O 391.112 -1.74378 -0.793915 0
M  V30 4170 C 391.306 -2.4623 2.59047 0
M  V30 4171 C 391.135 -1.98448 4.03545 0
M  V30 4172 C 389.905 -1.82741 4.71098 0
M  V30 4173 C 392.103 -1.53477 4.90866 0
M  V30 4174 N 390.085 -1.29196 6.00151 0
M  V30 4175 C 391.456 -1.1163 6.09868 0
M  V30 4176 C 393.511 -1.41438 4.77388 0
M  V30 4177 C 392.214 -0.589425 7.16881 0
M  V30 4178 C 394.24 -0.901528 5.84488 0
M  V30 4179 C 393.602 -0.492932 7.02673 0
M  V30 4180 H 389.701 -0.477005 0.61967 0
M  V30 4181 H 392.285 -0.643856 1.83746 0
M  V30 4182 H 390.456 -3.11821 2.31564 0
M  V30 4183 H 392.188 -3.13213 2.56281 0
M  V30 4184 H 388.943 -2.05162 4.26855 0
M  V30 4185 H 389.367 -1.0454 6.6888 0
M  V30 4186 H 394.009 -1.71643 3.86392 0
M  V30 4187 H 391.727 -0.274994 8.07632 0
M  V30 4188 H 395.313 -0.812071 5.76105 0
M  V30 4189 H 394.193 -0.102227 7.84133 0
M  V30 4190 N 391.696 -1.35014 -0.812953 0
M  V30 4191 C 392.943 -1.27931 -1.56971 0
M  V30 4192 C 393.271 0.148034 -1.93936 0
M  V30 4193 O 392.526 1.11175 -1.61054 0
M  V30 4194 C 392.825 -2.12524 -2.87347 0
M  V30 4195 C 392.491 -3.61401 -2.6963 0
M  V30 4196 C 391.153 -4.01983 -2.64506 0
M  V30 4197 C 393.505 -4.55894 -2.52607 0
M  V30 4198 C 390.833 -5.35235 -2.40293 0
M  V30 4199 C 393.185 -5.89336 -2.29925 0
M  V30 4200 C 391.849 -6.2907 -2.23219 0
M  V30 4201 H 391.119 -0.468131 -0.574399 0
M  V30 4202 H 393.766 -1.66851 -0.939836 0
M  V30 4203 H 392.071 -1.66463 -3.54679 0
M  V30 4204 H 393.768 -2.04383 -3.45005 0
M  V30 4205 H 390.358 -3.29193 -2.74463 0
M  V30 4206 H 394.542 -4.25431 -2.55583 0
M  V30 4207 H 389.798 -5.65028 -2.33566 0
M  V30 4208 H 393.972 -6.62139 -2.15743 0
M  V30 4209 H 391.599 -7.32256 -2.04219 0
M  V30 4210 N 393.175 1.03435 -1.18907 0
M  V30 4211 C 394.125 2.09924 -0.889706 0
M  V30 4212 C 395.109 1.60261 0.143216 0
M  V30 4213 O 396.301 1.76892 -0.0617122 0
M  V30 4214 C 393.43 3.40669 -0.424168 0
M  V30 4215 C 392.516 3.97082 -1.48952 0
M  V30 4216 N 392.907 4.27227 -2.70759 0
M  V30 4217 C 391.205 4.25029 -1.35152 0
M  V30 4218 C 391.906 4.7246 -3.39347 0
M  V30 4219 N 390.882 4.7366 -2.66735 0
M  V30 4220 H 394.684 2.31116 -1.81555 0
M  V30 4221 H 392.198 1.21246 -1.08042 0
M  V30 4222 H 394.195 4.16461 -0.191176 0
M  V30 4223 H 392.855 3.20901 0.495263 0
M  V30 4224 H 393.866 4.16678 -3.0757 0
M  V30 4225 H 390.543 4.14554 -0.495126 0
M  V30 4226 H 391.933 5.04751 -4.43481 0
M  V30 4227 N 394.653 0.992116 1.22453 0
M  V30 4228 C 395.603 0.512969 2.22155 0
M  V30 4229 C 396.587 -0.418416 1.55364 0
M  V30 4230 O 397.779 -0.245363 1.75291 0
M  V30 4231 C 394.908 -0.171822 3.4287 0
M  V30 4232 C 393.994 0.779822 4.16869 0
M  V30 4233 N 394.385 1.92734 4.6764 0
M  V30 4234 C 392.683 0.59554 4.42006 0
M  V30 4235 C 393.384 2.52458 5.24061 0
M  V30 4236 N 392.36 1.80735 5.12675 0
M  V30 4237 H 396.162 1.38817 2.5905 0
M  V30 4238 H 393.676 0.854277 1.38115 0
M  V30 4239 H 395.673 -0.532469 4.13486 0
M  V30 4240 H 394.333 -1.04317 3.07487 0
M  V30 4241 H 395.344 2.30816 4.63621 0
M  V30 4242 H 392.021 -0.229805 4.16867 0
M  V30 4243 H 393.411 3.49433 5.73887 0
M  V30 4244 N 396.131 -1.37776 0.765217 0
M  V30 4245 C 397.371 -2.01691 0.331669 0
M  V30 4246 C 397.735 -1.59432 -1.06983 0
M  V30 4247 O 398.936 -2.15761 -1.60314 0
M  V30 4248 C 397.207 -3.54385 0.463261 0
M  V30 4249 S 398.766 -4.38652 0.114011 0
M  V30 4250 H 395.584 -0.699387 0.127979 0
M  V30 4251 H 398.186 -1.68084 0.998396 0
M  V30 4252 H 396.89 -3.82629 1.48401 0
M  V30 4253 H 396.421 -3.92783 -0.220246 0
M  V30 4254 H 398.436 -4.84021 -1.09261 0
M  V30 4255 N 397.609 -0.515225 -1.4894 0
M  V30 4256 C 399.025 -0.172099 -1.58669 0
M  V30 4257 C 399.225 1.32405 -1.51892 0
M  V30 4258 O 398.281 2.10116 -1.40027 0
M  V30 4259 C 399.594 -0.761533 -2.90897 0
M  V30 4260 C 401.142 -0.728926 -3.04394 0
M  V30 4261 C 401.617 -1.29667 -4.39261 0
M  V30 4262 N 403.108 -1.25799 -4.4579 0
M  V30 4263 C 403.843 -1.66733 -5.48623 0
M  V30 4264 N 403.339 -2.15327 -6.58488 0
M  V30 4265 N 405.132 -1.58061 -5.39419 0
M  V30 4266 H 397.283 -1.48778 -1.51588 0
M  V30 4267 H 399.546 -0.617968 -0.718901 0
M  V30 4268 H 399.252 -1.81136 -3.01468 0
M  V30 4269 H 399.126 -0.230106 -3.76497 0
M  V30 4270 H 401.513 0.312098 -2.93445 0
M  V30 4271 H 401.594 -1.29766 -2.20442 0
M  V30 4272 H 401.238 -2.33655 -4.50963 0
M  V30 4273 H 401.168 -0.703752 -5.21876 0
M  V30 4274 H 403.659 -0.902102 -3.66975 0
M  V30 4275 H 403.972 -2.44594 -7.33071 0
M  V30 4276 H 402.317 -2.19311 -6.59491 0
M  V30 4277 H 405.508 -1.19906 -4.52482 0
M  V30 4278 H 405.681 -1.90284 -6.19432 0
M  V30 4279 N 399.087 1.5561 -0.249682 0
M  V30 4280 C 400.498 1.84979 0.252949 0
M  V30 4281 C 400.849 1.17153 1.57384 0
M  V30 4282 O 399.974 0.450884 2.11651 0
M  V30 4283 C 400.569 3.35584 0.465732 0
M  V30 4284 C 399.128 3.65169 0.912624 0
M  V30 4285 C 398.275 2.77299 -0.00859085 0
M  V30 4286 H 401.226 1.51513 -0.47217 0
M  V30 4287 H 401.247 3.57313 1.30795 0
M  V30 4288 H 400.759 3.8492 -0.49579 0
M  V30 4289 H 398.86 3.21312 1.88652 0
M  V30 4290 H 398.973 4.72912 0.767559 0
M  V30 4291 H 397.337 2.49678 0.50327 0
M  V30 4292 H 398.12 3.29442 -0.965537 0
M  V30 4293 N 400.565 -0.0233959 1.57583 0
M  V30 4294 C 401.512 -1.02224 2.06927 0
M  V30 4295 C 402.482 -1.35575 0.959617 0
M  V30 4296 O 403.667 -1.45815 1.23055 0
M  V30 4297 C 400.807 -2.31636 2.5581 0
M  V30 4298 C 399.92 -2.04394 3.80588 0
M  V30 4299 C 399.055 -3.27717 4.18061 0
M  V30 4300 C 398.094 -2.96056 5.3574 0
M  V30 4301 N 397.231 -4.11847 5.68618 0
M  V30 4302 H 402.071 -0.594504 2.9201 0
M  V30 4303 H 399.608 -0.281921 1.44373 0
M  V30 4304 H 401.566 -3.07258 2.82221 0
M  V30 4305 H 400.196 -2.72122 1.73636 0
M  V30 4306 H 399.248 -1.19244 3.61227 0
M  V30 4307 H 400.56 -1.77042 4.66323 0
M  V30 4308 H 399.714 -4.11702 4.4563 0
M  V30 4309 H 398.453 -3.58188 3.30988 0
M  V30 4310 H 397.458 -2.10474 5.07918 0
M  V30 4311 H 398.683 -2.66857 6.24471 0
M  V30 4312 H 396.629 -4.42258 4.84504 0
M  V30 4313 H 396.546 -3.87938 6.48876 0
M  V30 4314 H 397.814 -4.96689 6.00766 0
M  V30 4315 N 402.043 -1.548 -0.295768 0
M  V30 4316 C 403.273 -1.78069 -1.04762 0
M  V30 4317 C 403.681 -0.542847 -1.81245 0
M  V30 4318 O 403.024 0.497051 -1.76848 0
M  V30 4319 C 403.086 -2.93881 -2.07061 0
M  V30 4320 C 402.75 -4.31777 -1.49725 0
M  V30 4321 C 403.747 -5.11613 -0.924581 0
M  V30 4322 C 401.432 -4.78389 -1.5313 0
M  V30 4323 C 403.426 -6.36184 -0.393594 0
M  V30 4324 C 401.113 -6.02921 -0.996447 0
M  V30 4325 C 402.111 -6.81654 -0.428569 0
M  V30 4326 O 401.799 -8.0384 0.0981593 0
M  V30 4327 H 401.531 -0.597475 -0.316226 0
M  V30 4328 H 404.085 -2.02584 -0.338973 0
M  V30 4329 H 402.315 -2.65003 -2.81621 0
M  V30 4330 H 404.004 -3.04679 -2.6819 0
M  V30 4331 H 404.77 -4.76743 -0.891136 0
M  V30 4332 H 400.649 -4.17132 -1.9627 0
M  V30 4333 H 404.193 -6.97582 0.0503014 0
M  V30 4334 H 400.09 -6.37277 -1.02706 0
M  V30 4335 H 400.858 -8.18499 -0.0146455 0
M  V30 4336 N 403.521 0.559213 -1.47345 0
M  V30 4337 C 404.746 1.34676 -1.57725 0
M  V30 4338 C 405.171 1.86723 -0.227164 0
M  V30 4339 O 404.529 1.6286 0.796642 0
M  V30 4340 C 404.577 2.49399 -2.60447 0
M  V30 4341 O 403.681 3.51567 -2.15578 0
M  V30 4342 H 403.022 0.400115 -0.52991 0
M  V30 4343 H 405.552 0.676009 -1.93109 0
M  V30 4344 H 405.562 2.95996 -2.80803 0
M  V30 4345 H 404.237 2.10873 -3.58477 0
M  V30 4346 H 402.814 3.11289 -2.05313 0
M  V30 4347 N 404.999 1.35443 0.805782 0
M  V30 4348 C 406.246 1.28761 1.56291 0
M  V30 4349 C 406.574 -0.137747 1.94012 0
M  V30 4350 O 405.829 -1.1032 1.61642 0
M  V30 4351 C 406.128 2.14045 2.86216 0
M  V30 4352 C 405.794 3.62826 2.67709 0
M  V30 4353 C 404.456 4.0338 2.6237 0
M  V30 4354 C 406.808 4.57227 2.50186 0
M  V30 4355 C 404.136 5.36501 2.37451 0
M  V30 4356 C 406.488 5.90547 2.26797 0
M  V30 4357 C 405.152 6.30245 2.1988 0
M  V30 4358 H 404.422 0.471171 0.571908 0
M  V30 4359 H 407.069 1.67347 0.930974 0
M  V30 4360 H 405.374 1.68342 3.53791 0
M  V30 4361 H 407.071 2.0621 3.43917 0
M  V30 4362 H 403.661 3.30644 2.72713 0
M  V30 4363 H 407.845 4.2678 2.53323 0
M  V30 4364 H 403.101 5.66259 2.30567 0
M  V30 4365 H 407.275 6.63274 2.12228 0
M  V30 4366 H 404.902 7.33328 2.00333 0
M  V30 4367 N 406.477 -1.02803 1.19454 0
M  V30 4368 C 407.893 -1.28473 0.946937 0
M  V30 4369 C 408.093 -1.97881 -0.380202 0
M  V30 4370 O 407.149 -2.26719 -1.11151 0
M  V30 4371 C 408.462 -2.13099 2.12154 0
M  V30 4372 C 410.01 -2.26404 2.16126 0
M  V30 4373 C 410.485 -3.14402 3.33039 0
M  V30 4374 N 411.976 -3.21991 3.32981 0
M  V30 4375 C 412.711 -3.90272 4.20089 0
M  V30 4376 N 412.207 -4.60777 5.17355 0
M  V30 4377 N 414 -3.8668 4.07964 0
M  V30 4378 H 406.151 -0.561665 2.04839 0
M  V30 4379 H 408.414 -0.310438 0.89573 0
M  V30 4380 H 408.12 -1.69422 3.08203 0
M  V30 4381 H 407.994 -3.13813 2.09287 0
M  V30 4382 H 410.381 -2.69311 1.20647 0
M  V30 4383 H 410.462 -1.25237 2.23045 0
M  V30 4384 H 410.106 -2.72204 4.28798 0
M  V30 4385 H 410.036 -4.1563 3.23356 0
M  V30 4386 H 412.527 -2.71778 2.62574 0
M  V30 4387 H 412.84 -5.10513 5.80169 0
M  V30 4388 H 411.185 -4.5964 5.21302 0
M  V30 4389 H 414.376 -3.30739 3.31254 0
M  V30 4390 H 414.549 -4.39621 4.76064 0
M  V30 4391 N 407.956 -0.998596 -1.21925 0
M  V30 4392 C 409.372 -0.710303 -1.42923 0
M  V30 4393 C 409.572 0.716933 -1.88314 0
M  V30 4394 O 408.628 1.48712 -2.04062 0
M  V30 4395 C 409.941 -1.72072 -2.466 0
M  V30 4396 C 411.489 -1.73681 -2.60392 0
M  V30 4397 C 411.964 -2.73601 -3.67296 0
M  V30 4398 N 413.455 -2.7223 -3.7476 0
M  V30 4399 C 414.19 -3.46206 -4.57087 0
M  V30 4400 N 413.686 -4.29802 -5.43362 0
M  V30 4401 N 415.479 -3.34886 -4.51451 0
M  V30 4402 H 407.63 -1.92028 -0.9077 0
M  V30 4403 H 409.893 -0.828487 -0.460775 0
M  V30 4404 H 409.599 -2.74231 -2.20206 0
M  V30 4405 H 409.473 -1.51818 -3.45299 0
M  V30 4406 H 411.86 -0.722173 -2.86127 0
M  V30 4407 H 411.941 -1.98005 -1.61949 0
M  V30 4408 H 411.585 -3.75217 -3.42307 0
M  V30 4409 H 411.515 -2.46545 -4.65321 0
M  V30 4410 H 414.006 -2.11576 -3.1312 0
M  V30 4411 H 414.319 -4.83061 -6.03218 0
M  V30 4412 H 412.664 -4.33887 -5.42925 0
M  V30 4413 H 415.855 -2.69015 -3.83078 0
M  V30 4414 H 416.028 -3.92796 -5.15379 0
M  V30 4415 N 409.434 1.37368 -0.772513 0
M  V30 4416 C 410.364 2.32856 -0.173304 0
M  V30 4417 C 411.345 1.55818 0.682262 0
M  V30 4418 O 412.53 1.84052 0.619566 0
M  V30 4419 C 409.66 3.40048 0.706007 0
M  V30 4420 C 408.614 4.27973 -0.0483144 0
M  V30 4421 C 407.94 5.26184 0.950491 0
M  V30 4422 C 409.24 5.07665 -1.22776 0
M  V30 4423 H 410.934 2.83217 -0.971002 0
M  V30 4424 H 408.48 1.3617 -0.468377 0
M  V30 4425 H 410.433 4.05827 1.13501 0
M  V30 4426 H 409.157 2.88214 1.53623 0
M  V30 4427 H 407.816 3.63726 -0.458107 0
M  V30 4428 H 407.464 4.7063 1.77529 0
M  V30 4429 H 407.164 5.85872 0.450314 0
M  V30 4430 H 408.688 5.94838 1.37842 0
M  V30 4431 H 410.102 5.66578 -0.875366 0
M  V30 4432 H 408.499 5.76681 -1.66007 0
M  V30 4433 H 409.569 4.40294 -2.03149 0
M  V30 4434 N 410.912 0.523116 1.48665 0
M  V30 4435 C 412.189 -0.0775449 1.95446 0
M  V30 4436 C 412.569 -1.5197 1.4652 0
M  V30 4437 O 411.917 -2.17876 0.688657 0
M  V30 4438 C 412.127 0.0326135 3.48985 0
M  V30 4439 C 413.475 -0.130141 4.24401 0
M  V30 4440 O 414.499 -0.0415142 3.56176 0
M  V30 4441 O 413.358 -0.31491 5.45592 0
M  V30 4442 H 410.452 -0.0831012 0.822814 0
M  V30 4443 H 412.998 0.587227 1.59216 0
M  V30 4444 H 411.77 1.03748 3.77296 0
M  V30 4445 H 411.393 -0.671317 3.91892 0
M  V30 4446 N 412.39 -1.55475 0.257931 0
M  V30 4447 C 413.667 -1.91155 -0.414629 0
M  V30 4448 C 414.047 -1.18008 -1.75035 0
M  V30 4449 O 413.395 -0.301193 -2.26506 0
M  V30 4450 C 413.605 -3.44283 -0.571859 0
M  V30 4451 C 414.953 -4.15744 -0.862678 0
M  V30 4452 O 415.977 -3.50083 -0.657314 0
M  V30 4453 O 414.836 -5.31909 -1.2544 0
M  V30 4454 H 411.93 -0.796016 -0.22425 0
M  V30 4455 H 414.476 -1.66976 0.302814 0
M  V30 4456 H 413.248 -3.89558 0.368844 0
M  V30 4457 H 412.871 -3.7436 -1.33943 0
M  V30 4458 N 413.868 0.0150385 -1.57593 0
M  V30 4459 C 414.815 1.01126 -2.07466 0
M  V30 4460 C 415.785 1.35064 -0.966794 0
M  V30 4461 O 416.97 1.4516 -1.23827 0
M  V30 4462 C 414.11 2.30276 -2.57035 0
M  V30 4463 C 413.223 2.02373 -3.81666 0
M  V30 4464 C 412.358 3.25496 -4.19793 0
M  V30 4465 C 411.397 2.93211 -5.37303 0
M  V30 4466 N 410.534 4.08826 -5.70794 0
M  V30 4467 H 415.374 0.57901 -2.92321 0
M  V30 4468 H 412.911 0.27426 -1.44521 0
M  V30 4469 H 414.869 3.05757 -2.83846 0
M  V30 4470 H 413.499 2.71197 -1.75077 0
M  V30 4471 H 412.551 1.17327 -3.61854 0
M  V30 4472 H 413.863 1.74567 -4.67256 0
M  V30 4473 H 413.017 4.09333 -4.47807 0
M  V30 4474 H 411.756 3.56428 -3.32882 0
M  V30 4475 H 410.761 2.07777 -5.09027 0
M  V30 4476 H 411.986 2.63542 -6.25877 0
M  V30 4477 H 409.932 4.39682 -4.86842 0
M  V30 4478 H 409.849 3.84491 -6.50924 0
M  V30 4479 H 411.117 4.93496 -6.03392 0
M  V30 4480 N 415.346 1.54954 0.287554 0
M  V30 4481 C 416.574 1.78881 1.03967 0
M  V30 4482 C 416.989 0.554894 1.80462 0
M  V30 4483 O 416.346 -0.475676 1.76192 0
M  V30 4484 C 416.397 3.00488 2.0097 0
M  V30 4485 O 416.118 4.19113 1.27577 0
M  V30 4486 C 417.619 3.36907 2.88112 0
M  V30 4487 H 414.839 0.596259 0.307761 0
M  V30 4488 H 417.383 2.01937 0.322749 0
M  V30 4489 H 415.538 2.79601 2.68145 0
M  V30 4490 H 415.952 4.87765 1.92835 0
M  V30 4491 H 417.426 4.25205 3.52001 0
M  V30 4492 H 417.903 2.55659 3.57121 0
M  V30 4493 H 418.509 3.60001 2.26449 0
M  V30 4494 N 416.824 -0.551391 1.4764 0
M  V30 4495 C 418.052 -1.33357 1.58189 0
M  V30 4496 C 418.467 -1.87342 0.234199 0
M  V30 4497 O 417.824 -1.65301 -0.77343 0
M  V30 4498 C 417.875 -2.49942 2.61173 0
M  V30 4499 O 417.596 -1.98187 3.90709 0
M  V30 4500 C 419.097 -3.42072 2.8196 0
M  V30 4501 H 416.317 -0.40631 0.533998 0
M  V30 4502 H 418.861 -0.667367 1.93304 0
M  V30 4503 H 417.016 -3.12489 2.28975 0
M  V30 4504 H 417.43 -2.74342 4.47031 0
M  V30 4505 H 418.904 -4.20278 3.57869 0
M  V30 4506 H 419.381 -3.95978 1.89995 0
M  V30 4507 H 419.987 -2.85336 3.15378 0
M  V30 4508 N 418.302 -1.35869 -0.798587 0
M  V30 4509 C 419.25 -1.29491 -1.93222 0
M  V30 4510 C 420.244 -0.18836 -1.6835 0
M  V30 4511 O 421.45 -0.354822 -1.76468 0
M  V30 4512 H 417.825 -0.402901 -0.63496 0
M  V30 4513 H 419.796 -2.25247 -1.9572 0
M  V30 4514 C 418.545 -1.09184 -3.30112 0
M  V30 4515 H 417.868 -1.93574 -3.49813 0
M  V30 4516 H 419.308 -1.08766 -4.09812 0
M  V30 4517 C 417.767 0.203959 -3.36282 0
M  V30 4518 O 418.297 1.19699 -3.83451 0
M  V30 4519 N 416.503 0.245488 -2.89561 0
M  V30 4520 H 416.05 -0.563223 -2.51367 0
M  V30 4521 H 416.008 1.11219 -2.94071 0
M  V30 4522 N 419.78 1.02168 -1.19998 0
M  V30 4523 C 421.026 1.75945 -1.00852 0
M  V30 4524 C 421.359 1.88702 0.458828 0
M  V30 4525 O 420.634 1.40911 1.34069 0
M  V30 4526 C 420.917 3.18154 -1.68671 0
M  V30 4527 C 420.77 3.13224 -3.22817 0
M  V30 4528 C 422.089 4.16711 -1.41561 0
M  V30 4529 H 419.208 0.638673 -0.367785 0
M  V30 4530 H 421.85 1.19222 -1.4794 0
M  V30 4531 H 420 3.66586 -1.28636 0
M  V30 4532 H 421.672 2.72635 -3.72112 0
M  V30 4533 H 419.915 2.50751 -3.53986 0
M  V30 4534 H 420.586 4.13728 -3.65422 0
M  V30 4535 H 423.062 3.76913 -1.76284 0
M  V30 4536 H 421.938 5.14391 -1.91553 0
M  V30 4537 H 422.199 4.40774 -0.342193 0
M  V30 4538 N 421.258 1.00505 1.21394 0
M  V30 4539 C 422.483 0.706367 1.95001 0
M  V30 4540 C 422.908 -0.72463 1.73582 0
M  V30 4541 O 422.266 -1.49702 1.0227 0
M  V30 4542 C 422.314 1.03299 3.45487 0
M  V30 4543 O 421.418 0.138275 4.12168 0
M  V30 4544 H 420.759 0.263175 0.609619 0
M  V30 4545 H 423.289 1.34531 1.54151 0
M  V30 4546 H 423.299 0.979872 3.96059 0
M  V30 4547 H 421.974 2.07567 3.60401 0
M  V30 4548 H 420.551 0.247928 3.72075 0
M  V30 4549 N 422.737 -1.36956 0.779787 0
M  V30 4550 C 423.667 -2.32761 0.185651 0
M  V30 4551 C 424.648 -1.56177 -0.673989 0
M  V30 4552 O 425.833 -1.84378 -0.609797 0
M  V30 4553 C 422.963 -3.40418 -0.687964 0
M  V30 4554 C 421.917 -4.27941 0.0710102 0
M  V30 4555 C 421.243 -5.26681 -0.922573 0
M  V30 4556 C 422.543 -5.07006 1.25467 0
M  V30 4557 H 424.237 -2.82698 0.986008 0
M  V30 4558 H 421.783 -1.3592 0.475592 0
M  V30 4559 H 423.736 -4.06423 -1.11348 0
M  V30 4560 H 422.46 -2.89025 -1.52093 0
M  V30 4561 H 421.119 -3.63478 0.47739 0
M  V30 4562 H 420.767 -4.71565 -1.7503 0
M  V30 4563 H 420.467 -5.86103 -0.419237 0
M  V30 4564 H 421.991 -5.9556 -1.34686 0
M  V30 4565 H 423.405 -5.66105 0.905401 0
M  V30 4566 H 421.802 -5.75793 1.69063 0
M  V30 4567 H 422.872 -4.3921 2.05481 0
M  V30 4568 N 424.215 -0.530993 -1.48385 0
M  V30 4569 C 425.445 -0.00133928 -2.066 0
M  V30 4570 C 425.853 1.28599 -1.38777 0
M  V30 4571 O 425.196 1.77599 -0.469495 0
M  V30 4572 C 425.258 0.292137 -3.58311 0
M  V30 4573 C 424.922 -0.901864 -4.48013 0
M  V30 4574 C 425.919 -1.80053 -4.87726 0
M  V30 4575 C 423.604 -1.10915 -4.89901 0
M  V30 4576 C 425.598 -2.89038 -5.68098 0
M  V30 4577 C 423.285 -2.20213 -5.70043 0
M  V30 4578 C 424.283 -3.09107 -6.0905 0
M  V30 4579 O 423.971 -4.16514 -6.87583 0
M  V30 4580 H 423.703 -0.0308475 -0.675296 0
M  V30 4581 H 426.257 -0.736335 -1.91748 0
M  V30 4582 H 424.487 1.08112 -3.7128 0
M  V30 4583 H 426.176 0.763994 -3.98645 0
M  V30 4584 H 426.942 -1.65234 -4.55986 0
M  V30 4585 H 422.821 -0.426498 -4.59023 0
M  V30 4586 H 426.365 -3.58451 -5.98464 0
M  V30 4587 H 422.262 -2.35016 -6.01197 0
M  V30 4588 H 423.03 -4.14237 -7.05939 0
M  V30 4589 N 425.693 1.55336 -0.266172 0
M  V30 4590 C 427.104 1.85236 0.233315 0
M  V30 4591 C 427.455 1.18816 1.56132 0
M  V30 4592 O 426.58 0.473307 2.11161 0
M  V30 4593 C 427.175 3.36059 0.430113 0
M  V30 4594 C 425.734 3.66116 0.873842 0
M  V30 4595 C 424.881 2.77274 -0.0380016 0
M  V30 4596 H 427.832 1.51004 -0.488214 0
M  V30 4597 H 427.853 3.58681 1.26998 0
M  V30 4598 H 427.365 3.84373 -0.536588 0
M  V30 4599 H 425.466 3.23295 1.85233 0
M  V30 4600 H 425.579 4.73699 0.717358 0
M  V30 4601 H 423.943 2.50198 0.476759 0
M  V30 4602 H 424.726 3.284 -1.00042 0
M  V30 4603 N 427.171 -0.0066808 1.57599 0
M  V30 4604 C 428.419 -0.691552 1.899 0
M  V30 4605 C 428.74 -1.74682 0.866672 0
M  V30 4606 O 428.01 -1.95661 -0.0968189 0
M  V30 4607 H 426.59 -0.258416 0.700878 0
M  V30 4608 H 429.252 0.0326655 1.94873 0
M  V30 4609 H 428.348 -1.16702 2.8946 0
M  V30 4610 N 428.649 -1.55105 -0.279332 0
M  V30 4611 C 429.879 -1.7917 -1.02867 0
M  V30 4612 C 430.287 -0.56204 -1.80659 0
M  V30 4613 O 429.63 0.478266 -1.77365 0
M  V30 4614 C 429.692 -2.96061 -2.03932 0
M  V30 4615 C 429.356 -4.33341 -1.45137 0
M  V30 4616 C 430.353 -5.12565 -0.870266 0
M  V30 4617 C 428.038 -4.79987 -1.48048 0
M  V30 4618 C 430.032 -6.36565 -0.326097 0
M  V30 4619 C 427.719 -6.03944 -0.932443 0
M  V30 4620 C 428.717 -6.8207 -0.356247 0
M  V30 4621 O 428.405 -8.03691 0.183412 0
M  V30 4622 H 428.137 -0.600796 -0.309872 0
M  V30 4623 H 430.691 -2.02932 -0.317468 0
M  V30 4624 H 428.921 -2.67975 -2.78794 0
M  V30 4625 H 430.61 -3.07506 -2.64943 0
M  V30 4626 H 431.376 -4.77661 -0.840521 0
M  V30 4627 H 427.255 -4.1919 -1.91835 0
M  V30 4628 H 430.799 -6.97489 0.124286 0
M  V30 4629 H 426.696 -6.3833 -0.959407 0
M  V30 4630 H 427.464 -8.18468 0.0721681 0
M  V30 4631 N 430.127 0.543554 -1.4793 0
M  V30 4632 C 431.075 1.67039 -1.61866 0
M  V30 4633 C 432.069 1.62294 -0.48549 0
M  V30 4634 O 433.275 1.67315 -0.66376 0
M  V30 4635 H 429.65 0.552954 -0.509652 0
M  V30 4636 H 431.621 1.52426 -2.56533 0
M  V30 4637 C 430.37 3.05357 -1.6629 0
M  V30 4638 H 429.693 3.09696 -2.5284 0
M  V30 4639 H 431.133 3.83855 -1.80088 0
M  V30 4640 C 429.592 3.34531 -0.398861 0
M  V30 4641 O 430.122 3.98649 0.494162 0
M  V30 4642 N 428.328 2.89299 -0.2747 0
M  V30 4643 H 427.875 2.37298 -1.00236 0
M  V30 4644 H 427.833 3.09188 0.570075 0
M  V30 4645 N 431.605 1.3629 0.791371 0
M  V30 4646 C 432.852 1.30412 1.54916 0
M  V30 4647 C 433.18 -0.117162 1.94147 0
M  V30 4648 O 432.435 -1.08599 1.62803 0
M  V30 4649 C 432.734 2.17068 2.8393 0
M  V30 4650 C 432.4 3.65645 2.63846 0
M  V30 4651 C 431.062 4.0614 2.58077 0
M  V30 4652 C 433.414 4.59855 2.45322 0
M  V30 4653 C 430.742 5.3899 2.31748 0
M  V30 4654 C 433.094 5.9292 2.2052 0
M  V30 4655 C 431.758 6.32542 2.13183 0
M  V30 4656 H 431.028 0.47721 0.566879 0
M  V30 4657 H 433.675 1.68325 0.913172 0
M  V30 4658 H 431.98 1.72085 3.51986 0
M  V30 4659 H 433.677 2.09846 3.4171 0
M  V30 4660 H 430.267 3.33518 2.69191 0
M  V30 4661 H 434.451 4.29443 2.48782 0
M  V30 4662 H 429.707 5.68672 2.24548 0
M  V30 4663 H 433.881 6.65487 2.05182 0
M  V30 4664 H 431.508 7.35412 1.92544 0
M  V30 4665 N 433.083 -1.0153 1.20538 0
M  V30 4666 C 434.499 -1.27461 0.96051 0
M  V30 4667 C 434.699 -1.98273 -0.359193 0
M  V30 4668 O 433.755 -2.27886 -1.0874 0
M  V30 4669 C 435.068 -2.10837 2.14402 0
M  V30 4670 C 436.616 -2.24099 2.18515 0
M  V30 4671 C 437.091 -3.10852 3.36355 0
M  V30 4672 N 438.582 -3.18441 3.36377 0
M  V30 4673 C 439.317 -3.85795 4.24205 0
M  V30 4674 N 438.813 -4.55264 5.22213 0
M  V30 4675 N 440.606 -3.82331 4.12043 0
M  V30 4676 H 432.757 -0.539907 2.05423 0
M  V30 4677 H 435.02 -0.30092 0.898972 0
M  V30 4678 H 434.726 -1.66144 3.09983 0
M  V30 4679 H 434.6 -3.11576 2.12604 0
M  V30 4680 H 436.987 -2.68016 1.23497 0
M  V30 4681 H 437.068 -1.22865 2.24361 0
M  V30 4682 H 436.712 -2.6764 4.31661 0
M  V30 4683 H 436.642 -4.12177 3.27746 0
M  V30 4684 H 439.133 -2.68978 2.65442 0
M  V30 4685 H 439.446 -5.04331 5.85551 0
M  V30 4686 H 437.791 -4.54085 5.26148 0
M  V30 4687 H 440.982 -3.27207 3.34743 0
M  V30 4688 H 441.155 -4.34547 4.807 0
M  V30 4689 N 434.561 -1.01147 -1.20859 0
M  V30 4690 C 435.791 -0.715872 -1.93801 0
M  V30 4691 C 436.199 0.726592 -1.74692 0
M  V30 4692 O 435.542 1.50397 -1.05482 0
M  V30 4693 C 435.604 -0.965269 -3.46299 0
M  V30 4694 C 435.268 -2.39584 -3.89164 0
M  V30 4695 C 436.265 -3.3764 -3.95342 0
M  V30 4696 C 433.95 -2.73522 -4.21297 0
M  V30 4697 C 435.944 -4.67698 -4.33056 0
M  V30 4698 C 433.631 -4.03794 -4.58687 0
M  V30 4699 C 434.629 -5.00693 -4.64538 0
M  V30 4700 O 434.317 -6.28635 -5.01072 0
M  V30 4701 H 434.049 -0.262524 -0.622942 0
M  V30 4702 H 436.603 -1.35413 -1.54443 0
M  V30 4703 H 434.833 -0.269847 -3.85757 0
M  V30 4704 H 436.522 -0.662051 -4.00464 0
M  V30 4705 H 437.288 -3.12757 -3.70686 0
M  V30 4706 H 433.167 -1.9879 -4.15937 0
M  V30 4707 H 436.711 -5.4333 -4.37537 0
M  V30 4708 H 432.608 -4.28459 -4.82797 0
M  V30 4709 H 433.376 -6.32847 -5.19083 0
M  V30 4710 N 436.039 1.36541 -0.78704 0
M  V30 4711 C 437.002 2.28413 -0.189778 0
M  V30 4712 C 438.002 1.48719 0.611499 0
M  V30 4713 O 439.192 1.68737 0.432842 0
M  V30 4714 C 436.324 3.32824 0.737638 0
M  V30 4715 H 437.517 2.82743 -0.999831 0
M  V30 4716 H 435.07 1.46065 -0.556298 0
M  V30 4717 H 435.805 2.83646 1.57212 0
M  V30 4718 H 435.59 3.91752 0.165044 0
M  V30 4719 H 437.08 4.0144 1.15047 0
M  V30 4720 N 437.518 0.538854 1.48102 0
M  V30 4721 C 438.465 -0.219042 2.29758 0
M  V30 4722 C 439.435 -0.925562 1.37922 0
M  V30 4723 O 440.62 -0.924855 1.66886 0
M  V30 4724 C 437.76 -1.25452 3.2149 0
M  V30 4725 C 436.873 -0.555943 4.28408 0
M  V30 4726 C 436.008 -1.57512 5.0731 0
M  V30 4727 C 435.047 -0.860498 6.06021 0
M  V30 4728 N 434.184 -1.82564 6.77949 0
M  V30 4729 H 439.024 0.483449 2.94052 0
M  V30 4730 H 436.561 0.250247 1.44956 0
M  V30 4731 H 438.519 -1.86727 3.7308 0
M  V30 4732 H 437.149 -1.92528 2.591 0
M  V30 4733 H 436.201 0.170938 3.80016 0
M  V30 4734 H 437.513 0.00474616 4.988 0
M  V30 4735 H 436.667 -2.26191 5.62959 0
M  V30 4736 H 435.406 -2.16972 4.36778 0
M  V30 4737 H 434.411 -0.159686 5.49568 0
M  V30 4738 H 435.636 -0.271897 6.78555 0
M  V30 4739 H 433.582 -2.40915 6.10161 0
M  V30 4740 H 433.499 -1.31662 7.44447 0
M  V30 4741 H 434.767 -2.50414 7.38182 0
M  V30 4742 N 438.996 -1.55193 0.274407 0
M  V30 4743 C 440.226 -2.03692 -0.345442 0
M  V30 4744 C 440.634 -1.15224 -1.50067 0
M  V30 4745 O 439.977 -0.164749 -1.8296 0
M  V30 4746 C 440.039 -3.48325 -0.88939 0
M  V30 4747 C 439.703 -4.56794 0.137115 0
M  V30 4748 C 440.7 -5.11028 0.956378 0
M  V30 4749 C 438.385 -5.01568 0.27115 0
M  V30 4750 C 440.379 -6.08552 1.89587 0
M  V30 4751 C 438.066 -5.98918 1.21412 0
M  V30 4752 C 439.064 -6.52291 2.02498 0
M  V30 4753 O 438.752 -7.47738 2.952 0
M  V30 4754 H 438.484 -0.670893 -0.0829332 0
M  V30 4755 H 441.038 -2.01387 0.404056 0
M  V30 4756 H 439.268 -3.47867 -1.68895 0
M  V30 4757 H 440.957 -3.80167 -1.42225 0
M  V30 4758 H 441.723 -4.7725 0.863559 0
M  V30 4759 H 437.602 -4.5967 -0.349987 0
M  V30 4760 H 441.146 -6.50137 2.52918 0
M  V30 4761 H 437.043 -6.32114 1.30776 0
M  V30 4762 H 437.811 -7.65451 2.89874 0
M  V30 4763 N 440.474 -0.00167713 -1.576 0
M  V30 4764 C 441.704 0.692754 -1.94639 0
M  V30 4765 C 442.112 1.67744 -0.87513 0
M  V30 4766 O 441.455 1.8305 0.154382 0
M  V30 4767 C 441.517 1.47881 -3.27676 0
M  V30 4768 C 441.181 0.655518 -4.52274 0
M  V30 4769 C 442.178 -0.0575214 -5.19868 0
M  V30 4770 C 439.863 0.600994 -4.98692 0
M  V30 4771 C 441.857 -0.814052 -6.3218 0
M  V30 4772 C 439.544 -0.15926 -6.10892 0
M  V30 4773 C 440.542 -0.865515 -6.77494 0
M  V30 4774 O 440.23 -1.61336 -7.87544 0
M  V30 4775 H 439.962 0.197792 -0.646417 0
M  V30 4776 H 442.516 -0.049423 -2.05341 0
M  V30 4777 H 440.746 2.2655 -3.13388 0
M  V30 4778 H 442.435 2.05874 -3.49816 0
M  V30 4779 H 443.201 -0.0245611 -4.84994 0
M  V30 4780 H 439.08 1.14025 -4.46676 0
M  V30 4781 H 442.624 -1.36584 -6.84098 0
M  V30 4782 H 438.521 -0.194035 -6.45208 0
M  V30 4783 H 439.289 -1.53025 -8.04068 0
M  V30 4784 N 441.952 1.55251 0.271103 0
M  V30 4785 C 442.899 1.88261 1.33516 0
M  V30 4786 C 443.869 0.734296 1.48988 0
M  V30 4787 O 445.054 0.985741 1.63364 0
M  V30 4788 C 442.194 2.16168 2.69008 0
M  V30 4789 C 441.307 3.43678 2.61743 0
M  V30 4790 C 440.442 3.61276 3.89427 0
M  V30 4791 C 439.481 4.82472 3.7668 0
M  V30 4792 N 438.618 4.96717 4.96202 0
M  V30 4793 H 443.458 2.79015 1.04665 0
M  V30 4794 H 440.995 1.38137 0.505618 0
M  V30 4795 H 442.953 2.30349 3.47844 0
M  V30 4796 H 441.583 1.28646 2.96057 0
M  V30 4797 H 440.635 3.37959 1.74607 0
M  V30 4798 H 441.947 4.3265 2.48224 0
M  V30 4799 H 441.101 3.75284 4.76704 0
M  V30 4800 H 439.84 2.70492 4.05814 0
M  V30 4801 H 438.845 4.68465 2.87786 0
M  V30 4802 H 440.07 5.74692 3.61809 0
M  V30 4803 H 438.016 4.08865 5.12997 0
M  V30 4804 H 437.933 5.79738 4.85222 0
M  V30 4805 H 439.201 5.15113 5.85046 0
M  V30 4806 N 443.43 -0.535701 1.48216 0
M  V30 4807 C 444.34 -1.66785 1.64985 0
M  V30 4808 C 445.356 -1.65654 0.532414 0
M  V30 4809 O 446.532 -1.8471 0.80275 0
M  V30 4810 C 443.597 -3.0326 1.68031 0
M  V30 4811 C 442.658 -3.1529 2.9136 0
M  V30 4812 C 441.891 -4.45255 2.94252 0
M  V30 4813 O 442.114 -5.32011 2.05719 0
M  V30 4814 O 441.048 -4.6153 3.86359 0
M  V30 4815 H 444.874 -1.55576 2.60825 0
M  V30 4816 H 442.459 -0.70815 1.31551 0
M  V30 4817 H 444.341 -3.84436 1.72589 0
M  V30 4818 H 443.016 -3.14805 0.753628 0
M  V30 4819 H 441.923 -2.3343 2.92337 0
M  V30 4820 H 443.256 -3.08658 3.83394 0
M  V30 4821 N 444.908 -1.36708 -0.784132 0
M  V30 4822 C 445.856 -1.31533 -1.91838 0
M  V30 4823 C 446.85 -0.206205 -1.6814 0
M  V30 4824 O 448.056 -0.373519 -1.76082 0
M  V30 4825 H 444.431 -0.409613 -0.630651 0
M  V30 4826 H 446.402 -2.2731 -1.9332 0
M  V30 4827 C 445.151 -1.12679 -3.28936 0
M  V30 4828 H 444.474 -1.97274 -3.4774 0
M  V30 4829 H 445.914 -1.13106 -4.08636 0
M  V30 4830 C 444.373 0.168281 -3.36479 0
M  V30 4831 O 444.903 1.15625 -3.84699 0
M  V30 4832 N 443.109 0.214762 -2.89805 0
M  V30 4833 H 442.656 -0.589852 -2.50756 0
M  V30 4834 H 442.614 1.08094 -2.95234 0
M  V30 4835 N 446.386 1.0089 -1.21074 0
M  V30 4836 C 447.334 2.11707 -0.963476 0
M  V30 4837 C 448.328 1.69172 0.0879032 0
M  V30 4838 O 449.534 1.79889 -0.0631415 0
M  V30 4839 H 445.909 0.692026 -0.294287 0
M  V30 4840 H 447.88 2.29743 -1.90422 0
M  V30 4841 C 446.629 3.43473 -0.540509 0
M  V30 4842 H 445.952 3.76634 -1.34114 0
M  V30 4843 H 447.392 4.22044 -0.406777 0
M  V30 4844 C 445.851 3.2849 0.748079 0
M  V30 4845 O 446.381 3.58883 1.8046 0
M  V30 4846 N 444.587 2.81715 0.713081 0
M  V30 4847 H 444.134 2.5718 -0.146973 0
M  V30 4848 H 444.092 2.72071 1.57558 0
M  V30 4849 N 447.864 1.01787 1.20321 0
M  V30 4850 C 449.11 0.708985 1.90003 0
M  V30 4851 C 449.443 -0.759572 1.78729 0
M  V30 4852 O 448.718 -1.55198 1.17234 0
M  V30 4853 C 449.001 1.1469 3.41348 0
M  V30 4854 C 448.854 2.67586 3.61549 0
M  V30 4855 C 450.173 0.71915 4.34185 0
M  V30 4856 H 447.292 0.259034 0.689978 0
M  V30 4857 H 449.934 1.26584 1.41692 0
M  V30 4858 H 448.084 0.673128 3.82624 0
M  V30 4859 H 449.756 3.22826 3.29517 0
M  V30 4860 H 447.999 3.085 3.04976 0
M  V30 4861 H 448.67 2.93281 4.67643 0
M  V30 4862 H 451.146 1.12647 4.00562 0
M  V30 4863 H 450.022 1.05358 5.38694 0
M  V30 4864 H 450.283 -0.379111 4.40472 0
M  V30 4865 N 449.342 -1.36122 0.79427 0
M  V30 4866 C 450.252 -2.33769 0.197296 0
M  V30 4867 C 451.268 -1.61276 -0.653153 0
M  V30 4868 O 452.444 -1.9323 -0.5678 0
M  V30 4869 C 449.509 -3.40474 -0.654098 0
M  V30 4870 C 448.57 -4.28759 0.215411 0
M  V30 4871 C 447.803 -5.30368 -0.595443 0
M  V30 4872 O 448.026 -5.40211 -1.83107 0
M  V30 4873 O 446.96 -6.019 0.00721351 0
M  V30 4874 H 450.786 -2.86597 1.00478 0
M  V30 4875 H 448.371 -1.38676 0.555818 0
M  V30 4876 H 450.253 -4.05703 -1.13944 0
M  V30 4877 H 448.928 -2.89937 -1.43938 0
M  V30 4878 H 447.835 -3.66554 0.747615 0
M  V30 4879 H 449.168 -4.82661 0.964332 0
M  V30 4880 N 450.82 -0.546701 -1.47814 0
M  V30 4881 C 451.767 0.206854 -2.29871 0
M  V30 4882 C 452.737 0.918235 -1.38411 0
M  V30 4883 O 453.922 0.915991 -1.67375 0
M  V30 4884 C 451.062 1.23746 -3.22151 0
M  V30 4885 C 450.175 0.533216 -4.28697 0
M  V30 4886 C 449.31 1.5482 -5.08138 0
M  V30 4887 C 448.349 0.828347 -6.06469 0
M  V30 4888 N 447.486 1.78966 -6.78908 0
M  V30 4889 H 452.326 -0.499037 -2.93792 0
M  V30 4890 H 449.863 -0.25793 -1.44821 0
M  V30 4891 H 451.821 1.84746 -3.74065 0
M  V30 4892 H 450.451 1.91151 -2.60117 0
M  V30 4893 H 449.503 -0.191089 -3.7992 0
M  V30 4894 H 450.815 -0.0311987 -4.9879 0
M  V30 4895 H 449.969 2.23202 -5.6415 0
M  V30 4896 H 448.708 2.14652 -4.37922 0
M  V30 4897 H 447.713 0.130539 -5.49645 0
M  V30 4898 H 448.938 0.235907 -6.7869 0
M  V30 4899 H 446.884 2.37675 -6.1143 0
M  V30 4900 H 446.801 1.27712 -7.45135 0
M  V30 4901 H 448.069 2.46496 -7.395 0
M  V30 4902 N 452.299 1.55045 -0.282633 0
M  V30 4903 C 453.715 1.59441 0.0712997 0
M  V30 4904 C 453.915 1.2998 1.53972 0
M  V30 4905 O 452.971 1.06431 2.28973 0
M  V30 4906 C 454.284 2.99097 -0.310104 0
M  V30 4907 C 455.832 3.1194 -0.257343 0
M  V30 4908 C 456.307 4.53875 -0.613297 0
M  V30 4909 N 457.798 4.5974 -0.565134 0
M  V30 4910 C 458.533 5.67603 -0.81326 0
M  V30 4911 N 458.029 6.83582 -1.1264 0
M  V30 4912 N 459.822 5.57187 -0.741553 0
M  V30 4913 H 451.973 1.72458 -1.23984 0
M  V30 4914 H 454.236 0.804549 -0.501403 0
M  V30 4915 H 453.942 3.25516 -1.33163 0
M  V30 4916 H 453.816 3.75616 0.345366 0
M  V30 4917 H 456.203 2.85281 0.754905 0
M  V30 4918 H 456.284 2.37618 -0.947178 0
M  V30 4919 H 455.928 4.81261 -1.62327 0
M  V30 4920 H 455.858 5.26508 0.09841 0
M  V30 4921 H 458.349 3.76427 -0.333294 0
M  V30 4922 H 458.662 7.6175 -1.30219 0
M  V30 4923 H 457.007 6.85179 -1.16425 0
M  V30 4924 H 460.198 4.65457 -0.496705 0
M  V30 4925 H 460.371 6.41171 -0.938306 0
M  V30 4926 N 453.777 0.010035 1.57597 0
M  V30 4927 C 455.005 -0.683413 1.95287 0
M  V30 4928 C 455.42 -1.66747 0.885481 0
M  V30 4929 O 454.777 -1.82003 -0.134629 0
M  V30 4930 C 454.828 -1.40652 3.33015 0
M  V30 4931 O 454.549 -0.461916 4.35658 0
M  V30 4932 C 456.05 -2.19356 3.85225 0
M  V30 4933 H 453.27 -0.189708 0.643624 0
M  V30 4934 H 455.814 0.0641359 2.04399 0
M  V30 4935 H 453.969 -2.10562 3.2518 0
M  V30 4936 H 454.383 -0.973215 5.15392 0
M  V30 4937 H 455.857 -2.65433 4.83993 0
M  V30 4938 H 456.334 -3.02457 3.18459 0
M  V30 4939 H 456.94 -1.54442 3.96267 0
M  V30 4940 N 455.255 -1.55392 -0.262866 0
M  V30 4941 C 456.185 -1.91978 -1.32917 0
M  V30 4942 C 457.166 -0.7828 -1.51017 0
M  V30 4943 O 458.351 -1.04178 -1.63892 0
M  V30 4944 C 455.481 -2.20055 -2.68687 0
M  V30 4945 C 454.435 -3.35854 -2.65304 0
M  V30 4946 C 453.761 -3.49435 -4.04721 0
M  V30 4947 C 455.061 -4.71977 -2.23685 0
M  V30 4948 H 456.755 -2.81292 -1.02544 0
M  V30 4949 H 454.301 -1.3534 -0.491846 0
M  V30 4950 H 456.254 -2.44237 -3.43404 0
M  V30 4951 H 454.978 -1.27551 -3.00663 0
M  V30 4952 H 453.637 -3.11655 -1.93045 0
M  V30 4953 H 453.285 -2.54379 -4.33936 0
M  V30 4954 H 452.985 -4.27297 -4.0335 0
M  V30 4955 H 454.509 -3.7592 -4.81161 0
M  V30 4956 H 455.923 -4.95637 -2.88127 0
M  V30 4957 H 454.32 -5.52828 -2.33456 0
M  V30 4958 H 455.39 -4.70115 -1.18827 0
M  V30 4959 N 456.733 0.527833 -1.48498 0
M  V30 4960 C 457.982 1.28003 -1.55878 0
M  V30 4961 C 458.295 1.9414 -0.238577 0
M  V30 4962 O 459.501 2.7083 -0.190643 0
M  V30 4963 C 457.957 2.32272 -2.74914 0
M  V30 4964 C 457.565 1.72196 -4.13585 0
M  V30 4965 C 459.309 3.08488 -2.91608 0
M  V30 4966 C 457.216 2.74417 -5.23879 0
M  V30 4967 H 456.146 0.481413 -0.580308 0
M  V30 4968 H 458.797 0.557195 -1.74836 0
M  V30 4969 H 457.179 3.07601 -2.49395 0
M  V30 4970 H 458.353 1.03041 -4.49132 0
M  V30 4971 H 456.668 1.08464 -4.02025 0
M  V30 4972 H 459.265 3.84879 -3.71177 0
M  V30 4973 H 459.608 3.64481 -2.01145 0
M  V30 4974 H 460.141 2.40274 -3.17038 0
M  V30 4975 H 456.88 2.23242 -6.16314 0
M  V30 4976 H 456.4 3.41893 -4.92818 0
M  V30 4977 H 458.079 3.37362 -5.52083 0
M  V30 4978 N 458.211 1.37122 0.776871 0
M  V30 4979 C 459.158 1.3247 1.88998 0
M  V30 4980 C 460.128 0.191143 1.64997 0
M  V30 4981 O 461.313 0.379683 1.86984 0
M  V30 4982 C 458.453 1.13241 3.25992 0
M  V30 4983 C 457.566 2.35782 3.61982 0
M  V30 4984 C 456.701 2.09465 4.88158 0
M  V30 4985 C 455.74 3.279 5.16864 0
M  V30 4986 N 454.877 3.01167 6.34226 0
M  V30 4987 H 459.717 2.27642 1.9231 0
M  V30 4988 H 457.254 1.13125 0.94027 0
M  V30 4989 H 459.212 1.00115 4.0501 0
M  V30 4990 H 457.842 0.217186 3.22069 0
M  V30 4991 H 456.894 2.59666 2.77989 0
M  V30 4992 H 458.206 3.24125 3.79137 0
M  V30 4993 H 457.36 1.93341 5.75069 0
M  V30 4994 H 456.099 1.18452 4.73097 0
M  V30 4995 H 455.104 3.44569 4.2843 0
M  V30 4996 H 456.329 4.19757 5.33836 0
M  V30 4997 H 454.275 2.12779 6.20533 0
M  V30 4998 H 454.192 3.83052 6.51772 0
M  V30 4999 H 455.46 2.88649 7.24087 0
M  V30 5000 N 459.689 -1.00246 1.21608 0
M  V30 5001 C 460.935 -1.74319 1.03638 0
M  V30 5002 C 461.268 -1.89408 -0.428749 0
M  V30 5003 O 460.543 -1.43026 -1.3181 0
M  V30 5004 C 460.826 -3.15431 1.73711 0
M  V30 5005 C 460.679 -3.08049 3.27759 0
M  V30 5006 C 461.998 -4.14407 1.48173 0
M  V30 5007 H 459.117 -0.632741 0.377899 0
M  V30 5008 H 461.759 -1.16853 1.49818 0
M  V30 5009 H 459.909 -3.64493 1.34452 0
M  V30 5010 H 461.581 -2.66681 3.76403 0
M  V30 5011 H 459.824 -2.45088 3.57931 0
M  V30 5012 H 460.495 -4.07862 3.71958 0
M  V30 5013 H 462.971 -3.74061 1.82258 0
M  V30 5014 H 461.847 -5.11279 1.99713 0
M  V30 5015 H 462.108 -4.40174 0.412273 0
M  V30 5016 N 461.167 -1.02423 -1.1978 0
M  V30 5017 C 462.414 -0.717988 -1.89344 0
M  V30 5018 C 462.742 0.753036 -1.79331 0
M  V30 5019 O 461.997 1.56355 -1.17692 0
M  V30 5020 C 462.296 -1.1088 -3.39765 0
M  V30 5021 C 461.962 -2.57731 -3.6998 0
M  V30 5022 C 460.624 -2.97854 -3.77937 0
M  V30 5023 C 462.976 -3.52763 -3.83677 0
M  V30 5024 C 460.304 -4.31931 -3.97054 0
M  V30 5025 C 462.656 -4.86538 -4.04306 0
M  V30 5026 C 461.32 -5.26356 -4.10494 0
M  V30 5027 H 460.59 -0.26273 -0.692859 0
M  V30 5028 H 463.237 -1.28623 -1.41875 0
M  V30 5029 H 461.542 -0.459094 -3.89101 0
M  V30 5030 H 463.239 -0.849432 -3.919 0
M  V30 5031 H 459.829 -2.25646 -3.64393 0
M  V30 5032 H 464.013 -3.2292 -3.76877 0
M  V30 5033 H 459.269 -4.62324 -4.00083 0
M  V30 5034 H 463.443 -5.60093 -4.13846 0
M  V30 5035 H 461.07 -6.3026 -4.2506 0
M  V30 5036 N 462.645 1.35699 -0.801477 0
M  V30 5037 C 463.893 1.9852 -0.37871 0
M  V30 5038 C 464.214 1.63907 1.05638 0
M  V30 5039 O 463.484 0.919013 1.73006 0
M  V30 5040 H 462.064 0.734322 -0.137042 0
M  V30 5041 H 464.726 1.65697 -1.02619 0
M  V30 5042 H 463.822 3.08382 -0.480284 0
M  V30 5043 N 464.123 0.554532 1.47522 0
M  V30 5044 C 465.372 0.0273458 2.01681 0
M  V30 5045 C 465.685 -1.32962 1.43459 0
M  V30 5046 O 466.891 -1.94657 1.89265 0
M  V30 5047 C 465.347 -0.00159057 3.599 0
M  V30 5048 C 464.955 1.35197 4.27113 0
M  V30 5049 C 466.699 -0.476311 4.21819 0
M  V30 5050 C 464.606 1.28229 5.77331 0
M  V30 5051 H 463.536 0.00645269 0.753972 0
M  V30 5052 H 466.187 0.701985 1.69542 0
M  V30 5053 H 464.569 -0.741821 3.8899 0
M  V30 5054 H 465.743 2.1097 4.09668 0
M  V30 5055 H 464.058 1.76441 3.77171 0
M  V30 5056 H 466.655 -0.5468 5.31897 0
M  V30 5057 H 466.998 -1.4877 3.8881 0
M  V30 5058 H 467.531 0.20898 3.97251 0
M  V30 5059 H 464.27 2.26959 6.14955 0
M  V30 5060 H 463.79 0.566314 5.97121 0
M  V30 5061 H 465.469 0.983226 6.39485 0
M  V30 5062 N 465.601 -1.54893 0.290851 0
M  V30 5063 C 467.017 -1.59476 -0.0628432 0
M  V30 5064 C 467.217 -1.30795 -1.5328 0
M  V30 5065 O 466.273 -1.07644 -2.28406 0
M  V30 5066 C 467.586 -2.98928 0.325962 0
M  V30 5067 C 469.134 -3.11799 0.273882 0
M  V30 5068 C 469.609 -4.53544 0.637359 0
M  V30 5069 N 471.1 -4.59433 0.589507 0
M  V30 5070 C 471.835 -5.67164 0.84335 0
M  V30 5071 N 471.331 -6.82975 1.16263 0
M  V30 5072 N 473.124 -5.56786 0.771091 0
M  V30 5073 H 465.275 -1.71798 1.24896 0
M  V30 5074 H 467.538 -0.801879 0.505663 0
M  V30 5075 H 467.244 -3.24805 1.34887 0
M  V30 5076 H 467.118 -3.75793 -0.325441 0
M  V30 5077 H 469.505 -2.85677 -0.739765 0
M  V30 5078 H 469.586 -2.37112 0.959766 0
M  V30 5079 H 469.23 -4.80394 1.64877 0
M  V30 5080 H 469.16 -5.26553 -0.0704866 0
M  V30 5081 H 471.651 -3.76245 0.353252 0
M  V30 5082 H 471.964 -7.61048 1.34257 0
M  V30 5083 H 470.309 -6.84552 1.20057 0
M  V30 5084 H 473.5 -4.65187 0.521383 0
M  V30 5085 H 473.673 -6.40664 0.972295 0
M  V30 5086 N 467.08 -0.0183926 -1.57589 0
M  V30 5087 C 468.327 0.662562 -1.91354 0
M  V30 5088 C 468.655 1.72747 -0.893788 0
M  V30 5089 O 467.91 1.9545 0.0988509 0
M  V30 5090 C 468.209 1.32676 -3.31861 0
M  V30 5091 C 467.875 0.393267 -4.49182 0
M  V30 5092 C 466.537 0.136302 -4.81007 0
M  V30 5093 C 468.889 -0.248366 -5.20608 0
M  V30 5094 C 466.217 -0.770282 -5.81621 0
M  V30 5095 C 468.569 -1.14294 -6.22189 0
M  V30 5096 C 467.233 -1.4089 -6.52462 0
M  V30 5097 H 466.503 0.242448 -0.700214 0
M  V30 5098 H 469.15 -0.0778629 -1.91342 0
M  V30 5099 H 467.455 2.14168 -3.28084 0
M  V30 5100 H 469.152 1.86001 -3.55253 0
M  V30 5101 H 465.742 0.603723 -4.24327 0
M  V30 5102 H 469.926 -0.062883 -4.9626 0
M  V30 5103 H 465.182 -0.984154 -6.03427 0
M  V30 5104 H 469.356 -1.64637 -6.76659 0
M  V30 5105 H 466.983 -2.11306 -7.30242 0
M  V30 5106 N 468.558 1.5553 0.254621 0
M  V30 5107 C 469.835 1.6774 1.00611 0
M  V30 5108 C 470.215 0.555993 2.03647 0
M  V30 5109 O 469.563 -0.441583 2.24193 0
M  V30 5110 C 469.773 3.07725 1.6464 0
M  V30 5111 C 471.121 3.66074 2.15116 0
M  V30 5112 O 472.145 3.10476 1.74595 0
M  V30 5113 O 471.004 4.63526 2.89493 0
M  V30 5114 H 468.098 0.681958 0.467828 0
M  V30 5115 H 470.644 1.67863 0.24902 0
M  V30 5116 H 469.416 3.80792 0.900734 0
M  V30 5117 H 469.039 3.1158 2.46989 0
M  V30 5118 N 470.036 -0.519951 1.48776 0
M  V30 5119 C 471.285 -1.27175 1.56555 0
M  V30 5120 C 471.598 -1.9401 0.248869 0
M  V30 5121 O 472.804 -2.70725 0.205004 0
M  V30 5122 C 471.26 -2.30811 2.76142 0
M  V30 5123 C 470.868 -1.7 4.14493 0
M  V30 5124 C 472.612 -3.06937 2.9324 0
M  V30 5125 C 470.519 -2.71635 5.25327 0
M  V30 5126 H 469.449 -0.478329 0.582853 0
M  V30 5127 H 472.1 -0.547916 1.75129 0
M  V30 5128 H 470.482 -3.06274 2.51023 0
M  V30 5129 H 471.656 -1.00658 4.49672 0
M  V30 5130 H 469.971 -1.06331 4.02595 0
M  V30 5131 H 472.568 -3.82905 3.73213 0
M  V30 5132 H 472.911 -3.63409 2.03075 0
M  V30 5133 H 473.444 -2.38589 3.18308 0
M  V30 5134 H 470.183 -2.1997 6.1749 0
M  V30 5135 H 469.703 -3.39275 4.94624 0
M  V30 5136 H 471.382 -3.34429 5.53865 0
M  V30 5137 N 471.514 -1.37532 -0.769588 0
M  V30 5138 C 472.444 -1.36172 -1.89682 0
M  V30 5139 C 473.425 -0.23001 -1.68538 0
M  V30 5140 O 474.61 -0.43069 -1.89364 0
M  V30 5141 C 471.74 -1.1701 -3.26995 0
M  V30 5142 C 470.694 -2.27216 -3.62708 0
M  V30 5143 C 470.02 -1.93174 -4.98586 0
M  V30 5144 C 471.32 -3.6941 -3.69234 0
M  V30 5145 H 473.014 -2.30499 -1.91078 0
M  V30 5146 H 470.56 -1.10953 -0.917902 0
M  V30 5147 H 472.513 -1.14688 -4.05493 0
M  V30 5148 H 471.237 -0.191395 -3.26039 0
M  V30 5149 H 469.896 -2.28697 -2.86519 0
M  V30 5150 H 469.544 -0.938281 -4.94171 0
M  V30 5151 H 469.244 -2.66973 -5.23449 0
M  V30 5152 H 470.768 -1.92443 -5.79481 0
M  V30 5153 H 472.182 -3.70047 -4.37879 0
M  V30 5154 H 470.579 -4.4228 -4.05597 0
M  V30 5155 H 471.649 -4.0288 -2.69844 0
M  V30 5156 N 472.992 0.995999 -1.22138 0
M  V30 5157 C 474.238 1.73767 -1.04561 0
M  V30 5158 C 474.571 1.89633 0.418698 0
M  V30 5159 O 473.846 1.43723 1.3105 0
M  V30 5160 C 474.129 3.14505 -1.75382 0
M  V30 5161 C 473.982 3.06306 -3.29388 0
M  V30 5162 C 475.301 4.13615 -1.50369 0
M  V30 5163 H 472.42 0.630728 -0.38125 0
M  V30 5164 H 475.062 1.16057 -1.50435 0
M  V30 5165 H 473.212 3.63775 -1.36383 0
M  V30 5166 H 474.884 2.64681 -3.77812 0
M  V30 5167 H 473.127 2.43186 -3.59226 0
M  V30 5168 H 473.798 4.05884 -3.74116 0
M  V30 5169 H 476.274 3.73089 -1.84239 0
M  V30 5170 H 475.15 5.10212 -2.02421 0
M  V30 5171 H 475.411 4.39949 -0.435611 0
M  V30 5172 N 474.47 1.03057 1.19235 0
M  V30 5173 C 475.717 0.728019 1.88961 0
M  V30 5174 C 476.045 -0.743515 1.79728 0
M  V30 5175 O 475.3 -1.55729 1.1852 0
M  V30 5176 C 475.599 1.1268 3.39172 0
M  V30 5177 C 475.265 2.5969 3.68608 0
M  V30 5178 C 473.927 2.99854 3.76352 0
M  V30 5179 C 476.279 3.54793 3.81801 0
M  V30 5180 C 473.607 4.34031 3.94758 0
M  V30 5181 C 475.959 4.88675 4.0172 0
M  V30 5182 C 474.623 5.28526 4.07697 0
M  V30 5183 H 473.893 0.266401 0.691456 0
M  V30 5184 H 476.54 1.29373 1.41191 0
M  V30 5185 H 474.845 0.479722 3.88852 0
M  V30 5186 H 476.542 0.870203 3.91444 0
M  V30 5187 H 473.132 2.27575 3.63191 0
M  V30 5188 H 477.316 3.24914 3.7516 0
M  V30 5189 H 472.572 4.6444 3.97625 0
M  V30 5190 H 476.746 5.6228 4.1087 0
M  V30 5191 H 474.373 6.32506 4.21712 0
M  V30 5192 N 475.948 -1.35272 0.808662 0
M  V30 5193 C 477.196 -1.98316 0.389233 0
M  V30 5194 C 477.517 -1.64465 -1.04767 0
M  V30 5195 O 476.787 -0.928175 -1.72516 0
M  V30 5196 H 475.367 -0.733585 0.140935 0
M  V30 5197 H 478.029 -1.6515 1.03496 0
M  V30 5198 H 477.125 -3.08123 0.496631 0
M  V30 5199 N 477.426 -0.562348 -1.47226 0
M  V30 5200 C 478.654 -0.0452275 -2.06851 0
M  V30 5201 C 479.069 1.25078 -1.41424 0
M  V30 5202 O 478.426 1.75156 -0.512513 0
M  V30 5203 C 478.477 0.148674 -3.61194 0
M  V30 5204 O 478.198 -1.09602 -4.24169 0
M  V30 5205 C 479.699 0.702488 -4.37699 0
M  V30 5206 H 476.919 -0.0481775 -0.669268 0
M  V30 5207 H 479.463 -0.777223 -1.89155 0
M  V30 5208 H 477.618 0.830817 -3.78386 0
M  V30 5209 H 478.032 -0.896982 -5.16773 0
M  V30 5210 H 479.506 0.78743 -5.46355 0
M  V30 5211 H 479.983 1.71493 -4.04335 0
M  V30 5212 H 480.589 0.0558772 -4.25263 0
M  V30 5213 N 478.904 1.54736 -0.299062 0
M  V30 5214 C 480.152 1.99706 0.31017 0
M  V30 5215 C 480.473 1.18896 1.54559 0
M  V30 5216 O 479.743 0.284445 1.93824 0
M  V30 5217 H 478.323 0.737686 0.117596 0
M  V30 5218 H 480.985 1.9054 -0.409943 0
M  V30 5219 H 480.081 3.06596 0.58355 0
M  V30 5220 N 480.382 0.0267497 1.57577 0
M  V30 5221 C 481.63 -0.651116 1.91324 0
M  V30 5222 C 481.951 -1.72804 0.90353 0
M  V30 5223 O 481.221 -1.95822 -0.0552946 0
M  V30 5224 H 479.801 -0.243491 0.706202 0
M  V30 5225 H 482.463 0.0739935 1.94759 0
M  V30 5226 H 481.559 -1.10536 2.9187 0
M  V30 5227 N 481.861 -1.55662 -0.24637 0
M  V30 5228 C 482.808 -1.90361 -1.30504 0
M  V30 5229 C 483.778 -0.757905 -1.47801 0
M  V30 5230 O 484.963 -1.01161 -1.61775 0
M  V30 5231 C 482.103 -2.2042 -2.65535 0
M  V30 5232 C 481.216 -3.47799 -2.56242 0
M  V30 5233 C 480.351 -3.67426 -3.8363 0
M  V30 5234 C 479.39 -4.88403 -3.68956 0
M  V30 5235 N 478.527 -5.04548 -4.88237 0
M  V30 5236 H 483.367 -2.80645 -1.00213 0
M  V30 5237 H 480.904 -1.38924 -0.483577 0
M  V30 5238 H 482.862 -2.35853 -3.44135 0
M  V30 5239 H 481.492 -1.3334 -2.93973 0
M  V30 5240 H 480.544 -3.40694 -1.69208 0
M  V30 5241 H 481.856 -4.36544 -2.4131 0
M  V30 5242 H 481.01 -3.82821 -4.70673 0
M  V30 5243 H 479.749 -2.76914 -4.01459 0
M  V30 5244 H 478.754 -4.72984 -2.80296 0
M  V30 5245 H 479.979 -5.80375 -3.52621 0
M  V30 5246 H 477.925 -4.16974 -5.06427 0
M  V30 5247 H 477.842 -5.87384 -4.75937 0
M  V30 5248 H 479.11 -5.24355 -5.76777 0
M  V30 5249 N 483.339 0.512053 -1.4905 0
M  V30 5250 C 484.586 1.26686 -1.57978 0
M  V30 5251 C 484.914 1.92733 -0.261553 0
M  V30 5252 O 484.169 1.80772 0.749667 0
M  V30 5253 C 484.468 2.36446 -2.68008 0
M  V30 5254 C 484.134 1.87932 -4.09869 0
M  V30 5255 C 482.796 1.74419 -4.48477 0
M  V30 5256 C 485.148 1.5149 -4.98698 0
M  V30 5257 C 482.476 1.22827 -5.73699 0
M  V30 5258 C 484.828 1.01355 -6.24428 0
M  V30 5259 C 483.492 0.864735 -6.61875 0
M  V30 5260 H 482.762 0.463577 -0.578081 0
M  V30 5261 H 485.409 0.569421 -1.82838 0
M  V30 5262 H 483.714 3.11933 -2.37076 0
M  V30 5263 H 485.411 2.9453 -2.72127 0
M  V30 5264 H 482.001 1.99405 -3.79389 0
M  V30 5265 H 486.185 1.60782 -4.69535 0
M  V30 5266 H 481.441 1.10008 -6.01422 0
M  V30 5267 H 485.615 0.722351 -6.92644 0
M  V30 5268 H 483.242 0.462777 -7.5879 0
M  V30 5269 N 484.817 1.37938 0.762283 0
M  V30 5270 C 486.094 1.24196 1.51112 0
M  V30 5271 C 486.474 -0.160409 2.1049 0
M  V30 5272 O 485.822 -1.16904 1.96331 0
M  V30 5273 C 486.032 2.34537 2.58445 0
M  V30 5274 C 487.38 2.7254 3.25588 0
M  V30 5275 O 488.404 2.33783 2.68745 0
M  V30 5276 O 487.263 3.39343 4.28379 0
M  V30 5277 H 484.357 0.485175 0.669727 0
M  V30 5278 H 486.903 1.49743 0.798438 0
M  V30 5279 H 485.675 3.28406 2.12756 0
M  V30 5280 H 485.298 2.10505 3.37303 0
M  V30 5281 N 486.295 -0.989507 1.22664 0
M  V30 5282 C 487.544 -1.72375 1.04737 0
M  V30 5283 C 487.857 -1.91096 -0.417316 0
M  V30 5284 O 489.063 -2.6188 -0.716334 0
M  V30 5285 C 487.519 -3.10161 1.82561 0
M  V30 5286 C 487.127 -2.99358 3.333 0
M  V30 5287 C 488.871 -3.87607 1.73093 0
M  V30 5288 C 486.778 -4.32319 4.03552 0
M  V30 5289 H 485.708 -0.646326 0.388302 0
M  V30 5290 H 488.359 -1.10437 1.46546 0
M  V30 5291 H 486.741 -3.728 1.33552 0
M  V30 5292 H 487.915 -2.45863 3.89728 0
M  V30 5293 H 486.23 -2.35392 3.43481 0
M  V30 5294 H 488.827 -4.86025 2.22899 0
M  V30 5295 H 489.17 -4.10509 0.691976 0
M  V30 5296 H 489.703 -3.31652 2.19663 0
M  V30 5297 H 486.442 -4.14616 5.07714 0
M  V30 5298 H 485.962 -4.85714 3.51911 0
M  V30 5299 H 487.641 -5.01051 4.09337 0
M  V30 5300 N 487.773 -1.03688 -1.18687 0
M  V30 5301 C 489.022 -0.733235 -1.879 0
M  V30 5302 C 489.335 0.741745 -1.8099 0
M  V30 5303 O 490.541 1.15875 -2.4553 0
M  V30 5304 C 488.997 -1.26127 -3.37076 0
M  V30 5305 C 488.605 -2.76461 -3.52524 0
M  V30 5306 C 490.349 -1.03398 -4.11715 0
M  V30 5307 C 488.256 -3.22642 -4.95637 0
M  V30 5308 H 487.186 -0.270584 -0.703776 0
M  V30 5309 H 489.837 -1.25222 -1.34133 0
M  V30 5310 H 488.219 -0.670165 -3.90288 0
M  V30 5311 H 489.393 -3.41296 -3.09602 0
M  V30 5312 H 487.708 -2.97559 -2.91286 0
M  V30 5313 H 490.305 -1.3542 -5.17267 0
M  V30 5314 H 490.648 0.0289246 -4.1629 0
M  V30 5315 H 491.181 -1.5895 -3.64664 0
M  V30 5316 H 487.92 -4.28296 -4.96228 0
M  V30 5317 H 487.44 -2.62539 -5.39289 0
M  V30 5318 H 489.119 -3.16444 -5.64333 0
M  V30 5319 N 489.251 1.34841 -0.815825 0
M  V30 5320 C 490.183 2.28409 -0.190265 0
M  V30 5321 C 491.196 1.50705 0.615771 0
M  V30 5322 O 492.385 1.72822 0.446616 0
M  V30 5323 C 489.485 3.30441 0.752446 0
M  V30 5324 C 488.658 4.37399 -0.00922152 0
M  V30 5325 C 487.717 5.19234 0.853351 0
M  V30 5326 O 486.743 5.68404 0.300919 0
M  V30 5327 N 487.945 5.38248 2.17416 0
M  V30 5328 H 490.71 2.82732 -0.994114 0
M  V30 5329 H 488.271 1.47289 -0.672129 0
M  V30 5330 H 490.263 3.82084 1.33394 0
M  V30 5331 H 488.833 2.76565 1.45707 0
M  V30 5332 H 488.053 3.86567 -0.771979 0
M  V30 5333 H 489.341 5.05992 -0.533807 0
M  V30 5334 H 488.739 4.99961 2.6468 0
M  V30 5335 H 487.296 5.93035 2.70467 0
M  V30 5336 N 490.729 0.570148 1.46925 0
M  V30 5337 C 491.659 -0.158274 2.32963 0
M  V30 5338 C 492.64 -0.896093 1.44583 0
M  V30 5339 O 493.825 -0.874022 1.7342 0
M  V30 5340 C 490.955 -1.18055 3.26619 0
M  V30 5341 C 489.909 -0.558379 4.24342 0
M  V30 5342 C 489.235 -1.68623 5.07415 0
M  V30 5343 C 490.535 0.496295 5.19937 0
M  V30 5344 H 492.229 0.560046 2.94115 0
M  V30 5345 H 489.775 0.270775 1.41431 0
M  V30 5346 H 491.728 -1.69841 3.85658 0
M  V30 5347 H 490.452 -1.92899 2.63548 0
M  V30 5348 H 489.111 -0.0617157 3.66548 0
M  V30 5349 H 488.759 -2.42402 4.40738 0
M  V30 5350 H 488.459 -1.27564 5.73586 0
M  V30 5351 H 489.983 -2.20709 5.69315 0
M  V30 5352 H 491.397 0.0640052 5.73264 0
M  V30 5353 H 489.794 0.82649 5.94381 0
M  V30 5354 H 490.864 1.38735 4.6463 0
M  V30 5355 N 492.207 -1.54576 0.307264 0
M  V30 5356 C 493.453 -2.0056 -0.300612 0
M  V30 5357 C 493.786 -1.1953 -1.53057 0
M  V30 5358 O 493.061 -0.27337 -1.92569 0
M  V30 5359 C 493.344 -3.54167 -0.650987 0
M  V30 5360 C 493.197 -4.45933 0.588539 0
M  V30 5361 C 494.516 -4.14645 -1.47506 0
M  V30 5362 H 491.635 -0.729075 -0.107788 0
M  V30 5363 H 494.277 -1.85286 0.420606 0
M  V30 5364 H 492.427 -3.67313 -1.26544 0
M  V30 5365 H 494.099 -4.44683 1.22697 0
M  V30 5366 H 492.342 -4.16274 1.22058 0
M  V30 5367 H 493.013 -5.51189 0.299153 0
M  V30 5368 H 495.489 -4.04973 -0.955821 0
M  V30 5369 H 494.365 -5.22269 -1.68899 0
M  V30 5370 H 494.626 -3.66921 -2.4662 0
M  V30 5371 N 493.685 -0.035106 -1.57561 0
M  V30 5372 C 494.931 0.64318 -1.92331 0
M  V30 5373 C 495.264 1.71434 -0.912368 0
M  V30 5374 O 494.539 1.94395 0.0640303 0
M  V30 5375 C 494.822 1.25411 -3.37556 0
M  V30 5376 C 494.675 0.192109 -4.4939 0
M  V30 5377 C 495.994 2.17041 -3.82859 0
M  V30 5378 H 493.113 0.232341 -0.699419 0
M  V30 5379 H 495.755 -0.0935889 -1.89769 0
M  V30 5380 H 493.905 1.88205 -3.39869 0
M  V30 5381 H 495.577 -0.438849 -4.59208 0
M  V30 5382 H 493.82 -0.481725 -4.31117 0
M  V30 5383 H 494.491 0.659292 -5.48049 0
M  V30 5384 H 496.967 1.64228 -3.8232 0
M  V30 5385 H 495.843 2.56738 -4.85157 0
M  V30 5386 H 496.104 3.06401 -3.18702 0
M  V30 5387 N 495.163 1.55791 0.238111 0
M  V30 5388 C 496.393 1.81834 0.980809 0
M  V30 5389 C 496.801 0.609741 1.79106 0
M  V30 5390 O 496.144 -0.431073 1.78571 0
M  V30 5391 C 496.206 3.01363 1.96011 0
M  V30 5392 C 495.87 4.37037 1.33597 0
M  V30 5393 C 496.867 5.14692 0.734063 0
M  V30 5394 C 494.552 4.83743 1.3527 0
M  V30 5395 C 496.546 6.37206 0.157208 0
M  V30 5396 C 494.233 6.06204 0.77199 0
M  V30 5397 C 495.231 6.82775 0.175282 0
M  V30 5398 O 494.919 8.02922 -0.396432 0
M  V30 5399 H 494.651 0.6088 0.293834 0
M  V30 5400 H 497.205 2.03702 0.263552 0
M  V30 5401 H 495.435 2.75273 2.71591 0
M  V30 5402 H 497.124 3.14422 2.56697 0
M  V30 5403 H 497.89 4.79722 0.713582 0
M  V30 5404 H 493.769 4.24129 1.80653 0
M  V30 5405 H 497.313 6.96915 -0.30917 0
M  V30 5406 H 493.21 6.4065 0.789828 0
M  V30 5407 H 493.978 8.17989 -0.289145 0
M  V30 5408 N 496.642 -0.504142 1.49319 0
M  V30 5409 C 497.891 -1.25507 1.57895 0
M  V30 5410 C 498.204 -1.93735 0.269433 0
M  V30 5411 O 499.41 -2.70492 0.233706 0
M  V30 5412 C 497.866 -2.27869 2.78574 0
M  V30 5413 C 497.474 -1.65594 4.16272 0
M  V30 5414 C 499.218 -3.0381 2.96479 0
M  V30 5415 C 497.125 -2.66048 5.28178 0
M  V30 5416 H 496.055 -0.47212 0.587894 0
M  V30 5417 H 498.706 -0.52931 1.757 0
M  V30 5418 H 497.088 -3.03594 2.54257 0
M  V30 5419 H 498.262 -0.958826 4.50714 0
M  V30 5420 H 496.577 -1.02055 4.037 0
M  V30 5421 H 499.174 -3.78925 3.77253 0
M  V30 5422 H 499.517 -3.61235 2.06918 0
M  V30 5423 H 500.05 -2.352 3.20821 0
M  V30 5424 H 496.789 -2.13408 6.19788 0
M  V30 5425 H 496.309 -3.34009 4.98195 0
M  V30 5426 H 497.988 -3.28536 5.57381 0
M  V30 5427 N 498.12 -1.38341 -0.754957 0
M  V30 5428 C 499.368 -1.34208 -1.51105 0
M  V30 5429 C 499.689 0.0677634 -1.94882 0
M  V30 5430 O 498.959 1.01517 -1.67544 0
M  V30 5431 H 497.539 -0.493819 -0.560493 0
M  V30 5432 H 500.201 -1.73005 -0.897507 0
M  V30 5433 H 499.297 -1.99203 -2.4026 0
M  V30 5434 N 499.598 0.982988 -1.23187 0
M  V30 5435 C 500.823 1.76455 -1.08988 0
M  V30 5436 C 501.248 1.84726 0.354691 0
M  V30 5437 O 500.606 1.30699 1.25649 0
M  V30 5438 C 500.654 3.17094 -1.71708 0
M  V30 5439 O 499.758 4.00648 -0.977477 0
M  V30 5440 H 499.099 0.542988 -0.382177 0
M  V30 5441 H 501.629 1.23413 -1.63188 0
M  V30 5442 H 501.639 3.67684 -1.76841 0
M  V30 5443 H 500.314 3.10389 -2.76823 0
M  V30 5444 H 498.891 3.59161 -1.0029 0
M  V30 5445 N 501.076 1.04316 1.18135 0
M  V30 5446 C 502.304 0.768117 1.92113 0
M  V30 5447 C 502.719 -0.675057 1.76319 0
M  V30 5448 O 502.076 -1.46038 1.09449 0
M  V30 5449 C 502.127 1.12808 3.43448 0
M  V30 5450 O 501.848 2.5146 3.58747 0
M  V30 5451 C 503.349 0.8779 4.3452 0
M  V30 5452 H 500.569 0.279937 0.609817 0
M  V30 5453 H 503.113 1.39149 1.49859 0
M  V30 5454 H 501.268 0.549623 3.83481 0
M  V30 5455 H 501.682 2.65313 4.52448 0
M  V30 5456 H 503.156 1.17959 5.39249 0
M  V30 5457 H 503.633 -0.187239 4.38801 0
M  V30 5458 H 504.239 1.43977 4.00188 0
M  V30 5459 N 502.554 -1.34406 0.822964 0
M  V30 5460 C 503.484 -2.32052 0.259608 0
M  V30 5461 C 504.465 -1.58243 -0.623961 0
M  V30 5462 O 505.65 -1.86224 -0.55083 0
M  V30 5463 C 502.78 -3.42434 -0.579314 0
M  V30 5464 C 501.734 -4.27499 0.20712 0
M  V30 5465 C 501.06 -5.29349 -0.754547 0
M  V30 5466 C 502.36 -5.02758 1.41533 0
M  V30 5467 H 504.054 -2.79418 1.07545 0
M  V30 5468 H 501.6 -1.34338 0.518593 0
M  V30 5469 H 503.553 -4.0976 -0.983612 0
M  V30 5470 H 502.277 -2.93717 -1.4282 0
M  V30 5471 H 500.936 -3.61776 0.592787 0
M  V30 5472 H 500.584 -4.76895 -1.59939 0
M  V30 5473 H 500.284 -5.8714 -0.232561 0
M  V30 5474 H 501.808 -5.99544 -1.1567 0
M  V30 5475 H 503.222 -5.62938 1.08504 0
M  V30 5476 H 501.619 -5.70123 1.87296 0
M  V30 5477 H 502.689 -4.32451 2.1935 0
M  V30 5478 N 504.032 -0.577932 -1.46621 0
M  V30 5479 C 505.257 -0.0652536 -2.07297 0
M  V30 5480 C 505.682 1.22828 -1.4246 0
M  V30 5481 O 505.04 1.74075 -0.506718 0
M  V30 5482 C 505.088 0.0920589 -3.60482 0
M  V30 5483 O 504.192 1.14972 -3.96049 0
M  V30 5484 H 503.533 -0.06065 -0.661224 0
M  V30 5485 H 506.063 -0.799515 -1.88332 0
M  V30 5486 H 506.073 0.299741 -4.06897 0
M  V30 5487 H 504.748 -0.852612 -4.07067 0
M  V30 5488 H 503.325 0.920879 -3.61351 0
M  V30 5489 N 505.51 1.54411 -0.315457 0
M  V30 5490 C 506.74 2.04536 0.291315 0
M  V30 5491 C 507.148 1.19162 1.4696 0
M  V30 5492 O 506.491 0.213199 1.82459 0
M  V30 5493 C 506.553 3.5056 0.796725 0
M  V30 5494 C 506.217 4.5627 -0.258178 0
M  V30 5495 C 507.214 5.08312 -1.09153 0
M  V30 5496 C 504.899 5.00672 -0.404036 0
M  V30 5497 C 506.893 6.03312 -2.05655 0
M  V30 5498 C 504.58 5.95488 -1.37248 0
M  V30 5499 C 505.578 6.46693 -2.19721 0
M  V30 5500 O 505.266 7.39648 -3.14921 0
M  V30 5501 H 504.998 0.672856 0.0651165 0
M  V30 5502 H 507.552 2.00244 -0.457308 0
M  V30 5503 H 505.782 3.52223 1.59612 0
M  V30 5504 H 507.471 3.83804 1.32096 0
M  V30 5505 H 508.237 4.74793 -0.98979 0
M  V30 5506 H 504.116 4.60436 0.22799 0
M  V30 5507 H 507.66 6.43203 -2.70067 0
M  V30 5508 H 503.557 6.28424 -1.47489 0
M  V30 5509 H 504.325 7.57496 -3.10067 0
M  V30 5510 N 506.988 0.0434614 1.5754 0
M  V30 5511 C 508.235 -0.632035 1.92384 0
M  V30 5512 C 508.563 -1.71304 0.921157 0
M  V30 5513 O 507.818 -1.95583 -0.067744 0
M  V30 5514 C 508.117 -1.2738 3.3393 0
M  V30 5515 C 507.783 -0.321757 4.49751 0
M  V30 5516 C 506.445 -0.0597611 4.81163 0
M  V30 5517 C 508.797 0.331158 5.20147 0
M  V30 5518 C 506.125 0.862715 5.80322 0
M  V30 5519 C 508.477 1.24178 6.20292 0
M  V30 5520 C 507.141 1.51252 6.50138 0
M  V30 5521 H 506.411 -0.231278 0.703983 0
M  V30 5522 H 509.058 0.108294 1.91194 0
M  V30 5523 H 507.363 -2.08921 3.3145 0
M  V30 5524 H 509.06 -1.80326 3.58167 0
M  V30 5525 H 505.65 -0.53614 4.25233 0
M  V30 5526 H 509.834 0.141826 4.96097 0
M  V30 5527 H 505.09 1.08003 6.01785 0
M  V30 5528 H 509.264 1.75381 6.73954 0
M  V30 5529 H 506.891 2.22897 7.26788 0
M  V30 5530 N 508.466 -1.55915 -0.229846 0
M  V30 5531 C 509.714 -1.7819 -0.953565 0
M  V30 5532 C 510.035 -0.610504 -1.85197 0
M  V30 5533 O 509.305 0.372988 -1.92316 0
M  V30 5534 H 507.885 -0.657208 -0.355087 0
M  V30 5535 H 510.547 -1.9337 -0.243693 0
M  V30 5536 H 509.643 -2.70011 -1.56527 0
M  V30 5537 N 509.944 0.496216 -1.49584 0
M  V30 5538 C 510.874 1.60576 -1.69521 0
M  V30 5539 C 511.855 1.61169 -0.543933 0
M  V30 5540 O 513.04 1.77834 -0.78031 0
M  V30 5541 C 510.17 2.99038 -1.76616 0
M  V30 5542 C 509.124 3.13312 -2.91581 0
M  V30 5543 C 508.45 4.53172 -2.83794 0
M  V30 5544 C 509.75 2.92886 -4.32452 0
M  V30 5545 H 511.444 1.44146 -2.62416 0
M  V30 5546 H 508.99 0.692024 -1.26282 0
M  V30 5547 H 510.943 3.76564 -1.8915 0
M  V30 5548 H 509.667 3.16568 -0.80324 0
M  V30 5549 H 508.326 2.38213 -2.78658 0
M  V30 5550 H 507.974 4.67585 -1.854 0
M  V30 5551 H 507.674 4.63662 -3.60958 0
M  V30 5552 H 509.198 5.32752 -2.98342 0
M  V30 5553 H 510.612 3.60178 -4.46032 0
M  V30 5554 H 509.009 3.14844 -5.10875 0
M  V30 5555 H 510.079 1.88966 -4.46565 0
M  V30 5556 N 511.423 1.38739 0.74761 0
M  V30 5557 C 512.386 1.36241 1.84312 0
M  V30 5558 C 513.386 0.261811 1.58654 0
M  V30 5559 O 514.576 0.519031 1.66288 0
M  V30 5560 C 511.708 1.12253 3.21888 0
M  V30 5561 H 512.901 2.33712 1.87933 0
M  V30 5562 H 510.454 1.2412 0.949946 0
M  V30 5563 H 511.189 0.154133 3.23934 0
M  V30 5564 H 510.974 1.91943 3.41907 0
M  V30 5565 H 512.464 1.13215 4.0196 0
M  V30 5566 N 512.901 -0.976442 1.23707 0
M  V30 5567 C 513.864 -2.0511 1.02287 0
M  V30 5568 C 514.864 -1.60791 -0.0167195 0
M  V30 5569 O 516.054 -1.72761 0.223408 0
M  V30 5570 C 513.186 -3.36458 0.548507 0
M  V30 5571 H 514.379 -2.25545 1.9766 0
M  V30 5572 H 511.932 -1.15042 1.05806 0
M  V30 5573 H 512.667 -3.21713 -0.408818 0
M  V30 5574 H 512.452 -3.69967 1.29874 0
M  V30 5575 H 513.942 -4.15489 0.419406 0
M  V30 5576 N 514.379 -1.04941 -1.1758 0
M  V30 5577 C 515.625 -0.759112 -1.88057 0
M  V30 5578 C 515.958 0.711918 -1.8068 0
M  V30 5579 O 515.233 1.52035 -1.21308 0
M  V30 5580 C 515.516 -1.237 -3.38187 0
M  V30 5581 C 515.369 -2.77078 -3.54327 0
M  V30 5582 C 516.688 -0.834014 -4.32125 0
M  V30 5583 H 513.807 -0.277237 -0.682868 0
M  V30 5584 H 516.449 -1.30296 -1.38286 0
M  V30 5585 H 514.599 -0.774337 -3.80705 0
M  V30 5586 H 516.271 -3.31449 -3.20842 0
M  V30 5587 H 514.514 -3.16477 -2.96689 0
M  V30 5588 H 515.185 -3.05577 -4.59703 0
M  V30 5589 H 517.661 -1.23228 -3.97434 0
M  V30 5590 H 516.537 -1.19603 -5.35711 0
M  V30 5591 H 516.798 0.262195 -4.41322 0
M  V30 5592 N 515.857 1.33968 -0.830081 0
M  V30 5593 C 517.104 1.98063 -0.421566 0
M  V30 5594 C 517.432 1.65787 1.0171 0
M  V30 5595 O 516.687 0.925348 1.72441 0
M  V30 5596 C 516.986 3.52679 -0.57898 0
M  V30 5597 C 516.652 4.04884 -1.98443 0
M  V30 5598 C 515.314 4.18852 -2.36888 0
M  V30 5599 C 517.666 4.32879 -2.90285 0
M  V30 5600 C 514.994 4.58145 -3.66497 0
M  V30 5601 C 517.346 4.7362 -4.19364 0
M  V30 5602 C 516.01 4.85794 -4.57778 0
M  V30 5603 H 515.28 0.724765 -0.154262 0
M  V30 5604 H 517.927 1.59792 -1.05541 0
M  V30 5605 H 516.232 3.91556 0.138219 0
M  V30 5606 H 517.929 4.00261 -0.243317 0
M  V30 5607 H 514.519 3.9448 -1.67581 0
M  V30 5608 H 518.703 4.21619 -2.61823 0
M  V30 5609 H 513.959 4.65762 -3.96075 0
M  V30 5610 H 518.133 4.9424 -4.90612 0
M  V30 5611 H 515.76 5.15998 -5.58256 0
M  V30 5612 N 517.335 0.585699 1.46312 0
M  V30 5613 C 518.584 0.0701192 2.01578 0
M  V30 5614 C 518.897 -1.29889 1.46247 0
M  V30 5615 O 520.103 -1.90598 1.93351 0
M  V30 5616 C 518.559 0.0747499 3.59822 0
M  V30 5617 C 518.167 1.44226 4.24149 0
M  V30 5618 C 519.911 -0.38673 4.22735 0
M  V30 5619 C 517.818 1.40446 5.74481 0
M  V30 5620 H 516.748 0.0224441 0.753666 0
M  V30 5621 H 519.399 0.737789 1.68015 0
M  V30 5622 H 517.781 -0.659144 3.90476 0
M  V30 5623 H 518.955 2.19612 4.05101 0
M  V30 5624 H 517.27 1.84401 3.73343 0
M  V30 5625 H 519.867 -0.433853 5.32937 0
M  V30 5626 H 520.21 -1.40489 3.91878 0
M  V30 5627 H 520.743 0.293195 3.96718 0
M  V30 5628 H 517.482 2.39952 6.10003 0
M  V30 5629 H 517.002 0.692845 5.95785 0
M  V30 5630 H 518.681 1.11865 6.37256 0
M  V30 5631 N 518.813 -1.54241 0.323641 0
M  V30 5632 C 520.09 -1.92741 -0.333181 0
M  V30 5633 C 520.47 -1.25326 -1.69872 0
M  V30 5634 O 519.818 -0.396991 -2.25025 0
M  V30 5635 C 520.028 -3.46399 -0.425322 0
M  V30 5636 C 521.376 -4.19029 -0.68557 0
M  V30 5637 O 522.4 -3.52555 -0.50824 0
M  V30 5638 O 521.259 -5.36751 -1.02767 0
M  V30 5639 H 518.353 -0.804811 -0.190286 0
M  V30 5640 H 520.899 -1.65542 0.373361 0
M  V30 5641 H 519.671 -3.87643 0.533737 0
M  V30 5642 H 519.294 -3.79704 -1.17944 0
M  V30 5643 N 520.291 -0.0518155 -1.57515 0
M  V30 5644 C 521.538 0.621823 -1.92716 0
M  V30 5645 C 521.866 1.70813 -0.930229 0
M  V30 5646 O 521.121 1.95616 0.0573708 0
M  V30 5647 C 521.42 1.25607 -3.34601 0
M  V30 5648 C 521.086 0.297901 -4.49915 0
M  V30 5649 C 519.748 0.034243 -4.81188 0
M  V30 5650 C 522.1 -0.358738 -5.19964 0
M  V30 5651 C 519.428 -0.893479 -5.79857 0
M  V30 5652 C 521.78 -1.27466 -6.19625 0
M  V30 5653 C 520.444 -1.54698 -6.49326 0
M  V30 5654 H 519.714 0.227541 -0.705199 0
M  V30 5655 H 522.361 -0.118432 -1.91133 0
M  V30 5656 H 520.666 2.07161 -3.32553 0
M  V30 5657 H 522.363 1.78424 -3.59118 0
M  V30 5658 H 518.953 0.513581 -4.25512 0
M  V30 5659 H 523.137 -0.168133 -4.96015 0
M  V30 5660 H 518.393 -1.11193 -6.01204 0
M  V30 5661 H 522.567 -1.78953 -6.73015 0
M  V30 5662 H 520.194 -2.26748 -7.25596 0
M  V30 5663 N 521.769 1.56035 0.221574 0
M  V30 5664 C 522.699 1.95434 1.2778 0
M  V30 5665 C 523.68 0.822564 1.48889 0
M  V30 5666 O 524.865 1.08486 1.61072 0
M  V30 5667 C 521.995 2.27102 2.62759 0
M  V30 5668 C 520.949 3.4277 2.56306 0
M  V30 5669 C 520.275 3.60043 3.95314 0
M  V30 5670 C 521.575 4.77742 2.11093 0
M  V30 5671 H 523.269 2.83912 0.950504 0
M  V30 5672 H 520.815 1.36596 0.455791 0
M  V30 5673 H 522.768 2.53256 3.36807 0
M  V30 5674 H 521.492 1.35478 2.97176 0
M  V30 5675 H 520.151 3.16664 1.84715 0
M  V30 5676 H 519.799 2.65794 4.27039 0
M  V30 5677 H 519.499 4.37841 3.91879 0
M  V30 5678 H 521.023 3.88545 4.71025 0
M  V30 5679 H 522.437 5.03102 2.74885 0
M  V30 5680 H 520.834 5.58823 2.18716 0
M  V30 5681 H 521.904 4.731 1.06321 0
M  V30 5682 N 523.247 -0.488276 1.49845 0
M  V30 5683 C 524.496 -1.23826 1.59217 0
M  V30 5684 C 524.809 -1.93439 0.289966 0
M  V30 5685 O 526.015 -2.70229 0.262382 0
M  V30 5686 C 524.471 -2.24902 2.80976 0
M  V30 5687 C 524.079 -1.6117 4.18005 0
M  V30 5688 C 525.823 -3.00648 2.99685 0
M  V30 5689 C 523.73 -2.60431 5.3097 0
M  V30 5690 H 522.66 -0.465858 0.592868 0
M  V30 5691 H 525.311 -0.510645 1.76252 0
M  V30 5692 H 523.693 -3.0088 2.57463 0
M  V30 5693 H 524.867 -0.910968 4.51706 0
M  V30 5694 H 523.182 -0.97767 4.0476 0
M  V30 5695 H 525.779 -3.74903 3.81251 0
M  V30 5696 H 526.122 -3.5902 2.10738 0
M  V30 5697 H 526.655 -2.31784 3.23297 0
M  V30 5698 H 523.394 -2.06823 6.22017 0
M  V30 5699 H 522.914 -3.28707 5.01709 0
M  V30 5700 H 524.593 -3.22606 5.60834 0
M  V30 5701 N 524.725 -1.39134 -0.740242 0
M  V30 5702 C 526.002 -1.26584 -1.49117 0
M  V30 5703 C 526.382 0.126902 -2.10718 0
M  V30 5704 O 525.73 1.13765 -1.98166 0
M  V30 5705 C 525.94 -2.38619 -2.54681 0
M  V30 5706 C 527.288 -2.77685 -3.21211 0
M  V30 5707 O 528.312 -2.38029 -2.64991 0
M  V30 5708 O 527.171 -3.46115 -4.22926 0
M  V30 5709 H 524.265 -0.495769 -0.661923 0
M  V30 5710 H 526.811 -1.50995 -0.774514 0
M  V30 5711 H 525.583 -3.3175 -2.07504 0
M  V30 5712 H 525.206 -2.15845 -3.33911 0
M  V30 5713 N 526.204 0.969867 -1.24223 0
M  V30 5714 C 527.432 1.74756 -1.10761 0
M  V30 5715 C 527.847 1.85713 0.340041 0
M  V30 5716 O 527.204 1.34389 1.23474 0
M  V30 5717 C 527.255 3.16915 -1.73917 0
M  V30 5718 O 526.976 3.06511 -3.13021 0
M  V30 5719 C 528.477 4.11032 -1.66036 0
M  V30 5720 H 525.697 0.548092 -0.387087 0
M  V30 5721 H 528.241 1.2178 -1.64286 0
M  V30 5722 H 526.396 3.66884 -1.244 0
M  V30 5723 H 526.81 3.96079 -3.43834 0
M  V30 5724 H 528.284 5.08446 -2.14911 0
M  V30 5725 H 528.761 4.34785 -0.621159 0
M  V30 5726 H 529.367 3.66972 -2.14969 0
M  V30 5727 N 527.682 1.05563 1.17022 0
M  V30 5728 C 528.912 0.787307 1.91011 0
M  V30 5729 C 529.32 -0.661256 1.77268 0
M  V30 5730 O 528.663 -1.46379 1.10991 0
M  V30 5731 C 528.725 1.09313 3.42478 0
M  V30 5732 C 528.389 2.53863 3.80004 0
M  V30 5733 C 529.386 3.52081 3.82538 0
M  V30 5734 C 527.071 2.88969 4.10855 0
M  V30 5735 C 529.065 4.83449 4.15399 0
M  V30 5736 C 526.752 4.2054 4.43384 0
M  V30 5737 C 527.75 5.17589 4.45635 0
M  V30 5738 O 527.438 6.46799 4.77395 0
M  V30 5739 H 527.17 0.285463 0.61277 0
M  V30 5740 H 529.724 1.41051 1.49311 0
M  V30 5741 H 527.954 0.412833 3.8449 0
M  V30 5742 H 529.643 0.810224 3.97731 0
M  V30 5743 H 530.409 3.26299 3.58823 0
M  V30 5744 H 526.288 2.1409 4.08272 0
M  V30 5745 H 529.832 5.59194 4.1707 0
M  V30 5746 H 525.729 4.46083 4.66563 0
M  V30 5747 H 526.497 6.51677 4.95237 0
M  V30 5748 N 529.16 -1.33526 0.837174 0
M  V30 5749 C 530.385 -2.0258 0.444545 0
M  V30 5750 C 530.81 -1.6258 -0.946006 0
M  V30 5751 O 530.168 -0.817548 -1.6182 0
M  V30 5752 C 530.216 -3.5605 0.571006 0
M  V30 5753 O 529.32 -4.10422 -0.403431 0
M  V30 5754 H 528.661 -0.638866 0.180958 0
M  V30 5755 H 531.191 -1.70462 1.13154 0
M  V30 5756 H 531.201 -4.05488 0.452024 0
M  V30 5757 H 529.876 -3.84509 1.58512 0
M  V30 5758 H 528.453 -3.72113 -0.242147 0
M  V30 5759 N 530.638 -0.59345 -1.46 0
M  V30 5760 C 531.863 -0.0872365 -2.07216 0
M  V30 5761 C 532.288 1.2131 -1.43755 0
M  V30 5762 O 531.646 1.73528 -0.525152 0
M  V30 5763 C 531.694 0.0538197 -3.6056 0
M  V30 5764 O 530.798 1.10765 -3.97247 0
M  V30 5765 H 530.139 -0.0676598 -0.660544 0
M  V30 5766 H 532.669 -0.819445 -1.87473 0
M  V30 5767 H 532.679 0.256567 -4.07193 0
M  V30 5768 H 531.354 -0.895739 -4.0614 0
M  V30 5769 H 529.931 0.882501 -3.62307 0
M  V30 5770 N 532.116 1.54067 -0.331816 0
M  V30 5771 C 533.064 2.26105 0.54582 0
M  V30 5772 C 534.058 1.27816 1.11173 0
M  V30 5773 O 535.264 1.45565 1.05882 0
M  V30 5774 H 531.639 0.726363 0.194683 0
M  V30 5775 H 533.61 2.98282 -0.083931 0
M  V30 5776 C 532.359 3.03814 1.69092 0
M  V30 5777 H 531.682 3.79269 1.26473 0
M  V30 5778 H 533.122 3.57453 2.28043 0
M  V30 5779 C 531.581 2.12606 2.61343 0
M  V30 5780 O 532.111 1.71437 3.6328 0
M  V30 5781 N 530.317 1.77925 2.29763 0
M  V30 5782 H 529.864 2.11602 1.46909 0
M  V30 5783 H 529.822 1.1718 2.91747 0
M  V30 5784 N 533.594 0.0601682 1.57485 0
M  V30 5785 C 534.834 -0.615384 1.94916 0
M  V30 5786 C 535.198 -1.67475 0.938948 0
M  V30 5787 O 536.399 -2.40502 1.20051 0
M  V30 5788 C 534.67 -1.18788 3.37082 0
M  V30 5789 S 536.229 -1.88018 3.96478 0
M  V30 5790 H 533.047 -0.201821 0.681754 0
M  V30 5791 H 535.649 0.131252 1.95059 0
M  V30 5792 H 534.353 -0.404869 4.08398 0
M  V30 5793 H 533.884 -1.97114 3.40455 0
M  V30 5794 H 535.899 -3.16161 3.82435 0
M  V30 5795 N 535.072 -1.5615 -0.213296 0
M  V30 5796 C 536.312 -1.81325 -0.943435 0
M  V30 5797 C 536.676 -0.634934 -1.81198 0
M  V30 5798 O 537.877 -0.766166 -2.5765 0
M  V30 5799 C 536.148 -3.11437 -1.75334 0
M  V30 5800 S 537.707 -3.57955 -2.53799 0
M  V30 5801 H 534.525 -0.636538 -0.316766 0
M  V30 5802 H 537.127 -1.94387 -0.208313 0
M  V30 5803 H 535.831 -3.95228 -1.10556 0
M  V30 5804 H 535.362 -3.01204 -2.53061 0
M  V30 5805 H 537.377 -3.21947 -3.77577 0
M  V30 5806 N 536.55 0.480323 -1.50102 0
M  V30 5807 C 537.966 0.813295 -1.37323 0
M  V30 5808 C 538.166 1.97027 -0.422206 0
M  V30 5809 O 537.222 2.5212 0.138563 0
M  V30 5810 C 538.535 1.13404 -2.78496 0
M  V30 5811 C 540.083 1.24104 -2.87345 0
M  V30 5812 C 540.558 1.59497 -4.29331 0
M  V30 5813 N 542.049 1.66507 -4.32238 0
M  V30 5814 C 542.784 1.95378 -5.39087 0
M  V30 5815 N 542.28 2.22333 -6.56155 0
M  V30 5816 N 544.073 1.96803 -5.26522 0
M  V30 5817 H 536.224 -0.282291 -2.10516 0
M  V30 5818 H 538.487 -0.063752 -0.945854 0
M  V30 5819 H 538.193 0.357064 -3.49883 0
M  V30 5820 H 538.067 2.07251 -3.15162 0
M  V30 5821 H 540.454 2.00871 -2.16183 0
M  V30 5822 H 540.535 0.282593 -2.54234 0
M  V30 5823 H 540.179 0.832736 -5.01027 0
M  V30 5824 H 540.109 2.56477 -4.59921 0
M  V30 5825 H 542.6 1.47753 -3.47818 0
M  V30 5826 H 542.913 2.43611 -7.33399 0
M  V30 5827 H 541.258 2.19745 -6.59346 0
M  V30 5828 H 544.449 1.75235 -4.34062 0
M  V30 5829 H 544.622 2.18969 -6.09883 0
M  V30 5830 N 538.028 1.39524 0.732853 0
M  V30 5831 C 539.253 1.40329 1.52717 0
M  V30 5832 C 539.678 0.000286574 1.881 0
M  V30 5833 O 539.036 -0.987262 1.52062 0
M  V30 5834 C 539.084 2.28464 2.78992 0
M  V30 5835 O 538.188 1.716 3.75003 0
M  V30 5836 H 537.529 0.47778 0.461109 0
M  V30 5837 H 540.059 1.83546 0.903996 0
M  V30 5838 H 540.069 2.43051 3.27705 0
M  V30 5839 H 538.744 3.30425 2.52572 0
M  V30 5840 H 537.321 1.66267 3.33781 0
M  V30 5841 N 539.506 -0.963266 1.24736 0
M  V30 5842 C 540.456 -2.0438 1.01058 0
M  V30 5843 C 541.44 -1.60824 -0.0495354 0
M  V30 5844 O 542.632 -1.76232 0.164741 0
M  V30 5845 C 539.761 -3.37617 0.622067 0
M  V30 5846 C 538.847 -3.87722 1.7185 0
M  V30 5847 N 539.238 -4.10715 2.95207 0
M  V30 5848 C 537.536 -4.16426 1.59703 0
M  V30 5849 C 538.237 -4.51872 3.66315 0
M  V30 5850 N 537.213 -4.57302 2.93897 0
M  V30 5851 H 541.015 -2.20138 1.94721 0
M  V30 5852 H 538.529 -1.14741 1.14927 0
M  V30 5853 H 540.526 -4.14638 0.43366 0
M  V30 5854 H 539.186 -3.23242 -0.307327 0
M  V30 5855 H 540.197 -3.98037 3.31341 0
M  V30 5856 H 536.874 -4.10962 0.73598 0
M  V30 5857 H 538.264 -4.78037 4.72155 0
M  V30 5858 N 540.985 -1.06182 -1.16461 0
M  V30 5859 C 542.234 -0.772927 -1.86303 0
M  V30 5860 C 542.547 0.703187 -1.82523 0
M  V30 5861 O 543.753 1.10641 -2.47933 0
M  V30 5862 C 542.209 -1.33249 -3.34324 0
M  V30 5863 C 541.817 -2.83876 -3.46581 0
M  V30 5864 C 543.561 -1.12108 -4.09429 0
M  V30 5865 C 541.468 -3.33082 -4.88682 0
M  V30 5866 H 540.398 -0.285452 -0.697878 0
M  V30 5867 H 543.049 -1.28039 -1.31447 0
M  V30 5868 H 541.431 -0.7528 -3.88779 0
M  V30 5869 H 542.605 -3.47786 -3.02293 0
M  V30 5870 H 540.92 -3.03671 -2.84909 0
M  V30 5871 H 543.517 -1.46361 -5.14279 0
M  V30 5872 H 543.86 -0.0593832 -4.16258 0
M  V30 5873 H 544.393 -1.6665 -3.6121 0
M  V30 5874 H 541.132 -4.38726 -4.87032 0
M  V30 5875 H 540.652 -2.73919 -5.33599 0
M  V30 5876 H 542.331 -3.28344 -5.57494 0
M  V30 5877 N 542.463 1.3308 -0.844243 0
M  V30 5878 C 543.693 2.01515 -0.455541 0
M  V30 5879 C 544.101 1.63655 0.949406 0
M  V30 5880 O 543.444 0.84848 1.62931 0
M  V30 5881 C 543.506 3.55967 -0.502801 0
M  V30 5882 C 543.17 4.17222 -1.86481 0
M  V30 5883 C 544.167 4.36205 -2.8288 0
M  V30 5884 C 541.852 4.53528 -2.15911 0
M  V30 5885 C 543.846 4.90649 -4.06869 0
M  V30 5886 C 541.533 5.07679 -3.40155 0
M  V30 5887 C 542.531 5.26186 -4.35451 0
M  V30 5888 O 542.219 5.79183 -5.57496 0
M  V30 5889 H 541.951 0.65199 -0.178565 0
M  V30 5890 H 544.505 1.70867 -1.1399 0
M  V30 5891 H 542.735 3.85965 0.23836 0
M  V30 5892 H 544.424 4.05688 -0.131169 0
M  V30 5893 H 545.19 4.085 -2.61444 0
M  V30 5894 H 541.069 4.38414 -1.42528 0
M  V30 5895 H 544.613 5.0501 -4.81259 0
M  V30 5896 H 540.51 5.34815 -3.61446 0
M  V30 5897 H 541.278 5.97591 -5.5931 0
M  V30 5898 N 543.941 0.601185 1.45683 0
M  V30 5899 C 545.352 0.179659 1.85834 0
M  V30 5900 C 545.703 -1.26189 1.50236 0
M  V30 5901 O 544.828 -1.95587 0.925987 0
M  V30 5902 C 545.423 0.319277 3.37292 0
M  V30 5903 C 543.982 -0.0475092 3.7637 0
M  V30 5904 C 543.129 0.646692 2.69654 0
M  V30 5905 H 546.08 0.808268 1.36575 0
M  V30 5906 H 546.101 -0.4503 3.77826 0
M  V30 5907 H 545.613 1.36855 3.6317 0
M  V30 5908 H 543.714 -1.0962 3.5611 0
M  V30 5909 H 543.827 0.34168 4.7788 0
M  V30 5910 H 542.191 0.0849971 2.54558 0
M  V30 5911 H 542.974 1.69797 2.98369 0
M  V30 5912 N 545.419 -1.53889 0.339982 0
M  V30 5913 C 546.665 -2.01849 -0.250694 0
M  V30 5914 C 547.02 -1.22356 -1.48482 0
M  V30 5915 O 546.313 -0.301906 -1.89206 0
M  V30 5916 C 546.507 -3.51968 -0.620735 0
M  V30 5917 C 546.336 -4.45996 0.575981 0
M  V30 5918 C 545.106 -4.93619 1.08019 0
M  V30 5919 C 547.304 -4.93923 1.43332 0
M  V30 5920 N 545.286 -5.7159 2.2396 0
M  V30 5921 C 546.657 -5.69982 2.43969 0
M  V30 5922 C 548.712 -4.76038 1.45918 0
M  V30 5923 C 547.415 -6.30057 3.47016 0
M  V30 5924 C 549.441 -5.36961 2.47845 0
M  V30 5925 C 548.803 -6.12884 3.47208 0
M  V30 5926 H 544.902 -0.780054 -0.0551368 0
M  V30 5927 H 547.486 -1.88722 0.478741 0
M  V30 5928 H 545.657 -3.65308 -1.31928 0
M  V30 5929 H 547.389 -3.86677 -1.19429 0
M  V30 5930 H 544.144 -4.69134 0.64884 0
M  V30 5931 H 544.568 -6.15247 2.82489 0
M  V30 5932 H 549.21 -4.16887 0.704608 0
M  V30 5933 H 546.928 -6.88319 4.23371 0
M  V30 5934 H 550.514 -5.2503 2.50668 0
M  V30 5935 H 549.394 -6.59187 4.24785 0
M  V30 5936 N 546.897 -0.0685191 -1.57451 0
M  V30 5937 C 548.137 0.605038 -1.9524 0
M  V30 5938 C 548.501 1.66974 -0.947816 0
M  V30 5939 O 549.702 2.39862 -1.21325 0
M  V30 5940 C 547.973 1.16999 -3.37707 0
M  V30 5941 S 549.532 1.85913 -3.97469 0
M  V30 5942 H 546.35 0.198203 -0.682815 0
M  V30 5943 H 548.952 -0.141594 -1.94987 0
M  V30 5944 H 547.656 0.383205 -4.08607 0
M  V30 5945 H 547.187 1.95305 -3.41496 0
M  V30 5946 H 549.202 3.14128 -3.84107 0
M  V30 5947 N 548.375 1.56261 0.205012 0
M  V30 5948 C 549.322 1.93754 1.25411 0
M  V30 5949 C 550.292 0.796826 1.45739 0
M  V30 5950 O 551.477 1.05414 1.59036 0
M  V30 5951 C 548.617 2.27383 2.59598 0
M  V30 5952 C 547.73 3.5447 2.46931 0
M  V30 5953 C 546.865 3.77468 3.73753 0
M  V30 5954 C 545.904 4.98014 3.55877 0
M  V30 5955 N 545.041 5.17316 4.74688 0
M  V30 5956 H 549.881 2.83203 0.92737 0
M  V30 5957 H 547.418 1.40158 0.446574 0
M  V30 5958 H 549.376 2.44895 3.37761 0
M  V30 5959 H 548.006 1.41088 2.90335 0
M  V30 5960 H 547.058 3.45061 1.60116 0
M  V30 5961 H 548.37 4.42789 2.29651 0
M  V30 5962 H 547.524 3.95165 4.60358 0
M  V30 5963 H 546.263 2.87461 3.93976 0
M  V30 5964 H 545.268 4.80249 2.67657 0
M  V30 5965 H 546.493 5.8952 3.37109 0
M  V30 5966 H 544.439 4.30255 4.95194 0
M  V30 5967 H 544.356 5.99796 4.60197 0
M  V30 5968 H 545.624 5.39463 5.62672 0
M  V30 5969 N 549.853 -0.472356 1.50355 0
M  V30 5970 C 551.093 -1.23439 1.62918 0
M  V30 5971 C 551.457 -1.89284 0.321801 0
M  V30 5972 O 552.658 -2.66854 0.322852 0
M  V30 5973 C 550.929 -2.25119 2.7759 0
M  V30 5974 S 552.488 -3.10278 3.10279 0
M  V30 5975 H 549.306 -0.41911 0.574341 0
M  V30 5976 H 551.908 -0.531621 1.88133 0
M  V30 5977 H 550.612 -1.75324 3.71066 0
M  V30 5978 H 550.143 -3.00026 2.54457 0
M  V30 5979 H 552.158 -4.26257 2.54007 0
M  V30 5980 N 551.331 -1.39911 -0.725443 0
M  V30 5981 C 552.571 -1.39096 -1.49772 0
M  V30 5982 C 552.935 0.0106452 -1.91997 0
M  V30 5983 O 554.136 0.143859 -2.68415 0
M  V30 5984 C 552.407 -2.34441 -2.69764 0
M  V30 5985 S 553.966 -2.51898 -3.59295 0
M  V30 5986 H 550.784 -0.49314 -0.512186 0
M  V30 5987 H 553.386 -1.76093 -0.849197 0
M  V30 5988 H 552.09 -3.35123 -2.36898 0
M  V30 5989 H 551.621 -1.98692 -3.39537 0
M  V30 5990 H 553.636 -1.76402 -4.63785 0
M  V30 5991 N 552.809 0.956637 -1.25245 0
M  V30 5992 C 553.741 2.05628 -1.01242 0
M  V30 5993 C 554.754 1.62785 0.0219579 0
M  V30 5994 O 555.943 1.77184 -0.216365 0
M  V30 5995 C 553.043 3.35069 -0.508161 0
M  V30 5996 C 552.216 4.06761 -1.60823 0
M  V30 5997 C 551.275 5.14473 -1.1047 0
M  V30 5998 O 550.301 5.40033 -1.79868 0
M  V30 5999 N 551.503 5.80474 0.0550773 0
M  V30 6000 H 554.268 2.2679 -1.95925 0
M  V30 6001 H 551.829 1.12505 -1.16423 0
M  V30 6002 H 553.821 4.044 -0.155819 0
M  V30 6003 H 552.391 3.10694 0.344683 0
M  V30 6004 H 551.611 3.31555 -2.13224 0
M  V30 6005 H 552.899 4.51418 -2.34733 0
M  V30 6006 H 552.297 5.62125 0.635004 0
M  V30 6007 H 550.854 6.50868 0.348469 0
M  V30 6008 N 554.287 1.06798 1.15896 0
M  V30 6009 C 555.698 0.811355 1.68149 0
M  V30 6010 C 556.049 -0.664339 1.8461 0
M  V30 6011 O 555.174 -1.51485 1.54535 0
M  V30 6012 C 555.769 1.46624 3.05429 0
M  V30 6013 C 554.328 1.25726 3.54781 0
M  V30 6014 C 553.475 1.53949 2.3064 0
M  V30 6015 H 556.426 1.23078 1.00187 0
M  V30 6016 H 556.447 0.88437 3.7008 0
M  V30 6017 H 555.959 2.54025 2.93416 0
M  V30 6018 H 554.06 0.20322 3.72045 0
M  V30 6019 H 554.173 1.97354 4.36564 0
M  V30 6020 H 552.537 0.96025 2.35905 0
M  V30 6021 H 553.32 2.6252 2.2122 0
M  V30 6022 N 555.766 -1.3263 0.851289 0
M  V30 6023 C 557.006 -1.99174 0.459266 0
M  V30 6024 C 557.37 -1.65913 -0.966273 0
M  V30 6025 O 558.571 -2.2552 -1.46267 0
M  V30 6026 C 556.842 -3.50721 0.687698 0
M  V30 6027 S 558.401 -4.37039 0.392746 0
M  V30 6028 H 555.219 -0.689832 0.172199 0
M  V30 6029 H 557.821 -1.61395 1.10327 0
M  V30 6030 H 556.525 -3.72417 1.72435 0
M  V30 6031 H 556.056 -3.93389 0.0299949 0
M  V30 6032 H 558.071 -4.8999 -0.782578 0
M  V30 6033 N 557.244 -0.608902 -1.45362 0
M  V30 6034 C 558.49 -0.104762 -2.02529 0
M  V30 6035 C 558.823 1.26191 -1.47613 0
M  V30 6036 O 558.098 1.8327 -0.65134 0
M  V30 6037 C 558.381 -0.0672661 -3.60037 0
M  V30 6038 C 558.234 -1.4647 -4.25284 0
M  V30 6039 C 559.553 0.619877 -4.35713 0
M  V30 6040 H 556.672 -0.0395438 -0.735938 0
M  V30 6041 H 559.314 -0.781126 -1.73201 0
M  V30 6042 H 557.464 0.50871 -3.85155 0
M  V30 6043 H 559.136 -2.08785 -4.11347 0
M  V30 6044 H 557.379 -2.02502 -3.83634 0
M  V30 6045 H 558.05 -1.39069 -5.34195 0
M  V30 6046 H 560.526 0.130297 -4.15896 0
M  V30 6047 H 559.402 0.615224 -5.45441 0
M  V30 6048 H 559.663 1.68621 -4.0868 0
M  V30 6049 N 558.722 1.53707 -0.348139 0
M  V30 6050 C 559.968 2.01286 0.247332 0
M  V30 6051 C 560.301 1.23546 1.49834 0
M  V30 6052 O 559.576 0.324331 1.91777 0
M  V30 6053 C 559.859 3.55768 0.556858 0
M  V30 6054 C 559.712 4.44216 -0.706564 0
M  V30 6055 C 561.031 4.1841 1.3646 0
M  V30 6056 H 558.15 0.731677 0.0884201 0
M  V30 6057 H 560.792 1.84106 -0.469584 0
M  V30 6058 H 558.942 3.70539 1.16761 0
M  V30 6059 H 560.614 4.41274 -1.34444 0
M  V30 6060 H 558.857 4.12892 -1.33052 0
M  V30 6061 H 559.528 5.50202 -0.445186 0
M  V30 6062 H 562.004 4.07365 0.848113 0
M  V30 6063 H 560.88 5.26563 1.54992 0
M  V30 6064 H 561.141 3.7333 2.36805 0
M  V30 6065 N 560.2 0.0768682 1.57412 0
M  V30 6066 C 561.148 -0.906229 2.1422 0
M  V30 6067 C 562.142 -1.30477 1.08037 0
M  V30 6068 O 563.348 -1.28143 1.2641 0
M  V30 6069 H 559.723 -0.310207 0.685037 0
M  V30 6070 H 561.694 -0.402228 2.95677 0
M  V30 6071 C 560.443 -2.16245 2.72274 0
M  V30 6072 H 559.766 -1.86463 3.53655 0
M  V30 6073 H 561.206 -2.83134 3.15613 0
M  V30 6074 C 559.665 -2.92437 1.67279 0
M  V30 6075 O 560.195 -3.86322 1.10081 0
M  V30 6076 N 558.401 -2.55637 1.38195 0
M  V30 6077 H 557.948 -1.79363 1.84897 0
M  V30 6078 H 557.906 -3.06919 0.681787 0
M  V30 6079 N 561.678 -1.56367 -0.196722 0
M  V30 6080 C 562.588 -1.97617 -1.2643 0
M  V30 6081 C 563.604 -0.883598 -1.49895 0
M  V30 6082 O 564.78 -1.18921 -1.62541 0
M  V30 6083 C 561.845 -2.30595 -2.58895 0
M  V30 6084 C 560.906 -3.53551 -2.43516 0
M  V30 6085 C 560.139 -3.84946 -3.69665 0
M  V30 6086 O 560.362 -3.17655 -4.73763 0
M  V30 6087 O 559.296 -4.78379 -3.65291 0
M  V30 6088 H 563.122 -2.88648 -0.944233 0
M  V30 6089 H 560.707 -1.43901 -0.401592 0
M  V30 6090 H 562.589 -2.52889 -3.37083 0
M  V30 6091 H 561.264 -1.42732 -2.90533 0
M  V30 6092 H 560.171 -3.36507 -1.63445 0
M  V30 6093 H 561.504 -4.41875 -2.16812 0
M  V30 6094 N 563.156 0.464375 -1.50603 0
M  V30 6095 C 564.386 1.23727 -1.65454 0
M  V30 6096 C 564.794 1.86119 -0.340032 0
M  V30 6097 O 564.137 1.70301 0.688706 0
M  V30 6098 C 564.199 2.38153 -2.69301 0
M  V30 6099 C 563.863 1.96345 -4.12671 0
M  V30 6100 C 564.86 1.48215 -4.98326 0
M  V30 6101 C 562.545 2.04861 -4.58625 0
M  V30 6102 C 564.539 1.09152 -6.27985 0
M  V30 6103 C 562.226 1.65409 -5.88288 0
M  V30 6104 C 563.224 1.17634 -6.72794 0
M  V30 6105 O 562.912 0.787312 -8.00035 0
M  V30 6106 H 562.644 0.380075 -0.559034 0
M  V30 6107 H 565.198 0.559919 -1.97621 0
M  V30 6108 H 563.428 3.09081 -2.32392 0
M  V30 6109 H 565.117 3.00099 -2.73304 0
M  V30 6110 H 565.883 1.41052 -4.64036 0
M  V30 6111 H 561.762 2.40996 -3.92991 0
M  V30 6112 H 565.306 0.717909 -6.93896 0
M  V30 6113 H 561.203 1.72233 -6.22098 0
M  V30 6114 H 561.971 0.915567 -8.13363 0
M  V30 6115 N 564.634 1.40294 0.718013 0
M  V30 6116 C 565.864 1.41544 1.50495 0
M  V30 6117 C 566.272 0.0127877 1.89196 0
M  V30 6118 O 565.615 -0.97305 1.55812 0
M  V30 6119 C 565.677 2.24021 2.81167 0
M  V30 6120 C 565.341 3.72463 2.64803 0
M  V30 6121 C 566.338 4.65154 2.32223 0
M  V30 6122 C 564.023 4.1625 2.81143 0
M  V30 6123 C 566.017 5.99618 2.16189 0
M  V30 6124 C 563.704 5.50784 2.64727 0
M  V30 6125 C 564.702 6.42283 2.32297 0
M  V30 6126 O 564.39 7.74337 2.16004 0
M  V30 6127 H 564.122 0.484819 0.471091 0
M  V30 6128 H 566.676 1.84948 0.893488 0
M  V30 6129 H 564.906 1.75393 3.44636 0
M  V30 6130 H 566.595 2.17243 3.42871 0
M  V30 6131 H 567.361 4.32622 2.19234 0
M  V30 6132 H 563.24 3.45352 3.05373 0
M  V30 6133 H 566.784 6.71 1.90799 0
M  V30 6134 H 562.681 5.82902 2.773 0
M  V30 6135 H 563.449 7.85244 2.30942 0
M  V30 6136 N 566.112 -0.949982 1.2575 0
M  V30 6137 C 567.342 -1.72721 1.13363 0
M  V30 6138 C 567.75 -1.86562 -0.314842 0
M  V30 6139 O 567.093 -1.36621 -1.22803 0
M  V30 6140 C 567.155 -3.15695 1.7198 0
M  V30 6141 C 566.819 -3.25268 3.21014 0
M  V30 6142 C 567.816 -3.09222 4.17945 0
M  V30 6143 C 565.501 -3.4894 3.61312 0
M  V30 6144 C 567.495 -3.16701 5.53154 0
M  V30 6145 C 565.182 -3.56055 4.96657 0
M  V30 6146 C 566.18 -3.3995 5.92387 0
M  V30 6147 O 565.868 -3.46757 7.25269 0
M  V30 6148 H 565.6 -0.547888 0.395973 0
M  V30 6149 H 568.154 -1.20009 1.66694 0
M  V30 6150 H 566.384 -3.69791 1.13101 0
M  V30 6151 H 568.073 -3.75295 1.54624 0
M  V30 6152 H 568.839 -2.90798 3.88151 0
M  V30 6153 H 564.718 -3.60534 2.87291 0
M  V30 6154 H 568.262 -3.04048 6.27854 0
M  V30 6155 H 564.159 -3.73997 5.26115 0
M  V30 6156 H 564.927 -3.63358 7.33426 0
M  V30 6157 N 567.59 -1.07411 -1.15328 0
M  V30 6158 C 569.006 -0.799759 -1.38116 0
M  V30 6159 C 569.206 0.59572 -1.92493 0
M  V30 6160 O 568.262 1.35433 -2.13106 0
M  V30 6161 C 569.575 -1.87407 -2.35158 0
M  V30 6162 C 571.123 -1.89889 -2.48819 0
M  V30 6163 C 571.598 -2.96406 -3.49153 0
M  V30 6164 N 573.089 -2.95512 -3.56689 0
M  V30 6165 C 573.824 -3.74575 -4.34144 0
M  V30 6166 N 573.32 -4.63488 -5.14928 0
M  V30 6167 N 575.113 -3.62919 -4.29239 0
M  V30 6168 H 567.264 -1.97411 -0.78374 0
M  V30 6169 H 569.527 -0.856113 -0.407154 0
M  V30 6170 H 569.233 -2.8768 -2.0232 0
M  V30 6171 H 569.107 -1.73471 -3.34944 0
M  V30 6172 H 571.494 -0.902677 -2.80955 0
M  V30 6173 H 571.575 -2.07904 -1.49029 0
M  V30 6174 H 571.219 -3.96227 -3.17752 0
M  V30 6175 H 571.149 -2.75638 -4.48699 0
M  V30 6176 H 573.64 -2.31061 -2.99031 0
M  V30 6177 H 573.953 -5.20445 -5.71276 0
M  V30 6178 H 572.298 -4.67537 -5.14232 0
M  V30 6179 H 575.489 -2.92833 -3.65194 0
M  V30 6180 H 575.662 -4.24777 -4.89355 0
M  V30 6181 N 569.068 1.32177 -0.85831 0
M  V30 6182 C 570.015 2.28794 -0.303607 0
M  V30 6183 C 570.985 1.55213 0.591453 0
M  V30 6184 O 572.17 1.83418 0.525585 0
M  V30 6185 C 569.31 3.41475 0.49889 0
M  V30 6186 C 568.423 4.2993 -0.422373 0
M  V30 6187 C 567.558 5.29743 0.393111 0
M  V30 6188 C 566.597 6.09842 -0.525317 0
M  V30 6189 N 565.734 7.01643 0.253208 0
M  V30 6190 H 570.574 2.75631 -1.13276 0
M  V30 6191 H 568.111 1.35606 -0.570026 0
M  V30 6192 H 570.069 4.05531 0.979826 0
M  V30 6193 H 568.699 2.95779 1.29284 0
M  V30 6194 H 567.751 3.66422 -1.02171 0
M  V30 6195 H 569.063 4.85899 -1.12709 0
M  V30 6196 H 568.217 5.9942 0.937056 0
M  V30 6197 H 566.956 4.744 1.13117 0
M  V30 6198 H 565.961 5.39066 -1.08112 0
M  V30 6199 H 567.186 6.6727 -1.26205 0
M  V30 6200 H 565.132 6.48725 0.974295 0
M  V30 6201 H 565.049 7.54981 -0.392398 0
M  V30 6202 H 566.317 7.756 0.778761 0
M  V30 6203 N 570.547 0.616602 1.45037 0
M  V30 6204 C 571.494 -0.0969439 2.30596 0
M  V30 6205 C 572.464 -0.851151 1.42635 0
M  V30 6206 O 573.649 -0.835092 1.71554 0
M  V30 6207 C 570.789 -1.08234 3.27688 0
M  V30 6208 C 569.902 -0.328072 4.30752 0
M  V30 6209 C 569.037 -1.30399 5.14946 0
M  V30 6210 C 568.076 -0.538049 6.09731 0
M  V30 6211 N 567.213 -1.46371 6.86673 0
M  V30 6212 H 572.053 0.63864 2.91076 0
M  V30 6213 H 569.59 0.326733 1.43425 0
M  V30 6214 H 571.548 -1.66688 3.82454 0
M  V30 6215 H 570.178 -1.78523 2.68941 0
M  V30 6216 H 569.23 0.372136 3.78575 0
M  V30 6217 H 570.542 0.269142 4.98073 0
M  V30 6218 H 569.696 -1.96032 5.74157 0
M  V30 6219 H 568.435 -1.93514 4.47665 0
M  V30 6220 H 567.44 0.131852 5.49642 0
M  V30 6221 H 568.665 0.0881732 6.79043 0
M  V30 6222 H 566.611 -2.08233 6.22073 0
M  V30 6223 H 566.528 -0.920152 7.50379 0
M  V30 6224 H 567.796 -2.10932 7.50418 0
M  V30 6225 N 572.025 -1.5352 0.356285 0
M  V30 6226 C 573.265 -2.03027 -0.23649 0
M  V30 6227 C 573.629 -1.23813 -1.46746 0
M  V30 6228 O 574.83 -1.63281 -2.13525 0
M  V30 6229 C 573.101 -3.53442 -0.530415 0
M  V30 6230 S 574.66 -4.24836 -1.09819 0
M  V30 6231 H 571.478 -0.707591 -0.0695378 0
M  V30 6232 H 574.08 -1.89077 0.496999 0
M  V30 6233 H 572.784 -4.087 0.373114 0
M  V30 6234 H 572.315 -3.71536 -1.29323 0
M  V30 6235 H 574.33 -4.35228 -2.38309 0
M  V30 6236 N 573.503 -0.0852151 -1.57369 0
M  V30 6237 C 574.413 0.891712 -2.16992 0
M  V30 6238 C 575.429 1.3174 -1.13669 0
M  V30 6239 O 576.605 1.38735 -1.45995 0
M  V30 6240 C 573.67 2.13635 -2.73059 0
M  V30 6241 C 572.731 1.7658 -3.91303 0
M  V30 6242 C 571.964 2.95111 -4.44686 0
M  V30 6243 O 572.187 4.09539 -3.97032 0
M  V30 6244 O 571.121 2.74149 -5.35841 0
M  V30 6245 H 574.947 0.414477 -3.00858 0
M  V30 6246 H 572.532 0.138598 -1.48756 0
M  V30 6247 H 574.414 2.86595 -3.08935 0
M  V30 6248 H 573.089 2.6043 -1.92244 0
M  V30 6249 H 571.996 1.00831 -3.60255 0
M  V30 6250 H 573.329 1.34557 -4.7345 0
M  V30 6251 N 574.981 1.5647 0.188427 0
M  V30 6252 C 576.206 1.85486 0.927891 0
M  V30 6253 C 576.631 0.669575 1.75779 0
M  V30 6254 O 575.989 -0.381573 1.77239 0
M  V30 6255 C 576.037 3.12784 1.7944 0
M  V30 6256 O 575.141 2.93805 2.894 0
M  V30 6257 H 574.482 0.610585 0.260925 0
M  V30 6258 H 577.012 2.037 0.191729 0
M  V30 6259 H 577.022 3.43749 2.19774 0
M  V30 6260 H 575.697 3.98671 1.18468 0
M  V30 6261 H 574.274 2.74153 2.52774 0
M  V30 6262 N 576.459 -0.456382 1.50847 0
M  V30 6263 C 577.708 -1.2042 1.61808 0
M  V30 6264 C 578.021 -1.9278 0.330932 0
M  V30 6265 O 579.227 -2.69612 0.319643 0
M  V30 6266 C 577.683 -2.18891 2.85683 0
M  V30 6267 C 577.291 -1.52267 4.2133 0
M  V30 6268 C 579.035 -2.94224 3.05994 0
M  V30 6269 C 576.942 -2.4911 5.36375 0
M  V30 6270 H 575.872 -0.453177 0.602616 0
M  V30 6271 H 578.523 -0.473144 1.77295 0
M  V30 6272 H 576.905 -2.95351 2.63787 0
M  V30 6273 H 578.079 -0.814949 4.53536 0
M  V30 6274 H 576.394 -0.891594 4.06743 0
M  V30 6275 H 578.991 -3.66732 3.89117 0
M  V30 6276 H 579.334 -3.54469 2.18306 0
M  V30 6277 H 579.867 -2.24874 3.28141 0
M  V30 6278 H 576.606 -1.93582 6.26264 0
M  V30 6279 H 576.126 -3.17991 5.08569 0
M  V30 6280 H 577.805 -3.10637 5.67551 0
M  V30 6281 N 577.937 -1.40673 -0.710563 0
M  V30 6282 C 579.183 -1.39428 -1.47267 0
M  V30 6283 C 579.516 0.00182129 -1.942 0
M  V30 6284 O 578.791 0.971387 -1.68506 0
M  V30 6285 C 579.074 -2.38812 -2.6952 0
M  V30 6286 C 578.927 -3.87467 -2.28449 0
M  V30 6287 C 580.246 -2.3566 -3.71689 0
M  V30 6288 H 577.365 -0.507768 -0.534173 0
M  V30 6289 H 580.007 -1.71843 -0.810547 0
M  V30 6290 H 578.157 -2.113 -3.26013 0
M  V30 6291 H 579.829 -4.25825 -1.77399 0
M  V30 6292 H 578.072 -4.03058 -1.60395 0
M  V30 6293 H 578.743 -4.5253 -3.16103 0
M  V30 6294 H 581.219 -2.6004 -3.24836 0
M  V30 6295 H 580.095 -3.07237 -4.54859 0
M  V30 6296 H 580.356 -1.36996 -4.20339 0
M  V30 6297 N 579.415 0.9433 -1.26252 0
M  V30 6298 C 580.325 2.07532 -1.09397 0
M  V30 6299 C 581.341 1.73977 -0.0280449 0
M  V30 6300 O 582.517 2.00067 -0.231337 0
M  V30 6301 C 579.582 3.39002 -0.726523 0
M  V30 6302 C 578.643 3.86353 -1.87163 0
M  V30 6303 C 577.876 5.11549 -1.52162 0
M  V30 6304 O 578.099 5.68834 -0.422385 0
M  V30 6305 O 577.033 5.53889 -2.35565 0
M  V30 6306 H 580.859 2.24658 -2.04359 0
M  V30 6307 H 578.444 1.05988 -1.05295 0
M  V30 6308 H 580.326 4.18 -0.534236 0
M  V30 6309 H 579.001 3.2312 0.193721 0
M  V30 6310 H 577.908 3.0831 -2.11886 0
M  V30 6311 H 579.241 4.06752 -2.77152 0
M  V30 6312 N 580.893 1.08022 1.14757 0
M  V30 6313 C 582.304 0.829144 1.67279 0
M  V30 6314 C 582.655 -0.644721 1.85305 0
M  V30 6315 O 581.78 -1.49838 1.56133 0
M  V30 6316 C 582.375 1.49855 3.03857 0
M  V30 6317 C 580.934 1.29482 3.53428 0
M  V30 6318 C 580.081 1.56386 2.28995 0
M  V30 6319 H 583.032 1.24134 0.988762 0
M  V30 6320 H 583.053 0.923572 3.69121 0
M  V30 6321 H 582.565 2.57123 2.90705 0
M  V30 6322 H 580.666 0.242669 3.71809 0
M  V30 6323 H 580.779 2.01974 4.34446 0
M  V30 6324 H 579.143 0.985217 2.34874 0
M  V30 6325 H 579.926 2.64851 2.18423 0
M  V30 6326 N 582.371 -1.3172 0.865308 0
M  V30 6327 C 583.318 -2.2863 0.315736 0
M  V30 6328 C 584.288 -1.55524 -0.583213 0
M  V30 6329 O 585.473 -1.83694 -0.51585 0
M  V30 6330 C 582.613 -3.41735 -0.480773 0
M  V30 6331 C 581.726 -4.297 0.445167 0
M  V30 6332 C 580.861 -5.29944 -0.365012 0
M  V30 6333 C 579.9 -6.09554 0.557651 0
M  V30 6334 N 579.037 -7.01768 -0.215994 0
M  V30 6335 H 583.877 -2.75026 1.14736 0
M  V30 6336 H 581.414 -1.35302 0.577209 0
M  V30 6337 H 583.372 -4.06045 -0.958306 0
M  V30 6338 H 582.002 -2.96461 -1.27714 0
M  V30 6339 H 581.054 -3.65875 1.04113 0
M  V30 6340 H 582.366 -4.85295 1.15284 0
M  V30 6341 H 581.52 -5.99908 -0.905255 0
M  V30 6342 H 580.259 -4.74994 -1.106 0
M  V30 6343 H 579.264 -5.38485 1.10969 0
M  V30 6344 H 580.489 -6.66591 1.29742 0
M  V30 6345 H 578.435 -6.49232 -0.939878 0
M  V30 6346 H 578.352 -7.54762 0.432431 0
M  V30 6347 H 579.62 -7.76002 -0.737618 0
M  V30 6348 N 583.85 -0.624285 -1.44708 0
M  V30 6349 C 585.26 -0.2092 -1.85524 0
M  V30 6350 C 585.611 1.23783 -1.52225 0
M  V30 6351 O 584.736 1.94089 -0.956986 0
M  V30 6352 C 585.332 -0.372897 -3.36742 0
M  V30 6353 C 583.891 -0.012374 -3.76398 0
M  V30 6354 C 583.038 -0.68951 -2.68591 0
M  V30 6355 H 585.989 -0.829894 -1.35272 0
M  V30 6356 H 586.01 0.390134 -3.78495 0
M  V30 6357 H 585.522 -1.42615 -3.60947 0
M  V30 6358 H 583.623 1.03941 -3.57809 0
M  V30 6359 H 583.736 -0.417663 -4.77276 0
M  V30 6360 H 582.1 -0.125484 -2.54391 0
M  V30 6361 H 582.883 -1.74522 -2.9563 0
M  V30 6362 N 585.328 1.53329 -0.364422 0
M  V30 6363 C 586.556 2.05657 0.226424 0
M  V30 6364 C 586.971 1.23801 1.42544 0
M  V30 6365 O 586.328 0.27839 1.80364 0
M  V30 6366 C 586.379 3.56125 0.621056 0
M  V30 6367 O 586.1 4.34879 -0.530304 0
M  V30 6368 C 587.601 4.24706 1.27041 0
M  V30 6369 H 584.821 0.669806 0.0400056 0
M  V30 6370 H 587.365 1.97714 -0.522456 0
M  V30 6371 H 585.52 3.64223 1.31985 0
M  V30 6372 H 585.934 5.24073 -0.211546 0
M  V30 6373 H 587.408 5.3131 1.49711 0
M  V30 6374 H 587.885 3.78354 2.23036 0
M  V30 6375 H 588.491 4.20858 0.613079 0
M  V30 6376 N 586.806 0.0935595 1.57322 0
M  V30 6377 C 587.736 -0.863062 2.16964 0
M  V30 6378 C 588.717 -1.29528 1.10256 0
M  V30 6379 O 589.902 -1.36245 1.38387 0
M  V30 6380 C 587.032 -2.12276 2.74875 0
M  V30 6381 C 585.986 -1.82921 3.86942 0
M  V30 6382 C 585.312 -3.15707 4.31548 0
M  V30 6383 C 586.612 -1.11737 5.10208 0
M  V30 6384 H 588.306 -0.366145 2.97153 0
M  V30 6385 H 585.852 -0.174673 1.42937 0
M  V30 6386 H 587.805 -2.79634 3.1525 0
M  V30 6387 H 586.529 -2.64248 1.91938 0
M  V30 6388 H 585.188 -1.17961 3.47103 0
M  V30 6389 H 584.836 -3.65563 3.45504 0
M  V30 6390 H 584.536 -2.96849 5.07104 0
M  V30 6391 H 586.06 -3.84226 4.74555 0
M  V30 6392 H 587.474 -1.69203 5.47762 0
M  V30 6393 H 585.871 -1.03064 5.91183 0
M  V30 6394 H 586.941 -0.0998818 4.84797 0
M  V30 6395 N 588.284 -1.56567 -0.180126 0
M  V30 6396 C 589.231 -1.95725 -1.22313 0
M  V30 6397 C 590.201 -0.819911 -1.44453 0
M  V30 6398 O 591.386 -1.07931 -1.57339 0
M  V30 6399 C 588.526 -2.31484 -2.55947 0
M  V30 6400 C 587.639 -3.58354 -2.4126 0
M  V30 6401 C 586.774 -3.83366 -3.67701 0
M  V30 6402 C 585.813 -5.03612 -3.47909 0
M  V30 6403 N 584.95 -5.24802 -4.66398 0
M  V30 6404 H 589.79 -2.84642 -0.882198 0
M  V30 6405 H 587.327 -1.4085 -0.42422 0
M  V30 6406 H 589.285 -2.50237 -3.33822 0
M  V30 6407 H 587.915 -1.45689 -2.88053 0
M  V30 6408 H 586.967 -3.47565 -1.54606 0
M  V30 6409 H 588.279 -4.46386 -2.22577 0
M  V30 6410 H 587.433 -4.02439 -4.54013 0
M  V30 6411 H 586.172 -2.93692 -3.89353 0
M  V30 6412 H 585.177 -4.84447 -2.59983 0
M  V30 6413 H 586.402 -5.94809 -3.27688 0
M  V30 6414 H 584.348 -4.38079 -4.88286 0
M  V30 6415 H 584.265 -6.07041 -4.50596 0
M  V30 6416 H 585.533 -5.48346 -5.54019 0
M  V30 6417 N 589.762 0.448376 -1.51087 0
M  V30 6418 C 590.992 1.21965 -1.66757 0
M  V30 6419 C 591.4 1.85748 -0.359753 0
M  V30 6420 O 590.743 1.71022 0.670604 0
M  V30 6421 C 590.805 2.35284 -2.71812 0
M  V30 6422 C 590.469 1.91957 -4.1473 0
M  V30 6423 C 591.466 1.42921 -4.9987 0
M  V30 6424 C 589.151 1.99985 -4.60772 0
M  V30 6425 C 591.145 1.02485 -6.29107 0
M  V30 6426 C 588.832 1.5916 -5.90009 0
M  V30 6427 C 589.83 1.10491 -6.74004 0
M  V30 6428 O 589.518 0.702413 -8.00825 0
M  V30 6429 H 589.25 0.374125 -0.563034 0
M  V30 6430 H 591.804 0.538927 -1.98204 0
M  V30 6431 H 590.034 3.06599 -2.35657 0
M  V30 6432 H 591.723 2.97184 -2.76472 0
M  V30 6433 H 592.489 1.36123 -4.65506 0
M  V30 6434 H 588.368 2.36814 -3.95525 0
M  V30 6435 H 591.912 0.644271 -6.94619 0
M  V30 6436 H 587.809 1.65626 -6.2389 0
M  V30 6437 H 588.577 0.829248 -8.14288 0
M  V30 6438 N 591.24 1.41047 0.703093 0
M  V30 6439 C 592.486 1.40207 1.46526 0
M  V30 6440 C 592.819 0.00847763 1.94198 0
M  V30 6441 O 592.094 -0.962437 1.69019 0
M  V30 6442 C 592.377 2.40238 2.6825 0
M  V30 6443 C 592.23 3.88674 2.26391 0
M  V30 6444 C 593.549 2.37627 3.70434 0
M  V30 6445 H 590.668 0.510594 0.531472 0
M  V30 6446 H 593.31 1.72271 0.801422 0
M  V30 6447 H 591.46 2.13026 3.24888 0
M  V30 6448 H 593.132 4.2676 1.75138 0
M  V30 6449 H 591.375 4.03903 1.58255 0
M  V30 6450 H 592.046 4.542 3.13698 0
M  V30 6451 H 594.522 2.61759 3.23452 0
M  V30 6452 H 593.398 3.09645 4.53223 0
M  V30 6453 H 593.659 1.39223 4.19606 0
M  V30 6454 N 592.718 -0.936591 1.26751 0
M  V30 6455 C 593.943 -1.72288 1.15462 0
M  V30 6456 C 594.368 -1.85915 -0.285887 0
M  V30 6457 O 593.726 -1.35272 -1.20711 0
M  V30 6458 C 593.774 -3.10503 1.83359 0
M  V30 6459 O 592.878 -3.96745 1.1255 0
M  V30 6460 H 592.219 -0.52843 0.402067 0
M  V30 6461 H 594.749 -1.17271 1.67656 0
M  V30 6462 H 594.759 -3.60867 1.90365 0
M  V30 6463 H 593.434 -2.99901 2.88153 0
M  V30 6464 H 592.011 -3.55191 1.13551 0
M  V30 6465 N 594.196 -1.08629 -1.14182 0
M  V30 6466 C 595.443 -0.817345 -1.85272 0
M  V30 6467 C 595.771 0.656917 -1.83071 0
M  V30 6468 O 595.026 1.49897 -1.25815 0
M  V30 6469 C 595.325 -1.28734 -3.3341 0
M  V30 6470 C 594.991 -2.76981 -3.55798 0
M  V30 6471 C 593.653 -3.17469 -3.61617 0
M  V30 6472 C 596.005 -3.72605 -3.64438 0
M  V30 6473 C 593.333 -4.52371 -3.736 0
M  V30 6474 C 595.685 -5.07286 -3.77947 0
M  V30 6475 C 594.349 -5.47376 -3.82016 0
M  V30 6476 H 593.619 -0.299088 -0.677958 0
M  V30 6477 H 596.266 -1.35962 -1.34857 0
M  V30 6478 H 594.571 -0.664702 -3.8612 0
M  V30 6479 H 596.268 -1.05598 -3.86846 0
M  V30 6480 H 592.858 -2.44644 -3.51919 0
M  V30 6481 H 597.042 -3.42443 -3.5923 0
M  V30 6482 H 592.298 -4.82882 -3.75013 0
M  V30 6483 H 596.472 -5.81243 -3.83575 0
M  V30 6484 H 594.099 -6.51906 -3.91054 0
M  V30 6485 N 595.674 1.31259 -0.872281 0
M  V30 6486 C 596.92 1.96913 -0.485083 0
M  V30 6487 C 597.253 1.68774 0.960667 0
M  V30 6488 O 596.528 0.985495 1.67685 0
M  V30 6489 C 596.811 3.52299 -0.745502 0
M  V30 6490 C 596.664 3.90002 -2.24095 0
M  V30 6491 C 597.983 4.39582 -0.213516 0
M  V30 6492 H 595.102 0.715252 -0.177716 0
M  V30 6493 H 597.744 1.55347 -1.09395 0
M  V30 6494 H 595.894 3.87835 -0.227276 0
M  V30 6495 H 597.566 3.64555 -2.82661 0
M  V30 6496 H 595.809 3.38526 -2.71261 0
M  V30 6497 H 596.48 4.98352 -2.37381 0
M  V30 6498 H 598.956 4.10882 -0.656902 0
M  V30 6499 H 597.832 5.47251 -0.42516 0
M  V30 6500 H 598.093 4.33158 0.884666 0
M  V30 6501 N 597.152 0.631951 1.44375 0
M  V30 6502 C 598.429 0.067646 1.95483 0
M  V30 6503 C 598.809 -1.40683 1.57389 0
M  V30 6504 O 598.157 -2.12167 0.848375 0
M  V30 6505 C 598.367 0.291392 3.47781 0
M  V30 6506 C 599.715 0.185028 4.24197 0
M  V30 6507 O 600.739 0.222803 3.55503 0
M  V30 6508 O 599.598 0.0906642 5.46425 0
M  V30 6509 H 596.692 -0.0218379 0.826712 0
M  V30 6510 H 599.238 0.703711 1.54421 0
M  V30 6511 H 598.01 1.31449 3.68561 0
M  V30 6512 H 597.633 -0.378772 3.95792 0
M  V30 6513 N 598.631 -1.53133 0.372548 0
M  V30 6514 C 599.541 -2.29671 -0.478379 0
M  V30 6515 C 600.557 -1.35913 -1.08644 0
M  V30 6516 O 601.733 -1.68975 -1.09588 0
M  V30 6517 C 598.798 -3.07625 -1.599 0
M  V30 6518 C 597.859 -4.17061 -1.01776 0
M  V30 6519 C 597.092 -4.91289 -2.08497 0
M  V30 6520 O 597.315 -4.65442 -3.29727 0
M  V30 6521 O 596.249 -5.7705 -1.71164 0
M  V30 6522 H 600.075 -3.03355 0.144649 0
M  V30 6523 H 597.66 -1.48773 0.136729 0
M  V30 6524 H 599.542 -3.56281 -2.25038 0
M  V30 6525 H 598.217 -2.3677 -2.2073 0
M  V30 6526 H 597.124 -3.72641 -0.330098 0
M  V30 6527 H 598.457 -4.90102 -0.453915 0
M  V30 6528 N 600.109 -0.101901 -1.5727 0
M  V30 6529 C 601.334 0.571759 -1.99363 0
M  V30 6530 C 601.759 1.60507 -0.980768 0
M  V30 6531 O 601.117 1.81231 0.0498517 0
M  V30 6532 C 601.165 1.18996 -3.404 0
M  V30 6533 O 600.269 2.30572 -3.41922 0
M  V30 6534 H 599.61 0.144449 -0.648098 0
M  V30 6535 H 602.14 -0.185325 -2.03759 0
M  V30 6536 H 602.15 1.52962 -3.78241 0
M  V30 6537 H 600.825 0.432984 -4.1364 0
M  V30 6538 H 599.402 1.98173 -3.15883 0
M  V30 6539 N 601.587 1.56661 0.17182 0
M  V30 6540 C 602.537 1.92781 1.21736 0
M  V30 6541 C 603.521 0.796065 1.39827 0
M  V30 6542 O 604.713 1.05924 1.41806 0
M  V30 6543 C 601.842 2.29079 2.55691 0
M  V30 6544 C 600.928 3.48765 2.41296 0
M  V30 6545 N 601.319 4.66022 1.96614 0
M  V30 6546 C 599.617 3.53362 2.72124 0
M  V30 6547 C 600.318 5.48159 1.94669 0
M  V30 6548 N 599.294 4.89189 2.37054 0
M  V30 6549 H 603.096 2.80926 0.863592 0
M  V30 6550 H 600.61 1.57889 0.380096 0
M  V30 6551 H 602.607 2.5315 3.31241 0
M  V30 6552 H 601.267 1.42272 2.91871 0
M  V30 6553 H 602.278 4.9025 1.66959 0
M  V30 6554 H 598.955 2.77033 3.12345 0
M  V30 6555 H 600.345 6.52121 1.61826 0
M  V30 6556 N 603.065 -0.440357 1.51323 0
M  V30 6557 C 604.314 -1.18697 1.63076 0
M  V30 6558 C 604.627 -1.92418 0.35136 0
M  V30 6559 O 605.833 -2.69258 0.348221 0
M  V30 6560 C 604.289 -2.15849 2.87988 0
M  V30 6561 C 603.897 -1.47789 4.22921 0
M  V30 6562 C 605.641 -2.90962 3.09098 0
M  V30 6563 C 603.548 -2.43407 5.38987 0
M  V30 6564 H 602.478 -0.44676 0.607389 0
M  V30 6565 H 605.129 -0.454313 1.77787 0
M  V30 6566 H 603.511 -2.92537 2.66905 0
M  V30 6567 H 604.685 -0.7668 4.54375 0
M  V30 6568 H 603 -0.848404 4.07665 0
M  V30 6569 H 605.597 -3.62584 3.92985 0
M  V30 6570 H 605.94 -3.52133 2.22053 0
M  V30 6571 H 606.473 -2.21381 3.30507 0
M  V30 6572 H 603.212 -1.86929 6.28282 0
M  V30 6573 H 602.732 -3.12579 5.11913 0
M  V30 6574 H 604.411 -3.046 5.70813 0
M  V30 6575 N 604.543 -1.41418 -0.695603 0
M  V30 6576 C 605.959 -1.23887 -1.00619 0
M  V30 6577 C 606.159 -0.128206 -2.01092 0
M  V30 6578 O 605.215 0.507408 -2.47349 0
M  V30 6579 C 606.528 -2.58816 -1.53083 0
M  V30 6580 C 608.076 -2.65998 -1.64967 0
M  V30 6581 C 608.551 -4.01244 -2.20833 0
M  V30 6582 N 610.042 -4.0309 -2.28194 0
M  V30 6583 C 610.777 -5.04539 -2.72448 0
M  V30 6584 N 610.273 -6.16378 -3.16306 0
M  V30 6585 N 612.066 -4.91901 -2.72011 0
M  V30 6586 H 604.217 -2.12379 -0.0300061 0
M  V30 6587 H 606.48 -0.944958 -0.0758797 0
M  V30 6588 H 606.186 -3.40842 -0.867147 0
M  V30 6589 H 606.06 -2.81299 -2.51298 0
M  V30 6590 H 608.447 -1.84331 -2.30448 0
M  V30 6591 H 608.528 -2.47325 -0.652982 0
M  V30 6592 H 608.172 -4.83359 -1.55968 0
M  V30 6593 H 608.102 -4.17257 -3.21254 0
M  V30 6594 H 610.593 -3.22341 -1.97242 0
M  V30 6595 H 610.906 -6.89658 -3.487 0
M  V30 6596 H 609.251 -6.19914 -3.14215 0
M  V30 6597 H 612.442 -4.03613 -2.37095 0
M  V30 6598 H 612.615 -5.71102 -3.06181 0
M  V30 6599 N 606.021 0.929856 -1.27246 0
M  V30 6600 C 606.954 2.03069 -1.04106 0
M  V30 6601 C 607.932 1.62556 0.0378417 0
M  V30 6602 O 609.116 1.88197 -0.106869 0
M  V30 6603 C 606.243 3.33718 -0.578778 0
M  V30 6604 C 605.289 3.93209 -1.65193 0
M  V30 6605 S 606.122 4.26068 -3.24386 0
M  V30 6606 C 607.278 5.598 -2.79954 0
M  V30 6607 H 607.511 2.22386 -1.97311 0
M  V30 6608 H 605.044 1.07269 -1.11053 0
M  V30 6609 H 607.002 4.09261 -0.31874 0
M  V30 6610 H 605.663 3.12328 0.333182 0
M  V30 6611 H 604.856 4.87482 -1.27973 0
M  V30 6612 H 604.458 3.24243 -1.86393 0
M  V30 6613 H 606.75 6.39004 -2.25123 0
M  V30 6614 H 607.693 6.01917 -3.72963 0
M  V30 6615 H 608.101 5.20219 -2.19164 0
M  V30 6616 N 607.499 1.09233 1.13605 0
M  V30 6617 C 608.745 0.828385 1.8511 0
M  V30 6618 C 609.078 -0.64437 1.83198 0
M  V30 6619 O 608.353 -1.47428 1.26867 0
M  V30 6620 C 608.636 1.36167 3.33363 0
M  V30 6621 C 608.489 2.90038 3.438 0
M  V30 6622 C 609.808 0.993819 4.28732 0
M  V30 6623 H 606.927 0.30239 0.672108 0
M  V30 6624 H 609.569 1.35339 1.33355 0
M  V30 6625 H 607.719 0.9151 3.77569 0
M  V30 6626 H 609.391 3.43128 3.08319 0
M  V30 6627 H 607.634 3.27271 2.84739 0
M  V30 6628 H 608.305 3.22428 4.48045 0
M  V30 6629 H 610.781 1.37893 3.92587 0
M  V30 6630 H 609.657 1.39403 5.30903 0
M  V30 6631 H 609.918 -0.0982206 4.41991 0
M  V30 6632 N 608.977 -1.30795 0.87923 0
M  V30 6633 C 609.925 -2.30231 0.331112 0
M  V30 6634 C 610.919 -1.59918 -0.558794 0
M  V30 6635 O 612.125 -1.74441 -0.443866 0
M  V30 6636 H 608.5 -0.746785 0.088409 0
M  V30 6637 H 610.471 -2.73925 1.18353 0
M  V30 6638 C 609.22 -3.44848 -0.444401 0
M  V30 6639 H 608.543 -3.99131 0.231106 0
M  V30 6640 H 609.983 -4.16516 -0.793109 0
M  V30 6641 C 608.442 -2.94329 -1.63926 0
M  V30 6642 O 608.972 -2.93875 -2.73862 0
M  V30 6643 N 607.178 -2.50413 -1.4745 0
M  V30 6644 H 606.725 -2.50982 -0.58015 0
M  V30 6645 H 606.683 -2.16969 -2.27534 0
M  V30 6646 N 610.455 -0.639598 -1.44038 0
M  V30 6647 C 611.387 0.0987684 -2.28987 0
M  V30 6648 C 612.4 0.80058 -1.41755 0
M  V30 6649 O 613.589 0.660611 -1.65826 0
M  V30 6650 C 610.689 1.16242 -3.18341 0
M  V30 6651 C 609.862 0.541447 -4.34036 0
M  V30 6652 C 608.921 1.50017 -5.04362 0
M  V30 6653 O 607.947 1.01403 -5.60095 0
M  V30 6654 N 609.149 2.83441 -5.06598 0
M  V30 6655 H 611.914 -0.630305 -2.92997 0
M  V30 6656 H 609.475 -0.481376 -1.54578 0
M  V30 6657 H 611.467 1.80429 -3.62253 0
M  V30 6658 H 610.037 1.79362 -2.56024 0
M  V30 6659 H 609.257 -0.27923 -3.9321 0
M  V30 6660 H 610.545 0.107379 -5.08687 0
M  V30 6661 H 609.943 3.2551 -4.62666 0
M  V30 6662 H 608.5 3.42966 -5.54272 0
M  V30 6663 N 611.933 1.52934 -0.380664 0
M  V30 6664 C 612.865 2.23822 0.493581 0
M  V30 6665 C 613.878 1.25761 1.03383 0
M  V30 6666 O 615.067 1.5189 0.937633 0
M  V30 6667 C 612.167 2.9342 1.69582 0
M  V30 6668 C 611.34 4.18115 1.28445 0
M  V30 6669 C 610.399 4.70788 2.35042 0
M  V30 6670 O 609.425 5.34093 1.96807 0
M  V30 6671 N 610.627 4.49899 3.66839 0
M  V30 6672 H 613.392 2.99484 -0.11371 0
M  V30 6673 H 610.953 1.60577 -0.206587 0
M  V30 6674 H 612.945 3.2556 2.40401 0
M  V30 6675 H 611.515 2.21119 2.20965 0
M  V30 6676 H 610.735 3.92109 0.405503 0
M  V30 6677 H 612.023 4.99152 0.986132 0
M  V30 6678 H 611.421 3.99349 4.0067 0
M  V30 6679 H 609.978 4.86551 4.33718 0
M  V30 6680 N 613.412 0.11024 1.57214 0
M  V30 6681 C 614.342 -0.840002 2.17867 0
M  V30 6682 C 615.323 -1.28352 1.11624 0
M  V30 6683 O 616.508 -1.3477 1.39824 0
M  V30 6684 C 613.638 -2.09349 2.77111 0
M  V30 6685 C 612.592 -1.78807 3.8886 0
M  V30 6686 C 611.918 -3.11112 4.34872 0
M  V30 6687 C 613.218 -1.0632 5.11364 0
M  V30 6688 H 614.912 -0.334608 2.97524 0
M  V30 6689 H 612.458 -0.159502 1.43114 0
M  V30 6690 H 614.411 -2.76275 3.18198 0
M  V30 6691 H 613.135 -2.62198 1.9473 0
M  V30 6692 H 611.794 -1.14273 3.48335 0
M  V30 6693 H 611.442 -3.61877 3.49362 0
M  V30 6694 H 611.142 -2.91453 5.10224 0
M  V30 6695 H 612.666 -3.79171 4.78604 0
M  V30 6696 H 614.08 -1.63383 5.49526 0
M  V30 6697 H 612.477 -0.967876 5.92243 0
M  V30 6698 H 613.547 -0.0484569 4.84876 0
M  V30 6699 N 614.89 -1.56749 -0.16351 0
M  V30 6700 C 615.82 -2.00042 -1.20438 0
M  V30 6701 C 616.801 -0.877256 -1.45733 0
M  V30 6702 O 617.986 -1.1439 -1.56935 0
M  V30 6703 C 615.116 -2.36697 -2.54149 0
M  V30 6704 C 614.07 -3.52046 -2.43408 0
M  V30 6705 C 613.396 -3.74466 -3.81679 0
M  V30 6706 C 614.696 -4.85247 -1.93216 0
M  V30 6707 H 616.39 -2.87244 -0.844477 0
M  V30 6708 H 613.936 -1.38194 -0.40478 0
M  V30 6709 H 615.889 -2.65582 -3.27176 0
M  V30 6710 H 614.613 -1.46414 -2.91943 0
M  V30 6711 H 613.272 -3.23301 -1.72834 0
M  V30 6712 H 612.92 -2.81461 -4.1688 0
M  V30 6713 H 612.62 -4.52084 -3.75359 0
M  V30 6714 H 614.144 -4.0576 -4.5628 0
M  V30 6715 H 615.558 -5.12957 -2.56023 0
M  V30 6716 H 613.955 -5.66556 -1.97825 0
M  V30 6717 H 615.025 -4.7672 -0.88689 0
M  V30 6718 N 616.368 0.432326 -1.51554 0
M  V30 6719 C 617.616 1.17901 -1.64146 0
M  V30 6720 C 617.937 1.91604 -0.362367 0
M  V30 6721 O 617.207 1.85764 0.621968 0
M  V30 6722 H 615.787 0.438206 -0.604966 0
M  V30 6723 H 618.449 0.495172 -1.88505 0
M  V30 6724 H 617.545 1.90584 -2.47152 0
M  V30 6725 N 617.846 1.41785 0.688094 0
M  V30 6726 C 619.262 1.24419 0.999608 0
M  V30 6727 C 619.462 0.138868 2.01021 0
M  V30 6728 O 618.518 -0.494283 2.47615 0
M  V30 6729 C 619.831 2.59625 1.51709 0
M  V30 6730 C 621.379 2.66869 1.63554 0
M  V30 6731 C 621.854 4.0241 2.18702 0
M  V30 6732 N 623.345 4.04295 2.26053 0
M  V30 6733 C 624.08 5.05977 2.69768 0
M  V30 6734 N 623.576 6.18047 3.13033 0
M  V30 6735 N 625.369 4.93336 2.69398 0
M  V30 6736 H 617.52 2.12392 0.0187427 0
M  V30 6737 H 619.783 0.945347 0.0708673 0
M  V30 6738 H 619.489 3.41297 0.849059 0
M  V30 6739 H 619.363 2.82628 2.49803 0
M  V30 6740 H 621.75 1.8555 2.29467 0
M  V30 6741 H 621.831 2.47668 0.639857 0
M  V30 6742 H 621.475 4.8418 1.53402 0
M  V30 6743 H 621.405 4.18955 3.19037 0
M  V30 6744 H 623.896 3.23383 1.9553 0
M  V30 6745 H 624.209 6.91498 3.45038 0
M  V30 6746 H 622.554 6.21572 3.10923 0
M  V30 6747 H 625.745 4.04865 2.34952 0
M  V30 6748 H 625.918 5.72717 3.03148 0
M  V30 6749 N 619.324 -0.923095 1.27737 0
M  V30 6750 C 620.549 -1.71054 1.17283 0
M  V30 6751 C 620.974 -1.86208 -0.266153 0
M  V30 6752 O 620.332 -1.36545 -1.1927 0
M  V30 6753 C 620.38 -3.0854 1.86642 0
M  V30 6754 O 619.484 -3.95528 1.16752 0
M  V30 6755 H 618.825 -0.524136 0.407649 0
M  V30 6756 H 621.355 -1.15487 1.6889 0
M  V30 6757 H 621.365 -3.58828 1.94182 0
M  V30 6758 H 620.04 -2.96828 2.91317 0
M  V30 6759 H 618.617 -3.53967 1.17312 0
M  V30 6760 N 620.802 -1.09834 -1.13024 0
M  V30 6761 C 621.732 -0.763451 -2.20666 0
M  V30 6762 C 622.713 0.260778 -1.68089 0
M  V30 6763 O 623.898 0.127915 -1.93778 0
M  V30 6764 C 621.028 -0.187744 -3.46792 0
M  V30 6765 C 619.982 -1.14196 -4.12484 0
M  V30 6766 C 619.308 -0.427755 -5.32986 0
M  V30 6767 C 620.608 -2.48607 -4.59338 0
M  V30 6768 H 622.302 -1.66347 -2.48936 0
M  V30 6769 H 619.848 -0.801261 -1.19649 0
M  V30 6770 H 621.801 0.0586375 -4.21359 0
M  V30 6771 H 620.525 0.747485 -3.17931 0
M  V30 6772 H 619.184 -1.37369 -3.3989 0
M  V30 6773 H 618.832 0.511747 -5.0039 0
M  V30 6774 H 618.532 -1.06403 -5.77886 0
M  V30 6775 H 620.056 -0.189772 -6.10305 0
M  V30 6776 H 621.47 -2.29618 -5.25308 0
M  V30 6777 H 619.867 -3.08062 -5.14993 0
M  V30 6778 H 620.937 -3.09062 -3.73642 0
M  V30 6779 N 622.28 1.30327 -0.886154 0
M  V30 6780 C 623.212 2.27079 -0.311072 0
M  V30 6781 C 624.225 1.53758 0.53502 0
M  V30 6782 O 625.414 1.74947 0.354378 0
M  V30 6783 C 622.514 3.33965 0.576228 0
M  V30 6784 C 621.687 4.36735 -0.241064 0
M  V30 6785 C 620.746 5.23028 0.576916 0
M  V30 6786 O 619.772 5.692 -0.000802231 0
M  V30 6787 N 620.974 5.49016 1.88579 0
M  V30 6788 H 623.739 2.77065 -1.14259 0
M  V30 6789 H 621.3 1.43519 -0.749258 0
M  V30 6790 H 623.292 3.88618 1.12953 0
M  V30 6791 H 621.862 2.839 1.30842 0
M  V30 6792 H 621.082 3.81932 -0.975805 0
M  V30 6793 H 622.37 5.02451 -0.801272 0
M  V30 6794 H 621.768 5.13288 2.37806 0
M  V30 6795 H 620.325 6.06539 2.38651 0
M  V30 6796 N 623.758 0.647228 1.43697 0
M  V30 6797 C 625.035 0.0883758 1.954 0
M  V30 6798 C 625.415 -1.39006 1.58873 0
M  V30 6799 O 624.763 -2.11255 0.87083 0
M  V30 6800 C 624.973 0.328263 3.47453 0
M  V30 6801 C 626.321 0.230009 4.23977 0
M  V30 6802 O 627.345 0.260496 3.55246 0
M  V30 6803 O 626.204 0.148615 5.46298 0
M  V30 6804 H 623.298 -0.0130683 0.826897 0
M  V30 6805 H 625.844 0.72005 1.53666 0
M  V30 6806 H 624.616 1.3535 3.67146 0
M  V30 6807 H 624.239 -0.336772 3.96171 0
M  V30 6808 N 625.236 -1.5273 0.388769 0
M  V30 6809 C 626.482 -2.01871 -0.193877 0
M  V30 6810 C 626.815 -1.27475 -1.46505 0
M  V30 6811 O 626.09 -0.375063 -1.90849 0
M  V30 6812 C 626.373 -3.5712 -0.462336 0
M  V30 6813 C 626.226 -4.42186 0.824091 0
M  V30 6814 C 627.545 -4.21881 -1.25319 0
M  V30 6815 H 624.664 -0.733764 -0.0689899 0
M  V30 6816 H 627.306 -1.82796 0.518231 0
M  V30 6817 H 625.456 -3.73504 -1.06896 0
M  V30 6818 H 627.128 -4.37554 1.46096 0
M  V30 6819 H 625.371 -4.09219 1.43952 0
M  V30 6820 H 626.042 -5.48828 0.590905 0
M  V30 6821 H 628.518 -4.0947 -0.73981 0
M  V30 6822 H 627.394 -5.30487 -1.40977 0
M  V30 6823 H 627.655 -3.79478 -2.26824 0
M  V30 6824 N 626.714 -0.118576 -1.57153 0
M  V30 6825 C 627.661 0.831789 -2.1529 0
M  V30 6826 C 628.631 1.26385 -1.07778 0
M  V30 6827 O 629.816 1.34144 -1.35684 0
M  V30 6828 C 626.956 2.07664 -2.75626 0
M  V30 6829 C 626.069 1.69298 -3.97444 0
M  V30 6830 C 625.204 2.88747 -4.45868 0
M  V30 6831 C 624.243 2.46619 -5.60219 0
M  V30 6832 N 623.38 3.5898 -6.03389 0
M  V30 6833 H 628.22 0.329183 -2.96176 0
M  V30 6834 H 625.757 0.150792 -1.46325 0
M  V30 6835 H 627.715 2.80601 -3.08738 0
M  V30 6836 H 626.345 2.55384 -1.97431 0
M  V30 6837 H 625.397 0.862374 -3.70496 0
M  V30 6838 H 626.709 1.34338 -4.80369 0
M  V30 6839 H 625.863 3.69909 -4.80887 0
M  V30 6840 H 624.602 3.26933 -3.61892 0
M  V30 6841 H 623.607 1.63889 -5.24805 0
M  V30 6842 H 624.832 2.0955 -6.45961 0
M  V30 6843 H 622.778 3.9684 -5.22354 0
M  V30 6844 H 622.695 3.27942 -6.81168 0
M  V30 6845 H 623.963 4.40583 -6.43045 0
M  V30 6846 N 628.193 1.56834 0.155195 0
M  V30 6847 C 629.441 1.82536 0.867462 0
M  V30 6848 C 629.762 0.698168 1.82073 0
M  V30 6849 O 629.032 -0.280807 1.93877 0
M  V30 6850 H 627.612 0.673401 0.323327 0
M  V30 6851 H 630.274 1.94313 0.151156 0
M  V30 6852 H 629.37 2.77171 1.43466 0
M  V30 6853 N 629.671 -0.424282 1.51781 0
M  V30 6854 C 630.603 -1.53457 1.70246 0
M  V30 6855 C 631.616 -1.52004 0.582967 0
M  V30 6856 O 632.805 -1.56544 0.857683 0
M  V30 6857 C 629.905 -2.92368 1.71389 0
M  V30 6858 C 629.078 -3.1818 3.00133 0
M  V30 6859 C 628.137 -4.36884 2.9329 0
M  V30 6860 O 627.163 -4.34901 3.67219 0
M  V30 6861 N 628.365 -5.4117 2.10036 0
M  V30 6862 H 631.13 -1.38017 2.66029 0
M  V30 6863 H 628.691 -0.613394 1.4983 0
M  V30 6864 H 630.683 -3.6982 1.64362 0
M  V30 6865 H 629.253 -3.0134 0.831449 0
M  V30 6866 H 628.473 -2.28908 3.20928 0
M  V30 6867 H 629.761 -3.32261 3.85331 0
M  V30 6868 H 629.159 -5.45623 1.49373 0
M  V30 6869 H 627.716 -6.17425 2.08878 0
M  V30 6870 N 631.149 -1.42148 -0.680565 0
M  V30 6871 C 632.059 -1.47565 -1.82378 0
M  V30 6872 C 633.075 -0.36489 -1.70131 0
M  V30 6873 O 634.251 -0.614916 -1.91783 0
M  V30 6874 C 631.316 -1.37013 -3.18478 0
M  V30 6875 C 630.377 -2.58532 -3.42724 0
M  V30 6876 C 629.61 -2.48473 -4.72331 0
M  V30 6877 O 629.833 -1.51745 -5.49845 0
M  V30 6878 O 628.767 -3.38503 -4.97694 0
M  V30 6879 H 632.593 -2.44045 -1.80764 0
M  V30 6880 H 630.178 -1.23849 -0.835569 0
M  V30 6881 H 632.06 -1.33468 -3.99705 0
M  V30 6882 H 630.735 -0.436552 -3.20743 0
M  V30 6883 H 629.642 -2.67652 -2.61368 0
M  V30 6884 H 630.975 -3.50769 -3.45286 0
M  V30 6885 N 632.627 0.916307 -1.28225 0
M  V30 6886 C 633.873 1.66765 -1.154 0
M  V30 6887 C 634.206 1.91912 0.297251 0
M  V30 6888 O 633.481 1.51766 1.21644 0
M  V30 6889 C 633.764 3.02715 -1.95028 0
M  V30 6890 C 633.617 2.84738 -3.48201 0
M  V30 6891 C 634.936 4.03215 -1.76369 0
M  V30 6892 H 632.055 0.605205 -0.42059 0
M  V30 6893 H 634.697 1.06255 -1.57512 0
M  V30 6894 H 632.847 3.54365 -1.59242 0
M  V30 6895 H 634.519 2.40118 -3.9388 0
M  V30 6896 H 632.762 2.19848 -3.73964 0
M  V30 6897 H 633.433 3.8127 -3.99171 0
M  V30 6898 H 635.909 3.60617 -2.07593 0
M  V30 6899 H 634.785 4.96306 -2.34459 0
M  V30 6900 H 635.046 4.36288 -0.71452 0
M  V30 6901 N 634.105 1.10431 1.1244 0
M  V30 6902 C 635.516 0.864439 1.65482 0
M  V30 6903 C 635.867 -0.60527 1.8663 0
M  V30 6904 O 634.992 -1.46492 1.59276 0
M  V30 6905 C 635.587 1.56267 3.0061 0
M  V30 6906 C 634.146 1.3695 3.50602 0
M  V30 6907 C 633.293 1.61209 2.25626 0
M  V30 6908 H 636.244 1.26203 0.962209 0
M  V30 6909 H 636.265 1.00166 3.67079 0
M  V30 6910 H 635.777 2.63231 2.85186 0
M  V30 6911 H 633.878 0.321481 3.71211 0
M  V30 6912 H 633.991 2.11143 4.30064 0
M  V30 6913 H 632.355 1.03482 2.32731 0
M  V30 6914 H 633.138 2.69425 2.12756 0
M  V30 6915 N 635.583 -1.29855 0.893053 0
M  V30 6916 C 636.999 -1.48366 0.588199 0
M  V30 6917 C 637.199 -1.81654 -0.872018 0
M  V30 6918 O 636.255 -1.909 -1.65268 0
M  V30 6919 C 637.568 -2.60136 1.5083 0
M  V30 6920 C 639.116 -2.74014 1.51279 0
M  V30 6921 C 639.591 -3.88905 2.41902 0
M  V30 6922 N 641.082 -3.96228 2.39911 0
M  V30 6923 C 641.817 -4.84458 3.06738 0
M  V30 6924 N 641.313 -5.77426 3.8282 0
M  V30 6925 N 643.106 -4.77894 2.95929 0
M  V30 6926 H 635.257 -1.06522 1.83757 0
M  V30 6927 H 637.52 -0.528495 0.787018 0
M  V30 6928 H 637.226 -2.42383 2.54839 0
M  V30 6929 H 637.1 -3.56793 1.22388 0
M  V30 6930 H 639.487 -2.91167 0.480179 0
M  V30 6931 H 639.568 -1.77952 1.83757 0
M  V30 6932 H 639.212 -3.72508 3.45253 0
M  V30 6933 H 639.142 -4.84322 2.06737 0
M  V30 6934 H 641.633 -3.29728 1.84629 0
M  V30 6935 H 641.946 -6.41529 4.30883 0
M  V30 6936 H 640.291 -5.77332 3.86927 0
M  V30 6937 H 643.482 -4.04248 2.36012 0
M  V30 6938 H 643.655 -5.46444 3.48286 0
M  V30 6939 N 637.061 -0.65484 -1.43351 0
M  V30 6940 C 638.472 -0.248506 -1.85039 0
M  V30 6941 C 638.823 1.20526 -1.54816 0
M  V30 6942 O 637.948 1.92016 -0.99794 0
M  V30 6943 C 638.543 -0.444241 -3.35875 0
M  V30 6944 C 637.102 -0.0922108 -3.76287 0
M  V30 6945 C 636.249 -0.746327 -2.67068 0
M  V30 6946 H 639.2 -0.8584 -1.33481 0
M  V30 6947 H 639.221 0.309762 -3.79237 0
M  V30 6948 H 638.733 -1.50239 -3.5784 0
M  V30 6949 H 636.834 0.96328 -3.59933 0
M  V30 6950 H 636.947 -0.518807 -4.76283 0
M  V30 6951 H 635.311 -0.179416 -2.54067 0
M  V30 6952 H 636.094 -1.80754 -2.91861 0
M  V30 6953 N 638.539 1.52521 -0.396863 0
M  V30 6954 C 639.502 2.2527 0.422604 0
M  V30 6955 C 640.502 1.27184 0.983913 0
M  V30 6956 O 641.692 1.51222 0.864723 0
M  V30 6957 C 638.824 3.01356 1.59365 0
M  V30 6958 H 640.017 2.99133 -0.214416 0
M  V30 6959 H 637.57 1.55587 -0.149128 0
M  V30 6960 H 638.305 2.31813 2.26789 0
M  V30 6961 H 638.09 3.73357 1.19779 0
M  V30 6962 H 639.58 3.56571 2.17363 0
M  V30 6963 N 640.017 0.126909 1.57088 0
M  V30 6964 C 640.95 -0.857844 2.11462 0
M  V30 6965 C 641.928 -1.25569 1.03301 0
M  V30 6966 O 643.112 -1.35535 1.31006 0
M  V30 6967 C 640.239 -2.14912 2.61784 0
M  V30 6968 C 639.285 -1.89874 3.81903 0
M  V30 6969 S 640.118 -1.10785 5.23915 0
M  V30 6970 C 641.274 -2.41075 5.7761 0
M  V30 6971 H 641.507 -0.395384 2.94659 0
M  V30 6972 H 639.04 -0.0870151 1.54155 0
M  V30 6973 H 640.998 -2.89101 2.91429 0
M  V30 6974 H 639.659 -2.58275 1.78754 0
M  V30 6975 H 638.852 -2.85572 4.15289 0
M  V30 6976 H 638.454 -1.23802 3.52915 0
M  V30 6977 H 640.746 -3.36864 5.87817 0
M  V30 6978 H 641.689 -2.12223 6.75549 0
M  V30 6979 H 642.097 -2.50804 5.05725 0
M  V30 6980 N 641.495 -1.56914 -0.146875 0
M  V30 6981 C 642.772 -1.74273 -0.888165 0
M  V30 6982 C 643.152 -0.69496 -1.99333 0
M  V30 6983 O 642.5 0.286093 -2.26702 0
M  V30 6984 C 642.71 -3.18336 -1.43051 0
M  V30 6985 C 644.058 -3.80024 -1.89387 0
M  V30 6986 O 645.082 -3.21765 -1.52792 0
M  V30 6987 O 643.941 -4.82367 -2.56874 0
M  V30 6988 H 641.035 -0.712565 -0.419738 0
M  V30 6989 H 643.581 -1.6918 -0.132791 0
M  V30 6990 H 642.353 -3.86092 -0.636274 0
M  V30 6991 H 641.976 -3.27854 -2.24938 0
M  V30 6992 N 642.974 0.416227 -1.52004 0
M  V30 6993 C 644.221 1.16383 -1.65714 0
M  V30 6994 C 644.549 1.9068 -0.383594 0
M  V30 6995 O 643.804 1.85174 0.633185 0
M  V30 6996 C 644.103 2.18923 -2.82502 0
M  V30 6997 C 643.769 1.61485 -4.20991 0
M  V30 6998 C 642.431 1.45545 -4.58661 0
M  V30 6999 C 644.783 1.19468 -5.07323 0
M  V30 7000 C 642.111 0.860937 -5.80349 0
M  V30 7001 C 644.463 0.614386 -6.29609 0
M  V30 7002 C 643.127 0.442056 -6.66035 0
M  V30 7003 H 642.397 0.425875 -0.606392 0
M  V30 7004 H 645.044 0.45199 -1.8609 0
M  V30 7005 H 643.349 2.96225 -2.56433 0
M  V30 7006 H 645.046 2.76628 -2.90307 0
M  V30 7007 H 641.636 1.74873 -3.91302 0
M  V30 7008 H 645.82 1.30596 -4.78809 0
M  V30 7009 H 641.076 0.715372 -6.072 0
M  V30 7010 H 645.25 0.280393 -6.95835 0
M  V30 7011 H 642.877 -0.0207218 -7.60197 0
M  V30 7012 N 644.452 1.42507 0.673017 0
M  V30 7013 C 645.68 1.46473 1.46128 0
M  V30 7014 C 646.095 0.0765912 1.88645 0
M  V30 7015 O 645.452 -0.909057 1.58248 0
M  V30 7016 C 645.503 2.39339 2.70923 0
M  V30 7017 O 645.224 3.72752 2.3019 0
M  V30 7018 C 646.725 2.52343 3.64469 0
M  V30 7019 H 643.945 0.49812 0.449575 0
M  V30 7020 H 646.489 1.87041 0.826802 0
M  V30 7021 H 644.644 2.02019 3.30556 0
M  V30 7022 H 645.058 4.22503 3.10791 0
M  V30 7023 H 646.532 3.2144 4.48754 0
M  V30 7024 H 647.009 1.56189 4.1049 0
M  V30 7025 H 647.615 2.90392 3.10729 0
M  V30 7026 N 645.93 -0.909495 1.28709 0
M  V30 7027 C 647.207 -1.63865 1.06806 0
M  V30 7028 C 647.587 -2.07445 -0.391143 0
M  V30 7029 O 646.935 -1.82269 -1.37805 0
M  V30 7030 C 647.145 -2.82692 2.04661 0
M  V30 7031 C 648.493 -3.5361 2.35042 0
M  V30 7032 O 649.517 -2.92847 2.02779 0
M  V30 7033 O 648.376 -4.63131 2.90124 0
M  V30 7034 H 645.47 -0.719065 0.408502 0
M  V30 7035 H 648.016 -0.958424 1.40044 0
M  V30 7036 H 646.788 -2.47614 3.0299 0
M  V30 7037 H 646.411 -3.58426 1.72095 0
M  V30 7038 N 647.408 -1.11026 -1.11852 0
M  V30 7039 C 648.338 -0.786812 -2.19844 0
M  V30 7040 C 649.319 0.242935 -1.68356 0
M  V30 7041 O 650.504 0.107355 -1.93903 0
M  V30 7042 C 647.634 -0.224516 -3.46574 0
M  V30 7043 C 646.588 -1.18564 -4.1125 0
M  V30 7044 C 645.914 -0.484261 -5.32503 0
M  V30 7045 C 647.214 -2.53465 -4.56676 0
M  V30 7046 H 648.908 -1.68978 -2.47158 0
M  V30 7047 H 646.454 -0.813906 -1.18792 0
M  V30 7048 H 648.407 0.0139435 -4.21398 0
M  V30 7049 H 647.131 0.713722 -3.18706 0
M  V30 7050 H 645.79 -1.40966 -3.38414 0
M  V30 7051 H 645.438 0.458646 -5.00905 0
M  V30 7052 H 645.138 -1.12526 -5.76725 0
M  V30 7053 H 646.662 -0.254492 -6.10069 0
M  V30 7054 H 648.076 -2.35177 -5.22843 0
M  V30 7055 H 646.473 -3.13507 -5.11697 0
M  V30 7056 H 647.543 -3.13008 -3.70343 0
M  V30 7057 N 648.886 1.2938 -0.899927 0
M  V30 7058 C 650.111 2.00228 -0.540692 0
M  V30 7059 C 650.536 1.66909 0.867359 0
M  V30 7060 O 649.894 0.893824 1.57735 0
M  V30 7061 C 649.942 3.52921 -0.740232 0
M  V30 7062 O 649.046 4.11879 0.207154 0
M  V30 7063 H 648.387 0.629505 -0.211233 0
M  V30 7064 H 650.917 1.6487 -1.21158 0
M  V30 7065 H 650.927 4.0287 -0.644973 0
M  V30 7066 H 649.602 3.76508 -1.76677 0
M  V30 7067 H 648.179 3.72845 0.0643315 0
M  V30 7068 N 650.364 0.662433 1.43002 0
M  V30 7069 C 651.78 0.330835 1.56133 0
M  V30 7070 C 651.98 -1.16454 1.64441 0
M  V30 7071 O 651.036 -1.94964 1.60453 0
M  V30 7072 C 652.349 1.05029 2.81761 0
M  V30 7073 C 653.897 1.03142 2.95518 0
M  V30 7074 C 654.372 1.73196 4.2399 0
M  V30 7075 N 655.863 1.70004 4.30875 0
M  V30 7076 C 656.598 2.21074 5.29069 0
M  V30 7077 N 656.094 2.80473 6.33488 0
M  V30 7078 N 657.887 2.1152 5.20784 0
M  V30 7079 H 650.038 1.63272 1.35853 0
M  V30 7080 H 652.301 0.687149 0.653092 0
M  V30 7081 H 652.007 2.10542 2.81718 0
M  V30 7082 H 651.881 0.607664 3.72273 0
M  V30 7083 H 654.268 -0.0153339 2.95096 0
M  V30 7084 H 654.349 1.51282 2.0627 0
M  V30 7085 H 653.993 2.77833 4.25172 0
M  V30 7086 H 653.923 1.22515 5.1215 0
M  V30 7087 H 656.414 1.26667 3.56039 0
M  V30 7088 H 656.727 3.17094 7.04749 0
M  V30 7089 H 655.072 2.84538 6.34085 0
M  V30 7090 H 658.263 1.64814 4.38126 0
M  V30 7091 H 658.436 2.51629 5.97149 0
M  V30 7092 N 651.842 -1.52309 0.404946 0
M  V30 7093 C 652.772 -2.29805 -0.41376 0
M  V30 7094 C 653.753 -1.3384 -1.0498 0
M  V30 7095 O 654.938 -1.62745 -1.05961 0
M  V30 7096 C 652.068 -3.11639 -1.53292 0
M  V30 7097 C 651.022 -4.15616 -1.02211 0
M  V30 7098 C 650.348 -4.8577 -2.23455 0
M  V30 7099 C 651.648 -5.2224 -0.0790725 0
M  V30 7100 H 653.342 -2.98493 0.232878 0
M  V30 7101 H 650.888 -1.43552 0.113441 0
M  V30 7102 H 652.841 -3.64618 -2.11262 0
M  V30 7103 H 651.565 -2.40712 -2.20738 0
M  V30 7104 H 650.224 -3.63641 -0.46484 0
M  V30 7105 H 649.872 -4.11376 -2.89445 0
M  V30 7106 H 649.572 -5.56058 -1.89929 0
M  V30 7107 H 651.096 -5.4156 -2.82038 0
M  V30 7108 H 652.51 -5.70485 -0.567438 0
M  V30 7109 H 650.907 -5.99867 0.167167 0
M  V30 7110 H 651.977 -4.77078 0.867447 0
M  V30 7111 N 653.32 -0.135238 -1.57019 0
M  V30 7112 C 654.731 0.387521 -1.82634 0
M  V30 7113 C 655.082 1.65528 -1.05332 0
M  V30 7114 O 654.207 2.14381 -0.294926 0
M  V30 7115 C 654.802 0.709852 -3.3128 0
M  V30 7116 C 653.361 1.17718 -3.57518 0
M  V30 7117 C 652.508 0.194183 -2.76619 0
M  V30 7118 H 655.459 -0.360126 -1.5456 0
M  V30 7119 H 655.48 1.5657 -3.46794 0
M  V30 7120 H 654.992 -0.213024 -3.87515 0
M  V30 7121 H 653.093 2.1164 -3.06658 0
M  V30 7122 H 653.206 1.11128 -4.66034 0
M  V30 7123 H 651.57 0.684478 -2.4533 0
M  V30 7124 H 652.353 -0.722076 -3.3562 0
M  V30 7125 N 654.798 1.5699 0.138552 0
M  V30 7126 C 655.728 2.01933 1.17241 0
M  V30 7127 C 656.709 0.90033 1.44319 0
M  V30 7128 O 657.894 1.16872 1.55095 0
M  V30 7129 C 655.024 2.40711 2.50351 0
M  V30 7130 C 653.978 3.55874 2.37776 0
M  V30 7131 C 653.304 3.80491 3.75674 0
M  V30 7132 C 654.604 4.8826 1.85472 0
M  V30 7133 H 656.298 2.88551 0.798672 0
M  V30 7134 H 653.844 1.3882 0.382743 0
M  V30 7135 H 655.797 2.70754 3.22909 0
M  V30 7136 H 654.521 1.5104 2.89576 0
M  V30 7137 H 653.18 3.2601 1.67669 0
M  V30 7138 H 652.828 2.88057 4.12349 0
M  V30 7139 H 652.528 4.57998 3.68119 0
M  V30 7140 H 654.052 4.12967 4.49767 0
M  V30 7141 H 655.466 5.16965 2.4783 0
M  V30 7142 H 653.863 5.69631 1.88787 0
M  V30 7143 H 654.933 4.78071 0.810935 0
M  V30 7144 N 656.276 -0.40816 1.52223 0
M  V30 7145 C 657.239 -1.48 1.7501 0
M  V30 7146 C 658.239 -1.48367 0.619996 0
M  V30 7147 O 659.429 -1.49874 0.887881 0
M  V30 7148 C 656.561 -2.87403 1.83336 0
M  V30 7149 H 657.754 -1.29086 2.70697 0
M  V30 7150 H 655.307 -0.638715 1.42654 0
M  V30 7151 H 656.042 -3.11686 0.895677 0
M  V30 7152 H 655.827 -2.8854 2.65494 0
M  V30 7153 H 657.317 -3.65103 2.02705 0
M  V30 7154 N 657.755 -1.42862 -0.66545 0
M  V30 7155 C 658.685 -1.49867 -1.79059 0
M  V30 7156 C 659.666 -0.354394 -1.66367 0
M  V30 7157 O 660.851 -0.569969 -1.85647 0
M  V30 7158 C 657.981 -1.40943 -3.17415 0
M  V30 7159 C 656.935 -2.53495 -3.44854 0
M  V30 7160 C 656.261 -2.29626 -4.82883 0
M  V30 7161 C 657.561 -3.95781 -3.40815 0
M  V30 7162 H 659.255 -2.44037 -1.73453 0
M  V30 7163 H 656.801 -1.17456 -0.833071 0
M  V30 7164 H 658.754 -1.4445 -3.95869 0
M  V30 7165 H 657.478 -0.432716 -3.23721 0
M  V30 7166 H 656.137 -2.4932 -2.68766 0
M  V30 7167 H 655.785 -1.30226 -4.8585 0
M  V30 7168 H 655.485 -3.05065 -5.02204 0
M  V30 7169 H 657.009 -2.34897 -5.63609 0
M  V30 7170 H 658.423 -4.01508 -4.09224 0
M  V30 7171 H 656.82 -4.71148 -3.71672 0
M  V30 7172 H 657.89 -4.21786 -2.39216 0
M  V30 7173 N 659.233 0.902656 -1.29189 0
M  V30 7174 C 660.183 1.99326 -1.10695 0
M  V30 7175 C 661.167 1.60877 -0.0272521 0
M  V30 7176 O 662.359 1.75245 -0.248635 0
M  V30 7177 C 659.488 3.34265 -0.78244 0
M  V30 7178 C 658.574 3.79081 -1.90153 0
M  V30 7179 N 658.965 3.96162 -3.14466 0
M  V30 7180 C 657.263 4.08333 -1.79389 0
M  V30 7181 C 657.964 4.3388 -3.87458 0
M  V30 7182 N 656.94 4.42759 -3.15381 0
M  V30 7183 H 660.742 2.10597 -2.05003 0
M  V30 7184 H 658.256 1.09127 -1.20271 0
M  V30 7185 H 660.253 4.12097 -0.630996 0
M  V30 7186 H 658.913 3.2434 0.152754 0
M  V30 7187 H 659.924 3.81775 -3.49954 0
M  V30 7188 H 656.601 4.06982 -0.931217 0
M  V30 7189 H 657.991 4.54965 -4.94425 0
M  V30 7190 N 660.711 1.11618 1.11262 0
M  V30 7191 C 661.988 0.777876 1.79467 0
M  V30 7192 C 662.368 -0.733774 1.97937 0
M  V30 7193 O 661.716 -1.66443 1.56554 0
M  V30 7194 C 661.926 1.5431 3.13032 0
M  V30 7195 C 663.274 1.72357 3.88044 0
M  V30 7196 O 664.298 1.5075 3.22727 0
M  V30 7197 O 663.157 2.08276 5.05256 0
M  V30 7198 H 660.251 0.282018 0.777428 0
M  V30 7199 H 662.797 1.21971 1.17988 0
M  V30 7200 H 661.569 2.57132 2.94956 0
M  V30 7201 H 661.192 1.09495 3.82226 0
M  V30 7202 N 662.189 -1.289 0.906776 0
M  V30 7203 C 663.417 -1.99401 0.551969 0
M  V30 7204 C 663.832 -1.67816 -0.865048 0
M  V30 7205 O 663.189 -0.927078 -1.57199 0
M  V30 7206 C 663.24 -3.53779 0.743152 0
M  V30 7207 O 662.961 -3.84248 2.1044 0
M  V30 7208 C 664.462 -4.41543 0.39424 0
M  V30 7209 H 661.682 -0.636926 0.211106 0
M  V30 7210 H 664.226 -1.64266 1.21807 0
M  V30 7211 H 662.381 -3.87201 0.124143 0
M  V30 7212 H 662.795 -4.78904 2.13895 0
M  V30 7213 H 664.269 -5.48957 0.578814 0
M  V30 7214 H 664.746 -4.34073 -0.669137 0
M  V30 7215 H 665.352 -4.13605 0.990491 0
M  V30 7216 N 663.667 -0.670007 -1.42649 0
M  V30 7217 C 665.078 -0.268118 -1.84765 0
M  V30 7218 C 665.429 1.18877 -1.56086 0
M  V30 7219 O 664.554 1.90947 -1.01825 0
M  V30 7220 C 665.149 -0.47984 -3.35385 0
M  V30 7221 C 663.708 -0.132116 -3.76168 0
M  V30 7222 C 662.855 -0.774611 -2.66261 0
M  V30 7223 H 665.806 -0.872509 -1.32563 0
M  V30 7224 H 665.827 0.269522 -3.79544 0
M  V30 7225 H 665.339 -1.54026 -3.56227 0
M  V30 7226 H 663.44 0.92505 -3.60934 0
M  V30 7227 H 663.553 -0.569294 -4.75706 0
M  V30 7228 H 661.917 -0.206353 -2.53863 0
M  V30 7229 H 662.7 -1.83839 -2.89928 0
M  V30 7230 N 665.145 1.52092 -0.413018 0
M  V30 7231 C 666.556 1.86617 0.0556967 0
M  V30 7232 C 666.907 1.33156 1.44097 0
M  V30 7233 O 666.032 0.672417 2.05688 0
M  V30 7234 C 666.627 3.38628 0.107844 0
M  V30 7235 C 665.186 3.72778 0.520904 0
M  V30 7236 C 664.333 2.75649 -0.302109 0
M  V30 7237 H 667.284 1.45663 -0.629919 0
M  V30 7238 H 667.305 3.69152 0.922324 0
M  V30 7239 H 666.817 3.77508 -0.900506 0
M  V30 7240 H 664.918 3.39478 1.53575 0
M  V30 7241 H 665.031 4.7838 0.262591 0
M  V30 7242 H 663.395 2.53603 0.236115 0
M  V30 7243 H 664.178 3.17369 -1.30888 0
M  V30 7244 N 666.623 0.143563 1.56945 0
M  V30 7245 C 667.872 -0.50835 1.95189 0
M  V30 7246 C 668.185 -1.66239 1.03073 0
M  V30 7247 O 669.391 -2.3787 1.30882 0
M  V30 7248 C 667.847 -0.955735 3.46978 0
M  V30 7249 C 667.455 0.171183 4.47673 0
M  V30 7250 C 669.199 -1.57763 3.94095 0
M  V30 7251 C 667.106 -0.294279 5.90667 0
M  V30 7252 H 666.036 -0.193679 0.728701 0
M  V30 7253 H 668.687 0.227357 1.82086 0
M  V30 7254 H 667.069 -1.7466 3.55401 0
M  V30 7255 H 668.243 0.948049 4.50942 0
M  V30 7256 H 666.558 0.701273 4.10452 0
M  V30 7257 H 669.155 -1.93745 4.98364 0
M  V30 7258 H 669.498 -2.46531 3.35452 0
M  V30 7259 H 670.031 -0.851728 3.88575 0
M  V30 7260 H 666.77 0.557939 6.53121 0
M  V30 7261 H 666.29 -1.0371 5.90766 0
M  V30 7262 H 667.969 -0.747426 6.42668 0
M  V30 7263 N 668.101 -1.57061 -0.130224 0
M  V30 7264 C 669.512 -1.73539 -0.68856 0
M  V30 7265 C 669.863 -0.760554 -1.80859 0
M  V30 7266 O 668.988 0.0690796 -2.1629 0
M  V30 7267 C 669.583 -3.14666 -1.25581 0
M  V30 7268 C 668.142 -3.32689 -1.76055 0
M  V30 7269 C 667.289 -2.69436 -0.655712 0
M  V30 7270 H 670.24 -1.58412 0.0956002 0
M  V30 7271 H 670.261 -3.15595 -2.12556 0
M  V30 7272 H 669.773 -3.85593 -0.440412 0
M  V30 7273 H 667.874 -2.66786 -2.60108 0
M  V30 7274 H 667.987 -4.4077 -1.87772 0
M  V30 7275 H 666.351 -2.30362 -1.08654 0
M  V30 7276 H 667.134 -3.42979 0.14852 0
M  V30 7277 N 669.579 0.400081 -1.52437 0
M  V30 7278 C 670.827 1.14392 -1.6661 0
M  V30 7279 C 671.148 1.90792 -0.402927 0
M  V30 7280 O 670.418 1.87042 0.582425 0
M  V30 7281 H 668.998 0.425275 -0.614125 0
M  V30 7282 H 671.66 0.455076 -1.89513 0
M  V30 7283 H 670.756 1.85298 -2.51139 0
M  V30 7284 N 671.057 1.43213 0.657864 0
M  V30 7285 C 671.989 1.43974 1.78337 0
M  V30 7286 C 673.002 0.336482 1.59285 0
M  V30 7287 O 674.191 0.600631 1.68091 0
M  V30 7288 C 671.291 1.23242 3.15697 0
M  V30 7289 C 670.464 2.46319 3.61449 0
M  V30 7290 C 669.523 2.2088 4.77597 0
M  V30 7291 O 668.549 2.942 4.87273 0
M  V30 7292 N 669.751 1.22251 5.67481 0
M  V30 7293 H 672.516 2.40993 1.78164 0
M  V30 7294 H 670.077 1.3831 0.841549 0
M  V30 7295 H 672.069 1.04113 3.91079 0
M  V30 7296 H 670.639 0.346849 3.1067 0
M  V30 7297 H 669.859 2.80904 2.76563 0
M  V30 7298 H 671.147 3.28239 3.88763 0
M  V30 7299 H 670.545 0.616433 5.62331 0
M  V30 7300 H 669.102 1.09107 6.42603 0
M  V30 7301 N 672.536 -0.895792 1.29666 0
M  V30 7302 C 673.947 -1.46195 1.1612 0
M  V30 7303 C 674.298 -1.94699 -0.242195 0
M  V30 7304 O 673.423 -1.8406 -1.13802 0
M  V30 7305 C 674.018 -2.65718 2.10189 0
M  V30 7306 C 672.577 -3.18458 2.00653 0
M  V30 7307 C 671.724 -1.91149 2.00891 0
M  V30 7308 H 674.675 -0.706756 1.42094 0
M  V30 7309 H 674.696 -3.4158 1.6764 0
M  V30 7310 H 674.208 -2.30386 3.12321 0
M  V30 7311 H 672.309 -3.58474 1.01623 0
M  V30 7312 H 672.422 -3.82491 2.88509 0
M  V30 7313 H 670.786 -2.09021 1.45542 0
M  V30 7314 H 671.569 -1.58089 3.04734 0
M  V30 7315 N 674.014 -1.12206 -1.10668 0
M  V30 7316 C 674.924 -0.800686 -2.20513 0
M  V30 7317 C 675.94 0.209512 -1.72734 0
M  V30 7318 O 677.116 0.043705 -2.01353 0
M  V30 7319 C 674.181 -0.257353 -3.45744 0
M  V30 7320 C 673.242 -1.32718 -4.0827 0
M  V30 7321 C 672.475 -0.809674 -5.27522 0
M  V30 7322 O 672.698 0.35742 -5.69279 0
M  V30 7323 O 671.632 -1.57816 -5.80842 0
M  V30 7324 H 675.458 -1.71807 -2.50432 0
M  V30 7325 H 673.043 -0.898546 -1.19359 0
M  V30 7326 H 674.925 0.0408849 -4.2138 0
M  V30 7327 H 673.6 0.632627 -3.17458 0
M  V30 7328 H 672.507 -1.67855 -3.34329 0
M  V30 7329 H 673.84 -2.19083 -4.40753 0
M  V30 7330 N 675.492 1.28418 -0.913599 0
M  V30 7331 C 676.402 2.31043 -0.406965 0
M  V30 7332 C 677.418 1.66501 0.505298 0
M  V30 7333 O 678.594 1.97558 0.391522 0
M  V30 7334 C 675.659 3.4498 0.344901 0
M  V30 7335 C 674.72 4.25078 -0.600563 0
M  V30 7336 C 673.953 5.33575 0.115516 0
M  V30 7337 O 674.176 5.54503 1.33727 0
M  V30 7338 O 673.11 5.9939 -0.549095 0
M  V30 7339 H 676.936 2.76387 -1.25873 0
M  V30 7340 H 674.521 1.33109 -0.678415 0
M  V30 7341 H 676.403 4.14314 0.769542 0
M  V30 7342 H 675.078 3.01719 1.1725 0
M  V30 7343 H 673.985 3.58334 -1.0746 0
M  V30 7344 H 675.318 4.72018 -1.39497 0
M  V30 7345 N 676.97 0.677563 1.42291 0
M  V30 7346 C 678.219 0.198173 2.00724 0
M  V30 7347 C 678.532 -1.20325 1.54211 0
M  V30 7348 O 679.738 -1.77916 2.05081 0
M  V30 7349 C 678.194 0.303432 3.58619 0
M  V30 7350 C 677.802 1.70909 4.14119 0
M  V30 7351 C 679.546 -0.117103 4.24338 0
M  V30 7352 C 677.453 1.76696 5.64387 0
M  V30 7353 H 676.383 0.070329 0.750713 0
M  V30 7354 H 679.034 0.843147 1.62982 0
M  V30 7355 H 677.416 -0.409482 3.93877 0
M  V30 7356 H 678.59 2.44931 3.90315 0
M  V30 7357 H 676.905 2.07771 3.6086 0
M  V30 7358 H 679.502 -0.0940471 5.34617 0
M  V30 7359 H 679.845 -1.15283 4.00019 0
M  V30 7360 H 680.378 0.5449 3.9405 0
M  V30 7361 H 677.117 2.7826 5.93508 0
M  V30 7362 H 676.637 1.07034 5.90173 0
M  V30 7363 H 678.316 1.52166 6.28852 0
M  V30 7364 N 678.448 -1.51871 0.421078 0
M  V30 7365 C 679.38 -2.25052 -0.434065 0
M  V30 7366 C 680.393 -1.28458 -1.00013 0
M  V30 7367 O 681.582 -1.54323 -0.897033 0
M  V30 7368 C 678.682 -2.97813 -1.61743 0
M  V30 7369 C 677.855 -4.21374 -1.17315 0
M  V30 7370 C 676.914 -4.76854 -2.22478 0
M  V30 7371 O 675.94 -5.39123 -1.82577 0
M  V30 7372 N 677.142 -4.59467 -3.54782 0
M  V30 7373 H 679.907 -2.99077 0.193073 0
M  V30 7374 H 677.468 -1.59972 0.249088 0
M  V30 7375 H 679.46 -3.3182 -2.31685 0
M  V30 7376 H 678.03 -2.26899 -2.15024 0
M  V30 7377 H 677.25 -3.93046 -0.3014 0
M  V30 7378 H 678.538 -5.01591 -0.853444 0
M  V30 7379 H 677.936 -4.09832 -3.89941 0
M  V30 7380 H 676.493 -4.9788 -4.20665 0
M  V30 7381 N 679.926 -0.151884 -1.56866 0
M  V30 7382 C 680.856 0.781943 -2.20018 0
M  V30 7383 C 681.837 1.25347 -1.14987 0
M  V30 7384 O 683.022 1.31015 -1.43348 0
M  V30 7385 C 680.152 2.01928 -2.82564 0
M  V30 7386 C 679.106 1.68434 -3.93464 0
M  V30 7387 C 678.432 2.99472 -4.42968 0
M  V30 7388 C 679.732 0.927244 -5.14003 0
M  V30 7389 H 681.426 0.255607 -2.98307 0
M  V30 7390 H 678.972 0.121502 -1.43486 0
M  V30 7391 H 680.925 2.67741 -3.25411 0
M  V30 7392 H 679.649 2.56943 -2.01614 0
M  V30 7393 H 678.308 1.04998 -3.51242 0
M  V30 7394 H 677.956 3.52488 -3.58834 0
M  V30 7395 H 677.656 2.77823 -5.17772 0
M  V30 7396 H 679.18 3.66348 -4.88489 0
M  V30 7397 H 680.594 1.48756 -5.53665 0
M  V30 7398 H 678.991 0.810513 -5.94601 0
M  V30 7399 H 680.061 -0.0801163 -4.84834 0
M  V30 7400 N 681.404 1.57128 0.121893 0
M  V30 7401 C 682.334 2.03165 1.15092 0
M  V30 7402 C 683.315 0.915587 1.43356 0
M  V30 7403 O 684.5 1.1851 1.53847 0
M  V30 7404 C 681.63 2.43352 2.47784 0
M  V30 7405 C 680.584 3.58376 2.33989 0
M  V30 7406 C 679.91 3.84454 3.71617 0
M  V30 7407 C 681.21 4.90199 1.80283 0
M  V30 7408 H 682.904 2.89382 0.768023 0
M  V30 7409 H 680.45 1.39218 0.367998 0
M  V30 7410 H 682.403 2.74163 3.20019 0
M  V30 7411 H 681.127 1.54103 2.87958 0
M  V30 7412 H 679.786 3.2777 1.64202 0
M  V30 7413 H 679.434 2.92414 4.09271 0
M  V30 7414 H 679.134 4.61877 3.6324 0
M  V30 7415 H 680.658 4.17714 4.45362 0
M  V30 7416 H 682.072 5.19565 2.42333 0
M  V30 7417 H 680.469 5.71601 1.82735 0
M  V30 7418 H 681.539 4.78904 0.760184 0
M  V30 7419 N 682.882 -0.391992 1.52647 0
M  V30 7420 C 684.298 -0.731848 1.41831 0
M  V30 7421 C 684.498 -1.9423 0.536361 0
M  V30 7422 O 683.554 -2.52499 0.00866571 0
M  V30 7423 C 684.867 -0.969743 2.84634 0
M  V30 7424 C 686.415 -1.0714 2.94092 0
M  V30 7425 C 686.89 -1.34195 4.37899 0
M  V30 7426 N 688.381 -1.41023 4.41211 0
M  V30 7427 C 689.116 -1.63616 5.49561 0
M  V30 7428 N 688.612 -1.83699 6.68002 0
M  V30 7429 N 690.405 -1.65771 5.371 0
M  V30 7430 H 682.556 0.404547 2.08512 0
M  V30 7431 H 684.819 0.11879 0.940528 0
M  V30 7432 H 684.525 -0.152465 3.51369 0
M  V30 7433 H 684.399 -1.88523 3.26709 0
M  V30 7434 H 686.786 -1.87925 2.27526 0
M  V30 7435 H 686.867 -0.133887 2.55449 0
M  V30 7436 H 686.511 -0.539207 5.0503 0
M  V30 7437 H 686.441 -2.29226 4.74092 0
M  V30 7438 H 688.932 -1.27223 3.55841 0
M  V30 7439 H 689.245 -2.00437 7.46354 0
M  V30 7440 H 687.59 -1.8093 6.71036 0
M  V30 7441 H 690.781 -1.4963 4.43541 0
M  V30 7442 H 690.954 -1.83038 6.21612 0
M  V30 7443 N 684.36 -1.4356 -0.65026 0
M  V30 7444 C 685.307 -1.48948 -1.76304 0
M  V30 7445 C 686.277 -0.338919 -1.62605 0
M  V30 7446 O 687.462 -0.54649 -1.82806 0
M  V30 7447 C 684.602 -1.42131 -3.14472 0
M  V30 7448 C 683.715 -2.67415 -3.39284 0
M  V30 7449 C 682.85 -2.52565 -4.67316 0
M  V30 7450 C 681.889 -3.73103 -4.85243 0
M  V30 7451 N 681.026 -3.57046 -6.04535 0
M  V30 7452 H 685.866 -2.44032 -1.71034 0
M  V30 7453 H 683.403 -1.21131 -0.834601 0
M  V30 7454 H 685.361 -1.36172 -3.94351 0
M  V30 7455 H 683.991 -0.506273 -3.18805 0
M  V30 7456 H 683.043 -2.8364 -2.53481 0
M  V30 7457 H 684.355 -3.56943 -3.48415 0
M  V30 7458 H 683.509 -2.44331 -5.55326 0
M  V30 7459 H 682.248 -1.60566 -4.60511 0
M  V30 7460 H 681.253 -3.81743 -3.95667 0
M  V30 7461 H 682.478 -4.66115 -4.93876 0
M  V30 7462 H 680.424 -2.67783 -5.98856 0
M  V30 7463 H 680.341 -4.40178 -6.14638 0
M  V30 7464 H 681.609 -3.52669 -6.95158 0
M  V30 7465 N 685.838 0.888903 -1.30139 0
M  V30 7466 C 686.748 2.02705 -1.18101 0
M  V30 7467 C 687.764 1.73702 -0.101809 0
M  V30 7468 O 688.94 1.98906 -0.315984 0
M  V30 7469 C 686.005 3.35616 -0.869651 0
M  V30 7470 C 685.066 3.78067 -2.03381 0
M  V30 7471 C 684.299 5.04635 -1.73721 0
M  V30 7472 O 684.522 5.66531 -0.663267 0
M  V30 7473 O 683.456 5.43399 -2.58845 0
M  V30 7474 H 687.282 2.15788 -2.13704 0
M  V30 7475 H 684.867 1.01426 -1.09695 0
M  V30 7476 H 686.749 4.15358 -0.711043 0
M  V30 7477 H 685.424 3.23651 0.0565002 0
M  V30 7478 H 684.331 2.99046 -2.24772 0
M  V30 7479 H 685.664 3.94631 -2.94155 0
M  V30 7480 N 687.317 1.12792 1.10072 0
M  V30 7481 C 688.28 0.802264 2.14701 0
M  V30 7482 C 689.28 -0.18515 1.59731 0
M  V30 7483 O 690.47 0.041109 1.74151 0
M  V30 7484 C 687.602 0.19285 3.40354 0
M  V30 7485 H 688.795 1.72932 2.45019 0
M  V30 7486 H 686.348 0.931662 1.25498 0
M  V30 7487 H 687.083 -0.743748 3.15656 0
M  V30 7488 H 686.868 0.903827 3.81541 0
M  V30 7489 H 688.358 -0.0183704 4.17596 0
M  V30 7490 N 688.795 -1.27931 0.920396 0
M  V30 7491 C 690.023 -1.98805 0.573087 0
M  V30 7492 C 690.438 -1.68724 -0.847201 0
M  V30 7493 O 689.795 -0.943699 -1.56207 0
M  V30 7494 C 689.846 -3.52971 0.780633 0
M  V30 7495 O 689.567 -3.81994 2.14504 0
M  V30 7496 C 691.068 -4.411 0.44105 0
M  V30 7497 H 688.288 -0.634651 0.21785 0
M  V30 7498 H 690.832 -1.62965 1.23542 0
M  V30 7499 H 688.987 -3.87048 0.165204 0
M  V30 7500 H 689.401 -4.76609 2.18962 0
M  V30 7501 H 690.875 -5.48312 0.637006 0
M  V30 7502 H 691.352 -4.34758 -0.62306 0
M  V30 7503 H 691.958 -4.12532 1.0343 0
M  V30 7504 N 690.273 -0.685099 -1.4193 0
M  V30 7505 C 691.684 -0.287699 -1.8447 0
M  V30 7506 C 692.035 1.17215 -1.57338 0
M  V30 7507 O 691.16 1.89856 -1.03845 0
M  V30 7508 C 691.755 -0.515385 -3.34857 0
M  V30 7509 C 690.314 -0.172006 -3.76007 0
M  V30 7510 C 689.461 -0.802808 -2.65425 0
M  V30 7511 H 692.412 -0.88652 -1.3163 0
M  V30 7512 H 692.433 0.229251 -3.79809 0
M  V30 7513 H 691.945 -1.57796 -3.54573 0
M  V30 7514 H 690.046 0.886716 -3.61895 0
M  V30 7515 H 690.159 -0.619717 -4.75075 0
M  V30 7516 H 688.523 -0.233267 -2.5363 0
M  V30 7517 H 689.306 -1.86904 -2.87961 0
M  V30 7518 N 691.751 1.51645 -0.429126 0
M  V30 7519 C 693.167 1.59394 -0.080994 0
M  V30 7520 C 693.367 1.44064 1.40882 0
M  V30 7521 O 692.423 1.27771 2.17786 0
M  V30 7522 C 693.736 2.94779 -0.593773 0
M  V30 7523 C 695.284 3.08067 -0.553494 0
M  V30 7524 C 695.759 4.45963 -1.04311 0
M  V30 7525 N 697.25 4.5226 -1.00076 0
M  V30 7526 C 697.985 5.57268 -1.35056 0
M  V30 7527 N 697.481 6.69734 -1.77282 0
M  V30 7528 N 699.274 5.47582 -1.26925 0
M  V30 7529 H 691.425 1.59856 -1.39857 0
M  V30 7530 H 693.688 0.753095 -0.575805 0
M  V30 7531 H 693.394 3.11342 -1.63583 0
M  V30 7532 H 693.268 3.77197 -0.0142202 0
M  V30 7533 H 695.655 2.91177 0.479556 0
M  V30 7534 H 695.736 2.27508 -1.16935 0
M  V30 7535 H 695.38 4.63598 -2.07459 0
M  V30 7536 H 695.31 5.25049 -0.403873 0
M  V30 7537 H 697.801 3.71537 -0.690564 0
M  V30 7538 H 698.114 7.4587 -2.02232 0
M  V30 7539 H 696.459 6.70963 -1.81202 0
M  V30 7540 H 699.65 4.58604 -0.93809 0
M  V30 7541 H 699.823 6.29308 -1.54516 0
M  V30 7542 N 693.229 0.160201 1.56784 0
M  V30 7543 C 694.454 -0.497373 2.01348 0
M  V30 7544 C 694.879 -1.56757 1.03966 0
M  V30 7545 O 694.237 -1.81292 0.0174455 0
M  V30 7546 C 694.285 -1.0628 3.44582 0
M  V30 7547 O 693.389 -2.17723 3.50244 0
M  V30 7548 H 692.73 -0.120295 0.653012 0
M  V30 7549 H 695.26 0.260821 2.02931 0
M  V30 7550 H 695.27 -1.38819 3.83658 0
M  V30 7551 H 693.945 -0.279166 4.14962 0
M  V30 7552 H 692.522 -1.86313 3.2302 0
M  V30 7553 N 694.707 -1.5719 -0.113559 0
M  V30 7554 C 696.123 -1.52607 -0.467253 0
M  V30 7555 C 696.323 -0.874058 -1.81556 0
M  V30 7556 O 695.379 -0.458703 -2.48299 0
M  V30 7557 C 696.692 -2.97363 -0.446736 0
M  V30 7558 C 698.24 -3.08482 -0.529903 0
M  V30 7559 C 698.715 -4.54809 -0.539721 0
M  V30 7560 N 700.206 -4.59284 -0.601005 0
M  V30 7561 C 700.941 -5.69927 -0.630138 0
M  V30 7562 N 700.437 -6.90051 -0.616589 0
M  V30 7563 N 702.23 -5.5805 -0.673558 0
M  V30 7564 H 694.381 -1.97958 0.769819 0
M  V30 7565 H 696.644 -0.90428 0.284572 0
M  V30 7566 H 696.35 -3.48458 0.47643 0
M  V30 7567 H 696.224 -3.55086 -1.27254 0
M  V30 7568 H 698.611 -2.57386 -1.44349 0
M  V30 7569 H 698.692 -2.53744 0.323695 0
M  V30 7570 H 698.336 -5.06552 0.369843 0
M  V30 7571 H 698.266 -5.07364 -1.41028 0
M  V30 7572 H 700.757 -3.72822 -0.617419 0
M  V30 7573 H 701.07 -7.70132 -0.641592 0
M  V30 7574 H 699.415 -6.92543 -0.583927 0
M  V30 7575 H 702.606 -4.63112 -0.681544 0
M  V30 7576 H 702.779 -6.44286 -0.692794 0
M  V30 7577 N 696.185 0.383891 -1.52853 0
M  V30 7578 C 697.462 1.14296 -1.58732 0
M  V30 7579 C 697.842 2.07585 -0.383611 0
M  V30 7580 O 697.19 2.1971 0.627661 0
M  V30 7581 C 697.4 1.89816 -2.92867 0
M  V30 7582 C 698.748 2.44998 -3.46787 0
M  V30 7583 O 699.772 1.99966 -2.94774 0
M  V30 7584 O 698.631 3.2727 -4.37672 0
M  V30 7585 H 695.725 0.52326 -0.640413 0
M  V30 7586 H 698.271 0.388631 -1.6519 0
M  V30 7587 H 697.043 1.21626 -3.71918 0
M  V30 7588 H 696.666 2.72199 -2.89816 0
M  V30 7589 N 697.663 1.43903 0.642637 0
M  V30 7590 C 698.888 1.49758 1.43483 0
M  V30 7591 C 699.313 0.119911 1.87717 0
M  V30 7592 O 698.671 -0.888558 1.58033 0
M  V30 7593 C 698.719 2.45744 2.63898 0
M  V30 7594 O 697.823 1.95101 3.63331 0
M  V30 7595 H 697.164 0.506138 0.429791 0
M  V30 7596 H 699.694 1.88923 0.785438 0
M  V30 7597 H 699.704 2.63399 3.11584 0
M  V30 7598 H 698.379 3.45818 2.31046 0
M  V30 7599 H 696.956 1.87158 3.22531 0
M  V30 7600 N 699.141 -0.881989 1.30609 0
M  V30 7601 C 700.552 -1.44956 1.17664 0
M  V30 7602 C 700.903 -1.94945 -0.221531 0
M  V30 7603 O 700.028 -1.85257 -1.11844 0
M  V30 7604 C 700.623 -2.63474 2.12995 0
M  V30 7605 C 699.182 -3.16312 2.04019 0
M  V30 7606 C 698.329 -1.89008 2.02907 0
M  V30 7607 H 701.28 -0.691645 1.42835 0
M  V30 7608 H 701.301 -3.39783 1.71253 0
M  V30 7609 H 700.813 -2.2706 3.14746 0
M  V30 7610 H 698.914 -3.57376 1.0542 0
M  V30 7611 H 699.027 -3.79409 2.9255 0
M  V30 7612 H 697.391 -2.07465 1.47751 0
M  V30 7613 H 698.174 -1.54848 3.06394 0
M  V30 7614 N 700.619 -1.13374 -1.09472 0
M  V30 7615 C 701.865 -0.896516 -1.81908 0
M  V30 7616 C 702.198 0.575933 -1.85463 0
M  V30 7617 O 701.473 1.42618 -1.32251 0
M  V30 7618 C 701.756 -1.48445 -3.28079 0
M  V30 7619 C 701.609 -3.02598 -3.32798 0
M  V30 7620 C 702.928 -1.15226 -4.24748 0
M  V30 7621 H 700.047 -0.327127 -0.660422 0
M  V30 7622 H 702.689 -1.40195 -1.2824 0
M  V30 7623 H 700.839 -1.0546 -3.73912 0
M  V30 7624 H 702.511 -3.54335 -2.95372 0
M  V30 7625 H 700.754 -3.37613 -2.72397 0
M  V30 7626 H 701.425 -3.38835 -4.3577 0
M  V30 7627 H 703.901 -1.52369 -3.87199 0
M  V30 7628 H 702.777 -1.59012 -5.25363 0
M  V30 7629 H 703.038 -0.0658891 -4.42051 0
M  V30 7630 N 702.098 1.27442 -0.927168 0
M  V30 7631 C 703.344 1.95025 -0.577651 0
M  V30 7632 C 703.699 1.71534 0.871421 0
M  V30 7633 O 702.992 1.03354 1.61333 0
M  V30 7634 C 703.186 3.47413 -0.838994 0
M  V30 7635 C 703.015 3.85721 -2.31192 0
M  V30 7636 C 701.785 4.09199 -2.96452 0
M  V30 7637 C 703.983 3.95352 -3.28939 0
M  V30 7638 N 701.965 4.34283 -4.33903 0
M  V30 7639 C 703.336 4.24805 -4.51598 0
M  V30 7640 C 705.391 3.77926 -3.24155 0
M  V30 7641 C 704.094 4.38645 -5.70073 0
M  V30 7642 C 706.12 3.9299 -4.41942 0
M  V30 7643 C 705.482 4.22829 -5.63379 0
M  V30 7644 H 701.581 0.736983 -0.261495 0
M  V30 7645 H 704.165 1.53816 -1.19368 0
M  V30 7646 H 702.336 3.87581 -0.252129 0
M  V30 7647 H 704.068 4.02166 -0.452158 0
M  V30 7648 H 700.823 4.04013 -2.47125 0
M  V30 7649 H 701.247 4.50883 -5.05008 0
M  V30 7650 H 705.889 3.53897 -2.31337 0
M  V30 7651 H 703.607 4.615 -6.63358 0
M  V30 7652 H 707.193 3.80926 -4.39757 0
M  V30 7653 H 706.073 4.34234 -6.53001 0
M  V30 7654 N 703.576 0.692616 1.41565 0
M  V30 7655 C 704.816 0.226453 2.03142 0
M  V30 7656 C 705.18 -1.1512 1.5366 0
M  V30 7657 O 706.381 -1.71305 2.07143 0
M  V30 7658 C 704.652 0.27855 3.56313 0
M  V30 7659 S 706.211 -0.114001 4.38652 0
M  V30 7660 H 703.029 0.0914767 0.705091 0
M  V30 7661 H 705.631 0.909737 1.73043 0
M  V30 7662 H 704.335 1.28325 3.89821 0
M  V30 7663 H 703.866 -0.423981 3.91109 0
M  V30 7664 H 705.881 -1.34256 4.77692 0
M  V30 7665 N 705.054 -1.51416 0.437162 0
M  V30 7666 C 705.986 -2.255 -0.410171 0
M  V30 7667 C 706.999 -1.29511 -0.986444 0
M  V30 7668 O 708.188 -1.55266 -0.880614 0
M  V30 7669 C 705.288 -2.99511 -1.58575 0
M  V30 7670 C 704.461 -4.22595 -1.12839 0
M  V30 7671 C 703.52 -4.79187 -2.17407 0
M  V30 7672 O 702.546 -5.4103 -1.76849 0
M  V30 7673 N 703.748 -4.63204 -3.49889 0
M  V30 7674 H 706.513 -2.98856 0.224783 0
M  V30 7675 H 704.074 -1.59699 0.266041 0
M  V30 7676 H 706.066 -3.34258 -2.28152 0
M  V30 7677 H 704.636 -2.29167 -2.12606 0
M  V30 7678 H 703.856 -3.93344 -0.259695 0
M  V30 7679 H 705.144 -5.02468 -0.800196 0
M  V30 7680 H 704.542 -4.13945 -3.85573 0
M  V30 7681 H 703.099 -5.02313 -4.15361 0
M  V30 7682 N 706.532 -0.168513 -1.56696 0
M  V30 7683 C 707.772 0.479648 -1.98693 0
M  V30 7684 C 708.136 1.60609 -1.05209 0
M  V30 7685 O 709.337 2.3166 -1.36334 0
M  V30 7686 C 707.608 0.952852 -3.44464 0
M  V30 7687 S 709.167 1.60259 -4.08488 0
M  V30 7688 H 705.985 0.154377 -0.694038 0
M  V30 7689 H 708.587 -0.265312 -1.93691 0
M  V30 7690 H 707.291 0.12257 -4.10217 0
M  V30 7691 H 706.822 1.73192 -3.53225 0
M  V30 7692 H 708.837 2.89065 -4.03307 0
M  V30 7693 N 708.01 1.57248 0.105221 0
M  V30 7694 C 709.258 1.85204 0.808951 0
M  V30 7695 C 709.579 0.75574 1.7976 0
M  V30 7696 O 708.849 -0.218984 1.94672 0
M  V30 7697 H 707.429 0.683346 0.301739 0
M  V30 7698 H 710.091 1.94695 0.0892605 0
M  V30 7699 H 709.187 2.81595 1.34575 0
M  V30 7700 N 709.488 -0.375779 1.53054 0
M  V30 7701 C 710.713 -1.14484 1.7294 0
M  V30 7702 C 711.138 -1.82572 0.452668 0
M  V30 7703 O 710.496 -1.71343 -0.592567 0
M  V30 7704 C 710.544 -2.15857 2.88857 0
M  V30 7705 O 709.648 -3.22725 2.56753 0
M  V30 7706 H 708.989 -0.332666 0.574656 0
M  V30 7707 H 711.519 -0.436025 1.999 0
M  V30 7708 H 711.529 -2.59631 3.14731 0
M  V30 7709 H 710.204 -1.65689 3.81471 0
M  V30 7710 H 708.781 -2.83996 2.41663 0
M  V30 7711 N 710.966 -1.44241 -0.634997 0
M  V30 7712 C 712.206 -1.48339 -1.40623 0
M  V30 7713 C 712.57 -0.111479 -1.91676 0
M  V30 7714 O 713.771 -0.0271345 -2.68786 0
M  V30 7715 C 712.042 -2.51122 -2.54308 0
M  V30 7716 S 713.601 -2.74237 -3.42548 0
M  V30 7717 H 710.419 -0.524715 -0.479787 0
M  V30 7718 H 713.021 -1.81138 -0.735489 0
M  V30 7719 H 711.725 -3.49511 -2.15106 0
M  V30 7720 H 711.256 -2.19883 -3.26213 0
M  V30 7721 H 713.271 -2.0554 -4.51628 0
M  V30 7722 N 712.444 0.87505 -1.31075 0
M  V30 7723 C 713.374 1.99775 -1.20881 0
M  V30 7724 C 714.355 1.69822 -0.0971612 0
M  V30 7725 O 715.54 1.92158 -0.280895 0
M  V30 7726 C 712.67 3.35163 -0.910118 0
M  V30 7727 C 711.624 3.79406 -1.98078 0
M  V30 7728 C 710.95 5.12197 -1.53488 0
M  V30 7729 C 712.25 3.97061 -3.39323 0
M  V30 7730 H 713.944 2.08562 -2.14808 0
M  V30 7731 H 711.49 1.00207 -1.03415 0
M  V30 7732 H 713.443 4.13237 -0.825423 0
M  V30 7733 H 712.167 3.26536 0.064822 0
M  V30 7734 H 710.826 3.03568 -2.05528 0
M  V30 7735 H 710.474 5.00007 -0.547941 0
M  V30 7736 H 710.174 5.4277 -2.2511 0
M  V30 7737 H 711.698 5.92785 -1.46417 0
M  V30 7738 H 713.112 4.65545 -3.34576 0
M  V30 7739 H 711.509 4.39025 -4.09118 0
M  V30 7740 H 712.579 3.00601 -3.80483 0
M  V30 7741 N 713.922 1.13953 1.08869 0
M  V30 7742 C 715.333 0.916649 1.62648 0
M  V30 7743 C 715.684 -0.545589 1.88462 0
M  V30 7744 O 714.809 -1.41351 1.63856 0
M  V30 7745 C 715.404 1.65751 2.95486 0
M  V30 7746 C 713.963 1.48034 3.46068 0
M  V30 7747 C 713.11 1.68305 2.20383 0
M  V30 7748 H 716.061 1.292 0.921572 0
M  V30 7749 H 716.082 1.11794 3.63707 0
M  V30 7750 H 715.594 2.72171 2.76667 0
M  V30 7751 H 713.695 0.439416 3.7 0
M  V30 7752 H 713.808 2.24719 4.23129 0
M  V30 7753 H 712.172 1.10833 2.29321 0
M  V30 7754 H 712.955 2.76057 2.04077 0
M  V30 7755 N 715.4 -1.26948 0.933913 0
M  V30 7756 C 716.625 -1.98724 0.593589 0
M  V30 7757 C 717.05 -1.6915 -0.822801 0
M  V30 7758 O 716.408 -0.93533 -1.5531 0
M  V30 7759 C 716.456 -3.50834 0.833542 0
M  V30 7760 O 715.56 -4.12284 -0.0978788 0
M  V30 7761 H 714.901 -0.623683 0.227849 0
M  V30 7762 H 717.431 -1.61599 1.25486 0
M  V30 7763 H 717.441 -4.01018 0.75156 0
M  V30 7764 H 716.116 -3.71691 1.86597 0
M  V30 7765 H 714.693 -3.72884 0.0345443 0
M  V30 7766 N 716.879 -0.700114 -1.41195 0
M  V30 7767 C 717.811 0.00155823 -2.292 0
M  V30 7768 C 718.824 0.739736 -1.45023 0
M  V30 7769 O 720.013 0.589684 -1.68478 0
M  V30 7770 C 717.113 1.02635 -3.22985 0
M  V30 7771 C 716.286 0.356871 -4.35942 0
M  V30 7772 C 715.345 1.28491 -5.10271 0
M  V30 7773 O 714.371 0.775562 -5.63892 0
M  V30 7774 N 715.573 2.61699 -5.18164 0
M  V30 7775 H 718.338 -0.754008 -2.9006 0
M  V30 7776 H 715.899 -0.546504 -1.52397 0
M  V30 7777 H 717.891 1.64902 -3.6958 0
M  V30 7778 H 716.461 1.68341 -2.63401 0
M  V30 7779 H 715.681 -0.445753 -3.91672 0
M  V30 7780 H 716.969 -0.108469 -5.08684 0
M  V30 7781 H 716.367 3.05594 -4.76056 0
M  V30 7782 H 714.924 3.19149 -5.6832 0
M  V30 7783 N 718.357 1.51182 -0.445186 0
M  V30 7784 C 719.287 2.30821 0.352686 0
M  V30 7785 C 720.268 1.36576 1.01395 0
M  V30 7786 O 721.453 1.65497 1.01609 0
M  V30 7787 C 718.583 3.15593 1.44976 0
M  V30 7788 C 717.537 4.1818 0.911553 0
M  V30 7789 C 716.863 4.91523 2.10497 0
M  V30 7790 C 718.163 5.22266 -0.059418 0
M  V30 7791 H 719.857 2.97771 -0.311936 0
M  V30 7792 H 717.403 1.43201 -0.151461 0
M  V30 7793 H 719.356 3.70091 2.01521 0
M  V30 7794 H 718.08 2.4648 2.14278 0
M  V30 7795 H 716.739 3.64746 0.368264 0
M  V30 7796 H 716.387 4.18906 2.78437 0
M  V30 7797 H 716.087 5.60898 1.7512 0
M  V30 7798 H 717.611 5.48847 2.6758 0
M  V30 7799 H 719.025 5.71789 0.415985 0
M  V30 7800 H 717.422 5.99213 -0.326152 0
M  V30 7801 H 718.492 4.7461 -0.993631 0
M  V30 7802 N 719.835 0.176821 1.56605 0
M  V30 7803 C 721.246 -0.338963 1.83597 0
M  V30 7804 C 721.597 -1.62677 1.09684 0
M  V30 7805 O 720.722 -2.13524 0.351661 0
M  V30 7806 C 721.317 -0.62177 3.33046 0
M  V30 7807 C 719.876 -1.08198 3.60514 0
M  V30 7808 C 719.023 -0.120774 2.77037 0
M  V30 7809 H 721.974 0.400978 1.53551 0
M  V30 7810 H 721.995 -1.47321 3.50823 0
M  V30 7811 H 721.507 0.315692 3.86814 0
M  V30 7812 H 719.608 -2.03435 3.12162 0
M  V30 7813 H 719.721 -0.987329 4.68816 0
M  V30 7814 H 718.085 -0.619192 2.47059 0
M  V30 7815 H 718.868 0.810806 3.33588 0
M  V30 7816 N 721.313 -1.57302 -0.09688 0
M  V30 7817 C 722.223 -2.05258 -1.13606 0
M  V30 7818 C 723.239 -0.977137 -1.43972 0
M  V30 7819 O 724.415 -1.29018 -1.54649 0
M  V30 7820 C 721.48 -2.46593 -2.43706 0
M  V30 7821 C 720.541 -3.68322 -2.20538 0
M  V30 7822 C 719.774 -4.07676 -3.44435 0
M  V30 7823 O 719.997 -3.47141 -4.52603 0
M  V30 7824 O 718.931 -5.00641 -3.34129 0
M  V30 7825 H 722.757 -2.94069 -0.758752 0
M  V30 7826 H 720.342 -1.46164 -0.309263 0
M  V30 7827 H 722.224 -2.73814 -3.20318 0
M  V30 7828 H 720.899 -1.6092 -2.80867 0
M  V30 7829 H 719.806 -3.4622 -1.41713 0
M  V30 7830 H 721.139 -4.54769 -1.88271 0
M  V30 7831 N 722.791 0.367657 -1.53252 0
M  V30 7832 C 724.016 1.13566 -1.73544 0
M  V30 7833 C 724.441 1.82329 -0.462344 0
M  V30 7834 O 723.799 1.71655 0.583472 0
M  V30 7835 C 723.847 2.14322 -2.89997 0
M  V30 7836 O 722.951 3.21359 -2.58461 0
M  V30 7837 H 722.292 0.329614 -0.576412 0
M  V30 7838 H 724.822 0.425417 -2.00128 0
M  V30 7839 H 724.832 2.57958 -3.16104 0
M  V30 7840 H 723.507 1.63664 -3.82344 0
M  V30 7841 H 722.084 2.8271 -2.43165 0
M  V30 7842 N 724.269 1.44576 0.627338 0
M  V30 7843 C 725.219 1.48168 1.73293 0
M  V30 7844 C 726.203 0.347045 1.57113 0
M  V30 7845 O 727.395 0.592605 1.66785 0
M  V30 7846 C 724.524 1.43236 3.11991 0
M  V30 7847 C 723.61 2.61828 3.33627 0
M  V30 7848 N 724.001 3.87053 3.25612 0
M  V30 7849 C 722.299 2.57104 3.64436 0
M  V30 7850 C 723 4.66093 3.48041 0
M  V30 7851 N 721.976 3.97228 3.71095 0
M  V30 7852 H 725.778 2.42832 1.6556 0
M  V30 7853 H 723.292 1.39592 0.829934 0
M  V30 7854 H 725.289 1.43893 3.91281 0
M  V30 7855 H 723.949 0.496133 3.20887 0
M  V30 7856 H 724.96 4.18966 3.04447 0
M  V30 7857 H 721.637 1.72295 3.8029 0
M  V30 7858 H 723.027 5.75117 3.47404 0
M  V30 7859 N 725.747 -0.868086 1.31537 0
M  V30 7860 C 727.163 -1.15414 1.10235 0
M  V30 7861 C 727.363 -2.01106 -0.125947 0
M  V30 7862 O 726.419 -2.38994 -0.814734 0
M  V30 7863 C 727.732 -1.84445 2.37488 0
M  V30 7864 C 729.28 -1.97139 2.43116 0
M  V30 7865 C 729.755 -2.69585 3.70254 0
M  V30 7866 N 731.246 -2.77119 3.71159 0
M  V30 7867 C 731.981 -3.33791 4.6623 0
M  V30 7868 N 731.477 -3.9138 5.71659 0
M  V30 7869 N 733.27 -3.31767 4.53747 0
M  V30 7870 H 725.421 -0.297109 2.10312 0
M  V30 7871 H 727.684 -0.194227 0.92789 0
M  V30 7872 H 727.39 -1.2893 3.27215 0
M  V30 7873 H 727.264 -2.84709 2.47428 0
M  V30 7874 H 729.651 -2.51818 1.53856 0
M  V30 7875 H 729.732 -0.95912 2.37138 0
M  V30 7876 H 729.376 -2.15572 4.59881 0
M  V30 7877 H 729.306 -3.71223 3.73499 0
M  V30 7878 H 731.797 -2.3625 2.94948 0
M  V30 7879 H 732.11 -4.3274 6.40278 0
M  V30 7880 H 730.455 -3.8975 5.7543 0
M  V30 7881 H 733.646 -2.86016 3.70557 0
M  V30 7882 H 733.819 -3.75636 5.28017 0
M  V30 7883 N 727.225 -1.14528 -1.08264 0
M  V30 7884 C 728.465 -0.924808 -1.82282 0
M  V30 7885 C 728.829 0.538881 -1.84283 0
M  V30 7886 O 730.03 0.877355 -2.54079 0
M  V30 7887 C 728.301 -1.51102 -3.23887 0
M  V30 7888 S 729.86 -1.43232 -4.14765 0
M  V30 7889 H 726.678 -0.333052 -0.62817 0
M  V30 7890 H 729.28 -1.45905 -1.30123 0
M  V30 7891 H 727.984 -2.56942 -3.20014 0
M  V30 7892 H 727.515 -0.975234 -3.8112 0
M  V30 7893 H 729.53 -0.418843 -4.94429 0
M  V30 7894 N 728.703 1.26451 -0.940633 0
M  V30 7895 C 729.633 2.28773 -0.467479 0
M  V30 7896 C 730.614 1.63218 0.478955 0
M  V30 7897 O 731.799 1.90427 0.380929 0
M  V30 7898 C 728.929 3.46259 0.268656 0
M  V30 7899 C 727.883 4.23898 -0.591171 0
M  V30 7900 C 727.209 5.33993 0.274891 0
M  V30 7901 C 728.509 4.87974 -1.86223 0
M  V30 7902 H 730.203 2.68601 -1.32265 0
M  V30 7903 H 727.749 1.29123 -0.637436 0
M  V30 7904 H 729.702 4.16951 0.610696 0
M  V30 7905 H 728.426 3.05383 1.15796 0
M  V30 7906 H 727.085 3.54969 -0.916098 0
M  V30 7907 H 726.733 4.89358 1.16353 0
M  V30 7908 H 726.433 5.86849 -0.297006 0
M  V30 7909 H 727.957 6.07523 0.612213 0
M  V30 7910 H 729.371 5.50883 -1.58747 0
M  V30 7911 H 727.768 5.50945 -2.37866 0
M  V30 7912 H 728.838 4.10945 -2.57394 0
M  V30 7913 N 730.181 0.707592 1.40822 0
M  V30 7914 C 731.091 0.0507246 2.34545 0
M  V30 7915 C 732.107 -0.752727 1.56876 0
M  V30 7916 O 733.283 -0.687524 1.89302 0
M  V30 7917 C 730.348 -0.865731 3.35717 0
M  V30 7918 C 729.409 -0.0531313 4.29267 0
M  V30 7919 C 728.642 -0.925939 5.25606 0
M  V30 7920 O 728.865 -2.16531 5.27703 0
M  V30 7921 O 727.799 -0.369194 6.00767 0
M  V30 7922 H 731.625 0.823587 2.9232 0
M  V30 7923 H 729.21 0.46801 1.4188 0
M  V30 7924 H 731.092 -1.39091 3.97783 0
M  V30 7925 H 729.767 -1.61788 2.80368 0
M  V30 7926 H 728.674 0.516931 3.70511 0
M  V30 7927 H 730.007 0.660617 4.87747 0
M  V30 7928 N 731.66 -1.50943 0.453197 0
M  V30 7929 C 732.57 -2.31884 -0.355963 0
M  V30 7930 C 733.586 -1.41481 -1.01287 0
M  V30 7931 O 734.762 -1.74546 -1.00477 0
M  V30 7932 C 731.827 -3.15668 -1.43369 0
M  V30 7933 C 730.888 -4.2187 -0.795253 0
M  V30 7934 C 730.121 -5.0165 -1.82162 0
M  V30 7935 O 730.344 -4.82266 -3.04592 0
M  V30 7936 O 729.278 -5.85311 -1.40336 0
M  V30 7937 H 733.104 -3.02162 0.305248 0
M  V30 7938 H 730.689 -1.47839 0.215398 0
M  V30 7939 H 732.571 -3.67709 -2.05836 0
M  V30 7940 H 731.246 -2.48137 -2.07869 0
M  V30 7941 H 730.153 -3.73867 -0.132106 0
M  V30 7942 H 731.486 -4.9182 -0.193484 0
M  V30 7943 N 733.138 -0.185124 -1.56509 0
M  V30 7944 C 734.068 0.735098 -2.21627 0
M  V30 7945 C 735.049 1.2288 -1.1762 0
M  V30 7946 O 736.234 1.27945 -1.46095 0
M  V30 7947 C 733.364 1.95889 -2.86783 0
M  V30 7948 C 732.318 1.6005 -3.96948 0
M  V30 7949 C 731.644 2.90009 -4.4922 0
M  V30 7950 C 732.944 0.818008 -5.15855 0
M  V30 7951 H 734.638 0.192274 -2.98782 0
M  V30 7952 H 732.184 0.0910393 -1.43712 0
M  V30 7953 H 734.137 2.60779 -3.31017 0
M  V30 7954 H 732.861 2.52608 -2.07018 0
M  V30 7955 H 731.52 0.975237 -3.5339 0
M  V30 7956 H 731.168 3.44797 -3.6623 0
M  V30 7957 H 730.868 2.66778 -5.23549 0
M  V30 7958 H 732.392 3.55904 -4.9615 0
M  V30 7959 H 733.806 1.36979 -5.56695 0
M  V30 7960 H 732.203 0.684207 -5.96187 0
M  V30 7961 H 733.273 -0.182939 -4.84555 0
M  V30 7962 N 734.616 1.57351 0.0885366 0
M  V30 7963 C 735.856 1.88248 0.796362 0
M  V30 7964 C 736.22 0.776915 1.75579 0
M  V30 7965 O 737.421 0.968485 2.50747 0
M  V30 7966 C 735.692 3.24385 1.50031 0
M  V30 7967 S 737.251 3.76991 2.24551 0
M  V30 7968 H 734.069 0.659697 0.265181 0
M  V30 7969 H 736.671 1.95428 0.0531843 0
M  V30 7970 H 735.375 4.02764 0.788 0
M  V30 7971 H 734.906 3.20361 2.28325 0
M  V30 7972 H 736.921 3.50933 3.508 0
M  V30 7973 N 736.094 -0.359525 1.53444 0
M  V30 7974 C 737.334 -1.11014 1.71625 0
M  V30 7975 C 737.698 -1.86376 0.46132 0
M  V30 7976 O 738.899 -2.63724 0.519908 0
M  V30 7977 C 737.17 -2.03907 2.93524 0
M  V30 7978 S 738.729 -2.86408 3.3244 0
M  V30 7979 H 735.547 -0.375352 0.603847 0
M  V30 7980 H 738.149 -0.390604 1.91558 0
M  V30 7981 H 736.853 -1.47316 3.83048 0
M  V30 7982 H 736.384 -2.80324 2.76011 0
M  V30 7983 H 738.399 -4.06241 2.84926 0
M  V30 7984 N 737.572 -1.44907 -0.619662 0
M  V30 7985 C 738.988 -1.29046 -0.939107 0
M  V30 7986 C 739.188 -0.23462 -2.00129 0
M  V30 7987 O 738.244 0.37558 -2.49691 0
M  V30 7988 C 739.557 -2.66567 -1.39149 0
M  V30 7989 C 741.105 -2.74368 -1.50635 0
M  V30 7990 C 741.58 -4.12386 -1.99253 0
M  V30 7991 N 743.071 -4.1462 -2.06506 0
M  V30 7992 C 743.806 -5.18272 -2.4532 0
M  V30 7993 N 743.302 -6.32278 -2.83189 0
M  V30 7994 N 745.095 -5.05628 -2.45554 0
M  V30 7995 H 737.246 -2.12239 0.0826135 0
M  V30 7996 H 739.509 -0.947652 -0.0256829 0
M  V30 7997 H 739.215 -3.4496 -0.685254 0
M  V30 7998 H 739.089 -2.94224 -2.36034 0
M  V30 7999 H 741.476 -1.96287 -2.20353 0
M  V30 8000 H 741.557 -2.50439 -0.520963 0
M  V30 8001 H 741.201 -4.90947 -1.30127 0
M  V30 8002 H 741.131 -4.33699 -2.98684 0
M  V30 8003 H 743.622 -3.32343 -1.79878 0
M  V30 8004 H 743.935 -7.07172 -3.11652 0
M  V30 8005 H 742.28 -6.35699 -2.80913 0
M  V30 8006 H 745.471 -4.15613 -2.15367 0
M  V30 8007 H 745.644 -5.86529 -2.75478 0
M  V30 8008 N 739.05 0.861098 -1.31996 0
M  V30 8009 C 739.997 1.96912 -1.20392 0
M  V30 8010 C 740.967 1.65869 -0.0875899 0
M  V30 8011 O 742.152 1.88992 -0.262011 0
M  V30 8012 C 739.292 3.32435 -0.926335 0
M  V30 8013 C 738.405 3.76018 -2.12684 0
M  V30 8014 C 737.54 5.00301 -1.78529 0
M  V30 8015 C 736.579 5.36357 -2.94937 0
M  V30 8016 N 735.716 6.51818 -2.60917 0
M  V30 8017 H 740.556 2.06169 -2.1517 0
M  V30 8018 H 738.093 1.00917 -1.07024 0
M  V30 8019 H 740.051 4.10478 -0.745917 0
M  V30 8020 H 738.681 3.22796 -0.0153578 0
M  V30 8021 H 737.733 2.93683 -2.41774 0
M  V30 8022 H 739.045 3.98664 -2.99781 0
M  V30 8023 H 738.199 5.86034 -1.57001 0
M  V30 8024 H 736.938 4.79578 -0.886356 0
M  V30 8025 H 735.943 4.49139 -3.17103 0
M  V30 8026 H 737.168 5.59041 -3.85552 0
M  V30 8027 H 735.114 6.32624 -1.73558 0
M  V30 8028 H 735.031 6.7445 -3.41544 0
M  V30 8029 H 736.299 7.4072 -2.42804 0
M  V30 8030 N 740.528 1.15101 1.07655 0
M  V30 8031 C 741.475 0.844958 2.14777 0
M  V30 8032 C 742.445 -0.200798 1.64882 0
M  V30 8033 O 743.63 -0.0690278 1.90675 0
M  V30 8034 C 740.77 0.337018 3.4345 0
M  V30 8035 C 739.883 1.44398 4.07153 0
M  V30 8036 C 739.018 0.892487 5.23649 0
M  V30 8037 C 738.057 1.9766 5.79307 0
M  V30 8038 N 737.194 1.44171 6.87138 0
M  V30 8039 H 742.034 1.76242 2.40297 0
M  V30 8040 H 739.571 0.879435 1.17917 0
M  V30 8041 H 741.529 0.024256 4.17193 0
M  V30 8042 H 740.159 -0.543531 3.18191 0
M  V30 8043 H 739.211 1.87299 3.31094 0
M  V30 8044 H 740.523 2.26262 4.4453 0
M  V30 8045 H 739.677 0.532083 6.04362 0
M  V30 8046 H 738.416 0.0429854 4.87681 0
M  V30 8047 H 737.421 2.34586 4.97242 0
M  V30 8048 H 738.646 2.82982 6.17331 0
M  V30 8049 H 736.592 0.614518 6.53115 0
M  V30 8050 H 736.509 2.19665 7.23383 0
M  V30 8051 H 737.777 1.10945 7.71564 0
M  V30 8052 N 742.006 -1.2595 0.947325 0
M  V30 8053 C 743.417 -1.75389 0.639963 0
M  V30 8054 C 743.768 -1.77081 -0.844788 0
M  V30 8055 O 742.893 -1.3869 -1.66114 0
M  V30 8056 C 743.488 -3.18506 1.15496 0
M  V30 8057 C 742.047 -3.65534 0.897894 0
M  V30 8058 C 741.194 -2.44818 1.30228 0
M  V30 8059 H 744.145 -1.1194 1.12495 0
M  V30 8060 H 744.166 -3.77045 0.511627 0
M  V30 8061 H 743.678 -3.17243 2.23559 0
M  V30 8062 H 741.779 -3.72221 -0.168096 0
M  V30 8063 H 741.892 -4.54039 1.52922 0
M  V30 8064 H 740.256 -2.44291 0.720678 0
M  V30 8065 H 741.039 -2.46251 2.39198 0
M  V30 8066 N 743.484 -0.715051 -1.40445 0
M  V30 8067 C 744.732 -0.253826 -2.005 0
M  V30 8068 C 745.053 1.15681 -1.5698 0
M  V30 8069 O 744.323 1.78414 -0.809027 0
M  V30 8070 H 742.903 -0.0908537 -0.741454 0
M  V30 8071 H 745.565 -0.920561 -1.7179 0
M  V30 8072 H 744.661 -0.286499 -3.10782 0
M  V30 8073 N 744.962 1.50701 -0.461195 0
M  V30 8074 C 745.925 2.2686 0.326679 0
M  V30 8075 C 746.925 1.31243 0.929085 0
M  V30 8076 O 748.115 1.54754 0.799807 0
M  V30 8077 C 745.247 3.07844 1.46441 0
M  V30 8078 H 746.44 2.97954 -0.341095 0
M  V30 8079 H 743.993 1.54814 -0.214984 0
M  V30 8080 H 744.728 2.41223 2.16753 0
M  V30 8081 H 744.513 3.78101 1.03836 0
M  V30 8082 H 746.003 3.65469 2.02044 0
M  V30 8083 N 746.441 0.193421 1.56409 0
M  V30 8084 C 747.681 -0.447977 1.9943 0
M  V30 8085 C 748.045 -1.58915 1.07751 0
M  V30 8086 O 749.246 -2.29462 1.40002 0
M  V30 8087 C 747.517 -0.89793 3.45936 0
M  V30 8088 S 749.076 -1.5374 4.10986 0
M  V30 8089 H 745.894 -0.143316 0.696406 0
M  V30 8090 H 748.496 0.296093 1.93245 0
M  V30 8091 H 747.2 -0.0572927 4.1036 0
M  V30 8092 H 746.731 -1.67551 3.55936 0
M  V30 8093 H 748.746 -2.82612 4.07854 0
M  V30 8094 N 747.919 -1.57396 -0.0801906 0
M  V30 8095 C 749.168 -1.8602 -0.779702 0
M  V30 8096 C 749.481 -0.784864 -1.79163 0
M  V30 8097 O 750.687 -0.958691 -2.54011 0
M  V30 8098 C 749.143 -3.29942 -1.43758 0
M  V30 8099 C 748.751 -4.45584 -0.464654 0
M  V30 8100 C 750.495 -3.67775 -2.11995 0
M  V30 8101 C 748.402 -5.80544 -1.12797 0
M  V30 8102 H 747.332 -0.69392 -0.294943 0
M  V30 8103 H 749.983 -1.83471 -0.0328527 0
M  V30 8104 H 748.365 -3.27078 -2.2324 0
M  V30 8105 H 749.539 -4.59824 0.299749 0
M  V30 8106 H 747.854 -4.16247 0.112813 0
M  V30 8107 H 750.451 -4.65896 -2.62383 0
M  V30 8108 H 750.794 -2.9715 -2.91561 0
M  V30 8109 H 751.327 -3.72593 -1.39354 0
M  V30 8110 H 748.066 -6.54439 -0.372807 0
M  V30 8111 H 747.586 -5.70119 -1.86344 0
M  V30 8112 H 749.265 -6.25602 -1.6502 0
M  V30 8113 N 749.397 0.351382 -1.53633 0
M  V30 8114 C 750.625 1.11275 -1.74429 0
M  V30 8115 C 751.04 1.82602 -0.479798 0
M  V30 8116 O 750.397 1.74074 0.548125 0
M  V30 8117 C 750.448 2.13223 -2.91921 0
M  V30 8118 O 750.169 1.44798 -4.13479 0
M  V30 8119 C 751.67 3.01797 -3.24706 0
M  V30 8120 H 748.89 0.332153 -0.583023 0
M  V30 8121 H 751.434 0.405974 -2.0043 0
M  V30 8122 H 749.589 2.79477 -2.68274 0
M  V30 8123 H 750.003 2.12839 -4.79374 0
M  V30 8124 H 751.477 3.69282 -4.10286 0
M  V30 8125 H 751.954 3.67387 -2.40673 0
M  V30 8126 H 752.56 2.41141 -3.5033 0
M  V30 8127 N 750.875 1.45233 0.611969 0
M  V30 8128 C 752.103 1.52539 1.39784 0
M  V30 8129 C 752.518 0.156533 1.8815 0
M  V30 8130 O 751.875 -0.84112 1.61961 0
M  V30 8131 C 751.926 2.50614 2.60528 0
M  V30 8132 O 751.647 3.8218 2.14173 0
M  V30 8133 C 753.148 2.67574 3.53439 0
M  V30 8134 H 750.368 0.51674 0.428043 0
M  V30 8135 H 752.912 1.90379 0.746727 0
M  V30 8136 H 751.067 2.15858 3.2169 0
M  V30 8137 H 751.481 4.35305 2.92592 0
M  V30 8138 H 752.955 3.40184 4.34717 0
M  V30 8139 H 753.432 1.73458 4.03496 0
M  V30 8140 H 754.038 3.0331 2.98133 0
M  V30 8141 N 752.353 -0.854086 1.3245 0
M  V30 8142 C 753.578 -1.64597 1.26185 0
M  V30 8143 C 754.003 -1.87357 -0.167074 0
M  V30 8144 O 753.361 -1.42675 -1.11864 0
M  V30 8145 C 753.409 -2.98213 2.02734 0
M  V30 8146 O 752.513 -3.88784 1.37554 0
M  V30 8147 H 751.854 -0.50179 0.434859 0
M  V30 8148 H 754.384 -1.06372 1.74775 0
M  V30 8149 H 754.394 -3.4803 2.1293 0
M  V30 8150 H 753.069 -2.80969 3.06642 0
M  V30 8151 H 751.646 -3.4725 1.3591 0
M  V30 8152 N 753.831 -1.1567 -1.07043 0
M  V30 8153 C 754.741 -0.870435 -2.17855 0
M  V30 8154 C 755.757 0.154452 -1.73313 0
M  V30 8155 O 756.933 -0.0203759 -2.0139 0
M  V30 8156 C 753.998 -0.367219 -3.4475 0
M  V30 8157 C 753.059 -1.45639 -4.03841 0
M  V30 8158 C 752.292 -0.977092 -5.2468 0
M  V30 8159 O 752.515 0.176127 -5.70128 0
M  V30 8160 O 751.449 -1.76215 -5.75527 0
M  V30 8161 H 755.275 -1.79687 -2.44839 0
M  V30 8162 H 752.86 -0.936064 -1.1644 0
M  V30 8163 H 754.742 -0.0931947 -4.21297 0
M  V30 8164 H 753.417 0.53131 -3.1931 0
M  V30 8165 H 752.324 -1.78406 -3.28819 0
M  V30 8166 H 753.657 -2.32995 -4.3356 0
M  V30 8167 N 755.309 1.25446 -0.953992 0
M  V30 8168 C 756.239 2.28264 -0.491717 0
M  V30 8169 C 757.22 1.63717 0.461617 0
M  V30 8170 O 758.405 1.90821 0.36071 0
M  V30 8171 C 755.535 3.46525 0.231915 0
M  V30 8172 C 754.489 4.23247 -0.636098 0
M  V30 8173 C 753.815 5.34254 0.218238 0
M  V30 8174 C 755.115 4.85971 -1.91389 0
M  V30 8175 H 756.809 2.67183 -1.35106 0
M  V30 8176 H 754.355 1.2844 -0.651095 0
M  V30 8177 H 756.308 4.17576 0.566439 0
M  V30 8178 H 755.032 3.06594 1.12551 0
M  V30 8179 H 753.691 3.53978 -0.953696 0
M  V30 8180 H 753.339 4.90564 1.11156 0
M  V30 8181 H 753.039 5.86501 -0.359232 0
M  V30 8182 H 754.563 6.08138 0.547743 0
M  V30 8183 H 755.977 5.49168 -1.64581 0
M  V30 8184 H 754.374 5.48391 -2.43696 0
M  V30 8185 H 755.444 4.08192 -2.61738 0
M  V30 8186 N 756.787 0.722489 1.40064 0
M  V30 8187 C 758.034 0.264979 2.00759 0
M  V30 8188 C 758.362 -1.14395 1.57302 0
M  V30 8189 O 757.617 -1.79165 0.787298 0
M  V30 8190 C 757.916 0.300682 3.56133 0
M  V30 8191 C 757.582 1.66087 4.19197 0
M  V30 8192 C 756.244 2.03319 4.36136 0
M  V30 8193 C 758.596 2.55452 4.54306 0
M  V30 8194 C 755.924 3.29448 4.8547 0
M  V30 8195 C 758.276 3.8094 5.05042 0
M  V30 8196 C 756.94 4.1828 5.2019 0
M  V30 8197 H 756.21 0.0969625 0.734629 0
M  V30 8198 H 758.857 0.926877 1.67575 0
M  V30 8199 H 757.162 -0.44479 3.89267 0
M  V30 8200 H 758.859 -0.0712542 4.00937 0
M  V30 8201 H 755.449 1.36137 4.06405 0
M  V30 8202 H 759.633 2.27961 4.40849 0
M  V30 8203 H 754.889 3.58338 4.95382 0
M  V30 8204 H 759.063 4.50351 5.31184 0
M  V30 8205 H 756.69 5.16081 5.58179 0
M  V30 8206 N 758.265 -1.50454 0.469181 0
M  V30 8207 C 759.681 -1.59124 0.123226 0
M  V30 8208 C 759.881 -1.47749 -1.37013 0
M  V30 8209 O 758.937 -1.335 -2.14322 0
M  V30 8210 C 760.25 -2.93101 0.67172 0
M  V30 8211 C 761.798 -3.06491 0.634978 0
M  V30 8212 C 762.273 -4.43041 1.16098 0
M  V30 8213 N 763.764 -4.49448 1.12031 0
M  V30 8214 C 764.499 -5.53491 1.49784 0
M  V30 8215 N 763.995 -6.64798 1.94976 0
M  V30 8216 N 765.788 -5.44025 1.41399 0
M  V30 8217 H 757.939 -1.56091 1.44046 0
M  V30 8218 H 760.202 -0.737564 0.59557 0
M  V30 8219 H 759.908 -3.06895 1.7178 0
M  V30 8220 H 759.782 -3.77027 0.114222 0
M  V30 8221 H 762.169 -2.92346 -0.402187 0
M  V30 8222 H 762.25 -2.24328 1.22926 0
M  V30 8223 H 761.894 -4.57935 2.19677 0
M  V30 8224 H 761.824 -5.23794 0.542939 0
M  V30 8225 H 764.315 -3.69575 0.788828 0
M  V30 8226 H 764.628 -7.40246 2.21936 0
M  V30 8227 H 762.973 -6.65923 1.98927 0
M  V30 8228 H 766.164 -4.55955 1.05935 0
M  V30 8229 H 766.337 -6.2499 1.71147 0
M  V30 8230 N 759.743 -0.201713 -1.56304 0
M  V30 8231 C 760.69 0.716499 -2.19397 0
M  V30 8232 C 761.66 1.20494 -1.14326 0
M  V30 8233 O 762.845 1.26763 -1.42604 0
M  V30 8234 C 759.985 1.92762 -2.86246 0
M  V30 8235 C 759.098 1.47993 -4.0586 0
M  V30 8236 C 758.233 2.64706 -4.60547 0
M  V30 8237 C 757.272 2.16576 -5.72504 0
M  V30 8238 N 756.409 3.26491 -6.21569 0
M  V30 8239 H 761.249 0.171724 -2.97505 0
M  V30 8240 H 758.786 0.073016 -1.46919 0
M  V30 8241 H 760.744 2.6384 -3.23178 0
M  V30 8242 H 759.374 2.44559 -2.10691 0
M  V30 8243 H 758.426 0.66477 -3.74546 0
M  V30 8244 H 759.738 1.08686 -4.86815 0
M  V30 8245 H 758.892 3.43898 -4.99819 0
M  V30 8246 H 757.631 3.0729 -3.78713 0
M  V30 8247 H 756.636 1.3584 -5.32755 0
M  V30 8248 H 757.861 1.75015 -6.56161 0
M  V30 8249 H 755.807 3.68594 -5.42655 0
M  V30 8250 H 755.724 2.91374 -6.97594 0
M  V30 8251 H 756.992 4.05877 -6.65495 0
M  V30 8252 N 761.222 1.57436 0.0718424 0
M  V30 8253 C 762.152 2.06724 1.08571 0
M  V30 8254 C 763.133 0.960731 1.40371 0
M  V30 8255 O 764.318 1.23345 1.49999 0
M  V30 8256 C 761.448 2.51112 2.39916 0
M  V30 8257 C 760.402 3.65639 2.22469 0
M  V30 8258 C 759.728 3.96082 3.59198 0
M  V30 8259 C 761.028 4.95687 1.64596 0
M  V30 8260 H 762.722 2.91679 0.675569 0
M  V30 8261 H 760.268 1.40319 0.32352 0
M  V30 8262 H 762.221 2.84206 3.11135 0
M  V30 8263 H 760.945 1.63186 2.8291 0
M  V30 8264 H 759.604 3.32828 1.53691 0
M  V30 8265 H 759.252 3.05287 3.99761 0
M  V30 8266 H 758.952 4.73199 3.48362 0
M  V30 8267 H 760.476 4.31672 4.31847 0
M  V30 8268 H 761.89 5.27011 2.25681 0
M  V30 8269 H 760.287 5.77126 1.64457 0
M  V30 8270 H 761.357 4.8108 0.60744 0
M  V30 8271 N 762.7 -0.34323 1.53817 0
M  V30 8272 C 763.946 -1.08504 1.71332 0
M  V30 8273 C 764.279 -1.88294 0.475285 0
M  V30 8274 O 763.554 -1.87205 -0.527688 0
M  V30 8275 C 763.837 -2.02597 2.97702 0
M  V30 8276 C 763.69 -1.26268 4.31713 0
M  V30 8277 C 765.009 -3.0241 3.19744 0
M  V30 8278 H 762.128 -0.393072 0.623429 0
M  V30 8279 H 764.77 -0.363579 1.86489 0
M  V30 8280 H 762.92 -2.64118 2.8491 0
M  V30 8281 H 764.592 -0.673594 4.56356 0
M  V30 8282 H 762.835 -0.564696 4.30109 0
M  V30 8283 H 763.506 -1.95253 5.16314 0
M  V30 8284 H 765.982 -2.51004 3.31868 0
M  V30 8285 H 764.858 -3.65449 4.09558 0
M  V30 8286 H 765.119 -3.73806 2.36054 0
M  V30 8287 N 764.178 -1.45556 -0.604258 0
M  V30 8288 C 765.108 -1.57327 -1.72541 0
M  V30 8289 C 766.089 -0.424637 -1.64714 0
M  V30 8290 O 767.274 -0.648196 -1.83063 0
M  V30 8291 C 764.404 -1.54279 -3.11152 0
M  V30 8292 C 763.358 -2.67893 -3.33792 0
M  V30 8293 C 762.684 -2.499 -4.72709 0
M  V30 8294 C 763.984 -4.0988 -3.23722 0
M  V30 8295 H 765.678 -2.51175 -1.62947 0
M  V30 8296 H 763.224 -1.20884 -0.782504 0
M  V30 8297 H 765.177 -1.6111 -3.89386 0
M  V30 8298 H 763.901 -0.569627 -3.21594 0
M  V30 8299 H 762.56 -2.60495 -2.57949 0
M  V30 8300 H 762.208 -1.50715 -4.79889 0
M  V30 8301 H 761.908 -3.26091 -4.88813 0
M  V30 8302 H 763.432 -2.5859 -5.5314 0
M  V30 8303 H 764.846 -4.18503 -3.91826 0
M  V30 8304 H 763.243 -4.86487 -3.51355 0
M  V30 8305 H 764.313 -4.31553 -2.21111 0
M  V30 8306 N 765.656 0.84705 -1.32902 0
M  V30 8307 C 766.881 1.63925 -1.27056 0
M  V30 8308 C 767.306 1.87443 0.157136 0
M  V30 8309 O 766.664 1.43266 1.11106 0
M  V30 8310 C 766.712 2.97134 -2.04313 0
M  V30 8311 O 765.816 3.88049 -1.39614 0
M  V30 8312 H 765.157 0.499477 -0.437514 0
M  V30 8313 H 767.687 1.05443 -1.75336 0
M  V30 8314 H 767.697 3.46896 -2.14772 0
M  V30 8315 H 766.372 2.79339 -3.08128 0
M  V30 8316 H 764.949 3.46525 -1.3775 0
M  V30 8317 N 767.134 1.16236 1.06428 0
M  V30 8318 C 768.55 0.906983 1.31324 0
M  V30 8319 C 768.75 -0.440872 1.96618 0
M  V30 8320 O 767.806 -1.1807 2.23194 0
M  V30 8321 C 769.119 2.05501 2.19522 0
M  V30 8322 C 770.667 2.09061 2.32943 0
M  V30 8323 C 771.142 3.23214 3.24495 0
M  V30 8324 N 772.633 3.22922 3.32078 0
M  V30 8325 C 773.368 4.07889 4.03006 0
M  V30 8326 N 772.864 5.02941 4.76469 0
M  V30 8327 N 774.657 3.95881 3.99043 0
M  V30 8328 H 766.808 2.03015 0.624388 0
M  V30 8329 H 769.071 0.88576 0.337835 0
M  V30 8330 H 768.777 3.02847 1.78819 0
M  V30 8331 H 768.651 1.99538 3.201 0
M  V30 8332 H 771.038 1.12308 2.72893 0
M  V30 8333 H 771.119 2.19089 1.32037 0
M  V30 8334 H 770.763 4.20225 2.85261 0
M  V30 8335 H 770.693 3.10423 4.25377 0
M  V30 8336 H 773.184 2.54093 2.79724 0
M  V30 8337 H 773.497 5.64196 5.28112 0
M  V30 8338 H 771.842 5.06922 4.75453 0
M  V30 8339 H 775.033 3.20927 3.40769 0
M  V30 8340 H 775.206 4.62321 4.54052 0
M  V30 8341 N 768.612 -1.24939 0.960631 0
M  V30 8342 C 769.562 -2.23388 0.456266 0
M  V30 8343 C 770.546 -1.54249 -0.45782 0
M  V30 8344 O 771.738 -1.7461 -0.289894 0
M  V30 8345 C 768.867 -3.42321 -0.259024 0
M  V30 8346 C 767.953 -4.18718 0.673478 0
M  V30 8347 N 768.344 -4.72394 1.8077 0
M  V30 8348 C 766.642 -4.43378 0.482859 0
M  V30 8349 C 767.343 -5.30316 2.3904 0
M  V30 8350 N 766.319 -5.17109 1.67629 0
M  V30 8351 H 770.121 -2.62499 1.32179 0
M  V30 8352 H 767.635 -1.40245 0.818851 0
M  V30 8353 H 769.632 -4.11997 -0.637527 0
M  V30 8354 H 768.292 -3.04732 -1.12108 0
M  V30 8355 H 769.303 -4.69345 2.18942 0
M  V30 8356 H 765.98 -4.16147 -0.335821 0
M  V30 8357 H 767.37 -5.82594 3.34715 0
M  V30 8358 N 770.09 -0.729906 -1.39679 0
M  V30 8359 C 771.336 -0.27603 -2.00913 0
M  V30 8360 C 771.669 1.13227 -1.57776 0
M  V30 8361 O 770.944 1.7709 -0.804319 0
M  V30 8362 C 771.227 -0.372157 -3.58172 0
M  V30 8363 C 771.08 -1.81986 -4.11341 0
M  V30 8364 C 772.399 0.248378 -4.39399 0
M  V30 8365 H 769.518 -0.101773 -0.729939 0
M  V30 8366 H 772.16 -0.925104 -1.65957 0
M  V30 8367 H 770.31 0.180459 -3.88081 0
M  V30 8368 H 771.982 -2.42896 -3.92172 0
M  V30 8369 H 770.225 -2.34287 -3.65092 0
M  V30 8370 H 770.896 -1.83842 -5.20486 0
M  V30 8371 H 773.372 -0.222645 -4.15504 0
M  V30 8372 H 772.248 0.150746 -5.48693 0
M  V30 8373 H 772.509 1.33378 -4.21501 0
M  V30 8374 N 771.568 1.50203 -0.477153 0
M  V30 8375 C 772.498 2.31517 0.303646 0
M  V30 8376 C 773.479 1.38696 0.984753 0
M  V30 8377 O 774.664 1.67615 0.980758 0
M  V30 8378 C 771.794 3.18598 1.38249 0
M  V30 8379 C 770.748 4.2002 0.822645 0
M  V30 8380 C 770.074 4.95878 2.00024 0
M  V30 8381 C 771.374 5.22023 -0.170185 0
M  V30 8382 H 773.068 2.97042 -0.375027 0
M  V30 8383 H 770.614 1.42848 -0.181802 0
M  V30 8384 H 772.567 3.74282 1.93625 0
M  V30 8385 H 771.291 2.5097 2.09002 0
M  V30 8386 H 769.95 3.65445 0.290813 0
M  V30 8387 H 769.598 4.24717 2.69489 0
M  V30 8388 H 769.298 5.64487 1.63183 0
M  V30 8389 H 770.822 5.54399 2.55878 0
M  V30 8390 H 772.236 5.72543 0.294606 0
M  V30 8391 H 770.633 5.98386 -0.453181 0
M  V30 8392 H 771.703 4.72396 -1.09408 0
M  V30 8393 N 773.046 0.209999 1.56195 0
M  V30 8394 C 773.978 -0.736967 2.17029 0
M  V30 8395 C 774.991 -1.16599 1.13616 0
M  V30 8396 O 776.18 -1.09914 1.40646 0
M  V30 8397 C 773.28 -2.00852 2.72969 0
M  V30 8398 C 772.453 -1.73691 4.01435 0
M  V30 8399 C 771.512 -2.85439 4.42053 0
M  V30 8400 O 770.538 -2.54405 5.09183 0
M  V30 8401 N 771.74 -4.14135 4.06783 0
M  V30 8402 H 774.505 -0.216656 2.98916 0
M  V30 8403 H 772.066 0.0285672 1.61875 0
M  V30 8404 H 774.058 -2.74778 2.97118 0
M  V30 8405 H 772.628 -2.43963 1.95451 0
M  V30 8406 H 771.848 -0.834676 3.85262 0
M  V30 8407 H 773.136 -1.52961 4.85263 0
M  V30 8408 H 772.534 -4.42196 3.52816 0
M  V30 8409 H 771.091 -4.84642 4.35851 0
M  V30 8410 N 774.524 -1.57472 -0.0634922 0
M  V30 8411 C 775.771 -1.87654 -0.761066 0
M  V30 8412 C 776.099 -0.802847 -1.77157 0
M  V30 8413 O 775.354 0.200244 -1.94673 0
M  V30 8414 C 775.653 -3.24521 -1.49736 0
M  V30 8415 C 775.319 -4.46532 -0.626065 0
M  V30 8416 C 773.981 -4.7965 -0.385978 0
M  V30 8417 C 776.333 -5.21195 -0.0224001 0
M  V30 8418 C 773.661 -5.84837 0.467118 0
M  V30 8419 C 776.013 -6.27286 0.818198 0
M  V30 8420 C 774.677 -6.58899 1.06808 0
M  V30 8421 H 773.947 -0.686675 -0.278494 0
M  V30 8422 H 776.594 -1.91488 -0.0216348 0
M  V30 8423 H 774.899 -3.16516 -2.30921 0
M  V30 8424 H 776.596 -3.45111 -2.04204 0
M  V30 8425 H 773.186 -4.20618 -0.823325 0
M  V30 8426 H 777.37 -4.95917 -0.194985 0
M  V30 8427 H 772.626 -6.07725 0.669375 0
M  V30 8428 H 776.8 -6.84298 1.29265 0
M  V30 8429 H 774.427 -7.40233 1.73088 0
M  V30 8430 N 776.003 0.335068 -1.53997 0
M  V30 8431 C 776.933 1.41727 -1.85568 0
M  V30 8432 C 777.914 1.54505 -0.7115 0
M  V30 8433 O 779.099 1.68573 -0.964191 0
M  V30 8434 C 776.229 2.7866 -2.07282 0
M  V30 8435 C 775.183 2.80682 -3.23112 0
M  V30 8436 C 774.509 4.20581 -3.30175 0
M  V30 8437 C 775.809 2.45458 -4.61029 0
M  V30 8438 H 777.503 1.15555 -2.76202 0
M  V30 8439 H 775.049 0.554445 -1.32898 0
M  V30 8440 H 777.002 3.54423 -2.27952 0
M  V30 8441 H 775.726 3.06286 -1.13387 0
M  V30 8442 H 774.385 2.07373 -3.02311 0
M  V30 8443 H 774.033 4.4533 -2.33859 0
M  V30 8444 H 773.733 4.22843 -4.08016 0
M  V30 8445 H 775.257 4.98174 -3.53066 0
M  V30 8446 H 776.671 3.10934 -4.81656 0
M  V30 8447 H 775.068 2.5899 -5.41336 0
M  V30 8448 H 776.138 1.40628 -4.6406 0
M  V30 8449 N 777.481 1.45874 0.596531 0
M  V30 8450 C 778.411 1.5824 1.71705 0
M  V30 8451 C 779.392 0.433366 1.64487 0
M  V30 8452 O 780.577 0.657895 1.82717 0
M  V30 8453 C 777.707 1.55927 3.10329 0
M  V30 8454 C 776.661 2.69659 3.32367 0
M  V30 8455 C 775.987 2.52403 4.71377 0
M  V30 8456 C 777.287 4.11591 3.21544 0
M  V30 8457 H 778.981 2.52035 1.61613 0
M  V30 8458 H 776.527 1.21297 0.776082 0
M  V30 8459 H 778.48 1.63173 3.88526 0
M  V30 8460 H 777.204 0.586674 3.21288 0
M  V30 8461 H 775.863 2.61859 2.56564 0
M  V30 8462 H 775.511 1.53258 4.79083 0
M  V30 8463 H 775.211 3.28679 4.87077 0
M  V30 8464 H 776.735 2.6152 5.5176 0
M  V30 8465 H 778.149 4.20576 3.89601 0
M  V30 8466 H 776.546 4.88344 3.4877 0
M  V30 8467 H 777.616 4.32719 2.1882 0
M  V30 8468 N 778.959 -0.83999 1.33349 0
M  V30 8469 C 779.889 -1.965 1.26135 0
M  V30 8470 C 780.87 -1.69505 0.142152 0
M  V30 8471 O 782.055 -1.91346 0.331743 0
M  V30 8472 C 779.185 -3.32632 0.99866 0
M  V30 8473 C 778.139 -3.74021 2.08068 0
M  V30 8474 C 777.465 -5.07947 1.67014 0
M  V30 8475 C 778.765 -3.87925 3.49731 0
M  V30 8476 H 780.459 -2.02793 2.20262 0
M  V30 8477 H 778.005 -0.974297 1.06035 0
M  V30 8478 H 779.958 -4.10903 0.934696 0
M  V30 8479 H 778.682 -3.26593 0.0217759 0
M  V30 8480 H 777.341 -2.98012 2.13505 0
M  V30 8481 H 776.989 -4.98378 0.680316 0
M  V30 8482 H 776.689 -5.36611 2.39422 0
M  V30 8483 H 778.213 -5.88695 1.62082 0
M  V30 8484 H 779.627 -4.5651 3.46802 0
M  V30 8485 H 778.024 -4.28023 4.20614 0
M  V30 8486 H 779.094 -2.90407 3.88319 0
M  V30 8487 N 780.437 -1.16799 -1.0581 0
M  V30 8488 C 781.667 -0.975454 -1.82122 0
M  V30 8489 C 782.075 0.479584 -1.83021 0
M  V30 8490 O 781.418 1.34471 -1.25153 0
M  V30 8491 C 781.48 -1.43209 -3.29744 0
M  V30 8492 C 781.144 -2.908 -3.5254 0
M  V30 8493 C 782.141 -3.88775 -3.45181 0
M  V30 8494 C 779.826 -3.28832 -3.79703 0
M  V30 8495 C 781.82 -5.22782 -3.64661 0
M  V30 8496 C 779.507 -4.63007 -3.98832 0
M  V30 8497 C 780.505 -5.59791 -3.91309 0
M  V30 8498 O 780.193 -6.9154 -4.09911 0
M  V30 8499 H 779.925 -0.345655 -0.580947 0
M  V30 8500 H 782.479 -1.55355 -1.34365 0
M  V30 8501 H 780.709 -0.797504 -3.78387 0
M  V30 8502 H 782.398 -1.2062 -3.87564 0
M  V30 8503 H 783.164 -3.60738 -3.2418 0
M  V30 8504 H 779.043 -2.54073 -3.84666 0
M  V30 8505 H 782.587 -5.98312 -3.58705 0
M  V30 8506 H 778.484 -4.90752 -4.19324 0
M  V30 8507 H 779.252 -6.98188 -4.27172 0
M  V30 8508 N 781.915 1.24427 -0.967243 0
M  V30 8509 C 782.847 2.24641 -0.454856 0
M  V30 8510 C 783.86 1.56849 0.436152 0
M  V30 8511 O 785.049 1.76846 0.242401 0
M  V30 8512 C 782.149 3.36954 0.362672 0
M  V30 8513 C 781.322 4.34318 -0.518324 0
M  V30 8514 C 780.381 5.25638 0.243122 0
M  V30 8515 O 779.407 5.68043 -0.362791 0
M  V30 8516 N 780.609 5.59897 1.53282 0
M  V30 8517 H 783.374 2.69238 -1.31648 0
M  V30 8518 H 780.935 1.38464 -0.839015 0
M  V30 8519 H 782.927 3.95014 0.880094 0
M  V30 8520 H 781.497 2.91646 1.12522 0
M  V30 8521 H 780.717 3.74953 -1.21672 0
M  V30 8522 H 782.005 4.96338 -1.11919 0
M  V30 8523 H 781.403 5.27373 2.04682 0
M  V30 8524 H 779.96 6.20488 1.99594 0
M  V30 8525 N 783.393 0.737304 1.3929 0
M  V30 8526 C 784.303 0.100464 2.34385 0
M  V30 8527 C 785.319 -0.719282 1.58437 0
M  V30 8528 O 786.495 -0.647216 1.90717 0
M  V30 8529 C 783.56 -0.794325 3.37478 0
M  V30 8530 C 782.621 0.0379345 4.29283 0
M  V30 8531 C 781.854 -0.814241 5.27452 0
M  V30 8532 O 782.077 -2.05288 5.32177 0
M  V30 8533 O 781.011 -0.241679 6.01415 0
M  V30 8534 H 784.837 0.885407 2.90507 0
M  V30 8535 H 782.422 0.497999 1.40856 0
M  V30 8536 H 784.304 -1.30622 4.00644 0
M  V30 8537 H 782.979 -1.55804 2.83737 0
M  V30 8538 H 781.886 0.595405 3.69331 0
M  V30 8539 H 783.219 0.763926 4.86236 0
M  V30 8540 N 784.871 -1.49948 0.485112 0
M  V30 8541 C 786.282 -1.8667 0.0334041 0
M  V30 8542 C 786.633 -1.3988 -1.37579 0
M  V30 8543 O 785.758 -0.769788 -2.02245 0
M  V30 8544 C 786.353 -3.38757 0.0538426 0
M  V30 8545 C 784.912 -3.74839 -0.342453 0
M  V30 8546 C 784.059 -2.73894 0.433281 0
M  V30 8547 H 787.01 -1.42492 0.698699 0
M  V30 8548 H 787.031 -3.73132 -0.745146 0
M  V30 8549 H 786.543 -3.72782 1.07959 0
M  V30 8550 H 784.644 -3.46419 -1.37203 0
M  V30 8551 H 784.757 -4.79088 -0.0340503 0
M  V30 8552 H 783.121 -2.54441 -0.114849 0
M  V30 8553 H 783.904 -3.10763 1.45881 0
M  V30 8554 N 786.349 -0.21828 -1.56081 0
M  V30 8555 C 787.279 0.687922 -2.23136 0
M  V30 8556 C 788.26 1.20357 -1.202 0
M  V30 8557 O 789.445 1.24817 -1.48776 0
M  V30 8558 C 786.575 1.89762 -2.90874 0
M  V30 8559 C 785.529 1.51595 -4.00254 0
M  V30 8560 C 784.855 2.80415 -4.55271 0
M  V30 8561 C 786.155 0.708404 -5.17474 0
M  V30 8562 H 787.849 0.128854 -2.99123 0
M  V30 8563 H 785.395 0.0605354 -1.43873 0
M  V30 8564 H 787.348 2.53699 -3.36474 0
M  V30 8565 H 786.072 2.4816 -2.1233 0
M  V30 8566 H 784.731 0.900058 -3.55379 0
M  V30 8567 H 784.379 3.36951 -3.73461 0
M  V30 8568 H 784.079 2.55613 -5.2909 0
M  V30 8569 H 785.603 3.453 -5.03587 0
M  V30 8570 H 787.017 1.2514 -5.59476 0
M  V30 8571 H 785.414 0.557593 -5.97504 0
M  V30 8572 H 786.484 -0.285679 -4.84058 0
M  V30 8573 N 787.827 1.57504 0.0551401 0
M  V30 8574 C 788.757 2.07864 1.06372 0
M  V30 8575 C 789.738 0.975565 1.39344 0
M  V30 8576 O 790.923 1.24929 1.48682 0
M  V30 8577 C 788.053 2.53643 2.3724 0
M  V30 8578 C 787.007 3.67978 2.18578 0
M  V30 8579 C 786.333 3.9987 3.54976 0
M  V30 8580 C 787.633 4.97405 1.59329 0
M  V30 8581 H 789.327 2.92379 0.644595 0
M  V30 8582 H 786.873 1.40654 0.308619 0
M  V30 8583 H 788.826 2.8749 3.08103 0
M  V30 8584 H 787.55 1.66177 2.81163 0
M  V30 8585 H 786.209 3.3444 1.50152 0
M  V30 8586 H 785.857 3.0951 3.965 0
M  V30 8587 H 785.557 4.76867 3.43324 0
M  V30 8588 H 787.081 4.36228 4.27244 0
M  V30 8589 H 788.495 5.29375 2.20078 0
M  V30 8590 H 786.892 5.78837 1.58327 0
M  V30 8591 H 787.962 4.81697 0.55638 0
M  V30 8592 N 789.305 -0.326896 1.54172 0
M  V30 8593 C 790.268 -1.38515 1.8261 0
M  V30 8594 C 791.268 -1.44872 0.697771 0
M  V30 8595 O 792.458 -1.44957 0.966078 0
M  V30 8596 C 789.59 -2.77281 1.98313 0
M  V30 8597 H 790.783 -1.14556 2.77159 0
M  V30 8598 H 788.336 -0.562199 1.45839 0
M  V30 8599 H 789.071 -3.065 1.05964 0
M  V30 8600 H 788.856 -2.74061 2.80416 0
M  V30 8601 H 790.346 -3.53845 2.21773 0
M  V30 8602 N 790.784 -1.46188 -0.588786 0
M  V30 8603 C 791.714 -1.59148 -1.70863 0
M  V30 8604 C 792.695 -0.442083 -1.64255 0
M  V30 8605 O 793.88 -0.667575 -1.82365 0
M  V30 8606 C 791.01 -1.5757 -3.09498 0
M  V30 8607 C 789.964 -2.71418 -3.30932 0
M  V30 8608 C 789.29 -2.549 -4.70032 0
M  V30 8609 C 790.59 -4.1329 -3.19356 0
M  V30 8610 H 792.284 -2.52889 -1.60274 0
M  V30 8611 H 789.83 -1.21707 -0.769638 0
M  V30 8612 H 791.783 -1.65231 -3.87655 0
M  V30 8613 H 790.507 -0.603705 -3.20972 0
M  V30 8614 H 789.166 -2.63216 -2.55172 0
M  V30 8615 H 788.814 -1.55797 -4.78264 0
M  V30 8616 H 788.514 -3.31257 -4.85327 0
M  V30 8617 H 790.038 -2.64443 -5.50366 0
M  V30 8618 H 791.452 -4.22636 -3.87365 0
M  V30 8619 H 789.849 -4.90187 -3.46175 0
M  V30 8620 H 790.919 -4.33874 -2.16522 0
M  V30 8621 N 792.262 0.832906 -1.33792 0
M  V30 8622 C 793.539 1.57359 -1.16178 0
M  V30 8623 C 793.919 2.09372 0.269532 0
M  V30 8624 O 793.267 1.89993 1.26944 0
M  V30 8625 C 793.477 2.70279 -2.20795 0
M  V30 8626 C 794.825 3.39305 -2.55259 0
M  V30 8627 O 795.849 2.80526 -2.19508 0
M  V30 8628 O 794.708 4.45428 -3.16632 0
M  V30 8629 H 791.802 0.694025 -0.449731 0
M  V30 8630 H 794.348 0.875144 -1.45394 0
M  V30 8631 H 793.12 2.29527 -3.16911 0
M  V30 8632 H 792.743 3.47782 -1.927 0
M  V30 8633 N 793.74 1.17359 1.05189 0
M  V30 8634 C 794.986 0.963413 1.78455 0
M  V30 8635 C 795.319 -0.506703 1.87473 0
M  V30 8636 O 794.594 -1.37611 1.37453 0
M  V30 8637 C 794.877 1.60519 3.22344 0
M  V30 8638 C 794.73 3.14741 3.21338 0
M  V30 8639 C 796.049 1.3091 4.20179 0
M  V30 8640 H 793.168 0.351412 0.647826 0
M  V30 8641 H 795.81 1.44858 1.22948 0
M  V30 8642 H 793.96 1.19265 3.69741 0
M  V30 8643 H 795.632 3.65053 2.82017 0
M  V30 8644 H 793.875 3.4749 2.59679 0
M  V30 8645 H 794.546 3.54775 4.22894 0
M  V30 8646 H 797.022 1.66635 3.81277 0
M  V30 8647 H 795.898 1.784 5.191 0
M  V30 8648 H 796.159 0.229908 4.41502 0
M  V30 8649 N 795.218 -1.23913 0.973828 0
M  V30 8650 C 796.495 -1.87539 0.555729 0
M  V30 8651 C 796.875 -1.87641 -0.967162 0
M  V30 8652 O 796.223 -1.35335 -1.84111 0
M  V30 8653 C 796.433 -3.29359 1.15427 0
M  V30 8654 C 797.781 -4.06 1.24294 0
M  V30 8655 O 798.805 -3.38554 1.10723 0
M  V30 8656 O 797.664 -5.26689 1.45813 0
M  V30 8657 H 794.758 -0.805769 0.186188 0
M  V30 8658 H 797.304 -1.31838 1.06849 0
M  V30 8659 H 796.076 -3.23817 2.19678 0
M  V30 8660 H 795.699 -3.92642 0.625925 0
M  V30 8661 N 796.696 -0.74468 -1.38897 0
M  V30 8662 C 797.921 -0.306119 -2.05128 0
M  V30 8663 C 798.346 1.0541 -1.55789 0
M  V30 8664 O 797.704 1.66993 -0.705909 0
M  V30 8665 C 797.752 -0.328195 -3.59103 0
M  V30 8666 O 796.856 0.680876 -4.06741 0
M  V30 8667 H 796.197 -0.137209 -0.649669 0
M  V30 8668 H 798.727 -1.01331 -1.77745 0
M  V30 8669 H 798.737 -0.175956 -4.0762 0
M  V30 8670 H 797.412 -1.32067 -3.94374 0
M  V30 8671 H 795.989 0.49398 -3.69614 0
M  V30 8672 N 798.174 1.49689 -0.493057 0
M  V30 8673 C 799.402 2.06836 0.0513141 0
M  V30 8674 C 799.817 1.35436 1.31539 0
M  V30 8675 O 799.174 0.430248 1.77356 0
M  V30 8676 C 799.225 3.60107 0.317003 0
M  V30 8677 O 798.946 4.2882 -0.896957 0
M  V30 8678 C 800.447 4.33945 0.905902 0
M  V30 8679 H 797.667 0.670787 -0.0169048 0
M  V30 8680 H 800.211 1.92574 -0.688139 0
M  V30 8681 H 798.366 3.74099 1.00642 0
M  V30 8682 H 798.78 5.20395 -0.654939 0
M  V30 8683 H 800.254 5.42087 1.04144 0
M  V30 8684 H 800.731 3.95895 1.90168 0
M  V30 8685 H 801.337 4.2454 0.254195 0
M  V30 8686 N 799.652 0.226554 1.55963 0
M  V30 8687 C 800.6 -0.697922 2.21882 0
M  V30 8688 C 801.594 -1.19586 1.19981 0
M  V30 8689 O 802.8 -1.15511 1.38048 0
M  V30 8690 H 799.175 -0.243501 0.711485 0
M  V30 8691 H 801.146 -0.118576 2.98164 0
M  V30 8692 C 799.895 -1.89309 2.91646 0
M  V30 8693 H 799.218 -1.51906 3.69817 0
M  V30 8694 H 800.658 -2.51762 3.41162 0
M  V30 8695 C 799.117 -2.75162 1.94391 0
M  V30 8696 O 799.647 -3.74071 1.46402 0
M  V30 8697 N 797.853 -2.41302 1.61932 0
M  V30 8698 H 797.4 -1.60923 2.01151 0
M  V30 8699 H 797.358 -2.99023 0.971219 0
M  V30 8700 N 801.13 -1.57531 -0.0467866 0
M  V30 8701 C 802.355 -1.93087 -0.757123 0
M  V30 8702 C 802.78 -0.825116 -1.69037 0
M  V30 8703 O 802.138 0.220449 -1.79955 0
M  V30 8704 C 802.186 -3.27669 -1.5055 0
M  V30 8705 O 801.29 -3.18667 -2.61773 0
M  V30 8706 H 800.631 -0.631597 -0.204892 0
M  V30 8707 H 803.161 -2.04599 -0.00755232 0
M  V30 8708 H 803.171 -3.6214 -1.87932 0
M  V30 8709 H 801.846 -4.07717 -0.820931 0
M  V30 8710 H 800.423 -2.95798 -2.27064 0
M  V30 8711 N 802.608 0.318715 -1.54344 0
M  V30 8712 C 804.024 0.663345 -1.45162 0
M  V30 8713 C 804.224 1.9145 -0.62842 0
M  V30 8714 O 803.28 2.5217 -0.129126 0
M  V30 8715 C 804.593 0.832836 -2.88937 0
M  V30 8716 C 806.141 0.929866 -2.98869 0
M  V30 8717 C 806.616 1.13149 -4.43803 0
M  V30 8718 N 808.107 1.19811 -4.47437 0
M  V30 8719 C 808.842 1.37209 -5.56742 0
M  V30 8720 N 808.338 1.51619 -6.76006 0
M  V30 8721 N 810.131 1.39956 -5.44398 0
M  V30 8722 H 802.282 -0.50357 -2.06344 0
M  V30 8723 H 804.545 -0.163528 -0.933789 0
M  V30 8724 H 804.251 -0.0153519 -3.51697 0
M  V30 8725 H 804.125 1.72721 -3.35332 0
M  V30 8726 H 806.512 1.76855 -2.36233 0
M  V30 8727 H 806.593 0.0118561 -2.55797 0
M  V30 8728 H 806.237 0.297636 -5.07027 0
M  V30 8729 H 806.167 2.06345 -4.84489 0
M  V30 8730 H 808.658 1.101 -3.61506 0
M  V30 8731 H 808.971 1.64599 -7.55067 0
M  V30 8732 H 807.316 1.48708 -6.78904 0
M  V30 8733 H 810.507 1.28298 -4.50175 0
M  V30 8734 H 810.68 1.53172 -6.29637 0
M  V30 8735 N 804.086 1.46499 0.581025 0
M  V30 8736 C 805.016 1.60052 1.70017 0
M  V30 8737 C 805.997 0.450788 1.64018 0
M  V30 8738 O 807.182 0.677237 1.82009 0
M  V30 8739 C 804.312 1.5921 3.08658 0
M  V30 8740 C 803.266 2.73169 3.29488 0
M  V30 8741 C 802.592 2.57389 4.68674 0
M  V30 8742 C 803.892 4.14978 3.1716 0
M  V30 8743 H 805.586 2.53735 1.5893 0
M  V30 8744 H 803.132 1.22113 0.763173 0
M  V30 8745 H 805.085 1.67285 3.86773 0
M  V30 8746 H 803.809 0.620718 3.20647 0
M  V30 8747 H 802.468 2.64566 2.53773 0
M  V30 8748 H 802.116 1.58331 4.77431 0
M  V30 8749 H 801.816 3.33826 4.83564 0
M  V30 8750 H 803.34 2.67358 5.48956 0
M  V30 8751 H 804.754 4.24684 3.85119 0
M  V30 8752 H 803.151 4.92016 3.4357 0
M  V30 8753 H 804.221 4.35016 2.14218 0
M  V30 8754 N 805.565 -0.825799 1.34232 0
M  V30 8755 C 806.981 -1.11848 1.13851 0
M  V30 8756 C 807.181 -2.01405 -0.0619031 0
M  V30 8757 O 806.237 -2.41465 -0.738287 0
M  V30 8758 C 807.55 -1.76797 2.43235 0
M  V30 8759 C 809.098 -1.89304 2.49265 0
M  V30 8760 C 809.573 -2.57669 3.78643 0
M  V30 8761 N 811.064 -2.65171 3.79788 0
M  V30 8762 C 811.799 -3.1879 4.76614 0
M  V30 8763 N 811.295 -3.72995 5.83821 0
M  V30 8764 N 813.088 -3.17164 4.64073 0
M  V30 8765 H 805.239 -0.230049 2.11151 0
M  V30 8766 H 807.502 -0.164609 0.9336 0
M  V30 8767 H 807.208 -1.18455 3.31152 0
M  V30 8768 H 807.082 -2.76693 2.56361 0
M  V30 8769 H 809.469 -2.46796 1.6179 0
M  V30 8770 H 809.55 -0.883191 2.4007 0
M  V30 8771 H 809.194 -2.00833 4.66507 0
M  V30 8772 H 809.124 -3.59152 3.8512 0
M  V30 8773 H 811.615 -2.26746 3.02315 0
M  V30 8774 H 811.928 -4.12151 6.53721 0
M  V30 8775 H 810.273 -3.71246 5.87538 0
M  V30 8776 H 813.464 -2.74082 3.79469 0
M  V30 8777 H 813.637 -3.58647 5.397 0
M  V30 8778 N 807.043 -1.17915 -1.04565 0
M  V30 8779 C 807.993 -0.869634 -2.10764 0
M  V30 8780 C 808.977 0.158502 -1.60117 0
M  V30 8781 O 810.169 -0.04483 -1.76943 0
M  V30 8782 C 807.298 -0.391642 -3.41059 0
M  V30 8783 C 806.384 -1.45156 -3.98485 0
M  V30 8784 N 806.775 -2.6667 -4.29792 0
M  V30 8785 C 805.073 -1.3109 -4.263 0
M  V30 8786 C 805.774 -3.34823 -4.75677 0
M  V30 8787 N 804.75 -2.62203 -4.76183 0
M  V30 8788 H 808.552 -1.79342 -2.32838 0
M  V30 8789 H 806.066 -1.0688 -1.22272 0
M  V30 8790 H 808.063 -0.151428 -4.16625 0
M  V30 8791 H 806.723 0.525862 -3.20413 0
M  V30 8792 H 807.734 -3.0358 -4.19594 0
M  V30 8793 H 804.411 -0.455545 -4.15007 0
M  V30 8794 H 805.801 -4.38645 -5.0896 0
M  V30 8795 N 808.521 1.23394 -0.980386 0
M  V30 8796 C 809.761 1.93543 -0.657288 0
M  V30 8797 C 810.125 1.74791 0.794477 0
M  V30 8798 O 811.326 2.39089 1.2284 0
M  V30 8799 C 809.597 3.42025 -1.03701 0
M  V30 8800 S 811.156 4.30871 -0.830379 0
M  V30 8801 H 807.974 0.669012 -0.240717 0
M  V30 8802 H 810.576 1.49478 -1.26002 0
M  V30 8803 H 809.28 3.53183 -2.09022 0
M  V30 8804 H 808.811 3.91091 -0.425559 0
M  V30 8805 H 810.826 4.95377 0.285719 0
M  V30 8806 N 809.999 0.752036 1.385 0
M  V30 8807 C 810.962 0.131587 2.28822 0
M  V30 8808 C 811.962 -0.649149 1.47115 0
M  V30 8809 O 813.152 -0.475645 1.67581 0
M  V30 8810 C 810.284 -0.822101 3.30839 0
M  V30 8811 H 811.477 0.927551 2.85196 0
M  V30 8812 H 809.03 0.518945 1.47434 0
M  V30 8813 H 809.765 -1.6438 2.79553 0
M  V30 8814 H 809.55 -0.264689 3.91206 0
M  V30 8815 H 811.04 -1.25226 3.98382 0
M  V30 8816 N 811.477 -1.49425 0.500989 0
M  V30 8817 C 812.707 -2.06561 -0.0402858 0
M  V30 8818 C 813.115 -1.36157 -1.31369 0
M  V30 8819 O 812.458 -0.433618 -1.78509 0
M  V30 8820 C 812.52 -3.5765 -0.364269 0
M  V30 8821 C 812.184 -4.49739 0.811417 0
M  V30 8822 C 813.181 -4.91255 1.7019 0
M  V30 8823 C 810.866 -4.92036 1.01022 0
M  V30 8824 C 812.86 -5.73806 2.77534 0
M  V30 8825 C 810.547 -5.74364 2.08683 0
M  V30 8826 C 811.545 -6.15154 2.96774 0
M  V30 8827 O 811.233 -6.95836 4.02577 0
M  V30 8828 H 810.965 -0.67578 0.0172357 0
M  V30 8829 H 813.519 -1.93193 0.697553 0
M  V30 8830 H 811.749 -3.69026 -1.1557 0
M  V30 8831 H 813.438 -3.97025 -0.844156 0
M  V30 8832 H 814.204 -4.59222 1.56013 0
M  V30 8833 H 810.083 -4.59789 0.333929 0
M  V30 8834 H 813.627 -6.05564 3.4632 0
M  V30 8835 H 809.524 -6.0581 2.22855 0
M  V30 8836 H 810.292 -7.14142 3.9993 0
M  V30 8837 N 812.955 -0.234822 -1.55841 0
M  V30 8838 C 814.371 0.120295 -1.59146 0
M  V30 8839 C 814.571 1.57896 -1.25184 0
M  V30 8840 O 813.627 2.32138 -0.993393 0
M  V30 8841 C 814.94 -0.217984 -2.99909 0
M  V30 8842 C 816.488 -0.161298 -3.12584 0
M  V30 8843 C 816.963 -0.473438 -4.55546 0
M  V30 8844 N 818.454 -0.423494 -4.6126 0
M  V30 8845 C 819.189 -0.638334 -5.69836 0
M  V30 8846 N 818.685 -0.915659 -6.86722 0
M  V30 8847 N 820.478 -0.569864 -5.59204 0
M  V30 8848 H 812.629 -1.18622 -1.76189 0
M  V30 8849 H 814.892 -0.476426 -0.819587 0
M  V30 8850 H 814.598 -1.2309 -3.29457 0
M  V30 8851 H 814.472 0.460707 -3.74376 0
M  V30 8852 H 816.859 0.842274 -2.82825 0
M  V30 8853 H 816.94 -0.873661 -2.40418 0
M  V30 8854 H 816.584 -1.47451 -4.86025 0
M  V30 8855 H 816.514 0.260268 -5.25956 0
M  V30 8856 H 819.005 -0.217383 -3.77274 0
M  V30 8857 H 819.318 -1.06734 -7.65394 0
M  V30 8858 H 817.663 -0.953 -6.88435 0
M  V30 8859 H 820.854 -0.35334 -4.66765 0
M  V30 8860 H 821.027 -0.740698 -6.43753 0
M  V30 8861 N 814.433 1.57553 0.0384317 0
M  V30 8862 C 815.673 1.90687 0.736069 0
M  V30 8863 C 816.037 0.832381 1.73019 0
M  V30 8864 O 817.238 1.04777 2.47538 0
M  V30 8865 C 815.509 3.28994 1.39635 0
M  V30 8866 S 817.068 3.83944 2.12444 0
M  V30 8867 H 813.886 0.667799 0.244059 0
M  V30 8868 H 816.488 1.95498 -0.00901643 0
M  V30 8869 H 815.192 4.05067 0.659465 0
M  V30 8870 H 814.723 3.27463 2.18018 0
M  V30 8871 H 816.738 3.61916 3.39457 0
M  V30 8872 N 815.911 -0.310526 1.54511 0
M  V30 8873 C 817.141 -1.06456 1.77061 0
M  V30 8874 C 817.549 -1.81755 0.525528 0
M  V30 8875 O 816.892 -1.76365 -0.513904 0
M  V30 8876 C 816.954 -2.09856 2.91892 0
M  V30 8877 C 816.618 -1.53838 4.30329 0
M  V30 8878 C 817.615 -0.973358 5.10707 0
M  V30 8879 C 815.3 -1.57688 4.76906 0
M  V30 8880 C 817.294 -0.454283 6.35779 0
M  V30 8881 C 814.981 -1.05393 6.01943 0
M  V30 8882 C 815.979 -0.493595 6.81214 0
M  V30 8883 O 815.667 0.0214506 8.03897 0
M  V30 8884 H 815.399 -0.321913 0.594431 0
M  V30 8885 H 817.953 -0.358289 2.02251 0
M  V30 8886 H 816.183 -2.84137 2.62304 0
M  V30 8887 H 817.872 -2.71085 3.02106 0
M  V30 8888 H 818.638 -0.936588 4.75871 0
M  V30 8889 H 814.517 -2.00242 4.1524 0
M  V30 8890 H 818.061 -0.0162657 6.97598 0
M  V30 8891 H 813.958 -1.08782 6.36268 0
M  V30 8892 H 814.726 -0.0927478 8.18447 0
M  V30 8893 N 817.389 -1.46805 -0.573248 0
M  V30 8894 C 818.352 -1.57655 -1.66366 0
M  V30 8895 C 819.352 -0.452905 -1.5429 0
M  V30 8896 O 820.542 -0.717502 -1.58737 0
M  V30 8897 C 817.674 -1.50584 -3.05839 0
M  V30 8898 H 818.867 -2.54842 -1.581 0
M  V30 8899 H 816.42 -1.34756 -0.791868 0
M  V30 8900 H 817.155 -0.547127 -3.19651 0
M  V30 8901 H 816.94 -2.32118 -3.16012 0
M  V30 8902 H 818.43 -1.61282 -3.85199 0
M  V30 8903 N 818.867 0.818669 -1.34668 0
M  V30 8904 C 820.095 1.60674 -1.30351 0
M  V30 8905 C 820.51 1.88408 0.121546 0
M  V30 8906 O 819.867 1.47849 1.06991 0
M  V30 8907 C 819.918 2.94516 -2.09625 0
M  V30 8908 O 819.639 2.6799 -3.46573 0
M  V30 8909 C 821.14 3.8891 -2.12754 0
M  V30 8910 H 818.36 0.499306 -0.448258 0
M  V30 8911 H 820.904 1.01828 -1.77345 0
M  V30 8912 H 819.059 3.49908 -1.66262 0
M  V30 8913 H 819.473 3.53361 -3.87603 0
M  V30 8914 H 820.947 4.79972 -2.72637 0
M  V30 8915 H 821.424 4.24599 -1.12306 0
M  V30 8916 H 822.03 3.39453 -2.56225 0
M  V30 8917 N 820.346 1.18468 1.03938 0
M  V30 8918 C 821.592 0.992302 1.77553 0
M  V30 8919 C 821.947 -0.472959 1.86496 0
M  V30 8920 O 821.24 -1.34662 1.36296 0
M  V30 8921 C 821.434 1.58229 3.20466 0
M  V30 8922 C 821.263 3.1034 3.25452 0
M  V30 8923 C 820.033 3.79166 3.34008 0
M  V30 8924 C 822.231 4.07814 3.13357 0
M  V30 8925 N 820.213 5.18768 3.28258 0
M  V30 8926 C 821.584 5.33946 3.15121 0
M  V30 8927 C 823.639 3.99315 2.97409 0
M  V30 8928 C 822.342 6.52565 3.02574 0
M  V30 8929 C 824.368 5.17532 2.86208 0
M  V30 8930 C 823.73 6.42557 2.88617 0
M  V30 8931 H 819.829 0.417131 0.661457 0
M  V30 8932 H 822.413 1.50265 1.23808 0
M  V30 8933 H 820.584 1.0981 3.72554 0
M  V30 8934 H 822.316 1.32531 3.82384 0
M  V30 8935 H 819.071 3.29905 3.39794 0
M  V30 8936 H 819.495 5.91783 3.28818 0
M  V30 8937 H 824.137 3.03485 2.94375 0
M  V30 8938 H 821.855 7.48592 3.0436 0
M  V30 8939 H 825.441 5.12748 2.7492 0
M  V30 8940 H 824.321 7.32494 2.80039 0
M  V30 8941 N 821.824 -1.22873 0.986916 0
M  V30 8942 C 823.24 -1.43594 0.696633 0
M  V30 8943 C 823.44 -1.87622 -0.734869 0
M  V30 8944 O 822.496 -2.02633 -1.50652 0
M  V30 8945 C 823.809 -2.48231 1.69711 0
M  V30 8946 C 825.357 -2.62037 1.71188 0
M  V30 8947 C 825.832 -3.6989 2.70084 0
M  V30 8948 N 827.323 -3.77341 2.68641 0
M  V30 8949 C 828.058 -4.6037 3.41829 0
M  V30 8950 N 827.554 -5.47438 4.24598 0
M  V30 8951 N 829.347 -4.54626 3.30563 0
M  V30 8952 H 821.498 -0.925982 1.91153 0
M  V30 8953 H 823.761 -0.46866 0.824052 0
M  V30 8954 H 823.467 -2.22812 2.72117 0
M  V30 8955 H 823.341 -3.46731 1.48516 0
M  V30 8956 H 825.728 -2.86803 0.694837 0
M  V30 8957 H 825.809 -1.63831 1.96451 0
M  V30 8958 H 825.453 -3.45872 3.71934 0
M  V30 8959 H 825.383 -4.67652 2.42093 0
M  V30 8960 H 827.874 -3.15124 2.08578 0
M  V30 8961 H 828.187 -6.078 4.77283 0
M  V30 8962 H 826.532 -5.4704 4.28687 0
M  V30 8963 H 829.723 -3.85627 2.65347 0
M  V30 8964 H 829.896 -5.19103 3.8786 0
M  V30 8965 N 823.302 -0.75937 -1.38099 0
M  V30 8966 C 824.549 -0.318113 -1.99986 0
M  V30 8967 C 824.877 1.10184 -1.6028 0
M  V30 8968 O 824.132 1.77015 -0.834524 0
M  V30 8969 C 824.431 -0.394999 -3.55211 0
M  V30 8970 C 824.097 -1.77143 -4.14646 0
M  V30 8971 C 822.759 -2.14811 -4.30592 0
M  V30 8972 C 825.111 -2.67407 -4.47373 0
M  V30 8973 C 822.439 -3.42203 -4.76565 0
M  V30 8974 C 824.791 -3.94196 -4.94765 0
M  V30 8975 C 823.455 -4.31925 -5.08918 0
M  V30 8976 H 822.725 -0.116406 -0.7318 0
M  V30 8977 H 825.372 -0.97098 -1.65058 0
M  V30 8978 H 823.677 0.341426 -3.9031 0
M  V30 8979 H 825.374 -0.0350722 -4.00985 0
M  V30 8980 H 821.964 -1.46864 -4.02652 0
M  V30 8981 H 826.148 -2.39569 -4.3465 0
M  V30 8982 H 821.404 -3.71346 -4.85708 0
M  V30 8983 H 825.578 -4.64276 -5.19057 0
M  V30 8984 H 823.205 -5.30699 -5.443 0
M  V30 8985 N 824.78 1.49157 -0.508906 0
M  V30 8986 C 826.028 2.02073 0.0327335 0
M  V30 8987 C 826.349 1.39012 1.3675 0
M  V30 8988 O 825.619 0.548153 1.88075 0
M  V30 8989 H 824.199 0.746848 0.0150864 0
M  V30 8990 H 826.861 1.83097 -0.667946 0
M  V30 8991 H 825.957 3.11707 0.1566 0
M  V30 8992 N 826.258 0.243083 1.55714 0
M  V30 8993 C 827.483 -0.389944 2.03701 0
M  V30 8994 C 827.908 -1.51025 1.12129 0
M  V30 8995 O 827.266 -1.80944 0.11352 0
M  V30 8996 C 827.314 -0.878649 3.49731 0
M  V30 8997 O 826.418 -1.98851 3.61292 0
M  V30 8998 H 825.759 -0.0855115 0.658471 0
M  V30 8999 H 828.289 0.368023 2.01263 0
M  V30 9000 H 828.299 -1.18287 3.90477 0
M  V30 9001 H 826.974 -0.0588107 4.15858 0
M  V30 9002 H 825.551 -1.68928 3.32442 0
M  V30 9003 N 827.736 -1.57571 -0.0300757 0
M  V30 9004 C 828.668 -2.0329 -1.05857 0
M  V30 9005 C 829.681 -0.945543 -1.32527 0
M  V30 9006 O 830.87 -1.22287 -1.30032 0
M  V30 9007 C 827.97 -2.39234 -2.40042 0
M  V30 9008 C 827.143 -3.70337 -2.32743 0
M  V30 9009 C 826.202 -3.93482 -3.49369 0
M  V30 9010 O 825.228 -4.64551 -3.28909 0
M  V30 9011 N 826.43 -3.39042 -4.71201 0
M  V30 9012 H 829.195 -2.9214 -0.668897 0
M  V30 9013 H 826.756 -1.60425 -0.218038 0
M  V30 9014 H 828.748 -2.51856 -3.16782 0
M  V30 9015 H 827.318 -1.5606 -2.70858 0
M  V30 9016 H 826.538 -3.68079 -1.41109 0
M  V30 9017 H 827.826 -4.56343 -2.25007 0
M  V30 9018 H 827.224 -2.81434 -4.90725 0
M  V30 9019 H 825.781 -3.57045 -5.45309 0
M  V30 9020 N 829.214 0.302327 -1.54673 0
M  V30 9021 C 830.491 1.05721 -1.64567 0
M  V30 9022 C 830.871 2.0526 -0.493108 0
M  V30 9023 O 830.219 2.22729 0.510315 0
M  V30 9024 C 830.429 1.74025 -3.02517 0
M  V30 9025 C 831.777 2.26271 -3.59286 0
M  V30 9026 O 832.801 1.8406 -3.0496 0
M  V30 9027 O 831.66 3.0361 -4.54404 0
M  V30 9028 H 828.754 0.488577 -0.667249 0
M  V30 9029 H 831.3 0.300521 -1.67018 0
M  V30 9030 H 830.072 1.0174 -3.77842 0
M  V30 9031 H 829.695 2.56454 -3.03838 0
M  V30 9032 N 830.692 1.47107 0.565454 0
M  V30 9033 C 831.625 1.53505 1.68853 0
M  V30 9034 C 832.603 0.387806 1.57908 0
M  V30 9035 O 833.787 0.594433 1.78882 0
M  V30 9036 C 830.914 1.42985 3.07039 0
M  V30 9037 C 829.96 2.62109 3.36454 0
M  V30 9038 S 830.793 4.2436 3.26617 0
M  V30 9039 C 831.949 4.16378 4.67312 0
M  V30 9040 H 832.182 2.48522 1.63169 0
M  V30 9041 H 829.715 1.35204 0.745609 0
M  V30 9042 H 831.673 1.37602 3.8675 0
M  V30 9043 H 830.334 0.493671 3.10196 0
M  V30 9044 H 829.527 2.50788 4.37174 0
M  V30 9045 H 829.129 2.64571 2.64345 0
M  V30 9046 H 831.421 3.84123 5.58082 0
M  V30 9047 H 832.364 5.17156 4.83689 0
M  V30 9048 H 832.772 3.47363 4.44971 0
M  V30 9049 N 832.17 -0.811516 1.35101 0
M  V30 9050 C 833.133 -1.90467 1.27495 0
M  V30 9051 C 834.133 -1.59703 0.187516 0
M  V30 9052 O 835.323 -1.68528 0.440896 0
M  V30 9053 C 832.455 -3.26774 0.971154 0
M  V30 9054 H 833.648 -1.98631 2.2469 0
M  V30 9055 H 831.201 -1.00681 1.19553 0
M  V30 9056 H 831.936 -3.243 0.0028557 0
M  V30 9057 H 831.721 -3.50488 1.75785 0
M  V30 9058 H 833.211 -4.06804 0.943414 0
M  V30 9059 N 833.648 -1.19017 -1.03309 0
M  V30 9060 C 834.925 -0.899659 -1.73682 0
M  V30 9061 C 835.305 0.595677 -2.02521 0
M  V30 9062 O 834.653 1.55263 -1.67648 0
M  V30 9063 C 834.863 -1.75508 -3.01659 0
M  V30 9064 C 836.211 -1.98679 -3.75249 0
M  V30 9065 O 837.235 -1.72624 -3.11576 0
M  V30 9066 O 836.094 -2.42587 -4.89708 0
M  V30 9067 H 833.188 -0.334903 -0.756154 0
M  V30 9068 H 835.734 -1.29809 -1.09305 0
M  V30 9069 H 834.506 -2.7684 -2.76542 0
M  V30 9070 H 834.129 -1.35565 -3.73775 0
M  V30 9071 N 835.127 1.22348 -0.993418 0
M  V30 9072 C 836.374 1.9111 -0.669568 0
M  V30 9073 C 836.702 1.77357 0.79843 0
M  V30 9074 O 835.957 1.13675 1.593 0
M  V30 9075 C 836.256 3.42477 -1.02197 0
M  V30 9076 C 835.922 3.7642 -2.48232 0
M  V30 9077 C 834.584 3.85395 -2.88139 0
M  V30 9078 C 836.936 3.9253 -3.42884 0
M  V30 9079 C 834.264 4.07918 -4.21687 0
M  V30 9080 C 836.616 4.16557 -4.76091 0
M  V30 9081 C 835.28 4.23757 -5.15739 0
M  V30 9082 H 834.55 0.699321 -0.245012 0
M  V30 9083 H 837.197 1.45102 -1.2497 0
M  V30 9084 H 835.502 3.90143 -0.359921 0
M  V30 9085 H 837.199 3.93935 -0.74942 0
M  V30 9086 H 833.789 3.70017 -2.16299 0
M  V30 9087 H 837.973 3.84974 -3.13224 0
M  V30 9088 H 833.229 4.11719 -4.51993 0
M  V30 9089 H 837.403 4.27966 -5.4938 0
M  V30 9090 H 835.03 4.40962 -6.19239 0
M  V30 9091 N 836.605 0.766683 1.37694 0
M  V30 9092 C 837.568 0.155849 2.2867 0
M  V30 9093 C 838.568 -0.633509 1.47795 0
M  V30 9094 O 839.758 -0.457844 1.68076 0
M  V30 9095 C 836.89 -0.786965 3.31692 0
M  V30 9096 H 838.083 0.957748 2.84196 0
M  V30 9097 H 835.636 0.534554 1.46875 0
M  V30 9098 H 836.371 -1.61406 2.8128 0
M  V30 9099 H 836.156 -0.223182 3.91464 0
M  V30 9100 H 837.646 -1.20994 3.99688 0
M  V30 9101 N 838.083 -1.48885 0.516809 0
M  V30 9102 C 839.332 -2.01686 -0.0239899 0
M  V30 9103 C 839.645 -1.40029 -1.3657 0
M  V30 9104 O 840.851 -1.84249 -1.9941 0
M  V30 9105 C 839.307 -3.59779 -0.0931825 0
M  V30 9106 C 838.915 -4.30416 1.24283 0
M  V30 9107 C 840.659 -4.20471 -0.583507 0
M  V30 9108 C 838.566 -5.80408 1.13494 0
M  V30 9109 H 837.496 -0.753892 -0.0127376 0
M  V30 9110 H 840.147 -1.71273 0.65861 0
M  V30 9111 H 838.529 -3.86976 -0.840577 0
M  V30 9112 H 839.703 -4.14905 2.00476 0
M  V30 9113 H 838.018 -3.81539 1.66785 0
M  V30 9114 H 840.615 -5.30333 -0.681987 0
M  V30 9115 H 840.958 -3.84898 -1.58617 0
M  V30 9116 H 841.491 -3.97654 0.107814 0
M  V30 9117 H 838.23 -6.20532 2.11235 0
M  V30 9118 H 837.75 -5.98368 0.414167 0
M  V30 9119 H 839.429 -6.41781 0.820162 0
M  V30 9120 N 839.561 -0.251338 -1.55583 0
M  V30 9121 C 840.491 0.640437 -2.24545 0
M  V30 9122 C 841.472 1.17781 -1.22726 0
M  V30 9123 O 842.657 1.21633 -1.5139 0
M  V30 9124 C 839.787 1.8355 -2.94834 0
M  V30 9125 C 838.741 1.4307 -4.03379 0
M  V30 9126 C 838.067 2.70695 -4.61116 0
M  V30 9127 C 839.367 0.59848 -5.1886 0
M  V30 9128 H 841.061 0.0653772 -2.99329 0
M  V30 9129 H 838.607 0.0300042 -1.43969 0
M  V30 9130 H 840.56 2.46505 -3.4178 0
M  V30 9131 H 839.284 2.43601 -2.17546 0
M  V30 9132 H 837.943 0.824474 -3.57209 0
M  V30 9133 H 837.591 3.28954 -3.80524 0
M  V30 9134 H 837.291 2.44332 -5.34393 0
M  V30 9135 H 838.815 3.34541 -5.10798 0
M  V30 9136 H 840.229 1.13244 -5.62004 0
M  V30 9137 H 838.626 0.430728 -5.98552 0
M  V30 9138 H 839.696 -0.38829 -4.83343 0
M  V30 9139 N 841.039 1.57585 0.0217189 0
M  V30 9140 C 842.45 1.7787 0.567377 0
M  V30 9141 C 842.801 0.883337 1.7519 0
M  V30 9142 O 841.926 0.0800819 2.16252 0
M  V30 9143 C 842.521 3.2257 1.03606 0
M  V30 9144 C 841.08 3.44026 1.52718 0
M  V30 9145 C 840.227 2.73313 0.468545 0
M  V30 9146 H 843.178 1.57377 -0.2045 0
M  V30 9147 H 843.199 3.29488 1.9031 0
M  V30 9148 H 842.711 3.87711 0.173739 0
M  V30 9149 H 840.812 2.8407 2.41111 0
M  V30 9150 H 840.925 4.52659 1.56962 0
M  V30 9151 H 839.289 2.37299 0.925263 0
M  V30 9152 H 840.072 3.41141 -0.384438 0
M  V30 9153 N 842.517 -0.29412 1.54831 0
M  V30 9154 C 843.742 -1.05156 1.78765 0
M  V30 9155 C 844.167 -1.79916 0.548809 0
M  V30 9156 O 843.525 -1.74243 -0.500909 0
M  V30 9157 C 843.573 -2.00242 2.99893 0
M  V30 9158 O 842.677 -3.08662 2.73499 0
M  V30 9159 H 842.018 -0.301737 0.591482 0
M  V30 9160 H 844.548 -0.329449 2.0193 0
M  V30 9161 H 844.558 -2.42583 3.28051 0
M  V30 9162 H 843.233 -1.45235 3.89717 0
M  V30 9163 H 841.81 -2.70786 2.56377 0
M  V30 9164 N 843.995 -1.47404 -0.557645 0
M  V30 9165 C 845.235 -1.55585 -1.32562 0
M  V30 9166 C 845.599 -0.212926 -1.90816 0
M  V30 9167 O 846.8 -0.169574 -2.68265 0
M  V30 9168 C 845.071 -2.64249 -2.40639 0
M  V30 9169 S 846.63 -2.9201 -3.2753 0
M  V30 9170 H 843.448 -0.549409 -0.451298 0
M  V30 9171 H 846.05 -1.84782 -0.638438 0
M  V30 9172 H 844.754 -3.60421 -1.96277 0
M  V30 9173 H 844.285 -2.36866 -3.14099 0
M  V30 9174 H 846.3 -2.29191 -4.40098 0
M  V30 9175 N 845.473 0.80434 -1.35529 0
M  V30 9176 C 846.713 1.57489 -1.30295 0
M  V30 9177 C 847.077 1.91621 0.120528 0
M  V30 9178 O 848.278 2.67151 0.297265 0
M  V30 9179 C 846.549 2.82741 -2.18615 0
M  V30 9180 S 848.108 3.73125 -2.30918 0
M  V30 9181 H 844.926 0.539573 -0.463014 0
M  V30 9182 H 847.528 0.948601 -1.70944 0
M  V30 9183 H 846.232 2.55692 -3.21014 0
M  V30 9184 H 845.763 3.50353 -1.78931 0
M  V30 9185 H 847.778 4.73122 -1.49566 0
M  V30 9186 N 846.951 1.19563 1.02676 0
M  V30 9187 C 848.367 0.948304 1.28372 0
M  V30 9188 C 848.567 -0.378096 1.97921 0
M  V30 9189 O 847.623 -1.1091 2.26838 0
M  V30 9190 C 848.936 2.12381 2.12873 0
M  V30 9191 C 850.484 2.16366 2.26174 0
M  V30 9192 C 850.959 3.33374 3.14048 0
M  V30 9193 N 852.45 3.33323 3.21636 0
M  V30 9194 C 853.185 4.20504 3.89825 0
M  V30 9195 N 852.681 5.17845 4.60227 0
M  V30 9196 N 854.474 4.08375 3.86246 0
M  V30 9197 H 846.625 2.04899 0.559485 0
M  V30 9198 H 848.888 0.89606 0.309484 0
M  V30 9199 H 848.594 3.08383 1.69094 0
M  V30 9200 H 848.468 2.09621 3.1359 0
M  V30 9201 H 850.855 1.20933 2.69182 0
M  V30 9202 H 850.936 2.23179 1.25 0
M  V30 9203 H 850.58 4.29087 2.71747 0
M  V30 9204 H 850.51 3.23798 4.15286 0
M  V30 9205 H 853.001 2.62863 2.71498 0
M  V30 9206 H 853.314 5.80712 5.09896 0
M  V30 9207 H 851.659 5.21791 4.59085 0
M  V30 9208 H 854.85 3.31606 3.30386 0
M  V30 9209 H 855.023 4.76532 4.39114 0
M  V30 9210 N 848.429 -1.21819 0.999893 0
M  V30 9211 C 849.675 -1.91325 0.690373 0
M  V30 9212 C 850.03 -1.76323 -0.769929 0
M  V30 9213 O 849.323 -1.12585 -1.55033 0
M  V30 9214 C 849.517 -3.4193 1.04012 0
M  V30 9215 C 849.346 -3.71585 2.53287 0
M  V30 9216 C 848.116 -3.91219 3.19806 0
M  V30 9217 C 850.314 -3.75502 3.5143 0
M  V30 9218 N 848.296 -4.08246 4.58485 0
M  V30 9219 C 849.667 -3.97753 4.75597 0
M  V30 9220 C 851.722 -3.58383 3.45638 0
M  V30 9221 C 850.425 -4.04662 5.94677 0
M  V30 9222 C 852.451 -3.66555 4.64103 0
M  V30 9223 C 851.813 -3.89263 5.87072 0
M  V30 9224 H 847.912 -0.720484 0.304018 0
M  V30 9225 H 850.496 -1.46595 1.28133 0
M  V30 9226 H 848.667 -3.85452 0.477671 0
M  V30 9227 H 850.399 -3.98846 0.685864 0
M  V30 9228 H 847.154 -3.88917 2.7026 0
M  V30 9229 H 847.578 -4.20673 5.30437 0
M  V30 9230 H 852.22 -3.39807 2.51576 0
M  V30 9231 H 849.938 -4.22039 6.89136 0
M  V30 9232 H 853.524 -3.54639 4.61218 0
M  V30 9233 H 852.404 -3.95424 6.77207 0
M  V30 9234 N 849.908 -0.773975 -1.37286 0
M  V30 9235 C 851.324 -0.45386 -1.53011 0
M  V30 9236 C 851.524 1.03018 -1.73175 0
M  V30 9237 O 850.58 1.81597 -1.75438 0
M  V30 9238 C 851.893 -1.27087 -2.72524 0
M  V30 9239 C 853.441 -1.26299 -2.86387 0
M  V30 9240 C 853.916 -2.0634 -4.08886 0
M  V30 9241 N 855.407 -2.03706 -4.16003 0
M  V30 9242 C 856.142 -2.62418 -5.09828 0
M  V30 9243 N 855.638 -3.29926 -6.09197 0
M  V30 9244 N 857.431 -2.52236 -5.02328 0
M  V30 9245 H 849.582 -1.73551 -1.22449 0
M  V30 9246 H 851.845 -0.736874 -0.596423 0
M  V30 9247 H 851.551 -2.32263 -2.64096 0
M  V30 9248 H 851.425 -0.90157 -3.66267 0
M  V30 9249 H 853.812 -0.219213 -2.94285 0
M  V30 9250 H 853.893 -1.67195 -1.93596 0
M  V30 9251 H 853.537 -3.10741 -4.01749 0
M  V30 9252 H 853.467 -1.62825 -5.00795 0
M  V30 9253 H 855.958 -1.54559 -3.44848 0
M  V30 9254 H 856.271 -3.72095 -6.77322 0
M  V30 9255 H 854.616 -3.34026 -6.09469 0
M  V30 9256 H 857.807 -1.99108 -4.23643 0
M  V30 9257 H 857.98 -2.98286 -5.75265 0
M  V30 9258 N 851.386 1.48609 -0.524698 0
M  V30 9259 C 852.635 2.01696 0.0132937 0
M  V30 9260 C 852.948 1.40751 1.35825 0
M  V30 9261 O 854.154 1.85304 1.9843 0
M  V30 9262 C 852.61 3.59824 0.0741012 0
M  V30 9263 C 852.218 4.2975 -1.26564 0
M  V30 9264 C 853.962 4.20774 0.5612 0
M  V30 9265 C 851.869 5.79798 -1.16571 0
M  V30 9266 H 850.799 0.753949 0.00873931 0
M  V30 9267 H 853.45 1.70922 -0.667684 0
M  V30 9268 H 851.832 3.87416 0.820043 0
M  V30 9269 H 853.006 4.13836 -2.02674 0
M  V30 9270 H 851.321 3.80649 -1.68806 0
M  V30 9271 H 853.918 5.30687 0.653853 0
M  V30 9272 H 854.261 3.85734 1.56573 0
M  V30 9273 H 854.794 3.97591 -0.128901 0
M  V30 9274 H 851.533 6.19403 -2.14523 0
M  V30 9275 H 851.053 5.9814 -0.445894 0
M  V30 9276 H 852.732 6.41337 -0.854186 0
M  V30 9277 N 852.864 0.259585 1.55447 0
M  V30 9278 C 854.28 -0.094961 1.59317 0
M  V30 9279 C 854.48 -1.55884 1.2768 0
M  V30 9280 O 853.536 -2.30528 1.0302 0
M  V30 9281 C 854.849 0.265669 2.99524 0
M  V30 9282 C 856.397 0.211007 3.12288 0
M  V30 9283 C 856.872 0.545851 4.54736 0
M  V30 9284 N 858.363 0.496823 4.60528 0
M  V30 9285 C 859.098 0.728909 5.68748 0
M  V30 9286 N 858.594 1.02479 6.85179 0
M  V30 9287 N 860.387 0.658756 5.58226 0
M  V30 9288 H 852.538 1.2141 1.7428 0
M  V30 9289 H 854.801 0.489404 0.811904 0
M  V30 9290 H 854.507 1.28316 3.27457 0
M  V30 9291 H 854.381 -0.401089 3.75061 0
M  V30 9292 H 856.768 -0.797172 2.84129 0
M  V30 9293 H 856.849 0.911799 2.38998 0
M  V30 9294 H 856.493 1.55164 4.83618 0
M  V30 9295 H 856.423 -0.17656 5.26304 0
M  V30 9296 H 858.914 0.277376 3.76881 0
M  V30 9297 H 859.227 1.18897 7.63599 0
M  V30 9298 H 857.572 1.0624 6.86832 0
M  V30 9299 H 860.763 0.427553 4.66143 0
M  V30 9300 H 860.936 0.84302 6.42493 0
M  V30 9301 N 854.342 -1.57594 -0.0133615 0
M  V30 9302 C 855.289 -2.07574 -1.00905 0
M  V30 9303 C 856.259 -0.968231 -1.34961 0
M  V30 9304 O 857.444 -1.23981 -1.45028 0
M  V30 9305 C 854.584 -2.5728 -2.30002 0
M  V30 9306 C 853.697 -3.81881 -2.01967 0
M  V30 9307 C 852.832 -4.20139 -3.25049 0
M  V30 9308 C 851.871 -5.37614 -2.92639 0
M  V30 9309 N 851.008 -5.71229 -4.08218 0
M  V30 9310 H 855.848 -2.92382 -0.575899 0
M  V30 9311 H 853.385 -1.4455 -0.272722 0
M  V30 9312 H 855.343 -2.84171 -3.05454 0
M  V30 9313 H 853.973 -1.75365 -2.71011 0
M  V30 9314 H 853.025 -3.61979 -1.16942 0
M  V30 9315 H 854.337 -4.67441 -1.74069 0
M  V30 9316 H 853.491 -4.48242 -4.08857 0
M  V30 9317 H 852.23 -3.33262 -3.56073 0
M  V30 9318 H 851.235 -5.09248 -2.07235 0
M  V30 9319 H 852.46 -6.26157 -2.62876 0
M  V30 9320 H 850.406 -4.8731 -4.39164 0
M  V30 9321 H 850.323 -6.51333 -3.83799 0
M  V30 9322 H 851.591 -6.03917 -4.92854 0
M  V30 9323 N 855.82 0.285905 -1.54985 0
M  V30 9324 C 856.73 1.37534 -1.90057 0
M  V30 9325 C 857.746 1.54707 -0.796348 0
M  V30 9326 O 858.922 1.69082 -1.09423 0
M  V30 9327 C 855.987 2.7167 -2.15398 0
M  V30 9328 C 855.048 2.63354 -3.39033 0
M  V30 9329 C 854.281 3.91093 -3.63155 0
M  V30 9330 O 854.504 4.91169 -2.90015 0
M  V30 9331 O 853.438 3.92075 -4.56685 0
M  V30 9332 H 857.264 1.10791 -2.8277 0
M  V30 9333 H 854.849 0.483303 -1.41367 0
M  V30 9334 H 856.731 3.51006 -2.33179 0
M  V30 9335 H 855.406 2.98226 -1.25868 0
M  V30 9336 H 854.313 1.82438 -3.26599 0
M  V30 9337 H 855.646 2.41749 -4.2874 0
M  V30 9338 N 857.298 1.47698 0.54982 0
M  V30 9339 C 858.545 1.54702 1.30665 0
M  V30 9340 C 858.873 0.212418 1.93337 0
M  V30 9341 O 858.128 -0.79543 1.78805 0
M  V30 9342 C 858.427 2.61903 2.4319 0
M  V30 9343 C 858.093 4.04953 1.98302 0
M  V30 9344 C 856.755 4.43893 1.85776 0
M  V30 9345 C 859.107 4.94682 1.64133 0
M  V30 9346 C 856.435 5.70387 1.37388 0
M  V30 9347 C 858.787 6.21646 1.17214 0
M  V30 9348 C 857.451 6.5946 1.0329 0
M  V30 9349 H 856.721 0.566096 0.478139 0
M  V30 9350 H 859.368 1.8133 0.615767 0
M  V30 9351 H 857.673 2.2906 3.17866 0
M  V30 9352 H 859.37 2.64543 3.0136 0
M  V30 9353 H 855.96 3.74191 2.08995 0
M  V30 9354 H 860.144 4.65291 1.72679 0
M  V30 9355 H 855.4 5.98427 1.25278 0
M  V30 9356 H 859.574 6.90581 0.898391 0
M  V30 9357 H 857.201 7.57367 0.655735 0
M  V30 9358 N 858.776 -0.797141 1.35954 0
M  V30 9359 C 860.187 -1.37179 1.26644 0
M  V30 9360 C 860.538 -1.9596 -0.0971046 0
M  V30 9361 O 859.663 -1.91994 -0.998355 0
M  V30 9362 C 860.258 -2.49395 2.2932 0
M  V30 9363 C 858.817 -3.02697 2.23722 0
M  V30 9364 C 857.964 -1.75721 2.14517 0
M  V30 9365 H 860.915 -0.599407 1.46945 0
M  V30 9366 H 860.936 -3.28204 1.92515 0
M  V30 9367 H 860.448 -2.06584 3.2855 0
M  V30 9368 H 858.549 -3.49948 1.27934 0
M  V30 9369 H 858.662 -3.60036 3.16087 0
M  V30 9370 H 857.026 -1.97649 1.60646 0
M  V30 9371 H 857.809 -1.35049 3.15621 0
M  V30 9372 N 860.254 -1.20106 -1.0204 0
M  V30 9373 C 861.201 -0.946468 -2.10501 0
M  V30 9374 C 862.171 0.121902 -1.65652 0
M  V30 9375 O 863.356 -0.0220244 -1.90787 0
M  V30 9376 C 860.496 -0.500499 -3.41451 0
M  V30 9377 C 859.609 -1.63659 -3.998 0
M  V30 9378 C 858.744 -1.14131 -5.18794 0
M  V30 9379 C 857.783 -2.25074 -5.69217 0
M  V30 9380 N 856.92 -1.76791 -6.79477 0
M  V30 9381 H 861.76 -1.87506 -2.31615 0
M  V30 9382 H 859.297 -0.934693 -1.13587 0
M  V30 9383 H 861.255 -0.223276 -4.16602 0
M  V30 9384 H 859.885 0.391099 -3.20422 0
M  V30 9385 H 858.937 -2.02882 -3.21781 0
M  V30 9386 H 860.249 -2.47213 -4.33229 0
M  V30 9387 H 859.403 -0.819826 -6.01135 0
M  V30 9388 H 858.142 -0.275615 -4.86921 0
M  V30 9389 H 857.147 -2.58043 -4.85483 0
M  V30 9390 H 858.372 -3.12114 -6.03127 0
M  V30 9391 H 856.318 -0.925428 -6.4944 0
M  V30 9392 H 856.235 -2.53928 -7.12079 0
M  V30 9393 H 857.503 -1.47631 -7.65392 0
M  V30 9394 N 861.732 1.21287 -1.00634 0
M  V30 9395 C 862.957 1.94925 -0.708441 0
M  V30 9396 C 863.382 1.73659 0.722783 0
M  V30 9397 O 862.74 1.02429 1.49593 0
M  V30 9398 C 862.788 3.45377 -1.03667 0
M  V30 9399 O 861.892 4.12153 -0.142661 0
M  V30 9400 H 861.233 0.609338 -0.263824 0
M  V30 9401 H 863.763 1.54008 -1.34695 0
M  V30 9402 H 863.773 3.95954 -0.984086 0
M  V30 9403 H 862.448 3.6018 -2.0795 0
M  V30 9404 H 861.025 3.72048 -0.251888 0
M  V30 9405 N 863.21 0.781244 1.36873 0
M  V30 9406 C 864.12 0.174981 2.33947 0
M  V30 9407 C 865.136 -0.668512 1.60645 0
M  V30 9408 O 866.312 -0.586213 1.9268 0
M  V30 9409 C 863.377 -0.686557 3.39834 0
M  V30 9410 C 862.438 0.174489 4.28945 0
M  V30 9411 C 861.671 -0.646024 5.29776 0
M  V30 9412 O 861.894 -1.88254 5.38439 0
M  V30 9413 O 860.828 -0.0502214 6.01879 0
M  V30 9414 H 864.654 0.977382 2.87543 0
M  V30 9415 H 862.239 0.542559 1.392 0
M  V30 9416 H 864.121 -1.1781 4.04597 0
M  V30 9417 H 862.796 -1.46699 2.8855 0
M  V30 9418 H 861.703 0.712604 3.6725 0
M  V30 9419 H 863.036 0.918232 4.83559 0
M  V30 9420 N 864.689 -1.48329 0.532571 0
M  V30 9421 C 865.937 -2.021 -0.000581206 0
M  V30 9422 C 866.258 -1.4117 -1.34522 0
M  V30 9423 O 865.528 -0.578005 -1.87179 0
M  V30 9424 H 864.108 -0.746993 -0.00320281 0
M  V30 9425 H 866.77 -1.82011 0.696991 0
M  V30 9426 H 865.866 -3.11917 -0.106991 0
M  V30 9427 N 866.167 -0.267825 -1.55308 0
M  V30 9428 C 867.099 0.65591 -2.19614 0
M  V30 9429 C 868.112 1.12302 -1.17865 0
M  V30 9430 O 869.301 1.04618 -1.44628 0
M  V30 9431 C 866.401 1.90582 -2.80235 0
M  V30 9432 C 865.574 1.58673 -4.07605 0
M  V30 9433 C 864.633 2.68836 -4.52343 0
M  V30 9434 O 863.659 2.35331 -5.18274 0
M  V30 9435 N 864.861 3.98752 -4.21873 0
M  V30 9436 H 867.626 0.105566 -2.99514 0
M  V30 9437 H 865.187 -0.0886263 -1.61657 0
M  V30 9438 H 867.179 2.63561 -3.07112 0
M  V30 9439 H 865.749 2.3654 -2.04371 0
M  V30 9440 H 864.969 0.691113 -3.88094 0
M  V30 9441 H 866.257 1.34845 -4.90606 0
M  V30 9442 H 865.655 4.28797 -3.68985 0
M  V30 9443 H 864.212 4.68131 -4.53537 0
M  V30 9444 N 867.645 1.57599 0.00500368 0
M  V30 9445 C 868.875 1.94344 0.700998 0
M  V30 9446 C 869.283 0.868011 1.68114 0
M  V30 9447 O 868.626 -0.16214 1.82983 0
M  V30 9448 C 868.688 3.27046 1.49268 0
M  V30 9449 C 868.352 4.51992 0.674684 0
M  V30 9450 C 869.349 5.19888 -0.0354833 0
M  V30 9451 C 867.034 4.98432 0.622129 0
M  V30 9452 C 869.028 6.3252 -0.787246 0
M  V30 9453 C 866.715 6.10954 -0.133362 0
M  V30 9454 C 867.713 6.77855 -0.836788 0
M  V30 9455 O 867.401 7.88221 -1.57996 0
M  V30 9456 H 867.133 0.645572 0.20053 0
M  V30 9457 H 869.687 2.0536 -0.040718 0
M  V30 9458 H 867.917 3.12424 2.27877 0
M  V30 9459 H 869.606 3.4894 2.07355 0
M  V30 9460 H 870.372 4.85 -0.00400159 0
M  V30 9461 H 866.251 4.46189 1.15917 0
M  V30 9462 H 869.795 6.84671 -1.33683 0
M  V30 9463 H 865.692 6.45285 -0.166682 0
M  V30 9464 H 866.46 8.0471 -1.49615 0
M  V30 9465 N 869.123 -0.277682 1.55134 0
M  V30 9466 C 870.348 -1.03254 1.7987 0
M  V30 9467 C 870.773 -1.79324 0.567861 0
M  V30 9468 O 870.131 -1.74764 -0.4824 0
M  V30 9469 C 870.179 -1.9705 3.02 0
M  V30 9470 O 869.283 -3.05744 2.76757 0
M  V30 9471 H 868.624 -0.295447 0.594649 0
M  V30 9472 H 871.154 -0.308013 2.02268 0
M  V30 9473 H 871.164 -2.3909 3.30606 0
M  V30 9474 H 869.839 -1.41094 3.91236 0
M  V30 9475 H 868.416 -2.68052 2.59235 0
M  V30 9476 N 870.601 -1.47988 -0.541979 0
M  V30 9477 C 871.849 -1.55086 -1.29587 0
M  V30 9478 C 872.17 -0.221304 -1.9374 0
M  V30 9479 O 871.44 0.756128 -1.80719 0
M  V30 9480 H 870.02 -0.571307 -0.481266 0
M  V30 9481 H 872.682 -1.8438 -0.631675 0
M  V30 9482 H 871.778 -2.32556 -2.08144 0
M  V30 9483 N 872.079 0.78992 -1.36375 0
M  V30 9484 C 873.326 1.54777 -1.30576 0
M  V30 9485 C 873.654 1.94159 0.115095 0
M  V30 9486 O 872.909 1.62918 1.08426 0
M  V30 9487 C 873.208 2.83698 -2.17371 0
M  V30 9488 C 872.874 2.63457 -3.65925 0
M  V30 9489 C 871.536 2.57645 -4.06415 0
M  V30 9490 C 873.888 2.44833 -4.60115 0
M  V30 9491 C 871.216 2.31174 -5.39236 0
M  V30 9492 C 873.568 2.19889 -5.93154 0
M  V30 9493 C 872.232 2.1251 -6.32768 0
M  V30 9494 H 871.502 0.566371 -0.477813 0
M  V30 9495 H 874.149 0.91138 -1.68422 0
M  V30 9496 H 872.454 3.51802 -1.72459 0
M  V30 9497 H 874.151 3.41487 -2.10209 0
M  V30 9498 H 870.741 2.68836 -3.33804 0
M  V30 9499 H 874.925 2.48325 -4.29707 0
M  V30 9500 H 870.181 2.23942 -5.68911 0
M  V30 9501 H 874.355 2.04473 -6.65705 0
M  V30 9502 H 871.982 1.91761 -7.35616 0
M  V30 9503 N 873.557 1.20646 1.01402 0
M  V30 9504 C 874.504 0.957618 2.09996 0
M  V30 9505 C 875.474 -0.113115 1.65714 0
M  V30 9506 O 876.659 0.032142 1.90773 0
M  V30 9507 C 873.799 0.5186 3.41181 0
M  V30 9508 C 872.912 1.65777 3.98926 0
M  V30 9509 C 872.047 1.16881 5.18182 0
M  V30 9510 C 871.086 2.2809 5.68015 0
M  V30 9511 N 870.223 1.80392 6.7853 0
M  V30 9512 H 875.063 1.88732 2.30617 0
M  V30 9513 H 872.6 0.940703 1.13089 0
M  V30 9514 H 874.558 0.245367 4.16478 0
M  V30 9515 H 873.188 -0.3741 3.20625 0
M  V30 9516 H 872.24 2.04586 3.207 0
M  V30 9517 H 873.552 2.49507 4.31912 0
M  V30 9518 H 872.706 0.851694 6.00692 0
M  V30 9519 H 871.445 0.301434 4.86768 0
M  V30 9520 H 870.45 2.60614 4.84108 0
M  V30 9521 H 871.675 3.15308 6.01463 0
M  V30 9522 H 869.621 0.959856 6.4894 0
M  V30 9523 H 869.538 2.57701 7.10722 0
M  V30 9524 H 870.806 1.51688 7.64598 0
M  V30 9525 N 875.035 -1.20752 1.01276 0
M  V30 9526 C 876.26 -1.94547 0.718769 0
M  V30 9527 C 876.685 -1.7404 -0.713563 0
M  V30 9528 O 876.043 -1.03221 -1.49047 0
M  V30 9529 C 876.091 -3.44823 1.05497 0
M  V30 9530 O 875.195 -4.12072 0.164516 0
M  V30 9531 H 874.536 -0.607931 0.267051 0
M  V30 9532 H 877.066 -1.53292 1.35509 0
M  V30 9533 H 877.076 -3.95427 1.00507 0
M  V30 9534 H 875.751 -3.59072 2.09858 0
M  V30 9535 H 874.328 -3.71909 0.271615 0
M  V30 9536 N 876.513 -0.788492 -1.36457 0
M  V30 9537 C 877.924 -0.423742 -1.81828 0
M  V30 9538 C 878.275 1.05221 -1.65599 0
M  V30 9539 O 877.4 1.8163 -1.17641 0
M  V30 9540 C 877.995 -0.762354 -3.30112 0
M  V30 9541 C 876.554 -0.450445 -3.73695 0
M  V30 9542 C 875.701 -0.997482 -2.58738 0
M  V30 9543 H 878.652 -0.981718 -1.24692 0
M  V30 9544 H 878.673 -0.0531136 -3.80463 0
M  V30 9545 H 878.185 -1.83662 -3.41891 0
M  V30 9546 H 876.286 0.615829 -3.67476 0
M  V30 9547 H 876.399 -0.970408 -4.69169 0
M  V30 9548 H 874.763 -0.420761 -2.51201 0
M  V30 9549 H 875.546 -2.07749 -2.73304 0
M  V30 9550 N 877.991 1.48044 -0.54043 0
M  V30 9551 C 879.221 2.06595 -0.0144943 0
M  V30 9552 C 879.629 1.39593 1.27713 0
M  V30 9553 O 878.972 0.480794 1.77297 0
M  V30 9554 C 879.034 3.5849 0.269316 0
M  V30 9555 C 878.698 4.47429 -0.930372 0
M  V30 9556 C 879.695 4.8657 -1.83155 0
M  V30 9557 C 877.38 4.89185 -1.14032 0
M  V30 9558 C 879.374 5.66246 -2.92649 0
M  V30 9559 C 877.061 5.6863 -2.23838 0
M  V30 9560 C 878.059 6.07069 -3.12979 0
M  V30 9561 O 877.747 6.84917 -4.20884 0
M  V30 9562 H 877.479 0.675086 -0.0351467 0
M  V30 9563 H 880.033 1.91275 -0.74853 0
M  V30 9564 H 878.263 3.71961 1.05745 0
M  V30 9565 H 879.952 3.99124 0.738595 0
M  V30 9566 H 880.718 4.54924 -1.68134 0
M  V30 9567 H 876.597 4.58742 -0.455717 0
M  V30 9568 H 880.141 5.96169 -3.62254 0
M  V30 9569 H 876.038 5.99688 -2.38839 0
M  V30 9570 H 876.806 7.03287 -4.18723 0
M  V30 9571 O 879.508 0.418012 1.55996 0
M  V30 9572 H 880.199 -0.120381 1.93326 0
M  V30 END ATOM
M  V30 BEGIN BOND
M  V30 END BOND
M  V30 END CTAB
M  END
$$$$
