drugbank_target|Q99677 Lysophosphatidic acid receptor 4 (DB01069)
 OpenBabel12092121213D

  0  0  0     0  0            999 V3000
M  V30 BEGIN CTAB
M  V30 COUNTS 5955 6022 0 0 0
M  V30 BEGIN ATOM
M  V30 1 H -0.908 1.98254 -0.117106 0
M  V30 2 N 0 1.576 0 0
M  V30 3 C 0.933 2.03868 1.02534 0
M  V30 4 C 1.911 0.928543 1.3348 0
M  V30 5 O 3.095 1.19667 1.45644 0
M  V30 6 C 0.222 2.43627 2.35294 0
M  V30 7 C -0.732 3.65373 2.2001 0
M  V30 8 S 0.101 5.13292 1.52614 0
M  V30 9 C 1.257 5.56322 2.86805 0
M  V30 10 H 1.49 2.90518 0.631377 0
M  V30 11 H -0.977 1.52953 0.210867 0
M  V30 12 H 0.981 2.67203 3.11629 0
M  V30 13 H -0.358 1.57376 2.7183 0
M  V30 14 H -1.165 3.90944 3.18086 0
M  V30 15 H -1.563 3.418 1.51819 0
M  V30 16 H 0.729 5.58782 3.83104 0
M  V30 17 H 1.672 6.56266 2.65933 0
M  V30 18 H 2.08 4.83886 2.90714 0
M  V30 19 N 1.4781 -0.272755 1.55222 0
M  V30 20 C 2.7261 -1.00234 1.75492 0
M  V30 21 C 3.0471 -1.8681 0.5592 0
M  V30 22 O 2.3171 -1.91215 -0.425882 0
M  V30 23 H 0.8971 -0.373076 0.647166 0
M  V30 24 H 3.5591 -0.296926 1.92625 0
M  V30 25 H 2.6551 -1.63913 2.65592 0
M  V30 26 N 2.9562 -1.48159 -0.537278 0
M  V30 27 C 4.2332 -1.46291 -1.29839 0
M  V30 28 C 4.6132 -0.170613 -2.10409 0
M  V30 29 O 3.9612 0.847746 -2.12192 0
M  V30 30 C 4.1712 -2.72055 -2.18603 0
M  V30 31 C 5.5192 -3.20087 -2.7898 0
M  V30 32 O 6.5432 -2.72921 -2.28894 0
M  V30 33 O 5.4022 -4.02138 -3.70064 0
M  V30 34 H 2.4962 -0.583906 -0.585647 0
M  V30 35 H 5.0422 -1.60384 -0.554534 0
M  V30 36 H 3.8142 -3.57628 -1.58801 0
M  V30 37 H 3.4372 -2.60646 -3.00249 0
M  V30 38 N 4.4343 0.785586 -1.36625 0
M  V30 39 C 5.8503 1.08419 -1.17122 0
M  V30 40 C 6.0503 2.015 0.00208491 0
M  V30 41 O 5.1063 2.43551 0.666278 0
M  V30 42 C 6.4193 1.69498 -2.48377 0
M  V30 43 C 7.9673 1.81821 -2.54775 0
M  V30 44 C 8.4423 2.46315 -3.86126 0
M  V30 45 N 9.9333 2.53779 -3.87492 0
M  V30 46 C 10.6683 3.045 -4.85868 0
M  V30 47 N 10.1643 3.55499 -5.94637 0
M  V30 48 N 11.9573 3.03247 -4.73284 0
M  V30 49 H 4.1083 0.167264 -2.1174 0
M  V30 50 H 6.3713 0.13682 -0.938075 0
M  V30 51 H 6.0773 1.08571 -3.34522 0
M  V30 52 H 5.9513 2.6896 -2.64462 0
M  V30 53 H 8.3383 2.41884 -1.69045 0
M  V30 54 H 8.4193 0.811532 -2.42586 0
M  V30 55 H 8.0633 1.86895 -4.72263 0
M  V30 56 H 7.9933 3.47561 -3.95612 0
M  V30 57 H 10.4843 2.17672 -3.08913 0
M  V30 58 H 10.7973 3.92562 -6.65669 0
M  V30 59 H 9.1423 3.5364 -5.98301 0
M  V30 60 H 12.3333 2.62696 -3.87438 0
M  V30 61 H 12.5063 3.42467 -5.50109 0
M  V30 62 N 5.9124 1.20967 1.01018 0
M  V30 63 C 7.3284 0.965905 1.27053 0
M  V30 64 C 7.5284 -0.350785 1.98423 0
M  V30 65 O 6.5844 -1.07773 2.28344 0
M  V30 66 C 7.8974 2.15294 2.09926 0
M  V30 67 C 9.4454 2.19463 2.23171 0
M  V30 68 C 9.9204 3.3767 3.09424 0
M  V30 69 N 11.4114 3.37724 3.17012 0
M  V30 70 C 12.1464 4.25837 3.83993 0
M  V30 71 N 11.6424 5.24138 4.53047 0
M  V30 72 N 13.4354 4.1366 3.80581 0
M  V30 73 H 5.5864 2.0565 0.531194 0
M  V30 74 H 7.8494 0.90024 0.297106 0
M  V30 75 H 7.5554 3.10684 1.64828 0
M  V30 76 H 7.4294 2.13923 3.10672 0
M  V30 77 H 9.8164 1.24632 2.6749 0
M  V30 78 H 9.8974 2.2488 1.21912 0
M  V30 79 H 9.5414 4.32791 2.65808 0
M  V30 80 H 9.4714 3.29491 4.10784 0
M  V30 81 H 11.9624 2.6658 2.6785 0
M  V30 82 H 12.2754 5.87684 5.01844 0
M  V30 83 H 10.6204 5.28068 4.5185 0
M  V30 84 H 13.8114 3.36127 3.25785 0
M  V30 85 H 13.9844 4.82538 4.32505 0
M  V30 86 N 7.3905 -1.2043 1.01659 0
M  V30 87 C 8.6375 -1.89797 0.705917 0
M  V30 88 C 8.9655 -1.78848 -0.764439 0
M  V30 89 O 8.2205 -1.16694 -1.57102 0
M  V30 90 C 8.5195 -3.40464 1.08714 0
M  V30 91 C 8.1855 -3.71614 2.5537 0
M  V30 92 C 6.8475 -3.79826 2.95441 0
M  V30 93 C 9.1995 -3.85915 3.50313 0
M  V30 94 C 6.5275 -3.99797 4.29394 0
M  V30 95 C 8.8795 -4.07396 4.83954 0
M  V30 96 C 7.5435 -4.13837 5.23732 0
M  V30 97 H 6.8135 -0.694518 0.258313 0
M  V30 98 H 9.4605 -1.42691 1.27717 0
M  V30 99 H 7.7655 -3.89385 0.434309 0
M  V30 100 H 9.4625 -3.92433 0.824461 0
M  V30 101 H 6.0525 -3.65822 2.23321 0
M  V30 102 H 10.2365 -3.78926 3.20513 0
M  V30 103 H 5.4925 -4.03018 4.59768 0
M  V30 104 H 9.6665 -4.17404 5.57447 0
M  V30 105 H 7.2935 -4.29064 6.27541 0
M  V30 106 N 8.8686 -0.792821 -1.36206 0
M  V30 107 C 10.1176 -0.363353 -1.984 0
M  V30 108 C 10.4306 1.07172 -1.63626 0
M  V30 109 O 11.6366 1.60362 -2.19081 0
M  V30 110 C 10.0926 -0.59872 -3.54885 0
M  V30 111 C 9.7006 -2.04543 -3.9858 0
M  V30 112 C 11.4446 -0.233926 -4.23855 0
M  V30 113 C 9.3516 -2.22727 -5.47856 0
M  V30 114 H 8.2816 -0.13212 -0.742334 0
M  V30 115 H 10.9326 -0.974935 -1.55458 0
M  V30 116 H 9.3146 0.0826222 -3.95914 0
M  V30 117 H 10.4886 -2.76345 -3.68741 0
M  V30 118 H 8.8036 -2.36879 -3.42458 0
M  V30 119 H 11.4006 -0.348027 -5.33566 0
M  V30 120 H 11.7436 0.818351 -4.08177 0
M  V30 121 H 12.2766 -0.868639 -3.882 0
M  V30 122 H 9.0156 -3.2635 -5.68486 0
M  V30 123 H 8.5356 -1.55434 -5.7931 0
M  V30 124 H 10.2146 -2.03607 -6.14128 0
M  V30 125 N 10.3467 1.47872 -0.545128 0
M  V30 126 C 11.6237 1.9554 0.0485222 0
M  V30 127 C 12.0037 1.4876 1.49779 0
M  V30 128 O 11.3517 0.720925 2.16829 0
M  V30 129 C 11.5617 3.48898 -0.084417 0
M  V30 130 C 12.9097 4.24547 0.0671239 0
M  V30 131 O 13.9337 3.56198 -0.0113649 0
M  V30 132 O 12.7927 5.45999 0.233882 0
M  V30 133 H 9.8867 0.823957 0.0708773 0
M  V30 134 H 12.4327 1.58327 -0.610798 0
M  V30 135 H 11.2047 3.75714 -1.09337 0
M  V30 136 H 10.8277 3.92845 0.613066 0
M  V30 137 N 11.8248 0.280983 1.55075 0
M  V30 138 C 13.0718 -0.334115 1.99725 0
M  V30 139 C 13.3998 -1.5542 1.1694 0
M  V30 140 O 12.6548 -1.94361 0.228531 0
M  V30 141 C 12.9538 -0.754656 3.49342 0
M  V30 142 C 12.6198 0.361445 4.49449 0
M  V30 143 C 11.2818 0.667893 4.76542 0
M  V30 144 C 13.6338 1.11322 5.09173 0
M  V30 145 C 10.9618 1.7296 5.60626 0
M  V30 146 C 13.3138 2.1647 5.9441 0
M  V30 147 C 11.9778 2.47742 6.19822 0
M  V30 148 H 11.2478 -0.122261 0.730844 0
M  V30 149 H 13.8948 0.395917 1.87363 0
M  V30 150 H 12.1998 -1.56446 3.5921 0
M  V30 151 H 13.8968 -1.24142 3.813 0
M  V30 152 H 10.4868 0.112481 4.28452 0
M  V30 153 H 14.6708 0.88973 4.8826 0
M  V30 154 H 9.9268 1.97684 5.78559 0
M  V30 155 H 14.1008 2.75193 6.3972 0
M  V30 156 H 11.7278 3.30145 6.84769 0
M  V30 157 N 13.3029 -1.57598 0.00835791 0
M  V30 158 C 14.2349 -2.05811 -1.00868 0
M  V30 159 C 15.2479 -0.977579 -1.30182 0
M  V30 160 O 16.4369 -1.25421 -1.27011 0
M  V30 161 C 13.5369 -2.45016 -2.34137 0
M  V30 162 C 12.7099 -3.75903 -2.23643 0
M  V30 163 C 11.7689 -4.01884 -3.3967 0
M  V30 164 O 10.7949 -4.72433 -3.17483 0
M  V30 165 N 11.9969 -3.50432 -4.62793 0
M  V30 166 H 14.7619 -2.93684 -0.597458 0
M  V30 167 H 12.3229 -1.60909 -0.178852 0
M  V30 168 H 14.3149 -2.59506 -3.10546 0
M  V30 169 H 12.8849 -1.62618 -2.66972 0
M  V30 170 H 12.1049 -3.7141 -1.32091 0
M  V30 171 H 13.3929 -4.61695 -2.13812 0
M  V30 172 H 12.7909 -2.93317 -4.83716 0
M  V30 173 H 11.3479 -3.70236 -5.3644 0
M  V30 174 N 14.781 0.264519 -1.55364 0
M  V30 175 C 16.028 0.994986 -1.7637 0
M  V30 176 C 16.356 1.85976 -0.5695 0
M  V30 177 O 15.611 1.90509 0.44776 0
M  V30 178 C 15.91 1.9004 -3.02687 0
M  V30 179 C 15.576 1.19243 -4.34847 0
M  V30 180 C 14.238 0.996709 -4.70764 0
M  V30 181 C 16.59 0.689296 -5.16622 0
M  V30 182 C 13.918 0.285261 -5.86006 0
M  V30 183 C 16.27 -0.00860079 -6.32599 0
M  V30 184 C 14.934 -0.215963 -6.67151 0
M  V30 185 H 14.204 0.364091 -0.645383 0
M  V30 186 H 16.851 0.266543 -1.89636 0
M  V30 187 H 15.156 2.69533 -2.84357 0
M  V30 188 H 16.853 2.46695 -3.16137 0
M  V30 189 H 13.443 1.3549 -4.06621 0
M  V30 190 H 17.627 0.828108 -4.89342 0
M  V30 191 H 12.883 0.113961 -6.11294 0
M  V30 192 H 17.057 -0.406186 -6.95214 0
M  V30 193 H 14.684 -0.769217 -7.56298 0
M  V30 194 N 16.2591 1.48442 0.529413 0
M  V30 195 C 17.1911 1.59095 1.64989 0
M  V30 196 C 18.2041 0.475212 1.5571 0
M  V30 197 O 19.3931 0.746081 1.6216 0
M  V30 198 C 16.4931 1.50518 3.0364 0
M  V30 199 C 15.6661 2.77142 3.38395 0
M  V30 200 C 14.7251 2.62012 4.56329 0
M  V30 201 O 13.7511 3.35898 4.59522 0
M  V30 202 N 14.9531 1.71667 5.54536 0
M  V30 203 H 17.7181 2.55723 1.56287 0
M  V30 204 H 15.2791 1.45173 0.716697 0
M  V30 205 H 17.2711 1.38091 3.80412 0
M  V30 206 H 15.8411 0.618627 3.06418 0
M  V30 207 H 15.0611 3.0413 2.50796 0
M  V30 208 H 16.3491 3.61146 3.58401 0
M  V30 209 H 15.7471 1.10841 5.54735 0
M  V30 210 H 14.3041 1.65178 6.30523 0
M  V30 211 N 17.7372 -0.778329 1.37039 0
M  V30 212 C 19.0142 -1.52551 1.22424 0
M  V30 213 C 19.3942 -2.10288 -0.184964 0
M  V30 214 O 18.7422 -1.94953 -1.19187 0
M  V30 215 C 18.9522 -2.61164 2.31504 0
M  V30 216 C 20.3002 -3.28746 2.68721 0
M  V30 217 O 21.3242 -2.71455 2.30631 0
M  V30 218 O 20.1832 -4.3231 3.3432 0
M  V30 219 H 17.2772 -0.675343 0.477326 0
M  V30 220 H 19.8232 -0.815859 1.48801 0
M  V30 221 H 18.5952 -2.16574 3.25901 0
M  V30 222 H 18.2182 -3.39737 2.06554 0
M  V30 223 N 19.2153 -1.21501 -1.00376 0
M  V30 224 C 20.4403 -1.05977 -1.78279 0
M  V30 225 C 20.8653 0.385994 -1.84097 0
M  V30 226 O 20.2233 1.27849 -1.28547 0
M  V30 227 C 20.2713 -1.66302 -3.19963 0
M  V30 228 O 19.3753 -0.909333 -4.0225 0
M  V30 229 H 18.7163 -0.372906 -0.549397 0
M  V30 230 H 21.2463 -1.6107 -1.26165 0
M  V30 231 H 21.2563 -1.70574 -3.70632 0
M  V30 232 H 19.9313 -2.71515 -3.15043 0
M  V30 233 H 18.5083 -0.941795 -3.60811 0
M  V30 234 N 20.6934 1.19889 -1.02296 0
M  V30 235 C 21.6414 2.24938 -0.592081 0
M  V30 236 C 22.6354 1.65257 0.372357 0
M  V30 237 O 23.8414 1.78371 0.241583 0
M  V30 238 H 20.2164 0.731787 -0.173182 0
M  V30 239 H 22.1874 2.58603 -1.48885 0
M  V30 240 C 20.9364 3.47668 0.047351 0
M  V30 241 H 20.2594 3.93875 -0.685772 0
M  V30 242 H 21.6994 4.22852 0.311862 0
M  V30 243 C 20.1584 3.11136 1.29212 0
M  V30 244 O 20.6884 3.2325 2.38479 0
M  V30 245 N 18.8944 2.65625 1.17863 0
M  V30 246 H 18.4414 2.55968 0.289493 0
M  V30 247 H 18.3994 2.41553 2.01245 0
M  V30 248 N 22.1715 0.800033 1.35784 0
M  V30 249 C 23.3965 0.388511 2.03729 0
M  V30 250 C 23.8215 -0.990481 1.5991 0
M  V30 251 O 23.1795 -1.64013 0.772612 0
M  V30 252 C 23.2275 0.4726 3.5749 0
M  V30 253 O 22.3315 -0.51646 4.09153 0
M  V30 254 H 21.6725 0.163271 0.643614 0
M  V30 255 H 24.2025 1.0841 1.73518 0
M  V30 256 H 24.2125 0.34003 4.06581 0
M  V30 257 H 22.8875 1.47848 3.88734 0
M  V30 258 H 21.4645 -0.344673 3.71304 0
M  V30 259 N 23.6496 -1.47581 0.552962 0
M  V30 260 C 24.8746 -2.07378 0.0300593 0
M  V30 261 C 25.2996 -1.40355 -1.25229 0
M  V30 262 O 24.6576 -0.477099 -1.7491 0
M  V30 263 C 24.7056 -3.60274 -0.153231 0
M  V30 264 O 23.8096 -3.94041 -1.21678 0
M  V30 265 H 23.1506 -0.662158 0.0494182 0
M  V30 266 H 25.6806 -1.89662 0.767434 0
M  V30 267 H 25.6906 -4.0633 -0.368761 0
M  V30 268 H 24.3656 -4.08455 0.783397 0
M  V30 269 H 22.9426 -3.59735 -0.982079 0
M  V30 270 N 25.1277 -0.289203 -1.54924 0
M  V30 271 C 26.0577 0.58549 -2.2604 0
M  V30 272 C 27.0387 1.14753 -1.25562 0
M  V30 273 O 28.2237 1.17906 -1.54311 0
M  V30 274 C 25.3537 1.76305 -2.99222 0
M  V30 275 C 24.3077 1.33191 -4.06748 0
M  V30 276 C 23.6337 2.5937 -4.6758 0
M  V30 277 C 24.9337 0.471775 -5.20165 0
M  V30 278 H 26.6277 -0.00763532 -2.99399 0
M  V30 279 H 24.1737 -0.00511229 -1.43999 0
M  V30 280 H 26.1267 2.38097 -3.47689 0
M  V30 281 H 24.8507 2.38223 -2.23422 0
M  V30 282 H 23.5097 0.737121 -3.59113 0
M  V30 283 H 23.1577 3.19576 -3.88433 0
M  V30 284 H 22.8577 2.31228 -5.40192 0
M  V30 285 H 24.3817 3.21985 -5.18804 0
M  V30 286 H 25.7957 0.995056 -5.64599 0
M  V30 287 H 24.1927 0.284639 -5.99425 0
M  V30 288 H 25.2627 -0.506041 -4.82252 0
M  V30 289 N 26.6058 1.57591 -0.0167156 0
M  V30 290 C 28.0218 1.55946 0.339557 0
M  V30 291 C 28.2218 1.02109 1.73713 0
M  V30 292 O 27.2778 0.662303 2.43659 0
M  V30 293 C 28.5908 3.00037 0.199499 0
M  V30 294 C 30.1388 3.11805 0.273193 0
M  V30 295 C 30.6138 4.57713 0.162068 0
M  V30 296 N 32.1048 4.6268 0.219444 0
M  V30 297 C 32.8398 5.73185 0.157054 0
M  V30 298 N 32.3358 6.92786 0.0442936 0
M  V30 299 N 34.1288 5.61707 0.21014 0
M  V30 300 H 26.2798 1.90921 -0.930758 0
M  V30 301 H 28.5428 0.877674 -0.358319 0
M  V30 302 H 28.2488 3.4333 -0.76273 0
M  V30 303 H 28.1228 3.64387 0.974786 0
M  V30 304 H 30.5098 2.68433 1.22587 0
M  V30 305 H 30.5908 2.50201 -0.532256 0
M  V30 306 H 30.2348 5.01763 -0.78714 0
M  V30 307 H 30.1648 5.17283 0.986222 0
M  V30 308 H 32.6558 3.76649 0.307246 0
M  V30 309 H 32.9688 7.728 0.00304069 0
M  V30 310 H 31.3138 6.94999 0.00968457 0
M  V30 311 H 34.5048 4.6716 0.296546 0
M  V30 312 H 34.6778 6.47807 0.158054 0
M  V30 313 N 28.0839 -0.256276 1.55502 0
M  V30 314 C 29.4949 -0.826068 1.67431 0
M  V30 315 C 29.8459 -1.86396 0.612446 0
M  V30 316 O 28.9709 -2.15031 -0.243025 0
M  V30 317 C 29.5659 -1.50512 3.03532 0
M  V30 318 C 28.1249 -2.02273 3.17431 0
M  V30 319 C 27.2719 -0.870548 2.63281 0
M  V30 320 H 30.2229 -0.0322728 1.58667 0
M  V30 321 H 30.2439 -2.37279 2.97454 0
M  V30 322 H 29.7559 -0.749484 3.80794 0
M  V30 323 H 27.8569 -2.80746 2.44974 0
M  V30 324 H 27.9699 -2.22655 4.24219 0
M  V30 325 H 26.3339 -1.26851 2.20864 0
M  V30 326 H 27.1169 -0.128149 3.43061 0
M  V30 327 N 29.562 -1.4872 -0.521534 0
M  V30 328 C 30.978 -1.35028 -0.850855 0
M  V30 329 C 31.178 -0.367712 -1.98116 0
M  V30 330 O 30.234 0.208037 -2.51642 0
M  V30 331 C 31.547 -2.75263 -1.21041 0
M  V30 332 C 33.095 -2.83813 -1.31981 0
M  V30 333 C 33.57 -4.24769 -1.71276 0
M  V30 334 N 35.061 -4.27482 -1.78363 0
M  V30 335 C 35.796 -5.33494 -2.1017 0
M  V30 336 N 35.292 -6.49775 -2.40343 0
M  V30 337 N 37.085 -5.20894 -2.11248 0
M  V30 338 H 29.236 -2.11214 0.22413 0
M  V30 339 H 31.499 -0.947252 0.0376439 0
M  V30 340 H 31.205 -3.48765 -0.453415 0
M  V30 341 H 31.079 -3.09327 -2.15863 0
M  V30 342 H 33.466 -2.10561 -2.06756 0
M  V30 343 H 33.547 -2.53358 -0.352596 0
M  V30 344 H 33.191 -4.9854 -0.970588 0
M  V30 345 H 33.121 -4.52673 -2.69062 0
M  V30 346 H 35.612 -3.43611 -1.57288 0
M  V30 347 H 35.925 -7.26402 -2.63743 0
M  V30 348 H 34.27 -6.53035 -2.37844 0
M  V30 349 H 37.461 -4.29065 -1.87139 0
M  V30 350 H 37.634 -6.03612 -2.35704 0
M  V30 351 N 31.0401 0.771051 -1.3745 0
M  V30 352 C 31.9701 1.89827 -1.3597 0
M  V30 353 C 32.9511 1.68562 -0.228216 0
M  V30 354 O 34.1361 1.8941 -0.428675 0
M  V30 355 C 31.2661 3.2712 -1.16662 0
M  V30 356 C 30.2201 3.6295 -2.2683 0
M  V30 357 C 29.5461 4.98791 -1.92644 0
M  V30 358 C 30.8461 3.69627 -3.69017 0
M  V30 359 H 32.5401 1.91323 -2.30295 0
M  V30 360 H 30.0861 0.919082 -1.10855 0
M  V30 361 H 32.0391 4.05615 -1.14256 0
M  V30 362 H 30.7631 3.26059 -0.187926 0
M  V30 363 H 29.4221 2.86763 -2.28392 0
M  V30 364 H 29.0701 4.94271 -0.933021 0
M  V30 365 H 28.7701 5.23733 -2.66416 0
M  V30 366 H 30.2941 5.79685 -1.91826 0
M  V30 367 H 31.7081 4.38273 -3.69581 0
M  V30 368 H 30.1051 4.06067 -4.41848 0
M  V30 369 H 31.1751 2.70273 -4.02592 0
M  V30 370 N 32.5182 1.22032 0.997298 0
M  V30 371 C 33.7662 1.04016 1.73278 0
M  V30 372 C 34.0872 -0.426255 1.90284 0
M  V30 373 O 33.3572 -1.30694 1.45931 0
M  V30 374 H 31.9372 0.381897 0.642 0
M  V30 375 H 34.5992 1.5347 1.20137 0
M  V30 376 H 33.6952 1.51441 2.72896 0
M  V30 377 N 33.9963 -1.19345 1.0293 0
M  V30 378 C 34.9443 -2.24621 0.604001 0
M  V30 379 C 35.9383 -1.65452 -0.363587 0
M  V30 380 O 37.1443 -1.78497 -0.23212 0
M  V30 381 H 33.5193 -0.730858 0.177061 0
M  V30 382 H 35.4903 -2.5781 1.50255 0
M  V30 383 C 34.2393 -3.47688 -0.0289127 0
M  V30 384 H 33.5623 -3.93505 0.706651 0
M  V30 385 H 35.0023 -4.23011 -0.289432 0
M  V30 386 C 33.4613 -3.11817 -1.2756 0
M  V30 387 O 33.9913 -3.2451 -2.36762 0
M  V30 388 N 32.1973 -2.66246 -1.16453 0
M  V30 389 H 31.7443 -2.56118 -0.275914 0
M  V30 390 H 31.7023 -2.42617 -1.99961 0
M  V30 391 N 35.4744 -0.807222 -1.35358 0
M  V30 392 C 36.4374 -0.223665 -2.28106 0
M  V30 393 C 37.4374 0.589354 -1.4961 0
M  V30 394 O 38.6274 0.407745 -1.69361 0
M  V30 395 C 35.7594 0.688149 -3.33882 0
M  V30 396 H 36.9524 -1.04169 -2.81227 0
M  V30 397 H 34.5054 -0.577921 -1.45223 0
M  V30 398 H 35.2404 1.52984 -2.85948 0
M  V30 399 H 35.0254 0.10687 -3.91954 0
M  V30 400 H 36.5154 1.09075 -4.03104 0
M  V30 401 N 36.9525 1.47285 -0.560781 0
M  V30 402 C 38.1805 2.06855 -0.0430262 0
M  V30 403 C 38.5955 1.41291 1.25229 0
M  V30 404 O 37.9525 0.510648 1.7521 0
M  V30 405 C 38.0035 3.61178 0.152518 0
M  V30 406 O 37.7245 4.24285 -1.0915 0
M  V30 407 C 39.2255 4.37624 0.707145 0
M  V30 408 H 36.4455 0.669319 -0.0474652 0
M  V30 409 H 38.9895 1.89237 -0.77521 0
M  V30 410 H 37.1445 3.78298 0.834843 0
M  V30 411 H 37.5585 5.16868 -0.891482 0
M  V30 412 H 39.0325 5.46271 0.793244 0
M  V30 413 H 39.5095 4.04152 1.71923 0
M  V30 414 H 40.1155 4.25257 0.0604027 0
M  V30 415 N 38.4306 0.297415 1.54768 0
M  V30 416 C 39.3936 -0.567375 2.22066 0
M  V30 417 C 40.3936 -1.06409 1.20556 0
M  V30 418 O 41.5836 -0.960691 1.45315 0
M  V30 419 C 38.7156 -1.78517 2.90421 0
M  V30 420 H 39.9086 0.0205534 2.99893 0
M  V30 421 H 37.4616 0.0482163 1.56226 0
M  V30 422 H 38.1966 -2.41303 2.16664 0
M  V30 423 H 37.9816 -1.43669 3.64831 0
M  V30 424 H 39.4716 -2.39964 3.41771 0
M  V30 425 N 39.9087 -1.5758 0.0250728 0
M  V30 426 C 40.8567 -2.11125 -0.97617 0
M  V30 427 C 41.8507 -1.03689 -1.33959 0
M  V30 428 O 43.0567 -1.22128 -1.3223 0
M  V30 429 H 39.4317 -0.674468 -0.332561 0
M  V30 430 H 41.4027 -2.94194 -0.499223 0
M  V30 431 C 40.1517 -2.65017 -2.2508 0
M  V30 432 H 39.4747 -3.47333 -1.9799 0
M  V30 433 H 40.9147 -3.06133 -2.93357 0
M  V30 434 C 39.3737 -1.57574 -2.97779 0
M  V30 435 O 39.9037 -0.973203 -3.89733 0
M  V30 436 N 38.1097 -1.29716 -2.60043 0
M  V30 437 H 37.6567 -1.789 -1.85345 0
M  V30 438 H 37.6147 -0.58051 -3.08994 0
M  V30 439 N 41.3868 0.248026 -1.55636 0
M  V30 440 C 42.3348 1.32683 -1.91045 0
M  V30 441 C 43.3288 1.49883 -0.789401 0
M  V30 442 O 44.5348 1.51371 -0.974007 0
M  V30 443 H 40.9098 0.444272 -0.606734 0
M  V30 444 H 42.8808 1.00085 -2.81115 0
M  V30 445 C 41.6298 2.6755 -2.22064 0
M  V30 446 H 40.9528 2.55114 -3.07826 0
M  V30 447 H 42.3928 3.41912 -2.50743 0
M  V30 448 C 40.8518 3.20556 -1.0366 0
M  V30 449 O 41.3818 4.00695 -0.284016 0
M  V30 450 N 39.5878 2.78568 -0.82753 0
M  V30 451 H 39.1348 2.1351 -1.44123 0
M  V30 452 H 39.0928 3.14378 -0.0369803 0
M  V30 453 N 42.8649 1.48995 0.513639 0
M  V30 454 C 44.0929 1.61531 1.29288 0
M  V30 455 C 44.5079 0.281801 1.86685 0
M  V30 456 O 43.8649 -0.731111 1.67215 0
M  V30 457 C 43.9159 2.67449 2.43215 0
M  V30 458 O 43.6369 3.95626 1.88179 0
M  V30 459 C 45.1379 2.90575 3.34785 0
M  V30 460 H 42.3579 0.544165 0.392588 0
M  V30 461 H 44.9019 1.9494 0.617956 0
M  V30 462 H 43.0569 2.36853 3.0656 0
M  V30 463 H 43.4709 4.53868 2.62876 0
M  V30 464 H 44.9449 3.68449 4.11035 0
M  V30 465 H 45.4219 2.00011 3.91015 0
M  V30 466 H 46.0279 3.22538 2.77218 0
M  V30 467 N 44.343 -0.763751 1.37857 0
M  V30 468 C 45.583 -1.53551 1.34913 0
M  V30 469 C 45.947 -1.91895 -0.0635882 0
M  V30 470 O 47.148 -2.67916 -0.217825 0
M  V30 471 C 45.419 -2.76126 2.26912 0
M  V30 472 S 46.978 -3.66105 2.41893 0
M  V30 473 H 43.796 -0.52559 0.478828 0
M  V30 474 H 46.398 -0.897435 1.73685 0
M  V30 475 H 45.102 -2.4605 3.28463 0
M  V30 476 H 44.633 -3.44887 1.89253 0
M  V30 477 H 46.648 -4.68473 1.63545 0
M  V30 478 N 45.8211 -1.22559 -0.990812 0
M  V30 479 C 47.0701 -1.04553 -1.72486 0
M  V30 480 C 47.3831 0.419349 -1.91052 0
M  V30 481 O 48.5891 0.719121 -2.61803 0
M  V30 482 C 47.0451 -1.82231 -3.10355 0
M  V30 483 C 46.6531 -3.32981 -2.99713 0
M  V30 484 C 48.3971 -1.7268 -3.87791 0
M  V30 485 C 46.3041 -4.03091 -4.32748 0
M  V30 486 H 45.2341 -0.387614 -0.646739 0
M  V30 487 H 47.8851 -1.46429 -1.10593 0
M  V30 488 H 46.2671 -1.33155 -3.72942 0
M  V30 489 H 47.4411 -3.89466 -2.46278 0
M  V30 490 H 45.7561 -3.43231 -2.35758 0
M  V30 491 H 48.3531 -2.22381 -4.86262 0
M  V30 492 H 48.6961 -0.687607 -4.10582 0
M  V30 493 H 49.2291 -2.1931 -3.31885 0
M  V30 494 H 45.9681 -5.07273 -4.15156 0
M  V30 495 H 45.4881 -3.51394 -4.86089 0
M  V30 496 H 47.1671 -4.08804 -5.01486 0
M  V30 497 N 47.2992 1.18797 -1.03562 0
M  V30 498 C 48.5452 1.8893 -0.737113 0
M  V30 499 C 48.8782 1.79837 0.732956 0
M  V30 500 O 48.1532 1.19525 1.5344 0
M  V30 501 C 48.4362 3.39607 -1.19745 0
M  V30 502 C 48.2892 3.57537 -2.72924 0
M  V30 503 C 49.6082 4.33069 -0.783526 0
M  V30 504 H 46.7272 0.686057 -0.269249 0
M  V30 505 H 49.3692 1.39797 -1.28673 0
M  V30 506 H 47.5192 3.81583 -0.729855 0
M  V30 507 H 49.1912 3.24688 -3.27682 0
M  V30 508 H 47.4342 3.00363 -3.12993 0
M  V30 509 H 48.1052 4.63238 -3.00191 0
M  V30 510 H 50.5812 3.98846 -1.18581 0
M  V30 511 H 49.4572 5.3707 -1.13343 0
M  V30 512 H 49.7182 4.40986 0.313681 0
M  V30 513 N 48.7773 0.814389 1.34928 0
M  V30 514 C 50.0543 0.321363 1.92942 0
M  V30 515 C 50.4343 -1.19014 1.74353 0
M  V30 516 O 49.7823 -1.99328 1.11716 0
M  V30 517 C 49.9923 0.741323 3.41036 0
M  V30 518 C 51.3403 0.735266 4.18185 0
M  V30 519 O 52.3643 0.68336 3.49584 0
M  V30 520 O 51.2233 0.800703 5.40602 0
M  V30 521 H 48.3173 0.0858893 0.822528 0
M  V30 522 H 50.8633 0.898609 1.43955 0
M  V30 523 H 49.6353 1.78276 3.4833 0
M  V30 524 H 49.2583 0.139307 3.97356 0
M  V30 525 N 50.2554 -1.46986 0.568584 0
M  V30 526 C 51.5324 -1.95592 -0.0174074 0
M  V30 527 C 51.9124 -1.51124 -1.47393 0
M  V30 528 O 51.2604 -0.755329 -2.15655 0
M  V30 529 C 51.4704 -3.48719 0.139913 0
M  V30 530 C 52.8184 -4.246 0.000426376 0
M  V30 531 O 53.8424 -3.56135 0.0680316 0
M  V30 532 O 52.7014 -5.46302 -0.146988 0
M  V30 533 H 49.7954 -0.82498 -0.0577599 0
M  V30 534 H 52.3414 -1.57335 0.635909 0
M  V30 535 H 51.1134 -3.73927 1.15301 0
M  V30 536 H 50.7364 -3.93771 -0.550491 0
M  V30 537 N 51.7335 -0.305618 -1.54608 0
M  V30 538 C 52.9585 0.307562 -2.05107 0
M  V30 539 C 53.3835 1.46385 -1.18123 0
M  V30 540 O 52.7415 1.8034 -0.186324 0
M  V30 541 C 52.7895 0.73704 -3.52987 0
M  V30 542 O 51.8935 1.84134 -3.6901 0
M  V30 543 H 51.2345 0.0589143 -0.661381 0
M  V30 544 H 53.7645 -0.448807 -1.99617 0
M  V30 545 H 53.7745 1.02459 -3.94925 0
M  V30 546 H 52.4495 -0.108773 -4.15758 0
M  V30 547 H 51.0265 1.55398 -3.38978 0
M  V30 548 N 53.2116 1.57565 -0.0334293 0
M  V30 549 C 54.4586 1.91978 0.644272 0
M  V30 550 C 54.7866 0.910231 1.71887 0
M  V30 551 O 54.0416 -0.0801961 1.95536 0
M  V30 552 C 54.3406 3.33112 1.29504 0
M  V30 553 C 54.0066 4.49537 0.350388 0
M  V30 554 C 52.6686 4.81115 0.0903974 0
M  V30 555 C 55.0206 5.20347 -0.298032 0
M  V30 556 C 52.3486 5.8086 -0.825746 0
M  V30 557 C 54.7006 6.2107 -1.20226 0
M  V30 558 C 53.3646 6.51088 -1.4711 0
M  V30 559 H 52.6346 0.702496 0.235756 0
M  V30 560 H 55.2816 1.91259 -0.0961176 0
M  V30 561 H 53.5866 3.30113 2.11028 0
M  V30 562 H 55.2836 3.57011 1.82603 0
M  V30 563 H 51.8736 4.24883 0.563205 0
M  V30 564 H 56.0576 4.96178 -0.110234 0
M  V30 565 H 51.3136 6.02461 -1.04169 0
M  V30 566 H 55.4876 6.75057 -1.71086 0
M  V30 567 H 53.1146 7.28193 -2.18264 0
M  V30 568 N 54.6897 -0.239769 1.55765 0
M  V30 569 C 55.6367 -1.29696 1.90913 0
M  V30 570 C 56.6067 -1.47478 0.764164 0
M  V30 571 O 57.7917 -1.61345 1.01845 0
M  V30 572 C 54.9317 -2.64598 2.21544 0
M  V30 573 C 54.0447 -2.54765 3.48882 0
M  V30 574 C 53.1797 -3.82069 3.69049 0
M  V30 575 C 52.2187 -3.66883 4.89963 0
M  V30 576 N 51.3557 -4.86094 5.06614 0
M  V30 577 H 56.1957 -0.990224 2.81067 0
M  V30 578 H 53.7327 -0.477684 1.39128 0
M  V30 579 H 55.6907 -3.43132 2.3731 0
M  V30 580 H 54.3207 -2.93405 1.34585 0
M  V30 581 H 53.3727 -1.67763 3.41409 0
M  V30 582 H 54.6847 -2.39457 4.37563 0
M  V30 583 H 53.8387 -4.69046 3.84812 0
M  V30 584 H 52.5777 -4.00282 2.78614 0
M  V30 585 H 51.5827 -2.78289 4.74168 0
M  V30 586 H 52.8077 -3.50157 5.81865 0
M  V30 587 H 50.7537 -5.04655 4.19117 0
M  V30 588 H 50.6707 -4.73443 5.89396 0
M  V30 589 H 51.9387 -5.74549 5.26795 0
M  V30 590 N 56.1678 -1.49265 -0.50573 0
M  V30 591 C 57.3978 -1.61979 -1.28243 0
M  V30 592 C 57.8058 -0.288576 -1.86986 0
M  V30 593 O 57.1488 0.735408 -1.68337 0
M  V30 594 C 57.2108 -2.62632 -2.45489 0
M  V30 595 C 56.8748 -4.071 -2.07651 0
M  V30 596 C 57.8718 -4.94049 -1.61901 0
M  V30 597 C 55.5568 -4.52801 -2.17431 0
M  V30 598 C 57.5508 -6.24736 -1.26428 0
M  V30 599 C 55.2378 -5.83503 -1.8157 0
M  V30 600 C 56.2358 -6.69294 -1.36142 0
M  V30 601 O 55.9238 -7.9756 -1.00764 0
M  V30 602 H 55.6558 -0.54834 -0.395347 0
M  V30 603 H 58.2098 -1.96002 -0.614204 0
M  V30 604 H 56.4398 -2.2378 -3.15372 0
M  V30 605 H 58.1288 -2.64925 -3.07522 0
M  V30 606 H 58.8948 -4.5997 -1.53795 0
M  V30 607 H 54.7738 -3.86196 -2.51742 0
M  V30 608 H 58.3178 -6.91652 -0.908992 0
M  V30 609 H 54.2148 -6.17112 -1.89324 0
M  V30 610 H 54.9828 -8.10529 -1.13952 0
M  V30 611 N 57.6459 0.756429 -1.3826 0
M  V30 612 C 58.5939 1.89149 -1.35372 0
M  V30 613 C 59.5879 1.67691 -0.24004 0
M  V30 614 O 60.7939 1.75294 -0.408919 0
M  V30 615 H 57.1689 0.622271 -0.422236 0
M  V30 616 H 59.1399 1.88701 -2.31159 0
M  V30 617 C 57.8889 3.26599 -1.19284 0
M  V30 618 H 57.2119 3.43695 -2.0424 0
M  V30 619 H 58.6519 4.06274 -1.21316 0
M  V30 620 C 57.1109 3.3675 0.100454 0
M  V30 621 O 57.6409 3.86951 1.07851 0
M  V30 622 N 55.8469 2.90179 0.15633 0
M  V30 623 H 55.3939 2.49517 -0.640253 0
M  V30 624 H 55.3519 2.97352 1.02123 0
M  V30 625 N 59.124 1.23083 0.984299 0
M  V30 626 C 60.054 1.03292 2.09411 0
M  V30 627 C 61.035 -0.048923 1.7003 0
M  V30 628 O 62.22 0.114967 1.93859 0
M  V30 629 C 59.35 0.619155 3.41736 0
M  V30 630 C 58.304 1.64791 3.95004 0
M  V30 631 C 57.63 1.0897 5.23478 0
M  V30 632 C 58.93 3.03999 4.24714 0
M  V30 633 H 60.624 1.96119 2.26225 0
M  V30 634 H 58.17 0.944344 1.08711 0
M  V30 635 H 60.123 0.467777 4.18796 0
M  V30 636 H 58.847 -0.344786 3.24775 0
M  V30 637 H 57.506 1.78721 3.20085 0
M  V30 638 H 57.154 0.11686 5.02864 0
M  V30 639 H 56.854 1.77704 5.60085 0
M  V30 640 H 58.378 0.950093 6.03163 0
M  V30 641 H 59.792 2.93393 4.92538 0
M  V30 642 H 58.189 3.69936 4.72512 0
M  V30 643 H 59.259 3.53285 3.32142 0
M  V30 644 N 60.6021 -1.18246 1.0419 0
M  V30 645 C 61.5501 -2.23968 0.627792 0
M  V30 646 C 62.5441 -1.65828 -0.346019 0
M  V30 647 O 63.7501 -1.78733 -0.213175 0
M  V30 648 H 60.1251 -0.728939 0.184802 0
M  V30 649 H 62.0961 -2.56202 1.52981 0
M  V30 650 C 60.8451 -3.47699 0.00796591 0
M  V30 651 H 60.1681 -3.92734 0.748347 0
M  V30 652 H 61.6081 -4.23294 -0.24455 0
M  V30 653 C 60.0671 -3.13153 -1.24246 0
M  V30 654 O 60.5971 -3.27003 -2.33307 0
M  V30 655 N 58.8031 -2.67467 -1.13622 0
M  V30 656 H 58.3501 -2.56396 -0.248734 0
M  V30 657 H 58.3081 -2.44724 -1.97377 0
M  V30 658 N 62.0802 -0.821533 -1.34494 0
M  V30 659 C 63.3282 -0.408139 -1.97936 0
M  V30 660 C 63.6492 1.03193 -1.65457 0
M  V30 661 O 62.9192 1.71622 -0.944595 0
M  V30 662 H 61.4992 -0.147928 -0.732206 0
M  V30 663 H 64.1612 -1.05067 -1.64155 0
M  V30 664 H 63.2572 -0.52601 -3.07635 0
M  V30 665 N 63.5583 1.46682 -0.576371 0
M  V30 666 C 64.5213 2.28707 0.150239 0
M  V30 667 C 65.5213 1.38035 0.824794 0
M  V30 668 O 66.7113 1.60476 0.677719 0
M  V30 669 C 63.8433 3.18248 1.22192 0
M  V30 670 H 65.0363 2.94423 -0.570521 0
M  V30 671 H 62.5893 1.52688 -0.334078 0
M  V30 672 H 63.3243 2.57265 1.97447 0
M  V30 673 H 63.1093 3.85 0.742812 0
M  V30 674 H 64.5993 3.80001 1.73172 0
M  V30 675 N 65.0364 0.313813 1.54444 0
M  V30 676 C 66.2824 -0.292108 2.00685 0
M  V30 677 C 66.6154 -1.52548 1.20177 0
M  V30 678 O 65.8904 -1.92452 0.281531 0
M  V30 679 C 66.1734 -0.635968 3.5444 0
M  V30 680 C 66.0264 0.607437 4.4568 0
M  V30 681 C 67.3454 -1.45747 4.15266 0
M  V30 682 H 64.4644 -0.104697 0.729526 0
M  V30 683 H 67.1064 0.428457 1.85106 0
M  V30 684 H 65.2564 -1.24986 3.67846 0
M  V30 685 H 66.9284 1.24581 4.44159 0
M  V30 686 H 65.1714 1.23822 4.15753 0
M  V30 687 H 65.8424 0.322515 5.51057 0
M  V30 688 H 68.3184 -0.938645 4.05375 0
M  V30 689 H 67.1944 -1.66683 5.2298 0
M  V30 690 H 67.4554 -2.45063 3.67963 0
M  V30 691 N 66.5145 -1.57545 0.0417849 0
M  V30 692 C 67.7445 -1.96339 -0.642995 0
M  V30 693 C 68.1525 -0.917536 -1.65463 0
M  V30 694 O 67.4955 0.107747 -1.83384 0
M  V30 695 C 67.5575 -3.31333 -1.39494 0
M  V30 696 C 67.2215 -4.53796 -0.540204 0
M  V30 697 C 68.2185 -5.19553 0.189806 0
M  V30 698 C 65.9035 -5.0006 -0.473886 0
M  V30 699 C 67.8975 -6.29904 0.974674 0
M  V30 700 C 65.5845 -6.10289 0.314677 0
M  V30 701 C 66.5825 -6.75072 1.03765 0
M  V30 702 O 66.2705 -7.83183 1.81327 0
M  V30 703 H 66.0025 -0.651241 -0.181277 0
M  V30 704 H 68.5565 -2.05148 0.101665 0
M  V30 705 H 66.7865 -3.19052 -2.18502 0
M  V30 706 H 68.4755 -3.54942 -1.96904 0
M  V30 707 H 69.2415 -4.84774 0.147981 0
M  V30 708 H 65.1205 -4.49433 -1.0262 0
M  V30 709 H 68.6645 -6.80401 1.5395 0
M  V30 710 H 64.5615 -6.44506 0.358174 0
M  V30 711 H 65.3295 -7.99913 1.73438 0
M  V30 712 N 67.9926 0.231505 -1.5589 0
M  V30 713 C 69.2176 0.978689 -1.82856 0
M  V30 714 C 69.6426 1.77559 -0.620846 0
M  V30 715 O 69.0006 1.76119 0.430305 0
M  V30 716 C 69.0486 1.87997 -3.07716 0
M  V30 717 O 68.1526 2.97393 -2.85712 0
M  V30 718 H 67.4936 0.277663 -0.603158 0
M  V30 719 H 70.0236 0.24783 -2.03093 0
M  V30 720 H 70.0336 2.2917 -3.37558 0
M  V30 721 H 68.7086 1.29417 -3.95252 0
M  V30 722 H 67.2856 2.60238 -2.67078 0
M  V30 723 N 69.4707 1.49531 0.497807 0
M  V30 724 C 70.7167 1.59415 1.25358 0
M  V30 725 C 71.0497 0.281422 1.9215 0
M  V30 726 O 70.3247 -0.715249 1.80871 0
M  V30 727 C 70.6077 2.75566 2.3181 0
M  V30 728 C 70.4607 4.16642 1.69498 0
M  V30 729 C 71.7797 2.87347 3.33346 0
M  V30 730 H 68.8987 0.580244 0.454408 0
M  V30 731 H 71.5407 1.81827 0.551262 0
M  V30 732 H 69.6907 2.56587 2.91711 0
M  V30 733 H 71.3627 4.47145 1.13399 0
M  V30 734 H 69.6057 4.22141 0.998978 0
M  V30 735 H 70.2767 4.93792 2.46725 0
M  V30 736 H 72.7527 3.04634 2.83438 0
M  V30 737 H 71.6287 3.70289 4.05188 0
M  V30 738 H 71.8897 1.96834 3.95865 0
M  V30 739 N 70.9488 -0.749086 1.3866 0
M  V30 740 C 72.1948 -1.51056 1.35314 0
M  V30 741 C 72.5278 -1.94121 -0.0553751 0
M  V30 742 O 71.8028 -1.65763 -1.01749 0
M  V30 743 C 72.0858 -2.76003 2.31288 0
M  V30 744 C 71.9388 -2.39047 3.8102 0
M  V30 745 C 73.2578 -3.78046 2.2532 0
M  V30 746 H 70.3768 -0.547972 0.492844 0
M  V30 747 H 73.0188 -0.857628 1.69543 0
M  V30 748 H 71.1688 -3.31716 2.02229 0
M  V30 749 H 72.8408 -1.89074 4.20771 0
M  V30 750 H 71.0838 -1.71449 3.98482 0
M  V30 751 H 71.7548 -3.28462 4.4364 0
M  V30 752 H 74.2308 -3.31884 2.50983 0
M  V30 753 H 73.1068 -4.63159 2.94576 0
M  V30 754 H 73.3678 -4.23957 1.25352 0
M  V30 755 N 72.4269 -1.23603 -0.977757 0
M  V30 756 C 73.6739 -1.06971 -1.71941 0
M  V30 757 C 74.0019 0.393009 -1.90488 0
M  V30 758 O 73.2569 1.30719 -1.4564 0
M  V30 759 C 73.5559 -1.7433 -3.11999 0
M  V30 760 C 73.2219 -3.24252 -3.13323 0
M  V30 761 C 71.8839 -3.65156 -3.13392 0
M  V30 762 C 74.2359 -4.20141 -3.08433 0
M  V30 763 C 71.5639 -5.00403 -3.0629 0
M  V30 764 C 73.9159 -5.55384 -3.02873 0
M  V30 765 C 72.5799 -5.95647 -3.01265 0
M  V30 766 H 71.8499 -0.391433 -0.629175 0
M  V30 767 H 74.4969 -1.53572 -1.14403 0
M  V30 768 H 72.8019 -1.20096 -3.7294 0
M  V30 769 H 74.4989 -1.58936 -3.68158 0
M  V30 770 H 71.0889 -2.91692 -3.14029 0
M  V30 771 H 75.2729 -3.89547 -3.07517 0
M  V30 772 H 70.5289 -5.3081 -3.03399 0
M  V30 773 H 74.7029 -6.29398 -2.98046 0
M  V30 774 H 72.3299 -7.0041 -2.95516 0
M  V30 775 N 73.905 1.17692 -1.04816 0
M  V30 776 C 75.154 1.87192 -0.751132 0
M  V30 777 C 75.467 1.8169 0.724441 0
M  V30 778 O 76.673 2.46625 1.13527 0
M  V30 779 C 75.129 3.35857 -1.29338 0
M  V30 780 C 74.737 3.4987 -2.79812 0
M  V30 781 C 76.481 4.10709 -1.07322 0
M  V30 782 C 74.388 4.92536 -3.27356 0
M  V30 783 H 73.318 0.701162 -0.277288 0
M  V30 784 H 75.969 1.32932 -1.26496 0
M  V30 785 H 74.351 3.89631 -0.707376 0
M  V30 786 H 75.525 3.06332 -3.44235 0
M  V30 787 H 73.84 2.88433 -3.00325 0
M  V30 788 H 76.437 5.15952 -1.4035 0
M  V30 789 H 76.78 4.16299 -0.0108001 0
M  V30 790 H 77.313 3.6313 -1.62423 0
M  V30 791 H 74.052 4.92119 -4.33012 0
M  V30 792 H 73.572 5.3676 -2.67673 0
M  V30 793 H 75.251 5.61288 -3.21815 0
M  V30 794 N 75.3831 0.828654 1.34056 0
M  V30 795 C 76.3131 0.269443 2.3194 0
M  V30 796 C 77.2941 -0.617247 1.58506 0
M  V30 797 O 78.4791 -0.542931 1.86456 0
M  V30 798 C 75.6091 -0.564793 3.42677 0
M  V30 799 C 74.5631 0.225241 4.27407 0
M  V30 800 C 73.8891 -0.7321 5.29664 0
M  V30 801 C 75.1891 1.43663 5.02154 0
M  V30 802 H 76.8831 1.08728 2.7896 0
M  V30 803 H 74.4291 0.524283 1.34117 0
M  V30 804 H 76.3821 -0.966233 4.10173 0
M  V30 805 H 75.1061 -1.41574 2.9432 0
M  V30 806 H 73.7651 0.608117 3.61521 0
M  V30 807 H 73.4131 -1.57916 4.77568 0
M  V30 808 H 73.1131 -0.20767 5.87233 0
M  V30 809 H 74.6371 -1.13128 6.00029 0
M  V30 810 H 76.0511 1.1089 5.62473 0
M  V30 811 H 74.4481 1.89711 5.69324 0
M  V30 812 H 75.5181 2.21181 4.31517 0
M  V30 813 N 76.8612 -1.46375 0.584142 0
M  V30 814 C 78.1092 -2.01978 0.0701287 0
M  V30 815 C 78.4302 -1.4579 -1.295 0
M  V30 816 O 77.7002 -0.64314 -1.85042 0
M  V30 817 H 76.2802 -0.746648 0.0229345 0
M  V30 818 H 78.9422 -1.79461 0.760245 0
M  V30 819 H 78.0382 -3.121 0.0022064 0
M  V30 820 N 78.3393 -0.321999 -1.54275 0
M  V30 821 C 79.2693 0.537411 -2.27231 0
M  V30 822 C 80.2503 1.12064 -1.27968 0
M  V30 823 O 81.4353 1.14606 -1.56777 0
M  V30 824 C 78.5653 1.69919 -3.02894 0
M  V30 825 C 77.5193 1.24534 -4.09482 0
M  V30 826 C 76.8453 2.49394 -4.72977 0
M  V30 827 C 78.1453 0.361335 -5.21049 0
M  V30 828 H 79.8393 -0.0711406 -2.99315 0
M  V30 829 H 77.3853 -0.0356555 -1.43956 0
M  V30 830 H 79.3383 2.30668 -3.52662 0
M  V30 831 H 78.0623 2.33431 -2.28424 0
M  V30 832 H 76.7213 0.660782 -3.60596 0
M  V30 833 H 76.3693 3.11265 -3.95124 0
M  V30 834 H 76.0693 2.19718 -5.44975 0
M  V30 835 H 77.5933 3.10908 -5.25517 0
M  V30 836 H 79.0073 0.875072 -5.66582 0
M  V30 837 H 77.4043 0.157428 -5.99893 0
M  V30 838 H 78.4743 -0.60822 -4.8107 0
M  V30 839 N 79.8174 1.5752 -0.0501392 0
M  V30 840 C 81.0664 1.91827 0.623328 0
M  V30 841 C 81.3794 0.930222 1.72065 0
M  V30 842 O 82.5854 1.1653 2.4522 0
M  V30 843 C 81.0414 3.40692 1.16003 0
M  V30 844 C 80.6494 4.479 0.0948811 0
M  V30 845 C 82.3934 3.84034 1.80881 0
M  V30 846 C 80.3004 5.87879 0.644411 0
M  V30 847 H 79.2304 0.715918 0.236596 0
M  V30 848 H 81.8814 1.83115 -0.118861 0
M  V30 849 H 80.2634 3.44405 1.9545 0
M  V30 850 H 81.4374 4.55775 -0.678675 0
M  V30 851 H 79.7524 4.13892 -0.45637 0
M  V30 852 H 82.3494 4.85984 2.22988 0
M  V30 853 H 82.6924 3.20225 2.6601 0
M  V30 854 H 83.2254 3.82833 1.0809 0
M  V30 855 H 79.9644 6.55282 -0.169229 0
M  V30 856 H 79.4844 5.83567 1.38598 0
M  V30 857 H 81.1634 6.37098 1.12763 0
M  V30 858 N 81.2955 -0.223234 1.56011 0
M  V30 859 C 82.5235 -0.964812 1.83027 0
M  V30 860 C 82.9385 -1.78013 0.62904 0
M  V30 861 O 82.2955 -1.78008 -0.402414 0
M  V30 862 C 82.3465 -1.88373 3.08542 0
M  V30 863 O 82.0675 -1.10137 4.2403 0
M  V30 864 C 83.5685 -2.73934 3.48533 0
M  V30 865 H 80.7885 -0.282842 0.608475 0
M  V30 866 H 83.3325 -0.238971 2.03099 0
M  V30 867 H 81.4875 -2.56354 2.9045 0
M  V30 868 H 81.9015 -1.72501 4.95322 0
M  V30 869 H 83.3755 -3.34117 4.39397 0
M  V30 870 H 83.8525 -3.46244 2.70207 0
M  V30 871 H 84.4585 -2.11369 3.69057 0
M  V30 872 N 82.7736 -1.49793 -0.48987 0
M  V30 873 C 83.7216 -1.67783 -1.61095 0
M  V30 874 C 84.7156 -0.543683 -1.60438 0
M  V30 875 O 85.9216 -0.723647 -1.64813 0
M  V30 876 H 82.2966 -0.529255 -0.534222 0
M  V30 877 H 84.2676 -2.61861 -1.43078 0
M  V30 878 C 83.0166 -1.77191 -2.99164 0
M  V30 879 H 82.3396 -2.63841 -3.0038 0
M  V30 880 H 83.7796 -1.93809 -3.77113 0
M  V30 881 C 82.2386 -0.519203 -3.32875 0
M  V30 882 O 82.7686 0.350124 -4.00171 0
M  V30 883 N 80.9746 -0.378816 -2.8812 0
M  V30 884 H 80.5216 -1.08725 -2.33531 0
M  V30 885 H 80.4796 0.458239 -3.11043 0
M  V30 886 N 84.2517 0.741722 -1.39055 0
M  V30 887 C 85.4767 1.53607 -1.39354 0
M  V30 888 C 85.9017 1.88096 0.0116905 0
M  V30 889 O 85.2597 1.5143 0.996924 0
M  V30 890 C 85.3077 2.80441 -2.26682 0
M  V30 891 O 84.4117 3.76088 -1.69208 0
M  V30 892 H 83.7527 0.464142 -0.474835 0
M  V30 893 H 86.2827 0.915665 -1.82967 0
M  V30 894 H 86.2927 3.29246 -2.40959 0
M  V30 895 H 84.9677 2.5467 -3.2881 0
M  V30 896 H 83.5447 3.34833 -1.64138 0
M  V30 897 N 85.7298 1.2412 0.971189 0
M  V30 898 C 86.9758 1.08041 1.71625 0
M  V30 899 C 87.3088 -0.380407 1.90438 0
M  V30 900 O 86.5838 -1.28127 1.46334 0
M  V30 901 C 86.8668 1.81682 3.10908 0
M  V30 902 C 86.7198 3.35493 2.99608 0
M  V30 903 C 88.0388 1.58671 4.10501 0
M  V30 904 H 85.1578 0.39388 0.622919 0
M  V30 905 H 87.7998 1.52743 1.13003 0
M  V30 906 H 85.9498 1.43684 3.60953 0
M  V30 907 H 87.6218 3.83068 2.57015 0
M  V30 908 H 85.8648 3.64052 2.35899 0
M  V30 909 H 86.5358 3.82217 3.98264 0
M  V30 910 H 89.0118 1.91719 3.69301 0
M  V30 911 H 87.8878 2.1266 5.06031 0
M  V30 912 H 88.1488 0.524161 4.38982 0
M  V30 913 N 87.2079 -1.17134 1.05439 0
M  V30 914 C 88.4329 -1.91913 0.786396 0
M  V30 915 C 88.8579 -1.7643 -0.652234 0
M  V30 916 O 88.2159 -1.08372 -1.45345 0
M  V30 917 C 88.2639 -3.40921 1.17497 0
M  V30 918 O 87.3679 -4.11244 0.308589 0
M  V30 919 H 86.7089 -0.598215 0.288158 0
M  V30 920 H 89.2389 -1.48457 1.4079 0
M  V30 921 H 89.2489 -3.91668 1.14281 0
M  V30 922 H 87.9239 -3.5151 2.22292 0
M  V30 923 H 86.5009 -3.70731 0.40157 0
M  V30 924 N 88.686 -0.835752 -1.33615 0
M  V30 925 C 89.616 -0.281739 -2.31794 0
M  V30 926 C 90.597 0.608833 -1.58831 0
M  V30 927 O 91.782 0.533035 -1.86741 0
M  V30 928 C 88.912 0.546612 -3.42971 0
M  V30 929 C 87.866 -0.247904 -4.27281 0
M  V30 930 C 87.192 0.704001 -5.30045 0
M  V30 931 C 88.492 -1.46324 -5.01385 0
M  V30 932 H 90.186 -1.10206 -2.78379 0
M  V30 933 H 87.732 -0.531388 -1.33837 0
M  V30 934 H 89.685 0.944467 -4.1068 0
M  V30 935 H 88.409 1.40011 -2.95067 0
M  V30 936 H 87.068 -0.627281 -3.61194 0
M  V30 937 H 86.716 1.55381 -4.78399 0
M  V30 938 H 86.416 0.176524 -5.87335 0
M  V30 939 H 87.94 1.09944 -6.0062 0
M  V30 940 H 89.354 -1.13871 -5.61877 0
M  V30 941 H 87.751 -1.92728 -5.6831 0
M  V30 942 H 88.821 -2.23467 -4.30338 0
M  V30 943 N 90.1641 1.46063 -0.591896 0
M  V30 944 C 91.4111 2.02338 -0.0809991 0
M  V30 945 C 91.7391 1.46228 1.28249 0
M  V30 946 O 90.9941 0.620818 1.85592 0
M  V30 947 C 91.2931 3.57391 0.0249813 0
M  V30 948 C 90.9591 4.32583 -1.27211 0
M  V30 949 C 89.6211 4.52844 -1.62745 0
M  V30 950 C 91.9731 4.75687 -2.13005 0
M  V30 951 C 89.3011 5.13462 -2.83855 0
M  V30 952 C 91.6531 5.37644 -3.3335 0
M  V30 953 C 90.3171 5.5613 -3.69155 0
M  V30 954 H 89.5871 0.740407 -0.0296397 0
M  V30 955 H 92.2341 1.75321 -0.770374 0
M  V30 956 H 90.5391 3.83597 0.797537 0
M  V30 957 H 92.2361 3.98621 0.436184 0
M  V30 958 H 88.8261 4.17116 -0.985499 0
M  V30 959 H 93.0101 4.59782 -1.86855 0
M  V30 960 H 88.2661 5.25965 -3.11722 0
M  V30 961 H 92.4401 5.7 -4.00092 0
M  V30 962 H 90.0671 6.0287 -4.63089 0
M  V30 963 N 91.6422 0.330177 1.54103 0
M  V30 964 C 92.8882 -0.270806 2.00984 0
M  V30 965 C 93.2212 -1.51265 1.21789 0
M  V30 966 O 92.4962 -1.92142 0.301927 0
M  V30 967 C 92.7792 -0.598339 3.55094 0
M  V30 968 C 92.6322 0.654674 4.4501 0
M  V30 969 C 93.9512 -1.41334 4.16789 0
M  V30 970 H 91.0702 -0.0969531 0.730595 0
M  V30 971 H 93.7122 0.448066 1.84641 0
M  V30 972 H 91.8622 -1.21078 3.69151 0
M  V30 973 H 93.5342 1.29285 4.42813 0
M  V30 974 H 91.7772 1.28224 4.14416 0
M  V30 975 H 92.4482 0.380944 5.50684 0
M  V30 976 H 94.9242 -0.895597 4.06347 0
M  V30 977 H 93.8002 -1.61127 5.24718 0
M  V30 978 H 94.0612 -2.41146 3.70541 0
M  V30 979 N 93.1203 -1.57491 0.0584922 0
M  V30 980 C 94.3673 -1.92978 -0.613648 0
M  V30 981 C 94.6953 -0.937461 -1.70417 0
M  V30 982 O 93.9503 0.049078 -1.95638 0
M  V30 983 C 94.2493 -3.3513 -1.24188 0
M  V30 984 C 93.9153 -4.50037 -0.278826 0
M  V30 985 C 92.5773 -4.81198 -0.0138447 0
M  V30 986 C 94.9293 -5.19807 0.380777 0
M  V30 987 C 92.2573 -5.79473 0.918052 0
M  V30 988 C 94.6093 -6.19079 1.30091 0
M  V30 989 C 93.2733 -6.48665 1.57449 0
M  V30 990 H 92.5433 -0.706157 -0.22455 0
M  V30 991 H 95.1903 -1.91082 0.126533 0
M  V30 992 H 93.4953 -3.33429 -2.05749 0
M  V30 993 H 95.1923 -3.59871 -1.769 0
M  V30 994 H 91.7823 -4.25726 -0.495539 0
M  V30 995 H 95.9663 -4.95939 0.189158 0
M  V30 996 H 91.2223 -6.00727 1.1374 0
M  V30 997 H 95.3963 -6.7225 1.81804 0
M  V30 998 H 93.0233 -7.24628 2.29822 0
M  V30 999 N 94.5984 0.214957 -1.56127 0
M  V30 1000 C 95.8384 0.945364 -1.81224 0
M  V30 1001 C 96.2024 1.81265 -0.633005 0
M  V30 1002 O 97.4034 2.57731 -0.763423 0
M  V30 1003 C 95.6744 1.75665 -3.1125 0
M  V30 1004 S 97.2334 2.54179 -3.57685 0
M  V30 1005 H 94.0514 0.317443 -0.6362 0
M  V30 1006 H 96.6534 0.210381 -1.94365 0
M  V30 1007 H 95.3574 1.10977 -3.9511 0
M  V30 1008 H 94.8884 2.53381 -3.00934 0
M  V30 1009 H 96.9034 3.7792 -3.21545 0
M  V30 1010 N 96.0765 1.50051 0.48192 0
M  V30 1011 C 97.3235 1.60498 1.23477 0
M  V30 1012 C 97.6515 0.300331 1.92167 0
M  V30 1013 O 96.9065 -0.713094 1.82246 0
M  V30 1014 C 97.2055 2.72717 2.30998 0
M  V30 1015 C 96.8715 4.13572 1.79636 0
M  V30 1016 C 95.5335 4.519 1.65348 0
M  V30 1017 C 97.8855 5.01649 1.41412 0
M  V30 1018 C 95.2135 5.76057 1.11244 0
M  V30 1019 C 97.5655 6.26343 0.887538 0
M  V30 1020 C 96.2295 6.63483 0.731207 0
M  V30 1021 H 95.4995 0.587303 0.451836 0
M  V30 1022 H 98.1465 1.83948 0.532468 0
M  V30 1023 H 96.4515 2.43312 3.07094 0
M  V30 1024 H 98.1485 2.78006 2.88988 0
M  V30 1025 H 94.7385 3.83329 1.91721 0
M  V30 1026 H 98.9225 4.72679 1.51289 0
M  V30 1027 H 94.1785 6.03516 0.978686 0
M  V30 1028 H 98.3525 6.93958 0.582654 0
M  V30 1029 H 95.9795 7.59568 0.309806 0
M  V30 1030 N 97.5546 -0.734337 1.39446 0
M  V30 1031 C 98.9706 -1.03997 1.21065 0
M  V30 1032 C 99.1706 -2.01369 0.0727019 0
M  V30 1033 O 98.2266 -2.45856 -0.575426 0
M  V30 1034 C 99.5396 -1.60163 2.54496 0
M  V30 1035 C 101.088 -1.7224 2.61347 0
M  V30 1036 C 101.563 -2.31814 3.95002 0
M  V30 1037 N 103.054 -2.39223 3.96644 0
M  V30 1038 C 103.789 -2.86258 4.96834 0
M  V30 1039 N 103.285 -3.33184 6.07421 0
M  V30 1040 N 105.078 -2.85473 4.84213 0
M  V30 1041 H 97.2286 -0.0885624 2.12215 0
M  V30 1042 H 99.4916 -0.10191 0.942506 0
M  V30 1043 H 99.1976 -0.960811 3.38321 0
M  V30 1044 H 99.0716 -2.5896 2.74262 0
M  V30 1045 H 101.459 -2.35443 1.77906 0
M  V30 1046 H 101.54 -0.720939 2.4543 0
M  V30 1047 H 101.184 -1.69238 4.78875 0
M  V30 1048 H 101.114 -3.32638 4.08239 0
M  V30 1049 H 103.605 -2.06057 3.16779 0
M  V30 1050 H 103.918 -3.67586 6.7978 0
M  V30 1051 H 102.263 -3.31191 6.11013 0
M  V30 1052 H 105.454 -2.48136 3.96921 0
M  V30 1053 H 105.627 -3.21814 5.62441 0
M  V30 1054 N 99.0327 -1.24633 -0.964593 0
M  V30 1055 C 99.9657 -0.984662 -2.05863 0
M  V30 1056 C 100.944 0.0826554 -1.6239 0
M  V30 1057 O 102.128 -0.0549296 -1.8842 0
M  V30 1058 C 99.2547 -0.486529 -3.35187 0
M  V30 1059 C 98.3007 -1.54286 -3.97615 0
M  V30 1060 S 99.1337 -3.12513 -4.34851 0
M  V30 1061 C 100.29 -2.6441 -5.67308 0
M  V30 1062 H 100.523 -1.91104 -2.27743 0
M  V30 1063 H 98.0557 -1.08052 -1.10291 0
M  V30 1064 H 100.014 -0.205757 -4.09984 0
M  V30 1065 H 98.6747 0.419186 -3.1129 0
M  V30 1066 H 97.8677 -1.14481 -4.90826 0
M  V30 1067 H 97.4697 -1.7738 -3.2926 0
M  V30 1068 H 99.7617 -2.07416 -6.44969 0
M  V30 1069 H 100.705 -3.56222 -6.11973 0
M  V30 1070 H 101.113 -2.04734 -5.26065 0
M  V30 1071 N 100.511 1.16574 -1.06058 0
M  V30 1072 C 101.458 2.20883 -0.669263 0
M  V30 1073 C 102.428 1.62729 0.332918 0
M  V30 1074 O 103.613 1.895 0.222346 0
M  V30 1075 C 100.753 3.45049 -0.0593572 0
M  V30 1076 C 99.8658 4.17458 -1.11143 0
M  V30 1077 C 99.0008 5.29135 -0.467916 0
M  V30 1078 C 98.0398 5.93343 -1.50369 0
M  V30 1079 N 97.1768 6.96516 -0.883706 0
M  V30 1080 H 102.017 2.53709 -1.5632 0
M  V30 1081 H 99.5538 1.24616 -0.781625 0
M  V30 1082 H 101.512 4.16033 0.311771 0
M  V30 1083 H 100.142 3.12781 0.797992 0
M  V30 1084 H 99.1938 3.45101 -1.60029 0
M  V30 1085 H 100.506 4.61307 -1.89731 0
M  V30 1086 H 99.6598 6.06684 -0.0436871 0
M  V30 1087 H 98.3988 4.86443 0.349864 0
M  V30 1088 H 97.4038 5.14517 -1.93784 0
M  V30 1089 H 98.6288 6.38114 -2.32352 0
M  V30 1090 H 96.5748 6.55943 -0.086595 0
M  V30 1091 H 96.4918 7.38723 -1.607 0
M  V30 1092 H 97.7598 7.77993 -0.484543 0
M  V30 1093 N 101.989 0.842826 1.3317 0
M  V30 1094 C 102.922 0.223862 2.27099 0
M  V30 1095 C 103.9 -0.631311 1.49844 0
M  V30 1096 O 105.084 -0.590708 1.79005 0
M  V30 1097 C 102.211 -0.685313 3.31694 0
M  V30 1098 C 101.257 0.094919 4.26394 0
M  V30 1099 S 102.09 1.45546 5.15341 0
M  V30 1100 C 103.246 0.551685 6.23464 0
M  V30 1101 H 103.479 1.02015 2.79249 0
M  V30 1102 H 101.012 0.639797 1.4052 0
M  V30 1103 H 102.97 -1.20426 3.92438 0
M  V30 1104 H 101.631 -1.4553 2.78352 0
M  V30 1105 H 100.824 -0.597059 5.00451 0
M  V30 1106 H 100.426 0.545054 3.70007 0
M  V30 1107 H 102.718 -0.248877 6.77043 0
M  V30 1108 H 103.661 1.26253 6.96754 0
M  V30 1109 H 104.069 0.131275 5.64347 0
M  V30 1110 N 103.467 -1.45747 0.599634 0
M  V30 1111 C 104.883 -1.57424 0.26264 0
M  V30 1112 C 105.083 -1.59222 -1.23493 0
M  V30 1113 O 104.139 -1.51825 -2.01756 0
M  V30 1114 C 105.452 -2.86061 0.926795 0
M  V30 1115 C 107 -2.99722 0.901967 0
M  V30 1116 C 107.475 -4.31119 1.54598 0
M  V30 1117 N 108.966 -4.37858 1.5111 0
M  V30 1118 C 109.701 -5.3818 1.97863 0
M  V30 1119 N 109.197 -6.45083 2.52666 0
M  V30 1120 N 110.99 -5.29487 1.88679 0
M  V30 1121 H 103.141 -1.42823 1.57211 0
M  V30 1122 H 105.404 -0.68235 0.658105 0
M  V30 1123 H 105.11 -2.90605 1.98095 0
M  V30 1124 H 104.984 -3.74563 0.445238 0
M  V30 1125 H 107.371 -2.9475 -0.143617 0
M  V30 1126 H 107.452 -2.12652 1.42171 0
M  V30 1127 H 107.096 -4.36849 2.59085 0
M  V30 1128 H 107.026 -5.16992 1.00132 0
M  V30 1129 H 109.517 -3.61209 1.11068 0
M  V30 1130 H 109.83 -7.17869 2.86155 0
M  V30 1131 H 108.175 -6.45856 2.56701 0
M  V30 1132 H 111.366 -4.44877 1.4561 0
M  V30 1133 H 111.539 -6.07524 2.25429 0
M  V30 1134 N 104.945 -0.338344 -1.53925 0
M  V30 1135 C 106.17 0.263987 -2.05713 0
M  V30 1136 C 106.595 1.43847 -1.21201 0
M  V30 1137 O 105.953 1.79904 -0.224535 0
M  V30 1138 C 106.001 0.662 -3.54471 0
M  V30 1139 O 105.105 1.76265 -3.72833 0
M  V30 1140 H 104.446 0.0448722 -0.662482 0
M  V30 1141 H 106.976 -0.491048 -1.9862 0
M  V30 1142 H 106.986 0.940594 -3.9701 0
M  V30 1143 H 105.661 -0.196937 -4.15433 0
M  V30 1144 H 104.238 1.48173 -3.42198 0
M  V30 1145 N 106.423 1.57458 -0.0668435 0
M  V30 1146 C 107.333 2.15937 0.916975 0
M  V30 1147 C 108.349 1.12123 1.33058 0
M  V30 1148 O 109.525 1.44366 1.40429 0
M  V30 1149 C 106.59 2.70547 2.16807 0
M  V30 1150 C 105.651 3.89215 1.81135 0
M  V30 1151 C 104.884 4.41211 3.0028 0
M  V30 1152 O 105.107 3.92225 4.14144 0
M  V30 1153 O 104.041 5.32605 2.80384 0
M  V30 1154 H 107.867 3.00354 0.449561 0
M  V30 1155 H 105.452 1.48584 0.155949 0
M  V30 1156 H 107.334 3.0557 2.90181 0
M  V30 1157 H 106.009 1.89192 2.62656 0
M  V30 1158 H 104.916 3.59054 1.05028 0
M  V30 1159 H 106.249 4.71848 1.40073 0
M  V30 1160 N 107.901 -0.206675 1.56239 0
M  V30 1161 C 109.129 -0.945345 1.8404 0
M  V30 1162 C 109.544 -1.77336 0.647885 0
M  V30 1163 O 108.901 -1.78425 -0.383511 0
M  V30 1164 C 108.952 -1.8509 3.10522 0
M  V30 1165 O 108.673 -1.05634 4.25174 0
M  V30 1166 C 110.174 -2.70222 3.51418 0
M  V30 1167 H 107.394 -0.276372 0.61144 0
M  V30 1168 H 109.938 -0.217417 2.03341 0
M  V30 1169 H 108.093 -2.53259 2.93153 0
M  V30 1170 H 108.507 -1.67238 4.97124 0
M  V30 1171 H 109.981 -3.29438 4.42916 0
M  V30 1172 H 110.458 -3.43358 2.73864 0
M  V30 1173 H 111.064 -2.07443 3.71278 0
M  V30 1174 N 109.379 -1.50304 -0.473955 0
M  V30 1175 C 110.342 -1.6841 -1.55469 0
M  V30 1176 C 111.342 -0.554905 -1.50922 0
M  V30 1177 O 112.532 -0.821882 -1.53593 0
M  V30 1178 C 109.664 -1.70667 -2.95102 0
M  V30 1179 H 110.857 -2.64828 -1.40733 0
M  V30 1180 H 108.41 -1.39742 -0.700132 0
M  V30 1181 H 109.145 -0.75932 -3.15285 0
M  V30 1182 H 108.93 -2.52698 -2.9981 0
M  V30 1183 H 110.42 -1.8664 -3.73571 0
M  V30 1184 N 110.857 0.726932 -1.39834 0
M  V30 1185 C 112.106 1.48214 -1.36805 0
M  V30 1186 C 112.419 1.95576 0.0305291 0
M  V30 1187 O 113.625 2.7088 0.183417 0
M  V30 1188 C 112.081 2.67854 -2.40379 0
M  V30 1189 C 111.689 2.27408 -3.85992 0
M  V30 1190 C 113.433 3.45641 -2.46439 0
M  V30 1191 C 111.34 3.43819 -4.81189 0
M  V30 1192 H 110.27 0.556606 -0.508631 0
M  V30 1193 H 112.921 0.792216 -1.65518 0
M  V30 1194 H 111.303 3.3896 -2.04749 0
M  V30 1195 H 112.477 1.63795 -4.30706 0
M  V30 1196 H 110.792 1.62692 -3.83302 0
M  V30 1197 H 113.389 4.32244 -3.14753 0
M  V30 1198 H 113.732 3.88669 -1.49139 0
M  V30 1199 H 114.265 2.8157 -2.81004 0
M  V30 1200 H 111.004 3.05834 -5.79781 0
M  V30 1201 H 110.524 4.06385 -4.41148 0
M  V30 1202 H 112.203 4.10043 -5.00474 0
M  V30 1203 N 112.336 1.25143 0.95797 0
M  V30 1204 C 113.583 1.09692 1.70217 0
M  V30 1205 C 113.911 -0.362654 1.91089 0
M  V30 1206 O 113.166 -1.28386 1.47701 0
M  V30 1207 C 113.465 1.79272 3.09187 0
M  V30 1208 C 113.131 3.29196 3.08125 0
M  V30 1209 C 111.793 3.70096 3.07543 0
M  V30 1210 C 114.145 4.24995 3.0171 0
M  V30 1211 C 111.473 5.05213 2.9829 0
M  V30 1212 C 113.825 5.60132 2.93999 0
M  V30 1213 C 112.489 6.00365 2.9175 0
M  V30 1214 H 111.759 0.401393 0.622868 0
M  V30 1215 H 114.406 1.55372 1.11945 0
M  V30 1216 H 112.711 1.26014 3.70982 0
M  V30 1217 H 114.408 1.64773 3.65583 0
M  V30 1218 H 110.998 2.96651 3.09348 0
M  V30 1219 H 115.182 3.9439 3.01281 0
M  V30 1220 H 110.438 5.35569 2.94916 0
M  V30 1221 H 114.612 6.3406 2.87996 0
M  V30 1222 H 112.239 7.05023 2.84336 0
M  V30 1223 N 113.814 -1.1601 1.06675 0
M  V30 1224 C 115.063 -1.85973 0.780818 0
M  V30 1225 C 115.376 -1.82819 -0.695444 0
M  V30 1226 O 116.582 -2.484 -1.09589 0
M  V30 1227 C 115.038 -3.33757 1.34665 0
M  V30 1228 C 114.646 -3.45374 2.85343 0
M  V30 1229 C 116.39 -4.0895 1.13843 0
M  V30 1230 C 114.297 -4.87266 3.35151 0
M  V30 1231 H 113.227 -0.696661 0.288407 0
M  V30 1232 H 115.878 -1.30903 1.28595 0
M  V30 1233 H 114.26 -3.88456 0.769274 0
M  V30 1234 H 115.434 -3.00816 3.49065 0
M  V30 1235 H 113.749 -2.83619 3.04876 0
M  V30 1236 H 116.346 -5.13654 1.4854 0
M  V30 1237 H 116.689 -4.16229 0.0770282 0
M  V30 1238 H 117.222 -3.605 1.68179 0
M  V30 1239 H 113.961 -4.85168 4.40786 0
M  V30 1240 H 113.481 -5.32433 2.76179 0
M  V30 1241 H 115.16 -5.56097 3.30704 0
M  V30 1242 N 115.292 -0.849877 -1.32721 0
M  V30 1243 C 116.52 -0.464754 -2.01613 0
M  V30 1244 C 116.935 0.937191 -1.63897 0
M  V30 1245 O 116.292 1.61081 -0.857856 0
M  V30 1246 C 116.343 -0.588638 -3.56675 0
M  V30 1247 O 116.064 -1.93535 -3.93034 0
M  V30 1248 C 117.565 -0.2019 -4.4284 0
M  V30 1249 H 114.785 -0.183215 -0.645502 0
M  V30 1250 H 117.329 -1.1455 -1.69407 0
M  V30 1251 H 115.484 0.0443159 -3.87375 0
M  V30 1252 H 115.898 -1.92871 -4.87751 0
M  V30 1253 H 117.372 -0.339599 -5.50954 0
M  V30 1254 H 117.849 0.857224 -4.30753 0
M  V30 1255 H 118.455 -0.809733 -4.17521 0
M  V30 1256 N 116.77 1.45427 -0.607355 0
M  V30 1257 C 117.718 2.32269 0.12411 0
M  V30 1258 C 118.712 1.45955 0.859854 0
M  V30 1259 O 119.918 1.6244 0.775447 0
M  V30 1260 H 116.293 0.749691 0.0588839 0
M  V30 1261 H 118.264 2.91743 -0.626762 0
M  V30 1262 C 117.013 3.29567 1.1082 0
M  V30 1263 H 116.336 3.95978 0.551492 0
M  V30 1264 H 117.776 3.93061 1.58995 0
M  V30 1265 C 116.235 2.56722 2.18164 0
M  V30 1266 O 116.765 2.34842 3.25902 0
M  V30 1267 N 114.971 2.16861 1.93442 0
M  V30 1268 H 114.518 2.34855 1.05834 0
M  V30 1269 H 114.476 1.68444 2.65469 0
M  V30 1270 N 118.248 0.346503 1.53744 0
M  V30 1271 C 119.178 -0.501193 2.28058 0
M  V30 1272 C 120.159 -1.10014 1.29734 0
M  V30 1273 O 121.344 -1.12097 1.58581 0
M  V30 1274 C 118.474 -1.65078 3.05559 0
M  V30 1275 C 117.428 -1.18003 4.11411 0
M  V30 1276 C 116.754 -2.41837 4.76884 0
M  V30 1277 C 118.054 -0.278394 5.21558 0
M  V30 1278 H 119.748 0.11875 2.99164 0
M  V30 1279 H 117.294 0.0585531 1.43881 0
M  V30 1280 H 119.247 -2.25028 3.56287 0
M  V30 1281 H 117.971 -2.29767 2.32109 0
M  V30 1282 H 116.63 -0.603331 3.61601 0
M  V30 1283 H 116.278 -3.0494 4.00026 0
M  V30 1284 H 115.978 -2.1102 5.48402 0
M  V30 1285 H 117.502 -3.02508 5.30397 0
M  V30 1286 H 118.916 -0.784823 5.67903 0
M  V30 1287 H 117.313 -0.0619707 6.00068 0
M  V30 1288 H 118.383 0.684677 4.80042 0
M  V30 1289 N 119.726 -1.57421 0.075193 0
M  V30 1290 C 120.689 -2.11791 -0.876203 0
M  V30 1291 C 121.689 -1.04268 -1.22412 0
M  V30 1292 O 122.879 -1.30242 -1.15684 0
M  V30 1293 C 120.011 -2.62207 -2.17854 0
M  V30 1294 H 121.204 -2.9716 -0.40444 0
M  V30 1295 H 118.757 -1.55333 -0.173557 0
M  V30 1296 H 119.492 -1.803 -2.6956 0
M  V30 1297 H 119.277 -3.40802 -1.93897 0
M  V30 1298 H 120.767 -3.04335 -2.85955 0
M  V30 1299 N 121.204 0.198386 -1.56346 0
M  V30 1300 C 122.45 0.920648 -1.80698 0
M  V30 1301 C 122.783 1.83045 -0.648697 0
M  V30 1302 O 122.058 1.91308 0.350925 0
M  V30 1303 C 122.341 1.73971 -3.15287 0
M  V30 1304 C 122.194 0.85485 -4.41602 0
M  V30 1305 C 123.513 2.71296 -3.46535 0
M  V30 1306 H 120.632 0.333261 -0.657348 0
M  V30 1307 H 123.274 0.188198 -1.89066 0
M  V30 1308 H 121.424 2.36416 -3.08285 0
M  V30 1309 H 123.096 0.245362 -4.60647 0
M  V30 1310 H 121.339 0.161398 -4.335 0
M  V30 1311 H 122.01 1.46286 -5.32264 0
M  V30 1312 H 124.486 2.18983 -3.53816 0
M  V30 1313 H 123.362 3.2569 -4.41834 0
M  V30 1314 H 123.623 3.5018 -2.69864 0
M  V30 1315 N 122.682 1.50554 0.465978 0
M  V30 1316 C 123.907 1.65838 1.24549 0
M  V30 1317 C 124.332 0.343486 1.84937 0
M  V30 1318 O 123.69 -0.69324 1.67523 0
M  V30 1319 C 123.738 2.75533 2.32624 0
M  V30 1320 O 122.842 2.37142 3.37398 0
M  V30 1321 H 122.183 0.553893 0.366194 0
M  V30 1322 H 124.713 1.96959 0.553927 0
M  V30 1323 H 124.723 2.98763 2.77857 0
M  V30 1324 H 123.398 3.70962 1.88043 0
M  V30 1325 H 121.975 2.24377 2.97841 0
M  V30 1326 N 124.16 -0.719506 1.40217 0
M  V30 1327 C 125.437 -1.47221 1.28784 0
M  V30 1328 C 125.817 -2.10883 -0.0956067 0
M  V30 1329 O 125.165 -1.99833 -1.10811 0
M  V30 1330 C 125.375 -2.5111 2.42373 0
M  V30 1331 C 126.723 -3.17053 2.82423 0
M  V30 1332 O 127.747 -2.61429 2.41937 0
M  V30 1333 O 126.606 -4.17742 3.52355 0
M  V30 1334 H 123.7 -0.654491 0.50554 0
M  V30 1335 H 126.246 -0.752014 1.52128 0
M  V30 1336 H 125.018 -2.02556 3.34793 0
M  V30 1337 H 124.641 -3.3067 2.20778 0
M  V30 1338 N 125.638 -1.25649 -0.95132 0
M  V30 1339 C 126.568 -1.08808 -2.06599 0
M  V30 1340 C 127.549 0.00382547 -1.701 0
M  V30 1341 O 128.734 -0.166325 -1.93486 0
M  V30 1342 C 125.864 -0.709542 -3.39975 0
M  V30 1343 C 124.818 -1.75206 -3.90496 0
M  V30 1344 C 124.144 -1.22811 -5.20405 0
M  V30 1345 C 125.444 -3.15153 -4.16504 0
M  V30 1346 H 127.138 -2.02048 -2.20946 0
M  V30 1347 H 124.684 -0.972835 -1.06169 0
M  V30 1348 H 126.637 -0.578649 -4.17408 0
M  V30 1349 H 125.361 0.258556 -3.25575 0
M  V30 1350 H 124.02 -1.87145 -3.15234 0
M  V30 1351 H 123.668 -0.250145 -5.02378 0
M  V30 1352 H 123.368 -1.92492 -5.55176 0
M  V30 1353 H 124.892 -1.10968 -6.00432 0
M  V30 1354 H 126.306 -3.06349 -4.84586 0
M  V30 1355 H 124.703 -3.82333 -4.62538 0
M  V30 1356 H 125.773 -3.61966 -3.22658 0
M  V30 1357 N 127.117 1.15442 -1.07289 0
M  V30 1358 C 128.047 2.22312 -0.714107 0
M  V30 1359 C 129.028 1.67467 0.298155 0
M  V30 1360 O 130.213 1.93445 0.171048 0
M  V30 1361 C 127.343 3.47124 -0.110448 0
M  V30 1362 C 126.297 4.14926 -1.04979 0
M  V30 1363 C 125.623 5.33807 -0.308924 0
M  V30 1364 C 126.923 4.64762 -2.38314 0
M  V30 1365 H 128.617 2.5258 -1.6076 0
M  V30 1366 H 126.163 1.21404 -0.77441 0
M  V30 1367 H 128.116 4.21124 0.152482 0
M  V30 1368 H 126.84 3.16187 0.81812 0
M  V30 1369 H 125.499 3.42866 -1.29764 0
M  V30 1370 H 125.147 4.99126 0.623084 0
M  V30 1371 H 124.847 5.80113 -0.935036 0
M  V30 1372 H 126.371 6.10576 -0.0537771 0
M  V30 1373 H 127.785 5.30292 -2.1786 0
M  V30 1374 H 126.182 5.21728 -2.96514 0
M  V30 1375 H 127.252 3.80434 -3.00663 0
M  V30 1376 N 128.595 0.856903 1.32268 0
M  V30 1377 C 129.842 0.461386 1.97174 0
M  V30 1378 C 130.17 -0.983491 1.67803 0
M  V30 1379 O 129.425 -1.70541 0.959903 0
M  V30 1380 C 129.724 0.649919 3.51441 0
M  V30 1381 C 129.39 2.0656 4.00804 0
M  V30 1382 C 128.052 2.45279 4.13995 0
M  V30 1383 C 130.404 2.98947 4.26943 0
M  V30 1384 C 127.732 3.75653 4.50668 0
M  V30 1385 C 130.084 4.28822 4.65075 0
M  V30 1386 C 128.748 4.67472 4.76472 0
M  V30 1387 H 128.018 0.168833 0.72151 0
M  V30 1388 H 130.665 1.08739 1.57633 0
M  V30 1389 H 128.97 -0.0593018 3.91755 0
M  V30 1390 H 130.667 0.32391 3.9969 0
M  V30 1391 H 127.257 1.75495 3.91024 0
M  V30 1392 H 131.441 2.70265 4.16258 0
M  V30 1393 H 126.697 4.05379 4.57688 0
M  V30 1394 H 130.871 5.0047 4.84255 0
M  V30 1395 H 128.498 5.68539 5.04646 0
M  V30 1396 N 130.073 -1.45103 0.615059 0
M  V30 1397 C 131.319 -2.02483 0.113347 0
M  V30 1398 C 131.652 -1.48146 -1.25564 0
M  V30 1399 O 130.927 -0.659104 -1.82992 0
M  V30 1400 C 131.21 -3.60005 0.0825278 0
M  V30 1401 C 131.063 -4.2466 1.48271 0
M  V30 1402 C 132.382 -4.35972 -0.601401 0
M  V30 1403 H 129.501 -0.735764 0.0426632 0
M  V30 1404 H 132.143 -1.72868 0.788461 0
M  V30 1405 H 130.293 -3.85367 -0.492378 0
M  V30 1406 H 131.965 -4.10458 2.10527 0
M  V30 1407 H 130.208 -3.82772 2.04127 0
M  V30 1408 H 130.879 -5.336 1.41332 0
M  V30 1409 H 133.355 -4.15947 -0.112666 0
M  V30 1410 H 132.231 -5.45697 -0.592097 0
M  V30 1411 H 132.492 -4.09391 -1.66887 0
M  V30 1412 N 131.551 -0.354651 -1.53558 0
M  V30 1413 C 132.791 0.238651 -2.03002 0
M  V30 1414 C 133.155 1.46878 -1.23656 0
M  V30 1415 O 134.356 2.13699 -1.63053 0
M  V30 1416 C 132.627 0.534175 -3.53386 0
M  V30 1417 S 134.186 1.10271 -4.24719 0
M  V30 1418 H 131.004 0.0702908 -0.707517 0
M  V30 1419 H 133.606 -0.494987 -1.8913 0
M  V30 1420 H 132.31 -0.368765 -4.0874 0
M  V30 1421 H 131.841 1.29718 -3.71398 0
M  V30 1422 H 133.856 2.38772 -4.34974 0
M  V30 1423 N 133.029 1.57378 -0.0835403 0
M  V30 1424 C 134.257 1.98263 0.59157 0
M  V30 1425 C 134.672 0.962302 1.62435 0
M  V30 1426 O 134.029 -0.049581 1.82433 0
M  V30 1427 C 134.08 3.39214 1.24965 0
M  V30 1428 O 133.801 4.37339 0.258186 0
M  V30 1429 C 135.302 3.95038 2.01147 0
M  V30 1430 H 132.522 0.651773 0.159477 0
M  V30 1431 H 135.066 2.03878 -0.159415 0
M  V30 1432 H 133.221 3.34649 1.95164 0
M  V30 1433 H 133.635 5.19371 0.731734 0
M  V30 1434 H 135.109 4.95848 2.42567 0
M  V30 1435 H 135.586 3.32222 2.87272 0
M  V30 1436 H 136.192 4.0304 1.35789 0
M  V30 1437 N 134.507 -0.190092 1.56449 0
M  V30 1438 C 135.437 -1.23816 1.97969 0
M  V30 1439 C 136.418 -1.47201 0.852395 0
M  V30 1440 O 137.603 -1.58854 1.1171 0
M  V30 1441 C 134.733 -2.5813 2.3235 0
M  V30 1442 C 133.687 -2.49348 3.47864 0
M  V30 1443 C 133.013 -3.8798 3.67934 0
M  V30 1444 C 134.313 -2.01424 4.81898 0
M  V30 1445 H 136.007 -0.89311 2.85769 0
M  V30 1446 H 133.553 -0.428177 1.37487 0
M  V30 1447 H 135.506 -3.31637 2.59991 0
M  V30 1448 H 134.23 -2.94386 1.41438 0
M  V30 1449 H 132.889 -1.78297 3.20321 0
M  V30 1450 H 132.537 -4.21597 2.74344 0
M  V30 1451 H 132.237 -3.82978 4.45648 0
M  V30 1452 H 133.761 -4.63101 3.97957 0
M  V30 1453 H 135.175 -2.64693 5.08538 0
M  V30 1454 H 133.572 -2.07413 5.63116 0
M  V30 1455 H 134.642 -0.967677 4.75146 0
M  V30 1456 N 135.985 -1.50799 -0.457987 0
M  V30 1457 C 137.396 -1.55152 -1.0385 0
M  V30 1458 C 137.747 -0.362719 -1.92818 0
M  V30 1459 O 136.872 0.522915 -2.09987 0
M  V30 1460 C 137.467 -2.81173 -1.89017 0
M  V30 1461 C 136.026 -2.88164 -2.42154 0
M  V30 1462 C 135.173 -2.49591 -1.20829 0
M  V30 1463 H 138.124 -1.56874 -0.240068 0
M  V30 1464 H 138.145 -2.63769 -2.74238 0
M  V30 1465 H 137.657 -3.67677 -1.24238 0
M  V30 1466 H 135.758 -2.06042 -3.10447 0
M  V30 1467 H 135.871 -3.91356 -2.76364 0
M  V30 1468 H 134.235 -2.02322 -1.54719 0
M  V30 1469 H 135.018 -3.38418 -0.576927 0
M  V30 1470 N 137.463 0.71206 -1.40597 0
M  V30 1471 C 138.71 1.47197 -1.39065 0
M  V30 1472 C 139.038 1.94499 0.00583891 0
M  V30 1473 O 138.293 1.68752 0.99102 0
M  V30 1474 C 138.592 2.71039 -2.32965 0
M  V30 1475 C 138.258 2.42484 -3.80148 0
M  V30 1476 C 136.92 2.34406 -4.20247 0
M  V30 1477 C 139.272 2.18598 -4.73143 0
M  V30 1478 C 136.6 2.00516 -5.51371 0
M  V30 1479 C 138.952 1.8622 -6.0457 0
M  V30 1480 C 137.616 1.76626 -6.43708 0
M  V30 1481 H 136.886 0.538634 -0.508876 0
M  V30 1482 H 139.533 0.815325 -1.73276 0
M  V30 1483 H 137.838 3.41558 -1.91951 0
M  V30 1484 H 139.535 3.29138 -2.29061 0
M  V30 1485 H 136.125 2.49659 -3.4838 0
M  V30 1486 H 140.309 2.23793 -4.42979 0
M  V30 1487 H 135.565 1.91628 -5.80593 0
M  V30 1488 H 139.739 1.66752 -6.76141 0
M  V30 1489 H 137.366 1.50133 -7.45228 0
M  V30 1490 N 138.941 1.26152 0.944643 0
M  V30 1491 C 139.888 1.07408 2.04285 0
M  V30 1492 C 140.858 -0.0198413 1.66088 0
M  V30 1493 O 142.043 0.139264 1.90291 0
M  V30 1494 C 139.183 0.70945 3.37729 0
M  V30 1495 C 138.296 1.87926 3.88983 0
M  V30 1496 C 137.431 1.45807 5.10797 0
M  V30 1497 C 136.47 2.5964 5.54305 0
M  V30 1498 N 135.607 2.18226 6.67324 0
M  V30 1499 H 140.447 2.01389 2.1965 0
M  V30 1500 H 137.984 1.00275 1.07626 0
M  V30 1501 H 139.942 0.478948 4.14442 0
M  V30 1502 H 138.572 -0.193389 3.2222 0
M  V30 1503 H 137.624 2.22279 3.08701 0
M  V30 1504 H 138.936 2.73377 4.17213 0
M  V30 1505 H 138.09 1.18781 5.94959 0
M  V30 1506 H 136.829 0.574414 4.84305 0
M  V30 1507 H 135.834 2.87399 4.68702 0
M  V30 1508 H 137.059 3.48599 5.828 0
M  V30 1509 H 135.005 1.3229 6.42523 0
M  V30 1510 H 134.922 2.97221 6.95123 0
M  V30 1511 H 136.19 1.94403 7.54869 0
M  V30 1512 N 140.419 -1.14872 1.07899 0
M  V30 1513 C 141.668 -1.85135 0.800499 0
M  V30 1514 C 141.981 -1.83547 -0.676014 0
M  V30 1515 O 143.187 -2.49548 -1.06948 0
M  V30 1516 C 141.643 -3.3231 1.38197 0
M  V30 1517 C 141.251 -3.42329 2.8899 0
M  V30 1518 C 142.995 -4.0772 1.18174 0
M  V30 1519 C 140.902 -4.83684 3.403 0
M  V30 1520 H 139.832 -0.693563 0.29578 0
M  V30 1521 H 142.483 -1.29532 1.29976 0
M  V30 1522 H 140.865 -3.87618 0.810431 0
M  V30 1523 H 142.039 -2.97097 3.52236 0
M  V30 1524 H 140.354 -2.80369 3.07867 0
M  V30 1525 H 142.951 -5.12049 1.5398 0
M  V30 1526 H 143.294 -4.16124 0.12117 0
M  V30 1527 H 143.827 -3.58696 1.71994 0
M  V30 1528 H 140.566 -4.80465 4.45907 0
M  V30 1529 H 140.086 -5.29474 2.81811 0
M  V30 1530 H 141.765 -5.52558 3.36584 0
M  V30 1531 N 141.898 -0.863906 -1.31812 0
M  V30 1532 C 143.145 -0.471836 -1.96926 0
M  V30 1533 C 143.473 0.974578 -1.68322 0
M  V30 1534 O 142.728 1.7003 -0.968933 0
M  V30 1535 C 143.027 -0.668547 -3.51091 0
M  V30 1536 C 142.693 -2.08683 -3.99703 0
M  V30 1537 C 141.355 -2.47471 -4.12688 0
M  V30 1538 C 143.707 -3.01207 -4.25351 0
M  V30 1539 C 141.035 -3.78037 -4.4867 0
M  V30 1540 C 143.387 -4.31282 -4.62794 0
M  V30 1541 C 142.051 -4.69992 -4.73987 0
M  V30 1542 H 141.321 -0.172657 -0.720604 0
M  V30 1543 H 143.968 -1.09573 -1.57054 0
M  V30 1544 H 142.273 0.0385252 -3.91781 0
M  V30 1545 H 143.97 -0.345102 -3.99512 0
M  V30 1546 H 140.56 -1.77566 -3.90087 0
M  V30 1547 H 144.744 -2.72469 -4.14819 0
M  V30 1548 H 140 -4.078 -4.55532 0
M  V30 1549 H 144.174 -5.03031 -4.81594 0
M  V30 1550 H 141.801 -5.71207 -5.01624 0
M  V30 1551 N 143.376 1.44774 -0.622745 0
M  V30 1552 C 144.606 2.06187 -0.130532 0
M  V30 1553 C 145.014 1.46547 1.19669 0
M  V30 1554 O 144.357 0.579636 1.74316 0
M  V30 1555 C 144.419 3.59437 0.0674983 0
M  V30 1556 C 144.083 4.41496 -1.18026 0
M  V30 1557 C 145.08 4.75512 -2.102 0
M  V30 1558 C 142.765 4.82007 -1.41333 0
M  V30 1559 C 144.759 5.48912 -3.23998 0
M  V30 1560 C 142.446 5.55157 -2.55429 0
M  V30 1561 C 143.444 5.88528 -3.46589 0
M  V30 1562 O 143.132 6.60191 -4.58697 0
M  V30 1563 H 142.864 0.672045 -0.0730162 0
M  V30 1564 H 145.418 1.86768 -0.854802 0
M  V30 1565 H 143.648 3.77314 0.846825 0
M  V30 1566 H 145.337 4.02642 0.513209 0
M  V30 1567 H 146.103 4.4476 -1.93425 0
M  V30 1568 H 141.982 4.55457 -0.712709 0
M  V30 1569 H 145.526 5.74877 -3.95174 0
M  V30 1570 H 141.423 5.85324 -2.72151 0
M  V30 1571 H 142.191 6.78654 -4.57571 0
M  V30 1572 N 144.854 0.36279 1.53368 0
M  V30 1573 C 145.802 -0.500155 2.27159 0
M  V30 1574 C 146.796 -1.08575 1.3003 0
M  V30 1575 O 148.002 -1.02927 1.47668 0
M  V30 1576 H 144.377 -0.180009 0.730138 0
M  V30 1577 H 146.348 0.14401 2.98052 0
M  V30 1578 C 145.097 -1.62937 3.07159 0
M  V30 1579 H 144.42 -1.18806 3.8174 0
M  V30 1580 H 145.86 -2.20795 3.61975 0
M  V30 1581 C 144.319 -2.57007 2.17829 0
M  V30 1582 O 144.849 -3.59752 1.78721 0
M  V30 1583 N 143.055 -2.26131 1.82518 0
M  V30 1584 H 142.602 -1.42616 2.14519 0
M  V30 1585 H 142.56 -2.89327 1.23034 0
M  V30 1586 N 146.332 -1.57332 0.0918853 0
M  V30 1587 C 147.579 -1.94236 -0.572577 0
M  V30 1588 C 147.907 -0.973398 -1.6839 0
M  V30 1589 O 147.162 0.00756912 -1.95699 0
M  V30 1590 C 147.461 -3.37689 -1.17051 0
M  V30 1591 C 147.127 -4.50527 -0.183304 0
M  V30 1592 C 145.789 -4.81119 0.0882276 0
M  V30 1593 C 148.141 -5.18883 0.49095 0
M  V30 1594 C 145.469 -5.77395 1.04076 0
M  V30 1595 C 147.821 -6.1618 1.43193 0
M  V30 1596 C 146.485 -6.45179 1.71173 0
M  V30 1597 H 145.755 -0.710762 -0.209521 0
M  V30 1598 H 148.402 -1.9077 0.167036 0
M  V30 1599 H 146.707 -3.37718 -1.9863 0
M  V30 1600 H 148.404 -3.63543 -1.69227 0
M  V30 1601 H 144.994 -4.26681 -0.405124 0
M  V30 1602 H 149.178 -4.95427 0.294312 0
M  V30 1603 H 144.434 -5.98179 1.26457 0
M  V30 1604 H 148.608 -6.68243 1.96023 0
M  V30 1605 H 146.235 -7.1959 2.4514 0
M  V30 1606 N 147.81 0.181792 -1.56548 0
M  V30 1607 C 148.758 1.24461 -1.965 0
M  V30 1608 C 149.752 1.464 -0.852261 0
M  V30 1609 O 150.958 1.47103 -1.03733 0
M  V30 1610 H 147.333 0.418138 -0.625031 0
M  V30 1611 H 149.304 0.880714 -2.85107 0
M  V30 1612 C 148.053 2.57891 -2.33212 0
M  V30 1613 H 147.376 2.41829 -3.18369 0
M  V30 1614 H 148.816 3.3097 -2.65019 0
M  V30 1615 C 147.275 3.15871 -1.17163 0
M  V30 1616 O 147.805 3.9913 -0.453708 0
M  V30 1617 N 146.011 2.74808 -0.944936 0
M  V30 1618 H 145.558 2.07205 -1.53049 0
M  V30 1619 H 145.516 3.13939 -0.170286 0
M  V30 1620 N 149.288 1.51039 0.449983 0
M  V30 1621 C 150.704 1.38934 0.785462 0
M  V30 1622 C 150.904 0.461817 1.96136 0
M  V30 1623 O 149.96 -0.0877389 2.52348 0
M  V30 1624 C 151.273 2.80724 1.0777 0
M  V30 1625 C 152.821 2.89787 1.1829 0
M  V30 1626 C 153.296 4.32457 1.50815 0
M  V30 1627 N 154.787 4.35505 1.57764 0
M  V30 1628 C 155.522 5.42914 1.84477 0
M  V30 1629 N 155.018 6.60502 2.09068 0
M  V30 1630 N 156.811 5.3038 1.86155 0
M  V30 1631 H 148.962 2.09904 -0.324647 0
M  V30 1632 H 151.225 0.944378 -0.0827957 0
M  V30 1633 H 150.931 3.50531 0.286498 0
M  V30 1634 H 150.805 3.19273 2.00859 0
M  V30 1635 H 153.192 2.20186 1.96474 0
M  V30 1636 H 153.273 2.54752 0.231314 0
M  V30 1637 H 152.917 5.02603 0.731622 0
M  V30 1638 H 152.847 4.64995 2.47158 0
M  V30 1639 H 155.338 3.50724 1.40715 0
M  V30 1640 H 155.651 7.38158 2.28785 0
M  V30 1641 H 153.996 6.63639 2.06416 0
M  V30 1642 H 157.187 4.37505 1.66454 0
M  V30 1643 H 157.36 6.1417 2.06637 0
M  V30 1644 N 150.766 -0.704594 1.40972 0
M  V30 1645 C 151.716 -1.81051 1.38581 0
M  V30 1646 C 152.7 -1.58759 0.261585 0
M  V30 1647 O 153.892 -1.69745 0.501556 0
M  V30 1648 C 151.021 -3.19279 1.26157 0
M  V30 1649 C 150.107 -3.47296 2.43405 0
M  V30 1650 N 150.498 -3.46064 3.68881 0
M  V30 1651 C 148.796 -3.77804 2.37023 0
M  V30 1652 C 149.497 -3.72733 4.46592 0
M  V30 1653 N 148.473 -3.9203 3.76581 0
M  V30 1654 H 152.275 -1.78448 2.33525 0
M  V30 1655 H 149.789 -0.904198 1.349 0
M  V30 1656 H 151.786 -3.98488 1.22526 0
M  V30 1657 H 150.446 -3.231 0.321902 0
M  V30 1658 H 151.457 -3.26656 4.01891 0
M  V30 1659 H 148.134 -3.8905 1.51481 0
M  V30 1660 H 149.524 -3.77993 5.55492 0
M  V30 1661 N 152.244 -1.26651 -0.937939 0
M  V30 1662 C 153.49 -1.13562 -1.68746 0
M  V30 1663 C 153.845 0.317241 -1.89767 0
M  V30 1664 O 153.138 1.22939 -1.46957 0
M  V30 1665 C 153.332 -1.84168 -3.06295 0
M  V30 1666 C 153.161 -3.36171 -2.98696 0
M  V30 1667 C 151.931 -4.05468 -3.01535 0
M  V30 1668 C 154.129 -4.32312 -2.78588 0
M  V30 1669 N 152.111 -5.44118 -2.84269 0
M  V30 1670 C 153.482 -5.58159 -2.69924 0
M  V30 1671 C 155.537 -4.22524 -2.63396 0
M  V30 1672 C 154.24 -6.75335 -2.47618 0
M  V30 1673 C 156.266 -5.39411 -2.42466 0
M  V30 1674 C 155.628 -6.64208 -2.34536 0
M  V30 1675 H 151.727 -0.470361 -0.624728 0
M  V30 1676 H 154.311 -1.59982 -1.10968 0
M  V30 1677 H 152.482 -1.40219 -3.62206 0
M  V30 1678 H 154.214 -1.63674 -3.70126 0
M  V30 1679 H 150.969 -3.56854 -3.11372 0
M  V30 1680 H 151.393 -6.1693 -2.78795 0
M  V30 1681 H 156.035 -3.26771 -2.68292 0
M  V30 1682 H 153.753 -7.71182 -2.41463 0
M  V30 1683 H 157.339 -5.33711 -2.31611 0
M  V30 1684 H 156.219 -7.53129 -2.18555 0
M  V30 1685 N 153.722 1.14298 -1.08507 0
M  V30 1686 C 155.133 1.66926 -0.836227 0
M  V30 1687 C 155.484 1.85576 0.63686 0
M  V30 1688 O 154.609 1.56767 1.49175 0
M  V30 1689 C 155.204 3.03219 -1.51142 0
M  V30 1690 C 153.763 3.52876 -1.30979 0
M  V30 1691 C 152.91 2.2833 -1.57356 0
M  V30 1692 H 155.861 0.983491 -1.24552 0
M  V30 1693 H 155.882 3.68726 -0.939211 0
M  V30 1694 H 155.394 2.89612 -2.58353 0
M  V30 1695 H 153.495 3.71703 -0.258429 0
M  V30 1696 H 153.608 4.33586 -2.03814 0
M  V30 1697 H 151.972 2.34454 -0.995164 0
M  V30 1698 H 152.755 2.17298 -2.65775 0
M  V30 1699 N 155.201 0.870884 1.31352 0
M  V30 1700 C 156.448 0.482273 1.96673 0
M  V30 1701 C 156.776 -0.965638 1.68836 0
M  V30 1702 O 156.031 -1.69514 0.977937 0
M  V30 1703 C 156.33 0.687157 3.50732 0
M  V30 1704 C 155.996 2.108 3.9859 0
M  V30 1705 C 154.658 2.49656 4.1137 0
M  V30 1706 C 157.01 3.03459 4.23748 0
M  V30 1707 C 154.338 3.80412 4.46659 0
M  V30 1708 C 156.69 4.3373 4.60501 0
M  V30 1709 C 155.354 4.725 4.71487 0
M  V30 1710 H 154.624 0.176476 0.719679 0
M  V30 1711 H 157.271 1.10405 1.56471 0
M  V30 1712 H 155.576 -0.0177476 3.91796 0
M  V30 1713 H 157.273 0.366284 3.99324 0
M  V30 1714 H 153.863 1.79633 3.8914 0
M  V30 1715 H 158.047 2.74665 4.13368 0
M  V30 1716 H 153.303 4.1021 4.53362 0
M  V30 1717 H 157.477 5.05578 4.78919 0
M  V30 1718 H 155.104 5.73859 4.98588 0
M  V30 1719 N 156.679 -1.44442 0.630414 0
M  V30 1720 C 157.927 -2.01653 0.134351 0
M  V30 1721 C 158.248 -1.49836 -1.24796 0
M  V30 1722 O 157.518 -0.701684 -1.82902 0
M  V30 1723 H 156.098 -0.74554 0.0466769 0
M  V30 1724 H 158.76 -1.76952 0.816955 0
M  V30 1725 H 157.856 -3.11935 0.101498 0
M  V30 1726 N 158.157 -0.370918 -1.53173 0
M  V30 1727 C 159.434 0.273754 -1.93675 0
M  V30 1728 C 159.814 1.65938 -1.3049 0
M  V30 1729 O 159.162 2.23698 -0.465999 0
M  V30 1730 C 159.372 0.318602 -3.47543 0
M  V30 1731 C 160.72 0.556392 -4.20939 0
M  V30 1732 O 161.744 0.399587 -3.53952 0
M  V30 1733 O 160.603 0.862133 -5.39657 0
M  V30 1734 H 157.697 0.165448 -0.810281 0
M  V30 1735 H 160.243 -0.42409 -1.64315 0
M  V30 1736 H 159.015 -0.652687 -3.85818 0
M  V30 1737 H 158.638 1.06212 -3.83151 0
M  V30 1738 N 159.635 1.57281 -0.100228 0
M  V30 1739 C 160.863 1.98879 0.570509 0
M  V30 1740 C 161.278 0.979476 1.61405 0
M  V30 1741 O 160.635 -0.0302288 1.82475 0
M  V30 1742 C 160.686 3.4052 1.2136 0
M  V30 1743 O 160.407 4.37588 0.211786 0
M  V30 1744 C 161.908 3.97149 1.96945 0
M  V30 1745 H 159.128 0.653428 0.152555 0
M  V30 1746 H 161.672 2.03697 -0.18103 0
M  V30 1747 H 159.827 3.367 1.91603 0
M  V30 1748 H 160.241 5.20118 0.676607 0
M  V30 1749 H 161.715 4.98393 2.37294 0
M  V30 1750 H 162.192 3.3525 2.83733 0
M  V30 1751 H 162.798 4.04458 1.31506 0
M  V30 1752 N 161.113 -0.173488 1.56642 0
M  V30 1753 C 162.043 -1.2171 1.99271 0
M  V30 1754 C 163.024 -1.46289 0.867959 0
M  V30 1755 O 164.209 -1.5766 1.13388 0
M  V30 1756 C 161.339 -2.55651 2.35074 0
M  V30 1757 C 160.293 -2.45645 3.50489 0
M  V30 1758 C 159.619 -3.84056 3.72028 0
M  V30 1759 C 160.919 -1.96302 4.84007 0
M  V30 1760 H 162.613 -0.86275 2.867 0
M  V30 1761 H 160.159 -0.413571 1.37933 0
M  V30 1762 H 162.112 -3.2886 2.63494 0
M  V30 1763 H 160.836 -2.92869 1.44552 0
M  V30 1764 H 159.495 -1.7489 3.22194 0
M  V30 1765 H 159.143 -4.18664 2.788 0
M  V30 1766 H 158.843 -3.7823 4.49684 0
M  V30 1767 H 160.367 -4.58854 4.02846 0
M  V30 1768 H 161.781 -2.59284 5.11317 0
M  V30 1769 H 160.178 -2.01429 5.65284 0
M  V30 1770 H 161.248 -0.917226 4.76146 0
M  V30 1771 N 162.591 -1.51276 -0.441967 0
M  V30 1772 C 163.831 -1.65372 -1.20132 0
M  V30 1773 C 164.195 -0.359871 -1.88597 0
M  V30 1774 O 165.396 -0.376551 -2.66149 0
M  V30 1775 C 163.667 -2.8207 -2.1948 0
M  V30 1776 S 165.226 -3.16467 -3.03964 0
M  V30 1777 H 162.044 -0.582669 -0.407453 0
M  V30 1778 H 164.646 -1.89166 -0.493609 0
M  V30 1779 H 163.35 -3.74523 -1.67812 0
M  V30 1780 H 162.881 -2.6045 -2.94838 0
M  V30 1781 H 164.896 -2.62543 -4.21053 0
M  V30 1782 N 164.069 0.697108 -1.41344 0
M  V30 1783 C 165.016 1.81106 -1.43071 0
M  V30 1784 C 165.986 1.63632 -0.285275 0
M  V30 1785 O 167.171 1.84504 -0.486091 0
M  V30 1786 C 164.311 3.18975 -1.31715 0
M  V30 1787 C 163.424 3.47892 -2.56115 0
M  V30 1788 C 162.559 4.75367 -2.37064 0
M  V30 1789 C 161.598 4.97247 -3.56948 0
M  V30 1790 N 160.735 6.15947 -3.36977 0
M  V30 1791 H 165.575 1.78965 -2.38276 0
M  V30 1792 H 163.112 0.873975 -1.18322 0
M  V30 1793 H 165.07 3.98615 -1.23133 0
M  V30 1794 H 163.7 3.20297 -0.401183 0
M  V30 1795 H 162.752 2.62669 -2.75153 0
M  V30 1796 H 164.064 3.59962 -3.45295 0
M  V30 1797 H 163.218 5.63059 -2.25941 0
M  V30 1798 H 161.957 4.65541 -1.45338 0
M  V30 1799 H 160.962 4.08004 -3.68527 0
M  V30 1800 H 162.187 5.08934 -4.49626 0
M  V30 1801 H 160.133 6.07336 -2.47949 0
M  V30 1802 H 160.05 6.28777 -4.19732 0
M  V30 1803 H 161.318 7.06377 -3.29623 0
M  V30 1804 N 165.547 1.27147 0.931209 0
M  V30 1805 C 166.796 1.12664 1.67302 0
M  V30 1806 C 167.109 -0.327718 1.92835 0
M  V30 1807 O 168.315 -0.593392 2.64936 0
M  V30 1808 C 166.771 1.9683 3.01307 0
M  V30 1809 C 166.379 3.46901 2.83485 0
M  V30 1810 C 168.123 1.90985 3.79111 0
M  V30 1811 C 166.03 4.23279 4.13024 0
M  V30 1812 H 164.96 0.41803 0.627509 0
M  V30 1813 H 167.611 1.51539 1.03481 0
M  V30 1814 H 165.993 1.50797 3.66164 0
M  V30 1815 H 167.167 4.00773 2.27415 0
M  V30 1816 H 165.482 3.54088 2.19113 0
M  V30 1817 H 168.079 2.45328 4.75098 0
M  V30 1818 H 168.422 0.882718 4.06834 0
M  V30 1819 H 168.955 2.34895 3.21044 0
M  V30 1820 H 165.694 5.26503 3.90481 0
M  V30 1821 H 165.214 3.74186 4.6877 0
M  V30 1822 H 166.893 4.32265 4.81411 0
M  V30 1823 N 167.025 -1.13721 1.09112 0
M  V30 1824 C 168.25 -1.89314 0.847053 0
M  V30 1825 C 168.675 -1.78416 -0.595774 0
M  V30 1826 O 168.033 -1.12942 -1.41823 0
M  V30 1827 C 168.081 -3.3701 1.28284 0
M  V30 1828 O 167.185 -4.10054 0.439267 0
M  V30 1829 H 166.526 -0.588745 0.307044 0
M  V30 1830 H 169.056 -1.43902 1.45442 0
M  V30 1831 H 169.066 -3.87834 1.26683 0
M  V30 1832 H 167.741 -3.4426 2.33363 0
M  V30 1833 H 166.318 -3.69266 0.519312 0
M  V30 1834 N 168.503 -0.877838 -1.30888 0
M  V30 1835 C 169.751 -0.491723 -1.96027 0
M  V30 1836 C 170.072 0.960827 -1.69685 0
M  V30 1837 O 169.342 1.67462 -1.01654 0
M  V30 1838 H 167.922 -0.17885 -0.725273 0
M  V30 1839 H 170.584 -1.11935 -1.59551 0
M  V30 1840 H 169.68 -0.656016 -3.05128 0
M  V30 1841 N 169.982 1.44106 -0.638065 0
M  V30 1842 C 171.21 2.06336 -0.152615 0
M  V30 1843 C 171.625 1.47731 1.17563 0
M  V30 1844 O 170.982 0.602806 1.72257 0
M  V30 1845 C 171.033 3.61479 -0.0391491 0
M  V30 1846 O 170.754 4.17903 -1.31487 0
M  V30 1847 C 172.255 4.40757 0.474176 0
M  V30 1848 H 169.475 0.665862 -0.0828776 0
M  V30 1849 H 172.019 1.84862 -0.87443 0
M  V30 1850 H 170.174 3.82191 0.633142 0
M  V30 1851 H 170.588 5.11416 -1.16421 0
M  V30 1852 H 172.062 5.49707 0.502562 0
M  V30 1853 H 172.539 4.12697 1.50258 0
M  V30 1854 H 173.145 4.24979 -0.165102 0
M  V30 1855 N 171.46 0.379036 1.52974 0
M  V30 1856 C 172.423 -0.448865 2.24762 0
M  V30 1857 C 173.423 -0.998689 1.26027 0
M  V30 1858 O 174.613 -0.882313 1.50203 0
M  V30 1859 C 171.745 -1.62872 2.99476 0
M  V30 1860 H 172.938 0.179491 2.99362 0
M  V30 1861 H 170.491 0.13096 1.5575 0
M  V30 1862 H 171.226 -2.29479 2.29151 0
M  V30 1863 H 171.011 -1.24128 3.71934 0
M  V30 1864 H 172.501 -2.2151 3.5401 0
M  V30 1865 N 172.938 -1.57226 0.108567 0
M  V30 1866 C 174.185 -1.94833 -0.551943 0
M  V30 1867 C 174.513 -0.991204 -1.67348 0
M  V30 1868 O 173.768 -0.0131878 -1.95696 0
M  V30 1869 C 174.067 -3.38911 -1.13463 0
M  V30 1870 C 173.733 -4.50696 -0.135509 0
M  V30 1871 C 172.395 -4.80998 0.139252 0
M  V30 1872 C 174.747 -5.18333 0.545957 0
M  V30 1873 C 172.075 -5.76259 1.10194 0
M  V30 1874 C 174.427 -6.14627 1.49721 0
M  V30 1875 C 173.091 -6.43327 1.78006 0
M  V30 1876 H 172.361 -0.712944 -0.20197 0
M  V30 1877 H 175.008 -1.90582 0.18726 0
M  V30 1878 H 173.313 -3.39805 -1.95037 0
M  V30 1879 H 175.01 -3.65317 -1.65362 0
M  V30 1880 H 171.6 -4.27087 -0.359846 0
M  V30 1881 H 175.784 -4.95087 0.346842 0
M  V30 1882 H 171.04 -5.96804 1.32795 0
M  V30 1883 H 175.214 -6.66126 2.03099 0
M  V30 1884 H 172.841 -7.1695 2.52759 0
M  V30 1885 N 174.416 0.165178 -1.56732 0
M  V30 1886 C 175.346 1.20651 -1.99914 0
M  V30 1887 C 176.327 1.45827 -0.875705 0
M  V30 1888 O 177.512 1.57057 -1.14223 0
M  V30 1889 C 174.642 2.54401 -2.36427 0
M  V30 1890 C 173.596 2.43782 -3.51787 0
M  V30 1891 C 172.922 3.82078 -3.7406 0
M  V30 1892 C 174.222 1.93732 -4.85041 0
M  V30 1893 H 175.916 0.847534 -2.87154 0
M  V30 1894 H 173.462 0.40625 -1.38151 0
M  V30 1895 H 175.415 3.27458 -2.65234 0
M  V30 1896 H 174.139 2.92098 -1.46103 0
M  V30 1897 H 172.798 1.73178 -3.23117 0
M  V30 1898 H 172.446 4.17179 -2.81017 0
M  V30 1899 H 172.146 3.7584 -4.51684 0
M  V30 1900 H 173.67 4.56712 -4.05274 0
M  V30 1901 H 175.084 2.56569 -5.12684 0
M  V30 1902 H 173.481 1.98428 -5.66345 0
M  V30 1903 H 174.551 0.891962 -4.76626 0
M  V30 1904 N 175.894 1.51508 0.433938 0
M  V30 1905 C 177.122 1.68157 1.20543 0
M  V30 1906 C 177.537 0.380362 1.84929 0
M  V30 1907 O 176.894 -0.641446 1.70856 0
M  V30 1908 C 176.945 2.79965 2.28696 0
M  V30 1909 O 176.666 4.05045 1.66943 0
M  V30 1910 C 178.167 3.07912 3.18912 0
M  V30 1911 H 175.387 0.56421 0.363191 0
M  V30 1912 H 177.931 1.97941 0.513754 0
M  V30 1913 H 176.086 2.5277 2.93574 0
M  V30 1914 H 176.5 4.67165 2.38448 0
M  V30 1915 H 177.974 3.89719 3.90926 0
M  V30 1916 H 178.451 2.20456 3.79863 0
M  V30 1917 H 179.057 3.36779 2.59731 0
M  V30 1918 N 177.372 -0.689602 1.41712 0
M  V30 1919 C 178.32 -1.82475 1.44242 0
M  V30 1920 C 179.314 -1.66354 0.319774 0
M  V30 1921 O 180.52 -1.73143 0.492089 0
M  V30 1922 H 176.895 -0.601416 0.451445 0
M  V30 1923 H 178.866 -1.77458 2.39899 0
M  V30 1924 C 177.615 -3.20535 1.3473 0
M  V30 1925 H 176.938 -3.33559 2.20405 0
M  V30 1926 H 178.378 -4.00023 1.40562 0
M  V30 1927 C 176.837 -3.36846 0.0603281 0
M  V30 1928 O 177.367 -3.91656 -0.892663 0
M  V30 1929 N 175.573 -2.90595 -0.0177039 0
M  V30 1930 H 175.12 -2.46178 0.758572 0
M  V30 1931 H 175.078 -3.01886 -0.878201 0
M  V30 1932 N 178.85 -1.27639 -0.924453 0
M  V30 1933 C 180.099 -1.13549 -1.66702 0
M  V30 1934 C 180.412 0.317487 -1.93006 0
M  V30 1935 O 181.618 0.579333 -2.65247 0
M  V30 1936 C 180.074 -1.98426 -3.00259 0
M  V30 1937 C 179.682 -3.484 -2.81641 0
M  V30 1938 C 181.426 -1.92993 -3.78092 0
M  V30 1939 C 179.333 -4.25464 -4.10773 0
M  V30 1940 H 178.263 -0.421351 -0.625283 0
M  V30 1941 H 180.914 -1.52085 -1.02676 0
M  V30 1942 H 179.296 -1.52736 -3.6536 0
M  V30 1943 H 180.47 -4.01973 -2.25287 0
M  V30 1944 H 178.785 -3.55245 -2.17232 0
M  V30 1945 H 181.382 -2.47844 -4.7379 0
M  V30 1946 H 181.725 -0.904281 -4.0636 0
M  V30 1947 H 182.258 -2.36595 -3.19793 0
M  V30 1948 H 178.997 -5.28566 -3.87683 0
M  V30 1949 H 178.517 -3.76667 -4.66779 0
M  V30 1950 H 180.196 -4.34812 -4.79111 0
M  V30 1951 N 180.328 1.1314 -1.09713 0
M  V30 1952 C 181.558 1.88048 -0.855656 0
M  V30 1953 C 181.966 1.79537 0.596919 0
M  V30 1954 O 181.309 1.16196 1.42282 0
M  V30 1955 C 181.371 3.38314 -1.21589 0
M  V30 1956 C 181.035 3.70605 -2.67397 0
M  V30 1957 C 182.032 3.69596 -3.65643 0
M  V30 1958 C 179.717 4.0017 -3.03593 0
M  V30 1959 C 181.711 3.977 -4.9811 0
M  V30 1960 C 179.398 4.27935 -4.36251 0
M  V30 1961 C 180.396 4.26685 -5.33318 0
M  V30 1962 O 180.084 4.53767 -6.63589 0
M  V30 1963 H 179.816 0.60208 -0.307368 0
M  V30 1964 H 182.37 1.44128 -1.46343 0
M  V30 1965 H 180.6 3.82752 -0.551177 0
M  V30 1966 H 182.289 3.94552 -0.953083 0
M  V30 1967 H 183.055 3.46826 -3.39023 0
M  V30 1968 H 178.934 4.00289 -2.2867 0
M  V30 1969 H 182.478 3.9664 -5.73866 0
M  V30 1970 H 178.375 4.50178 -4.62613 0
M  V30 1971 H 179.143 4.71422 -6.69107 0
M  V30 1972 N 181.806 0.884767 1.30421 0
M  V30 1973 C 183.054 0.502112 1.95763 0
M  V30 1974 C 183.375 -0.951815 1.70192 0
M  V30 1975 O 182.645 -1.6692 1.0254 0
M  V30 1976 H 181.225 0.182694 0.724315 0
M  V30 1977 H 183.887 1.1278 1.58955 0
M  V30 1978 H 182.983 0.672188 3.04775 0
M  V30 1979 N 183.284 -1.43765 0.645699 0
M  V30 1980 C 184.509 -2.06767 0.161883 0
M  V30 1981 C 184.934 -1.48034 -1.16049 0
M  V30 1982 O 184.292 -0.587369 -1.71522 0
M  V30 1983 C 184.34 -3.60519 0.0762003 0
M  V30 1984 O 183.444 -4.00982 -0.963721 0
M  V30 1985 H 182.785 -0.657675 0.091429 0
M  V30 1986 H 185.315 -1.84397 0.886499 0
M  V30 1987 H 185.325 -4.07853 -0.109604 0
M  V30 1988 H 184 -4.02646 1.04157 0
M  V30 1989 H 182.577 -3.65253 -0.751312 0
M  V30 1990 N 184.763 -0.387143 -1.52771 0
M  V30 1991 C 185.696 0.493123 -2.22808 0
M  V30 1992 C 186.674 1.0658 -1.22798 0
M  V30 1993 O 187.858 1.11785 -1.51777 0
M  V30 1994 C 184.985 1.68238 -2.93962 0
M  V30 1995 C 184.031 1.23515 -4.08223 0
M  V30 1996 S 184.864 0.21848 -5.35054 0
M  V30 1997 C 186.02 1.41357 -6.09729 0
M  V30 1998 H 186.253 -0.101625 -2.97126 0
M  V30 1999 H 183.786 -0.171323 -1.53447 0
M  V30 2000 H 185.744 2.36443 -3.35567 0
M  V30 2001 H 184.405 2.24842 -2.19328 0
M  V30 2002 H 183.598 2.12304 -4.57103 0
M  V30 2003 H 183.2 0.632044 -3.68621 0
M  V30 2004 H 185.492 2.34101 -6.3577 0
M  V30 2005 H 186.435 0.965736 -7.01484 0
M  V30 2006 H 186.843 1.6294 -5.40473 0
M  V30 2007 N 186.241 1.57166 -0.116904 0
M  V30 2008 C 187.171 2.18222 0.830759 0
M  V30 2009 C 188.152 1.12167 1.27877 0
M  V30 2010 O 189.337 1.40394 1.34176 0
M  V30 2011 C 186.467 2.77996 2.08172 0
M  V30 2012 C 185.421 3.89614 1.77157 0
M  V30 2013 C 184.747 4.36187 3.09265 0
M  V30 2014 C 186.047 5.1181 1.04151 0
M  V30 2015 H 187.741 2.97664 0.321992 0
M  V30 2016 H 185.287 1.4318 0.153434 0
M  V30 2017 H 187.24 3.19366 2.74924 0
M  V30 2018 H 185.964 1.9584 2.6137 0
M  V30 2019 H 184.623 3.48816 1.12796 0
M  V30 2020 H 184.271 3.50893 3.60393 0
M  V30 2021 H 183.971 5.11455 2.89288 0
M  V30 2022 H 185.495 4.80207 3.77139 0
M  V30 2023 H 186.909 5.50214 1.61052 0
M  V30 2024 H 185.306 5.92648 0.942762 0
M  V30 2025 H 186.376 4.84892 0.0279022 0
M  V30 2026 N 187.719 -0.156864 1.56817 0
M  V30 2027 C 188.966 -0.871125 1.82805 0
M  V30 2028 C 189.294 -1.81611 0.696262 0
M  V30 2029 O 188.549 -1.93141 -0.315459 0
M  V30 2030 C 188.848 -1.68737 3.1506 0
M  V30 2031 C 188.514 -0.890045 4.42028 0
M  V30 2032 C 187.176 -0.670042 4.76512 0
M  V30 2033 C 189.528 -0.331769 5.20143 0
M  V30 2034 C 186.856 0.119104 5.86579 0
M  V30 2035 C 189.208 0.444365 6.31037 0
M  V30 2036 C 187.872 0.675035 6.64078 0
M  V30 2037 H 187.142 -0.318767 0.668931 0
M  V30 2038 H 189.789 -0.135274 1.91022 0
M  V30 2039 H 188.094 -2.49304 3.0225 0
M  V30 2040 H 189.791 -2.24331 3.3238 0
M  V30 2041 H 186.381 -1.07157 4.14988 0
M  V30 2042 H 190.565 -0.489043 4.93885 0
M  V30 2043 H 185.821 0.307417 6.10627 0
M  V30 2044 H 189.995 0.884139 6.90765 0
M  V30 2045 H 187.622 1.28839 7.49203 0
M  V30 2046 N 189.197 -1.51736 -0.425897 0
M  V30 2047 C 190.127 -1.76827 -1.52494 0
M  V30 2048 C 191.108 -0.618524 -1.58456 0
M  V30 2049 O 192.293 -0.862416 -1.74 0
M  V30 2050 C 189.423 -1.90374 -2.90474 0
M  V30 2051 C 188.377 -3.0588 -2.99369 0
M  V30 2052 C 187.703 -3.04625 -4.3944 0
M  V30 2053 C 189.003 -4.45644 -2.72394 0
M  V30 2054 H 190.697 -2.68855 -1.31748 0
M  V30 2055 H 188.243 -1.29372 -0.632362 0
M  V30 2056 H 190.196 -2.0651 -3.6733 0
M  V30 2057 H 188.92 -0.95004 -3.12477 0
M  V30 2058 H 187.579 -2.89467 -2.24954 0
M  V30 2059 H 187.227 -2.0701 -4.58428 0
M  V30 2060 H 186.927 -3.82195 -4.46319 0
M  V30 2061 H 188.451 -3.22869 -5.18255 0
M  V30 2062 H 189.865 -4.62348 -3.38979 0
M  V30 2063 H 188.262 -5.25006 -2.9067 0
M  V30 2064 H 189.332 -4.54893 -1.67929 0
M  V30 2065 N 190.675 0.682077 -1.42076 0
M  V30 2066 C 191.903 1.47057 -1.4554 0
M  V30 2067 C 192.318 1.8869 -0.0645779 0
M  V30 2068 O 191.675 1.57666 0.919115 0
M  V30 2069 C 191.726 2.72442 -2.37609 0
M  V30 2070 O 191.447 2.32559 -3.71279 0
M  V30 2071 C 192.948 3.66069 -2.50017 0
M  V30 2072 H 190.168 0.452737 -0.495248 0
M  V30 2073 H 192.712 0.838695 -1.8651 0
M  V30 2074 H 190.867 3.31835 -1.9991 0
M  V30 2075 H 191.281 3.13475 -4.20516 0
M  V30 2076 H 192.755 4.50792 -3.18576 0
M  V30 2077 H 193.232 4.11476 -1.53572 0
M  V30 2078 H 193.838 3.12572 -2.88407 0
M  V30 2079 N 192.153 1.28127 0.917671 0
M  V30 2080 C 193.393 1.163 1.68088 0
M  V30 2081 C 193.757 -0.284515 1.8988 0
M  V30 2082 O 194.958 -0.525413 2.63615 0
M  V30 2083 C 193.229 1.93546 3.00457 0
M  V30 2084 S 194.788 1.98048 3.91564 0
M  V30 2085 H 191.606 0.415005 0.577315 0
M  V30 2086 H 194.208 1.62173 1.09179 0
M  V30 2087 H 192.912 2.97888 2.82295 0
M  V30 2088 H 192.443 1.48207 3.64415 0
M  V30 2089 H 194.458 1.08415 4.84211 0
M  V30 2090 N 193.631 -1.12557 1.10312 0
M  V30 2091 C 194.88 -1.83395 0.839588 0
M  V30 2092 C 195.193 -1.84939 -0.636929 0
M  V30 2093 O 196.399 -2.51761 -1.01631 0
M  V30 2094 C 194.855 -3.29303 1.45215 0
M  V30 2095 C 194.463 -3.36122 2.96186 0
M  V30 2096 C 196.207 -4.05121 1.26796 0
M  V30 2097 C 194.114 -4.76357 3.50483 0
M  V30 2098 H 193.044 -0.687133 0.310425 0
M  V30 2099 H 195.695 -1.26746 1.32694 0
M  V30 2100 H 194.077 -3.85812 0.892469 0
M  V30 2101 H 195.251 -2.89559 3.58458 0
M  V30 2102 H 193.566 -2.73776 3.13745 0
M  V30 2103 H 196.163 -5.08668 1.64806 0
M  V30 2104 H 196.506 -4.15773 0.209409 0
M  V30 2105 H 197.039 -3.54967 1.79563 0
M  V30 2106 H 193.778 -4.70899 4.55998 0
M  V30 2107 H 193.298 -5.23377 2.92978 0
M  V30 2108 H 194.977 -5.45294 3.48228 0
M  V30 2109 N 195.109 -0.891671 -1.2995 0
M  V30 2110 C 196.334 -0.527932 -2.00568 0
M  V30 2111 C 196.759 0.877969 -1.66353 0
M  V30 2112 O 196.117 1.58301 -0.883762 0
M  V30 2113 C 196.165 -0.717745 -3.53385 0
M  V30 2114 O 195.269 0.233376 -4.11739 0
M  V30 2115 H 194.61 -0.20722 -0.630837 0
M  V30 2116 H 197.14 -1.20105 -1.65638 0
M  V30 2117 H 197.15 -0.619307 -4.03272 0
M  V30 2118 H 195.825 -1.74276 -3.77625 0
M  V30 2119 H 194.402 0.0880706 -3.72796 0
M  V30 2120 N 196.587 1.43421 -0.653314 0
M  V30 2121 C 197.833 2.02111 -0.166992 0
M  V30 2122 C 198.166 1.51423 1.21592 0
M  V30 2123 O 197.441 0.707389 1.8118 0
M  V30 2124 C 197.724 3.5966 -0.177948 0
M  V30 2125 C 197.577 4.20579 -1.59478 0
M  V30 2126 C 198.896 4.37413 0.4856 0
M  V30 2127 H 196.015 0.734374 -0.0621557 0
M  V30 2128 H 198.657 1.70717 -0.834016 0
M  V30 2129 H 196.807 3.86537 0.390032 0
M  V30 2130 H 198.479 4.04732 -2.21336 0
M  V30 2131 H 196.722 3.77226 -2.14204 0
M  V30 2132 H 197.393 5.29665 -1.5543 0
M  V30 2133 H 199.869 4.161 0.00234528 0
M  V30 2134 H 198.745 5.47075 0.447207 0
M  V30 2135 H 199.006 4.13672 1.55974 0
M  V30 2136 N 198.065 0.39524 1.52563 0
M  V30 2137 C 199.342 -0.242908 1.94086 0
M  V30 2138 C 199.722 -1.63841 1.33114 0
M  V30 2139 O 199.07 -2.22928 0.501529 0
M  V30 2140 C 199.28 -0.26327 3.48006 0
M  V30 2141 C 200.628 -0.489354 4.21771 0
M  V30 2142 O 201.652 -0.343226 3.54543 0
M  V30 2143 O 200.511 -0.776169 5.4096 0
M  V30 2144 H 197.605 -0.152536 0.812811 0
M  V30 2145 H 200.151 0.450178 1.6362 0
M  V30 2146 H 198.923 0.713985 3.84731 0
M  V30 2147 H 198.546 -1.00103 3.84792 0
M  V30 2148 N 199.544 -1.57102 0.125237 0
M  V30 2149 C 200.96 -1.57915 -0.231322 0
M  V30 2150 C 201.16 -1.13833 -1.66266 0
M  V30 2151 O 200.216 -0.828581 -2.38518 0
M  V30 2152 C 201.529 -3.00699 0.00766489 0
M  V30 2153 C 203.077 -3.12947 -0.0577483 0
M  V30 2154 C 203.552 -4.57742 0.153626 0
M  V30 2155 N 205.043 -4.63092 0.0998073 0
M  V30 2156 C 205.778 -5.72905 0.238174 0
M  V30 2157 N 205.274 -6.91445 0.433057 0
M  V30 2158 N 207.067 -5.6182 0.177308 0
M  V30 2159 H 199.218 -1.84055 1.06007 0
M  V30 2160 H 201.481 -0.850905 0.417929 0
M  V30 2161 H 201.187 -3.3726 0.997431 0
M  V30 2162 H 201.061 -3.70236 -0.721452 0
M  V30 2163 H 203.448 -2.7624 -1.03804 0
M  V30 2164 H 203.529 -2.4594 0.70335 0
M  V30 2165 H 203.173 -4.95149 1.13092 0
M  V30 2166 H 203.103 -5.22848 -0.627534 0
M  V30 2167 H 205.594 -3.77871 -0.047051 0
M  V30 2168 H 205.907 -7.70985 0.529332 0
M  V30 2169 H 204.252 -6.93415 0.469109 0
M  V30 2170 H 207.443 -4.68093 0.0259748 0
M  V30 2171 H 207.616 -6.47357 0.288582 0
M  V30 2172 N 201.022 0.148545 -1.56898 0
M  V30 2173 C 202.269 0.861418 -1.83264 0
M  V30 2174 C 202.597 1.81239 -0.705883 0
M  V30 2175 O 201.852 1.93305 0.305212 0
M  V30 2176 C 202.151 1.67064 -3.1595 0
M  V30 2177 C 201.817 0.866591 -4.42494 0
M  V30 2178 C 200.479 0.644762 -4.76861 0
M  V30 2179 C 202.831 0.30418 -5.20312 0
M  V30 2180 C 200.159 -0.15021 -5.86508 0
M  V30 2181 C 202.511 -0.477824 -6.30793 0
M  V30 2182 C 201.175 -0.710244 -6.63711 0
M  V30 2183 H 200.445 0.315215 -0.670612 0
M  V30 2184 H 203.092 0.125142 -1.91091 0
M  V30 2185 H 201.397 2.47698 -3.03567 0
M  V30 2186 H 203.094 2.22566 -3.33565 0
M  V30 2187 H 199.684 1.04955 -4.15551 0
M  V30 2188 H 203.868 0.462844 -4.94137 0
M  V30 2189 H 199.124 -0.339796 -6.10455 0
M  V30 2190 H 203.298 -0.92076 -6.90286 0
M  V30 2191 H 200.925 -1.3281 -7.48509 0
M  V30 2192 N 202.5 1.5196 0.417844 0
M  V30 2193 C 203.43 1.77634 1.51554 0
M  V30 2194 C 204.411 0.626918 1.58126 0
M  V30 2195 O 205.596 0.871632 1.7354 0
M  V30 2196 C 202.726 1.91911 2.8946 0
M  V30 2197 C 201.68 3.07463 2.97743 0
M  V30 2198 C 201.006 3.06951 4.37819 0
M  V30 2199 C 202.306 4.47082 2.70027 0
M  V30 2200 H 204 2.6955 1.3032 0
M  V30 2201 H 201.546 1.29706 0.625492 0
M  V30 2202 H 203.499 2.08455 3.6623 0
M  V30 2203 H 202.223 0.966598 3.11969 0
M  V30 2204 H 200.882 2.90656 2.23416 0
M  V30 2205 H 200.53 2.09438 4.57323 0
M  V30 2206 H 200.23 3.84556 4.44286 0
M  V30 2207 H 201.754 3.25613 5.16535 0
M  V30 2208 H 203.168 4.6414 3.36522 0
M  V30 2209 H 201.565 5.2654 2.87881 0
M  V30 2210 H 202.635 4.55777 1.65514 0
M  V30 2211 N 203.978 -0.674533 1.42435 0
M  V30 2212 C 204.941 -1.76986 1.45632 0
M  V30 2213 C 205.941 -1.5708 0.343871 0
M  V30 2214 O 207.131 -1.63367 0.604709 0
M  V30 2215 C 204.263 -3.15623 1.28822 0
M  V30 2216 H 205.456 -1.75539 2.43158 0
M  V30 2217 H 203.009 -0.884189 1.28887 0
M  V30 2218 H 203.744 -3.22696 0.322193 0
M  V30 2219 H 203.529 -3.31475 2.09444 0
M  V30 2220 H 205.019 -3.95537 1.33942 0
M  V30 2221 N 205.456 -1.28612 -0.910864 0
M  V30 2222 C 206.705 -1.15311 -1.65488 0
M  V30 2223 C 207.018 0.296999 -1.93332 0
M  V30 2224 O 208.224 0.551168 -2.65847 0
M  V30 2225 C 206.68 -2.01599 -2.98137 0
M  V30 2226 C 206.288 -3.51367 -2.7793 0
M  V30 2227 C 208.032 -1.96993 -3.76024 0
M  V30 2228 C 205.939 -4.29797 -4.06237 0
M  V30 2229 H 204.869 -0.42796 -0.620779 0
M  V30 2230 H 207.52 -1.53166 -1.01057 0
M  V30 2231 H 205.902 -1.56603 -3.63719 0
M  V30 2232 H 207.076 -4.0434 -2.21011 0
M  V30 2233 H 205.391 -3.57529 -2.13452 0
M  V30 2234 H 207.988 -2.52856 -4.71135 0
M  V30 2235 H 208.331 -0.94733 -4.05378 0
M  V30 2236 H 208.864 -2.39973 -3.17266 0
M  V30 2237 H 205.603 -5.32648 -3.82055 0
M  V30 2238 H 205.123 -3.81596 -4.62757 0
M  V30 2239 H 206.802 -4.39869 -4.74473 0
M  V30 2240 N 206.934 1.1197 -1.10907 0
M  V30 2241 C 208.18 1.8386 -0.855773 0
M  V30 2242 C 208.513 1.84134 0.617103 0
M  V30 2243 O 207.788 1.29041 1.45529 0
M  V30 2244 C 208.071 3.31305 -1.411 0
M  V30 2245 C 207.924 3.39456 -2.9511 0
M  V30 2246 C 209.243 4.2721 -1.05736 0
M  V30 2247 H 206.362 0.667545 -0.312334 0
M  V30 2248 H 209.004 1.31331 -1.37303 0
M  V30 2249 H 207.154 3.76169 -0.97105 0
M  V30 2250 H 208.826 3.03191 -3.47668 0
M  V30 2251 H 207.069 2.79849 -3.31462 0
M  V30 2252 H 207.74 4.43209 -3.29044 0
M  V30 2253 H 210.216 3.90497 -1.43706 0
M  V30 2254 H 209.092 5.28775 -1.47269 0
M  V30 2255 H 209.353 4.42088 0.0325958 0
M  V30 2256 N 208.412 0.89855 1.29475 0
M  V30 2257 C 209.642 0.538479 1.99459 0
M  V30 2258 C 210.05 -0.880922 1.67441 0
M  V30 2259 O 209.393 -1.59283 0.915127 0
M  V30 2260 C 209.455 0.649564 3.53583 0
M  V30 2261 C 209.119 2.03573 4.09154 0
M  V30 2262 C 210.116 3.00675 4.24135 0
M  V30 2263 C 207.801 2.3448 4.44212 0
M  V30 2264 C 209.795 4.26809 4.73405 0
M  V30 2265 C 207.482 3.60857 4.93179 0
M  V30 2266 C 208.48 4.56836 5.0773 0
M  V30 2267 O 208.168 5.80969 5.55635 0
M  V30 2268 H 207.9 0.205372 0.644048 0
M  V30 2269 H 210.454 1.20958 1.66007 0
M  V30 2270 H 208.684 -0.0785592 3.8662 0
M  V30 2271 H 210.373 0.29881 4.04799 0
M  V30 2272 H 211.139 2.78112 3.97339 0
M  V30 2273 H 207.018 1.60534 4.32145 0
M  V30 2274 H 210.562 5.0173 4.84678 0
M  V30 2275 H 206.459 3.83251 5.19412 0
M  V30 2276 H 207.227 5.83542 5.73952 0
M  V30 2277 N 209.89 -1.43072 0.660911 0
M  V30 2278 C 211.301 -1.84932 0.256348 0
M  V30 2279 C 211.652 -1.55325 -1.19868 0
M  V30 2280 O 210.777 -1.00607 -1.91591 0
M  V30 2281 C 211.372 -3.35684 0.458475 0
M  V30 2282 C 209.931 -3.76245 0.108161 0
M  V30 2283 C 209.078 -2.66749 0.757641 0
M  V30 2284 H 212.029 -1.33116 0.864051 0
M  V30 2285 H 212.05 -3.79365 -0.293683 0
M  V30 2286 H 211.562 -3.572 1.51755 0
M  V30 2287 H 209.663 -3.60338 -0.948014 0
M  V30 2288 H 209.776 -4.76058 0.538992 0
M  V30 2289 H 208.14 -2.53989 0.190185 0
M  V30 2290 H 208.923 -2.91092 1.81989 0
M  V30 2291 N 211.368 -0.403325 -1.52352 0
M  V30 2292 C 212.615 0.174347 -2.01748 0
M  V30 2293 C 212.943 1.45636 -1.2892 0
M  V30 2294 O 212.198 1.9193 -0.382258 0
M  V30 2295 C 212.497 0.474665 -3.54234 0
M  V30 2296 C 212.163 -0.717458 -4.45155 0
M  V30 2297 C 210.825 -1.04447 -4.69728 0
M  V30 2298 C 213.177 -1.51432 -4.98716 0
M  V30 2299 C 210.505 -2.16963 -5.45109 0
M  V30 2300 C 212.857 -2.6302 -5.75329 0
M  V30 2301 C 211.521 -2.96213 -5.98175 0
M  V30 2302 H 210.791 0.0637981 -0.738248 0
M  V30 2303 H 213.438 -0.543553 -1.83624 0
M  V30 2304 H 211.743 1.27406 -3.70506 0
M  V30 2305 H 213.44 0.934496 -3.89959 0
M  V30 2306 H 210.03 -0.452596 -4.26204 0
M  V30 2307 H 214.214 -1.27491 -4.79645 0
M  V30 2308 H 209.47 -2.43034 -5.61021 0
M  V30 2309 H 213.644 -3.25158 -6.15829 0
M  V30 2310 H 211.271 -3.83516 -6.56368 0
M  V30 2311 N 212.846 1.57033 -0.133567 0
M  V30 2312 C 214.262 1.58035 0.222944 0
M  V30 2313 C 214.462 1.14713 1.6566 0
M  V30 2314 O 213.518 0.841218 2.38075 0
M  V30 2315 C 214.831 3.00691 -0.0236116 0
M  V30 2316 C 216.379 3.12973 0.0411512 0
M  V30 2317 C 216.854 4.57654 -0.177899 0
M  V30 2318 N 218.345 4.63033 -0.124365 0
M  V30 2319 C 219.08 5.72771 -0.268553 0
M  V30 2320 N 218.576 6.91206 -0.46972 0
M  V30 2321 N 220.369 5.61718 -0.2071 0
M  V30 2322 H 212.52 1.8349 -1.06981 0
M  V30 2323 H 214.783 0.848677 -0.422436 0
M  V30 2324 H 214.489 3.36726 -1.0153 0
M  V30 2325 H 214.363 3.70614 0.701808 0
M  V30 2326 H 216.75 2.76787 1.02338 0
M  V30 2327 H 216.831 2.45564 -0.716383 0
M  V30 2328 H 216.475 4.94542 -1.15717 0
M  V30 2329 H 216.405 5.23173 0.599797 0
M  V30 2330 H 218.896 3.7789 0.027011 0
M  V30 2331 H 219.209 7.70693 -0.570212 0
M  V30 2332 H 217.554 6.93156 -0.505876 0
M  V30 2333 H 220.745 4.68072 -0.0507986 0
M  V30 2334 H 220.918 6.47195 -0.322909 0
M  V30 2335 N 214.325 -0.140222 1.56975 0
M  V30 2336 C 215.55 -0.870414 1.88251 0
M  V30 2337 C 215.975 -1.73637 0.723312 0
M  V30 2338 O 215.333 -1.78329 -0.32689 0
M  V30 2339 C 215.381 -1.69737 3.18154 0
M  V30 2340 O 214.485 -2.80229 3.02565 0
M  V30 2341 H 213.826 -0.242025 0.61832 0
M  V30 2342 H 216.356 -0.128999 2.04193 0
M  V30 2343 H 216.366 -2.09099 3.50345 0
M  V30 2344 H 215.041 -1.06152 4.02125 0
M  V30 2345 H 213.618 -2.44224 2.81796 0
M  V30 2346 N 215.803 -1.52179 -0.40978 0
M  V30 2347 C 217.219 -1.40968 -0.74835 0
M  V30 2348 C 217.419 -0.513657 -1.94843 0
M  V30 2349 O 216.475 0.0208026 -2.52491 0
M  V30 2350 C 217.788 -2.83483 -1.0029 0
M  V30 2351 C 219.336 -2.92821 -1.10565 0
M  V30 2352 C 219.811 -4.36303 -1.39296 0
M  V30 2353 N 221.302 -4.39535 -1.46162 0
M  V30 2354 C 222.037 -5.47614 -1.70018 0
M  V30 2355 N 221.533 -6.65812 -1.91483 0
M  V30 2356 N 223.326 -5.35129 -1.72027 0
M  V30 2357 H 215.477 -2.0897 0.380186 0
M  V30 2358 H 217.74 -0.94185 0.107805 0
M  V30 2359 H 217.446 -3.51168 -0.193461 0
M  V30 2360 H 217.32 -3.24487 -1.92323 0
M  V30 2361 H 219.707 -2.25318 -1.90568 0
M  V30 2362 H 219.788 -2.55276 -0.16369 0
M  V30 2363 H 219.432 -5.04366 -0.598109 0
M  V30 2364 H 219.362 -4.71385 -2.34743 0
M  V30 2365 H 221.853 -3.54332 -1.31367 0
M  V30 2366 H 222.166 -7.43964 -2.09134 0
M  V30 2367 H 220.511 -6.68879 -1.88749 0
M  V30 2368 H 223.702 -4.41764 -1.54796 0
M  V30 2369 H 223.875 -6.19433 -1.9028 0
M  V30 2370 N 217.281 0.66697 -1.42791 0
M  V30 2371 C 218.509 1.45505 -1.47091 0
M  V30 2372 C 218.924 1.8861 -0.0845873 0
M  V30 2373 O 218.281 1.58632 0.90234 0
M  V30 2374 C 218.332 2.69906 -2.40485 0
M  V30 2375 O 218.053 2.28608 -3.73725 0
M  V30 2376 C 219.554 3.63396 -2.53886 0
M  V30 2377 H 216.774 0.447459 -0.500022 0
M  V30 2378 H 219.318 0.818866 -1.8739 0
M  V30 2379 H 217.473 3.29696 -2.03419 0
M  V30 2380 H 217.887 3.08997 -4.23817 0
M  V30 2381 H 219.361 4.47387 -3.2334 0
M  V30 2382 H 219.838 4.09824 -1.57927 0
M  V30 2383 H 220.444 3.09495 -2.91706 0
M  V30 2384 N 218.759 1.29093 0.90403 0
M  V30 2385 C 220.008 1.16187 1.64874 0
M  V30 2386 C 220.321 -0.286742 1.93487 0
M  V30 2387 O 221.527 -0.537062 2.66135 0
M  V30 2388 C 219.983 2.03177 2.97064 0
M  V30 2389 C 219.591 3.52836 2.76062 0
M  V30 2390 C 221.335 1.98984 3.74974 0
M  V30 2391 C 219.242 4.31945 4.03952 0
M  V30 2392 H 218.172 0.431246 0.618501 0
M  V30 2393 H 220.823 1.53699 1.00243 0
M  V30 2394 H 219.205 1.5853 3.62883 0
M  V30 2395 H 220.379 4.05507 2.18863 0
M  V30 2396 H 218.694 3.58656 2.11553 0
M  V30 2397 H 221.291 2.55351 4.69787 0
M  V30 2398 H 221.634 0.968815 4.0487 0
M  V30 2399 H 222.167 2.41652 3.15989 0
M  V30 2400 H 218.906 5.34667 3.79225 0
M  V30 2401 H 218.426 3.84045 4.60727 0
M  V30 2402 H 220.105 4.42379 4.72133 0
M  V30 2403 N 220.237 -1.11381 1.11499 0
M  V30 2404 C 221.653 -1.35143 0.849031 0
M  V30 2405 C 221.853 -1.94515 -0.525938 0
M  V30 2406 O 220.909 -2.1785 -1.27662 0
M  V30 2407 C 222.222 -2.28249 1.95762 0
M  V30 2408 C 223.77 -2.41812 1.98736 0
M  V30 2409 C 224.245 -3.3824 3.088 0
M  V30 2410 N 225.736 -3.45803 3.08179 0
M  V30 2411 C 226.471 -4.20358 3.89982 0
M  V30 2412 N 225.967 -4.97884 4.8175 0
M  V30 2413 N 227.76 -4.15877 3.78157 0
M  V30 2414 H 219.911 -0.712062 2.00109 0
M  V30 2415 H 222.174 -0.376025 0.870235 0
M  V30 2416 H 221.88 -1.91817 2.94787 0
M  V30 2417 H 221.754 -3.28473 1.85433 0
M  V30 2418 H 224.141 -2.77518 1.00338 0
M  V30 2419 H 224.222 -1.41437 2.13141 0
M  V30 2420 H 223.866 -3.03261 4.07425 0
M  V30 2421 H 223.796 -4.38471 2.91635 0
M  V30 2422 H 226.287 -2.90506 2.41691 0
M  V30 2423 H 226.6 -5.52142 5.40702 0
M  V30 2424 H 224.945 -4.97043 4.85771 0
M  V30 2425 H 228.136 -3.544 3.05808 0
M  V30 2426 H 228.309 -4.73723 4.42143 0
M  V30 2427 N 221.715 -0.905404 -1.28997 0
M  V30 2428 C 222.943 -0.549846 -1.9946 0
M  V30 2429 C 223.358 0.866834 -1.67724 0
M  V30 2430 O 222.715 1.57298 -0.925404 0
M  V30 2431 C 222.766 -0.739387 -3.53858 0
M  V30 2432 O 222.487 -2.10031 -3.84472 0
M  V30 2433 C 223.988 -0.389541 -4.41585 0
M  V30 2434 H 221.208 -0.210429 -0.637151 0
M  V30 2435 H 223.752 -1.21632 -1.64396 0
M  V30 2436 H 221.907 -0.120023 -3.87214 0
M  V30 2437 H 222.321 -2.13385 -4.79132 0
M  V30 2438 H 223.795 -0.572972 -5.49018 0
M  V30 2439 H 224.272 0.673756 -4.34001 0
M  V30 2440 H 224.878 -0.986089 -4.1371 0
M  V30 2441 N 223.193 1.4272 -0.668489 0
M  V30 2442 C 224.609 1.55992 -0.33745 0
M  V30 2443 C 224.809 1.64933 1.15756 0
M  V30 2444 O 223.865 1.61278 1.94282 0
M  V30 2445 C 225.178 2.81314 -1.06222 0
M  V30 2446 C 226.726 2.95078 -1.04394 0
M  V30 2447 C 227.201 4.23252 -1.74991 0
M  V30 2448 N 228.692 4.3015 -1.71829 0
M  V30 2449 C 229.427 5.28127 -2.23315 0
M  V30 2450 N 228.923 6.32293 -2.83156 0
M  V30 2451 N 230.716 5.19882 -2.13726 0
M  V30 2452 H 222.867 1.3516 -1.63846 0
M  V30 2453 H 225.13 0.650174 -0.689912 0
M  V30 2454 H 224.836 2.80823 -2.11734 0
M  V30 2455 H 224.71 3.72012 -0.62344 0
M  V30 2456 H 227.097 2.951 0.0028244 0
M  V30 2457 H 227.178 2.05627 -1.52155 0
M  V30 2458 H 226.822 4.2399 -2.79633 0
M  V30 2459 H 226.752 5.11626 -1.24685 0
M  V30 2460 H 229.243 3.55499 -1.28175 0
M  V30 2461 H 229.556 7.03398 -3.20079 0
M  V30 2462 H 227.901 6.32873 -2.87223 0
M  V30 2463 H 231.092 4.37423 -1.66669 0
M  V30 2464 H 231.265 5.96077 -2.54158 0
M  V30 2465 N 224.671 0.411399 1.52136 0
M  V30 2466 C 226.087 0.0623865 1.59478 0
M  V30 2467 C 226.287 -1.42554 1.4241 0
M  V30 2468 O 225.343 -2.19263 1.2522 0
M  V30 2469 C 226.656 0.559331 2.95452 0
M  V30 2470 C 228.204 0.517503 3.08692 0
M  V30 2471 C 228.679 0.990994 4.4715 0
M  V30 2472 N 230.17 0.947908 4.53397 0
M  V30 2473 C 230.905 1.28544 5.58806 0
M  V30 2474 N 230.401 1.69454 6.71757 0
M  V30 2475 N 232.194 1.20526 5.49026 0
M  V30 2476 H 224.345 1.37982 1.61477 0
M  V30 2477 H 226.608 0.566977 0.759764 0
M  V30 2478 H 226.314 1.59938 3.1323 0
M  V30 2479 H 226.188 -0.0298014 3.77188 0
M  V30 2480 H 228.575 -0.513505 2.90598 0
M  V30 2481 H 228.656 1.14272 2.28857 0
M  V30 2482 H 228.3 2.02034 4.65988 0
M  V30 2483 H 228.23 0.34257 5.25485 0
M  V30 2484 H 230.721 0.647157 3.72317 0
M  V30 2485 H 231.034 1.93513 7.48179 0
M  V30 2486 H 229.379 1.73359 6.73032 0
M  V30 2487 H 232.57 0.884505 4.59667 0
M  V30 2488 H 232.743 1.47161 6.31069 0
M  V30 2489 N 226.149 -1.5696 0.141893 0
M  V30 2490 C 227.097 -2.17784 -0.816874 0
M  V30 2491 C 228.091 -1.1334 -1.25899 0
M  V30 2492 O 229.297 -1.316 -1.22806 0
M  V30 2493 H 225.672 -0.697278 -0.281615 0
M  V30 2494 H 227.643 -2.97087 -0.279621 0
M  V30 2495 C 226.392 -2.80983 -2.04802 0
M  V30 2496 H 225.715 -3.61062 -1.7168 0
M  V30 2497 H 227.155 -3.2705 -2.69841 0
M  V30 2498 C 225.614 -1.79228 -2.8527 0
M  V30 2499 O 226.144 -1.25962 -3.8144 0
M  V30 2500 N 224.35 -1.48647 -2.49704 0
M  V30 2501 H 223.897 -1.92155 -1.71564 0
M  V30 2502 H 223.855 -0.808115 -3.03837 0
M  V30 2503 N 227.627 0.131896 -1.57047 0
M  V30 2504 C 228.852 0.860418 -1.8871 0
M  V30 2505 C 229.277 1.73251 -0.73251 0
M  V30 2506 O 228.635 1.785 0.317429 0
M  V30 2507 C 228.683 1.68047 -3.19049 0
M  V30 2508 O 227.787 2.7862 -3.04047 0
M  V30 2509 H 227.128 0.238743 -0.619595 0
M  V30 2510 H 229.658 0.118169 -2.04258 0
M  V30 2511 H 229.668 2.07238 -3.51449 0
M  V30 2512 H 228.343 1.04018 -4.02682 0
M  V30 2513 H 226.92 2.42726 -2.83088 0
M  V30 2514 N 229.106 1.52395 0.401703 0
M  V30 2515 C 230.069 1.75636 1.47257 0
M  V30 2516 C 231.069 0.62628 1.48103 0
M  V30 2517 O 232.259 0.894227 1.49497 0
M  V30 2518 C 229.391 1.84553 2.86624 0
M  V30 2519 H 230.584 2.71241 1.27938 0
M  V30 2520 H 228.137 1.42923 0.632662 0
M  V30 2521 H 228.872 0.908882 3.11303 0
M  V30 2522 H 228.657 2.66715 2.87412 0
M  V30 2523 H 230.147 2.04251 3.64241 0
M  V30 2524 N 230.584 -0.659388 1.43143 0
M  V30 2525 C 231.833 -1.41518 1.43721 0
M  V30 2526 C 232.146 -1.95499 0.0628176 0
M  V30 2527 O 233.352 -2.71446 -0.0539683 0
M  V30 2528 C 231.808 -2.5608 2.52885 0
M  V30 2529 C 231.416 -2.08733 3.96402 0
M  V30 2530 C 233.16 -3.3349 2.62649 0
M  V30 2531 C 231.067 -3.20469 4.97045 0
M  V30 2532 H 229.997 -0.531705 0.534608 0
M  V30 2533 H 232.648 -0.712343 1.69109 0
M  V30 2534 H 231.03 -3.28805 2.20688 0
M  V30 2535 H 232.204 -1.43059 4.3803 0
M  V30 2536 H 230.519 -1.44219 3.90627 0
M  V30 2537 H 233.116 -4.16734 3.35017 0
M  V30 2538 H 233.459 -3.8111 1.67513 0
M  V30 2539 H 233.992 -2.67842 2.94118 0
M  V30 2540 H 230.731 -2.77824 5.93712 0
M  V30 2541 H 230.251 -3.84874 4.60034 0
M  V30 2542 H 231.93 -3.85698 5.19467 0
M  V30 2543 N 232.062 -1.29571 -0.897171 0
M  V30 2544 C 233.308 -1.17863 -1.65034 0
M  V30 2545 C 233.641 0.268729 -1.92332 0
M  V30 2546 O 232.916 1.19378 -1.53555 0
M  V30 2547 C 233.199 -1.995 -2.99786 0
M  V30 2548 C 233.052 -3.5239 -2.79538 0
M  V30 2549 C 234.371 -1.82335 -4.00552 0
M  V30 2550 H 231.49 -0.429528 -0.598895 0
M  V30 2551 H 234.132 -1.59072 -1.03905 0
M  V30 2552 H 232.282 -1.64485 -3.51962 0
M  V30 2553 H 233.954 -3.97401 -2.34244 0
M  V30 2554 H 232.197 -3.77187 -2.14273 0
M  V30 2555 H 232.868 -4.04787 -3.75302 0
M  V30 2556 H 235.344 -2.12924 -3.57495 0
M  V30 2557 H 234.22 -2.41801 -4.92771 0
M  V30 2558 H 234.481 -0.779209 -4.35179 0
M  V30 2559 N 233.54 1.10788 -1.12088 0
M  V30 2560 C 234.78 1.84297 -0.883974 0
M  V30 2561 C 235.144 1.83036 0.579797 0
M  V30 2562 O 236.345 2.52061 0.933734 0
M  V30 2563 C 234.616 3.27173 -1.43849 0
M  V30 2564 S 236.175 4.17853 -1.33957 0
M  V30 2565 H 232.993 0.635433 -0.318977 0
M  V30 2566 H 235.595 1.33341 -1.4297 0
M  V30 2567 H 234.299 3.25658 -2.49749 0
M  V30 2568 H 233.83 3.83198 -0.890096 0
M  V30 2569 H 235.845 4.95239 -0.308603 0
M  V30 2570 N 235.018 0.912232 1.28515 0
M  V30 2571 C 235.981 0.404223 2.25607 0
M  V30 2572 C 236.981 -0.468602 1.53821 0
M  V30 2573 O 238.171 -0.271873 1.72065 0
M  V30 2574 C 235.303 -0.420653 3.38295 0
M  V30 2575 H 236.496 1.26188 2.7206 0
M  V30 2576 H 234.049 0.691495 1.40171 0
M  V30 2577 H 234.784 -1.29777 2.97201 0
M  V30 2578 H 234.569 0.204935 3.91564 0
M  V30 2579 H 236.059 -0.766971 4.10496 0
M  V30 2580 N 236.496 -1.42363 0.676048 0
M  V30 2581 C 237.744 -2.01123 0.198437 0
M  V30 2582 C 238.065 -1.53731 -1.19966 0
M  V30 2583 O 237.335 -0.759518 -1.80577 0
M  V30 2584 H 235.915 -0.743678 0.0703721 0
M  V30 2585 H 238.577 -1.74263 0.872837 0
M  V30 2586 H 237.673 -3.11454 0.200686 0
M  V30 2587 N 237.974 -0.419461 -1.51915 0
M  V30 2588 C 239.22 0.153166 -2.02221 0
M  V30 2589 C 239.553 1.43907 -1.30401 0
M  V30 2590 O 238.828 1.90055 -0.413438 0
M  V30 2591 C 239.111 0.390291 -3.57979 0
M  V30 2592 C 238.964 -0.913014 -4.40436 0
M  V30 2593 C 240.283 1.16794 -4.2432 0
M  V30 2594 H 237.402 0.0541924 -0.735005 0
M  V30 2595 H 240.044 -0.554955 -1.81715 0
M  V30 2596 H 238.194 0.993491 -3.75582 0
M  V30 2597 H 239.866 -1.54882 -4.34522 0
M  V30 2598 H 238.109 -1.52168 -4.06236 0
M  V30 2599 H 238.78 -0.701361 -5.47526 0
M  V30 2600 H 241.256 0.657161 -4.10878 0
M  V30 2601 H 240.132 1.3026 -5.3322 0
M  V30 2602 H 240.393 2.19132 -3.83971 0
M  V30 2603 N 239.452 1.56882 -0.150215 0
M  V30 2604 C 240.698 1.97299 0.494427 0
M  V30 2605 C 241.053 1.0338 1.62266 0
M  V30 2606 O 240.346 0.0694497 1.91474 0
M  V30 2607 C 240.54 3.41801 1.04437 0
M  V30 2608 C 240.369 4.49691 -0.0290451 0
M  V30 2609 C 239.139 5.03095 -0.47156 0
M  V30 2610 C 241.337 5.07693 -0.821703 0
M  V30 2611 N 239.319 5.94593 -1.52749 0
M  V30 2612 C 240.69 5.95431 -1.72805 0
M  V30 2613 C 242.745 4.90256 -0.869134 0
M  V30 2614 C 241.448 6.67599 -2.67777 0
M  V30 2615 C 243.474 5.63127 -1.8067 0
M  V30 2616 C 242.836 6.50576 -2.70057 0
M  V30 2617 H 238.935 0.76755 0.149639 0
M  V30 2618 H 241.519 1.93145 -0.24556 0
M  V30 2619 H 239.69 3.46541 1.75396 0
M  V30 2620 H 241.422 3.69272 1.6559 0
M  V30 2621 H 238.177 4.73543 -0.0732101 0
M  V30 2622 H 238.601 6.45047 -2.05531 0
M  V30 2623 H 243.243 4.22363 -0.192134 0
M  V30 2624 H 240.961 7.34717 -3.36476 0
M  V30 2625 H 244.547 5.51629 -1.84924 0
M  V30 2626 H 243.427 7.05974 -3.41424 0
M  V30 2627 N 240.93 -0.123565 1.57115 0
M  V30 2628 C 242.179 -0.830704 1.83799 0
M  V30 2629 C 242.492 -1.81259 0.735158 0
M  V30 2630 O 243.698 -2.56558 0.888278 0
M  V30 2631 C 242.154 -1.52802 3.25852 0
M  V30 2632 C 241.762 -0.587356 4.44133 0
M  V30 2633 C 243.506 -2.22056 3.61789 0
M  V30 2634 C 241.413 -1.28764 5.77212 0
M  V30 2635 H 240.343 -0.313967 0.685522 0
M  V30 2636 H 242.994 -0.0834359 1.8331 0
M  V30 2637 H 241.376 -2.32175 3.20797 0
M  V30 2638 H 242.55 0.172829 4.60476 0
M  V30 2639 H 240.865 -0.00201892 4.164 0
M  V30 2640 H 243.462 -2.75131 4.58483 0
M  V30 2641 H 243.805 -2.99644 2.88997 0
M  V30 2642 H 244.338 -1.49576 3.68608 0
M  V30 2643 H 241.077 -0.55314 6.53162 0
M  V30 2644 H 240.597 -2.01995 5.64764 0
M  V30 2645 H 242.276 -1.8221 6.20813 0
M  V30 2646 N 242.408 -1.52605 -0.393616 0
M  V30 2647 C 243.338 -1.80022 -1.48709 0
M  V30 2648 C 244.319 -0.651995 -1.57108 0
M  V30 2649 O 245.504 -0.89913 -1.72132 0
M  V30 2650 C 242.634 -1.96492 -2.86371 0
M  V30 2651 C 241.588 -3.12161 -2.92813 0
M  V30 2652 C 240.914 -3.13877 -4.3288 0
M  V30 2653 C 242.214 -4.51322 -2.6288 0
M  V30 2654 H 243.908 -2.71589 -1.26015 0
M  V30 2655 H 241.454 -1.30684 -0.604778 0
M  V30 2656 H 243.407 -2.14255 -3.62867 0
M  V30 2657 H 242.131 -1.01611 -3.10391 0
M  V30 2658 H 240.79 -2.94173 -2.18764 0
M  V30 2659 H 240.438 -2.16687 -4.53933 0
M  V30 2660 H 240.138 -3.91576 -4.38112 0
M  V30 2661 H 241.662 -3.33789 -5.1129 0
M  V30 2662 H 243.076 -4.69435 -3.29096 0
M  V30 2663 H 241.473 -5.31053 -2.79468 0
M  V30 2664 H 242.543 -4.58353 -1.58242 0
M  V30 2665 N 243.887 0.651787 -1.4349 0
M  V30 2666 C 245.133 1.41376 -1.45398 0
M  V30 2667 C 245.466 1.94041 -0.0784823 0
M  V30 2668 O 244.741 1.72379 0.900878 0
M  V30 2669 C 245.024 2.59414 -2.49752 0
M  V30 2670 C 244.877 2.12232 -3.96582 0
M  V30 2671 C 246.196 3.61626 -2.50827 0
M  V30 2672 H 243.315 0.512719 -0.529422 0
M  V30 2673 H 245.957 0.738796 -1.75048 0
M  V30 2674 H 244.107 3.16997 -2.246 0
M  V30 2675 H 245.779 1.59639 -4.32797 0
M  V30 2676 H 244.022 1.43592 -4.09346 0
M  V30 2677 H 244.693 2.9712 -4.65214 0
M  V30 2678 H 247.169 3.13805 -2.7325 0
M  V30 2679 H 246.045 4.41766 -3.25783 0
M  V30 2680 H 246.306 4.14314 -1.5426 0
M  V30 2681 N 245.365 1.30045 0.890287 0
M  V30 2682 C 246.295 1.18541 2.01172 0
M  V30 2683 C 247.276 0.0773356 1.69924 0
M  V30 2684 O 248.461 0.25845 1.92473 0
M  V30 2685 C 245.591 0.870941 3.36202 0
M  V30 2686 C 244.545 1.93637 3.81692 0
M  V30 2687 C 243.871 1.475 5.13953 0
M  V30 2688 C 245.171 3.34666 4.00994 0
M  V30 2689 H 246.865 2.12359 2.11054 0
M  V30 2690 H 244.411 1.02238 1.01407 0
M  V30 2691 H 246.364 0.777141 4.14172 0
M  V30 2692 H 245.088 -0.102926 3.26438 0
M  V30 2693 H 243.747 2.01972 3.05946 0
M  V30 2694 H 243.395 0.489551 5.00612 0
M  V30 2695 H 243.095 2.1876 5.4536 0
M  V30 2696 H 244.619 1.39489 5.94454 0
M  V30 2697 H 246.033 3.2912 4.69417 0
M  V30 2698 H 244.43 4.03966 4.43769 0
M  V30 2699 H 245.5 3.76949 3.05021 0
M  V30 2700 N 246.843 -1.10192 1.12674 0
M  V30 2701 C 248.068 -1.86523 0.906853 0
M  V30 2702 C 248.493 -1.80221 -0.538711 0
M  V30 2703 O 247.851 -1.17396 -1.38158 0
M  V30 2704 C 247.899 -3.32758 1.3894 0
M  V30 2705 O 247.003 -4.08449 0.5695 0
M  V30 2706 H 246.344 -0.578678 0.325619 0
M  V30 2707 H 248.874 -1.39203 1.49946 0
M  V30 2708 H 248.884 -3.83608 1.38958 0
M  V30 2709 H 247.559 -3.36661 2.44197 0
M  V30 2710 H 246.136 -3.67427 0.636528 0
M  V30 2711 N 248.321 -0.919034 -1.28029 0
M  V30 2712 C 249.569 -0.553838 -1.94363 0
M  V30 2713 C 249.89 0.906357 -1.72656 0
M  V30 2714 O 249.16 1.64143 -1.0693 0
M  V30 2715 H 247.74 -0.201834 -0.719216 0
M  V30 2716 H 250.402 -1.16954 -1.55909 0
M  V30 2717 H 249.498 -0.752758 -3.02886 0
M  V30 2718 N 249.799 1.42003 -0.683588 0
M  V30 2719 C 251.047 2.01015 -0.209101 0
M  V30 2720 C 251.368 1.54365 1.19149 0
M  V30 2721 O 250.638 0.769083 1.80172 0
M  V30 2722 H 249.218 0.743294 -0.074315 0
M  V30 2723 H 251.88 1.73798 -0.882066 0
M  V30 2724 H 250.976 3.11343 -0.2172 0
M  V30 2725 N 251.277 0.427512 1.51691 0
M  V30 2726 C 252.526 -0.143679 2.01188 0
M  V30 2727 C 252.839 -1.44642 1.31674 0
M  V30 2728 O 254.045 -2.09997 1.72086 0
M  V30 2729 C 252.501 -0.306602 3.58592 0
M  V30 2730 C 252.109 0.985125 4.37035 0
M  V30 2731 C 253.853 -0.832091 4.16265 0
M  V30 2732 C 251.76 0.788382 5.86122 0
M  V30 2733 H 250.69 -0.0574701 0.751807 0
M  V30 2734 H 253.341 0.555772 1.74881 0
M  V30 2735 H 251.723 -1.06882 3.81303 0
M  V30 2736 H 252.897 1.75492 4.26074 0
M  V30 2737 H 251.212 1.4384 3.90767 0
M  V30 2738 H 253.809 -0.995617 5.25349 0
M  V30 2739 H 254.152 -1.81186 3.74803 0
M  V30 2740 H 254.685 -0.128444 3.97593 0
M  V30 2741 H 251.424 1.74025 6.31978 0
M  V30 2742 H 250.944 0.0582143 5.99772 0
M  V30 2743 H 252.623 0.437722 6.45518 0
M  V30 2744 N 252.755 -1.56801 0.158532 0
M  V30 2745 C 253.98 -2.01295 -0.499516 0
M  V30 2746 C 254.405 -1.03799 -1.56867 0
M  V30 2747 O 253.763 -0.0155162 -1.81293 0
M  V30 2748 C 253.811 -3.44469 -1.06647 0
M  V30 2749 O 252.915 -3.50012 -2.18095 0
M  V30 2750 H 252.256 -0.652884 -0.12099 0
M  V30 2751 H 254.786 -2.02958 0.258661 0
M  V30 2752 H 254.796 -3.8351 -1.39227 0
M  V30 2753 H 253.471 -4.14932 -0.283581 0
M  V30 2754 H 252.048 -3.22822 -1.86656 0
M  V30 2755 N 254.233 0.115231 -1.57178 0
M  V30 2756 C 255.196 1.12526 -1.99676 0
M  V30 2757 C 256.196 1.34095 -0.88742 0
M  V30 2758 O 257.386 1.30548 -1.15337 0
M  V30 2759 C 254.518 2.4789 -2.34015 0
M  V30 2760 H 255.711 0.759912 -2.90113 0
M  V30 2761 H 253.264 0.359648 -1.52106 0
M  V30 2762 H 253.999 2.89339 -1.4647 0
M  V30 2763 H 253.784 2.33588 -3.14927 0
M  V30 2764 H 255.274 3.20575 -2.67622 0
M  V30 2765 N 255.711 1.52812 0.385517 0
M  V30 2766 C 256.936 1.72207 1.15583 0
M  V30 2767 C 257.361 0.441034 1.82857 0
M  V30 2768 O 256.719 -0.603465 1.70962 0
M  V30 2769 C 256.767 2.87476 2.17692 0
M  V30 2770 O 255.871 2.54693 3.24354 0
M  V30 2771 H 255.212 0.572526 0.336319 0
M  V30 2772 H 257.742 1.99618 0.448744 0
M  V30 2773 H 257.752 3.13072 2.6163 0
M  V30 2774 H 256.427 3.80408 1.68115 0
M  V30 2775 H 255.004 2.3985 2.85529 0
M  V30 2776 N 257.189 -0.644168 1.43834 0
M  V30 2777 C 258.119 -1.76814 1.52509 0
M  V30 2778 C 259.1 -1.65823 0.379052 0
M  V30 2779 O 260.285 -1.84781 0.597466 0
M  V30 2780 C 257.415 -3.15288 1.4564 0
M  V30 2781 C 256.369 -3.41053 2.58586 0
M  V30 2782 C 255.695 -4.79421 2.36769 0
M  V30 2783 C 256.995 -3.34902 4.00797 0
M  V30 2784 H 258.689 -1.69812 2.46586 0
M  V30 2785 H 256.235 -0.815542 1.1868 0
M  V30 2786 H 258.188 -3.93681 1.50311 0
M  V30 2787 H 256.912 -3.23043 0.480725 0
M  V30 2788 H 255.571 -2.65035 2.53282 0
M  V30 2789 H 255.219 -4.83863 1.37424 0
M  V30 2790 H 254.919 -4.9762 3.12487 0
M  V30 2791 H 256.443 -5.6006 2.43238 0
M  V30 2792 H 257.857 -4.03218 4.07539 0
M  V30 2793 H 256.254 -3.64637 4.76613 0
M  V30 2794 H 257.324 -2.32928 4.25291 0
M  V30 2795 N 258.668 -1.30515 -0.883378 0
M  V30 2796 C 259.915 -1.1943 -1.63532 0
M  V30 2797 C 260.243 0.250627 -1.92878 0
M  V30 2798 O 259.498 1.19556 -1.54935 0
M  V30 2799 C 259.797 -1.96994 -2.98209 0
M  V30 2800 C 259.463 -3.466 -2.88408 0
M  V30 2801 C 258.125 -3.87397 -2.85442 0
M  V30 2802 C 260.477 -4.41863 -2.76418 0
M  V30 2803 C 257.805 -5.21745 -2.68327 0
M  V30 2804 C 260.157 -5.7632 -2.60841 0
M  V30 2805 C 258.821 -6.16354 -2.56251 0
M  V30 2806 H 258.091 -0.437025 -0.598406 0
M  V30 2807 H 260.738 -1.61635 -1.02696 0
M  V30 2808 H 259.043 -1.47429 -3.63004 0
M  V30 2809 H 260.74 -1.85808 -3.55354 0
M  V30 2810 H 257.33 -3.14182 -2.91527 0
M  V30 2811 H 261.514 -4.11285 -2.77775 0
M  V30 2812 H 256.77 -5.51853 -2.63189 0
M  V30 2813 H 260.944 -6.49772 -2.50538 0
M  V30 2814 H 258.571 -7.20401 -2.42748 0
M  V30 2815 N 260.146 1.09593 -1.13257 0
M  V30 2816 C 261.371 1.8604 -0.916732 0
M  V30 2817 C 261.796 1.80504 0.529146 0
M  V30 2818 O 261.154 1.18127 1.37534 0
M  V30 2819 C 261.202 3.32017 -1.40703 0
M  V30 2820 O 260.306 4.08141 -0.591153 0
M  V30 2821 H 259.647 0.576943 -0.328683 0
M  V30 2822 H 262.177 1.38405 -1.50682 0
M  V30 2823 H 262.187 3.82865 -1.4099 0
M  V30 2824 H 260.862 3.35361 -2.45979 0
M  V30 2825 H 259.439 3.67084 -0.656005 0
M  V30 2826 N 261.624 0.925811 1.2754 0
M  V30 2827 C 262.852 0.581509 1.9856 0
M  V30 2828 C 263.267 -0.840041 1.69082 0
M  V30 2829 O 262.624 -1.55805 0.950312 0
M  V30 2830 C 262.675 0.795589 3.52637 0
M  V30 2831 O 262.396 2.16121 3.81082 0
M  V30 2832 C 263.897 0.459744 4.4091 0
M  V30 2833 H 261.117 0.220538 0.633722 0
M  V30 2834 H 263.661 1.24232 1.6244 0
M  V30 2835 H 261.816 0.18161 3.86974 0
M  V30 2836 H 262.23 2.2098 4.75676 0
M  V30 2837 H 263.704 0.660244 5.48037 0
M  V30 2838 H 264.181 -0.604625 4.35018 0
M  V30 2839 H 264.787 1.05178 4.12089 0
M  V30 2840 N 263.102 -1.41638 0.69111 0
M  V30 2841 C 264.33 -2.05628 0.22909 0
M  V30 2842 C 264.745 -1.51992 -1.11999 0
M  V30 2843 O 264.102 -0.666322 -1.69901 0
M  V30 2844 C 264.153 -3.61084 0.173283 0
M  V30 2845 O 263.874 -4.12735 1.46907 0
M  V30 2846 C 265.375 -4.42213 -0.310266 0
M  V30 2847 H 262.595 -0.662327 0.107534 0
M  V30 2848 H 265.139 -1.81489 0.942438 0
M  V30 2849 H 263.294 -3.84278 -0.490858 0
M  V30 2850 H 263.708 -5.06743 1.35322 0
M  V30 2851 H 265.182 -5.51194 -0.298196 0
M  V30 2852 H 265.659 -4.1799 -1.34838 0
M  V30 2853 H 266.265 -4.24074 0.322716 0
M  V30 2854 N 264.58 -0.43555 -1.51462 0
M  V30 2855 C 265.528 0.391205 -2.29287 0
M  V30 2856 C 266.522 1.02247 -1.35062 0
M  V30 2857 O 267.728 0.957646 -1.52411 0
M  V30 2858 H 264.103 0.144968 -0.737895 0
M  V30 2859 H 266.074 -0.286051 -2.97026 0
M  V30 2860 C 264.823 1.48096 -3.14583 0
M  V30 2861 H 264.146 1.00457 -3.86973 0
M  V30 2862 H 265.586 2.03273 -3.72097 0
M  V30 2863 C 264.045 2.46321 -2.29843 0
M  V30 2864 O 264.575 3.50815 -1.95682 0
M  V30 2865 N 262.781 2.17166 -1.931 0
M  V30 2866 H 262.328 1.32218 -2.21079 0
M  V30 2867 H 262.286 2.83127 -1.36698 0
M  V30 2868 N 266.058 1.56714 -0.166846 0
M  V30 2869 C 267.304 1.97039 0.479962 0
M  V30 2870 C 267.637 1.05264 1.63197 0
M  V30 2871 O 266.912 0.0988833 1.94248 0
M  V30 2872 C 267.195 3.46867 0.967212 0
M  V30 2873 C 267.048 4.49421 -0.18466 0
M  V30 2874 C 268.367 3.9968 1.84238 0
M  V30 2875 H 265.486 0.71641 0.172992 0
M  V30 2876 H 268.128 1.8832 -0.252079 0
M  V30 2877 H 266.278 3.54428 1.59101 0
M  V30 2878 H 267.95 4.53924 -0.821621 0
M  V30 2879 H 266.193 4.25573 -0.840837 0
M  V30 2880 H 266.864 5.51644 0.198317 0
M  V30 2881 H 269.34 3.94723 1.31655 0
M  V30 2882 H 268.216 5.04941 2.15234 0
M  V30 2883 H 268.477 3.43226 2.78654 0
M  V30 2884 N 267.536 -0.106894 1.57237 0
M  V30 2885 C 268.484 -1.14944 2.02215 0
M  V30 2886 C 269.478 -1.42167 0.92114 0
M  V30 2887 O 270.684 -1.41987 1.10634 0
M  V30 2888 H 267.059 -0.387841 0.64427 0
M  V30 2889 H 269.03 -0.743683 2.88984 0
M  V30 2890 C 267.779 -2.4647 2.4525 0
M  V30 2891 H 267.102 -2.26363 3.29545 0
M  V30 2892 H 268.542 -3.17948 2.80508 0
M  V30 2893 C 267.001 -3.09921 1.321 0
M  V30 2894 O 267.531 -3.9651 0.643622 0
M  V30 2895 N 265.737 -2.69986 1.07497 0
M  V30 2896 H 265.284 -1.99667 1.62761 0
M  V30 2897 H 265.242 -3.12769 0.319876 0
M  V30 2898 N 269.014 -1.53014 -0.377408 0
M  V30 2899 C 269.962 -1.7927 -1.48206 0
M  V30 2900 C 270.956 -0.661195 -1.55963 0
M  V30 2901 O 272.162 -0.843908 -1.58991 0
M  V30 2902 H 268.537 -0.567425 -0.493491 0
M  V30 2903 H 270.508 -2.71753 -1.2326 0
M  V30 2904 C 269.257 -1.98894 -2.85196 0
M  V30 2905 H 268.58 -2.85395 -2.79981 0
M  V30 2906 H 270.02 -2.21249 -3.61698 0
M  V30 2907 C 268.479 -0.764691 -3.28107 0
M  V30 2908 O 269.009 0.0523226 -4.01666 0
M  V30 2909 N 267.215 -0.591493 -2.84517 0
M  V30 2910 H 266.762 -1.25749 -2.24822 0
M  V30 2911 H 266.72 0.226253 -3.13585 0
M  V30 2912 N 270.492 0.636531 -1.44174 0
M  V30 2913 C 271.455 1.73063 -1.50273 0
M  V30 2914 C 272.455 1.56113 -0.385397 0
M  V30 2915 O 273.645 1.61707 -0.64781 0
M  V30 2916 C 270.777 3.12096 -1.37145 0
M  V30 2917 H 271.97 1.69031 -2.47727 0
M  V30 2918 H 269.523 0.849706 -1.31186 0
M  V30 2919 H 270.258 3.21728 -0.407636 0
M  V30 2920 H 270.043 3.25805 -2.18159 0
M  V30 2921 H 271.533 3.91846 -1.44382 0
M  V30 2922 N 271.97 1.30982 0.876444 0
M  V30 2923 C 273.198 1.23242 1.6619 0
M  V30 2924 C 273.613 -0.203345 1.87702 0
M  V30 2925 O 272.97 -1.13317 1.43057 0
M  V30 2926 C 273.021 1.96623 3.03351 0
M  V30 2927 O 272.742 3.34594 2.82804 0
M  V30 2928 C 274.243 1.95644 3.97792 0
M  V30 2929 H 271.463 0.426126 0.518322 0
M  V30 2930 H 274.007 1.7275 1.09442 0
M  V30 2931 H 272.162 1.50892 3.56806 0
M  V30 2932 H 272.576 3.71873 3.69879 0
M  V30 2933 H 274.05 2.51511 4.91372 0
M  V30 2934 H 274.527 0.937395 4.2908 0
M  V30 2935 H 275.133 2.41225 3.50272 0
M  V30 2936 N 273.449 -1.08991 1.13837 0
M  V30 2937 C 274.677 -1.85011 0.926202 0
M  V30 2938 C 275.092 -1.8135 -0.525127 0
M  V30 2939 O 274.449 -1.21287 -1.36366 0
M  V30 2940 C 274.5 -3.32802 1.41155 0
M  V30 2941 O 274.221 -3.36444 2.80601 0
M  V30 2942 C 275.722 -4.25649 1.23847 0
M  V30 2943 H 272.942 -0.584249 0.32999 0
M  V30 2944 H 275.486 -1.37688 1.51202 0
M  V30 2945 H 273.641 -3.77536 0.868631 0
M  V30 2946 H 274.055 -4.28657 3.02248 0
M  V30 2947 H 275.529 -5.27485 1.62675 0
M  V30 2948 H 276.006 -4.38828 0.18065 0
M  V30 2949 H 276.612 -3.86735 1.76964 0
M  V30 2950 N 274.927 -0.932562 -1.27047 0
M  V30 2951 C 276.155 -0.592031 -1.98249 0
M  V30 2952 C 276.57 0.831062 -1.69525 0
M  V30 2953 O 275.927 1.55299 -0.958561 0
M  V30 2954 C 275.978 -0.814279 -3.5221 0
M  V30 2955 O 275.699 -2.18139 -3.7993 0
M  V30 2956 C 277.2 -0.483121 -4.4066 0
M  V30 2957 H 274.42 -0.223896 -0.632544 0
M  V30 2958 H 276.964 -1.25091 -1.61779 0
M  V30 2959 H 275.119 -0.20213 -3.86872 0
M  V30 2960 H 275.533 -2.235 -4.74498 0
M  V30 2961 H 277.007 -0.689298 -5.47679 0
M  V30 2962 H 277.484 0.581546 -4.35333 0
M  V30 2963 H 278.09 -1.07362 -4.11526 0
M  V30 2964 N 276.405 1.4127 -0.698611 0
M  V30 2965 C 277.645 2.03044 -0.235062 0
M  V30 2966 C 278.009 1.54146 1.14468 0
M  V30 2967 O 279.21 2.07867 1.70425 0
M  V30 2968 C 277.481 3.56192 -0.293651 0
M  V30 2969 S 279.04 4.38696 0.0954053 0
M  V30 2970 H 275.858 0.704697 -0.0944648 0
M  V30 2971 H 278.46 1.72656 -0.917064 0
M  V30 2972 H 277.164 3.89274 -1.29977 0
M  V30 2973 H 276.695 3.91285 0.407397 0
M  V30 2974 H 278.71 4.78257 1.3223 0
M  V30 2975 N 277.883 0.443576 1.51229 0
M  V30 2976 C 279.13 -0.120796 2.02139 0
M  V30 2977 C 279.458 -1.42166 1.32736 0
M  V30 2978 O 278.713 -1.90849 0.43301 0
M  V30 2979 C 279.012 -0.380579 3.55368 0
M  V30 2980 C 278.678 0.83523 4.43097 0
M  V30 2981 C 277.34 1.16864 4.66794 0
M  V30 2982 C 279.692 1.64601 4.94526 0
M  V30 2983 C 277.02 2.31339 5.39165 0
M  V30 2984 C 279.372 2.78181 5.68153 0
M  V30 2985 C 278.036 3.11969 5.90112 0
M  V30 2986 H 277.306 -0.0442023 0.73968 0
M  V30 2987 H 279.953 0.592046 1.82118 0
M  V30 2988 H 278.258 -1.17538 3.73754 0
M  V30 2989 H 279.955 -0.830777 3.923 0
M  V30 2990 H 276.545 0.565437 4.24854 0
M  V30 2991 H 280.729 1.40163 4.76097 0
M  V30 2992 H 275.985 2.57823 5.5438 0
M  V30 2993 H 280.159 3.41371 6.06992 0
M  V30 2994 H 277.786 4.00784 6.45969 0
M  V30 2995 N 279.361 -1.56624 0.175154 0
M  V30 2996 C 280.271 -2.21741 -0.766042 0
M  V30 2997 C 281.287 -1.21023 -1.25018 0
M  V30 2998 O 282.463 -1.53697 -1.3015 0
M  V30 2999 C 279.528 -2.84839 -1.97655 0
M  V30 3000 C 278.589 -4.00769 -1.53892 0
M  V30 3001 C 277.822 -4.60849 -2.69173 0
M  V30 3002 O 278.045 -4.19823 -3.86141 0
M  V30 3003 O 276.979 -5.50655 -2.43028 0
M  V30 3004 H 280.805 -3.02738 -0.241585 0
M  V30 3005 H 278.39 -1.49305 -0.053222 0
M  V30 3006 H 280.272 -3.24834 -2.68442 0
M  V30 3007 H 278.947 -2.06836 -2.48999 0
M  V30 3008 H 277.854 -3.65436 -0.80044 0
M  V30 3009 H 279.187 -4.80376 -1.07236 0
M  V30 3010 N 280.839 0.0985539 -1.57292 0
M  V30 3011 C 282.087 0.801092 -1.85545 0
M  V30 3012 C 282.408 1.79438 -0.763353 0
M  V30 3013 O 281.678 1.94763 0.21073 0
M  V30 3014 H 280.258 0.29884 -0.684619 0
M  V30 3015 H 282.92 0.0810064 -1.94732 0
M  V30 3016 H 282.016 1.3338 -2.82163 0
M  V30 3017 N 282.317 1.53212 0.369288 0
M  V30 3018 C 283.564 1.69215 1.11232 0
M  V30 3019 C 283.892 0.442048 1.8941 0
M  V30 3020 O 283.147 -0.575944 1.87033 0
M  V30 3021 C 283.446 2.89101 2.10132 0
M  V30 3022 C 283.112 4.25758 1.48463 0
M  V30 3023 C 281.774 4.6292 1.31372 0
M  V30 3024 C 284.126 5.10757 1.03811 0
M  V30 3025 C 281.454 5.82722 0.68207 0
M  V30 3026 C 283.806 6.31201 0.420487 0
M  V30 3027 C 282.47 6.67079 0.237038 0
M  V30 3028 H 281.74 0.619201 0.407027 0
M  V30 3029 H 284.387 1.87391 0.394552 0
M  V30 3030 H 282.692 2.65421 2.88199 0
M  V30 3031 H 284.389 2.98676 2.6757 0
M  V30 3032 H 280.979 3.96494 1.62758 0
M  V30 3033 H 285.163 4.82599 1.1581 0
M  V30 3034 H 280.419 6.09113 0.528316 0
M  V30 3035 H 284.593 6.96368 0.0662874 0
M  V30 3036 H 282.22 7.59774 -0.254477 0
M  V30 3037 N 283.795 -0.628877 1.44509 0
M  V30 3038 C 285.02 -1.42048 1.5112 0
M  V30 3039 C 285.445 -1.87594 0.137818 0
M  V30 3040 O 284.803 -1.58873 -0.873437 0
M  V30 3041 C 284.851 -2.61541 2.48251 0
M  V30 3042 O 283.955 -3.61453 1.98559 0
M  V30 3043 H 283.296 -0.424942 0.510216 0
M  V30 3044 H 285.826 -0.767374 1.89664 0
M  V30 3045 H 285.836 -3.09057 2.66361 0
M  V30 3046 H 284.511 -2.27736 3.48007 0
M  V30 3047 H 283.088 -3.20731 1.90227 0
M  V30 3048 N 285.273 -1.31445 -0.869486 0
M  V30 3049 C 286.22 -1.19135 -1.97675 0
M  V30 3050 C 287.19 -0.0770266 -1.65921 0
M  V30 3051 O 288.375 -0.249972 -1.89155 0
M  V30 3052 C 285.515 -0.905149 -3.33018 0
M  V30 3053 C 284.628 -2.10285 -3.77365 0
M  V30 3054 C 283.763 -1.75339 -5.01427 0
M  V30 3055 C 282.802 -2.91515 -5.38224 0
M  V30 3056 N 281.939 -2.56762 -6.53466 0
M  V30 3057 H 286.779 -2.13853 -2.07535 0
M  V30 3058 H 284.316 -1.06379 -1.01597 0
M  V30 3059 H 286.274 -0.719765 -4.10944 0
M  V30 3060 H 284.904 0.00519624 -3.228 0
M  V30 3061 H 283.956 -2.39899 -2.95216 0
M  V30 3062 H 285.268 -2.97237 -4.00564 0
M  V30 3063 H 284.422 -1.53266 -5.87022 0
M  V30 3064 H 283.161 -0.855801 -4.80133 0
M  V30 3065 H 282.166 -3.14237 -4.51149 0
M  V30 3066 H 283.391 -3.81985 -5.61484 0
M  V30 3067 H 281.337 -1.69526 -6.33717 0
M  V30 3068 H 281.254 -3.37243 -6.76612 0
M  V30 3069 H 282.522 -2.38083 -7.42251 0
M  V30 3070 N 286.751 1.08385 -1.14413 0
M  V30 3071 C 288.167 1.32844 -0.884563 0
M  V30 3072 C 288.367 1.95841 0.474181 0
M  V30 3073 O 287.423 2.21158 1.21842 0
M  V30 3074 C 288.736 2.22978 -2.01745 0
M  V30 3075 C 290.284 2.36458 -2.05077 0
M  V30 3076 C 290.759 3.29934 -3.1766 0
M  V30 3077 N 292.25 3.37511 -3.17239 0
M  V30 3078 C 292.985 4.09871 -4.0099 0
M  V30 3079 N 292.481 4.84936 -4.94781 0
M  V30 3080 N 294.274 4.05704 -3.89051 0
M  V30 3081 H 286.425 0.658756 -2.01926 0
M  V30 3082 H 288.688 0.352821 -0.879899 0
M  V30 3083 H 288.394 1.83934 -2.99769 0
M  V30 3084 H 288.268 3.23441 -1.94077 0
M  V30 3085 H 290.655 2.7476 -1.0766 0
M  V30 3086 H 290.736 1.35736 -2.16816 0
M  V30 3087 H 290.38 2.92352 -4.15322 0
M  V30 3088 H 290.31 4.30584 -3.03158 0
M  V30 3089 H 292.801 2.83996 -2.49308 0
M  V30 3090 H 293.114 5.37612 -5.55151 0
M  V30 3091 H 291.459 4.83988 -4.98779 0
M  V30 3092 H 294.65 3.46167 -3.15097 0
M  V30 3093 H 294.823 4.61834 -4.54547 0
M  V30 3094 N 288.23 0.939286 1.26551 0
M  V30 3095 C 289.476 0.586715 1.94128 0
M  V30 3096 C 289.809 -0.8717 1.73537 0
M  V30 3097 O 289.084 -1.62339 1.07127 0
M  V30 3098 C 289.367 0.927497 3.4795 0
M  V30 3099 C 289.22 2.44052 3.77834 0
M  V30 3100 C 290.539 0.441569 4.37879 0
M  V30 3101 H 287.658 0.21463 0.705055 0
M  V30 3102 H 290.3 1.17316 1.49455 0
M  V30 3103 H 288.45 0.428431 3.8613 0
M  V30 3104 H 290.122 3.01216 3.4938 0
M  V30 3105 H 288.365 2.8848 3.23978 0
M  V30 3106 H 289.036 2.62947 4.85348 0
M  V30 3107 H 291.512 0.869448 4.06915 0
M  V30 3108 H 290.388 0.708856 5.44304 0
M  V30 3109 H 290.649 -0.658467 4.37169 0
M  V30 3110 N 289.708 -1.40897 0.706093 0
M  V30 3111 C 290.954 -2.01849 0.250681 0
M  V30 3112 C 291.309 -1.5496 -1.14041 0
M  V30 3113 O 290.602 -0.755566 -1.76073 0
M  V30 3114 C 290.796 -3.5646 0.259099 0
M  V30 3115 C 290.625 -4.18357 1.64947 0
M  V30 3116 C 289.395 -4.522 2.25485 0
M  V30 3117 C 291.593 -4.43856 2.598 0
M  V30 3118 N 289.575 -4.9944 3.56977 0
M  V30 3119 C 290.946 -4.92986 3.75985 0
M  V30 3120 C 293.001 -4.25882 2.57933 0
M  V30 3121 C 291.704 -5.2603 4.90597 0
M  V30 3122 C 293.73 -4.6002 3.71665 0
M  V30 3123 C 293.092 -5.09331 4.86581 0
M  V30 3124 H 289.191 -0.769843 0.137353 0
M  V30 3125 H 291.775 -1.71278 0.925845 0
M  V30 3126 H 289.946 -3.86481 -0.385592 0
M  V30 3127 H 291.678 -4.04144 -0.21213 0
M  V30 3128 H 288.433 -4.3901 1.77671 0
M  V30 3129 H 288.857 -5.27454 4.24407 0
M  V30 3130 H 293.499 -3.86986 1.70298 0
M  V30 3131 H 291.217 -5.63843 5.78884 0
M  V30 3132 H 294.803 -4.47762 3.71484 0
M  V30 3133 H 293.683 -5.35251 5.73129 0
M  V30 3134 N 291.186 -0.45159 -1.50991 0
M  V30 3135 C 292.133 0.352625 -2.2809 0
M  V30 3136 C 293.103 1.0044 -1.32291 0
M  V30 3137 O 294.288 1.02058 -1.6121 0
M  V30 3138 C 291.428 1.43983 -3.13629 0
M  V30 3139 C 290.541 0.804772 -4.24438 0
M  V30 3140 C 289.676 1.86822 -4.97263 0
M  V30 3141 C 288.715 1.21236 -5.99973 0
M  V30 3142 N 287.852 2.2178 -6.66152 0
M  V30 3143 H 292.692 -0.311186 -2.96371 0
M  V30 3144 H 290.229 -0.165308 -1.46168 0
M  V30 3145 H 292.187 2.08161 -3.61559 0
M  V30 3146 H 290.817 2.07307 -2.47434 0
M  V30 3147 H 289.869 0.0509129 -3.80366 0
M  V30 3148 H 291.181 0.286076 -4.97979 0
M  V30 3149 H 290.335 2.58628 -5.48813 0
M  V30 3150 H 289.074 2.42068 -4.23385 0
M  V30 3151 H 288.079 0.479828 -5.47702 0
M  V30 3152 H 289.304 0.667051 -6.75816 0
M  V30 3153 H 287.25 2.76079 -5.95077 0
M  V30 3154 H 287.167 1.74841 -7.35504 0
M  V30 3155 H 288.435 2.93026 -7.22327 0
M  V30 3156 N 292.664 1.56529 -0.183458 0
M  V30 3157 C 293.892 2.01623 0.464285 0
M  V30 3158 C 294.307 1.06366 1.55986 0
M  V30 3159 O 293.664 0.0665398 1.82379 0
M  V30 3160 C 293.715 3.46475 1.03139 0
M  V30 3161 O 293.436 4.38095 -0.0204675 0
M  V30 3162 C 294.937 4.0703 1.75617 0
M  V30 3163 H 292.157 0.660596 0.117704 0
M  V30 3164 H 294.701 2.02451 -0.288751 0
M  V30 3165 H 292.856 3.46383 1.73486 0
M  V30 3166 H 293.27 5.22973 0.399952 0
M  V30 3167 H 294.744 5.10271 2.10542 0
M  V30 3168 H 295.221 3.49819 2.65563 0
M  V30 3169 H 295.827 4.1086 1.09882 0
M  V30 3170 N 294.142 -0.090211 1.57342 0
M  V30 3171 C 295.372 -0.805055 1.90269 0
M  V30 3172 C 295.78 -1.72561 0.775842 0
M  V30 3173 O 295.123 -1.81839 -0.260843 0
M  V30 3174 C 295.185 -1.66734 3.18497 0
M  V30 3175 C 294.849 -0.918092 4.47683 0
M  V30 3176 C 295.846 -0.245674 5.19319 0
M  V30 3177 C 293.531 -0.890724 4.94339 0
M  V30 3178 C 295.525 0.444088 6.35851 0
M  V30 3179 C 293.212 -0.197179 6.10782 0
M  V30 3180 C 294.21 0.469044 6.81388 0
M  V30 3181 O 293.898 1.15146 7.95611 0
M  V30 3182 H 293.63 -0.235143 0.633785 0
M  V30 3183 H 296.184 -0.0703805 2.05279 0
M  V30 3184 H 294.414 -2.44437 2.99646 0
M  V30 3185 H 296.103 -2.25919 3.37217 0
M  V30 3186 H 296.869 -0.258246 4.84312 0
M  V30 3187 H 292.748 -1.39873 4.39268 0
M  V30 3188 H 296.292 0.964667 6.90898 0
M  V30 3189 H 292.189 -0.18247 6.45242 0
M  V30 3190 H 292.957 1.05885 8.11622 0
M  V30 3191 N 295.62 -1.53406 -0.361157 0
M  V30 3192 C 296.55 -1.83136 -1.44857 0
M  V30 3193 C 297.531 -0.685174 -1.5569 0
M  V30 3194 O 298.716 -0.93544 -1.70186 0
M  V30 3195 C 295.846 -2.02522 -2.82138 0
M  V30 3196 C 294.8 -3.18302 -2.86126 0
M  V30 3197 C 294.126 -3.22989 -4.26125 0
M  V30 3198 C 295.426 -4.56796 -2.53248 0
M  V30 3199 H 297.12 -2.74201 -1.20226 0
M  V30 3200 H 294.666 -1.31938 -0.576922 0
M  V30 3201 H 296.619 -2.21904 -3.58241 0
M  V30 3202 H 295.343 -1.08172 -3.08166 0
M  V30 3203 H 294.002 -2.98747 -2.12475 0
M  V30 3204 H 293.65 -2.26267 -4.49235 0
M  V30 3205 H 293.35 -4.00781 -4.29708 0
M  V30 3206 H 294.874 -3.44559 -5.04094 0
M  V30 3207 H 296.288 -4.7631 -3.19064 0
M  V30 3208 H 294.685 -5.36862 -2.68141 0
M  V30 3209 H 295.755 -4.61606 -1.48484 0
M  V30 3210 N 297.098 0.621204 -1.44841 0
M  V30 3211 C 298.323 1.41244 -1.51871 0
M  V30 3212 C 298.748 1.87519 -0.147764 0
M  V30 3213 O 298.106 1.59334 0.865 0
M  V30 3214 C 298.154 2.60221 -2.49634 0
M  V30 3215 O 297.258 3.60395 -2.00473 0
M  V30 3216 H 296.599 0.42223 -0.512463 0
M  V30 3217 H 299.129 0.757305 -1.90069 0
M  V30 3218 H 299.139 3.0764 -2.67996 0
M  V30 3219 H 297.814 2.25887 -3.4921 0
M  V30 3220 H 296.391 3.19717 -1.91925 0
M  V30 3221 N 298.576 1.31904 0.862503 0
M  V30 3222 C 299.523 1.20182 1.9704 0
M  V30 3223 C 300.493 0.0858247 1.65878 0
M  V30 3224 O 301.678 0.26 1.8902 0
M  V30 3225 C 298.818 0.922797 3.32533 0
M  V30 3226 C 297.931 2.12284 3.76244 0
M  V30 3227 C 297.066 1.77996 5.00491 0
M  V30 3228 C 296.105 2.94366 5.36671 0
M  V30 3229 N 295.242 2.60223 6.52095 0
M  V30 3230 H 300.082 2.14951 2.06398 0
M  V30 3231 H 297.619 1.06917 1.01031 0
M  V30 3232 H 299.577 0.741548 4.10557 0
M  V30 3233 H 298.207 0.0119227 3.22798 0
M  V30 3234 H 297.259 2.41461 2.9394 0
M  V30 3235 H 298.571 2.99357 3.98982 0
M  V30 3236 H 297.725 1.56377 5.862 0
M  V30 3237 H 296.464 0.881252 4.79672 0
M  V30 3238 H 295.469 3.16625 4.49476 0
M  V30 3239 H 296.694 3.84957 5.59451 0
M  V30 3240 H 294.64 1.72884 6.32809 0
M  V30 3241 H 294.557 3.40827 6.74814 0
M  V30 3242 H 295.825 2.42016 7.40978 0
M  V30 3243 N 300.054 -1.07777 1.14986 0
M  V30 3244 C 301.303 -1.79669 0.916617 0
M  V30 3245 C 301.616 -1.87474 -0.557917 0
M  V30 3246 O 302.822 -2.55845 -0.908617 0
M  V30 3247 C 301.278 -3.22848 1.59051 0
M  V30 3248 C 300.886 -3.23257 3.10176 0
M  V30 3249 C 302.63 -3.99379 1.43864 0
M  V30 3250 C 300.537 -4.61063 3.70372 0
M  V30 3251 H 299.467 -0.673349 0.33929 0
M  V30 3252 H 302.118 -1.21003 1.37951 0
M  V30 3253 H 300.5 -3.8168 1.0553 0
M  V30 3254 H 301.674 -2.74095 3.70417 0
M  V30 3255 H 299.989 -2.60222 3.25074 0
M  V30 3256 H 302.586 -5.0122 1.86232 0
M  V30 3257 H 302.929 -4.14511 0.385564 0
M  V30 3258 H 303.462 -3.47032 1.94457 0
M  V30 3259 H 300.201 -4.51135 4.7556 0
M  V30 3260 H 299.721 -5.1048 3.14913 0
M  V30 3261 H 301.4 -5.30034 3.71043 0
M  V30 3262 N 301.532 -0.945985 -1.26051 0
M  V30 3263 C 302.76 -0.613025 -1.9761 0
M  V30 3264 C 303.175 0.813035 -1.70397 0
M  V30 3265 O 302.532 1.54274 -0.974979 0
M  V30 3266 C 302.583 -0.85159 -3.51326 0
M  V30 3267 O 302.304 -2.22157 -3.77595 0
M  V30 3268 C 303.805 -0.529831 -4.40122 0
M  V30 3269 H 301.025 -0.230593 -0.630133 0
M  V30 3270 H 303.569 -1.268 -1.60443 0
M  V30 3271 H 301.724 -0.243151 -3.86636 0
M  V30 3272 H 302.138 -2.2852 -4.721 0
M  V30 3273 H 303.612 -0.747348 -5.46917 0
M  V30 3274 H 304.089 0.535341 -4.35925 0
M  V30 3275 H 304.695 -1.11721 -4.10364 0
M  V30 3276 N 303.011 1.40521 -0.713556 0
M  V30 3277 C 304.26 2.00155 -0.249192 0
M  V30 3278 C 304.573 1.57224 1.16362 0
M  V30 3279 O 305.779 2.09542 1.72639 0
M  V30 3280 C 304.235 3.5773 -0.3946 0
M  V30 3281 C 303.843 4.09635 -1.81392 0
M  V30 3282 C 305.587 4.24499 0.00907364 0
M  V30 3283 C 303.494 5.59707 -1.91003 0
M  V30 3284 H 302.424 0.74868 -0.0894114 0
M  V30 3285 H 305.075 1.60784 -0.884352 0
M  V30 3286 H 303.457 3.94792 0.30911 0
M  V30 3287 H 304.631 3.83955 -2.54785 0
M  V30 3288 H 302.946 3.55456 -2.16888 0
M  V30 3289 H 305.543 5.34683 -0.0420404 0
M  V30 3290 H 305.886 4.02824 1.05065 0
M  V30 3291 H 306.419 3.92536 -0.645007 0
M  V30 3292 H 303.158 5.86234 -2.93275 0
M  V30 3293 H 302.678 5.87258 -1.22019 0
M  V30 3294 H 304.357 6.24776 -1.6812 0
M  V30 3295 N 304.489 0.459591 1.5075 0
M  V30 3296 C 305.736 -0.0993495 2.02256 0
M  V30 3297 C 306.064 -1.40751 1.34237 0
M  V30 3298 O 305.319 -1.90379 0.453228 0
M  V30 3299 C 305.618 -0.342866 3.55752 0
M  V30 3300 C 305.284 0.88218 4.42186 0
M  V30 3301 C 303.946 1.21808 4.65528 0
M  V30 3302 C 306.298 1.69837 4.92752 0
M  V30 3303 C 303.626 2.37045 5.36681 0
M  V30 3304 C 305.978 2.84192 5.65171 0
M  V30 3305 C 304.642 3.1821 5.8677 0
M  V30 3306 H 303.912 -0.0363545 0.740108 0
M  V30 3307 H 306.559 0.611329 1.8148 0
M  V30 3308 H 304.864 -1.13567 3.7498 0
M  V30 3309 H 306.561 -0.789121 3.93159 0
M  V30 3310 H 303.151 0.610467 4.2423 0
M  V30 3311 H 307.335 1.45205 4.74583 0
M  V30 3312 H 302.591 2.63689 5.51614 0
M  V30 3313 H 306.765 3.4779 6.03337 0
M  V30 3314 H 304.392 4.07613 6.41682 0
M  V30 3315 N 305.967 -1.56429 0.191757 0
M  V30 3316 C 307.216 -1.9666 -0.448088 0
M  V30 3317 C 307.529 -1.08136 -1.62991 0
M  V30 3318 O 308.735 -1.38135 -2.33733 0
M  V30 3319 C 307.191 -3.49753 -0.848585 0
M  V30 3320 C 306.799 -4.46935 0.308764 0
M  V30 3321 C 308.543 -3.9876 -1.4557 0
M  V30 3322 C 306.45 -5.91293 -0.112506 0
M  V30 3323 H 305.38 -0.734312 -0.171179 0
M  V30 3324 H 308.031 -1.81301 0.283242 0
M  V30 3325 H 306.413 -3.60604 -1.63649 0
M  V30 3326 H 307.587 -4.47813 1.08627 0
M  V30 3327 H 305.902 -4.08102 0.827158 0
M  V30 3328 H 308.499 -5.04086 -1.78328 0
M  V30 3329 H 308.842 -3.42875 -2.36099 0
M  V30 3330 H 309.375 -3.9101 -0.731836 0
M  V30 3331 H 306.114 -6.51097 0.758514 0
M  V30 3332 H 305.634 -5.93676 -0.854941 0
M  V30 3333 H 307.313 -6.44663 -0.549448 0
M  V30 3334 N 307.445 0.0818655 -1.57387 0
M  V30 3335 C 308.355 1.11642 -2.06333 0
M  V30 3336 C 309.371 1.43033 -0.99083 0
M  V30 3337 O 310.547 1.53411 -1.30488 0
M  V30 3338 C 307.612 2.41342 -2.48907 0
M  V30 3339 C 306.673 2.17014 -3.7041 0
M  V30 3340 C 305.906 3.4053 -4.10944 0
M  V30 3341 O 306.129 4.4927 -3.51444 0
M  V30 3342 O 305.063 3.29336 -5.03807 0
M  V30 3343 H 308.889 0.730657 -2.9478 0
M  V30 3344 H 306.474 0.295301 -1.46452 0
M  V30 3345 H 308.356 3.17691 -2.76858 0
M  V30 3346 H 307.031 2.79319 -1.63593 0
M  V30 3347 H 305.938 1.38403 -3.47556 0
M  V30 3348 H 307.271 1.83923 -4.56545 0
M  V30 3349 N 308.923 1.53595 0.353017 0
M  V30 3350 C 310.169 1.70638 1.09593 0
M  V30 3351 C 310.502 0.463286 1.88593 0
M  V30 3352 O 309.777 -0.539597 1.86865 0
M  V30 3353 C 310.06 2.96406 2.04489 0
M  V30 3354 C 309.913 4.30901 1.29014 0
M  V30 3355 C 311.232 3.17812 3.0444 0
M  V30 3356 H 308.351 0.620913 0.397034 0
M  V30 3357 H 310.993 1.86254 0.375446 0
M  V30 3358 H 309.143 2.83223 2.65927 0
M  V30 3359 H 310.815 4.55917 0.702638 0
M  V30 3360 H 309.058 4.29741 0.592071 0
M  V30 3361 H 309.729 5.1506 1.98537 0
M  V30 3362 H 312.205 3.30263 2.53112 0
M  V30 3363 H 311.081 4.07223 3.6805 0
M  V30 3364 H 311.342 2.33669 3.75301 0
M  V30 3365 N 310.401 -0.613514 1.45168 0
M  V30 3366 C 311.647 -1.37471 1.49096 0
M  V30 3367 C 311.98 -1.93765 0.129901 0
M  V30 3368 O 311.255 -1.74707 -0.854858 0
M  V30 3369 C 311.538 -2.52701 2.56542 0
M  V30 3370 C 311.391 -2.01643 4.0207 0
M  V30 3371 C 312.71 -3.54849 2.60327 0
M  V30 3372 H 309.829 -0.498502 0.54283 0
M  V30 3373 H 312.471 -0.692125 1.76945 0
M  V30 3374 H 310.621 -3.10931 2.32926 0
M  V30 3375 H 312.293 -1.48108 4.36877 0
M  V30 3376 H 310.536 -1.32688 4.13009 0
M  V30 3377 H 311.207 -2.84681 4.72928 0
M  V30 3378 H 313.683 -3.0645 2.81474 0
M  V30 3379 H 312.559 -4.32973 3.37381 0
M  V30 3380 H 312.82 -4.10079 1.6519 0
M  V30 3381 N 311.879 -1.3236 -0.855495 0
M  V30 3382 C 313.127 -1.22629 -1.60644 0
M  V30 3383 C 313.448 0.212136 -1.93843 0
M  V30 3384 O 312.718 1.13666 -1.59552 0
M  V30 3385 H 311.298 -0.450882 -0.595579 0
M  V30 3386 H 313.96 -1.65871 -1.02337 0
M  V30 3387 H 313.056 -1.80832 -2.54374 0
M  V30 3388 N 313.357 1.07166 -1.15556 0
M  V30 3389 C 314.604 1.79798 -0.931604 0
M  V30 3390 C 314.932 1.8682 0.54115 0
M  V30 3391 O 314.187 1.34942 1.41736 0
M  V30 3392 C 314.486 3.24707 -1.49332 0
M  V30 3393 C 314.152 3.37781 -2.98688 0
M  V30 3394 C 312.814 3.41057 -3.39461 0
M  V30 3395 C 315.166 3.40424 -3.94665 0
M  V30 3396 C 312.494 3.4458 -4.74849 0
M  V30 3397 C 314.846 3.45485 -5.29927 0
M  V30 3398 C 313.51 3.47039 -5.70193 0
M  V30 3399 H 312.78 0.657928 -0.340898 0
M  V30 3400 H 315.427 1.26091 -1.44129 0
M  V30 3401 H 313.732 3.81208 -0.904859 0
M  V30 3402 H 315.429 3.79486 -1.29582 0
M  V30 3403 H 312.019 3.35932 -2.66172 0
M  V30 3404 H 316.203 3.37113 -3.64237 0
M  V30 3405 H 311.459 3.44083 -5.05388 0
M  V30 3406 H 315.633 3.46476 -6.04092 0
M  V30 3407 H 313.26 3.49522 -6.75084 0
M  V30 3408 N 314.835 0.952656 1.25548 0
M  V30 3409 C 316.084 0.602053 1.92505 0
M  V30 3410 C 316.397 -0.864663 1.75451 0
M  V30 3411 O 317.603 -1.32514 2.36965 0
M  V30 3412 C 316.059 1.02607 3.44963 0
M  V30 3413 C 315.667 2.51519 3.70732 0
M  V30 3414 C 317.411 0.747905 4.1786 0
M  V30 3415 C 315.318 2.87732 5.16686 0
M  V30 3416 H 314.248 0.22146 0.720744 0
M  V30 3417 H 316.899 1.15684 1.42441 0
M  V30 3418 H 315.281 0.399712 3.93978 0
M  V30 3419 H 316.455 3.19157 3.32378 0
M  V30 3420 H 314.77 2.76786 3.11092 0
M  V30 3421 H 317.367 0.994647 5.25367 0
M  V30 3422 H 317.71 -0.315629 4.15102 0
M  V30 3423 H 318.243 1.33452 3.74747 0
M  V30 3424 H 314.982 3.93095 5.24554 0
M  V30 3425 H 314.502 2.24765 5.56094 0
M  V30 3426 H 316.181 2.76817 5.84792 0
M  V30 3427 N 316.313 -1.40141 0.720998 0
M  V30 3428 C 317.562 -2.0002 0.259804 0
M  V30 3429 C 317.875 -1.57839 -1.15526 0
M  V30 3430 O 319.081 -2.10455 -1.71525 0
M  V30 3431 C 317.537 -3.57516 0.413566 0
M  V30 3432 C 317.145 -4.08667 1.83562 0
M  V30 3433 C 318.889 -4.24498 0.0134387 0
M  V30 3434 C 316.796 -5.58686 1.93968 0
M  V30 3435 H 315.726 -0.748195 0.0933806 0
M  V30 3436 H 318.377 -1.60313 0.892866 0
M  V30 3437 H 316.759 -3.9495 -0.288169 0
M  V30 3438 H 317.933 -3.82598 2.56817 0
M  V30 3439 H 316.248 -3.543 2.1877 0
M  V30 3440 H 318.845 -5.34654 0.0703954 0
M  V30 3441 H 319.188 -4.03375 -1.02927 0
M  V30 3442 H 319.721 -3.92188 0.665815 0
M  V30 3443 H 316.46 -5.8467 2.96379 0
M  V30 3444 H 315.98 -5.86602 1.25131 0
M  V30 3445 H 317.659 -6.23875 1.71431 0
M  V30 3446 N 317.792 -0.46758 -1.50504 0
M  V30 3447 C 319.203 -0.0116166 -1.86696 0
M  V30 3448 C 319.554 1.39202 -1.38265 0
M  V30 3449 O 318.679 2.0313 -0.746132 0
M  V30 3450 C 319.274 -0.0143044 -3.38797 0
M  V30 3451 C 317.833 0.386175 -3.74414 0
M  V30 3452 C 316.98 -0.401287 -2.74381 0
M  V30 3453 H 319.931 -0.682022 -1.43297 0
M  V30 3454 H 319.952 0.788641 -3.72237 0
M  V30 3455 H 319.464 -1.03602 -3.74016 0
M  V30 3456 H 317.565 1.41237 -3.44794 0
M  V30 3457 H 317.678 0.0899596 -4.79016 0
M  V30 3458 H 316.042 0.144536 -2.5429 0
M  V30 3459 H 316.825 -1.42244 -3.12444 0
M  V30 3460 N 319.27 1.56325 -0.20005 0
M  V30 3461 C 320.2 2.22318 0.713916 0
M  V30 3462 C 321.181 1.18788 1.21752 0
M  V30 3463 O 322.366 1.47309 1.26545 0
M  V30 3464 C 319.496 2.88639 1.93144 0
M  V30 3465 C 318.45 3.98457 1.56255 0
M  V30 3466 C 317.776 4.51967 2.85709 0
M  V30 3467 C 319.076 5.16612 0.768747 0
M  V30 3468 H 320.77 2.98952 0.163755 0
M  V30 3469 H 318.316 1.43792 0.0773219 0
M  V30 3470 H 320.269 3.33491 2.57608 0
M  V30 3471 H 318.993 2.09419 2.50621 0
M  V30 3472 H 317.652 3.54305 0.941471 0
M  V30 3473 H 317.3 3.69503 3.41287 0
M  V30 3474 H 317 5.26071 2.6177 0
M  V30 3475 H 318.524 4.99523 3.51154 0
M  V30 3476 H 319.938 5.57977 1.3166 0
M  V30 3477 H 318.335 5.96812 0.627286 0
M  V30 3478 H 319.405 4.84358 -0.229168 0
M  V30 3479 N 320.748 -0.0735177 1.57428 0
M  V30 3480 C 321.997 -0.771809 1.86349 0
M  V30 3481 C 322.31 -1.78828 0.792452 0
M  V30 3482 O 323.516 -2.53602 0.96945 0
M  V30 3483 C 321.972 -1.42358 3.30548 0
M  V30 3484 C 321.58 -0.445761 4.45777 0
M  V30 3485 C 323.324 -2.10434 3.6867 0
M  V30 3486 C 321.231 -1.10335 5.81016 0
M  V30 3487 H 320.161 -0.291999 0.695164 0
M  V30 3488 H 322.812 -0.0250749 1.83483 0
M  V30 3489 H 321.194 -2.21852 3.28021 0
M  V30 3490 H 322.368 0.319239 4.59693 0
M  V30 3491 H 320.683 0.130457 4.16196 0
M  V30 3492 H 323.28 -2.60405 4.67004 0
M  V30 3493 H 323.623 -2.90298 2.98383 0
M  V30 3494 H 324.156 -1.37773 3.7318 0
M  V30 3495 H 320.895 -0.345061 6.54591 0
M  V30 3496 H 320.415 -1.83925 5.70904 0
M  V30 3497 H 322.094 -1.62367 6.26295 0
M  V30 3498 N 322.226 -1.5378 -0.344866 0
M  V30 3499 C 323.156 -1.84662 -1.42906 0
M  V30 3500 C 324.137 -0.701648 -1.54955 0
M  V30 3501 O 325.322 -0.953438 -1.69184 0
M  V30 3502 C 322.452 -2.05503 -2.79974 0
M  V30 3503 C 321.406 -3.21318 -2.82734 0
M  V30 3504 C 320.732 -3.2749 -4.22675 0
M  V30 3505 C 322.032 -4.59456 -2.48389 0
M  V30 3506 H 323.726 -2.75461 -1.17311 0
M  V30 3507 H 321.272 -1.32542 -0.562896 0
M  V30 3508 H 323.225 -2.25691 -3.55867 0
M  V30 3509 H 321.949 -1.11434 -3.07002 0
M  V30 3510 H 320.608 -3.00984 -2.09294 0
M  V30 3511 H 320.256 -2.31019 -4.4681 0
M  V30 3512 H 319.956 -4.05316 -4.25433 0
M  V30 3513 H 321.48 -3.49887 -5.00412 0
M  V30 3514 H 322.894 -4.79667 -3.13995 0
M  V30 3515 H 321.291 -5.39675 -2.62432 0
M  V30 3516 H 322.361 -4.63155 -1.4358 0
M  V30 3517 N 323.704 0.605807 -1.45491 0
M  V30 3518 C 324.652 1.73754 -1.54636 0
M  V30 3519 C 325.646 1.64207 -0.416219 0
M  V30 3520 O 326.852 1.69979 -0.592199 0
M  V30 3521 H 323.227 0.574073 -0.485741 0
M  V30 3522 H 325.198 1.63169 -2.49837 0
M  V30 3523 C 323.947 3.12135 -1.53189 0
M  V30 3524 H 323.27 3.20141 -2.39478 0
M  V30 3525 H 324.71 3.91147 -1.63645 0
M  V30 3526 C 323.169 3.35921 -0.256616 0
M  V30 3527 O 323.699 3.96194 0.662798 0
M  V30 3528 N 321.905 2.90204 -0.151751 0
M  V30 3529 H 321.452 2.41336 -0.90081 0
M  V30 3530 H 321.41 3.06492 0.700699 0
M  V30 3531 N 325.182 1.32811 0.848464 0
M  V30 3532 C 326.428 1.23907 1.60546 0
M  V30 3533 C 326.761 -0.197161 1.93197 0
M  V30 3534 O 326.036 -1.13596 1.5788 0
M  V30 3535 C 326.319 2.10489 2.92175 0
M  V30 3536 C 326.172 3.62522 2.66266 0
M  V30 3537 C 327.491 1.97075 3.93509 0
M  V30 3538 H 324.61 0.451459 0.58254 0
M  V30 3539 H 327.252 1.62818 0.979296 0
M  V30 3540 H 325.402 1.77434 3.45614 0
M  V30 3541 H 327.074 4.05821 2.19334 0
M  V30 3542 H 325.317 3.84879 2.00126 0
M  V30 3543 H 325.988 4.18437 3.6002 0
M  V30 3544 H 328.464 2.26045 3.49346 0
M  V30 3545 H 327.34 2.59923 4.83457 0
M  V30 3546 H 327.601 0.940186 4.31987 0
M  V30 3547 N 326.66 -1.06551 1.16123 0
M  V30 3548 C 327.885 -1.83544 0.965735 0
M  V30 3549 C 328.31 -1.81843 -0.481102 0
M  V30 3550 O 327.668 -1.21732 -1.34354 0
M  V30 3551 C 327.716 -3.28169 1.49457 0
M  V30 3552 O 326.82 -4.0643 0.699157 0
M  V30 3553 H 326.161 -0.568026 0.343864 0
M  V30 3554 H 328.691 -1.34362 1.54299 0
M  V30 3555 H 328.701 -3.78992 1.51092 0
M  V30 3556 H 327.376 -3.28722 2.54784 0
M  V30 3557 H 325.953 -3.65216 0.7531 0
M  V30 3558 N 328.138 -0.959301 -1.25041 0
M  V30 3559 C 329.378 -0.624343 -1.94631 0
M  V30 3560 C 329.742 0.82403 -1.73418 0
M  V30 3561 O 330.943 1.26881 -2.3697 0
M  V30 3562 C 329.214 -0.978805 -3.43736 0
M  V30 3563 S 330.773 -0.757127 -4.32219 0
M  V30 3564 H 327.591 -0.229327 -0.673001 0
M  V30 3565 H 330.193 -1.23447 -1.51595 0
M  V30 3566 H 328.897 -2.02997 -3.56679 0
M  V30 3567 H 328.428 -0.359117 -3.91757 0
M  V30 3568 H 330.443 0.369759 -4.9482 0
M  V30 3569 N 329.616 1.39756 -0.72842 0
M  V30 3570 C 330.841 2.05472 -0.282159 0
M  V30 3571 C 331.266 1.54549 1.07221 0
M  V30 3572 O 330.624 0.686372 1.67805 0
M  V30 3573 C 330.672 3.59462 -0.286264 0
M  V30 3574 O 329.776 4.05918 0.728298 0
M  V30 3575 H 329.117 0.651226 -0.129618 0
M  V30 3576 H 331.647 1.78915 -0.992499 0
M  V30 3577 H 331.657 4.07798 -0.128373 0
M  V30 3578 H 330.332 3.95889 -1.27456 0
M  V30 3579 H 328.909 3.69012 0.537081 0
M  V30 3580 N 331.094 0.475555 1.50254 0
M  V30 3581 C 332.319 -0.0777042 2.07254 0
M  V30 3582 C 332.744 -1.3235 1.3366 0
M  V30 3583 O 332.102 -1.77152 0.385597 0
M  V30 3584 C 332.15 -0.340169 3.58992 0
M  V30 3585 O 331.254 -1.41982 3.87188 0
M  V30 3586 H 330.595 0.0149556 0.663832 0
M  V30 3587 H 333.125 0.667878 1.93392 0
M  V30 3588 H 333.135 -0.579332 4.03866 0
M  V30 3589 H 331.81 0.570167 4.11973 0
M  V30 3590 H 330.387 -1.16762 3.54148 0
M  V30 3591 N 332.573 -1.56217 0.208337 0
M  V30 3592 C 333.819 -1.98242 -0.427552 0
M  V30 3593 C 334.152 -1.09554 -1.60348 0
M  V30 3594 O 333.427 -0.15035 -1.93918 0
M  V30 3595 C 333.71 -3.4931 -0.874907 0
M  V30 3596 C 333.563 -4.48773 0.303751 0
M  V30 3597 C 334.882 -4.04424 -1.73577 0
M  V30 3598 H 332.001 -0.720744 -0.153936 0
M  V30 3599 H 334.643 -1.87586 0.30192 0
M  V30 3600 H 332.793 -3.58522 -1.49648 0
M  V30 3601 H 334.465 -4.51586 0.941682 0
M  V30 3602 H 332.708 -4.23194 0.953375 0
M  V30 3603 H 333.379 -5.51976 -0.0519883 0
M  V30 3604 H 335.855 -3.98075 -1.21143 0
M  V30 3605 H 334.731 -5.1047 -2.01771 0
M  V30 3606 H 334.992 -3.50494 -2.69456 0
M  V30 3607 N 334.051 0.0651679 -1.57465 0
M  V30 3608 C 335.297 0.764193 -1.87851 0
M  V30 3609 C 335.63 1.76889 -0.801495 0
M  V30 3610 O 334.905 1.93594 0.187528 0
M  V30 3611 C 335.188 1.46625 -3.28897 0
M  V30 3612 C 335.041 0.477515 -4.47258 0
M  V30 3613 C 336.36 2.4095 -3.68281 0
M  V30 3614 H 333.479 0.276351 -0.683227 0
M  V30 3615 H 336.121 0.0272868 -1.8998 0
M  V30 3616 H 334.271 2.09438 -3.27212 0
M  V30 3617 H 335.943 -0.145922 -4.61069 0
M  V30 3618 H 334.186 -0.206576 -4.33308 0
M  V30 3619 H 334.857 1.0065 -5.42746 0
M  V30 3620 H 337.333 1.88209 -3.71102 0
M  V30 3621 H 336.209 2.87072 -4.67847 0
M  V30 3622 H 336.47 3.26049 -2.98571 0
M  V30 3623 N 335.529 1.53961 0.336706 0
M  V30 3624 C 336.459 1.85417 1.41925 0
M  V30 3625 C 337.44 0.709856 1.5458 0
M  V30 3626 O 338.625 0.962396 1.68676 0
M  V30 3627 C 335.755 2.06985 2.78881 0
M  V30 3628 C 334.709 3.22813 2.81026 0
M  V30 3629 C 334.035 3.29727 4.20932 0
M  V30 3630 C 335.335 4.60767 2.45949 0
M  V30 3631 H 337.029 2.76079 1.15848 0
M  V30 3632 H 334.575 1.32839 0.555859 0
M  V30 3633 H 336.528 2.27575 3.54665 0
M  V30 3634 H 335.252 1.13061 3.06406 0
M  V30 3635 H 333.911 3.0209 2.07695 0
M  V30 3636 H 333.559 2.33385 4.45579 0
M  V30 3637 H 333.259 4.07566 4.23277 0
M  V30 3638 H 334.783 3.52536 4.98549 0
M  V30 3639 H 336.197 4.81325 3.11446 0
M  V30 3640 H 334.594 5.4106 2.59566 0
M  V30 3641 H 335.664 4.6391 1.41122 0
M  V30 3642 N 337.007 -0.598083 1.45811 0
M  V30 3643 C 338.423 -0.919847 1.30426 0
M  V30 3644 C 338.623 -1.99759 0.264303 0
M  V30 3645 O 337.679 -2.50221 -0.338472 0
M  V30 3646 C 338.992 -1.35176 2.68603 0
M  V30 3647 C 340.54 -1.46546 2.76574 0
M  V30 3648 C 341.015 -1.9311 4.15298 0
M  V30 3649 N 342.506 -2.00328 4.1764 0
M  V30 3650 C 343.241 -2.37599 5.21856 0
M  V30 3651 N 342.737 -2.73771 6.36413 0
M  V30 3652 N 344.53 -2.38021 5.09218 0
M  V30 3653 H 336.681 0.114111 2.12093 0
M  V30 3654 H 338.944 -0.0116121 0.947929 0
M  V30 3655 H 338.65 -0.633969 3.45939 0
M  V30 3656 H 338.524 -2.3164 2.97696 0
M  V30 3657 H 340.911 -2.17415 1.99537 0
M  V30 3658 H 340.992 -0.483727 2.51185 0
M  V30 3659 H 340.636 -1.22824 4.92825 0
M  V30 3660 H 340.566 -2.92213 4.38086 0
M  V30 3661 H 343.057 -1.74925 3.34977 0
M  V30 3662 H 343.37 -3.0112 7.11721 0
M  V30 3663 H 341.715 -2.71445 6.39799 0
M  V30 3664 H 344.906 -2.09174 4.18765 0
M  V30 3665 H 345.079 -2.66741 5.90554 0
M  V30 3666 N 338.485 -1.33259 -0.841409 0
M  V30 3667 C 339.713 -1.27605 -1.62864 0
M  V30 3668 C 340.128 0.153507 -1.88175 0
M  V30 3669 O 339.485 1.09485 -1.46011 0
M  V30 3670 C 339.536 -2.04596 -2.98031 0
M  V30 3671 O 339.257 -3.41975 -2.73834 0
M  V30 3672 C 340.758 -2.06122 -3.92465 0
M  V30 3673 H 337.978 -0.439718 -0.506842 0
M  V30 3674 H 340.522 -1.75591 -1.04824 0
M  V30 3675 H 338.677 -1.60299 -3.5268 0
M  V30 3676 H 339.091 -3.81549 -3.59889 0
M  V30 3677 H 340.565 -2.64451 -4.84531 0
M  V30 3678 H 341.042 -1.05083 -4.26444 0
M  V30 3679 H 341.648 -2.50427 -3.43753 0
M  V30 3680 N 339.963 1.05934 -1.16686 0
M  V30 3681 C 340.893 2.1546 -0.899949 0
M  V30 3682 C 341.874 1.69391 0.155154 0
M  V30 3683 O 343.059 1.94199 0.00648693 0
M  V30 3684 C 340.189 3.44939 -0.404241 0
M  V30 3685 C 339.143 4.04536 -1.39767 0
M  V30 3686 C 338.469 5.29268 -0.760216 0
M  V30 3687 C 339.769 4.42893 -2.76845 0
M  V30 3688 H 341.463 2.38046 -1.81588 0
M  V30 3689 H 339.009 1.14404 -0.874514 0
M  V30 3690 H 340.962 4.20901 -0.204971 0
M  V30 3691 H 339.686 3.21983 0.547206 0
M  V30 3692 H 338.345 3.30635 -1.58355 0
M  V30 3693 H 337.993 5.02611 0.197831 0
M  V30 3694 H 337.693 5.70101 -1.42332 0
M  V30 3695 H 339.217 6.07924 -0.57105 0
M  V30 3696 H 340.631 5.09921 -2.62019 0
M  V30 3697 H 339.028 4.94721 -3.39663 0
M  V30 3698 H 340.098 3.53584 -3.31823 0
M  V30 3699 N 341.441 0.965919 1.2453 0
M  V30 3700 C 342.857 0.67216 1.44756 0
M  V30 3701 C 343.057 -0.766609 1.86347 0
M  V30 3702 O 342.113 -1.5407 2.00047 0
M  V30 3703 C 343.426 1.65473 2.51076 0
M  V30 3704 C 344.974 1.66716 2.64905 0
M  V30 3705 C 345.449 2.63766 3.74421 0
M  V30 3706 N 346.94 2.62198 3.81846 0
M  V30 3707 C 347.675 3.33966 4.66106 0
M  V30 3708 N 347.171 4.15245 5.54566 0
M  V30 3709 N 348.964 3.22799 4.60171 0
M  V30 3710 H 341.115 1.89553 0.958293 0
M  V30 3711 H 343.378 0.815979 0.482579 0
M  V30 3712 H 343.084 2.68296 2.27399 0
M  V30 3713 H 342.958 1.4261 3.49202 0
M  V30 3714 H 345.345 0.646057 2.87941 0
M  V30 3715 H 345.426 1.93642 1.67142 0
M  V30 3716 H 345.07 3.6601 3.52135 0
M  V30 3717 H 345 2.34121 4.71694 0
M  V30 3718 H 347.491 2.032 3.18619 0
M  V30 3719 H 347.804 4.66898 6.15814 0
M  V30 3720 H 346.149 4.1934 5.54237 0
M  V30 3721 H 349.34 2.58764 3.90075 0
M  V30 3722 H 349.513 3.78994 5.25612 0
M  V30 3723 N 342.919 -1.39368 0.735821 0
M  V30 3724 C 343.866 -2.30599 0.0963825 0
M  V30 3725 C 344.836 -1.49257 -0.728794 0
M  V30 3726 O 346.021 -1.77941 -0.688588 0
M  V30 3727 C 343.161 -3.35596 -0.804305 0
M  V30 3728 C 342.274 -4.31987 0.0335761 0
M  V30 3729 C 341.409 -5.24053 -0.868461 0
M  V30 3730 C 340.448 -6.12095 -0.0258776 0
M  V30 3731 N 339.585 -6.96514 -0.883893 0
M  V30 3732 H 344.425 -2.8471 0.880002 0
M  V30 3733 H 341.962 -1.40188 0.445619 0
M  V30 3734 H 343.92 -3.95062 -1.34096 0
M  V30 3735 H 342.55 -2.82938 -1.55389 0
M  V30 3736 H 341.602 -3.74133 0.68766 0
M  V30 3737 H 342.914 -4.94074 0.685036 0
M  V30 3738 H 342.068 -5.88549 -1.47293 0
M  V30 3739 H 340.807 -4.62289 -1.5537 0
M  V30 3740 H 339.812 -5.4661 0.591386 0
M  V30 3741 H 341.037 -6.75923 0.656156 0
M  V30 3742 H 338.983 -6.37318 -1.55441 0
M  V30 3743 H 338.9 -7.55448 -0.288931 0
M  V30 3744 H 340.168 -7.65439 -1.4739 0
M  V30 3745 N 344.397 -0.483516 -1.5 0
M  V30 3746 C 345.808 -0.0314176 -1.86674 0
M  V30 3747 C 346.159 1.37728 -1.39733 0
M  V30 3748 O 345.284 2.02327 -0.767635 0
M  V30 3749 C 345.879 -0.0502376 -3.38763 0
M  V30 3750 C 344.438 0.346442 -3.74802 0
M  V30 3751 C 343.585 -0.430366 -2.7394 0
M  V30 3752 H 346.536 -0.697182 -1.42566 0
M  V30 3753 H 346.557 0.749116 -3.73053 0
M  V30 3754 H 346.069 -1.07563 -3.72897 0
M  V30 3755 H 344.17 1.37572 -3.46273 0
M  V30 3756 H 344.283 0.0391486 -4.79084 0
M  V30 3757 H 342.647 0.117557 -2.54429 0
M  V30 3758 H 343.43 -1.4555 -3.10918 0
M  V30 3759 N 345.875 1.56104 -0.216619 0
M  V30 3760 C 346.838 2.18819 0.681962 0
M  V30 3761 C 347.838 1.14866 1.12528 0
M  V30 3762 O 349.028 1.40128 1.03488 0
M  V30 3763 C 346.16 2.80756 1.93362 0
M  V30 3764 H 347.353 2.99595 0.135254 0
M  V30 3765 H 344.906 1.56265 0.0330003 0
M  V30 3766 H 345.641 2.03837 2.52232 0
M  V30 3767 H 345.426 3.56876 1.62426 0
M  V30 3768 H 346.916 3.28844 2.57393 0
M  V30 3769 N 347.353 -0.0568162 1.57498 0
M  V30 3770 C 348.581 -0.765626 1.92213 0
M  V30 3771 C 348.996 -1.70353 0.813961 0
M  V30 3772 O 348.353 -1.81268 -0.211701 0
M  V30 3773 C 348.404 -1.5465 3.2675 0
M  V30 3774 O 348.125 -0.646278 4.33307 0
M  V30 3775 C 349.626 -2.35497 3.75574 0
M  V30 3776 H 346.846 -0.216835 0.634999 0
M  V30 3777 H 349.39 -0.0226146 2.04487 0
M  V30 3778 H 347.545 -2.24165 3.15957 0
M  V30 3779 H 347.959 -1.19093 5.108 0
M  V30 3780 H 349.433 -2.85722 4.72299 0
M  V30 3781 H 349.91 -3.15692 3.05344 0
M  V30 3782 H 350.516 -1.7111 3.8936 0
M  V30 3783 N 348.832 -1.54138 -0.328536 0
M  V30 3784 C 349.762 -1.86167 -1.40939 0
M  V30 3785 C 350.743 -0.718044 -1.54202 0
M  V30 3786 O 351.928 -0.971328 -1.68163 0
M  V30 3787 C 349.058 -2.08461 -2.77779 0
M  V30 3788 C 348.012 -3.24299 -2.7931 0
M  V30 3789 C 347.338 -3.31955 -4.19178 0
M  V30 3790 C 348.638 -4.62065 -2.43502 0
M  V30 3791 H 350.332 -2.76689 -1.14383 0
M  V30 3792 H 347.878 -1.33132 -0.548806 0
M  V30 3793 H 349.831 -2.29453 -3.53454 0
M  V30 3794 H 348.555 -1.14684 -3.05802 0
M  V30 3795 H 347.214 -3.03187 -2.0609 0
M  V30 3796 H 346.862 -2.35745 -4.44335 0
M  V30 3797 H 346.562 -4.09805 -4.2111 0
M  V30 3798 H 348.086 -3.55175 -4.96672 0
M  V30 3799 H 349.5 -4.8297 -3.08889 0
M  V30 3800 H 347.897 -5.42429 -2.56693 0
M  V30 3801 H 348.967 -4.64652 -1.38659 0
M  V30 3802 N 350.31 0.590341 -1.46126 0
M  V30 3803 C 351.535 1.37991 -1.54833 0
M  V30 3804 C 351.96 1.87163 -0.187506 0
M  V30 3805 O 351.318 1.61133 0.831008 0
M  V30 3806 C 351.366 2.54867 -2.55098 0
M  V30 3807 O 350.47 3.56061 -2.08073 0
M  V30 3808 H 349.811 0.411265 -0.521303 0
M  V30 3809 H 352.341 0.716819 -1.91632 0
M  V30 3810 H 352.351 3.01886 -2.74461 0
M  V30 3811 H 351.026 2.18429 -3.53923 0
M  V30 3812 H 349.603 3.15574 -1.98664 0
M  V30 3813 N 351.788 1.33704 0.83433 0
M  V30 3814 C 352.72 1.20172 1.9517 0
M  V30 3815 C 353.733 0.131572 1.62267 0
M  V30 3816 O 354.922 0.382406 1.74356 0
M  V30 3817 C 352.022 0.821716 3.28787 0
M  V30 3818 C 351.195 1.98446 3.89792 0
M  V30 3819 C 350.254 1.58469 5.01771 0
M  V30 3820 O 349.28 2.29968 5.20676 0
M  V30 3821 N 350.482 0.492291 5.78409 0
M  V30 3822 H 353.247 2.16429 2.07313 0
M  V30 3823 H 350.808 1.26509 1.0103 0
M  V30 3824 H 352.8 0.536291 4.01131 0
M  V30 3825 H 351.37 -0.0503058 3.1256 0
M  V30 3826 H 350.59 2.43526 3.09982 0
M  V30 3827 H 351.878 2.76236 4.27283 0
M  V30 3828 H 351.276 -0.102349 5.65607 0
M  V30 3829 H 349.833 0.266555 6.51255 0
M  V30 3830 N 353.266 -1.05314 1.17247 0
M  V30 3831 C 354.515 -1.77685 0.954521 0
M  V30 3832 C 354.828 -1.88616 -0.518025 0
M  V30 3833 O 356.034 -2.57714 -0.854144 0
M  V30 3834 C 354.49 -3.19402 1.65863 0
M  V30 3835 C 354.098 -3.16605 3.16963 0
M  V30 3836 C 355.842 -3.96237 1.52303 0
M  V30 3837 C 353.749 -4.53103 3.80068 0
M  V30 3838 H 352.679 -0.666 0.353496 0
M  V30 3839 H 355.33 -1.1805 1.40486 0
M  V30 3840 H 353.712 -3.79355 1.13602 0
M  V30 3841 H 354.886 -2.66176 3.76148 0
M  V30 3842 H 353.201 -2.53268 3.30521 0
M  V30 3843 H 355.798 -4.97157 1.96822 0
M  V30 3844 H 356.141 -4.136 0.473401 0
M  V30 3845 H 356.674 -3.42829 2.01775 0
M  V30 3846 H 353.413 -4.40946 4.85023 0
M  V30 3847 H 352.933 -5.03686 3.2567 0
M  V30 3848 H 354.612 -5.22045 3.82202 0
M  V30 3849 N 354.744 -0.972509 -1.24016 0
M  V30 3850 C 355.992 -0.635776 -1.91839 0
M  V30 3851 C 356.313 0.832312 -1.76345 0
M  V30 3852 O 355.583 1.5946 -1.13795 0
M  V30 3853 H 354.163 -0.232157 -0.710009 0
M  V30 3854 H 356.825 -1.23462 -1.50809 0
M  V30 3855 H 355.921 -0.880545 -2.99421 0
M  V30 3856 N 356.222 1.38976 -0.743202 0
M  V30 3857 C 357.45 2.04636 -0.30525 0
M  V30 3858 C 357.865 1.56044 1.06281 0
M  V30 3859 O 357.222 0.728921 1.67311 0
M  V30 3860 C 357.273 3.60193 -0.307177 0
M  V30 3861 O 356.994 4.06998 -1.62124 0
M  V30 3862 C 358.495 4.4306 0.145928 0
M  V30 3863 H 355.715 0.65788 -0.132041 0
M  V30 3864 H 358.259 1.77866 -1.00915 0
M  V30 3865 H 356.414 3.85835 0.347898 0
M  V30 3866 H 356.828 5.01371 -1.54036 0
M  V30 3867 H 358.302 5.51921 0.0934183 0
M  V30 3868 H 358.779 4.22706 1.19231 0
M  V30 3869 H 359.385 4.22584 -0.479886 0
M  V30 3870 N 357.7 0.491464 1.49741 0
M  V30 3871 C 358.648 -0.305837 2.30581 0
M  V30 3872 C 359.642 -0.971642 1.38764 0
M  V30 3873 O 360.848 -0.90042 1.5586 0
M  V30 3874 H 357.223 -0.117482 0.742767 0
M  V30 3875 H 359.194 0.396093 2.95759 0
M  V30 3876 C 357.943 -1.36319 3.19863 0
M  V30 3877 H 357.266 -0.860258 3.90435 0
M  V30 3878 H 358.706 -1.89323 3.79385 0
M  V30 3879 C 357.165 -2.37621 2.38826 0
M  V30 3880 O 357.695 -3.43311 2.08567 0
M  V30 3881 N 355.901 -2.09849 2.01026 0
M  V30 3882 H 355.448 -1.23922 2.25834 0
M  V30 3883 H 355.406 -2.77859 1.47112 0
M  V30 3884 N 359.178 -1.55987 0.224894 0
M  V30 3885 C 360.125 -2.20436 -0.68385 0
M  V30 3886 C 361.095 -1.16102 -1.18783 0
M  V30 3887 O 362.28 -1.4447 -1.24632 0
M  V30 3888 C 359.42 -2.89076 -1.88491 0
M  V30 3889 C 358.533 -4.08012 -1.41951 0
M  V30 3890 C 357.668 -4.64426 -2.5784 0
M  V30 3891 C 356.707 -5.75656 -2.08053 0
M  V30 3892 N 355.844 -6.26347 -3.17227 0
M  V30 3893 H 360.684 -2.97727 -0.12754 0
M  V30 3894 H 358.221 -1.47011 -0.0511978 0
M  V30 3895 H 360.179 -3.27059 -2.59014 0
M  V30 3896 H 358.809 -2.14298 -2.41405 0
M  V30 3897 H 357.861 -3.75492 -0.609095 0
M  V30 3898 H 359.173 -4.88375 -1.01447 0
M  V30 3899 H 358.327 -5.04869 -3.3644 0
M  V30 3900 H 357.066 -3.83233 -3.01635 0
M  V30 3901 H 356.071 -5.34712 -1.27916 0
M  V30 3902 H 357.296 -6.58686 -1.65255 0
M  V30 3903 H 355.242 -5.48067 -3.60497 0
M  V30 3904 H 355.159 -7.01843 -2.80986 0
M  V30 3905 H 356.427 -6.71447 -3.95953 0
M  V30 3906 N 360.656 0.0484629 -1.57525 0
M  V30 3907 C 361.603 1.05504 -2.05275 0
M  V30 3908 C 362.573 1.37084 -0.937927 0
M  V30 3909 O 363.758 1.47754 -1.2072 0
M  V30 3910 C 360.898 2.35676 -2.52093 0
M  V30 3911 C 360.011 2.10423 -3.77288 0
M  V30 3912 C 359.146 3.34327 -4.12794 0
M  V30 3913 C 358.185 3.04542 -5.30962 0
M  V30 3914 N 357.322 4.20841 -5.61994 0
M  V30 3915 H 362.162 0.640885 -2.91027 0
M  V30 3916 H 359.699 0.304854 -1.43906 0
M  V30 3917 H 361.657 3.11709 -2.77297 0
M  V30 3918 H 360.287 2.7485 -1.69285 0
M  V30 3919 H 359.339 1.24976 -3.59284 0
M  V30 3920 H 360.651 1.84438 -4.63448 0
M  V30 3921 H 359.805 4.1874 -4.39024 0
M  V30 3922 H 358.544 3.63408 -3.25247 0
M  V30 3923 H 357.549 2.18528 -5.04505 0
M  V30 3924 H 358.774 2.76758 -6.20146 0
M  V30 3925 H 356.72 4.4991 -4.77406 0
M  V30 3926 H 356.637 3.98212 -6.42622 0
M  V30 3927 H 357.905 5.06184 -5.92789 0
M  V30 3928 N 362.134 1.5431 0.320358 0
M  V30 3929 C 363.081 1.83918 1.39438 0
M  V30 3930 C 364.051 0.686525 1.51248 0
M  V30 3931 O 365.236 0.933269 1.66417 0
M  V30 3932 C 362.376 2.075 2.75749 0
M  V30 3933 C 361.489 3.35177 2.72544 0
M  V30 3934 C 360.624 3.48704 4.00723 0
M  V30 3935 C 359.663 4.70244 3.91838 0
M  V30 3936 N 358.8 4.80679 5.11754 0
M  V30 3937 H 363.64 2.75544 1.13489 0
M  V30 3938 H 361.177 1.36459 0.549309 0
M  V30 3939 H 363.135 2.19166 3.54996 0
M  V30 3940 H 361.765 1.19163 3 0
M  V30 3941 H 360.817 3.32233 1.85271 0
M  V30 3942 H 362.129 4.24534 2.61863 0
M  V30 3943 H 361.283 3.59928 4.88402 0
M  V30 3944 H 360.022 2.57445 4.14214 0
M  V30 3945 H 359.027 4.59072 3.02544 0
M  V30 3946 H 360.252 5.6289 3.7991 0
M  V30 3947 H 358.198 3.92337 5.25745 0
M  V30 3948 H 358.115 5.64007 5.0342 0
M  V30 3949 H 359.383 4.96239 6.01138 0
M  V30 3950 N 363.613 -0.582584 1.46437 0
M  V30 3951 C 364.859 -1.34278 1.51978 0
M  V30 3952 C 365.192 -1.93446 0.170973 0
M  V30 3953 O 364.467 -1.76481 -0.817608 0
M  V30 3954 C 364.75 -2.47203 2.61845 0
M  V30 3955 C 364.603 -1.93069 4.06257 0
M  V30 3956 C 365.922 -3.49247 2.67795 0
M  V30 3957 H 363.041 -0.486876 0.553282 0
M  V30 3958 H 365.683 -0.654437 1.78374 0
M  V30 3959 H 363.833 -3.0592 2.39469 0
M  V30 3960 H 365.505 -1.38808 4.3992 0
M  V30 3961 H 363.748 -1.23898 4.1573 0
M  V30 3962 H 364.419 -2.74586 4.7886 0
M  V30 3963 H 366.895 -3.00411 2.8791 0
M  V30 3964 H 365.771 -4.25719 3.46489 0
M  V30 3965 H 366.032 -4.06482 1.73852 0
M  V30 3966 N 365.091 -1.34144 -0.827227 0
M  V30 3967 C 366.021 -1.28005 -1.95287 0
M  V30 3968 C 367.002 -0.158321 -1.69362 0
M  V30 3969 O 368.187 -0.349987 -1.9102 0
M  V30 3970 C 365.317 -1.03036 -3.31664 0
M  V30 3971 C 364.271 -2.11628 -3.72019 0
M  V30 3972 C 363.597 -1.71854 -5.0633 0
M  V30 3973 C 364.897 -3.53417 -3.8457 0
M  V30 3974 H 366.591 -2.22187 -2.00682 0
M  V30 3975 H 364.137 -1.0696 -0.964135 0
M  V30 3976 H 366.09 -0.973863 -4.09993 0
M  V30 3977 H 364.814 -0.0529391 -3.26557 0
M  V30 3978 H 363.473 -2.16339 -2.95961 0
M  V30 3979 H 363.121 -0.727841 -4.97706 0
M  V30 3980 H 362.821 -2.44531 -5.34302 0
M  V30 3981 H 364.345 -1.67692 -5.87122 0
M  V30 3982 H 365.759 -3.51142 -4.5318 0
M  V30 3983 H 364.156 -4.24679 -4.2399 0
M  V30 3984 H 365.226 -3.91072 -2.86689 0
M  V30 3985 N 366.569 1.04691 -1.17803 0
M  V30 3986 C 367.516 2.12557 -0.899343 0
M  V30 3987 C 368.486 1.65339 0.158771 0
M  V30 3988 O 369.671 1.90789 0.0204797 0
M  V30 3989 C 366.811 3.42481 -0.424315 0
M  V30 3990 C 365.924 4.03346 -1.54713 0
M  V30 3991 C 365.059 5.21208 -1.02546 0
M  V30 3992 C 364.098 5.74089 -2.12339 0
M  V30 3993 N 363.235 6.83247 -1.61612 0
M  V30 3994 H 368.075 2.35734 -1.823 0
M  V30 3995 H 365.612 1.1564 -0.909159 0
M  V30 3996 H 367.57 4.16996 -0.130421 0
M  V30 3997 H 366.2 3.19471 0.462377 0
M  V30 3998 H 365.252 3.2622 -1.95664 0
M  V30 3999 H 366.564 4.38628 -2.37501 0
M  V30 4000 H 365.718 6.02812 -0.685718 0
M  V30 4001 H 364.457 4.87414 -0.167084 0
M  V30 4002 H 363.462 4.91111 -2.47165 0
M  V30 4003 H 364.687 6.0993 -2.98601 0
M  V30 4004 H 362.633 6.5134 -0.780533 0
M  V30 4005 H 362.55 7.17559 -2.38003 0
M  V30 4006 H 363.818 7.68491 -1.30545 0
M  V30 4007 N 368.047 0.979072 1.23499 0
M  V30 4008 C 368.98 0.463027 2.23453 0
M  V30 4009 C 369.958 -0.469128 1.55685 0
M  V30 4010 O 371.142 -0.397882 1.84253 0
M  V30 4011 C 368.269 -0.330308 3.37086 0
M  V30 4012 C 367.315 0.545795 4.22993 0
M  V30 4013 S 368.148 1.99285 4.97037 0
M  V30 4014 C 369.304 1.20862 6.1412 0
M  V30 4015 H 369.537 1.31005 2.6688 0
M  V30 4016 H 367.07 0.784965 1.32957 0
M  V30 4017 H 369.028 -0.782027 4.02982 0
M  V30 4018 H 367.689 -1.15244 2.92194 0
M  V30 4019 H 366.882 -0.0638928 5.03959 0
M  V30 4020 H 366.484 0.933705 3.62157 0
M  V30 4021 H 368.776 0.469284 6.75873 0
M  V30 4022 H 369.719 1.99307 6.79472 0
M  V30 4023 H 370.127 0.727992 5.59786 0
M  V30 4024 N 369.525 -1.3858 0.750561 0
M  V30 4025 C 370.774 -1.99424 0.302172 0
M  V30 4026 C 371.087 -1.60254 -1.12152 0
M  V30 4027 O 372.293 -2.14046 -1.67023 0
M  V30 4028 C 370.749 -3.56558 0.489307 0
M  V30 4029 C 370.357 -4.04682 1.92189 0
M  V30 4030 C 372.101 -4.24374 0.103478 0
M  V30 4031 C 370.008 -5.54446 2.05775 0
M  V30 4032 H 368.938 -0.746046 0.10923 0
M  V30 4033 H 371.589 -1.58383 0.92667 0
M  V30 4034 H 369.971 -3.95472 -0.204329 0
M  V30 4035 H 371.145 -3.77065 2.64875 0
M  V30 4036 H 369.46 -3.4958 2.26236 0
M  V30 4037 H 372.057 -5.34384 0.183787 0
M  V30 4038 H 372.4 -4.05468 -0.943481 0
M  V30 4039 H 372.933 -3.90688 0.748854 0
M  V30 4040 H 369.672 -5.78252 3.08714 0
M  V30 4041 H 369.192 -5.83816 1.37546 0
M  V30 4042 H 370.871 -6.20099 1.84626 0
M  V30 4043 N 371.003 -0.499398 -1.49478 0
M  V30 4044 C 372.231 0.0425456 -2.06856 0
M  V30 4045 C 372.646 1.30964 -1.35992 0
M  V30 4046 O 372.003 1.77172 -0.437762 0
M  V30 4047 C 372.054 0.301735 -3.60239 0
M  V30 4048 O 371.775 -0.915127 -4.28436 0
M  V30 4049 C 373.276 0.887499 -4.34325 0
M  V30 4050 H 370.496 -0.0197482 -0.670709 0
M  V30 4051 H 373.04 -0.696297 -1.92281 0
M  V30 4052 H 371.195 0.990556 -3.74522 0
M  V30 4053 H 371.609 -0.676993 -5.20113 0
M  V30 4054 H 373.083 1.01845 -5.42523 0
M  V30 4055 H 373.56 1.88488 -3.96698 0
M  V30 4056 H 374.166 0.236196 -4.24644 0
M  V30 4057 N 372.481 1.55866 -0.233164 0
M  V30 4058 C 373.727 1.98897 0.395959 0
M  V30 4059 C 374.06 1.12091 1.58585 0
M  V30 4060 O 373.335 0.181182 1.93654 0
M  V30 4061 C 373.618 3.50658 0.819224 0
M  V30 4062 C 373.471 4.48233 -0.375109 0
M  V30 4063 C 374.79 4.07135 1.67121 0
M  V30 4064 H 371.909 0.723102 0.142451 0
M  V30 4065 H 374.551 1.87082 -0.331725 0
M  V30 4066 H 372.701 3.60857 1.43925 0
M  V30 4067 H 374.373 4.50031 -1.01341 0
M  V30 4068 H 372.616 4.21624 -1.02058 0
M  V30 4069 H 373.287 5.51988 -0.0358328 0
M  V30 4070 H 375.763 3.99952 1.14795 0
M  V30 4071 H 374.639 5.13615 1.93625 0
M  V30 4072 H 374.9 3.54736 2.63846 0
M  V30 4073 N 373.959 -0.0401083 1.57549 0
M  V30 4074 C 374.909 -1.05175 2.02292 0
M  V30 4075 C 375.893 -1.32674 0.910294 0
M  V30 4076 O 377.085 -1.32444 1.17421 0
M  V30 4077 C 374.214 -2.35622 2.49674 0
M  V30 4078 C 373.3 -2.11261 3.67736 0
M  V30 4079 N 373.691 -1.56923 4.80842 0
M  V30 4080 C 371.989 -2.41596 3.74897 0
M  V30 4081 C 372.69 -1.48111 5.62528 0
M  V30 4082 N 371.666 -1.95282 5.07312 0
M  V30 4083 H 375.468 -0.625455 2.87168 0
M  V30 4084 H 372.982 -0.246624 1.60516 0
M  V30 4085 H 374.979 -3.08893 2.79983 0
M  V30 4086 H 373.639 -2.7894 1.662 0
M  V30 4087 H 374.65 -1.25345 5.02503 0
M  V30 4088 H 371.327 -2.88064 3.02201 0
M  V30 4089 H 372.717 -1.06683 6.63377 0
M  V30 4090 N 375.437 -1.54477 -0.31217 0
M  V30 4091 C 376.37 -1.79519 -1.40884 0
M  V30 4092 C 377.348 -0.645753 -1.49227 0
M  V30 4093 O 378.532 -0.884468 -1.66461 0
M  V30 4094 C 375.659 -1.92194 -2.78889 0
M  V30 4095 C 374.705 -3.14555 -2.88023 0
M  V30 4096 S 375.538 -4.72893 -2.51262 0
M  V30 4097 C 376.694 -4.8849 -3.91317 0
M  V30 4098 H 376.927 -2.72256 -1.19432 0
M  V30 4099 H 374.46 -1.45746 -0.509654 0
M  V30 4100 H 376.418 -2.00182 -3.58382 0
M  V30 4101 H 375.079 -1.00414 -2.97617 0
M  V30 4102 H 374.272 -3.20193 -3.89221 0
M  V30 4103 H 373.874 -3.04955 -2.16514 0
M  V30 4104 H 376.166 -4.71826 -4.86196 0
M  V30 4105 H 377.109 -5.90588 -3.90656 0
M  V30 4106 H 377.517 -4.16715 -3.80801 0
M  V30 4107 N 376.915 0.57481 -1.46744 0
M  V30 4108 C 377.878 1.66533 -1.57478 0
M  V30 4109 C 378.878 1.54338 -0.451263 0
M  V30 4110 O 380.068 1.58814 -0.715813 0
M  V30 4111 C 377.2 3.05999 -1.50259 0
M  V30 4112 H 378.393 1.58372 -2.54673 0
M  V30 4113 H 375.946 0.793301 -1.34672 0
M  V30 4114 H 376.681 3.19709 -0.543725 0
M  V30 4115 H 376.466 3.16259 -2.31781 0
M  V30 4116 H 377.956 3.8537 -1.60872 0
M  V30 4117 N 378.394 1.34581 0.820102 0
M  V30 4118 C 379.64 1.27285 1.57881 0
M  V30 4119 C 379.973 -0.156137 1.93571 0
M  V30 4120 O 379.248 -1.10222 1.60254 0
M  V30 4121 C 379.531 2.16639 2.87645 0
M  V30 4122 C 379.384 3.68088 2.58517 0
M  V30 4123 C 380.703 2.05378 3.8924 0
M  V30 4124 H 377.822 0.463714 0.572833 0
M  V30 4125 H 380.464 1.64859 0.944539 0
M  V30 4126 H 378.614 1.84725 3.41773 0
M  V30 4127 H 380.286 4.10382 2.10676 0
M  V30 4128 H 378.529 3.89038 1.91917 0
M  V30 4129 H 379.2 4.2598 3.51063 0
M  V30 4130 H 381.676 2.33404 3.44473 0
M  V30 4131 H 380.552 2.7012 4.77835 0
M  V30 4132 H 380.813 1.0316 4.29896 0
M  V30 4133 N 379.872 -1.04064 1.18357 0
M  V30 4134 C 381.119 -1.77265 0.978947 0
M  V30 4135 C 381.447 -1.88189 -0.491428 0
M  V30 4136 O 380.702 -1.38653 -1.38108 0
M  V30 4137 C 381.001 -3.20634 1.57888 0
M  V30 4138 C 380.667 -3.29743 3.07539 0
M  V30 4139 C 379.329 -3.31937 3.48384 0
M  V30 4140 C 381.681 -3.29841 4.03552 0
M  V30 4141 C 379.009 -3.3187 4.83818 0
M  V30 4142 C 381.361 -3.31313 5.38901 0
M  V30 4143 C 380.025 -3.31799 5.79194 0
M  V30 4144 H 379.295 -0.648659 0.358222 0
M  V30 4145 H 381.942 -1.22225 1.47422 0
M  V30 4146 H 380.247 -3.78675 1.00561 0
M  V30 4147 H 381.944 -3.75917 1.39598 0
M  V30 4148 H 378.534 -3.28757 2.74986 0
M  V30 4149 H 382.718 -3.27337 3.73047 0
M  V30 4150 H 377.974 -3.30562 5.14333 0
M  V30 4151 H 382.148 -3.30338 6.13066 0
M  V30 4152 H 379.775 -3.315 6.84114 0
M  V30 4153 N 381.35 -0.985608 -1.22978 0
M  V30 4154 C 382.596 -0.65836 -1.91816 0
M  V30 4155 C 382.929 0.806692 -1.76653 0
M  V30 4156 O 382.204 1.58252 -1.13078 0
M  V30 4157 C 382.487 -1.056 -3.44268 0
M  V30 4158 C 382.34 -2.57906 -3.68516 0
M  V30 4159 C 383.659 -0.603781 -4.35939 0
M  V30 4160 H 380.778 -0.24065 -0.696604 0
M  V30 4161 H 383.42 -1.22783 -1.44998 0
M  V30 4162 H 381.57 -0.571445 -3.84274 0
M  V30 4163 H 383.242 -3.13976 -3.3796 0
M  V30 4164 H 381.485 -3.00305 -3.13048 0
M  V30 4165 H 382.156 -2.80779 -4.75255 0
M  V30 4166 H 384.632 -1.01987 -4.03408 0
M  V30 4167 H 383.508 -0.910383 -5.41298 0
M  V30 4168 H 383.769 0.495761 -4.39312 0
M  V30 4169 N 382.828 1.3818 -0.7579 0
M  V30 4170 C 384.074 2.00316 -0.316453 0
M  V30 4171 C 384.407 1.60026 1.10025 0
M  V30 4172 O 383.682 0.839835 1.75434 0
M  V30 4173 C 383.965 3.57349 -0.444245 0
M  V30 4174 C 383.818 4.07591 -1.90236 0
M  V30 4175 C 385.137 4.3981 0.1598 0
M  V30 4176 H 382.256 0.727741 -0.116459 0
M  V30 4177 H 384.898 1.6406 -0.958352 0
M  V30 4178 H 383.048 3.88365 0.102233 0
M  V30 4179 H 384.72 3.87199 -2.50748 0
M  V30 4180 H 382.963 3.60297 -2.41595 0
M  V30 4181 H 383.634 5.16677 -1.94291 0
M  V30 4182 H 386.11 4.14971 -0.306314 0
M  V30 4183 H 384.986 5.48885 0.0401675 0
M  V30 4184 H 385.247 4.24102 1.24859 0
M  V30 4185 N 384.306 0.507319 1.49211 0
M  V30 4186 C 385.546 -0.0332372 2.04373 0
M  V30 4187 C 385.91 -1.33694 1.37804 0
M  V30 4188 O 387.111 -1.96213 1.83722 0
M  V30 4189 C 385.382 -0.17599 3.56966 0
M  V30 4190 S 386.941 -0.669882 4.33657 0
M  V30 4191 H 383.759 0.00123603 0.710999 0
M  V30 4192 H 386.361 0.682725 1.83191 0
M  V30 4193 H 385.065 0.778053 4.02957 0
M  V30 4194 H 384.596 -0.917005 3.82563 0
M  V30 4195 H 386.611 -1.93806 4.56786 0
M  V30 4196 N 385.784 -1.5574 0.241426 0
M  V30 4197 C 387.031 -1.9881 -0.384836 0
M  V30 4198 C 387.359 -1.12947 -1.58346 0
M  V30 4199 O 386.614 -0.178993 -1.9488 0
M  V30 4200 C 386.913 -3.47308 -0.843317 0
M  V30 4201 C 386.579 -4.50223 0.246946 0
M  V30 4202 C 385.241 -4.78088 0.546399 0
M  V30 4203 C 387.593 -5.11841 0.983282 0
M  V30 4204 C 384.921 -5.64846 1.58636 0
M  V30 4205 C 387.273 -5.99727 2.01272 0
M  V30 4206 C 385.937 -6.25927 2.31888 0
M  V30 4207 H 385.207 -0.727496 -0.140821 0
M  V30 4208 H 387.854 -1.8831 0.348106 0
M  V30 4209 H 386.159 -3.55112 -1.65537 0
M  V30 4210 H 387.856 -3.78017 -1.33806 0
M  V30 4211 H 384.446 -4.286 0.00340639 0
M  V30 4212 H 388.63 -4.90366 0.765182 0
M  V30 4213 H 383.886 -5.83403 1.82896 0
M  V30 4214 H 388.06 -6.46517 2.58823 0
M  V30 4215 H 385.687 -6.92949 3.12611 0
M  V30 4216 N 387.262 0.0317525 -1.57568 0
M  V30 4217 C 388.508 0.724175 -1.8943 0
M  V30 4218 C 388.841 1.75149 -0.838836 0
M  V30 4219 O 388.116 1.93948 0.146422 0
M  V30 4220 C 388.399 1.39615 -3.31933 0
M  V30 4221 C 388.252 0.382537 -4.4817 0
M  V30 4222 C 389.571 2.33084 -3.73309 0
M  V30 4223 H 386.69 0.261797 -0.688935 0
M  V30 4224 H 389.332 -0.013017 -1.89996 0
M  V30 4225 H 387.482 2.02451 -3.31581 0
M  V30 4226 H 389.154 -0.243689 -4.60656 0
M  V30 4227 H 387.397 -0.29844 -4.32772 0
M  V30 4228 H 388.068 0.891145 -5.44759 0
M  V30 4229 H 390.544 1.80295 -3.7501 0
M  V30 4230 H 389.42 2.77084 -4.73831 0
M  V30 4231 H 389.681 3.19643 -3.05419 0
M  V30 4232 N 388.74 1.54641 0.303973 0
M  V30 4233 C 390.151 1.64811 0.877163 0
M  V30 4234 C 390.502 0.554838 1.88191 0
M  V30 4235 O 389.627 -0.309033 2.14182 0
M  V30 4236 C 390.222 2.9876 1.59775 0
M  V30 4237 C 388.781 3.11061 2.11938 0
M  V30 4238 C 387.928 2.60479 0.951097 0
M  V30 4239 H 390.879 1.58493 0.0810486 0
M  V30 4240 H 390.9 2.90017 2.46314 0
M  V30 4241 H 390.412 3.7831 0.866226 0
M  V30 4242 H 388.513 2.36225 2.88146 0
M  V30 4243 H 388.626 4.17171 2.35595 0
M  V30 4244 H 386.99 2.16859 1.33583 0
M  V30 4245 H 387.773 3.42504 0.233581 0
M  V30 4246 N 390.218 -0.567019 1.47046 0
M  V30 4247 C 391.448 -1.34831 1.56538 0
M  V30 4248 C 391.856 -1.8802 0.21101 0
M  V30 4249 O 391.199 -1.65152 -0.804387 0
M  V30 4250 C 391.261 -2.56139 2.52256 0
M  V30 4251 C 390.925 -2.24307 3.98165 0
M  V30 4252 C 391.922 -1.82192 4.86931 0
M  V30 4253 C 389.607 -2.35968 4.43423 0
M  V30 4254 C 391.601 -1.52153 6.18973 0
M  V30 4255 C 389.288 -2.05542 5.75496 0
M  V30 4256 C 390.286 -1.63701 6.63092 0
M  V30 4257 O 389.974 -1.33657 7.92711 0
M  V30 4258 H 389.706 -0.417683 0.531523 0
M  V30 4259 H 392.26 -0.694726 1.93294 0
M  V30 4260 H 390.49 -3.24356 2.10548 0
M  V30 4261 H 392.179 -3.18214 2.51982 0
M  V30 4262 H 392.945 -1.72684 4.53217 0
M  V30 4263 H 388.824 -2.67495 3.75456 0
M  V30 4264 H 392.368 -1.19421 6.87302 0
M  V30 4265 H 388.265 -2.14679 6.08755 0
M  V30 4266 H 389.033 -1.4737 8.05124 0
M  V30 4267 N 391.696 -1.35014 -0.812953 0
M  V30 4268 C 392.644 -1.27435 -1.94585 0
M  V30 4269 C 393.638 -0.170494 -1.6854 0
M  V30 4270 O 394.844 -0.336085 -1.76835 0
M  V30 4271 H 391.219 -0.396144 -0.639198 0
M  V30 4272 H 393.19 -2.23158 -1.98098 0
M  V30 4273 C 391.939 -1.05677 -3.31252 0
M  V30 4274 H 391.262 -1.89853 -3.51846 0
M  V30 4275 H 392.702 -1.04413 -4.10943 0
M  V30 4276 C 391.161 0.239615 -3.36047 0
M  V30 4277 O 391.691 1.23759 -3.8216 0
M  V30 4278 N 389.897 0.276186 -2.89285 0
M  V30 4279 H 389.444 -0.53653 -2.51951 0
M  V30 4280 H 389.402 1.14332 -2.92875 0
M  V30 4281 N 393.175 1.03435 -1.18907 0
M  V30 4282 C 394.4 1.80919 -1.01406 0
M  V30 4283 C 394.825 1.83055 0.432721 0
M  V30 4284 O 394.183 1.25252 1.31079 0
M  V30 4285 C 394.231 3.24091 -1.58105 0
M  V30 4286 O 393.335 4.04434 -0.806669 0
M  V30 4287 H 392.676 0.558709 -0.358803 0
M  V30 4288 H 395.206 1.30223 -1.57807 0
M  V30 4289 H 395.216 3.74853 -1.61087 0
M  V30 4290 H 393.891 3.21851 -2.6341 0
M  V30 4291 H 392.468 3.63091 -0.849666 0
M  V30 4292 N 394.653 0.992116 1.22453 0
M  V30 4293 C 395.899 0.668523 1.91464 0
M  V30 4294 C 396.232 -0.797313 1.77078 0
M  V30 4295 O 395.507 -1.5765 1.13916 0
M  V30 4296 C 395.79 1.07424 3.43703 0
M  V30 4297 C 395.643 2.59857 3.67143 0
M  V30 4298 C 396.962 0.626891 4.35612 0
M  V30 4299 H 394.081 0.244341 0.695318 0
M  V30 4300 H 396.723 1.2355 1.44345 0
M  V30 4301 H 394.873 0.591816 3.83966 0
M  V30 4302 H 396.545 3.15764 3.3629 0
M  V30 4303 H 394.788 3.01961 3.11451 0
M  V30 4304 H 395.459 2.83296 4.73759 0
M  V30 4305 H 397.935 1.04125 4.02861 0
M  V30 4306 H 396.811 0.939076 5.40807 0
M  V30 4307 H 397.072 -0.472457 4.39568 0
M  V30 4308 N 396.131 -1.37776 0.765217 0
M  V30 4309 C 397.061 -2.32945 0.160953 0
M  V30 4310 C 398.042 -1.55454 -0.690516 0
M  V30 4311 O 399.227 -1.83721 -0.629318 0
M  V30 4312 C 396.357 -3.39669 -0.724031 0
M  V30 4313 C 395.311 -4.27992 0.0256173 0
M  V30 4314 C 394.637 -5.25673 -0.978383 0
M  V30 4315 C 395.937 -5.08309 1.20082 0
M  V30 4316 H 397.631 -2.83728 0.955969 0
M  V30 4317 H 395.177 -1.36416 0.461149 0
M  V30 4318 H 397.13 -4.05219 -1.15652 0
M  V30 4319 H 395.854 -2.87396 -1.5515 0
M  V30 4320 H 394.513 -3.63964 0.438812 0
M  V30 4321 H 394.161 -4.69682 -1.80022 0
M  V30 4322 H 393.861 -5.85625 -0.481378 0
M  V30 4323 H 395.385 -5.94098 -1.40995 0
M  V30 4324 H 396.799 -5.67034 0.845307 0
M  V30 4325 H 395.196 -5.77554 1.62947 0
M  V30 4326 H 396.266 -4.41365 2.00811 0
M  V30 4327 N 397.609 -0.515225 -1.4894 0
M  V30 4328 C 398.856 0.024215 -2.02486 0
M  V30 4329 C 399.184 1.35671 -1.39368 0
M  V30 4330 O 398.439 1.88566 -0.523574 0
M  V30 4331 C 398.738 0.210595 -3.56779 0
M  V30 4332 C 398.404 -1.04569 -4.38607 0
M  V30 4333 C 397.066 -1.39002 -4.60686 0
M  V30 4334 C 399.418 -1.88008 -4.86109 0
M  V30 4335 C 396.746 -2.568 -5.27514 0
M  V30 4336 C 399.098 -3.04972 -5.54234 0
M  V30 4337 C 397.762 -3.39768 -5.74555 0
M  V30 4338 H 397.032 0.00886088 -0.740947 0
M  V30 4339 H 399.679 -0.678263 -1.79086 0
M  V30 4340 H 397.984 0.99572 -3.78936 0
M  V30 4341 H 399.681 0.642659 -3.95817 0
M  V30 4342 H 396.271 -0.767497 -4.21672 0
M  V30 4343 H 400.455 -1.62719 -4.68867 0
M  V30 4344 H 395.711 -2.8398 -5.41447 0
M  V30 4345 H 399.885 -3.69943 -5.90013 0
M  V30 4346 H 397.512 -4.31148 -6.26112 0
M  V30 4347 N 399.087 1.5561 -0.249682 0
M  V30 4348 C 400.017 2.24477 0.642826 0
M  V30 4349 C 400.998 1.22601 1.17911 0
M  V30 4350 O 402.183 1.5126 1.21795 0
M  V30 4351 C 399.313 2.94638 1.83863 0
M  V30 4352 C 398.267 4.03227 1.435 0
M  V30 4353 C 397.593 4.60828 2.71186 0
M  V30 4354 C 398.893 5.18796 0.604002 0
M  V30 4355 H 400.587 2.99321 0.0685625 0
M  V30 4356 H 398.133 1.43965 0.0315363 0
M  V30 4357 H 400.086 3.41517 2.46868 0
M  V30 4358 H 398.81 2.17287 2.43832 0
M  V30 4359 H 397.469 3.57121 0.828275 0
M  V30 4360 H 397.117 3.80174 3.29358 0
M  V30 4361 H 396.817 5.34132 2.44901 0
M  V30 4362 H 398.341 5.10442 3.35084 0
M  V30 4363 H 399.755 5.61883 1.13842 0
M  V30 4364 H 398.152 5.98506 0.437097 0
M  V30 4365 H 399.222 4.83384 -0.383147 0
M  V30 4366 N 400.565 -0.0233959 1.57583 0
M  V30 4367 C 401.795 -0.723631 1.93513 0
M  V30 4368 C 402.203 -1.69115 0.848333 0
M  V30 4369 O 401.546 -1.82781 -0.183484 0
M  V30 4370 C 401.608 -1.53075 3.25282 0
M  V30 4371 C 401.272 -0.727388 4.51174 0
M  V30 4372 C 402.269 -0.0251924 5.19894 0
M  V30 4373 C 399.954 -0.680256 4.97672 0
M  V30 4374 C 401.948 0.713374 6.33395 0
M  V30 4375 C 399.635 0.0620523 6.11068 0
M  V30 4376 C 400.633 0.757622 6.78785 0
M  V30 4377 O 400.321 1.48787 7.90011 0
M  V30 4378 H 400.053 -0.208051 0.643188 0
M  V30 4379 H 402.607 0.0167489 2.05393 0
M  V30 4380 H 400.837 -2.31508 3.09744 0
M  V30 4381 H 402.526 -2.11413 3.46496 0
M  V30 4382 H 403.292 -0.0526003 4.84971 0
M  V30 4383 H 399.171 -1.21116 4.44805 0
M  V30 4384 H 402.715 1.25683 6.86185 0
M  V30 4385 H 398.612 0.0913634 6.45435 0
M  V30 4386 H 399.38 1.40213 8.06401 0
M  V30 4387 N 402.043 -1.548 -0.295768 0
M  V30 4388 C 403.006 -1.85363 -1.34808 0
M  V30 4389 C 404.006 -0.726817 -1.43436 0
M  V30 4390 O 405.196 -0.995088 -1.42981 0
M  V30 4391 C 402.328 -2.03859 -2.73229 0
M  V30 4392 H 403.521 -2.7941 -1.08949 0
M  V30 4393 H 401.074 -1.46942 -0.532702 0
M  V30 4394 H 401.809 -1.12117 -3.04303 0
M  V30 4395 H 401.594 -2.8588 -2.68356 0
M  V30 4396 H 403.084 -2.28857 -3.49305 0
M  V30 4397 N 403.521 0.559213 -1.47345 0
M  V30 4398 C 404.451 1.67622 -1.62558 0
M  V30 4399 C 405.432 1.63331 -0.475087 0
M  V30 4400 O 406.617 1.80983 -0.704182 0
M  V30 4401 C 403.747 3.0626 -1.63774 0
M  V30 4402 C 402.701 3.25397 -2.7803 0
M  V30 4403 C 402.027 4.64801 -2.64318 0
M  V30 4404 C 403.327 3.10965 -4.19641 0
M  V30 4405 H 405.021 1.55146 -2.56067 0
M  V30 4406 H 402.567 0.744961 -1.23233 0
M  V30 4407 H 404.52 3.84247 -1.73008 0
M  V30 4408 H 403.244 3.1969 -0.66825 0
M  V30 4409 H 401.903 2.49817 -2.68304 0
M  V30 4410 H 401.551 4.75028 -1.65401 0
M  V30 4411 H 401.251 4.78555 -3.40968 0
M  V30 4412 H 402.775 5.44926 -2.75478 0
M  V30 4413 H 404.189 3.78772 -4.30354 0
M  V30 4414 H 402.586 3.36229 -4.97062 0
M  V30 4415 H 403.656 2.07736 -4.38148 0
M  V30 4416 N 404.999 1.35443 0.805782 0
M  V30 4417 C 406.245 1.28952 1.56522 0
M  V30 4418 C 406.578 -0.135597 1.93726 0
M  V30 4419 O 405.853 -1.08516 1.61414 0
M  V30 4420 C 406.136 2.19678 2.85331 0
M  V30 4421 C 405.989 3.7081 2.54598 0
M  V30 4422 C 407.308 2.09495 3.8704 0
M  V30 4423 H 404.427 0.469764 0.567883 0
M  V30 4424 H 407.069 1.65851 0.927001 0
M  V30 4425 H 405.219 1.8834 3.39795 0
M  V30 4426 H 406.891 4.12593 2.06312 0
M  V30 4427 H 405.134 3.91051 1.8778 0
M  V30 4428 H 405.805 4.29679 3.46525 0
M  V30 4429 H 408.281 2.37045 3.41978 0
M  V30 4430 H 407.157 2.75173 4.74943 0
M  V30 4431 H 407.418 1.07714 4.28777 0
M  V30 4432 N 406.477 -1.02803 1.19454 0
M  V30 4433 C 407.893 -1.28473 0.946937 0
M  V30 4434 C 408.093 -1.97881 -0.380202 0
M  V30 4435 O 407.149 -2.26719 -1.11151 0
M  V30 4436 C 408.462 -2.13099 2.12154 0
M  V30 4437 C 410.01 -2.26404 2.16126 0
M  V30 4438 C 410.485 -3.14402 3.33039 0
M  V30 4439 N 411.976 -3.21991 3.32981 0
M  V30 4440 C 412.711 -3.90272 4.20089 0
M  V30 4441 N 412.207 -4.60777 5.17355 0
M  V30 4442 N 414 -3.8668 4.07964 0
M  V30 4443 H 406.151 -0.561665 2.04839 0
M  V30 4444 H 408.414 -0.310438 0.89573 0
M  V30 4445 H 408.12 -1.69422 3.08203 0
M  V30 4446 H 407.994 -3.13813 2.09287 0
M  V30 4447 H 410.381 -2.69311 1.20647 0
M  V30 4448 H 410.462 -1.25237 2.23045 0
M  V30 4449 H 410.106 -2.72204 4.28798 0
M  V30 4450 H 410.036 -4.1563 3.23356 0
M  V30 4451 H 412.527 -2.71778 2.62574 0
M  V30 4452 H 412.84 -5.10513 5.80169 0
M  V30 4453 H 411.185 -4.5964 5.21302 0
M  V30 4454 H 414.376 -3.30739 3.31254 0
M  V30 4455 H 414.549 -4.39621 4.76064 0
M  V30 4456 N 407.956 -0.998596 -1.21925 0
M  V30 4457 C 409.181 -0.696015 -1.95372 0
M  V30 4458 C 409.606 0.733826 -1.73195 0
M  V30 4459 O 408.964 1.50242 -1.01474 0
M  V30 4460 C 409.012 -1.01466 -3.4603 0
M  V30 4461 O 408.116 -0.116415 -4.12236 0
M  V30 4462 H 407.457 -0.259938 -0.611006 0
M  V30 4463 H 409.987 -1.33711 -1.54863 0
M  V30 4464 H 409.997 -0.958855 -3.96573 0
M  V30 4465 H 408.672 -2.05653 -3.61497 0
M  V30 4466 H 407.249 -0.228193 -3.72201 0
M  V30 4467 N 409.434 1.37368 -0.772513 0
M  V30 4468 C 410.366 2.28899 -0.117502 0
M  V30 4469 C 411.379 1.4867 0.663405 0
M  V30 4470 O 412.568 1.71314 0.501372 0
M  V30 4471 C 409.668 3.2788 0.857192 0
M  V30 4472 C 408.841 4.37207 0.129938 0
M  V30 4473 C 407.9 5.16257 1.01811 0
M  V30 4474 O 406.926 5.67159 0.481601 0
M  V30 4475 N 408.128 5.31058 2.3443 0
M  V30 4476 H 410.893 2.85752 -0.903662 0
M  V30 4477 H 408.454 1.49353 -0.62493 0
M  V30 4478 H 410.446 3.77647 1.45482 0
M  V30 4479 H 409.016 2.7179 1.54432 0
M  V30 4480 H 408.236 3.88827 -0.648605 0
M  V30 4481 H 409.524 5.07434 -0.372559 0
M  V30 4482 H 408.922 4.91287 2.80452 0
M  V30 4483 H 407.479 5.84131 2.89197 0
M  V30 4484 N 410.912 0.523116 1.48665 0
M  V30 4485 C 411.875 -0.232592 2.28017 0
M  V30 4486 C 412.875 -0.874021 1.34972 0
M  V30 4487 O 414.065 -0.735132 1.57929 0
M  V30 4488 C 411.197 -1.33586 3.13636 0
M  V30 4489 H 412.39 0.464008 2.96289 0
M  V30 4490 H 409.943 0.278816 1.53793 0
M  V30 4491 H 410.678 -2.06593 2.4998 0
M  V30 4492 H 410.463 -0.881125 3.82071 0
M  V30 4493 H 411.953 -1.86759 3.73511 0
M  V30 4494 N 412.39 -1.55475 0.257931 0
M  V30 4495 C 413.639 -1.98383 -0.364275 0
M  V30 4496 C 413.952 -1.14952 -1.58258 0
M  V30 4497 O 415.158 -1.47924 -2.27664 0
M  V30 4498 C 413.614 -3.53037 -0.699479 0
M  V30 4499 C 413.222 -4.45223 0.498046 0
M  V30 4500 C 414.966 -4.04575 -1.28526 0
M  V30 4501 C 412.873 -5.91238 0.138383 0
M  V30 4502 H 411.803 -0.740911 -0.13988 0
M  V30 4503 H 414.454 -1.79936 0.359883 0
M  V30 4504 H 412.836 -3.6722 -1.48207 0
M  V30 4505 H 414.01 -4.42803 1.27522 0
M  V30 4506 H 412.325 -4.04226 0.999503 0
M  V30 4507 H 414.922 -5.11196 -1.56788 0
M  V30 4508 H 415.265 -3.5258 -2.21344 0
M  V30 4509 H 415.798 -3.93762 -0.565337 0
M  V30 4510 H 412.537 -6.47294 1.03398 0
M  V30 4511 H 412.057 -5.96768 -0.602374 0
M  V30 4512 H 413.736 -6.46413 -0.27553 0
M  V30 4513 N 413.868 0.0150385 -1.57593 0
M  V30 4514 C 415.096 0.714395 -1.94175 0
M  V30 4515 C 415.511 1.68135 -0.858841 0
M  V30 4516 O 414.868 1.81766 0.163567 0
M  V30 4517 C 414.919 1.45933 -3.30735 0
M  V30 4518 O 414.64 0.531167 -4.34868 0
M  V30 4519 C 416.141 2.25456 -3.81686 0
M  V30 4520 H 413.361 0.199923 -0.640525 0
M  V30 4521 H 415.905 -0.0316096 -2.04476 0
M  V30 4522 H 414.06 2.15709 -3.21789 0
M  V30 4523 H 414.474 1.05509 -5.13778 0
M  V30 4524 H 415.948 2.731 -4.79709 0
M  V30 4525 H 416.425 3.07485 -3.13607 0
M  V30 4526 H 417.031 1.60727 -3.9376 0
M  V30 4527 N 415.346 1.54954 0.287554 0
M  V30 4528 C 416.294 1.87606 1.37502 0
M  V30 4529 C 417.288 0.751001 1.51843 0
M  V30 4530 O 418.494 0.935169 1.53801 0
M  V30 4531 H 414.869 0.595231 0.459569 0
M  V30 4532 H 416.84 2.78477 1.07206 0
M  V30 4533 C 415.589 2.15183 2.73115 0
M  V30 4534 H 414.912 3.01234 2.62866 0
M  V30 4535 H 416.352 2.4196 3.48183 0
M  V30 4536 C 414.811 0.954686 3.2309 0
M  V30 4537 O 415.341 0.181949 4.01288 0
M  V30 4538 N 413.547 0.756368 2.80584 0
M  V30 4539 H 413.094 1.38643 2.17108 0
M  V30 4540 H 413.052 -0.0430391 3.14371 0
M  V30 4541 N 416.824 -0.551391 1.4764 0
M  V30 4542 C 418.064 -1.31901 1.56145 0
M  V30 4543 C 418.428 -1.90724 0.221013 0
M  V30 4544 O 419.629 -2.6819 0.180945 0
M  V30 4545 C 417.9 -2.39517 2.65267 0
M  V30 4546 S 419.459 -3.26289 2.93395 0
M  V30 4547 H 416.277 -0.448965 0.551318 0
M  V30 4548 H 418.879 -0.630599 1.85051 0
M  V30 4549 H 417.583 -1.94747 3.6125 0
M  V30 4550 H 417.114 -3.13092 2.38195 0
M  V30 4551 H 419.129 -4.39122 2.31055 0
M  V30 4552 N 418.302 -1.35869 -0.798587 0
M  V30 4553 C 419.549 -1.29588 -1.55606 0
M  V30 4554 C 419.877 0.127456 -1.94082 0
M  V30 4555 O 419.132 1.09461 -1.62225 0
M  V30 4556 C 419.431 -2.1556 -2.85077 0
M  V30 4557 C 419.097 -3.6424 -2.65781 0
M  V30 4558 C 417.759 -4.04766 -2.60227 0
M  V30 4559 C 420.111 -4.58547 -2.47758 0
M  V30 4560 C 417.439 -5.37753 -2.34603 0
M  V30 4561 C 419.791 -5.91742 -2.23662 0
M  V30 4562 C 418.455 -6.31402 -2.16534 0
M  V30 4563 H 417.725 -0.474197 -0.569402 0
M  V30 4564 H 420.372 -1.67839 -0.922086 0
M  V30 4565 H 418.677 -1.70216 -3.52893 0
M  V30 4566 H 420.374 -2.08031 -3.42818 0
M  V30 4567 H 416.964 -3.32086 -2.70956 0
M  V30 4568 H 421.148 -4.28117 -2.51056 0
M  V30 4569 H 416.404 -5.67474 -2.2756 0
M  V30 4570 H 420.578 -6.6439 -2.08708 0
M  V30 4571 H 418.205 -7.34381 -1.96441 0
M  V30 4572 N 419.78 1.02168 -1.19998 0
M  V30 4573 C 420.71 2.12488 -0.96804 0
M  V30 4574 C 421.691 1.69799 0.101185 0
M  V30 4575 O 422.876 1.94121 -0.0552993 0
M  V30 4576 C 420.006 3.43479 -0.513776 0
M  V30 4577 C 418.96 3.99884 -1.52566 0
M  V30 4578 C 418.286 5.26582 -0.928214 0
M  V30 4579 C 419.586 4.33861 -2.90795 0
M  V30 4580 H 421.28 2.32149 -1.89069 0
M  V30 4581 H 418.826 1.11564 -0.910468 0
M  V30 4582 H 420.779 4.20036 -0.338774 0
M  V30 4583 H 419.503 3.23561 0.444493 0
M  V30 4584 H 418.162 3.25429 -1.68794 0
M  V30 4585 H 417.81 5.02986 0.0378289 0
M  V30 4586 H 417.51 5.65284 -1.60397 0
M  V30 4587 H 419.034 6.05799 -0.764167 0
M  V30 4588 H 420.448 5.01327 -2.78109 0
M  V30 4589 H 418.845 4.83664 -3.55231 0
M  V30 4590 H 419.915 3.42848 -3.42904 0
M  V30 4591 N 421.258 1.00505 1.21394 0
M  V30 4592 C 422.168 0.574806 2.27449 0
M  V30 4593 C 423.184 -0.382206 1.6975 0
M  V30 4594 O 424.36 -0.246027 1.99892 0
M  V30 4595 C 421.425 -0.0917414 3.46579 0
M  V30 4596 C 420.486 0.909758 4.1955 0
M  V30 4597 C 419.719 0.274924 5.32991 0
M  V30 4598 O 419.942 -0.928254 5.62796 0
M  V30 4599 O 418.876 0.985877 5.93771 0
M  V30 4600 H 422.702 1.45744 2.66444 0
M  V30 4601 H 420.287 0.773923 1.27792 0
M  V30 4602 H 422.169 -0.464551 4.18832 0
M  V30 4603 H 420.844 -0.948755 3.09484 0
M  V30 4604 H 419.751 1.33372 3.49518 0
M  V30 4605 H 421.084 1.73636 4.60555 0
M  V30 4606 N 422.737 -1.36956 0.779787 0
M  V30 4607 C 424.153 -1.52817 0.460342 0
M  V30 4608 C 424.353 -1.7361 -1.02283 0
M  V30 4609 O 423.409 -1.76207 -1.80852 0
M  V30 4610 C 424.722 -2.71983 1.28241 0
M  V30 4611 C 426.27 -2.85849 1.27512 0
M  V30 4612 C 426.745 -4.08008 2.08072 0
M  V30 4613 N 428.236 -4.15135 2.05467 0
M  V30 4614 C 428.971 -5.08711 2.64577 0
M  V30 4615 N 428.467 -6.07792 3.32506 0
M  V30 4616 N 430.26 -5.01254 2.54363 0
M  V30 4617 H 422.411 -1.21713 1.74068 0
M  V30 4618 H 424.674 -0.593294 0.739396 0
M  V30 4619 H 424.38 -2.63109 2.33381 0
M  V30 4620 H 424.254 -3.65882 0.917088 0
M  V30 4621 H 426.641 -2.94189 0.231686 0
M  V30 4622 H 426.722 -1.92886 1.68014 0
M  V30 4623 H 426.366 -4.00429 3.12441 0
M  V30 4624 H 426.296 -5.001 1.64947 0
M  V30 4625 H 428.787 -3.44189 1.5602 0
M  V30 4626 H 429.1 -6.75739 3.74963 0
M  V30 4627 H 427.445 -6.08047 3.36606 0
M  V30 4628 H 430.636 -4.22795 2.00902 0
M  V30 4629 H 430.809 -5.73995 3.00722 0
M  V30 4630 N 424.215 -0.530993 -1.48385 0
M  V30 4631 C 425.462 0.0027373 -2.025 0
M  V30 4632 C 425.79 1.34186 -1.40799 0
M  V30 4633 O 425.045 1.88 -0.543544 0
M  V30 4634 C 425.344 0.172742 -3.56982 0
M  V30 4635 C 425.01 -1.09215 -4.37473 0
M  V30 4636 C 423.672 -1.43881 -4.59186 0
M  V30 4637 C 426.024 -1.93153 -4.84088 0
M  V30 4638 C 423.352 -2.62381 -5.2476 0
M  V30 4639 C 425.704 -3.10833 -5.50968 0
M  V30 4640 C 424.368 -3.45843 -5.70919 0
M  V30 4641 H 423.638 0.00100165 -0.740999 0
M  V30 4642 H 426.285 -0.697219 -1.78357 0
M  V30 4643 H 424.59 0.955473 -3.79971 0
M  V30 4644 H 426.287 0.600642 -3.96476 0
M  V30 4645 H 422.877 -0.812177 -4.20834 0
M  V30 4646 H 427.061 -1.67683 -4.67115 0
M  V30 4647 H 422.317 -2.89707 -5.38405 0
M  V30 4648 H 426.491 -3.7618 -5.86056 0
M  V30 4649 H 424.118 -4.37764 -6.21503 0
M  V30 4650 N 425.693 1.55336 -0.266172 0
M  V30 4651 C 426.656 2.20878 0.612001 0
M  V30 4652 C 427.656 1.18388 1.08816 0
M  V30 4653 O 428.846 1.4335 0.989774 0
M  V30 4654 C 425.978 2.86765 1.84332 0
M  V30 4655 H 427.171 2.99873 0.0398718 0
M  V30 4656 H 424.724 1.56291 -0.0167309 0
M  V30 4657 H 425.459 2.11759 2.45619 0
M  V30 4658 H 425.244 3.61862 1.5099 0
M  V30 4659 H 426.734 3.36867 2.46801 0
M  V30 4660 N 427.171 -0.0066808 1.57599 0
M  V30 4661 C 428.118 -1.00024 2.08 0
M  V30 4662 C 429.088 -1.34549 0.973943 0
M  V30 4663 O 430.273 -1.44502 1.24595 0
M  V30 4664 C 427.413 -2.2891 2.58252 0
M  V30 4665 C 426.526 -2.00346 3.82734 0
M  V30 4666 C 425.661 -3.23265 4.21513 0
M  V30 4667 C 424.7 -2.90357 5.3885 0
M  V30 4668 N 423.837 -4.05793 5.72954 0
M  V30 4669 H 428.677 -0.563499 2.92624 0
M  V30 4670 H 426.214 -0.266592 1.44664 0
M  V30 4671 H 428.172 -3.04247 2.85464 0
M  V30 4672 H 426.802 -2.70265 1.76512 0
M  V30 4673 H 425.854 -1.15406 3.62471 0
M  V30 4674 H 427.166 -1.72086 4.68175 0
M  V30 4675 H 426.32 -4.06953 4.49971 0
M  V30 4676 H 425.059 -3.54657 3.34768 0
M  V30 4677 H 424.064 -2.05075 5.10122 0
M  V30 4678 H 425.289 -2.60219 6.27266 0
M  V30 4679 H 423.235 -4.37094 4.89167 0
M  V30 4680 H 423.152 -3.81034 6.52954 0
M  V30 4681 H 424.42 -4.90289 6.06001 0
M  V30 4682 N 428.649 -1.55105 -0.279332 0
M  V30 4683 C 429.898 -1.74618 -1.00952 0
M  V30 4684 C 430.211 -0.551096 -1.87676 0
M  V30 4685 O 431.417 -0.628507 -2.64125 0
M  V30 4686 C 429.873 -3.09025 -1.84476 0
M  V30 4687 C 429.481 -4.36081 -1.0265 0
M  V30 4688 C 431.225 -3.37891 -2.56963 0
M  V30 4689 C 429.132 -5.6153 -1.85576 0
M  V30 4690 H 428.062 -0.650868 -0.38064 0
M  V30 4691 H 430.713 -1.81569 -0.265475 0
M  V30 4692 H 429.095 -2.96095 -2.62952 0
M  V30 4693 H 430.269 -4.59909 -0.286354 0
M  V30 4694 H 428.584 -4.14312 -0.416464 0
M  V30 4695 H 431.181 -4.28822 -3.19399 0
M  V30 4696 H 431.524 -2.57737 -3.26921 0
M  V30 4697 H 432.057 -3.5189 -1.85522 0
M  V30 4698 H 428.796 -6.44413 -1.2005 0
M  V30 4699 H 428.316 -5.41854 -2.57204 0
M  V30 4700 H 429.995 -5.99594 -2.43096 0
M  V30 4701 N 430.127 0.543554 -1.4793 0
M  V30 4702 C 431.06 1.66556 -1.55995 0
M  V30 4703 C 432.038 1.57315 -0.411205 0
M  V30 4704 O 433.222 1.7798 -0.620922 0
M  V30 4705 C 430.349 3.04883 -1.47527 0
M  V30 4706 C 429.395 3.32526 -2.67074 0
M  V30 4707 S 430.228 3.20282 -4.29162 0
M  V30 4708 C 431.384 4.61079 -4.23269 0
M  V30 4709 H 431.617 1.59462 -2.50917 0
M  V30 4710 H 429.15 0.725456 -1.36296 0
M  V30 4711 H 431.108 3.84665 -1.43328 0
M  V30 4712 H 429.769 3.09429 -0.539665 0
M  V30 4713 H 428.962 4.33403 -2.5725 0
M  V30 4714 H 428.564 2.60389 -2.68466 0
M  V30 4715 H 430.856 5.52318 -3.92365 0
M  V30 4716 H 431.799 4.75959 -5.24279 0
M  V30 4717 H 432.207 4.39766 -3.5393 0
M  V30 4718 N 431.605 1.3629 0.791371 0
M  V30 4719 C 432.835 1.33368 1.57786 0
M  V30 4720 C 433.243 -0.0875188 1.88997 0
M  V30 4721 O 432.586 -1.05427 1.50435 0
M  V30 4722 C 432.648 2.08802 2.92646 0
M  V30 4723 C 432.312 3.57903 2.84174 0
M  V30 4724 C 433.309 4.52191 2.56553 0
M  V30 4725 C 430.994 4.00762 3.02812 0
M  V30 4726 C 432.988 5.87315 2.47669 0
M  V30 4727 C 430.675 5.35977 2.93551 0
M  V30 4728 C 431.673 6.29066 2.66017 0
M  V30 4729 O 431.361 7.61798 2.56746 0
M  V30 4730 H 431.093 0.459166 0.496128 0
M  V30 4731 H 433.647 1.79952 0.990269 0
M  V30 4732 H 431.877 1.56878 3.53449 0
M  V30 4733 H 433.566 1.98762 3.53904 0
M  V30 4734 H 434.332 4.20393 2.41858 0
M  V30 4735 H 430.211 3.2868 3.2325 0
M  V30 4736 H 433.755 6.59943 2.26099 0
M  V30 4737 H 429.652 5.67384 3.07808 0
M  V30 4738 H 430.42 7.71898 2.72242 0
M  V30 4739 N 433.083 -1.0153 1.20538 0
M  V30 4740 C 434.494 -1.56598 1.01657 0
M  V30 4741 C 434.845 -1.91505 -0.426668 0
M  V30 4742 O 433.97 -1.72375 -1.30827 0
M  V30 4743 C 434.565 -2.84542 1.83905 0
M  V30 4744 C 433.124 -3.36133 1.69386 0
M  V30 4745 C 432.271 -2.09427 1.81757 0
M  V30 4746 H 435.222 -0.838974 1.34711 0
M  V30 4747 H 435.243 -3.56004 1.34319 0
M  V30 4748 H 434.755 -2.59105 2.8894 0
M  V30 4749 H 432.856 -3.66528 0.669933 0
M  V30 4750 H 432.969 -4.08248 2.50739 0
M  V30 4751 H 431.333 -2.21941 1.24957 0
M  V30 4752 H 432.116 -1.86414 2.88279 0
M  V30 4753 N 434.561 -1.01147 -1.20859 0
M  V30 4754 C 435.81 -0.693214 -1.89413 0
M  V30 4755 C 436.123 0.779969 -1.79376 0
M  V30 4756 O 437.329 1.21057 -2.43017 0
M  V30 4757 C 435.785 -1.18949 -3.39675 0
M  V30 4758 C 435.393 -2.68921 -3.58309 0
M  V30 4759 C 437.137 -0.94642 -4.13815 0
M  V30 4760 C 435.044 -3.12056 -5.0237 0
M  V30 4761 H 433.974 -0.255595 -0.709357 0
M  V30 4762 H 436.625 -1.22349 -1.36759 0
M  V30 4763 H 435.007 -0.587228 -3.91622 0
M  V30 4764 H 436.181 -3.34652 -3.16772 0
M  V30 4765 H 434.496 -2.91314 -2.97532 0
M  V30 4766 H 437.093 -1.24417 -5.20023 0
M  V30 4767 H 437.436 0.117219 -4.16135 0
M  V30 4768 H 437.969 -1.5118 -3.67953 0
M  V30 4769 H 434.708 -4.17674 -5.05202 0
M  V30 4770 H 434.228 -2.51041 -5.44737 0
M  V30 4771 H 435.907 -3.04403 -5.70918 0
M  V30 4772 N 436.039 1.36541 -0.78704 0
M  V30 4773 C 437.267 2.03561 -0.370199 0
M  V30 4774 C 437.682 1.59347 1.01263 0
M  V30 4775 O 437.039 0.781781 1.64907 0
M  V30 4776 C 437.09 3.59033 -0.421614 0
M  V30 4777 O 436.811 4.01634 -1.7499 0
M  V30 4778 C 438.312 4.433 0.00489763 0
M  V30 4779 H 435.532 0.653346 -0.152904 0
M  V30 4780 H 438.076 1.74566 -1.06522 0
M  V30 4781 H 436.231 3.86746 0.224971 0
M  V30 4782 H 436.645 4.96217 -1.69909 0
M  V30 4783 H 438.119 5.51939 -0.0822184 0
M  V30 4784 H 438.596 4.26285 1.05723 0
M  V30 4785 H 439.202 4.20843 -0.614085 0
M  V30 4786 N 437.518 0.538854 1.48102 0
M  V30 4787 C 438.448 -0.207654 2.32575 0
M  V30 4788 C 439.429 -0.926559 1.4265 0
M  V30 4789 O 440.614 -0.91061 1.71527 0
M  V30 4790 C 437.744 -1.24957 3.24042 0
M  V30 4791 C 436.698 -0.648263 4.23062 0
M  V30 4792 C 436.024 -1.79348 5.03725 0
M  V30 4793 C 437.324 0.385897 5.20872 0
M  V30 4794 H 439.018 0.497534 2.95237 0
M  V30 4795 H 436.564 0.240715 1.41974 0
M  V30 4796 H 438.517 -1.77983 3.81969 0
M  V30 4797 H 437.241 -1.98446 2.59397 0
M  V30 4798 H 435.9 -0.139452 3.66335 0
M  V30 4799 H 435.548 -2.51696 4.35498 0
M  V30 4800 H 435.248 -1.39702 5.70751 0
M  V30 4801 H 436.772 -2.32735 5.64506 0
M  V30 4802 H 438.186 -0.057607 5.73271 0
M  V30 4803 H 436.583 0.700227 5.96001 0
M  V30 4804 H 437.653 1.28848 4.67468 0
M  V30 4805 N 438.996 -1.55193 0.274407 0
M  V30 4806 C 440.236 -2.01488 -0.343778 0
M  V30 4807 C 440.6 -1.1586 -1.53103 0
M  V30 4808 O 441.801 -1.51732 -2.2188 0
M  V30 4809 C 440.072 -3.50134 -0.717021 0
M  V30 4810 S 441.631 -4.18417 -1.32184 0
M  V30 4811 H 438.449 -0.70291 -0.106948 0
M  V30 4812 H 441.051 -1.91446 0.396075 0
M  V30 4813 H 439.755 -4.10104 0.155947 0
M  V30 4814 H 439.286 -3.64159 -1.48835 0
M  V30 4815 H 441.301 -4.21984 -2.61044 0
M  V30 4816 N 440.474 -0.00167713 -1.576 0
M  V30 4817 C 441.404 0.988091 -2.11563 0
M  V30 4818 C 442.385 1.35736 -1.02517 0
M  V30 4819 O 443.57 1.44082 -1.30208 0
M  V30 4820 C 440.7 2.27941 -2.62031 0
M  V30 4821 C 439.654 2.0517 -3.75619 0
M  V30 4822 C 438.98 3.4033 -4.12407 0
M  V30 4823 C 440.28 1.41294 -5.02825 0
M  V30 4824 H 441.974 0.538771 -2.94513 0
M  V30 4825 H 439.52 0.257712 -1.41675 0
M  V30 4826 H 441.473 2.97539 -2.9841 0
M  V30 4827 H 440.197 2.74989 -1.76205 0
M  V30 4828 H 438.856 1.37998 -3.39635 0
M  V30 4829 H 438.504 3.85085 -3.23603 0
M  V30 4830 H 438.204 3.25909 -4.88935 0
M  V30 4831 H 439.728 4.1124 -4.51347 0
M  V30 4832 H 441.142 2.00851 -5.36965 0
M  V30 4833 H 439.539 1.37356 -5.84169 0
M  V30 4834 H 440.609 0.382362 -4.8339 0
M  V30 4835 N 441.952 1.55251 0.271103 0
M  V30 4836 C 442.915 1.87484 1.31842 0
M  V30 4837 C 443.915 0.749545 1.42262 0
M  V30 4838 O 445.105 1.01771 1.4138 0
M  V30 4839 C 442.237 2.0818 2.69951 0
M  V30 4840 H 443.43 2.81108 1.0449 0
M  V30 4841 H 440.983 1.47771 0.509258 0
M  V30 4842 H 441.718 1.16944 3.02481 0
M  V30 4843 H 441.503 2.90114 2.63774 0
M  V30 4844 H 442.993 2.34385 3.4562 0
M  V30 4845 N 443.43 -0.535701 1.48216 0
M  V30 4846 C 444.658 -1.31671 1.59594 0
M  V30 4847 C 445.073 -1.87083 0.254056 0
M  V30 4848 O 444.43 -1.66112 -0.755854 0
M  V30 4849 C 444.481 -2.47158 2.63809 0
M  V30 4850 O 444.202 -1.94032 3.92789 0
M  V30 4851 C 445.703 -3.39062 2.85573 0
M  V30 4852 H 442.923 -0.400623 0.538277 0
M  V30 4853 H 445.467 -0.646827 1.94001 0
M  V30 4854 H 443.622 -3.10043 2.32276 0
M  V30 4855 H 444.036 -2.69585 4.49916 0
M  V30 4856 H 445.51 -4.16459 3.62306 0
M  V30 4857 H 445.987 -3.93941 1.94184 0
M  V30 4858 H 446.593 -2.81975 3.18387 0
M  V30 4859 N 444.908 -1.36708 -0.784132 0
M  V30 4860 C 445.838 -1.34153 -1.91116 0
M  V30 4861 C 446.819 -0.212121 -1.68772 0
M  V30 4862 O 448.004 -0.410581 -1.8981 0
M  V30 4863 C 445.134 -1.13535 -3.28218 0
M  V30 4864 C 444.088 -2.23356 -3.65097 0
M  V30 4865 C 443.414 -1.87875 -5.00607 0
M  V30 4866 C 444.714 -3.65473 -3.73131 0
M  V30 4867 H 446.408 -2.28459 -1.93512 0
M  V30 4868 H 443.954 -1.09973 -0.929618 0
M  V30 4869 H 445.907 -1.10381 -4.06687 0
M  V30 4870 H 444.631 -0.156804 -3.26223 0
M  V30 4871 H 443.29 -2.25645 -2.88929 0
M  V30 4872 H 442.938 -0.885814 -4.95139 0
M  V30 4873 H 442.638 -2.61406 -5.26252 0
M  V30 4874 H 444.162 -1.86286 -5.81489 0
M  V30 4875 H 445.576 -3.65382 -4.41779 0
M  V30 4876 H 443.973 -4.37953 -4.10265 0
M  V30 4877 H 445.043 -3.99995 -2.74102 0
M  V30 4878 N 446.386 1.0089 -1.21074 0
M  V30 4879 C 447.334 2.11707 -0.963476 0
M  V30 4880 C 448.328 1.69172 0.0879032 0
M  V30 4881 O 449.534 1.79889 -0.0631415 0
M  V30 4882 H 445.909 0.692026 -0.294287 0
M  V30 4883 H 447.88 2.29743 -1.90422 0
M  V30 4884 C 446.629 3.43473 -0.540509 0
M  V30 4885 H 445.952 3.76634 -1.34114 0
M  V30 4886 H 447.392 4.22044 -0.406777 0
M  V30 4887 C 445.851 3.2849 0.748079 0
M  V30 4888 O 446.381 3.58883 1.8046 0
M  V30 4889 N 444.587 2.81715 0.713081 0
M  V30 4890 H 444.134 2.5718 -0.146973 0
M  V30 4891 H 444.092 2.72071 1.57558 0
M  V30 4892 N 447.864 1.01787 1.20321 0
M  V30 4893 C 449.104 0.716493 1.91431 0
M  V30 4894 C 449.468 -0.740352 1.77152 0
M  V30 4895 O 450.669 -1.1543 2.42754 0
M  V30 4896 C 448.94 1.14169 3.38674 0
M  V30 4897 S 450.499 0.962482 4.28114 0
M  V30 4898 H 447.317 0.261175 0.661293 0
M  V30 4899 H 449.919 1.30539 1.45533 0
M  V30 4900 H 448.623 2.19784 3.46588 0
M  V30 4901 H 448.154 0.545621 3.89598 0
M  V30 4902 H 450.169 -0.133253 4.96021 0
M  V30 4903 N 449.342 -1.36122 0.79427 0
M  V30 4904 C 450.582 -2.00942 0.374376 0
M  V30 4905 C 450.946 -1.61666 -1.03577 0
M  V30 4906 O 452.147 -2.19113 -1.55701 0
M  V30 4907 C 450.418 -3.53323 0.538327 0
M  V30 4908 S 451.977 -4.38311 0.20703 0
M  V30 4909 H 448.795 -0.696515 0.142785 0
M  V30 4910 H 451.397 -1.65929 1.03382 0
M  V30 4911 H 450.101 -3.79395 1.56484 0
M  V30 4912 H 449.632 -3.93162 -0.136882 0
M  V30 4913 H 451.647 -4.8623 -0.989695 0
M  V30 4914 N 450.82 -0.546701 -1.47814 0
M  V30 4915 C 452.067 -0.0187407 -2.02491 0
M  V30 4916 C 452.395 1.32685 -1.42215 0
M  V30 4917 O 451.65 1.87413 -0.563454 0
M  V30 4918 C 451.949 0.134869 -3.57145 0
M  V30 4919 C 451.615 -1.13849 -4.3629 0
M  V30 4920 C 450.277 -1.48743 -4.57634 0
M  V30 4921 C 452.629 -1.98277 -4.82012 0
M  V30 4922 C 449.957 -2.67932 -5.21948 0
M  V30 4923 C 452.309 -3.16659 -5.4764 0
M  V30 4924 C 450.973 -3.51879 -5.67219 0
M  V30 4925 H 450.243 -0.0068577 -0.740968 0
M  V30 4926 H 452.89 -0.716097 -1.77607 0
M  V30 4927 H 451.195 0.915118 -3.80963 0
M  V30 4928 H 452.892 0.558556 -3.97091 0
M  V30 4929 H 449.482 -0.856767 -4.19949 0
M  V30 4930 H 453.666 -1.72628 -4.6531 0
M  V30 4931 H 448.922 -2.95401 -5.35302 0
M  V30 4932 H 453.096 -3.82374 -5.82033 0
M  V30 4933 H 450.723 -4.44331 -6.16825 0
M  V30 4934 N 452.299 1.55045 -0.282633 0
M  V30 4935 C 453.576 1.9179 0.384166 0
M  V30 4936 C 453.956 1.20778 1.73136 0
M  V30 4937 O 453.304 0.33719 2.25998 0
M  V30 4938 C 453.514 3.45149 0.517014 0
M  V30 4939 C 454.862 4.17064 0.796427 0
M  V30 4940 O 455.886 3.51084 0.601535 0
M  V30 4941 O 454.745 5.33837 1.16962 0
M  V30 4942 H 451.839 0.799483 0.211558 0
M  V30 4943 H 454.385 1.66474 -0.32934 0
M  V30 4944 H 453.157 3.88922 -0.430772 0
M  V30 4945 H 452.78 3.76443 1.2797 0
M  V30 4946 N 453.777 0.010035 1.57597 0
M  V30 4947 C 455.188 -0.531426 1.78977 0
M  V30 4948 C 455.539 -1.73375 0.918454 0
M  V30 4949 O 454.664 -2.16047 0.123635 0
M  V30 4950 C 455.259 -0.97086 3.24592 0
M  V30 4951 C 453.818 -1.45756 3.47033 0
M  V30 4952 C 452.965 -0.413384 2.74201 0
M  V30 4953 H 455.916 0.236166 1.56933 0
M  V30 4954 H 455.937 -1.83633 3.33255 0
M  V30 4955 H 455.449 -0.0955893 3.87982 0
M  V30 4956 H 453.55 -2.35339 2.88871 0
M  V30 4957 H 453.663 -1.4781 4.55729 0
M  V30 4958 H 452.027 -0.877266 2.39115 0
M  V30 4959 H 452.81 0.453092 3.40297 0
M  V30 4960 N 455.255 -1.55392 -0.262866 0
M  V30 4961 C 456.502 -1.76476 -0.993109 0
M  V30 4962 C 456.83 -0.571479 -1.85915 0
M  V30 4963 O 456.085 0.445733 -1.90556 0
M  V30 4964 C 456.384 -3.02889 -1.89718 0
M  V30 4965 C 456.05 -4.34974 -1.18781 0
M  V30 4966 C 454.712 -4.7087 -0.991699 0
M  V30 4967 C 457.064 -5.16695 -0.683798 0
M  V30 4968 C 454.392 -5.86036 -0.279024 0
M  V30 4969 C 456.744 -6.32598 0.0153327 0
M  V30 4970 C 455.408 -6.67127 0.223062 0
M  V30 4971 H 454.678 -0.64577 -0.363404 0
M  V30 4972 H 457.325 -1.89664 -0.264525 0
M  V30 4973 H 455.63 -2.84644 -2.6923 0
M  V30 4974 H 457.327 -3.16399 -2.46359 0
M  V30 4975 H 453.917 -4.06765 -1.35058 0
M  V30 4976 H 458.101 -4.8943 -0.8229 0
M  V30 4977 H 453.357 -6.11306 -0.107456 0
M  V30 4978 H 457.531 -6.95171 0.413584 0
M  V30 4979 H 455.158 -7.56216 0.777265 0
M  V30 4980 N 456.733 0.527833 -1.48498 0
M  V30 4981 C 457.982 1.28003 -1.55878 0
M  V30 4982 C 458.295 1.9414 -0.238577 0
M  V30 4983 O 459.501 2.7083 -0.190643 0
M  V30 4984 C 457.957 2.32272 -2.74914 0
M  V30 4985 C 457.565 1.72196 -4.13585 0
M  V30 4986 C 459.309 3.08488 -2.91608 0
M  V30 4987 C 457.216 2.74417 -5.23879 0
M  V30 4988 H 456.146 0.481413 -0.580308 0
M  V30 4989 H 458.797 0.557195 -1.74836 0
M  V30 4990 H 457.179 3.07601 -2.49395 0
M  V30 4991 H 458.353 1.03041 -4.49132 0
M  V30 4992 H 456.668 1.08464 -4.02025 0
M  V30 4993 H 459.265 3.84879 -3.71177 0
M  V30 4994 H 459.608 3.64481 -2.01145 0
M  V30 4995 H 460.141 2.40274 -3.17038 0
M  V30 4996 H 456.88 2.23242 -6.16314 0
M  V30 4997 H 456.4 3.41893 -4.92818 0
M  V30 4998 H 458.079 3.37362 -5.52083 0
M  V30 4999 N 458.211 1.37122 0.776871 0
M  V30 5000 C 459.441 1.35034 1.56363 0
M  V30 5001 C 459.849 -0.0674681 1.8908 0
M  V30 5002 O 459.192 -1.03826 1.51545 0
M  V30 5003 C 459.254 2.11894 2.90415 0
M  V30 5004 C 458.918 3.60897 2.80362 0
M  V30 5005 C 459.915 4.54887 2.51742 0
M  V30 5006 C 457.6 4.03951 2.98545 0
M  V30 5007 C 459.594 5.89909 2.41426 0
M  V30 5008 C 457.281 5.3906 2.87849 0
M  V30 5009 C 458.279 6.31852 2.5933 0
M  V30 5010 O 457.967 7.64479 2.48651 0
M  V30 5011 H 457.699 0.464402 0.49123 0
M  V30 5012 H 460.253 1.80992 0.971127 0
M  V30 5013 H 458.483 1.60618 3.51765 0
M  V30 5014 H 460.172 2.02505 3.51776 0
M  V30 5015 H 460.938 4.22934 2.37385 0
M  V30 5016 H 456.817 3.3209 3.19746 0
M  V30 5017 H 460.361 6.62304 2.19086 0
M  V30 5018 H 456.258 5.70617 3.01773 0
M  V30 5019 H 457.026 7.74742 2.64039 0
M  V30 5020 N 459.689 -1.00246 1.21608 0
M  V30 5021 C 460.919 -1.77373 1.05935 0
M  V30 5022 C 461.327 -1.85059 -0.393686 0
M  V30 5023 O 460.67 -1.31289 -1.28487 0
M  V30 5024 C 460.732 -3.22705 1.58435 0
M  V30 5025 C 460.396 -3.38591 3.06929 0
M  V30 5026 C 461.393 -3.2667 4.04454 0
M  V30 5027 C 459.078 -3.6395 3.46187 0
M  V30 5028 C 461.072 -3.39877 5.39224 0
M  V30 5029 C 458.759 -3.768 4.81108 0
M  V30 5030 C 459.757 -3.6477 5.77436 0
M  V30 5031 O 459.445 -3.77206 7.09909 0
M  V30 5032 H 459.177 -0.56419 0.372378 0
M  V30 5033 H 461.731 -1.26971 1.61454 0
M  V30 5034 H 459.961 -3.74255 0.973147 0
M  V30 5035 H 461.65 -3.81515 1.38568 0
M  V30 5036 H 462.416 -3.06999 3.75468 0
M  V30 5037 H 458.295 -3.72395 2.71741 0
M  V30 5038 H 461.839 -3.30404 6.14393 0
M  V30 5039 H 457.736 -3.95975 5.09779 0
M  V30 5040 H 458.504 -3.94138 7.17355 0
M  V30 5041 N 461.167 -1.02423 -1.1978 0
M  V30 5042 C 462.414 -0.717988 -1.89344 0
M  V30 5043 C 462.742 0.753036 -1.79331 0
M  V30 5044 O 461.997 1.56355 -1.17692 0
M  V30 5045 C 462.296 -1.1088 -3.39765 0
M  V30 5046 C 461.962 -2.57731 -3.6998 0
M  V30 5047 C 460.624 -2.97854 -3.77937 0
M  V30 5048 C 462.976 -3.52763 -3.83677 0
M  V30 5049 C 460.304 -4.31931 -3.97054 0
M  V30 5050 C 462.656 -4.86538 -4.04306 0
M  V30 5051 C 461.32 -5.26356 -4.10494 0
M  V30 5052 H 460.59 -0.26273 -0.692859 0
M  V30 5053 H 463.237 -1.28623 -1.41875 0
M  V30 5054 H 461.542 -0.459094 -3.89101 0
M  V30 5055 H 463.239 -0.849432 -3.919 0
M  V30 5056 H 459.829 -2.25646 -3.64393 0
M  V30 5057 H 464.013 -3.2292 -3.76877 0
M  V30 5058 H 459.269 -4.62324 -4.00083 0
M  V30 5059 H 463.443 -5.60093 -4.13846 0
M  V30 5060 H 461.07 -6.3026 -4.2506 0
M  V30 5061 N 462.645 1.35699 -0.801477 0
M  V30 5062 C 463.873 2.03157 -0.391768 0
M  V30 5063 C 464.288 1.60412 0.995668 0
M  V30 5064 O 463.645 0.799228 1.64069 0
M  V30 5065 C 463.696 3.58566 -0.459671 0
M  V30 5066 O 463.417 3.99756 -1.7924 0
M  V30 5067 C 464.918 4.4328 -0.0421205 0
M  V30 5068 H 462.138 0.651688 -0.159825 0
M  V30 5069 H 464.682 1.73426 -1.08368 0
M  V30 5070 H 462.837 3.86963 0.183939 0
M  V30 5071 H 463.251 4.94387 -1.75162 0
M  V30 5072 H 464.725 5.51821 -0.140754 0
M  V30 5073 H 465.202 4.27383 1.01196 0
M  V30 5074 H 465.808 4.20168 -0.658687 0
M  V30 5075 N 464.123 0.554532 1.47522 0
M  V30 5076 C 465.053 -0.182974 2.32782 0
M  V30 5077 C 466.034 -0.911377 1.43624 0
M  V30 5078 O 467.219 -0.892366 1.72483 0
M  V30 5079 C 464.349 -1.21513 3.25349 0
M  V30 5080 C 463.303 -0.603355 4.23726 0
M  V30 5081 C 462.629 -1.73995 5.05598 0
M  V30 5082 C 463.929 0.441121 5.20434 0
M  V30 5083 H 465.623 0.52882 2.94693 0
M  V30 5084 H 463.169 0.255759 1.41711 0
M  V30 5085 H 465.122 -1.73922 3.83835 0
M  V30 5086 H 463.846 -1.95683 2.61487 0
M  V30 5087 H 462.505 -0.10059 3.66462 0
M  V30 5088 H 462.153 -2.47063 4.38143 0
M  V30 5089 H 461.853 -1.3364 5.72201 0
M  V30 5090 H 463.377 -2.26735 5.66942 0
M  V30 5091 H 464.791 0.00319931 5.733 0
M  V30 5092 H 463.188 0.763402 5.95224 0
M  V30 5093 H 464.258 1.33799 4.66075 0
M  V30 5094 N 465.601 -1.54893 0.290851 0
M  V30 5095 C 466.511 -2.26812 -0.59945 0
M  V30 5096 C 467.527 -1.29963 -1.15696 0
M  V30 5097 O 468.703 -1.62928 -1.18391 0
M  V30 5098 C 465.768 -2.98716 -1.75982 0
M  V30 5099 C 464.829 -4.1108 -1.2374 0
M  V30 5100 C 464.062 -4.79546 -2.34246 0
M  V30 5101 O 464.285 -4.47309 -3.53936 0
M  V30 5102 O 463.219 -5.67165 -2.01512 0
M  V30 5103 H 467.045 -3.03696 -0.0163561 0
M  V30 5104 H 464.63 -1.49289 0.0576755 0
M  V30 5105 H 466.512 -3.43851 -2.43607 0
M  V30 5106 H 465.187 -2.24737 -2.3297 0
M  V30 5107 H 464.094 -3.70367 -0.527163 0
M  V30 5108 H 465.427 -4.87007 -0.71307 0
M  V30 5109 N 467.08 -0.0183926 -1.57589 0
M  V30 5110 C 468.305 0.676634 -1.96052 0
M  V30 5111 C 468.73 1.6548 -0.894307 0
M  V30 5112 O 468.088 1.80712 0.145849 0
M  V30 5113 C 468.136 1.36872 -3.33614 0
M  V30 5114 O 467.24 2.48372 -3.29219 0
M  V30 5115 H 466.581 0.1786 -0.63953 0
M  V30 5116 H 469.111 -0.077056 -2.04455 0
M  V30 5117 H 469.121 1.72797 -3.69601 0
M  V30 5118 H 467.796 0.651636 -4.10763 0
M  V30 5119 H 466.373 2.14639 -3.04934 0
M  V30 5120 N 468.558 1.5553 0.254621 0
M  V30 5121 C 469.805 1.77 0.983736 0
M  V30 5122 C 470.133 0.58133 1.85609 0
M  V30 5123 O 469.388 -0.435621 1.9079 0
M  V30 5124 C 469.687 3.03891 1.88109 0
M  V30 5125 C 469.353 4.35597 1.16472 0
M  V30 5126 C 468.015 4.7139 0.966714 0
M  V30 5127 C 470.367 5.1705 0.656387 0
M  V30 5128 C 467.695 5.86176 0.247942 0
M  V30 5129 C 470.047 6.32581 -0.0488807 0
M  V30 5130 C 468.711 6.67 -0.258438 0
M  V30 5131 H 467.981 0.647688 0.359974 0
M  V30 5132 H 470.628 1.89802 0.254463 0
M  V30 5133 H 468.933 2.86068 2.67717 0
M  V30 5134 H 470.63 3.17701 2.44677 0
M  V30 5135 H 467.22 4.07475 1.32899 0
M  V30 5136 H 471.404 4.8986 0.796933 0
M  V30 5137 H 466.66 6.11354 0.075035 0
M  V30 5138 H 470.834 6.94942 -0.450444 0
M  V30 5139 H 468.461 7.55793 -0.817358 0
M  V30 5140 N 470.036 -0.519951 1.48776 0
M  V30 5141 C 470.968 -1.63973 1.60142 0
M  V30 5142 C 471.981 -1.55404 0.485117 0
M  V30 5143 O 473.17 -1.61682 0.756391 0
M  V30 5144 C 470.27 -3.02676 1.52449 0
M  V30 5145 C 469.443 -3.36624 2.79291 0
M  V30 5146 C 468.502 -4.54652 2.64912 0
M  V30 5147 O 467.528 -4.57374 3.38818 0
M  V30 5148 N 468.73 -5.53432 1.75195 0
M  V30 5149 H 471.495 -1.54656 2.56713 0
M  V30 5150 H 469.056 -0.707439 1.45626 0
M  V30 5151 H 471.048 -3.79525 1.4051 0
M  V30 5152 H 469.618 -3.06018 0.638125 0
M  V30 5153 H 468.838 -2.48855 3.0572 0
M  V30 5154 H 470.126 -3.56094 3.6342 0
M  V30 5155 H 469.524 -5.54018 1.14371 0
M  V30 5156 H 468.081 -6.29459 1.69189 0
M  V30 5157 N 471.514 -1.37532 -0.769588 0
M  V30 5158 C 472.461 -1.3347 -1.88293 0
M  V30 5159 C 473.431 -0.199891 -1.64893 0
M  V30 5160 O 474.616 -0.389594 -1.8678 0
M  V30 5161 C 471.756 -1.14968 -3.25387 0
M  V30 5162 C 470.869 -2.37698 -3.60727 0
M  V30 5163 C 470.004 -2.12051 -4.8704 0
M  V30 5164 C 469.043 -3.30636 -5.15117 0
M  V30 5165 N 468.18 -3.04527 -6.3262 0
M  V30 5166 H 473.02 -2.28658 -1.911 0
M  V30 5167 H 470.557 -1.13622 -0.934257 0
M  V30 5168 H 472.515 -1.02261 -4.04473 0
M  V30 5169 H 471.145 -0.234263 -3.21949 0
M  V30 5170 H 470.197 -2.61137 -2.76608 0
M  V30 5171 H 471.509 -3.26131 -3.77413 0
M  V30 5172 H 470.663 -1.96388 -5.74035 0
M  V30 5173 H 469.402 -1.20959 -4.72462 0
M  V30 5174 H 468.407 -3.46836 -4.26597 0
M  V30 5175 H 469.632 -4.22582 -5.31603 0
M  V30 5176 H 467.578 -2.16067 -6.19396 0
M  V30 5177 H 467.495 -3.86503 -6.49732 0
M  V30 5178 H 468.763 -2.92485 -7.22546 0
M  V30 5179 N 472.992 0.995999 -1.22138 0
M  V30 5180 C 474.217 1.77601 -1.0711 0
M  V30 5181 C 474.642 1.84339 0.374264 0
M  V30 5182 O 474 1.29359 1.27028 0
M  V30 5183 C 474.048 3.18897 -1.68336 0
M  V30 5184 O 473.152 4.01663 -0.934928 0
M  V30 5185 H 472.493 0.547011 -0.376397 0
M  V30 5186 H 475.023 1.25137 -1.6187 0
M  V30 5187 H 475.033 3.69539 -1.72931 0
M  V30 5188 H 473.708 3.13308 -2.73516 0
M  V30 5189 H 472.285 3.60204 -0.964751 0
M  V30 5190 N 474.47 1.03057 1.19235 0
M  V30 5191 C 475.717 0.728019 1.88961 0
M  V30 5192 C 476.045 -0.743515 1.79728 0
M  V30 5193 O 475.3 -1.55729 1.1852 0
M  V30 5194 C 475.599 1.1268 3.39172 0
M  V30 5195 C 475.265 2.5969 3.68608 0
M  V30 5196 C 473.927 2.99854 3.76352 0
M  V30 5197 C 476.279 3.54793 3.81801 0
M  V30 5198 C 473.607 4.34031 3.94758 0
M  V30 5199 C 475.959 4.88675 4.0172 0
M  V30 5200 C 474.623 5.28526 4.07697 0
M  V30 5201 H 473.893 0.266401 0.691456 0
M  V30 5202 H 476.54 1.29373 1.41191 0
M  V30 5203 H 474.845 0.479722 3.88852 0
M  V30 5204 H 476.542 0.870203 3.91444 0
M  V30 5205 H 473.132 2.27575 3.63191 0
M  V30 5206 H 477.316 3.24914 3.7516 0
M  V30 5207 H 472.572 4.6444 3.97625 0
M  V30 5208 H 476.746 5.6228 4.1087 0
M  V30 5209 H 474.373 6.32506 4.21712 0
M  V30 5210 N 475.948 -1.35272 0.808662 0
M  V30 5211 C 477.178 -2.02652 0.401953 0
M  V30 5212 C 477.586 -1.6108 -0.992462 0
M  V30 5213 O 476.929 -0.804984 -1.65123 0
M  V30 5214 C 476.991 -3.57174 0.408246 0
M  V30 5215 C 476.655 -4.22019 1.75353 0
M  V30 5216 C 477.652 -4.43552 2.71215 0
M  V30 5217 C 475.337 -4.59093 2.03811 0
M  V30 5218 C 477.331 -5.01264 3.93717 0
M  V30 5219 C 475.018 -5.16519 3.26576 0
M  V30 5220 C 476.016 -5.37546 4.21347 0
M  V30 5221 O 475.704 -5.93761 5.41944 0
M  V30 5222 H 475.436 -0.656495 0.161216 0
M  V30 5223 H 477.99 -1.73829 1.0942 0
M  V30 5224 H 476.22 -3.85197 -0.340608 0
M  V30 5225 H 477.909 -4.05893 0.0235623 0
M  V30 5226 H 478.675 -4.15288 2.50522 0
M  V30 5227 H 474.554 -4.42039 1.30854 0
M  V30 5228 H 478.098 -5.17592 4.67701 0
M  V30 5229 H 473.995 -5.4421 3.47139 0
M  V30 5230 H 474.763 -6.1221 5.43269 0
M  V30 5231 N 477.426 -0.562348 -1.47226 0
M  V30 5232 C 478.675 -0.038041 -2.01664 0
M  V30 5233 C 478.988 1.32199 -1.44162 0
M  V30 5234 O 480.194 1.9365 -1.90294 0
M  V30 5235 C 478.65 -0.0174958 -3.59896 0
M  V30 5236 C 478.258 -1.3746 -4.2639 0
M  V30 5237 C 480.002 0.453934 -4.22066 0
M  V30 5238 C 477.909 -1.31289 -5.76643 0
M  V30 5239 H 476.839 -0.0104511 -0.753928 0
M  V30 5240 H 479.49 -0.710966 -1.69167 0
M  V30 5241 H 477.872 0.721182 -3.89378 0
M  V30 5242 H 479.046 -2.1314 -4.08544 0
M  V30 5243 H 477.361 -1.78438 -3.7623 0
M  V30 5244 H 479.958 0.518584 -5.32179 0
M  V30 5245 H 480.301 1.46706 -3.89594 0
M  V30 5246 H 480.834 -0.230044 -3.97134 0
M  V30 5247 H 477.573 -2.30217 -6.13743 0
M  V30 5248 H 477.093 -0.597973 -5.96812 0
M  V30 5249 H 478.772 -1.01713 -6.38955 0
M  V30 5250 N 478.904 1.54736 -0.299062 0
M  V30 5251 C 479.852 2.24897 0.593658 0
M  V30 5252 C 480.846 1.25429 1.13859 0
M  V30 5253 O 482.052 1.43286 1.08945 0
M  V30 5254 H 478.427 0.72207 0.210046 0
M  V30 5255 H 480.398 2.98393 -0.0206421 0
M  V30 5256 C 479.147 3.00159 1.75499 0
M  V30 5257 H 478.47 3.76501 1.34489 0
M  V30 5258 H 479.91 3.52535 2.35574 0
M  V30 5259 C 478.369 2.07015 2.65794 0
M  V30 5260 O 478.899 1.63692 3.66835 0
M  V30 5261 N 477.105 1.73012 2.33485 0
M  V30 5262 H 476.652 2.08439 1.51364 0
M  V30 5263 H 476.61 1.10965 2.94167 0
M  V30 5264 N 480.382 0.0267497 1.57577 0
M  V30 5265 C 481.345 -0.940916 2.08996 0
M  V30 5266 C 482.345 -1.25561 1.00455 0
M  V30 5267 O 483.535 -1.19634 1.26623 0
M  V30 5268 C 480.667 -2.25814 2.55384 0
M  V30 5269 H 481.86 -0.495628 2.95776 0
M  V30 5270 H 479.413 -0.221241 1.54726 0
M  V30 5271 H 480.148 -2.74976 1.71926 0
M  V30 5272 H 479.933 -2.04285 3.34679 0
M  V30 5273 H 481.423 -2.95178 2.95398 0
M  V30 5274 N 481.861 -1.55662 -0.24637 0
M  V30 5275 C 482.811 -1.86753 -1.30795 0
M  V30 5276 C 483.795 -0.728445 -1.43466 0
M  V30 5277 O 484.987 -0.99038 -1.46699 0
M  V30 5278 C 482.116 -2.16618 -2.66329 0
M  V30 5279 C 481.202 -3.36855 -2.57661 0
M  V30 5280 N 481.593 -4.56111 -2.18624 0
M  V30 5281 C 479.891 -3.39976 -2.88673 0
M  V30 5282 C 480.592 -5.38247 -2.20601 0
M  V30 5283 N 479.568 -4.77322 -2.60124 0
M  V30 5284 H 483.37 -2.76486 -0.996642 0
M  V30 5285 H 480.884 -1.55896 -0.454994 0
M  V30 5286 H 482.881 -2.37057 -3.42942 0
M  V30 5287 H 481.541 -1.28185 -2.98327 0
M  V30 5288 H 482.552 -4.81726 -1.9016 0
M  V30 5289 H 479.229 -2.61815 -3.25206 0
M  V30 5290 H 480.619 -6.43657 -1.92756 0
M  V30 5291 N 483.339 0.512053 -1.4905 0
M  V30 5292 C 484.588 1.26343 -1.57227 0
M  V30 5293 C 484.901 1.93876 -0.259155 0
M  V30 5294 O 486.107 2.70612 -0.219358 0
M  V30 5295 C 484.563 2.29343 -2.77362 0
M  V30 5296 C 484.171 1.67799 -4.15388 0
M  V30 5297 C 485.915 3.05378 -2.94864 0
M  V30 5298 C 483.822 2.68845 -5.2676 0
M  V30 5299 H 482.752 0.475231 -0.585382 0
M  V30 5300 H 485.403 0.53862 -1.75417 0
M  V30 5301 H 483.785 3.04938 -2.52643 0
M  V30 5302 H 484.959 0.982715 -4.50199 0
M  V30 5303 H 483.274 1.04194 -4.03153 0
M  V30 5304 H 485.871 3.80921 -3.75238 0
M  V30 5305 H 486.214 3.62327 -2.05 0
M  V30 5306 H 486.747 2.36898 -3.19569 0
M  V30 5307 H 483.486 2.16692 -6.18647 0
M  V30 5308 H 483.006 3.36647 -4.96416 0
M  V30 5309 H 484.685 3.31487 -5.5563 0
M  V30 5310 N 484.817 1.37938 0.762283 0
M  V30 5311 C 486.233 1.18945 1.06415 0
M  V30 5312 C 486.433 0.0321163 2.01474 0
M  V30 5313 O 485.489 -0.624844 2.44647 0
M  V30 5314 C 486.802 2.51218 1.65258 0
M  V30 5315 C 488.35 2.57824 1.7747 0
M  V30 5316 C 488.825 3.90251 2.39725 0
M  V30 5317 N 490.316 3.91744 2.47166 0
M  V30 5318 C 491.051 4.90966 2.96209 0
M  V30 5319 N 490.547 6.00585 3.45354 0
M  V30 5320 N 492.34 4.78363 2.9517 0
M  V30 5321 H 484.491 2.11994 0.131301 0
M  V30 5322 H 486.754 0.940262 0.120879 0
M  V30 5323 H 486.46 3.36317 1.02878 0
M  V30 5324 H 486.334 2.68989 2.64433 0
M  V30 5325 H 488.721 1.73126 2.3898 0
M  V30 5326 H 488.802 2.43928 0.770241 0
M  V30 5327 H 488.446 4.75368 1.78852 0
M  V30 5328 H 488.376 4.01454 3.40796 0
M  V30 5329 H 490.867 3.12563 2.12397 0
M  V30 5330 H 491.18 6.72236 3.81207 0
M  V30 5331 H 489.525 6.04217 3.43434 0
M  V30 5332 H 492.716 3.91841 2.56082 0
M  V30 5333 H 492.889 5.55843 3.33081 0
M  V30 5334 N 486.295 -0.989507 1.22664 0
M  V30 5335 C 487.228 -2.07805 0.942985 0
M  V30 5336 C 488.206 -1.6219 -0.115356 0
M  V30 5337 O 489.39 -1.88492 0.0169565 0
M  V30 5338 C 486.517 -3.361 0.418898 0
M  V30 5339 C 485.563 -4.00643 1.46244 0
M  V30 5340 S 486.396 -4.41059 3.03689 0
M  V30 5341 C 487.552 -5.7252 2.52927 0
M  V30 5342 H 487.785 -2.31547 1.86476 0
M  V30 5343 H 485.318 -1.12446 1.05808 0
M  V30 5344 H 487.276 -4.10315 0.123114 0
M  V30 5345 H 485.937 -3.10383 -0.481818 0
M  V30 5346 H 485.13 -4.93033 1.04569 0
M  V30 5347 H 484.732 -3.32767 1.7071 0
M  V30 5348 H 487.024 -6.49017 1.94379 0
M  V30 5349 H 487.967 -6.19026 3.4382 0
M  V30 5350 H 488.375 -5.30083 1.94094 0
M  V30 5351 N 487.773 -1.03688 -1.18687 0
M  V30 5352 C 488.683 -0.634908 -2.25845 0
M  V30 5353 C 489.699 0.337065 -1.70704 0
M  V30 5354 O 490.875 0.192943 -2.00474 0
M  V30 5355 C 487.94 -0.000180054 -3.467 0
M  V30 5356 C 487.001 -1.02067 -4.1699 0
M  V30 5357 C 486.234 -0.41614 -5.32075 0
M  V30 5358 O 486.457 0.778712 -5.65059 0
M  V30 5359 O 485.391 -1.14296 -5.90948 0
M  V30 5360 H 489.217 -1.52757 -2.62486 0
M  V30 5361 H 486.802 -0.807533 -1.25695 0
M  V30 5362 H 488.684 0.353342 -4.19916 0
M  V30 5363 H 487.359 0.866367 -3.11891 0
M  V30 5364 H 486.266 -1.42592 -3.45859 0
M  V30 5365 H 487.599 -1.85786 -4.5579 0
M  V30 5366 N 489.251 1.34841 -0.815825 0
M  V30 5367 C 490.476 2.03261 -0.41226 0
M  V30 5368 C 490.901 1.61055 0.971751 0
M  V30 5369 O 490.259 0.7917 1.63101 0
M  V30 5370 C 490.307 3.56914 -0.514289 0
M  V30 5371 O 489.411 4.09728 0.468675 0
M  V30 5372 H 488.752 0.641664 -0.170771 0
M  V30 5373 H 491.282 1.72241 -1.10427 0
M  V30 5374 H 491.292 4.06156 -0.387457 0
M  V30 5375 H 489.967 3.86982 -1.52375 0
M  V30 5376 H 488.544 3.71681 0.301316 0
M  V30 5377 N 490.729 0.570148 1.46925 0
M  V30 5378 C 491.659 -0.158274 2.32963 0
M  V30 5379 C 492.64 -0.896093 1.44583 0
M  V30 5380 O 493.825 -0.874022 1.7342 0
M  V30 5381 C 490.955 -1.18055 3.26619 0
M  V30 5382 C 489.909 -0.558379 4.24342 0
M  V30 5383 C 489.235 -1.68623 5.07415 0
M  V30 5384 C 490.535 0.496295 5.19937 0
M  V30 5385 H 492.229 0.560046 2.94115 0
M  V30 5386 H 489.775 0.270775 1.41431 0
M  V30 5387 H 491.728 -1.69841 3.85658 0
M  V30 5388 H 490.452 -1.92899 2.63548 0
M  V30 5389 H 489.111 -0.0617157 3.66548 0
M  V30 5390 H 488.759 -2.42402 4.40738 0
M  V30 5391 H 488.459 -1.27564 5.73586 0
M  V30 5392 H 489.983 -2.20709 5.69315 0
M  V30 5393 H 491.397 0.0640052 5.73264 0
M  V30 5394 H 489.794 0.82649 5.94381 0
M  V30 5395 H 490.864 1.38735 4.6463 0
M  V30 5396 N 492.207 -1.54576 0.307264 0
M  V30 5397 C 493.454 -2.00263 -0.300167 0
M  V30 5398 C 493.782 -1.19561 -1.53413 0
M  V30 5399 O 493.037 -0.261487 -1.93945 0
M  V30 5400 C 493.336 -3.50572 -0.695253 0
M  V30 5401 C 493.002 -4.48771 0.437679 0
M  V30 5402 C 491.664 -4.7534 0.748681 0
M  V30 5403 C 494.016 -5.0721 1.19949 0
M  V30 5404 C 491.344 -5.5761 1.8245 0
M  V30 5405 C 493.696 -5.90651 2.26527 0
M  V30 5406 C 492.36 -6.15528 2.58227 0
M  V30 5407 H 491.63 -0.732814 -0.109839 0
M  V30 5408 H 494.277 -1.86664 0.427661 0
M  V30 5409 H 492.582 -3.61814 -1.50326 0
M  V30 5410 H 494.279 -3.83352 -1.17653 0
M  V30 5411 H 490.869 -4.282 0.185187 0
M  V30 5412 H 495.053 -4.86679 0.972474 0
M  V30 5413 H 490.309 -5.75121 2.07476 0
M  V30 5414 H 494.483 -6.34957 2.86011 0
M  V30 5415 H 492.11 -6.79066 3.4172 0
M  V30 5416 N 493.685 -0.035106 -1.57561 0
M  V30 5417 C 494.632 0.94474 -2.10578 0
M  V30 5418 C 495.602 1.3192 -1.00927 0
M  V30 5419 O 496.787 1.41147 -1.28382 0
M  V30 5420 C 493.927 2.21982 -2.64231 0
M  V30 5421 C 493.04 1.90128 -3.87911 0
M  V30 5422 C 492.175 3.11975 -4.29936 0
M  V30 5423 C 491.214 2.75968 -5.46359 0
M  V30 5424 N 490.351 3.90459 -5.83512 0
M  V30 5425 H 495.191 0.485717 -2.94015 0
M  V30 5426 H 492.728 0.228143 -1.4532 0
M  V30 5427 H 494.686 2.96572 -2.9343 0
M  V30 5428 H 493.316 2.6549 -1.83616 0
M  V30 5429 H 492.368 1.05755 -3.65404 0
M  V30 5430 H 493.68 1.59613 -4.72573 0
M  V30 5431 H 492.834 3.9488 -4.60603 0
M  V30 5432 H 491.573 3.45657 -3.44053 0
M  V30 5433 H 490.578 1.91478 -5.1538 0
M  V30 5434 H 491.803 2.43497 -6.33945 0
M  V30 5435 H 489.749 4.23971 -5.00584 0
M  V30 5436 H 489.666 3.63588 -6.62827 0
M  V30 5437 H 490.934 4.7405 -6.18787 0
M  V30 5438 N 495.163 1.55791 0.238111 0
M  V30 5439 C 496.391 1.82098 0.982233 0
M  V30 5440 C 496.806 0.612025 1.78605 0
M  V30 5441 O 496.163 -0.419381 1.77616 0
M  V30 5442 C 496.214 3.0673 1.91309 0
M  V30 5443 O 495.935 4.2296 1.14179 0
M  V30 5444 C 497.436 3.45903 2.77248 0
M  V30 5445 H 494.656 0.605748 0.288635 0
M  V30 5446 H 497.2 2.02862 0.258341 0
M  V30 5447 H 495.355 2.87991 2.59114 0
M  V30 5448 H 495.769 4.93653 1.7722 0
M  V30 5449 H 497.243 4.36189 3.38295 0
M  V30 5450 H 497.72 2.66891 3.48806 0
M  V30 5451 H 498.326 3.67024 2.14881 0
M  V30 5452 N 496.642 -0.504142 1.49319 0
M  V30 5453 C 497.552 -1.63248 1.68486 0
M  V30 5454 C 498.568 -1.64488 0.567432 0
M  V30 5455 O 499.744 -1.82966 0.841749 0
M  V30 5456 C 496.809 -2.99627 1.74426 0
M  V30 5457 C 495.87 -3.09039 2.97982 0
M  V30 5458 C 495.103 -4.38913 3.0363 0
M  V30 5459 O 495.326 -5.27528 2.16958 0
M  V30 5460 O 494.26 -4.53231 3.96062 0
M  V30 5461 H 498.086 -1.50008 2.64067 0
M  V30 5462 H 495.671 -0.680086 1.33023 0
M  V30 5463 H 497.553 -3.80689 1.80705 0
M  V30 5464 H 496.228 -3.13136 0.820233 0
M  V30 5465 H 495.135 -2.27177 2.97223 0
M  V30 5466 H 496.468 -3.00456 3.89855 0
M  V30 5467 N 498.12 -1.38341 -0.754957 0
M  V30 5468 C 499.348 -1.37704 -1.54419 0
M  V30 5469 C 499.763 0.0335243 -1.8877 0
M  V30 5470 O 499.12 0.999773 -1.52679 0
M  V30 5471 C 499.171 -2.23136 -2.84416 0
M  V30 5472 O 498.892 -3.58697 -2.51531 0
M  V30 5473 C 500.393 -2.30664 -3.78562 0
M  V30 5474 H 497.613 -0.471061 -0.477852 0
M  V30 5475 H 500.157 -1.81902 -0.934446 0
M  V30 5476 H 498.312 -1.82403 -3.41772 0
M  V30 5477 H 498.726 -4.03665 -3.34896 0
M  V30 5478 H 500.2 -2.9473 -4.66732 0
M  V30 5479 H 500.677 -1.3199 -4.18898 0
M  V30 5480 H 501.283 -2.71781 -3.27131 0
M  V30 5481 N 499.598 0.982988 -1.23187 0
M  V30 5482 C 501.009 1.53847 -1.05773 0
M  V30 5483 C 501.36 1.92568 0.375744 0
M  V30 5484 O 500.485 1.75783 1.26211 0
M  V30 5485 C 501.08 2.79567 -1.91384 0
M  V30 5486 C 499.639 3.31524 -1.78238 0
M  V30 5487 C 498.786 2.04534 -1.87246 0
M  V30 5488 H 501.737 0.802962 -1.36888 0
M  V30 5489 H 501.758 3.52317 -1.43711 0
M  V30 5490 H 501.27 2.51353 -2.95708 0
M  V30 5491 H 499.371 3.64623 -0.766875 0
M  V30 5492 H 499.484 4.01457 -2.61475 0
M  V30 5493 H 497.848 2.1855 -1.30797 0
M  V30 5494 H 498.631 1.78706 -2.9312 0
M  V30 5495 N 501.076 1.04316 1.18135 0
M  V30 5496 C 502.006 0.657299 2.24058 0
M  V30 5497 C 502.987 -0.340678 1.66654 0
M  V30 5498 O 504.172 -0.220223 1.92947 0
M  V30 5499 C 501.302 0.0220715 3.47293 0
M  V30 5500 C 500.256 0.943857 4.17463 0
M  V30 5501 C 499.582 0.172973 5.3442 0
M  V30 5502 C 500.882 2.26409 4.70677 0
M  V30 5503 H 502.576 1.5428 2.56589 0
M  V30 5504 H 500.122 0.743263 1.23335 0
M  V30 5505 H 502.075 -0.259607 4.206 0
M  V30 5506 H 500.799 -0.898323 3.14003 0
M  V30 5507 H 499.458 1.20996 3.46057 0
M  V30 5508 H 499.106 -0.749907 4.97379 0
M  V30 5509 H 498.806 0.787098 5.82304 0
M  V30 5510 H 500.33 -0.101628 6.10515 0
M  V30 5511 H 501.744 2.04294 5.35665 0
M  V30 5512 H 500.141 2.8314 5.29105 0
M  V30 5513 H 501.211 2.90883 3.87962 0
M  V30 5514 N 502.554 -1.34406 0.822964 0
M  V30 5515 C 503.782 -2.02508 0.424039 0
M  V30 5516 C 504.197 -1.61975 -0.970022 0
M  V30 5517 O 503.554 -0.825228 -1.62777 0
M  V30 5518 C 503.605 -3.57789 0.516657 0
M  V30 5519 O 503.326 -3.96853 1.85577 0
M  V30 5520 C 504.827 -4.43157 0.112637 0
M  V30 5521 H 502.047 -0.649063 0.170173 0
M  V30 5522 H 504.591 -1.7168 1.11113 0
M  V30 5523 H 502.746 -3.87207 -0.122353 0
M  V30 5524 H 503.16 -4.91538 1.83005 0
M  V30 5525 H 504.634 -5.51527 0.228526 0
M  V30 5526 H 505.111 -4.28939 -0.943837 0
M  V30 5527 H 505.717 -4.19067 0.725449 0
M  V30 5528 N 504.032 -0.577932 -1.46621 0
M  V30 5529 C 505.26 -0.0671642 -2.06791 0
M  V30 5530 C 505.675 1.23571 -1.42743 0
M  V30 5531 O 505.032 1.74602 -0.531062 0
M  V30 5532 C 505.083 0.110357 -3.61332 0
M  V30 5533 O 504.804 -1.14095 -4.22982 0
M  V30 5534 C 506.305 0.656025 -4.38419 0
M  V30 5535 H 503.525 -0.0552732 -0.66872 0
M  V30 5536 H 506.069 -0.797242 -1.8832 0
M  V30 5537 H 504.224 0.790637 -3.79246 0
M  V30 5538 H 504.638 -0.951742 -5.15793 0
M  V30 5539 H 506.112 0.729438 -5.47159 0
M  V30 5540 H 506.589 1.67195 -4.06131 0
M  V30 5541 H 507.195 0.0107692 -4.25299 0
M  V30 5542 N 505.51 1.54411 -0.315457 0
M  V30 5543 C 506.457 2.24048 0.554166 0
M  V30 5544 C 507.427 1.2283 1.11812 0
M  V30 5545 O 508.612 1.51491 1.15997 0
M  V30 5546 C 505.752 2.99574 1.71316 0
M  V30 5547 C 504.865 4.15594 1.17922 0
M  V30 5548 C 504 4.78669 2.30324 0
M  V30 5549 C 503.039 5.86807 1.74137 0
M  V30 5550 N 502.176 6.43777 2.8017 0
M  V30 5551 H 507.016 2.97964 -0.0462602 0
M  V30 5552 H 504.553 1.47059 -0.0346009 0
M  V30 5553 H 506.511 3.41604 2.39505 0
M  V30 5554 H 505.141 2.28008 2.285 0
M  V30 5555 H 504.193 3.78404 0.389136 0
M  V30 5556 H 505.505 4.93459 0.728012 0
M  V30 5557 H 504.659 5.23626 3.06433 0
M  V30 5558 H 503.398 4.00168 2.78778 0
M  V30 5559 H 502.403 5.41261 0.965236 0
M  V30 5560 H 503.628 6.67201 1.2657 0
M  V30 5561 H 501.574 5.68153 3.2793 0
M  V30 5562 H 501.491 7.17031 2.39588 0
M  V30 5563 H 502.759 6.9339 3.56132 0
M  V30 5564 N 506.988 0.0434614 1.5754 0
M  V30 5565 C 508.399 -0.493343 1.80064 0
M  V30 5566 C 508.75 -1.71388 0.955023 0
M  V30 5567 O 507.875 -2.15736 0.169434 0
M  V30 5568 C 508.47 -0.90179 3.26578 0
M  V30 5569 C 507.029 -1.38362 3.50047 0
M  V30 5570 C 506.176 -0.355129 2.75017 0
M  V30 5571 H 509.127 0.2694 1.56397 0
M  V30 5572 H 509.148 -1.76523 3.37075 0
M  V30 5573 H 508.66 -0.013271 3.88098 0
M  V30 5574 H 506.761 -2.29159 2.93798 0
M  V30 5575 H 506.874 -1.3811 4.58762 0
M  V30 5576 H 505.238 -0.826348 2.40922 0
M  V30 5577 H 506.021 0.525172 3.39259 0
M  V30 5578 N 508.466 -1.55915 -0.229846 0
M  V30 5579 C 509.691 -1.8296 -0.976743 0
M  V30 5580 C 510.116 -0.622735 -1.77493 0
M  V30 5581 O 509.474 0.428431 -1.76165 0
M  V30 5582 C 509.522 -3.07916 -1.8767 0
M  V30 5583 O 508.626 -2.86028 -2.97088 0
M  V30 5584 H 507.967 -0.603453 -0.277021 0
M  V30 5585 H 510.497 -2.0312 -0.245669 0
M  V30 5586 H 510.507 -3.37802 -2.2881 0
M  V30 5587 H 509.182 -3.95389 -1.28996 0
M  V30 5588 H 507.759 -2.67355 -2.59954 0
M  V30 5589 N 509.944 0.496216 -1.49584 0
M  V30 5590 C 510.874 1.60576 -1.69521 0
M  V30 5591 C 511.855 1.61169 -0.543933 0
M  V30 5592 O 513.04 1.77834 -0.78031 0
M  V30 5593 C 510.17 2.99038 -1.76616 0
M  V30 5594 C 509.124 3.13312 -2.91581 0
M  V30 5595 C 508.45 4.53172 -2.83794 0
M  V30 5596 C 509.75 2.92886 -4.32452 0
M  V30 5597 H 511.444 1.44146 -2.62416 0
M  V30 5598 H 508.99 0.692024 -1.26282 0
M  V30 5599 H 510.943 3.76564 -1.8915 0
M  V30 5600 H 509.667 3.16568 -0.80324 0
M  V30 5601 H 508.326 2.38213 -2.78658 0
M  V30 5602 H 507.974 4.67585 -1.854 0
M  V30 5603 H 507.674 4.63662 -3.60958 0
M  V30 5604 H 509.198 5.32752 -2.98342 0
M  V30 5605 H 510.612 3.60178 -4.46032 0
M  V30 5606 H 509.009 3.14844 -5.10875 0
M  V30 5607 H 510.079 1.88966 -4.46565 0
M  V30 5608 N 511.423 1.38739 0.74761 0
M  V30 5609 C 512.834 1.31507 1.32524 0
M  V30 5610 C 513.185 -0.0263963 1.96182 0
M  V30 5611 O 512.31 -0.92849 1.95469 0
M  V30 5612 C 512.905 2.38162 2.40966 0
M  V30 5613 C 511.464 2.34489 2.94434 0
M  V30 5614 C 510.611 2.20712 1.67873 0
M  V30 5615 H 513.562 1.4901 0.546043 0
M  V30 5616 H 513.583 2.04222 3.21051 0
M  V30 5617 H 513.095 3.35783 1.94605 0
M  V30 5618 H 511.196 1.40467 3.45108 0
M  V30 5619 H 511.309 3.28861 3.48407 0
M  V30 5620 H 509.673 1.67667 1.91729 0
M  V30 5621 H 510.456 3.20285 1.23582 0
M  V30 5622 N 512.901 -0.976442 1.23707 0
M  V30 5623 C 513.864 -2.0511 1.02287 0
M  V30 5624 C 514.864 -1.60791 -0.0167195 0
M  V30 5625 O 516.054 -1.72761 0.223408 0
M  V30 5626 C 513.186 -3.36458 0.548507 0
M  V30 5627 H 514.379 -2.25545 1.9766 0
M  V30 5628 H 511.932 -1.15042 1.05806 0
M  V30 5629 H 512.667 -3.21713 -0.408818 0
M  V30 5630 H 512.452 -3.69967 1.29874 0
M  V30 5631 H 513.942 -4.15489 0.419406 0
M  V30 5632 N 514.379 -1.04941 -1.1758 0
M  V30 5633 C 515.628 -0.753124 -1.87112 0
M  V30 5634 C 515.941 0.722507 -1.81767 0
M  V30 5635 O 517.147 1.13265 -2.46746 0
M  V30 5636 C 515.603 -1.29695 -3.35719 0
M  V30 5637 C 515.211 -2.80184 -3.49572 0
M  V30 5638 C 516.955 -1.07759 -4.10595 0
M  V30 5639 C 514.862 -3.2788 -4.92187 0
M  V30 5640 H 513.792 -0.278034 -0.700866 0
M  V30 5641 H 516.443 -1.26637 -1.32798 0
M  V30 5642 H 514.825 -0.711522 -3.89555 0
M  V30 5643 H 515.999 -3.44561 -3.05965 0
M  V30 5644 H 514.314 -3.00632 -2.88113 0
M  V30 5645 H 516.911 -1.40899 -5.15802 0
M  V30 5646 H 517.254 -0.0152302 -4.16297 0
M  V30 5647 H 517.787 -1.62809 -3.62957 0
M  V30 5648 H 514.526 -4.33535 -4.91658 0
M  V30 5649 H 514.046 -2.68245 -5.36475 0
M  V30 5650 H 515.725 -3.22412 -5.60945 0
M  V30 5651 N 515.857 1.33968 -0.830081 0
M  V30 5652 C 516.789 2.28194 -0.21448 0
M  V30 5653 C 517.802 1.5135 0.599752 0
M  V30 5654 O 518.991 1.73286 0.42826 0
M  V30 5655 C 516.091 3.31221 0.717356 0
M  V30 5656 C 515.264 4.37365 -0.055613 0
M  V30 5657 C 514.323 5.2011 0.798231 0
M  V30 5658 O 513.349 5.68691 0.240616 0
M  V30 5659 N 514.551 5.40523 2.11695 0
M  V30 5660 H 517.316 2.81662 -1.02405 0
M  V30 5661 H 514.877 1.46568 -0.687713 0
M  V30 5662 H 516.869 3.83477 1.29334 0
M  V30 5663 H 515.439 2.78095 1.42765 0
M  V30 5664 H 514.659 3.85727 -0.812936 0
M  V30 5665 H 515.947 5.05397 -0.587444 0
M  V30 5666 H 515.345 5.0274 2.59363 0
M  V30 5667 H 513.902 5.95871 2.64162 0
M  V30 5668 N 517.335 0.585699 1.46312 0
M  V30 5669 C 518.245 -0.148236 2.34131 0
M  V30 5670 C 519.261 -0.882972 1.49932 0
M  V30 5671 O 520.437 -0.845484 1.82794 0
M  V30 5672 C 517.502 -1.14714 3.27172 0
M  V30 5673 C 516.563 -0.416746 4.27272 0
M  V30 5674 C 515.796 -1.36806 5.15868 0
M  V30 5675 O 516.019 -2.60475 5.07454 0
M  V30 5676 O 514.953 -0.877018 5.95476 0
M  V30 5677 H 518.779 0.572882 2.98248 0
M  V30 5678 H 516.364 0.346082 1.45336 0
M  V30 5679 H 518.246 -1.72303 3.84564 0
M  V30 5680 H 516.921 -1.84967 2.65648 0
M  V30 5681 H 515.828 0.201061 3.73559 0
M  V30 5682 H 517.161 0.244872 4.9159 0
M  V30 5683 N 518.813 -1.54241 0.323641 0
M  V30 5684 C 519.723 -2.28033 -0.551205 0
M  V30 5685 C 520.739 -1.32388 -1.12913 0
M  V30 5686 O 521.915 -1.65403 -1.14908 0
M  V30 5687 C 518.98 -3.02382 -1.69606 0
M  V30 5688 C 518.041 -4.13612 -1.14993 0
M  V30 5689 C 517.274 -4.84407 -2.24022 0
M  V30 5690 O 517.497 -4.54716 -3.44368 0
M  V30 5691 O 516.431 -5.71312 -1.89436 0
M  V30 5692 H 520.257 -3.03662 0.048066 0
M  V30 5693 H 517.842 -1.49133 0.0893289 0
M  V30 5694 H 519.724 -3.48941 -2.36259 0
M  V30 5695 H 518.399 -2.29628 -2.28151 0
M  V30 5696 H 517.306 -3.71402 -0.448484 0
M  V30 5697 H 518.639 -4.8841 -0.609608 0
M  V30 5698 N 520.291 -0.0518155 -1.57515 0
M  V30 5699 C 521.537 0.622745 -1.93002 0
M  V30 5700 C 521.87 1.70456 -0.930499 0
M  V30 5701 O 521.145 1.94452 0.0434086 0
M  V30 5702 C 521.428 1.21824 -3.38867 0
M  V30 5703 C 521.281 0.144434 -4.49568 0
M  V30 5704 C 522.6 2.12968 -3.8514 0
M  V30 5705 H 519.719 0.22491 -0.701844 0
M  V30 5706 H 522.361 -0.113711 -1.89659 0
M  V30 5707 H 520.511 1.8459 -3.41846 0
M  V30 5708 H 522.183 -0.48753 -4.58717 0
M  V30 5709 H 520.426 -0.527424 -4.30582 0
M  V30 5710 H 521.097 0.601127 -5.48717 0
M  V30 5711 H 523.573 1.60163 -3.8404 0
M  V30 5712 H 522.449 2.51578 -4.87852 0
M  V30 5713 H 522.71 3.03004 -3.21934 0
M  V30 5714 N 521.769 1.56035 0.221574 0
M  V30 5715 C 522.994 1.83476 0.967026 0
M  V30 5716 C 523.419 0.632139 1.7716 0
M  V30 5717 O 522.777 -0.419082 1.7639 0
M  V30 5718 C 522.825 3.08907 1.86034 0
M  V30 5719 O 521.929 2.876 2.95567 0
M  V30 5720 H 521.27 0.604913 0.273817 0
M  V30 5721 H 523.8 2.03247 0.234893 0
M  V30 5722 H 523.81 3.3901 2.27016 0
M  V30 5723 H 522.485 3.96068 1.26898 0
M  V30 5724 H 521.062 2.6873 2.58532 0
M  V30 5725 N 523.247 -0.488276 1.49845 0
M  V30 5726 C 524.524 -1.24959 1.50481 0
M  V30 5727 C 524.904 -2.09735 0.239698 0
M  V30 5728 O 524.252 -2.14865 -0.777524 0
M  V30 5729 C 524.462 -2.0954 2.79095 0
M  V30 5730 C 525.81 -2.68305 3.29086 0
M  V30 5731 O 526.834 -2.19797 2.80299 0
M  V30 5732 O 525.693 -3.56643 4.14087 0
M  V30 5733 H 522.787 -0.566133 0.602845 0
M  V30 5734 H 525.333 -0.501504 1.6212 0
M  V30 5735 H 524.105 -1.46958 3.62656 0
M  V30 5736 H 523.728 -2.91517 2.70377 0
M  V30 5737 N 524.725 -1.39134 -0.740242 0
M  V30 5738 C 525.657 -1.33332 -1.86428 0
M  V30 5739 C 526.67 -0.243042 -1.60976 0
M  V30 5740 O 527.859 -0.501608 -1.71307 0
M  V30 5741 C 524.959 -1.04626 -3.22346 0
M  V30 5742 C 524.132 -2.24826 -3.75196 0
M  V30 5743 C 523.191 -1.92659 -4.89662 0
M  V30 5744 O 522.217 -2.6529 -5.03597 0
M  V30 5745 N 523.419 -0.889575 -5.73643 0
M  V30 5746 H 526.184 -2.30196 -1.91911 0
M  V30 5747 H 523.745 -1.33168 -0.920756 0
M  V30 5748 H 525.737 -0.811347 -3.96484 0
M  V30 5749 H 524.307 -0.165129 -3.12164 0
M  V30 5750 H 523.527 -2.64301 -2.9247 0
M  V30 5751 H 524.815 -3.05015 -4.07239 0
M  V30 5752 H 524.213 -0.287529 -5.64969 0
M  V30 5753 H 522.77 -0.714557 -6.47871 0
M  V30 5754 N 526.204 0.969867 -1.24223 0
M  V30 5755 C 527.432 1.74756 -1.10761 0
M  V30 5756 C 527.847 1.85713 0.340041 0
M  V30 5757 O 527.204 1.34389 1.23474 0
M  V30 5758 C 527.255 3.16915 -1.73917 0
M  V30 5759 O 526.976 3.06511 -3.13021 0
M  V30 5760 C 528.477 4.11032 -1.66036 0
M  V30 5761 H 525.697 0.548092 -0.387087 0
M  V30 5762 H 528.241 1.2178 -1.64286 0
M  V30 5763 H 526.396 3.66884 -1.244 0
M  V30 5764 H 526.81 3.96079 -3.43834 0
M  V30 5765 H 528.284 5.08446 -2.14911 0
M  V30 5766 H 528.761 4.34785 -0.621159 0
M  V30 5767 H 529.367 3.66972 -2.14969 0
M  V30 5768 N 527.682 1.05563 1.17022 0
M  V30 5769 C 528.91 0.78845 1.91288 0
M  V30 5770 C 529.325 -0.656318 1.77025 0
M  V30 5771 O 528.682 -1.44869 1.10992 0
M  V30 5772 C 528.733 1.16444 3.42232 0
M  V30 5773 O 528.454 2.5525 3.5606 0
M  V30 5774 C 529.955 0.923937 4.33565 0
M  V30 5775 H 527.175 0.286389 0.606813 0
M  V30 5776 H 529.719 1.4073 1.48375 0
M  V30 5777 H 527.874 0.590266 3.82877 0
M  V30 5778 H 528.288 2.70097 4.49609 0
M  V30 5779 H 529.762 1.23672 5.37968 0
M  V30 5780 H 530.239 -0.140688 4.38975 0
M  V30 5781 H 530.845 1.48214 3.98639 0
M  V30 5782 N 529.16 -1.33526 0.837174 0
M  V30 5783 C 530.108 -2.31168 0.257698 0
M  V30 5784 C 531.102 -1.5806 -0.609388 0
M  V30 5785 O 532.308 -1.72941 -0.499139 0
M  V30 5786 H 528.683 -0.74922 0.0646058 0
M  V30 5787 H 530.654 -2.77552 1.09578 0
M  V30 5788 C 529.403 -3.4326 -0.553887 0
M  V30 5789 H 528.726 -3.99665 0.104008 0
M  V30 5790 H 530.166 -4.13782 -0.925219 0
M  V30 5791 C 528.625 -2.88965 -1.73207 0
M  V30 5792 O 529.155 -2.85013 -2.83073 0
M  V30 5793 N 527.361 -2.45596 -1.55342 0
M  V30 5794 H 526.908 -2.49009 -0.659705 0
M  V30 5795 H 526.866 -2.0962 -2.34322 0
M  V30 5796 N 530.638 -0.59345 -1.46 0
M  V30 5797 C 531.586 0.146268 -2.3214 0
M  V30 5798 C 532.58 0.873743 -1.45128 0
M  V30 5799 O 533.786 0.790912 -1.61693 0
M  V30 5800 H 530.161 0.0660349 -0.749095 0
M  V30 5801 H 532.132 -0.598895 -2.92328 0
M  V30 5802 C 530.881 1.1396 -3.28494 0
M  V30 5803 H 530.204 0.589252 -3.95434 0
M  V30 5804 H 531.644 1.62738 -3.91526 0
M  V30 5805 C 530.103 2.20604 -2.54628 0
M  V30 5806 O 530.633 3.28128 -2.31722 0
M  V30 5807 N 528.839 1.95502 -2.15005 0
M  V30 5808 H 528.386 1.0807 -2.33834 0
M  V30 5809 H 528.344 2.67064 -1.65904 0
M  V30 5810 N 532.116 1.54067 -0.331816 0
M  V30 5811 C 533.364 2.00319 0.267739 0
M  V30 5812 C 533.685 1.22148 1.52003 0
M  V30 5813 O 532.955 0.325494 1.93177 0
M  V30 5814 H 531.535 0.740014 0.101922 0
M  V30 5815 H 534.197 1.89628 -0.450267 0
M  V30 5816 H 533.293 3.07765 0.518385 0
M  V30 5817 N 533.594 0.0601682 1.57485 0
M  V30 5818 C 534.842 -0.610386 1.92662 0
M  V30 5819 C 535.163 -1.70849 0.939981 0
M  V30 5820 O 534.433 -1.95895 -0.0137455 0
M  V30 5821 H 533.013 -0.228457 0.711208 0
M  V30 5822 H 535.675 0.115288 1.94559 0
M  V30 5823 H 534.771 -1.0432 2.94149 0
M  V30 5824 N 535.072 -1.5615 -0.213296 0
M  V30 5825 C 535.982 -1.96265 -1.28519 0
M  V30 5826 C 536.998 -0.86765 -1.50824 0
M  V30 5827 O 538.174 -1.17191 -1.63793 0
M  V30 5828 C 535.239 -2.27836 -2.61327 0
M  V30 5829 C 534.3 -3.50949 -2.47252 0
M  V30 5830 C 533.533 -3.81004 -3.73727 0
M  V30 5831 O 533.756 -3.12612 -4.77106 0
M  V30 5832 O 532.69 -4.74477 -3.70344 0
M  V30 5833 H 536.516 -2.87631 -0.974795 0
M  V30 5834 H 534.101 -1.43467 -0.416832 0
M  V30 5835 H 535.983 -2.49299 -3.39747 0
M  V30 5836 H 534.658 -1.39643 -2.9203 0
M  V30 5837 H 533.565 -3.34754 -1.67004 0
M  V30 5838 H 534.898 -4.39551 -2.21486 0
M  V30 5839 N 536.55 0.480323 -1.50102 0
M  V30 5840 C 537.48 1.58769 -1.71215 0
M  V30 5841 C 538.461 1.60583 -0.560997 0
M  V30 5842 O 539.646 1.76996 -0.799127 0
M  V30 5843 C 536.776 2.97148 -1.79778 0
M  V30 5844 C 535.73 3.10201 -2.94888 0
M  V30 5845 C 535.056 4.50137 -2.88584 0
M  V30 5846 C 536.356 2.88283 -4.35534 0
M  V30 5847 H 538.05 1.41354 -2.6393 0
M  V30 5848 H 535.596 0.678591 -1.27008 0
M  V30 5849 H 537.549 3.74536 -1.93133 0
M  V30 5850 H 536.273 3.15699 -0.836772 0
M  V30 5851 H 534.932 2.35244 -2.81169 0
M  V30 5852 H 534.58 4.65593 -1.90349 0
M  V30 5853 H 534.28 4.59808 -3.65856 0
M  V30 5854 H 535.804 5.29558 -3.03976 0
M  V30 5855 H 537.218 3.55427 -4.49827 0
M  V30 5856 H 535.615 3.09408 -5.14186 0
M  V30 5857 H 536.685 1.84219 -4.48544 0
M  V30 5858 N 538.028 1.39524 0.732853 0
M  V30 5859 C 538.961 1.32806 1.85574 0
M  V30 5860 C 539.939 0.201354 1.61348 0
M  V30 5861 O 541.123 0.38216 1.84585 0
M  V30 5862 C 538.25 1.06271 3.21596 0
M  V30 5863 C 537.296 2.21161 3.64678 0
M  V30 5864 S 538.129 3.83454 3.73796 0
M  V30 5865 C 539.285 3.59149 5.12604 0
M  V30 5866 H 539.518 2.27838 1.9099 0
M  V30 5867 H 537.051 1.25605 0.897927 0
M  V30 5868 H 539.009 0.916461 4.00139 0
M  V30 5869 H 537.67 0.129223 3.13834 0
M  V30 5870 H 536.863 1.98193 4.63396 0
M  V30 5871 H 536.465 2.32 2.93346 0
M  V30 5872 H 538.757 3.16547 5.99003 0
M  V30 5873 H 539.7 4.57335 5.40602 0
M  V30 5874 H 540.108 2.93203 4.82382 0
M  V30 5875 N 539.506 -0.963266 1.24736 0
M  V30 5876 C 540.436 -2.07628 1.06832 0
M  V30 5877 C 541.417 -1.70088 -0.0200566 0
M  V30 5878 O 542.602 -1.93636 0.147854 0
M  V30 5879 C 539.732 -3.40636 0.677069 0
M  V30 5880 C 538.686 -3.9215 1.71471 0
M  V30 5881 C 538.012 -5.21553 1.1784 0
M  V30 5882 C 539.312 -4.19493 3.11164 0
M  V30 5883 H 541.006 -2.22864 1.9993 0
M  V30 5884 H 538.552 -1.07093 0.96266 0
M  V30 5885 H 540.505 -4.17941 0.538792 0
M  V30 5886 H 539.229 -3.25313 -0.289612 0
M  V30 5887 H 537.888 -3.17005 1.84128 0
M  V30 5888 H 537.536 -5.02593 0.202195 0
M  V30 5889 H 537.236 -5.56988 1.87185 0
M  V30 5890 H 538.76 -6.01463 1.05233 0
M  V30 5891 H 540.174 -4.87487 3.01711 0
M  V30 5892 H 538.571 -4.66165 3.77902 0
M  V30 5893 H 539.641 -3.26097 3.58871 0
M  V30 5894 N 540.985 -1.06182 -1.16461 0
M  V30 5895 C 541.895 -0.682671 -2.24448 0
M  V30 5896 C 542.911 0.30078 -1.71381 0
M  V30 5897 O 544.087 0.150376 -2.00838 0
M  V30 5898 C 541.152 -0.0737202 -3.46622 0
M  V30 5899 C 540.213 -1.10889 -4.14731 0
M  V30 5900 C 539.446 -0.528908 -5.31073 0
M  V30 5901 O 539.669 0.65868 -5.66584 0
M  V30 5902 O 538.603 -1.26805 -5.88391 0
M  V30 5903 H 542.429 -1.58291 -2.59187 0
M  V30 5904 H 540.014 -0.834013 -1.23954 0
M  V30 5905 H 541.896 0.264192 -4.20571 0
M  V30 5906 H 540.571 0.800015 -3.13658 0
M  V30 5907 H 539.478 -1.49896 -3.42756 0
M  V30 5908 H 540.811 -1.95412 -4.51747 0
M  V30 5909 N 542.463 1.3308 -0.844243 0
M  V30 5910 C 543.688 2.02341 -0.455282 0
M  V30 5911 C 544.113 1.6308 0.93737 0
M  V30 5912 O 543.471 0.826118 1.61385 0
M  V30 5913 C 543.519 3.55743 -0.58988 0
M  V30 5914 O 542.623 4.1063 0.38166 0
M  V30 5915 H 541.964 0.637898 -0.184343 0
M  V30 5916 H 544.494 1.6986 -1.14056 0
M  V30 5917 H 544.504 4.05243 -0.473522 0
M  V30 5918 H 543.179 3.83662 -1.60549 0
M  V30 5919 H 541.756 3.72236 0.22241 0
M  V30 5920 N 543.941 0.601185 1.45683 0
M  V30 5921 C 545.169 0.100054 2.06658 0
M  V30 5922 C 545.584 -1.21285 1.44691 0
M  V30 5923 O 544.941 -1.73735 0.558772 0
M  V30 5924 C 544.992 -0.0528579 3.61461 0
M  V30 5925 O 544.713 1.20809 4.21114 0
M  V30 5926 C 546.214 -0.586193 4.39407 0
M  V30 5927 H 543.434 0.065905 0.667756 0
M  V30 5928 H 545.978 0.827101 1.87028 0
M  V30 5929 H 544.133 -0.730203 3.80456 0
M  V30 5930 H 544.547 1.03368 5.14213 0
M  V30 5931 H 546.021 -0.642297 5.4825 0
M  V30 5932 H 546.498 -1.60713 4.0874 0
M  V30 5933 H 547.104 0.0568935 4.25262 0
M  V30 5934 N 545.419 -1.53889 0.339982 0
M  V30 5935 C 546.666 -2.00855 -0.257621 0
M  V30 5936 C 546.994 -1.22788 -1.50842 0
M  V30 5937 O 546.249 -0.302567 -1.93347 0
M  V30 5938 C 546.548 -3.51968 -0.620735 0
M  V30 5939 C 546.214 -4.47741 0.532771 0
M  V30 5940 C 544.876 -4.73645 0.849339 0
M  V30 5941 C 547.228 -5.04551 1.3068 0
M  V30 5942 C 544.556 -5.53614 1.94237 0
M  V30 5943 C 546.908 -5.85713 2.39005 0
M  V30 5944 C 545.572 -6.09912 2.71225 0
M  V30 5945 H 544.842 -0.734979 -0.0942703 0
M  V30 5946 H 547.489 -1.85714 0.467159 0
M  V30 5947 H 545.794 -3.64921 -1.42618 0
M  V30 5948 H 547.491 -3.85762 -1.09495 0
M  V30 5949 H 544.081 -4.27711 0.275973 0
M  V30 5950 H 548.265 -4.84507 1.07549 0
M  V30 5951 H 543.521 -5.7059 2.19628 0
M  V30 5952 H 547.695 -6.28748 2.99415 0
M  V30 5953 H 545.322 -6.71665 3.56047 0
M  V30 5954 O 546.936 -0.208127 -1.60153 0
M  V30 5955 H 547.627 0.374888 -1.90038 0
M  V30 END ATOM
M  V30 BEGIN BOND
M  V30 END BOND
M  V30 END CTAB
M  END
$$$$
