drugbank_target|Q99653 Calcineurin B homologous protein 1 (DB11093; DB11348; DB14481)
 OpenBabel12092121043D

  0  0  0     0  0            999 V3000
M  V30 BEGIN CTAB
M  V30 COUNTS 3131 3155 0 0 0
M  V30 BEGIN ATOM
M  V30 1 H -0.908 1.98254 -0.117106 0
M  V30 2 N 0 1.576 0 0
M  V30 3 C 0.933 2.03868 1.02534 0
M  V30 4 C 1.911 0.928543 1.3348 0
M  V30 5 O 3.095 1.19667 1.45644 0
M  V30 6 C 0.222 2.43627 2.35294 0
M  V30 7 C -0.732 3.65373 2.2001 0
M  V30 8 S 0.101 5.13292 1.52614 0
M  V30 9 C 1.257 5.56322 2.86805 0
M  V30 10 H 1.49 2.90518 0.631377 0
M  V30 11 H -0.977 1.52953 0.210867 0
M  V30 12 H 0.981 2.67203 3.11629 0
M  V30 13 H -0.358 1.57376 2.7183 0
M  V30 14 H -1.165 3.90944 3.18086 0
M  V30 15 H -1.563 3.418 1.51819 0
M  V30 16 H 0.729 5.58782 3.83104 0
M  V30 17 H 1.672 6.56266 2.65933 0
M  V30 18 H 2.08 4.83886 2.90714 0
M  V30 19 N 1.4781 -0.272755 1.55222 0
M  V30 20 C 2.7261 -1.00234 1.75492 0
M  V30 21 C 3.0471 -1.8681 0.5592 0
M  V30 22 O 2.3171 -1.91215 -0.425882 0
M  V30 23 H 0.8971 -0.373076 0.647166 0
M  V30 24 H 3.5591 -0.296926 1.92625 0
M  V30 25 H 2.6551 -1.63913 2.65592 0
M  V30 26 N 2.9562 -1.48159 -0.537278 0
M  V30 27 C 4.1812 -1.59707 -1.32319 0
M  V30 28 C 4.6062 -0.254859 -1.86365 0
M  V30 29 O 3.9642 0.772378 -1.64024 0
M  V30 30 C 4.0122 -2.6412 -2.45505 0
M  V30 31 O 3.1162 -2.20774 -3.48328 0
M  V30 32 H 2.4572 -0.535791 -0.392204 0
M  V30 33 H 4.9872 -1.94092 -0.647268 0
M  V30 34 H 4.9972 -2.85166 -2.91795 0
M  V30 35 H 3.6722 -3.61567 -2.05528 0
M  V30 36 H 2.2492 -2.09911 -3.08207 0
M  V30 37 N 4.4343 0.785586 -1.36625 0
M  V30 38 C 5.8503 1.08419 -1.17122 0
M  V30 39 C 6.0503 2.015 0.00208491 0
M  V30 40 O 5.1063 2.43551 0.666278 0
M  V30 41 C 6.4193 1.69498 -2.48377 0
M  V30 42 C 7.9673 1.81821 -2.54775 0
M  V30 43 C 8.4423 2.46315 -3.86126 0
M  V30 44 N 9.9333 2.53779 -3.87492 0
M  V30 45 C 10.6683 3.045 -4.85868 0
M  V30 46 N 10.1643 3.55499 -5.94637 0
M  V30 47 N 11.9573 3.03247 -4.73284 0
M  V30 48 H 4.1083 0.167264 -2.1174 0
M  V30 49 H 6.3713 0.13682 -0.938075 0
M  V30 50 H 6.0773 1.08571 -3.34522 0
M  V30 51 H 5.9513 2.6896 -2.64462 0
M  V30 52 H 8.3383 2.41884 -1.69045 0
M  V30 53 H 8.4193 0.811532 -2.42586 0
M  V30 54 H 8.0633 1.86895 -4.72263 0
M  V30 55 H 7.9933 3.47561 -3.95612 0
M  V30 56 H 10.4843 2.17672 -3.08913 0
M  V30 57 H 10.7973 3.92562 -6.65669 0
M  V30 58 H 9.1423 3.5364 -5.98301 0
M  V30 59 H 12.3333 2.62696 -3.87438 0
M  V30 60 H 12.5063 3.42467 -5.50109 0
M  V30 61 N 5.9124 1.20967 1.01018 0
M  V30 62 C 6.8754 0.965918 2.07853 0
M  V30 63 C 7.8754 -0.0610545 1.60684 0
M  V30 64 O 9.0654 0.175681 1.73312 0
M  V30 65 C 6.1974 0.455513 3.37843 0
M  V30 66 H 7.3904 1.91365 2.3091 0
M  V30 67 H 4.9434 1.02594 1.17916 0
M  V30 68 H 5.6784 -0.497381 3.20463 0
M  V30 69 H 5.4634 1.19622 3.73407 0
M  V30 70 H 6.9534 0.304667 4.16487 0
M  V30 71 N 7.3905 -1.2043 1.01659 0
M  V30 72 C 8.6155 -1.94318 0.724942 0
M  V30 73 C 9.0405 -1.74266 -0.708034 0
M  V30 74 O 8.3985 -1.03694 -1.48719 0
M  V30 75 C 8.4465 -3.44486 1.06591 0
M  V30 76 O 7.5505 -4.12017 0.177599 0
M  V30 77 H 6.8915 -0.60708 0.26898 0
M  V30 78 H 9.4215 -1.52861 1.35995 0
M  V30 79 H 9.4315 -3.95106 1.01762 0
M  V30 80 H 8.1065 -3.58404 2.10997 0
M  V30 81 H 6.6835 -3.71821 0.283421 0
M  V30 82 N 8.8686 -0.792821 -1.36206 0
M  V30 83 C 10.0966 -0.378825 -2.03402 0
M  V30 84 C 10.5116 1.00586 -1.59774 0
M  V30 85 O 9.8686 1.64574 -0.788764 0
M  V30 86 C 9.9196 -0.43683 -3.58851 0
M  V30 87 O 9.6406 -1.76691 -4.00889 0
M  V30 88 C 11.1416 -0.0138943 -4.43298 0
M  V30 89 H 8.3616 -0.155673 -0.652692 0
M  V30 90 H 10.9056 -1.07261 -1.74113 0
M  V30 91 H 9.0606 0.208575 -3.86838 0
M  V30 92 H 9.4746 -1.72011 -4.95492 0
M  V30 93 H 10.9486 -0.105615 -5.51899 0
M  V30 94 H 11.4256 1.03915 -4.2673 0
M  V30 95 H 12.0316 -0.63192 -4.20579 0
M  V30 96 N 10.3467 1.47872 -0.545128 0
M  V30 97 C 11.2767 2.32661 0.197793 0
M  V30 98 C 12.2577 1.43041 0.920504 0
M  V30 99 O 13.4427 1.71912 0.90333 0
M  V30 100 C 10.5727 3.24569 1.23582 0
M  V30 101 C 9.5267 4.23333 0.630323 0
M  V30 102 C 8.8527 5.0448 1.77211 0
M  V30 103 C 10.1527 5.20704 -0.407974 0
M  V30 104 H 11.8467 2.95024 -0.510045 0
M  V30 105 H 9.3927 1.4187 -0.246731 0
M  V30 106 H 11.3457 3.8272 1.76362 0
M  V30 107 H 10.0697 2.60236 1.97344 0
M  V30 108 H 8.7287 3.6639 0.123922 0
M  V30 109 H 8.3767 4.36561 2.49847 0
M  V30 110 H 8.0767 5.71339 1.37281 0
M  V30 111 H 9.6007 5.65487 2.3034 0
M  V30 112 H 11.0147 5.7329 0.033305 0
M  V30 113 H 9.4117 5.95699 -0.725486 0
M  V30 114 H 10.4817 4.66917 -1.30828 0
M  V30 115 N 11.8248 0.280983 1.55075 0
M  V30 116 C 12.7548 -0.597469 2.25727 0
M  V30 117 C 13.7358 -1.15417 1.24952 0
M  V30 118 O 14.9208 -1.18722 1.53684 0
M  V30 119 C 12.0508 -1.7789 2.98283 0
M  V30 120 C 11.0048 -1.35347 4.06036 0
M  V30 121 C 10.3308 -2.61846 4.66198 0
M  V30 122 C 11.6308 -0.499354 5.19907 0
M  V30 123 H 13.3248 -0.00824265 2.99399 0
M  V30 124 H 10.8708 -0.0025244 1.44 0
M  V30 125 H 12.8238 -2.39937 3.46422 0
M  V30 126 H 11.5478 -2.39405 2.22155 0
M  V30 127 H 10.2068 -0.756156 3.58717 0
M  V30 128 H 9.8548 -3.21632 3.86732 0
M  V30 129 H 9.5548 -2.3409 5.38958 0
M  V30 130 H 11.0788 -3.24732 5.1709 0
M  V30 131 H 12.4928 -1.02498 5.64063 0
M  V30 132 H 10.8898 -0.316424 5.99265 0
M  V30 133 H 11.9598 0.480459 4.82514 0
M  V30 134 N 13.3029 -1.57598 0.00835791 0
M  V30 135 C 14.7189 -1.55764 -0.347822 0
M  V30 136 C 14.9189 -1.01186 -1.74252 0
M  V30 137 O 13.9749 -0.649371 -2.44007 0
M  V30 138 C 15.2879 -2.99927 -0.215407 0
M  V30 139 C 16.8359 -3.11656 -0.289725 0
M  V30 140 C 17.3109 -4.57621 -0.18634 0
M  V30 141 N 18.8019 -4.62557 -0.243978 0
M  V30 142 C 19.5369 -5.73094 -0.18745 0
M  V30 143 N 19.0329 -6.92753 -0.0810331 0
M  V30 144 N 20.8259 -5.61588 -0.239925 0
M  V30 145 H 12.9769 -1.91411 0.92062 0
M  V30 146 H 15.2399 -0.879562 0.353659 0
M  V30 147 H 14.9459 -3.43729 0.744512 0
M  V30 148 H 14.8199 -3.63865 -0.994097 0
M  V30 149 H 17.2069 -2.67779 -1.24009 0
M  V30 150 H 17.2879 -2.5048 0.51898 0
M  V30 151 H 16.9319 -5.02174 0.760519 0
M  V30 152 H 16.8619 -5.16752 -1.01364 0
M  V30 153 H 19.3529 -3.76481 -0.327217 0
M  V30 154 H 19.6659 -7.72787 -0.0440241 0
M  V30 155 H 18.0109 -6.94984 -0.0465419 0
M  V30 156 H 21.2019 -4.66996 -0.321317 0
M  V30 157 H 21.3749 -6.47714 -0.192407 0
M  V30 158 N 14.781 0.264519 -1.55364 0
M  V30 159 C 16.058 1.01677 -1.67096 0
M  V30 160 C 16.438 2.03996 -0.543015 0
M  V30 161 O 15.786 2.23907 0.45585 0
M  V30 162 C 15.996 1.66596 -3.0667 0
M  V30 163 C 17.344 2.17442 -3.64697 0
M  V30 164 O 18.368 1.76568 -3.09358 0
M  V30 165 O 17.227 2.92439 -4.61673 0
M  V30 166 H 14.321 0.472161 -0.678965 0
M  V30 167 H 16.867 0.259703 -1.67701 0
M  V30 168 H 15.639 0.924962 -3.80211 0
M  V30 169 H 15.262 2.48968 -3.10001 0
M  V30 170 N 16.2591 1.48442 0.529413 0
M  V30 171 C 17.1691 1.6569 1.66084 0
M  V30 172 C 18.1851 0.539432 1.65427 0
M  V30 173 O 19.3611 0.810572 1.84368 0
M  V30 174 C 16.4261 1.69315 3.02545 0
M  V30 175 C 15.4871 2.92694 3.14052 0
M  V30 176 C 14.7201 2.96137 4.44003 0
M  V30 177 O 14.9431 2.07973 5.31134 0
M  V30 178 O 13.8771 3.88312 4.59888 0
M  V30 179 H 17.7031 2.61483 1.54469 0
M  V30 180 H 15.2881 1.3185 0.702567 0
M  V30 181 H 17.1701 1.74217 3.83701 0
M  V30 182 H 15.8451 0.766966 3.14483 0
M  V30 183 H 14.7521 2.93324 2.32189 0
M  V30 184 H 16.0851 3.84699 3.0703 0
M  V30 185 N 17.7372 -0.778329 1.37039 0
M  V30 186 C 18.6472 -1.92253 1.34446 0
M  V30 187 C 19.6632 -1.72267 0.244991 0
M  V30 188 O 20.8392 -1.95615 0.479258 0
M  V30 189 C 17.9042 -3.27282 1.144 0
M  V30 190 C 16.9652 -3.59969 2.33925 0
M  V30 191 C 16.1982 -4.88555 2.14825 0
M  V30 192 O 16.4212 -5.59113 1.12912 0
M  V30 193 O 15.3552 -5.20153 3.02861 0
M  V30 194 H 19.1812 -1.97392 2.30803 0
M  V30 195 H 16.7662 -0.920154 1.17701 0
M  V30 196 H 18.6482 -4.08062 1.05182 0
M  V30 197 H 17.3232 -3.23011 0.211124 0
M  V30 198 H 16.2302 -2.7945 2.48714 0
M  V30 199 H 17.5632 -3.68976 3.25757 0
M  V30 200 N 19.2153 -1.21501 -1.00376 0
M  V30 201 C 20.1453 -0.999478 -2.11028 0
M  V30 202 C 21.1263 0.0759671 -1.6993 0
M  V30 203 O 22.3113 -0.0841106 -1.94018 0
M  V30 204 C 19.4413 -0.564709 -3.42678 0
M  V30 205 C 18.3953 -1.58486 -3.97576 0
M  V30 206 C 17.7213 -1.00628 -5.25146 0
M  V30 207 C 19.0213 -2.97204 -4.29496 0
M  V30 208 H 20.7153 -1.92495 -2.29317 0
M  V30 209 H 18.2613 -0.92693 -1.102 0
M  V30 210 H 20.2143 -0.401091 -4.19487 0
M  V30 211 H 18.9383 0.396411 -3.24185 0
M  V30 212 H 17.5973 -1.73606 -3.22888 0
M  V30 213 H 17.2453 -0.0368439 -5.02987 0
M  V30 214 H 16.9453 -1.68771 -5.62841 0
M  V30 215 H 18.4693 -0.854015 -6.04598 0
M  V30 216 H 19.8833 -2.8552 -4.97143 0
M  V30 217 H 18.2803 -3.62372 -4.78338 0
M  V30 218 H 19.3503 -3.47956 -3.3772 0
M  V30 219 N 20.6934 1.19889 -1.02296 0
M  V30 220 C 21.6034 2.26571 -0.608508 0
M  V30 221 C 22.6194 1.70299 0.356964 0
M  V30 222 O 23.7954 2.00235 0.216326 0
M  V30 223 C 20.8604 3.46677 0.0402814 0
M  V30 224 C 19.9214 4.18153 -0.97194 0
M  V30 225 C 19.1544 5.32525 -0.354016 0
M  V30 226 O 19.3774 5.64112 0.844604 0
M  V30 227 O 18.3114 5.92242 -1.07391 0
M  V30 228 H 22.1374 2.64251 -1.49684 0
M  V30 229 H 19.7224 1.26629 -0.792809 0
M  V30 230 H 21.6044 4.19475 0.402324 0
M  V30 231 H 20.2794 3.10858 0.902707 0
M  V30 232 H 19.1864 3.47499 -1.38546 0
M  V30 233 H 20.5194 4.57927 -1.80454 0
M  V30 234 N 22.1715 0.800033 1.35784 0
M  V30 235 C 23.0815 0.207204 2.33683 0
M  V30 236 C 24.0975 -0.64631 1.61551 0
M  V30 237 O 25.2735 -0.559604 1.93469 0
M  V30 238 C 22.3385 -0.639659 3.40748 0
M  V30 239 C 21.3995 0.233585 4.28664 0
M  V30 240 C 20.6325 -0.572954 5.30616 0
M  V30 241 O 20.8555 -1.80816 5.40982 0
M  V30 242 O 19.7895 0.0327285 6.01891 0
M  V30 243 H 23.6155 1.01692 2.86169 0
M  V30 244 H 21.2005 0.561691 1.38439 0
M  V30 245 H 23.0825 -1.12223 4.06182 0
M  V30 246 H 21.7575 -1.42708 2.90544 0
M  V30 247 H 20.6645 0.763147 3.66233 0
M  V30 248 H 21.9975 0.984784 4.82248 0
M  V30 249 N 23.6496 -1.47581 0.552962 0
M  V30 250 C 24.8986 -2.01684 0.0251995 0
M  V30 251 C 25.2116 -1.43317 -1.33115 0
M  V30 252 O 26.4176 -1.89057 -1.94858 0
M  V30 253 C 24.8736 -3.599 -0.00542052 0
M  V30 254 C 24.4816 -4.27257 1.34742 0
M  V30 255 C 26.2256 -4.21768 -0.4808 0
M  V30 256 C 24.1326 -5.77467 1.27614 0
M  V30 257 H 23.0626 -0.753979 0.00565033 0
M  V30 258 H 25.7136 -1.69616 0.70018 0
M  V30 259 H 24.0956 -3.88911 -0.745961 0
M  V30 260 H 25.2696 -4.09893 2.10534 0
M  V30 261 H 23.5846 -3.77358 1.76039 0
M  V30 262 H 26.1816 -5.31838 -0.55246 0
M  V30 263 H 26.5246 -3.88651 -1.49184 0
M  V30 264 H 27.0576 -3.97273 0.204752 0
M  V30 265 H 23.7966 -6.15196 2.26304 0
M  V30 266 H 23.3166 -5.9718 0.55996 0
M  V30 267 H 24.9956 -6.3959 0.976421 0
M  V30 268 N 25.1277 -0.289203 -1.54924 0
M  V30 269 C 26.0747 0.592115 -2.23075 0
M  V30 270 C 27.0447 1.13881 -1.20915 0
M  V30 271 O 28.2297 1.18551 -1.495 0
M  V30 272 C 25.3697 1.76376 -2.96623 0
M  V30 273 C 24.4827 1.24959 -4.13533 0
M  V30 274 C 23.6177 2.38416 -4.74691 0
M  V30 275 C 22.6567 1.84072 -5.83767 0
M  V30 276 N 21.7937 2.91057 -6.38929 0
M  V30 277 H 26.6337 0.00432038 -2.98 0
M  V30 278 H 24.1707 -0.00963529 -1.47097 0
M  V30 279 H 26.1287 2.45268 -3.3749 0
M  V30 280 H 24.7587 2.32337 -2.24097 0
M  V30 281 H 23.8107 0.453307 -3.77689 0
M  V30 282 H 25.1227 0.811662 -4.92152 0
M  V30 283 H 24.2767 3.15276 -5.18349 0
M  V30 284 H 23.0157 2.8553 -3.95378 0
M  V30 285 H 22.0207 1.05697 -5.39545 0
M  V30 286 H 23.2457 1.37877 -6.64956 0
M  V30 287 H 21.1917 3.37526 -5.62505 0
M  V30 288 H 21.1087 2.51724 -7.12861 0
M  V30 289 H 22.3767 3.6785 -6.87246 0
M  V30 290 N 26.6058 1.57591 -0.0167156 0
M  V30 291 C 27.5528 2.09462 0.969251 0
M  V30 292 C 28.5228 0.99381 1.33089 0
M  V30 293 O 29.7078 1.26726 1.42636 0
M  V30 294 C 26.8478 2.61622 2.25051 0
M  V30 295 C 25.9608 3.85666 1.94642 0
M  V30 296 C 25.0958 4.26266 3.16972 0
M  V30 297 C 24.1348 5.43101 2.82326 0
M  V30 298 N 23.2718 5.78915 3.97243 0
M  V30 299 H 28.1118 2.93428 0.519997 0
M  V30 300 H 25.6488 1.45044 0.245087 0
M  V30 301 H 27.6068 2.89949 2.99976 0
M  V30 302 H 26.2368 1.80505 2.67615 0
M  V30 303 H 25.2888 3.64145 1.10013 0
M  V30 304 H 26.6008 4.70678 1.65117 0
M  V30 305 H 25.7548 4.55963 4.00228 0
M  V30 306 H 24.4938 3.39996 3.49648 0
M  V30 307 H 23.4988 5.1311 1.97479 0
M  V30 308 H 24.7238 6.3106 2.50879 0
M  V30 309 H 22.6698 4.95602 4.29785 0
M  V30 310 H 22.5868 6.58539 3.71299 0
M  V30 311 H 23.8548 6.13212 4.81239 0
M  V30 312 N 28.0839 -0.256276 1.55502 0
M  V30 313 C 28.9939 -1.33882 1.92647 0
M  V30 314 C 30.0099 -1.53159 0.825727 0
M  V30 315 O 31.1859 -1.66963 1.12629 0
M  V30 316 C 28.2509 -2.6751 2.20543 0
M  V30 317 C 27.3119 -2.56836 3.43997 0
M  V30 318 C 26.5449 -3.84092 3.70553 0
M  V30 319 O 26.7679 -4.85545 2.99336 0
M  V30 320 O 25.7019 -3.83288 4.64084 0
M  V30 321 H 29.5279 -1.05374 2.84833 0
M  V30 322 H 27.1129 -0.456237 1.42263 0
M  V30 323 H 28.9949 -3.46492 2.39835 0
M  V30 324 H 27.6699 -2.9577 1.31536 0
M  V30 325 H 26.5769 -1.76172 3.30021 0
M  V30 326 H 27.9099 -2.33523 4.33275 0
M  V30 327 N 29.562 -1.4872 -0.521534 0
M  V30 328 C 30.79 -1.60843 -1.30142 0
M  V30 329 C 31.205 -0.271897 -1.86832 0
M  V30 330 O 30.562 0.739969 -1.66825 0
M  V30 331 C 30.613 -2.66155 -2.4463 0
M  V30 332 O 30.334 -3.94623 -1.90275 0
M  V30 333 C 31.835 -2.88795 -3.36322 0
M  V30 334 H 29.055 -0.542075 -0.395468 0
M  V30 335 H 31.599 -1.94609 -0.628285 0
M  V30 336 H 29.754 -2.35224 -3.07812 0
M  V30 337 H 30.168 -4.52468 -2.65279 0
M  V30 338 H 31.642 -3.66264 -4.12983 0
M  V30 339 H 32.119 -1.97934 -3.9207 0
M  V30 340 H 32.725 -3.21063 -2.78924 0
M  V30 341 N 31.0401 0.771051 -1.3745 0
M  V30 342 C 32.2881 1.52661 -1.32435 0
M  V30 343 C 32.6091 1.9479 0.0905024 0
M  V30 344 O 31.8791 1.66348 1.03466 0
M  V30 345 H 30.4591 0.566218 -0.487244 0
M  V30 346 H 33.1211 0.917636 -1.71946 0
M  V30 347 H 32.2171 2.42568 -1.96385 0
M  V30 348 N 32.5182 1.22032 0.997298 0
M  V30 349 C 33.7652 1.04222 1.73621 0
M  V30 350 C 34.0932 -0.423264 1.89839 0
M  V30 351 O 33.3482 -1.3302 1.43542 0
M  V30 352 C 33.6472 1.69345 3.14733 0
M  V30 353 C 33.3132 3.19226 3.18442 0
M  V30 354 C 31.9752 3.60124 3.19161 0
M  V30 355 C 34.3272 4.15181 3.15078 0
M  V30 356 C 31.6552 4.95467 3.14212 0
M  V30 357 C 34.0072 5.50495 3.1167 0
M  V30 358 C 32.6712 5.90779 3.10703 0
M  V30 359 H 31.9412 0.381374 0.635323 0
M  V30 360 H 34.5882 1.51732 1.16831 0
M  V30 361 H 32.8932 1.14147 3.74803 0
M  V30 362 H 34.5902 1.53059 3.7064 0
M  V30 363 H 31.1802 2.86659 3.18629 0
M  V30 364 H 35.3642 3.84605 3.13676 0
M  V30 365 H 30.6202 5.25916 3.11805 0
M  V30 366 H 34.7942 6.24576 3.08022 0
M  V30 367 H 32.4212 6.9562 3.06622 0
M  V30 368 N 33.9963 -1.19345 1.0293 0
M  V30 369 C 35.2213 -1.93538 0.745511 0
M  V30 370 C 35.6463 -1.75007 -0.689511 0
M  V30 371 O 35.0043 -1.05265 -1.47611 0
M  V30 372 C 35.0523 -3.43336 1.10239 0
M  V30 373 O 34.1563 -4.11806 0.221289 0
M  V30 374 H 33.4973 -0.604193 0.275404 0
M  V30 375 H 36.0273 -1.5141 1.37609 0
M  V30 376 H 36.0373 -3.94004 1.05947 0
M  V30 377 H 34.7123 -3.56146 2.14786 0
M  V30 378 H 33.2893 -3.715 0.322842 0
M  V30 379 N 35.4744 -0.807222 -1.35358 0
M  V30 380 C 36.4244 -0.190706 -2.27201 0
M  V30 381 C 37.4084 0.635838 -1.47804 0
M  V30 382 O 38.6004 0.492991 -1.69996 0
M  V30 383 C 35.7294 0.659337 -3.36909 0
M  V30 384 C 34.8154 -0.176971 -4.23731 0
M  V30 385 N 35.2064 -1.24029 -4.90357 0
M  V30 386 C 33.5044 0.0412953 -4.45981 0
M  V30 387 C 34.2054 -1.75092 -5.54723 0
M  V30 388 N 33.1814 -1.05727 -5.33219 0
M  V30 389 H 36.9834 -1.0043 -2.76208 0
M  V30 390 H 34.4974 -0.648445 -1.48892 0
M  V30 391 H 36.4944 1.11706 -4.01656 0
M  V30 392 H 35.1544 1.47127 -2.89454 0
M  V30 393 H 36.1654 -1.62295 -4.91814 0
M  V30 394 H 32.8424 0.82232 -4.09322 0
M  V30 395 H 34.2324 -2.63963 -6.17878 0
M  V30 396 N 36.9525 1.47285 -0.560781 0
M  V30 397 C 38.1775 2.07359 -0.0410566 0
M  V30 398 C 38.6025 1.41017 1.24483 0
M  V30 399 O 37.9605 0.486368 1.74654 0
M  V30 400 C 38.0085 3.6035 0.134123 0
M  V30 401 O 37.1125 3.94681 1.19587 0
M  V30 402 H 36.4535 0.661887 -0.0529291 0
M  V30 403 H 38.9835 1.89252 -0.777482 0
M  V30 404 H 38.9935 4.0652 0.347207 0
M  V30 405 H 37.6685 4.08034 -0.805047 0
M  V30 406 H 36.2455 3.60251 0.962987 0
M  V30 407 N 38.4306 0.297415 1.54768 0
M  V30 408 C 39.3626 -0.613881 2.20826 0
M  V30 409 C 40.3756 -1.10032 1.19987 0
M  V30 410 O 41.5646 -1.01839 1.46598 0
M  V30 411 C 38.6646 -1.852 2.83821 0
M  V30 412 C 37.8376 -1.50865 4.10559 0
M  V30 413 C 36.8966 -2.60154 4.57391 0
M  V30 414 O 35.9226 -2.25398 5.2267 0
M  V30 415 N 37.1246 -3.90629 4.29406 0
M  V30 416 H 39.8896 -0.048389 2.99661 0
M  V30 417 H 37.4506 0.11946 1.61459 0
M  V30 418 H 39.4426 -2.57652 3.12086 0
M  V30 419 H 38.0126 -2.32597 2.08847 0
M  V30 420 H 37.2326 -0.616925 3.89343 0
M  V30 421 H 38.5206 -1.25458 4.9309 0
M  V30 422 H 37.9186 -4.21677 3.77101 0
M  V30 423 H 36.4756 -4.59391 4.62388 0
M  V30 424 N 39.9087 -1.5758 0.0250728 0
M  V30 425 C 41.1577 -1.90811 -0.653767 0
M  V30 426 C 41.4707 -0.90273 -1.73523 0
M  V30 427 O 42.6767 -1.12614 -2.47043 0
M  V30 428 C 41.1327 -3.38804 -1.21409 0
M  V30 429 C 40.7407 -4.47692 -0.166126 0
M  V30 430 C 42.4847 -3.81108 -1.86967 0
M  V30 431 C 40.3917 -5.86779 -0.737856 0
M  V30 432 H 39.3217 -0.712063 -0.247956 0
M  V30 433 H 41.9727 -1.83281 0.0897137 0
M  V30 434 H 40.3547 -3.41252 -2.00905 0
M  V30 435 H 41.5287 -4.56797 0.606079 0
M  V30 436 H 39.8437 -4.14565 0.390466 0
M  V30 437 H 42.4407 -4.82375 -2.30692 0
M  V30 438 H 42.7837 -3.15953 -2.71071 0
M  V30 439 H 43.3167 -3.81065 -1.14167 0
M  V30 440 H 40.0557 -6.55468 0.0649577 0
M  V30 441 H 39.5757 -5.81288 -1.47864 0
M  V30 442 H 41.2547 -6.35223 -1.22884 0
M  V30 443 N 41.3868 0.248026 -1.55636 0
M  V30 444 C 42.6148 0.993808 -1.81469 0
M  V30 445 C 43.0298 1.78991 -0.60064 0
M  V30 446 O 42.3868 1.77345 0.430682 0
M  V30 447 C 42.4378 1.93258 -3.05506 0
M  V30 448 O 42.1588 1.16869 -4.22224 0
M  V30 449 C 43.6598 2.79444 -3.4413 0
M  V30 450 H 40.8798 0.292486 -0.603898 0
M  V30 451 H 43.4238 0.271253 -2.02693 0
M  V30 452 H 41.5788 2.60943 -2.86335 0
M  V30 453 H 41.9928 1.80359 -4.92515 0
M  V30 454 H 43.4668 3.41066 -4.34026 0
M  V30 455 H 43.9438 3.50499 -2.64665 0
M  V30 456 H 44.5498 2.17214 -3.65648 0
M  V30 457 N 42.8649 1.48995 0.513639 0
M  V30 458 C 44.2809 1.35478 0.843682 0
M  V30 459 C 44.4809 0.378213 1.97919 0
M  V30 460 O 43.5369 -0.194689 2.51748 0
M  V30 461 C 44.8499 2.75901 1.1958 0
M  V30 462 C 46.3979 2.84509 1.30474 0
M  V30 463 C 46.8729 4.25671 1.69021 0
M  V30 464 N 48.3639 4.28422 1.76094 0
M  V30 465 C 49.0989 5.34601 2.07338 0
M  V30 466 N 48.5949 6.5104 2.36894 0
M  V30 467 N 50.3879 5.22007 2.08483 0
M  V30 468 H 42.5389 2.11092 -0.235328 0
M  V30 469 H 44.8019 0.947039 -0.0426669 0
M  V30 470 H 44.5079 3.49001 0.434913 0
M  V30 471 H 44.3819 3.10467 2.1422 0
M  V30 472 H 46.7689 2.11655 2.05637 0
M  V30 473 H 46.8499 2.53542 0.339155 0
M  V30 474 H 46.4939 4.99048 0.944135 0
M  V30 475 H 46.4239 4.54094 2.66658 0
M  V30 476 H 48.9149 3.44441 1.55464 0
M  V30 477 H 49.2279 7.2779 2.59887 0
M  V30 478 H 47.5729 6.54287 2.34378 0
M  V30 479 H 50.7639 4.30051 1.84861 0
M  V30 480 H 50.9369 6.04854 2.325 0
M  V30 481 N 44.343 -0.763751 1.37857 0
M  V30 482 C 45.273 -1.89103 1.36975 0
M  V30 483 C 46.254 -1.68439 0.237152 0
M  V30 484 O 47.439 -1.8918 0.438713 0
M  V30 485 C 44.569 -3.26496 1.18395 0
M  V30 486 C 43.523 -3.61741 2.28751 0
M  V30 487 C 42.849 -4.97762 1.95286 0
M  V30 488 C 44.149 -3.67665 3.70972 0
M  V30 489 H 45.843 -1.90099 2.31307 0
M  V30 490 H 43.389 -0.91319 1.11341 0
M  V30 491 H 45.342 -4.05003 1.16406 0
M  V30 492 H 44.066 -3.25955 0.205215 0
M  V30 493 H 42.725 -2.85547 2.29909 0
M  V30 494 H 42.373 -4.93769 0.959221 0
M  V30 495 H 42.073 -5.22313 2.69189 0
M  V30 496 H 43.597 -5.7866 1.94898 0
M  V30 497 H 45.011 -4.36307 3.719 0
M  V30 498 H 43.408 -4.03718 4.43995 0
M  V30 499 H 44.478 -2.68134 4.0402 0
M  V30 500 N 45.8211 -1.22559 -0.990812 0
M  V30 501 C 47.0511 -1.07623 -1.76355 0
M  V30 502 C 47.4591 0.37601 -1.85426 0
M  V30 503 O 46.8021 1.27228 -1.32509 0
M  V30 504 C 46.8641 -1.61507 -3.21179 0
M  V30 505 C 46.5281 -3.10146 -3.35646 0
M  V30 506 C 47.5251 -4.07553 -3.22796 0
M  V30 507 C 45.2101 -3.49644 -3.60631 0
M  V30 508 C 47.2041 -5.42442 -3.34716 0
M  V30 509 C 44.8911 -4.84682 -3.72192 0
M  V30 510 C 45.8891 -5.8089 -3.59243 0
M  V30 511 O 45.5771 -7.13476 -3.70415 0
M  V30 512 H 45.3091 -0.377745 -0.560611 0
M  V30 513 H 47.8631 -1.62658 -1.25425 0
M  V30 514 H 46.0931 -1.00881 -3.73309 0
M  V30 515 H 47.7821 -1.42202 -3.80175 0
M  V30 516 H 48.5481 -3.78381 -3.03403 0
M  V30 517 H 44.4271 -2.75282 -3.69785 0
M  V30 518 H 47.9711 -6.17518 -3.24526 0
M  V30 519 H 43.8681 -5.13534 -3.91092 0
M  V30 520 H 44.6361 -7.21083 -3.87275 0
M  V30 521 N 47.2992 1.18797 -1.03562 0
M  V30 522 C 48.5242 1.9314 -0.755764 0
M  V30 523 C 48.9492 1.7537 0.68022 0
M  V30 524 O 48.3072 1.06046 1.47051 0
M  V30 525 C 48.3552 3.42747 -1.12058 0
M  V30 526 O 47.4592 4.11683 -0.243124 0
M  V30 527 H 46.8002 0.602724 -0.278604 0
M  V30 528 H 49.3302 1.50678 -1.3841 0
M  V30 529 H 49.3402 3.93437 -1.08035 0
M  V30 530 H 48.0152 3.55002 -2.16672 0
M  V30 531 H 46.5922 3.71323 -0.342539 0
M  V30 532 N 48.7773 0.814389 1.34928 0
M  V30 533 C 50.1933 0.499084 1.51596 0
M  V30 534 C 50.3933 -0.978319 1.76157 0
M  V30 535 O 49.4493 -1.76309 1.80752 0
M  V30 536 C 50.7623 1.35121 2.68631 0
M  V30 537 C 52.3103 1.34746 2.82511 0
M  V30 538 C 52.7853 2.18388 4.0258 0
M  V30 539 N 54.2763 2.15966 4.09772 0
M  V30 540 C 55.0113 2.77437 5.01813 0
M  V30 541 N 54.5073 3.47866 5.99134 0
M  V30 542 N 56.3003 2.67037 4.94619 0
M  V30 543 H 48.4513 1.7711 1.17243 0
M  V30 544 H 50.7143 0.754256 0.574284 0
M  V30 545 H 50.4203 2.40001 2.57085 0
M  V30 546 H 50.2943 1.00991 3.63429 0
M  V30 547 H 52.6813 0.30648 2.93504 0
M  V30 548 H 52.7623 1.72869 1.88547 0
M  V30 549 H 52.4063 3.2253 3.92347 0
M  V30 550 H 52.3363 1.77621 4.9574 0
M  V30 551 H 54.8273 1.64729 3.40107 0
M  V30 552 H 55.1403 3.92038 6.65977 0
M  V30 553 H 53.4853 3.51972 5.99284 0
M  V30 554 H 56.6763 2.11597 4.17546 0
M  V30 555 H 56.8493 3.15232 5.66156 0
M  V30 556 N 50.2554 -1.46986 0.568584 0
M  V30 557 C 51.5024 -2.02441 0.0487986 0
M  V30 558 C 51.8304 -1.44169 -1.30559 0
M  V30 559 O 51.0854 -0.591213 -1.86556 0
M  V30 560 C 51.3844 -3.57306 -0.081836 0
M  V30 561 C 51.0504 -4.34552 1.20313 0
M  V30 562 C 49.7124 -4.55376 1.5552 0
M  V30 563 C 52.0644 -4.79016 2.05411 0
M  V30 564 C 49.3924 -5.17913 2.7565 0
M  V30 565 C 51.7444 -5.42879 3.24754 0
M  V30 566 C 50.4084 -5.61933 3.60261 0
M  V30 567 H 49.6784 -0.740785 0.0178567 0
M  V30 568 H 52.3254 -1.76525 0.742384 0
M  V30 569 H 50.6304 -3.8228 -0.858463 0
M  V30 570 H 52.3274 -3.97876 -0.499546 0
M  V30 571 H 48.9174 -4.18631 0.919014 0
M  V30 572 H 53.1014 -4.62696 1.79516 0
M  V30 573 H 48.3574 -5.30858 3.03315 0
M  V30 574 H 52.5314 -5.76293 3.90973 0
M  V30 575 H 50.1584 -6.10161 4.53439 0
M  V30 576 N 51.7335 -0.305618 -1.54608 0
M  V30 577 C 52.9615 0.304775 -2.04643 0
M  V30 578 C 53.3765 1.47167 -1.18268 0
M  V30 579 O 52.7335 1.81296 -0.209328 0
M  V30 580 C 52.7845 0.756564 -3.53495 0
M  V30 581 O 52.5055 -0.36389 -4.36586 0
M  V30 582 C 54.0065 1.43163 -4.19546 0
M  V30 583 H 51.2265 0.0655481 -0.667791 0
M  V30 584 H 53.7705 -0.446592 -1.99564 0
M  V30 585 H 51.9255 1.45794 -3.58919 0
M  V30 586 H 52.3395 -0.0113121 -5.24499 0
M  V30 587 H 53.8135 1.69886 -5.25207 0
M  V30 588 H 54.2905 2.37318 -3.69563 0
M  V30 589 H 54.8965 0.773307 -4.18211 0
M  V30 590 N 53.2116 1.57565 -0.0334293 0
M  V30 591 C 54.4366 1.96689 0.657895 0
M  V30 592 C 54.8616 0.910057 1.64619 0
M  V30 593 O 54.2196 -0.128598 1.80843 0
M  V30 594 C 54.2676 3.34905 1.33683 0
M  V30 595 O 53.3716 3.31574 2.45219 0
M  V30 596 H 52.7126 0.641205 0.172489 0
M  V30 597 H 55.2426 2.04372 -0.0965621 0
M  V30 598 H 55.2526 3.71234 1.69262 0
M  V30 599 H 53.9276 4.11366 0.612411 0
M  V30 600 H 52.5046 3.06968 2.11719 0
M  V30 601 N 54.6897 -0.239769 1.55765 0
M  V30 602 C 55.6197 -1.30052 1.9393 0
M  V30 603 C 56.6007 -1.49839 0.805132 0
M  V30 604 O 57.7857 -1.62328 1.06599 0
M  V30 605 C 54.9157 -2.65391 2.2402 0
M  V30 606 C 53.8697 -2.60289 3.39755 0
M  V30 607 C 53.1957 -3.99489 3.55405 0
M  V30 608 C 54.4957 -2.16654 4.75246 0
M  V30 609 H 56.1897 -0.983573 2.82783 0
M  V30 610 H 53.7357 -0.471701 1.36055 0
M  V30 611 H 55.6887 -3.3974 2.49308 0
M  V30 612 H 54.4127 -2.98736 1.32 0
M  V30 613 H 53.0717 -1.88398 3.14487 0
M  V30 614 H 52.7197 -4.30112 2.60793 0
M  V30 615 H 52.4197 -3.96962 4.33238 0
M  V30 616 H 53.9437 -4.75528 3.83022 0
M  V30 617 H 55.3577 -2.80737 4.99859 0
M  V30 618 H 53.7547 -2.25223 5.56232 0
M  V30 619 H 54.8247 -1.11835 4.71827 0
M  V30 620 N 56.1678 -1.49265 -0.50573 0
M  V30 621 C 57.4448 -1.49012 -1.26707 0
M  V30 622 C 57.8248 -0.215205 -2.1 0
M  V30 623 O 57.1728 0.802547 -2.13943 0
M  V30 624 C 57.3828 -2.7663 -2.12783 0
M  V30 625 C 58.7308 -3.25932 -2.72127 0
M  V30 626 O 59.7548 -2.77715 -2.23054 0
M  V30 627 O 58.6138 -4.09897 -3.61451 0
M  V30 628 H 55.7078 -0.596197 -0.57313 0
M  V30 629 H 58.2538 -1.61524 -0.52039 0
M  V30 630 H 57.0258 -3.60916 -1.5118 0
M  V30 631 H 56.6488 -2.66956 -2.94653 0
M  V30 632 N 57.6459 0.756429 -1.3826 0
M  V30 633 C 58.5929 1.87011 -1.35261 0
M  V30 634 C 59.5629 1.64695 -0.215616 0
M  V30 635 O 60.7479 1.864 -0.407399 0
M  V30 636 C 57.8879 3.24275 -1.18068 0
M  V30 637 C 57.0009 3.58442 -2.41129 0
M  V30 638 C 56.1359 4.84994 -2.16689 0
M  V30 639 C 55.1749 5.11939 -3.35537 0
M  V30 640 N 54.3119 6.29685 -3.10549 0
M  V30 641 H 59.1519 1.8891 -2.30472 0
M  V30 642 H 56.6889 0.923373 -1.14509 0
M  V30 643 H 58.6469 4.03479 -1.06116 0
M  V30 644 H 57.2769 3.21711 -0.264973 0
M  V30 645 H 56.3289 2.74103 -2.63764 0
M  V30 646 H 57.6409 3.74283 -3.29717 0
M  V30 647 H 56.7949 5.72135 -2.01857 0
M  V30 648 H 55.5339 4.71286 -1.25462 0
M  V30 649 H 54.5389 4.23268 -3.50891 0
M  V30 650 H 55.7639 5.27546 -4.27635 0
M  V30 651 H 53.7099 6.17306 -2.21967 0
M  V30 652 H 53.6269 6.46014 -3.92686 0
M  V30 653 H 54.8949 7.19722 -2.99367 0
M  V30 654 N 59.124 1.23083 0.984299 0
M  V30 655 C 60.372 1.05848 1.72165 0
M  V30 656 C 60.693 -0.406049 1.90726 0
M  V30 657 O 59.963 -1.29139 1.47309 0
M  V30 658 H 58.543 0.388685 0.637913 0
M  V30 659 H 61.205 1.54736 1.18503 0
M  V30 660 H 60.301 1.54327 2.71274 0
M  V30 661 N 60.6021 -1.18246 1.0419 0
M  V30 662 C 61.5121 -2.25574 0.644476 0
M  V30 663 C 62.5281 -1.70845 -0.329826 0
M  V30 664 O 63.7041 -2.00554 -0.184443 0
M  V30 665 C 60.7691 -3.46697 0.014877 0
M  V30 666 C 59.8301 -4.16554 1.03834 0
M  V30 667 C 59.0631 -5.31894 0.438692 0
M  V30 668 O 59.2861 -5.65385 -0.754752 0
M  V30 669 O 58.2201 -5.90459 1.168 0
M  V30 670 H 62.0461 -2.61836 1.53869 0
M  V30 671 H 59.6311 -1.25352 0.812854 0
M  V30 672 H 61.5131 -4.20062 -0.335538 0
M  V30 673 H 60.1881 -3.12255 -0.853138 0
M  V30 674 H 59.0951 -3.45251 1.44057 0
M  V30 675 H 60.4281 -4.54998 1.87716 0
M  V30 676 N 62.0802 -0.821533 -1.34494 0
M  V30 677 C 63.0282 -0.230702 -2.31453 0
M  V30 678 C 64.0222 0.627793 -1.57338 0
M  V30 679 O 65.2282 0.519288 -1.72347 0
M  V30 680 H 61.6032 -0.0558577 -0.749923 0
M  V30 681 H 63.5742 -1.06332 -2.78812 0
M  V30 682 C 62.3232 0.59391 -3.4259 0
M  V30 683 H 61.6462 -0.0573588 -3.99759 0
M  V30 684 H 63.0862 0.973446 -4.12674 0
M  V30 685 C 61.5452 1.76568 -2.86924 0
M  V30 686 O 62.0752 2.8638 -2.81691 0
M  V30 687 N 60.2812 1.58198 -2.43766 0
M  V30 688 H 59.8282 0.68872 -2.48222 0
M  V30 689 H 59.7862 2.36752 -2.06871 0
M  V30 690 N 63.5583 1.46682 -0.576371 0
M  V30 691 C 64.8063 2.02013 -0.0594163 0
M  V30 692 C 65.1273 1.45101 1.30271 0
M  V30 693 O 64.3973 0.633317 1.8538 0
M  V30 694 H 62.9773 0.746759 -0.0189745 0
M  V30 695 H 65.6393 1.79862 -0.750717 0
M  V30 696 H 64.7353 3.12097 0.014345 0
M  V30 697 N 65.0364 0.313813 1.54444 0
M  V30 698 C 66.2644 -0.293918 2.04802 0
M  V30 699 C 66.6794 -1.46537 1.19047 0
M  V30 700 O 66.0364 -1.81182 0.218939 0
M  V30 701 C 66.0874 -0.737806 3.53891 0
M  V30 702 O 65.8084 0.387038 4.36387 0
M  V30 703 C 67.3094 -1.40936 4.203 0
M  V30 704 H 64.5294 -0.0620057 0.668129 0
M  V30 705 H 67.0734 0.457169 1.99324 0
M  V30 706 H 65.2284 -1.43889 3.59687 0
M  V30 707 H 65.6424 0.0391274 5.24485 0
M  V30 708 H 67.1164 -1.67099 5.26101 0
M  V30 709 H 67.5934 -2.35355 3.70816 0
M  V30 710 H 68.1994 -0.751117 4.18615 0
M  V30 711 N 66.5145 -1.57545 0.0417849 0
M  V30 712 C 67.4445 -2.14009 -0.933929 0
M  V30 713 C 68.4255 -1.05938 -1.33083 0
M  V30 714 O 69.6105 -1.33833 -1.40721 0
M  V30 715 C 66.7405 -2.67747 -2.21199 0
M  V30 716 C 65.6945 -3.80718 -1.95544 0
M  V30 717 C 65.0205 -4.20935 -3.29724 0
M  V30 718 C 66.3205 -5.06258 -1.28452 0
M  V30 719 H 68.0145 -2.95788 -0.463645 0
M  V30 720 H 65.5605 -1.42285 -0.221573 0
M  V30 721 H 67.5135 -3.05886 -2.89848 0
M  V30 722 H 66.2375 -1.83147 -2.70416 0
M  V30 723 H 64.8965 -3.43037 -1.2931 0
M  V30 724 H 64.5445 -3.33298 -3.76724 0
M  V30 725 H 64.2445 -4.9707 -3.13361 0
M  V30 726 H 65.7685 -4.61666 -3.9962 0
M  V30 727 H 67.1825 -5.41903 -1.8712 0
M  V30 728 H 65.5795 -5.87475 -1.22445 0
M  V30 729 H 66.6495 -4.84207 -0.259219 0
M  V30 730 N 67.9926 0.231505 -1.5589 0
M  V30 731 C 69.2176 0.978689 -1.82856 0
M  V30 732 C 69.6426 1.77559 -0.620846 0
M  V30 733 O 69.0006 1.76119 0.430305 0
M  V30 734 C 69.0486 1.87997 -3.07716 0
M  V30 735 O 68.1526 2.97393 -2.85712 0
M  V30 736 H 67.4936 0.277663 -0.603158 0
M  V30 737 H 70.0236 0.24783 -2.03093 0
M  V30 738 H 70.0336 2.2917 -3.37558 0
M  V30 739 H 68.7086 1.29417 -3.95252 0
M  V30 740 H 67.2856 2.60238 -2.67078 0
M  V30 741 N 69.4707 1.49531 0.497807 0
M  V30 742 C 70.8867 1.36365 0.829266 0
M  V30 743 C 71.0867 0.399184 1.97506 0
M  V30 744 O 70.1427 -0.167977 2.51941 0
M  V30 745 C 71.4557 2.77153 1.16647 0
M  V30 746 C 73.0037 2.85877 1.27449 0
M  V30 747 C 73.4787 4.2744 1.64497 0
M  V30 748 N 74.9697 4.30265 1.7154 0
M  V30 749 C 75.7047 5.3677 2.01656 0
M  V30 750 N 75.2007 6.53516 2.29976 0
M  V30 751 N 76.9937 5.24189 2.02934 0
M  V30 752 H 69.1447 2.10831 -0.257703 0
M  V30 753 H 71.4077 0.946534 -0.0527091 0
M  V30 754 H 71.1137 3.49442 0.397872 0
M  V30 755 H 70.9877 3.12722 2.10915 0
M  V30 756 H 73.3747 2.13824 2.0338 0
M  V30 757 H 73.4557 2.53887 0.312244 0
M  V30 758 H 73.0997 5.00021 0.891151 0
M  V30 759 H 73.0297 4.56896 2.61827 0
M  V30 760 H 75.5207 3.4607 1.51802 0
M  V30 761 H 75.8337 7.30506 2.52153 0
M  V30 762 H 74.1787 6.56737 2.27425 0
M  V30 763 H 77.3697 4.31988 1.80289 0
M  V30 764 H 77.5427 6.07286 2.26071 0
M  V30 765 N 70.9488 -0.749086 1.3866 0
M  V30 766 C 71.8588 -1.89358 1.38494 0
M  V30 767 C 72.8748 -1.71708 0.281476 0
M  V30 768 O 74.0508 -1.94554 0.520643 0
M  V30 769 C 71.1158 -3.24782 1.21316 0
M  V30 770 C 70.1768 -3.54926 2.41508 0
M  V30 771 C 69.4098 -4.83888 2.2514 0
M  V30 772 O 69.6328 -5.56592 1.24746 0
M  V30 773 O 68.5668 -5.13612 3.13826 0
M  V30 774 H 72.3928 -1.92452 2.34938 0
M  V30 775 H 69.9778 -0.894981 1.19626 0
M  V30 776 H 71.8598 -4.05739 1.13814 0
M  V30 777 H 70.5348 -3.2249 0.279592 0
M  V30 778 H 69.4418 -2.74112 2.54585 0
M  V30 779 H 70.7748 -3.61983 3.3351 0
M  V30 780 N 72.4269 -1.23603 -0.977757 0
M  V30 781 C 73.7039 -0.977897 -1.69401 0
M  V30 782 C 74.0839 0.502738 -2.05026 0
M  V30 783 O 73.4319 1.47459 -1.74551 0
M  V30 784 C 73.6419 -1.89077 -2.93345 0
M  V30 785 C 74.9899 -2.15579 -3.65802 0
M  V30 786 O 76.0139 -1.86648 -3.03383 0
M  V30 787 O 74.8729 -2.64658 -4.78141 0
M  V30 788 H 71.9669 -0.369025 -0.740101 0
M  V30 789 H 74.5129 -1.34657 -1.03274 0
M  V30 790 H 73.2849 -2.89158 -2.63634 0
M  V30 791 H 72.9079 -1.52463 -3.67207 0
M  V30 792 N 73.905 1.17692 -1.04816 0
M  V30 793 C 75.152 1.87859 -0.75599 0
M  V30 794 C 75.48 1.80812 0.716752 0
M  V30 795 O 74.735 1.20819 1.53952 0
M  V30 796 C 75.034 3.37462 -1.17703 0
M  V30 797 C 74.7 3.64713 -2.65133 0
M  V30 798 C 73.362 3.71859 -3.05408 0
M  V30 799 C 75.714 3.76492 -3.60421 0
M  V30 800 C 73.042 3.88271 -4.39843 0
M  V30 801 C 75.394 3.94421 -4.94585 0
M  V30 802 C 74.058 3.99806 -5.3452 0
M  V30 803 H 73.328 0.687425 -0.276636 0
M  V30 804 H 75.975 1.39255 -1.31455 0
M  V30 805 H 74.28 3.88097 -0.537395 0
M  V30 806 H 75.977 3.90109 -0.928218 0
M  V30 807 H 72.567 3.59772 -2.32942 0
M  V30 808 H 76.751 3.70295 -3.30447 0
M  V30 809 H 72.007 3.90687 -4.70291 0
M  V30 810 H 76.181 4.02477 -5.68318 0
M  V30 811 H 73.808 4.12276 -6.38696 0
M  V30 812 N 75.3831 0.828654 1.34056 0
M  V30 813 C 76.3151 0.212052 2.28217 0
M  V30 814 C 77.3281 -0.601362 1.51286 0
M  V30 815 O 78.5171 -0.430104 1.73241 0
M  V30 816 C 75.6171 -0.72088 3.31144 0
M  V30 817 C 74.7901 0.0509587 4.3737 0
M  V30 818 C 73.8491 -0.803766 5.20025 0
M  V30 819 O 72.8751 -0.246667 5.68665 0
M  V30 820 N 74.0771 -2.1227 5.40298 0
M  V30 821 H 76.8421 1.02105 2.81771 0
M  V30 822 H 74.4031 0.686153 1.46641 0
M  V30 823 H 76.3951 -1.29742 3.8334 0
M  V30 824 H 74.9651 -1.43061 2.77943 0
M  V30 825 H 74.1851 0.808831 3.85813 0
M  V30 826 H 75.4731 0.582065 5.0546 0
M  V30 827 H 74.8711 -2.59898 5.02464 0
M  V30 828 H 73.4281 -2.64796 5.95589 0
M  V30 829 N 76.8612 -1.46375 0.584142 0
M  V30 830 C 78.2772 -1.57694 0.245929 0
M  V30 831 C 78.4772 -1.57903 -1.25175 0
M  V30 832 O 77.5332 -1.49676 -2.03355 0
M  V30 833 C 78.8462 -2.87028 0.896402 0
M  V30 834 C 80.3942 -3.00662 0.870127 0
M  V30 835 C 80.8692 -4.32734 1.50017 0
M  V30 836 N 82.3602 -4.39436 1.46458 0
M  V30 837 C 83.0952 -5.40248 1.92144 0
M  V30 838 N 82.5912 -6.47726 2.4581 0
M  V30 839 N 84.3842 -5.31459 1.83052 0
M  V30 840 H 76.5352 -1.44483 1.55687 0
M  V30 841 H 78.7982 -0.689291 0.650831 0
M  V30 842 H 78.5042 -2.9269 1.95002 0
M  V30 843 H 78.3782 -3.75014 0.405486 0
M  V30 844 H 80.7652 -2.94581 -0.174871 0
M  V30 845 H 80.8462 -2.14148 1.39908 0
M  V30 846 H 80.4902 -4.39573 2.54437 0
M  V30 847 H 80.4202 -5.18025 0.946432 0
M  V30 848 H 82.9112 -3.62367 1.07231 0
M  V30 849 H 83.2242 -7.20863 2.78525 0
M  V30 850 H 81.5692 -6.48542 2.49836 0
M  V30 851 H 84.7602 -4.46396 1.40883 0
M  V30 852 H 84.9332 -6.09881 2.18973 0
M  V30 853 N 78.3393 -0.321999 -1.54275 0
M  V30 854 C 79.5883 0.281931 -1.9972 0
M  V30 855 C 79.9013 1.53369 -1.21397 0
M  V30 856 O 81.1073 2.21352 -1.57211 0
M  V30 857 C 79.5633 0.5529 -3.55628 0
M  V30 858 C 79.1713 -0.681721 -4.42783 0
M  V30 859 C 80.9153 1.11687 -4.09544 0
M  V30 860 C 78.8223 -0.382742 -5.9016 0
M  V30 861 H 77.7523 0.109124 -0.746062 0
M  V30 862 H 80.4033 -0.43398 -1.78294 0
M  V30 863 H 78.7853 1.32896 -3.73035 0
M  V30 864 H 79.9593 -1.45723 -4.37151 0
M  V30 865 H 78.2743 -1.1658 -3.99748 0
M  V30 866 H 80.8713 1.35515 -5.17242 0
M  V30 867 H 81.2143 2.06575 -3.61431 0
M  V30 868 H 81.7473 0.402032 -3.95763 0
M  V30 869 H 78.4863 -1.30076 -6.42464 0
M  V30 870 H 78.0063 0.355094 -5.98748 0
M  V30 871 H 79.6853 0.00800157 -6.47 0
M  V30 872 N 79.8174 1.5752 -0.0501392 0
M  V30 873 C 81.2284 1.80271 0.485705 0
M  V30 874 C 81.5794 0.96228 1.70981 0
M  V30 875 O 80.7044 0.178578 2.15662 0
M  V30 876 C 81.2994 3.26957 0.887938 0
M  V30 877 C 79.8584 3.5063 1.36877 0
M  V30 878 C 79.0054 2.75165 0.343468 0
M  V30 879 H 81.9564 1.56281 -0.276028 0
M  V30 880 H 81.9774 3.37821 1.75093 0
M  V30 881 H 81.4894 3.881 -0.0031809 0
M  V30 882 H 79.5904 2.94766 2.27911 0
M  V30 883 H 79.7034 4.59343 1.36164 0
M  V30 884 H 78.0674 2.4127 0.816128 0
M  V30 885 H 78.8504 3.39034 -0.539548 0
M  V30 886 N 81.2955 -0.223234 1.56011 0
M  V30 887 C 82.2055 -1.29766 1.95443 0
M  V30 888 C 83.2215 -1.51373 0.858028 0
M  V30 889 O 84.3975 -1.64536 1.16146 0
M  V30 890 C 81.4625 -2.62772 2.26167 0
M  V30 891 C 80.5235 -2.49482 3.49367 0
M  V30 892 C 79.7565 -3.76145 3.78616 0
M  V30 893 O 79.9795 -4.79087 3.09568 0
M  V30 894 O 78.9135 -3.73358 4.72109 0
M  V30 895 H 82.7395 -0.99309 2.87004 0
M  V30 896 H 80.3245 -0.425958 1.43199 0
M  V30 897 H 82.2065 -3.41327 2.47131 0
M  V30 898 H 80.8815 -2.92913 1.37781 0
M  V30 899 H 79.7885 -1.69133 3.33684 0
M  V30 900 H 81.1215 -2.2428 4.38131 0
M  V30 901 N 82.7736 -1.49793 -0.48987 0
M  V30 902 C 83.7036 -1.70201 -1.59856 0
M  V30 903 C 84.6846 -0.55076 -1.60937 0
M  V30 904 O 85.8696 -0.787841 -1.77501 0
M  V30 905 C 82.9996 -1.77882 -2.98287 0
M  V30 906 C 81.9536 -2.92907 -3.12073 0
M  V30 907 C 81.2796 -2.85712 -4.51965 0
M  V30 908 C 82.5796 -4.3369 -2.91051 0
M  V30 909 H 84.2736 -2.63025 -1.43032 0
M  V30 910 H 81.8196 -1.26574 -0.686664 0
M  V30 911 H 83.7726 -1.90744 -3.75759 0
M  V30 912 H 82.4966 -0.816653 -3.16225 0
M  V30 913 H 81.1556 -2.79665 -2.37029 0
M  V30 914 H 80.8036 -1.8738 -4.66795 0
M  V30 915 H 80.5036 -3.62921 -4.62128 0
M  V30 916 H 82.0276 -3.00598 -5.31482 0
M  V30 917 H 83.4416 -4.47555 -3.58284 0
M  V30 918 H 81.8386 -5.12205 -3.12675 0
M  V30 919 H 82.9086 -4.47362 -1.87071 0
M  V30 920 N 84.2517 0.741722 -1.39055 0
M  V30 921 C 85.2147 1.83733 -1.37021 0
M  V30 922 C 86.2147 1.58542 -0.268534 0
M  V30 923 O 87.4047 1.66067 -0.526076 0
M  V30 924 C 84.5367 3.2141 -1.13617 0
M  V30 925 H 85.7297 1.86941 -2.34506 0
M  V30 926 H 83.2827 0.944676 -1.24521 0
M  V30 927 H 84.0177 3.23865 -0.167863 0
M  V30 928 H 83.8027 3.4109 -1.93391 0
M  V30 929 H 85.2927 4.01477 -1.14918 0
M  V30 930 N 85.7298 1.2412 0.971189 0
M  V30 931 C 86.9788 1.07284 1.70801 0
M  V30 932 C 87.2918 -0.388902 1.91695 0
M  V30 933 O 88.4978 -0.677379 2.62914 0
M  V30 934 C 86.9538 1.87145 3.07416 0
M  V30 935 C 86.5618 3.37707 2.94377 0
M  V30 936 C 88.3058 1.78828 3.84995 0
M  V30 937 C 86.2128 4.09925 4.26281 0
M  V30 938 H 85.1428 0.397854 0.64049 0
M  V30 939 H 87.7938 1.4817 1.0825 0
M  V30 940 H 86.1758 1.39071 3.70777 0
M  V30 941 H 87.3498 3.93335 2.4005 0
M  V30 942 H 85.6648 3.46938 2.30267 0
M  V30 943 H 88.2618 2.30089 4.82662 0
M  V30 944 H 88.6048 0.75284 4.09436 0
M  V30 945 H 89.1378 2.24563 3.28354 0
M  V30 946 H 85.8768 5.13813 4.07033 0
M  V30 947 H 85.3968 3.59083 4.80437 0
M  V30 948 H 87.0758 4.1673 4.94919 0
M  V30 949 N 87.2079 -1.17134 1.05439 0
M  V30 950 C 88.1559 -2.23289 0.651511 0
M  V30 951 C 89.1499 -1.66186 -0.328411 0
M  V30 952 O 90.3559 -1.78949 -0.194206 0
M  V30 953 H 86.7309 -0.726938 0.192523 0
M  V30 954 H 88.7019 -2.54565 1.55689 0
M  V30 955 C 87.4509 -3.47671 0.0448436 0
M  V30 956 H 86.7739 -3.91918 0.78996 0
M  V30 957 H 88.2139 -4.2353 -0.19964 0
M  V30 958 C 86.6729 -3.14453 -1.20918 0
M  V30 959 O 87.2029 -3.29459 -2.29825 0
M  V30 960 N 85.4089 -2.68657 -1.10779 0
M  V30 961 H 84.9559 -2.56646 -0.221526 0
M  V30 962 H 84.9139 -2.46804 -1.9477 0
M  V30 963 N 88.686 -0.835752 -1.33615 0
M  V30 964 C 90.097 -0.487099 -1.80234 0
M  V30 965 C 90.448 0.993627 -1.69179 0
M  V30 966 O 89.573 1.77403 -1.23924 0
M  V30 967 C 90.168 -0.877385 -3.27242 0
M  V30 968 C 88.727 -0.580915 -3.7189 0
M  V30 969 C 87.874 -1.0874 -2.5509 0
M  V30 970 H 90.825 -1.02474 -1.2118 0
M  V30 971 H 90.846 -0.186195 -3.80044 0
M  V30 972 H 90.358 -1.95512 -3.35256 0
M  V30 973 H 88.459 0.486881 -3.69405 0
M  V30 974 H 88.572 -1.13396 -4.65487 0
M  V30 975 H 86.936 -0.508392 -2.49575 0
M  V30 976 H 87.719 -2.17184 -2.65868 0
M  V30 977 N 90.1641 1.46063 -0.591896 0
M  V30 978 C 91.0941 2.33172 0.123673 0
M  V30 979 C 92.0751 1.45897 0.87453 0
M  V30 980 O 93.2601 1.74698 0.848181 0
M  V30 981 C 90.3901 3.28336 1.13194 0
M  V30 982 C 89.3441 4.25124 0.495324 0
M  V30 983 C 88.6701 5.09863 1.61071 0
M  V30 984 C 89.9701 5.19143 -0.573425 0
M  V30 985 H 91.6641 2.93252 -0.603646 0
M  V30 986 H 89.2101 1.41014 -0.291741 0
M  V30 987 H 91.1631 3.88137 1.64097 0
M  V30 988 H 89.8871 2.66383 1.88965 0
M  V30 989 H 88.5461 3.66599 0.00729452 0
M  V30 990 H 88.1941 4.44288 2.35832 0
M  V30 991 H 87.8941 5.75417 1.19035 0
M  V30 992 H 89.4181 5.72529 2.12233 0
M  V30 993 H 90.8321 5.73106 -0.1491 0
M  V30 994 H 89.2291 5.93089 -0.914636 0
M  V30 995 H 90.2991 4.62519 -1.45617 0
M  V30 996 N 91.6422 0.330177 1.54103 0
M  V30 997 C 92.8902 -0.269871 2.0029 0
M  V30 998 C 93.2112 -1.52133 1.21986 0
M  V30 999 O 92.4812 -1.93212 0.323438 0
M  V30 1000 H 91.0612 -0.10271 0.739905 0
M  V30 1001 H 93.7232 0.448249 1.89675 0
M  V30 1002 H 92.8192 -0.52166 3.07709 0
M  V30 1003 N 93.1203 -1.57491 0.0584922 0
M  V30 1004 C 94.3973 -1.84346 -0.653918 0
M  V30 1005 C 94.7773 -0.948355 -1.88599 0
M  V30 1006 O 94.1253 -0.0112403 -2.28497 0
M  V30 1007 C 94.3353 -3.34239 -1.00425 0
M  V30 1008 C 95.6833 -4.01431 -1.38342 0
M  V30 1009 O 96.7073 -3.38907 -1.09637 0
M  V30 1010 O 95.5663 -5.11683 -1.91943 0
M  V30 1011 H 92.6603 -0.761112 -0.323478 0
M  V30 1012 H 95.2063 -1.6947 0.0884125 0
M  V30 1013 H 93.9783 -3.91089 -0.128625 0
M  V30 1014 H 93.6013 -3.54329 -1.80378 0
M  V30 1015 N 94.5984 0.214957 -1.56127 0
M  V30 1016 C 96.0144 0.564948 -1.49267 0
M  V30 1017 C 96.2144 1.86827 -0.754838 0
M  V30 1018 O 95.2704 2.50745 -0.297198 0
M  V30 1019 C 96.5834 0.638071 -2.93852 0
M  V30 1020 C 98.1314 0.728253 -3.0441 0
M  V30 1021 C 98.6064 0.832663 -4.50367 0
M  V30 1022 N 100.097 0.896712 -4.54437 0
M  V30 1023 C 100.832 0.997324 -5.6466 0
M  V30 1024 N 100.328 1.06147 -6.8462 0
M  V30 1025 N 102.121 1.03297 -5.52527 0
M  V30 1026 H 94.2724 -0.640211 -2.02522 0
M  V30 1027 H 96.5354 -0.225507 -0.920788 0
M  V30 1028 H 96.2414 -0.250126 -3.50809 0
M  V30 1029 H 96.1154 1.49947 -3.46115 0
M  V30 1030 H 98.5024 1.60689 -2.47514 0
M  V30 1031 H 98.5834 -0.158952 -2.55306 0
M  V30 1032 H 98.2274 -0.0415417 -5.07883 0
M  V30 1033 H 98.1574 1.73538 -4.97184 0
M  V30 1034 H 100.648 0.857188 -3.6805 0
M  V30 1035 H 100.961 1.1382 -7.64372 0
M  V30 1036 H 99.3064 1.03049 -6.87318 0
M  V30 1037 H 102.497 0.979558 -4.57736 0
M  V30 1038 H 102.67 1.10793 -6.38458 0
M  V30 1039 N 96.0765 1.50051 0.48192 0
M  V30 1040 C 97.3255 1.59741 1.23149 0
M  V30 1041 C 97.6385 0.298163 1.93314 0
M  V30 1042 O 98.8445 0.273835 2.70116 0
M  V30 1043 C 97.3005 2.81926 2.23708 0
M  V30 1044 C 96.9085 4.18685 1.59396 0
M  V30 1045 C 98.6525 3.00956 2.99375 0
M  V30 1046 C 96.5595 5.3207 2.58178 0
M  V30 1047 H 95.4895 0.594838 0.46334 0
M  V30 1048 H 98.1405 1.76467 0.503169 0
M  V30 1049 H 96.5225 2.58736 2.99786 0
M  V30 1050 H 97.6965 4.52088 0.891811 0
M  V30 1051 H 96.0115 4.05171 0.960503 0
M  V30 1052 H 98.6085 3.82836 3.73283 0
M  V30 1053 H 98.9515 2.12258 3.58123 0
M  V30 1054 H 99.4845 3.24277 2.30411 0
M  V30 1055 H 96.2235 6.22888 2.04184 0
M  V30 1056 H 95.7435 5.03098 3.26577 0
M  V30 1057 H 97.4225 5.62196 3.20225 0
M  V30 1058 N 97.5546 -0.734337 1.39446 0
M  V30 1059 C 98.8036 -1.48937 1.36017 0
M  V30 1060 C 99.1166 -1.95557 -0.0409005 0
M  V30 1061 O 100.323 -2.70779 -0.19778 0
M  V30 1062 C 98.7786 -2.69125 2.38955 0
M  V30 1063 C 98.3866 -2.29452 3.8478 0
M  V30 1064 C 100.131 -3.46944 2.44603 0
M  V30 1065 C 98.0376 -3.46366 4.79358 0
M  V30 1066 H 96.9676 -0.559296 0.505672 0
M  V30 1067 H 99.6186 -0.800983 1.65095 0
M  V30 1068 H 98.0006 -3.40041 2.02948 0
M  V30 1069 H 99.1746 -1.66077 4.29831 0
M  V30 1070 H 97.4896 -1.64723 3.82433 0
M  V30 1071 H 100.087 -4.33907 3.12456 0
M  V30 1072 H 100.43 -3.89454 1.47076 0
M  V30 1073 H 100.963 -2.83056 2.79507 0
M  V30 1074 H 97.7016 -3.08905 5.78151 0
M  V30 1075 H 97.2216 -4.08719 4.38986 0
M  V30 1076 H 98.9006 -4.12691 4.98292 0
M  V30 1077 N 99.0327 -1.24633 -0.964593 0
M  V30 1078 C 99.9807 -1.03917 -2.08096 0
M  V30 1079 C 100.975 0.0268581 -1.69379 0
M  V30 1080 O 102.181 -0.127952 -1.79545 0
M  V30 1081 H 98.5557 -0.319044 -0.680966 0
M  V30 1082 H 100.527 -1.98581 -2.22729 0
M  V30 1083 C 99.2757 -0.663983 -3.41301 0
M  V30 1084 H 98.5987 -1.47605 -3.71555 0
M  V30 1085 H 100.039 -0.558663 -4.20303 0
M  V30 1086 C 98.4977 0.629169 -3.30973 0
M  V30 1087 O 99.0277 1.67404 -3.65156 0
M  V30 1088 N 97.2337 0.611057 -2.84103 0
M  V30 1089 H 96.7807 -0.239593 -2.56483 0
M  V30 1090 H 96.7387 1.47647 -2.77575 0
M  V30 1091 N 100.511 1.16574 -1.06058 0
M  V30 1092 C 101.474 2.19085 -0.673392 0
M  V30 1093 C 102.474 1.5835 0.279648 0
M  V30 1094 O 103.664 1.74088 0.0623488 0
M  V30 1095 C 100.796 3.40899 0.00954234 0
M  V30 1096 H 101.989 2.54853 -1.58081 0
M  V30 1097 H 99.5418 1.30808 -0.855516 0
M  V30 1098 H 100.277 3.10684 0.929826 0
M  V30 1099 H 100.062 3.86233 -0.67573 0
M  V30 1100 H 101.552 4.1675 0.266245 0
M  V30 1101 N 101.989 0.842826 1.3317 0
M  V30 1102 C 103.236 0.440447 1.97652 0
M  V30 1103 C 103.564 -1.00123 1.6675 0
M  V30 1104 O 102.819 -1.7155 0.941761 0
M  V30 1105 C 103.118 0.612607 3.52111 0
M  V30 1106 C 102.784 2.02297 4.02972 0
M  V30 1107 C 101.446 2.40874 4.16573 0
M  V30 1108 C 103.798 2.94402 4.30089 0
M  V30 1109 C 101.126 3.70852 4.54627 0
M  V30 1110 C 103.478 4.23865 4.69597 0
M  V30 1111 C 102.142 4.62392 4.81404 0
M  V30 1112 H 101.412 0.161171 0.72326 0
M  V30 1113 H 104.059 1.07061 1.58777 0
M  V30 1114 H 102.364 -0.100849 3.9167 0
M  V30 1115 H 104.061 0.2815 4.00011 0
M  V30 1116 H 100.651 1.71338 3.92863 0
M  V30 1117 H 104.835 2.65835 4.19101 0
M  V30 1118 H 100.091 4.00501 4.61962 0
M  V30 1119 H 104.265 4.95306 4.89536 0
M  V30 1120 H 101.892 5.63154 5.10648 0
M  V30 1121 N 103.467 -1.45747 0.599634 0
M  V30 1122 C 104.714 -2.02292 0.0917284 0
M  V30 1123 C 105.042 -1.46906 -1.27472 0
M  V30 1124 O 104.297 -0.630652 -1.8526 0
M  V30 1125 C 104.596 -3.57399 -0.00602758 0
M  V30 1126 C 104.262 -4.31902 1.29503 0
M  V30 1127 C 102.924 -4.51974 1.65144 0
M  V30 1128 C 105.276 -4.74551 2.15525 0
M  V30 1129 C 102.604 -5.11949 2.86574 0
M  V30 1130 C 104.956 -5.35868 3.36196 0
M  V30 1131 C 103.62 -5.54165 3.72099 0
M  V30 1132 H 102.89 -0.740239 0.0335658 0
M  V30 1133 H 105.537 -1.7491 0.779661 0
M  V30 1134 H 103.842 -3.84014 -0.777183 0
M  V30 1135 H 105.539 -3.98846 -0.415038 0
M  V30 1136 H 102.129 -4.16588 1.00761 0
M  V30 1137 H 106.313 -4.58784 1.8929 0
M  V30 1138 H 101.569 -5.24305 3.14507 0
M  V30 1139 H 105.743 -5.6787 4.03109 0
M  V30 1140 H 103.37 -6.00406 4.6628 0
M  V30 1141 N 104.945 -0.338344 -1.53925 0
M  V30 1142 C 106.356 0.146651 -1.86123 0
M  V30 1143 C 106.707 1.5042 -1.2597 0
M  V30 1144 O 105.832 2.08723 -0.571294 0
M  V30 1145 C 106.427 0.272879 -3.37699 0
M  V30 1146 C 104.986 0.702103 -3.69794 0
M  V30 1147 C 104.133 -0.167304 -2.76795 0
M  V30 1148 H 107.084 -0.558123 -1.48562 0
M  V30 1149 H 107.105 1.10128 -3.64214 0
M  V30 1150 H 106.617 -0.715307 -3.81451 0
M  V30 1151 H 104.718 1.6995 -3.31584 0
M  V30 1152 H 104.831 0.495604 -4.7653 0
M  V30 1153 H 103.195 0.359527 -2.5215 0
M  V30 1154 H 103.978 -1.15253 -3.23375 0
M  V30 1155 N 106.423 1.57458 -0.0668435 0
M  V30 1156 C 107.333 2.15937 0.916975 0
M  V30 1157 C 108.349 1.12123 1.33058 0
M  V30 1158 O 109.525 1.44366 1.40429 0
M  V30 1159 C 106.59 2.70547 2.16807 0
M  V30 1160 C 105.651 3.89215 1.81135 0
M  V30 1161 C 104.884 4.41211 3.0028 0
M  V30 1162 O 105.107 3.92225 4.14144 0
M  V30 1163 O 104.041 5.32605 2.80384 0
M  V30 1164 H 107.867 3.00354 0.449561 0
M  V30 1165 H 105.452 1.48584 0.155949 0
M  V30 1166 H 107.334 3.0557 2.90181 0
M  V30 1167 H 106.009 1.89192 2.62656 0
M  V30 1168 H 104.916 3.59054 1.05028 0
M  V30 1169 H 106.249 4.71848 1.40073 0
M  V30 1170 N 107.901 -0.206675 1.56239 0
M  V30 1171 C 109.149 -0.927007 1.79586 0
M  V30 1172 C 109.47 -1.8427 0.637929 0
M  V30 1173 O 108.74 -1.92849 -0.344398 0
M  V30 1174 H 107.32 -0.345292 0.662407 0
M  V30 1175 H 109.982 -0.21496 1.93711 0
M  V30 1176 H 109.078 -1.52501 2.72305 0
M  V30 1177 N 109.379 -1.50304 -0.473955 0
M  V30 1178 C 110.289 -1.7174 -1.5982 0
M  V30 1179 C 111.305 -0.600457 -1.63311 0
M  V30 1180 O 112.481 -0.878441 -1.81233 0
M  V30 1181 C 109.546 -1.80427 -2.96052 0
M  V30 1182 C 108.607 -3.04148 -3.02972 0
M  V30 1183 C 107.84 -3.12411 -4.32706 0
M  V30 1184 O 108.063 -2.27542 -5.23049 0
M  V30 1185 O 106.997 -4.05113 -4.45159 0
M  V30 1186 H 110.823 -2.67035 -1.44657 0
M  V30 1187 H 108.408 -1.34366 -0.653148 0
M  V30 1188 H 110.29 -1.88338 -3.7697 0
M  V30 1189 H 108.965 -0.883156 -3.11419 0
M  V30 1190 H 107.872 -3.0174 -2.21142 0
M  V30 1191 H 109.205 -3.95829 -2.92541 0
M  V30 1192 N 110.857 0.726932 -1.39834 0
M  V30 1193 C 112.134 1.47902 -1.28001 0
M  V30 1194 C 112.514 2.1083 0.106789 0
M  V30 1195 O 111.862 1.99242 1.11869 0
M  V30 1196 C 112.072 2.52392 -2.41038 0
M  V30 1197 C 113.42 3.18546 -2.80737 0
M  V30 1198 O 114.444 2.62708 -2.40547 0
M  V30 1199 O 113.303 4.19604 -3.50135 0
M  V30 1200 H 110.397 0.657163 -0.502062 0
M  V30 1201 H 112.943 0.760071 -1.51727 0
M  V30 1202 H 111.715 2.04329 -3.33715 0
M  V30 1203 H 111.338 3.31837 -2.19021 0
M  V30 1204 N 112.336 1.25143 0.95797 0
M  V30 1205 C 113.268 1.01023 2.05735 0
M  V30 1206 C 114.281 -0.0236902 1.62783 0
M  V30 1207 O 115.47 0.21448 1.77207 0
M  V30 1208 C 112.57 0.504595 3.35122 0
M  V30 1209 C 111.743 1.6039 4.06932 0
M  V30 1210 C 110.802 1.09922 5.14591 0
M  V30 1211 O 109.828 1.79293 5.40225 0
M  V30 1212 N 111.03 -0.0612545 5.80468 0
M  V30 1213 H 113.795 1.95683 2.26998 0
M  V30 1214 H 111.356 1.16303 1.12629 0
M  V30 1215 H 113.348 0.151516 4.04416 0
M  V30 1216 H 111.918 -0.347989 3.10657 0
M  V30 1217 H 111.138 2.12872 3.31782 0
M  V30 1218 H 112.426 2.34252 4.51667 0
M  V30 1219 H 111.824 -0.640985 5.62057 0
M  V30 1220 H 110.381 -0.355395 6.5083 0
M  V30 1221 N 113.814 -1.1601 1.06675 0
M  V30 1222 C 115.06 -1.86909 0.786945 0
M  V30 1223 C 115.393 -1.81717 -0.685018 0
M  V30 1224 O 114.668 -1.23551 -1.50218 0
M  V30 1225 C 114.951 -3.36313 1.28707 0
M  V30 1226 C 114.804 -3.50175 2.82308 0
M  V30 1227 C 116.123 -4.3084 0.898071 0
M  V30 1228 H 113.242 -0.678677 0.287343 0
M  V30 1229 H 115.884 -1.36336 1.32334 0
M  V30 1230 H 114.034 -3.79513 0.830768 0
M  V30 1231 H 115.706 -3.15886 3.36175 0
M  V30 1232 H 113.949 -2.91959 3.20847 0
M  V30 1233 H 114.62 -4.55116 3.12368 0
M  V30 1234 H 117.096 -3.95561 1.29114 0
M  V30 1235 H 115.972 -5.33876 1.27543 0
M  V30 1236 H 116.233 -4.41662 -0.196651 0
M  V30 1237 N 115.292 -0.849877 -1.32721 0
M  V30 1238 C 116.24 -0.279745 -2.30912 0
M  V30 1239 C 117.234 0.594278 -1.58634 0
M  V30 1240 O 118.44 0.482613 -1.73409 0
M  V30 1241 H 114.815 -0.0717521 -0.748569 0
M  V30 1242 H 116.786 -1.12222 -2.76494 0
M  V30 1243 C 115.535 0.521108 -3.43773 0
M  V30 1244 H 114.858 -0.142141 -3.99547 0
M  V30 1245 H 116.298 0.885693 -4.14646 0
M  V30 1246 C 114.757 1.70442 -2.90605 0
M  V30 1247 O 115.287 2.8034 -2.87702 0
M  V30 1248 N 113.493 1.52991 -2.47067 0
M  V30 1249 H 113.04 0.635914 -2.49628 0
M  V30 1250 H 112.998 2.32311 -2.11847 0
M  V30 1251 N 116.77 1.45427 -0.607355 0
M  V30 1252 C 118.017 2.02241 -0.102455 0
M  V30 1253 C 118.345 1.4758 1.26691 0
M  V30 1254 O 117.6 0.640468 1.84923 0
M  V30 1255 C 117.899 3.57398 -0.0129263 0
M  V30 1256 C 117.565 4.3121 -1.31792 0
M  V30 1257 C 116.227 4.51092 -1.67539 0
M  V30 1258 C 118.579 4.73401 -2.18039 0
M  V30 1259 C 115.907 5.10422 -2.89285 0
M  V30 1260 C 118.259 5.34078 -3.39034 0
M  V30 1261 C 116.923 5.52184 -3.75033 0
M  V30 1262 H 116.193 0.740051 -0.037491 0
M  V30 1263 H 118.84 1.74494 -0.788926 0
M  V30 1264 H 117.145 3.84421 0.756806 0
M  V30 1265 H 118.842 3.99061 0.393881 0
M  V30 1266 H 115.432 4.16047 -1.02968 0
M  V30 1267 H 119.616 4.57774 -1.91721 0
M  V30 1268 H 114.872 5.22629 -3.17283 0
M  V30 1269 H 119.046 5.65724 -4.06115 0
M  V30 1270 H 116.673 5.97925 -4.69457 0
M  V30 1271 N 118.248 0.346503 1.53744 0
M  V30 1272 C 119.664 -0.00530975 1.59599 0
M  V30 1273 C 119.864 -1.48465 1.36236 0
M  V30 1274 O 118.92 -2.24376 1.15808 0
M  V30 1275 C 120.233 0.433516 2.97559 0
M  V30 1276 C 121.781 0.386111 3.10609 0
M  V30 1277 C 122.256 0.800451 4.50951 0
M  V30 1278 N 123.747 0.754753 4.5701 0
M  V30 1279 C 124.482 1.04727 5.63755 0
M  V30 1280 N 123.978 1.4081 6.7834 0
M  V30 1281 N 125.771 0.971316 5.53644 0
M  V30 1282 H 117.922 1.31009 1.67184 0
M  V30 1283 H 120.185 0.534242 0.783128 0
M  V30 1284 H 119.891 1.46509 3.19731 0
M  V30 1285 H 119.765 -0.189753 3.76722 0
M  V30 1286 H 122.152 -0.636295 2.88158 0
M  V30 1287 H 122.233 1.04462 2.33498 0
M  V30 1288 H 121.877 1.82088 4.74137 0
M  V30 1289 H 121.807 0.119386 5.26465 0
M  V30 1290 H 124.298 0.488662 3.74727 0
M  V30 1291 H 124.611 1.61607 7.55714 0
M  V30 1292 H 122.956 1.44657 6.79779 0
M  V30 1293 H 126.147 0.688748 4.63005 0
M  V30 1294 H 126.32 1.20263 6.36742 0
M  V30 1295 N 119.726 -1.57421 0.075193 0
M  V30 1296 C 120.974 -1.93236 -0.591974 0
M  V30 1297 C 121.295 -0.956241 -1.69944 0
M  V30 1298 O 120.565 -0.00494792 -1.95899 0
M  V30 1299 H 119.145 -0.713355 -0.22166 0
M  V30 1300 H 121.807 -1.9444 0.133848 0
M  V30 1301 H 120.903 -2.95131 -1.01509 0
M  V30 1302 N 121.204 0.198386 -1.56346 0
M  V30 1303 C 122.451 0.919286 -1.80431 0
M  V30 1304 C 122.779 1.83393 -0.647866 0
M  V30 1305 O 122.034 1.92236 0.366556 0
M  V30 1306 C 122.333 1.77031 -3.10475 0
M  V30 1307 C 121.999 1.00693 -4.39513 0
M  V30 1308 C 120.661 0.796145 -4.74568 0
M  V30 1309 C 123.013 0.469559 -5.19081 0
M  V30 1310 C 120.341 0.0364588 -5.86689 0
M  V30 1311 C 122.693 -0.2769 -6.31994 0
M  V30 1312 C 121.357 -0.49873 -6.65634 0
M  V30 1313 H 120.627 0.336391 -0.660244 0
M  V30 1314 H 123.274 0.185872 -1.90596 0
M  V30 1315 H 121.579 2.5723 -2.95533 0
M  V30 1316 H 123.276 2.33065 -3.26315 0
M  V30 1317 H 119.866 1.18122 -4.12001 0
M  V30 1318 H 124.05 0.619816 -4.92414 0
M  V30 1319 H 119.306 -0.145412 -6.11227 0
M  V30 1320 H 123.48 -0.700684 -6.92866 0
M  V30 1321 H 121.107 -1.0893 -7.52355 0
M  V30 1322 N 122.682 1.50554 0.465978 0
M  V30 1323 C 123.615 1.64436 1.58227 0
M  V30 1324 C 124.593 0.492367 1.54966 0
M  V30 1325 O 125.777 0.712536 1.74514 0
M  V30 1326 C 122.904 1.63165 2.96808 0
M  V30 1327 C 121.95 2.83987 3.18204 0
M  V30 1328 S 122.783 4.45219 2.97557 0
M  V30 1329 C 123.939 4.46649 4.3847 0
M  V30 1330 H 124.172 2.58861 1.46213 0
M  V30 1331 H 121.705 1.3988 0.653678 0
M  V30 1332 H 123.663 1.63116 3.76701 0
M  V30 1333 H 122.324 0.69967 3.06208 0
M  V30 1334 H 121.517 2.79416 4.19455 0
M  V30 1335 H 121.119 2.81629 2.46092 0
M  V30 1336 H 123.411 4.20526 5.31191 0
M  V30 1337 H 124.354 5.48295 4.48082 0
M  V30 1338 H 124.762 3.76296 4.20787 0
M  V30 1339 N 124.16 -0.719506 1.40217 0
M  V30 1340 C 125.576 -1.02707 1.22161 0
M  V30 1341 C 125.776 -2.0128 0.0940557 0
M  V30 1342 O 124.832 -2.46452 -0.549318 0
M  V30 1343 C 126.145 -1.57454 2.56181 0
M  V30 1344 C 127.693 -1.69458 2.63159 0
M  V30 1345 C 128.168 -2.27611 3.97438 0
M  V30 1346 N 129.659 -2.35002 3.99159 0
M  V30 1347 C 130.394 -2.80972 4.99842 0
M  V30 1348 N 129.89 -3.26723 6.10921 0
M  V30 1349 N 131.683 -2.80321 4.87213 0
M  V30 1350 H 123.834 -0.0660492 2.12297 0
M  V30 1351 H 126.097 -0.0919077 0.943534 0
M  V30 1352 H 125.803 -0.924873 3.39321 0
M  V30 1353 H 125.677 -2.56036 2.76993 0
M  V30 1354 H 128.064 -2.33543 1.80393 0
M  V30 1355 H 128.145 -0.694867 2.46181 0
M  V30 1356 H 127.789 -1.6415 4.80643 0
M  V30 1357 H 127.719 -3.2829 4.11744 0
M  V30 1358 H 130.21 -2.02685 3.18947 0
M  V30 1359 H 130.523 -3.60355 6.8364 0
M  V30 1360 H 128.868 -3.24692 6.14492 0
M  V30 1361 H 132.059 -2.43912 3.9953 0
M  V30 1362 H 132.232 -3.15831 5.65822 0
M  V30 1363 N 125.638 -1.25649 -0.95132 0
M  V30 1364 C 126.866 -1.13343 -1.73092 0
M  V30 1365 C 127.281 0.312434 -1.86197 0
M  V30 1366 O 126.638 1.21465 -1.36207 0
M  V30 1367 C 126.689 -1.78602 -3.14299 0
M  V30 1368 O 126.41 -3.17537 -3.01831 0
M  V30 1369 C 127.911 -1.72119 -4.08522 0
M  V30 1370 H 125.131 -0.395181 -0.542285 0
M  V30 1371 H 127.675 -1.66076 -1.19328 0
M  V30 1372 H 125.83 -1.29832 -3.64996 0
M  V30 1373 H 126.244 -3.49676 -3.90931 0
M  V30 1374 H 127.718 -2.22435 -5.052 0
M  V30 1375 H 128.195 -0.685635 -4.33815 0
M  V30 1376 H 128.801 -2.20393 -3.63741 0
M  V30 1377 N 127.117 1.15442 -1.07289 0
M  V30 1378 C 128.047 2.22312 -0.714107 0
M  V30 1379 C 129.028 1.67467 0.298155 0
M  V30 1380 O 130.213 1.93445 0.171048 0
M  V30 1381 C 127.343 3.47124 -0.110448 0
M  V30 1382 C 126.297 4.14926 -1.04979 0
M  V30 1383 C 125.623 5.33807 -0.308924 0
M  V30 1384 C 126.923 4.64762 -2.38314 0
M  V30 1385 H 128.617 2.5258 -1.6076 0
M  V30 1386 H 126.163 1.21404 -0.77441 0
M  V30 1387 H 128.116 4.21124 0.152482 0
M  V30 1388 H 126.84 3.16187 0.81812 0
M  V30 1389 H 125.499 3.42866 -1.29764 0
M  V30 1390 H 125.147 4.99126 0.623084 0
M  V30 1391 H 124.847 5.80113 -0.935036 0
M  V30 1392 H 126.371 6.10576 -0.0537771 0
M  V30 1393 H 127.785 5.30292 -2.1786 0
M  V30 1394 H 126.182 5.21728 -2.96514 0
M  V30 1395 H 127.252 3.80434 -3.00663 0
M  V30 1396 N 128.595 0.856903 1.32268 0
M  V30 1397 C 129.558 0.308171 2.27119 0
M  V30 1398 C 130.558 -0.533421 1.51695 0
M  V30 1399 O 131.748 -0.344607 1.70757 0
M  V30 1400 C 128.88 -0.563757 3.36206 0
M  V30 1401 H 130.073 1.14535 2.77167 0
M  V30 1402 H 127.626 0.631421 1.42978 0
M  V30 1403 H 128.361 -1.42266 2.91429 0
M  V30 1404 H 128.146 0.0386749 3.92081 0
M  V30 1405 H 129.636 -0.940386 4.06874 0
M  V30 1406 N 130.073 -1.45103 0.615059 0
M  V30 1407 C 131.023 -2.27679 -0.120966 0
M  V30 1408 C 132.007 -1.3775 -0.831491 0
M  V30 1409 O 133.199 -1.61683 -0.720249 0
M  V30 1410 C 130.328 -3.24767 -1.1127 0
M  V30 1411 C 129.414 -4.22184 -0.402627 0
M  V30 1412 N 129.805 -5.02692 0.559884 0
M  V30 1413 C 128.103 -4.4125 -0.649202 0
M  V30 1414 C 128.804 -5.73421 0.977942 0
M  V30 1415 N 127.78 -5.42657 0.320104 0
M  V30 1416 H 131.582 -2.87325 0.618181 0
M  V30 1417 H 129.096 -1.56345 0.439304 0
M  V30 1418 H 131.093 -3.82666 -1.65446 0
M  V30 1419 H 129.753 -2.66682 -1.85232 0
M  V30 1420 H 130.764 -5.09354 0.936976 0
M  V30 1421 H 127.441 -3.9428 -1.37293 0
M  V30 1422 H 128.831 -6.48107 1.77222 0
M  V30 1423 N 131.551 -0.354651 -1.53558 0
M  V30 1424 C 132.798 0.238443 -2.01091 0
M  V30 1425 C 133.126 1.49663 -1.24222 0
M  V30 1426 O 132.381 1.93049 -0.321003 0
M  V30 1427 C 132.68 0.587121 -3.52545 0
M  V30 1428 C 132.346 -0.575472 -4.47213 0
M  V30 1429 C 131.008 -0.894497 -4.72813 0
M  V30 1430 C 133.36 -1.35489 -5.03281 0
M  V30 1431 C 130.688 -1.99511 -5.51736 0
M  V30 1432 C 133.04 -2.44583 -5.83405 0
M  V30 1433 C 131.704 -2.77033 -6.07296 0
M  V30 1434 H 130.974 0.0872526 -0.735845 0
M  V30 1435 H 133.621 -0.484859 -1.8526 0
M  V30 1436 H 131.926 1.39129 -3.66265 0
M  V30 1437 H 133.623 1.05809 -3.86789 0
M  V30 1438 H 130.213 -0.316774 -4.27428 0
M  V30 1439 H 134.397 -1.12167 -4.83459 0
M  V30 1440 H 129.653 -2.25063 -5.68469 0
M  V30 1441 H 133.827 -3.05401 -6.25862 0
M  V30 1442 H 131.454 -3.6244 -6.68237 0
M  V30 1443 N 133.029 1.57378 -0.0835403 0
M  V30 1444 C 134.445 1.57246 0.273109 0
M  V30 1445 C 134.645 1.09385 1.69225 0
M  V30 1446 O 133.701 0.765051 2.40631 0
M  V30 1447 C 135.014 3.00614 0.0720628 0
M  V30 1448 C 136.562 3.12684 0.1407 0
M  V30 1449 C 137.037 4.57989 -0.0322094 0
M  V30 1450 N 138.528 4.63194 0.0230085 0
M  V30 1451 C 139.263 5.73335 -0.0861941 0
M  V30 1452 N 138.759 6.9235 -0.24958 0
M  V30 1453 N 140.552 5.62093 -0.0282886 0
M  V30 1454 H 132.703 1.86801 -1.0109 0
M  V30 1455 H 134.966 0.861687 -0.395222 0
M  V30 1456 H 134.672 3.39786 -0.907662 0
M  V30 1457 H 134.546 3.68193 0.81936 0
M  V30 1458 H 136.933 2.73391 1.11092 0
M  V30 1459 H 137.014 2.47719 -0.637896 0
M  V30 1460 H 136.658 4.97973 -0.999247 0
M  V30 1461 H 136.588 5.21 0.765937 0
M  V30 1462 H 139.079 3.77613 0.14722 0
M  V30 1463 H 139.392 7.72117 -0.324733 0
M  V30 1464 H 137.737 6.94415 -0.285097 0
M  V30 1465 H 140.928 4.67997 0.0981408 0
M  V30 1466 H 141.101 6.47895 -0.116845 0
M  V30 1467 N 134.507 -0.190092 1.56449 0
M  V30 1468 C 135.918 -0.754312 1.70784 0
M  V30 1469 C 136.269 -1.83631 0.690951 0
M  V30 1470 O 135.394 -2.15868 -0.151604 0
M  V30 1471 C 135.989 -1.37503 3.09642 0
M  V30 1472 C 134.548 -1.88628 3.25725 0
M  V30 1473 C 133.695 -0.758098 2.66736 0
M  V30 1474 H 136.646 0.0350524 1.58661 0
M  V30 1475 H 136.667 -2.2445 3.0725 0
M  V30 1476 H 136.179 -0.587302 3.83631 0
M  V30 1477 H 134.28 -2.70103 2.56661 0
M  V30 1478 H 134.393 -2.04462 4.3328 0
M  V30 1479 H 132.757 -1.17369 2.26046 0
M  V30 1480 H 133.54 0.0174705 3.43296 0
M  V30 1481 N 135.985 -1.50799 -0.457987 0
M  V30 1482 C 137.234 -1.6168 -1.20593 0
M  V30 1483 C 137.547 -0.32888 -1.92815 0
M  V30 1484 O 138.753 -0.316773 -2.69646 0
M  V30 1485 C 137.209 -2.8545 -2.19195 0
M  V30 1486 C 136.817 -4.21168 -1.52715 0
M  V30 1487 C 138.561 -3.05681 -2.94549 0
M  V30 1488 C 136.468 -5.3611 -2.4968 0
M  V30 1489 H 135.398 -0.602134 -0.453818 0
M  V30 1490 H 138.049 -1.77245 -0.475031 0
M  V30 1491 H 136.431 -2.63472 -2.95632 0
M  V30 1492 H 137.605 -4.53449 -0.819775 0
M  V30 1493 H 135.92 -4.06648 -0.895922 0
M  V30 1494 H 138.517 -3.88727 -3.67145 0
M  V30 1495 H 138.86 -2.17929 -3.54701 0
M  V30 1496 H 139.393 -3.27901 -2.25223 0
M  V30 1497 H 136.132 -6.26057 -1.94249 0
M  V30 1498 H 135.652 -5.0823 -3.18532 0
M  V30 1499 H 137.331 -5.6722 -3.11241 0
M  V30 1500 N 137.463 0.71206 -1.40597 0
M  V30 1501 C 138.373 1.8562 -1.43466 0
M  V30 1502 C 139.389 1.70902 -0.326902 0
M  V30 1503 O 140.565 1.93105 -0.572043 0
M  V30 1504 C 137.63 3.21451 -1.29884 0
M  V30 1505 C 136.691 3.48398 -2.50833 0
M  V30 1506 C 135.924 4.77749 -2.3789 0
M  V30 1507 O 136.147 5.53089 -1.39459 0
M  V30 1508 O 135.081 5.05111 -3.27333 0
M  V30 1509 H 138.907 1.86155 -2.39958 0
M  V30 1510 H 136.492 0.86295 -1.21957 0
M  V30 1511 H 138.374 4.02579 -1.24531 0
M  V30 1512 H 137.049 3.21636 -0.364997 0
M  V30 1513 H 135.956 2.67265 -2.61763 0
M  V30 1514 H 137.289 3.53014 -3.4299 0
M  V30 1515 N 138.941 1.26152 0.944643 0
M  V30 1516 C 140.218 1.02247 1.66748 0
M  V30 1517 C 140.598 -0.448202 2.06287 0
M  V30 1518 O 139.946 -1.42779 1.78399 0
M  V30 1519 C 140.156 1.96788 2.88228 0
M  V30 1520 C 141.504 2.25201 3.59958 0
M  V30 1521 O 142.528 1.94626 2.98327 0
M  V30 1522 O 141.387 2.77242 4.70956 0
M  V30 1523 H 138.481 0.388517 0.730057 0
M  V30 1524 H 141.027 1.37348 0.99668 0
M  V30 1525 H 139.799 2.96047 2.55875 0
M  V30 1526 H 139.422 1.62145 3.63035 0
M  V30 1527 N 140.419 -1.14872 1.07899 0
M  V30 1528 C 141.367 -2.21857 0.698727 0
M  V30 1529 C 142.361 -1.66845 -0.293086 0
M  V30 1530 O 143.567 -1.79321 -0.156204 0
M  V30 1531 H 139.942 -0.722691 0.207899 0
M  V30 1532 H 141.913 -2.51205 1.61054 0
M  V30 1533 C 140.662 -3.47498 0.11858 0
M  V30 1534 H 139.985 -3.90154 0.872914 0
M  V30 1535 H 141.425 -4.23858 -0.109759 0
M  V30 1536 C 139.884 -3.16947 -1.1422 0
M  V30 1537 O 140.414 -3.3426 -2.22785 0
M  V30 1538 N 138.62 -2.70946 -1.05055 0
M  V30 1539 H 138.167 -2.57058 -0.167038 0
M  V30 1540 H 138.125 -2.50879 -1.89491 0
M  V30 1541 N 141.898 -0.863906 -1.31812 0
M  V30 1542 C 142.808 -0.318461 -2.32428 0
M  V30 1543 C 143.824 0.568496 -1.64451 0
M  V30 1544 O 145 0.46666 -1.95919 0
M  V30 1545 C 142.065 0.476355 -3.43412 0
M  V30 1546 C 141.126 -0.43784 -4.27061 0
M  V30 1547 C 140.359 0.319138 -5.32745 0
M  V30 1548 O 140.582 1.54799 -5.48993 0
M  V30 1549 O 139.516 -0.319861 -6.01049 0
M  V30 1550 H 143.342 -1.15229 -2.80991 0
M  V30 1551 H 140.927 -0.627103 -1.35602 0
M  V30 1552 H 142.809 0.927156 -4.11074 0
M  V30 1553 H 141.484 1.28683 -2.97022 0
M  V30 1554 H 140.391 -0.937013 -3.62175 0
M  V30 1555 H 141.724 -1.21375 -4.77 0
M  V30 1556 N 143.376 1.44774 -0.622745 0
M  V30 1557 C 144.323 2.30635 0.0871679 0
M  V30 1558 C 145.293 1.42994 0.845097 0
M  V30 1559 O 146.478 1.71907 0.827812 0
M  V30 1560 C 143.618 3.28144 1.06844 0
M  V30 1561 C 142.731 4.30888 0.309809 0
M  V30 1562 C 141.866 5.15494 1.28215 0
M  V30 1563 C 140.905 6.09953 0.512198 0
M  V30 1564 N 140.042 6.87287 1.43458 0
M  V30 1565 H 144.882 2.90803 -0.650974 0
M  V30 1566 H 142.419 1.43286 -0.33281 0
M  V30 1567 H 144.377 3.83157 1.65066 0
M  V30 1568 H 143.007 2.69695 1.77382 0
M  V30 1569 H 142.059 3.78414 -0.388181 0
M  V30 1570 H 143.371 4.97955 -0.290254 0
M  V30 1571 H 142.525 5.74983 1.93596 0
M  V30 1572 H 141.264 4.48481 1.91614 0
M  V30 1573 H 140.269 5.49581 -0.155151 0
M  V30 1574 H 141.494 6.78999 -0.116958 0
M  V30 1575 H 139.44 6.2295 2.05594 0
M  V30 1576 H 139.357 7.50763 0.888335 0
M  V30 1577 H 140.625 7.51306 2.07749 0
M  V30 1578 N 144.854 0.36279 1.53368 0
M  V30 1579 C 146.079 -0.231226 2.06107 0
M  V30 1580 C 146.504 -1.419 1.23474 0
M  V30 1581 O 145.862 -1.79524 0.253128 0
M  V30 1582 C 145.91 -0.605523 3.5548 0
M  V30 1583 O 145.014 -1.70312 3.7559 0
M  V30 1584 H 144.355 -0.034327 0.663112 0
M  V30 1585 H 146.885 0.522584 1.97814 0
M  V30 1586 H 146.895 -0.877314 3.98456 0
M  V30 1587 H 145.57 0.263004 4.15068 0
M  V30 1588 H 144.147 -1.4271 3.44512 0
M  V30 1589 N 146.332 -1.57332 0.0918853 0
M  V30 1590 C 147.279 -2.13847 -0.868211 0
M  V30 1591 C 148.249 -1.05618 -1.28196 0
M  V30 1592 O 149.434 -1.33387 -1.36427 0
M  V30 1593 C 146.574 -2.72062 -2.12312 0
M  V30 1594 C 145.687 -3.94514 -1.7602 0
M  V30 1595 C 144.822 -4.40903 -2.96273 0
M  V30 1596 C 143.861 -5.55953 -2.56092 0
M  V30 1597 N 142.998 -5.97209 -3.69169 0
M  V30 1598 H 147.838 -2.95575 -0.379406 0
M  V30 1599 H 145.375 -1.46048 -0.175606 0
M  V30 1600 H 147.333 -3.03931 -2.858 0
M  V30 1601 H 145.963 -1.93068 -2.58698 0
M  V30 1602 H 145.015 -3.68979 -0.925135 0
M  V30 1603 H 146.327 -4.7802 -1.42472 0
M  V30 1604 H 145.481 -4.74539 -3.78018 0
M  V30 1605 H 144.22 -3.56291 -3.33029 0
M  V30 1606 H 143.225 -5.21948 -1.72773 0
M  V30 1607 H 144.45 -6.42311 -2.20484 0
M  V30 1608 H 142.396 -5.15543 -4.05649 0
M  V30 1609 H 142.313 -6.75504 -3.39456 0
M  V30 1610 H 143.581 -6.35475 -4.51434 0
M  V30 1611 N 147.81 0.181792 -1.56548 0
M  V30 1612 C 149.087 0.926765 -1.72251 0
M  V30 1613 C 149.467 2.00831 -0.650386 0
M  V30 1614 O 148.815 2.26008 0.336521 0
M  V30 1615 C 149.025 1.50106 -3.1507 0
M  V30 1616 C 150.373 1.97805 -3.75711 0
M  V30 1617 O 151.397 1.59922 -3.18282 0
M  V30 1618 O 150.256 2.67555 -4.76525 0
M  V30 1619 H 147.35 0.435506 -0.703039 0
M  V30 1620 H 149.896 0.170443 -1.68842 0
M  V30 1621 H 148.668 0.72212 -3.84579 0
M  V30 1622 H 148.291 2.32186 -3.22763 0
M  V30 1623 N 149.288 1.51039 0.449983 0
M  V30 1624 C 150.534 1.63322 1.20223 0
M  V30 1625 C 150.867 0.34241 1.91158 0
M  V30 1626 O 150.142 -0.657344 1.83055 0
M  V30 1627 C 150.425 2.82801 2.22925 0
M  V30 1628 C 150.278 4.21823 1.56157 0
M  V30 1629 C 151.597 2.97807 3.24035 0
M  V30 1630 H 148.716 0.594407 0.435718 0
M  V30 1631 H 151.358 1.83489 0.493136 0
M  V30 1632 H 149.508 2.65738 2.834 0
M  V30 1633 H 151.18 4.50526 0.991162 0
M  V30 1634 H 149.423 4.25105 0.864172 0
M  V30 1635 H 150.094 5.01391 2.30891 0
M  V30 1636 H 152.57 3.13497 2.73603 0
M  V30 1637 H 151.446 3.82992 3.93202 0
M  V30 1638 H 151.707 2.09328 3.89402 0
M  V30 1639 N 150.766 -0.704594 1.40972 0
M  V30 1640 C 151.714 -1.83994 1.42299 0
M  V30 1641 C 152.708 -1.66684 0.302111 0
M  V30 1642 O 153.914 -1.73655 0.473697 0
M  V30 1643 H 150.289 -0.606171 0.44504 0
M  V30 1644 H 152.26 -1.79992 2.38003 0
M  V30 1645 C 151.009 -3.21946 1.31323 0
M  V30 1646 H 150.332 -3.35878 2.16855 0
M  V30 1647 H 151.772 -4.01491 1.36311 0
M  V30 1648 C 150.231 -3.36891 0.0245977 0
M  V30 1649 O 150.761 -3.90687 -0.934153 0
M  V30 1650 N 148.967 -2.90559 -0.0485243 0
M  V30 1651 H 148.514 -2.46968 0.732419 0
M  V30 1652 H 148.472 -3.00937 -0.910171 0
M  V30 1653 N 152.244 -1.26651 -0.937939 0
M  V30 1654 C 153.492 -1.12165 -1.68118 0
M  V30 1655 C 153.813 0.334983 -1.92101 0
M  V30 1656 O 153.083 1.23583 -1.52 0
M  V30 1657 H 151.663 -0.412093 -0.623048 0
M  V30 1658 H 154.325 -1.59027 -1.12678 0
M  V30 1659 H 153.421 -1.64289 -2.6536 0
M  V30 1660 N 153.722 1.14298 -1.08507 0
M  V30 1661 C 155.133 1.66926 -0.836227 0
M  V30 1662 C 155.484 1.85576 0.63686 0
M  V30 1663 O 154.609 1.56767 1.49175 0
M  V30 1664 C 155.204 3.03219 -1.51142 0
M  V30 1665 C 153.763 3.52876 -1.30979 0
M  V30 1666 C 152.91 2.2833 -1.57356 0
M  V30 1667 H 155.861 0.983491 -1.24552 0
M  V30 1668 H 155.882 3.68726 -0.939211 0
M  V30 1669 H 155.394 2.89612 -2.58353 0
M  V30 1670 H 153.495 3.71703 -0.258429 0
M  V30 1671 H 153.608 4.33586 -2.03814 0
M  V30 1672 H 151.972 2.34454 -0.995164 0
M  V30 1673 H 152.755 2.17298 -2.65775 0
M  V30 1674 N 155.201 0.870884 1.31352 0
M  V30 1675 C 156.111 0.330783 2.32256 0
M  V30 1676 C 157.127 -0.559767 1.6475 0
M  V30 1677 O 158.303 -0.456263 1.96164 0
M  V30 1678 C 155.368 -0.458137 3.4366 0
M  V30 1679 C 154.429 0.460482 4.26823 0
M  V30 1680 C 153.662 -0.290881 5.32907 0
M  V30 1681 O 153.885 -1.51885 5.49806 0
M  V30 1682 O 152.819 0.351732 6.00871 0
M  V30 1683 H 156.645 1.16718 2.80376 0
M  V30 1684 H 154.23 0.634285 1.35267 0
M  V30 1685 H 156.112 -0.905343 4.1156 0
M  V30 1686 H 154.787 -1.27106 2.97701 0
M  V30 1687 H 153.694 0.956207 3.61673 0
M  V30 1688 H 155.027 1.23903 4.7635 0
M  V30 1689 N 156.679 -1.44442 0.630414 0
M  V30 1690 C 158.09 -1.85434 0.217063 0
M  V30 1691 C 158.441 -1.52748 -1.23136 0
M  V30 1692 O 157.566 -0.965205 -1.93682 0
M  V30 1693 C 158.161 -3.36581 0.387168 0
M  V30 1694 C 156.72 -3.76389 0.0283297 0
M  V30 1695 C 155.867 -2.68296 0.700889 0
M  V30 1696 H 158.818 -1.34919 0.83562 0
M  V30 1697 H 158.839 -3.78657 -0.374086 0
M  V30 1698 H 158.351 -3.60339 1.44144 0
M  V30 1699 H 156.452 -3.58246 -1.02423 0
M  V30 1700 H 156.565 -4.77095 0.437892 0
M  V30 1701 H 154.929 -2.54335 0.136267 0
M  V30 1702 H 155.712 -2.94887 1.75774 0
M  V30 1703 N 158.157 -0.370918 -1.53173 0
M  V30 1704 C 159.087 0.464847 -2.28826 0
M  V30 1705 C 160.068 1.07936 -1.31468 0
M  V30 1706 O 161.253 1.0956 -1.60344 0
M  V30 1707 C 158.383 1.60196 -3.08147 0
M  V30 1708 C 157.337 1.11443 -4.13237 0
M  V30 1709 C 156.663 2.3422 -4.80672 0
M  V30 1710 C 157.963 0.195384 -5.21934 0
M  V30 1711 H 159.657 -0.166329 -2.98938 0
M  V30 1712 H 157.203 -0.0814359 -1.4377 0
M  V30 1713 H 159.156 2.19332 -3.59822 0
M  V30 1714 H 157.88 2.26045 -2.35735 0
M  V30 1715 H 156.539 0.545727 -3.62515 0
M  V30 1716 H 156.187 2.98537 -4.04827 0
M  V30 1717 H 155.887 2.02269 -5.51689 0
M  V30 1718 H 157.411 2.94032 -5.35143 0
M  V30 1719 H 158.825 0.694375 -5.69079 0
M  V30 1720 H 157.222 -0.0335027 -6.00091 0
M  V30 1721 H 158.292 -0.760961 -4.78892 0
M  V30 1722 N 159.635 1.57281 -0.100228 0
M  V30 1723 C 160.583 2.15542 0.874328 0
M  V30 1724 C 161.577 1.09962 1.28859 0
M  V30 1725 O 162.783 1.28298 1.26252 0
M  V30 1726 H 159.158 0.689567 0.300003 0
M  V30 1727 H 161.129 2.96241 0.35829 0
M  V30 1728 C 159.878 2.75454 2.1218 0
M  V30 1729 H 159.201 3.56384 1.81193 0
M  V30 1730 H 160.641 3.19781 2.78417 0
M  V30 1731 C 159.1 1.71602 2.89921 0
M  V30 1732 O 159.63 1.15804 3.84646 0
M  V30 1733 N 157.836 1.41975 2.53558 0
M  V30 1734 H 157.383 1.87539 1.76598 0
M  V30 1735 H 157.341 0.727274 3.05873 0
M  V30 1736 N 161.113 -0.173488 1.56642 0
M  V30 1737 C 162.338 -0.910149 1.86363 0
M  V30 1738 C 162.763 -1.75132 0.686318 0
M  V30 1739 O 162.121 -1.77595 -0.364643 0
M  V30 1740 C 162.169 -1.76447 3.14482 0
M  V30 1741 O 161.273 -2.86584 2.96553 0
M  V30 1742 H 160.614 -0.255086 0.613047 0
M  V30 1743 H 163.144 -0.172283 2.03873 0
M  V30 1744 H 163.154 -2.16483 3.45831 0
M  V30 1745 H 161.829 -1.14658 3.99783 0
M  V30 1746 H 160.406 -2.50146 2.76553 0
M  V30 1747 N 162.591 -1.51276 -0.441967 0
M  V30 1748 C 164.007 -1.39349 -0.778083 0
M  V30 1749 C 164.207 -0.472212 -1.95889 0
M  V30 1750 O 163.263 0.0743551 -2.5239 0
M  V30 1751 C 164.576 -2.81292 -1.0628 0
M  V30 1752 C 166.124 -2.9041 -1.16751 0
M  V30 1753 C 166.599 -4.33251 -1.48519 0
M  V30 1754 N 168.09 -4.36336 -1.55453 0
M  V30 1755 C 168.825 -5.43885 -1.81596 0
M  V30 1756 N 168.321 -6.61601 -2.05562 0
M  V30 1757 N 170.114 -5.3136 -1.8334 0
M  V30 1758 H 162.265 -2.09729 0.335774 0
M  V30 1759 H 164.528 -0.943925 0.0878028 0
M  V30 1760 H 164.234 -3.50678 -0.267905 0
M  V30 1761 H 164.108 -3.20334 -1.99163 0
M  V30 1762 H 166.495 -2.21225 -1.95304 0
M  V30 1763 H 166.576 -2.54871 -0.217801 0
M  V30 1764 H 166.22 -5.02984 -0.704958 0
M  V30 1765 H 166.15 -4.66299 -2.44689 0
M  V30 1766 H 168.641 -3.51466 -1.38853 0
M  V30 1767 H 168.954 -7.39361 -2.24867 0
M  V30 1768 H 167.299 -6.64725 -2.02894 0
M  V30 1769 H 170.49 -4.38382 -1.64132 0
M  V30 1770 H 170.663 -6.15258 -2.03377 0
M  V30 1771 N 164.069 0.697108 -1.41344 0
M  V30 1772 C 165.294 1.49096 -1.44171 0
M  V30 1773 C 165.719 1.88038 -0.0481568 0
M  V30 1774 O 165.077 1.54525 0.948243 0
M  V30 1775 C 165.125 2.73088 -2.3549 0
M  V30 1776 O 164.229 3.70514 -1.81088 0
M  V30 1777 H 163.57 0.448801 -0.489361 0
M  V30 1778 H 166.1 0.856992 -1.85787 0
M  V30 1779 H 166.11 3.21413 -2.51312 0
M  V30 1780 H 164.785 2.44081 -3.36745 0
M  V30 1781 H 163.362 3.29441 -1.74708 0
M  V30 1782 N 165.547 1.27147 0.931209 0
M  V30 1783 C 166.495 1.09398 2.05268 0
M  V30 1784 C 167.489 0.0180591 1.6939 0
M  V30 1785 O 168.695 0.17551 1.79142 0
M  V30 1786 H 165.07 0.336986 0.672268 0
M  V30 1787 H 167.041 2.04416 2.17386 0
M  V30 1788 C 165.79 0.75424 3.39421 0
M  V30 1789 H 165.113 1.57404 3.67511 0
M  V30 1790 H 166.553 0.669903 4.18674 0
M  V30 1791 C 165.012 -0.541197 3.32525 0
M  V30 1792 O 165.542 -1.57664 3.69466 0
M  V30 1793 N 163.748 -0.535517 2.85623 0
M  V30 1794 H 163.295 0.307511 2.55758 0
M  V30 1795 H 163.253 -1.40236 2.81392 0
M  V30 1796 N 167.025 -1.13721 1.09112 0
M  V30 1797 C 167.972 -2.19031 0.727591 0
M  V30 1798 C 168.942 -1.63555 -0.289656 0
M  V30 1799 O 170.127 -1.90023 -0.172026 0
M  V30 1800 C 167.267 -3.4477 0.15082 0
M  V30 1801 C 166.38 -4.14365 1.22172 0
M  V30 1802 C 165.515 -5.27709 0.608042 0
M  V30 1803 C 164.554 -5.89147 1.66047 0
M  V30 1804 N 163.691 -6.93929 1.06806 0
M  V30 1805 H 168.531 -2.49475 1.62991 0
M  V30 1806 H 166.068 -1.22499 0.81439 0
M  V30 1807 H 168.026 -4.16714 -0.201358 0
M  V30 1808 H 166.656 -3.14787 -0.714783 0
M  V30 1809 H 165.708 -3.40737 1.69122 0
M  V30 1810 H 167.02 -4.56114 2.01895 0
M  V30 1811 H 166.174 -6.06355 0.204523 0
M  V30 1812 H 164.913 -4.872 -0.220769 0
M  V30 1813 H 163.918 -5.09198 2.07357 0
M  V30 1814 H 165.143 -6.31729 2.49189 0
M  V30 1815 H 163.089 -6.55483 0.260476 0
M  V30 1816 H 163.006 -7.34202 1.8023 0
M  V30 1817 H 164.274 -7.76434 0.690644 0
M  V30 1818 N 168.503 -0.877838 -1.30888 0
M  V30 1819 C 169.433 -0.35534 -2.3078 0
M  V30 1820 C 170.414 0.557994 -1.60687 0
M  V30 1821 O 171.599 0.473355 -1.88343 0
M  V30 1822 C 168.729 0.437221 -3.44537 0
M  V30 1823 C 167.683 -0.383715 -4.26276 0
M  V30 1824 C 167.009 0.535014 -5.32017 0
M  V30 1825 C 168.309 -1.62201 -4.96476 0
M  V30 1826 H 170.003 -1.19007 -2.74732 0
M  V30 1827 H 167.549 -0.573698 -1.32078 0
M  V30 1828 H 169.502 0.813334 -4.13477 0
M  V30 1829 H 168.226 1.30553 -2.99372 0
M  V30 1830 H 166.885 -0.741874 -3.59015 0
M  V30 1831 H 166.533 1.40083 -4.831 0
M  V30 1832 H 166.233 -0.0104211 -5.87599 0
M  V30 1833 H 167.757 0.907799 -6.03814 0
M  V30 1834 H 169.171 -1.31689 -5.5797 0
M  V30 1835 H 167.568 -2.10711 -5.61891 0
M  V30 1836 H 168.638 -2.37044 -4.23011 0
M  V30 1837 N 169.982 1.44106 -0.638065 0
M  V30 1838 C 170.932 2.27843 0.0847285 0
M  V30 1839 C 171.916 1.39055 0.809471 0
M  V30 1840 O 173.108 1.62808 0.694435 0
M  V30 1841 C 170.237 3.26497 1.06089 0
M  V30 1842 C 169.323 4.22772 0.33541 0
M  V30 1843 N 169.714 5.01737 -0.639787 0
M  V30 1844 C 168.012 4.42227 0.578921 0
M  V30 1845 C 168.713 5.71792 -1.06904 0
M  V30 1846 N 167.689 5.42079 -0.406395 0
M  V30 1847 H 171.491 2.86305 -0.663814 0
M  V30 1848 H 169.005 1.55627 -0.464122 0
M  V30 1849 H 171.002 3.8525 1.59337 0
M  V30 1850 H 169.662 2.69595 1.80966 0
M  V30 1851 H 170.673 5.07799 -1.01789 0
M  V30 1852 H 167.35 3.96415 1.31003 0
M  V30 1853 H 168.74 6.45205 -1.8751 0
M  V30 1854 N 171.46 0.379036 1.52974 0
M  V30 1855 C 172.707 -0.206421 2.01445 0
M  V30 1856 C 173.035 -1.47668 1.26587 0
M  V30 1857 O 172.29 -1.92514 0.351675 0
M  V30 1858 C 172.589 -0.53096 3.53434 0
M  V30 1859 C 172.255 0.646546 4.46241 0
M  V30 1860 C 170.917 0.969604 4.7133 0
M  V30 1861 C 173.269 1.43479 5.01062 0
M  V30 1862 C 170.597 2.08263 5.48492 0
M  V30 1863 C 172.949 2.53834 5.7944 0
M  V30 1864 C 171.613 2.86659 6.02812 0
M  V30 1865 H 170.883 -0.0755349 0.73714 0
M  V30 1866 H 173.53 0.514271 1.84465 0
M  V30 1867 H 171.835 -1.33285 3.68432 0
M  V30 1868 H 173.532 -0.996417 3.88423 0
M  V30 1869 H 170.122 0.384734 4.2687 0
M  V30 1870 H 174.306 1.19844 4.81613 0
M  V30 1871 H 169.562 2.34078 5.64816 0
M  V30 1872 H 173.736 3.15319 6.20924 0
M  V30 1873 H 171.363 3.73026 6.62387 0
M  V30 1874 N 172.938 -1.57226 0.108567 0
M  V30 1875 C 173.901 -2.13602 -0.831082 0
M  V30 1876 C 174.901 -1.06841 -1.20173 0
M  V30 1877 O 176.091 -1.32666 -1.12895 0
M  V30 1878 C 173.223 -2.66769 -2.12243 0
M  V30 1879 H 174.416 -2.97951 -0.341317 0
M  V30 1880 H 171.969 -1.55667 -0.14057 0
M  V30 1881 H 172.704 -1.85977 -2.65675 0
M  V30 1882 H 172.489 -3.44839 -1.86625 0
M  V30 1883 H 173.979 -3.10332 -2.79435 0
M  V30 1884 N 174.416 0.165178 -1.56732 0
M  V30 1885 C 175.663 0.880807 -1.8234 0
M  V30 1886 C 175.991 1.81977 -0.686621 0
M  V30 1887 O 175.246 1.92971 0.325697 0
M  V30 1888 C 175.545 1.70405 -3.1416 0
M  V30 1889 C 175.211 0.913475 -4.4155 0
M  V30 1890 C 173.873 0.695303 -4.7615 0
M  V30 1891 C 176.225 0.359349 -5.1996 0
M  V30 1892 C 173.553 -0.0879947 -5.86634 0
M  V30 1893 C 175.905 -0.410893 -6.31264 0
M  V30 1894 C 174.569 -0.639808 -6.64427 0
M  V30 1895 H 173.839 0.32231 -0.667231 0
M  V30 1896 H 176.486 0.145402 -1.90947 0
M  V30 1897 H 174.791 2.50903 -3.00923 0
M  V30 1898 H 176.488 2.26091 -3.31186 0
M  V30 1899 H 173.078 1.09357 -4.14414 0
M  V30 1900 H 177.262 0.515228 -4.93618 0
M  V30 1901 H 172.518 -0.27503 -6.10781 0
M  V30 1902 H 176.692 -0.847494 -6.91224 0
M  V30 1903 H 174.319 -1.24864 -7.49875 0
M  V30 1904 N 175.894 1.51508 0.433938 0
M  V30 1905 C 177.31 1.39759 0.770682 0
M  V30 1906 C 177.51 0.482594 1.95636 0
M  V30 1907 O 176.566 -0.0609691 2.52426 0
M  V30 1908 C 177.879 2.81851 1.04787 0
M  V30 1909 C 179.427 2.91025 1.1521 0
M  V30 1910 C 179.902 4.34032 1.46219 0
M  V30 1911 N 181.393 4.37154 1.53136 0
M  V30 1912 C 182.128 5.4484 1.78709 0
M  V30 1913 N 181.624 6.62682 2.02051 0
M  V30 1914 N 183.417 5.32324 1.80519 0
M  V30 1915 H 175.568 2.09548 -0.346892 0
M  V30 1916 H 177.831 0.943446 -0.0928074 0
M  V30 1917 H 177.537 3.50815 0.249304 0
M  V30 1918 H 177.411 3.21386 1.97461 0
M  V30 1919 H 179.798 2.22257 1.94128 0
M  V30 1920 H 179.879 2.54983 0.204281 0
M  V30 1921 H 179.523 5.03351 0.678274 0
M  V30 1922 H 179.453 4.6759 2.42212 0
M  V30 1923 H 181.944 3.52197 1.36987 0
M  V30 1924 H 182.257 7.40543 2.20943 0
M  V30 1925 H 180.602 6.65791 1.99366 0
M  V30 1926 H 183.793 4.39246 1.61805 0
M  V30 1927 H 183.966 6.16328 2.00111 0
M  V30 1928 N 177.372 -0.689602 1.41712 0
M  V30 1929 C 178.302 -1.81577 1.46806 0
M  V30 1930 C 179.283 -1.66945 0.326105 0
M  V30 1931 O 180.468 -1.86588 0.538377 0
M  V30 1932 C 177.598 -3.19762 1.35535 0
M  V30 1933 C 176.552 -3.49107 2.47605 0
M  V30 1934 C 175.878 -4.86711 2.21397 0
M  V30 1935 C 177.178 -3.47483 3.89939 0
M  V30 1936 H 178.872 -1.7757 2.41058 0
M  V30 1937 H 176.418 -0.852887 1.16025 0
M  V30 1938 H 178.371 -3.98263 1.3771 0
M  V30 1939 H 177.095 -3.24409 0.377708 0
M  V30 1940 H 175.754 -2.72959 2.44722 0
M  V30 1941 H 175.402 -4.8799 1.21961 0
M  V30 1942 H 175.102 -5.0731 2.96497 0
M  V30 1943 H 176.626 -5.67515 2.25297 0
M  V30 1944 H 178.04 -4.1598 3.94505 0
M  V30 1945 H 176.437 -3.79615 4.64771 0
M  V30 1946 H 177.507 -2.46341 4.17665 0
M  V30 1947 N 178.85 -1.27639 -0.924453 0
M  V30 1948 C 180.08 -1.16819 -1.70402 0
M  V30 1949 C 180.488 0.277191 -1.87158 0
M  V30 1950 O 179.831 1.20025 -1.39067 0
M  V30 1951 C 179.893 -1.78305 -3.12166 0
M  V30 1952 C 179.557 -3.27502 -3.18734 0
M  V30 1953 C 180.554 -4.2409 -3.00738 0
M  V30 1954 C 178.239 -3.68269 -3.4159 0
M  V30 1955 C 180.233 -5.59422 -3.05492 0
M  V30 1956 C 177.92 -5.0373 -3.45977 0
M  V30 1957 C 178.918 -5.99116 -3.27946 0
M  V30 1958 O 178.606 -7.32108 -3.32074 0
M  V30 1959 H 178.338 -0.406931 -0.539799 0
M  V30 1960 H 180.892 -1.69078 -1.16626 0
M  V30 1961 H 179.122 -1.20528 -3.67437 0
M  V30 1962 H 180.811 -1.62154 -3.72103 0
M  V30 1963 H 181.577 -3.93931 -2.82919 0
M  V30 1964 H 177.456 -2.94496 -3.54673 0
M  V30 1965 H 181 -6.33852 -2.91337 0
M  V30 1966 H 176.897 -5.33543 -3.63321 0
M  V30 1967 H 177.665 -7.40598 -3.48507 0
M  V30 1968 N 180.328 1.1314 -1.09713 0
M  V30 1969 C 181.605 1.80762 -0.747302 0
M  V30 1970 C 181.985 1.96663 0.767265 0
M  V30 1971 O 181.333 1.53706 1.69076 0
M  V30 1972 C 181.543 3.15606 -1.48975 0
M  V30 1973 C 182.891 3.90914 -1.65746 0
M  V30 1974 O 183.915 3.25239 -1.45251 0
M  V30 1975 O 182.774 5.08718 -1.9967 0
M  V30 1976 H 179.868 0.782103 -0.268782 0
M  V30 1977 H 182.414 1.20041 -1.19951 0
M  V30 1978 H 181.186 2.99278 -2.52088 0
M  V30 1979 H 180.809 3.84029 -1.02991 0
M  V30 1980 N 181.806 0.884767 1.30421 0
M  V30 1981 C 182.736 0.367574 2.30589 0
M  V30 1982 C 183.717 -0.549464 1.60981 0
M  V30 1983 O 184.902 -0.46336 1.88591 0
M  V30 1984 C 182.032 -0.418944 3.44764 0
M  V30 1985 C 180.986 0.406316 4.26067 0
M  V30 1986 C 180.312 -0.506793 5.32293 0
M  V30 1987 C 181.612 1.64832 4.95608 0
M  V30 1988 H 183.306 1.20462 2.74097 0
M  V30 1989 H 180.852 0.580695 1.31772 0
M  V30 1990 H 182.805 -0.791395 4.13902 0
M  V30 1991 H 181.529 -1.28964 3.0006 0
M  V30 1992 H 180.188 0.760903 3.58617 0
M  V30 1993 H 179.836 -1.37519 4.83836 0
M  V30 1994 H 179.536 0.0415828 5.87585 0
M  V30 1995 H 181.06 -0.875764 6.04287 0
M  V30 1996 H 182.474 1.34646 5.57264 0
M  V30 1997 H 180.871 2.13688 5.60765 0
M  V30 1998 H 181.941 2.39284 4.21748 0
M  V30 1999 N 183.284 -1.43765 0.645699 0
M  V30 2000 C 184.561 -1.9541 0.0862963 0
M  V30 2001 C 184.941 -1.58725 -1.39175 0
M  V30 2002 O 184.289 -0.868581 -2.11348 0
M  V30 2003 C 184.499 -3.47488 0.324565 0
M  V30 2004 C 185.847 -4.24001 0.225497 0
M  V30 2005 O 186.871 -3.55274 0.256715 0
M  V30 2006 O 185.73 -5.46313 0.142801 0
M  V30 2007 H 182.824 -0.826882 -0.0139483 0
M  V30 2008 H 185.37 -1.53743 0.718415 0
M  V30 2009 H 184.142 -3.67289 1.3496 0
M  V30 2010 H 183.765 -3.96135 -0.340987 0
M  V30 2011 N 184.763 -0.387143 -1.52771 0
M  V30 2012 C 185.71 0.449048 -2.26389 0
M  V30 2013 C 186.68 1.05961 -1.27912 0
M  V30 2014 O 187.865 1.08804 -1.56737 0
M  V30 2015 C 185.005 1.57155 -3.0724 0
M  V30 2016 C 184.118 0.984066 -4.20643 0
M  V30 2017 C 183.253 2.07745 -4.88892 0
M  V30 2018 C 182.292 1.46574 -5.94292 0
M  V30 2019 N 181.429 2.49834 -6.56146 0
M  V30 2020 H 186.269 -0.185205 -2.97424 0
M  V30 2021 H 183.806 -0.103164 -1.46738 0
M  V30 2022 H 185.764 2.23309 -3.52405 0
M  V30 2023 H 184.394 2.17615 -2.38419 0
M  V30 2024 H 183.446 0.212193 -3.79808 0
M  V30 2025 H 184.758 0.497029 -4.96318 0
M  V30 2026 H 183.912 2.81673 -5.3735 0
M  V30 2027 H 182.651 2.59807 -4.12737 0
M  V30 2028 H 181.656 0.711696 -5.45174 0
M  V30 2029 H 182.881 0.953088 -6.72379 0
M  V30 2030 H 180.827 3.0107 -5.82832 0
M  V30 2031 H 180.744 2.05879 -7.27427 0
M  V30 2032 H 182.012 3.23399 -7.09249 0
M  V30 2033 N 186.241 1.57166 -0.116904 0
M  V30 2034 C 187.518 1.86645 0.585049 0
M  V30 2035 C 187.898 1.0177 1.84949 0
M  V30 2036 O 187.246 0.0960379 2.28298 0
M  V30 2037 C 187.456 3.37736 0.879507 0
M  V30 2038 C 188.804 4.06289 1.23348 0
M  V30 2039 O 189.828 3.42743 0.969836 0
M  V30 2040 O 188.687 5.18455 1.7282 0
M  V30 2041 H 185.781 0.772593 0.295007 0
M  V30 2042 H 188.327 1.69025 -0.151249 0
M  V30 2043 H 187.099 3.91296 -0.0166136 0
M  V30 2044 H 186.722 3.6078 1.67103 0
M  V30 2045 N 187.719 -0.156864 1.56817 0
M  V30 2046 C 188.629 -1.2136 2.00771 0
M  V30 2047 C 189.645 -1.47598 0.921459 0
M  V30 2048 O 190.821 -1.59462 1.2302 0
M  V30 2049 C 187.886 -2.52943 2.37109 0
M  V30 2050 C 186.947 -2.34439 3.59634 0
M  V30 2051 C 186.18 -3.59748 3.94229 0
M  V30 2052 O 186.403 -4.65526 3.29609 0
M  V30 2053 O 185.337 -3.52998 4.8752 0
M  V30 2054 H 189.163 -0.870468 2.90958 0
M  V30 2055 H 186.748 -0.36484 1.44877 0
M  V30 2056 H 188.63 -3.30538 2.61386 0
M  V30 2057 H 187.305 -2.86806 1.5008 0
M  V30 2058 H 186.212 -1.54828 3.40557 0
M  V30 2059 H 187.545 -2.05496 4.4725 0
M  V30 2060 N 189.197 -1.51736 -0.425897 0
M  V30 2061 C 190.144 -1.73875 -1.51776 0
M  V30 2062 C 191.114 -0.580702 -1.55618 0
M  V30 2063 O 192.299 -0.81641 -1.72451 0
M  V30 2064 C 189.439 -1.88012 -2.89388 0
M  V30 2065 C 188.552 -3.15606 -2.94986 0
M  V30 2066 C 187.687 -3.20271 -4.23793 0
M  V30 2067 C 186.726 -4.42134 -4.23302 0
M  V30 2068 N 185.863 -4.44284 -5.43651 0
M  V30 2069 H 190.703 -2.67071 -1.32201 0
M  V30 2070 H 188.24 -1.32351 -0.642008 0
M  V30 2071 H 190.198 -1.9419 -3.69251 0
M  V30 2072 H 188.828 -0.98213 -3.07496 0
M  V30 2073 H 187.88 -3.18681 -2.07717 0
M  V30 2074 H 189.192 -4.05486 -2.90486 0
M  V30 2075 H 188.346 -3.25428 -5.12036 0
M  V30 2076 H 187.085 -2.28299 -4.30965 0
M  V30 2077 H 186.09 -4.3714 -3.3345 0
M  V30 2078 H 187.315 -5.35382 -4.17783 0
M  V30 2079 H 185.261 -3.55188 -5.51523 0
M  V30 2080 H 185.178 -5.27988 -5.41078 0
M  V30 2081 H 186.446 -4.53649 -6.33895 0
M  V30 2082 N 190.675 0.682077 -1.42076 0
M  V30 2083 C 191.924 1.43786 -1.41451 0
M  V30 2084 C 192.237 1.95574 -0.0317074 0
M  V30 2085 O 193.443 2.71326 0.0971462 0
M  V30 2086 C 191.899 2.60071 -2.48779 0
M  V30 2087 C 191.507 2.15013 -3.93031 0
M  V30 2088 C 193.251 3.37626 -2.57311 0
M  V30 2089 C 191.158 3.28336 -4.91883 0
M  V30 2090 H 190.088 0.540143 -0.526082 0
M  V30 2091 H 192.739 0.739157 -1.67955 0
M  V30 2092 H 191.121 3.32275 -2.15429 0
M  V30 2093 H 192.295 1.5001 -4.35699 0
M  V30 2094 H 190.61 1.50416 -3.88284 0
M  V30 2095 H 193.207 4.22012 -3.28345 0
M  V30 2096 H 193.55 3.83727 -1.61429 0
M  V30 2097 H 194.083 2.72488 -2.89819 0
M  V30 2098 H 190.822 2.87234 -5.89217 0
M  V30 2099 H 190.342 3.92145 -4.53853 0
M  V30 2100 H 192.021 3.93913 -5.13265 0
M  V30 2101 N 192.153 1.28127 0.917671 0
M  V30 2102 C 193.378 1.18007 1.70555 0
M  V30 2103 C 193.803 -0.258257 1.86319 0
M  V30 2104 O 193.161 -1.1869 1.37049 0
M  V30 2105 C 193.209 1.87948 3.07746 0
M  V30 2106 O 192.313 1.18427 3.9503 0
M  V30 2107 H 191.654 0.409867 0.522403 0
M  V30 2108 H 194.184 1.69379 1.1477 0
M  V30 2109 H 194.194 1.95701 3.58001 0
M  V30 2110 H 192.869 2.92573 2.95591 0
M  V30 2111 H 191.446 1.18811 3.53466 0
M  V30 2112 N 193.631 -1.12557 1.10312 0
M  V30 2113 C 195.047 -1.36036 0.834649 0
M  V30 2114 C 195.247 -1.93946 -0.546539 0
M  V30 2115 O 194.303 -2.16484 -1.29966 0
M  V30 2116 C 195.616 -2.30312 1.9333 0
M  V30 2117 C 197.164 -2.43906 1.9616 0
M  V30 2118 C 197.639 -3.41496 3.05195 0
M  V30 2119 N 199.13 -3.49053 3.04494 0
M  V30 2120 C 199.865 -4.24471 3.85502 0
M  V30 2121 N 199.361 -5.02966 4.76442 0
M  V30 2122 N 201.154 -4.19864 3.73725 0
M  V30 2123 H 193.305 -0.733246 1.99342 0
M  V30 2124 H 195.568 -0.385234 0.866198 0
M  V30 2125 H 195.274 -1.94933 2.92735 0
M  V30 2126 H 195.148 -3.30421 1.81939 0
M  V30 2127 H 197.535 -2.78567 0.973886 0
M  V30 2128 H 197.616 -1.4369 2.11629 0
M  V30 2129 H 197.26 -3.07565 4.04186 0
M  V30 2130 H 197.19 -4.41539 2.86968 0
M  V30 2131 H 199.681 -2.93053 2.38596 0
M  V30 2132 H 199.994 -5.57846 5.34815 0
M  V30 2133 H 198.339 -5.02167 4.80472 0
M  V30 2134 H 201.53 -3.57623 3.02032 0
M  V30 2135 H 201.703 -4.78386 4.37093 0
M  V30 2136 N 195.109 -0.891671 -1.2995 0
M  V30 2137 C 196.386 -0.433307 -1.9074 0
M  V30 2138 C 196.766 1.08646 -1.80995 0
M  V30 2139 O 196.114 1.92476 -1.23147 0
M  V30 2140 C 196.324 -0.938895 -3.36134 0
M  V30 2141 C 197.672 -0.977829 -4.13187 0
M  V30 2142 O 198.696 -0.886015 -3.45005 0
M  V30 2143 O 197.555 -1.11453 -5.35015 0
M  V30 2144 H 194.649 -0.133699 -0.816121 0
M  V30 2145 H 197.195 -0.981011 -1.38471 0
M  V30 2146 H 195.967 -1.98281 -3.37343 0
M  V30 2147 H 195.59 -0.37074 -3.95868 0
M  V30 2148 N 196.587 1.43421 -0.653314 0
M  V30 2149 C 197.497 2.34568 0.0388565 0
M  V30 2150 C 198.513 1.53888 0.81207 0
M  V30 2151 O 199.689 1.86539 0.759294 0
M  V30 2152 C 196.754 3.32167 0.993269 0
M  V30 2153 C 195.815 4.28751 0.216977 0
M  V30 2154 C 195.048 5.21688 1.12593 0
M  V30 2155 O 195.271 5.19052 2.36519 0
M  V30 2156 O 194.205 5.98919 0.598284 0
M  V30 2157 H 198.031 2.95251 -0.711386 0
M  V30 2158 H 195.616 1.43564 -0.413502 0
M  V30 2159 H 197.498 3.92183 1.54176 0
M  V30 2160 H 196.173 2.73987 1.72374 0
M  V30 2161 H 195.08 3.72215 -0.375101 0
M  V30 2162 H 196.413 4.89913 -0.473924 0
M  V30 2163 N 198.065 0.39524 1.52563 0
M  V30 2164 C 198.995 -0.428384 2.29537 0
M  V30 2165 C 199.976 -1.05831 1.33169 0
M  V30 2166 O 201.161 -1.06995 1.62067 0
M  V30 2167 C 198.291 -1.55274 3.10656 0
M  V30 2168 C 197.245 -1.04855 4.14957 0
M  V30 2169 C 196.571 -2.26543 4.84337 0
M  V30 2170 C 197.871 -0.112324 5.22179 0
M  V30 2171 H 199.565 0.213867 2.98635 0
M  V30 2172 H 197.111 0.104298 1.43622 0
M  V30 2173 H 199.064 -2.1358 3.63265 0
M  V30 2174 H 197.788 -2.22266 2.39302 0
M  V30 2175 H 196.447 -0.487985 3.63338 0
M  V30 2176 H 196.095 -2.92059 4.09525 0
M  V30 2177 H 195.795 -1.93466 5.54837 0
M  V30 2178 H 197.319 -2.85481 5.39753 0
M  V30 2179 H 198.733 -0.603752 5.70112 0
M  V30 2180 H 197.13 0.128968 5.99961 0
M  V30 2181 H 198.2 0.837052 4.77621 0
M  V30 2182 N 199.544 -1.57102 0.125237 0
M  V30 2183 C 200.474 -2.18659 -0.819174 0
M  V30 2184 C 201.455 -1.12843 -1.27281 0
M  V30 2185 O 202.64 -1.41104 -1.33429 0
M  V30 2186 C 199.77 -2.79096 -2.06695 0
M  V30 2187 C 198.724 -3.90548 -1.75088 0
M  V30 2188 C 198.05 -4.37821 -3.06948 0
M  V30 2189 C 199.35 -5.12356 -1.01435 0
M  V30 2190 H 201.044 -2.9783 -0.306202 0
M  V30 2191 H 198.59 -1.4326 -0.145839 0
M  V30 2192 H 200.543 -3.2082 -2.73226 0
M  V30 2193 H 199.267 -1.97223 -2.60328 0
M  V30 2194 H 197.926 -3.49409 -1.10944 0
M  V30 2195 H 197.574 -3.52799 -3.58527 0
M  V30 2196 H 197.274 -5.12982 -2.86571 0
M  V30 2197 H 198.798 -4.822 -3.74587 0
M  V30 2198 H 200.212 -5.5106 -1.58132 0
M  V30 2199 H 198.609 -5.9314 -0.911319 0
M  V30 2200 H 199.679 -4.849 -0.00218681 0
M  V30 2201 N 201.022 0.148545 -1.56898 0
M  V30 2202 C 201.954 1.20852 -1.9475 0
M  V30 2203 C 202.967 1.39265 -0.843152 0
M  V30 2204 O 204.156 1.38864 -1.12156 0
M  V30 2205 C 201.256 2.57362 -2.20495 0
M  V30 2206 C 200.429 2.59947 -3.51776 0
M  V30 2207 C 199.488 3.77984 -3.6608 0
M  V30 2208 O 198.514 3.62929 -4.38487 0
M  V30 2209 N 199.716 4.95375 -3.02629 0
M  V30 2210 H 202.481 0.886804 -2.86279 0
M  V30 2211 H 200.042 0.338121 -1.5833 0
M  V30 2212 H 202.034 3.34833 -2.27307 0
M  V30 2213 H 200.604 2.81832 -1.35238 0
M  V30 2214 H 199.824 1.68403 -3.56419 0
M  V30 2215 H 201.112 2.58704 -4.38121 0
M  V30 2216 H 200.51 5.10509 -2.43715 0
M  V30 2217 H 199.067 5.70627 -3.15004 0
M  V30 2218 N 202.5 1.5196 0.417844 0
M  V30 2219 C 203.746 1.65836 1.16732 0
M  V30 2220 C 204.079 0.382881 1.90388 0
M  V30 2221 O 203.354 -0.618368 1.84408 0
M  V30 2222 C 203.637 2.87466 2.16876 0
M  V30 2223 C 203.49 4.25041 1.47174 0
M  V30 2224 C 204.809 3.04613 3.17646 0
M  V30 2225 H 201.928 0.603515 0.423011 0
M  V30 2226 H 204.57 1.84494 0.454105 0
M  V30 2227 H 202.72 2.71689 2.777 0
M  V30 2228 H 204.392 4.52527 0.895376 0
M  V30 2229 H 202.635 4.26843 0.773806 0
M  V30 2230 H 203.306 5.06176 2.20204 0
M  V30 2231 H 205.782 3.1923 2.66892 0
M  V30 2232 H 204.658 3.91247 3.8499 0
M  V30 2233 H 204.919 2.17541 3.84874 0
M  V30 2234 N 203.978 -0.674533 1.42435 0
M  V30 2235 C 204.908 -1.80009 1.48724 0
M  V30 2236 C 205.889 -1.6659 0.343793 0
M  V30 2237 O 207.074 -1.86007 0.558137 0
M  V30 2238 C 204.204 -3.18306 1.38919 0
M  V30 2239 C 203.158 -3.46461 2.51294 0
M  V30 2240 C 202.484 -4.84335 2.26547 0
M  V30 2241 C 203.784 -3.43328 3.93603 0
M  V30 2242 H 205.478 -1.75004 2.42928 0
M  V30 2243 H 203.024 -0.840533 1.16923 0
M  V30 2244 H 204.977 -3.9678 1.41927 0
M  V30 2245 H 203.701 -3.2399 0.412094 0
M  V30 2246 H 202.36 -2.70348 2.47604 0
M  V30 2247 H 202.008 -4.86669 1.2713 0
M  V30 2248 H 201.708 -5.04136 3.01861 0
M  V30 2249 H 203.232 -5.65094 2.31304 0
M  V30 2250 H 204.646 -4.11772 3.98894 0
M  V30 2251 H 203.043 -3.74664 4.68771 0
M  V30 2252 H 204.113 -2.41897 4.20255 0
M  V30 2253 N 205.456 -1.28612 -0.910864 0
M  V30 2254 C 206.872 -1.06381 -1.18976 0
M  V30 2255 C 207.072 0.191998 -2.00583 0
M  V30 2256 O 206.128 0.892869 -2.36187 0
M  V30 2257 C 207.441 -2.31295 -1.92154 0
M  V30 2258 C 208.989 -2.36503 -2.05025 0
M  V30 2259 C 209.464 -3.61191 -2.81612 0
M  V30 2260 N 210.955 -3.61847 -2.89172 0
M  V30 2261 C 211.69 -4.55004 -3.4894 0
M  V30 2262 N 211.186 -5.58482 -4.09963 0
M  V30 2263 N 212.979 -4.42594 -3.46506 0
M  V30 2264 H 205.13 -2.09221 -0.366094 0
M  V30 2265 H 207.393 -0.921003 -0.224629 0
M  V30 2266 H 207.099 -3.228 -1.39618 0
M  V30 2267 H 206.973 -2.37934 -2.9269 0
M  V30 2268 H 209.36 -1.45494 -2.5674 0
M  V30 2269 H 209.441 -2.33857 -1.03657 0
M  V30 2270 H 209.085 -4.52545 -2.30576 0
M  V30 2271 H 209.015 -3.61092 -3.83302 0
M  V30 2272 H 211.506 -2.87022 -2.45819 0
M  V30 2273 H 211.819 -6.25704 -4.53557 0
M  V30 2274 H 210.164 -5.62305 -4.08459 0
M  V30 2275 H 213.355 -3.60953 -2.98045 0
M  V30 2276 H 213.528 -5.15381 -3.92793 0
M  V30 2277 N 206.934 1.1197 -1.10907 0
M  V30 2278 C 207.867 2.16998 -0.706192 0
M  V30 2279 C 208.845 1.59903 0.294897 0
M  V30 2280 O 210.029 1.87513 0.192636 0
M  V30 2281 C 207.156 3.38673 -0.0427664 0
M  V30 2282 C 206.202 4.14414 -1.00811 0
M  V30 2283 S 207.035 4.72079 -2.52789 0
M  V30 2284 C 208.191 5.97083 -1.87731 0
M  V30 2285 H 208.424 2.50837 -1.59587 0
M  V30 2286 H 205.957 1.23508 -0.926555 0
M  V30 2287 H 207.915 4.09142 0.333668 0
M  V30 2288 H 206.576 3.03105 0.823788 0
M  V30 2289 H 205.769 5.016 -0.491259 0
M  V30 2290 H 205.371 3.49678 -1.3267 0
M  V30 2291 H 207.663 6.66599 -1.21044 0
M  V30 2292 H 208.606 6.53403 -2.72892 0
M  V30 2293 H 209.014 5.4837 -1.33979 0
M  V30 2294 N 208.412 0.89855 1.29475 0
M  V30 2295 C 209.345 0.319981 2.25945 0
M  V30 2296 C 210.323 -0.567189 1.52387 0
M  V30 2297 O 211.507 -0.514254 1.8135 0
M  V30 2298 C 208.634 -0.544013 3.34303 0
M  V30 2299 C 207.68 0.275682 4.25608 0
M  V30 2300 S 208.513 1.67272 5.08704 0
M  V30 2301 C 209.669 0.815621 6.20563 0
M  V30 2302 H 209.902 1.13767 2.74671 0
M  V30 2303 H 207.435 0.69882 1.3768 0
M  V30 2304 H 209.393 -1.03673 3.97193 0
M  V30 2305 H 208.054 -1.33593 2.84274 0
M  V30 2306 H 207.247 -0.384263 5.02533 0
M  V30 2307 H 206.849 0.701496 3.67362 0
M  V30 2308 H 209.141 0.0385042 6.77489 0
M  V30 2309 H 210.084 1.55691 6.90772 0
M  V30 2310 H 210.492 0.370516 5.63283 0
M  V30 2311 N 209.89 -1.43072 0.660911 0
M  V30 2312 C 211.136 -2.0202 0.177708 0
M  V30 2313 C 211.469 -1.52066 -1.20787 0
M  V30 2314 O 210.744 -0.716987 -1.80802 0
M  V30 2315 C 211.027 -3.59561 0.197019 0
M  V30 2316 C 210.88 -4.19727 1.61706 0
M  V30 2317 C 212.199 -4.37664 -0.462396 0
M  V30 2318 H 209.318 -0.734034 0.0660494 0
M  V30 2319 H 211.96 -1.70272 0.843058 0
M  V30 2320 H 210.11 -3.86739 -0.369527 0
M  V30 2321 H 211.782 -4.03553 2.23479 0
M  V30 2322 H 210.025 -3.76084 2.16201 0
M  V30 2323 H 210.696 -5.28834 1.58237 0
M  V30 2324 H 213.172 -4.16095 0.0197215 0
M  V30 2325 H 212.048 -5.47305 -0.418188 0
M  V30 2326 H 212.309 -4.14493 -1.53778 0
M  V30 2327 N 211.368 -0.403325 -1.52352 0
M  V30 2328 C 212.616 0.174003 -2.0135 0
M  V30 2329 C 212.937 1.46139 -1.29106 0
M  V30 2330 O 212.207 1.91448 -0.415253 0
M  V30 2331 H 210.787 0.0672911 -0.743963 0
M  V30 2332 H 213.449 -0.538235 -1.87321 0
M  V30 2333 H 212.545 0.374254 -3.09848 0
M  V30 2334 N 212.846 1.57033 -0.133567 0
M  V30 2335 C 214.092 1.95976 0.521649 0
M  V30 2336 C 214.425 1.01779 1.65393 0
M  V30 2337 O 213.7 0.0576581 1.94415 0
M  V30 2338 C 213.983 3.44738 1.04057 0
M  V30 2339 C 213.836 4.49711 -0.0892897 0
M  V30 2340 C 215.155 3.95682 1.92675 0
M  V30 2341 H 212.274 0.712579 0.188149 0
M  V30 2342 H 214.916 1.88813 -0.212076 0
M  V30 2343 H 213.066 3.50973 1.66583 0
M  V30 2344 H 214.738 4.55565 -0.725152 0
M  V30 2345 H 212.981 4.27261 -0.750378 0
M  V30 2346 H 213.652 5.51099 0.315284 0
M  V30 2347 H 216.128 3.91841 1.39998 0
M  V30 2348 H 215.004 5.00262 2.25897 0
M  V30 2349 H 215.265 3.37239 2.85872 0
M  V30 2350 N 214.325 -0.140222 1.56975 0
M  V30 2351 C 215.273 -1.19207 1.99731 0
M  V30 2352 C 216.267 -1.44089 0.890777 0
M  V30 2353 O 217.473 -1.44301 1.07597 0
M  V30 2354 H 213.848 -0.40142 0.635898 0
M  V30 2355 H 215.819 -0.804813 2.87342 0
M  V30 2356 C 214.568 -2.51617 2.39967 0
M  V30 2357 H 213.891 -2.33303 3.24669 0
M  V30 2358 H 215.331 -3.23827 2.73701 0
M  V30 2359 C 213.79 -3.12654 1.25496 0
M  V30 2360 O 214.32 -3.97786 0.559371 0
M  V30 2361 N 212.526 -2.72206 1.01746 0
M  V30 2362 H 212.073 -2.03074 1.58489 0
M  V30 2363 H 212.031 -3.13377 0.253461 0
M  V30 2364 N 215.803 -1.52179 -0.40978 0
M  V30 2365 C 217.052 -1.65434 -1.15388 0
M  V30 2366 C 217.365 -0.390056 -1.91671 0
M  V30 2367 O 218.571 -0.402399 -2.68501 0
M  V30 2368 C 217.027 -2.92279 -2.10003 0
M  V30 2369 C 216.635 -4.25813 -1.39239 0
M  V30 2370 C 218.379 -3.14897 -2.84675 0
M  V30 2371 C 216.286 -5.43782 -2.32498 0
M  V30 2372 H 215.216 -0.616267 -0.434432 0
M  V30 2373 H 217.867 -1.78666 -0.418401 0
M  V30 2374 H 216.249 -2.72744 -2.871 0
M  V30 2375 H 217.423 -4.55828 -0.675099 0
M  V30 2376 H 215.738 -4.09292 -0.766097 0
M  V30 2377 H 218.335 -4.0021 -3.54593 0
M  V30 2378 H 218.678 -2.29103 -3.47588 0
M  V30 2379 H 219.211 -3.34901 -2.14677 0
M  V30 2380 H 215.95 -6.3192 -1.74233 0
M  V30 2381 H 215.47 -5.18106 -3.02201 0
M  V30 2382 H 217.149 -5.76834 -2.93038 0
M  V30 2383 N 217.281 0.66697 -1.42791 0
M  V30 2384 C 218.506 1.46004 -1.47301 0
M  V30 2385 C 218.931 1.87894 -0.0880317 0
M  V30 2386 O 218.289 1.56502 0.915253 0
M  V30 2387 C 218.337 2.68031 -2.41229 0
M  V30 2388 O 217.441 3.6659 -1.88906 0
M  V30 2389 H 216.782 0.43832 -0.49877 0
M  V30 2390 H 219.312 0.817391 -1.87563 0
M  V30 2391 H 219.322 3.1601 -2.58073 0
M  V30 2392 H 217.997 2.36883 -3.41847 0
M  V30 2393 H 216.574 3.25661 -1.81656 0
M  V30 2394 N 218.759 1.29093 0.90403 0
M  V30 2395 C 220.036 1.075 1.63411 0
M  V30 2396 C 220.416 -0.382346 2.07609 0
M  V30 2397 O 219.764 -1.37031 1.82851 0
M  V30 2398 C 219.974 2.05858 2.81822 0
M  V30 2399 C 221.322 2.36539 3.52611 0
M  V30 2400 O 222.346 2.04019 2.91984 0
M  V30 2401 O 221.205 2.92085 4.61897 0
M  V30 2402 H 218.299 0.411547 0.717327 0
M  V30 2403 H 220.845 1.40449 0.952479 0
M  V30 2404 H 219.617 3.04037 2.46327 0
M  V30 2405 H 219.24 1.73613 3.57693 0
M  V30 2406 N 220.237 -1.11381 1.11499 0
M  V30 2407 C 221.147 -2.21019 0.786628 0
M  V30 2408 C 222.163 -1.72597 -0.220507 0
M  V30 2409 O 223.339 -2.01321 -0.0565251 0
M  V30 2410 C 220.404 -3.459 0.235333 0
M  V30 2411 C 219.465 -4.09107 1.30115 0
M  V30 2412 C 218.698 -5.28027 0.776068 0
M  V30 2413 O 218.921 -5.6904 -0.393661 0
M  V30 2414 O 217.855 -5.81835 1.54114 0
M  V30 2415 H 221.681 -2.51521 1.70209 0
M  V30 2416 H 219.266 -1.19928 0.890928 0
M  V30 2417 H 221.148 -4.21346 -0.067715 0
M  V30 2418 H 219.823 -3.17049 -0.652828 0
M  V30 2419 H 218.73 -3.35391 1.65722 0
M  V30 2420 H 220.063 -4.42139 2.16273 0
M  V30 2421 N 221.715 -0.905404 -1.28997 0
M  V30 2422 C 222.647 -0.344748 -2.26592 0
M  V30 2423 C 223.66 0.512135 -1.54535 0
M  V30 2424 O 224.849 0.328368 -1.75454 0
M  V30 2425 C 221.949 0.526587 -3.34784 0
M  V30 2426 C 221.122 -0.305871 -4.36329 0
M  V30 2427 C 220.181 0.499209 -5.23827 0
M  V30 2428 O 219.207 -0.0853004 -5.69136 0
M  V30 2429 N 220.409 1.80408 -5.51755 0
M  V30 2430 H 223.174 -1.18359 -2.75338 0
M  V30 2431 H 220.735 -0.770481 -1.42391 0
M  V30 2432 H 222.727 1.07171 -3.90252 0
M  V30 2433 H 221.297 1.26613 -2.85811 0
M  V30 2434 H 220.517 -1.0324 -3.80441 0
M  V30 2435 H 221.805 -0.875773 -5.01206 0
M  V30 2436 H 221.203 2.3016 -5.16762 0
M  V30 2437 H 219.76 2.29621 -6.10014 0
M  V30 2438 N 223.193 1.4272 -0.668489 0
M  V30 2439 C 224.123 2.335 -0.000100175 0
M  V30 2440 C 225.104 1.50328 0.795964 0
M  V30 2441 O 226.289 1.78949 0.754385 0
M  V30 2442 C 223.419 3.33874 0.956302 0
M  V30 2443 C 222.373 4.27152 0.269278 0
M  V30 2444 C 221.699 5.17684 1.33818 0
M  V30 2445 C 222.999 5.15373 -0.847805 0
M  V30 2446 H 224.693 2.89639 -0.758244 0
M  V30 2447 H 222.239 1.39269 -0.366079 0
M  V30 2448 H 224.192 3.9629 1.43292 0
M  V30 2449 H 222.916 2.76025 1.74579 0
M  V30 2450 H 221.575 3.66123 -0.187042 0
M  V30 2451 H 221.223 4.56165 2.1195 0
M  V30 2452 H 220.923 5.80918 0.883659 0
M  V30 2453 H 222.447 5.82974 1.81586 0
M  V30 2454 H 223.861 5.7151 -0.452681 0
M  V30 2455 H 222.258 5.87407 -1.22773 0
M  V30 2456 H 223.328 4.5415 -1.69929 0
M  V30 2457 N 224.671 0.411399 1.52136 0
M  V30 2458 C 225.919 -0.163322 2.01439 0
M  V30 2459 C 226.24 -1.45453 1.29879 0
M  V30 2460 O 225.51 -1.91225 0.4254 0
M  V30 2461 H 224.09 -0.0633447 0.744309 0
M  V30 2462 H 226.752 0.548161 1.87033 0
M  V30 2463 H 225.848 -0.357817 3.10042 0
M  V30 2464 N 226.149 -1.5696 0.141893 0
M  V30 2465 C 227.374 -2.00754 -0.520838 0
M  V30 2466 C 227.799 -1.0213 -1.57959 0
M  V30 2467 O 227.157 0.00371324 -1.813 0
M  V30 2468 C 227.205 -3.43318 -1.10294 0
M  V30 2469 O 226.309 -3.47679 -2.21795 0
M  V30 2470 H 225.65 -0.651564 -0.127908 0
M  V30 2471 H 228.18 -2.03221 0.23712 0
M  V30 2472 H 228.19 -3.82012 -1.43287 0
M  V30 2473 H 226.865 -4.14608 -0.327574 0
M  V30 2474 H 225.442 -3.20824 -1.9007 0
M  V30 2475 N 227.627 0.131896 -1.57047 0
M  V30 2476 C 228.876 0.84044 -1.83356 0
M  V30 2477 C 229.189 1.81646 -0.725535 0
M  V30 2478 O 230.395 2.57025 -0.874659 0
M  V30 2479 C 228.851 1.54528 -3.25037 0
M  V30 2480 C 228.459 0.610902 -4.43815 0
M  V30 2481 C 230.203 2.23972 -3.60606 0
M  V30 2482 C 228.11 1.31823 -5.76521 0
M  V30 2483 H 227.04 0.317599 -0.683847 0
M  V30 2484 H 229.691 0.0931561 -1.83263 0
M  V30 2485 H 228.073 2.33873 -3.19561 0
M  V30 2486 H 229.247 -0.148407 -4.60561 0
M  V30 2487 H 227.562 0.0241016 -4.16393 0
M  V30 2488 H 230.159 2.77558 -4.57018 0
M  V30 2489 H 230.502 3.01173 -2.87403 0
M  V30 2490 H 231.035 1.51529 -3.6781 0
M  V30 2491 H 227.774 0.587771 -6.52859 0
M  V30 2492 H 227.294 2.04987 -5.63685 0
M  V30 2493 H 228.973 1.855 -6.19838 0
M  V30 2494 N 229.106 1.52395 0.401703 0
M  V30 2495 C 230.069 1.75636 1.47257 0
M  V30 2496 C 231.069 0.62628 1.48103 0
M  V30 2497 O 232.259 0.894227 1.49497 0
M  V30 2498 C 229.391 1.84553 2.86624 0
M  V30 2499 H 230.584 2.71241 1.27938 0
M  V30 2500 H 228.137 1.42923 0.632662 0
M  V30 2501 H 228.872 0.908882 3.11303 0
M  V30 2502 H 228.657 2.66715 2.87412 0
M  V30 2503 H 230.147 2.04251 3.64241 0
M  V30 2504 N 230.584 -0.659388 1.43143 0
M  V30 2505 C 231.861 -1.41627 1.34912 0
M  V30 2506 C 232.241 -2.11099 -0.00607785 0
M  V30 2507 O 231.589 -2.04353 -1.02236 0
M  V30 2508 C 231.799 -2.40604 2.52805 0
M  V30 2509 C 233.147 -3.04789 2.95616 0
M  V30 2510 O 234.171 -2.50932 2.52807 0
M  V30 2511 O 233.03 -4.02421 3.69756 0
M  V30 2512 H 230.124 -0.63246 0.532844 0
M  V30 2513 H 232.67 -0.686814 1.5518 0
M  V30 2514 H 231.442 -1.88174 3.43083 0
M  V30 2515 H 231.065 -3.21009 2.34604 0
M  V30 2516 N 232.062 -1.29571 -0.897171 0
M  V30 2517 C 233.478 -1.07637 -1.17841 0
M  V30 2518 C 233.678 0.170713 -2.00776 0
M  V30 2519 O 232.734 0.867768 -2.3712 0
M  V30 2520 C 234.047 -2.3332 -1.8969 0
M  V30 2521 C 235.595 -2.38664 -2.02505 0
M  V30 2522 C 236.07 -3.64157 -2.77765 0
M  V30 2523 N 237.561 -3.64894 -2.85318 0
M  V30 2524 C 238.296 -4.58679 -3.44094 0
M  V30 2525 N 237.792 -5.62799 -4.04017 0
M  V30 2526 N 239.585 -4.46245 -3.41793 0
M  V30 2527 H 231.736 -2.09598 -0.343883 0
M  V30 2528 H 233.999 -0.923333 -0.214848 0
M  V30 2529 H 233.705 -3.24262 -1.36187 0
M  V30 2530 H 233.579 -2.41025 -2.9015 0
M  V30 2531 H 235.966 -1.48208 -2.55183 0
M  V30 2532 H 236.047 -2.34943 -1.01171 0
M  V30 2533 H 235.691 -4.54965 -2.25763 0
M  V30 2534 H 235.621 -3.65137 -3.7945 0
M  V30 2535 H 238.112 -2.89613 -2.42761 0
M  V30 2536 H 238.425 -6.3048 -4.46895 0
M  V30 2537 H 236.77 -5.66605 -4.02472 0
M  V30 2538 H 239.961 -3.64094 -2.94199 0
M  V30 2539 H 240.134 -5.19518 -3.87304 0
M  V30 2540 N 233.54 1.10788 -1.12088 0
M  V30 2541 C 234.768 1.86461 -0.896651 0
M  V30 2542 C 235.183 1.80492 0.553912 0
M  V30 2543 O 234.54 1.19102 1.38278 0
M  V30 2544 C 234.591 3.35006 -1.35843 0
M  V30 2545 O 234.312 3.40866 -2.75213 0
M  V30 2546 C 235.813 4.27565 -1.1706 0
M  V30 2547 H 233.033 0.589425 -0.320654 0
M  V30 2548 H 235.577 1.40076 -1.48993 0
M  V30 2549 H 233.732 3.7887 -0.808458 0
M  V30 2550 H 234.146 4.33411 -2.9539 0
M  V30 2551 H 235.62 5.30007 -1.54263 0
M  V30 2552 H 236.097 4.3906 -0.110814 0
M  V30 2553 H 236.703 3.89501 -1.70789 0
M  V30 2554 N 235.018 0.912232 1.28515 0
M  V30 2555 C 236.267 0.540504 1.94323 0
M  V30 2556 C 236.58 -0.920044 1.72611 0
M  V30 2557 O 237.786 -1.39986 2.32629 0
M  V30 2558 C 236.242 0.915803 3.48053 0
M  V30 2559 C 235.85 2.39598 3.78546 0
M  V30 2560 C 237.594 0.614588 4.20027 0
M  V30 2561 C 235.501 2.71148 5.25578 0
M  V30 2562 H 234.431 0.198418 0.727424 0
M  V30 2563 H 237.082 1.11094 1.46049 0
M  V30 2564 H 235.464 0.274168 3.9505 0
M  V30 2565 H 236.638 3.08422 3.42364 0
M  V30 2566 H 234.953 2.66749 3.1974 0
M  V30 2567 H 237.55 0.827002 5.28266 0
M  V30 2568 H 237.893 -0.447531 4.13887 0
M  V30 2569 H 238.426 1.21462 3.78803 0
M  V30 2570 H 235.165 3.76207 5.36794 0
M  V30 2571 H 234.685 2.0696 5.62963 0
M  V30 2572 H 236.364 2.58072 5.93302 0
M  V30 2573 N 236.496 -1.42363 0.676048 0
M  V30 2574 C 237.428 -2.29164 -0.0404605 0
M  V30 2575 C 238.441 -1.43747 -0.764245 0
M  V30 2576 O 239.63 -1.67453 -0.618195 0
M  V30 2577 C 236.73 -3.21196 -1.08103 0
M  V30 2578 C 235.903 -4.35273 -0.430812 0
M  V30 2579 C 234.962 -5.08017 -1.37133 0
M  V30 2580 O 233.988 -5.62494 -0.87116 0
M  V30 2581 N 235.19 -5.13647 -2.70456 0
M  V30 2582 H 237.955 -2.91298 0.704667 0
M  V30 2583 H 235.516 -1.53303 0.520559 0
M  V30 2584 H 237.508 -3.66728 -1.71152 0
M  V30 2585 H 236.078 -2.60505 -1.72788 0
M  V30 2586 H 235.298 -3.92372 0.379209 0
M  V30 2587 H 236.586 -5.08795 0.0221132 0
M  V30 2588 H 235.984 -4.708 -3.1363 0
M  V30 2589 H 234.541 -5.62821 -3.28749 0
M  V30 2590 N 237.974 -0.419461 -1.51915 0
M  V30 2591 C 238.884 0.407528 -2.31033 0
M  V30 2592 C 239.9 1.04413 -1.3919 0
M  V30 2593 O 241.076 1.0434 -1.72265 0
M  V30 2594 C 238.141 1.50365 -3.12396 0
M  V30 2595 C 237.202 0.889029 -4.19994 0
M  V30 2596 C 236.435 1.93291 -4.97468 0
M  V30 2597 O 236.658 3.15259 -4.75361 0
M  V30 2598 O 235.592 1.53339 -5.8204 0
M  V30 2599 H 239.418 -0.237865 -3.02767 0
M  V30 2600 H 237.003 -0.182413 -1.48282 0
M  V30 2601 H 238.885 2.13975 -3.63032 0
M  V30 2602 H 237.56 2.13345 -2.43445 0
M  V30 2603 H 236.467 0.215353 -3.7348 0
M  V30 2604 H 237.8 0.302991 -4.91267 0
M  V30 2605 N 239.452 1.56882 -0.150215 0
M  V30 2606 C 240.415 2.1573 0.774157 0
M  V30 2607 C 241.415 1.0999 1.17298 0
M  V30 2608 O 242.605 1.35613 1.09338 0
M  V30 2609 C 239.737 2.72302 2.05096 0
M  V30 2610 H 240.93 2.98752 0.262201 0
M  V30 2611 H 238.483 1.55985 0.099248 0
M  V30 2612 H 239.218 1.92956 2.6065 0
M  V30 2613 H 239.003 3.49665 1.77416 0
M  V30 2614 H 240.493 3.17632 2.71109 0
M  V30 2615 N 240.93 -0.123565 1.57115 0
M  V30 2616 C 242.207 -0.862196 1.75572 0
M  V30 2617 C 242.587 -1.98279 0.724475 0
M  V30 2618 O 241.935 -2.27102 -0.252407 0
M  V30 2619 C 242.145 -1.38309 3.20424 0
M  V30 2620 C 243.493 -1.83724 3.82793 0
M  V30 2621 O 244.517 -1.47999 3.23998 0
M  V30 2622 O 243.376 -2.49685 4.86127 0
M  V30 2623 H 240.47 -0.409113 0.718718 0
M  V30 2624 H 243.016 -0.107661 1.69358 0
M  V30 2625 H 241.788 -0.578889 3.86994 0
M  V30 2626 H 241.411 -2.20046 3.31158 0
M  V30 2627 N 242.408 -1.52605 -0.393616 0
M  V30 2628 C 243.34 -1.73303 -1.49995 0
M  V30 2629 C 244.353 -0.613473 -1.50799 0
M  V30 2630 O 245.542 -0.889049 -1.54784 0
M  V30 2631 C 242.642 -1.77245 -2.88855 0
M  V30 2632 C 241.815 -3.06483 -3.12069 0
M  V30 2633 C 240.874 -3.02033 -4.30886 0
M  V30 2634 O 239.9 -3.75907 -4.27414 0
M  V30 2635 N 241.102 -2.20897 -5.36828 0
M  V30 2636 H 243.867 -2.68756 -1.32629 0
M  V30 2637 H 241.428 -1.51036 -0.583083 0
M  V30 2638 H 243.42 -1.7178 -3.66434 0
M  V30 2639 H 241.99 -0.891993 -2.99603 0
M  V30 2640 H 241.21 -3.25474 -2.22396 0
M  V30 2641 H 242.498 -3.91947 -3.2443 0
M  V30 2642 H 241.896 -1.60336 -5.42502 0
M  V30 2643 H 240.453 -2.21275 -6.13091 0
M  V30 2644 N 243.887 0.651787 -1.4349 0
M  V30 2645 C 245.164 1.40909 -1.35661 0
M  V30 2646 C 245.544 2.11099 -0.00511733 0
M  V30 2647 O 244.892 2.04892 1.0115 0
M  V30 2648 C 245.102 2.3926 -2.54078 0
M  V30 2649 C 246.45 3.03217 -2.97228 0
M  V30 2650 O 247.474 2.49588 -2.54135 0
M  V30 2651 O 246.333 4.00455 -3.71885 0
M  V30 2652 H 243.427 0.629625 -0.536191 0
M  V30 2653 H 245.973 0.678575 -1.55542 0
M  V30 2654 H 244.745 1.86352 -3.44076 0
M  V30 2655 H 244.368 3.1976 -2.36303 0
M  V30 2656 N 245.365 1.30045 0.890287 0
M  V30 2657 C 246.613 1.18327 1.63839 0
M  V30 2658 C 246.934 -0.263455 1.93212 0
M  V30 2659 O 246.204 -1.17856 1.56482 0
M  V30 2660 H 244.784 0.434933 0.607324 0
M  V30 2661 H 247.446 1.631 1.06698 0
M  V30 2662 H 246.542 1.74024 2.59079 0
M  V30 2663 N 246.843 -1.10192 1.12674 0
M  V30 2664 C 248.12 -1.78717 0.794965 0
M  V30 2665 C 248.5 -1.98628 -0.714853 0
M  V30 2666 O 247.848 -1.58135 -1.64941 0
M  V30 2667 C 248.058 -3.11546 1.5729 0
M  V30 2668 C 249.406 -3.86382 1.76052 0
M  V30 2669 O 250.43 -3.21274 1.53823 0
M  V30 2670 O 249.289 -5.03246 2.13087 0
M  V30 2671 H 246.383 -0.774702 0.289423 0
M  V30 2672 H 248.929 -1.16819 1.23091 0
M  V30 2673 H 247.701 -2.92489 2.59935 0
M  V30 2674 H 247.324 -3.81164 1.13137 0
M  V30 2675 N 248.321 -0.919034 -1.28029 0
M  V30 2676 C 249.546 -0.570357 -1.99403 0
M  V30 2677 C 249.971 0.842486 -1.68178 0
M  V30 2678 O 249.329 1.56391 -0.917141 0
M  V30 2679 C 249.377 -0.792541 -3.51783 0
M  V30 2680 O 248.481 0.145988 -4.12142 0
M  V30 2681 H 247.822 -0.220555 -0.6263 0
M  V30 2682 H 250.352 -1.23592 -1.63053 0
M  V30 2683 H 250.362 -0.704708 -4.01868 0
M  V30 2684 H 249.037 -1.82247 -3.73844 0
M  V30 2685 H 247.614 0.00897528 -3.72899 0
M  V30 2686 N 249.799 1.42003 -0.683588 0
M  V30 2687 C 250.762 2.29191 -0.0198243 0
M  V30 2688 C 251.762 1.43773 0.72013 0
M  V30 2689 O 252.952 1.65061 0.556815 0
M  V30 2690 C 250.084 3.26435 0.982487 0
M  V30 2691 H 251.277 2.8938 -0.787345 0
M  V30 2692 H 248.83 1.49789 -0.446418 0
M  V30 2693 H 249.565 2.71203 1.77819 0
M  V30 2694 H 249.35 3.89449 0.455182 0
M  V30 2695 H 250.84 3.918 1.44508 0
M  V30 2696 N 251.277 0.427512 1.51691 0
M  V30 2697 C 252.526 -0.143679 2.01188 0
M  V30 2698 C 252.839 -1.44642 1.31674 0
M  V30 2699 O 254.045 -2.09997 1.72086 0
M  V30 2700 C 252.501 -0.306602 3.58592 0
M  V30 2701 C 252.109 0.985125 4.37035 0
M  V30 2702 C 253.853 -0.832091 4.16265 0
M  V30 2703 C 251.76 0.788382 5.86122 0
M  V30 2704 H 250.69 -0.0574701 0.751807 0
M  V30 2705 H 253.341 0.555772 1.74881 0
M  V30 2706 H 251.723 -1.06882 3.81303 0
M  V30 2707 H 252.897 1.75492 4.26074 0
M  V30 2708 H 251.212 1.4384 3.90767 0
M  V30 2709 H 253.809 -0.995617 5.25349 0
M  V30 2710 H 254.152 -1.81186 3.74803 0
M  V30 2711 H 254.685 -0.128444 3.97593 0
M  V30 2712 H 251.424 1.74025 6.31978 0
M  V30 2713 H 250.944 0.0582143 5.99772 0
M  V30 2714 H 252.623 0.437722 6.45518 0
M  V30 2715 N 252.755 -1.56801 0.158532 0
M  V30 2716 C 253.98 -2.01295 -0.499516 0
M  V30 2717 C 254.405 -1.03799 -1.56867 0
M  V30 2718 O 253.763 -0.0155162 -1.81293 0
M  V30 2719 C 253.811 -3.44469 -1.06647 0
M  V30 2720 O 252.915 -3.50012 -2.18095 0
M  V30 2721 H 252.256 -0.652884 -0.12099 0
M  V30 2722 H 254.786 -2.02958 0.258661 0
M  V30 2723 H 254.796 -3.8351 -1.39227 0
M  V30 2724 H 253.471 -4.14932 -0.283581 0
M  V30 2725 H 252.048 -3.22822 -1.86656 0
M  V30 2726 N 254.233 0.115231 -1.57178 0
M  V30 2727 C 255.48 0.822351 -1.8505 0
M  V30 2728 C 255.808 1.79701 -0.744168 0
M  V30 2729 O 255.063 1.93909 0.26414 0
M  V30 2730 C 255.362 1.60324 -3.19423 0
M  V30 2731 C 255.028 0.772536 -4.44233 0
M  V30 2732 C 253.69 0.543468 -4.78121 0
M  V30 2733 C 256.042 0.193746 -5.2084 0
M  V30 2734 C 253.37 -0.274583 -5.86057 0
M  V30 2735 C 255.722 -0.611517 -6.29637 0
M  V30 2736 C 254.386 -0.850867 -6.62055 0
M  V30 2737 H 253.656 0.30092 -0.677147 0
M  V30 2738 H 256.303 0.0845802 -1.91313 0
M  V30 2739 H 254.608 2.41203 -3.08753 0
M  V30 2740 H 256.305 2.1544 -3.38211 0
M  V30 2741 H 252.895 0.96117 -4.17683 0
M  V30 2742 H 257.079 0.357926 -4.95008 0
M  V30 2743 H 252.335 -0.469206 -6.09597 0
M  V30 2744 H 256.509 -1.06697 -6.88178 0
M  V30 2745 H 254.136 -1.48657 -7.45523 0
M  V30 2746 N 255.711 1.52812 0.385517 0
M  V30 2747 C 256.939 1.71907 1.15133 0
M  V30 2748 C 257.354 0.439004 1.83625 0
M  V30 2749 O 256.711 -0.586765 1.7281 0
M  V30 2750 C 256.762 2.87099 2.19673 0
M  V30 2751 O 256.483 4.10151 1.53973 0
M  V30 2752 C 257.984 3.17902 3.08955 0
M  V30 2753 H 255.204 0.575479 0.345057 0
M  V30 2754 H 257.748 1.99476 0.45052 0
M  V30 2755 H 255.903 2.61982 2.85384 0
M  V30 2756 H 256.317 4.74514 2.23465 0
M  V30 2757 H 257.791 4.01959 3.7833 0
M  V30 2758 H 258.268 2.3243 3.72657 0
M  V30 2759 H 258.874 3.44871 2.48885 0
M  V30 2760 N 257.189 -0.644168 1.43834 0
M  V30 2761 C 258.099 -1.78563 1.52159 0
M  V30 2762 C 259.115 -1.69147 0.408069 0
M  V30 2763 O 260.291 -1.90156 0.663524 0
M  V30 2764 C 257.356 -3.14888 1.45073 0
M  V30 2765 C 256.417 -3.36034 2.6717 0
M  V30 2766 C 255.65 -4.65855 2.60413 0
M  V30 2767 O 255.873 -5.45805 1.65689 0
M  V30 2768 O 254.807 -4.88918 3.5106 0
M  V30 2769 H 258.633 -1.74494 2.48567 0
M  V30 2770 H 256.218 -0.80378 1.25935 0
M  V30 2771 H 258.1 -3.96179 1.43597 0
M  V30 2772 H 256.775 -3.19528 0.518037 0
M  V30 2773 H 255.682 -2.54472 2.74217 0
M  V30 2774 H 257.015 -3.36247 3.59442 0
M  V30 2775 N 258.668 -1.30515 -0.883378 0
M  V30 2776 C 259.915 -1.1943 -1.63532 0
M  V30 2777 C 260.243 0.250627 -1.92878 0
M  V30 2778 O 259.498 1.19556 -1.54935 0
M  V30 2779 C 259.797 -1.96994 -2.98209 0
M  V30 2780 C 259.463 -3.466 -2.88408 0
M  V30 2781 C 258.125 -3.87397 -2.85442 0
M  V30 2782 C 260.477 -4.41863 -2.76418 0
M  V30 2783 C 257.805 -5.21745 -2.68327 0
M  V30 2784 C 260.157 -5.7632 -2.60841 0
M  V30 2785 C 258.821 -6.16354 -2.56251 0
M  V30 2786 H 258.091 -0.437025 -0.598406 0
M  V30 2787 H 260.738 -1.61635 -1.02696 0
M  V30 2788 H 259.043 -1.47429 -3.63004 0
M  V30 2789 H 260.74 -1.85808 -3.55354 0
M  V30 2790 H 257.33 -3.14182 -2.91527 0
M  V30 2791 H 261.514 -4.11285 -2.77775 0
M  V30 2792 H 256.77 -5.51853 -2.63189 0
M  V30 2793 H 260.944 -6.49772 -2.50538 0
M  V30 2794 H 258.571 -7.20401 -2.42748 0
M  V30 2795 N 260.146 1.09593 -1.13257 0
M  V30 2796 C 261.392 1.82003 -0.89458 0
M  V30 2797 C 261.725 1.85402 0.577906 0
M  V30 2798 O 261 1.32099 1.42759 0
M  V30 2799 C 261.283 3.28237 -1.48096 0
M  V30 2800 C 261.136 3.3312 -3.02244 0
M  V30 2801 C 262.455 4.24871 -1.14774 0
M  V30 2802 H 259.574 0.66077 -0.326424 0
M  V30 2803 H 262.216 1.28389 -1.40058 0
M  V30 2804 H 260.366 3.74024 -1.05062 0
M  V30 2805 H 262.038 2.95748 -3.54021 0
M  V30 2806 H 260.281 2.72756 -3.37323 0
M  V30 2807 H 260.952 4.3613 -3.38371 0
M  V30 2808 H 263.428 3.87361 -1.51957 0
M  V30 2809 H 262.304 5.25532 -1.58452 0
M  V30 2810 H 262.565 4.42058 -0.0611849 0
M  V30 2811 N 261.624 0.925811 1.2754 0
M  V30 2812 C 262.571 0.422045 2.26908 0
M  V30 2813 C 263.541 -0.510029 1.58076 0
M  V30 2814 O 264.726 -0.429599 1.85901 0
M  V30 2815 C 261.866 -0.320837 3.43605 0
M  V30 2816 C 260.979 0.64513 4.27156 0
M  V30 2817 C 260.114 -0.117405 5.3107 0
M  V30 2818 C 259.153 0.841391 6.0629 0
M  V30 2819 N 258.29 0.111604 7.02011 0
M  V30 2820 H 263.13 1.27441 2.69375 0
M  V30 2821 H 260.667 0.639697 1.32462 0
M  V30 2822 H 262.625 -0.76785 4.10073 0
M  V30 2823 H 261.255 -1.13745 3.02096 0
M  V30 2824 H 260.307 1.21067 3.6062 0
M  V30 2825 H 261.619 1.37797 4.79389 0
M  V30 2826 H 260.773 -0.624422 6.03478 0
M  V30 2827 H 259.512 -0.883219 4.79636 0
M  V30 2828 H 258.517 1.35967 5.32722 0
M  V30 2829 H 259.742 1.60696 6.59813 0
M  V30 2830 H 257.688 -0.635999 6.5291 0
M  V30 2831 H 257.605 0.784044 7.51923 0
M  V30 2832 H 258.873 -0.374823 7.78598 0
M  V30 2833 N 263.102 -1.41638 0.69111 0
M  V30 2834 C 264.348 -2.01598 0.220519 0
M  V30 2835 C 264.681 -1.54594 -1.17535 0
M  V30 2836 O 263.956 -0.755177 -1.79241 0
M  V30 2837 C 264.239 -3.59062 0.273243 0
M  V30 2838 C 264.092 -4.16203 1.70573 0
M  V30 2839 C 265.411 -4.38546 -0.369457 0
M  V30 2840 H 262.53 -0.732468 0.0816045 0
M  V30 2841 H 265.172 -1.68445 0.878986 0
M  V30 2842 H 263.322 -3.87435 -0.287411 0
M  V30 2843 H 264.994 -3.98722 2.31989 0
M  V30 2844 H 263.237 -3.71414 2.2413 0
M  V30 2845 H 263.908 -5.25358 1.69419 0
M  V30 2846 H 266.384 -4.1596 0.107977 0
M  V30 2847 H 265.26 -5.48069 -0.302002 0
M  V30 2848 H 265.521 -4.17662 -1.44951 0
M  V30 2849 N 264.58 -0.43555 -1.51462 0
M  V30 2850 C 265.51 0.367376 -2.30592 0
M  V30 2851 C 266.491 1.02263 -1.35928 0
M  V30 2852 O 267.676 1.02661 -1.64847 0
M  V30 2853 C 264.806 1.46983 -3.14664 0
M  V30 2854 C 263.76 0.938161 -4.17591 0
M  V30 2855 C 263.086 2.13622 -4.90173 0
M  V30 2856 C 264.386 -0.0261621 -5.22293 0
M  V30 2857 H 266.08 -0.292969 -2.97963 0
M  V30 2858 H 263.626 -0.14234 -1.43295 0
M  V30 2859 H 265.579 2.03873 -3.688 0
M  V30 2860 H 264.303 2.15843 -2.4511 0
M  V30 2861 H 262.962 0.391481 -3.64504 0
M  V30 2862 H 262.61 2.81098 -4.17124 0
M  V30 2863 H 262.31 1.78688 -5.59772 0
M  V30 2864 H 263.834 2.7107 -5.47132 0
M  V30 2865 H 265.248 0.452384 -5.71512 0
M  V30 2866 H 263.645 -0.287992 -5.99409 0
M  V30 2867 H 264.715 -0.963391 -4.75233 0
M  V30 2868 N 266.058 1.56714 -0.166846 0
M  V30 2869 C 266.968 2.21331 0.777791 0
M  V30 2870 C 267.984 1.20358 1.25658 0
M  V30 2871 O 269.16 1.53005 1.30964 0
M  V30 2872 C 266.225 2.83787 1.99163 0
M  V30 2873 C 265.286 3.99947 1.56016 0
M  V30 2874 C 264.519 4.59415 2.71613 0
M  V30 2875 O 264.742 4.17769 3.88362 0
M  V30 2876 O 263.676 5.49359 2.45945 0
M  V30 2877 H 267.502 3.02605 0.257636 0
M  V30 2878 H 265.087 1.49275 0.0611393 0
M  V30 2879 H 266.969 3.23405 2.70161 0
M  V30 2880 H 265.644 2.05513 2.50092 0
M  V30 2881 H 264.551 3.65007 0.819809 0
M  V30 2882 H 265.884 4.79801 1.09782 0
M  V30 2883 N 267.536 -0.106894 1.57237 0
M  V30 2884 C 268.483 -1.13049 2.01217 0
M  V30 2885 C 269.453 -1.40471 0.886403 0
M  V30 2886 O 270.638 -1.52133 1.15153 0
M  V30 2887 C 267.778 -2.4487 2.43172 0
M  V30 2888 C 266.891 -2.24281 3.69218 0
M  V30 2889 C 266.026 -3.49417 4.00101 0
M  V30 2890 C 265.065 -3.24038 5.19294 0
M  V30 2891 N 264.202 -4.41409 5.45988 0
M  V30 2892 H 269.042 -0.748456 2.88448 0
M  V30 2893 H 266.579 -0.358054 1.42676 0
M  V30 2894 H 268.537 -3.21786 2.65537 0
M  V30 2895 H 267.167 -2.80944 1.58967 0
M  V30 2896 H 266.219 -1.38224 3.54398 0
M  V30 2897 H 267.531 -2.01512 4.56283 0
M  V30 2898 H 266.685 -4.34746 4.2318 0
M  V30 2899 H 265.424 -3.75229 3.11535 0
M  V30 2900 H 264.429 -2.37102 4.96047 0
M  V30 2901 H 265.654 -2.99584 6.09447 0
M  V30 2902 H 263.6 -4.67319 4.60379 0
M  V30 2903 H 263.517 -4.21788 6.274 0
M  V30 2904 H 264.785 -5.27836 5.73593 0
M  V30 2905 N 269.014 -1.53014 -0.377408 0
M  V30 2906 C 270.26 -1.68872 -1.12294 0
M  V30 2907 C 270.593 -0.433224 -1.89306 0
M  V30 2908 O 269.868 0.569258 -1.85983 0
M  V30 2909 C 270.151 -2.93115 -2.09179 0
M  V30 2910 C 270.004 -4.28794 -1.35853 0
M  V30 2911 C 271.323 -3.12928 -3.09458 0
M  V30 2912 H 268.442 -0.614518 -0.406862 0
M  V30 2913 H 271.084 -1.85633 -0.40503 0
M  V30 2914 H 269.234 -2.78956 -2.70399 0
M  V30 2915 H 270.906 -4.54742 -0.775082 0
M  V30 2916 H 269.149 -4.28744 -0.660364 0
M  V30 2917 H 269.82 -5.11837 -2.06706 0
M  V30 2918 H 272.296 -3.26194 -2.58334 0
M  V30 2919 H 271.172 -4.01316 -3.74482 0
M  V30 2920 H 271.433 -2.27669 -3.78971 0
M  V30 2921 N 270.492 0.636531 -1.44174 0
M  V30 2922 C 271.769 1.39463 -1.37148 0
M  V30 2923 C 272.149 2.11082 -0.027507 0
M  V30 2924 O 271.497 2.05954 0.989716 0
M  V30 2925 C 271.707 2.36552 -2.56601 0
M  V30 2926 C 273.055 3.00048 -3.00427 0
M  V30 2927 O 274.079 2.46878 -2.56767 0
M  V30 2928 O 272.938 3.96488 -3.76111 0
M  V30 2929 H 270.032 0.623903 -0.542839 0
M  V30 2930 H 272.578 0.662039 -1.56253 0
M  V30 2931 H 271.35 1.82692 -3.46034 0
M  V30 2932 H 270.973 3.17236 -2.39681 0
M  V30 2933 N 271.97 1.30982 0.876444 0
M  V30 2934 C 273.216 1.20474 1.63138 0
M  V30 2935 C 273.549 -0.238096 1.92735 0
M  V30 2936 O 272.824 -1.1692 1.55435 0
M  V30 2937 C 273.107 2.04244 2.96574 0
M  V30 2938 C 272.96 3.56793 2.73896 0
M  V30 2939 C 274.279 1.88684 3.97601 0
M  V30 2940 H 271.398 0.439001 0.591985 0
M  V30 2941 H 274.04 1.60704 1.01361 0
M  V30 2942 H 272.19 1.70063 3.493 0
M  V30 2943 H 273.862 4.01077 2.27892 0
M  V30 2944 H 272.105 3.80548 2.08245 0
M  V30 2945 H 272.776 4.10706 3.68815 0
M  V30 2946 H 275.252 2.18584 3.54062 0
M  V30 2947 H 274.128 2.4961 4.88862 0
M  V30 2948 H 274.389 0.848343 4.33884 0
M  V30 2949 N 273.449 -1.08991 1.13837 0
M  V30 2950 C 274.359 -2.19301 0.833333 0
M  V30 2951 C 275.375 -1.73026 -0.183847 0
M  V30 2952 O 276.551 -2.01395 -0.0138092 0
M  V30 2953 C 273.616 -3.45323 0.308651 0
M  V30 2954 C 272.677 -4.06255 1.38764 0
M  V30 2955 C 271.91 -5.26262 0.887896 0
M  V30 2956 O 272.133 -5.69747 -0.27287 0
M  V30 2957 O 271.067 -5.78435 1.66421 0
M  V30 2958 H 274.893 -2.47854 1.75506 0
M  V30 2959 H 272.478 -1.18012 0.916166 0
M  V30 2960 H 274.36 -4.21394 0.0216739 0
M  V30 2961 H 273.035 -3.18362 -0.585431 0
M  V30 2962 H 271.942 -3.318 1.72799 0
M  V30 2963 H 273.275 -4.37452 2.25602 0
M  V30 2964 N 274.927 -0.932562 -1.27047 0
M  V30 2965 C 275.859 -0.392734 -2.2581 0
M  V30 2966 C 276.872 0.479241 -1.55586 0
M  V30 2967 O 278.061 0.291078 -1.76111 0
M  V30 2968 C 275.161 0.455456 -3.35826 0
M  V30 2969 C 274.334 -0.398355 -4.35582 0
M  V30 2970 C 273.393 0.387985 -5.24768 0
M  V30 2971 O 272.419 -0.206003 -5.68827 0
M  V30 2972 N 273.621 1.68664 -5.55457 0
M  V30 2973 H 276.386 -1.24173 -2.72766 0
M  V30 2974 H 273.947 -0.800511 -1.40725 0
M  V30 2975 H 275.939 0.988692 -3.92437 0
M  V30 2976 H 274.509 1.20522 -2.88432 0
M  V30 2977 H 273.729 -1.11286 -3.78165 0
M  V30 2978 H 275.017 -0.981889 -4.99236 0
M  V30 2979 H 274.415 2.19147 -5.21528 0
M  V30 2980 H 272.972 2.1663 -6.14748 0
M  V30 2981 N 276.405 1.4127 -0.698611 0
M  V30 2982 C 277.352 2.30773 -0.0352094 0
M  V30 2983 C 278.322 1.47273 0.768111 0
M  V30 2984 O 279.507 1.76053 0.735524 0
M  V30 2985 C 276.647 3.33346 0.893 0
M  V30 2986 C 275.76 4.31924 0.0809695 0
M  V30 2987 C 274.895 5.21566 1.0071 0
M  V30 2988 C 273.934 6.11811 0.188155 0
M  V30 2989 N 273.071 6.93926 1.06825 0
M  V30 2990 H 277.911 2.86943 -0.804207 0
M  V30 2991 H 275.448 1.4132 -0.408294 0
M  V30 2992 H 277.406 3.91368 1.44523 0
M  V30 2993 H 276.036 2.78719 1.62836 0
M  V30 2994 H 275.088 3.75825 -0.588224 0
M  V30 2995 H 276.4 4.95716 -0.553801 0
M  V30 2996 H 275.554 5.84437 1.62845 0
M  V30 2997 H 274.293 4.58008 1.67572 0
M  V30 2998 H 273.298 5.47986 -0.446254 0
M  V30 2999 H 274.523 6.77425 -0.476716 0
M  V30 3000 H 272.469 6.32973 1.72283 0
M  V30 3001 H 272.386 7.54416 0.489123 0
M  V30 3002 H 273.654 7.61262 1.67632 0
M  V30 3003 N 277.883 0.443576 1.51229 0
M  V30 3004 C 278.816 -0.410089 2.24485 0
M  V30 3005 C 279.794 -1.01949 1.26669 0
M  V30 3006 O 280.978 -1.06075 1.55821 0
M  V30 3007 C 278.105 -1.57211 3.00004 0
M  V30 3008 C 277.151 -1.08279 4.12526 0
M  V30 3009 S 277.984 -0.0197476 5.35496 0
M  V30 3010 C 279.14 -1.18629 6.14555 0
M  V30 3011 H 279.373 0.211832 2.96544 0
M  V30 3012 H 276.906 0.228156 1.52705 0
M  V30 3013 H 278.864 -2.23825 3.44111 0
M  V30 3014 H 277.525 -2.16547 2.27522 0
M  V30 3015 H 276.718 -1.95193 4.64667 0
M  V30 3016 H 276.32 -0.494797 3.70713 0
M  V30 3017 H 278.612 -2.10344 6.4402 0
M  V30 3018 H 279.555 -0.70472 7.04584 0
M  V30 3019 H 279.963 -1.42768 5.46148 0
M  V30 3020 N 279.361 -1.56624 0.175154 0
M  V30 3021 C 280.586 -2.01813 -0.478137 0
M  V30 3022 C 281.011 -1.05457 -1.55757 0
M  V30 3023 O 280.369 -0.0347439 -1.81267 0
M  V30 3024 C 280.417 -3.45581 -1.02987 0
M  V30 3025 O 279.521 -3.52305 -2.14371 0
M  V30 3026 H 278.862 -0.65413 -0.114059 0
M  V30 3027 H 281.392 -2.02673 0.280173 0
M  V30 3028 H 281.402 -3.84965 -1.35151 0
M  V30 3029 H 280.077 -4.1521 -0.239556 0
M  V30 3030 H 278.654 -3.24783 -1.83222 0
M  V30 3031 N 280.839 0.0985539 -1.57292 0
M  V30 3032 C 282.088 0.801358 -1.85098 0
M  V30 3033 C 282.401 1.80066 -0.763902 0
M  V30 3034 O 283.607 2.55112 -0.928981 0
M  V30 3035 C 282.063 1.47599 -3.28242 0
M  V30 3036 C 281.671 0.516624 -4.45011 0
M  V30 3037 C 283.415 2.16272 -3.65276 0
M  V30 3038 C 281.322 1.19564 -5.79188 0
M  V30 3039 H 280.252 0.303022 -0.69043 0
M  V30 3040 H 282.903 0.0542623 -1.8342 0
M  V30 3041 H 281.285 2.27042 -3.2445 0
M  V30 3042 H 282.459 -0.246065 -4.60143 0
M  V30 3043 H 280.774 -0.064227 -4.1635 0
M  V30 3044 H 283.371 2.67802 -4.62803 0
M  V30 3045 H 283.714 2.95009 -2.93727 0
M  V30 3046 H 284.247 1.43693 -3.70941 0
M  V30 3047 H 280.986 0.449157 -6.53959 0
M  V30 3048 H 280.506 1.92984 -5.67906 0
M  V30 3049 H 282.185 1.7231 -6.23633 0
M  V30 3050 N 282.317 1.53212 0.369288 0
M  V30 3051 C 283.733 1.42902 0.710712 0
M  V30 3052 C 283.933 0.565135 1.93413 0
M  V30 3053 O 282.989 0.0461484 2.52458 0
M  V30 3054 C 284.302 2.86042 0.927382 0
M  V30 3055 C 285.85 2.9565 1.02762 0
M  V30 3056 C 286.325 4.39843 1.27679 0
M  V30 3057 N 287.816 4.43256 1.34457 0
M  V30 3058 C 288.551 5.51929 1.55439 0
M  V30 3059 N 288.047 6.70655 1.73762 0
M  V30 3060 N 289.84 5.39502 1.57779 0
M  V30 3061 H 281.991 2.07888 -0.435457 0
M  V30 3062 H 284.254 0.938661 -0.132739 0
M  V30 3063 H 283.96 3.51557 0.100287 0
M  V30 3064 H 283.834 3.29472 1.83653 0
M  V30 3065 H 286.221 2.30291 1.84527 0
M  V30 3066 H 286.302 2.5562 0.0959504 0
M  V30 3067 H 285.946 5.05774 0.464175 0
M  V30 3068 H 285.876 4.77443 2.22162 0
M  V30 3069 H 288.367 3.5769 1.21926 0
M  V30 3070 H 288.68 7.49248 1.89335 0
M  V30 3071 H 287.025 6.73648 1.70948 0
M  V30 3072 H 290.216 4.45713 1.43029 0
M  V30 3073 H 290.389 6.2426 1.7379 0
M  V30 3074 N 283.795 -0.628877 1.44509 0
M  V30 3075 C 285.042 -1.38839 1.47411 0
M  V30 3076 C 285.37 -1.94202 0.10757 0
M  V30 3077 O 284.625 -1.74243 -0.890947 0
M  V30 3078 C 284.924 -2.56995 2.48371 0
M  V30 3079 C 284.59 -2.19908 3.93639 0
M  V30 3080 C 283.252 -2.09506 4.33198 0
M  V30 3081 C 285.604 -1.9064 4.85083 0
M  V30 3082 C 282.932 -1.68028 5.62124 0
M  V30 3083 C 285.284 -1.50655 6.14399 0
M  V30 3084 C 283.948 -1.38796 6.5291 0
M  V30 3085 H 283.218 -0.508048 0.539414 0
M  V30 3086 H 285.865 -0.712913 1.77735 0
M  V30 3087 H 284.17 -3.29786 2.11538 0
M  V30 3088 H 285.867 -3.15223 2.47861 0
M  V30 3089 H 282.457 -2.28922 3.62343 0
M  V30 3090 H 286.641 -1.97585 4.55273 0
M  V30 3091 H 281.897 -1.57452 5.90778 0
M  V30 3092 H 286.071 -1.27048 6.84713 0
M  V30 3093 H 283.698 -1.06429 7.52713 0
M  V30 3094 N 285.273 -1.31445 -0.869486 0
M  V30 3095 C 286.203 -1.21727 -1.99261 0
M  V30 3096 C 287.184 -0.104359 -1.6978 0
M  V30 3097 O 288.369 -0.289038 -1.92037 0
M  V30 3098 C 285.499 -0.924317 -3.34774 0
M  V30 3099 C 284.453 -1.99685 -3.78563 0
M  V30 3100 C 283.779 -1.55658 -5.11541 0
M  V30 3101 C 285.079 -3.41003 -3.95619 0
M  V30 3102 H 286.773 -2.1569 -2.07649 0
M  V30 3103 H 284.319 -1.03839 -0.997675 0
M  V30 3104 H 286.272 -0.842934 -4.12883 0
M  V30 3105 H 284.996 0.0509793 -3.2656 0
M  V30 3106 H 283.655 -2.06813 -3.02694 0
M  V30 3107 H 283.303 -0.569132 -4.9977 0
M  V30 3108 H 283.003 -2.27409 -5.41811 0
M  V30 3109 H 284.527 -1.48928 -5.92159 0
M  V30 3110 H 285.941 -3.36547 -4.64122 0
M  V30 3111 H 284.338 -4.10975 -4.37286 0
M  V30 3112 H 285.408 -3.81754 -2.98985 0
M  V30 3113 N 286.751 1.08385 -1.14413 0
M  V30 3114 C 287.701 2.13509 -0.79987 0
M  V30 3115 C 288.685 1.5951 0.211059 0
M  V30 3116 O 289.877 1.76995 0.0133694 0
M  V30 3117 C 287.006 3.42162 -0.279297 0
M  V30 3118 C 286.092 4.03042 -1.31976 0
M  V30 3119 N 286.483 4.38327 -2.52395 0
M  V30 3120 C 284.781 4.30379 -1.17004 0
M  V30 3121 C 285.482 4.86428 -3.19003 0
M  V30 3122 N 284.458 4.84547 -2.46405 0
M  V30 3123 H 288.26 2.38609 -1.7159 0
M  V30 3124 H 285.774 1.2572 -1.02802 0
M  V30 3125 H 287.771 4.16898 -0.0143688 0
M  V30 3126 H 286.431 3.18511 0.630923 0
M  V30 3127 H 287.442 4.29349 -2.89621 0
M  V30 3128 H 284.119 4.16281 -0.318854 0
M  V30 3129 H 285.509 5.23107 -4.21674 0
M  V30 3130 O 288.268 1.07005 1.20964 0
M  V30 3131 H 288.959 0.754737 1.78391 0
M  V30 END ATOM
M  V30 BEGIN BOND
M  V30 END BOND
M  V30 END CTAB
M  END
$$$$
