drugbank_target|Q99661 Kinesin-like protein KIF2C (DB04395)
 OpenBabel12092120563D

  0  0  0     0  0            999 V3000
M  V30 BEGIN CTAB
M  V30 COUNTS 11417 11502 0 0 0
M  V30 BEGIN ATOM
M  V30 1 H -0.908 1.98254 -0.117106 0
M  V30 2 N 0 1.576 0 0
M  V30 3 C 0.933 2.03868 1.02534 0
M  V30 4 C 1.911 0.928543 1.3348 0
M  V30 5 O 3.095 1.19667 1.45644 0
M  V30 6 C 0.222 2.43627 2.35294 0
M  V30 7 C -0.732 3.65373 2.2001 0
M  V30 8 S 0.101 5.13292 1.52614 0
M  V30 9 C 1.257 5.56322 2.86805 0
M  V30 10 H 1.49 2.90518 0.631377 0
M  V30 11 H -0.977 1.52953 0.210867 0
M  V30 12 H 0.981 2.67203 3.11629 0
M  V30 13 H -0.358 1.57376 2.7183 0
M  V30 14 H -1.165 3.90944 3.18086 0
M  V30 15 H -1.563 3.418 1.51819 0
M  V30 16 H 0.729 5.58782 3.83104 0
M  V30 17 H 1.672 6.56266 2.65933 0
M  V30 18 H 2.08 4.83886 2.90714 0
M  V30 19 N 1.4781 -0.272755 1.55222 0
M  V30 20 C 2.4411 -1.32041 1.87344 0
M  V30 21 C 3.4411 -1.42342 0.74803 0
M  V30 22 O 4.6311 -1.41488 1.0162 0
M  V30 23 C 1.7631 -2.70173 2.07893 0
M  V30 24 H 2.9561 -1.04789 2.80997 0
M  V30 25 H 0.5091 -0.51083 1.47717 0
M  V30 26 H 1.2441 -3.02605 1.16622 0
M  V30 27 H 1.0291 -2.64082 2.89833 0
M  V30 28 H 2.5191 -3.45869 2.34017 0
M  V30 29 N 2.9562 -1.48159 -0.537278 0
M  V30 30 C 3.8892 -1.567 -1.65893 0
M  V30 31 C 4.8672 -0.41787 -1.57139 0
M  V30 32 O 6.0512 -0.628461 -1.77715 0
M  V30 33 C 3.1782 -1.48818 -3.04255 0
M  V30 34 C 2.2242 -2.68482 -3.31391 0
M  V30 35 S 3.0572 -4.30516 -3.1846 0
M  V30 36 C 4.2132 -4.2522 -4.59281 0
M  V30 37 H 4.4462 -2.5159 -1.58397 0
M  V30 38 H 1.9792 -1.36602 -0.719672 0
M  V30 39 H 3.9372 -1.44958 -3.84054 0
M  V30 40 H 2.5982 -0.552777 -3.09198 0
M  V30 41 H 1.7912 -2.59085 -4.32309 0
M  V30 42 H 1.3932 -2.69567 -2.59248 0
M  V30 43 H 3.6852 -3.94703 -5.5065 0
M  V30 44 H 4.6282 -5.26292 -4.73732 0
M  V30 45 H 5.0362 -3.55791 -4.38261 0
M  V30 46 N 4.4343 0.785586 -1.36625 0
M  V30 47 C 5.7113 1.53198 -1.21613 0
M  V30 48 C 6.0913 2.10187 0.196113 0
M  V30 49 O 5.4393 1.94318 1.20219 0
M  V30 50 C 5.6493 2.62388 -2.30116 0
M  V30 51 C 6.9973 3.30167 -2.66974 0
M  V30 52 O 8.0213 2.72674 -2.29188 0
M  V30 53 O 6.8803 4.34077 -3.32023 0
M  V30 54 H 3.9743 0.677865 -0.473738 0
M  V30 55 H 6.5203 0.823739 -1.48367 0
M  V30 56 H 5.2923 2.18299 -3.24748 0
M  V30 57 H 4.9153 3.40827 -2.0475 0
M  V30 58 N 5.9124 1.20967 1.01018 0
M  V30 59 C 7.1374 1.0503 1.78839 0
M  V30 60 C 7.5624 -0.395752 1.8389 0
M  V30 61 O 6.9204 -1.28529 1.27867 0
M  V30 62 C 6.9684 1.64602 3.2084 0
M  V30 63 O 6.0724 0.887988 4.02726 0
M  V30 64 H 5.4134 0.369987 0.551367 0
M  V30 65 H 7.9434 1.60399 1.27018 0
M  V30 66 H 7.9534 1.68607 3.71532 0
M  V30 67 H 6.6284 2.69841 3.16479 0
M  V30 68 H 5.2054 0.922648 3.61305 0
M  V30 69 N 7.3905 -1.2043 1.01659 0
M  V30 70 C 8.6155 -1.94318 0.724942 0
M  V30 71 C 9.0405 -1.74266 -0.708034 0
M  V30 72 O 8.3985 -1.03694 -1.48719 0
M  V30 73 C 8.4465 -3.44486 1.06591 0
M  V30 74 O 7.5505 -4.12017 0.177599 0
M  V30 75 H 6.8915 -0.60708 0.26898 0
M  V30 76 H 9.4215 -1.52861 1.35995 0
M  V30 77 H 9.4315 -3.95106 1.01762 0
M  V30 78 H 8.1065 -3.58404 2.10997 0
M  V30 79 H 6.6835 -3.71821 0.283421 0
M  V30 80 N 8.8686 -0.792821 -1.36206 0
M  V30 81 C 9.7986 -0.207853 -2.32573 0
M  V30 82 C 10.7796 0.659055 -1.56813 0
M  V30 83 O 11.9646 0.592176 -1.84951 0
M  V30 84 C 9.0946 0.655449 -3.41059 0
M  V30 85 C 8.0486 -0.111842 -4.27854 0
M  V30 86 C 7.3746 0.872274 -5.27537 0
M  V30 87 C 8.6746 -1.30299 -5.05786 0
M  V30 88 H 10.3686 -1.01294 -2.81744 0
M  V30 89 H 7.9146 -0.48854 -1.3546 0
M  V30 90 H 9.8676 1.07464 -4.07467 0
M  V30 91 H 8.5916 1.49328 -2.90463 0
M  V30 92 H 7.2506 -0.512053 -3.63006 0
M  V30 93 H 6.8986 1.70523 -4.73214 0
M  V30 94 H 6.5986 0.363291 -5.86476 0
M  V30 95 H 8.1226 1.28996 -5.96818 0
M  V30 96 H 9.5366 -0.959379 -5.65216 0
M  V30 97 H 7.9336 -1.7455 -5.74154 0
M  V30 98 H 9.0036 -2.09663 -4.37229 0
M  V30 99 N 10.3467 1.47872 -0.545128 0
M  V30 100 C 11.2787 2.27869 0.246621 0
M  V30 101 C 12.2917 1.36282 0.890561 0
M  V30 102 O 13.4807 1.61207 0.766449 0
M  V30 103 C 10.5807 3.10159 1.36582 0
M  V30 104 C 9.7537 4.29627 0.820954 0
M  V30 105 C 8.8127 4.93607 1.82314 0
M  V30 106 O 7.8387 5.52366 1.37406 0
M  V30 107 N 9.0407 4.87211 3.15603 0
M  V30 108 H 11.8057 2.96459 -0.439539 0
M  V30 109 H 9.3667 1.57367 -0.380421 0
M  V30 110 H 11.3587 3.49829 2.03474 0
M  V30 111 H 9.9287 2.43891 1.9554 0
M  V30 112 H 9.1487 3.94192 -0.0244032 0
M  V30 113 H 10.4367 5.06928 0.436063 0
M  V30 114 H 9.8347 4.40651 3.54744 0
M  V30 115 H 8.3917 5.30937 3.78087 0
M  V30 116 N 11.8248 0.280983 1.55075 0
M  V30 117 C 12.7878 -0.590896 2.21452 0
M  V30 118 C 13.7878 -1.07682 1.19421 0
M  V30 119 O 14.9778 -0.97605 1.44288 0
M  V30 120 C 12.1098 -1.81587 2.88511 0
M  V30 121 H 13.3028 -0.0112554 2.99898 0
M  V30 122 H 10.8558 0.0316438 1.56268 0
M  V30 123 H 11.5908 -2.43587 2.14093 0
M  V30 124 H 11.3758 -1.4753 3.63287 0
M  V30 125 H 12.8658 -2.43575 3.39206 0
M  V30 126 N 13.3029 -1.57598 0.00835791 0
M  V30 127 C 14.7189 -1.55764 -0.347822 0
M  V30 128 C 14.9189 -1.01186 -1.74252 0
M  V30 129 O 13.9749 -0.649371 -2.44007 0
M  V30 130 C 15.2879 -2.99927 -0.215407 0
M  V30 131 C 16.8359 -3.11656 -0.289725 0
M  V30 132 C 17.3109 -4.57621 -0.18634 0
M  V30 133 N 18.8019 -4.62557 -0.243978 0
M  V30 134 C 19.5369 -5.73094 -0.18745 0
M  V30 135 N 19.0329 -6.92753 -0.0810331 0
M  V30 136 N 20.8259 -5.61588 -0.239925 0
M  V30 137 H 12.9769 -1.91411 0.92062 0
M  V30 138 H 15.2399 -0.879562 0.353659 0
M  V30 139 H 14.9459 -3.43729 0.744512 0
M  V30 140 H 14.8199 -3.63865 -0.994097 0
M  V30 141 H 17.2069 -2.67779 -1.24009 0
M  V30 142 H 17.2879 -2.5048 0.51898 0
M  V30 143 H 16.9319 -5.02174 0.760519 0
M  V30 144 H 16.8619 -5.16752 -1.01364 0
M  V30 145 H 19.3529 -3.76481 -0.327217 0
M  V30 146 H 19.6659 -7.72787 -0.0440241 0
M  V30 147 H 18.0109 -6.94984 -0.0465419 0
M  V30 148 H 21.2019 -4.66996 -0.321317 0
M  V30 149 H 21.3749 -6.47714 -0.192407 0
M  V30 150 N 14.781 0.264519 -1.55364 0
M  V30 151 C 15.711 1.33121 -1.91836 0
M  V30 152 C 16.692 1.51101 -0.781192 0
M  V30 153 O 17.877 1.64003 -1.04003 0
M  V30 154 C 15.007 2.68921 -2.19769 0
M  V30 155 C 13.961 2.65661 -3.35571 0
M  V30 156 C 13.287 4.05093 -3.49004 0
M  V30 157 C 14.587 2.24187 -4.71739 0
M  V30 158 H 16.281 1.02844 -2.81182 0
M  V30 159 H 13.827 0.493286 -1.35287 0
M  V30 160 H 15.78 3.43663 -2.43872 0
M  V30 161 H 14.504 3.00799 -1.27231 0
M  V30 162 H 13.163 1.93377 -3.1145 0
M  V30 163 H 12.811 4.34206 -2.53917 0
M  V30 164 H 12.511 4.03804 -4.26868 0
M  V30 165 H 14.035 4.81561 -3.75408 0
M  V30 166 H 15.449 2.88654 -4.9533 0
M  V30 167 H 13.846 2.34044 -5.52579 0
M  V30 168 H 14.916 1.19327 -4.69988 0
M  V30 169 N 16.2591 1.48442 0.529413 0
M  V30 170 C 17.5061 1.56488 1.28521 0
M  V30 171 C 17.8341 0.239042 1.93025 0
M  V30 172 O 17.0891 -0.770713 1.79885 0
M  V30 173 C 17.3881 2.6523 2.39558 0
M  V30 174 C 17.0541 4.07648 1.92702 0
M  V30 175 C 15.7161 4.46411 1.79641 0
M  V30 176 C 18.0681 4.96896 1.573 0
M  V30 177 C 15.3961 5.72226 1.29514 0
M  V30 178 C 17.7481 6.23202 1.08636 0
M  V30 179 C 16.4121 6.60821 0.941919 0
M  V30 180 H 15.6821 0.572631 0.470292 0
M  V30 181 H 18.3291 1.82161 0.59072 0
M  V30 182 H 16.6341 2.33419 3.14679 0
M  V30 183 H 18.3311 2.68671 2.97686 0
M  V30 184 H 14.9211 3.77036 2.03819 0
M  V30 185 H 19.1051 4.67626 1.66251 0
M  V30 186 H 14.3611 6.00097 1.17019 0
M  V30 187 H 18.5351 6.91753 0.803136 0
M  V30 188 H 16.1621 7.58198 0.5513 0
M  V30 189 N 17.7372 -0.778329 1.37039 0
M  V30 190 C 19.1482 -1.35421 1.28523 0
M  V30 191 C 19.4992 -1.96075 -0.0700901 0
M  V30 192 O 18.6242 -1.93352 -0.971801 0
M  V30 193 C 19.2192 -2.46211 2.32735 0
M  V30 194 C 17.7782 -2.99585 2.27873 0
M  V30 195 C 16.9252 -1.72748 2.16918 0
M  V30 196 H 19.8762 -0.5791 1.47757 0
M  V30 197 H 19.8972 -3.2552 1.9702 0
M  V30 198 H 19.4092 -2.02036 3.31365 0
M  V30 199 H 17.5102 -3.48152 1.32745 0
M  V30 200 H 17.6232 -3.55646 3.21018 0
M  V30 201 H 15.9872 -1.95416 1.63354 0
M  V30 202 H 16.7702 -1.30686 3.17452 0
M  V30 203 N 19.2153 -1.21501 -1.00376 0
M  V30 204 C 20.4633 -1.03095 -1.73827 0
M  V30 205 C 20.7843 0.436341 -1.90055 0
M  V30 206 O 20.0543 1.31466 -1.45236 0
M  V30 207 H 18.6343 -0.378487 -0.644016 0
M  V30 208 H 21.2963 -1.52831 -1.20949 0
M  V30 209 H 20.3923 -1.49991 -2.73695 0
M  V30 210 N 20.6934 1.19889 -1.02296 0
M  V30 211 C 21.6234 2.25141 -0.619174 0
M  V30 212 C 22.6044 1.66051 0.368915 0
M  V30 213 O 23.7894 1.92546 0.252941 0
M  V30 214 C 20.9194 3.4728 0.0368783 0
M  V30 215 C 19.8734 4.19005 -0.872865 0
M  V30 216 C 19.1994 5.34637 -0.0822402 0
M  V30 217 C 20.4994 4.74452 -2.18387 0
M  V30 218 H 22.1934 2.59171 -1.49903 0
M  V30 219 H 19.7394 1.24579 -0.722222 0
M  V30 220 H 21.6924 4.20098 0.330958 0
M  V30 221 H 20.4164 3.12433 0.95149 0
M  V30 222 H 19.0754 3.48061 -1.15105 0
M  V30 223 H 18.7234 4.96034 0.83422 0
M  V30 224 H 18.4234 5.83557 -0.688149 0
M  V30 225 H 19.9474 6.10255 0.205238 0
M  V30 226 H 21.3614 5.39055 -1.95172 0
M  V30 227 H 19.7584 5.33834 -2.74119 0
M  V30 228 H 20.8284 3.92844 -2.84257 0
M  V30 229 N 22.1715 0.800033 1.35784 0
M  V30 230 C 23.1345 0.211565 2.28221 0
M  V30 231 C 24.1345 -0.59728 1.49296 0
M  V30 232 O 25.3245 -0.416721 1.69142 0
M  V30 233 C 22.4565 -0.705846 3.33513 0
M  V30 234 H 23.6495 1.02677 2.81776 0
M  V30 235 H 21.2025 0.570211 1.45528 0
M  V30 236 H 21.9375 -1.54498 2.85133 0
M  V30 237 H 21.7225 -0.127655 3.91892 0
M  V30 238 H 23.2125 -1.11211 4.02519 0
M  V30 239 N 23.6496 -1.47581 0.552962 0
M  V30 240 C 24.8986 -2.01684 0.0251995 0
M  V30 241 C 25.2116 -1.43317 -1.33115 0
M  V30 242 O 26.4176 -1.89057 -1.94858 0
M  V30 243 C 24.8736 -3.599 -0.00542052 0
M  V30 244 C 24.4816 -4.27257 1.34742 0
M  V30 245 C 26.2256 -4.21768 -0.4808 0
M  V30 246 C 24.1326 -5.77467 1.27614 0
M  V30 247 H 23.0626 -0.753979 0.00565033 0
M  V30 248 H 25.7136 -1.69616 0.70018 0
M  V30 249 H 24.0956 -3.88911 -0.745961 0
M  V30 250 H 25.2696 -4.09893 2.10534 0
M  V30 251 H 23.5846 -3.77358 1.76039 0
M  V30 252 H 26.1816 -5.31838 -0.55246 0
M  V30 253 H 26.5246 -3.88651 -1.49184 0
M  V30 254 H 27.0576 -3.97273 0.204752 0
M  V30 255 H 23.7966 -6.15196 2.26304 0
M  V30 256 H 23.3166 -5.9718 0.55996 0
M  V30 257 H 24.9956 -6.3959 0.976421 0
M  V30 258 N 25.1277 -0.289203 -1.54924 0
M  V30 259 C 26.0747 0.592115 -2.23075 0
M  V30 260 C 27.0447 1.13881 -1.20915 0
M  V30 261 O 28.2297 1.18551 -1.495 0
M  V30 262 C 25.3697 1.76376 -2.96623 0
M  V30 263 C 24.4827 1.24959 -4.13533 0
M  V30 264 C 23.6177 2.38416 -4.74691 0
M  V30 265 C 22.6567 1.84072 -5.83767 0
M  V30 266 N 21.7937 2.91057 -6.38929 0
M  V30 267 H 26.6337 0.00432038 -2.98 0
M  V30 268 H 24.1707 -0.00963529 -1.47097 0
M  V30 269 H 26.1287 2.45268 -3.3749 0
M  V30 270 H 24.7587 2.32337 -2.24097 0
M  V30 271 H 23.8107 0.453307 -3.77689 0
M  V30 272 H 25.1227 0.811662 -4.92152 0
M  V30 273 H 24.2767 3.15276 -5.18349 0
M  V30 274 H 23.0157 2.8553 -3.95378 0
M  V30 275 H 22.0207 1.05697 -5.39545 0
M  V30 276 H 23.2457 1.37877 -6.64956 0
M  V30 277 H 21.1917 3.37526 -5.62505 0
M  V30 278 H 21.1087 2.51724 -7.12861 0
M  V30 279 H 22.3767 3.6785 -6.87246 0
M  V30 280 N 26.6058 1.57591 -0.0167156 0
M  V30 281 C 27.8548 1.90461 0.663877 0
M  V30 282 C 28.1678 0.893515 1.73999 0
M  V30 283 O 29.3738 1.11302 2.47637 0
M  V30 284 C 27.8298 3.38155 1.23204 0
M  V30 285 C 27.4378 4.47597 0.189866 0
M  V30 286 C 29.1818 3.80111 1.88986 0
M  V30 287 C 27.0888 5.86379 0.768964 0
M  V30 288 H 26.0188 0.710738 0.251729 0
M  V30 289 H 28.6698 1.83326 -0.0799926 0
M  V30 290 H 27.0518 3.40182 2.02712 0
M  V30 291 H 28.2258 4.57112 -0.581846 0
M  V30 292 H 26.5408 4.14766 -0.368475 0
M  V30 293 H 29.1378 4.81145 2.33247 0
M  V30 294 H 29.4808 3.14511 2.72743 0
M  V30 295 H 30.0138 3.80454 1.16187 0
M  V30 296 H 26.7528 6.55493 -0.0301957 0
M  V30 297 H 26.2728 5.80496 1.50945 0
M  V30 298 H 27.9518 6.34563 1.26251 0
M  V30 299 N 28.0839 -0.256276 1.55502 0
M  V30 300 C 29.0159 -1.33981 1.85962 0
M  V30 301 C 30.0289 -1.44743 0.745212 0
M  V30 302 O 31.2179 -1.4626 1.02324 0
M  V30 303 C 28.3179 -2.7194 2.02242 0
M  V30 304 C 27.4909 -2.83562 3.33033 0
M  V30 305 C 26.5499 -4.02304 3.39172 0
M  V30 306 O 25.5759 -3.92273 4.12444 0
M  V30 307 N 26.7779 -5.15045 2.67784 0
M  V30 308 H 29.5429 -1.08191 2.7949 0
M  V30 309 H 27.1039 -0.446388 1.55624 0
M  V30 310 H 29.0959 -3.49697 2.03701 0
M  V30 311 H 27.6659 -2.90479 1.15502 0
M  V30 312 H 26.8859 -1.92555 3.43971 0
M  V30 313 H 28.1739 -2.88271 4.19258 0
M  V30 314 H 27.5719 -5.26085 2.07968 0
M  V30 315 H 26.1289 -5.90972 2.74947 0
M  V30 316 N 29.562 -1.4872 -0.521534 0
M  V30 317 C 30.978 -1.35028 -0.850855 0
M  V30 318 C 31.178 -0.367712 -1.98116 0
M  V30 319 O 30.234 0.208037 -2.51642 0
M  V30 320 C 31.547 -2.75263 -1.21041 0
M  V30 321 C 33.095 -2.83813 -1.31981 0
M  V30 322 C 33.57 -4.24769 -1.71276 0
M  V30 323 N 35.061 -4.27482 -1.78363 0
M  V30 324 C 35.796 -5.33494 -2.1017 0
M  V30 325 N 35.292 -6.49775 -2.40343 0
M  V30 326 N 37.085 -5.20894 -2.11248 0
M  V30 327 H 29.236 -2.11214 0.22413 0
M  V30 328 H 31.499 -0.947252 0.0376439 0
M  V30 329 H 31.205 -3.48765 -0.453415 0
M  V30 330 H 31.079 -3.09327 -2.15863 0
M  V30 331 H 33.466 -2.10561 -2.06756 0
M  V30 332 H 33.547 -2.53358 -0.352596 0
M  V30 333 H 33.191 -4.9854 -0.970588 0
M  V30 334 H 33.121 -4.52673 -2.69062 0
M  V30 335 H 35.612 -3.43611 -1.57288 0
M  V30 336 H 35.925 -7.26402 -2.63743 0
M  V30 337 H 34.27 -6.53035 -2.37844 0
M  V30 338 H 37.461 -4.29065 -1.87139 0
M  V30 339 H 37.634 -6.03612 -2.35704 0
M  V30 340 N 31.0401 0.771051 -1.3745 0
M  V30 341 C 32.2651 1.56529 -1.36065 0
M  V30 342 C 32.6901 1.88029 0.0515859 0
M  V30 343 O 32.0481 1.49282 1.02882 0
M  V30 344 C 32.0961 2.85187 -2.20683 0
M  V30 345 O 31.2001 3.79593 -1.61193 0
M  V30 346 H 30.5411 0.47411 -0.464883 0
M  V30 347 H 33.0711 0.954269 -1.80983 0
M  V30 348 H 33.0811 3.34283 -2.33921 0
M  V30 349 H 31.7561 2.61588 -3.23334 0
M  V30 350 H 30.3331 3.38239 -1.56999 0
M  V30 351 N 32.5182 1.22032 0.997298 0
M  V30 352 C 33.4662 0.983634 2.10778 0
M  V30 353 C 34.4602 -0.0717564 1.69248 0
M  V30 354 O 35.6662 0.080304 1.79821 0
M  V30 355 H 32.0412 0.300877 0.689186 0
M  V30 356 H 34.0122 1.92606 2.27916 0
M  V30 357 C 32.7612 0.57326 3.42942 0
M  V30 358 H 32.0842 1.37702 3.75338 0
M  V30 359 H 33.5242 0.447031 4.21637 0
M  V30 360 C 31.9832 -0.7167 3.29188 0
M  V30 361 O 32.5132 -1.77027 3.60589 0
M  V30 362 N 30.7192 -0.686167 2.82383 0
M  V30 363 H 30.2662 0.171507 2.57028 0
M  V30 364 H 30.2242 -1.54955 2.73562 0
M  V30 365 N 33.9963 -1.19345 1.0293 0
M  V30 366 C 35.2443 -1.88665 0.724574 0
M  V30 367 C 35.5653 -1.80036 -0.749144 0
M  V30 368 O 34.8353 -1.2111 -1.53978 0
M  V30 369 H 33.4153 -0.698406 0.265025 0
M  V30 370 H 36.0773 -1.44885 1.30362 0
M  V30 371 H 35.1733 -2.94987 1.01926 0
M  V30 372 N 35.4744 -0.807222 -1.35358 0
M  V30 373 C 36.4044 -0.232509 -2.3234 0
M  V30 374 C 37.3854 0.642386 -1.57504 0
M  V30 375 O 38.5704 0.572526 -1.85569 0
M  V30 376 C 35.7004 0.619238 -3.41735 0
M  V30 377 C 34.6544 -0.157215 -4.27711 0
M  V30 378 C 33.9804 0.816273 -5.28433 0
M  V30 379 C 35.2804 -1.35656 -5.04376 0
M  V30 380 H 36.9744 -1.04276 -2.80654 0
M  V30 381 H 34.5204 -0.50288 -1.34934 0
M  V30 382 H 36.4734 1.03137 -4.08584 0
M  V30 383 H 35.1974 1.46239 -2.92031 0
M  V30 384 H 33.8564 -0.550525 -3.62443 0
M  V30 385 H 33.5044 1.65494 -4.74996 0
M  V30 386 H 33.2044 0.301067 -5.86828 0
M  V30 387 H 34.7284 1.22659 -5.98153 0
M  V30 388 H 36.1424 -1.01927 -5.64166 0
M  V30 389 H 34.5394 -1.8063 -5.7227 0
M  V30 390 H 35.6094 -2.14288 -4.34981 0
M  V30 391 N 36.9525 1.47285 -0.560781 0
M  V30 392 C 38.2015 2.01668 -0.035895 0
M  V30 393 C 38.5145 1.44021 1.32353 0
M  V30 394 O 39.7205 1.90088 1.93853 0
M  V30 395 C 38.1765 3.59897 -0.0136659 0
M  V30 396 C 37.7845 4.26536 -1.37006 0
M  V30 397 C 39.5285 4.22017 0.458425 0
M  V30 398 C 37.4355 5.76782 -1.30675 0
M  V30 399 H 36.3655 0.753938 -0.00964879 0
M  V30 400 H 39.0165 1.69243 -0.709166 0
M  V30 401 H 37.3985 3.89301 0.725325 0
M  V30 402 H 38.5725 4.0877 -2.12705 0
M  V30 403 H 36.8875 3.76419 -1.78038 0
M  V30 404 H 39.4845 5.32124 0.524247 0
M  V30 405 H 39.8275 3.89437 1.4712 0
M  V30 406 H 40.3605 3.97159 -0.225818 0
M  V30 407 H 37.0995 6.13988 -2.29564 0
M  V30 408 H 36.6195 5.96875 -0.591622 0
M  V30 409 H 38.2985 6.39063 -1.01033 0
M  V30 410 N 38.4306 0.297415 1.54768 0
M  V30 411 C 39.3806 -0.595275 2.20092 0
M  V30 412 C 40.3646 -1.10163 1.17273 0
M  V30 413 O 41.5566 -1.043 1.43006 0
M  V30 414 C 38.6856 -1.7684 2.94249 0
M  V30 415 C 37.7716 -1.27818 4.0438 0
M  V30 416 N 38.1626 -0.505695 5.03266 0
M  V30 417 C 36.4606 -1.55923 4.17857 0
M  V30 418 C 37.1616 -0.245094 5.81183 0
M  V30 419 N 36.1376 -0.823881 5.3732 0
M  V30 420 H 39.9396 0.00250837 2.939 0
M  V30 421 H 37.4536 0.102007 1.62079 0
M  V30 422 H 39.4506 -2.41944 3.39513 0
M  V30 423 H 38.1106 -2.36992 2.21957 0
M  V30 424 H 39.1216 -0.150928 5.1768 0
M  V30 425 H 35.7986 -2.16849 3.56767 0
M  V30 426 H 37.1886 0.375084 6.70852 0
M  V30 427 N 39.9087 -1.5758 0.0250728 0
M  V30 428 C 41.1337 -1.96337 -0.668317 0
M  V30 429 C 41.5587 -0.901314 -1.651 0
M  V30 430 O 40.9167 0.138187 -1.80773 0
M  V30 431 C 40.9647 -3.34191 -1.35457 0
M  V30 432 O 40.0687 -3.30269 -2.46974 0
M  V30 433 H 39.4097 -0.640281 -0.175887 0
M  V30 434 H 41.9397 -2.0442 0.0857224 0
M  V30 435 H 41.9497 -3.70331 -1.71228 0
M  V30 436 H 40.6247 -4.11036 -0.634218 0
M  V30 437 H 39.2017 -3.05841 -2.13344 0
M  V30 438 N 41.3868 0.248026 -1.55636 0
M  V30 439 C 42.3498 1.29044 -1.89421 0
M  V30 440 C 43.3498 1.41134 -0.770581 0
M  V30 441 O 44.5398 1.39854 -1.03858 0
M  V30 442 C 41.6718 2.66831 -2.12165 0
M  V30 443 H 42.8648 1.00305 -2.82629 0
M  V30 444 H 40.4178 0.487265 -1.48511 0
M  V30 445 H 41.1528 3.00711 -1.21422 0
M  V30 446 H 40.9378 2.59438 -2.93997 0
M  V30 447 H 42.4278 3.42103 -2.3949 0
M  V30 448 N 42.8649 1.48995 0.513639 0
M  V30 449 C 43.8129 1.65199 1.63744 0
M  V30 450 C 44.8069 0.51809 1.61283 0
M  V30 451 O 46.0129 0.697335 1.65943 0
M  V30 452 H 42.3879 0.52069 0.542574 0
M  V30 453 H 44.3589 2.59552 1.47226 0
M  V30 454 C 43.1079 1.72409 3.01945 0
M  V30 455 H 42.4309 2.59029 3.04539 0
M  V30 456 H 43.8709 1.87785 3.80148 0
M  V30 457 C 42.3299 0.46618 3.33659 0
M  V30 458 O 42.8599 -0.413744 3.99564 0
M  V30 459 N 41.0659 0.332931 2.88687 0
M  V30 460 H 40.6129 1.04996 2.35231 0
M  V30 461 H 40.5709 -0.507665 3.10274 0
M  V30 462 N 44.343 -0.763751 1.37857 0
M  V30 463 C 45.589 -1.52483 1.33704 0
M  V30 464 C 45.922 -1.94051 -0.0759612 0
M  V30 465 O 45.197 -1.64675 -1.03501 0
M  V30 466 C 45.48 -2.78441 2.28348 0
M  V30 467 C 45.333 -2.43075 3.78463 0
M  V30 468 C 46.652 -3.80415 2.21298 0
M  V30 469 H 43.771 -0.553169 0.487005 0
M  V30 470 H 46.413 -0.875562 1.68624 0
M  V30 471 H 44.563 -3.33842 1.987 0
M  V30 472 H 46.235 -1.93527 4.18742 0
M  V30 473 H 44.478 -1.75666 3.96641 0
M  V30 474 H 45.149 -3.33149 4.40132 0
M  V30 475 H 47.625 -3.34527 2.47449 0
M  V30 476 H 46.501 -4.66257 2.89647 0
M  V30 477 H 46.762 -4.25262 1.20849 0
M  V30 478 N 45.8211 -1.22559 -0.990812 0
M  V30 479 C 47.2371 -0.985996 -1.255 0
M  V30 480 C 47.4371 0.319173 -1.98956 0
M  V30 481 O 46.4931 1.04127 -2.3003 0
M  V30 482 C 47.8061 -2.18607 -2.06474 0
M  V30 483 C 49.3541 -2.22985 -2.19651 0
M  V30 484 C 49.8291 -3.4255 -3.04012 0
M  V30 485 N 51.3201 -3.42725 -3.11599 0
M  V30 486 C 52.0551 -4.31892 -3.7717 0
M  V30 487 N 51.5511 -5.31279 -4.44651 0
M  V30 488 N 53.3441 -4.19662 -3.73952 0
M  V30 489 H 45.4951 -2.06469 -0.49841 0
M  V30 490 H 47.7581 -0.904853 -0.282747 0
M  V30 491 H 47.4641 -3.13267 -1.59865 0
M  V30 492 H 47.3381 -2.18838 -3.07229 0
M  V30 493 H 49.7251 -1.28871 -2.65474 0
M  V30 494 H 49.8061 -2.26791 -1.18319 0
M  V30 495 H 49.4501 -4.36965 -2.58889 0
M  V30 496 H 49.3801 -3.35984 -4.0549 0
M  V30 497 H 51.8711 -2.70807 -2.63575 0
M  V30 498 H 52.1841 -5.95593 -4.92431 0
M  V30 499 H 50.5291 -5.3519 -4.43392 0
M  V30 500 H 53.7201 -3.41268 -3.20396 0
M  V30 501 H 53.8931 -4.89358 -4.24774 0
M  V30 502 N 47.2992 1.18797 -1.03562 0
M  V30 503 C 48.5272 1.92599 -0.755869 0
M  V30 504 C 48.9422 1.75886 0.686271 0
M  V30 505 O 48.2992 1.08517 1.46732 0
M  V30 506 C 48.3502 3.44159 -1.10619 0
M  V30 507 O 48.0712 3.60341 -2.4917 0
M  V30 508 C 49.5722 4.3507 -0.850214 0
M  V30 509 H 46.7922 0.611587 -0.276048 0
M  V30 510 H 49.3362 1.50742 -1.38192 0
M  V30 511 H 47.4912 3.83823 -0.525194 0
M  V30 512 H 47.9052 4.54128 -2.62427 0
M  V30 513 H 49.3792 5.39989 -1.14523 0
M  V30 514 H 49.8562 4.38673 0.215176 0
M  V30 515 H 50.4622 4.01097 -1.41426 0
M  V30 516 N 48.7773 0.814389 1.34928 0
M  V30 517 C 50.0233 0.399013 1.98836 0
M  V30 518 C 50.3563 -1.03314 1.64438 0
M  V30 519 O 49.6313 -1.71811 0.911659 0
M  V30 520 C 49.9143 0.591629 3.55207 0
M  V30 521 C 49.7673 2.06928 3.99376 0
M  V30 522 C 51.0863 0.022199 4.40094 0
M  V30 523 H 48.2053 0.146451 0.722303 0
M  V30 524 H 50.8473 1.02537 1.59957 0
M  V30 525 H 48.9973 0.0584441 3.88456 0
M  V30 526 H 50.6693 2.66544 3.76499 0
M  V30 527 H 48.9123 2.56287 3.49999 0
M  V30 528 H 49.5833 2.1549 5.08201 0
M  V30 529 H 52.0593 0.477643 4.13349 0
M  V30 530 H 50.9353 0.186832 5.48582 0
M  V30 531 H 51.1963 -1.07215 4.28902 0
M  V30 532 N 50.2554 -1.46986 0.568584 0
M  V30 533 C 51.2034 -2.31858 -0.185649 0
M  V30 534 C 52.1974 -1.43624 -0.898249 0
M  V30 535 O 53.4034 -1.60327 -0.818242 0
M  V30 536 H 49.7784 -0.747866 -0.0787399 0
M  V30 537 H 51.7494 -2.93303 0.549191 0
M  V30 538 C 50.4984 -3.26513 -1.19519 0
M  V30 539 H 49.8214 -3.94377 -0.656285 0
M  V30 540 H 51.2614 -3.88707 -1.6936 0
M  V30 541 C 49.7204 -2.50847 -2.24894 0
M  V30 542 O 50.2504 -2.26119 -3.32014 0
M  V30 543 N 48.4564 -2.11656 -1.99124 0
M  V30 544 H 48.0034 -2.31966 -1.12024 0
M  V30 545 H 47.9614 -1.61347 -2.69842 0
M  V30 546 N 51.7335 -0.305618 -1.54608 0
M  V30 547 C 52.6635 0.561482 -2.26649 0
M  V30 548 C 53.6445 1.13415 -1.26772 0
M  V30 549 O 54.8295 1.16262 -1.55553 0
M  V30 550 C 51.9595 1.73122 -3.01075 0
M  V30 551 C 50.9135 1.2887 -4.08138 0
M  V30 552 C 50.2395 2.54396 -4.70305 0
M  V30 553 C 51.5395 0.416578 -5.20636 0
M  V30 554 H 53.2335 -0.0393902 -2.99374 0
M  V30 555 H 50.7795 -0.020385 -1.43986 0
M  V30 556 H 52.7325 2.34396 -3.50195 0
M  V30 557 H 51.4565 2.3584 -2.25936 0
M  V30 558 H 50.1155 0.698991 -3.59875 0
M  V30 559 H 49.7635 3.15439 -3.918 0
M  V30 560 H 49.4635 2.25486 -5.42614 0
M  V30 561 H 50.9875 3.16464 -5.2219 0
M  V30 562 H 52.4015 0.935116 -5.65622 0
M  V30 563 H 50.7985 0.221046 -5.99693 0
M  V30 564 H 51.8685 -0.557162 -4.81688 0
M  V30 565 N 53.2116 1.57565 -0.0334293 0
M  V30 566 C 54.1216 2.13943 0.962572 0
M  V30 567 C 55.1376 1.09276 1.35406 0
M  V30 568 O 56.3136 1.41355 1.4346 0
M  V30 569 C 53.3786 2.65887 2.22497 0
M  V30 570 C 52.4396 3.85286 1.8935 0
M  V30 571 C 51.6726 4.34743 3.09571 0
M  V30 572 O 51.8956 3.83352 4.22371 0
M  V30 573 O 50.8296 5.26538 2.91618 0
M  V30 574 H 54.6556 2.99333 0.513169 0
M  V30 575 H 52.2406 1.4822 0.18743 0
M  V30 576 H 54.1226 2.99346 2.96598 0
M  V30 577 H 52.7976 1.83578 2.6661 0
M  V30 578 H 51.7046 3.56746 1.1262 0
M  V30 579 H 53.0376 4.68771 1.5005 0
M  V30 580 N 54.6897 -0.239769 1.55765 0
M  V30 581 C 55.6367 -1.29696 1.90913 0
M  V30 582 C 56.6067 -1.47478 0.764164 0
M  V30 583 O 57.7917 -1.61345 1.01845 0
M  V30 584 C 54.9317 -2.64598 2.21544 0
M  V30 585 C 54.0447 -2.54765 3.48882 0
M  V30 586 C 53.1797 -3.82069 3.69049 0
M  V30 587 C 52.2187 -3.66883 4.89963 0
M  V30 588 N 51.3557 -4.86094 5.06614 0
M  V30 589 H 56.1957 -0.990224 2.81067 0
M  V30 590 H 53.7327 -0.477684 1.39128 0
M  V30 591 H 55.6907 -3.43132 2.3731 0
M  V30 592 H 54.3207 -2.93405 1.34585 0
M  V30 593 H 53.3727 -1.67763 3.41409 0
M  V30 594 H 54.6847 -2.39457 4.37563 0
M  V30 595 H 53.8387 -4.69046 3.84812 0
M  V30 596 H 52.5777 -4.00282 2.78614 0
M  V30 597 H 51.5827 -2.78289 4.74168 0
M  V30 598 H 52.8077 -3.50157 5.81865 0
M  V30 599 H 50.7537 -5.04655 4.19117 0
M  V30 600 H 50.6707 -4.73443 5.89396 0
M  V30 601 H 51.9387 -5.74549 5.26795 0
M  V30 602 N 56.1678 -1.49265 -0.50573 0
M  V30 603 C 57.3928 -1.62478 -1.28902 0
M  V30 604 C 57.8178 -0.294332 -1.85783 0
M  V30 605 O 57.1758 0.737412 -1.65626 0
M  V30 606 C 57.2238 -2.69268 -2.39848 0
M  V30 607 O 56.3278 -2.28113 -3.43567 0
M  V30 608 H 55.6688 -0.54399 -0.380751 0
M  V30 609 H 58.1988 -1.95421 -0.605952 0
M  V30 610 H 58.2088 -2.91291 -2.85681 0
M  V30 611 H 56.8838 -3.65846 -1.97812 0
M  V30 612 H 55.4608 -2.16401 -3.03685 0
M  V30 613 N 57.6459 0.756429 -1.3826 0
M  V30 614 C 58.8859 1.52833 -1.35725 0
M  V30 615 C 59.2499 1.91926 0.0534106 0
M  V30 616 O 60.4509 2.68028 0.203613 0
M  V30 617 C 58.7219 2.74919 -2.28373 0
M  V30 618 S 60.2809 3.64817 -2.43832 0
M  V30 619 H 57.0989 0.523043 -0.481608 0
M  V30 620 H 59.7009 0.888212 -1.74158 0
M  V30 621 H 58.4049 2.44304 -3.29763 0
M  V30 622 H 57.9359 3.43878 -1.91079 0
M  V30 623 H 59.9509 4.676 -1.66027 0
M  V30 624 N 59.124 1.23083 0.984299 0
M  V30 625 C 60.37 1.06214 1.72761 0
M  V30 626 C 60.703 -0.400584 1.90024 0
M  V30 627 O 59.978 -1.29672 1.44967 0
M  V30 628 C 60.261 1.78375 3.12817 0
M  V30 629 C 60.114 3.32296 3.03149 0
M  V30 630 C 61.433 1.54309 4.12161 0
M  V30 631 H 58.552 0.387251 0.627061 0
M  V30 632 H 61.194 1.51536 1.14616 0
M  V30 633 H 59.344 1.39848 3.62457 0
M  V30 634 H 61.016 3.8032 2.61064 0
M  V30 635 H 59.259 3.6153 2.39747 0
M  V30 636 H 59.93 3.77972 4.02295 0
M  V30 637 H 62.406 1.87791 3.71314 0
M  V30 638 H 61.282 2.07281 5.08258 0
M  V30 639 H 61.543 0.477572 4.39513 0
M  V30 640 N 60.6021 -1.18246 1.0419 0
M  V30 641 C 61.8271 -1.92736 0.765996 0
M  V30 642 C 62.2521 -1.75728 -0.67091 0
M  V30 643 O 61.6101 -1.06825 -1.46486 0
M  V30 644 C 61.6581 -3.42148 1.13875 0
M  V30 645 O 60.7621 -4.11548 0.264954 0
M  V30 646 H 60.1031 -0.601238 0.281797 0
M  V30 647 H 62.6331 -1.49942 1.39207 0
M  V30 648 H 62.6431 -3.92858 1.1012 0
M  V30 649 H 61.3181 -3.53848 2.18551 0
M  V30 650 H 59.8951 -3.71137 0.362226 0
M  V30 651 N 62.0802 -0.821533 -1.34494 0
M  V30 652 C 63.3262 -0.409552 -1.98622 0
M  V30 653 C 63.6592 1.0244 -1.64984 0
M  V30 654 O 62.9342 1.71325 -0.920758 0
M  V30 655 C 63.2172 -0.610458 -3.54888 0
M  V30 656 C 63.0702 -2.09043 -3.98273 0
M  V30 657 C 64.3892 -0.0455379 -4.40076 0
M  V30 658 H 61.5082 -0.15028 -0.721516 0
M  V30 659 H 64.1502 -1.03384 -1.59411 0
M  V30 660 H 62.3002 -0.079044 -3.8842 0
M  V30 661 H 63.9722 -2.68537 -3.75081 0
M  V30 662 H 62.2152 -2.58139 -3.48635 0
M  V30 663 H 62.8862 -2.18182 -5.07051 0
M  V30 664 H 65.3622 -0.499557 -4.1309 0
M  V30 665 H 64.2382 -0.215922 -5.48475 0
M  V30 666 H 64.4992 1.04939 -4.29465 0
M  V30 667 N 63.5583 1.46682 -0.576371 0
M  V30 668 C 64.4683 2.34032 0.163141 0
M  V30 669 C 65.4843 1.49367 0.892501 0
M  V30 670 O 66.6603 1.82252 0.857106 0
M  V30 671 C 63.7253 3.26435 1.16795 0
M  V30 672 C 62.7863 4.26998 0.443944 0
M  V30 673 C 62.0193 5.14986 1.40088 0
M  V30 674 O 62.2423 5.05785 2.637 0
M  V30 675 O 61.1763 5.94906 0.914917 0
M  V30 676 H 65.0023 2.98607 -0.55388 0
M  V30 677 H 62.5873 1.45554 -0.336821 0
M  V30 678 H 64.4693 3.83459 1.74748 0
M  V30 679 H 63.1443 2.64465 1.86655 0
M  V30 680 H 62.0513 3.7368 -0.177271 0
M  V30 681 H 63.3843 4.91736 -0.213566 0
M  V30 682 N 65.0364 0.313813 1.54444 0
M  V30 683 C 66.2824 -0.284918 2.01395 0
M  V30 684 C 66.6374 -1.50537 1.19818 0
M  V30 685 O 65.9304 -1.89692 0.269748 0
M  V30 686 C 66.1244 -0.680386 3.50864 0
M  V30 687 C 65.9534 0.500198 4.4691 0
M  V30 688 C 64.7234 0.996248 4.95382 0
M  V30 689 C 66.9214 1.34928 4.96285 0
M  V30 690 N 64.9034 2.14226 5.75309 0
M  V30 691 C 66.2744 2.3426 5.7404 0
M  V30 692 C 68.3294 1.37818 4.78446 0
M  V30 693 C 67.0324 3.36272 6.35856 0
M  V30 694 C 69.0584 2.38695 5.4109 0
M  V30 695 C 68.4204 3.36755 6.18688 0
M  V30 696 H 64.5194 -0.0683689 0.779006 0
M  V30 697 H 67.1034 0.44664 1.89508 0
M  V30 698 H 65.2744 -1.38109 3.63016 0
M  V30 699 H 67.0064 -1.25975 3.84594 0
M  V30 700 H 63.7614 0.56912 4.70168 0
M  V30 701 H 64.1854 2.72005 6.19953 0
M  V30 702 H 68.8274 0.633747 4.18023 0
M  V30 703 H 66.5454 4.11627 6.95405 0
M  V30 704 H 70.1314 2.41721 5.29209 0
M  V30 705 H 69.0114 4.13535 6.66302 0
M  V30 706 N 66.5145 -1.57545 0.0417849 0
M  V30 707 C 67.4775 -2.09885 -0.92093 0
M  V30 708 C 68.4775 -1.01648 -1.24596 0
M  V30 709 O 69.6675 -1.27759 -1.1842 0
M  V30 710 C 66.7995 -2.57527 -2.23367 0
M  V30 711 H 67.9925 -2.96236 -0.467382 0
M  V30 712 H 65.5455 -1.5493 -0.206467 0
M  V30 713 H 66.2805 -1.74542 -2.73323 0
M  V30 714 H 66.0655 -3.36613 -2.01083 0
M  V30 715 H 67.5555 -2.98201 -2.92346 0
M  V30 716 N 67.9926 0.231505 -1.5589 0
M  V30 717 C 68.9026 1.308 -1.94752 0
M  V30 718 C 69.9186 1.51826 -0.849989 0
M  V30 719 O 71.0946 1.6515 -1.15271 0
M  V30 720 C 68.1596 2.63968 -2.24771 0
M  V30 721 C 67.2206 2.51331 -3.48039 0
M  V30 722 C 66.4536 3.78148 -3.76616 0
M  V30 723 O 66.6766 4.80722 -3.07022 0
M  V30 724 O 65.6106 3.75857 -4.70123 0
M  V30 725 H 69.4366 1.0083 -2.86474 0
M  V30 726 H 67.0216 0.433547 -1.42971 0
M  V30 727 H 68.9036 3.42633 -2.45318 0
M  V30 728 H 67.5786 2.9364 -1.36225 0
M  V30 729 H 66.4856 1.709 -3.32782 0
M  V30 730 H 67.8186 2.26601 -4.36936 0
M  V30 731 N 69.4707 1.49531 0.497807 0
M  V30 732 C 70.7187 1.58865 1.24926 0
M  V30 733 C 71.0397 0.278721 1.92998 0
M  V30 734 O 70.3097 -0.702144 1.82885 0
M  V30 735 H 68.8897 0.585343 0.464094 0
M  V30 736 H 71.5517 1.86174 0.57666 0
M  V30 737 H 70.6477 2.38633 2.01149 0
M  V30 738 N 70.9488 -0.749086 1.3866 0
M  V30 739 C 72.1968 -1.50535 1.34847 0
M  V30 740 C 72.5178 -1.94909 -0.0595016 0
M  V30 741 O 71.7878 -1.67973 -1.00806 0
M  V30 742 H 70.3678 -0.558395 0.49619 0
M  V30 743 H 73.0298 -0.890165 1.73384 0
M  V30 744 H 72.1258 -2.39413 2.00219 0
M  V30 745 N 72.4269 -1.23603 -0.977757 0
M  V30 746 C 73.3899 -1.02069 -2.05218 0
M  V30 747 C 74.3899 0.0184305 -1.60789 0
M  V30 748 O 75.5799 -0.221569 -1.72785 0
M  V30 749 C 72.7119 -0.544926 -3.36517 0
M  V30 750 H 73.9049 -1.9742 -2.25755 0
M  V30 751 H 71.4579 -1.05684 -1.15155 0
M  V30 752 H 72.1929 0.412241 -3.21669 0
M  V30 753 H 71.9779 -1.2948 -3.70105 0
M  V30 754 H 73.4679 -0.414985 -4.15533 0
M  V30 755 N 73.905 1.17692 -1.04816 0
M  V30 756 C 75.133 1.91786 -0.776254 0
M  V30 757 C 75.548 1.76604 0.667577 0
M  V30 758 O 74.905 1.10067 1.45573 0
M  V30 759 C 74.956 3.42967 -1.14263 0
M  V30 760 O 74.677 3.57678 -2.52978 0
M  V30 761 C 76.178 4.34144 -0.896311 0
M  V30 762 H 73.398 0.608624 -0.282519 0
M  V30 763 H 75.942 1.49268 -1.39783 0
M  V30 764 H 74.097 3.83245 -0.565874 0
M  V30 765 H 74.511 4.51319 -2.67229 0
M  V30 766 H 75.985 5.38744 -1.20244 0
M  V30 767 H 76.462 4.38876 0.168636 0
M  V30 768 H 77.068 3.99574 -1.45672 0
M  V30 769 N 75.3831 0.828654 1.34056 0
M  V30 770 C 76.3301 0.252567 2.29414 0
M  V30 771 C 77.3001 -0.62588 1.53857 0
M  V30 772 O 78.4851 -0.566312 1.82202 0
M  V30 773 C 75.6251 -0.574831 3.40279 0
M  V30 774 C 74.7381 0.326499 4.30764 0
M  V30 775 C 73.8731 -0.511016 5.28736 0
M  V30 776 C 72.9121 0.389342 6.1086 0
M  V30 777 N 72.0491 -0.409439 7.00905 0
M  V30 778 H 76.8891 1.07108 2.78086 0
M  V30 779 H 74.4261 0.539677 1.36843 0
M  V30 780 H 76.3841 -1.06992 4.03248 0
M  V30 781 H 75.0141 -1.35841 2.92826 0
M  V30 782 H 74.0661 0.939837 3.68607 0
M  V30 783 H 75.3781 1.01857 4.88289 0
M  V30 784 H 74.5321 -1.07035 5.97184 0
M  V30 785 H 73.2711 -1.23657 4.71763 0
M  V30 786 H 72.2761 0.960769 5.4134 0
M  V30 787 H 73.5011 1.1131 6.69916 0
M  V30 788 H 71.4471 -1.11856 6.46393 0
M  V30 789 H 71.3641 0.224126 7.55668 0
M  V30 790 H 72.6321 -0.951336 7.73673 0
M  V30 791 N 76.8612 -1.46375 0.584142 0
M  V30 792 C 78.1092 -2.01978 0.0701287 0
M  V30 793 C 78.4302 -1.4579 -1.295 0
M  V30 794 O 77.7002 -0.64314 -1.85042 0
M  V30 795 H 76.2802 -0.746648 0.0229345 0
M  V30 796 H 78.9422 -1.79461 0.760245 0
M  V30 797 H 78.0382 -3.121 0.0022064 0
M  V30 798 N 78.3393 -0.321999 -1.54275 0
M  V30 799 C 79.2863 0.544664 -2.24281 0
M  V30 800 C 80.2563 1.1129 -1.23303 0
M  V30 801 O 81.4413 1.15354 -1.51981 0
M  V30 802 C 78.5813 1.70045 -3.00298 0
M  V30 803 C 77.6943 1.16159 -4.1609 0
M  V30 804 C 76.8293 2.28293 -4.79641 0
M  V30 805 C 75.8683 1.71648 -5.8754 0
M  V30 806 N 75.0053 2.77438 -6.44959 0
M  V30 807 H 79.8453 -0.0588907 -2.97942 0
M  V30 808 H 77.3823 -0.0408345 -1.47043 0
M  V30 809 H 79.3403 2.38054 -3.42616 0
M  V30 810 H 77.9703 2.27531 -2.28975 0
M  V30 811 H 77.0223 0.373092 -3.78566 0
M  V30 812 H 78.3343 0.707087 -4.93763 0
M  V30 813 H 77.4883 3.0421 -5.2492 0
M  V30 814 H 76.2273 2.77079 -4.01346 0
M  V30 815 H 75.2323 0.942282 -5.41665 0
M  V30 816 H 76.4573 1.23741 -6.67731 0
M  V30 817 H 74.4033 3.25519 -5.69538 0
M  V30 818 H 74.3203 2.36547 -7.1804 0
M  V30 819 H 75.5883 3.53189 -6.94894 0
M  V30 820 N 79.8174 1.5752 -0.0501392 0
M  V30 821 C 80.7274 2.14952 0.939827 0
M  V30 822 C 81.7434 1.10706 1.34239 0
M  V30 823 O 82.9194 1.42869 1.41952 0
M  V30 824 C 79.9844 2.68232 2.19665 0
M  V30 825 C 79.0454 3.87272 1.85253 0
M  V30 826 C 78.2784 4.38002 3.04943 0
M  V30 827 O 78.5014 3.87811 4.18281 0
M  V30 828 O 77.4354 5.29602 2.86017 0
M  V30 829 H 81.2614 2.9986 0.481392 0
M  V30 830 H 78.8464 1.4841 0.171699 0
M  V30 831 H 80.7284 3.02475 2.93406 0
M  V30 832 H 79.4034 1.86395 2.64648 0
M  V30 833 H 78.3104 3.5792 1.0883 0
M  V30 834 H 79.6434 4.70336 1.4507 0
M  V30 835 N 81.2955 -0.223234 1.56011 0
M  V30 836 C 82.5445 -0.945912 1.78144 0
M  V30 837 C 82.8575 -1.85567 0.618396 0
M  V30 838 O 84.0635 -2.61688 0.723318 0
M  V30 839 C 82.5195 -1.73216 3.15475 0
M  V30 840 C 82.1275 -0.868619 4.39499 0
M  V30 841 C 83.8715 -2.44615 3.46935 0
M  V30 842 C 81.7785 -1.65212 5.67855 0
M  V30 843 H 80.7085 -0.356929 0.664167 0
M  V30 844 H 83.3595 -0.199845 1.82409 0
M  V30 845 H 81.7415 -2.52107 3.05382 0
M  V30 846 H 82.9155 -0.120366 4.60643 0
M  V30 847 H 81.2305 -0.26683 4.15544 0
M  V30 848 H 83.8275 -3.03732 4.40058 0
M  V30 849 H 84.1705 -3.17417 2.69355 0
M  V30 850 H 84.7035 -1.72715 3.58349 0
M  V30 851 H 81.4425 -0.967407 6.48322 0
M  V30 852 H 80.9625 -2.37503 5.50774 0
M  V30 853 H 82.6415 -2.21322 6.07968 0
M  V30 854 N 82.7736 -1.49793 -0.48987 0
M  V30 855 C 84.0506 -1.50348 -1.25119 0
M  V30 856 C 84.4306 -0.237466 -2.0976 0
M  V30 857 O 83.7786 0.77981 -2.14782 0
M  V30 858 C 83.9886 -2.78872 -2.09837 0
M  V30 859 C 85.3366 -3.288 -2.68655 0
M  V30 860 O 86.3606 -2.80065 -2.20096 0
M  V30 861 O 85.2196 -4.13707 -3.57083 0
M  V30 862 H 82.3136 -0.602242 -0.566775 0
M  V30 863 H 84.8596 -1.62067 -0.503229 0
M  V30 864 H 83.6316 -3.62499 -1.47343 0
M  V30 865 H 83.2546 -2.70066 -2.91805 0
M  V30 866 N 84.2517 0.741722 -1.39055 0
M  V30 867 C 85.4987 1.50114 -1.35912 0
M  V30 868 C 85.8267 1.94443 0.0470937 0
M  V30 869 O 85.0817 1.66612 1.02659 0
M  V30 870 C 85.3807 2.7592 -2.27163 0
M  V30 871 C 85.0467 2.50493 -3.74919 0
M  V30 872 C 83.7087 2.43267 -4.1518 0
M  V30 873 C 86.0607 2.28585 -4.684 0
M  V30 874 C 83.3887 2.12166 -5.46994 0
M  V30 875 C 85.7407 1.99002 -6.00484 0
M  V30 876 C 84.4047 1.90241 -6.39816 0
M  V30 877 H 83.6747 0.549306 -0.497336 0
M  V30 878 H 86.3217 0.851896 -1.71508 0
M  V30 879 H 84.6267 3.45553 -1.84663 0
M  V30 880 H 86.3237 3.33923 -2.22028 0
M  V30 881 H 82.9137 2.56992 -3.43006 0
M  V30 882 H 87.0977 2.33139 -4.38132 0
M  V30 883 H 82.3537 2.03901 -5.76398 0
M  V30 884 H 86.5277 1.81057 -6.72452 0
M  V30 885 H 84.1547 1.65907 -7.41875 0
M  V30 886 N 85.7298 1.2412 0.971189 0
M  V30 887 C 87.0068 0.986867 1.6888 0
M  V30 888 C 87.3868 -0.491857 2.0529 0
M  V30 889 O 86.7348 -1.46531 1.75331 0
M  V30 890 C 86.9448 1.9063 2.92338 0
M  V30 891 C 88.2928 2.17515 3.64654 0
M  V30 892 O 89.3168 1.88254 3.02388 0
M  V30 893 O 88.1758 2.6719 4.7673 0
M  V30 894 H 85.2698 0.372944 0.738134 0
M  V30 895 H 87.8158 1.35203 1.02559 0
M  V30 896 H 86.5878 2.90552 2.62097 0
M  V30 897 H 86.2108 1.54408 3.66393 0
M  V30 898 N 87.2079 -1.17134 1.05439 0
M  V30 899 C 88.4849 -1.83411 0.679699 0
M  V30 900 C 88.8649 -1.9368 -0.839726 0
M  V30 901 O 88.2129 -1.47325 -1.74664 0
M  V30 902 C 88.4229 -3.20918 1.37159 0
M  V30 903 C 89.7709 -3.96796 1.51123 0
M  V30 904 O 90.7949 -3.30406 1.3308 0
M  V30 905 O 89.6539 -5.15778 1.80651 0
M  V30 906 H 86.7479 -0.79154 0.239569 0
M  V30 907 H 89.2939 -1.24411 1.15413 0
M  V30 908 H 88.0659 -3.08428 2.40807 0
M  V30 909 H 87.6889 -3.87587 0.886674 0
M  V30 910 N 88.686 -0.835752 -1.33615 0
M  V30 911 C 89.932 -0.430596 -1.98176 0
M  V30 912 C 90.265 1.00684 -1.66061 0
M  V30 913 O 89.54 1.70339 -0.938877 0
M  V30 914 C 89.823 -0.648065 -3.5422 0
M  V30 915 C 89.676 -2.13255 -3.96033 0
M  V30 916 C 90.995 -0.0922113 -4.40003 0
M  V30 917 H 88.114 -0.157924 -0.719881 0
M  V30 918 H 90.756 -1.05069 -1.58305 0
M  V30 919 H 88.906 -0.120237 -3.88314 0
M  V30 920 H 90.578 -2.725 -3.72211 0
M  V30 921 H 88.821 -2.61823 -3.45878 0
M  V30 922 H 89.492 -2.23547 -5.04708 0
M  V30 923 H 91.968 -0.543343 -4.12537 0
M  V30 924 H 90.844 -0.274083 -5.48215 0
M  V30 925 H 91.105 1.00378 -4.30554 0
M  V30 926 N 90.1641 1.46063 -0.591896 0
M  V30 927 C 91.1271 2.28854 0.125973 0
M  V30 928 C 92.1271 1.38903 0.810107 0
M  V30 929 O 93.3171 1.61186 0.66066 0
M  V30 930 C 90.4491 3.19526 1.1881 0
M  V30 931 H 91.6421 2.93802 -0.601717 0
M  V30 932 H 89.1951 1.52325 -0.350254 0
M  V30 933 H 89.9301 2.59345 1.94707 0
M  V30 934 H 89.7151 3.85766 0.701936 0
M  V30 935 H 91.2051 3.81817 1.69132 0
M  V30 936 N 91.6422 0.330177 1.54103 0
M  V30 937 C 92.6052 -0.520144 2.2322 0
M  V30 938 C 93.6052 -1.03828 1.22786 0
M  V30 939 O 94.7952 -0.929652 1.4732 0
M  V30 940 C 91.9272 -1.72317 2.94142 0
M  V30 941 H 93.1202 0.0841605 2.99782 0
M  V30 942 H 90.6732 0.0813433 1.56088 0
M  V30 943 H 91.4082 -2.36653 2.21734 0
M  V30 944 H 91.1932 -1.35898 3.67796 0
M  V30 945 H 92.6832 -2.3266 3.46784 0
M  V30 946 N 93.1203 -1.57491 0.0584922 0
M  V30 947 C 94.3693 -1.92155 -0.613146 0
M  V30 948 C 94.6823 -0.939334 -1.71569 0
M  V30 949 O 95.8883 -1.17829 -2.44599 0
M  V30 950 C 94.3443 -3.41303 -1.14195 0
M  V30 951 C 93.9523 -4.47944 -0.0711265 0
M  V30 952 C 95.6963 -3.84988 -1.78841 0
M  V30 953 C 93.6033 -5.88212 -0.613225 0
M  V30 954 H 92.5333 -0.717162 -0.232796 0
M  V30 955 H 95.1843 -1.83049 0.12857 0
M  V30 956 H 93.5663 -3.45437 -1.93621 0
M  V30 957 H 94.7403 -4.55408 0.702836 0
M  V30 958 H 93.0553 -4.13644 0.478313 0
M  V30 959 H 95.6523 -4.87159 -2.20408 0
M  V30 960 H 95.9953 -3.21632 -2.64308 0
M  V30 961 H 96.5283 -3.83401 -1.06059 0
M  V30 962 H 93.2673 -6.55183 0.203978 0
M  V30 963 H 92.7873 -5.84294 -1.35501 0
M  V30 964 H 94.4663 -6.37687 -1.09383 0
M  V30 965 N 94.5984 0.214957 -1.56127 0
M  V30 966 C 95.5464 1.28601 -1.93816 0
M  V30 967 C 96.5404 1.48175 -0.821016 0
M  V30 968 O 97.7464 1.49271 -1.0059 0
M  V30 969 H 94.1214 0.431302 -0.616022 0
M  V30 970 H 96.0924 0.940991 -2.83175 0
M  V30 971 C 94.8414 2.62779 -2.27689 0
M  V30 972 H 94.1644 2.48527 -3.13168 0
M  V30 973 H 95.6044 3.36517 -2.57939 0
M  V30 974 C 94.0634 3.18285 -1.10436 0
M  V30 975 O 94.5934 4.00002 -0.368945 0
M  V30 976 N 92.7994 2.7675 -0.886433 0
M  V30 977 H 92.3464 2.10404 -1.48619 0
M  V30 978 H 92.3044 3.14229 -0.103656 0
M  V30 979 N 96.0765 1.50051 0.48192 0
M  V30 980 C 97.4875 1.5348 1.06305 0
M  V30 981 C 97.8385 0.331997 1.93371 0
M  V30 982 O 96.9635 -0.556256 2.09129 0
M  V30 983 C 97.5585 2.7813 1.93466 0
M  V30 984 C 96.1175 2.84275 2.46707 0
M  V30 985 C 95.2645 2.47637 1.24785 0
M  V30 986 H 98.2155 1.56472 0.264995 0
M  V30 987 H 98.2365 2.59372 2.78399 0
M  V30 988 H 97.7485 3.65654 1.30072 0
M  V30 989 H 95.8495 2.01077 3.13686 0
M  V30 990 H 95.9625 3.8691 2.82555 0
M  V30 991 H 94.3265 1.99835 1.57918 0
M  V30 992 H 95.1095 3.37457 0.630694 0
M  V30 993 N 97.5546 -0.734337 1.39446 0
M  V30 994 C 98.4646 -1.87879 1.40495 0
M  V30 995 C 99.4806 -1.714 0.299672 0
M  V30 996 O 100.657 -1.93991 0.541249 0
M  V30 997 C 97.7216 -3.23477 1.24754 0
M  V30 998 C 96.7826 -3.52344 2.45259 0
M  V30 999 C 96.0156 -4.81473 2.30259 0
M  V30 1000 O 96.2386 -5.55237 1.30643 0
M  V30 1001 O 95.1726 -5.10254 3.19256 0
M  V30 1002 H 98.9986 -1.89949 2.36966 0
M  V30 1003 H 96.5836 -0.882243 1.20569 0
M  V30 1004 H 98.4656 -4.04509 1.18111 0
M  V30 1005 H 97.1406 -3.22176 0.313781 0
M  V30 1006 H 96.0476 -2.71396 2.57478 0
M  V30 1007 H 97.3806 -3.58426 3.37331 0
M  V30 1008 N 99.0327 -1.24633 -0.964593 0
M  V30 1009 C 99.9627 -1.06611 -2.07741 0
M  V30 1010 C 100.944 0.0218666 -1.70086 0
M  V30 1011 O 102.129 -0.145793 -1.93652 0
M  V30 1012 C 99.2587 -0.673444 -3.40708 0
M  V30 1013 C 98.2127 -1.71054 -3.92332 0
M  V30 1014 C 97.5387 -1.17285 -5.21678 0
M  V30 1015 C 98.8387 -3.10718 -4.19824 0
M  V30 1016 H 100.533 -1.99693 -2.23076 0
M  V30 1017 H 98.0787 -0.96152 -1.07195 0
M  V30 1018 H 100.032 -0.534345 -4.17998 0
M  V30 1019 H 98.7557 0.293073 -3.25282 0
M  V30 1020 H 97.4147 -1.83791 -3.17201 0
M  V30 1021 H 97.0627 -0.196847 -5.02615 0
M  V30 1022 H 96.7627 -1.86592 -5.57187 0
M  V30 1023 H 98.2867 -1.04593 -6.01575 0
M  V30 1024 H 99.7007 -3.01192 -4.87808 0
M  V30 1025 H 98.0977 -3.77406 -4.66567 0
M  V30 1026 H 99.1677 -3.58524 -3.26479 0
M  V30 1027 N 100.511 1.16574 -1.06058 0
M  V30 1028 C 101.441 2.23057 -0.690488 0
M  V30 1029 C 102.422 1.67141 0.315901 0
M  V30 1030 O 103.607 1.93253 0.191556 0
M  V30 1031 C 100.737 3.47222 -0.073625 0
M  V30 1032 C 99.6908 4.16016 -1.00573 0
M  V30 1033 C 99.0168 5.34104 -0.252289 0
M  V30 1034 C 100.317 4.67264 -2.33371 0
M  V30 1035 H 102.011 2.54271 -1.58072 0
M  V30 1036 H 99.5568 1.22218 -0.76149 0
M  V30 1037 H 101.51 4.20939 0.19714 0
M  V30 1038 H 100.234 3.15302 0.85161 0
M  V30 1039 H 98.8928 3.44223 -1.2612 0
M  V30 1040 H 98.5408 4.98437 0.675988 0
M  V30 1041 H 98.2408 5.81072 -0.873455 0
M  V30 1042 H 99.7648 6.10599 0.0109857 0
M  V30 1043 H 101.179 5.32573 -2.12223 0
M  V30 1044 H 99.5758 5.24843 -2.90963 0
M  V30 1045 H 100.646 3.83602 -2.96611 0
M  V30 1046 N 101.989 0.842826 1.3317 0
M  V30 1047 C 102.921 0.236245 2.27979 0
M  V30 1048 C 103.934 -0.585282 1.51915 0
M  V30 1049 O 105.123 -0.411705 1.73687 0
M  V30 1050 C 102.223 -0.685717 3.3189 0
M  V30 1051 C 101.396 0.0973448 4.37292 0
M  V30 1052 C 100.455 -0.748565 5.20848 0
M  V30 1053 O 99.4809 -0.186339 5.68895 0
M  V30 1054 N 100.683 -2.06527 5.42519 0
M  V30 1055 H 103.448 1.05088 2.80672 0
M  V30 1056 H 101.009 0.701667 1.45905 0
M  V30 1057 H 103.001 -1.25669 3.84694 0
M  V30 1058 H 101.571 -1.40105 2.79445 0
M  V30 1059 H 100.791 0.849706 3.84933 0
M  V30 1060 H 102.079 0.635643 5.04814 0
M  V30 1061 H 101.477 -2.54554 5.05192 0
M  V30 1062 H 100.034 -2.58464 5.98364 0
M  V30 1063 N 103.467 -1.45747 0.599634 0
M  V30 1064 C 104.397 -2.33235 -0.111306 0
M  V30 1065 C 105.378 -1.46359 -0.866781 0
M  V30 1066 O 106.563 -1.75146 -0.838904 0
M  V30 1067 C 103.693 -3.28932 -1.11451 0
M  V30 1068 C 102.647 -4.25381 -0.472772 0
M  V30 1069 C 101.973 -5.1071 -1.58365 0
M  V30 1070 C 103.273 -5.18831 0.600948 0
M  V30 1071 H 104.967 -2.92927 0.61919 0
M  V30 1072 H 102.513 -1.40857 0.299215 0
M  V30 1073 H 104.466 -3.89002 -1.62036 0
M  V30 1074 H 103.19 -2.67381 -1.8755 0
M  V30 1075 H 101.849 -3.66598 0.0121472 0
M  V30 1076 H 101.497 -4.45533 -2.33473 0
M  V30 1077 H 101.197 -5.7604 -1.15982 0
M  V30 1078 H 102.721 -5.73647 -2.09194 0
M  V30 1079 H 104.135 -5.73019 0.179491 0
M  V30 1080 H 102.532 -5.92595 0.946076 0
M  V30 1081 H 103.602 -4.6174 1.48068 0
M  V30 1082 N 104.945 -0.338344 -1.53925 0
M  V30 1083 C 105.875 0.51328 -2.27789 0
M  V30 1084 C 106.856 1.107 -1.29149 0
M  V30 1085 O 108.041 1.12937 -1.57984 0
M  V30 1086 C 105.171 1.66697 -3.04679 0
M  V30 1087 C 104.125 1.20183 -4.1078 0
M  V30 1088 C 103.451 2.44363 -4.75595 0
M  V30 1089 C 104.751 0.30605 -5.21403 0
M  V30 1090 H 106.445 -0.102883 -2.99223 0
M  V30 1091 H 103.991 -0.0509219 -1.4391 0
M  V30 1092 H 105.944 2.26915 -3.55088 0
M  V30 1093 H 104.668 2.30995 -2.30887 0
M  V30 1094 H 103.327 0.622499 -3.61276 0
M  V30 1095 H 102.975 3.07057 -3.98403 0
M  V30 1096 H 102.675 2.13925 -5.47275 0
M  V30 1097 H 104.199 3.05317 -5.28786 0
M  V30 1098 H 105.613 0.814929 -5.67478 0
M  V30 1099 H 104.01 0.0937929 -6.00027 0
M  V30 1100 H 105.08 -0.65921 -4.80398 0
M  V30 1101 N 106.423 1.57458 -0.0668435 0
M  V30 1102 C 107.834 1.80776 0.466558 0
M  V30 1103 C 108.185 0.980361 1.69951 0
M  V30 1104 O 107.31 0.201441 2.1546 0
M  V30 1105 C 107.905 3.27881 0.85321 0
M  V30 1106 C 106.464 3.52062 1.3315 0
M  V30 1107 C 105.611 2.75513 0.314264 0
M  V30 1108 H 108.562 1.5598 -0.292588 0
M  V30 1109 H 108.583 3.39659 1.715 0
M  V30 1110 H 108.095 3.88075 -0.0443439 0
M  V30 1111 H 106.196 2.97167 2.24772 0
M  V30 1112 H 106.309 4.60762 1.31285 0
M  V30 1113 H 104.673 2.42123 0.790492 0
M  V30 1114 H 105.456 3.38442 -0.575477 0
M  V30 1115 N 107.901 -0.206675 1.56239 0
M  V30 1116 C 108.831 -1.25909 1.96645 0
M  V30 1117 C 109.812 -1.48097 0.836734 0
M  V30 1118 O 110.997 -1.6003 1.10019 0
M  V30 1119 C 108.127 -2.6058 2.29599 0
M  V30 1120 C 107.081 -2.53024 3.452 0
M  V30 1121 C 106.407 -3.91861 3.63798 0
M  V30 1122 C 107.707 -2.06524 4.79734 0
M  V30 1123 H 109.401 -0.923369 2.84806 0
M  V30 1124 H 106.947 -0.442735 1.37025 0
M  V30 1125 H 108.9 -3.34375 2.56459 0
M  V30 1126 H 107.624 -2.95869 1.38307 0
M  V30 1127 H 106.283 -1.81684 3.18412 0
M  V30 1128 H 105.931 -4.24483 2.69857 0
M  V30 1129 H 105.631 -3.87683 4.4156 0
M  V30 1130 H 107.155 -4.67296 3.93022 0
M  V30 1131 H 108.569 -2.70072 5.05702 0
M  V30 1132 H 106.966 -2.13374 5.60885 0
M  V30 1133 H 108.036 -1.01802 4.74093 0
M  V30 1134 N 109.379 -1.50304 -0.473955 0
M  V30 1135 C 110.329 -1.65347 -1.56985 0
M  V30 1136 C 111.313 -0.508176 -1.52664 0
M  V30 1137 O 112.505 -0.762446 -1.59737 0
M  V30 1138 C 109.634 -1.74832 -2.95447 0
M  V30 1139 C 108.72 -2.95028 -3.04662 0
M  V30 1140 N 109.111 -4.18747 -2.83698 0
M  V30 1141 C 107.409 -2.93527 -3.35795 0
M  V30 1142 C 108.11 -4.99687 -2.97805 0
M  V30 1143 N 107.086 -4.33585 -3.2788 0
M  V30 1144 H 110.888 -2.58698 -1.39472 0
M  V30 1145 H 108.402 -1.47449 -0.680629 0
M  V30 1146 H 110.399 -1.83712 -3.7424 0
M  V30 1147 H 109.059 -0.826376 -3.14008 0
M  V30 1148 H 110.07 -4.48291 -2.59337 0
M  V30 1149 H 106.747 -2.10821 -3.60362 0
M  V30 1150 H 108.137 -6.08057 -2.85861 0
M  V30 1151 N 110.857 0.726932 -1.39834 0
M  V30 1152 C 112.268 1.30558 -1.3346 0
M  V30 1153 C 112.619 1.962 -0.00273003 0
M  V30 1154 O 111.744 1.96826 0.899371 0
M  V30 1155 C 112.339 2.37404 -2.41713 0
M  V30 1156 C 110.898 2.90921 -2.38835 0
M  V30 1157 C 110.045 1.64578 -2.2318 0
M  V30 1158 H 112.996 0.523862 -1.49804 0
M  V30 1159 H 113.017 3.17984 -2.08966 0
M  V30 1160 H 112.529 1.89599 -3.38635 0
M  V30 1161 H 110.63 3.42985 -1.45575 0
M  V30 1162 H 110.743 3.43487 -3.33997 0
M  V30 1163 H 109.107 1.89219 -1.70494 0
M  V30 1164 H 109.89 1.18814 -3.22084 0
M  V30 1165 N 112.336 1.25143 0.95797 0
M  V30 1166 C 113.283 1.05235 2.05412 0
M  V30 1167 C 114.253 -0.0374561 1.66058 0
M  V30 1168 O 115.438 0.119073 1.90428 0
M  V30 1169 C 112.578 0.673589 3.38462 0
M  V30 1170 C 111.691 1.8379 3.90954 0
M  V30 1171 C 110.826 1.40381 5.12315 0
M  V30 1172 C 109.865 2.53746 5.57027 0
M  V30 1173 N 109.002 2.11136 6.69601 0
M  V30 1174 H 113.842 1.99048 2.21774 0
M  V30 1175 H 111.379 0.991277 1.08683 0
M  V30 1176 H 113.337 0.434964 4.14926 0
M  V30 1177 H 111.967 -0.227554 3.21997 0
M  V30 1178 H 111.019 2.18992 3.11041 0
M  V30 1179 H 112.331 2.68937 4.20089 0
M  V30 1180 H 111.485 1.12464 5.96185 0
M  V30 1181 H 110.224 0.523015 4.84887 0
M  V30 1182 H 109.229 2.82412 4.71724 0
M  V30 1183 H 110.454 3.42398 5.86464 0
M  V30 1184 H 108.4 1.25468 6.4389 0
M  V30 1185 H 108.317 2.89832 6.98236 0
M  V30 1186 H 109.585 1.86385 7.56889 0
M  V30 1187 N 113.814 -1.1601 1.06675 0
M  V30 1188 C 115.091 -1.82679 0.699114 0
M  V30 1189 C 115.471 -1.94559 -0.819137 0
M  V30 1190 O 114.819 -1.49169 -1.73092 0
M  V30 1191 C 115.029 -3.19445 1.40555 0
M  V30 1192 C 116.377 -3.95171 1.55323 0
M  V30 1193 O 117.401 -3.28976 1.36577 0
M  V30 1194 O 116.26 -5.13833 1.86112 0
M  V30 1195 H 113.354 -0.788954 0.247951 0
M  V30 1196 H 115.9 -1.23179 1.16726 0
M  V30 1197 H 114.672 -3.05856 2.44065 0
M  V30 1198 H 114.295 -3.86625 0.927733 0
M  V30 1199 N 115.292 -0.849877 -1.32721 0
M  V30 1200 C 116.24 -0.279745 -2.30912 0
M  V30 1201 C 117.234 0.594278 -1.58634 0
M  V30 1202 O 118.44 0.482613 -1.73409 0
M  V30 1203 H 114.815 -0.0717521 -0.748569 0
M  V30 1204 H 116.786 -1.12222 -2.76494 0
M  V30 1205 C 115.535 0.521108 -3.43773 0
M  V30 1206 H 114.858 -0.142141 -3.99547 0
M  V30 1207 H 116.298 0.885693 -4.14646 0
M  V30 1208 C 114.757 1.70442 -2.90605 0
M  V30 1209 O 115.287 2.8034 -2.87702 0
M  V30 1210 N 113.493 1.52991 -2.47067 0
M  V30 1211 H 113.04 0.635914 -2.49628 0
M  V30 1212 H 112.998 2.32311 -2.11847 0
M  V30 1213 N 116.77 1.45427 -0.607355 0
M  V30 1214 C 117.7 2.3329 0.0989352 0
M  V30 1215 C 118.681 1.46816 0.859007 0
M  V30 1216 O 119.866 1.75588 0.829604 0
M  V30 1217 C 116.996 3.29518 1.09705 0
M  V30 1218 C 115.95 4.25626 0.450206 0
M  V30 1219 C 115.276 5.11542 1.55655 0
M  V30 1220 C 116.576 5.18505 -0.628455 0
M  V30 1221 H 118.27 2.92595 -0.634716 0
M  V30 1222 H 115.816 1.40696 -0.306681 0
M  V30 1223 H 117.769 3.89855 1.59971 0
M  V30 1224 H 116.493 2.68372 1.86129 0
M  V30 1225 H 115.152 3.66586 -0.0315886 0
M  V30 1226 H 114.8 4.46765 2.31107 0
M  V30 1227 H 114.5 5.76647 1.12925 0
M  V30 1228 H 116.024 5.74748 2.06148 0
M  V30 1229 H 117.438 5.72916 -0.209877 0
M  V30 1230 H 115.835 5.92085 -0.977489 0
M  V30 1231 H 116.905 4.60948 -1.50514 0
M  V30 1232 N 118.248 0.346503 1.53744 0
M  V30 1233 C 119.659 -0.136779 1.86198 0
M  V30 1234 C 120.01 -1.49749 1.26766 0
M  V30 1235 O 119.135 -2.08417 0.582355 0
M  V30 1236 C 119.73 -0.254966 3.37839 0
M  V30 1237 C 118.289 -0.682482 3.70161 0
M  V30 1238 C 117.436 0.181981 2.76702 0
M  V30 1239 H 120.387 0.565994 1.48264 0
M  V30 1240 H 120.408 -1.08195 3.64793 0
M  V30 1241 H 119.92 0.735526 3.81066 0
M  V30 1242 H 118.021 -1.68189 3.3248 0
M  V30 1243 H 118.134 -0.470326 4.76786 0
M  V30 1244 H 116.498 -0.34615 2.52337 0
M  V30 1245 H 117.281 1.16966 3.2276 0
M  V30 1246 N 119.726 -1.57421 0.075193 0
M  V30 1247 C 120.656 -2.15942 -0.888324 0
M  V30 1248 C 121.637 -1.08737 -1.30806 0
M  V30 1249 O 122.822 -1.36787 -1.37851 0
M  V30 1250 C 119.952 -2.72379 -2.1547 0
M  V30 1251 C 118.906 -3.8478 -1.87425 0
M  V30 1252 C 118.232 -4.27834 -3.20721 0
M  V30 1253 C 119.532 -5.08869 -1.17684 0
M  V30 1254 H 121.226 -2.96705 -0.400799 0
M  V30 1255 H 118.772 -1.42723 -0.191342 0
M  V30 1256 H 120.725 -3.11965 -2.83295 0
M  V30 1257 H 119.449 -1.88841 -2.6647 0
M  V30 1258 H 118.108 -3.45703 -1.22004 0
M  V30 1259 H 117.756 -3.41214 -3.6957 0
M  V30 1260 H 117.456 -5.03605 -3.02746 0
M  V30 1261 H 118.98 -4.70039 -3.89738 0
M  V30 1262 H 120.394 -5.4575 -1.75584 0
M  V30 1263 H 118.791 -5.8994 -1.09956 0
M  V30 1264 H 119.861 -4.84648 -0.156453 0
M  V30 1265 N 121.204 0.198386 -1.56346 0
M  V30 1266 C 122.136 1.26987 -1.90806 0
M  V30 1267 C 123.149 1.41877 -0.798419 0
M  V30 1268 O 124.338 1.42362 -1.07682 0
M  V30 1269 C 121.438 2.64246 -2.12196 0
M  V30 1270 C 120.611 2.71007 -3.43328 0
M  V30 1271 C 119.67 3.89439 -3.5387 0
M  V30 1272 O 118.696 3.76695 -4.26719 0
M  V30 1273 N 119.898 5.04752 -2.86715 0
M  V30 1274 H 122.663 0.977433 -2.83313 0
M  V30 1275 H 120.224 0.388322 -1.57174 0
M  V30 1276 H 122.216 3.41896 -2.1654 0
M  V30 1277 H 120.786 2.85992 -1.26204 0
M  V30 1278 H 120.006 1.79657 -3.50881 0
M  V30 1279 H 121.294 2.72512 -4.29668 0
M  V30 1280 H 120.692 5.18004 -2.2735 0
M  V30 1281 H 119.249 5.8036 -2.96691 0
M  V30 1282 N 122.682 1.50554 0.465978 0
M  V30 1283 C 123.592 1.72585 1.58907 0
M  V30 1284 C 124.608 0.60911 1.6299 0
M  V30 1285 O 125.784 0.88804 1.80765 0
M  V30 1286 C 122.849 1.81995 2.95091 0
M  V30 1287 C 121.91 3.05751 3.01355 0
M  V30 1288 C 121.143 3.14702 4.31043 0
M  V30 1289 O 121.366 2.30313 5.21835 0
M  V30 1290 O 120.3 4.07468 4.43005 0
M  V30 1291 H 124.126 2.67799 1.43239 0
M  V30 1292 H 121.711 1.34711 0.646013 0
M  V30 1293 H 123.593 1.90335 3.75966 0
M  V30 1294 H 122.268 0.899659 3.10947 0
M  V30 1295 H 121.175 3.02908 2.19539 0
M  V30 1296 H 122.508 3.97375 2.90437 0
M  V30 1297 N 124.16 -0.719506 1.40217 0
M  V30 1298 C 125.108 -1.85493 1.40339 0
M  V30 1299 C 126.102 -1.66995 0.284415 0
M  V30 1300 O 127.308 -1.74148 0.455252 0
M  V30 1301 H 123.683 -0.610857 0.438586 0
M  V30 1302 H 125.654 -1.82506 2.36081 0
M  V30 1303 C 124.403 -3.23321 1.27901 0
M  V30 1304 H 123.726 -3.38159 2.1328 0
M  V30 1305 H 125.166 -4.02914 1.32045 0
M  V30 1306 C 123.625 -3.36898 -0.0111355 0
M  V30 1307 O 124.155 -3.89674 -0.975538 0
M  V30 1308 N 122.361 -2.90492 -0.0793393 0
M  V30 1309 H 121.908 -2.47731 0.706183 0
M  V30 1310 H 121.866 -2.99955 -0.942038 0
M  V30 1311 N 125.638 -1.25649 -0.95132 0
M  V30 1312 C 126.884 -1.10757 -1.69884 0
M  V30 1313 C 127.217 0.350061 -1.91019 0
M  V30 1314 O 126.492 1.25783 -1.48354 0
M  V30 1315 C 126.775 -1.86606 -3.07978 0
M  V30 1316 C 126.628 -3.40217 -2.94232 0
M  V30 1317 C 127.947 -1.65182 -4.07925 0
M  V30 1318 H 125.066 -0.40374 -0.616574 0
M  V30 1319 H 127.708 -1.54521 -1.10558 0
M  V30 1320 H 125.858 -1.49409 -3.58621 0
M  V30 1321 H 127.53 -3.87108 -2.50889 0
M  V30 1322 H 125.773 -3.67759 -2.30078 0
M  V30 1323 H 126.444 -3.88505 -3.92133 0
M  V30 1324 H 128.92 -1.9757 -3.66204 0
M  V30 1325 H 127.796 -2.20683 -5.02583 0
M  V30 1326 H 128.057 -0.593933 -4.38092 0
M  V30 1327 N 127.117 1.15442 -1.07289 0
M  V30 1328 C 128.345 1.90096 -0.81676 0
M  V30 1329 C 128.76 1.7798 0.629966 0
M  V30 1330 O 128.117 1.1313 1.43206 0
M  V30 1331 C 128.168 3.40466 -1.21512 0
M  V30 1332 O 127.889 3.52232 -2.60508 0
M  V30 1333 C 129.39 4.32145 -0.988198 0
M  V30 1334 H 126.61 0.602495 -0.295366 0
M  V30 1335 H 129.154 1.4627 -1.42918 0
M  V30 1336 H 127.309 3.81958 -0.647039 0
M  V30 1337 H 127.723 4.45549 -2.76742 0
M  V30 1338 H 129.197 5.36072 -1.31645 0
M  V30 1339 H 129.674 4.39135 0.0755063 0
M  V30 1340 H 130.28 3.96395 -1.54115 0
M  V30 1341 N 128.595 0.856903 1.32268 0
M  V30 1342 C 129.844 0.457599 1.96441 0
M  V30 1343 C 130.157 -0.992426 1.68553 0
M  V30 1344 O 131.363 -1.49727 2.26482 0
M  V30 1345 C 129.819 0.767358 3.51624 0
M  V30 1346 C 129.427 2.23326 3.88367 0
M  V30 1347 C 131.171 0.435887 4.22256 0
M  V30 1348 C 129.078 2.48613 5.36606 0
M  V30 1349 H 128.008 0.167387 0.735185 0
M  V30 1350 H 130.659 1.048 1.5063 0
M  V30 1351 H 129.041 0.106367 3.95857 0
M  V30 1352 H 130.215 2.93623 3.55137 0
M  V30 1353 H 128.53 2.52948 3.30766 0
M  V30 1354 H 131.127 0.602202 5.31298 0
M  V30 1355 H 131.47 -0.622672 4.11617 0
M  V30 1356 H 132.003 1.05286 3.83614 0
M  V30 1357 H 128.742 3.53101 5.52268 0
M  V30 1358 H 128.262 1.82896 5.71235 0
M  V30 1359 H 129.941 2.32676 6.03714 0
M  V30 1360 N 130.073 -1.45103 0.615059 0
M  V30 1361 C 131.005 -2.28786 -0.13762 0
M  V30 1362 C 132.018 -1.40376 -0.824525 0
M  V30 1363 O 133.207 -1.64681 -0.688662 0
M  V30 1364 C 130.307 -3.16322 -1.21628 0
M  V30 1365 C 129.48 -4.33054 -0.615039 0
M  V30 1366 C 128.539 -5.01743 -1.58556 0
M  V30 1367 O 127.565 -5.58293 -1.10895 0
M  V30 1368 N 128.767 -5.01714 -2.91998 0
M  V30 1369 H 131.532 -2.94025 0.580483 0
M  V30 1370 H 129.093 -1.55373 0.45507 0
M  V30 1371 H 131.085 -3.59139 -1.86552 0
M  V30 1372 H 129.655 -2.52943 -1.83681 0
M  V30 1373 H 128.875 -3.93627 0.21245 0
M  V30 1374 H 130.163 -5.08431 -0.193704 0
M  V30 1375 H 129.561 -4.57075 -3.33316 0
M  V30 1376 H 128.118 -5.48371 -3.52325 0
M  V30 1377 N 131.551 -0.354651 -1.53558 0
M  V30 1378 C 132.498 0.496968 -2.25386 0
M  V30 1379 C 133.468 1.0865 -1.25636 0
M  V30 1380 O 134.653 1.12104 -1.54394 0
M  V30 1381 C 131.793 1.63637 -3.03837 0
M  V30 1382 C 130.906 1.07307 -4.18461 0
M  V30 1383 C 130.041 2.18068 -4.84376 0
M  V30 1384 C 129.08 1.59147 -5.91049 0
M  V30 1385 N 128.217 2.63695 -6.50699 0
M  V30 1386 H 133.057 -0.122075 -2.9775 0
M  V30 1387 H 130.594 -0.0720154 -1.46924 0
M  V30 1388 H 132.552 2.30734 -3.47589 0
M  V30 1389 H 131.182 2.22623 -2.33749 0
M  V30 1390 H 130.234 0.292708 -3.79272 0
M  V30 1391 H 131.546 0.602193 -4.95152 0
M  V30 1392 H 130.7 2.93007 -5.31255 0
M  V30 1393 H 129.439 2.68504 -4.07133 0
M  V30 1394 H 128.444 0.827175 -5.43542 0
M  V30 1395 H 129.669 1.09549 -6.70206 0
M  V30 1396 H 127.615 3.13365 -5.76315 0
M  V30 1397 H 127.532 2.21263 -7.22896 0
M  V30 1398 H 128.8 3.3837 -7.02229 0
M  V30 1399 N 133.029 1.57378 -0.0835403 0
M  V30 1400 C 133.961 2.10389 0.909338 0
M  V30 1401 C 134.974 1.03858 1.25369 0
M  V30 1402 O 136.163 1.31338 1.20882 0
M  V30 1403 C 133.263 2.55908 2.2218 0
M  V30 1404 C 132.436 3.86145 2.05453 0
M  V30 1405 C 131.495 4.17633 3.20108 0
M  V30 1406 O 130.521 4.87043 2.94581 0
M  V30 1407 N 131.723 3.72113 4.45547 0
M  V30 1408 H 134.488 2.962 0.456657 0
M  V30 1409 H 132.049 1.61579 0.101877 0
M  V30 1410 H 134.041 2.74027 2.97811 0
M  V30 1411 H 132.611 1.75171 2.58909 0
M  V30 1412 H 131.831 3.7729 1.1422 0
M  V30 1413 H 133.119 4.7137 1.91541 0
M  V30 1414 H 132.517 3.16062 4.69171 0
M  V30 1415 H 131.074 3.95409 5.18165 0
M  V30 1416 N 134.507 -0.190092 1.56449 0
M  V30 1417 C 135.454 -1.23557 1.94942 0
M  V30 1418 C 136.424 -1.44972 0.810696 0
M  V30 1419 O 137.609 -1.58023 1.06927 0
M  V30 1420 C 134.749 -2.57416 2.2985 0
M  V30 1421 C 133.862 -2.43537 3.5681 0
M  V30 1422 C 132.997 -3.70134 3.81017 0
M  V30 1423 C 132.036 -3.51109 5.01387 0
M  V30 1424 N 131.173 -4.6973 5.21822 0
M  V30 1425 H 136.013 -0.900304 2.84075 0
M  V30 1426 H 133.55 -0.43318 1.40577 0
M  V30 1427 H 135.508 -3.35409 2.48106 0
M  V30 1428 H 134.138 -2.88975 1.43852 0
M  V30 1429 H 133.19 -1.56816 3.46573 0
M  V30 1430 H 134.502 -2.25415 4.4496 0
M  V30 1431 H 133.656 -4.56566 3.9954 0
M  V30 1432 H 132.395 -3.91215 2.91207 0
M  V30 1433 H 131.4 -2.63063 4.82782 0
M  V30 1434 H 132.625 -3.31468 5.9271 0
M  V30 1435 H 130.571 -4.91065 4.34961 0
M  V30 1436 H 130.488 -4.54452 6.0416 0
M  V30 1437 H 131.756 -5.57499 5.44808 0
M  V30 1438 N 135.985 -1.50799 -0.457987 0
M  V30 1439 C 137.401 -1.38515 -0.792819 0
M  V30 1440 C 137.601 -0.451409 -1.96379 0
M  V30 1441 O 136.657 0.10112 -2.52297 0
M  V30 1442 C 137.97 -2.80149 -1.09258 0
M  V30 1443 C 139.518 -2.89156 -1.19825 0
M  V30 1444 C 139.993 -4.31651 -1.53106 0
M  V30 1445 N 141.484 -4.34662 -1.60072 0
M  V30 1446 C 142.219 -5.41928 -1.87354 0
M  V30 1447 N 141.715 -6.59384 -2.12568 0
M  V30 1448 N 143.508 -5.29385 -1.88965 0
M  V30 1449 H 135.659 -2.10073 0.313511 0
M  V30 1450 H 137.922 -0.944803 0.0777862 0
M  V30 1451 H 137.628 -3.50374 -0.305084 0
M  V30 1452 H 137.502 -3.18204 -2.02549 0
M  V30 1453 H 139.889 -2.19141 -1.97639 0
M  V30 1454 H 139.97 -2.54626 -0.244821 0
M  V30 1455 H 139.614 -5.02208 -0.758266 0
M  V30 1456 H 139.544 -4.63678 -2.49621 0
M  V30 1457 H 142.035 -3.49973 -1.42573 0
M  V30 1458 H 142.348 -7.36934 -2.32696 0
M  V30 1459 H 140.693 -6.62535 -2.09933 0
M  V30 1460 H 143.884 -4.36616 -1.68772 0
M  V30 1461 H 144.057 -6.13066 -2.09891 0
M  V30 1462 N 137.463 0.71206 -1.40597 0
M  V30 1463 C 138.879 1.02058 -1.22704 0
M  V30 1464 C 139.079 2.01228 -0.104729 0
M  V30 1465 O 138.135 2.4674 0.53624 0
M  V30 1466 C 139.448 1.56094 -2.57012 0
M  V30 1467 C 140.996 1.6806 -2.64054 0
M  V30 1468 C 141.471 2.25501 -3.9864 0
M  V30 1469 N 142.962 2.32882 -4.004 0
M  V30 1470 C 143.697 2.78317 -5.01325 0
M  V30 1471 N 143.193 3.23478 -6.12645 0
M  V30 1472 N 144.986 2.77733 -4.88693 0
M  V30 1473 H 137.137 0.0547896 -2.12329 0
M  V30 1474 H 139.4 0.0869027 -0.944008 0
M  V30 1475 H 139.106 0.906865 -3.39807 0
M  V30 1476 H 138.98 2.54564 -2.78347 0
M  V30 1477 H 141.367 2.32583 -1.81629 0
M  V30 1478 H 141.448 0.681802 -2.46546 0
M  V30 1479 H 141.092 1.61598 -4.81506 0
M  V30 1480 H 141.022 3.26102 -4.13479 0
M  V30 1481 H 143.513 2.00991 -3.20017 0
M  V30 1482 H 143.826 3.56725 -6.85542 0
M  V30 1483 H 142.171 3.21429 -6.16205 0
M  V30 1484 H 145.362 2.4179 -4.00818 0
M  V30 1485 H 145.535 3.12826 -5.67489 0
M  V30 1486 N 138.941 1.26152 0.944643 0
M  V30 1487 C 140.166 1.14363 1.7302 0
M  V30 1488 C 140.591 -0.29772 1.85729 0
M  V30 1489 O 139.949 -1.2157 1.34501 0
M  V30 1490 C 139.997 1.81378 3.11664 0
M  V30 1491 O 139.101 1.10022 3.97453 0
M  V30 1492 H 138.442 0.398694 0.53098 0
M  V30 1493 H 140.972 1.66906 1.18337 0
M  V30 1494 H 140.982 1.88064 3.62072 0
M  V30 1495 H 139.657 2.86237 3.0173 0
M  V30 1496 H 138.234 1.11287 3.55907 0
M  V30 1497 N 140.419 -1.14872 1.07899 0
M  V30 1498 C 141.665 -1.86064 0.806725 0
M  V30 1499 C 141.998 -1.82434 -0.665706 0
M  V30 1500 O 141.273 -1.25138 -1.48899 0
M  V30 1501 C 141.556 -3.34929 1.32267 0
M  V30 1502 C 141.409 -3.47161 2.86006 0
M  V30 1503 C 142.728 -4.29863 0.943717 0
M  V30 1504 H 139.847 -0.675591 0.294526 0
M  V30 1505 H 142.489 -1.34925 1.33773 0
M  V30 1506 H 140.639 -3.78611 0.870974 0
M  V30 1507 H 142.311 -3.12302 3.39507 0
M  V30 1508 H 140.554 -2.88539 3.23925 0
M  V30 1509 H 141.225 -4.51777 3.17177 0
M  V30 1510 H 143.701 -3.9417 1.33302 0
M  V30 1511 H 142.577 -5.32494 1.33198 0
M  V30 1512 H 142.838 -4.41846 -0.149796 0
M  V30 1513 N 141.898 -0.863906 -1.31812 0
M  V30 1514 C 142.846 -0.30422 -2.30602 0
M  V30 1515 C 143.84 0.577419 -1.59255 0
M  V30 1516 O 145.046 0.464194 -1.73912 0
M  V30 1517 H 141.421 -0.0796877 -0.747766 0
M  V30 1518 H 143.392 -1.15148 -2.75288 0
M  V30 1519 C 142.141 0.484617 -3.44306 0
M  V30 1520 H 141.464 -0.18451 -3.99374 0
M  V30 1521 H 142.904 0.841664 -4.15562 0
M  V30 1522 C 141.363 1.6735 -2.92396 0
M  V30 1523 O 141.893 2.77273 -2.90659 0
M  V30 1524 N 140.099 1.50362 -2.48676 0
M  V30 1525 H 139.646 0.609402 -2.50288 0
M  V30 1526 H 139.604 2.30051 -2.14299 0
M  V30 1527 N 143.376 1.44774 -0.622745 0
M  V30 1528 C 144.601 2.06999 -0.128968 0
M  V30 1529 C 145.026 1.4617 1.1839 0
M  V30 1530 O 144.384 0.560007 1.72434 0
M  V30 1531 C 144.432 3.60595 -0.0188351 0
M  V30 1532 O 143.536 3.99398 1.02739 0
M  V30 1533 H 142.877 0.659047 -0.0809544 0
M  V30 1534 H 145.407 1.85784 -0.85705 0
M  V30 1535 H 145.417 4.07627 0.174476 0
M  V30 1536 H 144.092 4.04252 -0.977384 0
M  V30 1537 H 142.669 3.64011 0.809326 0
M  V30 1538 N 144.854 0.36279 1.53368 0
M  V30 1539 C 145.801 -0.485008 2.25646 0
M  V30 1540 C 146.771 -1.07982 1.2621 0
M  V30 1541 O 147.956 -1.11284 1.54986 0
M  V30 1542 C 145.096 -1.62023 3.04701 0
M  V30 1543 C 144.209 -1.05086 4.19024 0
M  V30 1544 C 143.344 -2.15496 4.85525 0
M  V30 1545 C 142.383 -1.5601 5.91884 0
M  V30 1546 N 141.52 -2.60241 6.52088 0
M  V30 1547 H 146.36 0.137864 2.97681 0
M  V30 1548 H 143.897 0.0798061 1.46883 0
M  V30 1549 H 145.855 -2.28887 3.48807 0
M  V30 1550 H 144.485 -2.2138 2.34927 0
M  V30 1551 H 143.537 -0.27259 3.79422 0
M  V30 1552 H 144.849 -0.575926 4.95464 0
M  V30 1553 H 144.003 -2.90186 5.32801 0
M  V30 1554 H 142.742 -2.66341 4.08551 0
M  V30 1555 H 141.747 -0.798338 5.43973 0
M  V30 1556 H 142.972 -1.05994 6.70777 0
M  V30 1557 H 140.918 -3.10304 5.77968 0
M  V30 1558 H 140.835 -2.17426 7.24059 0
M  V30 1559 H 142.103 -3.34641 7.04014 0
M  V30 1560 N 146.332 -1.57332 0.0918853 0
M  V30 1561 C 147.581 -1.93412 -0.572249 0
M  V30 1562 C 147.894 -0.975515 -1.69538 0
M  V30 1563 O 149.1 -1.22991 -2.42045 0
M  V30 1564 C 147.556 -3.43648 -1.0693 0
M  V30 1565 C 147.164 -4.47994 0.0239049 0
M  V30 1566 C 148.908 -3.88695 -1.70635 0
M  V30 1567 C 146.815 -5.89381 -0.488319 0
M  V30 1568 H 145.745 -0.721939 -0.217532 0
M  V30 1569 H 148.396 -1.82735 0.167369 0
M  V30 1570 H 146.778 -3.49466 -1.8625 0
M  V30 1571 H 147.952 -4.53815 0.799277 0
M  V30 1572 H 146.267 -4.12536 0.565946 0
M  V30 1573 H 148.864 -4.91725 -2.10025 0
M  V30 1574 H 149.207 -3.27166 -2.57426 0
M  V30 1575 H 149.74 -3.85564 -0.979023 0
M  V30 1576 H 146.479 -6.54602 0.342906 0
M  V30 1577 H 145.999 -5.87037 -1.23077 0
M  V30 1578 H 147.678 -6.39863 -0.958317 0
M  V30 1579 N 147.81 0.181792 -1.56548 0
M  V30 1580 C 149.221 0.745244 -1.71181 0
M  V30 1581 C 149.572 1.83262 -0.70068 0
M  V30 1582 O 148.697 2.15946 0.140154 0
M  V30 1583 C 149.292 1.35859 -3.10367 0
M  V30 1584 C 147.851 1.86898 -3.2672 0
M  V30 1585 C 146.998 0.743942 -2.67134 0
M  V30 1586 H 149.949 -0.0434661 -1.5864 0
M  V30 1587 H 149.97 2.22817 -3.08436 0
M  V30 1588 H 149.482 0.566948 -3.83937 0
M  V30 1589 H 147.583 2.68738 -2.5809 0
M  V30 1590 H 147.696 2.02162 -4.34359 0
M  V30 1591 H 146.06 1.16169 -2.26665 0
M  V30 1592 H 146.843 -0.035676 -3.43281 0
M  V30 1593 N 149.288 1.51039 0.449983 0
M  V30 1594 C 150.251 1.70863 1.5277 0
M  V30 1595 C 151.251 0.578846 1.5002 0
M  V30 1596 O 152.441 0.846213 1.52266 0
M  V30 1597 C 149.573 1.75341 2.9235 0
M  V30 1598 H 150.766 2.67034 1.36502 0
M  V30 1599 H 148.319 1.40838 0.677812 0
M  V30 1600 H 149.054 0.809383 3.14037 0
M  V30 1601 H 148.839 2.57436 2.95752 0
M  V30 1602 H 150.329 1.92559 3.70555 0
M  V30 1603 N 150.766 -0.704594 1.40972 0
M  V30 1604 C 152.177 -1.28418 1.3552 0
M  V30 1605 C 152.528 -1.96171 0.0339434 0
M  V30 1606 O 151.653 -1.98231 -0.867944 0
M  V30 1607 C 152.248 -2.33528 2.45459 0
M  V30 1608 C 150.807 -2.87085 2.43433 0
M  V30 1609 C 149.954 -1.61007 2.2577 0
M  V30 1610 H 152.905 -0.499963 1.50619 0
M  V30 1611 H 152.926 -3.14619 2.13998 0
M  V30 1612 H 152.438 -1.84187 3.41609 0
M  V30 1613 H 150.539 -3.40626 1.51013 0
M  V30 1614 H 150.652 -3.3813 3.39419 0
M  V30 1615 H 149.016 -1.86482 1.73483 0
M  V30 1616 H 149.799 -1.13675 3.23933 0
M  V30 1617 N 152.244 -1.26651 -0.937939 0
M  V30 1618 C 153.191 -1.0849 -2.03712 0
M  V30 1619 C 154.161 0.011033 -1.66096 0
M  V30 1620 O 155.346 -0.149353 -1.90215 0
M  V30 1621 C 152.486 -0.72735 -3.37348 0
M  V30 1622 C 151.599 -1.89986 -3.87981 0
M  V30 1623 C 150.734 -1.48513 -5.10017 0
M  V30 1624 C 149.773 -2.62575 -5.5292 0
M  V30 1625 N 148.91 -2.21762 -6.66158 0
M  V30 1626 H 153.75 -2.02551 -2.18579 0
M  V30 1627 H 151.287 -1.00844 -1.07093 0
M  V30 1628 H 153.245 -0.50092 -4.14182 0
M  V30 1629 H 151.875 0.176298 -3.22318 0
M  V30 1630 H 150.927 -2.23913 -3.07518 0
M  V30 1631 H 152.239 -2.75586 -4.15757 0
M  V30 1632 H 151.393 -1.21934 -5.94321 0
M  V30 1633 H 150.132 -0.60009 -4.83994 0
M  V30 1634 H 149.137 -2.8988 -4.67172 0
M  V30 1635 H 150.362 -3.51685 -5.80943 0
M  V30 1636 H 148.308 -1.35696 -6.41812 0
M  V30 1637 H 148.225 -3.00903 -6.93537 0
M  V30 1638 H 149.493 -1.98403 -7.53828 0
M  V30 1639 N 153.722 1.14298 -1.08507 0
M  V30 1640 C 154.632 2.23027 -0.727753 0
M  V30 1641 C 155.648 1.71952 0.26619 0
M  V30 1642 O 156.824 2.011 0.109882 0
M  V30 1643 C 153.889 3.46403 -0.143541 0
M  V30 1644 C 152.95 4.12413 -1.19223 0
M  V30 1645 C 152.183 5.29899 -0.635798 0
M  V30 1646 O 152.406 5.67796 0.544393 0
M  V30 1647 O 151.34 5.85717 -1.38634 0
M  V30 1648 H 155.166 2.55945 -1.63481 0
M  V30 1649 H 152.751 1.22248 -0.858817 0
M  V30 1650 H 154.633 4.21018 0.179404 0
M  V30 1651 H 153.308 3.15206 0.736659 0
M  V30 1652 H 152.215 3.39667 -1.56772 0
M  V30 1653 H 153.548 4.47718 -2.04474 0
M  V30 1654 N 155.201 0.870884 1.31352 0
M  V30 1655 C 156.426 0.495957 2.01383 0
M  V30 1656 C 156.851 -0.904324 1.64935 0
M  V30 1657 O 156.209 -1.59687 0.858466 0
M  V30 1658 C 156.257 0.661433 3.54482 0
M  V30 1659 O 155.361 -0.298851 4.11316 0
M  V30 1660 H 154.702 0.197158 0.634054 0
M  V30 1661 H 157.232 1.17455 1.67527 0
M  V30 1662 H 157.242 0.555072 4.04207 0
M  V30 1663 H 155.917 1.68246 3.8035 0
M  V30 1664 H 154.494 -0.147368 3.72609 0
M  V30 1665 N 156.679 -1.44442 0.630414 0
M  V30 1666 C 157.609 -2.33418 -0.0618083 0
M  V30 1667 C 158.59 -1.48165 -0.835541 0
M  V30 1668 O 159.775 -1.76886 -0.801564 0
M  V30 1669 C 156.905 -3.31222 -1.04449 0
M  V30 1670 C 155.859 -4.26288 -0.382436 0
M  V30 1671 C 155.185 -5.13954 -1.47497 0
M  V30 1672 C 156.485 -5.1744 0.710865 0
M  V30 1673 H 158.179 -2.91548 0.681184 0
M  V30 1674 H 155.725 -1.40191 0.329026 0
M  V30 1675 H 157.678 -3.92351 -1.53748 0
M  V30 1676 H 156.402 -2.71299 -1.81836 0
M  V30 1677 H 155.061 -3.6649 0.0899054 0
M  V30 1678 H 154.709 -4.50385 -2.2397 0
M  V30 1679 H 154.409 -5.7837 -1.03737 0
M  V30 1680 H 155.933 -5.77955 -1.96979 0
M  V30 1681 H 157.347 -5.72509 0.300996 0
M  V30 1682 H 155.744 -5.90455 1.07156 0
M  V30 1683 H 156.814 -4.58496 1.57829 0
M  V30 1684 N 158.157 -0.370918 -1.53173 0
M  V30 1685 C 159.573 -0.0200818 -1.59587 0
M  V30 1686 C 159.773 1.46279 -1.38581 0
M  V30 1687 O 158.829 2.22506 -1.19363 0
M  V30 1688 C 160.142 -0.4808 -2.96831 0
M  V30 1689 C 161.69 -0.435477 -3.09956 0
M  V30 1690 C 162.165 -0.872092 -4.4962 0
M  V30 1691 N 163.656 -0.827364 -4.55751 0
M  V30 1692 C 164.391 -1.13683 -5.62018 0
M  V30 1693 N 163.887 -1.51584 -6.76014 0
M  V30 1694 N 165.68 -1.05927 -5.52029 0
M  V30 1695 H 157.831 -1.33652 -1.65079 0
M  V30 1696 H 160.094 -0.546634 -0.774529 0
M  V30 1697 H 159.8 -1.51577 -3.1736 0
M  V30 1698 H 159.674 0.129796 -3.76977 0
M  V30 1699 H 162.061 0.590371 -2.89134 0
M  V30 1700 H 162.142 -1.08164 -2.31806 0
M  V30 1701 H 161.786 -1.89608 -4.71181 0
M  V30 1702 H 161.716 -0.203127 -5.26208 0
M  V30 1703 H 164.207 -0.548216 -3.73902 0
M  V30 1704 H 164.52 -1.73609 -7.53047 0
M  V30 1705 H 162.865 -1.55454 -6.77391 0
M  V30 1706 H 166.056 -0.762321 -4.61851 0
M  V30 1707 H 166.229 -1.30378 -6.34749 0
M  V30 1708 N 159.635 1.57281 -0.100228 0
M  V30 1709 C 160.86 1.99302 0.573881 0
M  V30 1710 C 161.285 0.979059 1.60611 0
M  V30 1711 O 160.643 -0.0517803 1.81226 0
M  V30 1712 C 160.691 3.40274 1.19358 0
M  V30 1713 O 159.795 3.41676 2.30935 0
M  V30 1714 H 159.136 0.647944 0.145138 0
M  V30 1715 H 161.666 2.03779 -0.183156 0
M  V30 1716 H 161.676 3.78078 1.53365 0
M  V30 1717 H 160.351 4.13594 0.437385 0
M  V30 1718 H 158.928 3.15672 1.98509 0
M  V30 1719 N 161.113 -0.173488 1.56642 0
M  V30 1720 C 162.529 -0.525174 1.50712 0
M  V30 1721 C 162.729 -1.8476 0.804107 0
M  V30 1722 O 161.785 -2.49869 0.363574 0
M  V30 1723 C 163.098 -0.559937 2.95441 0
M  V30 1724 C 164.646 -0.647288 3.06234 0
M  V30 1725 C 165.121 -0.712963 4.52417 0
M  V30 1726 N 166.612 -0.775911 4.56655 0
M  V30 1727 C 167.347 -0.847264 5.67106 0
M  V30 1728 N 166.843 -0.879585 6.87194 0
M  V30 1729 N 168.636 -0.886117 5.55071 0
M  V30 1730 H 160.787 0.693681 2.00753 0
M  V30 1731 H 163.05 0.249841 0.914485 0
M  V30 1732 H 162.756 0.343049 3.50023 0
M  V30 1733 H 162.63 -1.40718 3.49969 0
M  V30 1734 H 165.017 -1.5407 2.51687 0
M  V30 1735 H 165.098 0.226586 2.54794 0
M  V30 1736 H 164.742 0.176183 5.07594 0
M  V30 1737 H 164.672 -1.60295 5.0161 0
M  V30 1738 H 167.163 -0.759304 3.70193 0
M  V30 1739 H 167.476 -0.935144 7.67121 0
M  V30 1740 H 165.821 -0.847898 6.89808 0
M  V30 1741 H 169.012 -0.857853 4.60172 0
M  V30 1742 H 169.185 -0.938263 6.41171 0
M  V30 1743 N 162.591 -1.51276 -0.441967 0
M  V30 1744 C 163.816 -1.67799 -1.21895 0
M  V30 1745 C 164.241 -0.372864 -1.84367 0
M  V30 1746 O 163.599 0.666501 -1.68604 0
M  V30 1747 C 163.647 -2.79199 -2.28211 0
M  V30 1748 O 162.751 -2.42479 -3.33583 0
M  V30 1749 H 162.092 -0.559649 -0.357336 0
M  V30 1750 H 164.622 -1.97815 -0.522522 0
M  V30 1751 H 164.632 -3.03146 -2.73069 0
M  V30 1752 H 163.307 -3.73906 -1.82118 0
M  V30 1753 H 161.884 -2.29087 -2.94234 0
M  V30 1754 N 164.069 0.697108 -1.41344 0
M  V30 1755 C 165.297 1.48593 -1.43972 0
M  V30 1756 C 165.712 1.88747 -0.0445612 0
M  V30 1757 O 165.069 1.56682 0.935785 0
M  V30 1758 C 165.12 2.74946 -2.34706 0
M  V30 1759 O 164.841 2.36484 -3.68791 0
M  V30 1760 C 166.342 3.687 -2.46121 0
M  V30 1761 H 163.562 0.457964 -0.490418 0
M  V30 1762 H 166.106 0.858429 -1.8561 0
M  V30 1763 H 164.261 3.33937 -1.9638 0
M  V30 1764 H 164.675 3.17918 -4.17167 0
M  V30 1765 H 166.149 4.54145 -3.13777 0
M  V30 1766 H 166.626 4.13081 -1.49199 0
M  V30 1767 H 167.232 3.15613 -2.85076 0
M  V30 1768 N 165.547 1.27147 0.931209 0
M  V30 1769 C 166.963 1.04475 1.20653 0
M  V30 1770 C 167.163 -0.223885 2.00252 0
M  V30 1771 O 166.219 -0.930332 2.34736 0
M  V30 1772 C 167.532 2.28209 1.95809 0
M  V30 1773 C 169.08 2.33211 2.08762 0
M  V30 1774 C 169.555 3.56665 2.87323 0
M  V30 1775 N 171.046 3.57201 2.94892 0
M  V30 1776 C 171.781 4.49395 3.56134 0
M  V30 1777 N 171.277 5.51889 4.18796 0
M  V30 1778 N 173.07 4.37026 3.53504 0
M  V30 1779 H 165.221 2.08612 0.399333 0
M  V30 1780 H 167.484 0.917312 0.239253 0
M  V30 1781 H 167.19 3.20538 1.44736 0
M  V30 1782 H 167.064 2.33247 2.96438 0
M  V30 1783 H 169.451 1.41391 2.59023 0
M  V30 1784 H 169.532 2.32178 1.07364 0
M  V30 1785 H 169.176 4.4882 2.37746 0
M  V30 1786 H 169.106 3.54948 3.88998 0
M  V30 1787 H 171.597 2.83074 2.50354 0
M  V30 1788 H 171.91 6.18409 4.63454 0
M  V30 1789 H 170.255 5.55735 4.17353 0
M  V30 1790 H 173.446 3.56166 3.03749 0
M  V30 1791 H 173.619 5.09067 4.00942 0
M  V30 1792 N 167.025 -1.13721 1.09112 0
M  V30 1793 C 167.958 -2.18094 0.67158 0
M  V30 1794 C 168.936 -1.59414 -0.320299 0
M  V30 1795 O 170.12 -1.87183 -0.222444 0
M  V30 1796 C 167.247 -3.38698 -0.0111189 0
M  V30 1797 C 166.293 -4.15966 0.942055 0
M  V30 1798 S 167.126 -4.7604 2.45246 0
M  V30 1799 C 168.282 -5.99994 1.78208 0
M  V30 1800 H 168.515 -2.53344 1.55577 0
M  V30 1801 H 166.048 -1.24967 0.906789 0
M  V30 1802 H 168.006 -4.08559 -0.398716 0
M  V30 1803 H 166.667 -3.01756 -0.871905 0
M  V30 1804 H 165.86 -5.02318 0.411396 0
M  V30 1805 H 165.462 -3.51745 1.2709 0
M  V30 1806 H 167.754 -6.68441 1.10424 0
M  V30 1807 H 168.697 -6.57662 2.62463 0
M  V30 1808 H 169.105 -5.50432 1.25238 0
M  V30 1809 N 168.503 -0.877838 -1.30888 0
M  V30 1810 C 169.728 -0.506629 -2.01117 0
M  V30 1811 C 170.153 0.895564 -1.65412 0
M  V30 1812 O 169.511 1.5923 -0.866922 0
M  V30 1813 C 169.559 -0.680223 -3.54126 0
M  V30 1814 O 168.663 0.277033 -4.11468 0
M  V30 1815 H 168.004 -0.200518 -0.633 0
M  V30 1816 H 170.534 -1.18342 -1.66902 0
M  V30 1817 H 170.544 -0.5765 -4.03907 0
M  V30 1818 H 169.219 -1.70261 -3.79452 0
M  V30 1819 H 167.796 0.127606 -3.72682 0
M  V30 1820 N 169.982 1.44106 -0.638065 0
M  V30 1821 C 171.21 2.06336 -0.152615 0
M  V30 1822 C 171.625 1.47731 1.17563 0
M  V30 1823 O 170.982 0.602806 1.72257 0
M  V30 1824 C 171.033 3.61479 -0.0391491 0
M  V30 1825 O 170.754 4.17903 -1.31487 0
M  V30 1826 C 172.255 4.40757 0.474176 0
M  V30 1827 H 169.475 0.665862 -0.0828776 0
M  V30 1828 H 172.019 1.84862 -0.87443 0
M  V30 1829 H 170.174 3.82191 0.633142 0
M  V30 1830 H 170.588 5.11416 -1.16421 0
M  V30 1831 H 172.062 5.49707 0.502562 0
M  V30 1832 H 172.539 4.12697 1.50258 0
M  V30 1833 H 173.145 4.24979 -0.165102 0
M  V30 1834 N 171.46 0.379036 1.52974 0
M  V30 1835 C 172.706 -0.206727 2.01744 0
M  V30 1836 C 173.039 -1.47314 1.26539 0
M  V30 1837 O 172.314 -1.91084 0.362903 0
M  V30 1838 C 172.597 -0.485066 3.56818 0
M  V30 1839 C 172.45 0.795919 4.42702 0
M  V30 1840 C 173.769 -1.28003 4.21074 0
M  V30 1841 H 170.888 -0.0736607 0.73331 0
M  V30 1842 H 173.53 0.506581 1.83122 0
M  V30 1843 H 171.68 -1.09272 3.72816 0
M  V30 1844 H 173.352 1.43307 4.38476 0
M  V30 1845 H 171.595 1.41344 4.10127 0
M  V30 1846 H 172.266 0.555947 5.49193 0
M  V30 1847 H 174.742 -0.765867 4.08991 0
M  V30 1848 H 173.618 -1.44352 5.29579 0
M  V30 1849 H 173.879 -2.29236 3.78026 0
M  V30 1850 N 172.938 -1.57226 0.108567 0
M  V30 1851 C 174.163 -1.99604 -0.563303 0
M  V30 1852 C 174.588 -0.987563 -1.6009 0
M  V30 1853 O 173.946 0.0421687 -1.81251 0
M  V30 1854 C 173.994 -3.40902 -1.17552 0
M  V30 1855 O 173.098 -3.42896 -2.2912 0
M  V30 1856 H 172.439 -0.648704 -0.1417 0
M  V30 1857 H 174.969 -2.03679 0.193961 0
M  V30 1858 H 174.979 -3.78886 -1.51357 0
M  V30 1859 H 173.654 -4.1382 -0.415445 0
M  V30 1860 H 172.231 -3.1672 -1.96832 0
M  V30 1861 N 174.416 0.165178 -1.56732 0
M  V30 1862 C 175.326 1.22423 -2.00125 0
M  V30 1863 C 176.342 1.48084 -0.913619 0
M  V30 1864 O 177.518 1.60112 -1.22172 0
M  V30 1865 C 174.583 2.54197 -2.35764 0
M  V30 1866 C 173.644 2.36343 -3.58386 0
M  V30 1867 C 172.877 3.61834 -3.92316 0
M  V30 1868 O 173.1 4.67267 -3.27135 0
M  V30 1869 O 172.034 3.55579 -4.85641 0
M  V30 1870 H 175.86 0.885886 -2.90492 0
M  V30 1871 H 173.445 0.372518 -1.44681 0
M  V30 1872 H 175.327 3.3192 -2.59629 0
M  V30 1873 H 174.002 2.87598 -1.48557 0
M  V30 1874 H 172.909 1.56632 -3.39731 0
M  V30 1875 H 174.242 2.07865 -4.46154 0
M  V30 1876 N 175.894 1.51508 0.433938 0
M  V30 1877 C 176.824 1.76016 1.53429 0
M  V30 1878 C 177.805 0.610112 1.58782 0
M  V30 1879 O 178.99 0.853177 1.74455 0
M  V30 1880 C 176.12 1.88831 2.9148 0
M  V30 1881 C 175.074 3.04288 3.00987 0
M  V30 1882 C 174.4 3.0229 4.4105 0
M  V30 1883 C 175.7 4.44193 2.74754 0
M  V30 1884 H 177.394 2.68152 1.33171 0
M  V30 1885 H 174.94 1.29035 0.639214 0
M  V30 1886 H 176.893 2.04559 3.6842 0
M  V30 1887 H 175.617 0.933455 3.12976 0
M  V30 1888 H 174.276 2.8827 2.26486 0
M  V30 1889 H 173.924 2.04576 4.59519 0
M  V30 1890 H 173.624 3.79822 4.4834 0
M  V30 1891 H 175.148 3.20116 5.1996 0
M  V30 1892 H 176.562 4.60544 3.41426 0
M  V30 1893 H 174.959 5.23457 2.9345 0
M  V30 1894 H 176.029 4.53996 1.70339 0
M  V30 1895 N 177.372 -0.689602 1.41712 0
M  V30 1896 C 178.788 -1.00093 1.24312 0
M  V30 1897 C 178.988 -2.01036 0.136729 0
M  V30 1898 O 178.044 -2.47562 -0.496918 0
M  V30 1899 C 179.357 -1.51985 2.59463 0
M  V30 1900 C 180.905 -1.63838 2.66695 0
M  V30 1901 C 181.38 -2.1913 4.02177 0
M  V30 1902 N 182.871 -2.26483 4.04054 0
M  V30 1903 C 183.606 -2.70306 5.0569 0
M  V30 1904 N 183.102 -3.13691 6.17713 0
M  V30 1905 N 184.895 -2.69923 4.9305 0
M  V30 1906 H 177.046 -0.0210029 2.1239 0
M  V30 1907 H 179.309 -0.0718733 0.945272 0
M  V30 1908 H 179.015 -0.85269 3.41207 0
M  V30 1909 H 178.889 -2.50103 2.82362 0
M  V30 1910 H 181.276 -2.29664 1.85306 0
M  V30 1911 H 181.357 -0.642492 2.476 0
M  V30 1912 H 181.001 -1.53918 4.84016 0
M  V30 1913 H 180.931 -3.19482 4.18615 0
M  V30 1914 H 183.422 -1.95874 3.23174 0
M  V30 1915 H 183.735 -3.45773 6.9113 0
M  V30 1916 H 182.08 -3.11585 6.21241 0
M  V30 1917 H 185.271 -2.35382 4.04614 0
M  V30 1918 H 185.444 -3.03758 5.72394 0
M  V30 1919 N 178.85 -1.27639 -0.924453 0
M  V30 1920 C 180.099 -1.13549 -1.66702 0
M  V30 1921 C 180.412 0.317487 -1.93006 0
M  V30 1922 O 181.618 0.579333 -2.65247 0
M  V30 1923 C 180.074 -1.98426 -3.00259 0
M  V30 1924 C 179.682 -3.484 -2.81641 0
M  V30 1925 C 181.426 -1.92993 -3.78092 0
M  V30 1926 C 179.333 -4.25464 -4.10773 0
M  V30 1927 H 178.263 -0.421351 -0.625283 0
M  V30 1928 H 180.914 -1.52085 -1.02676 0
M  V30 1929 H 179.296 -1.52736 -3.6536 0
M  V30 1930 H 180.47 -4.01973 -2.25287 0
M  V30 1931 H 178.785 -3.55245 -2.17232 0
M  V30 1932 H 181.382 -2.47844 -4.7379 0
M  V30 1933 H 181.725 -0.904281 -4.0636 0
M  V30 1934 H 182.258 -2.36595 -3.19793 0
M  V30 1935 H 178.997 -5.28566 -3.87683 0
M  V30 1936 H 178.517 -3.76667 -4.66779 0
M  V30 1937 H 180.196 -4.34812 -4.79111 0
M  V30 1938 N 180.328 1.1314 -1.09713 0
M  V30 1939 C 181.556 1.88321 -0.856898 0
M  V30 1940 C 181.971 1.79276 0.592073 0
M  V30 1941 O 181.328 1.16142 1.40774 0
M  V30 1942 C 181.379 3.37812 -1.28706 0
M  V30 1943 O 181.1 3.46627 -2.67921 0
M  V30 1944 C 182.601 4.29952 -1.07964 0
M  V30 1945 H 179.821 0.596094 -0.308079 0
M  V30 1946 H 182.365 1.43205 -1.45988 0
M  V30 1947 H 180.52 3.805 -0.727912 0
M  V30 1948 H 180.934 4.39579 -2.8613 0
M  V30 1949 H 182.408 5.33159 -1.42986 0
M  V30 1950 H 182.885 4.39196 -0.0176577 0
M  V30 1951 H 183.491 3.93036 -1.62489 0
M  V30 1952 N 181.806 0.884767 1.30421 0
M  V30 1953 C 182.769 0.356277 2.26414 0
M  V30 1954 C 183.769 -0.501124 1.52792 0
M  V30 1955 O 184.959 -0.30831 1.7145 0
M  V30 1956 C 182.091 -0.492316 3.37326 0
M  V30 1957 H 183.284 1.20389 2.74675 0
M  V30 1958 H 180.837 0.661607 1.41607 0
M  V30 1959 H 181.572 -1.36052 2.94381 0
M  V30 1960 H 181.357 0.121832 3.91911 0
M  V30 1961 H 182.847 -0.853871 4.08777 0
M  V30 1962 N 183.284 -1.43765 0.645699 0
M  V30 1963 C 184.216 -2.29027 -0.0890605 0
M  V30 1964 C 185.229 -1.42093 -0.794563 0
M  V30 1965 O 186.418 -1.66104 -0.653575 0
M  V30 1966 C 183.518 -3.18831 -1.14891 0
M  V30 1967 C 182.691 -4.34261 -0.523043 0
M  V30 1968 C 181.75 -5.04994 -1.47878 0
M  V30 1969 O 180.776 -5.6052 -0.990277 0
M  V30 1970 N 181.978 -5.07795 -2.81291 0
M  V30 1971 H 184.743 -2.92727 0.64272 0
M  V30 1972 H 182.304 -1.54373 0.487924 0
M  V30 1973 H 184.296 -3.63015 -1.78892 0
M  V30 1974 H 182.866 -2.56782 -1.78275 0
M  V30 1975 H 182.086 -3.93088 0.295896 0
M  V30 1976 H 183.374 -5.08728 -0.0858147 0
M  V30 1977 H 182.772 -4.64042 -3.23546 0
M  V30 1978 H 181.329 -5.55721 -3.40614 0
M  V30 1979 N 184.763 -0.387143 -1.52771 0
M  V30 1980 C 185.673 0.456442 -2.30117 0
M  V30 1981 C 186.689 1.07342 -1.36944 0
M  V30 1982 O 187.865 1.07971 -1.70013 0
M  V30 1983 C 184.93 1.56957 -3.09136 0
M  V30 1984 C 183.991 0.977916 -4.18014 0
M  V30 1985 C 183.224 2.038 -4.93256 0
M  V30 1986 O 183.447 3.25271 -4.68567 0
M  V30 1987 O 182.381 1.6565 -5.78657 0
M  V30 1988 H 186.207 -0.17359 -3.03203 0
M  V30 1989 H 183.792 -0.150919 -1.48636 0
M  V30 1990 H 185.674 2.21628 -3.58412 0
M  V30 1991 H 184.349 2.18461 -2.38865 0
M  V30 1992 H 183.256 0.294525 -3.72939 0
M  V30 1993 H 184.589 0.407128 -4.90513 0
M  V30 1994 N 186.241 1.57166 -0.116904 0
M  V30 1995 C 187.189 2.16457 0.851418 0
M  V30 1996 C 188.183 1.11323 1.27686 0
M  V30 1997 O 189.389 1.2963 1.24884 0
M  V30 1998 H 185.764 0.69271 0.292672 0
M  V30 1999 H 187.735 2.96605 0.32685 0
M  V30 2000 C 186.484 2.77689 2.09246 0
M  V30 2001 H 185.807 3.58285 1.77402 0
M  V30 2002 H 187.247 3.22716 2.7501 0
M  V30 2003 C 185.706 1.74667 2.88085 0
M  V30 2004 O 186.236 1.19877 3.83396 0
M  V30 2005 N 184.442 1.44656 2.52038 0
M  V30 2006 H 183.989 1.89402 1.74599 0
M  V30 2007 H 183.947 0.759675 3.05084 0
M  V30 2008 N 187.719 -0.156864 1.56817 0
M  V30 2009 C 188.996 -0.899244 1.73704 0
M  V30 2010 C 189.376 -1.99771 0.682254 0
M  V30 2011 O 188.724 -2.26515 -0.300522 0
M  V30 2012 C 188.934 -1.45075 3.17418 0
M  V30 2013 C 190.282 -1.91802 3.7881 0
M  V30 2014 O 191.306 -1.54838 3.20786 0
M  V30 2015 O 190.165 -2.5994 4.80722 0
M  V30 2016 H 187.259 -0.424267 0.709878 0
M  V30 2017 H 189.805 -0.143561 1.69092 0
M  V30 2018 H 188.577 -0.660846 3.85679 0
M  V30 2019 H 188.2 -2.27021 3.26416 0
M  V30 2020 N 189.197 -1.51736 -0.425897 0
M  V30 2021 C 190.13 -1.68574 -1.53812 0
M  V30 2022 C 191.108 -0.53328 -1.53606 0
M  V30 2023 O 192.292 -0.758555 -1.72564 0
M  V30 2024 C 189.419 -1.70977 -2.92377 0
M  V30 2025 C 188.465 -2.92324 -3.10563 0
M  V30 2026 S 189.298 -4.52952 -2.85648 0
M  V30 2027 C 190.454 -4.58117 -4.26474 0
M  V30 2028 H 190.687 -2.62647 -1.39298 0
M  V30 2029 H 188.22 -1.41564 -0.616361 0
M  V30 2030 H 190.178 -1.73047 -3.72243 0
M  V30 2031 H 188.839 -0.78061 -3.04245 0
M  V30 2032 H 188.032 -2.90439 -4.11899 0
M  V30 2033 H 187.634 -2.88055 -2.38538 0
M  V30 2034 H 189.926 -4.34462 -5.19855 0
M  V30 2035 H 190.869 -5.59983 -4.33388 0
M  V30 2036 H 191.277 -3.8732 -4.10662 0
M  V30 2037 N 190.675 0.682077 -1.42076 0
M  V30 2038 C 191.585 1.82535 -1.47371 0
M  V30 2039 C 192.601 1.7017 -0.363079 0
M  V30 2040 O 193.777 1.91848 -0.612875 0
M  V30 2041 C 190.842 3.18624 -1.36674 0
M  V30 2042 C 189.903 3.42999 -2.58167 0
M  V30 2043 C 189.136 4.72595 -2.4797 0
M  V30 2044 O 189.359 5.50006 -1.5116 0
M  V30 2045 O 188.293 4.98054 -3.37974 0
M  V30 2046 H 192.119 1.81023 -2.43853 0
M  V30 2047 H 189.704 0.836887 -1.2376 0
M  V30 2048 H 191.586 3.99847 -1.33043 0
M  V30 2049 H 190.261 3.20789 -0.433138 0
M  V30 2050 H 189.168 2.61653 -2.67373 0
M  V30 2051 H 190.501 3.45659 -3.50401 0
M  V30 2052 N 192.153 1.28127 0.917671 0
M  V30 2053 C 193.399 1.15223 1.66888 0
M  V30 2054 C 193.732 -0.299293 1.9188 0
M  V30 2055 O 193.007 -1.21805 1.51637 0
M  V30 2056 C 193.29 1.94706 3.02922 0
M  V30 2057 C 193.143 3.47898 2.85109 0
M  V30 2058 C 194.462 1.75939 4.03402 0
M  V30 2059 H 191.581 0.419946 0.605652 0
M  V30 2060 H 194.223 1.57398 1.06423 0
M  V30 2061 H 192.373 1.58864 3.54534 0
M  V30 2062 H 194.045 3.93624 2.40537 0
M  V30 2063 H 192.288 3.7373 2.20246 0
M  V30 2064 H 192.959 3.98765 3.81694 0
M  V30 2065 H 195.435 2.07209 3.60837 0
M  V30 2066 H 194.311 2.33931 4.96556 0
M  V30 2067 H 194.572 0.709877 4.36364 0
M  V30 2068 N 193.631 -1.12557 1.10312 0
M  V30 2069 C 194.541 -2.21841 0.763142 0
M  V30 2070 C 195.557 -1.72354 -0.238801 0
M  V30 2071 O 196.733 -2.01249 -0.0778746 0
M  V30 2072 C 193.798 -3.46131 0.198632 0
M  V30 2073 C 192.859 -4.10464 1.25769 0
M  V30 2074 C 192.092 -5.28821 0.72002 0
M  V30 2075 O 192.315 -5.6859 -0.453993 0
M  V30 2076 O 191.249 -5.83437 1.47935 0
M  V30 2077 H 195.075 -2.53312 1.67532 0
M  V30 2078 H 192.66 -1.20867 0.878157 0
M  V30 2079 H 194.542 -4.2125 -0.112401 0
M  V30 2080 H 193.217 -3.16338 -0.686419 0
M  V30 2081 H 192.124 -3.3713 1.62156 0
M  V30 2082 H 193.457 -4.44408 2.11571 0
M  V30 2083 N 195.109 -0.891671 -1.2995 0
M  V30 2084 C 196.039 -0.379797 -2.30391 0
M  V30 2085 C 197.02 0.540919 -1.6127 0
M  V30 2086 O 198.205 0.453352 -1.88834 0
M  V30 2087 C 195.335 0.400654 -3.44981 0
M  V30 2088 C 194.289 -0.428905 -4.25846 0
M  V30 2089 C 193.615 0.478557 -5.32554 0
M  V30 2090 C 194.915 -1.67458 -4.94727 0
M  V30 2091 H 196.609 -1.21914 -2.73454 0
M  V30 2092 H 194.155 -0.587675 -1.31462 0
M  V30 2093 H 196.108 0.769434 -4.14316 0
M  V30 2094 H 194.832 1.27371 -3.0074 0
M  V30 2095 H 193.491 -0.779911 -3.58208 0
M  V30 2096 H 193.139 1.34951 -4.84559 0
M  V30 2097 H 192.839 -0.0727433 -5.87555 0
M  V30 2098 H 194.363 0.843705 -6.04743 0
M  V30 2099 H 195.777 -1.376 -5.56542 0
M  V30 2100 H 194.174 -2.16659 -5.59624 0
M  V30 2101 H 195.244 -2.41518 -4.20473 0
M  V30 2102 N 196.587 1.43421 -0.653314 0
M  V30 2103 C 197.998 1.85065 -0.246537 0
M  V30 2104 C 198.349 1.54688 1.2069 0
M  V30 2105 O 197.474 0.995896 1.92122 0
M  V30 2106 C 198.069 3.35922 -0.440666 0
M  V30 2107 C 196.628 3.76297 -0.0882064 0
M  V30 2108 C 195.775 2.67147 -0.743484 0
M  V30 2109 H 198.726 1.33572 -0.856979 0
M  V30 2110 H 198.747 3.79204 0.313798 0
M  V30 2111 H 198.259 3.58 -1.49858 0
M  V30 2112 H 196.36 3.5983 0.96711 0
M  V30 2113 H 196.473 4.76338 -0.513738 0
M  V30 2114 H 194.837 2.54086 -0.176712 0
M  V30 2115 H 195.62 2.92053 -1.80443 0
M  V30 2116 N 198.065 0.39524 1.52563 0
M  V30 2117 C 199.028 -0.425001 2.25225 0
M  V30 2118 C 200.028 -0.985266 1.27079 0
M  V30 2119 O 201.218 -0.866332 1.5113 0
M  V30 2120 C 198.35 -1.59686 3.01186 0
M  V30 2121 H 199.543 0.211233 2.99155 0
M  V30 2122 H 197.096 0.147472 1.55603 0
M  V30 2123 H 197.831 -2.27035 2.31572 0
M  V30 2124 H 197.616 -1.20176 3.73229 0
M  V30 2125 H 199.106 -2.17743 3.5634 0
M  V30 2126 N 199.544 -1.57102 0.125237 0
M  V30 2127 C 200.507 -2.14471 -0.80838 0
M  V30 2128 C 201.507 -1.0811 -1.19033 0
M  V30 2129 O 202.697 -1.33856 -1.11482 0
M  V30 2130 C 199.829 -2.69005 -2.09402 0
M  V30 2131 H 201.022 -2.98297 -0.309696 0
M  V30 2132 H 198.575 -1.55807 -0.124051 0
M  V30 2133 H 199.31 -1.88785 -2.63687 0
M  V30 2134 H 199.095 -3.46799 -1.82957 0
M  V30 2135 H 200.585 -3.13278 -2.76128 0
M  V30 2136 N 201.022 0.148545 -1.56898 0
M  V30 2137 C 201.985 1.16736 -1.97244 0
M  V30 2138 C 202.985 1.35947 -0.858777 0
M  V30 2139 O 204.175 1.32966 -1.12542 0
M  V30 2140 C 201.307 2.52798 -2.28705 0
M  V30 2141 H 202.5 0.821279 -2.88435 0
M  V30 2142 H 200.053 0.391831 -1.51309 0
M  V30 2143 H 200.788 2.92381 -1.403 0
M  V30 2144 H 200.573 2.40216 -3.09901 0
M  V30 2145 H 202.063 3.26179 -2.60762 0
M  V30 2146 N 202.5 1.5196 0.417844 0
M  V30 2147 C 203.448 1.75278 1.52907 0
M  V30 2148 C 204.442 0.619611 1.57662 0
M  V30 2149 O 205.648 0.801457 1.61173 0
M  V30 2150 H 202.023 0.554141 0.508362 0
M  V30 2151 H 203.994 2.68389 1.30422 0
M  V30 2152 C 202.743 1.91262 2.90369 0
M  V30 2153 H 202.066 2.77872 2.8745 0
M  V30 2154 H 203.506 2.11581 3.67436 0
M  V30 2155 C 201.965 0.677431 3.30019 0
M  V30 2156 O 202.495 -0.158799 4.01386 0
M  V30 2157 N 200.701 0.515851 2.85985 0
M  V30 2158 H 200.248 1.19744 2.28077 0
M  V30 2159 H 200.206 -0.309315 3.12875 0
M  V30 2160 N 203.978 -0.674533 1.42435 0
M  V30 2161 C 205.203 -1.46784 1.46524 0
M  V30 2162 C 205.628 -1.87938 0.078066 0
M  V30 2163 O 204.986 -1.56014 -0.92354 0
M  V30 2164 C 205.034 -2.69307 2.39805 0
M  V30 2165 O 204.138 -3.67587 1.86959 0
M  V30 2166 H 203.479 -0.440959 0.496439 0
M  V30 2167 H 206.009 -0.827326 1.87127 0
M  V30 2168 H 206.019 -3.17374 2.56393 0
M  V30 2169 H 204.694 -2.38692 3.40586 0
M  V30 2170 H 203.271 -3.2662 1.79927 0
M  V30 2171 N 205.456 -1.28612 -0.910864 0
M  V30 2172 C 206.872 -1.06381 -1.18976 0
M  V30 2173 C 207.072 0.191998 -2.00583 0
M  V30 2174 O 206.128 0.892869 -2.36187 0
M  V30 2175 C 207.441 -2.31295 -1.92154 0
M  V30 2176 C 208.989 -2.36503 -2.05025 0
M  V30 2177 C 209.464 -3.61191 -2.81612 0
M  V30 2178 N 210.955 -3.61847 -2.89172 0
M  V30 2179 C 211.69 -4.55004 -3.4894 0
M  V30 2180 N 211.186 -5.58482 -4.09963 0
M  V30 2181 N 212.979 -4.42594 -3.46506 0
M  V30 2182 H 205.13 -2.09221 -0.366094 0
M  V30 2183 H 207.393 -0.921003 -0.224629 0
M  V30 2184 H 207.099 -3.228 -1.39618 0
M  V30 2185 H 206.973 -2.37934 -2.9269 0
M  V30 2186 H 209.36 -1.45494 -2.5674 0
M  V30 2187 H 209.441 -2.33857 -1.03657 0
M  V30 2188 H 209.085 -4.52545 -2.30576 0
M  V30 2189 H 209.015 -3.61092 -3.83302 0
M  V30 2190 H 211.506 -2.87022 -2.45819 0
M  V30 2191 H 211.819 -6.25704 -4.53557 0
M  V30 2192 H 210.164 -5.62305 -4.08459 0
M  V30 2193 H 213.355 -3.60953 -2.98045 0
M  V30 2194 H 213.528 -5.15381 -3.92793 0
M  V30 2195 N 206.934 1.1197 -1.10907 0
M  V30 2196 C 207.881 2.17846 -0.762345 0
M  V30 2197 C 208.851 1.63995 0.263599 0
M  V30 2198 O 210.036 1.90273 0.141773 0
M  V30 2199 C 207.176 3.44487 -0.205651 0
M  V30 2200 C 206.289 4.12369 -1.28748 0
M  V30 2201 C 205.424 5.26674 -0.691919 0
M  V30 2202 C 204.463 5.86431 -1.75399 0
M  V30 2203 N 203.6 6.92142 -1.17833 0
M  V30 2204 H 208.44 2.46851 -1.6694 0
M  V30 2205 H 205.977 1.21188 -0.833776 0
M  V30 2206 H 207.935 4.16981 0.135037 0
M  V30 2207 H 206.565 3.15884 0.664613 0
M  V30 2208 H 205.617 3.38003 -1.74522 0
M  V30 2209 H 206.929 4.52844 -2.09125 0
M  V30 2210 H 206.083 6.05953 -0.300963 0
M  V30 2211 H 204.822 4.8749 0.143232 0
M  V30 2212 H 203.827 5.05835 -2.15432 0
M  V30 2213 H 205.052 6.27685 -2.59208 0
M  V30 2214 H 202.998 6.54985 -0.364725 0
M  V30 2215 H 202.915 7.31242 -1.91887 0
M  V30 2216 H 204.183 7.75237 -0.81408 0
M  V30 2217 N 208.412 0.89855 1.29475 0
M  V30 2218 C 209.344 0.332726 2.26772 0
M  V30 2219 C 210.357 -0.520323 1.54261 0
M  V30 2220 O 211.546 -0.337668 1.75277 0
M  V30 2221 C 208.646 -0.544334 3.345 0
M  V30 2222 C 207.819 0.282728 4.36485 0
M  V30 2223 C 206.878 -0.526982 5.23555 0
M  V30 2224 O 205.904 0.0551165 5.69173 0
M  V30 2225 N 207.106 -1.83331 5.5079 0
M  V30 2226 H 209.871 1.16897 2.75962 0
M  V30 2227 H 207.432 0.762919 1.42798 0
M  V30 2228 H 209.424 -1.09239 3.89678 0
M  V30 2229 H 207.994 -1.28127 2.85136 0
M  V30 2230 H 207.214 1.01221 3.80983 0
M  V30 2231 H 208.502 0.84918 5.01664 0
M  V30 2232 H 207.9 -2.32898 5.15534 0
M  V30 2233 H 206.457 -2.32852 6.08788 0
M  V30 2234 N 209.89 -1.43072 0.660911 0
M  V30 2235 C 211.137 -2.01721 0.177445 0
M  V30 2236 C 211.465 -1.5218 -1.21126 0
M  V30 2237 O 210.72 -0.708659 -1.82419 0
M  V30 2238 C 211.019 -3.57103 0.145563 0
M  V30 2239 C 210.685 -4.26021 1.47705 0
M  V30 2240 C 209.347 -4.44563 1.84165 0
M  V30 2241 C 211.699 -4.64983 2.35458 0
M  V30 2242 C 209.027 -4.99334 3.0803 0
M  V30 2243 C 211.379 -5.21127 3.58622 0
M  V30 2244 C 210.043 -5.37884 3.95268 0
M  V30 2245 H 209.313 -0.73815 0.0649317 0
M  V30 2246 H 211.96 -1.71446 0.853144 0
M  V30 2247 H 210.265 -3.86965 -0.61361 0
M  V30 2248 H 211.962 -4.00248 -0.2455 0
M  V30 2249 H 208.552 -4.11939 1.18339 0
M  V30 2250 H 212.736 -4.50343 2.08579 0
M  V30 2251 H 207.992 -5.10493 3.36462 0
M  V30 2252 H 212.166 -5.50262 4.26831 0
M  V30 2253 H 209.793 -5.80089 4.91325 0
M  V30 2254 N 211.368 -0.403325 -1.52352 0
M  V30 2255 C 212.593 0.176499 -2.06648 0
M  V30 2256 C 213.018 1.38577 -1.27193 0
M  V30 2257 O 212.376 1.7879 -0.300637 0
M  V30 2258 C 212.424 0.511061 -3.5696 0
M  V30 2259 O 211.528 1.60294 -3.79973 0
M  V30 2260 H 210.869 0.0167337 -0.663789 0
M  V30 2261 H 213.399 -0.574848 -1.96359 0
M  V30 2262 H 213.409 0.771362 -4.00642 0
M  V30 2263 H 212.084 -0.37296 -4.14224 0
M  V30 2264 H 210.661 1.33526 -3.48174 0
M  V30 2265 N 212.846 1.57033 -0.133567 0
M  V30 2266 C 214.092 1.95976 0.521649 0
M  V30 2267 C 214.425 1.01779 1.65393 0
M  V30 2268 O 213.7 0.0576581 1.94415 0
M  V30 2269 C 213.983 3.44738 1.04057 0
M  V30 2270 C 213.836 4.49711 -0.0892897 0
M  V30 2271 C 215.155 3.95682 1.92675 0
M  V30 2272 H 212.274 0.712579 0.188149 0
M  V30 2273 H 214.916 1.88813 -0.212076 0
M  V30 2274 H 213.066 3.50973 1.66583 0
M  V30 2275 H 214.738 4.55565 -0.725152 0
M  V30 2276 H 212.981 4.27261 -0.750378 0
M  V30 2277 H 213.652 5.51099 0.315284 0
M  V30 2278 H 216.128 3.91841 1.39998 0
M  V30 2279 H 215.004 5.00262 2.25897 0
M  V30 2280 H 215.265 3.37239 2.85872 0
M  V30 2281 N 214.325 -0.140222 1.56975 0
M  V30 2282 C 215.736 -0.699596 1.73097 0
M  V30 2283 C 216.087 -1.8134 0.749022 0
M  V30 2284 O 215.212 -2.16241 -0.0828503 0
M  V30 2285 C 215.807 -1.27582 3.1386 0
M  V30 2286 C 214.366 -1.78169 3.31561 0
M  V30 2287 C 213.513 -0.672855 2.69013 0
M  V30 2288 H 216.464 0.0855115 1.58469 0
M  V30 2289 H 216.485 -2.14561 3.14235 0
M  V30 2290 H 215.997 -0.464955 3.85305 0
M  V30 2291 H 214.098 -2.61801 2.65124 0
M  V30 2292 H 214.211 -1.90574 4.39566 0
M  V30 2293 H 212.575 -1.10118 2.29665 0
M  V30 2294 H 213.358 0.126679 3.43066 0
M  V30 2295 N 215.803 -1.52179 -0.40978 0
M  V30 2296 C 217.214 -1.58377 -0.988615 0
M  V30 2297 C 217.565 -0.423879 -1.91566 0
M  V30 2298 O 216.69 0.455844 -2.11544 0
M  V30 2299 C 217.285 -2.87044 -1.79976 0
M  V30 2300 C 215.844 -2.95722 -2.32863 0
M  V30 2301 C 214.991 -2.53309 -1.12828 0
M  V30 2302 H 217.942 -1.57558 -0.190039 0
M  V30 2303 H 217.963 -2.7236 -2.65707 0
M  V30 2304 H 217.475 -3.71444 -1.12478 0
M  V30 2305 H 215.576 -2.15814 -3.03735 0
M  V30 2306 H 215.689 -3.99951 -2.63773 0
M  V30 2307 H 214.053 -2.07142 -1.48204 0
M  V30 2308 H 214.836 -3.40082 -0.46897 0
M  V30 2309 N 217.281 0.66697 -1.42791 0
M  V30 2310 C 218.244 1.76211 -1.46568 0
M  V30 2311 C 219.244 1.56896 -0.352196 0
M  V30 2312 O 220.434 1.63044 -0.613364 0
M  V30 2313 C 217.566 3.14935 -1.30494 0
M  V30 2314 H 218.759 1.74247 -2.44086 0
M  V30 2315 H 216.312 0.877342 -1.29354 0
M  V30 2316 H 217.047 3.2252 -0.339301 0
M  V30 2317 H 216.832 3.30359 -2.11199 0
M  V30 2318 H 218.322 3.94821 -1.36038 0
M  V30 2319 N 218.759 1.29093 0.90403 0
M  V30 2320 C 220.17 1.15186 1.46932 0
M  V30 2321 C 220.521 -0.254587 1.94541 0
M  V30 2322 O 219.646 -1.14972 1.83332 0
M  V30 2323 C 220.241 2.08492 2.67051 0
M  V30 2324 C 218.8 1.98621 3.19729 0
M  V30 2325 C 217.947 1.9967 1.92425 0
M  V30 2326 H 220.898 1.41641 0.715789 0
M  V30 2327 H 220.919 1.65461 3.42641 0
M  V30 2328 H 220.431 3.10847 2.3237 0
M  V30 2329 H 218.532 0.993389 3.59114 0
M  V30 2330 H 218.645 2.86068 3.8432 0
M  V30 2331 H 217.009 1.44208 2.09943 0
M  V30 2332 H 217.792 3.03721 1.60026 0
M  V30 2333 N 220.237 -1.11381 1.11499 0
M  V30 2334 C 221.465 -1.86934 0.88675 0
M  V30 2335 C 221.88 -1.80195 -0.563476 0
M  V30 2336 O 221.237 -1.18367 -1.38908 0
M  V30 2337 C 221.288 -3.35722 1.34064 0
M  V30 2338 O 221.009 -3.4232 2.73401 0
M  V30 2339 C 222.51 -4.2818 1.14791 0
M  V30 2340 H 219.73 -0.591117 0.317523 0
M  V30 2341 H 222.274 -1.40865 1.48248 0
M  V30 2342 H 220.429 -3.79294 0.788355 0
M  V30 2343 H 220.843 -4.34971 2.93087 0
M  V30 2344 H 222.317 -5.30817 1.5145 0
M  V30 2345 H 222.794 -4.39113 0.0875279 0
M  V30 2346 H 223.4 -3.90402 1.68721 0
M  V30 2347 N 221.715 -0.905404 -1.28997 0
M  V30 2348 C 223.131 -0.60233 -1.47798 0
M  V30 2349 C 223.331 0.854645 -1.82478 0
M  V30 2350 O 222.387 1.63439 -1.92468 0
M  V30 2351 C 223.7 -1.53306 -2.58685 0
M  V30 2352 C 225.248 -1.53887 -2.72558 0
M  V30 2353 C 225.723 -2.45602 -3.86579 0
M  V30 2354 N 227.214 -2.43681 -3.93921 0
M  V30 2355 C 227.949 -3.11347 -4.81509 0
M  V30 2356 N 227.445 -3.88313 -5.73746 0
M  V30 2357 N 229.238 -3.00476 -4.75048 0
M  V30 2358 H 221.389 -1.84765 -1.04764 0
M  V30 2359 H 223.652 -0.792025 -0.520961 0
M  V30 2360 H 223.358 -2.57141 -2.39941 0
M  V30 2361 H 223.232 -1.25787 -3.55609 0
M  V30 2362 H 225.619 -0.507941 -2.90696 0
M  V30 2363 H 225.7 -1.85447 -1.76191 0
M  V30 2364 H 225.344 -3.48792 -3.69197 0
M  V30 2365 H 225.274 -2.11349 -4.82327 0
M  V30 2366 H 227.765 -1.87767 -3.27951 0
M  V30 2367 H 228.078 -4.36985 -6.37389 0
M  V30 2368 H 226.423 -3.92419 -5.73614 0
M  V30 2369 H 229.614 -2.39858 -4.01977 0
M  V30 2370 H 229.787 -3.53485 -5.43095 0
M  V30 2371 N 223.193 1.4272 -0.668489 0
M  V30 2372 C 224.604 1.84793 -0.266151 0
M  V30 2373 C 224.955 1.55959 1.19043 0
M  V30 2374 O 224.08 1.01622 1.91055 0
M  V30 2375 C 224.675 3.35436 -0.476271 0
M  V30 2376 C 223.234 3.76182 -0.128113 0
M  V30 2377 C 222.381 2.66344 -0.771777 0
M  V30 2378 H 225.332 1.32656 -0.871098 0
M  V30 2379 H 225.353 3.79515 0.273561 0
M  V30 2380 H 224.865 3.5639 -1.53647 0
M  V30 2381 H 222.966 3.60836 0.928891 0
M  V30 2382 H 223.079 4.75766 -0.564231 0
M  V30 2383 H 221.443 2.53885 -0.203652 0
M  V30 2384 H 222.226 2.90123 -1.83531 0
M  V30 2385 N 224.671 0.411399 1.52136 0
M  V30 2386 C 225.896 -0.165538 2.06738 0
M  V30 2387 C 226.321 -1.379 1.27926 0
M  V30 2388 O 225.679 -1.78628 0.310114 0
M  V30 2389 C 225.727 -0.492124 3.57226 0
M  V30 2390 O 224.831 -1.58276 3.80818 0
M  V30 2391 H 224.172 -0.0132132 0.663869 0
M  V30 2392 H 226.702 0.585253 1.96051 0
M  V30 2393 H 226.712 -0.750104 4.01045 0
M  V30 2394 H 225.387 0.394922 4.14021 0
M  V30 2395 H 223.964 -1.31677 3.48877 0
M  V30 2396 N 226.149 -1.5696 0.141893 0
M  V30 2397 C 227.389 -1.9785 -0.513304 0
M  V30 2398 C 227.753 -1.02467 -1.62371 0
M  V30 2399 O 228.954 -1.32382 -2.33941 0
M  V30 2400 C 227.225 -3.42797 -1.01118 0
M  V30 2401 S 228.784 -4.05709 -1.67169 0
M  V30 2402 H 225.602 -0.691318 -0.166135 0
M  V30 2403 H 228.204 -1.94114 0.232398 0
M  V30 2404 H 226.908 -4.0995 -0.192179 0
M  V30 2405 H 226.439 -3.50235 -1.79162 0
M  V30 2406 H 228.454 -3.98342 -2.95868 0
M  V30 2407 N 227.627 0.131896 -1.57047 0
M  V30 2408 C 229.038 0.690407 -1.73465 0
M  V30 2409 C 229.389 1.8094 -0.758629 0
M  V30 2410 O 228.514 2.16282 0.0713813 0
M  V30 2411 C 229.109 1.25916 -3.14532 0
M  V30 2412 C 227.668 1.76409 -3.32501 0
M  V30 2413 C 226.815 0.658579 -2.69366 0
M  V30 2414 H 229.766 -0.0939144 -1.58422 0
M  V30 2415 H 229.787 2.12892 -3.15369 0
M  V30 2416 H 229.299 0.444515 -3.85546 0
M  V30 2417 H 227.4 2.60391 -2.66509 0
M  V30 2418 H 227.513 1.88241 -4.4057 0
M  V30 2419 H 225.877 1.08899 -2.30246 0
M  V30 2420 H 226.66 -0.14487 -3.42994 0
M  V30 2421 N 229.106 1.52395 0.401703 0
M  V30 2422 C 230.069 1.75636 1.47257 0
M  V30 2423 C 231.069 0.62628 1.48103 0
M  V30 2424 O 232.259 0.894227 1.49497 0
M  V30 2425 C 229.391 1.84553 2.86624 0
M  V30 2426 H 230.584 2.71241 1.27938 0
M  V30 2427 H 228.137 1.42923 0.632662 0
M  V30 2428 H 228.872 0.908882 3.11303 0
M  V30 2429 H 228.657 2.66715 2.87412 0
M  V30 2430 H 230.147 2.04251 3.64241 0
M  V30 2431 N 230.584 -0.659388 1.43143 0
M  V30 2432 C 231.83 -1.42145 1.44647 0
M  V30 2433 C 232.163 -1.9408 0.0681907 0
M  V30 2434 O 231.438 -1.71899 -0.910007 0
M  V30 2435 C 231.721 -2.60735 2.48373 0
M  V30 2436 C 231.574 -2.14332 3.95451 0
M  V30 2437 C 232.893 -3.62951 2.48906 0
M  V30 2438 H 230.012 -0.51552 0.526696 0
M  V30 2439 H 232.654 -0.748069 1.74654 0
M  V30 2440 H 230.804 -3.18184 2.22916 0
M  V30 2441 H 232.476 -1.61932 4.31944 0
M  V30 2442 H 230.719 -1.4576 4.08578 0
M  V30 2443 H 231.39 -2.99583 4.63631 0
M  V30 2444 H 233.866 -3.1525 2.71582 0
M  V30 2445 H 232.742 -4.43487 3.23435 0
M  V30 2446 H 233.003 -4.15126 1.52061 0
M  V30 2447 N 232.062 -1.29571 -0.897171 0
M  V30 2448 C 233.025 -1.14913 -1.98312 0
M  V30 2449 C 234.025 -0.0838629 -1.60581 0
M  V30 2450 O 235.215 -0.331006 -1.71026 0
M  V30 2451 C 232.347 -0.757835 -3.3237 0
M  V30 2452 H 233.54 -2.11377 -2.12743 0
M  V30 2453 H 231.093 -1.12793 -1.08201 0
M  V30 2454 H 231.828 0.206837 -3.2364 0
M  V30 2455 H 231.613 -1.52755 -3.61121 0
M  V30 2456 H 233.103 -0.678408 -4.12053 0
M  V30 2457 N 233.54 1.10788 -1.12088 0
M  V30 2458 C 234.45 2.20599 -0.798338 0
M  V30 2459 C 235.466 1.72712 0.21135 0
M  V30 2460 O 236.642 2.01348 0.0458477 0
M  V30 2461 C 233.707 3.45771 -0.253674 0
M  V30 2462 C 232.768 4.08411 -1.32283 0
M  V30 2463 C 232.001 5.27608 -0.80406 0
M  V30 2464 O 232.224 5.69241 0.363478 0
M  V30 2465 O 231.158 5.8101 -1.57198 0
M  V30 2466 H 234.984 2.50614 -1.7154 0
M  V30 2467 H 232.569 1.19454 -0.897275 0
M  V30 2468 H 234.451 4.21376 0.0453691 0
M  V30 2469 H 233.126 3.1739 0.636005 0
M  V30 2470 H 232.033 3.34507 -1.67499 0
M  V30 2471 H 233.366 4.40986 -2.18614 0
M  V30 2472 N 235.018 0.912232 1.28515 0
M  V30 2473 C 236.267 0.540504 1.94323 0
M  V30 2474 C 236.58 -0.920044 1.72611 0
M  V30 2475 O 237.786 -1.39986 2.32629 0
M  V30 2476 C 236.242 0.915803 3.48053 0
M  V30 2477 C 235.85 2.39598 3.78546 0
M  V30 2478 C 237.594 0.614588 4.20027 0
M  V30 2479 C 235.501 2.71148 5.25578 0
M  V30 2480 H 234.431 0.198418 0.727424 0
M  V30 2481 H 237.082 1.11094 1.46049 0
M  V30 2482 H 235.464 0.274168 3.9505 0
M  V30 2483 H 236.638 3.08422 3.42364 0
M  V30 2484 H 234.953 2.66749 3.1974 0
M  V30 2485 H 237.55 0.827002 5.28266 0
M  V30 2486 H 237.893 -0.447531 4.13887 0
M  V30 2487 H 238.426 1.21462 3.78803 0
M  V30 2488 H 235.165 3.76207 5.36794 0
M  V30 2489 H 234.685 2.0696 5.62963 0
M  V30 2490 H 236.364 2.58072 5.93302 0
M  V30 2491 N 236.496 -1.42363 0.676048 0
M  V30 2492 C 237.907 -1.84649 0.275948 0
M  V30 2493 C 238.258 -1.56588 -1.18214 0
M  V30 2494 O 237.383 -1.02634 -1.90513 0
M  V30 2495 C 237.978 -3.35178 0.494053 0
M  V30 2496 C 236.537 -3.76109 0.148061 0
M  V30 2497 C 235.684 -2.65931 0.785891 0
M  V30 2498 H 238.635 -1.32192 0.878121 0
M  V30 2499 H 238.656 -3.79655 -0.25343 0
M  V30 2500 H 238.168 -3.55571 1.55535 0
M  V30 2501 H 236.269 -3.61323 -0.909742 0
M  V30 2502 H 236.382 -4.7546 0.589454 0
M  V30 2503 H 234.746 -2.53773 0.217113 0
M  V30 2504 H 235.529 -2.89146 1.85067 0
M  V30 2505 N 237.974 -0.419461 -1.51915 0
M  V30 2506 C 238.904 0.391813 -2.30189 0
M  V30 2507 C 239.885 1.03699 -1.34836 0
M  V30 2508 O 241.07 1.04403 -1.63748 0
M  V30 2509 C 238.2 1.50312 -3.13087 0
M  V30 2510 C 237.154 0.9824 -4.16573 0
M  V30 2511 C 236.48 2.18809 -4.8788 0
M  V30 2512 C 237.78 0.0292356 -5.22292 0
M  V30 2513 H 239.474 -0.26135 -2.98257 0
M  V30 2514 H 237.02 -0.127134 -1.43438 0
M  V30 2515 H 238.973 2.07773 -3.66617 0
M  V30 2516 H 237.697 2.18431 -2.42807 0
M  V30 2517 H 236.356 0.430119 -3.64068 0
M  V30 2518 H 236.004 2.85507 -4.14119 0
M  V30 2519 H 235.704 1.84615 -5.57845 0
M  V30 2520 H 237.228 2.76858 -5.44226 0
M  V30 2521 H 238.642 0.512976 -5.71 0
M  V30 2522 H 237.039 -0.2244 -5.9968 0
M  V30 2523 H 238.109 -0.912931 -4.76228 0
M  V30 2524 N 239.452 1.56882 -0.150215 0
M  V30 2525 C 240.868 1.58263 0.20617 0
M  V30 2526 C 241.068 1.16464 1.64434 0
M  V30 2527 O 240.124 0.866422 2.3717 0
M  V30 2528 C 241.437 3.00649 -0.0555025 0
M  V30 2529 C 242.985 3.12999 0.00795388 0
M  V30 2530 C 243.46 4.5744 -0.226429 0
M  V30 2531 N 244.951 4.62875 -0.173469 0
M  V30 2532 C 245.686 5.72454 -0.329288 0
M  V30 2533 N 245.182 6.90669 -0.543005 0
M  V30 2534 N 246.975 5.61467 -0.266666 0
M  V30 2535 H 239.126 1.82345 -1.08922 0
M  V30 2536 H 241.389 0.844149 -0.431413 0
M  V30 2537 H 241.095 3.3563 -1.05096 0
M  V30 2538 H 240.969 3.71337 0.66246 0
M  V30 2539 H 243.356 2.77857 0.993966 0
M  V30 2540 H 243.437 2.4479 -0.742388 0
M  V30 2541 H 243.081 4.93287 -1.20956 0
M  V30 2542 H 243.011 5.2378 0.544274 0
M  V30 2543 H 245.502 3.77898 -0.0130709 0
M  V30 2544 H 245.815 7.70045 -0.651922 0
M  V30 2545 H 244.16 6.92581 -0.579366 0
M  V30 2546 H 247.351 4.67992 -0.100441 0
M  V30 2547 H 247.524 6.46816 -0.391535 0
M  V30 2548 N 240.93 -0.123565 1.57115 0
M  V30 2549 C 241.863 -1.18202 1.95201 0
M  V30 2550 C 242.841 -1.40349 0.821031 0
M  V30 2551 O 244.025 -1.54578 1.07879 0
M  V30 2552 C 241.152 -2.53671 2.24429 0
M  V30 2553 C 240.198 -2.4798 3.46999 0
M  V30 2554 S 241.031 -1.92389 4.99747 0
M  V30 2555 C 242.187 -3.2954 5.32123 0
M  V30 2556 H 242.42 -0.857212 2.84674 0
M  V30 2557 H 239.953 -0.33014 1.50829 0
M  V30 2558 H 241.911 -3.3162 2.41947 0
M  V30 2559 H 240.572 -2.83332 1.35579 0
M  V30 2560 H 239.765 -3.47758 3.64801 0
M  V30 2561 H 239.367 -1.7815 3.28844 0
M  V30 2562 H 241.659 -4.25736 5.27025 0
M  V30 2563 H 242.602 -3.16569 6.33395 0
M  V30 2564 H 243.01 -3.27758 4.59603 0
M  V30 2565 N 242.408 -1.52605 -0.393616 0
M  V30 2566 C 243.654 -1.67672 -1.14079 0
M  V30 2567 C 243.987 -0.413121 -1.89755 0
M  V30 2568 O 243.262 0.588952 -1.85369 0
M  V30 2569 C 243.545 -2.9088 -2.12276 0
M  V30 2570 C 243.398 -4.27329 -1.40394 0
M  V30 2571 C 244.717 -3.09628 -3.12759 0
M  V30 2572 H 241.836 -0.610168 -0.413356 0
M  V30 2573 H 244.478 -1.85193 -0.424696 0
M  V30 2574 H 242.628 -2.76073 -2.73342 0
M  V30 2575 H 244.3 -4.53894 -0.82327 0
M  V30 2576 H 242.543 -4.2802 -0.705801 0
M  V30 2577 H 243.214 -5.09615 -2.12123 0
M  V30 2578 H 245.69 -3.23436 -2.61779 0
M  V30 2579 H 244.566 -3.97322 -3.78717 0
M  V30 2580 H 244.827 -2.23637 -3.81365 0
M  V30 2581 N 243.887 0.651787 -1.4349 0
M  V30 2582 C 245.112 1.44434 -1.48841 0
M  V30 2583 C 245.537 1.8779 -0.107955 0
M  V30 2584 O 244.895 1.57464 0.898602 0
M  V30 2585 C 244.943 2.65458 -2.44059 0
M  V30 2586 O 244.047 3.64566 -1.92784 0
M  V30 2587 H 243.388 0.433005 -0.503391 0
M  V30 2588 H 245.918 0.797451 -1.88419 0
M  V30 2589 H 245.928 3.13255 -2.6141 0
M  V30 2590 H 244.603 2.33244 -3.4434 0
M  V30 2591 H 243.18 3.23716 -1.851 0
M  V30 2592 N 245.365 1.30045 0.890287 0
M  V30 2593 C 246.275 1.17885 2.02831 0
M  V30 2594 C 247.291 0.0999609 1.73713 0
M  V30 2595 O 248.467 0.313867 1.98939 0
M  V30 2596 C 245.532 0.866079 3.35708 0
M  V30 2597 C 244.593 2.02979 3.78283 0
M  V30 2598 C 243.826 1.73184 5.0482 0
M  V30 2599 O 244.049 0.657237 5.66601 0
M  V30 2600 O 242.983 2.58267 5.43674 0
M  V30 2601 H 246.809 2.13474 2.16015 0
M  V30 2602 H 244.394 1.09587 1.01543 0
M  V30 2603 H 246.276 0.706623 4.15433 0
M  V30 2604 H 244.951 -0.0599443 3.23644 0
M  V30 2605 H 243.858 2.24454 2.99285 0
M  V30 2606 H 245.191 2.93734 3.94944 0
M  V30 2607 N 246.843 -1.10192 1.12674 0
M  V30 2608 C 247.753 -2.20172 0.810026 0
M  V30 2609 C 248.769 -1.72821 -0.202188 0
M  V30 2610 O 249.945 -2.01369 -0.0351691 0
M  V30 2611 C 247.01 -3.45631 0.272007 0
M  V30 2612 C 246.071 -4.07704 1.34447 0
M  V30 2613 C 245.304 -5.27175 0.832029 0
M  V30 2614 O 245.527 -5.69425 -0.333284 0
M  V30 2615 O 244.461 -5.80168 1.60277 0
M  V30 2616 H 248.287 -2.49701 1.72867 0
M  V30 2617 H 245.872 -1.18977 0.903597 0
M  V30 2618 H 247.754 -4.21394 -0.0230219 0
M  V30 2619 H 246.429 -3.17723 -0.619164 0
M  V30 2620 H 245.336 -3.33614 1.6927 0
M  V30 2621 H 246.669 -4.3982 2.2095 0
M  V30 2622 N 248.321 -0.919034 -1.28029 0
M  V30 2623 C 249.254 -0.355887 -2.25408 0
M  V30 2624 C 250.232 0.542874 -1.5327 0
M  V30 2625 O 251.416 0.485338 -1.82145 0
M  V30 2626 C 248.543 0.490759 -3.35126 0
M  V30 2627 C 247.589 -0.343358 -4.25116 0
M  V30 2628 S 248.422 -1.75344 -5.05979 0
M  V30 2629 C 249.578 -0.914244 -6.19187 0
M  V30 2630 H 249.811 -1.18123 -2.72826 0
M  V30 2631 H 247.344 -0.720636 -1.36551 0
M  V30 2632 H 249.302 0.973404 -3.98792 0
M  V30 2633 H 247.963 1.29054 -2.86363 0
M  V30 2634 H 247.156 0.304266 -5.03081 0
M  V30 2635 H 246.758 -0.759851 -3.662 0
M  V30 2636 H 249.05 -0.146282 -6.77342 0
M  V30 2637 H 249.993 -1.66661 -6.88208 0
M  V30 2638 H 250.401 -0.460082 -5.62622 0
M  V30 2639 N 249.799 1.42003 -0.683588 0
M  V30 2640 C 250.709 2.34597 -0.0109075 0
M  V30 2641 C 251.725 1.55576 0.779245 0
M  V30 2642 O 252.901 1.88107 0.719555 0
M  V30 2643 C 249.966 3.34199 0.922588 0
M  V30 2644 C 249.027 4.29115 0.125984 0
M  V30 2645 C 248.26 5.23959 1.01502 0
M  V30 2646 O 248.483 5.23952 2.25456 0
M  V30 2647 O 247.417 6.00053 0.47111 0
M  V30 2648 H 251.243 2.93675 -0.773853 0
M  V30 2649 H 248.828 1.42654 -0.443861 0
M  V30 2650 H 250.71 3.95365 1.45823 0
M  V30 2651 H 249.385 2.77582 1.66523 0
M  V30 2652 H 248.292 3.71335 -0.453969 0
M  V30 2653 H 249.625 4.88798 -0.577736 0
M  V30 2654 N 251.277 0.427512 1.51691 0
M  V30 2655 C 252.187 -0.39527 2.31246 0
M  V30 2656 C 253.203 -1.03674 1.39742 0
M  V30 2657 O 254.379 -1.03425 1.72816 0
M  V30 2658 C 251.444 -1.48706 3.13189 0
M  V30 2659 C 250.505 -0.866743 4.20459 0
M  V30 2660 C 249.738 -1.90651 4.98486 0
M  V30 2661 O 249.961 -3.12733 4.77026 0
M  V30 2662 O 248.895 -1.5025 5.82845 0
M  V30 2663 H 252.721 0.253918 3.02637 0
M  V30 2664 H 250.306 0.190274 1.48183 0
M  V30 2665 H 252.188 -2.12047 3.64162 0
M  V30 2666 H 250.863 -2.12051 2.44573 0
M  V30 2667 H 249.77 -0.195544 3.73589 0
M  V30 2668 H 251.103 -0.276934 4.9142 0
M  V30 2669 N 252.755 -1.56801 0.158532 0
M  V30 2670 C 253.687 -2.14488 -0.807923 0
M  V30 2671 C 254.7 -1.09721 -1.20271 0
M  V30 2672 O 255.889 -1.36956 -1.14478 0
M  V30 2673 C 252.989 -2.66217 -2.09718 0
M  V30 2674 C 252.162 -3.95507 -1.86796 0
M  V30 2675 C 251.221 -4.3243 -2.99818 0
M  V30 2676 O 250.247 -5.00543 -2.71008 0
M  V30 2677 N 251.449 -3.92947 -4.27285 0
M  V30 2678 H 254.214 -2.98042 -0.314816 0
M  V30 2679 H 251.775 -1.61881 -0.0246692 0
M  V30 2680 H 253.767 -2.87924 -2.84398 0
M  V30 2681 H 252.337 -1.87324 -2.50257 0
M  V30 2682 H 251.557 -3.82309 -0.96089 0
M  V30 2683 H 252.845 -4.79972 -1.68833 0
M  V30 2684 H 252.243 -3.38087 -4.53557 0
M  V30 2685 H 250.8 -4.19681 -4.9871 0
M  V30 2686 N 254.233 0.115231 -1.57178 0
M  V30 2687 C 255.479 0.82357 -1.85325 0
M  V30 2688 C 255.812 1.79349 -0.744814 0
M  V30 2689 O 255.087 1.92899 0.249024 0
M  V30 2690 C 255.37 1.57014 -3.24066 0
M  V30 2691 C 255.223 0.619565 -4.45513 0
M  V30 2692 C 256.542 2.52545 -3.60429 0
M  V30 2693 H 253.661 0.297948 -0.674089 0
M  V30 2694 H 256.303 0.0877138 -1.89797 0
M  V30 2695 H 254.453 2.19742 -3.20383 0
M  V30 2696 H 256.125 0.000837639 -4.613 0
M  V30 2697 H 254.368 -0.0686174 -4.33746 0
M  V30 2698 H 255.039 1.17866 -5.3927 0
M  V30 2699 H 257.515 1.9992 -3.64926 0
M  V30 2700 H 256.391 3.01811 -4.58477 0
M  V30 2701 H 256.652 3.35383 -2.88047 0
M  V30 2702 N 255.711 1.52812 0.385517 0
M  V30 2703 C 256.661 1.74219 1.47078 0
M  V30 2704 C 257.645 0.59632 1.49442 0
M  V30 2705 O 258.837 0.85428 1.5502 0
M  V30 2706 C 255.966 1.9176 2.84751 0
M  V30 2707 C 255.052 3.12289 2.86943 0
M  V30 2708 N 255.443 4.34575 2.58802 0
M  V30 2709 C 253.741 3.12605 3.1811 0
M  V30 2710 C 254.442 5.162 2.68166 0
M  V30 2711 N 253.418 4.51964 3.02043 0
M  V30 2712 H 257.22 2.6639 1.24152 0
M  V30 2713 H 254.734 1.51166 0.593504 0
M  V30 2714 H 256.731 2.05218 3.62893 0
M  V30 2715 H 255.391 1.00805 3.08656 0
M  V30 2716 H 256.402 4.62649 2.32759 0
M  V30 2717 H 253.079 2.31472 3.47458 0
M  V30 2718 H 254.469 6.23689 2.49923 0
M  V30 2719 N 257.189 -0.644168 1.43834 0
M  V30 2720 C 258.414 -1.43642 1.49605 0
M  V30 2721 C 258.839 -1.8773 0.117913 0
M  V30 2722 O 258.197 -1.57938 -0.890239 0
M  V30 2723 C 258.245 -2.6416 2.45463 0
M  V30 2724 O 257.349 -3.63538 1.94714 0
M  V30 2725 H 256.69 -0.430329 0.50568 0
M  V30 2726 H 259.22 -0.787448 1.8884 0
M  V30 2727 H 259.23 -3.11864 2.63068 0
M  V30 2728 H 257.905 -2.31414 3.45572 0
M  V30 2729 H 256.482 -3.2273 1.86814 0
M  V30 2730 N 258.668 -1.30515 -0.883378 0
M  V30 2731 C 259.917 -1.18795 -1.63005 0
M  V30 2732 C 260.23 0.255923 -1.93919 0
M  V30 2733 O 261.436 0.494654 -2.66956 0
M  V30 2734 C 259.892 -2.07878 -2.93794 0
M  V30 2735 C 259.5 -3.57184 -2.70414 0
M  V30 2736 C 261.244 -2.04924 -3.71761 0
M  V30 2737 C 259.151 -4.38317 -3.97029 0
M  V30 2738 H 258.081 -0.441031 -0.611562 0
M  V30 2739 H 260.732 -1.55275 -0.977854 0
M  V30 2740 H 259.114 -1.64283 -3.60315 0
M  V30 2741 H 260.288 -4.08937 -2.12384 0
M  V30 2742 H 258.603 -3.61976 -2.0582 0
M  V30 2743 H 261.2 -2.62792 -4.65665 0
M  V30 2744 H 261.543 -1.0331 -4.03277 0
M  V30 2745 H 262.076 -2.46649 -3.12104 0
M  V30 2746 H 258.815 -5.40632 -3.70671 0
M  V30 2747 H 258.335 -3.91326 -4.54559 0
M  V30 2748 H 260.014 -4.49834 -4.65036 0
M  V30 2749 N 260.146 1.09593 -1.13257 0
M  V30 2750 C 261.562 1.33775 -0.870423 0
M  V30 2751 C 261.762 1.95327 0.494926 0
M  V30 2752 O 260.818 2.19853 1.2418 0
M  V30 2753 C 262.131 2.25106 -1.99369 0
M  V30 2754 C 263.679 2.3862 -2.02558 0
M  V30 2755 C 264.154 3.33285 -3.14142 0
M  V30 2756 N 265.645 3.40857 -3.13641 0
M  V30 2757 C 266.38 4.14101 -3.96621 0
M  V30 2758 N 265.876 4.90157 -4.8961 0
M  V30 2759 N 267.669 4.09808 -3.84726 0
M  V30 2760 H 259.82 0.680136 -2.01216 0
M  V30 2761 H 262.083 0.362133 -0.876107 0
M  V30 2762 H 261.789 1.87103 -2.97801 0
M  V30 2763 H 261.663 3.25481 -1.90635 0
M  V30 2764 H 264.05 2.75887 -1.0474 0
M  V30 2765 H 264.131 1.38028 -2.15364 0
M  V30 2766 H 263.775 2.96741 -4.12198 0
M  V30 2767 H 263.705 4.33776 -2.98574 0
M  V30 2768 H 266.196 2.86624 -2.46282 0
M  V30 2769 H 266.509 5.4347 -5.49418 0
M  V30 2770 H 264.854 4.89251 -4.93617 0
M  V30 2771 H 268.045 3.4949 -3.11408 0
M  V30 2772 H 268.218 4.66629 -4.49623 0
M  V30 2773 N 261.624 0.925811 1.2754 0
M  V30 2774 C 262.872 0.564138 1.94067 0
M  V30 2775 C 263.193 -0.897188 1.73134 0
M  V30 2776 O 262.463 -1.63573 1.07799 0
M  V30 2777 H 261.043 0.205645 0.718136 0
M  V30 2778 H 263.705 1.1778 1.55287 0
M  V30 2779 H 262.801 0.76881 3.02483 0
M  V30 2780 N 263.102 -1.41638 0.69111 0
M  V30 2781 C 264.327 -2.06148 0.227583 0
M  V30 2782 C 264.752 -1.51652 -1.11281 0
M  V30 2783 O 264.11 -0.64164 -1.69566 0
M  V30 2784 C 264.158 -3.60095 0.190858 0
M  V30 2785 O 263.262 -4.03845 -0.835664 0
M  V30 2786 H 262.603 -0.654434 0.112306 0
M  V30 2787 H 265.133 -1.81484 0.944714 0
M  V30 2788 H 265.143 -4.07995 0.020207 0
M  V30 2789 H 263.818 -3.99129 1.16915 0
M  V30 2790 H 262.395 -3.67458 -0.63473 0
M  V30 2791 N 264.58 -0.43555 -1.51462 0
M  V30 2792 C 265.805 0.132627 -2.06976 0
M  V30 2793 C 266.23 1.35848 -1.30104 0
M  V30 2794 O 265.588 1.78112 -0.338493 0
M  V30 2795 C 265.636 0.43523 -3.57964 0
M  V30 2796 O 264.74 1.52198 -3.83288 0
M  V30 2797 H 264.081 0.00265 -0.663995 0
M  V30 2798 H 266.611 -0.616369 -1.95095 0
M  V30 2799 H 266.621 0.686206 -4.02188 0
M  V30 2800 H 265.296 -0.460739 -4.1334 0
M  V30 2801 H 263.873 1.2611 -3.50928 0
M  V30 2802 N 266.058 1.56714 -0.166846 0
M  V30 2803 C 267.283 2.01557 0.488833 0
M  V30 2804 C 267.708 1.0463 1.56314 0
M  V30 2805 O 267.066 0.0251304 1.81283 0
M  V30 2806 C 267.114 3.4503 1.04818 0
M  V30 2807 O 266.218 3.51163 2.16236 0
M  V30 2808 H 265.559 0.653516 0.117526 0
M  V30 2809 H 268.089 2.02818 -0.269421 0
M  V30 2810 H 268.099 3.84243 1.37191 0
M  V30 2811 H 266.774 4.15077 0.261572 0
M  V30 2812 H 265.351 3.23807 1.84942 0
M  V30 2813 N 267.536 -0.106894 1.57237 0
M  V30 2814 C 268.499 -1.11466 2.0027 0
M  V30 2815 C 269.499 -1.33623 0.894519 0
M  V30 2816 O 270.689 -1.29935 1.16028 0
M  V30 2817 C 267.821 -2.46646 2.35327 0
M  V30 2818 H 269.014 -0.744516 2.90512 0
M  V30 2819 H 266.567 -0.351576 1.52295 0
M  V30 2820 H 267.302 -2.88558 1.48003 0
M  V30 2821 H 267.087 -2.31915 3.16161 0
M  V30 2822 H 268.577 -3.19151 2.69318 0
M  V30 2823 N 269.014 -1.53014 -0.377408 0
M  V30 2824 C 269.962 -1.7927 -1.48206 0
M  V30 2825 C 270.956 -0.661195 -1.55963 0
M  V30 2826 O 272.162 -0.843908 -1.58991 0
M  V30 2827 H 268.537 -0.567425 -0.493491 0
M  V30 2828 H 270.508 -2.71753 -1.2326 0
M  V30 2829 C 269.257 -1.98894 -2.85196 0
M  V30 2830 H 268.58 -2.85395 -2.79981 0
M  V30 2831 H 270.02 -2.21249 -3.61698 0
M  V30 2832 C 268.479 -0.764691 -3.28107 0
M  V30 2833 O 269.009 0.0523226 -4.01666 0
M  V30 2834 N 267.215 -0.591493 -2.84517 0
M  V30 2835 H 266.762 -1.25749 -2.24822 0
M  V30 2836 H 266.72 0.226253 -3.13585 0
M  V30 2837 N 270.492 0.636531 -1.44174 0
M  V30 2838 C 271.903 1.21806 -1.41493 0
M  V30 2839 C 272.254 1.95785 -0.1275 0
M  V30 2840 O 271.379 2.02147 0.772376 0
M  V30 2841 C 271.974 2.21551 -2.56321 0
M  V30 2842 C 270.533 2.75143 -2.56853 0
M  V30 2843 C 269.68 1.50052 -2.33195 0
M  V30 2844 H 272.631 0.427531 -1.52833 0
M  V30 2845 H 272.652 3.0405 -2.28765 0
M  V30 2846 H 272.164 1.67679 -3.50008 0
M  V30 2847 H 270.265 3.33033 -1.67093 0
M  V30 2848 H 270.378 3.2155 -3.55165 0
M  V30 2849 H 268.742 1.77993 -1.82183 0
M  V30 2850 H 269.525 0.980903 -3.28988 0
M  V30 2851 N 271.97 1.30982 0.876444 0
M  V30 2852 C 273.216 1.20474 1.63138 0
M  V30 2853 C 273.549 -0.238096 1.92735 0
M  V30 2854 O 272.824 -1.1692 1.55435 0
M  V30 2855 C 273.107 2.04244 2.96574 0
M  V30 2856 C 272.96 3.56793 2.73896 0
M  V30 2857 C 274.279 1.88684 3.97601 0
M  V30 2858 H 271.398 0.439001 0.591985 0
M  V30 2859 H 274.04 1.60704 1.01361 0
M  V30 2860 H 272.19 1.70063 3.493 0
M  V30 2861 H 273.862 4.01077 2.27892 0
M  V30 2862 H 272.105 3.80548 2.08245 0
M  V30 2863 H 272.776 4.10706 3.68815 0
M  V30 2864 H 275.252 2.18584 3.54062 0
M  V30 2865 H 274.128 2.4961 4.88862 0
M  V30 2866 H 274.389 0.848343 4.33884 0
M  V30 2867 N 273.449 -1.08991 1.13837 0
M  V30 2868 C 274.397 -2.17841 0.815347 0
M  V30 2869 C 275.391 -1.68164 -0.204233 0
M  V30 2870 O 276.597 -1.79897 -0.0609304 0
M  V30 2871 H 272.972 -0.710654 0.245915 0
M  V30 2872 H 274.943 -2.42315 1.74143 0
M  V30 2873 C 273.692 -3.46381 0.302614 0
M  V30 2874 H 273.015 -3.84979 1.0785 0
M  V30 2875 H 274.455 -4.23844 0.115074 0
M  V30 2876 C 272.914 -3.22556 -0.972591 0
M  V30 2877 O 273.444 -3.45599 -2.04754 0
M  V30 2878 N 271.65 -2.76134 -0.905455 0
M  V30 2879 H 271.197 -2.57582 -0.0305421 0
M  V30 2880 H 271.155 -2.60571 -1.75926 0
M  V30 2881 N 274.927 -0.932562 -1.27047 0
M  V30 2882 C 276.152 -0.591474 -1.98787 0
M  V30 2883 C 276.577 0.824601 -1.69062 0
M  V30 2884 O 275.935 1.5541 -0.933677 0
M  V30 2885 C 275.983 -0.829808 -3.50922 0
M  V30 2886 O 275.087 0.102266 -4.12273 0
M  V30 2887 H 274.428 -0.227185 -0.623926 0
M  V30 2888 H 276.958 -1.25314 -1.61733 0
M  V30 2889 H 276.968 -0.747292 -4.01098 0
M  V30 2890 H 275.643 -1.86201 -3.7189 0
M  V30 2891 H 274.22 -0.0305761 -3.72887 0
M  V30 2892 N 276.405 1.4127 -0.698611 0
M  V30 2893 C 277.651 2.01478 -0.231207 0
M  V30 2894 C 277.984 1.55215 1.16713 0
M  V30 2895 O 277.259 0.764672 1.78838 0
M  V30 2896 C 277.542 3.58912 -0.292281 0
M  V30 2897 C 277.395 4.15293 -1.72778 0
M  V30 2898 C 278.714 4.38736 0.346194 0
M  V30 2899 H 275.833 0.732025 -0.0854878 0
M  V30 2900 H 278.475 1.67977 -0.887906 0
M  V30 2901 H 276.625 3.87582 0.26686 0
M  V30 2902 H 278.297 3.97486 -2.341 0
M  V30 2903 H 276.54 3.7022 -2.26096 0
M  V30 2904 H 277.211 5.24452 -1.72202 0
M  V30 2905 H 279.687 4.15897 -0.130035 0
M  V30 2906 H 278.563 5.48221 0.272932 0
M  V30 2907 H 278.824 4.18425 1.42734 0
M  V30 2908 N 277.883 0.443576 1.51229 0
M  V30 2909 C 279.299 0.0962001 1.5931 0
M  V30 2910 C 279.499 -1.39501 1.45402 0
M  V30 2911 O 278.555 -2.16557 1.29843 0
M  V30 2912 C 279.868 0.621875 2.94199 0
M  V30 2913 C 281.416 0.582865 3.07525 0
M  V30 2914 C 281.891 1.08562 4.44948 0
M  V30 2915 N 283.382 1.04387 4.51284 0
M  V30 2916 C 284.117 1.40368 5.55954 0
M  V30 2917 N 283.613 1.83664 6.68011 0
M  V30 2918 N 285.406 1.32145 5.46346 0
M  V30 2919 H 277.557 1.41376 1.58514 0
M  V30 2920 H 279.82 0.582965 0.747567 0
M  V30 2921 H 279.526 1.66546 3.09767 0
M  V30 2922 H 279.4 0.0502125 3.77167 0
M  V30 2923 H 281.787 -0.451749 2.91622 0
M  V30 2924 H 281.868 1.191 2.26382 0
M  V30 2925 H 281.512 2.11873 4.61598 0
M  V30 2926 H 281.442 0.453956 5.2464 0
M  V30 2927 H 283.933 0.725986 3.70861 0
M  V30 2928 H 284.246 2.0934 7.43906 0
M  V30 2929 H 282.591 1.87596 6.69203 0
M  V30 2930 H 285.782 0.981808 4.57688 0
M  V30 2931 H 285.955 1.60514 6.27805 0
M  V30 2932 N 279.361 -1.56624 0.175154 0
M  V30 2933 C 280.777 -1.58571 -0.180966 0
M  V30 2934 C 280.977 -1.19065 -1.6256 0
M  V30 2935 O 280.033 -0.904044 -2.35761 0
M  V30 2936 C 281.346 -3.00522 0.103326 0
M  V30 2937 C 282.894 -3.12972 0.0418426 0
M  V30 2938 C 283.369 -4.57022 0.299175 0
M  V30 2939 N 284.86 -4.62541 0.247086 0
M  V30 2940 C 285.595 -5.71857 0.420318 0
M  V30 2941 N 285.091 -6.89717 0.652816 0
M  V30 2942 N 286.884 -5.60972 0.355957 0
M  V30 2943 H 279.035 -1.80589 1.11809 0
M  V30 2944 H 281.298 -0.837178 0.444788 0
M  V30 2945 H 281.004 -3.33916 1.10422 0
M  V30 2946 H 280.878 -3.72344 -0.603299 0
M  V30 2947 H 283.265 -2.79403 -0.949636 0
M  V30 2948 H 283.346 -2.43578 0.781238 0
M  V30 2949 H 282.99 -4.913 1.28788 0
M  V30 2950 H 282.92 -5.24579 -0.460876 0
M  V30 2951 H 285.411 -3.77829 0.0731895 0
M  V30 2952 H 285.724 -7.68911 0.774347 0
M  V30 2953 H 284.069 -6.91572 0.689476 0
M  V30 2954 H 287.26 -4.67773 0.174882 0
M  V30 2955 H 287.433 -6.46111 0.494388 0
M  V30 2956 N 280.839 0.0985539 -1.57292 0
M  V30 2957 C 281.786 1.11981 -2.01814 0
M  V30 2958 C 282.756 1.39999 -0.89384 0
M  V30 2959 O 283.941 1.5152 -1.15958 0
M  V30 2960 C 281.081 2.43577 -2.44467 0
M  V30 2961 C 280.194 2.2232 -3.70402 0
M  V30 2962 C 279.329 3.4729 -4.01949 0
M  V30 2963 C 278.368 3.2128 -5.21005 0
M  V30 2964 N 277.505 4.38507 -5.48321 0
M  V30 2965 H 282.345 0.733149 -2.88841 0
M  V30 2966 H 279.882 0.350482 -1.42864 0
M  V30 2967 H 281.84 3.20373 -2.6724 0
M  V30 2968 H 280.47 2.80097 -1.60455 0
M  V30 2969 H 279.522 1.36343 -3.55126 0
M  V30 2970 H 280.834 1.99089 -4.57345 0
M  V30 2971 H 279.988 4.32495 -4.25479 0
M  V30 2972 H 278.727 3.73572 -3.13521 0
M  V30 2973 H 277.732 2.34468 -4.97298 0
M  V30 2974 H 278.957 2.96348 -6.11028 0
M  V30 2975 H 276.903 4.64871 -4.62851 0
M  V30 2976 H 276.82 4.18455 -6.29628 0
M  V30 2977 H 278.088 5.24787 -5.76385 0
M  V30 2978 N 282.317 1.53212 0.369288 0
M  V30 2979 C 283.542 1.73423 1.1375 0
M  V30 2980 C 283.967 0.460404 1.82378 0
M  V30 2981 O 283.325 -0.585298 1.71592 0
M  V30 2982 C 283.373 2.89769 2.1463 0
M  V30 2983 O 282.477 2.58119 3.21634 0
M  V30 2984 H 281.818 0.576061 0.330227 0
M  V30 2985 H 284.348 2.00083 0.427547 0
M  V30 2986 H 284.358 3.15829 2.58294 0
M  V30 2987 H 283.033 3.8217 1.64071 0
M  V30 2988 H 281.61 2.42864 2.82969 0
M  V30 2989 N 283.795 -0.628877 1.44509 0
M  V30 2990 C 285.035 -1.39993 1.48934 0
M  V30 2991 C 285.399 -1.91627 0.119604 0
M  V30 2992 O 286.6 -2.68772 0.0385283 0
M  V30 2993 C 284.871 -2.53241 2.52198 0
M  V30 2994 S 286.43 -3.41383 2.75687 0
M  V30 2995 H 283.248 -0.477558 0.526744 0
M  V30 2996 H 285.85 -0.727804 1.81448 0
M  V30 2997 H 284.554 -2.13622 3.50419 0
M  V30 2998 H 284.085 -3.25278 2.21264 0
M  V30 2999 H 286.1 -4.50752 2.07453 0
M  V30 3000 N 285.273 -1.31445 -0.869486 0
M  V30 3001 C 286.203 -1.21727 -1.99261 0
M  V30 3002 C 287.184 -0.104359 -1.6978 0
M  V30 3003 O 288.369 -0.289038 -1.92037 0
M  V30 3004 C 285.499 -0.924317 -3.34774 0
M  V30 3005 C 284.453 -1.99685 -3.78563 0
M  V30 3006 C 283.779 -1.55658 -5.11541 0
M  V30 3007 C 285.079 -3.41003 -3.95619 0
M  V30 3008 H 286.773 -2.1569 -2.07649 0
M  V30 3009 H 284.319 -1.03839 -0.997675 0
M  V30 3010 H 286.272 -0.842934 -4.12883 0
M  V30 3011 H 284.996 0.0509793 -3.2656 0
M  V30 3012 H 283.655 -2.06813 -3.02694 0
M  V30 3013 H 283.303 -0.569132 -4.9977 0
M  V30 3014 H 283.003 -2.27409 -5.41811 0
M  V30 3015 H 284.527 -1.48928 -5.92159 0
M  V30 3016 H 285.941 -3.36547 -4.64122 0
M  V30 3017 H 284.338 -4.10975 -4.37286 0
M  V30 3018 H 285.408 -3.81754 -2.98985 0
M  V30 3019 N 286.751 1.08385 -1.14413 0
M  V30 3020 C 287.997 1.81044 -0.913834 0
M  V30 3021 C 288.33 1.86004 0.558209 0
M  V30 3022 O 287.605 1.33606 1.4135 0
M  V30 3023 C 287.888 3.26648 -1.51569 0
M  V30 3024 C 287.741 3.29895 -3.0576 0
M  V30 3025 C 289.06 4.23629 -1.19273 0
M  V30 3026 H 286.179 0.65727 -0.333414 0
M  V30 3027 H 288.821 1.26896 -1.41412 0
M  V30 3028 H 286.971 3.72889 -1.09023 0
M  V30 3029 H 288.643 2.91977 -3.57137 0
M  V30 3030 H 286.886 2.69163 -3.40197 0
M  V30 3031 H 287.557 4.32516 -3.42977 0
M  V30 3032 H 290.033 3.85727 -1.56057 0
M  V30 3033 H 288.909 5.23822 -1.64017 0
M  V30 3034 H 289.17 4.41968 -0.108068 0
M  V30 3035 N 288.23 0.939286 1.26551 0
M  V30 3036 C 289.177 0.446088 2.26448 0
M  V30 3037 C 290.147 -0.493234 1.58608 0
M  V30 3038 O 291.332 -0.409857 1.86346 0
M  V30 3039 C 288.472 -0.284375 3.43926 0
M  V30 3040 C 287.585 0.690399 4.26448 0
M  V30 3041 C 286.72 -0.0610712 5.31165 0
M  V30 3042 C 285.759 0.905649 6.05363 0
M  V30 3043 N 284.896 0.186055 7.01853 0
M  V30 3044 H 289.736 1.30291 2.68008 0
M  V30 3045 H 287.273 0.65371 1.31776 0
M  V30 3046 H 289.231 -0.724313 4.10864 0
M  V30 3047 H 287.861 -1.10535 3.03285 0
M  V30 3048 H 286.913 1.24885 3.59316 0
M  V30 3049 H 288.225 1.42873 4.779 0
M  V30 3050 H 287.379 -0.56038 6.04106 0
M  V30 3051 H 286.118 -0.832297 4.80546 0
M  V30 3052 H 285.123 1.4161 5.3125 0
M  V30 3053 H 286.348 1.67685 6.58072 0
M  V30 3054 H 284.294 -0.566714 6.53548 0
M  V30 3055 H 284.211 0.863752 7.51049 0
M  V30 3056 H 285.479 -0.292221 7.78952 0
M  V30 3057 N 289.708 -1.40897 0.706093 0
M  V30 3058 C 290.618 -2.3455 0.0482286 0
M  V30 3059 C 291.634 -1.56796 -0.754396 0
M  V30 3060 O 292.81 -1.89228 -0.689538 0
M  V30 3061 C 289.875 -3.35625 -0.869303 0
M  V30 3062 C 288.936 -4.29261 -0.0576994 0
M  V30 3063 C 288.169 -5.25508 -0.931531 0
M  V30 3064 O 288.392 -5.27472 -2.17092 0
M  V30 3065 O 287.326 -6.00727 -0.375587 0
M  V30 3066 H 291.152 -2.92407 0.820476 0
M  V30 3067 H 288.737 -1.4193 0.4665 0
M  V30 3068 H 290.619 -3.97635 -1.39514 0
M  V30 3069 H 289.294 -2.80196 -1.62086 0
M  V30 3070 H 288.201 -3.70566 0.512988 0
M  V30 3071 H 289.534 -4.87817 0.655426 0
M  V30 3072 N 291.186 -0.45159 -1.50991 0
M  V30 3073 C 292.432 0.110237 -2.025 0
M  V30 3074 C 292.765 1.41109 -1.33424 0
M  V30 3075 O 292.04 1.89135 -0.453659 0
M  V30 3076 C 292.323 0.314271 -3.58726 0
M  V30 3077 C 292.176 -1.00623 -4.38401 0
M  V30 3078 C 293.495 1.07767 -4.26702 0
M  V30 3079 H 290.614 0.0385897 -0.735989 0
M  V30 3080 H 293.256 -0.593374 -1.80497 0
M  V30 3081 H 291.406 0.913601 -3.77605 0
M  V30 3082 H 293.078 -1.64064 -4.31139 0
M  V30 3083 H 291.321 -1.6075 -4.02917 0
M  V30 3084 H 291.992 -0.817341 -5.45915 0
M  V30 3085 H 294.468 0.56986 -4.12179 0
M  V30 3086 H 293.344 1.18921 -5.35863 0
M  V30 3087 H 293.605 2.10939 -3.88532 0
M  V30 3088 N 292.664 1.56529 -0.183458 0
M  V30 3089 C 293.574 2.22144 0.754272 0
M  V30 3090 C 294.59 1.21684 1.24374 0
M  V30 3091 O 295.766 1.54385 1.29333 0
M  V30 3092 C 292.831 2.85884 1.96141 0
M  V30 3093 C 291.892 4.01579 1.51765 0
M  V30 3094 C 291.125 4.6227 2.66725 0
M  V30 3095 O 291.348 4.21865 3.83909 0
M  V30 3096 O 290.282 5.51936 2.40104 0
M  V30 3097 H 294.108 3.02861 0.225527 0
M  V30 3098 H 291.693 1.49331 0.0453032 0
M  V30 3099 H 293.575 3.26253 2.66715 0
M  V30 3100 H 292.25 2.08154 2.47899 0
M  V30 3101 H 291.157 3.65856 0.781049 0
M  V30 3102 H 292.49 4.80938 1.04686 0
M  V30 3103 N 294.142 -0.090211 1.57342 0
M  V30 3104 C 295.089 -1.10909 2.02405 0
M  V30 3105 C 296.059 -1.39523 0.901252 0
M  V30 3106 O 297.244 -1.50903 1.1676 0
M  V30 3107 C 294.384 -2.42277 2.45755 0
M  V30 3108 C 293.497 -2.20352 3.71576 0
M  V30 3109 C 292.632 -3.45154 4.03785 0
M  V30 3110 C 291.671 -3.18512 5.22701 0
M  V30 3111 N 290.808 -4.35593 5.50639 0
M  V30 3112 H 295.648 -0.71782 2.89225 0
M  V30 3113 H 293.185 -0.342901 1.43048 0
M  V30 3114 H 295.143 -3.18951 2.68935 0
M  V30 3115 H 293.773 -2.79242 1.61938 0
M  V30 3116 H 292.825 -1.34458 3.55844 0
M  V30 3117 H 294.137 -1.96661 4.58395 0
M  V30 3118 H 293.291 -4.30233 4.27767 0
M  V30 3119 H 292.03 -3.71904 3.15498 0
M  V30 3120 H 291.035 -2.31827 4.98534 0
M  V30 3121 H 292.26 -2.93103 6.12591 0
M  V30 3122 H 290.206 -4.6241 4.6531 0
M  V30 3123 H 290.123 -4.1511 6.31838 0
M  V30 3124 H 291.391 -5.21723 5.7916 0
M  V30 3125 N 295.62 -1.53406 -0.361157 0
M  V30 3126 C 296.553 -1.74946 -1.46524 0
M  V30 3127 C 297.531 -0.59795 -1.51206 0
M  V30 3128 O 298.715 -0.831062 -1.69191 0
M  V30 3129 C 295.842 -1.83224 -2.84863 0
M  V30 3130 C 294.888 -3.05233 -2.97885 0
M  V30 3131 S 295.721 -4.6466 -2.66179 0
M  V30 3132 C 296.877 -4.75793 -4.06659 0
M  V30 3133 H 297.11 -2.68319 -1.28033 0
M  V30 3134 H 294.643 -1.44051 -0.555764 0
M  V30 3135 H 296.601 -1.88679 -3.64569 0
M  V30 3136 H 295.262 -0.908948 -3.00661 0
M  V30 3137 H 294.455 -3.07648 -3.9921 0
M  V30 3138 H 294.057 -2.97913 -2.26106 0
M  V30 3139 H 296.349 -4.5612 -5.0096 0
M  V30 3140 H 297.292 -5.7786 -4.09247 0
M  V30 3141 H 297.7 -4.04389 -3.93865 0
M  V30 3142 N 297.098 0.621204 -1.44841 0
M  V30 3143 C 298.045 1.73267 -1.5247 0
M  V30 3144 C 299.015 1.6189 -0.371611 0
M  V30 3145 O 300.2 1.81668 -0.58321 0
M  V30 3146 C 297.34 3.11545 -1.48438 0
M  V30 3147 C 296.453 3.33827 -2.74196 0
M  V30 3148 C 295.588 4.62133 -2.61929 0
M  V30 3149 C 294.627 4.77627 -3.82804 0
M  V30 3150 N 293.764 5.97219 -3.69153 0
M  V30 3151 H 298.604 1.66082 -2.47428 0
M  V30 3152 H 296.141 0.810026 -1.22788 0
M  V30 3153 H 298.099 3.91528 -1.4409 0
M  V30 3154 H 296.729 3.1772 -0.570402 0
M  V30 3155 H 295.781 2.47715 -2.88689 0
M  V30 3156 H 297.093 3.41153 -3.6389 0
M  V30 3157 H 296.247 5.50291 -2.5547 0
M  V30 3158 H 294.986 4.57182 -1.69811 0
M  V30 3159 H 293.991 3.87896 -3.89637 0
M  V30 3160 H 295.216 4.84385 -4.75971 0
M  V30 3161 H 293.162 5.93339 -2.79794 0
M  V30 3162 H 293.079 6.05644 -4.52472 0
M  V30 3163 H 294.347 6.87912 -3.66603 0
M  V30 3164 N 298.576 1.31904 0.862503 0
M  V30 3165 C 299.524 1.20125 1.9918 0
M  V30 3166 C 300.518 0.107824 1.69056 0
M  V30 3167 O 301.724 0.270223 1.7796 0
M  V30 3168 H 298.099 0.372148 0.65346 0
M  V30 3169 H 300.07 2.15652 2.06244 0
M  V30 3170 C 298.819 0.933099 3.34946 0
M  V30 3171 H 298.142 1.76664 3.5865 0
M  V30 3172 H 299.582 0.890892 4.14535 0
M  V30 3173 C 298.041 -0.364172 3.34926 0
M  V30 3174 O 298.571 -1.37858 3.77304 0
M  V30 3175 N 296.777 -0.383362 2.8806 0
M  V30 3176 H 296.324 0.442651 2.53768 0
M  V30 3177 H 296.282 -1.25123 2.8843 0
M  V30 3178 N 300.054 -1.07777 1.14986 0
M  V30 3179 C 301.001 -2.14867 0.842672 0
M  V30 3180 C 301.971 -1.6486 -0.202552 0
M  V30 3181 O 303.156 -1.90668 -0.0710568 0
M  V30 3182 C 300.296 -3.43486 0.333363 0
M  V30 3183 C 299.409 -4.07306 1.43965 0
M  V30 3184 C 298.544 -5.23744 0.886914 0
M  V30 3185 C 297.583 -5.79517 1.97043 0
M  V30 3186 N 296.72 -6.87291 1.4344 0
M  V30 3187 H 301.56 -2.40485 1.75986 0
M  V30 3188 H 299.097 -1.1801 0.878179 0
M  V30 3189 H 301.055 -4.17195 0.0198163 0
M  V30 3190 H 299.685 -3.18133 -0.546916 0
M  V30 3191 H 298.737 -3.31293 1.86946 0
M  V30 3192 H 300.049 -4.44771 2.25788 0
M  V30 3193 H 299.203 -6.04419 0.525651 0
M  V30 3194 H 297.942 -4.87685 0.0377957 0
M  V30 3195 H 296.947 -4.97491 2.34057 0
M  V30 3196 H 298.172 -6.17632 2.82325 0
M  V30 3197 H 296.118 -6.5318 0.607567 0
M  V30 3198 H 296.035 -7.23617 2.18895 0
M  V30 3199 H 297.303 -7.71682 1.10124 0
M  V30 3200 N 301.532 -0.945985 -1.26051 0
M  V30 3201 C 302.948 -0.649045 -1.45807 0
M  V30 3202 C 303.148 0.796158 -1.85104 0
M  V30 3203 O 302.204 1.57233 -1.97571 0
M  V30 3204 C 303.517 -1.61458 -2.53677 0
M  V30 3205 C 305.065 -1.62481 -2.67524 0
M  V30 3206 C 305.54 -2.57776 -3.7857 0
M  V30 3207 N 307.031 -2.5609 -3.85969 0
M  V30 3208 C 307.766 -3.26508 -4.7136 0
M  V30 3209 N 307.262 -4.0637 -5.61102 0
M  V30 3210 N 309.055 -3.15437 -4.65248 0
M  V30 3211 H 301.206 -1.88005 -0.988328 0
M  V30 3212 H 303.469 -0.808198 -0.4955 0
M  V30 3213 H 303.175 -2.64644 -2.31638 0
M  V30 3214 H 303.049 -1.37036 -3.51427 0
M  V30 3215 H 305.436 -0.600167 -2.88933 0
M  V30 3216 H 305.517 -1.90958 -1.70202 0
M  V30 3217 H 305.161 -3.60361 -3.57913 0
M  V30 3218 H 305.091 -2.26587 -4.75359 0
M  V30 3219 H 307.582 -1.98105 -3.21812 0
M  V30 3220 H 307.895 -4.57042 -6.23164 0
M  V30 3221 H 306.24 -4.10469 -5.60839 0
M  V30 3222 H 309.431 -2.52525 -3.94143 0
M  V30 3223 H 309.604 -3.70584 -5.31575 0
M  V30 3224 N 303.011 1.40521 -0.713556 0
M  V30 3225 C 303.921 2.34522 -0.0606667 0
M  V30 3226 C 304.937 1.57193 0.74607 0
M  V30 3227 O 306.113 1.89591 0.679493 0
M  V30 3228 C 303.178 3.36081 0.851491 0
M  V30 3229 C 302.239 4.29286 0.0349339 0
M  V30 3230 C 301.472 5.25994 0.903649 0
M  V30 3231 O 301.695 5.28616 2.14292 0
M  V30 3232 O 300.629 6.00918 0.343723 0
M  V30 3233 H 304.455 2.91968 -0.835972 0
M  V30 3234 H 302.04 1.41681 -0.47402 0
M  V30 3235 H 303.922 3.98369 1.37404 0
M  V30 3236 H 302.597 2.81052 1.60598 0
M  V30 3237 H 301.504 3.70289 -0.532633 0
M  V30 3238 H 302.837 4.87462 -0.681287 0
M  V30 3239 N 304.489 0.459591 1.5075 0
M  V30 3240 C 305.399 -0.34613 2.32033 0
M  V30 3241 C 306.415 -1.00686 1.41909 0
M  V30 3242 O 307.591 -0.997361 1.7497 0
M  V30 3243 C 304.656 -1.42029 3.16273 0
M  V30 3244 C 303.717 -0.777362 4.22203 0
M  V30 3245 C 302.95 -1.80034 5.02418 0
M  V30 3246 O 303.173 -3.02544 4.83553 0
M  V30 3247 O 302.107 -1.37853 5.85901 0
M  V30 3248 H 305.933 0.318054 3.0203 0
M  V30 3249 H 303.518 0.221663 1.47746 0
M  V30 3250 H 305.4 -2.04275 3.68578 0
M  V30 3251 H 304.075 -2.06815 2.49016 0
M  V30 3252 H 302.982 -0.116256 3.73919 0
M  V30 3253 H 304.315 -0.172634 4.91897 0
M  V30 3254 N 305.967 -1.56429 0.191757 0
M  V30 3255 C 306.914 -2.18936 -0.730454 0
M  V30 3256 C 307.884 -1.13557 -1.21219 0
M  V30 3257 O 309.069 -1.41794 -1.27668 0
M  V30 3258 C 306.209 -2.85013 -1.9458 0
M  V30 3259 C 305.322 -4.04909 -1.50574 0
M  V30 3260 C 304.457 -4.58853 -2.67634 0
M  V30 3261 C 303.496 -5.71114 -2.20217 0
M  V30 3262 N 302.633 -6.19478 -3.30442 0
M  V30 3263 H 307.473 -2.97389 -0.190664 0
M  V30 3264 H 305.01 -1.46869 -0.0823694 0
M  V30 3265 H 306.968 -3.21492 -2.65893 0
M  V30 3266 H 305.598 -2.09129 -2.45896 0
M  V30 3267 H 304.65 -3.74115 -0.688605 0
M  V30 3268 H 305.962 -4.86113 -1.11784 0
M  V30 3269 H 305.116 -4.97619 -3.47074 0
M  V30 3270 H 303.855 -3.76749 -3.09696 0
M  V30 3271 H 302.86 -5.31879 -1.3923 0
M  V30 3272 H 304.085 -6.55033 -1.79189 0
M  V30 3273 H 302.031 -5.40297 -3.72041 0
M  V30 3274 H 301.948 -6.95725 -2.9581 0
M  V30 3275 H 303.216 -6.62898 -4.10106 0
M  V30 3276 N 307.445 0.0818655 -1.57387 0
M  V30 3277 C 308.392 1.09834 -2.0299 0
M  V30 3278 C 309.362 1.39043 -0.908639 0
M  V30 3279 O 310.547 1.50282 -1.17559 0
M  V30 3280 C 307.687 2.40971 -2.47037 0
M  V30 3281 C 306.8 2.18379 -3.7274 0
M  V30 3282 C 305.935 3.43008 -4.0561 0
M  V30 3283 C 304.974 3.15736 -5.24383 0
M  V30 3284 N 304.111 4.32667 -5.52941 0
M  V30 3285 H 308.951 0.702472 -2.89602 0
M  V30 3286 H 306.488 0.33531 -1.43227 0
M  V30 3287 H 308.446 3.1752 -2.70623 0
M  V30 3288 H 307.076 2.78379 -1.63417 0
M  V30 3289 H 306.128 1.32569 -3.56552 0
M  V30 3290 H 307.44 1.94227 -4.59431 0
M  V30 3291 H 306.594 4.27958 -4.30043 0
M  V30 3292 H 305.333 3.70225 -3.17466 0
M  V30 3293 H 304.338 2.2918 -4.99757 0
M  V30 3294 H 305.563 2.8985 -6.14136 0
M  V30 3295 H 303.509 4.59935 -4.67756 0
M  V30 3296 H 303.426 4.11753 -6.34031 0
M  V30 3297 H 304.694 5.18644 -5.81918 0
M  V30 3298 N 308.923 1.53595 0.353017 0
M  V30 3299 C 309.886 1.80232 1.41594 0
M  V30 3300 C 310.886 0.673081 1.46035 0
M  V30 3301 O 312.076 0.941335 1.46576 0
M  V30 3302 C 309.208 1.93578 2.80607 0
M  V30 3303 H 310.401 2.75174 1.19244 0
M  V30 3304 H 307.954 1.44864 0.586872 0
M  V30 3305 H 308.689 1.00746 3.08254 0
M  V30 3306 H 308.474 2.75724 2.78781 0
M  V30 3307 H 309.964 2.15735 3.57558 0
M  V30 3308 N 310.401 -0.613514 1.45168 0
M  V30 3309 C 311.333 -1.73825 1.4939 0
M  V30 3310 C 312.346 -1.58175 0.385304 0
M  V30 3311 O 313.535 -1.66165 0.652036 0
M  V30 3312 C 310.635 -3.11758 1.32891 0
M  V30 3313 C 309.808 -3.53704 2.57317 0
M  V30 3314 C 308.867 -4.70579 2.35462 0
M  V30 3315 O 307.893 -4.77996 3.09044 0
M  V30 3316 N 309.095 -5.63454 1.39644 0
M  V30 3317 H 311.86 -1.70669 2.46358 0
M  V30 3318 H 309.421 -0.79862 1.40832 0
M  V30 3319 H 311.413 -3.87692 1.1609 0
M  V30 3320 H 309.983 -3.09456 0.442218 0
M  V30 3321 H 309.203 -2.67794 2.89275 0
M  V30 3322 H 310.491 -3.78486 3.40038 0
M  V30 3323 H 309.889 -5.6017 0.789062 0
M  V30 3324 H 308.446 -6.38944 1.28816 0
M  V30 3325 N 311.879 -1.3236 -0.855495 0
M  V30 3326 C 312.827 -1.2118 -1.9854 0
M  V30 3327 C 313.821 -0.116788 -1.68997 0
M  V30 3328 O 315.027 -0.279657 -1.77814 0
M  V30 3329 H 311.402 -0.375608 -0.651477 0
M  V30 3330 H 313.373 -2.16743 -2.05098 0
M  V30 3331 C 312.122 -0.950849 -3.34446 0
M  V30 3332 H 311.445 -1.78563 -3.57708 0
M  V30 3333 H 312.885 -0.912863 -4.14057 0
M  V30 3334 C 311.344 0.346404 -3.35114 0
M  V30 3335 O 311.874 1.35855 -3.7803 0
M  V30 3336 N 310.08 0.36808 -2.88259 0
M  V30 3337 H 309.627 -0.456102 -2.5353 0
M  V30 3338 H 309.585 1.23591 -2.89089 0
M  V30 3339 N 313.357 1.07166 -1.15556 0
M  V30 3340 C 314.582 1.84053 -0.955988 0
M  V30 3341 C 315.007 1.81586 0.490739 0
M  V30 3342 O 314.365 1.21018 1.34997 0
M  V30 3343 C 314.413 3.28957 -1.47714 0
M  V30 3344 O 313.517 4.06795 -0.677593 0
M  V30 3345 H 312.858 0.569842 -0.340847 0
M  V30 3346 H 315.388 1.35178 -1.53584 0
M  V30 3347 H 315.398 3.79788 -1.4908 0
M  V30 3348 H 314.073 3.30068 -2.53037 0
M  V30 3349 H 312.65 3.6561 -0.733721 0
M  V30 3350 N 314.835 0.952656 1.25548 0
M  V30 3351 C 315.745 0.47782 2.29682 0
M  V30 3352 C 316.761 -0.453859 1.67977 0
M  V30 3353 O 317.937 -0.330587 1.98668 0
M  V30 3354 C 315.002 -0.238655 3.45878 0
M  V30 3355 C 314.063 0.730994 4.23031 0
M  V30 3356 C 313.296 0.0486165 5.33678 0
M  V30 3357 O 313.519 -1.16612 5.58353 0
M  V30 3358 O 312.453 0.733152 5.97418 0
M  V30 3359 H 316.279 1.34312 2.72386 0
M  V30 3360 H 313.864 0.719026 1.30959 0
M  V30 3361 H 315.746 -0.641774 4.16484 0
M  V30 3362 H 314.421 -1.07916 3.05181 0
M  V30 3363 H 313.328 1.18428 3.5486 0
M  V30 3364 H 314.661 1.53946 4.67506 0
M  V30 3365 N 316.313 -1.40141 0.720998 0
M  V30 3366 C 317.246 -2.2819 0.020916 0
M  V30 3367 C 318.224 -1.43633 -0.762129 0
M  V30 3368 O 319.408 -1.7304 -0.747633 0
M  V30 3369 C 316.535 -3.24281 -0.977715 0
M  V30 3370 C 315.581 -4.25548 -0.284836 0
M  V30 3371 S 316.414 -5.26247 0.991169 0
M  V30 3372 C 317.57 -6.259 -0.0052214 0
M  V30 3373 H 317.803 -2.87218 0.767649 0
M  V30 3374 H 315.336 -1.45656 0.512233 0
M  V30 3375 H 317.294 -3.80167 -1.54865 0
M  V30 3376 H 315.955 -2.643 -1.69719 0
M  V30 3377 H 315.148 -4.93154 -1.03996 0
M  V30 3378 H 314.75 -3.73389 0.213684 0
M  V30 3379 H 317.042 -6.72143 -0.850279 0
M  V30 3380 H 317.985 -7.05224 0.637599 0
M  V30 3381 H 318.393 -5.63277 -0.371366 0
M  V30 3382 N 317.792 -0.46758 -1.50504 0
M  V30 3383 C 319.208 -0.121533 -1.59137 0
M  V30 3384 C 319.408 1.3717 -1.47603 0
M  V30 3385 O 318.464 2.14464 -1.33272 0
M  V30 3386 C 319.777 -0.6686 -2.93173 0
M  V30 3387 C 321.325 -0.631716 -3.06559 0
M  V30 3388 C 321.8 -1.15627 -4.43164 0
M  V30 3389 N 323.291 -1.11553 -4.49567 0
M  V30 3390 C 324.026 -1.49195 -5.5365 0
M  V30 3391 N 323.522 -1.94269 -6.65005 0
M  V30 3392 N 325.315 -1.4082 -5.44175 0
M  V30 3393 H 317.466 -1.4388 -1.56245 0
M  V30 3394 H 319.729 -0.594784 -0.738198 0
M  V30 3395 H 319.435 -1.71453 -3.07078 0
M  V30 3396 H 319.309 -0.11021 -3.77039 0
M  V30 3397 H 321.696 0.405297 -2.92304 0
M  V30 3398 H 321.777 -1.22687 -2.24458 0
M  V30 3399 H 321.421 -2.1919 -4.58168 0
M  V30 3400 H 321.351 -0.537365 -5.23851 0
M  V30 3401 H 323.842 -0.784895 -3.69659 0
M  V30 3402 H 324.155 -2.21148 -7.40482 0
M  V30 3403 H 322.5 -1.98219 -6.66134 0
M  V30 3404 H 325.691 -1.0545 -4.56068 0
M  V30 3405 H 325.864 -1.70481 -6.25172 0
M  V30 3406 N 319.27 1.56325 -0.20005 0
M  V30 3407 C 320.203 2.15234 0.758267 0
M  V30 3408 C 321.181 1.09046 1.20614 0
M  V30 3409 O 322.365 1.37186 1.29276 0
M  V30 3410 C 319.492 2.71524 2.02466 0
M  V30 3411 C 318.538 3.90345 1.71852 0
M  V30 3412 S 319.371 5.28513 0.862249 0
M  V30 3413 C 320.527 5.88227 2.13868 0
M  V30 3414 H 320.76 2.96183 0.2575 0
M  V30 3415 H 318.293 1.54393 0.0150099 0
M  V30 3416 H 320.251 3.04598 2.75191 0
M  V30 3417 H 318.912 1.90607 2.49655 0
M  V30 3418 H 318.105 4.28158 2.65888 0
M  V30 3419 H 317.707 3.58306 1.07205 0
M  V30 3420 H 319.999 6.02891 3.09076 0
M  V30 3421 H 320.942 6.84714 1.80479 0
M  V30 3422 H 321.35 5.16874 2.2694 0
M  V30 3423 N 320.748 -0.0735177 1.57428 0
M  V30 3424 C 321.695 -1.08756 2.0357 0
M  V30 3425 C 322.665 -1.38559 0.916 0
M  V30 3426 O 323.85 -1.49656 1.18354 0
M  V30 3427 C 320.99 -2.39657 2.48311 0
M  V30 3428 C 320.103 -2.16399 3.73892 0
M  V30 3429 C 319.238 -3.40852 4.07423 0
M  V30 3430 C 318.277 -3.1295 5.2605 0
M  V30 3431 N 317.414 -4.29729 5.55228 0
M  V30 3432 H 322.254 -0.687104 2.8997 0
M  V30 3433 H 319.791 -0.327709 1.43403 0
M  V30 3434 H 321.749 -3.16081 2.72303 0
M  V30 3435 H 320.379 -2.77508 1.64891 0
M  V30 3436 H 319.431 -1.30676 3.57251 0
M  V30 3437 H 320.743 -1.91788 4.60455 0
M  V30 3438 H 319.897 -4.25671 4.32306 0
M  V30 3439 H 318.636 -3.68537 3.19425 0
M  V30 3440 H 317.641 -2.26526 5.00965 0
M  V30 3441 H 318.866 -2.86589 6.15665 0
M  V30 3442 H 316.812 -4.57448 4.70188 0
M  V30 3443 H 316.729 -4.08385 6.36206 0
M  V30 3444 H 317.997 -5.1555 5.84661 0
M  V30 3445 N 322.226 -1.5378 -0.344866 0
M  V30 3446 C 323.642 -1.44015 -0.687888 0
M  V30 3447 C 323.842 -0.595834 -1.92489 0
M  V30 3448 O 322.898 -0.0863064 -2.52352 0
M  V30 3449 C 324.211 -2.87481 -0.881758 0
M  V30 3450 C 325.759 -2.97247 -0.980459 0
M  V30 3451 C 326.234 -4.41819 -1.20665 0
M  V30 3452 N 327.725 -4.45339 -1.27389 0
M  V30 3453 C 328.46 -5.54333 -1.46639 0
M  V30 3454 N 327.956 -6.73335 -1.63071 0
M  V30 3455 N 329.749 -5.41944 -1.49176 0
M  V30 3456 H 321.9 -2.07169 0.468475 0
M  V30 3457 H 324.163 -0.93643 0.147655 0
M  V30 3458 H 323.869 -3.51672 -0.0443444 0
M  V30 3459 H 323.743 -3.32352 -1.78388 0
M  V30 3460 H 326.13 -2.33197 -1.8084 0
M  V30 3461 H 326.211 -2.5574 -0.0552713 0
M  V30 3462 H 325.855 -5.06449 -0.383652 0
M  V30 3463 H 325.785 -4.80917 -2.14539 0
M  V30 3464 H 328.276 -3.59585 -1.1622 0
M  V30 3465 H 328.589 -7.52165 -1.77391 0
M  V30 3466 H 326.934 -6.76282 -1.60209 0
M  V30 3467 H 330.125 -4.47932 -1.3592 0
M  V30 3468 H 330.298 -6.26946 -1.63837 0
M  V30 3469 N 323.704 0.605807 -1.45491 0
M  V30 3470 C 324.667 1.69836 -1.5391 0
M  V30 3471 C 325.667 1.55261 -0.418424 0
M  V30 3472 O 326.857 1.60296 -0.681965 0
M  V30 3473 C 323.989 3.09117 -1.43734 0
M  V30 3474 H 325.182 1.63738 -2.51257 0
M  V30 3475 H 322.735 0.821689 -1.32959 0
M  V30 3476 H 323.47 3.20791 -0.475788 0
M  V30 3477 H 323.255 3.21104 -2.25021 0
M  V30 3478 H 324.745 3.88696 -1.52661 0
M  V30 3479 N 325.182 1.32811 0.848464 0
M  V30 3480 C 326.114 1.18095 1.96433 0
M  V30 3481 C 327.127 0.114354 1.62398 0
M  V30 3482 O 328.316 0.363892 1.74751 0
M  V30 3483 C 325.416 0.786798 3.2964 0
M  V30 3484 C 324.589 1.943 3.91875 0
M  V30 3485 C 323.648 1.53138 5.03423 0
M  V30 3486 O 322.674 2.24432 5.23086 0
M  V30 3487 N 323.876 0.430915 5.78898 0
M  V30 3488 H 326.641 2.14218 2.09597 0
M  V30 3489 H 324.202 1.2543 1.02367 0
M  V30 3490 H 326.194 0.493715 4.01677 0
M  V30 3491 H 324.764 -0.0834541 3.12489 0
M  V30 3492 H 323.984 2.40224 3.12547 0
M  V30 3493 H 325.272 2.71689 4.30189 0
M  V30 3494 H 324.67 -0.162333 5.65467 0
M  V30 3495 H 323.227 0.197466 6.51501 0
M  V30 3496 N 326.66 -1.06551 1.16123 0
M  V30 3497 C 327.57 -2.17484 0.879662 0
M  V30 3498 C 328.586 -1.73377 -0.147104 0
M  V30 3499 O 329.762 -2.01379 0.0289128 0
M  V30 3500 C 326.827 -3.44591 0.381829 0
M  V30 3501 C 325.888 -4.0322 1.4735 0
M  V30 3502 C 325.121 -5.24261 0.999324 0
M  V30 3503 O 325.344 -5.70198 -0.151957 0
M  V30 3504 O 324.278 -5.74775 1.78653 0
M  V30 3505 H 328.104 -2.44075 1.80724 0
M  V30 3506 H 325.689 -1.16042 0.940992 0
M  V30 3507 H 327.571 -4.21254 0.111053 0
M  V30 3508 H 326.246 -3.19532 -0.51777 0
M  V30 3509 H 325.153 -3.2806 1.79798 0
M  V30 3510 H 326.486 -4.32568 2.34831 0
M  V30 3511 N 328.138 -0.959301 -1.25041 0
M  V30 3512 C 329.368 -0.63303 -1.96663 0
M  V30 3513 C 329.776 0.800031 -1.71453 0
M  V30 3514 O 329.119 1.54736 -0.99008 0
M  V30 3515 C 329.181 -0.817523 -3.50081 0
M  V30 3516 C 328.845 -2.22863 -3.98975 0
M  V30 3517 C 329.842 -3.20569 -4.09306 0
M  V30 3518 C 327.527 -2.55407 -4.32519 0
M  V30 3519 C 329.521 -4.4891 -4.52503 0
M  V30 3520 C 327.208 -3.83976 -4.754 0
M  V30 3521 C 328.206 -4.8054 -4.85356 0
M  V30 3522 O 327.894 -6.06817 -5.27284 0
M  V30 3523 H 327.626 -0.235866 -0.633516 0
M  V30 3524 H 330.18 -1.2874 -1.60047 0
M  V30 3525 H 328.41 -0.105992 -3.86555 0
M  V30 3526 H 330.099 -0.491604 -4.02912 0
M  V30 3527 H 330.865 -2.96753 -3.83618 0
M  V30 3528 H 326.744 -1.8097 -4.23994 0
M  V30 3529 H 330.288 -5.24283 -4.60188 0
M  V30 3530 H 326.185 -4.07596 -5.00535 0
M  V30 3531 H 326.953 -6.10262 -5.45457 0
M  V30 3532 N 329.616 1.39756 -0.72842 0
M  V30 3533 C 330.893 1.94574 -0.200079 0
M  V30 3534 C 331.273 1.66569 1.29684 0
M  V30 3535 O 330.621 0.990326 2.05924 0
M  V30 3536 C 330.831 3.45004 -0.526608 0
M  V30 3537 C 332.179 4.21965 -0.472318 0
M  V30 3538 O 333.203 3.53173 -0.463413 0
M  V30 3539 O 332.062 5.44552 -0.461075 0
M  V30 3540 H 329.156 0.826289 -0.0342851 0
M  V30 3541 H 331.702 1.49293 -0.806829 0
M  V30 3542 H 330.474 3.58796 -1.56144 0
M  V30 3543 H 330.097 3.97449 0.109449 0
M  V30 3544 N 331.094 0.475555 1.50254 0
M  V30 3545 C 332.319 -0.0777042 2.07254 0
M  V30 3546 C 332.744 -1.3235 1.3366 0
M  V30 3547 O 332.102 -1.77152 0.385597 0
M  V30 3548 C 332.15 -0.340169 3.58992 0
M  V30 3549 O 331.254 -1.41982 3.87188 0
M  V30 3550 H 330.595 0.0149556 0.663832 0
M  V30 3551 H 333.125 0.667878 1.93392 0
M  V30 3552 H 333.135 -0.579332 4.03866 0
M  V30 3553 H 331.81 0.570167 4.11973 0
M  V30 3554 H 330.387 -1.16762 3.54148 0
M  V30 3555 N 332.573 -1.56217 0.208337 0
M  V30 3556 C 333.798 -2.02782 -0.435222 0
M  V30 3557 C 334.223 -1.08738 -1.53485 0
M  V30 3558 O 333.581 -0.0731855 -1.81152 0
M  V30 3559 C 333.629 -3.47687 -0.956335 0
M  V30 3560 O 332.733 -3.56773 -2.06849 0
M  V30 3561 H 332.074 -0.656403 -0.100158 0
M  V30 3562 H 334.604 -2.02033 0.3231 0
M  V30 3563 H 334.614 -3.87745 -1.26955 0
M  V30 3564 H 333.289 -4.15624 -0.15143 0
M  V30 3565 H 331.866 -3.28597 -1.76292 0
M  V30 3566 N 334.051 0.0651679 -1.57465 0
M  V30 3567 C 335.298 0.763063 -1.87573 0
M  V30 3568 C 335.626 1.77242 -0.800961 0
M  V30 3569 O 334.881 1.94651 0.202316 0
M  V30 3570 C 335.18 1.50081 -3.24362 0
M  V30 3571 C 334.846 0.630816 -4.46466 0
M  V30 3572 C 333.508 0.391082 -4.79608 0
M  V30 3573 C 335.86 0.0279465 -5.21193 0
M  V30 3574 C 333.188 -0.460894 -5.84887 0
M  V30 3575 C 335.54 -0.811522 -6.27373 0
M  V30 3576 C 334.204 -1.06106 -6.59013 0
M  V30 3577 H 333.474 0.279224 -0.686378 0
M  V30 3578 H 336.121 0.0236726 -1.91485 0
M  V30 3579 H 334.426 2.31258 -3.16271 0
M  V30 3580 H 336.123 2.04571 -3.44894 0
M  V30 3581 H 332.713 0.8278 -4.2053 0
M  V30 3582 H 336.897 0.200262 -4.95896 0
M  V30 3583 H 332.153 -0.662907 -6.07796 0
M  V30 3584 H 336.327 -1.28537 -6.84435 0
M  V30 3585 H 333.954 -1.723 -7.40417 0
M  V30 3586 N 335.529 1.53961 0.336706 0
M  V30 3587 C 336.94 1.62914 0.911925 0
M  V30 3588 C 337.291 0.514795 1.89326 0
M  V30 3589 O 336.416 -0.354395 2.13478 0
M  V30 3590 C 337.011 2.95304 1.66076 0
M  V30 3591 C 335.57 3.06496 2.18489 0
M  V30 3592 C 334.717 2.58403 1.00613 0
M  V30 3593 H 337.668 1.58285 0.114649 0
M  V30 3594 H 337.689 2.84727 2.5241 0
M  V30 3595 H 337.201 3.76387 0.946276 0
M  V30 3596 H 335.302 2.3006 2.93092 0
M  V30 3597 H 335.415 4.1208 2.44391 0
M  V30 3598 H 333.779 2.13977 1.38152 0
M  V30 3599 H 334.562 3.41932 0.306179 0
M  V30 3600 N 337.007 -0.598083 1.45811 0
M  V30 3601 C 337.955 -1.72932 1.55555 0
M  V30 3602 C 338.949 -1.63984 0.424921 0
M  V30 3603 O 340.155 -1.69663 0.601205 0
M  V30 3604 H 336.53 -0.571489 0.488779 0
M  V30 3605 H 338.501 -1.61842 2.50699 0
M  V30 3606 C 337.25 -3.11318 1.54843 0
M  V30 3607 H 336.573 -3.18867 2.41172 0
M  V30 3608 H 338.013 -3.90274 1.65717 0
M  V30 3609 C 336.472 -3.3578 0.274427 0
M  V30 3610 O 337.002 -3.9654 -0.641778 0
M  V30 3611 N 335.208 -2.90119 0.167139 0
M  V30 3612 H 334.755 -2.40855 0.913596 0
M  V30 3613 H 334.713 -3.0686 -0.684435 0
M  V30 3614 N 338.485 -1.33259 -0.841409 0
M  V30 3615 C 339.731 -1.25766 -1.59857 0
M  V30 3616 C 340.086 0.175602 -1.91597 0
M  V30 3617 O 339.379 1.117 -1.55672 0
M  V30 3618 C 339.573 -2.06381 -2.9179 0
M  V30 3619 C 339.402 -3.57401 -2.72937 0
M  V30 3620 C 338.172 -4.26718 -2.70628 0
M  V30 3621 C 340.37 -4.51786 -2.45753 0
M  V30 3622 N 338.352 -5.63705 -2.43125 0
M  V30 3623 C 339.723 -5.76643 -2.27777 0
M  V30 3624 C 341.778 -4.40898 -2.31329 0
M  V30 3625 C 340.481 -6.91842 -1.96841 0
M  V30 3626 C 342.507 -5.55911 -2.01786 0
M  V30 3627 C 341.869 -6.79776 -1.8462 0
M  V30 3628 H 337.968 -0.515406 -0.588117 0
M  V30 3629 H 340.552 -1.67772 -0.987955 0
M  V30 3630 H 338.723 -1.667 -3.50807 0
M  V30 3631 H 340.455 -1.90678 -3.56965 0
M  V30 3632 H 337.21 -3.78968 -2.84043 0
M  V30 3633 H 337.634 -6.35911 -2.32265 0
M  V30 3634 H 342.276 -3.45772 -2.43314 0
M  V30 3635 H 339.994 -7.86968 -1.83594 0
M  V30 3636 H 343.58 -5.49421 -1.91384 0
M  V30 3637 H 342.46 -7.67266 -1.62088 0
M  V30 3638 N 339.963 1.05934 -1.16686 0
M  V30 3639 C 340.873 2.17014 -0.891183 0
M  V30 3640 C 341.889 1.73453 0.137907 0
M  V30 3641 O 343.065 2.01361 -0.039592 0
M  V30 3642 C 340.13 3.44384 -0.400099 0
M  V30 3643 C 339.191 4.02433 -1.49486 0
M  V30 3644 C 338.424 5.23723 -1.02711 0
M  V30 3645 O 338.647 5.7027 0.121716 0
M  V30 3646 O 337.581 5.7382 -1.81699 0
M  V30 3647 H 341.407 2.43113 -1.82015 0
M  V30 3648 H 338.992 1.15541 -0.947132 0
M  V30 3649 H 340.874 4.21189 -0.133392 0
M  V30 3650 H 339.549 3.19802 0.500817 0
M  V30 3651 H 338.456 3.27102 -1.81535 0
M  V30 3652 H 339.789 4.31317 -2.37121 0
M  V30 3653 N 341.441 0.965919 1.2453 0
M  V30 3654 C 342.688 0.626831 1.92554 0
M  V30 3655 C 343.016 -0.837739 1.75534 0
M  V30 3656 O 342.271 -1.61793 1.10098 0
M  V30 3657 C 342.57 0.945428 3.44669 0
M  V30 3658 C 342.236 2.39785 3.81856 0
M  V30 3659 C 340.898 2.79483 3.91718 0
M  V30 3660 C 343.25 3.34055 4.00071 0
M  V30 3661 C 340.578 4.12496 4.1721 0
M  V30 3662 C 342.93 4.66694 4.27059 0
M  V30 3663 C 341.594 5.06172 4.3514 0
M  V30 3664 H 340.864 0.229374 0.704605 0
M  V30 3665 H 343.511 1.21707 1.4785 0
M  V30 3666 H 341.816 0.272926 3.90848 0
M  V30 3667 H 343.513 0.661484 3.95507 0
M  V30 3668 H 340.103 2.08003 3.74743 0
M  V30 3669 H 344.287 3.04571 3.91855 0
M  V30 3670 H 339.543 4.42709 4.21685 0
M  V30 3671 H 343.717 5.3971 4.40097 0
M  V30 3672 H 341.344 6.09262 4.54646 0
M  V30 3673 N 342.919 -1.39368 0.735821 0
M  V30 3674 C 343.882 -2.2896 0.104874 0
M  V30 3675 C 344.882 -1.46347 -0.666274 0
M  V30 3676 O 346.072 -1.67014 -0.49517 0
M  V30 3677 C 343.204 -3.29857 -0.860656 0
M  V30 3678 H 344.397 -2.86259 0.894205 0
M  V30 3679 H 341.95 -1.48029 0.501704 0
M  V30 3680 H 342.685 -2.77615 -1.67631 0
M  V30 3681 H 342.47 -3.9087 -0.310327 0
M  V30 3682 H 343.96 -3.96893 -1.29867 0
M  V30 3683 N 344.397 -0.483516 -1.5 0
M  V30 3684 C 345.813 -0.138404 -1.58999 0
M  V30 3685 C 346.013 1.35597 -1.4905 0
M  V30 3686 O 345.069 2.13039 -1.35539 0
M  V30 3687 C 346.382 -0.699658 -2.92447 0
M  V30 3688 C 347.93 -0.664195 -3.05872 0
M  V30 3689 C 348.405 -1.20321 -4.41913 0
M  V30 3690 N 349.896 -1.16315 -4.48358 0
M  V30 3691 C 350.631 -1.55058 -5.52037 0
M  V30 3692 N 350.127 -2.01311 -6.62907 0
M  V30 3693 N 351.92 -1.46584 -5.42651 0
M  V30 3694 H 344.071 -1.45529 -1.5471 0
M  V30 3695 H 346.334 -0.60258 -0.731848 0
M  V30 3696 H 346.04 -1.747 -3.05242 0
M  V30 3697 H 345.914 -0.150194 -3.76901 0
M  V30 3698 H 348.301 0.374272 -2.92717 0
M  V30 3699 H 348.382 -1.25061 -2.23144 0
M  V30 3700 H 348.026 -2.24037 -4.55818 0
M  V30 3701 H 347.956 -0.592896 -5.23252 0
M  V30 3702 H 350.447 -0.824058 -3.68806 0
M  V30 3703 H 350.76 -2.2899 -7.38095 0
M  V30 3704 H 349.105 -2.05273 -6.63994 0
M  V30 3705 H 352.296 -1.10281 -4.54924 0
M  V30 3706 H 352.469 -1.77103 -6.23329 0
M  V30 3707 N 345.875 1.56104 -0.216619 0
M  V30 3708 C 346.808 2.16026 0.735395 0
M  V30 3709 C 347.786 1.1032 1.1945 0
M  V30 3710 O 348.97 1.38549 1.27814 0
M  V30 3711 C 346.097 2.73656 1.99575 0
M  V30 3712 C 345.143 3.92146 1.67702 0
M  V30 3713 S 345.976 5.29397 0.806145 0
M  V30 3714 C 347.132 5.90463 2.07617 0
M  V30 3715 H 347.365 2.96439 0.226072 0
M  V30 3716 H 344.898 1.544 -0.00136639 0
M  V30 3717 H 346.856 3.075 2.71945 0
M  V30 3718 H 345.517 1.93245 2.47619 0
M  V30 3719 H 344.71 4.30954 2.61332 0
M  V30 3720 H 344.312 3.59423 1.03398 0
M  V30 3721 H 346.604 6.06136 3.02664 0
M  V30 3722 H 347.547 6.86589 1.73207 0
M  V30 3723 H 347.955 5.19252 2.21445 0
M  V30 3724 N 347.353 -0.0568162 1.57498 0
M  V30 3725 C 348.602 -0.752001 1.87157 0
M  V30 3726 C 348.915 -1.77978 0.811375 0
M  V30 3727 O 350.121 -2.52559 0.996293 0
M  V30 3728 C 348.577 -1.38844 3.3204 0
M  V30 3729 C 348.185 -0.398456 4.46225 0
M  V30 3730 C 349.929 -2.06512 3.70882 0
M  V30 3731 C 347.836 -1.04166 5.82154 0
M  V30 3732 H 346.766 -0.28461 0.698222 0
M  V30 3733 H 349.417 -0.00561272 1.83499 0
M  V30 3734 H 347.799 -2.1836 3.30356 0
M  V30 3735 H 348.973 0.367977 4.59328 0
M  V30 3736 H 347.288 0.174592 4.16034 0
M  V30 3737 H 349.885 -2.55437 4.6974 0
M  V30 3738 H 350.228 -2.87117 3.01445 0
M  V30 3739 H 350.761 -1.33808 3.7462 0
M  V30 3740 H 347.5 -0.275614 6.5492 0
M  V30 3741 H 347.02 -1.7786 5.72823 0
M  V30 3742 H 348.699 -1.55715 6.27982 0
M  V30 3743 N 348.832 -1.54138 -0.328536 0
M  V30 3744 C 349.779 -1.83176 -1.40411 0
M  V30 3745 C 350.749 -0.678494 -1.5161 0
M  V30 3746 O 351.934 -0.92443 -1.6691 0
M  V30 3747 C 349.074 -2.06035 -2.76846 0
M  V30 3748 C 348.187 -3.33727 -2.74318 0
M  V30 3749 C 347.322 -3.46574 -4.02567 0
M  V30 3750 C 346.361 -4.68159 -3.94327 0
M  V30 3751 N 345.498 -4.77959 -5.14296 0
M  V30 3752 H 350.338 -2.74938 -1.14948 0
M  V30 3753 H 347.875 -1.36166 -0.556538 0
M  V30 3754 H 349.833 -2.1728 -3.56153 0
M  V30 3755 H 348.463 -1.1757 -3.00628 0
M  V30 3756 H 347.515 -3.31246 -1.8703 0
M  V30 3757 H 348.827 -4.23139 -2.64111 0
M  V30 3758 H 347.981 -3.57333 -4.90304 0
M  V30 3759 H 346.72 -2.55245 -4.15574 0
M  V30 3760 H 345.725 -4.57461 -3.04974 0
M  V30 3761 H 346.95 -5.60868 -3.82889 0
M  V30 3762 H 344.896 -3.89544 -5.27818 0
M  V30 3763 H 344.813 -5.6133 -5.06404 0
M  V30 3764 H 346.081 -4.93044 -6.03761 0
M  V30 3765 N 350.31 0.590341 -1.46126 0
M  V30 3766 C 351.22 1.72793 -1.58681 0
M  V30 3767 C 352.236 1.67516 -0.470566 0
M  V30 3768 O 353.412 1.87562 -0.733642 0
M  V30 3769 C 350.477 3.09287 -1.5666 0
M  V30 3770 C 349.538 3.25886 -2.79458 0
M  V30 3771 C 348.771 4.55869 -2.77524 0
M  V30 3772 O 348.994 5.3928 -1.85832 0
M  V30 3773 O 347.928 4.75552 -3.68964 0
M  V30 3774 H 351.754 1.65149 -2.54872 0
M  V30 3775 H 349.339 0.756486 -1.28832 0
M  V30 3776 H 351.221 3.90577 -1.58202 0
M  V30 3777 H 349.896 3.17385 -0.636271 0
M  V30 3778 H 348.803 2.44119 -2.83472 0
M  V30 3779 H 350.136 3.22675 -3.71674 0
M  V30 3780 N 351.788 1.33704 0.83433 0
M  V30 3781 C 353.035 1.25417 1.58987 0
M  V30 3782 C 353.363 -0.178869 1.93676 0
M  V30 3783 O 352.618 -1.13723 1.59265 0
M  V30 3784 C 352.917 2.07926 2.90692 0
M  V30 3785 C 352.583 3.57066 2.75345 0
M  V30 3786 C 351.245 3.97724 2.70867 0
M  V30 3787 C 353.597 4.51817 2.59828 0
M  V30 3788 C 350.925 5.31344 2.48778 0
M  V30 3789 C 353.277 5.85604 2.39272 0
M  V30 3790 C 351.941 6.25439 2.33199 0
M  V30 3791 H 351.211 0.458934 0.581774 0
M  V30 3792 H 353.858 1.65335 0.966261 0
M  V30 3793 H 352.163 1.608 3.57282 0
M  V30 3794 H 353.86 1.98868 3.48213 0
M  V30 3795 H 350.45 3.24785 2.79665 0
M  V30 3796 H 354.634 4.21311 2.62319 0
M  V30 3797 H 349.89 5.61241 2.42526 0
M  V30 3798 H 354.064 6.58623 2.2625 0
M  V30 3799 H 351.691 7.28914 2.15843 0
M  V30 3800 N 353.266 -1.05314 1.17247 0
M  V30 3801 C 354.682 -1.30452 0.919473 0
M  V30 3802 C 354.882 -1.9703 -0.42209 0
M  V30 3803 O 353.938 -2.24311 -1.15935 0
M  V30 3804 C 355.251 -2.17551 2.07586 0
M  V30 3805 C 356.799 -2.30937 2.11275 0
M  V30 3806 C 357.274 -3.21396 3.26296 0
M  V30 3807 N 358.765 -3.28981 3.26076 0
M  V30 3808 C 359.5 -3.99095 4.11716 0
M  V30 3809 N 358.996 -4.71648 5.07465 0
M  V30 3810 N 360.789 -3.95247 3.9967 0
M  V30 3811 H 352.94 -0.604988 2.03602 0
M  V30 3812 H 355.203 -0.329368 0.888944 0
M  V30 3813 H 354.909 -1.75921 3.0454 0
M  V30 3814 H 354.783 -3.18182 2.02584 0
M  V30 3815 H 357.17 -2.71809 1.14907 0
M  V30 3816 H 357.251 -1.2994 2.20339 0
M  V30 3817 H 356.895 -2.81238 4.22927 0
M  V30 3818 H 356.825 -4.22395 3.14467 0
M  V30 3819 H 359.316 -2.77286 2.5675 0
M  V30 3820 H 359.629 -5.22705 5.6921 0
M  V30 3821 H 357.974 -4.70594 5.11435 0
M  V30 3822 H 361.165 -3.37691 3.24164 0
M  V30 3823 H 361.338 -4.4962 4.66632 0
M  V30 3824 N 354.744 -0.972509 -1.24016 0
M  V30 3825 C 355.707 -0.511403 -2.23422 0
M  V30 3826 C 356.707 0.394679 -1.55881 0
M  V30 3827 O 357.897 0.189469 -1.73167 0
M  V30 3828 C 355.029 0.258769 -3.39916 0
M  V30 3829 H 356.222 -1.39024 -2.6573 0
M  V30 3830 H 353.775 -0.757585 -1.36713 0
M  V30 3831 H 354.51 1.1545 -3.03054 0
M  V30 3832 H 354.295 -0.391522 -3.9014 0
M  V30 3833 H 355.785 0.570244 -4.13688 0
M  V30 3834 N 356.222 1.38976 -0.743202 0
M  V30 3835 C 357.45 2.04636 -0.30525 0
M  V30 3836 C 357.865 1.56044 1.06281 0
M  V30 3837 O 357.222 0.728921 1.67311 0
M  V30 3838 C 357.273 3.60193 -0.307177 0
M  V30 3839 O 356.994 4.06998 -1.62124 0
M  V30 3840 C 358.495 4.4306 0.145928 0
M  V30 3841 H 355.715 0.65788 -0.132041 0
M  V30 3842 H 358.259 1.77866 -1.00915 0
M  V30 3843 H 356.414 3.85835 0.347898 0
M  V30 3844 H 356.828 5.01371 -1.54036 0
M  V30 3845 H 358.302 5.51921 0.0934183 0
M  V30 3846 H 358.779 4.22706 1.19231 0
M  V30 3847 H 359.385 4.22584 -0.479886 0
M  V30 3848 N 357.7 0.491464 1.49741 0
M  V30 3849 C 358.63 -0.28154 2.31796 0
M  V30 3850 C 359.611 -0.971473 1.3963 0
M  V30 3851 O 360.796 -0.964719 1.68543 0
M  V30 3852 C 357.926 -1.35203 3.19902 0
M  V30 3853 C 356.88 -0.782529 4.20786 0
M  V30 3854 C 356.206 -1.95283 4.97764 0
M  V30 3855 C 357.506 0.21999 5.21837 0
M  V30 3856 H 359.2 0.403355 2.96671 0
M  V30 3857 H 356.746 0.195425 1.42668 0
M  V30 3858 H 358.699 -1.90045 3.76113 0
M  V30 3859 H 357.423 -2.06598 2.52953 0
M  V30 3860 H 356.082 -0.255928 3.65706 0
M  V30 3861 H 355.73 -2.65423 4.2727 0
M  V30 3862 H 355.43 -1.57789 5.66018 0
M  V30 3863 H 356.954 -2.50577 5.56816 0
M  V30 3864 H 358.368 -0.23996 5.72798 0
M  V30 3865 H 356.765 0.51026 5.97927 0
M  V30 3866 H 357.835 1.13911 4.7133 0
M  V30 3867 N 359.178 -1.55987 0.224894 0
M  V30 3868 C 360.088 -2.24066 -0.69511 0
M  V30 3869 C 361.104 -1.24939 -1.21104 0
M  V30 3870 O 362.28 -1.5776 -1.25195 0
M  V30 3871 C 359.345 -2.90983 -1.88493 0
M  V30 3872 C 358.406 -4.05462 -1.41064 0
M  V30 3873 C 357.639 -4.69179 -2.54375 0
M  V30 3874 O 357.862 -4.31895 -3.72589 0
M  V30 3875 O 356.796 -5.58108 -2.25386 0
M  V30 3876 H 360.622 -3.03353 -0.145149 0
M  V30 3877 H 358.207 -1.49399 -0.00569476 0
M  V30 3878 H 360.089 -3.33209 -2.57972 0
M  V30 3879 H 358.764 -2.14653 -2.42293 0
M  V30 3880 H 357.671 -3.67798 -0.683774 0
M  V30 3881 H 359.004 -4.83545 -0.918985 0
M  V30 3882 N 360.656 0.0484629 -1.57525 0
M  V30 3883 C 361.896 0.748196 -1.90214 0
M  V30 3884 C 362.26 1.73545 -0.821347 0
M  V30 3885 O 363.461 2.48201 -1.03198 0
M  V30 3886 C 361.732 1.41727 -3.28098 0
M  V30 3887 S 363.291 2.14884 -3.82584 0
M  V30 3888 H 360.109 0.248307 -0.666232 0
M  V30 3889 H 362.711 0.00343188 -1.955 0
M  V30 3890 H 361.415 0.685244 -4.04639 0
M  V30 3891 H 360.946 2.20099 -3.26068 0
M  V30 3892 H 362.961 3.41755 -3.59747 0
M  V30 3893 N 362.134 1.5431 0.320358 0
M  V30 3894 C 363.084 1.803 1.39556 0
M  V30 3895 C 364.068 0.659166 1.46778 0
M  V30 3896 O 365.26 0.91926 1.51257 0
M  V30 3897 C 362.389 2.03665 2.76361 0
M  V30 3898 C 361.475 3.24178 2.73439 0
M  V30 3899 N 361.866 4.4516 2.40137 0
M  V30 3900 C 360.164 3.25816 3.04565 0
M  V30 3901 C 360.865 5.27109 2.4603 0
M  V30 3902 N 359.841 4.64368 2.82601 0
M  V30 3903 H 363.643 2.71416 1.12742 0
M  V30 3904 H 361.157 1.53548 0.528856 0
M  V30 3905 H 363.154 2.20425 3.53862 0
M  V30 3906 H 361.814 1.13805 3.04103 0
M  V30 3907 H 362.825 4.72104 2.12927 0
M  V30 3908 H 359.502 2.46001 3.37328 0
M  V30 3909 H 360.892 6.33728 2.23246 0
M  V30 3910 N 363.613 -0.582584 1.46437 0
M  V30 3911 C 365.024 -1.1647 1.45916 0
M  V30 3912 C 365.375 -1.95177 0.200077 0
M  V30 3913 O 364.5 -2.04874 -0.696819 0
M  V30 3914 C 365.095 -2.11885 2.64367 0
M  V30 3915 C 363.654 -2.65421 2.66887 0
M  V30 3916 C 362.801 -1.41294 2.38603 0
M  V30 3917 H 365.752 -0.370514 1.54314 0
M  V30 3918 H 365.773 -2.9535 2.39892 0
M  V30 3919 H 365.285 -1.54573 3.5599 0
M  V30 3920 H 363.386 -3.26602 1.79338 0
M  V30 3921 H 363.499 -3.08147 3.66854 0
M  V30 3922 H 361.863 -1.71109 1.88663 0
M  V30 3923 H 362.646 -0.858125 3.32402 0
M  V30 3924 N 365.091 -1.34144 -0.827227 0
M  V30 3925 C 366.021 -1.28005 -1.95287 0
M  V30 3926 C 367.002 -0.158321 -1.69362 0
M  V30 3927 O 368.187 -0.349987 -1.9102 0
M  V30 3928 C 365.317 -1.03036 -3.31664 0
M  V30 3929 C 364.271 -2.11628 -3.72019 0
M  V30 3930 C 363.597 -1.71854 -5.0633 0
M  V30 3931 C 364.897 -3.53417 -3.8457 0
M  V30 3932 H 366.591 -2.22187 -2.00682 0
M  V30 3933 H 364.137 -1.0696 -0.964135 0
M  V30 3934 H 366.09 -0.973863 -4.09993 0
M  V30 3935 H 364.814 -0.0529391 -3.26557 0
M  V30 3936 H 363.473 -2.16339 -2.95961 0
M  V30 3937 H 363.121 -0.727841 -4.97706 0
M  V30 3938 H 362.821 -2.44531 -5.34302 0
M  V30 3939 H 364.345 -1.67692 -5.87122 0
M  V30 3940 H 365.759 -3.51142 -4.5318 0
M  V30 3941 H 364.156 -4.24679 -4.2399 0
M  V30 3942 H 365.226 -3.91072 -2.86689 0
M  V30 3943 N 366.569 1.04691 -1.17803 0
M  V30 3944 C 367.797 1.81446 -0.99423 0
M  V30 3945 C 368.212 1.83174 0.457459 0
M  V30 3946 O 367.569 1.26265 1.31771 0
M  V30 3947 C 367.62 3.27334 -1.5341 0
M  V30 3948 O 367.341 3.25798 -2.92895 0
M  V30 3949 C 368.842 4.20759 -1.39559 0
M  V30 3950 H 366.062 0.571599 -0.351447 0
M  V30 3951 H 368.606 1.31982 -1.56208 0
M  V30 3952 H 366.761 3.74052 -1.00815 0
M  V30 3953 H 367.175 4.17144 -3.17949 0
M  V30 3954 H 368.649 5.21084 -1.82141 0
M  V30 3955 H 369.126 4.37856 -0.343394 0
M  V30 3956 H 369.732 3.79901 -1.91195 0
M  V30 3957 N 368.047 0.979072 1.23499 0
M  V30 3958 C 368.98 0.463027 2.23453 0
M  V30 3959 C 369.958 -0.469128 1.55685 0
M  V30 3960 O 371.142 -0.397882 1.84253 0
M  V30 3961 C 368.269 -0.330308 3.37086 0
M  V30 3962 C 367.315 0.545795 4.22993 0
M  V30 3963 S 368.148 1.99285 4.97037 0
M  V30 3964 C 369.304 1.20862 6.1412 0
M  V30 3965 H 369.537 1.31005 2.6688 0
M  V30 3966 H 367.07 0.784965 1.32957 0
M  V30 3967 H 369.028 -0.782027 4.02982 0
M  V30 3968 H 367.689 -1.15244 2.92194 0
M  V30 3969 H 366.882 -0.0638928 5.03959 0
M  V30 3970 H 366.484 0.933705 3.62157 0
M  V30 3971 H 368.776 0.469284 6.75873 0
M  V30 3972 H 369.719 1.99307 6.79472 0
M  V30 3973 H 370.127 0.727992 5.59786 0
M  V30 3974 N 369.525 -1.3858 0.750561 0
M  V30 3975 C 370.753 -2.04471 0.316098 0
M  V30 3976 C 371.168 -1.56606 -1.05452 0
M  V30 3977 O 370.525 -0.737784 -1.66922 0
M  V30 3978 C 370.576 -3.60025 0.326275 0
M  V30 3979 O 370.297 -4.06133 1.6428 0
M  V30 3980 C 371.798 -4.43131 -0.122429 0
M  V30 3981 H 369.018 -0.65717 0.135528 0
M  V30 3982 H 371.562 -1.77329 1.01857 0
M  V30 3983 H 369.717 -3.86014 -0.327431 0
M  V30 3984 H 370.131 -5.00547 1.56693 0
M  V30 3985 H 371.605 -5.51963 -0.0641473 0
M  V30 3986 H 372.082 -4.23333 -1.16988 0
M  V30 3987 H 372.688 -4.22323 0.50229 0
M  V30 3988 N 371.003 -0.499398 -1.49478 0
M  V30 3989 C 372.28 0.108629 -1.95298 0
M  V30 3990 C 372.66 1.54282 -1.44084 0
M  V30 3991 O 372.008 2.18944 -0.653908 0
M  V30 3992 C 372.218 0.0229111 -3.48992 0
M  V30 3993 C 373.566 0.197643 -4.2414 0
M  V30 3994 O 374.59 0.0981735 -3.56065 0
M  V30 3995 O 373.449 0.401669 -5.45022 0
M  V30 3996 H 370.543 0.096181 -0.821388 0
M  V30 3997 H 373.089 -0.561822 -1.6013 0
M  V30 3998 H 371.861 -0.977321 -3.78899 0
M  V30 3999 H 371.484 0.733579 -3.90774 0
M  V30 4000 N 372.481 1.55866 -0.233164 0
M  V30 4001 C 373.892 1.847 0.272554 0
M  V30 4002 C 374.243 1.15477 1.58617 0
M  V30 4003 O 373.368 0.42841 2.12117 0
M  V30 4004 C 373.963 3.35071 0.501299 0
M  V30 4005 C 372.522 3.6418 0.951304 0
M  V30 4006 C 371.669 2.77292 0.0208209 0
M  V30 4007 H 374.62 1.52005 -0.456074 0
M  V30 4008 H 374.641 3.55906 1.34577 0
M  V30 4009 H 374.153 3.85424 -0.454936 0
M  V30 4010 H 372.254 3.19293 1.92049 0
M  V30 4011 H 372.367 4.72071 0.817675 0
M  V30 4012 H 370.731 2.49131 0.529723 0
M  V30 4013 H 371.514 3.30448 -0.93054 0
M  V30 4014 N 373.959 -0.0401083 1.57549 0
M  V30 4015 C 375.208 -0.732108 1.87944 0
M  V30 4016 C 375.521 -1.77107 0.830206 0
M  V30 4017 O 376.727 -2.51488 1.02302 0
M  V30 4018 C 375.183 -1.35315 3.33494 0
M  V30 4019 C 374.791 -0.351105 4.46622 0
M  V30 4020 C 376.535 -2.02566 3.73051 0
M  V30 4021 C 374.442 -0.979859 5.83226 0
M  V30 4022 H 373.372 -0.277188 0.701201 0
M  V30 4023 H 376.023 0.0138501 1.83495 0
M  V30 4024 H 374.405 -2.14844 3.32653 0
M  V30 4025 H 375.579 0.416674 4.58912 0
M  V30 4026 H 373.894 0.218708 4.15825 0
M  V30 4027 H 376.491 -2.50441 4.72423 0
M  V30 4028 H 376.834 -2.83904 3.04474 0
M  V30 4029 H 377.367 -1.29827 3.76018 0
M  V30 4030 H 374.106 -0.206135 6.55176 0
M  V30 4031 H 373.626 -1.71774 5.74677 0
M  V30 4032 H 375.305 -1.49046 6.29599 0
M  V30 4033 N 375.437 -1.54477 -0.31217 0
M  V30 4034 C 376.347 -1.87695 -1.4074 0
M  V30 4035 C 377.363 -0.769975 -1.56036 0
M  V30 4036 O 378.539 -1.06537 -1.70915 0
M  V30 4037 C 375.604 -2.10755 -2.75287 0
M  V30 4038 C 374.665 -3.34514 -2.69071 0
M  V30 4039 C 373.898 -3.56465 -3.97201 0
M  V30 4040 O 374.121 -2.81637 -4.96021 0
M  V30 4041 O 373.055 -4.49964 -3.9977 0
M  V30 4042 H 376.881 -2.80849 -1.15574 0
M  V30 4043 H 374.466 -1.40526 -0.507228 0
M  V30 4044 H 376.348 -2.27188 -3.54913 0
M  V30 4045 H 375.023 -1.20788 -3.0032 0
M  V30 4046 H 373.93 -3.23456 -1.87955 0
M  V30 4047 H 375.263 -4.24575 -2.48992 0
M  V30 4048 N 376.915 0.57481 -1.46744 0
M  V30 4049 C 377.825 1.711 -1.60505 0
M  V30 4050 C 378.841 1.67008 -0.488307 0
M  V30 4051 O 380.017 1.86774 -0.753495 0
M  V30 4052 C 377.082 3.07608 -1.59932 0
M  V30 4053 C 376.143 3.22904 -2.82898 0
M  V30 4054 C 375.376 4.529 -2.82343 0
M  V30 4055 O 375.599 5.37278 -1.91542 0
M  V30 4056 O 374.533 4.71611 -3.73987 0
M  V30 4057 H 378.359 1.62436 -2.56609 0
M  V30 4058 H 375.944 0.742779 -1.29627 0
M  V30 4059 H 377.826 3.88877 -1.62336 0
M  V30 4060 H 376.501 3.16692 -0.669898 0
M  V30 4061 H 375.408 2.41099 -2.86046 0
M  V30 4062 H 376.741 3.18715 -3.75076 0
M  V30 4063 N 378.394 1.34581 0.820102 0
M  V30 4064 C 379.344 1.22943 1.92013 0
M  V30 4065 C 380.328 0.127802 1.60392 0
M  V30 4066 O 381.52 0.357737 1.73347 0
M  V30 4067 C 378.649 0.989938 3.28717 0
M  V30 4068 C 377.735 2.13486 3.66449 0
M  V30 4069 N 378.126 3.38625 3.75722 0
M  V30 4070 C 376.424 2.04573 3.96315 0
M  V30 4071 C 377.125 4.13832 4.08801 0
M  V30 4072 N 376.101 3.42451 4.22171 0
M  V30 4073 H 379.903 2.17771 1.97365 0
M  V30 4074 H 377.417 1.2686 1.01392 0
M  V30 4075 H 379.414 0.887462 4.07345 0
M  V30 4076 H 378.074 0.0503691 3.24661 0
M  V30 4077 H 379.085 3.73143 3.59144 0
M  V30 4078 H 375.762 1.1839 4.00362 0
M  V30 4079 H 377.152 5.21909 4.23156 0
M  V30 4080 N 379.872 -1.04064 1.18357 0
M  V30 4081 C 381.288 -1.2947 0.933258 0
M  V30 4082 C 381.488 -1.97466 -0.401169 0
M  V30 4083 O 380.544 -2.25528 -1.13549 0
M  V30 4084 C 381.857 -2.15337 2.09882 0
M  V30 4085 C 383.405 -2.28683 2.13712 0
M  V30 4086 C 383.88 -3.17917 3.29686 0
M  V30 4087 N 385.371 -3.25504 3.29547 0
M  V30 4088 C 386.106 -3.94706 4.15926 0
M  V30 4089 N 385.602 -4.66239 5.12439 0
M  V30 4090 N 387.395 -3.90986 4.0384 0
M  V30 4091 H 379.546 -0.583359 2.04232 0
M  V30 4092 H 381.809 -0.319921 0.892387 0
M  V30 4093 H 381.515 -1.72682 3.06389 0
M  V30 4094 H 381.389 -3.16015 2.05947 0
M  V30 4095 H 383.776 -2.70575 1.17784 0
M  V30 4096 H 383.857 -1.27596 2.21705 0
M  V30 4097 H 383.501 -2.76736 4.25887 0
M  V30 4098 H 383.431 -4.19036 3.1893 0
M  V30 4099 H 385.922 -2.74547 2.59677 0
M  V30 4100 H 386.235 -5.16638 5.74722 0
M  V30 4101 H 384.58 -4.65143 5.16398 0
M  V30 4102 H 387.771 -3.34234 3.27727 0
M  V30 4103 H 387.944 -4.44646 4.71375 0
M  V30 4104 N 381.35 -0.985608 -1.22978 0
M  V30 4105 C 382.599 -0.652881 -1.90841 0
M  V30 4106 C 382.912 0.817842 -1.77681 0
M  V30 4107 O 384.118 1.26185 -2.40395 0
M  V30 4108 C 382.574 -1.11717 -3.42122 0
M  V30 4109 C 382.182 -2.6126 -3.63933 0
M  V30 4110 C 383.926 -0.85843 -4.1573 0
M  V30 4111 C 381.833 -3.0133 -5.08876 0
M  V30 4112 H 380.763 -0.240491 -0.714619 0
M  V30 4113 H 383.414 -1.1942 -1.39324 0
M  V30 4114 H 381.796 -0.504027 -3.92779 0
M  V30 4115 H 382.97 -3.27858 -3.23799 0
M  V30 4116 H 381.285 -2.84937 -3.03644 0
M  V30 4117 H 383.882 -1.13359 -5.22546 0
M  V30 4118 H 384.225 0.205461 -4.15793 0
M  V30 4119 H 384.758 -1.43341 -3.71077 0
M  V30 4120 H 381.497 -4.06864 -5.13947 0
M  V30 4121 H 381.017 -2.3943 -5.49939 0
M  V30 4122 H 382.696 -2.92224 -5.77247 0
M  V30 4123 N 382.828 1.3818 -0.7579 0
M  V30 4124 C 384.068 2.01864 -0.320968 0
M  V30 4125 C 384.432 1.58863 1.07827 0
M  V30 4126 O 385.633 2.14908 1.61456 0
M  V30 4127 C 383.904 3.54626 -0.44446 0
M  V30 4128 S 385.463 4.38706 -0.0907467 0
M  V30 4129 H 382.281 0.700056 -0.124268 0
M  V30 4130 H 384.883 1.68611 -0.989468 0
M  V30 4131 H 383.587 3.83411 -1.4637 0
M  V30 4132 H 383.118 3.92661 0.241073 0
M  V30 4133 H 385.133 4.83435 1.11826 0
M  V30 4134 N 384.306 0.507319 1.49211 0
M  V30 4135 C 385.552 -0.0350047 2.0277 0
M  V30 4136 C 385.885 -1.3606 1.38569 0
M  V30 4137 O 385.16 -1.87321 0.523542 0
M  V30 4138 C 385.443 -0.180916 3.59645 0
M  V30 4139 C 385.296 1.16825 4.34364 0
M  V30 4140 C 386.615 -0.918558 4.30407 0
M  V30 4141 H 383.734 -0.0112473 0.736914 0
M  V30 4142 H 386.376 0.659956 1.7817 0
M  V30 4143 H 384.526 -0.772826 3.80736 0
M  V30 4144 H 386.198 1.79952 4.24753 0
M  V30 4145 H 384.441 1.75594 3.96673 0
M  V30 4146 H 385.112 1.01939 5.42506 0
M  V30 4147 H 387.588 -0.41649 4.1401 0
M  V30 4148 H 386.464 -0.989505 5.39907 0
M  V30 4149 H 386.725 -1.96373 3.96093 0
M  V30 4150 N 385.784 -1.5574 0.241426 0
M  V30 4151 C 387.024 -2.00714 -0.38644 0
M  V30 4152 C 387.388 -1.12586 -1.55526 0
M  V30 4153 O 388.589 -1.46992 -2.25048 0
M  V30 4154 C 386.86 -3.48534 -0.791128 0
M  V30 4155 S 388.419 -4.15519 -1.41029 0
M  V30 4156 H 385.237 -0.700484 -0.121834 0
M  V30 4157 H 387.839 -1.92243 0.355377 0
M  V30 4158 H 386.543 -4.10342 0.0689225 0
M  V30 4159 H 386.074 -3.6092 -1.56526 0
M  V30 4160 H 388.089 -4.16352 -2.69936 0
M  V30 4161 N 387.262 0.0317525 -1.57568 0
M  V30 4162 C 388.508 0.724175 -1.8943 0
M  V30 4163 C 388.841 1.75149 -0.838836 0
M  V30 4164 O 388.116 1.93948 0.146422 0
M  V30 4165 C 388.399 1.39615 -3.31933 0
M  V30 4166 C 388.252 0.382537 -4.4817 0
M  V30 4167 C 389.571 2.33084 -3.73309 0
M  V30 4168 H 386.69 0.261797 -0.688935 0
M  V30 4169 H 389.332 -0.013017 -1.89996 0
M  V30 4170 H 387.482 2.02451 -3.31581 0
M  V30 4171 H 389.154 -0.243689 -4.60656 0
M  V30 4172 H 387.397 -0.29844 -4.32772 0
M  V30 4173 H 388.068 0.891145 -5.44759 0
M  V30 4174 H 390.544 1.80295 -3.7501 0
M  V30 4175 H 389.42 2.77084 -4.73831 0
M  V30 4176 H 389.681 3.19643 -3.05419 0
M  V30 4177 N 388.74 1.54641 0.303973 0
M  V30 4178 C 390.156 1.45788 0.649463 0
M  V30 4179 C 390.356 0.64666 1.90842 0
M  V30 4180 O 389.412 0.153183 2.52035 0
M  V30 4181 C 390.725 2.89718 0.805227 0
M  V30 4182 C 392.273 2.99742 0.901305 0
M  V30 4183 C 392.748 4.44863 1.08909 0
M  V30 4184 N 394.239 4.48559 1.15536 0
M  V30 4185 C 394.974 5.58026 1.3189 0
M  V30 4186 N 394.47 6.77422 1.45161 0
M  V30 4187 N 396.263 5.45708 1.34755 0
M  V30 4188 H 388.414 2.05854 -0.523237 0
M  V30 4189 H 390.677 0.932186 -0.172431 0
M  V30 4190 H 390.383 3.51666 -0.0489108 0
M  V30 4191 H 390.257 3.36964 1.69513 0
M  V30 4192 H 392.644 2.3791 1.74593 0
M  V30 4193 H 392.725 2.55797 -0.0125531 0
M  V30 4194 H 392.369 5.07288 0.249241 0
M  V30 4195 H 392.299 4.86436 2.01713 0
M  V30 4196 H 394.79 3.6254 1.06646 0
M  V30 4197 H 395.103 7.56604 1.57387 0
M  V30 4198 H 393.448 6.80292 1.42223 0
M  V30 4199 H 396.639 4.51378 1.23996 0
M  V30 4200 H 396.812 6.3107 1.47157 0
M  V30 4201 N 390.218 -0.567019 1.47046 0
M  V30 4202 C 391.165 -1.67489 1.58796 0
M  V30 4203 C 392.135 -1.60399 0.43144 0
M  V30 4204 O 393.32 -1.79378 0.650233 0
M  V30 4205 C 390.46 -3.05821 1.59899 0
M  V30 4206 C 389.573 -3.2342 2.86397 0
M  V30 4207 C 388.708 -4.52093 2.789 0
M  V30 4208 C 387.747 -4.6309 4.00267 0
M  V30 4209 N 386.884 -5.83106 3.91064 0
M  V30 4210 H 391.724 -1.56785 2.53422 0
M  V30 4211 H 389.261 -0.763896 1.2571 0
M  V30 4212 H 391.219 -3.8591 1.58522 0
M  V30 4213 H 389.849 -3.15384 0.687929 0
M  V30 4214 H 388.901 -2.3683 2.97684 0
M  V30 4215 H 390.213 -3.27412 3.76301 0
M  V30 4216 H 389.367 -5.4043 2.75718 0
M  V30 4217 H 388.106 -4.50565 1.86662 0
M  V30 4218 H 387.111 -3.73168 4.03765 0
M  V30 4219 H 388.336 -4.66386 4.93621 0
M  V30 4220 H 386.282 -5.82546 3.01623 0
M  V30 4221 H 386.199 -5.88434 4.74638 0
M  V30 4222 H 387.467 -6.73831 3.91882 0
M  V30 4223 N 391.696 -1.35014 -0.812953 0
M  V30 4224 C 393.112 -1.14914 -1.10757 0
M  V30 4225 C 393.312 0.0426818 -2.01455 0
M  V30 4226 O 392.368 0.715212 -2.42159 0
M  V30 4227 C 393.681 -2.44911 -1.74468 0
M  V30 4228 C 395.229 -2.5106 -1.86917 0
M  V30 4229 C 395.704 -3.81085 -2.54044 0
M  V30 4230 N 397.195 -3.82301 -2.61535 0
M  V30 4231 C 397.93 -4.79634 -3.14227 0
M  V30 4232 N 397.426 -5.87353 -3.67407 0
M  V30 4233 N 399.219 -4.67078 -3.12721 0
M  V30 4234 H 391.37 -2.1136 -0.20989 0
M  V30 4235 H 393.633 -0.935128 -0.155692 0
M  V30 4236 H 393.339 -3.32267 -1.15289 0
M  V30 4237 H 393.213 -2.58989 -2.74234 0
M  V30 4238 H 395.6 -1.64137 -2.45241 0
M  V30 4239 H 395.681 -2.40901 -0.860242 0
M  V30 4240 H 395.325 -4.68402 -1.96372 0
M  V30 4241 H 395.255 -3.88529 -3.55461 0
M  V30 4242 H 397.746 -3.04465 -2.23851 0
M  V30 4243 H 398.059 -6.57624 -4.05894 0
M  V30 4244 H 396.404 -5.91054 -3.65623 0
M  V30 4245 H 399.595 -3.82067 -2.70449 0
M  V30 4246 H 399.768 -5.43098 -3.53481 0
M  V30 4247 N 393.175 1.03435 -1.18907 0
M  V30 4248 C 394.586 1.58195 -0.991523 0
M  V30 4249 C 394.937 1.90801 0.457081 0
M  V30 4250 O 394.062 1.70272 1.33553 0
M  V30 4251 C 394.657 2.87432 -1.79355 0
M  V30 4252 C 393.216 3.38785 -1.64017 0
M  V30 4253 C 392.363 2.12292 -1.78402 0
M  V30 4254 H 395.314 0.860299 -1.33359 0
M  V30 4255 H 395.335 3.58096 -1.28638 0
M  V30 4256 H 394.847 2.63669 -2.84781 0
M  V30 4257 H 392.948 3.67547 -0.611536 0
M  V30 4258 H 393.061 4.12186 -2.44212 0
M  V30 4259 H 391.425 2.23901 -1.2141 0
M  V30 4260 H 392.208 1.90977 -2.85277 0
M  V30 4261 N 394.653 0.992116 1.22453 0
M  V30 4262 C 395.583 0.561677 2.26644 0
M  V30 4263 C 396.564 -0.411055 1.65059 0
M  V30 4264 O 397.749 -0.301861 1.9184 0
M  V30 4265 C 394.879 -0.125247 3.47074 0
M  V30 4266 C 393.833 0.765948 4.21091 0
M  V30 4267 C 393.159 -0.0538484 5.34673 0
M  V30 4268 C 394.459 2.06242 4.79856 0
M  V30 4269 H 396.153 1.43259 2.62902 0
M  V30 4270 H 393.699 0.690283 1.26377 0
M  V30 4271 H 395.652 -0.437764 4.1912 0
M  V30 4272 H 394.376 -1.03069 3.0991 0
M  V30 4273 H 393.035 1.0621 3.50878 0
M  V30 4274 H 392.683 -0.960188 4.9375 0
M  V30 4275 H 392.383 0.539415 5.85119 0
M  V30 4276 H 393.907 -0.360477 6.09535 0
M  V30 4277 H 395.321 1.8139 5.43848 0
M  V30 4278 H 393.718 2.60444 5.40638 0
M  V30 4279 H 394.788 2.74167 3.99951 0
M  V30 4280 N 396.131 -1.37776 0.765217 0
M  V30 4281 C 397.079 -2.32209 0.134798 0
M  V30 4282 C 398.073 -1.54607 -0.692315 0
M  V30 4283 O 399.279 -1.70052 -0.590109 0
M  V30 4284 H 395.654 -0.751591 0.0248005 0
M  V30 4285 H 397.625 -2.8297 0.947119 0
M  V30 4286 C 396.374 -3.39841 -0.735063 0
M  V30 4287 H 395.697 -3.99654 -0.107991 0
M  V30 4288 H 397.137 -4.08296 -1.14326 0
M  V30 4289 C 395.596 -2.79378 -1.88281 0
M  V30 4290 O 396.126 -2.69608 -2.97783 0
M  V30 4291 N 394.332 -2.37016 -1.68142 0
M  V30 4292 H 393.879 -2.45162 -0.790772 0
M  V30 4293 H 393.837 -1.96905 -2.45104 0
M  V30 4294 N 397.609 -0.515225 -1.4894 0
M  V30 4295 C 398.556 0.255567 -2.29381 0
M  V30 4296 C 399.526 0.947387 -1.36432 0
M  V30 4297 O 400.711 0.951288 -1.65394 0
M  V30 4298 C 397.851 1.30551 -3.19453 0
M  V30 4299 C 396.964 0.624029 -4.27469 0
M  V30 4300 C 396.099 1.65563 -5.0474 0
M  V30 4301 C 395.138 0.956802 -6.04576 0
M  V30 4302 N 394.275 1.93326 -6.74959 0
M  V30 4303 H 399.115 -0.436607 -2.94784 0
M  V30 4304 H 396.652 -0.227154 -1.45336 0
M  V30 4305 H 398.61 1.92639 -3.70062 0
M  V30 4306 H 397.24 1.96626 -2.56004 0
M  V30 4307 H 396.292 -0.110459 -3.8024 0
M  V30 4308 H 397.604 0.0746092 -4.98744 0
M  V30 4309 H 396.758 2.35119 -5.59289 0
M  V30 4310 H 395.497 2.23893 -4.3327 0
M  V30 4311 H 394.502 0.247097 -5.49244 0
M  V30 4312 H 395.727 0.379814 -6.78037 0
M  V30 4313 H 393.673 2.50591 -6.06251 0
M  V30 4314 H 393.59 1.43489 -7.42258 0
M  V30 4315 H 394.858 2.62126 -7.34105 0
M  V30 4316 N 399.087 1.5561 -0.249682 0
M  V30 4317 C 400.019 2.18834 0.681496 0
M  V30 4318 C 401.032 1.16546 1.1367 0
M  V30 4319 O 402.221 1.43397 1.06299 0
M  V30 4320 C 399.321 2.77992 1.9384 0
M  V30 4321 C 398.494 4.05725 1.63419 0
M  V30 4322 C 397.553 4.49174 2.74096 0
M  V30 4323 O 396.579 5.15492 2.41364 0
M  V30 4324 N 397.781 4.17191 4.03649 0
M  V30 4325 H 400.546 2.9937 0.140514 0
M  V30 4326 H 398.107 1.6175 -0.0697541 0
M  V30 4327 H 400.099 3.04015 2.67127 0
M  V30 4328 H 398.669 2.01596 2.38909 0
M  V30 4329 H 397.889 3.87261 0.736358 0
M  V30 4330 H 399.177 4.88999 1.40562 0
M  V30 4331 H 398.575 3.63955 4.33074 0
M  V30 4332 H 397.132 4.48043 4.73393 0
M  V30 4333 N 400.565 -0.0233959 1.57583 0
M  V30 4334 C 401.475 -1.03907 2.10334 0
M  V30 4335 C 402.491 -1.39257 1.04323 0
M  V30 4336 O 403.667 -1.48462 1.36091 0
M  V30 4337 C 400.732 -2.31938 2.57693 0
M  V30 4338 C 399.793 -2.03117 3.78209 0
M  V30 4339 C 399.026 -3.25043 4.233 0
M  V30 4340 O 399.249 -4.35916 3.67876 0
M  V30 4341 O 398.183 -3.10411 5.15683 0
M  V30 4342 H 402.009 -0.620748 2.97288 0
M  V30 4343 H 399.594 -0.240743 1.47448 0
M  V30 4344 H 401.476 -3.07196 2.88458 0
M  V30 4345 H 400.151 -2.73055 1.73847 0
M  V30 4346 H 399.058 -1.25408 3.52454 0
M  V30 4347 H 400.391 -1.66852 4.63056 0
M  V30 4348 N 402.043 -1.548 -0.295768 0
M  V30 4349 C 402.973 -1.89115 -1.36959 0
M  V30 4350 C 403.954 -0.75059 -1.52644 0
M  V30 4351 O 405.139 -1.00678 -1.66065 0
M  V30 4352 C 402.269 -2.14307 -2.73295 0
M  V30 4353 C 401.223 -3.30151 -2.72368 0
M  V30 4354 C 400.549 -3.40772 -4.12042 0
M  V30 4355 C 401.849 -4.67126 -2.33646 0
M  V30 4356 H 403.543 -2.79053 -1.08488 0
M  V30 4357 H 401.089 -1.34266 -0.520443 0
M  V30 4358 H 403.042 -2.36898 -3.48507 0
M  V30 4359 H 401.766 -1.21145 -3.03301 0
M  V30 4360 H 400.425 -3.0749 -1.99613 0
M  V30 4361 H 400.073 -2.45117 -4.39234 0
M  V30 4362 H 399.773 -4.18645 -4.12322 0
M  V30 4363 H 401.297 -3.6563 -4.89027 0
M  V30 4364 H 402.711 -4.89414 -2.98575 0
M  V30 4365 H 401.108 -5.47751 -2.45129 0
M  V30 4366 H 402.178 -4.67489 -1.28772 0
M  V30 4367 N 403.521 0.559213 -1.47345 0
M  V30 4368 C 404.484 1.64854 -1.59235 0
M  V30 4369 C 405.484 1.53851 -0.467607 0
M  V30 4370 O 406.674 1.58045 -0.732617 0
M  V30 4371 C 403.806 3.04388 -1.53496 0
M  V30 4372 H 404.999 1.55662 -2.56339 0
M  V30 4373 H 402.552 0.778973 -1.35505 0
M  V30 4374 H 403.287 3.19115 -0.577604 0
M  V30 4375 H 403.072 3.13783 -2.35123 0
M  V30 4376 H 404.562 3.83642 -1.6495 0
M  V30 4377 N 404.999 1.35443 0.805782 0
M  V30 4378 C 405.946 1.28431 1.91766 0
M  V30 4379 C 406.916 0.156102 1.65365 0
M  V30 4380 O 408.101 0.339936 1.87747 0
M  V30 4381 C 405.241 1.06301 3.2832 0
M  V30 4382 C 404.354 2.2805 3.66902 0
M  V30 4383 C 403.489 1.99064 4.92491 0
M  V30 4384 C 402.528 3.16863 5.23703 0
M  V30 4385 N 401.665 2.87647 6.40471 0
M  V30 4386 H 406.505 2.23511 1.97096 0
M  V30 4387 H 404.042 1.11105 0.964054 0
M  V30 4388 H 406 0.915012 4.07042 0
M  V30 4389 H 404.63 0.148822 3.22457 0
M  V30 4390 H 403.682 2.53711 2.83434 0
M  V30 4391 H 404.994 3.1601 3.85927 0
M  V30 4392 H 404.148 1.81099 5.7904 0
M  V30 4393 H 402.887 1.0839 4.75503 0
M  V30 4394 H 401.892 3.35404 4.35642 0
M  V30 4395 H 403.117 4.08339 5.4262 0
M  V30 4396 H 401.063 1.99568 6.24907 0
M  V30 4397 H 400.98 3.69141 6.59751 0
M  V30 4398 H 402.248 2.73226 7.30047 0
M  V30 4399 N 406.477 -1.02803 1.19454 0
M  V30 4400 C 407.424 -2.11099 0.933046 0
M  V30 4401 C 408.394 -1.65571 -0.132447 0
M  V30 4402 O 409.579 -1.90797 0.00987576 0
M  V30 4403 C 406.719 -3.41763 0.478747 0
M  V30 4404 C 405.832 -4.00833 1.6111 0
M  V30 4405 C 404.967 -5.19511 1.10825 0
M  V30 4406 C 404.006 -5.70639 2.21445 0
M  V30 4407 N 403.143 -6.80589 1.72461 0
M  V30 4408 H 407.983 -2.32804 1.86028 0
M  V30 4409 H 405.52 -1.14179 0.927441 0
M  V30 4410 H 407.478 -4.16736 0.196745 0
M  V30 4411 H 406.108 -3.20166 -0.411493 0
M  V30 4412 H 405.16 -3.23066 2.00829 0
M  V30 4413 H 406.472 -4.34794 2.4445 0
M  V30 4414 H 405.626 -6.01645 0.781533 0
M  V30 4415 H 404.365 -4.87086 0.244606 0
M  V30 4416 H 403.37 -4.87116 2.54947 0
M  V30 4417 H 404.595 -6.05102 3.08267 0
M  V30 4418 H 402.541 -6.50016 0.884056 0
M  V30 4419 H 402.458 -7.13681 2.49389 0
M  V30 4420 H 403.726 -7.66317 1.42755 0
M  V30 4421 N 407.956 -0.998596 -1.21925 0
M  V30 4422 C 408.866 -0.562736 -2.27751 0
M  V30 4423 C 409.882 0.391203 -1.69545 0
M  V30 4424 O 411.058 0.256625 -1.99758 0
M  V30 4425 C 408.123 0.11012 -3.46525 0
M  V30 4426 C 407.184 -0.887495 -4.20026 0
M  V30 4427 C 406.417 -0.246654 -5.3313 0
M  V30 4428 O 406.64 0.958088 -5.62296 0
M  V30 4429 O 405.574 -0.954374 -5.94286 0
M  V30 4430 H 409.4 -1.44329 -2.67213 0
M  V30 4431 H 406.985 -0.767135 -1.28201 0
M  V30 4432 H 408.867 0.486756 -4.18579 0
M  V30 4433 H 407.542 0.965154 -3.08976 0
M  V30 4434 H 406.449 -1.31517 -3.5022 0
M  V30 4435 H 407.782 -1.71191 -4.6147 0
M  V30 4436 N 409.434 1.37368 -0.772513 0
M  V30 4437 C 410.683 1.98918 -0.333861 0
M  V30 4438 C 410.996 1.62017 1.09589 0
M  V30 4439 O 412.202 2.16676 1.63596 0
M  V30 4440 C 410.658 3.55735 -0.545971 0
M  V30 4441 C 410.266 4.01573 -1.98603 0
M  V30 4442 C 412.01 4.24156 -0.170979 0
M  V30 4443 C 409.917 5.51102 -2.1457 0
M  V30 4444 H 408.847 0.744214 -0.121085 0
M  V30 4445 H 411.498 1.56888 -0.95175 0
M  V30 4446 H 409.88 3.95748 0.141387 0
M  V30 4447 H 411.054 3.72803 -2.7084 0
M  V30 4448 H 409.369 3.45937 -2.31769 0
M  V30 4449 H 411.966 5.34024 -0.26878 0
M  V30 4450 H 412.309 4.06917 0.878855 0
M  V30 4451 H 412.842 3.89447 -0.810914 0
M  V30 4452 H 409.581 5.73268 -3.17875 0
M  V30 4453 H 409.101 5.81554 -1.46817 0
M  V30 4454 H 410.78 6.17083 -1.94468 0
M  V30 4455 N 410.912 0.523116 1.48665 0
M  V30 4456 C 412.189 -0.0775449 1.95446 0
M  V30 4457 C 412.569 -1.5197 1.4652 0
M  V30 4458 O 411.917 -2.17876 0.688657 0
M  V30 4459 C 412.127 0.0326135 3.48985 0
M  V30 4460 C 413.475 -0.130141 4.24401 0
M  V30 4461 O 414.499 -0.0415142 3.56176 0
M  V30 4462 O 413.358 -0.31491 5.45592 0
M  V30 4463 H 410.452 -0.0831012 0.822814 0
M  V30 4464 H 412.998 0.587227 1.59216 0
M  V30 4465 H 411.77 1.03748 3.77296 0
M  V30 4466 H 411.393 -0.671317 3.91892 0
M  V30 4467 N 412.39 -1.55475 0.257931 0
M  V30 4468 C 413.636 -1.99502 -0.364266 0
M  V30 4469 C 413.969 -1.146 -1.56782 0
M  V30 4470 O 413.244 -0.211968 -1.93342 0
M  V30 4471 C 413.527 -3.51917 -0.763333 0
M  V30 4472 C 413.38 -4.4758 0.446371 0
M  V30 4473 C 414.699 -4.09742 -1.60623 0
M  V30 4474 H 411.818 -0.725277 -0.130929 0
M  V30 4475 H 414.46 -1.8653 0.361446 0
M  V30 4476 H 412.61 -3.63101 -1.38166 0
M  V30 4477 H 414.282 -4.48362 1.08487 0
M  V30 4478 H 412.525 -4.19947 1.08753 0
M  V30 4479 H 413.196 -5.51862 0.123645 0
M  V30 4480 H 415.672 -4.01727 -1.08418 0
M  V30 4481 H 414.548 -5.16631 -1.85429 0
M  V30 4482 H 414.809 -3.58889 -2.58169 0
M  V30 4483 N 413.868 0.0150385 -1.57593 0
M  V30 4484 C 415.117 0.702115 -1.89085 0
M  V30 4485 C 415.43 1.75764 -0.858277 0
M  V30 4486 O 416.636 2.49829 -1.0629 0
M  V30 4487 C 415.092 1.29992 -3.35604 0
M  V30 4488 C 414.7 0.280007 -4.47124 0
M  V30 4489 C 416.444 1.96606 -3.76227 0
M  V30 4490 C 414.351 0.886949 -5.84711 0
M  V30 4491 H 413.281 0.265997 -0.705522 0
M  V30 4492 H 415.932 -0.0430408 -1.8345 0
M  V30 4493 H 414.314 2.09525 -3.36029 0
M  V30 4494 H 415.488 -0.489631 -4.58191 0
M  V30 4495 H 413.803 -0.284835 -4.15425 0
M  V30 4496 H 416.4 2.42893 -4.76347 0
M  V30 4497 H 416.743 2.79024 -3.08952 0
M  V30 4498 H 417.276 1.23828 -3.78036 0
M  V30 4499 H 414.015 0.101876 -6.55421 0
M  V30 4500 H 413.535 1.6261 -5.77337 0
M  V30 4501 H 415.214 1.39011 -6.3189 0
M  V30 4502 N 415.346 1.54954 0.287554 0
M  V30 4503 C 416.571 1.79209 1.04397 0
M  V30 4504 C 416.996 0.556431 1.79682 0
M  V30 4505 O 416.354 -0.493518 1.74454 0
M  V30 4506 C 416.402 3.00739 1.98969 0
M  V30 4507 O 415.506 2.74805 3.075 0
M  V30 4508 H 414.847 0.592755 0.299227 0
M  V30 4509 H 417.377 2.02068 0.320886 0
M  V30 4510 H 417.387 3.29077 2.4119 0
M  V30 4511 H 416.062 3.90329 1.43582 0
M  V30 4512 H 414.639 2.57523 2.69697 0
M  V30 4513 N 416.824 -0.551391 1.4764 0
M  V30 4514 C 418.073 -1.30467 1.53822 0
M  V30 4515 C 418.386 -1.94495 0.207661 0
M  V30 4516 O 419.592 -2.71099 0.147533 0
M  V30 4517 C 418.048 -2.36616 2.71184 0
M  V30 4518 C 417.656 -1.78754 4.10793 0
M  V30 4519 C 419.4 -3.13088 2.86663 0
M  V30 4520 C 417.307 -2.82717 5.19447 0
M  V30 4521 H 416.237 -0.490584 0.572576 0
M  V30 4522 H 418.888 -0.58494 1.73927 0
M  V30 4523 H 417.27 -3.11529 2.4447 0
M  V30 4524 H 418.444 -1.10173 4.47435 0
M  V30 4525 H 416.759 -1.14846 4.00249 0
M  V30 4526 H 419.356 -3.90736 3.65007 0
M  V30 4527 H 419.699 -3.67635 1.95321 0
M  V30 4528 H 420.232 -2.45288 3.13175 0
M  V30 4529 H 416.971 -2.33018 6.12685 0
M  V30 4530 H 416.491 -3.4969 4.87316 0
M  V30 4531 H 418.17 -3.46102 5.46646 0
M  V30 4532 N 418.302 -1.35869 -0.798587 0
M  V30 4533 C 419.713 -1.26498 -1.37314 0
M  V30 4534 C 420.064 0.0991899 -1.95949 0
M  V30 4535 O 419.189 1.0004 -1.91888 0
M  V30 4536 C 419.784 -2.29054 -2.49639 0
M  V30 4537 C 418.343 -2.234 -3.02935 0
M  V30 4538 C 417.49 -2.14329 -1.75949 0
M  V30 4539 H 420.441 -1.46881 -0.600971 0
M  V30 4540 H 420.462 -1.92166 -3.28409 0
M  V30 4541 H 419.974 -3.2833 -2.06933 0
M  V30 4542 H 418.075 -1.27562 -3.50084 0
M  V30 4543 H 418.188 -3.15703 -3.60372 0
M  V30 4544 H 416.552 -1.60435 -1.9782 0
M  V30 4545 H 417.335 -3.15477 -1.35384 0
M  V30 4546 N 419.78 1.02168 -1.19998 0
M  V30 4547 C 421.005 1.79833 -1.03319 0
M  V30 4548 C 421.43 1.83504 0.413281 0
M  V30 4549 O 420.788 1.26635 1.29743 0
M  V30 4550 C 420.836 3.22396 -1.61533 0
M  V30 4551 O 419.94 4.03555 -0.849519 0
M  V30 4552 H 419.281 0.554872 -0.364709 0
M  V30 4553 H 421.811 1.28542 -1.59179 0
M  V30 4554 H 421.821 3.73124 -1.65054 0
M  V30 4555 H 420.496 3.19039 -2.66809 0
M  V30 4556 H 419.073 3.62169 -0.888129 0
M  V30 4557 N 421.258 1.00505 1.21394 0
M  V30 4558 C 422.205 0.565496 2.23765 0
M  V30 4559 C 423.175 -0.408466 1.60999 0
M  V30 4560 O 424.36 -0.310503 1.88257 0
M  V30 4561 C 421.5 -0.101667 3.4495 0
M  V30 4562 C 420.613 0.915479 4.22188 0
M  V30 4563 C 419.748 0.220574 5.30742 0
M  V30 4564 C 418.787 1.22527 5.99711 0
M  V30 4565 N 417.924 0.557831 6.9988 0
M  V30 4566 H 422.764 1.44314 2.60725 0
M  V30 4567 H 420.301 0.722643 1.28126 0
M  V30 4568 H 422.259 -0.505504 4.14126 0
M  V30 4569 H 420.889 -0.94303 3.08718 0
M  V30 4570 H 419.941 1.43756 3.52191 0
M  V30 4571 H 421.253 1.68005 4.69655 0
M  V30 4572 H 420.407 -0.239368 6.06228 0
M  V30 4573 H 419.146 -0.576401 4.84282 0
M  V30 4574 H 418.151 1.69571 5.22997 0
M  V30 4575 H 419.376 2.02332 6.48258 0
M  V30 4576 H 417.322 -0.219486 6.55633 0
M  V30 4577 H 417.239 1.26065 7.45415 0
M  V30 4578 H 418.507 0.121095 7.79406 0
M  V30 4579 N 422.737 -1.36956 0.779787 0
M  V30 4580 C 423.977 -2.01328 0.353043 0
M  V30 4581 C 424.341 -1.60558 -1.05286 0
M  V30 4582 O 425.542 -2.1745 -1.58016 0
M  V30 4583 C 423.813 -3.53874 0.500822 0
M  V30 4584 S 425.372 -4.38506 0.16053 0
M  V30 4585 H 422.19 -0.69799 0.13539 0
M  V30 4586 H 424.792 -1.67016 1.01617 0
M  V30 4587 H 423.496 -3.81034 1.52451 0
M  V30 4588 H 423.027 -3.92994 -0.178574 0
M  V30 4589 H 425.042 -4.85153 -1.04121 0
M  V30 4590 N 424.215 -0.530993 -1.48385 0
M  V30 4591 C 425.145 0.219985 -2.32461 0
M  V30 4592 C 426.126 0.934111 -1.42156 0
M  V30 4593 O 427.311 0.919694 -1.71042 0
M  V30 4594 C 424.441 1.26674 -3.23375 0
M  V30 4595 C 423.395 0.67069 -4.22712 0
M  V30 4596 C 422.721 1.82017 -5.02766 0
M  V30 4597 C 424.021 -0.358268 -5.2107 0
M  V30 4598 H 425.715 -0.48187 -2.95497 0
M  V30 4599 H 423.261 -0.233182 -1.42099 0
M  V30 4600 H 425.214 1.80006 -3.81019 0
M  V30 4601 H 423.938 1.99818 -2.58341 0
M  V30 4602 H 422.597 0.158878 -3.66256 0
M  V30 4603 H 422.245 2.54002 -4.34157 0
M  V30 4604 H 421.945 1.42727 -5.70003 0
M  V30 4605 H 423.469 2.35725 -5.63264 0
M  V30 4606 H 424.883 0.0880081 -5.73232 0
M  V30 4607 H 423.28 -0.66861 -5.96364 0
M  V30 4608 H 424.35 -1.26367 -4.68145 0
M  V30 4609 N 425.693 1.55336 -0.266172 0
M  V30 4610 C 426.623 2.25146 0.618981 0
M  V30 4611 C 427.604 1.23845 1.16604 0
M  V30 4612 O 428.789 1.52544 1.20183 0
M  V30 4613 C 425.919 2.96572 1.80728 0
M  V30 4614 C 424.873 4.04726 1.39215 0
M  V30 4615 C 424.199 4.63678 2.66283 0
M  V30 4616 C 425.499 5.19407 0.548942 0
M  V30 4617 H 427.193 2.99377 0.0368116 0
M  V30 4618 H 424.739 1.43991 0.0162651 0
M  V30 4619 H 426.692 3.44116 2.43232 0
M  V30 4620 H 425.416 2.19861 2.41514 0
M  V30 4621 H 424.075 3.57979 0.790351 0
M  V30 4622 H 423.723 3.83646 3.25308 0
M  V30 4623 H 423.423 5.367 2.39222 0
M  V30 4624 H 424.947 5.13967 3.29651 0
M  V30 4625 H 426.361 5.63059 1.07876 0
M  V30 4626 H 424.758 5.98936 0.373593 0
M  V30 4627 H 425.828 4.8295 -0.434394 0
M  V30 4628 N 427.171 -0.0066808 1.57599 0
M  V30 4629 C 428.101 -0.999296 2.11036 0
M  V30 4630 C 429.082 -1.36278 1.01795 0
M  V30 4631 O 430.267 -1.4477 1.29442 0
M  V30 4632 C 427.397 -2.29328 2.60818 0
M  V30 4633 C 426.351 -2.07159 3.74525 0
M  V30 4634 C 425.677 -3.42512 4.10596 0
M  V30 4635 C 426.977 -1.43959 5.02069 0
M  V30 4636 H 428.671 -0.554382 2.94223 0
M  V30 4637 H 426.217 -0.265221 1.41536 0
M  V30 4638 H 428.17 -2.99117 2.96828 0
M  V30 4639 H 426.894 -2.7592 1.74745 0
M  V30 4640 H 425.553 -1.39797 3.38899 0
M  V30 4641 H 425.201 -3.86795 3.21556 0
M  V30 4642 H 424.901 -3.28498 4.87199 0
M  V30 4643 H 426.425 -4.13628 4.4916 0
M  V30 4644 H 427.839 -2.03696 5.35893 0
M  V30 4645 H 426.236 -1.40452 5.83432 0
M  V30 4646 H 427.306 -0.407992 4.83181 0
M  V30 4647 N 428.649 -1.55105 -0.279332 0
M  V30 4648 C 429.895 -1.75672 -1.01327 0
M  V30 4649 C 430.228 -0.552739 -1.86168 0
M  V30 4650 O 429.503 0.449827 -1.89227 0
M  V30 4651 C 429.786 -3.05825 -1.90114 0
M  V30 4652 C 429.639 -4.36565 -1.08309 0
M  V30 4653 C 430.958 -3.31975 -2.8893 0
M  V30 4654 H 428.077 -0.639149 -0.366957 0
M  V30 4655 H 430.719 -1.87833 -0.286154 0
M  V30 4656 H 428.869 -2.95588 -2.52111 0
M  V30 4657 H 430.541 -4.58751 -0.484314 0
M  V30 4658 H 428.784 -4.32076 -0.386362 0
M  V30 4659 H 429.455 -5.23946 -1.73737 0
M  V30 4660 H 431.931 -3.41963 -2.37067 0
M  V30 4661 H 430.807 -4.2432 -3.48201 0
M  V30 4662 H 431.068 -2.51309 -3.63725 0
M  V30 4663 N 430.127 0.543554 -1.4793 0
M  V30 4664 C 431.077 1.64527 -1.57844 0
M  V30 4665 C 432.061 1.54869 -0.436408 0
M  V30 4666 O 433.253 1.63119 -0.687101 0
M  V30 4667 C 430.382 3.03281 -1.6086 0
M  V30 4668 C 429.468 3.18093 -2.80495 0
M  V30 4669 N 429.859 3.02923 -4.05057 0
M  V30 4670 C 428.157 3.49121 -2.77543 0
M  V30 4671 C 428.858 3.20791 -4.85251 0
M  V30 4672 N 427.834 3.47749 -4.17818 0
M  V30 4673 H 431.636 1.51388 -2.5191 0
M  V30 4674 H 429.15 0.748671 -1.44113 0
M  V30 4675 H 431.147 3.82403 -1.66054 0
M  V30 4676 H 429.807 3.17521 -0.678996 0
M  V30 4677 H 430.818 2.79966 -4.35705 0
M  V30 4678 H 427.495 3.69804 -1.93781 0
M  V30 4679 H 428.885 3.13915 -5.9406 0
M  V30 4680 N 431.605 1.3629 0.791371 0
M  V30 4681 C 432.515 1.32606 1.93527 0
M  V30 4682 C 433.531 0.228541 1.72493 0
M  V30 4683 O 434.707 0.460571 1.96063 0
M  V30 4684 C 431.772 1.11271 3.28359 0
M  V30 4685 C 430.833 2.3048 3.62185 0
M  V30 4686 C 430.066 2.10154 4.90583 0
M  V30 4687 O 430.289 1.07572 5.60165 0
M  V30 4688 O 429.223 2.97884 5.23019 0
M  V30 4689 H 433.049 2.28909 1.99585 0
M  V30 4690 H 430.634 1.16818 0.931344 0
M  V30 4691 H 432.516 1.01283 4.09047 0
M  V30 4692 H 431.191 0.180292 3.23198 0
M  V30 4693 H 430.098 2.46036 2.81811 0
M  V30 4694 H 431.431 3.22221 3.72068 0
M  V30 4695 N 433.083 -1.0153 1.20538 0
M  V30 4696 C 434.494 -1.56598 1.01657 0
M  V30 4697 C 434.845 -1.91505 -0.426668 0
M  V30 4698 O 433.97 -1.72375 -1.30827 0
M  V30 4699 C 434.565 -2.84542 1.83905 0
M  V30 4700 C 433.124 -3.36133 1.69386 0
M  V30 4701 C 432.271 -2.09427 1.81757 0
M  V30 4702 H 435.222 -0.838974 1.34711 0
M  V30 4703 H 435.243 -3.56004 1.34319 0
M  V30 4704 H 434.755 -2.59105 2.8894 0
M  V30 4705 H 432.856 -3.66528 0.669933 0
M  V30 4706 H 432.969 -4.08248 2.50739 0
M  V30 4707 H 431.333 -2.21941 1.24957 0
M  V30 4708 H 432.116 -1.86414 2.88279 0
M  V30 4709 N 434.561 -1.01147 -1.20859 0
M  V30 4710 C 435.508 -0.577354 -2.23462 0
M  V30 4711 C 436.478 0.399922 -1.61214 0
M  V30 4712 O 437.663 0.300515 -1.88419 0
M  V30 4713 C 434.803 0.083372 -3.44999 0
M  V30 4714 C 433.916 -0.937856 -4.21697 0
M  V30 4715 C 433.051 -0.248717 -5.30617 0
M  V30 4716 C 432.09 -1.25705 -5.99053 0
M  V30 4717 N 431.227 -0.594939 -6.99575 0
M  V30 4718 H 436.067 -1.45695 -2.59956 0
M  V30 4719 H 433.604 -0.729428 -1.27741 0
M  V30 4720 H 435.562 0.483535 -4.14388 0
M  V30 4721 H 434.192 0.926645 -3.09214 0
M  V30 4722 H 433.244 -1.45622 -3.51423 0
M  V30 4723 H 434.556 -1.70493 -4.68757 0
M  V30 4724 H 433.71 0.207215 -6.06346 0
M  V30 4725 H 432.449 0.55071 -4.84581 0
M  V30 4726 H 431.454 -1.72343 -5.2209 0
M  V30 4727 H 432.679 -2.05767 -6.47176 0
M  V30 4728 H 430.625 0.184713 -6.5574 0
M  V30 4729 H 430.542 -1.30017 -7.44736 0
M  V30 4730 H 431.81 -0.162427 -7.79331 0
M  V30 4731 N 436.039 1.36541 -0.78704 0
M  V30 4732 C 436.969 2.32659 -0.197992 0
M  V30 4733 C 437.95 1.56533 0.665697 0
M  V30 4734 O 439.135 1.84698 0.60001 0
M  V30 4735 C 436.265 3.40778 0.669901 0
M  V30 4736 C 435.219 4.27897 -0.0937039 0
M  V30 4737 C 434.545 5.27163 0.894629 0
M  V30 4738 C 435.845 5.06334 -1.28154 0
M  V30 4739 H 437.539 2.82171 -1.00099 0
M  V30 4740 H 435.085 1.35665 -0.482793 0
M  V30 4741 H 437.038 4.07008 1.09191 0
M  V30 4742 H 435.762 2.89827 1.50558 0
M  V30 4743 H 434.421 3.6322 -0.49666 0
M  V30 4744 H 434.069 4.72486 1.72527 0
M  V30 4745 H 433.769 5.86317 0.388149 0
M  V30 4746 H 435.293 5.96266 1.31525 0
M  V30 4747 H 436.707 5.65617 -0.93541 0
M  V30 4748 H 435.104 5.74888 -1.72115 0
M  V30 4749 H 436.174 4.38114 -2.07807 0
M  V30 4750 N 437.518 0.538854 1.48102 0
M  V30 4751 C 438.465 -0.219042 2.29758 0
M  V30 4752 C 439.435 -0.925562 1.37922 0
M  V30 4753 O 440.62 -0.924855 1.66886 0
M  V30 4754 C 437.76 -1.25452 3.2149 0
M  V30 4755 C 436.873 -0.555943 4.28408 0
M  V30 4756 C 436.008 -1.57512 5.0731 0
M  V30 4757 C 435.047 -0.860498 6.06021 0
M  V30 4758 N 434.184 -1.82564 6.77949 0
M  V30 4759 H 439.024 0.483449 2.94052 0
M  V30 4760 H 436.561 0.250247 1.44956 0
M  V30 4761 H 438.519 -1.86727 3.7308 0
M  V30 4762 H 437.149 -1.92528 2.591 0
M  V30 4763 H 436.201 0.170938 3.80016 0
M  V30 4764 H 437.513 0.00474616 4.988 0
M  V30 4765 H 436.667 -2.26191 5.62959 0
M  V30 4766 H 435.406 -2.16972 4.36778 0
M  V30 4767 H 434.411 -0.159686 5.49568 0
M  V30 4768 H 435.636 -0.271897 6.78555 0
M  V30 4769 H 433.582 -2.40915 6.10161 0
M  V30 4770 H 433.499 -1.31662 7.44447 0
M  V30 4771 H 434.767 -2.50414 7.38182 0
M  V30 4772 N 438.996 -1.55193 0.274407 0
M  V30 4773 C 440.242 -1.99877 -0.343086 0
M  V30 4774 C 440.575 -1.16256 -1.55558 0
M  V30 4775 O 439.85 -0.232462 -1.93106 0
M  V30 4776 C 440.133 -3.52706 -0.725965 0
M  V30 4777 C 439.986 -4.47081 0.493818 0
M  V30 4778 C 441.305 -4.11422 -1.56268 0
M  V30 4779 H 438.424 -0.726625 -0.123229 0
M  V30 4780 H 441.066 -1.86136 0.38121 0
M  V30 4781 H 439.216 -3.64546 -1.34307 0
M  V30 4782 H 440.888 -4.47186 1.13237 0
M  V30 4783 H 439.131 -4.1877 1.13201 0
M  V30 4784 H 439.802 -5.51699 0.18217 0
M  V30 4785 H 442.278 -4.02855 -1.04151 0
M  V30 4786 H 441.154 -5.18568 -1.79939 0
M  V30 4787 H 441.415 -3.61607 -2.54348 0
M  V30 4788 N 440.474 -0.00167713 -1.576 0
M  V30 4789 C 441.751 0.719951 -1.81868 0
M  V30 4790 C 442.131 1.91895 -0.879747 0
M  V30 4791 O 441.479 2.28389 0.0711423 0
M  V30 4792 C 441.689 1.12409 -3.30402 0
M  V30 4793 C 443.037 1.52724 -3.96182 0
M  V30 4794 O 444.061 1.21784 -3.34734 0
M  V30 4795 O 442.92 2.10265 -5.04431 0
M  V30 4796 H 440.014 0.350707 -0.748955 0
M  V30 4797 H 442.56 -0.0272597 -1.69678 0
M  V30 4798 H 441.332 0.269532 -3.90371 0
M  V30 4799 H 440.955 1.93035 -3.47596 0
M  V30 4800 N 441.952 1.55251 0.271103 0
M  V30 4801 C 442.882 1.9127 1.33933 0
M  V30 4802 C 443.863 0.77478 1.5143 0
M  V30 4803 O 445.048 1.03307 1.64442 0
M  V30 4804 C 442.178 2.18627 2.69851 0
M  V30 4805 C 441.132 3.34442 2.67081 0
M  V30 4806 C 440.458 3.47284 4.06569 0
M  V30 4807 C 441.758 4.70784 2.26185 0
M  V30 4808 H 443.452 2.80744 1.04035 0
M  V30 4809 H 440.998 1.35077 0.499017 0
M  V30 4810 H 442.951 2.42413 3.44694 0
M  V30 4811 H 441.675 1.25955 3.01335 0
M  V30 4812 H 440.334 3.10627 1.94695 0
M  V30 4813 H 439.982 2.52074 4.35279 0
M  V30 4814 H 439.682 4.25152 4.0561 0
M  V30 4815 H 441.206 3.73363 4.83148 0
M  V30 4816 H 442.62 4.94102 2.90751 0
M  V30 4817 H 441.017 5.51582 2.36384 0
M  V30 4818 H 442.087 4.69478 1.21319 0
M  V30 4819 N 443.43 -0.535701 1.48216 0
M  V30 4820 C 444.658 -1.31671 1.59594 0
M  V30 4821 C 445.073 -1.87083 0.254056 0
M  V30 4822 O 444.43 -1.66112 -0.755854 0
M  V30 4823 C 444.481 -2.47158 2.63809 0
M  V30 4824 O 444.202 -1.94032 3.92789 0
M  V30 4825 C 445.703 -3.39062 2.85573 0
M  V30 4826 H 442.923 -0.400623 0.538277 0
M  V30 4827 H 445.467 -0.646827 1.94001 0
M  V30 4828 H 443.622 -3.10043 2.32276 0
M  V30 4829 H 444.036 -2.69585 4.49916 0
M  V30 4830 H 445.51 -4.16459 3.62306 0
M  V30 4831 H 445.987 -3.93941 1.94184 0
M  V30 4832 H 446.593 -2.81975 3.18387 0
M  V30 4833 N 444.908 -1.36708 -0.784132 0
M  V30 4834 C 445.855 -1.31466 -1.89698 0
M  V30 4835 C 446.825 -0.18239 -1.65096 0
M  V30 4836 O 448.01 -0.369762 -1.87183 0
M  V30 4837 C 445.15 -1.1151 -3.26588 0
M  V30 4838 C 444.263 -2.33859 -3.63227 0
M  V30 4839 C 443.398 -2.06873 -4.89262 0
M  V30 4840 C 442.437 -3.25154 -5.18595 0
M  V30 4841 N 441.574 -2.978 -6.35814 0
M  V30 4842 H 446.414 -2.26619 -1.93515 0
M  V30 4843 H 443.951 -1.12625 -0.946256 0
M  V30 4844 H 445.909 -0.979653 -4.05535 0
M  V30 4845 H 444.539 -0.200103 -3.22179 0
M  V30 4846 H 443.591 -2.58188 -2.79362 0
M  V30 4847 H 444.903 -3.22109 -3.8085 0
M  V30 4848 H 444.057 -1.90289 -5.76086 0
M  V30 4849 H 442.796 -1.15942 -4.73718 0
M  V30 4850 H 441.801 -3.42292 -4.30251 0
M  V30 4851 H 443.026 -4.1692 -5.36055 0
M  V30 4852 H 440.972 -2.09485 -6.21653 0
M  V30 4853 H 440.889 -3.7959 -6.53794 0
M  V30 4854 H 442.157 -2.84805 -7.25607 0
M  V30 4855 N 446.386 1.0089 -1.21074 0
M  V30 4856 C 447.616 1.77933 -1.04993 0
M  V30 4857 C 448.024 1.84847 0.403495 0
M  V30 4858 O 447.367 1.30606 1.29181 0
M  V30 4859 C 447.429 3.23541 -1.56722 0
M  V30 4860 C 447.093 3.40214 -3.05129 0
M  V30 4861 C 448.09 3.2881 -4.02716 0
M  V30 4862 C 445.775 3.65781 -3.44252 0
M  V30 4863 C 447.769 3.42732 -5.37414 0
M  V30 4864 C 445.456 3.79346 -4.79103 0
M  V30 4865 C 446.454 3.67827 -5.75493 0
M  V30 4866 O 446.142 3.80965 -7.07899 0
M  V30 4867 H 445.874 0.566157 -0.369381 0
M  V30 4868 H 448.428 1.27826 -1.60779 0
M  V30 4869 H 446.658 3.74766 -0.953285 0
M  V30 4870 H 448.347 3.82245 -1.36543 0
M  V30 4871 H 449.113 3.08986 -3.73835 0
M  V30 4872 H 444.992 3.73831 -2.69762 0
M  V30 4873 H 448.536 3.33658 -6.12632 0
M  V30 4874 H 444.433 3.98672 -5.07672 0
M  V30 4875 H 445.201 3.97937 -7.15254 0
M  V30 4876 N 447.864 1.01787 1.20321 0
M  V30 4877 C 448.794 0.609625 2.25401 0
M  V30 4878 C 449.775 -0.375951 1.65893 0
M  V30 4879 O 450.96 -0.261101 1.92437 0
M  V30 4880 C 448.09 -0.0515995 3.47262 0
M  V30 4881 C 447.044 0.855095 4.19371 0
M  V30 4882 C 446.37 0.0595757 5.34667 0
M  V30 4883 C 447.67 2.16374 4.75373 0
M  V30 4884 H 449.364 1.48803 2.59804 0
M  V30 4885 H 446.91 0.716934 1.24884 0
M  V30 4886 H 448.863 -0.348764 4.19954 0
M  V30 4887 H 447.587 -0.964726 3.12027 0
M  V30 4888 H 446.246 1.13628 3.48546 0
M  V30 4889 H 445.894 -0.85524 4.95676 0
M  V30 4890 H 445.594 0.663406 5.83843 0
M  V30 4891 H 447.118 -0.231105 6.10162 0
M  V30 4892 H 448.532 1.92885 5.39878 0
M  V30 4893 H 446.929 2.71853 5.34991 0
M  V30 4894 H 447.999 2.82589 3.94045 0
M  V30 4895 N 449.342 -1.36122 0.79427 0
M  V30 4896 C 450.252 -2.33769 0.197296 0
M  V30 4897 C 451.268 -1.61276 -0.653153 0
M  V30 4898 O 452.444 -1.9323 -0.5678 0
M  V30 4899 C 449.509 -3.40474 -0.654098 0
M  V30 4900 C 448.57 -4.28759 0.215411 0
M  V30 4901 C 447.803 -5.30368 -0.595443 0
M  V30 4902 O 448.026 -5.40211 -1.83107 0
M  V30 4903 O 446.96 -6.019 0.00721351 0
M  V30 4904 H 450.786 -2.86597 1.00478 0
M  V30 4905 H 448.371 -1.38676 0.555818 0
M  V30 4906 H 450.253 -4.05703 -1.13944 0
M  V30 4907 H 448.928 -2.89937 -1.43938 0
M  V30 4908 H 447.835 -3.66554 0.747615 0
M  V30 4909 H 449.168 -4.82661 0.964332 0
M  V30 4910 N 450.82 -0.546701 -1.47814 0
M  V30 4911 C 451.768 0.220048 -2.31557 0
M  V30 4912 C 452.762 0.919472 -1.42275 0
M  V30 4913 O 453.968 0.841953 -1.59095 0
M  V30 4914 H 450.343 0.0898334 -0.746615 0
M  V30 4915 H 452.314 -0.505589 -2.94086 0
M  V30 4916 C 451.063 1.24353 -3.24702 0
M  V30 4917 H 450.386 0.714758 -3.93359 0
M  V30 4918 H 451.826 1.75112 -3.8615 0
M  V30 4919 C 450.285 2.28593 -2.47481 0
M  V30 4920 O 450.815 3.35334 -2.21165 0
M  V30 4921 N 449.021 2.02244 -2.08676 0
M  V30 4922 H 448.568 1.15455 -2.30278 0
M  V30 4923 H 448.526 2.72207 -1.57323 0
M  V30 4924 N 452.299 1.55045 -0.282633 0
M  V30 4925 C 453.231 2.2023 0.634924 0
M  V30 4926 C 454.244 1.18931 1.11172 0
M  V30 4927 O 455.433 1.4562 1.03233 0
M  V30 4928 C 452.533 2.82041 1.87899 0
M  V30 4929 C 451.706 4.091 1.54776 0
M  V30 4930 C 450.765 4.54887 2.64507 0
M  V30 4931 O 449.791 5.20496 2.30375 0
M  V30 4932 N 450.993 4.25659 3.94709 0
M  V30 4933 H 453.758 2.99601 0.0769811 0
M  V30 4934 H 451.319 1.61565 -0.104048 0
M  V30 4935 H 453.311 3.09613 2.60619 0
M  V30 4936 H 451.881 2.06618 2.3458 0
M  V30 4937 H 451.101 3.88736 0.654049 0
M  V30 4938 H 452.389 4.9187 1.30158 0
M  V30 4939 H 451.787 3.7306 4.25256 0
M  V30 4940 H 450.344 4.57984 4.63782 0
M  V30 4941 N 453.777 0.010035 1.57597 0
M  V30 4942 C 454.74 -0.963029 2.07986 0
M  V30 4943 C 455.74 -1.26619 0.991173 0
M  V30 4944 O 456.93 -1.2097 1.25347 0
M  V30 4945 C 454.062 -2.2851 2.52974 0
M  V30 4946 H 455.255 -0.526971 2.95234 0
M  V30 4947 H 452.808 -0.237639 1.54483 0
M  V30 4948 H 453.543 -2.76784 1.69 0
M  V30 4949 H 453.328 -2.07824 3.32493 0
M  V30 4950 H 454.818 -2.98294 2.9225 0
M  V30 4951 N 455.255 -1.55392 -0.262866 0
M  V30 4952 C 456.502 -1.76476 -0.993109 0
M  V30 4953 C 456.83 -0.571479 -1.85915 0
M  V30 4954 O 456.085 0.445733 -1.90556 0
M  V30 4955 C 456.384 -3.02889 -1.89718 0
M  V30 4956 C 456.05 -4.34974 -1.18781 0
M  V30 4957 C 454.712 -4.7087 -0.991699 0
M  V30 4958 C 457.064 -5.16695 -0.683798 0
M  V30 4959 C 454.392 -5.86036 -0.279024 0
M  V30 4960 C 456.744 -6.32598 0.0153327 0
M  V30 4961 C 455.408 -6.67127 0.223062 0
M  V30 4962 H 454.678 -0.64577 -0.363404 0
M  V30 4963 H 457.325 -1.89664 -0.264525 0
M  V30 4964 H 455.63 -2.84644 -2.6923 0
M  V30 4965 H 457.327 -3.16399 -2.46359 0
M  V30 4966 H 453.917 -4.06765 -1.35058 0
M  V30 4967 H 458.101 -4.8943 -0.8229 0
M  V30 4968 H 453.357 -6.11306 -0.107456 0
M  V30 4969 H 457.531 -6.95171 0.413584 0
M  V30 4970 H 455.158 -7.56216 0.777265 0
M  V30 4971 N 456.733 0.527833 -1.48498 0
M  V30 4972 C 457.973 1.29401 -1.58224 0
M  V30 4973 C 458.337 1.90348 -0.251327 0
M  V30 4974 O 459.538 2.67868 -0.223588 0
M  V30 4975 C 457.809 2.35266 -2.69044 0
M  V30 4976 S 459.368 3.2158 -2.98549 0
M  V30 4977 H 456.186 0.440138 -0.558391 0
M  V30 4978 H 458.788 0.601079 -1.8603 0
M  V30 4979 H 457.492 1.88975 -3.64303 0
M  V30 4980 H 457.023 3.09263 -2.43146 0
M  V30 4981 H 459.038 4.35391 -2.38011 0
M  V30 4982 N 458.211 1.37122 0.776871 0
M  V30 4983 C 459.458 1.32047 1.53524 0
M  V30 4984 C 459.786 -0.0965631 1.9426 0
M  V30 4985 O 459.041 -1.06866 1.63945 0
M  V30 4986 C 459.34 2.20068 2.81611 0
M  V30 4987 C 459.006 3.68423 2.59953 0
M  V30 4988 C 457.668 4.08854 2.53755 0
M  V30 4989 C 460.02 4.62431 2.40431 0
M  V30 4990 C 457.348 5.41417 2.26018 0
M  V30 4991 C 459.7 5.95225 2.14219 0
M  V30 4992 C 458.364 6.34767 2.06462 0
M  V30 4993 H 457.634 0.483196 0.561785 0
M  V30 4994 H 460.281 1.69284 0.895268 0
M  V30 4995 H 458.586 1.75809 3.50141 0
M  V30 4996 H 460.283 2.13458 3.39465 0
M  V30 4997 H 456.873 3.36354 2.65638 0
M  V30 4998 H 461.057 4.32057 2.44213 0
M  V30 4999 H 456.313 5.71022 2.18504 0
M  V30 5000 H 460.487 6.67626 1.98112 0
M  V30 5001 H 458.114 7.37413 1.84733 0
M  V30 5002 N 459.689 -1.00246 1.21608 0
M  V30 5003 C 460.966 -1.71336 0.943568 0
M  V30 5004 C 461.346 -2.03972 -0.543943 0
M  V30 5005 O 460.694 -1.71545 -1.50946 0
M  V30 5006 C 460.904 -2.97094 1.83128 0
M  V30 5007 C 462.252 -3.70071 2.08165 0
M  V30 5008 O 463.276 -3.07081 1.80498 0
M  V30 5009 O 462.135 -4.83376 2.54971 0
M  V30 5010 H 459.229 -0.747386 0.354039 0
M  V30 5011 H 461.775 -1.05967 1.32549 0
M  V30 5012 H 460.547 -2.69407 2.83788 0
M  V30 5013 H 460.17 -3.70204 1.45034 0
M  V30 5014 N 461.167 -1.02423 -1.1978 0
M  V30 5015 C 462.414 -0.717988 -1.89344 0
M  V30 5016 C 462.742 0.753036 -1.79331 0
M  V30 5017 O 461.997 1.56355 -1.17692 0
M  V30 5018 C 462.296 -1.1088 -3.39765 0
M  V30 5019 C 461.962 -2.57731 -3.6998 0
M  V30 5020 C 460.624 -2.97854 -3.77937 0
M  V30 5021 C 462.976 -3.52763 -3.83677 0
M  V30 5022 C 460.304 -4.31931 -3.97054 0
M  V30 5023 C 462.656 -4.86538 -4.04306 0
M  V30 5024 C 461.32 -5.26356 -4.10494 0
M  V30 5025 H 460.59 -0.26273 -0.692859 0
M  V30 5026 H 463.237 -1.28623 -1.41875 0
M  V30 5027 H 461.542 -0.459094 -3.89101 0
M  V30 5028 H 463.239 -0.849432 -3.919 0
M  V30 5029 H 459.829 -2.25646 -3.64393 0
M  V30 5030 H 464.013 -3.2292 -3.76877 0
M  V30 5031 H 459.269 -4.62324 -4.00083 0
M  V30 5032 H 463.443 -5.60093 -4.13846 0
M  V30 5033 H 461.07 -6.3026 -4.2506 0
M  V30 5034 N 462.645 1.35699 -0.801477 0
M  V30 5035 C 463.608 2.28199 -0.213994 0
M  V30 5036 C 464.608 1.49359 0.595691 0
M  V30 5037 O 465.798 1.69186 0.414921 0
M  V30 5038 C 462.93 3.33587 0.702297 0
M  V30 5039 H 464.123 2.81666 -1.02976 0
M  V30 5040 H 461.676 1.45467 -0.571759 0
M  V30 5041 H 462.411 2.85297 1.54195 0
M  V30 5042 H 462.196 3.91906 0.123484 0
M  V30 5043 H 463.686 4.02638 1.10783 0
M  V30 5044 N 464.123 0.554532 1.47522 0
M  V30 5045 C 465.37 0.029479 2.02479 0
M  V30 5046 C 465.698 -1.31929 1.42916 0
M  V30 5047 O 464.953 -1.87112 0.573385 0
M  V30 5048 C 465.252 -0.115927 3.57212 0
M  V30 5049 C 464.918 1.16161 4.3568 0
M  V30 5050 C 463.58 1.51168 4.56839 0
M  V30 5051 C 465.932 2.0083 4.80954 0
M  V30 5052 C 463.26 2.70696 5.2052 0
M  V30 5053 C 465.612 3.19559 5.45953 0
M  V30 5054 C 464.276 3.54882 5.65345 0
M  V30 5055 H 463.546 0.0107871 0.740921 0
M  V30 5056 H 466.193 0.725506 1.77225 0
M  V30 5057 H 464.498 -0.894902 3.81443 0
M  V30 5058 H 466.195 -0.53749 3.97381 0
M  V30 5059 H 462.785 0.879026 4.19489 0
M  V30 5060 H 466.969 1.75093 4.64388 0
M  V30 5061 H 462.225 2.98236 5.33728 0
M  V30 5062 H 466.399 3.85456 5.79997 0
M  V30 5063 H 464.026 4.47596 6.1446 0
M  V30 5064 N 465.601 -1.54893 0.290851 0
M  V30 5065 C 466.878 -1.91991 -0.373989 0
M  V30 5066 C 467.258 -1.21694 -1.72493 0
M  V30 5067 O 466.606 -0.34917 -2.25816 0
M  V30 5068 C 466.816 -3.45419 -0.498703 0
M  V30 5069 C 468.164 -4.1748 -0.774298 0
M  V30 5070 O 469.188 -3.51398 -0.582908 0
M  V30 5071 O 468.047 -5.3445 -1.14129 0
M  V30 5072 H 465.141 -0.800593 -0.207315 0
M  V30 5073 H 467.687 -1.66297 0.338164 0
M  V30 5074 H 466.459 -3.88688 0.451392 0
M  V30 5075 H 466.082 -3.77117 -1.25972 0
M  V30 5076 N 467.08 -0.0183926 -1.57589 0
M  V30 5077 C 467.99 0.982943 -2.13015 0
M  V30 5078 C 469.006 1.36443 -1.07979 0
M  V30 5079 O 470.182 1.44802 -1.3998 0
M  V30 5080 C 467.247 2.25024 -2.63752 0
M  V30 5081 C 466.308 1.93018 -3.83461 0
M  V30 5082 C 465.541 3.13706 -4.31769 0
M  V30 5083 O 465.764 4.2601 -3.79305 0
M  V30 5084 O 464.698 2.96629 -5.23732 0
M  V30 5085 H 468.524 0.541709 -2.9883 0
M  V30 5086 H 466.109 0.201565 -1.48034 0
M  V30 5087 H 467.991 2.99441 -2.96502 0
M  V30 5088 H 466.666 2.68349 -1.81026 0
M  V30 5089 H 465.573 1.16019 -3.55655 0
M  V30 5090 H 466.906 1.54516 -4.67317 0
M  V30 5091 N 468.558 1.5553 0.254621 0
M  V30 5092 C 469.786 1.81046 1.00149 0
M  V30 5093 C 470.201 0.593047 1.79244 0
M  V30 5094 O 469.558 -0.438196 1.77161 0
M  V30 5095 C 469.609 3.04684 1.94551 0
M  V30 5096 O 469.33 4.21725 1.18658 0
M  V30 5097 C 470.831 3.42943 2.80901 0
M  V30 5098 H 468.051 0.602653 0.295044 0
M  V30 5099 H 470.595 2.02576 0.279842 0
M  V30 5100 H 468.75 2.85226 2.62154 0
M  V30 5101 H 469.164 4.91746 1.82445 0
M  V30 5102 H 470.638 4.32576 3.42902 0
M  V30 5103 H 471.115 2.63176 3.51617 0
M  V30 5104 H 471.721 3.64724 2.18762 0
M  V30 5105 N 470.036 -0.519951 1.48776 0
M  V30 5106 C 470.999 -1.60574 1.6355 0
M  V30 5107 C 471.999 -1.52557 0.508234 0
M  V30 5108 O 473.189 -1.56047 0.774262 0
M  V30 5109 C 470.321 -3.00211 1.61512 0
M  V30 5110 H 471.514 -1.4881 2.60376 0
M  V30 5111 H 469.067 -0.742772 1.37523 0
M  V30 5112 H 469.802 -3.17471 0.662009 0
M  V30 5113 H 469.587 -3.07439 2.43359 0
M  V30 5114 H 471.077 -3.79134 1.75064 0
M  V30 5115 N 471.514 -1.37532 -0.769588 0
M  V30 5116 C 472.739 -1.36231 -1.56384 0
M  V30 5117 C 473.164 0.0495849 -1.88035 0
M  V30 5118 O 472.522 1.02723 -1.49391 0
M  V30 5119 C 472.57 -2.20986 -2.84952 0
M  V30 5120 O 471.674 -1.61597 -3.79421 0
M  V30 5121 H 471.015 -0.465387 -0.473615 0
M  V30 5122 H 473.545 -1.81085 -0.952342 0
M  V30 5123 H 473.555 -2.34277 -3.34034 0
M  V30 5124 H 472.23 -3.23612 -2.61243 0
M  V30 5125 H 470.807 -1.57359 -3.38072 0
M  V30 5126 N 472.992 0.995999 -1.22138 0
M  V30 5127 C 473.94 2.10673 -0.985876 0
M  V30 5128 C 474.934 1.69255 0.0699553 0
M  V30 5129 O 476.14 1.79812 -0.0822176 0
M  V30 5130 H 472.515 0.688865 -0.30161 0
M  V30 5131 H 474.486 2.27711 -1.92848 0
M  V30 5132 C 473.235 3.42881 -0.576909 0
M  V30 5133 H 472.558 3.75191 -1.38101 0
M  V30 5134 H 473.998 4.21589 -0.451518 0
M  V30 5135 C 472.457 3.29265 0.713196 0
M  V30 5136 O 472.987 3.60777 1.76643 0
M  V30 5137 N 471.193 2.82456 0.683162 0
M  V30 5138 H 470.74 2.5701 -0.174242 0
M  V30 5139 H 470.698 2.73727 1.54663 0
M  V30 5140 N 474.47 1.03057 1.19235 0
M  V30 5141 C 475.38 0.622922 2.26179 0
M  V30 5142 C 476.396 -0.346113 1.70523 0
M  V30 5143 O 477.572 -0.203572 2.00369 0
M  V30 5144 C 474.637 -0.0182063 3.46695 0
M  V30 5145 C 473.698 0.998546 4.17526 0
M  V30 5146 C 472.931 0.387917 5.32288 0
M  V30 5147 O 473.154 -0.808668 5.64639 0
M  V30 5148 O 472.088 1.1116 5.91546 0
M  V30 5149 H 475.914 1.51363 2.63292 0
M  V30 5150 H 473.499 0.800856 1.26122 0
M  V30 5151 H 475.381 -0.375606 4.19723 0
M  V30 5152 H 474.056 -0.882895 3.11427 0
M  V30 5153 H 472.963 1.40756 3.4661 0
M  V30 5154 H 474.296 1.83366 4.56769 0
M  V30 5155 N 475.948 -1.35272 0.808662 0
M  V30 5156 C 477.194 -1.99003 0.390581 0
M  V30 5157 C 477.527 -1.63999 -1.0401 0
M  V30 5158 O 476.802 -0.904368 -1.72196 0
M  V30 5159 C 477.085 -3.55454 0.576566 0
M  V30 5160 C 476.938 -4.00249 2.05233 0
M  V30 5161 C 478.257 -4.401 0.00354277 0
M  V30 5162 H 475.376 -0.722917 0.143388 0
M  V30 5163 H 478.018 -1.6039 1.01858 0
M  V30 5164 H 476.168 -3.88477 0.0419766 0
M  V30 5165 H 477.84 -3.77626 2.64946 0
M  V30 5166 H 476.083 -3.51082 2.54801 0
M  V30 5167 H 476.754 -5.0911 2.13333 0
M  V30 5168 H 479.23 -4.13548 0.460117 0
M  V30 5169 H 478.106 -5.48656 0.163575 0
M  V30 5170 H 478.367 -4.28444 -1.09032 0
M  V30 5171 N 477.426 -0.562348 -1.47226 0
M  V30 5172 C 478.672 -0.0402761 -2.0276 0
M  V30 5173 C 479.005 1.30823 -1.43523 0
M  V30 5174 O 478.28 1.85249 -0.592705 0
M  V30 5175 C 478.563 0.047311 -3.60069 0
M  V30 5176 C 478.416 -1.32865 -4.29729 0
M  V30 5177 C 479.735 0.758182 -4.3352 0
M  V30 5178 H 476.854 -0.0161105 -0.736824 0
M  V30 5179 H 479.496 -0.725628 -1.75598 0
M  V30 5180 H 477.646 0.630986 -3.83342 0
M  V30 5181 H 479.318 -1.95593 -4.17781 0
M  V30 5182 H 477.561 -1.90195 -3.89882 0
M  V30 5183 H 478.232 -1.22004 -5.38349 0
M  V30 5184 H 480.708 0.262546 -4.15271 0
M  V30 5185 H 479.584 0.78844 -5.43208 0
M  V30 5186 H 479.845 1.81537 -4.03109 0
M  V30 5187 N 478.904 1.54736 -0.299062 0
M  V30 5188 C 480.134 2.04215 0.312992 0
M  V30 5189 C 480.542 1.17596 1.48215 0
M  V30 5190 O 479.885 0.193835 1.82674 0
M  V30 5191 C 479.947 3.49696 0.833862 0
M  V30 5192 C 479.611 4.56518 -0.20977 0
M  V30 5193 C 480.608 5.09442 -1.03756 0
M  V30 5194 C 478.293 5.01073 -0.35091 0
M  V30 5195 C 480.287 6.05459 -1.99244 0
M  V30 5196 C 477.974 5.9691 -1.30924 0
M  V30 5197 C 478.972 6.48987 -2.1285 0
M  V30 5198 O 478.66 7.42947 -3.07059 0
M  V30 5199 H 478.392 0.672128 0.0722494 0
M  V30 5200 H 480.946 2.00718 -0.436043 0
M  V30 5201 H 479.176 3.5051 1.63339 0
M  V30 5202 H 480.865 3.82381 1.36159 0
M  V30 5203 H 481.631 4.75816 -0.939376 0
M  V30 5204 H 477.51 4.60168 0.276813 0
M  V30 5205 H 481.054 6.46031 -2.63229 0
M  V30 5206 H 476.951 6.29953 -1.40815 0
M  V30 5207 H 477.719 7.60743 -3.02015 0
M  V30 5208 N 480.382 0.0267497 1.57577 0
M  V30 5209 C 481.798 -0.32962 1.56159 0
M  V30 5210 C 481.998 -1.73059 1.03213 0
M  V30 5211 O 481.054 -2.43233 0.677804 0
M  V30 5212 C 482.367 -0.18039 3.00158 0
M  V30 5213 C 483.915 -0.253334 3.11973 0
M  V30 5214 C 484.39 -0.132921 4.57807 0
M  V30 5215 N 485.881 -0.189979 4.6281 0
M  V30 5216 C 486.616 -0.120554 5.73273 0
M  V30 5217 N 486.112 -0.000180315 6.928 0
M  V30 5218 N 487.905 -0.174369 5.61829 0
M  V30 5219 H 480.056 0.942896 1.90324 0
M  V30 5220 H 482.319 0.3639 0.875375 0
M  V30 5221 H 482.025 0.784576 3.42837 0
M  V30 5222 H 481.899 -0.951565 3.65 0
M  V30 5223 H 484.286 -1.20876 2.69208 0
M  V30 5224 H 484.367 0.548177 2.49857 0
M  V30 5225 H 484.011 0.819073 5.01252 0
M  V30 5226 H 483.941 -0.953264 5.179 0
M  V30 5227 H 486.432 -0.283257 3.76837 0
M  V30 5228 H 486.745 0.0461666 7.72786 0
M  V30 5229 H 485.09 0.034569 6.94991 0
M  V30 5230 H 488.281 -0.266794 4.67339 0
M  V30 5231 H 488.454 -0.116802 6.47895 0
M  V30 5232 N 481.861 -1.55662 -0.24637 0
M  V30 5233 C 483.108 -1.77519 -0.974335 0
M  V30 5234 C 483.436 -0.591165 -1.85298 0
M  V30 5235 O 482.691 0.425497 -1.91018 0
M  V30 5236 C 482.99 -3.04885 -1.86494 0
M  V30 5237 C 482.656 -4.36209 -1.14161 0
M  V30 5238 C 481.318 -4.71896 -0.941701 0
M  V30 5239 C 483.67 -5.17391 -0.628957 0
M  V30 5240 C 480.998 -5.86299 -0.216852 0
M  V30 5241 C 483.35 -6.32546 0.0824273 0
M  V30 5242 C 482.014 -6.66853 0.293807 0
M  V30 5243 H 481.284 -0.649588 -0.356535 0
M  V30 5244 H 483.931 -1.89934 -0.244394 0
M  V30 5245 H 482.236 -2.87484 -2.66196 0
M  V30 5246 H 483.933 -3.18994 -2.42989 0
M  V30 5247 H 480.523 -4.08174 -1.30736 0
M  V30 5248 H 484.707 -4.90276 -0.770943 0
M  V30 5249 H 479.963 -6.11385 -0.0426124 0
M  V30 5250 H 484.137 -6.94693 0.487292 0
M  V30 5251 H 481.764 -7.55349 0.857428 0
M  V30 5252 N 483.339 0.512053 -1.4905 0
M  V30 5253 C 484.567 1.29116 -1.61669 0
M  V30 5254 C 484.982 1.86655 -0.283787 0
M  V30 5255 O 484.339 1.67293 0.729331 0
M  V30 5256 C 484.39 2.4293 -2.67707 0
M  V30 5257 O 484.111 1.87758 -3.95826 0
M  V30 5258 C 485.612 3.34476 -2.90931 0
M  V30 5259 H 482.832 0.392009 -0.544583 0
M  V30 5260 H 485.376 0.615881 -1.95006 0
M  V30 5261 H 483.531 3.06308 -2.37179 0
M  V30 5262 H 483.945 2.62393 -4.54148 0
M  V30 5263 H 485.419 4.10642 -3.68886 0
M  V30 5264 H 485.896 3.90801 -2.00427 0
M  V30 5265 H 486.502 2.76874 -3.22832 0
M  V30 5266 N 484.817 1.37938 0.762283 0
M  V30 5267 C 485.78 1.34279 1.85747 0
M  V30 5268 C 486.78 0.244969 1.58923 0
M  V30 5269 O 487.97 0.501365 1.66829 0
M  V30 5270 C 485.102 1.08833 3.23061 0
M  V30 5271 H 486.295 2.31705 1.90401 0
M  V30 5272 H 483.848 1.23105 0.963057 0
M  V30 5273 H 484.583 0.119767 3.24079 0
M  V30 5274 H 484.368 1.88306 3.43923 0
M  V30 5275 H 485.858 1.08946 4.03138 0
M  V30 5276 N 486.295 -0.989507 1.22664 0
M  V30 5277 C 487.711 -1.25395 0.987331 0
M  V30 5278 C 487.911 -1.9899 -0.317056 0
M  V30 5279 O 486.967 -2.30141 -1.03882 0
M  V30 5280 C 488.28 -2.06242 2.18826 0
M  V30 5281 C 489.828 -2.19413 2.23219 0
M  V30 5282 C 490.303 -3.03648 3.42873 0
M  V30 5283 N 491.794 -3.11234 3.43056 0
M  V30 5284 C 492.529 -3.7671 4.32293 0
M  V30 5285 N 492.025 -4.44085 5.31752 0
M  V30 5286 N 493.818 -3.73505 4.2006 0
M  V30 5287 H 485.969 -0.496212 2.06522 0
M  V30 5288 H 488.232 -0.281784 0.905153 0
M  V30 5289 H 487.938 -1.59531 3.13437 0
M  V30 5290 H 487.812 -3.06996 2.19165 0
M  V30 5291 H 490.199 -2.65336 1.29154 0
M  V30 5292 H 490.28 -1.18078 2.26917 0
M  V30 5293 H 489.924 -2.58424 4.37241 0
M  V30 5294 H 489.854 -4.05132 3.36416 0
M  V30 5295 H 492.345 -2.63287 2.71088 0
M  V30 5296 H 492.658 -4.91797 5.96117 0
M  V30 5297 H 491.003 -4.42822 5.35662 0
M  V30 5298 H 494.194 -3.20033 3.41609 0
M  V30 5299 H 494.367 -4.24253 4.8981 0
M  V30 5300 N 487.773 -1.03688 -1.18687 0
M  V30 5301 C 489.184 -0.766488 -1.70241 0
M  V30 5302 C 489.535 0.713052 -1.82784 0
M  V30 5303 O 488.66 1.55529 -1.50465 0
M  V30 5304 C 489.255 -1.38475 -3.09209 0
M  V30 5305 C 487.814 -1.16276 -3.5799 0
M  V30 5306 C 486.961 -1.4778 -2.34641 0
M  V30 5307 H 489.912 -1.20378 -1.03415 0
M  V30 5308 H 489.933 -0.785939 -3.72295 0
M  V30 5309 H 489.445 -2.46157 -3.00048 0
M  V30 5310 H 487.546 -0.104508 -3.72453 0
M  V30 5311 H 487.659 -1.8571 -4.41643 0
M  V30 5312 H 486.023 -0.897366 -2.38368 0
M  V30 5313 H 486.806 -2.56562 -2.28102 0
M  V30 5314 N 489.251 1.34841 -0.815825 0
M  V30 5315 C 490.181 2.32187 -0.247298 0
M  V30 5316 C 491.162 1.5791 0.632344 0
M  V30 5317 O 492.347 1.8593 0.560698 0
M  V30 5318 C 489.477 3.42122 0.597466 0
M  V30 5319 C 488.431 4.27602 -0.184446 0
M  V30 5320 C 487.757 5.28942 0.782609 0
M  V30 5321 C 489.057 5.03502 -1.38865 0
M  V30 5322 H 490.751 2.79985 -1.06061 0
M  V30 5323 H 488.297 1.34611 -0.511461 0
M  V30 5324 H 490.25 4.09232 1.00533 0
M  V30 5325 H 488.974 2.92956 1.44376 0
M  V30 5326 H 487.633 3.62085 -0.573592 0
M  V30 5327 H 487.281 4.7604 1.62466 0
M  V30 5328 H 486.981 5.87008 0.263695 0
M  V30 5329 H 488.505 5.98922 1.18848 0
M  V30 5330 H 489.919 5.63506 -1.05518 0
M  V30 5331 H 488.316 5.71108 -1.8427 0
M  V30 5332 H 489.386 4.33608 -2.17054 0
M  V30 5333 N 490.729 0.570148 1.46925 0
M  V30 5334 C 491.975 0.0510284 2.02736 0
M  V30 5335 C 492.308 -1.3006 1.44215 0
M  V30 5336 O 491.583 -1.84932 0.602521 0
M  V30 5337 C 491.866 -0.028215 3.60089 0
M  V30 5338 C 491.719 1.35142 4.29018 0
M  V30 5339 C 493.038 -0.735181 4.33916 0
M  V30 5340 H 490.157 0.0200178 0.736728 0
M  V30 5341 H 492.799 0.73493 1.75211 0
M  V30 5342 H 490.949 -0.610648 3.83671 0
M  V30 5343 H 492.621 1.97806 4.16738 0
M  V30 5344 H 490.864 1.9226 3.88868 0
M  V30 5345 H 491.535 1.24857 5.37694 0
M  V30 5346 H 494.011 -0.240519 4.15404 0
M  V30 5347 H 492.887 -0.759622 5.43618 0
M  V30 5348 H 493.148 -1.79397 4.04066 0
M  V30 5349 N 492.207 -1.54576 0.307264 0
M  V30 5350 C 493.139 -2.21212 -0.599807 0
M  V30 5351 C 494.152 -1.20685 -1.09266 0
M  V30 5352 O 495.341 -1.47244 -1.00903 0
M  V30 5353 C 492.441 -2.84994 -1.83389 0
M  V30 5354 C 491.614 -4.11511 -1.48248 0
M  V30 5355 C 490.673 -4.59038 -2.57237 0
M  V30 5356 O 489.699 -5.24095 -2.22065 0
M  V30 5357 N 490.901 -4.31884 -3.87887 0
M  V30 5358 H 493.666 -2.99686 -0.0293075 0
M  V30 5359 H 491.227 -1.61379 0.129738 0
M  V30 5360 H 493.219 -3.1372 -2.5566 0
M  V30 5361 H 491.789 -2.10324 -2.31263 0
M  V30 5362 H 491.009 -3.89728 -0.592122 0
M  V30 5363 H 492.297 -4.93879 -1.22316 0
M  V30 5364 H 491.695 -3.79778 -4.19268 0
M  V30 5365 H 490.252 -4.65304 -4.56438 0
M  V30 5366 N 493.685 -0.035106 -1.57561 0
M  V30 5367 C 494.913 0.652258 -1.9635 0
M  V30 5368 C 495.328 1.65317 -0.911897 0
M  V30 5369 O 494.685 1.82194 0.105657 0
M  V30 5370 C 494.736 1.35337 -3.35211 0
M  V30 5371 O 494.457 0.392548 -4.36338 0
M  V30 5372 C 495.958 2.13199 -3.88666 0
M  V30 5373 H 493.178 0.179444 -0.646561 0
M  V30 5374 H 495.722 -0.0966459 -2.04271 0
M  V30 5375 H 493.877 2.05362 -3.28489 0
M  V30 5376 H 494.291 0.891097 -5.16875 0
M  V30 5377 H 495.765 2.577 -4.88154 0
M  V30 5378 H 496.242 2.97353 -3.23231 0
M  V30 5379 H 496.848 1.48118 -3.98674 0
M  V30 5380 N 495.163 1.55791 0.238111 0
M  V30 5381 C 496.412 1.77234 0.962868 0
M  V30 5382 C 496.725 0.600661 1.86149 0
M  V30 5383 O 497.931 0.698315 2.62366 0
M  V30 5384 C 496.387 3.13808 1.76218 0
M  V30 5385 C 495.995 4.3865 0.910518 0
M  V30 5386 C 497.739 3.44585 2.47914 0
M  V30 5387 C 495.646 5.66252 1.70623 0
M  V30 5388 H 494.576 0.660731 0.36325 0
M  V30 5389 H 497.227 1.8221 0.217242 0
M  V30 5390 H 495.609 3.02963 2.55009 0
M  V30 5391 H 496.783 4.60507 0.164316 0
M  V30 5392 H 495.098 4.15271 0.30647 0
M  V30 5393 H 497.695 4.3714 3.07917 0
M  V30 5394 H 498.038 2.66314 3.19973 0
M  V30 5395 H 498.571 3.56685 1.76127 0
M  V30 5396 H 495.31 6.47369 1.02923 0
M  V30 5397 H 494.83 5.48483 2.42748 0
M  V30 5398 H 496.509 6.05829 2.27114 0
M  V30 5399 N 496.642 -0.504142 1.49319 0
M  V30 5400 C 497.889 -1.25846 1.58647 0
M  V30 5401 C 498.217 -1.92592 0.27177 0
M  V30 5402 O 497.472 -1.81167 -0.74007 0
M  V30 5403 C 497.771 -2.35021 2.69258 0
M  V30 5404 C 497.437 -1.85755 4.1086 0
M  V30 5405 C 496.099 -1.72038 4.49395 0
M  V30 5406 C 498.451 -1.48844 4.99495 0
M  V30 5407 C 495.779 -1.19783 5.74342 0
M  V30 5408 C 498.131 -0.980422 6.24956 0
M  V30 5409 C 496.795 -0.829622 6.62324 0
M  V30 5410 H 496.065 -0.460505 0.580531 0
M  V30 5411 H 498.712 -0.559716 1.83138 0
M  V30 5412 H 497.017 -3.10672 2.38726 0
M  V30 5413 H 498.714 -2.93083 2.73685 0
M  V30 5414 H 495.304 -1.9739 3.80441 0
M  V30 5415 H 499.488 -1.5829 4.70381 0
M  V30 5416 H 494.744 -1.06817 6.01997 0
M  V30 5417 H 498.918 -0.685608 6.93017 0
M  V30 5418 H 496.545 -0.42253 7.59025 0
M  V30 5419 N 498.12 -1.38341 -0.754957 0
M  V30 5420 C 499.03 -1.3769 -1.89944 0
M  V30 5421 C 500.046 -0.274194 -1.71826 0
M  V30 5422 O 501.222 -0.512391 -1.94773 0
M  V30 5423 C 498.287 -1.19938 -3.25293 0
M  V30 5424 C 497.348 -2.40001 -3.55946 0
M  V30 5425 C 496.581 -2.23087 -4.84838 0
M  V30 5426 O 496.804 -1.22386 -5.57116 0
M  V30 5427 O 495.738 -3.11646 -5.14937 0
M  V30 5428 H 499.564 -2.3412 -1.93446 0
M  V30 5429 H 497.149 -1.19246 -0.900044 0
M  V30 5430 H 499.031 -1.12093 -4.06218 0
M  V30 5431 H 497.706 -0.265919 -3.22606 0
M  V30 5432 H 496.613 -2.53421 -2.75188 0
M  V30 5433 H 497.946 -3.31973 -3.63394 0
M  V30 5434 N 499.598 0.982988 -1.23187 0
M  V30 5435 C 500.846 1.72052 -1.06031 0
M  V30 5436 C 501.167 1.90769 0.404019 0
M  V30 5437 O 500.437 1.47446 1.28982 0
M  V30 5438 H 499.017 0.637499 -0.389363 0
M  V30 5439 H 501.679 1.18338 -1.54862 0
M  V30 5440 H 500.775 2.7111 -1.54615 0
M  V30 5441 N 501.076 1.04316 1.18135 0
M  V30 5442 C 502.324 0.746542 1.87806 0
M  V30 5443 C 502.645 -0.728082 1.80898 0
M  V30 5444 O 501.915 -1.52554 1.22899 0
M  V30 5445 H 500.495 0.273157 0.695265 0
M  V30 5446 H 503.157 1.32044 1.43354 0
M  V30 5447 H 502.253 1.05362 2.93778 0
M  V30 5448 N 502.554 -1.34406 0.822964 0
M  V30 5449 C 503.501 -2.29519 0.24284 0
M  V30 5450 C 504.471 -1.5359 -0.632397 0
M  V30 5451 O 505.656 -1.8196 -0.57403 0
M  V30 5452 C 502.796 -3.40032 -0.58925 0
M  V30 5453 C 501.909 -4.30899 0.308236 0
M  V30 5454 C 501.044 -5.28515 -0.533425 0
M  V30 5455 C 500.083 -6.1102 0.363444 0
M  V30 5456 N 499.22 -7.00725 -0.439147 0
M  V30 5457 H 504.06 -2.78537 1.05929 0
M  V30 5458 H 501.597 -1.3707 0.533872 0
M  V30 5459 H 503.555 -4.0279 -1.087 0
M  V30 5460 H 502.185 -2.92248 -1.37081 0
M  V30 5461 H 501.237 -3.69002 0.924203 0
M  V30 5462 H 502.549 -4.88717 0.997862 0
M  V30 5463 H 501.703 -5.96725 -1.09565 0
M  V30 5464 H 500.442 -4.71235 -1.25656 0
M  V30 5465 H 499.447 -5.41743 0.937812 0
M  V30 5466 H 500.672 -6.70381 1.08469 0
M  V30 5467 H 498.618 -6.45913 -1.14595 0
M  V30 5468 H 498.535 -7.55756 0.19209 0
M  V30 5469 H 499.803 -7.73263 -0.984124 0
M  V30 5470 N 504.032 -0.577932 -1.46621 0
M  V30 5471 C 504.995 0.147805 -2.28723 0
M  V30 5472 C 505.995 0.823325 -1.38123 0
M  V30 5473 O 507.185 0.676011 -1.60548 0
M  V30 5474 C 504.317 1.21853 -3.18378 0
M  V30 5475 H 505.51 -0.573654 -2.94362 0
M  V30 5476 H 503.063 -0.335703 -1.52652 0
M  V30 5477 H 503.798 1.97173 -2.57475 0
M  V30 5478 H 503.583 0.738714 -3.85078 0
M  V30 5479 H 505.073 1.72768 -3.80186 0
M  V30 5480 N 505.51 1.54411 -0.315457 0
M  V30 5481 C 506.738 2.04833 0.291738 0
M  V30 5482 C 507.153 1.19203 1.46411 0
M  V30 5483 O 506.51 0.220867 1.81159 0
M  V30 5484 C 506.561 3.53969 0.73404 0
M  V30 5485 O 506.282 4.36346 -0.391682 0
M  V30 5486 C 507.783 4.2045 1.40489 0
M  V30 5487 H 505.003 0.668195 0.0612947 0
M  V30 5488 H 507.547 1.99276 -0.45929 0
M  V30 5489 H 505.702 3.5984 1.43506 0
M  V30 5490 H 506.116 5.24481 -0.0447088 0
M  V30 5491 H 507.59 5.26278 1.66539 0
M  V30 5492 H 508.067 3.71067 2.3496 0
M  V30 5493 H 508.673 4.18694 0.746662 0
M  V30 5494 N 506.988 0.0434614 1.5754 0
M  V30 5495 C 508.228 -0.636023 1.94253 0
M  V30 5496 C 508.592 -1.68461 0.921132 0
M  V30 5497 O 509.793 -2.41762 1.17494 0
M  V30 5498 C 508.064 -1.22357 3.35803 0
M  V30 5499 S 509.623 -1.92213 3.94461 0
M  V30 5500 H 506.441 -0.209041 0.679575 0
M  V30 5501 H 509.043 0.110556 1.95187 0
M  V30 5502 H 507.747 -0.448162 4.07946 0
M  V30 5503 H 507.278 -2.00713 3.38346 0
M  V30 5504 H 509.293 -3.20199 3.79061 0
M  V30 5505 N 508.466 -1.55915 -0.229846 0
M  V30 5506 C 509.713 -1.78542 -0.955452 0
M  V30 5507 C 510.041 -0.610785 -1.84661 0
M  V30 5508 O 509.296 0.405213 -1.91459 0
M  V30 5509 C 509.595 -3.06845 -1.8325 0
M  V30 5510 C 509.261 -4.37395 -1.09528 0
M  V30 5511 C 507.923 -4.72868 -0.891598 0
M  V30 5512 C 510.275 -5.18029 -0.574046 0
M  V30 5513 C 507.603 -5.86496 -0.154655 0
M  V30 5514 C 509.955 -6.32423 0.149513 0
M  V30 5515 C 508.619 -6.66504 0.364519 0
M  V30 5516 H 507.889 -0.653333 -0.349625 0
M  V30 5517 H 510.536 -1.90183 -0.224235 0
M  V30 5518 H 508.841 -2.90291 -2.63132 0
M  V30 5519 H 510.538 -3.21553 -2.39592 0
M  V30 5520 H 507.128 -4.09538 -1.26399 0
M  V30 5521 H 511.312 -4.91066 -0.718899 0
M  V30 5522 H 506.568 -6.11396 0.0222356 0
M  V30 5523 H 510.742 -6.94137 0.560947 0
M  V30 5524 H 508.369 -7.54397 0.937495 0
M  V30 5525 N 509.944 0.496216 -1.49584 0
M  V30 5526 C 510.907 1.57952 -1.66084 0
M  V30 5527 C 511.907 1.51729 -0.53244 0
M  V30 5528 O 513.097 1.54796 -0.79899 0
M  V30 5529 C 510.229 2.97604 -1.66268 0
M  V30 5530 H 511.422 1.44649 -2.6271 0
M  V30 5531 H 508.975 0.7208 -1.38687 0
M  V30 5532 H 509.71 3.16378 -0.712432 0
M  V30 5533 H 509.495 3.03528 -2.4822 0
M  V30 5534 H 510.985 3.76301 -1.81073 0
M  V30 5535 N 511.423 1.38739 0.74761 0
M  V30 5536 C 512.653 1.3832 1.53464 0
M  V30 5537 C 513.061 -0.0273464 1.8918 0
M  V30 5538 O 512.404 -1.00588 1.53713 0
M  V30 5539 C 512.466 2.18007 2.85855 0
M  V30 5540 C 512.13 3.66762 2.72644 0
M  V30 5541 C 513.127 4.60124 2.42037 0
M  V30 5542 C 510.812 4.10193 2.89909 0
M  V30 5543 C 512.806 5.94897 2.28859 0
M  V30 5544 C 510.493 5.45045 2.7635 0
M  V30 5545 C 511.491 6.37211 2.45869 0
M  V30 5546 O 511.179 7.69581 2.3238 0
M  V30 5547 H 510.911 0.474718 0.481268 0
M  V30 5548 H 513.465 1.83012 0.932518 0
M  V30 5549 H 511.695 1.68043 3.48279 0
M  V30 5550 H 513.384 2.09921 3.47402 0
M  V30 5551 H 514.15 4.27874 2.28361 0
M  V30 5552 H 510.029 3.38797 3.1263 0
M  V30 5553 H 513.573 6.66802 2.04989 0
M  V30 5554 H 509.47 5.76889 2.89601 0
M  V30 5555 H 510.238 7.80169 2.47546 0
M  V30 5556 N 512.901 -0.976442 1.23707 0
M  V30 5557 C 514.149 -1.71487 1.06942 0
M  V30 5558 C 514.47 -1.9098 -0.393897 0
M  V30 5559 O 513.74 -1.48128 -1.28198 0
M  V30 5560 H 512.32 -0.635425 0.392739 0
M  V30 5561 H 514.982 -1.17515 1.55487 0
M  V30 5562 H 514.078 -2.70286 1.56051 0
M  V30 5563 N 514.379 -1.04941 -1.1758 0
M  V30 5564 C 515.311 -0.606174 -2.21039 0
M  V30 5565 C 516.324 0.328763 -1.59446 0
M  V30 5566 O 517.513 0.121895 -1.78083 0
M  V30 5567 C 514.613 0.133294 -3.38638 0
M  V30 5568 C 513.786 -0.811711 -4.29802 0
M  V30 5569 C 512.845 -0.113958 -5.26077 0
M  V30 5570 O 511.871 -0.747237 -5.64274 0
M  V30 5571 N 513.073 1.14953 -5.69004 0
M  V30 5572 H 515.838 -1.49606 -2.59689 0
M  V30 5573 H 513.399 -0.930997 -1.32454 0
M  V30 5574 H 515.391 0.610144 -4.00074 0
M  V30 5575 H 513.961 0.924816 -2.98607 0
M  V30 5576 H 513.181 -1.46824 -3.65837 0
M  V30 5577 H 514.469 -1.45326 -4.87604 0
M  V30 5578 H 513.867 1.68441 -5.40041 0
M  V30 5579 H 512.424 1.57049 -6.32597 0
M  V30 5580 N 515.857 1.33968 -0.830081 0
M  V30 5581 C 517.085 2.0228 -0.434773 0
M  V30 5582 C 517.5 1.62487 0.961419 0
M  V30 5583 O 516.857 0.833849 1.62337 0
M  V30 5584 C 516.908 3.5751 -0.535625 0
M  V30 5585 O 516.629 3.95864 -1.87679 0
M  V30 5586 C 518.13 4.43091 -0.136137 0
M  V30 5587 H 515.35 0.648151 -0.173613 0
M  V30 5588 H 517.894 1.71089 -1.12022 0
M  V30 5589 H 516.049 3.87266 0.101817 0
M  V30 5590 H 516.463 4.9056 -1.85609 0
M  V30 5591 H 517.937 5.51398 -0.257772 0
M  V30 5592 H 518.414 4.29433 0.921076 0
M  V30 5593 H 519.02 4.18677 -0.747662 0
M  V30 5594 N 517.335 0.585699 1.46312 0
M  V30 5595 C 518.583 0.072278 2.01971 0
M  V30 5596 C 518.904 -1.29345 1.45928 0
M  V30 5597 O 518.174 -1.84973 0.645109 0
M  V30 5598 H 516.754 0.023729 0.746623 0
M  V30 5599 H 519.416 0.762155 1.7938 0
M  V30 5600 H 518.512 0.00552767 3.121 0
M  V30 5601 N 518.813 -1.54241 0.323641 0
M  V30 5602 C 520.038 -2.05452 -0.283605 0
M  V30 5603 C 520.463 -1.19823 -1.44997 0
M  V30 5604 O 519.821 -0.207358 -1.8011 0
M  V30 5605 C 519.869 -3.53823 -0.695795 0
M  V30 5606 O 518.973 -3.71134 -1.79815 0
M  V30 5607 H 518.314 -0.662024 -0.0511917 0
M  V30 5608 H 520.844 -1.99079 0.472073 0
M  V30 5609 H 520.854 -3.96094 -0.978434 0
M  V30 5610 H 519.529 -4.15602 0.157287 0
M  V30 5611 H 518.106 -3.40768 -1.51431 0
M  V30 5612 N 520.291 -0.0518155 -1.57515 0
M  V30 5613 C 521.539 0.620595 -1.92336 0
M  V30 5614 C 521.86 1.71345 -0.930907 0
M  V30 5615 O 521.13 1.95885 0.0241341 0
M  V30 5616 H 519.71 0.232226 -0.709986 0
M  V30 5617 H 522.372 -0.104969 -1.94617 0
M  V30 5618 H 521.468 1.05879 -2.93592 0
M  V30 5619 N 521.769 1.56035 0.221574 0
M  V30 5620 C 522.716 1.92413 1.27459 0
M  V30 5621 C 523.686 0.781323 1.46576 0
M  V30 5622 O 524.871 1.03721 1.60145 0
M  V30 5623 C 522.011 2.24617 2.61995 0
M  V30 5624 C 521.124 3.51831 2.50677 0
M  V30 5625 C 520.259 3.73482 3.77736 0
M  V30 5626 C 519.298 4.94211 3.6114 0
M  V30 5627 N 518.435 5.12252 4.80148 0
M  V30 5628 H 523.275 2.82203 0.957355 0
M  V30 5629 H 520.812 1.39676 0.461415 0
M  V30 5630 H 522.77 2.41298 3.40339 0
M  V30 5631 H 521.4 1.38 2.91815 0
M  V30 5632 H 520.452 3.43343 1.63767 0
M  V30 5633 H 521.764 4.40328 2.34334 0
M  V30 5634 H 520.918 3.9026 4.64523 0
M  V30 5635 H 519.657 2.83266 3.97003 0
M  V30 5636 H 518.662 4.77384 2.72736 0
M  V30 5637 H 519.887 5.85912 3.43343 0
M  V30 5638 H 517.833 4.24978 4.99729 0
M  V30 5639 H 517.75 5.94881 4.66532 0
M  V30 5640 H 519.018 5.33465 5.68362 0
M  V30 5641 N 523.247 -0.488276 1.49845 0
M  V30 5642 C 524.475 -1.26527 1.63702 0
M  V30 5643 C 524.89 -1.8618 0.313447 0
M  V30 5644 O 524.247 -1.68432 -0.702624 0
M  V30 5645 C 524.298 -2.3864 2.71538 0
M  V30 5646 O 524.019 -1.81437 3.98763 0
M  V30 5647 C 525.52 -3.29805 2.96215 0
M  V30 5648 H 522.74 -0.383295 0.55075 0
M  V30 5649 H 525.284 -0.584779 1.95961 0
M  V30 5650 H 523.439 -3.02496 2.42023 0
M  V30 5651 H 523.853 -2.55135 4.58265 0
M  V30 5652 H 525.327 -4.04722 3.75372 0
M  V30 5653 H 525.804 -3.87563 2.06619 0
M  V30 5654 H 526.41 -2.71703 3.27196 0
M  V30 5655 N 524.725 -1.39134 -0.740242 0
M  V30 5656 C 525.675 -1.33928 -1.84519 0
M  V30 5657 C 526.659 -0.221097 -1.59374 0
M  V30 5658 O 527.851 -0.458195 -1.70967 0
M  V30 5659 C 524.98 -1.17991 -3.22387 0
M  V30 5660 C 524.066 -2.34488 -3.53378 0
M  V30 5661 N 524.457 -3.59954 -3.5534 0
M  V30 5662 C 522.755 -2.27331 -3.83714 0
M  V30 5663 C 523.456 -4.36962 -3.83978 0
M  V30 5664 N 522.432 -3.66482 -4.01487 0
M  V30 5665 H 526.234 -2.28907 -1.84333 0
M  V30 5666 H 523.748 -1.32555 -0.938237 0
M  V30 5667 H 525.745 -1.12345 -4.01478 0
M  V30 5668 H 524.405 -0.23957 -3.23815 0
M  V30 5669 H 525.416 -3.93448 -3.36778 0
M  V30 5670 H 522.093 -1.41531 -3.92779 0
M  V30 5671 H 523.483 -5.45692 -3.92008 0
M  V30 5672 N 526.204 0.969867 -1.24223 0
M  V30 5673 C 527.432 1.74756 -1.10761 0
M  V30 5674 C 527.847 1.85713 0.340041 0
M  V30 5675 O 527.204 1.34389 1.23474 0
M  V30 5676 C 527.255 3.16915 -1.73917 0
M  V30 5677 O 526.976 3.06511 -3.13021 0
M  V30 5678 C 528.477 4.11032 -1.66036 0
M  V30 5679 H 525.697 0.548092 -0.387087 0
M  V30 5680 H 528.241 1.2178 -1.64286 0
M  V30 5681 H 526.396 3.66884 -1.244 0
M  V30 5682 H 526.81 3.96079 -3.43834 0
M  V30 5683 H 528.284 5.08446 -2.14911 0
M  V30 5684 H 528.761 4.34785 -0.621159 0
M  V30 5685 H 529.367 3.66972 -2.14969 0
M  V30 5686 N 527.682 1.05563 1.17022 0
M  V30 5687 C 528.615 0.604197 2.20056 0
M  V30 5688 C 529.593 -0.369169 1.58354 0
M  V30 5689 O 530.777 -0.279898 1.8641 0
M  V30 5690 C 527.904 -0.115265 3.38504 0
M  V30 5691 C 526.95 0.813698 4.18666 0
M  V30 5692 S 527.783 2.30492 4.83357 0
M  V30 5693 C 528.939 1.59674 6.0519 0
M  V30 5694 H 529.172 1.47713 2.58008 0
M  V30 5695 H 526.705 0.867932 1.27696 0
M  V30 5696 H 528.663 -0.524162 4.0714 0
M  V30 5697 H 527.324 -0.964284 2.98932 0
M  V30 5698 H 526.517 0.256736 5.03346 0
M  V30 5699 H 526.119 1.16213 3.55486 0
M  V30 5700 H 528.411 0.898164 6.7152 0
M  V30 5701 H 529.354 2.42115 6.65422 0
M  V30 5702 H 529.762 1.08252 5.54023 0
M  V30 5703 N 529.16 -1.33526 0.837174 0
M  V30 5704 C 530.408 -1.97446 0.431211 0
M  V30 5705 C 530.729 -1.6665 -1.01255 0
M  V30 5706 O 529.999 -0.964559 -1.70508 0
M  V30 5707 H 528.579 -0.73043 0.156463 0
M  V30 5708 H 531.241 -1.62918 1.06976 0
M  V30 5709 H 530.337 -3.07001 0.561877 0
M  V30 5710 N 530.638 -0.59345 -1.46 0
M  V30 5711 C 531.886 -0.082988 -2.0193 0
M  V30 5712 C 532.207 1.28569 -1.46612 0
M  V30 5713 O 531.477 1.84629 -0.654909 0
M  V30 5714 H 530.057 -0.0276882 -0.746487 0
M  V30 5715 H 532.719 -0.771657 -1.78973 0
M  V30 5716 H 531.815 -0.022079 -3.12092 0
M  V30 5717 N 532.116 1.54067 -0.331816 0
M  V30 5718 C 533.393 1.92915 0.322955 0
M  V30 5719 C 533.773 1.26225 1.69205 0
M  V30 5720 O 533.121 0.408919 2.24811 0
M  V30 5721 C 533.331 3.46619 0.406946 0
M  V30 5722 C 534.679 4.19386 0.663339 0
M  V30 5723 O 535.703 3.5282 0.489536 0
M  V30 5724 O 534.562 5.37288 0.999193 0
M  V30 5725 H 531.656 0.805808 0.186016 0
M  V30 5726 H 534.202 1.65342 -0.382135 0
M  V30 5727 H 532.974 3.87354 -0.554287 0
M  V30 5728 H 532.597 3.80324 1.15929 0
M  V30 5729 N 533.594 0.0601682 1.57485 0
M  V30 5730 C 534.524 -0.90889 2.15085 0
M  V30 5731 C 535.505 -1.31838 1.07484 0
M  V30 5732 O 536.69 -1.3915 1.35466 0
M  V30 5733 C 533.82 -2.18059 2.7031 0
M  V30 5734 C 532.774 -1.91088 3.82974 0
M  V30 5735 C 532.1 -3.24789 4.24754 0
M  V30 5736 C 533.4 -1.22535 5.07723 0
M  V30 5737 H 535.094 -0.429093 2.96309 0
M  V30 5738 H 532.64 -0.204952 1.42534 0
M  V30 5739 H 534.593 -2.86258 3.09248 0
M  V30 5740 H 533.317 -2.6826 1.8629 0
M  V30 5741 H 531.976 -1.25297 3.44523 0
M  V30 5742 H 531.624 -3.72809 3.37672 0
M  V30 5743 H 531.324 -3.07538 5.00694 0
M  V30 5744 H 532.848 -3.94205 4.66299 0
M  V30 5745 H 534.262 -1.80783 5.4405 0
M  V30 5746 H 532.659 -1.1558 5.88864 0
M  V30 5747 H 533.729 -0.202692 4.84476 0
M  V30 5748 N 535.072 -1.5615 -0.213296 0
M  V30 5749 C 536.297 -1.83986 -0.957282 0
M  V30 5750 C 536.722 -0.641526 -1.76822 0
M  V30 5751 O 536.08 0.409722 -1.7661 0
M  V30 5752 C 536.128 -3.09889 -1.84393 0
M  V30 5753 O 535.232 -2.89163 -2.94038 0
M  V30 5754 H 534.573 -0.606357 -0.270605 0
M  V30 5755 H 537.103 -2.03369 -0.224111 0
M  V30 5756 H 537.113 -3.40209 -2.25215 0
M  V30 5757 H 535.788 -3.96735 -1.24795 0
M  V30 5758 H 534.365 -2.70097 -2.57103 0
M  V30 5759 N 536.55 0.480323 -1.50102 0
M  V30 5760 C 537.798 1.23063 -1.60312 0
M  V30 5761 C 538.119 1.92659 -0.301226 0
M  V30 5762 O 537.389 1.83691 0.680753 0
M  V30 5763 H 535.969 0.457231 -0.590719 0
M  V30 5764 H 538.631 0.554893 -1.86834 0
M  V30 5765 H 537.727 1.9835 -2.40964 0
M  V30 5766 N 538.028 1.39524 0.732853 0
M  V30 5767 C 538.975 1.38416 1.84688 0
M  V30 5768 C 539.945 0.243539 1.64305 0
M  V30 5769 O 541.13 0.438979 1.85681 0
M  V30 5770 C 538.27 1.23555 3.22224 0
M  V30 5771 C 537.383 2.47179 3.54298 0
M  V30 5772 C 536.518 2.2489 4.81246 0
M  V30 5773 C 535.557 3.44178 5.0617 0
M  V30 5774 N 534.694 3.21192 6.24323 0
M  V30 5775 H 539.534 2.33645 1.84971 0
M  V30 5776 H 537.071 1.16059 0.903804 0
M  V30 5777 H 539.029 1.12949 4.0162 0
M  V30 5778 H 537.659 0.31954 3.21215 0
M  V30 5779 H 536.711 2.68379 2.69587 0
M  V30 5780 H 538.023 3.36022 3.68633 0
M  V30 5781 H 537.177 2.11538 5.68627 0
M  V30 5782 H 535.916 1.33443 4.69089 0
M  V30 5783 H 534.921 3.58025 4.17251 0
M  V30 5784 H 536.146 4.36528 5.20212 0
M  V30 5785 H 534.092 2.32413 6.1345 0
M  V30 5786 H 534.009 4.03594 6.39256 0
M  V30 5787 H 535.277 3.1154 7.14537 0
M  V30 5788 N 539.506 -0.963266 1.24736 0
M  V30 5789 C 540.469 -2.04013 1.04457 0
M  V30 5790 C 541.469 -1.608 0.000335555 0
M  V30 5791 O 542.659 -1.72515 0.241719 0
M  V30 5792 C 539.791 -3.35858 0.584162 0
M  V30 5793 H 540.984 -2.23436 2.00041 0
M  V30 5794 H 538.537 -1.13914 1.07021 0
M  V30 5795 H 539.272 -3.22128 -0.374673 0
M  V30 5796 H 539.057 -3.68568 1.3379 0
M  V30 5797 H 540.547 -4.1502 0.463451 0
M  V30 5798 N 540.985 -1.06182 -1.16461 0
M  V30 5799 C 541.917 -0.629584 -2.20383 0
M  V30 5800 C 542.93 0.311834 -1.59786 0
M  V30 5801 O 544.119 0.103 -1.78203 0
M  V30 5802 C 541.219 0.0973695 -3.3876 0
M  V30 5803 C 540.392 -0.857252 -4.28917 0
M  V30 5804 C 539.451 -0.169749 -5.25926 0
M  V30 5805 O 538.477 -0.807044 -5.6345 0
M  V30 5806 N 539.679 1.08911 -5.70192 0
M  V30 5807 H 542.444 -1.52352 -2.58087 0
M  V30 5808 H 540.005 -0.944993 -1.31459 0
M  V30 5809 H 541.997 0.567676 -4.00699 0
M  V30 5810 H 540.567 0.893093 -2.99571 0
M  V30 5811 H 539.787 -1.50696 -3.64259 0
M  V30 5812 H 541.075 -1.50489 -4.86035 0
M  V30 5813 H 540.473 1.62703 -5.41797 0
M  V30 5814 H 539.03 1.50331 -6.34227 0
M  V30 5815 N 542.463 1.3308 -0.844243 0
M  V30 5816 C 543.411 2.31028 -0.269954 0
M  V30 5817 C 544.405 1.58381 0.600997 0
M  V30 5818 O 545.611 1.73203 0.48996 0
M  V30 5819 H 541.986 0.748866 -0.0685782 0
M  V30 5820 H 543.957 2.76967 -1.11049 0
M  V30 5821 C 542.706 3.43549 0.535676 0
M  V30 5822 H 542.029 3.99604 -0.125202 0
M  V30 5823 H 543.469 4.14267 0.903262 0
M  V30 5824 C 541.928 2.8988 1.71672 0
M  V30 5825 O 542.458 2.86511 2.81557 0
M  V30 5826 N 540.664 2.46416 1.54037 0
M  V30 5827 H 540.211 2.49356 0.64649 0
M  V30 5828 H 540.169 2.1086 2.33207 0
M  V30 5829 N 543.941 0.601185 1.45683 0
M  V30 5830 C 544.904 -0.111398 2.28929 0
M  V30 5831 C 545.904 -0.801246 1.39416 0
M  V30 5832 O 547.094 -0.650383 1.61603 0
M  V30 5833 C 544.226 -1.16773 3.20276 0
M  V30 5834 H 545.419 0.620412 2.93413 0
M  V30 5835 H 542.972 0.359946 1.52099 0
M  V30 5836 H 543.707 -1.93051 2.60579 0
M  V30 5837 H 543.492 -0.677358 3.86205 0
M  V30 5838 H 544.982 -1.66698 3.82886 0
M  V30 5839 N 545.419 -1.53889 0.339982 0
M  V30 5840 C 546.644 -2.05741 -0.261798 0
M  V30 5841 C 547.069 -1.21354 -1.43718 0
M  V30 5842 O 546.427 -0.22645 -1.7988 0
M  V30 5843 C 546.475 -3.54542 -0.658228 0
M  V30 5844 O 545.579 -3.7302 -1.75869 0
M  V30 5845 H 544.92 -0.662529 -0.0441672 0
M  V30 5846 H 547.45 -1.98568 0.493161 0
M  V30 5847 H 547.46 -3.9711 -0.936368 0
M  V30 5848 H 546.135 -4.15412 0.201358 0
M  V30 5849 H 544.712 -3.42355 -1.47809 0
M  V30 5850 N 546.897 -0.0685191 -1.57451 0
M  V30 5851 C 547.844 0.899861 -2.12535 0
M  V30 5852 C 548.814 1.29749 -1.03703 0
M  V30 5853 O 549.999 1.38392 -1.31348 0
M  V30 5854 C 547.139 2.16328 -2.6888 0
M  V30 5855 C 546.252 1.81857 -3.91857 0
M  V30 5856 C 545.387 3.02786 -4.36457 0
M  V30 5857 C 544.426 2.64317 -5.5209 0
M  V30 5858 N 543.563 3.77994 -5.91663 0
M  V30 5859 H 548.403 0.423243 -2.94979 0
M  V30 5860 H 545.94 0.197268 -1.45771 0
M  V30 5861 H 547.898 2.90281 -2.99655 0
M  V30 5862 H 546.528 2.61536 -1.89206 0
M  V30 5863 H 545.58 0.979808 -3.67565 0
M  V30 5864 H 546.892 1.49553 -4.75852 0
M  V30 5865 H 546.046 3.85021 -4.68875 0
M  V30 5866 H 544.785 3.38281 -3.51308 0
M  V30 5867 H 543.79 1.80503 -5.19325 0
M  V30 5868 H 545.015 2.29995 -6.38967 0
M  V30 5869 H 542.961 4.13258 -5.09464 0
M  V30 5870 H 542.878 3.49447 -6.7039 0
M  V30 5871 H 544.146 4.60818 -6.28703 0
M  V30 5872 N 548.375 1.56261 0.205012 0
M  V30 5873 C 549.623 1.79684 0.925096 0
M  V30 5874 C 549.944 0.63989 1.84202 0
M  V30 5875 O 549.214 -0.342345 1.92885 0
M  V30 5876 H 547.794 0.662774 0.344587 0
M  V30 5877 H 550.456 1.93734 0.212899 0
M  V30 5878 H 549.552 2.72467 1.52211 0
M  V30 5879 N 549.853 -0.472356 1.50355 0
M  V30 5880 C 551.102 -1.2213 1.60522 0
M  V30 5881 C 551.415 -1.9312 0.310466 0
M  V30 5882 O 552.621 -2.69936 0.291029 0
M  V30 5883 C 551.077 -2.21909 2.83345 0
M  V30 5884 C 550.685 -1.56727 4.19691 0
M  V30 5885 C 552.429 -2.97453 3.02856 0
M  V30 5886 C 550.336 -2.54785 5.33703 0
M  V30 5887 H 549.266 -0.459543 0.597776 0
M  V30 5888 H 551.917 -0.491922 1.76783 0
M  V30 5889 H 550.299 -2.98133 2.60639 0
M  V30 5890 H 551.473 -0.863007 4.52646 0
M  V30 5891 H 549.788 -0.934685 4.05774 0
M  V30 5892 H 552.385 -3.70838 3.85205 0
M  V30 5893 H 552.728 -3.56764 2.14534 0
M  V30 5894 H 553.261 -2.28342 3.25737 0
M  V30 5895 H 550 -2.00214 6.24175 0
M  V30 5896 H 549.52 -3.23367 5.05167 0
M  V30 5897 H 551.199 -3.16639 5.64224 0
M  V30 5898 N 551.331 -1.39911 -0.725443 0
M  V30 5899 C 552.561 -1.40744 -1.51244 0
M  V30 5900 C 552.969 -0.00275403 -1.892 0
M  V30 5901 O 552.312 0.981299 -1.55294 0
M  V30 5902 C 552.374 -2.22527 -2.82351 0
M  V30 5903 C 552.038 -3.71053 -2.66774 0
M  V30 5904 C 553.035 -4.63916 -2.34686 0
M  V30 5905 C 550.72 -4.14753 -2.83347 0
M  V30 5906 C 552.714 -5.98463 -2.19366 0
M  V30 5907 C 550.401 -5.49372 -2.67644 0
M  V30 5908 C 551.399 -6.41042 -2.357 0
M  V30 5909 O 551.087 -7.73181 -2.20107 0
M  V30 5910 H 550.819 -0.482314 -0.473655 0
M  V30 5911 H 553.373 -1.84472 -0.903284 0
M  V30 5912 H 551.603 -1.73563 -3.45562 0
M  V30 5913 H 553.292 -2.15421 -3.44018 0
M  V30 5914 H 554.058 -4.31453 -2.21525 0
M  V30 5915 H 549.937 -3.43728 -3.072 0
M  V30 5916 H 553.481 -6.69979 -1.94354 0
M  V30 5917 H 549.378 -5.81424 -2.80387 0
M  V30 5918 H 550.146 -7.84008 -2.35103 0
M  V30 5919 N 552.809 0.956637 -1.25245 0
M  V30 5920 C 553.772 2.03457 -1.05537 0
M  V30 5921 C 554.772 1.60798 -0.00886317 0
M  V30 5922 O 555.962 1.72384 -0.250865 0
M  V30 5923 C 553.094 3.35543 -0.601965 0
M  V30 5924 H 554.287 2.22372 -2.01223 0
M  V30 5925 H 551.84 1.13344 -1.07623 0
M  V30 5926 H 552.575 3.22323 0.357584 0
M  V30 5927 H 552.36 3.67854 -1.35743 0
M  V30 5928 H 553.85 4.14769 -0.485454 0
M  V30 5929 N 554.287 1.06798 1.15896 0
M  V30 5930 C 555.22 0.627503 2.19403 0
M  V30 5931 C 556.198 -0.352352 1.58736 0
M  V30 5932 O 557.382 -0.260111 1.86697 0
M  V30 5933 C 554.509 -0.079356 3.38607 0
M  V30 5934 C 553.555 0.858057 4.17779 0
M  V30 5935 S 554.388 2.35605 4.80885 0
M  V30 5936 C 555.544 1.66083 6.03463 0
M  V30 5937 H 555.777 1.50441 2.56427 0
M  V30 5938 H 553.31 0.881427 1.26768 0
M  V30 5939 H 555.268 -0.48095 4.07673 0
M  V30 5940 H 553.929 -0.932524 2.99938 0
M  V30 5941 H 553.122 0.310108 5.03045 0
M  V30 5942 H 552.724 1.19977 3.54234 0
M  V30 5943 H 555.016 0.969337 6.7053 0
M  V30 5944 H 555.959 2.49159 6.62816 0
M  V30 5945 H 556.367 1.14122 5.52844 0
M  V30 5946 N 555.766 -1.3263 0.851289 0
M  V30 5947 C 556.729 -2.27247 0.298541 0
M  V30 5948 C 557.729 -1.51467 -0.539847 0
M  V30 5949 O 558.919 -1.7061 -0.351843 0
M  V30 5950 C 556.051 -3.35964 -0.578004 0
M  V30 5951 H 557.244 -2.7765 1.13359 0
M  V30 5952 H 554.797 -1.43245 0.625354 0
M  V30 5953 H 555.532 -2.90823 -1.435 0
M  V30 5954 H 555.317 -3.92094 0.0220539 0
M  V30 5955 H 556.807 -4.06472 -0.957626 0
M  V30 5956 N 557.244 -0.608902 -1.45362 0
M  V30 5957 C 558.469 -0.10921 -2.07112 0
M  V30 5958 C 558.894 1.19779 -1.45033 0
M  V30 5959 O 558.252 1.72961 -0.543527 0
M  V30 5960 C 558.3 0.0155745 -3.60597 0
M  V30 5961 O 557.404 1.06546 -3.98399 0
M  V30 5962 H 556.745 -0.0746619 -0.659789 0
M  V30 5963 H 559.275 -0.839283 -1.86594 0
M  V30 5964 H 559.285 0.213364 -4.07442 0
M  V30 5965 H 557.96 -0.938765 -4.05167 0
M  V30 5966 H 556.537 0.844024 -3.63223 0
M  V30 5967 N 558.722 1.53707 -0.348139 0
M  V30 5968 C 560.138 1.596 0.00361134 0
M  V30 5969 C 560.338 1.36394 1.4832 0
M  V30 5970 O 559.394 1.16046 2.24253 0
M  V30 5971 C 560.707 2.97512 -0.436682 0
M  V30 5972 C 562.255 3.10568 -0.389416 0
M  V30 5973 C 562.73 4.50866 -0.805249 0
M  V30 5974 N 564.221 4.56929 -0.759616 0
M  V30 5975 C 564.956 5.63643 -1.05327 0
M  V30 5976 N 564.452 6.78189 -1.41531 0
M  V30 5977 N 566.245 5.5354 -0.977207 0
M  V30 5978 H 558.396 1.67044 -1.31187 0
M  V30 5979 H 560.659 0.782559 -0.535075 0
M  V30 5980 H 560.365 3.19575 -1.46849 0
M  V30 5981 H 560.239 3.76742 0.185744 0
M  V30 5982 H 562.626 2.88226 0.633228 0
M  V30 5983 H 562.707 2.33387 -1.04711 0
M  V30 5984 H 562.351 4.73943 -1.82593 0
M  V30 5985 H 562.281 5.26452 -0.124989 0
M  V30 5986 H 564.772 3.74675 -0.49265 0
M  V30 5987 H 565.085 7.55541 -1.62411 0
M  V30 5988 H 563.43 6.79624 -1.45381 0
M  V30 5989 H 566.621 4.62932 -0.693675 0
M  V30 5990 H 566.794 6.36614 -1.2094 0
M  V30 5991 N 560.2 0.0768682 1.57412 0
M  V30 5992 C 561.477 -0.632359 1.85096 0
M  V30 5993 C 561.857 -1.87479 0.9703 0
M  V30 5994 O 561.205 -2.28469 0.0379062 0
M  V30 5995 C 561.415 -0.965174 3.35388 0
M  V30 5996 C 562.763 -1.33648 4.03018 0
M  V30 5997 O 563.787 -1.05675 3.40164 0
M  V30 5998 O 562.646 -1.85959 5.13889 0
M  V30 5999 H 559.74 -0.314574 0.764835 0
M  V30 6000 H 562.286 0.108184 1.69355 0
M  V30 6001 H 561.058 -0.0829745 3.91212 0
M  V30 6002 H 560.681 -1.76231 3.5641 0
M  V30 6003 N 561.678 -1.56367 -0.196722 0
M  V30 6004 C 562.924 -1.80796 -0.918725 0
M  V30 6005 C 563.257 -0.650645 -1.82976 0
M  V30 6006 O 562.532 0.348889 -1.91345 0
M  V30 6007 C 562.815 -3.15472 -1.73636 0
M  V30 6008 C 562.668 -4.41693 -0.85015 0
M  V30 6009 C 563.987 -3.46824 -2.70927 0
M  V30 6010 H 561.106 -0.657702 -0.332561 0
M  V30 6011 H 563.748 -1.89086 -0.186186 0
M  V30 6012 H 561.898 -3.08536 -2.36088 0
M  V30 6013 H 563.57 -4.60673 -0.240459 0
M  V30 6014 H 561.813 -4.33517 -0.156785 0
M  V30 6015 H 562.484 -5.32419 -1.45719 0
M  V30 6016 H 564.96 -3.54049 -2.18607 0
M  V30 6017 H 563.836 -4.4218 -3.25219 0
M  V30 6018 H 564.097 -2.70236 -3.49893 0
M  V30 6019 N 563.156 0.464375 -1.50603 0
M  V30 6020 C 564.403 1.21596 -1.61928 0
M  V30 6021 C 564.731 1.91804 -0.322737 0
M  V30 6022 O 563.986 1.83065 0.691776 0
M  V30 6023 C 564.285 2.278 -2.75394 0
M  V30 6024 C 563.951 1.74797 -4.1564 0
M  V30 6025 C 562.613 1.60063 -4.53799 0
M  V30 6026 C 564.965 1.35548 -5.03266 0
M  V30 6027 C 562.293 1.04514 -5.77316 0
M  V30 6028 C 564.645 0.814381 -6.27336 0
M  V30 6029 C 563.309 0.653726 -6.64291 0
M  V30 6030 H 562.579 0.444951 -0.592536 0
M  V30 6031 H 565.226 0.510964 -1.84557 0
M  V30 6032 H 563.531 3.04233 -2.46879 0
M  V30 6033 H 565.228 2.85723 -2.81359 0
M  V30 6034 H 561.818 1.87234 -3.8554 0
M  V30 6035 H 566.002 1.45763 -4.74412 0
M  V30 6036 H 561.258 0.908186 -6.04617 0
M  V30 6037 H 565.432 0.501626 -6.94591 0
M  V30 6038 H 563.059 0.22114 -7.59878 0
M  V30 6039 N 564.634 1.40294 0.718013 0
M  V30 6040 C 565.564 1.43118 1.84498 0
M  V30 6041 C 566.545 0.292403 1.67568 0
M  V30 6042 O 567.73 0.500675 1.87635 0
M  V30 6043 C 564.86 1.29065 3.22427 0
M  V30 6044 C 563.814 2.40521 3.54025 0
M  V30 6045 C 563.14 2.11546 4.91073 0
M  V30 6046 C 564.44 3.82859 3.55269 0
M  V30 6047 H 566.134 2.37432 1.82391 0
M  V30 6048 H 563.68 1.14283 0.87609 0
M  V30 6049 H 565.633 1.29658 4.00957 0
M  V30 6050 H 564.357 0.312271 3.25104 0
M  V30 6051 H 563.016 2.39173 2.77834 0
M  V30 6052 H 562.664 1.12104 4.90348 0
M  V30 6053 H 562.364 2.86216 5.1318 0
M  V30 6054 H 563.888 2.13817 5.71939 0
M  V30 6055 H 565.302 3.86044 4.23843 0
M  V30 6056 H 563.699 4.57029 3.88902 0
M  V30 6057 H 564.769 4.12617 2.54706 0
M  V30 6058 N 566.112 -0.949982 1.2575 0
M  V30 6059 C 567.042 -2.06483 1.09028 0
M  V30 6060 C 568.023 -1.701 -0.00201532 0
M  V30 6061 O 569.208 -1.93469 0.168383 0
M  V30 6062 C 566.338 -3.39899 0.71316 0
M  V30 6063 C 565.292 -3.90309 1.75621 0
M  V30 6064 C 564.618 -5.20274 1.23365 0
M  V30 6065 C 565.918 -4.16169 3.15596 0
M  V30 6066 H 567.612 -2.20731 2.02283 0
M  V30 6067 H 565.158 -1.06066 0.973964 0
M  V30 6068 H 567.111 -4.17346 0.58309 0
M  V30 6069 H 565.835 -3.25602 -0.255091 0
M  V30 6070 H 564.494 -3.15035 1.8748 0
M  V30 6071 H 564.142 -5.02351 0.255491 0
M  V30 6072 H 563.842 -5.54971 1.93082 0
M  V30 6073 H 565.366 -6.00314 1.11607 0
M  V30 6074 H 566.78 -4.84259 3.06864 0
M  V30 6075 H 565.177 -4.62131 3.82825 0
M  V30 6076 H 566.247 -3.22273 3.6231 0
M  V30 6077 N 567.59 -1.07411 -1.15328 0
M  V30 6078 C 568.537 -0.694995 -2.20087 0
M  V30 6079 C 569.507 0.313904 -1.63107 0
M  V30 6080 O 570.692 0.200216 -1.89747 0
M  V30 6081 C 567.832 -0.0996218 -3.44956 0
M  V30 6082 C 566.945 -1.16007 -4.16133 0
M  V30 6083 C 566.08 -0.529636 -5.28553 0
M  V30 6084 C 565.119 -1.57283 -5.91548 0
M  V30 6085 N 564.256 -0.964932 -6.95438 0
M  V30 6086 H 569.096 -1.5927 -2.51867 0
M  V30 6087 H 566.633 -0.796115 -1.23695 0
M  V30 6088 H 568.591 0.263197 -4.16369 0
M  V30 6089 H 567.221 0.761435 -3.13691 0
M  V30 6090 H 566.273 -1.64045 -3.4321 0
M  V30 6091 H 567.585 -1.95101 -4.59061 0
M  V30 6092 H 566.739 -0.114487 -6.06592 0
M  V30 6093 H 565.478 0.29307 -4.86819 0
M  V30 6094 H 564.483 -1.99775 -5.12221 0
M  V30 6095 H 565.708 -2.39783 -6.35359 0
M  V30 6096 H 563.654 -0.16314 -6.55797 0
M  V30 6097 H 563.571 -1.69311 -7.36797 0
M  V30 6098 H 564.839 -0.575305 -7.77374 0
M  V30 6099 N 569.068 1.32177 -0.85831 0
M  V30 6100 C 570.016 2.30729 -0.294442 0
M  V30 6101 C 571.01 1.59009 0.584165 0
M  V30 6102 O 572.216 1.73713 0.471562 0
M  V30 6103 H 568.591 0.748097 -0.0765171 0
M  V30 6104 H 570.562 2.75774 -1.1398 0
M  V30 6105 C 569.311 3.44098 0.499208 0
M  V30 6106 H 568.634 3.99449 -0.167579 0
M  V30 6107 H 570.074 4.15202 0.859273 0
M  V30 6108 C 568.533 2.91684 1.68588 0
M  V30 6109 O 569.063 2.89481 2.78503 0
M  V30 6110 N 567.269 2.48036 1.51415 0
M  V30 6111 H 566.816 2.50027 0.620006 0
M  V30 6112 H 566.774 2.13322 2.30957 0
M  V30 6113 N 570.547 0.616602 1.45037 0
M  V30 6114 C 571.479 -0.135186 2.28801 0
M  V30 6115 C 572.492 -0.82303 1.40464 0
M  V30 6116 O 573.681 -0.686909 1.64754 0
M  V30 6117 C 570.781 -1.21292 3.16451 0
M  V30 6118 C 569.954 -0.61043 4.3312 0
M  V30 6119 C 569.013 -1.58022 5.01912 0
M  V30 6120 O 568.039 -1.10301 5.58411 0
M  V30 6121 N 569.241 -2.91464 5.02025 0
M  V30 6122 H 572.006 0.583612 2.93963 0
M  V30 6123 H 569.567 0.456723 1.55324 0
M  V30 6124 H 571.559 -1.86169 3.59337 0
M  V30 6125 H 570.129 -1.83412 2.53138 0
M  V30 6126 H 569.349 0.216638 3.93604 0
M  V30 6127 H 570.637 -0.188293 5.08451 0
M  V30 6128 H 570.035 -3.32829 4.57429 0
M  V30 6129 H 568.592 -3.51741 5.48745 0
M  V30 6130 N 572.025 -1.5352 0.356285 0
M  V30 6131 C 573.436 -1.86282 -0.12492 0
M  V30 6132 C 573.787 -1.27717 -1.48939 0
M  V30 6133 O 572.912 -0.595614 -2.08042 0
M  V30 6134 C 573.507 -3.37995 -0.23345 0
M  V30 6135 C 572.066 -3.70588 -0.658899 0
M  V30 6136 C 571.213 -2.76581 0.199596 0
M  V30 6137 H 574.164 -1.47901 0.575423 0
M  V30 6138 H 574.185 -3.65475 -1.0587 0
M  V30 6139 H 573.697 -3.8059 0.759776 0
M  V30 6140 H 571.798 -3.33544 -1.66069 0
M  V30 6141 H 571.911 -4.77076 -0.439957 0
M  V30 6142 H 570.275 -2.52552 -0.330076 0
M  V30 6143 H 571.058 -3.22008 1.19019 0
M  V30 6144 N 573.503 -0.0852151 -1.57369 0
M  V30 6145 C 574.743 0.584297 -1.95871 0
M  V30 6146 C 575.107 1.6596 -0.965473 0
M  V30 6147 O 576.308 2.38561 -1.23862 0
M  V30 6148 C 574.579 1.13411 -3.38929 0
M  V30 6149 S 576.138 1.81687 -3.99419 0
M  V30 6150 H 572.956 0.19095 -0.684879 0
M  V30 6151 H 575.558 -0.162267 -1.94825 0
M  V30 6152 H 574.262 0.339845 -4.0899 0
M  V30 6153 H 573.793 1.91672 -3.43548 0
M  V30 6154 H 575.808 3.10037 -3.87417 0
M  V30 6155 N 574.981 1.5647 0.188427 0
M  V30 6156 C 576.211 1.84863 0.922463 0
M  V30 6157 C 576.619 0.666413 1.77075 0
M  V30 6158 O 575.962 -0.374044 1.79852 0
M  V30 6159 C 576.024 3.07447 1.86324 0
M  V30 6160 C 575.688 4.41066 1.19625 0
M  V30 6161 C 576.685 5.16767 0.569946 0
M  V30 6162 C 574.37 4.87802 1.19811 0
M  V30 6163 C 576.364 6.37384 -0.045594 0
M  V30 6164 C 574.051 6.08353 0.57874 0
M  V30 6165 C 575.049 6.82987 -0.0420259 0
M  V30 6166 O 574.737 8.01254 -0.651675 0
M  V30 6167 H 574.469 0.61784 0.274316 0
M  V30 6168 H 577.023 2.04437 0.198613 0
M  V30 6169 H 575.253 2.83774 2.62696 0
M  V30 6170 H 576.942 3.2243 2.46564 0
M  V30 6171 H 577.708 4.81749 0.560601 0
M  V30 6172 H 573.587 4.29662 1.67069 0
M  V30 6173 H 577.131 6.95578 -0.530731 0
M  V30 6174 H 573.028 6.42838 0.58561 0
M  V30 6175 H 573.796 8.16655 -0.549236 0
M  V30 6176 N 576.459 -0.456382 1.50847 0
M  V30 6177 C 577.875 -0.791345 1.386 0
M  V30 6178 C 578.075 -1.9633 0.453498 0
M  V30 6179 O 577.131 -2.52308 -0.0984353 0
M  V30 6180 C 578.444 -1.08959 2.80265 0
M  V30 6181 C 579.992 -1.19517 2.89283 0
M  V30 6182 C 580.467 -1.52647 4.31814 0
M  V30 6183 N 581.958 -1.59609 4.34832 0
M  V30 6184 C 582.693 -1.86777 5.42127 0
M  V30 6185 N 582.189 -2.11866 6.59609 0
M  V30 6186 N 583.982 -1.88402 5.29586 0
M  V30 6187 H 576.133 0.315746 2.1004 0
M  V30 6188 H 578.396 0.0787916 0.94472 0
M  V30 6189 H 578.102 -0.301355 3.50407 0
M  V30 6190 H 577.976 -2.02211 3.18419 0
M  V30 6191 H 580.363 -1.97406 2.19351 0
M  V30 6192 H 580.444 -0.242111 2.54652 0
M  V30 6193 H 580.088 -0.752922 5.02288 0
M  V30 6194 H 580.018 -2.49127 4.63943 0
M  V30 6195 H 582.509 -1.42201 3.50125 0
M  V30 6196 H 582.822 -2.31912 7.37182 0
M  V30 6197 H 581.167 -2.09228 6.62758 0
M  V30 6198 H 584.358 -1.68307 4.36795 0
M  V30 6199 H 584.531 -2.09238 6.13289 0
M  V30 6200 N 577.937 -1.40673 -0.710563 0
M  V30 6201 C 578.884 -1.41336 -1.82463 0
M  V30 6202 C 579.854 -0.269648 -1.63897 0
M  V30 6203 O 581.039 -0.468463 -1.8496 0
M  V30 6204 C 578.179 -1.28665 -3.20218 0
M  V30 6205 C 577.292 -2.52784 -3.5032 0
M  V30 6206 C 576.427 -2.32517 -4.77608 0
M  V30 6207 C 575.466 -3.52187 -5.0063 0
M  V30 6208 N 574.603 -3.31084 -6.19135 0
M  V30 6209 H 579.443 -2.36558 -1.8123 0
M  V30 6210 H 576.98 -1.17483 -0.885226 0
M  V30 6211 H 578.938 -1.19324 -3.99772 0
M  V30 6212 H 577.568 -0.370602 -3.20666 0
M  V30 6213 H 576.62 -2.72634 -2.65283 0
M  V30 6214 H 577.932 -3.41845 -3.63241 0
M  V30 6215 H 577.086 -2.20558 -5.65189 0
M  V30 6216 H 575.825 -1.40889 -4.66906 0
M  V30 6217 H 574.83 -3.64617 -4.11502 0
M  V30 6218 H 576.055 -4.44749 -5.13201 0
M  V30 6219 H 574.001 -2.42143 -6.09674 0
M  V30 6220 H 573.918 -4.13713 -6.32754 0
M  V30 6221 H 575.186 -3.22868 -7.0949 0
M  V30 6222 N 579.415 0.9433 -1.26252 0
M  V30 6223 C 580.345 2.05902 -1.10122 0
M  V30 6224 C 581.326 1.70099 -0.00700552 0
M  V30 6225 O 582.511 1.93377 -0.178641 0
M  V30 6226 C 579.641 3.39516 -0.731175 0
M  V30 6227 C 578.595 3.89372 -1.77688 0
M  V30 6228 C 577.921 5.19613 -1.26122 0
M  V30 6229 C 579.221 4.14489 -3.17799 0
M  V30 6230 H 580.915 2.19655 -2.03451 0
M  V30 6231 H 578.461 1.05548 -0.979576 0
M  V30 6232 H 580.414 4.17031 -0.605215 0
M  V30 6233 H 579.138 3.25733 0.23782 0
M  V30 6234 H 577.797 3.14036 -1.89148 0
M  V30 6235 H 577.445 5.02208 -0.282128 0
M  V30 6236 H 577.145 5.53939 -1.96023 0
M  V30 6237 H 578.669 5.99713 -1.14789 0
M  V30 6238 H 580.083 4.82625 -3.09428 0
M  V30 6239 H 578.48 4.60094 -3.85271 0
M  V30 6240 H 579.55 3.20347 -3.64014 0
M  V30 6241 N 580.893 1.08022 1.14757 0
M  V30 6242 C 582.141 0.805913 1.85336 0
M  V30 6243 C 582.462 -0.670162 1.83122 0
M  V30 6244 O 581.732 -1.48567 1.2769 0
M  V30 6245 H 580.312 0.295138 0.686223 0
M  V30 6246 H 582.974 1.36538 1.3908 0
M  V30 6247 H 582.07 1.14655 2.90277 0
M  V30 6248 N 582.371 -1.3172 0.865308 0
M  V30 6249 C 583.301 -2.31109 0.333302 0
M  V30 6250 C 584.282 -1.60148 -0.573301 0
M  V30 6251 O 585.467 -1.87882 -0.491305 0
M  V30 6252 C 582.597 -3.44104 -0.470078 0
M  V30 6253 C 581.551 -4.26623 0.343021 0
M  V30 6254 C 580.877 -5.31482 -0.585756 0
M  V30 6255 C 582.177 -4.98001 1.57456 0
M  V30 6256 H 583.871 -2.75855 1.1638 0
M  V30 6257 H 581.417 -1.3262 0.561069 0
M  V30 6258 H 583.37 -4.12682 -0.852752 0
M  V30 6259 H 582.094 -2.98112 -1.33404 0
M  V30 6260 H 580.753 -3.59707 0.707583 0
M  V30 6261 H 580.401 -4.81741 -1.44686 0
M  V30 6262 H 580.101 -5.87582 -0.0456494 0
M  V30 6263 H 581.625 -6.0292 -0.965375 0
M  V30 6264 H 583.039 -5.59201 1.26359 0
M  V30 6265 H 581.436 -5.63876 2.05339 0
M  V30 6266 H 582.506 -4.25253 2.32997 0
M  V30 6267 N 583.85 -0.624285 -1.44708 0
M  V30 6268 C 584.76 0.0861083 -2.34442 0
M  V30 6269 C 585.776 0.84291 -1.5222 0
M  V30 6270 O 586.952 0.796723 -1.84971 0
M  V30 6271 C 584.017 1.05999 -3.30099 0
M  V30 6272 C 583.077 0.303316 -4.28227 0
M  V30 6273 C 582.311 1.23081 -5.19314 0
M  V30 6274 O 582.534 2.46929 -5.14181 0
M  V30 6275 O 581.468 0.71883 -5.97592 0
M  V30 6276 H 585.293 -0.651756 -2.96624 0
M  V30 6277 H 582.879 -0.384493 -1.44368 0
M  V30 6278 H 584.76 1.62046 -3.88997 0
M  V30 6279 H 583.436 1.77859 -2.70459 0
M  V30 6280 H 582.343 -0.300033 -3.72895 0
M  V30 6281 H 583.676 -0.375123 -4.90768 0
M  V30 6282 N 585.328 1.53329 -0.364422 0
M  V30 6283 C 586.574 2.01537 0.225969 0
M  V30 6284 C 586.907 1.25128 1.48515 0
M  V30 6285 O 586.182 0.344653 1.91422 0
M  V30 6286 C 586.465 3.56339 0.519092 0
M  V30 6287 C 586.318 4.43441 -0.753639 0
M  V30 6288 C 587.637 4.19833 1.32015 0
M  V30 6289 H 584.756 0.732573 0.0806548 0
M  V30 6290 H 587.398 1.83597 -0.489084 0
M  V30 6291 H 585.548 3.71756 1.12825 0
M  V30 6292 H 587.22 4.39823 -1.39116 0
M  V30 6293 H 585.463 4.11457 -1.37424 0
M  V30 6294 H 586.134 5.49699 -0.503517 0
M  V30 6295 H 588.61 4.08242 0.804859 0
M  V30 6296 H 587.486 5.28177 1.49399 0
M  V30 6297 H 587.747 3.75821 2.32832 0
M  V30 6298 N 586.806 0.0935595 1.57322 0
M  V30 6299 C 588.036 -0.578095 1.98347 0
M  V30 6300 C 588.444 -1.62357 0.971441 0
M  V30 6301 O 587.787 -1.83639 -0.0473959 0
M  V30 6302 C 587.849 -1.28525 3.3574 0
M  V30 6303 C 587.513 -0.390714 4.55327 0
M  V30 6304 C 588.51 0.360522 5.18648 0
M  V30 6305 C 586.195 -0.309221 5.01347 0
M  V30 6306 C 588.189 1.18125 6.26359 0
M  V30 6307 C 585.876 0.515157 6.08925 0
M  V30 6308 C 586.874 1.25904 6.71295 0
M  V30 6309 O 586.562 2.06978 7.76798 0
M  V30 6310 H 586.294 -0.159767 0.656849 0
M  V30 6311 H 588.848 0.169058 2.04703 0
M  V30 6312 H 587.078 -2.07894 3.26063 0
M  V30 6313 H 588.767 -1.85128 3.61223 0
M  V30 6314 H 589.533 0.307285 4.84026 0
M  V30 6315 H 585.412 -0.877881 4.52564 0
M  V30 6316 H 588.956 1.76236 6.74971 0
M  V30 6317 H 584.853 0.56988 6.42979 0
M  V30 6318 H 585.621 1.99644 7.93779 0
M  V30 6319 N 588.284 -1.56567 -0.180126 0
M  V30 6320 C 589.53 -1.81761 -0.899497 0
M  V30 6321 C 589.863 -0.670015 -1.82276 0
M  V30 6322 O 589.138 0.328575 -1.91705 0
M  V30 6323 C 589.421 -3.17296 -1.7028 0
M  V30 6324 C 589.274 -4.4257 -0.803255 0
M  V30 6325 C 590.593 -3.49678 -2.67233 0
M  V30 6326 H 587.712 -0.661192 -0.325567 0
M  V30 6327 H 590.354 -1.89272 -0.16612 0
M  V30 6328 H 588.504 -3.11023 -2.32802 0
M  V30 6329 H 590.176 -4.60902 -0.191585 0
M  V30 6330 H 588.419 -4.33658 -0.110796 0
M  V30 6331 H 589.09 -5.33935 -1.40064 0
M  V30 6332 H 591.566 -3.56347 -2.14839 0
M  V30 6333 H 590.442 -4.45605 -3.20511 0
M  V30 6334 H 590.703 -2.73932 -3.47007 0
M  V30 6335 N 589.762 0.448376 -1.51087 0
M  V30 6336 C 590.99 1.22143 -1.66999 0
M  V30 6337 C 591.405 1.85283 -0.362699 0
M  V30 6338 O 590.762 1.70236 0.65772 0
M  V30 6339 C 590.813 2.31357 -2.7777 0
M  V30 6340 O 590.534 1.70801 -4.03434 0
M  V30 6341 C 592.035 3.21836 -3.04855 0
M  V30 6342 H 589.255 0.368558 -0.560719 0
M  V30 6343 H 591.799 0.532618 -1.97442 0
M  V30 6344 H 589.954 2.95973 -2.49958 0
M  V30 6345 H 590.368 2.42895 -4.64868 0
M  V30 6346 H 591.842 3.94627 -3.85971 0
M  V30 6347 H 592.319 3.81949 -2.16821 0
M  V30 6348 H 592.925 2.62933 -3.34285 0
M  V30 6349 N 591.24 1.41047 0.703093 0
M  V30 6350 C 592.487 1.4 1.46309 0
M  V30 6351 C 592.815 0.00654574 1.94499 0
M  V30 6352 O 592.07 -0.980255 1.6938 0
M  V30 6353 C 592.369 2.34686 2.6955 0
M  V30 6354 C 592.035 3.81684 2.40058 0
M  V30 6355 C 590.697 4.21731 2.31725 0
M  V30 6356 C 593.049 4.74525 2.15581 0
M  V30 6357 C 590.377 5.52637 1.97001 0
M  V30 6358 C 592.729 6.05744 1.82366 0
M  V30 6359 C 591.393 6.44819 1.72524 0
M  V30 6360 H 590.663 0.512295 0.535382 0
M  V30 6361 H 593.31 1.73792 0.804275 0
M  V30 6362 H 591.615 1.94122 3.40329 0
M  V30 6363 H 593.312 2.31152 3.27673 0
M  V30 6364 H 589.902 3.49963 2.47435 0
M  V30 6365 H 594.086 4.44395 2.20968 0
M  V30 6366 H 589.342 5.81802 1.87928 0
M  V30 6367 H 593.516 6.77189 1.62444 0
M  V30 6368 H 591.143 7.46168 1.45385 0
M  V30 6369 N 592.718 -0.936591 1.26751 0
M  V30 6370 C 593.965 -1.68331 1.12566 0
M  V30 6371 C 594.293 -1.91677 -0.330168 0
M  V30 6372 O 593.548 -1.49859 -1.2586 0
M  V30 6373 C 593.847 -3.06099 1.84494 0
M  V30 6374 C 593.513 -3.02493 3.34378 0
M  V30 6375 C 592.175 -3.01217 3.75262 0
M  V30 6376 C 594.527 -2.94453 4.30055 0
M  V30 6377 C 591.855 -2.89672 5.10203 0
M  V30 6378 C 594.207 -2.84449 5.65041 0
M  V30 6379 C 592.871 -2.81518 6.0523 0
M  V30 6380 H 592.141 -0.615965 0.411907 0
M  V30 6381 H 594.788 -1.09292 1.5725 0
M  V30 6382 H 593.093 -3.6879 1.32292 0
M  V30 6383 H 594.79 -3.62733 1.70955 0
M  V30 6384 H 591.38 -3.04269 3.01858 0
M  V30 6385 H 595.564 -2.94544 3.99447 0
M  V30 6386 H 590.82 -2.85783 5.40498 0
M  V30 6387 H 594.994 -2.77192 6.38856 0
M  V30 6388 H 592.621 -2.72329 7.09747 0
M  V30 6389 N 594.196 -1.08629 -1.14182 0
M  V30 6390 C 595.106 -0.730126 -2.22949 0
M  V30 6391 C 596.122 0.26436 -1.7198 0
M  V30 6392 O 597.298 0.107742 -2.01112 0
M  V30 6393 C 594.363 -0.147227 -3.46387 0
M  V30 6394 C 593.424 -1.19662 -4.12286 0
M  V30 6395 C 592.657 -0.641437 -5.29831 0
M  V30 6396 O 592.88 0.538351 -5.67854 0
M  V30 6397 O 591.814 -1.39257 -5.85569 0
M  V30 6398 H 595.64 -1.63753 -2.55771 0
M  V30 6399 H 593.225 -0.860118 -1.22157 0
M  V30 6400 H 595.107 0.174923 -4.21037 0
M  V30 6401 H 593.782 0.733304 -3.15285 0
M  V30 6402 H 592.689 -1.57133 -3.395 0
M  V30 6403 H 594.022 -2.0495 -4.475 0
M  V30 6404 N 595.674 1.31259 -0.872281 0
M  V30 6405 C 596.923 1.95893 -0.480493 0
M  V30 6406 C 597.236 1.697 0.972688 0
M  V30 6407 O 598.442 2.28214 1.47073 0
M  V30 6408 C 596.898 3.50705 -0.808342 0
M  V30 6409 C 596.506 3.85735 -2.27844 0
M  V30 6410 C 598.25 4.21719 -0.485136 0
M  V30 6411 C 596.157 5.33668 -2.54858 0
M  V30 6412 H 595.087 0.733182 -0.175955 0
M  V30 6413 H 597.738 1.49396 -1.0655 0
M  V30 6414 H 596.12 3.95706 -0.152558 0
M  V30 6415 H 597.294 3.51686 -2.97748 0
M  V30 6416 H 595.609 3.27792 -2.56791 0
M  V30 6417 H 598.206 5.30559 -0.664166 0
M  V30 6418 H 598.549 4.12316 0.574592 0
M  V30 6419 H 599.082 3.82359 -1.09756 0
M  V30 6420 H 595.821 5.48109 -3.59523 0
M  V30 6421 H 595.341 5.69061 -1.8955 0
M  V30 6422 H 597.02 6.00958 -2.39706 0
M  V30 6423 N 597.152 0.631951 1.44375 0
M  V30 6424 C 598.382 0.143658 2.061 0
M  V30 6425 C 598.79 -1.18733 1.47306 0
M  V30 6426 O 598.133 -1.73943 0.590724 0
M  V30 6427 C 598.195 -0.0446102 3.59472 0
M  V30 6428 C 597.859 1.20835 4.40736 0
M  V30 6429 C 598.856 2.13224 4.74164 0
M  V30 6430 C 596.541 1.44399 4.81097 0
M  V30 6431 C 598.535 3.27487 5.46838 0
M  V30 6432 C 596.222 2.58959 5.53519 0
M  V30 6433 C 597.22 3.50329 5.86309 0
M  V30 6434 O 596.908 4.62891 6.57257 0
M  V30 6435 H 596.64 0.0772939 0.671567 0
M  V30 6436 H 599.194 0.866677 1.8622 0
M  V30 6437 H 597.424 -0.822783 3.77845 0
M  V30 6438 H 599.113 -0.487561 4.02961 0
M  V30 6439 H 599.879 1.96253 4.4352 0
M  V30 6440 H 595.758 0.741696 4.54994 0
M  V30 6441 H 599.302 3.98826 5.72349 0
M  V30 6442 H 595.199 2.75873 5.83579 0
M  V30 6443 H 595.967 4.61883 6.75726 0
M  V30 6444 N 598.631 -1.53133 0.372548 0
M  V30 6445 C 599.579 -2.27473 -0.485681 0
M  V30 6446 C 600.573 -1.30719 -1.07745 0
M  V30 6447 O 601.779 -1.48321 -1.01985 0
M  V30 6448 H 598.154 -0.731269 -0.175356 0
M  V30 6449 H 600.125 -2.97955 0.162986 0
M  V30 6450 C 598.874 -3.08191 -1.60978 0
M  V30 6451 H 598.197 -3.82488 -1.16373 0
M  V30 6452 H 599.637 -3.63373 -2.18485 0
M  V30 6453 C 598.096 -2.19461 -2.55614 0
M  V30 6454 O 598.626 -1.81008 -3.58607 0
M  V30 6455 N 596.832 -1.83955 -2.24965 0
M  V30 6456 H 596.379 -2.15423 -1.41247 0
M  V30 6457 H 596.337 -1.24874 -2.88538 0
M  V30 6458 N 600.109 -0.101901 -1.5727 0
M  V30 6459 C 601.357 0.559091 -1.94213 0
M  V30 6460 C 601.678 1.68297 -0.984948 0
M  V30 6461 O 600.948 1.95863 -0.0381975 0
M  V30 6462 H 599.528 0.20952 -0.717015 0
M  V30 6463 H 602.19 -0.166831 -1.94185 0
M  V30 6464 H 601.286 0.96485 -2.96811 0
M  V30 6465 N 601.587 1.56661 0.17182 0
M  V30 6466 C 602.534 1.96371 1.21273 0
M  V30 6467 C 603.504 0.82756 1.44016 0
M  V30 6468 O 604.689 1.08764 1.56764 0
M  V30 6469 C 601.829 2.32838 2.54716 0
M  V30 6470 C 600.942 3.59628 2.39356 0
M  V30 6471 C 600.077 3.85311 3.65662 0
M  V30 6472 C 599.116 5.0545 3.45234 0
M  V30 6473 N 598.253 5.27268 4.63608 0
M  V30 6474 H 603.093 2.85106 0.86709 0
M  V30 6475 H 600.63 1.41073 0.416744 0
M  V30 6476 H 602.588 2.52004 3.3249 0
M  V30 6477 H 601.218 1.47214 2.87277 0
M  V30 6478 H 600.27 3.4838 1.52761 0
M  V30 6479 H 601.582 4.4756 2.20207 0
M  V30 6480 H 600.736 4.04841 4.51872 0
M  V30 6481 H 599.475 2.95753 3.8779 0
M  V30 6482 H 598.48 4.85819 2.5741 0
M  V30 6483 H 599.705 5.96538 3.24529 0
M  V30 6484 H 597.651 4.40662 4.85956 0
M  V30 6485 H 597.568 6.09422 4.4737 0
M  V30 6486 H 598.836 5.51277 5.51103 0
M  V30 6487 N 603.065 -0.440357 1.51323 0
M  V30 6488 C 603.995 -1.54174 1.75364 0
M  V30 6489 C 604.976 -1.59039 0.603375 0
M  V30 6490 O 606.161 -1.74815 0.845774 0
M  V30 6491 C 603.291 -2.92277 1.87593 0
M  V30 6492 C 602.245 -3.02274 3.03009 0
M  V30 6493 C 601.571 -4.42327 3.00418 0
M  V30 6494 C 602.871 -2.76634 4.43024 0
M  V30 6495 H 604.565 -1.34307 2.67585 0
M  V30 6496 H 602.111 -0.644678 1.28763 0
M  V30 6497 H 604.064 -3.69284 2.02995 0
M  V30 6498 H 602.788 -3.13369 0.920179 0
M  V30 6499 H 601.447 -2.27706 2.87307 0
M  V30 6500 H 601.095 -4.60382 2.02626 0
M  V30 6501 H 600.795 -4.49946 3.77918 0
M  V30 6502 H 602.319 -5.21312 3.17909 0
M  V30 6503 H 603.733 -3.43376 4.59093 0
M  V30 6504 H 602.13 -2.95666 5.22208 0
M  V30 6505 H 603.2 -1.72262 4.5327 0
M  V30 6506 N 604.543 -1.41418 -0.695603 0
M  V30 6507 C 605.79 -1.40774 -1.45564 0
M  V30 6508 C 606.118 -0.0168604 -1.94493 0
M  V30 6509 O 605.373 0.971259 -1.69897 0
M  V30 6510 C 605.672 -2.36112 -2.68302 0
M  V30 6511 C 605.338 -3.82952 -2.38031 0
M  V30 6512 C 604 -4.22954 -2.29486 0
M  V30 6513 C 606.352 -4.75662 -2.13061 0
M  V30 6514 C 603.68 -5.53674 -1.94067 0
M  V30 6515 C 606.032 -6.06702 -1.79151 0
M  V30 6516 C 604.696 -6.45725 -1.69102 0
M  V30 6517 H 603.966 -0.515128 -0.532658 0
M  V30 6518 H 606.613 -1.74216 -0.795047 0
M  V30 6519 H 604.918 -1.95924 -3.39295 0
M  V30 6520 H 606.615 -2.32887 -3.26442 0
M  V30 6521 H 603.205 -3.5127 -2.45576 0
M  V30 6522 H 607.389 -4.45561 -2.18608 0
M  V30 6523 H 602.645 -5.8279 -1.8484 0
M  V30 6524 H 606.819 -6.78041 -1.5885 0
M  V30 6525 H 604.446 -7.46929 -1.41426 0
M  V30 6526 N 606.021 0.929856 -1.27246 0
M  V30 6527 C 607.298 1.65544 -1.04186 0
M  V30 6528 C 607.678 2.06796 0.424097 0
M  V30 6529 O 607.026 1.80053 1.40688 0
M  V30 6530 C 607.236 2.85912 -2.00138 0
M  V30 6531 C 608.584 3.57305 -2.29387 0
M  V30 6532 O 609.608 2.96036 -1.98094 0
M  V30 6533 O 608.467 4.67688 -2.82719 0
M  V30 6534 H 605.561 0.725473 -0.397011 0
M  V30 6535 H 608.107 0.980583 -1.38501 0
M  V30 6536 H 606.879 2.52403 -2.99013 0
M  V30 6537 H 606.502 3.61118 -1.66371 0
M  V30 6538 N 607.499 1.09233 1.13605 0
M  V30 6539 C 608.429 0.751738 2.21068 0
M  V30 6540 C 609.41 -0.269688 1.67948 0
M  V30 6541 O 610.595 -0.13819 1.93708 0
M  V30 6542 C 607.725 0.16935 3.46887 0
M  V30 6543 C 606.679 1.12007 4.13084 0
M  V30 6544 C 606.005 0.399483 5.33206 0
M  V30 6545 C 607.305 2.46168 4.6065 0
M  V30 6546 H 608.999 1.65024 2.49815 0
M  V30 6547 H 606.545 0.794905 1.20072 0
M  V30 6548 H 608.498 -0.0809824 4.21322 0
M  V30 6549 H 607.222 -0.764335 3.1753 0
M  V30 6550 H 605.881 1.35564 3.40614 0
M  V30 6551 H 605.529 -0.538277 5.00112 0
M  V30 6552 H 605.229 1.03337 5.78442 0
M  V30 6553 H 606.753 0.157403 6.10397 0
M  V30 6554 H 608.167 2.26829 5.26518 0
M  V30 6555 H 606.564 3.05326 5.1662 0
M  V30 6556 H 607.634 3.07076 3.75276 0
M  V30 6557 N 608.977 -1.30795 0.87923 0
M  V30 6558 C 609.907 -2.30742 0.357796 0
M  V30 6559 C 610.888 -1.60747 -0.556283 0
M  V30 6560 O 612.073 -1.88393 -0.47135 0
M  V30 6561 C 609.203 -3.44583 -0.433555 0
M  V30 6562 C 608.157 -4.26235 0.388251 0
M  V30 6563 C 607.483 -5.32073 -0.529352 0
M  V30 6564 C 608.783 -4.96303 1.62729 0
M  V30 6565 H 610.477 -2.74605 1.19299 0
M  V30 6566 H 608.023 -1.32017 0.575104 0
M  V30 6567 H 609.976 -4.13563 -0.808934 0
M  V30 6568 H 608.7 -2.99511 -1.30234 0
M  V30 6569 H 607.359 -3.58936 0.745695 0
M  V30 6570 H 607.007 -4.83249 -1.39569 0
M  V30 6571 H 606.707 -5.87598 0.0166741 0
M  V30 6572 H 608.231 -6.0391 -0.901373 0
M  V30 6573 H 609.645 -5.5783 1.32283 0
M  V30 6574 H 608.042 -5.61666 2.11309 0
M  V30 6575 H 609.112 -4.22758 2.37494 0
M  V30 6576 N 610.455 -0.639598 -1.44038 0
M  V30 6577 C 611.403 0.0723409 -2.32487 0
M  V30 6578 C 612.397 0.827129 -1.47834 0
M  V30 6579 O 613.603 0.73907 -1.64127 0
M  V30 6580 H 609.978 0.0421696 -0.750817 0
M  V30 6581 H 611.949 -0.691593 -2.90275 0
M  V30 6582 C 610.698 1.03452 -3.31953 0
M  V30 6583 H 610.021 0.46315 -3.97108 0
M  V30 6584 H 611.461 1.502 -3.96505 0
M  V30 6585 C 609.92 2.12392 -2.61518 0
M  V30 6586 O 610.45 3.2059 -2.42044 0
M  V30 6587 N 608.656 1.88563 -2.21116 0
M  V30 6588 H 608.203 1.00577 -2.37154 0
M  V30 6589 H 608.161 2.61651 -1.74316 0
M  V30 6590 N 611.933 1.52934 -0.380664 0
M  V30 6591 C 612.88 2.26197 0.458641 0
M  V30 6592 C 613.85 1.27462 1.06502 0
M  V30 6593 O 615.035 1.56274 1.09467 0
M  V30 6594 C 612.175 3.06571 1.58456 0
M  V30 6595 C 611.288 4.20222 1.00189 0
M  V30 6596 C 610.423 4.88007 2.09815 0
M  V30 6597 C 609.462 5.93665 1.49092 0
M  V30 6598 N 608.599 6.55081 2.52613 0
M  V30 6599 H 613.439 2.975 -0.172595 0
M  V30 6600 H 610.976 1.4678 -0.0969426 0
M  V30 6601 H 612.934 3.51455 2.24801 0
M  V30 6602 H 611.564 2.37494 2.18624 0
M  V30 6603 H 610.616 3.79714 0.228292 0
M  V30 6604 H 611.928 4.96102 0.518064 0
M  V30 6605 H 611.082 5.36151 2.83948 0
M  V30 6606 H 609.821 4.11632 2.61555 0
M  V30 6607 H 608.826 5.44868 0.7348 0
M  V30 6608 H 610.051 6.71969 0.981582 0
M  V30 6609 H 607.997 5.8155 3.03538 0
M  V30 6610 H 607.914 7.26548 2.08961 0
M  V30 6611 H 609.182 7.07871 3.26402 0
M  V30 6612 N 613.412 0.11024 1.57214 0
M  V30 6613 C 614.359 -0.843195 2.14846 0
M  V30 6614 C 615.329 -1.26954 1.07107 0
M  V30 6615 O 616.514 -1.34861 1.34971 0
M  V30 6616 C 613.654 -2.09123 2.74521 0
M  V30 6617 C 612.767 -1.71404 3.96541 0
M  V30 6618 C 611.902 -2.91107 4.44331 0
M  V30 6619 C 610.941 -2.49586 5.58903 0
M  V30 6620 N 610.078 -3.62175 6.01477 0
M  V30 6621 H 614.918 -0.344886 2.95998 0
M  V30 6622 H 612.455 -0.15855 1.46243 0
M  V30 6623 H 614.413 -2.82234 3.07246 0
M  V30 6624 H 613.043 -2.56427 1.96074 0
M  V30 6625 H 612.095 -0.88201 3.70033 0
M  V30 6626 H 613.407 -1.36884 4.7965 0
M  V30 6627 H 612.561 -3.72454 4.78919 0
M  V30 6628 H 611.3 -3.28848 3.60153 0
M  V30 6629 H 610.305 -1.6667 5.23929 0
M  V30 6630 H 611.53 -2.12973 6.4484 0
M  V30 6631 H 609.476 -3.99605 5.20242 0
M  V30 6632 H 609.393 -3.3155 6.79419 0
M  V30 6633 H 610.661 -4.43987 6.407 0
M  V30 6634 N 614.89 -1.56749 -0.16351 0
M  V30 6635 C 615.853 -1.96121 -1.18613 0
M  V30 6636 C 616.853 -0.845765 -1.36761 0
M  V30 6637 O 618.043 -1.11268 -1.34033 0
M  V30 6638 C 615.175 -2.26282 -2.54969 0
M  V30 6639 H 616.368 -2.87639 -0.848764 0
M  V30 6640 H 613.921 -1.50928 -0.406251 0
M  V30 6641 H 614.656 -1.37504 -2.93706 0
M  V30 6642 H 614.441 -3.07595 -2.43162 0
M  V30 6643 H 615.931 -2.57638 -3.28653 0
M  V30 6644 N 616.368 0.432326 -1.51554 0
M  V30 6645 C 617.315 1.52512 -1.7323 0
M  V30 6646 C 618.285 1.55863 -0.5741 0
M  V30 6647 O 619.47 1.72796 -0.809093 0
M  V30 6648 C 616.61 2.90183 -1.86783 0
M  V30 6649 C 615.723 2.96322 -3.14352 0
M  V30 6650 C 614.858 4.25147 -3.18471 0
M  V30 6651 C 613.897 4.25172 -4.40335 0
M  V30 6652 N 613.034 5.45529 -4.41975 0
M  V30 6653 H 617.874 1.33332 -2.66508 0
M  V30 6654 H 615.411 0.647613 -1.32077 0
M  V30 6655 H 617.369 3.70071 -1.92623 0
M  V30 6656 H 615.999 3.0791 -0.969087 0
M  V30 6657 H 615.051 2.09066 -3.17798 0
M  V30 6658 H 616.363 2.92203 -4.04251 0
M  V30 6659 H 615.517 5.13411 -3.23255 0
M  V30 6660 H 614.256 4.31929 -2.2647 0
M  V30 6661 H 613.261 3.353 -4.35723 0
M  V30 6662 H 614.486 4.20049 -5.33606 0
M  V30 6663 H 612.432 5.53024 -3.52847 0
M  V30 6664 H 612.349 5.43311 -5.25689 0
M  V30 6665 H 613.617 6.35812 -4.50958 0
M  V30 6666 N 617.846 1.41785 0.688094 0
M  V30 6667 C 618.776 1.47 1.8142 0
M  V30 6668 C 619.757 0.327881 1.6691 0
M  V30 6669 O 620.942 0.540362 1.86531 0
M  V30 6670 C 618.072 1.35876 3.19617 0
M  V30 6671 C 617.026 2.47976 3.48844 0
M  V30 6672 C 616.352 2.21915 4.86475 0
M  V30 6673 C 617.652 3.90309 3.47068 0
M  V30 6674 H 619.346 2.41247 1.77314 0
M  V30 6675 H 616.892 1.16116 0.851651 0
M  V30 6676 H 618.845 1.38134 3.98117 0
M  V30 6677 H 617.569 0.38116 3.24368 0
M  V30 6678 H 616.228 2.45013 2.72698 0
M  V30 6679 H 615.876 1.2248 4.8786 0
M  V30 6680 H 615.576 2.97037 5.06994 0
M  V30 6681 H 617.1 2.25901 5.67275 0
M  V30 6682 H 618.514 3.94947 4.1556 0
M  V30 6683 H 616.911 4.65175 3.7912 0
M  V30 6684 H 617.981 4.17927 2.45896 0
M  V30 6685 N 619.324 -0.923095 1.27737 0
M  V30 6686 C 620.74 -1.19985 1.05241 0
M  V30 6687 C 620.94 -2.00391 -0.21113 0
M  V30 6688 O 619.996 -2.35324 -0.915366 0
M  V30 6689 C 621.309 -1.94352 2.29451 0
M  V30 6690 C 622.857 -2.07273 2.34536 0
M  V30 6691 C 623.332 -2.85046 3.58487 0
M  V30 6692 N 624.823 -2.92612 3.59072 0
M  V30 6693 C 625.558 -3.53266 4.51654 0
M  V30 6694 N 625.054 -4.15274 5.54545 0
M  V30 6695 N 626.847 -3.50714 4.39268 0
M  V30 6696 H 618.998 -0.386042 2.08862 0
M  V30 6697 H 621.261 -0.233407 0.918817 0
M  V30 6698 H 620.967 -1.42692 3.21453 0
M  V30 6699 H 620.841 -2.94947 2.3513 0
M  V30 6700 H 623.228 -2.58117 1.43037 0
M  V30 6701 H 623.309 -1.05884 2.32857 0
M  V30 6702 H 622.953 -2.34884 4.50324 0
M  V30 6703 H 622.883 -3.8673 3.57418 0
M  V30 6704 H 625.374 -2.48547 2.84663 0
M  V30 6705 H 625.687 -4.59507 6.21348 0
M  V30 6706 H 624.032 -4.13806 5.58382 0
M  V30 6707 H 627.223 -3.01475 3.58093 0
M  V30 6708 H 627.396 -3.97693 5.1161 0
M  V30 6709 N 620.802 -1.09834 -1.13024 0
M  V30 6710 C 622.048 -0.83819 -1.84668 0
M  V30 6711 C 622.381 0.634645 -1.83537 0
M  V30 6712 O 621.656 1.46753 -1.27647 0
M  V30 6713 C 621.939 -1.37933 -3.32636 0
M  V30 6714 C 621.792 -2.91857 -3.42257 0
M  V30 6715 C 623.111 -1.01654 -4.28199 0
M  V30 6716 H 620.23 -0.30595 -0.670495 0
M  V30 6717 H 622.872 -1.36044 -1.32635 0
M  V30 6718 H 621.022 -0.935111 -3.77078 0
M  V30 6719 H 622.694 -3.44759 -3.06495 0
M  V30 6720 H 620.937 -3.28776 -2.83 0
M  V30 6721 H 621.608 -3.24799 -4.46329 0
M  V30 6722 H 624.084 -1.39973 -3.9185 0
M  V30 6723 H 622.96 -1.42217 -5.30156 0
M  V30 6724 H 623.221 0.0747794 -4.42037 0
M  V30 6725 N 622.28 1.30327 -0.886154 0
M  V30 6726 C 623.21 2.30549 -0.370028 0
M  V30 6727 C 624.191 1.61039 0.547751 0
M  V30 6728 O 625.376 1.8864 0.461353 0
M  V30 6729 C 622.506 3.44808 0.415275 0
M  V30 6730 C 621.46 4.26024 -0.41085 0
M  V30 6731 C 620.786 5.32347 0.501128 0
M  V30 6732 C 622.086 4.95433 -1.65359 0
M  V30 6733 H 623.78 2.73969 -1.20754 0
M  V30 6734 H 621.326 1.3171 -0.582097 0
M  V30 6735 H 623.279 4.13986 0.78699 0
M  V30 6736 H 622.003 3.00197 1.28644 0
M  V30 6737 H 620.662 3.58535 -0.764719 0
M  V30 6738 H 620.31 4.83982 1.37004 0
M  V30 6739 H 620.01 5.87581 -0.0478356 0
M  V30 6740 H 621.534 6.0438 0.869333 0
M  V30 6741 H 622.948 5.5712 -1.35239 0
M  V30 6742 H 621.345 5.60537 -2.14284 0
M  V30 6743 H 622.415 4.21493 -2.39733 0
M  V30 6744 N 623.758 0.647228 1.43697 0
M  V30 6745 C 624.668 -0.0487997 2.34549 0
M  V30 6746 C 625.684 -0.818586 1.53542 0
M  V30 6747 O 626.86 -0.767195 1.86215 0
M  V30 6748 C 623.925 -1.00734 3.31743 0
M  V30 6749 C 622.986 -0.23515 4.28655 0
M  V30 6750 C 622.219 -1.14803 5.21206 0
M  V30 6751 O 622.442 -2.38717 5.18045 0
M  V30 6752 O 621.376 -0.623667 5.9866 0
M  V30 6753 H 625.202 0.698863 2.9555 0
M  V30 6754 H 622.787 0.407412 1.43738 0
M  V30 6755 H 624.669 -1.55837 3.91526 0
M  V30 6756 H 623.344 -1.73534 2.73254 0
M  V30 6757 H 622.251 0.359319 3.7237 0
M  V30 6758 H 623.584 0.453152 4.9011 0
M  V30 6759 N 625.236 -1.5273 0.388769 0
M  V30 6760 C 626.513 -1.93981 -0.251133 0
M  V30 6761 C 626.893 -1.32418 -1.64404 0
M  V30 6762 O 626.241 -0.492074 -2.23139 0
M  V30 6763 C 626.451 -3.47891 -0.27802 0
M  V30 6764 C 627.799 -4.21559 -0.507229 0
M  V30 6765 O 628.823 -3.54394 -0.358252 0
M  V30 6766 O 627.682 -5.40626 -0.799094 0
M  V30 6767 H 624.776 -0.812157 -0.15598 0
M  V30 6768 H 627.322 -1.63809 0.443237 0
M  V30 6769 H 626.094 -3.8503 0.697669 0
M  V30 6770 H 625.717 -3.84364 -1.01733 0
M  V30 6771 N 626.714 -0.118576 -1.57153 0
M  V30 6772 C 627.962 0.538461 -1.94795 0
M  V30 6773 C 628.283 1.67243 -1.00274 0
M  V30 6774 O 627.553 1.95811 -0.0589692 0
M  V30 6775 H 626.133 0.201904 -0.719197 0
M  V30 6776 H 628.795 -0.187418 -1.93997 0
M  V30 6777 H 627.891 0.933315 -2.97818 0
M  V30 6778 N 628.193 1.56834 0.155195 0
M  V30 6779 C 629.14 1.97646 1.19184 0
M  V30 6780 C 630.11 0.842788 1.4313 0
M  V30 6781 O 631.295 1.1042 1.55602 0
M  V30 6782 C 628.435 2.35527 2.52232 0
M  V30 6783 C 627.548 3.62147 2.35529 0
M  V30 6784 C 626.683 3.89167 3.61555 0
M  V30 6785 C 625.722 5.09084 3.39853 0
M  V30 6786 N 624.859 5.32156 4.5799 0
M  V30 6787 H 629.699 2.8601 0.836802 0
M  V30 6788 H 627.236 1.41507 0.401758 0
M  V30 6789 H 629.194 2.55516 3.29799 0
M  V30 6790 H 627.824 1.50253 2.85699 0
M  V30 6791 H 626.876 3.4998 1.49057 0
M  V30 6792 H 628.188 4.49871 2.15448 0
M  V30 6793 H 627.342 4.09611 4.47553 0
M  V30 6794 H 626.081 2.9985 3.84632 0
M  V30 6795 H 625.086 4.88522 2.52243 0
M  V30 6796 H 626.311 5.99947 3.18183 0
M  V30 6797 H 624.257 4.45791 4.81255 0
M  V30 6798 H 624.174 6.14133 4.40882 0
M  V30 6799 H 625.442 5.57091 5.45225 0
M  V30 6800 N 629.671 -0.424282 1.51781 0
M  V30 6801 C 630.603 -1.53457 1.70246 0
M  V30 6802 C 631.616 -1.52004 0.582967 0
M  V30 6803 O 632.805 -1.56544 0.857683 0
M  V30 6804 C 629.905 -2.92368 1.71389 0
M  V30 6805 C 629.078 -3.1818 3.00133 0
M  V30 6806 C 628.137 -4.36884 2.9329 0
M  V30 6807 O 627.163 -4.34901 3.67219 0
M  V30 6808 N 628.365 -5.4117 2.10036 0
M  V30 6809 H 631.13 -1.38017 2.66029 0
M  V30 6810 H 628.691 -0.613394 1.4983 0
M  V30 6811 H 630.683 -3.6982 1.64362 0
M  V30 6812 H 629.253 -3.0134 0.831449 0
M  V30 6813 H 628.473 -2.28908 3.20928 0
M  V30 6814 H 629.761 -3.32261 3.85331 0
M  V30 6815 H 629.159 -5.45623 1.49373 0
M  V30 6816 H 627.716 -6.17425 2.08878 0
M  V30 6817 N 631.149 -1.42148 -0.680565 0
M  V30 6818 C 632.081 -1.41119 -1.80605 0
M  V30 6819 C 633.094 -0.311099 -1.598 0
M  V30 6820 O 634.283 -0.573813 -1.69026 0
M  V30 6821 C 631.383 -1.18204 -3.17618 0
M  V30 6822 C 630.556 -2.40537 -3.65322 0
M  V30 6823 C 629.615 -2.13254 -4.8105 0
M  V30 6824 O 628.641 -2.8641 -4.91892 0
M  V30 6825 N 629.843 -1.13208 -5.69354 0
M  V30 6826 H 632.608 -2.38128 -1.81975 0
M  V30 6827 H 630.169 -1.36953 -0.863446 0
M  V30 6828 H 632.161 -0.97878 -3.92686 0
M  V30 6829 H 630.731 -0.29738 -3.11182 0
M  V30 6830 H 629.951 -2.76468 -2.80996 0
M  V30 6831 H 631.239 -3.22012 -3.93936 0
M  V30 6832 H 630.637 -0.526893 -5.63241 0
M  V30 6833 H 629.194 -0.988699 -6.44258 0
M  V30 6834 N 632.627 0.916307 -1.28225 0
M  V30 6835 C 633.873 1.66765 -1.154 0
M  V30 6836 C 634.206 1.91912 0.297251 0
M  V30 6837 O 633.481 1.51766 1.21644 0
M  V30 6838 C 633.764 3.02715 -1.95028 0
M  V30 6839 C 633.617 2.84738 -3.48201 0
M  V30 6840 C 634.936 4.03215 -1.76369 0
M  V30 6841 H 632.055 0.605205 -0.42059 0
M  V30 6842 H 634.697 1.06255 -1.57512 0
M  V30 6843 H 632.847 3.54365 -1.59242 0
M  V30 6844 H 634.519 2.40118 -3.9388 0
M  V30 6845 H 632.762 2.19848 -3.73964 0
M  V30 6846 H 633.433 3.8127 -3.99171 0
M  V30 6847 H 635.909 3.60617 -2.07593 0
M  V30 6848 H 634.785 4.96306 -2.34459 0
M  V30 6849 H 635.046 4.36288 -0.71452 0
M  V30 6850 N 634.105 1.10431 1.1244 0
M  V30 6851 C 635.037 0.710945 2.17895 0
M  V30 6852 C 636.05 -0.252315 1.60833 0
M  V30 6853 O 637.239 -0.03679 1.78462 0
M  V30 6854 C 634.339 0.0284262 3.38888 0
M  V30 6855 C 633.512 1.01585 4.2544 0
M  V30 6856 C 632.571 0.364826 5.24934 0
M  V30 6857 O 631.597 1.01561 5.60066 0
M  V30 6858 N 632.799 -0.87674 5.73841 0
M  V30 6859 H 635.564 1.61826 2.52255 0
M  V30 6860 H 633.125 0.993132 1.27861 0
M  V30 6861 H 635.117 -0.418568 4.0253 0
M  V30 6862 H 633.687 -0.781294 3.02679 0
M  V30 6863 H 632.907 1.64111 3.58415 0
M  V30 6864 H 634.195 1.68425 4.80115 0
M  V30 6865 H 633.593 -1.42483 5.47462 0
M  V30 6866 H 632.15 -1.26688 6.39369 0
M  V30 6867 N 635.583 -1.29855 0.893053 0
M  V30 6868 C 636.829 -1.96116 0.516349 0
M  V30 6869 C 637.162 -1.70281 -0.933695 0
M  V30 6870 O 636.437 -1.01205 -1.66096 0
M  V30 6871 C 636.72 -3.51068 0.801455 0
M  V30 6872 C 636.573 -3.86387 2.30272 0
M  V30 6873 C 637.892 -4.39186 0.283423 0
M  V30 6874 H 635.011 -0.712335 0.189072 0
M  V30 6875 H 637.653 -1.53587 1.11852 0
M  V30 6876 H 635.803 -3.87424 0.288949 0
M  V30 6877 H 637.475 -3.60012 2.88425 0
M  V30 6878 H 635.718 -3.34167 2.76613 0
M  V30 6879 H 636.389 -4.94512 2.45279 0
M  V30 6880 H 638.865 -4.09785 0.722187 0
M  V30 6881 H 637.741 -5.46505 0.512169 0
M  V30 6882 H 638.002 -4.34511 -0.815643 0
M  V30 6883 N 637.061 -0.65484 -1.43351 0
M  V30 6884 C 638.307 -0.169142 -2.02093 0
M  V30 6885 C 638.64 1.21431 -1.51553 0
M  V30 6886 O 637.915 1.81105 -0.709317 0
M  V30 6887 C 638.198 -0.181775 -3.59641 0
M  V30 6888 C 638.051 -1.59926 -4.20409 0
M  V30 6889 C 639.37 0.480945 -4.37464 0
M  V30 6890 H 636.489 -0.0629371 -0.734308 0
M  V30 6891 H 639.131 -0.835833 -1.70628 0
M  V30 6892 H 637.281 0.385918 -3.86578 0
M  V30 6893 H 638.953 -2.21766 -4.04497 0
M  V30 6894 H 637.196 -2.14605 -3.76998 0
M  V30 6895 H 637.867 -1.55994 -5.295 0
M  V30 6896 H 640.343 -0.00208273 -4.161 0
M  V30 6897 H 639.219 0.441384 -5.47122 0
M  V30 6898 H 639.48 1.55533 -4.13838 0
M  V30 6899 N 638.539 1.52521 -0.396863 0
M  V30 6900 C 639.787 2.01274 0.182536 0
M  V30 6901 C 640.108 1.28485 1.46685 0
M  V30 6902 O 639.378 0.407134 1.91623 0
M  V30 6903 H 637.958 0.743671 0.0704442 0
M  V30 6904 H 640.62 1.87547 -0.530289 0
M  V30 6905 H 639.716 3.09687 0.387385 0
M  V30 6906 N 640.017 0.126909 1.57088 0
M  V30 6907 C 640.947 -0.816847 2.18746 0
M  V30 6908 C 641.928 -1.27161 1.12979 0
M  V30 6909 O 643.113 -1.33279 1.41246 0
M  V30 6910 C 640.243 -2.06398 2.79315 0
M  V30 6911 C 639.197 -1.74673 3.90735 0
M  V30 6912 C 638.523 -3.06482 4.38147 0
M  V30 6913 C 639.823 -1.0089 5.12463 0
M  V30 6914 H 641.517 -0.303032 2.97863 0
M  V30 6915 H 639.063 -0.144314 1.43275 0
M  V30 6916 H 641.016 -2.72885 3.2111 0
M  V30 6917 H 639.74 -2.60118 1.975 0
M  V30 6918 H 638.399 -1.10572 3.49527 0
M  V30 6919 H 638.047 -3.58152 3.5318 0
M  V30 6920 H 637.747 -2.86025 5.13287 0
M  V30 6921 H 639.271 -3.74073 4.82599 0
M  V30 6922 H 640.685 -1.57546 5.51228 0
M  V30 6923 H 639.082 -0.905006 5.93237 0
M  V30 6924 H 640.152 0.00297335 4.849 0
M  V30 6925 N 641.495 -1.56914 -0.146875 0
M  V30 6926 C 642.427 -1.94878 -1.20645 0
M  V30 6927 C 643.44 -0.844633 -1.39175 0
M  V30 6928 O 644.629 -1.12304 -1.38744 0
M  V30 6929 C 641.729 -2.20769 -2.57127 0
M  V30 6930 C 640.902 -3.52053 -2.59572 0
M  V30 6931 C 639.961 -3.66482 -3.77594 0
M  V30 6932 O 638.987 -4.38873 -3.62462 0
M  V30 6933 N 640.189 -3.03156 -4.95052 0
M  V30 6934 H 642.954 -2.86374 -0.883757 0
M  V30 6935 H 640.515 -1.58366 -0.336436 0
M  V30 6936 H 642.507 -2.27664 -3.34591 0
M  V30 6937 H 641.077 -1.35538 -2.81688 0
M  V30 6938 H 640.297 -3.56598 -1.68023 0
M  V30 6939 H 641.585 -4.38396 -2.58238 0
M  V30 6940 H 640.983 -2.44258 -5.10249 0
M  V30 6941 H 639.54 -3.15611 -5.70292 0
M  V30 6942 N 642.974 0.416227 -1.52004 0
M  V30 6943 C 643.884 1.53147 -1.77717 0
M  V30 6944 C 644.9 1.609 -0.662368 0
M  V30 6945 O 646.076 1.77747 -0.946991 0
M  V30 6946 C 643.141 2.88948 -1.91598 0
M  V30 6947 C 642.202 2.9114 -3.15493 0
M  V30 6948 C 641.435 4.20464 -3.28703 0
M  V30 6949 O 641.658 5.13981 -2.47345 0
M  V30 6950 O 640.592 4.29368 -4.21813 0
M  V30 6951 H 644.418 1.34357 -2.72363 0
M  V30 6952 H 642.003 0.601373 -1.36762 0
M  V30 6953 H 643.885 3.69505 -2.02593 0
M  V30 6954 H 642.56 3.07821 -1.00141 0
M  V30 6955 H 641.467 2.09461 -3.09962 0
M  V30 6956 H 642.8 2.77216 -4.06709 0
M  V30 6957 N 644.452 1.42507 0.673017 0
M  V30 6958 C 645.402 1.4258 1.77919 0
M  V30 6959 C 646.386 0.296885 1.58137 0
M  V30 6960 O 647.578 0.539243 1.68586 0
M  V30 6961 C 644.707 1.33238 3.1639 0
M  V30 6962 C 643.793 2.51081 3.41788 0
M  V30 6963 N 644.184 3.76498 3.37761 0
M  V30 6964 C 642.482 2.4538 3.72431 0
M  V30 6965 C 643.183 4.54784 3.62693 0
M  V30 6966 N 642.159 3.8522 3.83544 0
M  V30 6967 H 645.961 2.37442 1.73201 0
M  V30 6968 H 643.475 1.36881 0.873924 0
M  V30 6969 H 645.472 1.31372 3.9566 0
M  V30 6970 H 644.132 0.393794 3.22303 0
M  V30 6971 H 645.143 4.09068 3.17622 0
M  V30 6972 H 641.82 1.60109 3.85579 0
M  V30 6973 H 643.21 5.63774 3.65525 0
M  V30 6974 N 645.93 -0.909495 1.28709 0
M  V30 6975 C 646.86 -2.0291 1.15542 0
M  V30 6976 C 647.841 -1.7002 0.0521017 0
M  V30 6977 O 649.026 -1.92835 0.229849 0
M  V30 6978 C 646.156 -3.37458 0.820935 0
M  V30 6979 C 645.11 -3.84524 1.87949 0
M  V30 6980 C 644.436 -5.16086 1.39854 0
M  V30 6981 C 645.736 -4.05918 3.28676 0
M  V30 6982 H 647.43 -2.14183 2.09203 0
M  V30 6983 H 644.976 -1.02913 1.00722 0
M  V30 6984 H 646.929 -4.1528 0.715571 0
M  V30 6985 H 645.653 -3.26249 -0.151374 0
M  V30 6986 H 644.312 -3.08911 1.97408 0
M  V30 6987 H 643.96 -5.01284 0.41518 0
M  V30 6988 H 643.66 -5.48547 2.1064 0
M  V30 6989 H 645.184 -5.96459 1.30649 0
M  V30 6990 H 646.598 -4.74252 3.22115 0
M  V30 6991 H 644.995 -4.49717 3.97334 0
M  V30 6992 H 646.065 -3.10583 3.72379 0
M  V30 6993 N 647.408 -1.11026 -1.11852 0
M  V30 6994 C 648.654 -0.857729 -1.83768 0
M  V30 6995 C 648.987 0.615143 -1.842 0
M  V30 6996 O 648.262 1.45391 -1.29196 0
M  V30 6997 C 648.545 -1.41453 -3.31154 0
M  V30 6998 C 648.398 -2.95471 -3.39142 0
M  V30 6999 C 649.717 -1.0619 -4.27097 0
M  V30 7000 H 646.836 -0.313044 -0.667212 0
M  V30 7001 H 649.478 -1.37443 -1.31185 0
M  V30 7002 H 647.628 -0.975052 -3.76065 0
M  V30 7003 H 649.3 -3.4799 -3.02821 0
M  V30 7004 H 647.543 -3.31759 -2.79497 0
M  V30 7005 H 648.214 -3.29515 -4.42859 0
M  V30 7006 H 650.69 -1.44122 -3.90344 0
M  V30 7007 H 649.566 -1.47832 -5.28618 0
M  V30 7008 H 649.827 0.0278912 -4.42091 0
M  V30 7009 N 648.886 1.2938 -0.899927 0
M  V30 7010 C 649.834 2.29675 -0.367698 0
M  V30 7011 C 650.828 1.60787 0.533282 0
M  V30 7012 O 652.034 1.75126 0.416058 0
M  V30 7013 H 648.409 0.745284 -0.100279 0
M  V30 7014 H 650.38 2.72008 -1.22696 0
M  V30 7015 C 649.129 3.45512 0.389483 0
M  V30 7016 H 648.452 3.98713 -0.294575 0
M  V30 7017 H 649.892 4.17725 0.726744 0
M  V30 7018 C 648.351 2.969 1.59223 0
M  V30 7019 O 648.881 2.98195 2.69152 0
M  V30 7020 N 647.087 2.52728 1.43447 0
M  V30 7021 H 646.634 2.51873 0.540148 0
M  V30 7022 H 646.592 2.20561 2.24054 0
M  V30 7023 N 650.364 0.662433 1.43002 0
M  V30 7024 C 651.589 0.186003 2.06564 0
M  V30 7025 C 652.014 -1.14314 1.49379 0
M  V30 7026 O 651.372 -1.70824 0.607346 0
M  V30 7027 C 651.42 0.118269 3.60406 0
M  V30 7028 O 650.524 -0.916859 4.02079 0
M  V30 7029 H 649.865 0.0990981 0.656563 0
M  V30 7030 H 652.395 0.907958 1.8335 0
M  V30 7031 H 652.405 -0.0619981 4.07953 0
M  V30 7032 H 651.08 1.08849 4.01403 0
M  V30 7033 H 649.657 -0.708635 3.66105 0
M  V30 7034 N 651.842 -1.52309 0.404946 0
M  V30 7035 C 652.805 -2.25491 -0.410651 0
M  V30 7036 C 653.805 -1.27704 -0.977154 0
M  V30 7037 O 654.995 -1.51679 -0.856691 0
M  V30 7038 C 652.127 -3.02197 -1.57765 0
M  V30 7039 H 653.32 -2.99015 0.230277 0
M  V30 7040 H 650.873 -1.55506 0.157377 0
M  V30 7041 H 651.608 -2.33013 -2.25556 0
M  V30 7042 H 651.393 -3.73987 -1.17797 0
M  V30 7043 H 652.883 -3.57719 -2.15469 0
M  V30 7044 N 653.32 -0.135238 -1.57019 0
M  V30 7045 C 654.597 0.563227 -1.87316 0
M  V30 7046 C 654.977 1.83749 -1.03921 0
M  V30 7047 O 654.325 2.2817 -0.122675 0
M  V30 7048 C 654.535 0.840031 -3.3874 0
M  V30 7049 C 655.883 1.18598 -4.077 0
M  V30 7050 O 656.907 0.92977 -3.43851 0
M  V30 7051 O 655.766 1.66758 -5.20436 0
M  V30 7052 H 652.86 0.285971 -0.775983 0
M  V30 7053 H 655.406 -0.170965 -1.68837 0
M  V30 7054 H 654.178 -0.0622785 -3.9125 0
M  V30 7055 H 653.801 1.62882 -3.62706 0
M  V30 7056 N 654.798 1.5699 0.138552 0
M  V30 7057 C 656.075 1.74741 0.87891 0
M  V30 7058 C 656.455 0.705522 1.98961 0
M  V30 7059 O 655.803 -0.274066 2.2685 0
M  V30 7060 C 656.013 3.1909 1.4136 0
M  V30 7061 C 657.361 3.81023 1.87368 0
M  V30 7062 O 658.385 3.22571 1.51084 0
M  V30 7063 O 657.244 4.83722 2.54312 0
M  V30 7064 H 654.338 0.714781 0.415953 0
M  V30 7065 H 656.884 1.69248 0.123817 0
M  V30 7066 H 655.656 3.86424 0.61579 0
M  V30 7067 H 655.279 3.29043 2.23196 0
M  V30 7068 N 656.276 -0.40816 1.52223 0
M  V30 7069 C 657.522 -1.15673 1.66576 0
M  V30 7070 C 657.855 -1.90141 0.394996 0
M  V30 7071 O 657.13 -1.84798 -0.606613 0
M  V30 7072 C 657.413 -2.15042 2.88841 0
M  V30 7073 C 657.266 -1.44465 4.25969 0
M  V30 7074 C 658.585 -3.15699 3.0663 0
M  V30 7075 H 655.704 -0.41916 0.606196 0
M  V30 7076 H 658.346 -0.442348 1.84779 0
M  V30 7077 H 656.496 -2.75964 2.73452 0
M  V30 7078 H 658.168 -0.866544 4.53088 0
M  V30 7079 H 656.411 -0.746612 4.27327 0
M  V30 7080 H 657.082 -2.16976 5.07568 0
M  V30 7081 H 659.558 -2.64854 3.20923 0
M  V30 7082 H 658.434 -3.82491 3.9369 0
M  V30 7083 H 658.695 -3.83481 2.19987 0
M  V30 7084 N 657.755 -1.42862 -0.66545 0
M  V30 7085 C 659.004 -1.43119 -1.42126 0
M  V30 7086 C 659.317 -0.0545297 -1.95524 0
M  V30 7087 O 660.523 0.0654747 -2.71421 0
M  V30 7088 C 658.979 -2.51797 -2.5715 0
M  V30 7089 C 658.587 -3.95514 -2.10411 0
M  V30 7090 C 660.331 -2.61233 -3.346 0
M  V30 7091 C 658.238 -4.95682 -3.22573 0
M  V30 7092 H 657.168 -0.532349 -0.533966 0
M  V30 7093 H 659.819 -1.68806 -0.719506 0
M  V30 7094 H 658.201 -2.19292 -3.29738 0
M  V30 7095 H 659.375 -4.3742 -1.44915 0
M  V30 7096 H 657.69 -3.90012 -1.45874 0
M  V30 7097 H 660.287 -3.33248 -4.18151 0
M  V30 7098 H 660.63 -1.65896 -3.81817 0
M  V30 7099 H 661.163 -2.9298 -2.69087 0
M  V30 7100 H 657.902 -5.92529 -2.80338 0
M  V30 7101 H 657.422 -4.58399 -3.86821 0
M  V30 7102 H 659.101 -5.17828 -3.87896 0
M  V30 7103 N 659.233 0.902656 -1.29189 0
M  V30 7104 C 660.18 2.00643 -1.14066 0
M  V30 7105 C 661.15 1.66064 -0.0347756 0
M  V30 7106 O 662.335 1.8973 -0.201752 0
M  V30 7107 C 659.475 3.35214 -0.820104 0
M  V30 7108 C 658.588 3.82594 -2.00614 0
M  V30 7109 C 657.723 5.05727 -1.62522 0
M  V30 7110 C 656.762 5.45469 -2.77724 0
M  V30 7111 N 655.899 6.59789 -2.40048 0
M  V30 7112 H 660.739 2.1291 -2.08502 0
M  V30 7113 H 658.276 1.04271 -1.03759 0
M  V30 7114 H 660.234 4.12643 -0.614949 0
M  V30 7115 H 658.864 3.22682 0.0873452 0
M  V30 7116 H 657.916 3.01226 -2.32308 0
M  V30 7117 H 659.228 4.07999 -2.86946 0
M  V30 7118 H 658.382 5.90732 -1.38277 0
M  V30 7119 H 657.121 4.82155 -0.733333 0
M  V30 7120 H 656.126 4.59 -3.02653 0
M  V30 7121 H 657.351 5.71024 -3.67572 0
M  V30 7122 H 655.297 6.37826 -1.53343 0
M  V30 7123 H 655.214 6.84975 -3.19914 0
M  V30 7124 H 656.482 7.4807 -2.19116 0
M  V30 7125 N 660.711 1.11618 1.11262 0
M  V30 7126 C 661.644 0.719995 2.16544 0
M  V30 7127 C 662.622 -0.28471 1.60088 0
M  V30 7128 O 663.806 -0.180693 1.87632 0
M  V30 7129 C 660.933 0.0643302 3.38639 0
M  V30 7130 C 659.979 1.03448 4.13764 0
M  V30 7131 S 660.812 2.55789 4.70459 0
M  V30 7132 C 661.968 1.91529 5.95875 0
M  V30 7133 H 662.201 1.61181 2.49816 0
M  V30 7134 H 659.734 0.934401 1.22916 0
M  V30 7135 H 661.692 -0.307609 4.09346 0
M  V30 7136 H 660.353 -0.804471 3.03623 0
M  V30 7137 H 659.546 0.523188 5.01277 0
M  V30 7138 H 659.148 1.34893 3.48826 0
M  V30 7139 H 661.44 1.25286 6.65815 0
M  V30 7140 H 662.383 2.77047 6.51652 0
M  V30 7141 H 662.791 1.37468 5.47506 0
M  V30 7142 N 662.189 -1.289 0.906776 0
M  V30 7143 C 663.438 -1.9455 0.532262 0
M  V30 7144 C 663.751 -1.72219 -0.927353 0
M  V30 7145 O 664.957 -2.32033 -1.40971 0
M  V30 7146 C 663.413 -3.48438 0.901041 0
M  V30 7147 C 663.021 -3.79558 2.37991 0
M  V30 7148 C 664.765 -4.20284 0.596777 0
M  V30 7149 C 662.672 -5.26723 2.68918 0
M  V30 7150 H 661.602 -0.728259 0.195333 0
M  V30 7151 H 664.253 -1.46519 1.10474 0
M  V30 7152 H 662.635 -3.95162 0.257419 0
M  V30 7153 H 663.809 -3.43668 3.06967 0
M  V30 7154 H 662.124 -3.20868 2.65391 0
M  V30 7155 H 664.721 -5.28612 0.8046 0
M  V30 7156 H 665.064 -4.13694 -0.465072 0
M  V30 7157 H 665.597 -3.79315 1.19855 0
M  V30 7158 H 662.336 -5.38384 3.73928 0
M  V30 7159 H 661.856 -5.63836 2.04571 0
M  V30 7160 H 663.535 -5.94391 2.55555 0
M  V30 7161 N 663.667 -0.670007 -1.42649 0
M  V30 7162 C 664.944 -0.119451 -1.95235 0
M  V30 7163 C 665.324 1.36461 -1.61064 0
M  V30 7164 O 664.672 2.09843 -0.904329 0
M  V30 7165 C 664.882 -0.383498 -3.46887 0
M  V30 7166 C 666.23 -0.297431 -4.23557 0
M  V30 7167 O 667.254 -0.31698 -3.54787 0
M  V30 7168 O 666.113 -0.235507 -5.45992 0
M  V30 7169 H 663.207 -8.85474e-05 -0.827 0
M  V30 7170 H 665.753 -0.744406 -1.52501 0
M  V30 7171 H 664.525 -1.41174 -3.64946 0
M  V30 7172 H 664.148 0.273702 -3.96657 0
M  V30 7173 N 665.145 1.52092 -0.413018 0
M  V30 7174 C 666.078 2.23613 0.455234 0
M  V30 7175 C 667.056 1.2459 1.04481 0
M  V30 7176 O 668.24 1.53653 1.09193 0
M  V30 7177 C 665.367 2.96775 1.63224 0
M  V30 7178 C 664.413 4.10261 1.16568 0
M  V30 7179 S 665.246 5.35348 0.127633 0
M  V30 7180 C 666.402 6.1204 1.30987 0
M  V30 7181 H 666.635 2.96911 -0.152042 0
M  V30 7182 H 664.168 1.53134 -0.197343 0
M  V30 7183 H 666.126 3.39532 2.30713 0
M  V30 7184 H 664.787 2.23113 2.21087 0
M  V30 7185 H 663.98 4.6064 2.04515 0
M  V30 7186 H 663.582 3.6964 0.569386 0
M  V30 7187 H 665.874 6.39651 2.23276 0
M  V30 7188 H 666.817 7.03022 0.846533 0
M  V30 7189 H 667.225 5.43161 1.53743 0
M  V30 7190 N 666.623 0.143563 1.56945 0
M  V30 7191 C 667.871 -0.507402 1.95627 0
M  V30 7192 C 668.192 -1.65626 1.02922 0
M  V30 7193 O 667.462 -1.95693 0.0901136 0
M  V30 7194 H 666.042 -0.190436 0.722318 0
M  V30 7195 H 668.704 0.218257 1.93674 0
M  V30 7196 H 667.8 -0.885816 2.99265 0
M  V30 7197 N 668.101 -1.57061 -0.130224 0
M  V30 7198 C 669.326 -1.88802 -0.858409 0
M  V30 7199 C 669.751 -0.734353 -1.73173 0
M  V30 7200 O 669.109 0.315529 -1.78533 0
M  V30 7201 C 669.157 -3.19228 -1.67708 0
M  V30 7202 O 668.261 -3.04343 -2.78297 0
M  V30 7203 H 667.602 -0.619849 -0.238083 0
M  V30 7204 H 670.132 -2.04271 -0.115995 0
M  V30 7205 H 670.142 -3.51669 -2.06864 0
M  V30 7206 H 668.817 -4.02793 -1.0359 0
M  V30 7207 H 667.394 -2.83346 -2.42425 0
M  V30 7208 N 669.579 0.400081 -1.52437 0
M  V30 7209 C 670.542 1.4707 -1.75793 0
M  V30 7210 C 671.542 1.48036 -0.627856 0
M  V30 7211 O 672.732 1.49401 -0.895817 0
M  V30 7212 C 669.864 2.86427 -1.84858 0
M  V30 7213 H 671.057 1.27649 -2.71377 0
M  V30 7214 H 668.61 0.631141 -1.42991 0
M  V30 7215 H 669.345 3.11207 -0.912194 0
M  V30 7216 H 669.13 2.87128 -2.6702 0
M  V30 7217 H 670.62 3.64023 -2.04638 0
M  V30 7218 N 671.057 1.43213 0.657864 0
M  V30 7219 C 672.297 1.46083 1.42965 0
M  V30 7220 C 672.661 0.0809712 1.91829 0
M  V30 7221 O 673.862 -0.0156305 2.68795 0
M  V30 7222 C 672.133 2.47044 2.58271 0
M  V30 7223 S 673.692 2.68753 3.46868 0
M  V30 7224 H 670.51 0.517015 0.488074 0
M  V30 7225 H 673.112 1.79945 0.764213 0
M  V30 7226 H 671.816 3.46044 2.20639 0
M  V30 7227 H 671.347 2.14665 3.2967 0
M  V30 7228 H 673.362 1.98329 4.54841 0
M  V30 7229 N 672.536 -0.895792 1.29666 0
M  V30 7230 C 673.952 -1.17726 1.07763 0
M  V30 7231 C 674.152 -2.00794 -0.168576 0
M  V30 7232 O 673.208 -2.37213 -0.865244 0
M  V30 7233 C 674.521 -1.89441 2.33522 0
M  V30 7234 C 676.069 -2.02251 2.3888 0
M  V30 7235 C 676.544 -2.77378 3.64452 0
M  V30 7236 N 678.035 -2.8493 3.65198 0
M  V30 7237 C 678.77 -3.43606 4.59045 0
M  V30 7238 N 678.266 -4.03417 5.63228 0
M  V30 7239 N 680.059 -3.41317 4.46608 0
M  V30 7240 H 672.21 -0.341652 2.09634 0
M  V30 7241 H 674.473 -0.213865 0.923561 0
M  V30 7242 H 674.179 -1.35842 3.24407 0
M  V30 7243 H 674.053 -2.89893 2.41334 0
M  V30 7244 H 676.44 -2.55025 1.4848 0
M  V30 7245 H 676.521 -1.0092 2.3505 0
M  V30 7246 H 676.165 -2.25279 4.55205 0
M  V30 7247 H 676.095 -3.79062 3.65541 0
M  V30 7248 H 678.586 -2.42453 2.89871 0
M  V30 7249 H 678.899 -4.46224 6.30955 0
M  V30 7250 H 677.244 -4.01868 5.67033 0
M  V30 7251 H 680.435 -2.93812 3.64407 0
M  V30 7252 H 680.608 -3.86751 5.1993 0
M  V30 7253 N 674.014 -1.12206 -1.10668 0
M  V30 7254 C 675.242 -0.898635 -1.86366 0
M  V30 7255 C 675.657 0.551991 -1.80551 0
M  V30 7256 O 675.014 1.38152 -1.19249 0
M  V30 7257 C 675.065 -1.36199 -3.34861 0
M  V30 7258 O 674.786 -2.75576 -3.40573 0
M  V30 7259 C 676.287 -1.17515 -4.2744 0
M  V30 7260 H 673.507 -0.321281 -0.589084 0
M  V30 7261 H 676.051 -1.49142 -1.39918 0
M  V30 7262 H 674.206 -0.81249 -3.78784 0
M  V30 7263 H 674.62 -2.95851 -4.33096 0
M  V30 7264 H 676.094 -1.54827 -5.29842 0
M  V30 7265 H 676.571 -0.115486 -4.39048 0
M  V30 7266 H 677.177 -1.71203 -3.89319 0
M  V30 7267 N 675.492 1.28418 -0.913599 0
M  V30 7268 C 676.717 1.99643 -0.561899 0
M  V30 7269 C 677.142 1.67819 0.849608 0
M  V30 7270 O 676.5 0.910503 1.56779 0
M  V30 7271 C 676.548 3.52116 -0.777622 0
M  V30 7272 O 675.652 4.12076 0.163457 0
M  V30 7273 H 674.993 0.627229 -0.217898 0
M  V30 7274 H 677.523 1.63575 -1.229 0
M  V30 7275 H 677.533 4.02163 -0.687666 0
M  V30 7276 H 676.208 3.74613 -1.8066 0
M  V30 7277 H 674.785 3.72892 0.0247827 0
M  V30 7278 N 676.97 0.677563 1.42291 0
M  V30 7279 C 678.218 0.200578 2.01102 0
M  V30 7280 C 678.539 -1.19803 1.53858 0
M  V30 7281 O 677.809 -1.80496 0.761439 0
M  V30 7282 H 676.389 0.0711634 0.743603 0
M  V30 7283 H 679.051 0.874691 1.7417 0
M  V30 7284 H 678.147 0.204 3.11433 0
M  V30 7285 N 678.448 -1.51871 0.421078 0
M  V30 7286 C 679.38 -2.25052 -0.434065 0
M  V30 7287 C 680.393 -1.28458 -1.00013 0
M  V30 7288 O 681.582 -1.54323 -0.897033 0
M  V30 7289 C 678.682 -2.97813 -1.61743 0
M  V30 7290 C 677.855 -4.21374 -1.17315 0
M  V30 7291 C 676.914 -4.76854 -2.22478 0
M  V30 7292 O 675.94 -5.39123 -1.82577 0
M  V30 7293 N 677.142 -4.59467 -3.54782 0
M  V30 7294 H 679.907 -2.99077 0.193073 0
M  V30 7295 H 677.468 -1.59972 0.249088 0
M  V30 7296 H 679.46 -3.3182 -2.31685 0
M  V30 7297 H 678.03 -2.26899 -2.15024 0
M  V30 7298 H 677.25 -3.93046 -0.3014 0
M  V30 7299 H 678.538 -5.01591 -0.853444 0
M  V30 7300 H 677.936 -4.09832 -3.89941 0
M  V30 7301 H 676.493 -4.9788 -4.20665 0
M  V30 7302 N 679.926 -0.151884 -1.56866 0
M  V30 7303 C 681.154 0.504813 -2.00647 0
M  V30 7304 C 681.569 1.58098 -1.03201 0
M  V30 7305 O 680.926 1.82476 -0.0297814 0
M  V30 7306 C 680.977 1.10099 -3.44326 0
M  V30 7307 O 680.698 0.0678021 -4.38048 0
M  V30 7308 C 682.199 1.83782 -4.03409 0
M  V30 7309 H 679.419 0.130989 -0.65809 0
M  V30 7310 H 681.963 -0.247903 -2.02992 0
M  V30 7311 H 680.118 1.8043 -3.42817 0
M  V30 7312 H 680.532 0.505237 -5.22061 0
M  V30 7313 H 682.006 2.2078 -5.05925 0
M  V30 7314 H 682.483 2.72557 -3.44397 0
M  V30 7315 H 683.089 1.18138 -4.08563 0
M  V30 7316 N 681.404 1.57128 0.121893 0
M  V30 7317 C 682.651 1.847 0.830188 0
M  V30 7318 C 682.979 0.736543 1.80015 0
M  V30 7319 O 682.234 -0.272358 1.93796 0
M  V30 7320 C 682.533 3.1874 1.61677 0
M  V30 7321 C 682.199 4.43901 0.791361 0
M  V30 7322 C 680.861 4.77887 0.563731 0
M  V30 7323 C 683.213 5.20753 0.215823 0
M  V30 7324 C 680.541 5.86168 -0.249737 0
M  V30 7325 C 682.893 6.29891 -0.584821 0
M  V30 7326 C 681.557 6.6241 -0.822794 0
M  V30 7327 H 680.827 0.675866 0.303787 0
M  V30 7328 H 683.474 1.91276 0.0926894 0
M  V30 7329 H 681.779 3.07728 2.42509 0
M  V30 7330 H 683.476 3.37295 2.16872 0
M  V30 7331 H 680.066 4.17272 0.978867 0
M  V30 7332 H 684.25 4.94851 0.378907 0
M  V30 7333 H 679.506 6.0979 -0.44336 0
M  V30 7334 H 683.68 6.88624 -1.03779 0
M  V30 7335 H 681.307 7.46147 -1.45496 0
M  V30 7336 N 682.882 -0.391992 1.52647 0
M  V30 7337 C 683.845 -1.46135 1.7657 0
M  V30 7338 C 684.845 -1.47701 0.635698 0
M  V30 7339 O 686.035 -1.48924 0.903728 0
M  V30 7340 C 683.167 -2.85443 1.86374 0
M  V30 7341 H 684.36 -1.26208 2.72051 0
M  V30 7342 H 681.913 -0.623549 1.43323 0
M  V30 7343 H 682.648 -3.10718 0.928685 0
M  V30 7344 H 682.433 -2.85708 2.68539 0
M  V30 7345 H 683.923 -3.62933 2.06566 0
M  V30 7346 N 684.36 -1.4356 -0.65026 0
M  V30 7347 C 685.308 -1.49219 -1.78427 0
M  V30 7348 C 686.302 -0.365528 -1.65409 0
M  V30 7349 O 687.508 -0.539649 -1.7172 0
M  V30 7350 H 683.883 -0.467858 -0.588738 0
M  V30 7351 H 685.854 -2.44701 -1.70774 0
M  V30 7352 C 684.603 -1.43519 -3.16698 0
M  V30 7353 H 683.926 -2.2952 -3.27354 0
M  V30 7354 H 685.366 -1.5154 -3.95995 0
M  V30 7355 C 683.825 -0.153197 -3.36552 0
M  V30 7356 O 684.355 0.784317 -3.93969 0
M  V30 7357 N 682.561 -0.0624402 -2.90533 0
M  V30 7358 H 682.108 -0.826172 -2.43992 0
M  V30 7359 H 682.066 0.794616 -3.04193 0
M  V30 7360 N 685.838 0.888903 -1.30139 0
M  V30 7361 C 687.063 1.67884 -1.21777 0
M  V30 7362 C 687.488 1.86848 0.216689 0
M  V30 7363 O 686.846 1.39659 1.15608 0
M  V30 7364 C 686.894 3.03483 -1.94757 0
M  V30 7365 O 685.998 3.92294 -1.27198 0
M  V30 7366 H 685.339 0.513144 -0.421402 0
M  V30 7367 H 687.869 1.10968 -1.71893 0
M  V30 7368 H 687.879 3.53553 -2.03627 0
M  V30 7369 H 686.554 2.89 -2.99085 0
M  V30 7370 H 685.131 3.50732 -1.26655 0
M  V30 7371 N 687.317 1.12792 1.10072 0
M  V30 7372 C 688.265 0.794523 2.18609 0
M  V30 7373 C 689.259 -0.220271 1.67962 0
M  V30 7374 O 690.465 -0.0780938 1.79831 0
M  V30 7375 H 686.84 0.239123 0.712969 0
M  V30 7376 H 688.811 1.71823 2.43966 0
M  V30 7377 C 687.56 0.269548 3.46654 0
M  V30 7378 H 686.883 1.04171 3.8599 0
M  V30 7379 H 688.323 0.0746242 4.23934 0
M  V30 7380 C 686.782 -1.00333 3.21613 0
M  V30 7381 O 687.312 -2.08042 3.4363 0
M  V30 7382 N 685.518 -0.931763 2.75257 0
M  V30 7383 H 685.065 -0.0551197 2.57541 0
M  V30 7384 H 685.023 -1.78405 2.58881 0
M  V30 7385 N 688.795 -1.27931 0.920396 0
M  V30 7386 C 690.02 -1.99343 0.572478 0
M  V30 7387 C 690.445 -1.68267 -0.840696 0
M  V30 7388 O 689.803 -0.918805 -1.56294 0
M  V30 7389 C 689.851 -3.51698 0.796284 0
M  V30 7390 O 688.955 -4.12157 -0.141602 0
M  V30 7391 H 688.296 -0.626065 0.221221 0
M  V30 7392 H 690.826 -1.62921 1.23765 0
M  V30 7393 H 690.836 -4.01793 0.708984 0
M  V30 7394 H 689.511 -3.73649 1.82644 0
M  V30 7395 H 688.088 -3.729 -0.005007 0
M  V30 7396 N 690.273 -0.685099 -1.4193 0
M  V30 7397 C 691.498 -0.218842 -2.06242 0
M  V30 7398 C 691.923 1.11923 -1.51178 0
M  V30 7399 O 691.281 1.69837 -0.634446 0
M  V30 7400 C 691.329 -0.175592 -3.60172 0
M  V30 7401 O 690.433 0.852776 -4.03487 0
M  V30 7402 H 689.774 -0.109531 -0.654904 0
M  V30 7403 H 692.304 -0.937013 -1.81882 0
M  V30 7404 H 692.314 -0.00291151 -4.08 0
M  V30 7405 H 690.989 -1.15222 -3.99621 0
M  V30 7406 H 689.566 0.650301 -3.67186 0
M  V30 7407 N 691.751 1.51645 -0.429126 0
M  V30 7408 C 693.167 1.59394 -0.080994 0
M  V30 7409 C 693.367 1.44064 1.40882 0
M  V30 7410 O 692.423 1.27771 2.17786 0
M  V30 7411 C 693.736 2.94779 -0.593773 0
M  V30 7412 C 695.284 3.08067 -0.553494 0
M  V30 7413 C 695.759 4.45963 -1.04311 0
M  V30 7414 N 697.25 4.5226 -1.00076 0
M  V30 7415 C 697.985 5.57268 -1.35056 0
M  V30 7416 N 697.481 6.69734 -1.77282 0
M  V30 7417 N 699.274 5.47582 -1.26925 0
M  V30 7418 H 691.425 1.59856 -1.39857 0
M  V30 7419 H 693.688 0.753095 -0.575805 0
M  V30 7420 H 693.394 3.11342 -1.63583 0
M  V30 7421 H 693.268 3.77197 -0.0142202 0
M  V30 7422 H 695.655 2.91177 0.479556 0
M  V30 7423 H 695.736 2.27508 -1.16935 0
M  V30 7424 H 695.38 4.63598 -2.07459 0
M  V30 7425 H 695.31 5.25049 -0.403873 0
M  V30 7426 H 697.801 3.71537 -0.690564 0
M  V30 7427 H 698.114 7.4587 -2.02232 0
M  V30 7428 H 696.459 6.70963 -1.81202 0
M  V30 7429 H 699.65 4.58604 -0.93809 0
M  V30 7430 H 699.823 6.29308 -1.54516 0
M  V30 7431 N 693.229 0.160201 1.56784 0
M  V30 7432 C 694.454 -0.497373 2.01348 0
M  V30 7433 C 694.879 -1.56757 1.03966 0
M  V30 7434 O 694.237 -1.81292 0.0174455 0
M  V30 7435 C 694.285 -1.0628 3.44582 0
M  V30 7436 O 693.389 -2.17723 3.50244 0
M  V30 7437 H 692.73 -0.120295 0.653012 0
M  V30 7438 H 695.26 0.260821 2.02931 0
M  V30 7439 H 695.27 -1.38819 3.83658 0
M  V30 7440 H 693.945 -0.279166 4.14962 0
M  V30 7441 H 692.522 -1.86313 3.2302 0
M  V30 7442 N 694.707 -1.5719 -0.113559 0
M  V30 7443 C 695.657 -1.97166 -1.14497 0
M  V30 7444 C 696.641 -0.847413 -1.36776 0
M  V30 7445 O 697.833 -1.11114 -1.37777 0
M  V30 7446 C 694.962 -2.38411 -2.47013 0
M  V30 7447 C 694.048 -3.5748 -2.28185 0
M  V30 7448 N 694.439 -4.72998 -1.79182 0
M  V30 7449 C 692.737 -3.63218 -2.58821 0
M  V30 7450 C 693.438 -5.55007 -1.74191 0
M  V30 7451 N 692.414 -4.9765 -2.18735 0
M  V30 7452 H 696.216 -2.83937 -0.758733 0
M  V30 7453 H 693.73 -1.59191 -0.321234 0
M  V30 7454 H 695.727 -2.65269 -3.21618 0
M  V30 7455 H 694.387 -1.53007 -2.8639 0
M  V30 7456 H 695.398 -4.96109 -1.48649 0
M  V30 7457 H 692.075 -2.88434 -3.01847 0
M  V30 7458 H 693.465 -6.57678 -1.37512 0
M  V30 7459 N 696.185 0.383891 -1.52853 0
M  V30 7460 C 697.148 1.45197 -1.77343 0
M  V30 7461 C 698.148 1.47362 -0.643522 0
M  V30 7462 O 699.338 1.48443 -0.911613 0
M  V30 7463 C 696.47 2.8445 -1.87885 0
M  V30 7464 H 697.663 1.24764 -2.72716 0
M  V30 7465 H 695.216 0.615939 -1.43652 0
M  V30 7466 H 695.951 3.10222 -0.94515 0
M  V30 7467 H 695.736 2.8428 -2.70051 0
M  V30 7468 H 697.226 3.61832 -2.08488 0
M  V30 7469 N 697.663 1.43903 0.642637 0
M  V30 7470 C 698.903 1.47591 1.41408 0
M  V30 7471 C 699.267 0.101313 1.91733 0
M  V30 7472 O 700.468 0.0128797 2.68797 0
M  V30 7473 C 698.739 2.4977 2.55636 0
M  V30 7474 S 700.298 2.72417 3.43998 0
M  V30 7475 H 697.116 0.522163 0.482563 0
M  V30 7476 H 699.718 1.80745 0.745085 0
M  V30 7477 H 698.422 3.48365 2.16956 0
M  V30 7478 H 697.953 2.1815 3.27375 0
M  V30 7479 H 699.968 2.03142 4.52712 0
M  V30 7480 N 699.141 -0.881989 1.30609 0
M  V30 7481 C 700.388 -1.63405 1.19604 0
M  V30 7482 C 700.716 -1.92905 -0.248574 0
M  V30 7483 O 699.971 -1.55062 -1.19391 0
M  V30 7484 C 700.27 -2.97999 1.97311 0
M  V30 7485 C 699.936 -2.88039 3.46907 0
M  V30 7486 C 698.598 -2.85029 3.877 0
M  V30 7487 C 700.95 -2.75948 4.42156 0
M  V30 7488 C 698.278 -2.67772 5.2203 0
M  V30 7489 C 700.63 -2.60228 5.76597 0
M  V30 7490 C 699.294 -2.55595 6.16626 0
M  V30 7491 H 698.564 -0.597941 0.437662 0
M  V30 7492 H 701.211 -1.02524 1.61744 0
M  V30 7493 H 699.516 -3.62847 1.47815 0
M  V30 7494 H 701.213 -3.55156 1.86186 0
M  V30 7495 H 697.803 -2.91192 3.14492 0
M  V30 7496 H 701.987 -2.77337 4.1158 0
M  V30 7497 H 697.243 -2.62601 5.52133 0
M  V30 7498 H 701.417 -2.49847 6.50038 0
M  V30 7499 H 699.044 -2.41981 7.20659 0
M  V30 7500 N 700.619 -1.13374 -1.09472 0
M  V30 7501 C 701.551 -0.768466 -2.15933 0
M  V30 7502 C 702.564 0.209585 -1.61445 0
M  V30 7503 O 703.753 -0.010539 -1.78497 0
M  V30 7504 C 700.853 -0.118266 -3.38694 0
M  V30 7505 C 700.026 -1.12829 -4.22597 0
M  V30 7506 C 699.085 -0.503875 -5.23782 0
M  V30 7507 O 698.111 -1.16374 -5.57177 0
M  V30 7508 N 699.313 0.724288 -5.75964 0
M  V30 7509 H 702.078 -1.68457 -2.47876 0
M  V30 7510 H 699.639 -1.02668 -1.25183 0
M  V30 7511 H 701.631 0.311698 -4.03498 0
M  V30 7512 H 700.201 0.700769 -3.04644 0
M  V30 7513 H 699.421 -1.73556 -3.53938 0
M  V30 7514 H 700.709 -1.81095 -4.75481 0
M  V30 7515 H 700.107 1.27918 -5.51048 0
M  V30 7516 H 698.664 1.09692 -6.42504 0
M  V30 7517 N 702.098 1.27442 -0.927168 0
M  V30 7518 C 703.347 1.93679 -0.563146 0
M  V30 7519 C 703.66 1.73673 0.899837 0
M  V30 7520 O 704.866 2.34247 1.37262 0
M  V30 7521 C 703.322 3.46961 -0.95636 0
M  V30 7522 C 702.93 3.75724 -2.43999 0
M  V30 7523 C 704.674 4.19282 -0.663565 0
M  V30 7524 C 702.581 5.22378 -2.77263 0
M  V30 7525 H 701.511 0.725059 -0.206894 0
M  V30 7526 H 704.162 1.44743 -1.12791 0
M  V30 7527 H 702.544 3.94703 -0.320254 0
M  V30 7528 H 703.718 3.38741 -3.12396 0
M  V30 7529 H 702.033 3.16605 -2.70463 0
M  V30 7530 H 704.63 5.27265 -0.888596 0
M  V30 7531 H 704.973 4.14382 0.399198 0
M  V30 7532 H 705.506 3.7736 -1.25875 0
M  V30 7533 H 702.245 5.32367 -3.82446 0
M  V30 7534 H 701.765 5.6051 -2.13516 0
M  V30 7535 H 703.444 5.9025 -2.64979 0
M  V30 7536 N 703.576 0.692616 1.41565 0
M  V30 7537 C 704.825 0.219452 2.00503 0
M  V30 7538 C 705.138 -1.18683 1.55479 0
M  V30 7539 O 706.344 -1.75731 2.06956 0
M  V30 7540 C 704.8 0.341451 3.58277 0
M  V30 7541 C 704.408 1.75291 4.12283 0
M  V30 7542 C 706.152 -0.0720899 4.24439 0
M  V30 7543 C 704.059 1.82673 5.62481 0
M  V30 7544 H 702.989 0.0782874 0.749925 0
M  V30 7545 H 705.64 0.860386 1.62079 0
M  V30 7546 H 704.022 -0.367683 3.94289 0
M  V30 7547 H 705.196 2.49057 3.87695 0
M  V30 7548 H 703.511 2.11587 3.58636 0
M  V30 7549 H 706.108 -0.0373385 5.34687 0
M  V30 7550 H 706.451 -1.11034 4.0122 0
M  V30 7551 H 706.984 0.586663 3.9345 0
M  V30 7552 H 703.723 2.84539 5.90523 0
M  V30 7553 H 703.243 1.13288 5.89004 0
M  V30 7554 H 704.922 1.58827 6.27203 0
M  V30 7555 N 705.054 -1.51416 0.437162 0
M  V30 7556 C 705.984 -2.30631 -0.364922 0
M  V30 7557 C 706.965 -1.36037 -1.02118 0
M  V30 7558 O 708.15 -1.64956 -1.02485 0
M  V30 7559 C 705.28 -3.1482 -1.46648 0
M  V30 7560 C 704.234 -4.17691 -0.933717 0
M  V30 7561 C 703.56 -4.904 -2.13101 0
M  V30 7562 C 704.86 -5.2229 0.0317201 0
M  V30 7563 H 706.554 -2.97932 0.29614 0
M  V30 7564 H 704.1 -1.4328 0.143865 0
M  V30 7565 H 706.053 -3.69017 -2.03481 0
M  V30 7566 H 704.777 -2.4534 -2.15583 0
M  V30 7567 H 703.436 -3.64545 -0.387602 0
M  V30 7568 H 703.084 -4.17423 -2.80654 0
M  V30 7569 H 702.784 -5.59962 -1.78092 0
M  V30 7570 H 704.308 -5.4742 -2.70487 0
M  V30 7571 H 705.722 -5.7156 -0.446302 0
M  V30 7572 H 704.119 -5.99378 0.29437 0
M  V30 7573 H 705.189 -4.75131 0.968447 0
M  V30 7574 N 706.532 -0.168513 -1.56696 0
M  V30 7575 C 707.948 0.187686 -1.58493 0
M  V30 7576 C 708.148 1.63063 -1.18375 0
M  V30 7577 O 707.204 2.36142 -0.894042 0
M  V30 7578 C 708.517 -0.0905858 -3.00564 0
M  V30 7579 C 710.065 -0.028575 -3.12987 0
M  V30 7580 C 710.54 -0.279799 -4.57145 0
M  V30 7581 N 712.031 -0.227476 -4.62641 0
M  V30 7582 C 712.766 -0.396073 -5.7203 0
M  V30 7583 N 712.262 -0.623572 -6.89988 0
M  V30 7584 N 714.055 -0.332173 -5.61118 0
M  V30 7585 H 706.206 -1.11042 -1.81062 0
M  V30 7586 H 708.469 -0.441235 -0.839056 0
M  V30 7587 H 708.175 -1.09006 -3.34381 0
M  V30 7588 H 708.049 0.619078 -3.72085 0
M  V30 7589 H 710.436 0.961471 -2.78998 0
M  V30 7590 H 710.517 -0.770905 -2.43907 0
M  V30 7591 H 710.161 -1.26704 -4.91842 0
M  V30 7592 H 710.091 0.48311 -5.24379 0
M  V30 7593 H 712.582 -0.0571723 -3.77857 0
M  V30 7594 H 712.895 -0.741745 -7.69232 0
M  V30 7595 H 711.24 -0.660153 -6.91858 0
M  V30 7596 H 714.431 -0.155051 -4.67843 0
M  V30 7597 H 714.604 -0.466994 -6.46315 0
M  V30 7598 N 708.01 1.57248 0.105221 0
M  V30 7599 C 708.973 2.00388 1.11252 0
M  V30 7600 C 709.973 0.89594 1.33527 0
M  V30 7601 O 711.163 1.16166 1.29811 0
M  V30 7602 C 708.295 2.35589 2.46395 0
M  V30 7603 H 709.488 2.90591 0.741424 0
M  V30 7604 H 707.041 1.52332 0.349956 0
M  V30 7605 H 707.776 1.4831 2.884 0
M  V30 7606 H 707.561 3.16408 2.31578 0
M  V30 7607 H 709.051 2.69658 3.18864 0
M  V30 7608 N 709.488 -0.375779 1.53054 0
M  V30 7609 C 710.435 -1.45978 1.78771 0
M  V30 7610 C 711.405 -1.53625 0.631552 0
M  V30 7611 O 712.59 -1.69674 0.872667 0
M  V30 7612 C 709.73 -2.8305 1.97425 0
M  V30 7613 C 708.843 -2.84451 3.25134 0
M  V30 7614 C 707.978 -4.13034 3.34031 0
M  V30 7615 C 707.017 -4.08536 4.55812 0
M  V30 7616 N 706.154 -5.2875 4.61918 0
M  V30 7617 H 710.994 -1.23349 2.71273 0
M  V30 7618 H 708.531 -0.598147 1.3439 0
M  V30 7619 H 710.489 -3.62666 2.06225 0
M  V30 7620 H 709.119 -3.04101 1.0827 0
M  V30 7621 H 708.171 -1.97127 3.25338 0
M  V30 7622 H 709.483 -2.76998 4.14818 0
M  V30 7623 H 708.637 -5.0106 3.42087 0
M  V30 7624 H 707.376 -4.23226 2.42345 0
M  V30 7625 H 706.381 -3.18897 4.47867 0
M  V30 7626 H 707.606 -3.99955 5.48828 0
M  V30 7627 H 705.552 -5.39547 3.73129 0
M  V30 7628 H 705.469 -5.23426 5.45492 0
M  V30 7629 H 706.737 -6.18637 4.74245 0
M  V30 7630 N 710.966 -1.44241 -0.634997 0
M  V30 7631 C 712.214 -1.46531 -1.39187 0
M  V30 7632 C 712.535 -0.0976441 -1.94755 0
M  V30 7633 O 711.805 0.869528 -1.75545 0
M  V30 7634 H 710.385 -0.539544 -0.516625 0
M  V30 7635 H 713.047 -1.79989 -0.747655 0
M  V30 7636 H 712.143 -2.18848 -2.22513 0
M  V30 7637 N 712.444 0.87505 -1.31075 0
M  V30 7638 C 713.86 1.15997 -1.09622 0
M  V30 7639 C 714.06 2.01036 0.136611 0
M  V30 7640 O 713.116 2.38559 0.827397 0
M  V30 7641 C 714.429 1.85702 -2.36506 0
M  V30 7642 C 715.977 1.98425 -2.42067 0
M  V30 7643 C 716.452 2.71544 -3.68819 0
M  V30 7644 N 717.943 2.79084 -3.69684 0
M  V30 7645 C 718.678 3.36259 -4.64454 0
M  V30 7646 N 718.174 3.94406 -5.69575 0
M  V30 7647 N 719.967 3.34169 -4.51982 0
M  V30 7648 H 712.118 0.308258 -2.10151 0
M  V30 7649 H 714.381 0.199145 -0.926847 0
M  V30 7650 H 714.087 1.30663 -3.26527 0
M  V30 7651 H 713.961 2.86017 -2.45915 0
M  V30 7652 H 716.348 2.5263 -1.52518 0
M  V30 7653 H 716.429 0.971682 -2.36626 0
M  V30 7654 H 716.073 2.18008 -4.58732 0
M  V30 7655 H 716.003 3.73198 -3.71525 0
M  V30 7656 H 718.494 2.3781 -2.93691 0
M  V30 7657 H 718.807 4.36129 -6.37974 0
M  V30 7658 H 717.152 3.92797 -5.73355 0
M  V30 7659 H 720.343 2.87977 -3.69035 0
M  V30 7660 H 720.516 3.78431 -5.26017 0
M  V30 7661 N 713.922 1.13953 1.08869 0
M  V30 7662 C 714.855 0.765765 2.14968 0
M  V30 7663 C 715.833 -0.250689 1.60656 0
M  V30 7664 O 717.017 -0.140852 1.87973 0
M  V30 7665 C 714.144 0.136146 3.38426 0
M  V30 7666 C 713.19 1.12201 4.11477 0
M  V30 7667 S 714.023 2.65711 4.64928 0
M  V30 7668 C 715.179 2.04125 5.91679 0
M  V30 7669 H 715.412 1.66444 2.46341 0
M  V30 7670 H 712.945 0.960263 1.20906 0
M  V30 7671 H 714.903 -0.220712 4.09906 0
M  V30 7672 H 713.564 -0.739887 3.05261 0
M  V30 7673 H 712.757 0.629398 5.00055 0
M  V30 7674 H 712.359 1.42262 3.45886 0
M  V30 7675 H 714.651 1.39381 6.63008 0
M  V30 7676 H 715.594 2.90808 6.45629 0
M  V30 7677 H 716.002 1.4905 5.44467 0
M  V30 7678 N 715.4 -1.26948 0.933913 0
M  V30 7679 C 716.35 -2.24306 0.408779 0
M  V30 7680 C 717.334 -1.53243 -0.490435 0
M  V30 7681 O 718.526 -1.73956 -0.326866 0
M  V30 7682 C 715.655 -3.41695 -0.331578 0
M  V30 7683 C 714.741 -4.20053 0.58451 0
M  V30 7684 N 715.132 -4.76122 1.70709 0
M  V30 7685 C 713.43 -4.44303 0.388703 0
M  V30 7686 C 714.131 -5.35267 2.27737 0
M  V30 7687 N 713.107 -5.20548 1.56622 0
M  V30 7688 H 716.909 -2.65244 1.26582 0
M  V30 7689 H 714.423 -1.4195 0.788919 0
M  V30 7690 H 716.42 -4.10552 -0.724774 0
M  V30 7691 H 715.08 -3.02286 -1.18547 0
M  V30 7692 H 716.091 -4.73884 2.08937 0
M  V30 7693 H 712.768 -4.15341 -0.424016 0
M  V30 7694 H 714.158 -5.89563 3.22282 0
M  V30 7695 N 716.879 -0.700114 -1.41195 0
M  V30 7696 C 718.127 -0.232546 -2.00758 0
M  V30 7697 C 718.448 1.1734 -1.55745 0
M  V30 7698 O 717.718 1.79262 -0.790058 0
M  V30 7699 H 716.298 -0.0829845 -0.742376 0
M  V30 7700 H 718.96 -0.902289 -1.72756 0
M  V30 7701 H 718.056 -0.253521 -3.11069 0
M  V30 7702 N 718.357 1.51182 -0.445186 0
M  V30 7703 C 719.304 2.27939 0.362291 0
M  V30 7704 C 720.274 1.31864 1.01 0
M  V30 7705 O 721.459 1.60776 1.02741 0
M  V30 7706 C 718.599 3.13016 1.45311 0
M  V30 7707 C 717.712 4.24093 0.822757 0
M  V30 7708 C 716.847 4.96467 1.88928 0
M  V30 7709 C 715.886 5.99454 1.23778 0
M  V30 7710 N 715.023 6.65206 2.24602 0
M  V30 7711 H 719.863 2.965 -0.29862 0
M  V30 7712 H 717.4 1.46237 -0.15911 0
M  V30 7713 H 719.358 3.60673 2.09692 0
M  V30 7714 H 717.988 2.46553 2.08354 0
M  V30 7715 H 717.04 3.80341 0.0670364 0
M  V30 7716 H 718.352 4.97853 0.307184 0
M  V30 7717 H 717.506 5.47712 2.60953 0
M  V30 7718 H 716.245 4.22355 2.4386 0
M  V30 7719 H 715.25 5.47494 0.503042 0
M  V30 7720 H 716.475 6.75527 0.695694 0
M  V30 7721 H 714.421 5.93901 2.78599 0
M  V30 7722 H 714.338 7.34756 1.77958 0
M  V30 7723 H 715.606 7.21078 2.96085 0
M  V30 7724 N 719.835 0.176821 1.56605 0
M  V30 7725 C 721.082 -0.466715 1.97048 0
M  V30 7726 C 721.41 -1.6288 1.06302 0
M  V30 7727 O 720.665 -1.95453 0.0982571 0
M  V30 7728 C 720.964 -0.986208 3.43524 0
M  V30 7729 C 720.63 0.0605667 4.50859 0
M  V30 7730 C 719.292 0.348242 4.79938 0
M  V30 7731 C 721.644 0.770794 5.15469 0
M  V30 7732 C 718.972 1.35144 5.70923 0
M  V30 7733 C 721.324 1.76301 6.07537 0
M  V30 7734 C 719.988 2.05808 6.3498 0
M  V30 7735 H 719.258 -0.170783 0.721051 0
M  V30 7736 H 721.905 0.269942 1.89588 0
M  V30 7737 H 720.21 -1.80079 3.47964 0
M  V30 7738 H 721.907 -1.49323 3.72161 0
M  V30 7739 H 718.497 -0.173823 4.28247 0
M  V30 7740 H 722.681 0.56176 4.9311 0
M  V30 7741 H 717.937 1.58616 5.90467 0
M  V30 7742 H 722.111 2.31868 6.56666 0
M  V30 7743 H 719.738 2.8369 7.05283 0
M  V30 7744 N 721.313 -1.57302 -0.09688 0
M  V30 7745 C 722.538 -1.9058 -0.818169 0
M  V30 7746 C 722.963 -0.770921 -1.71576 0
M  V30 7747 O 722.321 0.277588 -1.79162 0
M  V30 7748 C 722.369 -3.22714 -1.60898 0
M  V30 7749 O 721.473 -3.10178 -2.71779 0
M  V30 7750 H 720.814 -0.624759 -0.224882 0
M  V30 7751 H 723.344 -2.04471 -0.07264 0
M  V30 7752 H 723.354 -3.55978 -1.99358 0
M  V30 7753 H 722.029 -4.04899 -0.950227 0
M  V30 7754 H 720.606 -2.88424 -2.3636 0
M  V30 7755 N 722.791 0.367657 -1.53252 0
M  V30 7756 C 723.721 1.45632 -1.8252 0
M  V30 7757 C 724.702 1.55979 -0.678568 0
M  V30 7758 O 725.887 1.70581 -0.928217 0
M  V30 7759 C 723.017 2.82994 -2.01325 0
M  V30 7760 C 721.971 2.87473 -3.17086 0
M  V30 7761 C 721.297 4.2749 -3.21179 0
M  V30 7762 C 722.597 2.55182 -4.55719 0
M  V30 7763 H 724.291 1.21387 -2.73689 0
M  V30 7764 H 721.837 0.58251 -1.31692 0
M  V30 7765 H 723.79 3.59179 -2.20383 0
M  V30 7766 H 722.514 3.08622 -1.06864 0
M  V30 7767 H 721.173 2.13739 -2.97844 0
M  V30 7768 H 720.821 4.5019 -2.24361 0
M  V30 7769 H 720.521 4.31403 -3.98955 0
M  V30 7770 H 722.045 5.0555 -3.42419 0
M  V30 7771 H 723.459 3.21081 -4.74953 0
M  V30 7772 H 721.856 2.70414 -5.3572 0
M  V30 7773 H 722.926 1.5044 -4.60973 0
M  V30 7774 N 724.269 1.44576 0.627338 0
M  V30 7775 C 725.515 1.47777 1.38888 0
M  V30 7776 C 725.848 0.111406 1.9388 0
M  V30 7777 O 725.123 -0.87149 1.73883 0
M  V30 7778 C 725.406 2.54119 2.55138 0
M  V30 7779 C 725.259 4.00128 2.0547 0
M  V30 7780 C 726.578 2.56929 3.57317 0
M  V30 7781 H 723.697 0.538048 0.50366 0
M  V30 7782 H 726.339 1.76277 0.708978 0
M  V30 7783 H 724.489 2.29948 3.13139 0
M  V30 7784 H 726.161 4.35444 1.5227 0
M  V30 7785 H 724.404 4.11724 1.36623 0
M  V30 7786 H 725.075 4.7019 2.89181 0
M  V30 7787 H 727.551 2.78536 3.09122 0
M  V30 7788 H 726.427 3.33234 4.36173 0
M  V30 7789 H 726.688 1.6127 4.11636 0
M  V30 7790 N 725.747 -0.868086 1.31537 0
M  V30 7791 C 727.024 -1.60384 1.11965 0
M  V30 7792 C 727.404 -2.08584 -0.324949 0
M  V30 7793 O 726.752 -1.86561 -1.31937 0
M  V30 7794 C 726.962 -2.76038 2.13551 0
M  V30 7795 C 728.31 -3.45954 2.46173 0
M  V30 7796 O 729.334 -2.86247 2.11993 0
M  V30 7797 O 728.193 -4.53666 3.04711 0
M  V30 7798 H 725.287 -0.705705 0.431172 0
M  V30 7799 H 727.833 -0.913385 1.43022 0
M  V30 7800 H 726.605 -2.37849 3.10714 0
M  V30 7801 H 726.228 -3.52769 1.83411 0
M  V30 7802 N 727.225 -1.14528 -1.08264 0
M  V30 7803 C 728.155 -0.856356 -2.1723 0
M  V30 7804 C 729.136 0.189251 -1.69044 0
M  V30 7805 O 730.321 0.0456119 -1.94146 0
M  V30 7806 C 727.451 -0.334662 -3.45684 0
M  V30 7807 C 726.405 -1.31588 -4.0727 0
M  V30 7808 C 725.731 -0.653428 -5.30692 0
M  V30 7809 C 727.031 -2.67866 -4.48381 0
M  V30 7810 H 728.725 -1.76755 -2.41657 0
M  V30 7811 H 726.271 -0.851287 -1.16143 0
M  V30 7812 H 728.224 -0.120128 -4.21229 0
M  V30 7813 H 726.948 0.611967 -3.20815 0
M  V30 7814 H 725.607 -1.51661 -3.33758 0
M  V30 7815 H 725.255 0.299054 -5.0211 0
M  V30 7816 H 724.955 -1.30817 -5.72853 0
M  V30 7817 H 726.479 -0.448453 -6.08951 0
M  V30 7818 H 727.893 -2.51692 -5.15096 0
M  V30 7819 H 726.29 -3.29627 -5.01464 0
M  V30 7820 H 727.36 -3.24632 -3.60198 0
M  V30 7821 N 728.703 1.26451 -0.940633 0
M  V30 7822 C 729.666 2.24651 -0.454378 0
M  V30 7823 C 730.666 1.54826 0.434222 0
M  V30 7824 O 731.856 1.72628 0.233477 0
M  V30 7825 C 728.988 3.39148 0.345192 0
M  V30 7826 H 730.181 2.69182 -1.32217 0
M  V30 7827 H 727.734 1.38596 -0.722547 0
M  V30 7828 H 728.469 3.00018 1.23125 0
M  V30 7829 H 728.254 3.9101 -0.292107 0
M  V30 7830 H 729.744 4.12103 0.675341 0
M  V30 7831 N 730.181 0.707592 1.40822 0
M  V30 7832 C 731.429 0.243189 2.00632 0
M  V30 7833 C 731.75 -1.16512 1.56365 0
M  V30 7834 O 731.02 -1.78841 0.799553 0
M  V30 7835 H 729.6 0.0869203 0.741926 0
M  V30 7836 H 732.262 0.911438 1.72275 0
M  V30 7837 H 731.358 0.270014 3.1093 0
M  V30 7838 N 731.66 -1.50943 0.453197 0
M  V30 7839 C 732.608 -2.29728 -0.364419 0
M  V30 7840 C 733.602 -1.36246 -1.00664 0
M  V30 7841 O 734.808 -1.53518 -0.939794 0
M  V30 7842 H 731.183 -0.739536 -0.136347 0
M  V30 7843 H 733.154 -2.96672 0.320696 0
M  V30 7844 C 731.903 -3.1629 -1.44415 0
M  V30 7845 H 731.226 -3.88119 -0.959343 0
M  V30 7846 H 732.666 -3.74444 -1.98917 0
M  V30 7847 C 731.125 -2.32702 -2.43622 0
M  V30 7848 O 731.655 -1.99763 -3.48508 0
M  V30 7849 N 729.861 -1.95621 -2.14897 0
M  V30 7850 H 729.408 -2.22607 -1.29629 0
M  V30 7851 H 729.366 -1.39993 -2.81513 0
M  V30 7852 N 733.138 -0.185124 -1.56509 0
M  V30 7853 C 734.048 0.751908 -2.22224 0
M  V30 7854 C 735.064 1.24244 -1.21817 0
M  V30 7855 O 736.24 1.29169 -1.54523 0
M  V30 7856 C 733.305 1.95837 -2.86092 0
M  V30 7857 C 732.366 1.51337 -4.01741 0
M  V30 7858 C 731.599 2.66233 -4.62554 0
M  V30 7859 O 731.822 3.8346 -4.22273 0
M  V30 7860 O 730.756 2.39517 -5.52191 0
M  V30 7861 H 734.582 0.222304 -3.02885 0
M  V30 7862 H 732.167 0.0437141 -1.49336 0
M  V30 7863 H 734.049 2.66368 -3.26536 0
M  V30 7864 H 732.724 2.47677 -2.08417 0
M  V30 7865 H 731.631 0.777155 -3.65939 0
M  V30 7866 H 732.964 1.04175 -4.81049 0
M  V30 7867 N 734.616 1.57351 0.0885366 0
M  V30 7868 C 736.032 1.53331 0.442916 0
M  V30 7869 C 736.232 0.902831 1.80142 0
M  V30 7870 O 735.288 0.498147 2.47537 0
M  V30 7871 C 736.601 2.98036 0.399372 0
M  V30 7872 C 738.149 3.09286 0.480759 0
M  V30 7873 C 738.624 4.5561 0.467296 0
M  V30 7874 N 740.115 4.60182 0.52786 0
M  V30 7875 C 740.85 5.70857 0.539388 0
M  V30 7876 N 740.346 6.90944 0.506729 0
M  V30 7877 N 742.139 5.59051 0.584691 0
M  V30 7878 H 734.29 1.96709 -0.801215 0
M  V30 7879 H 736.553 0.899639 -0.298922 0
M  V30 7880 H 736.259 3.47656 -0.531806 0
M  V30 7881 H 736.133 3.57066 1.21589 0
M  V30 7882 H 738.52 2.5965 1.40236 0
M  V30 7883 H 738.601 2.53197 -0.364023 0
M  V30 7884 H 738.245 5.05899 -0.450384 0
M  V30 7885 H 738.175 5.09544 1.32938 0
M  V30 7886 H 740.666 3.73757 0.558028 0
M  V30 7887 H 740.979 7.71055 0.518989 0
M  V30 7888 H 739.324 6.93384 0.473675 0
M  V30 7889 H 742.515 4.64138 0.607781 0
M  V30 7890 H 742.688 6.45307 0.590206 0
M  V30 7891 N 736.094 -0.359525 1.53444 0
M  V30 7892 C 737.342 -1.09935 1.69584 0
M  V30 7893 C 737.663 -1.89656 0.453371 0
M  V30 7894 O 736.933 -1.8852 -0.53263 0
M  V30 7895 H 735.513 -0.408843 0.625185 0
M  V30 7896 H 738.175 -0.40467 1.90653 0
M  V30 7897 H 737.271 -1.78575 2.55964 0
M  V30 7898 N 737.572 -1.44907 -0.619662 0
M  V30 7899 C 738.535 -1.52282 -1.71297 0
M  V30 7900 C 739.535 -0.40359 -1.55653 0
M  V30 7901 O 740.725 -0.666638 -1.6094 0
M  V30 7902 C 737.857 -1.40778 -3.10474 0
M  V30 7903 H 739.05 -2.49683 -1.66128 0
M  V30 7904 H 736.603 -1.32168 -0.834339 0
M  V30 7905 H 737.338 -0.445156 -3.2123 0
M  V30 7906 H 737.123 -2.21947 -3.23237 0
M  V30 7907 H 738.613 -1.48946 -3.90135 0
M  V30 7908 N 739.05 0.861098 -1.31996 0
M  V30 7909 C 740.327 1.59788 -1.12814 0
M  V30 7910 C 740.707 2.08753 0.313882 0
M  V30 7911 O 740.055 1.87258 1.30946 0
M  V30 7912 C 740.265 2.74901 -2.15012 0
M  V30 7913 C 741.613 3.44643 -2.48004 0
M  V30 7914 O 742.637 2.85119 -2.13508 0
M  V30 7915 O 741.496 4.52044 -3.07113 0
M  V30 7916 H 738.59 0.703408 -0.434909 0
M  V30 7917 H 741.136 0.905788 -1.43505 0
M  V30 7918 H 739.908 2.36198 -3.11971 0
M  V30 7919 H 739.531 3.51792 -1.85279 0
M  V30 7920 N 740.528 1.15101 1.07655 0
M  V30 7921 C 741.756 0.947731 1.83918 0
M  V30 7922 C 742.171 -0.503927 1.81951 0
M  V30 7923 O 741.528 -1.34941 1.2287 0
M  V30 7924 C 741.579 1.4503 3.31132 0
M  V30 7925 O 741.3 2.84508 3.33146 0
M  V30 7926 C 742.801 1.28806 4.24174 0
M  V30 7927 H 740.021 0.336786 0.580358 0
M  V30 7928 H 742.565 1.52799 1.35914 0
M  V30 7929 H 740.72 0.912632 3.76497 0
M  V30 7930 H 741.134 3.0723 4.251 0
M  V30 7931 H 742.608 1.6882 5.25551 0
M  V30 7932 H 743.085 0.231851 4.38588 0
M  V30 7933 H 743.691 1.81465 3.84643 0
M  V30 7934 N 742.006 -1.2595 0.947325 0
M  V30 7935 C 743.231 -1.98083 0.614633 0
M  V30 7936 C 743.656 -1.70013 -0.804815 0
M  V30 7937 O 743.014 -0.95175 -1.54309 0
M  V30 7938 C 743.062 -3.4993 0.870706 0
M  V30 7939 O 742.166 -4.12364 -0.0541451 0
M  V30 7940 H 741.507 -0.621232 0.234451 0
M  V30 7941 H 744.037 -1.60259 1.27193 0
M  V30 7942 H 744.047 -4.00198 0.794051 0
M  V30 7943 H 742.722 -3.69691 1.90529 0
M  V30 7944 H 741.299 -3.72826 0.0740917 0
M  V30 7945 N 743.484 -0.715051 -1.40445 0
M  V30 7946 C 744.709 -0.26254 -2.05732 0
M  V30 7947 C 745.134 1.08691 -1.53519 0
M  V30 7948 O 744.492 1.68453 -0.670328 0
M  V30 7949 C 744.54 -0.25195 -3.59719 0
M  V30 7950 O 743.644 0.766998 -4.05205 0
M  V30 7951 H 742.985 -0.123398 -0.652433 0
M  V30 7952 H 745.515 -0.975382 -1.79854 0
M  V30 7953 H 745.525 -0.0894537 -4.07902 0
M  V30 7954 H 744.2 -1.23672 -3.97087 0
M  V30 7955 H 742.777 0.572269 -3.68483 0
M  V30 7956 N 744.962 1.50701 -0.461195 0
M  V30 7957 C 745.925 2.2686 0.326679 0
M  V30 7958 C 746.925 1.31243 0.929085 0
M  V30 7959 O 748.115 1.54754 0.799807 0
M  V30 7960 C 745.247 3.07844 1.46441 0
M  V30 7961 H 746.44 2.97954 -0.341095 0
M  V30 7962 H 743.993 1.54814 -0.214984 0
M  V30 7963 H 744.728 2.41223 2.16753 0
M  V30 7964 H 744.513 3.78101 1.03836 0
M  V30 7965 H 746.003 3.65469 2.02044 0
M  V30 7966 N 746.441 0.193421 1.56409 0
M  V30 7967 C 747.718 -0.493318 1.89277 0
M  V30 7968 C 748.098 -1.79765 1.10669 0
M  V30 7969 O 747.446 -2.27558 0.207274 0
M  V30 7970 C 747.656 -0.713732 3.41624 0
M  V30 7971 C 749.004 -1.03385 4.11821 0
M  V30 7972 O 750.028 -0.801511 3.47065 0
M  V30 7973 O 748.887 -1.47327 5.26267 0
M  V30 7974 H 745.981 -0.256973 0.786062 0
M  V30 7975 H 748.527 0.23351 1.68086 0
M  V30 7976 H 747.299 0.207446 3.9075 0
M  V30 7977 H 746.922 -1.49308 3.68501 0
M  V30 7978 N 747.919 -1.57396 -0.0801906 0
M  V30 7979 C 749.335 -1.53564 -0.434778 0
M  V30 7980 C 749.535 -0.912372 -1.79661 0
M  V30 7981 O 748.591 -0.511268 -2.4727 0
M  V30 7982 C 749.904 -2.98244 -0.383561 0
M  V30 7983 C 751.452 -3.09536 -0.46435 0
M  V30 7984 C 751.927 -4.55851 -0.443128 0
M  V30 7985 N 753.418 -4.60456 -0.503448 0
M  V30 7986 C 754.153 -5.71135 -0.509106 0
M  V30 7987 N 753.649 -6.91203 -0.47008 0
M  V30 7988 N 755.442 -5.59353 -0.555035 0
M  V30 7989 H 747.593 -1.96281 0.811635 0
M  V30 7990 H 749.856 -0.898041 0.303689 0
M  V30 7991 H 749.562 -3.47369 0.550236 0
M  V30 7992 H 749.436 -3.57705 -1.19694 0
M  V30 7993 H 751.823 -2.6039 -1.38857 0
M  V30 7994 H 751.904 -2.53 0.377445 0
M  V30 7995 H 751.548 -5.05653 0.477207 0
M  V30 7996 H 751.478 -5.10242 -1.30234 0
M  V30 7997 H 753.969 -3.74048 -0.538199 0
M  V30 7998 H 754.282 -7.7132 -0.478091 0
M  V30 7999 H 752.627 -6.93625 -0.436897 0
M  V30 8000 H 755.818 -4.64453 -0.583158 0
M  V30 8001 H 755.991 -6.4561 -0.555976 0
M  V30 8002 N 749.397 0.351382 -1.53633 0
M  V30 8003 C 750.329 1.45159 -1.77374 0
M  V30 8004 C 751.342 1.4905 -0.654826 0
M  V30 8005 O 752.531 1.52274 -0.931396 0
M  V30 8006 C 749.631 2.83858 -1.85143 0
M  V30 8007 C 748.804 3.03498 -3.14972 0
M  V30 8008 C 747.863 4.22393 -3.138 0
M  V30 8009 O 746.889 4.16885 -3.87551 0
M  V30 8010 N 748.091 5.30533 -2.35617 0
M  V30 8011 H 750.856 1.25167 -2.72311 0
M  V30 8012 H 748.417 0.54121 -1.52586 0
M  V30 8013 H 750.409 3.61557 -1.8182 0
M  V30 8014 H 748.979 2.9703 -0.974275 0
M  V30 8015 H 748.199 2.13336 -3.31484 0
M  V30 8016 H 749.487 3.13498 -4.00745 0
M  V30 8017 H 748.885 5.37875 -1.75235 0
M  V30 8018 H 747.442 6.06756 -2.38098 0
M  V30 8019 N 750.875 1.45233 0.611969 0
M  V30 8020 C 752.103 1.52539 1.39784 0
M  V30 8021 C 752.518 0.156533 1.8815 0
M  V30 8022 O 751.875 -0.84112 1.61961 0
M  V30 8023 C 751.926 2.50614 2.60528 0
M  V30 8024 O 751.647 3.8218 2.14173 0
M  V30 8025 C 753.148 2.67574 3.53439 0
M  V30 8026 H 750.368 0.51674 0.428043 0
M  V30 8027 H 752.912 1.90379 0.746727 0
M  V30 8028 H 751.067 2.15858 3.2169 0
M  V30 8029 H 751.481 4.35305 2.92592 0
M  V30 8030 H 752.955 3.40184 4.34717 0
M  V30 8031 H 753.432 1.73458 4.03496 0
M  V30 8032 H 754.038 3.0331 2.98133 0
M  V30 8033 N 752.353 -0.854086 1.3245 0
M  V30 8034 C 753.769 -1.14238 1.11453 0
M  V30 8035 C 753.969 -2.01228 -0.10461 0
M  V30 8036 O 753.025 -2.39845 -0.789339 0
M  V30 8037 C 754.338 -1.81916 2.39431 0
M  V30 8038 C 755.886 -1.94549 2.45193 0
M  V30 8039 C 756.361 -2.65642 3.73093 0
M  V30 8040 N 757.852 -2.73167 3.74078 0
M  V30 8041 C 758.587 -3.28828 4.69744 0
M  V30 8042 N 758.083 -3.85295 5.75778 0
M  V30 8043 N 759.876 -3.26936 4.57241 0
M  V30 8044 H 752.027 -0.274786 2.10615 0
M  V30 8045 H 754.29 -0.184375 0.929898 0
M  V30 8046 H 753.996 -1.25452 3.28565 0
M  V30 8047 H 753.87 -2.82068 2.50434 0
M  V30 8048 H 756.257 -2.50172 1.56518 0
M  V30 8049 H 756.338 -0.933914 2.38142 0
M  V30 8050 H 755.982 -2.10683 4.62142 0
M  V30 8051 H 755.912 -3.6724 3.77415 0
M  V30 8052 H 758.403 -2.33108 2.97438 0
M  V30 8053 H 758.716 -4.25925 6.44832 0
M  V30 8054 H 757.061 -3.83625 5.79531 0
M  V30 8055 H 760.252 -2.8207 3.7357 0
M  V30 8056 H 760.425 -3.70014 5.31971 0
M  V30 8057 N 753.831 -1.1567 -1.07043 0
M  V30 8058 C 754.764 -0.799867 -2.13723 0
M  V30 8059 C 755.742 0.225098 -1.61034 0
M  V30 8060 O 756.926 0.11093 -1.88173 0
M  V30 8061 C 754.053 -0.18997 -3.38167 0
M  V30 8062 C 753.099 -1.18733 -4.0964 0
M  V30 8063 S 753.932 -2.73074 -4.60642 0
M  V30 8064 C 755.088 -2.13512 -5.88356 0
M  V30 8065 H 755.321 -1.70342 -2.43661 0
M  V30 8066 H 752.854 -0.979377 -1.19363 0
M  V30 8067 H 754.812 0.155471 -4.10205 0
M  V30 8068 H 753.473 0.691229 -3.064 0
M  V30 8069 H 752.666 -0.708873 -4.9899 0
M  V30 8070 H 752.268 -1.47747 -3.43579 0
M  V30 8071 H 754.56 -1.49911 -6.60706 0
M  V30 8072 H 755.503 -3.01042 -6.40921 0
M  V30 8073 H 755.911 -1.57693 -5.42027 0
M  V30 8074 N 755.309 1.25446 -0.953992 0
M  V30 8075 C 756.219 2.29632 -0.480264 0
M  V30 8076 C 757.235 1.68025 0.452071 0
M  V30 8077 O 758.411 1.98703 0.328472 0
M  V30 8078 C 755.476 3.45903 0.234974 0
M  V30 8079 C 754.537 4.22953 -0.735495 0
M  V30 8080 C 753.77 5.33672 -0.0542957 0
M  V30 8081 O 753.993 5.58477 1.16018 0
M  V30 8082 O 752.927 5.9734 -0.739509 0
M  V30 8083 H 756.753 2.72242 -1.34602 0
M  V30 8084 H 754.338 1.30883 -0.720419 0
M  V30 8085 H 756.22 4.16552 0.637341 0
M  V30 8086 H 754.895 3.05296 1.07592 0
M  V30 8087 H 753.802 3.54734 -1.18806 0
M  V30 8088 H 755.135 4.67341 -1.54444 0
M  V30 8089 N 756.787 0.722489 1.40064 0
M  V30 8090 C 758.035 0.264455 2.00362 0
M  V30 8091 C 758.356 -1.14847 1.57592 0
M  V30 8092 O 757.626 -1.77982 0.818477 0
M  V30 8093 H 756.206 0.0947846 0.740962 0
M  V30 8094 H 758.868 0.929659 1.71299 0
M  V30 8095 H 757.964 0.302977 3.10626 0
M  V30 8096 N 758.265 -1.50454 0.469181 0
M  V30 8097 C 759.228 -2.2703 -0.314643 0
M  V30 8098 C 760.228 -1.31734 -0.922111 0
M  V30 8099 O 761.418 -1.55176 -0.791588 0
M  V30 8100 C 758.55 -3.08616 -1.44806 0
M  V30 8101 H 759.743 -2.97769 0.356892 0
M  V30 8102 H 757.296 -1.54698 0.223191 0
M  V30 8103 H 758.031 -2.42369 -2.1547 0
M  V30 8104 H 757.816 -3.78647 -1.01829 0
M  V30 8105 H 759.306 -3.66536 -2.00103 0
M  V30 8106 N 759.743 -0.201713 -1.56304 0
M  V30 8107 C 760.653 0.728296 -2.23009 0
M  V30 8108 C 761.669 1.22945 -1.23128 0
M  V30 8109 O 762.845 1.27523 -1.55884 0
M  V30 8110 C 759.91 1.92792 -2.88153 0
M  V30 8111 C 758.971 1.47068 -4.03323 0
M  V30 8112 C 758.204 2.61312 -4.65351 0
M  V30 8113 O 758.427 3.7896 -4.26317 0
M  V30 8114 O 757.361 2.33646 -5.54701 0
M  V30 8115 H 761.187 0.190166 -3.03104 0
M  V30 8116 H 758.772 0.0278725 -1.49374 0
M  V30 8117 H 760.654 2.6289 -3.29343 0
M  V30 8118 H 759.329 2.45452 -2.11033 0
M  V30 8119 H 758.236 0.738299 -3.66742 0
M  V30 8120 H 759.569 0.990666 -4.82127 0
M  V30 8121 N 761.222 1.57436 0.0718424 0
M  V30 8122 C 762.471 1.86431 0.769826 0
M  V30 8123 C 762.784 0.794355 1.78744 0
M  V30 8124 O 763.99 0.972148 2.53499 0
M  V30 8125 C 762.446 3.307 1.42006 0
M  V30 8126 C 762.054 4.45824 0.441017 0
M  V30 8127 C 763.798 3.68894 2.10041 0
M  V30 8128 C 761.705 5.81134 1.09717 0
M  V30 8129 H 760.635 0.695474 0.291259 0
M  V30 8130 H 763.286 1.83485 0.0231224 0
M  V30 8131 H 761.668 3.28257 2.21502 0
M  V30 8132 H 762.842 4.59659 -0.32413 0
M  V30 8133 H 761.157 4.16181 -0.134886 0
M  V30 8134 H 763.754 4.67281 2.59908 0
M  V30 8135 H 764.097 2.98692 2.89981 0
M  V30 8136 H 764.63 3.73326 1.37376 0
M  V30 8137 H 761.369 6.54628 0.338095 0
M  V30 8138 H 760.889 5.711 1.83317 0
M  V30 8139 H 762.568 6.26468 1.617 0
M  V30 8140 N 762.7 -0.34323 1.53817 0
M  V30 8141 C 763.648 -1.44176 1.82527 0
M  V30 8142 C 764.642 -1.54452 0.695772 0
M  V30 8143 O 765.848 -1.57072 0.879114 0
M  V30 8144 H 762.223 -0.480729 0.578277 0
M  V30 8145 H 764.194 -1.17176 2.74431 0
M  V30 8146 C 762.943 -2.80695 2.05197 0
M  V30 8147 H 762.266 -2.73554 2.91561 0
M  V30 8148 H 763.706 -3.56679 2.29251 0
M  V30 8149 C 762.165 -3.26322 0.837589 0
M  V30 8150 O 762.695 -4.01683 0.0371631 0
M  V30 8151 N 760.901 -2.83128 0.654724 0
M  V30 8152 H 760.448 -2.21965 1.30725 0
M  V30 8153 H 760.406 -3.14011 -0.156345 0
M  V30 8154 N 764.178 -1.45556 -0.604258 0
M  V30 8155 C 765.125 -1.54482 -1.71476 0
M  V30 8156 C 766.095 -0.390479 -1.61445 0
M  V30 8157 O 767.28 -0.604371 -1.80975 0
M  V30 8158 C 764.42 -1.52064 -3.09791 0
M  V30 8159 C 763.533 -2.78073 -3.30604 0
M  V30 8160 C 762.668 -2.67304 -4.59044 0
M  V30 8161 C 761.707 -3.88352 -4.73127 0
M  V30 8162 N 760.844 -3.76098 -5.9287 0
M  V30 8163 H 765.684 -2.49349 -1.63184 0
M  V30 8164 H 763.221 -1.23725 -0.795641 0
M  V30 8165 H 765.179 -1.48649 -3.89819 0
M  V30 8166 H 763.809 -0.607442 -3.17033 0
M  V30 8167 H 762.861 -2.91561 -2.44329 0
M  V30 8168 H 764.173 -3.67847 -3.36883 0
M  V30 8169 H 763.327 -2.61875 -5.47272 0
M  V30 8170 H 762.066 -1.75135 -4.55169 0
M  V30 8171 H 761.071 -3.94137 -3.83322 0
M  V30 8172 H 762.296 -4.81591 -4.78797 0
M  V30 8173 H 760.242 -2.867 -5.90033 0
M  V30 8174 H 760.159 -4.59509 -6.00323 0
M  V30 8175 H 761.427 -3.74607 -6.83586 0
M  V30 8176 N 765.656 0.84705 -1.32902 0
M  V30 8177 C 766.881 1.63925 -1.27056 0
M  V30 8178 C 767.306 1.87443 0.157136 0
M  V30 8179 O 766.664 1.43266 1.11106 0
M  V30 8180 C 766.712 2.97134 -2.04313 0
M  V30 8181 O 765.816 3.88049 -1.39614 0
M  V30 8182 H 765.157 0.499477 -0.437514 0
M  V30 8183 H 767.687 1.05443 -1.75336 0
M  V30 8184 H 767.697 3.46896 -2.14772 0
M  V30 8185 H 766.372 2.79339 -3.08128 0
M  V30 8186 H 764.949 3.46525 -1.3775 0
M  V30 8187 N 767.134 1.16236 1.06428 0
M  V30 8188 C 768.064 0.890807 2.1584 0
M  V30 8189 C 769.045 -0.162333 1.69324 0
M  V30 8190 O 770.23 -0.0147191 1.94194 0
M  V30 8191 C 767.36 0.389615 3.45108 0
M  V30 8192 C 766.314 1.38051 4.05125 0
M  V30 8193 C 765.64 0.737773 5.29586 0
M  V30 8194 C 766.94 2.74965 4.44062 0
M  V30 8195 H 768.634 1.80577 2.38814 0
M  V30 8196 H 766.18 0.869657 1.14774 0
M  V30 8197 H 768.133 0.187127 4.20984 0
M  V30 8198 H 766.857 -0.560851 3.21748 0
M  V30 8199 H 765.516 1.56952 3.31303 0
M  V30 8200 H 765.164 -0.219135 5.02522 0
M  V30 8201 H 764.864 1.39914 5.70699 0
M  V30 8202 H 766.388 0.545275 6.0816 0
M  V30 8203 H 767.802 2.59855 5.11027 0
M  V30 8204 H 766.199 3.37563 4.96156 0
M  V30 8205 H 767.269 3.30321 3.54987 0
M  V30 8206 N 768.612 -1.24939 0.960631 0
M  V30 8207 C 769.542 -2.28 0.503815 0
M  V30 8208 C 770.523 -1.63959 -0.452928 0
M  V30 8209 O 771.708 -1.91009 -0.350585 0
M  V30 8210 C 768.838 -3.46643 -0.213535 0
M  V30 8211 C 767.792 -4.22903 0.658535 0
M  V30 8212 C 767.118 -5.34363 -0.189902 0
M  V30 8213 C 768.418 -4.84949 1.93963 0
M  V30 8214 H 770.112 -2.66462 1.36521 0
M  V30 8215 H 767.658 -1.28093 0.657897 0
M  V30 8216 H 769.611 -4.1787 -0.544286 0
M  V30 8217 H 768.335 -3.07187 -1.10923 0
M  V30 8218 H 766.994 -3.53467 0.972455 0
M  V30 8219 H 766.642 -4.91147 -1.08553 0
M  V30 8220 H 766.342 -5.86302 0.390331 0
M  V30 8221 H 767.866 -6.0842 -0.515484 0
M  V30 8222 H 769.28 -5.48288 1.67491 0
M  V30 8223 H 767.677 -5.47091 2.46601 0
M  V30 8224 H 768.747 -4.06799 2.639 0
M  V30 8225 N 770.09 -0.729906 -1.39679 0
M  V30 8226 C 771.053 -0.0951668 -2.29002 0
M  V30 8227 C 772.053 0.672471 -1.46063 0
M  V30 8228 O 773.243 0.502245 -1.66803 0
M  V30 8229 C 770.375 0.874631 -3.29489 0
M  V30 8230 H 771.568 -0.882062 -2.86635 0
M  V30 8231 H 769.121 -0.495424 -1.4824 0
M  V30 8232 H 769.856 1.68807 -2.76902 0
M  V30 8233 H 769.641 0.326893 -3.90735 0
M  V30 8234 H 771.131 1.31548 -3.96339 0
M  V30 8235 N 771.568 1.50203 -0.477153 0
M  V30 8236 C 772.498 2.31517 0.303646 0
M  V30 8237 C 773.479 1.38696 0.984753 0
M  V30 8238 O 774.664 1.67615 0.980758 0
M  V30 8239 C 771.794 3.18598 1.38249 0
M  V30 8240 C 770.748 4.2002 0.822645 0
M  V30 8241 C 770.074 4.95878 2.00024 0
M  V30 8242 C 771.374 5.22023 -0.170185 0
M  V30 8243 H 773.068 2.97042 -0.375027 0
M  V30 8244 H 770.614 1.42848 -0.181802 0
M  V30 8245 H 772.567 3.74282 1.93625 0
M  V30 8246 H 771.291 2.5097 2.09002 0
M  V30 8247 H 769.95 3.65445 0.290813 0
M  V30 8248 H 769.598 4.24717 2.69489 0
M  V30 8249 H 769.298 5.64487 1.63183 0
M  V30 8250 H 770.822 5.54399 2.55878 0
M  V30 8251 H 772.236 5.72543 0.294606 0
M  V30 8252 H 770.633 5.98386 -0.453181 0
M  V30 8253 H 771.703 4.72396 -1.09408 0
M  V30 8254 N 773.046 0.209999 1.56195 0
M  V30 8255 C 773.993 -0.704854 2.19774 0
M  V30 8256 C 774.963 -1.19886 1.14964 0
M  V30 8257 O 776.148 -1.26005 1.43274 0
M  V30 8258 C 773.288 -1.91241 2.87265 0
M  V30 8259 C 772.401 -1.45838 4.06639 0
M  V30 8260 C 771.536 -2.6226 4.61945 0
M  V30 8261 C 770.575 -2.13537 5.73645 0
M  V30 8262 N 769.712 -3.2319 6.23292 0
M  V30 8263 H 774.552 -0.155944 2.97592 0
M  V30 8264 H 772.089 -0.0652235 1.46955 0
M  V30 8265 H 774.047 -2.62123 3.24573 0
M  V30 8266 H 772.677 -2.43439 2.11985 0
M  V30 8267 H 771.729 -0.644897 3.74894 0
M  V30 8268 H 773.041 -1.06103 4.87384 0
M  V30 8269 H 772.195 -3.41243 5.01636 0
M  V30 8270 H 770.934 -3.05278 3.80338 0
M  V30 8271 H 769.939 -1.33013 5.33468 0
M  V30 8272 H 771.164 -1.71533 6.57079 0
M  V30 8273 H 769.11 -3.65711 5.44602 0
M  V30 8274 H 769.027 -2.8767 6.99129 0
M  V30 8275 H 770.295 -4.02342 6.67639 0
M  V30 8276 N 774.524 -1.57472 -0.0634922 0
M  V30 8277 C 775.434 -2.07621 -1.09227 0
M  V30 8278 C 776.45 -1.00746 -1.41867 0
M  V30 8279 O 777.626 -1.32269 -1.51878 0
M  V30 8280 C 774.691 -2.51707 -2.38421 0
M  V30 8281 C 773.752 -3.72917 -2.12676 0
M  V30 8282 C 772.985 -4.14891 -3.3571 0
M  V30 8283 O 773.208 -3.56663 -4.45137 0
M  V30 8284 O 772.142 -5.07616 -3.23434 0
M  V30 8285 H 775.968 -2.95612 -0.696205 0
M  V30 8286 H 773.553 -1.46787 -0.27819 0
M  V30 8287 H 775.435 -2.80547 -3.14438 0
M  V30 8288 H 774.11 -1.66842 -2.77391 0
M  V30 8289 H 773.017 -3.49148 -1.34337 0
M  V30 8290 H 774.35 -4.5866 -1.78583 0
M  V30 8291 N 776.003 0.335068 -1.53997 0
M  V30 8292 C 777.243 1.0827 -1.7337 0
M  V30 8293 C 777.607 1.85618 -0.490913 0
M  V30 8294 O 778.808 2.62864 -0.561799 0
M  V30 8295 C 777.079 1.99212 -2.96731 0
M  V30 8296 S 778.638 2.81083 -3.36954 0
M  V30 8297 H 775.456 0.365698 -0.609743 0
M  V30 8298 H 778.058 0.360079 -1.92155 0
M  V30 8299 H 776.762 1.41204 -3.85344 0
M  V30 8300 H 776.293 2.75898 -2.80436 0
M  V30 8301 H 778.308 4.01657 -2.91352 0
M  V30 8302 N 777.481 1.45874 0.596531 0
M  V30 8303 C 778.73 1.49737 1.35135 0
M  V30 8304 C 779.043 0.147755 1.95041 0
M  V30 8305 O 780.249 0.0640984 2.71424 0
M  V30 8306 C 778.705 2.6378 2.44843 0
M  V30 8307 C 778.313 4.05102 1.91301 0
M  V30 8308 C 780.057 2.769 3.21755 0
M  V30 8309 C 777.964 5.10508 2.98557 0
M  V30 8310 H 776.894 0.557219 0.507959 0
M  V30 8311 H 779.545 1.72046 0.638147 0
M  V30 8312 H 777.927 2.34774 3.189 0
M  V30 8313 H 779.101 4.43836 1.2388 0
M  V30 8314 H 777.416 3.96528 1.271 0
M  V30 8315 H 780.013 3.52819 4.01775 0
M  V30 8316 H 780.356 1.83924 3.73467 0
M  V30 8317 H 780.889 3.05485 2.54802 0
M  V30 8318 H 777.628 6.0523 2.51749 0
M  V30 8319 H 777.148 4.76332 3.6451 0
M  V30 8320 H 778.827 5.35745 3.62748 0
M  V30 8321 N 778.959 -0.83999 1.33349 0
M  V30 8322 C 780.375 -1.13049 1.12659 0
M  V30 8323 C 780.575 -2.01328 -0.0832613 0
M  V30 8324 O 779.631 -2.40669 -0.763856 0
M  V30 8325 C 780.944 -1.79366 2.41347 0
M  V30 8326 C 782.492 -1.91937 2.47243 0
M  V30 8327 C 782.967 -2.6167 3.75889 0
M  V30 8328 N 784.458 -2.69184 3.76954 0
M  V30 8329 C 785.193 -3.23827 4.73206 0
M  V30 8330 N 784.689 -3.79166 5.79832 0
M  V30 8331 N 786.482 -3.22068 4.60683 0
M  V30 8332 H 778.633 -0.252432 2.10895 0
M  V30 8333 H 780.896 -0.174501 0.931801 0
M  V30 8334 H 780.602 -1.2196 3.29877 0
M  V30 8335 H 780.476 -2.79396 2.53412 0
M  V30 8336 H 782.863 -2.48498 1.59163 0
M  V30 8337 H 782.944 -0.908604 2.39119 0
M  V30 8338 H 782.588 -2.05769 4.64351 0
M  V30 8339 H 782.518 -3.63217 3.81289 0
M  V30 8340 H 785.009 -2.2994 2.99893 0
M  V30 8341 H 785.322 -4.19061 6.49313 0
M  V30 8342 H 783.667 -3.77457 5.83568 0
M  V30 8343 H 786.858 -2.78092 3.7654 0
M  V30 8344 H 787.031 -3.64351 5.35866 0
M  V30 8345 N 780.437 -1.16799 -1.0581 0
M  V30 8346 C 781.4 -0.881396 -2.11575 0
M  V30 8347 C 782.4 0.12574 -1.60308 0
M  V30 8348 O 783.59 -0.105716 -1.73879 0
M  V30 8349 C 780.722 -0.319037 -3.39404 0
M  V30 8350 H 781.915 -1.81907 -2.38432 0
M  V30 8351 H 779.468 -0.977597 -1.21954 0
M  V30 8352 H 780.203 0.626082 -3.18199 0
M  V30 8353 H 779.988 -1.04481 -3.77923 0
M  V30 8354 H 781.478 -0.13663 -4.17376 0
M  V30 8355 N 781.915 1.24427 -0.967243 0
M  V30 8356 C 782.845 2.2773 -0.515899 0
M  V30 8357 C 783.826 1.64197 0.444227 0
M  V30 8358 O 785.011 1.91193 0.340451 0
M  V30 8359 C 782.141 3.46751 0.195149 0
M  V30 8360 C 781.095 4.22548 -0.680953 0
M  V30 8361 C 780.421 5.34456 0.161561 0
M  V30 8362 C 781.721 4.83914 -1.96532 0
M  V30 8363 H 783.415 2.65735 -1.37933 0
M  V30 8364 H 780.961 1.27742 -0.664681 0
M  V30 8365 H 782.914 4.18153 0.522117 0
M  V30 8366 H 781.638 3.07771 1.09292 0
M  V30 8367 H 780.297 3.52946 -0.991186 0
M  V30 8368 H 779.945 4.91716 1.05947 0
M  V30 8369 H 779.645 5.86087 -0.421418 0
M  V30 8370 H 781.169 6.08685 0.483211 0
M  V30 8371 H 782.583 5.47392 -1.70396 0
M  V30 8372 H 780.98 5.45775 -2.49499 0
M  V30 8373 H 782.05 4.05393 -2.66053 0
M  V30 8374 N 783.393 0.737304 1.3929 0
M  V30 8375 C 784.641 0.285691 2.00071 0
M  V30 8376 C 784.962 -1.13169 1.58801 0
M  V30 8377 O 784.232 -1.77104 0.837308 0
M  V30 8378 H 782.812 0.102638 0.739915 0
M  V30 8379 H 785.474 0.947775 1.70303 0
M  V30 8380 H 784.57 0.335906 3.10287 0
M  V30 8381 N 784.871 -1.49948 0.485112 0
M  V30 8382 C 785.803 -2.26691 -0.338222 0
M  V30 8383 C 786.816 -1.32584 -0.944742 0
M  V30 8384 O 788.005 -1.57989 -0.830772 0
M  V30 8385 C 785.105 -3.04405 -1.48966 0
M  V30 8386 C 784.278 -4.25971 -0.993371 0
M  V30 8387 C 783.337 -4.85861 -2.02052 0
M  V30 8388 O 782.363 -5.46382 -1.59547 0
M  V30 8389 N 783.565 -4.74101 -3.34975 0
M  V30 8390 H 786.33 -2.97989 0.319748 0
M  V30 8391 H 783.891 -1.58772 0.316714 0
M  V30 8392 H 785.883 -3.41348 -2.17403 0
M  V30 8393 H 784.453 -2.35815 -2.05207 0
M  V30 8394 H 783.673 -3.93971 -0.134424 0
M  V30 8395 H 784.961 -5.0476 -0.639934 0
M  V30 8396 H 784.359 -4.26002 -3.72208 0
M  V30 8397 H 782.916 -5.15274 -3.9917 0
M  V30 8398 N 786.349 -0.21828 -1.56081 0
M  V30 8399 C 787.297 0.709679 -2.21509 0
M  V30 8400 C 788.291 1.20221 -1.19346 0
M  V30 8401 O 789.497 1.16241 -1.37433 0
M  V30 8402 H 785.872 0.247271 -0.710184 0
M  V30 8403 H 787.843 0.134386 -2.98097 0
M  V30 8404 C 786.592 1.90853 -2.90638 0
M  V30 8405 H 785.915 1.53865 -3.69006 0
M  V30 8406 H 787.355 2.53568 -3.39822 0
M  V30 8407 C 785.814 2.76189 -1.92929 0
M  V30 8408 O 786.344 3.74842 -1.44416 0
M  V30 8409 N 784.55 2.42157 -1.6065 0
M  V30 8410 H 784.097 1.61987 -2.00294 0
M  V30 8411 H 784.055 2.99534 -0.955347 0
M  V30 8412 N 787.827 1.57504 0.0551401 0
M  V30 8413 C 788.774 2.04825 1.06373 0
M  V30 8414 C 789.744 0.932108 1.37481 0
M  V30 8415 O 790.929 1.20093 1.48265 0
M  V30 8416 C 788.069 2.51091 2.36743 0
M  V30 8417 C 787.182 3.76392 2.12021 0
M  V30 8418 C 786.317 4.11373 3.36074 0
M  V30 8419 C 785.356 5.29666 3.0679 0
M  V30 8420 N 784.493 5.60205 4.2322 0
M  V30 8421 H 789.333 2.90753 0.653216 0
M  V30 8422 H 786.87 1.43776 0.310951 0
M  V30 8423 H 788.828 2.75973 3.12881 0
M  V30 8424 H 787.458 1.68118 2.75565 0
M  V30 8425 H 786.51 3.58751 1.26498 0
M  V30 8426 H 787.822 4.62662 1.86401 0
M  V30 8427 H 786.976 4.37245 4.20597 0
M  V30 8428 H 785.715 3.23704 3.64784 0
M  V30 8429 H 784.72 5.03574 2.20664 0
M  V30 8430 H 785.945 6.18968 2.79385 0
M  V30 8431 H 783.891 4.75495 4.5193 0
M  V30 8432 H 783.808 6.40928 4.00933 0
M  V30 8433 H 785.076 5.90637 5.08692 0
M  V30 8434 N 789.305 -0.326896 1.54172 0
M  V30 8435 C 790.268 -1.38515 1.8261 0
M  V30 8436 C 791.268 -1.44872 0.697771 0
M  V30 8437 O 792.458 -1.44957 0.966078 0
M  V30 8438 C 789.59 -2.77281 1.98313 0
M  V30 8439 H 790.783 -1.14556 2.77159 0
M  V30 8440 H 788.336 -0.562199 1.45839 0
M  V30 8441 H 789.071 -3.065 1.05964 0
M  V30 8442 H 788.856 -2.74061 2.80416 0
M  V30 8443 H 790.346 -3.53845 2.21773 0
M  V30 8444 N 790.784 -1.46188 -0.588786 0
M  V30 8445 C 791.734 -1.5271 -1.69303 0
M  V30 8446 C 792.718 -0.388578 -1.56137 0
M  V30 8447 O 793.91 -0.636616 -1.65155 0
M  V30 8448 C 791.039 -1.51457 -3.08084 0
M  V30 8449 C 790.125 -2.70581 -3.26568 0
M  V30 8450 N 790.516 -3.9555 -3.15236 0
M  V30 8451 C 788.814 -2.66676 -3.57491 0
M  V30 8452 C 789.515 -4.75157 -3.35561 0
M  V30 8453 N 788.491 -4.06927 -3.60432 0
M  V30 8454 H 792.293 -2.47136 -1.59063 0
M  V30 8455 H 789.807 -1.41743 -0.792632 0
M  V30 8456 H 791.804 -1.54216 -3.87328 0
M  V30 8457 H 790.464 -0.581036 -3.19459 0
M  V30 8458 H 791.475 -4.2689 -2.93232 0
M  V30 8459 H 788.152 -1.82317 -3.75588 0
M  V30 8460 H 789.542 -5.84126 -3.32034 0
M  V30 8461 N 792.262 0.832906 -1.33792 0
M  V30 8462 C 793.49 1.62048 -1.28639 0
M  V30 8463 C 793.905 1.88269 0.141522 0
M  V30 8464 O 793.262 1.46706 1.08553 0
M  V30 8465 C 793.313 2.96722 -2.0649 0
M  V30 8466 O 793.034 2.7165 -3.43712 0
M  V30 8467 C 794.535 3.91144 -2.08617 0
M  V30 8468 H 791.755 0.504032 -0.442937 0
M  V30 8469 H 794.299 1.03704 -1.76255 0
M  V30 8470 H 792.454 3.51652 -1.62541 0
M  V30 8471 H 792.868 3.57453 -3.83833 0
M  V30 8472 H 794.342 4.82837 -2.67531 0
M  V30 8473 H 794.819 4.25766 -1.07796 0
M  V30 8474 H 795.425 3.42152 -2.52611 0
M  V30 8475 N 793.74 1.17359 1.05189 0
M  V30 8476 C 795.151 0.96793 1.5965 0
M  V30 8477 C 795.502 -0.485355 1.90102 0
M  V30 8478 O 794.627 -1.36066 1.6827 0
M  V30 8479 C 795.222 1.75068 2.90063 0
M  V30 8480 C 793.781 1.58969 3.41183 0
M  V30 8481 C 792.928 1.75231 2.14917 0
M  V30 8482 H 795.879 1.32067 0.880001 0
M  V30 8483 H 795.9 1.23308 3.59966 0
M  V30 8484 H 795.412 2.80835 2.67868 0
M  V30 8485 H 793.513 0.556906 3.68415 0
M  V30 8486 H 793.626 2.38067 4.15766 0
M  V30 8487 H 791.99 1.18073 2.25679 0
M  V30 8488 H 792.773 2.8241 1.95191 0
M  V30 8489 N 795.218 -1.23913 0.973828 0
M  V30 8490 C 796.465 -1.92151 0.639079 0
M  V30 8491 C 796.793 -1.76064 -0.826545 0
M  V30 8492 O 796.048 -1.11126 -1.61088 0
M  V30 8493 C 796.347 -3.4406 0.967356 0
M  V30 8494 C 796.013 -3.80321 2.42212 0
M  V30 8495 C 794.675 -3.8993 2.81971 0
M  V30 8496 C 797.027 -3.97935 3.36596 0
M  V30 8497 C 794.355 -4.14575 4.15144 0
M  V30 8498 C 796.707 -4.24079 4.69404 0
M  V30 8499 C 795.371 -4.31908 5.08932 0
M  V30 8500 H 794.641 -0.70313 0.233856 0
M  V30 8501 H 797.288 -1.47072 1.22646 0
M  V30 8502 H 795.593 -3.90667 0.297807 0
M  V30 8503 H 797.29 -3.95077 0.686654 0
M  V30 8504 H 793.88 -3.73411 2.10385 0
M  V30 8505 H 798.064 -3.89908 3.07059 0
M  V30 8506 H 793.32 -4.18858 4.45385 0
M  V30 8507 H 797.494 -4.36652 5.42502 0
M  V30 8508 H 795.121 -4.50758 6.12145 0
M  V30 8509 N 796.696 -0.74468 -1.38897 0
M  V30 8510 C 798.112 -0.421302 -1.53939 0
M  V30 8511 C 798.312 1.06668 -1.70951 0
M  V30 8512 O 797.368 1.85278 -1.71547 0
M  V30 8513 C 798.681 -1.21278 -2.75159 0
M  V30 8514 C 800.229 -1.20196 -2.89001 0
M  V30 8515 C 800.704 -1.97621 -4.13171 0
M  V30 8516 N 802.195 -1.94836 -4.2023 0
M  V30 8517 C 802.93 -2.51545 -5.15279 0
M  V30 8518 N 802.426 -3.1693 -6.16058 0
M  V30 8519 N 804.219 -2.41524 -5.07565 0
M  V30 8520 H 796.37 -1.70914 -1.26103 0
M  V30 8521 H 798.633 -0.724058 -0.611919 0
M  V30 8522 H 798.339 -2.26609 -2.68963 0
M  V30 8523 H 798.213 -0.823677 -3.68097 0
M  V30 8524 H 800.6 -0.156742 -2.94683 0
M  V30 8525 H 800.681 -1.63051 -1.97099 0
M  V30 8526 H 800.325 -3.02149 -4.0825 0
M  V30 8527 H 800.255 -1.52166 -5.04136 0
M  V30 8528 H 802.746 -1.4721 -3.48048 0
M  V30 8529 H 803.059 -3.57644 -6.85062 0
M  V30 8530 H 801.404 -3.21023 -6.16417 0
M  V30 8531 H 804.595 -1.90077 -4.27771 0
M  V30 8532 H 804.768 -2.86016 -5.81462 0
M  V30 8533 N 798.174 1.49689 -0.493057 0
M  V30 8534 C 799.084 2.32746 0.294358 0
M  V30 8535 C 800.1 1.44117 0.975003 0
M  V30 8536 O 801.276 1.77149 0.958138 0
M  V30 8537 C 798.341 3.19358 1.34949 0
M  V30 8538 C 797.402 4.2383 0.683122 0
M  V30 8539 C 796.635 5.06303 1.68798 0
M  V30 8540 O 796.858 4.90172 2.91698 0
M  V30 8541 O 795.792 5.88826 1.24768 0
M  V30 8542 H 799.618 3.01247 -0.385254 0
M  V30 8543 H 797.203 1.47216 -0.254519 0
M  V30 8544 H 799.085 3.73037 1.96014 0
M  V30 8545 H 797.76 2.53561 2.01217 0
M  V30 8546 H 796.667 3.74086 0.0329351 0
M  V30 8547 H 798 4.9216 0.0630192 0
M  V30 8548 N 799.652 0.226554 1.55963 0
M  V30 8549 C 800.877 -0.411527 2.03276 0
M  V30 8550 C 801.302 -1.52206 1.10521 0
M  V30 8551 O 800.66 -1.81054 0.0943217 0
M  V30 8552 C 800.708 -0.915694 3.4878 0
M  V30 8553 O 799.812 -2.02672 3.59163 0
M  V30 8554 H 799.153 -0.0924907 0.657527 0
M  V30 8555 H 801.683 0.346656 2.01642 0
M  V30 8556 H 801.693 -1.22421 3.892 0
M  V30 8557 H 800.368 -0.102915 4.15773 0
M  V30 8558 H 798.945 -1.72445 3.30632 0
M  V30 8559 N 801.13 -1.57531 -0.0467866 0
M  V30 8560 C 802.077 -2.05387 -1.05285 0
M  V30 8561 C 803.047 -0.939385 -1.36985 0
M  V30 8562 O 804.232 -1.20877 -1.47626 0
M  V30 8563 C 801.372 -2.52343 -2.35408 0
M  V30 8564 C 800.485 -3.77512 -2.10022 0
M  V30 8565 C 799.62 -4.1315 -3.33887 0
M  V30 8566 C 798.659 -5.31286 -3.03976 0
M  V30 8567 N 797.796 -5.62441 -4.20243 0
M  V30 8568 H 802.636 -2.91095 -0.637788 0
M  V30 8569 H 800.173 -1.43939 -0.303322 0
M  V30 8570 H 802.131 -2.77628 -3.11413 0
M  V30 8571 H 800.761 -1.69577 -2.7467 0
M  V30 8572 H 799.813 -3.59417 -1.24594 0
M  V30 8573 H 801.125 -4.63644 -1.83945 0
M  V30 8574 H 800.279 -4.39469 -4.18273 0
M  V30 8575 H 799.018 -3.25634 -3.63062 0
M  V30 8576 H 798.023 -5.04738 -2.17991 0
M  V30 8577 H 799.248 -6.20441 -2.76098 0
M  V30 8578 H 797.194 -4.77885 -4.49402 0
M  V30 8579 H 797.111 -6.43046 -3.97528 0
M  V30 8580 H 798.379 -5.93327 -5.05553 0
M  V30 8581 N 802.608 0.318715 -1.54344 0
M  V30 8582 C 803.538 1.39751 -1.87061 0
M  V30 8583 C 804.519 1.53741 -0.727848 0
M  V30 8584 O 805.704 1.67541 -0.982016 0
M  V30 8585 C 802.834 2.76446 -2.10226 0
M  V30 8586 C 801.788 2.77239 -3.26071 0
M  V30 8587 C 801.114 4.17056 -3.34617 0
M  V30 8588 C 802.414 2.40555 -4.63606 0
M  V30 8589 H 804.108 1.12619 -2.77412 0
M  V30 8590 H 801.654 0.540318 -1.33479 0
M  V30 8591 H 803.607 3.51985 -2.31699 0
M  V30 8592 H 802.331 3.05066 -1.16629 0
M  V30 8593 H 800.99 2.04155 -3.04493 0
M  V30 8594 H 800.638 4.42824 -2.3857 0
M  V30 8595 H 800.338 4.18492 -4.12478 0
M  V30 8596 H 801.862 4.94401 -3.5833 0
M  V30 8597 H 803.276 3.05808 -4.84927 0
M  V30 8598 H 801.673 2.53234 -5.44052 0
M  V30 8599 H 802.743 1.35698 -4.65526 0
M  V30 8600 N 804.086 1.46499 0.581025 0
M  V30 8601 C 805.314 1.5547 1.36517 0
M  V30 8602 C 805.729 0.196407 1.87776 0
M  V30 8603 O 805.086 -0.806577 1.63709 0
M  V30 8604 C 805.137 2.56084 2.55154 0
M  V30 8605 O 804.858 3.86637 2.06018 0
M  V30 8606 C 806.359 2.75011 3.47683 0
M  V30 8607 H 803.579 0.525703 0.416986 0
M  V30 8608 H 806.123 1.9192 0.706177 0
M  V30 8609 H 804.278 2.22633 3.17039 0
M  V30 8610 H 804.692 4.41413 2.83292 0
M  V30 8611 H 806.166 3.49329 4.27403 0
M  V30 8612 H 806.643 1.81978 3.99726 0
M  V30 8613 H 807.249 3.09565 2.91632 0
M  V30 8614 N 805.565 -0.825799 1.34232 0
M  V30 8615 C 806.497 -1.94401 1.21413 0
M  V30 8616 C 807.51 -1.6218 0.141902 0
M  V30 8617 O 808.699 -1.74109 0.3935 0
M  V30 8618 C 805.799 -3.28257 0.842635 0
M  V30 8619 C 804.972 -3.88521 2.00924 0
M  V30 8620 C 804.031 -5.00752 1.61661 0
M  V30 8621 O 803.057 -5.19201 2.33279 0
M  V30 8622 N 804.259 -5.78084 0.52911 0
M  V30 8623 H 807.024 -2.05931 2.17744 0
M  V30 8624 H 804.585 -1.00223 1.27149 0
M  V30 8625 H 806.577 -4.00781 0.561822 0
M  V30 8626 H 805.147 -3.12585 -0.0304029 0
M  V30 8627 H 804.367 -3.08425 2.45495 0
M  V30 8628 H 805.655 -4.25516 2.78951 0
M  V30 8629 H 805.053 -5.65661 -0.0663322 0
M  V30 8630 H 803.61 -6.51072 0.308017 0
M  V30 8631 N 807.043 -1.17915 -1.04565 0
M  V30 8632 C 808.289 -0.972863 -1.77942 0
M  V30 8633 C 808.622 0.496753 -1.87739 0
M  V30 8634 O 807.897 1.3688 -1.38181 0
M  V30 8635 C 808.18 -1.62227 -3.21488 0
M  V30 8636 C 808.033 -3.16441 -3.19664 0
M  V30 8637 C 809.352 -1.33137 -4.19479 0
M  V30 8638 H 806.471 -0.354843 -0.645953 0
M  V30 8639 H 809.113 -1.45508 -1.22178 0
M  V30 8640 H 807.263 -1.21224 -3.69103 0
M  V30 8641 H 808.935 -3.66544 -2.80077 0
M  V30 8642 H 807.178 -3.48863 -2.57832 0
M  V30 8643 H 807.849 -3.57012 -4.21006 0
M  V30 8644 H 810.325 -1.68654 -3.80388 0
M  V30 8645 H 809.201 -1.81151 -5.18146 0
M  V30 8646 H 809.462 -0.253319 -4.41374 0
M  V30 8647 N 808.521 1.23394 -0.980386 0
M  V30 8648 C 809.451 2.2717 -0.540024 0
M  V30 8649 C 810.432 1.64659 0.426787 0
M  V30 8650 O 811.617 1.91543 0.320153 0
M  V30 8651 C 808.747 3.46939 0.15836 0
M  V30 8652 C 807.701 4.21802 -0.725732 0
M  V30 8653 C 807.027 5.34597 0.104866 0
M  V30 8654 C 808.327 4.81802 -2.01654 0
M  V30 8655 H 810.021 2.64257 -1.40743 0
M  V30 8656 H 807.567 1.2703 -0.678193 0
M  V30 8657 H 809.52 4.18683 0.477737 0
M  V30 8658 H 808.244 3.08912 1.06022 0
M  V30 8659 H 806.903 3.51875 -1.02857 0
M  V30 8660 H 806.551 4.92812 1.00726 0
M  V30 8661 H 806.251 5.85607 -0.483557 0
M  V30 8662 H 807.775 6.09163 0.418624 0
M  V30 8663 H 809.189 5.45554 -1.76193 0
M  V30 8664 H 807.586 5.43098 -2.55273 0
M  V30 8665 H 808.656 4.02549 -2.70338 0
M  V30 8666 N 809.999 0.752036 1.385 0
M  V30 8667 C 811.415 0.42946 1.53713 0
M  V30 8668 C 811.615 -1.0576 1.71514 0
M  V30 8669 O 810.671 -1.84366 1.72527 0
M  V30 8670 C 811.984 1.22735 2.74511 0
M  V30 8671 C 813.532 1.21727 2.8836 0
M  V30 8672 C 814.007 1.99809 4.12117 0
M  V30 8673 N 815.498 1.97062 4.19191 0
M  V30 8674 C 816.233 2.54274 5.13938 0
M  V30 8675 N 815.729 3.20193 6.14368 0
M  V30 8676 N 817.522 2.44212 5.06277 0
M  V30 8677 H 809.673 1.71581 1.25195 0
M  V30 8678 H 811.936 0.727293 0.60807 0
M  V30 8679 H 811.642 2.28032 2.67758 0
M  V30 8680 H 811.516 0.843186 3.67655 0
M  V30 8681 H 813.903 0.172367 2.94596 0
M  V30 8682 H 813.984 1.64094 1.96232 0
M  V30 8683 H 813.628 3.0431 4.06642 0
M  V30 8684 H 813.558 1.54837 5.03322 0
M  V30 8685 H 816.049 1.49054 3.47263 0
M  V30 8686 H 816.362 3.61272 6.83156 0
M  V30 8687 H 814.707 3.24287 6.14705 0
M  V30 8688 H 817.898 1.92343 4.26757 0
M  V30 8689 H 818.071 2.89096 5.79937 0
M  V30 8690 N 811.477 -1.49425 0.500989 0
M  V30 8691 C 812.754 -1.9531 -0.106551 0
M  V30 8692 C 813.134 -1.44248 -1.54129 0
M  V30 8693 O 812.482 -0.656237 -2.18874 0
M  V30 8694 C 812.692 -3.48995 -0.0191972 0
M  V30 8695 C 814.04 -4.24161 -0.193129 0
M  V30 8696 O 815.064 -3.56075 -0.0943843 0
M  V30 8697 O 813.923 -5.45064 -0.395869 0
M  V30 8698 H 811.017 -0.82149 -0.0953068 0
M  V30 8699 H 813.563 -1.6007 0.563526 0
M  V30 8700 H 812.335 -3.78794 0.981353 0
M  V30 8701 H 811.958 -3.90852 -0.72942 0
M  V30 8702 N 812.955 -0.234822 -1.55841 0
M  V30 8703 C 814.18 0.400741 -2.03492 0
M  V30 8704 C 814.605 1.51618 -1.11327 0
M  V30 8705 O 813.963 1.81002 -0.103922 0
M  V30 8706 C 814.011 0.897184 -3.49261 0
M  V30 8707 O 813.115 2.00764 -3.60233 0
M  V30 8708 H 812.456 0.0890023 -0.658008 0
M  V30 8709 H 814.986 -0.357345 -2.01455 0
M  V30 8710 H 814.996 1.20356 -3.89844 0
M  V30 8711 H 813.671 0.0808639 -4.15821 0
M  V30 8712 H 812.248 1.70689 -3.31541 0
M  V30 8713 N 814.433 1.57553 0.0384317 0
M  V30 8714 C 815.68 1.88841 0.731116 0
M  V30 8715 C 816.008 0.83093 1.75857 0
M  V30 8716 O 815.263 -0.169248 1.94967 0
M  V30 8717 C 815.562 3.26862 1.44554 0
M  V30 8718 C 815.228 4.47472 0.554946 0
M  V30 8719 C 813.89 4.80203 0.309621 0
M  V30 8720 C 816.242 5.21165 -0.0605204 0
M  V30 8721 C 813.57 5.8402 -0.560101 0
M  V30 8722 C 815.922 6.25905 -0.91789 0
M  V30 8723 C 814.586 6.57117 -1.17277 0
M  V30 8724 H 813.856 0.691018 0.267534 0
M  V30 8725 H 816.503 1.91498 -0.00883195 0
M  V30 8726 H 814.808 3.2015 2.25856 0
M  V30 8727 H 816.505 3.48316 1.98688 0
M  V30 8728 H 813.095 4.21874 0.756304 0
M  V30 8729 H 817.279 4.96164 0.116064 0
M  V30 8730 H 812.535 6.06583 -0.765974 0
M  V30 8731 H 816.709 6.82155 -1.40136 0
M  V30 8732 H 814.336 7.37385 -1.84843 0
M  V30 8733 N 815.911 -0.310526 1.54511 0
M  V30 8734 C 817.16 -1.0445 1.72549 0
M  V30 8735 C 817.473 -1.88748 0.513172 0
M  V30 8736 O 818.679 -2.65338 0.575165 0
M  V30 8737 C 817.135 -1.90665 3.05246 0
M  V30 8738 C 816.743 -1.11415 4.33925 0
M  V30 8739 C 818.487 -2.63719 3.32645 0
M  V30 8740 C 816.394 -1.96852 5.57677 0
M  V30 8741 H 815.324 -0.393676 0.643067 0
M  V30 8742 H 817.975 -0.302003 1.80998 0
M  V30 8743 H 816.357 -2.68864 2.90737 0
M  V30 8744 H 817.531 -0.378956 4.59239 0
M  V30 8745 H 815.846 -0.499853 4.13389 0
M  V30 8746 H 818.443 -3.27974 4.223 0
M  V30 8747 H 818.786 -3.32047 2.51098 0
M  V30 8748 H 819.319 -1.92574 3.48081 0
M  V30 8749 H 816.058 -1.33009 6.41864 0
M  V30 8750 H 815.578 -2.68069 5.36562 0
M  V30 8751 H 817.257 -2.55127 5.94575 0
M  V30 8752 N 817.389 -1.46805 -0.573248 0
M  V30 8753 C 818.637 -1.52302 -1.32847 0
M  V30 8754 C 818.958 -0.180159 -1.94166 0
M  V30 8755 O 818.228 0.794291 -1.79075 0
M  V30 8756 H 816.808 -0.56097 -0.493276 0
M  V30 8757 H 819.47 -1.82998 -0.670642 0
M  V30 8758 H 818.566 -2.28089 -2.13031 0
M  V30 8759 N 818.867 0.818669 -1.34668 0
M  V30 8760 C 819.777 1.9616 -1.2868 0
M  V30 8761 C 820.793 1.72918 -0.193742 0
M  V30 8762 O 821.969 1.96951 -0.420975 0
M  V30 8763 C 819.034 3.30534 -1.04633 0
M  V30 8764 C 818.095 3.66755 -2.23136 0
M  V30 8765 C 817.328 4.94717 -2.00227 0
M  V30 8766 O 817.551 5.62218 -0.96264 0
M  V30 8767 O 816.485 5.28915 -2.87286 0
M  V30 8768 H 820.311 2.04157 -2.24842 0
M  V30 8769 H 817.896 0.954691 -1.14917 0
M  V30 8770 H 819.778 4.11005 -0.930216 0
M  V30 8771 H 818.453 3.23495 -0.115139 0
M  V30 8772 H 817.36 2.8671 -2.40308 0
M  V30 8773 H 818.693 3.78484 -3.1466 0
M  V30 8774 N 820.346 1.18468 1.03938 0
M  V30 8775 C 821.294 0.909286 2.14091 0
M  V30 8776 C 822.288 -0.130928 1.68893 0
M  V30 8777 O 823.494 0.0173403 1.79992 0
M  V30 8778 H 819.869 0.27658 0.699291 0
M  V30 8779 H 821.84 1.84514 2.34515 0
M  V30 8780 C 820.589 0.452922 3.44737 0
M  V30 8781 H 819.912 1.24485 3.79926 0
M  V30 8782 H 821.352 0.299238 4.22943 0
M  V30 8783 C 819.811 -0.831435 3.26479 0
M  V30 8784 O 820.341 -1.89535 3.54174 0
M  V30 8785 N 818.547 -0.784545 2.79809 0
M  V30 8786 H 818.094 0.0814746 2.57471 0
M  V30 8787 H 818.052 -1.64431 2.67973 0
M  V30 8788 N 821.824 -1.22873 0.986916 0
M  V30 8789 C 823.049 -1.96028 0.677341 0
M  V30 8790 C 823.474 -1.72487 -0.750319 0
M  V30 8791 O 822.832 -1.00036 -1.51203 0
M  V30 8792 C 822.88 -3.46983 0.981593 0
M  V30 8793 O 821.984 -4.12328 0.0770729 0
M  V30 8794 H 821.325 -0.613458 0.254096 0
M  V30 8795 H 823.855 -1.56132 1.32227 0
M  V30 8796 H 823.865 -3.9747 0.920969 0
M  V30 8797 H 822.54 -3.63442 2.02194 0
M  V30 8798 H 821.117 -3.72402 0.192666 0
M  V30 8799 N 823.302 -0.75937 -1.38099 0
M  V30 8800 C 824.718 -0.437606 -1.53483 0
M  V30 8801 C 824.918 1.04849 -1.72072 0
M  V30 8802 O 823.974 1.83448 -1.73502 0
M  V30 8803 C 825.287 -1.24189 -2.73857 0
M  V30 8804 C 826.835 -1.23255 -2.8771 0
M  V30 8805 C 827.31 -2.01992 -4.11051 0
M  V30 8806 N 828.801 -1.99282 -4.1814 0
M  V30 8807 C 829.536 -2.56996 -5.12583 0
M  V30 8808 N 829.032 -3.23446 -6.12662 0
M  V30 8809 N 830.825 -2.46894 -5.04975 0
M  V30 8810 H 822.976 -1.72242 -1.24283 0
M  V30 8811 H 825.239 -0.730507 -0.604205 0
M  V30 8812 H 824.945 -2.29449 -2.66545 0
M  V30 8813 H 824.819 -0.862672 -3.67203 0
M  V30 8814 H 827.206 -0.187988 -2.94501 0
M  V30 8815 H 827.287 -1.65132 -1.95359 0
M  V30 8816 H 826.931 -3.06462 -4.05023 0
M  V30 8817 H 826.861 -1.57505 -5.02494 0
M  V30 8818 H 829.352 -1.50893 -3.46467 0
M  V30 8819 H 829.665 -3.6489 -6.81231 0
M  V30 8820 H 828.01 -3.27543 -6.12977 0
M  V30 8821 H 831.201 -1.94604 -4.25731 0
M  V30 8822 H 831.374 -2.92168 -5.78396 0
M  V30 8823 N 824.78 1.49157 -0.508906 0
M  V30 8824 C 826.008 2.06879 0.0293734 0
M  V30 8825 C 826.423 1.36823 1.30095 0
M  V30 8826 O 825.78 0.449034 1.7689 0
M  V30 8827 C 825.831 3.60423 0.278791 0
M  V30 8828 O 825.552 4.27844 -0.942389 0
M  V30 8829 C 827.053 4.34881 0.859825 0
M  V30 8830 H 824.273 0.67057 -0.0240184 0
M  V30 8831 H 826.817 1.91834 -0.708526 0
M  V30 8832 H 824.972 3.75145 0.966689 0
M  V30 8833 H 825.386 5.19671 -0.710097 0
M  V30 8834 H 826.86 5.43161 0.983884 0
M  V30 8835 H 827.337 3.9789 1.85958 0
M  V30 8836 H 827.943 4.24785 0.209152 0
M  V30 8837 N 826.258 0.243083 1.55714 0
M  V30 8838 C 827.498 -0.384303 2.00755 0
M  V30 8839 C 827.862 -1.55406 1.12752 0
M  V30 8840 O 829.063 -2.24892 1.47231 0
M  V30 8841 C 827.334 -0.787419 3.48618 0
M  V30 8842 S 828.893 -1.40587 4.15669 0
M  V30 8843 H 825.711 -0.121088 0.700613 0
M  V30 8844 H 828.313 0.357423 1.92205 0
M  V30 8845 H 827.017 0.0732892 4.10335 0
M  V30 8846 H 826.548 -1.56142 3.61086 0
M  V30 8847 H 828.563 -2.69493 4.16639 0
M  V30 8848 N 827.736 -1.57571 -0.0300757 0
M  V30 8849 C 828.669 -2.01874 -1.06406 0
M  V30 8850 C 829.647 -0.902901 -1.35227 0
M  V30 8851 O 830.831 -1.16865 -1.47901 0
M  V30 8852 C 827.958 -2.39093 -2.39901 0
M  V30 8853 C 827.004 -3.61108 -2.26943 0
M  V30 8854 S 827.837 -5.10287 -1.62382 0
M  V30 8855 C 828.993 -5.50747 -2.97369 0
M  V30 8856 H 829.226 -2.89261 -0.686703 0
M  V30 8857 H 826.759 -1.52523 -0.240017 0
M  V30 8858 H 828.717 -2.61207 -3.16672 0
M  V30 8859 H 827.378 -1.52159 -2.74784 0
M  V30 8860 H 826.571 -3.84803 -3.25489 0
M  V30 8861 H 826.173 -3.3884 -1.58314 0
M  V30 8862 H 828.465 -5.51369 -3.93698 0
M  V30 8863 H 829.408 -6.51071 -2.78409 0
M  V30 8864 H 829.816 -4.7825 -2.99895 0
M  V30 8865 N 829.214 0.302327 -1.54673 0
M  V30 8866 C 830.463 1.03533 -1.73101 0
M  V30 8867 C 830.776 1.88473 -0.523174 0
M  V30 8868 O 831.982 2.65029 -0.589229 0
M  V30 8869 C 830.438 1.89043 -3.06252 0
M  V30 8870 C 830.046 1.09112 -4.3451 0
M  V30 8871 C 831.79 2.61951 -3.34039 0
M  V30 8872 C 829.697 1.93891 -5.58713 0
M  V30 8873 H 828.627 0.390261 -0.645145 0
M  V30 8874 H 831.278 0.2924 -1.81155 0
M  V30 8875 H 829.66 2.67319 -2.92159 0
M  V30 8876 H 830.834 0.354596 -4.59434 0
M  V30 8877 H 829.149 0.477923 -4.13648 0
M  V30 8878 H 831.746 3.25729 -4.24033 0
M  V30 8879 H 832.089 3.30711 -2.52855 0
M  V30 8880 H 832.622 1.90725 -3.49097 0
M  V30 8881 H 829.361 1.29604 -6.4256 0
M  V30 8882 H 828.881 2.6522 -5.37976 0
M  V30 8883 H 830.56 2.51971 -5.95919 0
M  V30 8884 N 830.692 1.47107 0.565454 0
M  V30 8885 C 831.655 1.58535 1.65527 0
M  V30 8886 C 832.655 0.461081 1.54048 0
M  V30 8887 O 833.845 0.725911 1.58355 0
M  V30 8888 C 830.977 1.52204 3.05036 0
M  V30 8889 H 832.17 2.55676 1.56747 0
M  V30 8890 H 829.723 1.35174 0.78471 0
M  V30 8891 H 830.458 0.564071 3.19357 0
M  V30 8892 H 830.243 2.3379 3.14777 0
M  V30 8893 H 831.733 1.63322 3.84338 0
M  V30 8894 N 832.17 -0.811516 1.35101 0
M  V30 8895 C 833.398 -1.59981 1.31201 0
M  V30 8896 C 833.813 -1.8847 -0.111552 0
M  V30 8897 O 833.17 -1.48414 -1.06205 0
M  V30 8898 C 833.221 -2.934 2.11184 0
M  V30 8899 O 832.942 -2.66148 3.4799 0
M  V30 8900 C 834.443 -3.87776 2.14813 0
M  V30 8901 H 831.663 -0.496921 0.450899 0
M  V30 8902 H 834.207 -1.00886 1.77883 0
M  V30 8903 H 832.362 -3.49022 1.68115 0
M  V30 8904 H 832.776 -3.51301 3.89471 0
M  V30 8905 H 834.25 -4.7852 2.75178 0
M  V30 8906 H 834.727 -4.23997 1.14556 0
M  V30 8907 H 835.333 -3.3809 2.58022 0
M  V30 8908 N 833.648 -1.19017 -1.03309 0
M  V30 8909 C 834.897 -0.984542 -1.76039 0
M  V30 8910 C 835.21 0.485937 -1.89468 0
M  V30 8911 O 836.416 0.810278 -2.59127 0
M  V30 8912 C 834.872 -1.71261 -3.1654 0
M  V30 8913 C 834.48 -3.22291 -3.11179 0
M  V30 8914 C 836.224 -1.59007 -3.93595 0
M  V30 8915 C 834.131 -3.87704 -4.46587 0
M  V30 8916 H 833.061 -0.364749 -0.659905 0
M  V30 8917 H 835.712 -1.4247 -1.15649 0
M  V30 8918 H 834.094 -1.20025 -3.77373 0
M  V30 8919 H 835.268 -3.80611 -2.59753 0
M  V30 8920 H 833.583 -3.34772 -2.47622 0
M  V30 8921 H 836.18 -2.05232 -4.93745 0
M  V30 8922 H 836.523 -0.543534 -4.12736 0
M  V30 8923 H 837.056 -2.07564 -3.39355 0
M  V30 8924 H 833.795 -4.92437 -4.3265 0
M  V30 8925 H 833.315 -3.34172 -4.98085 0
M  V30 8926 H 834.994 -3.91008 -5.15482 0
M  V30 8927 N 835.127 1.22348 -0.993418 0
M  V30 8928 C 836.352 1.95666 -0.687727 0
M  V30 8929 C 836.777 1.72883 0.741161 0
M  V30 8930 O 836.135 1.00837 1.50671 0
M  V30 8931 C 836.183 3.46457 -0.99998 0
M  V30 8932 O 835.287 4.12281 -0.0989386 0
M  V30 8933 H 834.628 0.612102 -0.257346 0
M  V30 8934 H 837.158 1.55428 -1.33054 0
M  V30 8935 H 837.168 3.96976 -0.942035 0
M  V30 8936 H 835.843 3.62365 -2.04118 0
M  V30 8937 H 834.42 3.72295 -0.212413 0
M  V30 8938 N 836.605 0.766683 1.37694 0
M  V30 8939 C 838.016 0.394761 1.82479 0
M  V30 8940 C 838.367 -1.07842 1.63904 0
M  V30 8941 O 837.492 -1.83479 1.14737 0
M  V30 8942 C 838.087 0.70974 3.31283 0
M  V30 8943 C 836.646 0.390936 3.74364 0
M  V30 8944 C 835.793 0.956192 2.60293 0
M  V30 8945 H 838.744 0.961756 1.26238 0
M  V30 8946 H 838.765 -0.00742144 3.80499 0
M  V30 8947 H 838.277 1.782 3.4477 0
M  V30 8948 H 836.378 -0.674213 3.66449 0
M  V30 8949 H 836.491 0.895645 4.70654 0
M  V30 8950 H 834.855 0.380744 2.51838 0
M  V30 8951 H 835.638 2.03375 2.76575 0
M  V30 8952 N 838.083 -1.48885 0.516809 0
M  V30 8953 C 839.331 -2.02088 -0.0220166 0
M  V30 8954 C 839.652 -1.39735 -1.36011 0
M  V30 8955 O 838.922 -0.558119 -1.87781 0
M  V30 8956 H 837.502 -0.746917 -0.0111255 0
M  V30 8957 H 840.164 -1.8274 0.677647 0
M  V30 8958 H 839.26 -3.11786 -0.140067 0
M  V30 8959 N 839.561 -0.251338 -1.55583 0
M  V30 8960 C 840.81 0.372681 -1.98227 0
M  V30 8961 C 841.123 1.58743 -1.1428 0
M  V30 8962 O 842.329 2.28289 -1.46957 0
M  V30 8963 C 840.785 0.714439 -3.52738 0
M  V30 8964 C 840.393 -0.479168 -4.4543 0
M  V30 8965 C 842.137 1.3024 -4.04027 0
M  V30 8966 C 840.044 -0.113318 -5.91291 0
M  V30 8967 H 838.974 0.14302 -0.740312 0
M  V30 8968 H 841.625 -0.352253 -1.80087 0
M  V30 8969 H 840.007 1.49762 -3.66589 0
M  V30 8970 H 841.181 -1.25644 -4.4334 0
M  V30 8971 H 839.496 -0.982359 -4.04646 0
M  V30 8972 H 842.093 1.58953 -5.10527 0
M  V30 8973 H 842.436 2.22837 -3.51638 0
M  V30 8974 H 842.969 0.582024 -3.93519 0
M  V30 8975 H 839.708 -1.00654 -6.47726 0
M  V30 8976 H 839.228 0.627666 -5.96507 0
M  V30 8977 H 840.907 0.30293 -6.4629 0
M  V30 8978 N 841.039 1.57585 0.0217189 0
M  V30 8979 C 842.264 1.94267 0.726309 0
M  V30 8980 C 842.689 0.851904 1.67703 0
M  V30 8981 O 842.047 -0.191792 1.80283 0
M  V30 8982 C 842.095 3.30023 1.45318 0
M  V30 8983 O 841.199 3.22791 2.5667 0
M  V30 8984 H 840.54 0.634777 0.194818 0
M  V30 8985 H 843.07 2.04585 -0.0249985 0
M  V30 8986 H 843.08 3.65084 1.82147 0
M  V30 8987 H 841.755 4.08972 0.755962 0
M  V30 8988 H 840.332 2.99373 2.2233 0
M  V30 8989 N 842.517 -0.29412 1.54831 0
M  V30 8990 C 843.742 -1.05156 1.78765 0
M  V30 8991 C 844.167 -1.79916 0.548809 0
M  V30 8992 O 843.525 -1.74243 -0.500909 0
M  V30 8993 C 843.573 -2.00242 2.99893 0
M  V30 8994 O 842.677 -3.08662 2.73499 0
M  V30 8995 H 842.018 -0.301737 0.591482 0
M  V30 8996 H 844.548 -0.329449 2.0193 0
M  V30 8997 H 844.558 -2.42583 3.28051 0
M  V30 8998 H 843.233 -1.45235 3.89717 0
M  V30 8999 H 841.81 -2.70786 2.56377 0
M  V30 9000 N 843.995 -1.47404 -0.557645 0
M  V30 9001 C 845.235 -1.55585 -1.32562 0
M  V30 9002 C 845.599 -0.212926 -1.90816 0
M  V30 9003 O 846.8 -0.169574 -2.68265 0
M  V30 9004 C 845.071 -2.64249 -2.40639 0
M  V30 9005 S 846.63 -2.9201 -3.2753 0
M  V30 9006 H 843.448 -0.549409 -0.451298 0
M  V30 9007 H 846.05 -1.84782 -0.638438 0
M  V30 9008 H 844.754 -3.60421 -1.96277 0
M  V30 9009 H 844.285 -2.36866 -3.14099 0
M  V30 9010 H 846.3 -2.29191 -4.40098 0
M  V30 9011 N 845.473 0.80434 -1.35529 0
M  V30 9012 C 846.383 1.94784 -1.30753 0
M  V30 9013 C 847.399 1.72703 -0.212071 0
M  V30 9014 O 848.575 1.96494 -0.441841 0
M  V30 9015 C 845.64 3.29406 -1.08133 0
M  V30 9016 C 844.701 3.64367 -2.27013 0
M  V30 9017 C 843.934 4.92566 -2.05463 0
M  V30 9018 O 844.157 5.61166 -1.02222 0
M  V30 9019 O 843.091 5.25838 -2.92879 0
M  V30 9020 H 846.917 2.01761 -2.26994 0
M  V30 9021 H 844.502 0.942448 -1.15924 0
M  V30 9022 H 846.384 4.09995 -0.973756 0
M  V30 9023 H 845.059 3.23355 -0.149444 0
M  V30 9024 H 843.966 2.84146 -2.43335 0
M  V30 9025 H 845.299 3.75125 -3.18656 0
M  V30 9026 N 846.951 1.19563 1.02676 0
M  V30 9027 C 848.181 1.0234 1.79472 0
M  V30 9028 C 848.589 -0.430891 1.84228 0
M  V30 9029 O 847.932 -1.31106 1.28674 0
M  V30 9030 C 847.994 1.51901 3.25832 0
M  V30 9031 C 847.658 3.00045 3.44706 0
M  V30 9032 C 848.655 3.9779 3.34752 0
M  V30 9033 C 846.34 3.38784 3.70851 0
M  V30 9034 C 848.334 5.32267 3.50672 0
M  V30 9035 C 846.021 4.73419 3.86416 0
M  V30 9036 C 847.019 5.69969 3.7633 0
M  V30 9037 O 846.707 7.02165 3.91432 0
M  V30 9038 H 846.439 0.360936 0.571578 0
M  V30 9039 H 848.993 1.58863 1.30198 0
M  V30 9040 H 847.223 0.897546 3.7614 0
M  V30 9041 H 848.912 1.30853 3.84229 0
M  V30 9042 H 849.678 3.69207 3.14502 0
M  V30 9043 H 845.557 2.64183 3.77794 0
M  V30 9044 H 849.101 6.07612 3.42715 0
M  V30 9045 H 844.998 5.01697 4.06165 0
M  V30 9046 H 845.766 7.09268 4.08511 0
M  V30 9047 N 848.429 -1.21819 0.999893 0
M  V30 9048 C 849.657 -1.94758 0.698359 0
M  V30 9049 C 850.072 -1.73771 -0.738183 0
M  V30 9050 O 849.429 -1.04113 -1.49889 0
M  V30 9051 C 849.48 -3.47292 1.00353 0
M  V30 9052 O 849.201 -3.67579 2.38363 0
M  V30 9053 C 850.702 -4.37403 0.72068 0
M  V30 9054 H 847.922 -0.619512 0.257771 0
M  V30 9055 H 850.466 -1.54778 1.33656 0
M  V30 9056 H 848.621 -3.85213 0.411018 0
M  V30 9057 H 849.035 -4.61719 2.48829 0
M  V30 9058 H 850.509 -5.43151 0.984422 0
M  V30 9059 H 850.986 -4.3784 -0.345309 0
M  V30 9060 H 851.592 -4.05119 1.29456 0
M  V30 9061 N 849.908 -0.773975 -1.37286 0
M  V30 9062 C 850.838 -0.175782 -2.32837 0
M  V30 9063 C 851.819 0.680603 -1.5589 0
M  V30 9064 O 853.004 0.617607 -1.84117 0
M  V30 9065 C 850.134 0.702388 -3.40123 0
M  V30 9066 C 849.088 -0.0528687 -4.27967 0
M  V30 9067 C 848.414 0.944891 -5.26285 0
M  V30 9068 C 849.714 -1.23316 -5.07534 0
M  V30 9069 H 851.408 -0.974016 -2.83114 0
M  V30 9070 H 848.954 -0.469826 -1.3612 0
M  V30 9071 H 850.907 1.13069 -4.05947 0
M  V30 9072 H 849.631 1.53316 -2.88378 0
M  V30 9073 H 848.29 -0.461978 -3.63678 0
M  V30 9074 H 847.938 1.77028 -4.70819 0
M  V30 9075 H 847.638 0.444079 -5.8592 0
M  V30 9076 H 849.162 1.37209 -5.94984 0
M  V30 9077 H 850.576 -0.881395 -5.66484 0
M  V30 9078 H 848.973 -1.66621 -5.76504 0
M  V30 9079 H 850.043 -2.03617 -4.40077 0
M  V30 9080 N 851.386 1.48609 -0.524698 0
M  V30 9081 C 852.334 2.31205 0.254398 0
M  V30 9082 C 853.328 1.40894 0.940491 0
M  V30 9083 O 854.534 1.57827 0.865478 0
M  V30 9084 H 850.909 0.745199 0.100907 0
M  V30 9085 H 852.88 2.94804 -0.461876 0
M  V30 9086 C 851.629 3.2282 1.2916 0
M  V30 9087 H 850.952 3.92255 0.773074 0
M  V30 9088 H 852.392 3.83508 1.80825 0
M  V30 9089 C 850.851 2.4406 2.32242 0
M  V30 9090 O 851.381 2.16163 3.3858 0
M  V30 9091 N 849.587 2.05651 2.05319 0
M  V30 9092 H 849.134 2.28539 1.18861 0
M  V30 9093 H 849.092 1.53265 2.74513 0
M  V30 9094 N 852.864 0.259585 1.55447 0
M  V30 9095 C 854.092 -0.365392 2.03648 0
M  V30 9096 C 854.507 -1.50613 1.13847 0
M  V30 9097 O 853.864 -1.81837 0.155414 0
M  V30 9098 C 853.915 -0.861172 3.51093 0
M  V30 9099 O 853.636 0.234121 4.37474 0
M  V30 9100 C 855.137 -1.55555 4.15111 0
M  V30 9101 H 852.357 -0.0853439 0.66555 0
M  V30 9102 H 854.901 0.387151 2.00802 0
M  V30 9103 H 853.056 -1.56385 3.54433 0
M  V30 9104 H 853.47 -0.1444 5.24301 0
M  V30 9105 H 854.944 -1.85403 5.19932 0
M  V30 9106 H 855.421 -2.48185 3.62355 0
M  V30 9107 H 856.027 -0.89712 4.15731 0
M  V30 9108 N 854.342 -1.57594 -0.0133615 0
M  V30 9109 C 855.272 -2.10611 -1.00823 0
M  V30 9110 C 856.253 -1.01217 -1.36708 0
M  V30 9111 O 857.438 -1.28827 -1.45318 0
M  V30 9112 C 854.568 -2.59844 -2.30431 0
M  V30 9113 C 853.522 -3.73644 -2.08745 0
M  V30 9114 C 852.848 -4.09141 -3.4425 0
M  V30 9115 C 854.148 -5.01454 -1.46086 0
M  V30 9116 H 855.842 -2.93985 -0.566849 0
M  V30 9117 H 853.388 -1.41423 -0.271219 0
M  V30 9118 H 855.341 -2.95557 -3.00373 0
M  V30 9119 H 854.065 -1.73573 -2.76658 0
M  V30 9120 H 852.724 -3.38303 -1.41232 0
M  V30 9121 H 852.372 -3.19914 -3.88155 0
M  V30 9122 H 852.072 -4.85802 -3.3056 0
M  V30 9123 H 853.596 -4.47402 -4.15528 0
M  V30 9124 H 855.01 -5.35024 -2.05966 0
M  V30 9125 H 853.407 -5.82832 -1.42924 0
M  V30 9126 H 854.477 -4.83003 -0.428471 0
M  V30 9127 N 855.82 0.285905 -1.54985 0
M  V30 9128 C 857.236 0.632405 -1.46536 0
M  V30 9129 C 857.436 1.90074 -0.668888 0
M  V30 9130 O 856.492 2.51839 -0.182586 0
M  V30 9131 C 857.805 0.771361 -2.90638 0
M  V30 9132 C 859.353 0.866262 -3.00774 0
M  V30 9133 C 859.828 1.0371 -4.46103 0
M  V30 9134 N 861.319 1.10294 -4.49877 0
M  V30 9135 C 862.054 1.25369 -5.59527 0
M  V30 9136 N 861.55 1.37246 -6.7907 0
M  V30 9137 N 863.343 1.28377 -5.47244 0
M  V30 9138 H 855.494 -0.547226 -2.0523 0
M  V30 9139 H 857.757 -0.183298 -0.930111 0
M  V30 9140 H 857.463 -0.0899485 -3.51585 0
M  V30 9141 H 857.337 1.65569 -3.3892 0
M  V30 9142 H 859.724 1.71805 -2.39931 0
M  V30 9143 H 859.805 -0.0424049 -2.55765 0
M  V30 9144 H 859.449 0.190021 -5.07544 0
M  V30 9145 H 859.379 1.96022 -4.88757 0
M  V30 9146 H 861.87 1.02407 -3.6376 0
M  V30 9147 H 862.183 1.48546 -7.58389 0
M  V30 9148 H 860.528 1.34274 -6.81906 0
M  V30 9149 H 863.719 1.1872 -4.52795 0
M  V30 9150 H 863.892 1.39782 -6.32744 0
M  V30 9151 N 857.298 1.47698 0.54982 0
M  V30 9152 C 858.528 1.58101 1.32995 0
M  V30 9153 C 858.936 0.232939 1.87761 0
M  V30 9154 O 858.279 -0.785058 1.6608 0
M  V30 9155 C 858.341 2.55228 2.53178 0
M  V30 9156 C 858.005 4.00756 2.19645 0
M  V30 9157 C 859.002 4.89025 1.76496 0
M  V30 9158 C 856.687 4.46147 2.30777 0
M  V30 9159 C 858.681 6.20707 1.44919 0
M  V30 9160 C 856.368 5.77856 1.98812 0
M  V30 9161 C 857.366 6.64957 1.55952 0
M  V30 9162 O 857.054 7.94217 1.24396 0
M  V30 9163 H 856.786 0.536362 0.411451 0
M  V30 9164 H 859.34 1.94092 0.67212 0
M  V30 9165 H 857.57 2.14319 3.21876 0
M  V30 9166 H 859.259 2.55678 3.15251 0
M  V30 9167 H 860.025 4.55201 1.67383 0
M  V30 9168 H 855.904 3.78552 2.63096 0
M  V30 9169 H 859.448 6.88649 1.11392 0
M  V30 9170 H 855.345 6.11219 2.0756 0
M  V30 9171 H 856.113 8.06789 1.37964 0
M  V30 9172 N 858.776 -0.797141 1.35954 0
M  V30 9173 C 859.739 -1.89104 1.29508 0
M  V30 9174 C 860.739 -1.59495 0.204444 0
M  V30 9175 O 861.929 -1.68051 0.458746 0
M  V30 9176 C 859.061 -3.25726 1.00576 0
M  V30 9177 H 860.254 -1.96237 2.26785 0
M  V30 9178 H 857.807 -0.994075 1.20614 0
M  V30 9179 H 858.542 -3.24279 0.0372519 0
M  V30 9180 H 858.327 -3.48604 1.79492 0
M  V30 9181 H 859.817 -4.0578 0.986508 0
M  V30 9182 N 860.254 -1.20106 -1.0204 0
M  V30 9183 C 861.531 -0.918029 -1.72718 0
M  V30 9184 C 861.911 0.574163 -2.03142 0
M  V30 9185 O 861.259 1.53476 -1.69285 0
M  V30 9186 C 861.469 -1.78698 -2.9978 0
M  V30 9187 C 862.817 -2.02648 -3.7312 0
M  V30 9188 O 863.841 -1.75919 -3.09727 0
M  V30 9189 O 862.7 -2.47767 -4.87107 0
M  V30 9190 H 859.794 -0.342904 -0.752559 0
M  V30 9191 H 862.34 -1.30961 -1.07923 0
M  V30 9192 H 861.112 -2.79757 -2.7359 0
M  V30 9193 H 860.735 -1.39522 -3.72316 0
M  V30 9194 N 861.732 1.21287 -1.00634 0
M  V30 9195 C 863.148 1.42467 -0.719389 0
M  V30 9196 C 863.348 1.88767 0.704927 0
M  V30 9197 O 862.404 2.05004 1.47409 0
M  V30 9198 C 863.717 2.455 -1.73639 0
M  V30 9199 C 865.265 2.59281 -1.75335 0
M  V30 9200 C 865.74 3.65547 -2.75934 0
M  V30 9201 N 867.231 3.73019 -2.74611 0
M  V30 9202 C 867.966 4.54873 -3.4911 0
M  V30 9203 N 867.462 5.40614 -4.33253 0
M  V30 9204 N 869.255 4.49309 -3.37754 0
M  V30 9205 H 861.406 0.895454 -1.92602 0
M  V30 9206 H 863.669 0.455491 -0.831404 0
M  V30 9207 H 863.375 2.18455 -2.75627 0
M  V30 9208 H 863.249 3.44325 -1.54014 0
M  V30 9209 H 865.636 2.85661 -0.740377 0
M  V30 9210 H 865.717 1.60685 -1.99032 0
M  V30 9211 H 865.361 3.39911 -3.77389 0
M  V30 9212 H 865.291 4.63741 -2.49503 0
M  V30 9213 H 867.782 3.11766 -2.13565 0
M  V30 9214 H 868.095 6.0013 -4.86892 0
M  V30 9215 H 866.44 5.40151 -4.37335 0
M  V30 9216 H 869.631 3.81357 -2.71449 0
M  V30 9217 H 869.804 5.12867 -3.9607 0
M  V30 9218 N 863.21 0.781244 1.36873 0
M  V30 9219 C 864.456 0.350407 1.9975 0
M  V30 9220 C 864.789 -1.07293 1.6187 0
M  V30 9221 O 864.064 -1.73983 0.869491 0
M  V30 9222 C 864.347 0.504834 3.56544 0
M  V30 9223 C 864.2 1.97127 4.04303 0
M  V30 9224 C 865.519 -0.0851272 4.40018 0
M  V30 9225 H 862.638 0.128794 0.725659 0
M  V30 9226 H 865.28 0.98606 1.6241 0
M  V30 9227 H 863.43 -0.0363006 3.88483 0
M  V30 9228 H 865.102 2.57284 3.82887 0
M  V30 9229 H 863.345 2.47676 3.56145 0
M  V30 9230 H 864.016 2.03033 5.13305 0
M  V30 9231 H 866.492 0.376704 4.14391 0
M  V30 9232 H 865.368 0.0530015 5.48874 0
M  V30 9233 H 865.629 -1.17642 4.2616 0
M  V30 9234 N 864.689 -1.48329 0.532571 0
M  V30 9235 C 865.636 -2.29663 -0.228779 0
M  V30 9236 C 866.606 -1.37529 -0.931401 0
M  V30 9237 O 867.791 -1.66493 -0.931921 0
M  V30 9238 C 864.931 -3.20955 -1.26814 0
M  V30 9239 C 864.044 -4.28168 -0.574099 0
M  V30 9240 C 863.179 -5.06638 -1.59661 0
M  V30 9241 C 862.218 -6.05651 -0.88618 0
M  V30 9242 N 861.355 -6.77169 -1.85436 0
M  V30 9243 H 866.195 -2.94255 0.47098 0
M  V30 9244 H 863.732 -1.45061 0.2441 0
M  V30 9245 H 865.69 -3.72285 -1.88307 0
M  V30 9246 H 864.32 -2.58281 -1.93625 0
M  V30 9247 H 863.372 -3.80085 0.154827 0
M  V30 9248 H 864.684 -4.98797 -0.0163984 0
M  V30 9249 H 863.838 -5.61995 -2.28576 0
M  V30 9250 H 862.577 -4.35854 -2.18821 0
M  V30 9251 H 861.582 -5.49495 -0.182981 0
M  V30 9252 H 862.807 -6.78434 -0.300659 0
M  V30 9253 H 860.753 -6.09134 -2.43499 0
M  V30 9254 H 860.67 -7.43882 -1.34816 0
M  V30 9255 H 861.938 -7.37114 -2.53541 0
M  V30 9256 N 866.167 -0.267825 -1.55308 0
M  V30 9257 C 867.077 0.633055 -2.25897 0
M  V30 9258 C 868.093 1.17613 -1.28231 0
M  V30 9259 O 869.269 1.20797 -1.61153 0
M  V30 9260 C 866.334 1.80397 -2.96071 0
M  V30 9261 C 865.395 1.29829 -4.09198 0
M  V30 9262 C 864.628 2.4134 -4.76016 0
M  V30 9263 O 864.851 3.60537 -4.42006 0
M  V30 9264 O 863.785 2.09909 -5.64111 0
M  V30 9265 H 867.611 0.0614381 -3.03638 0
M  V30 9266 H 865.196 -0.0355072 -1.49358 0
M  V30 9267 H 867.078 2.48685 -3.40197 0
M  V30 9268 H 865.753 2.36281 -2.21253 0
M  V30 9269 H 864.66 0.582086 -3.69544 0
M  V30 9270 H 865.993 0.785288 -4.85895 0
M  V30 9271 N 867.645 1.57599 0.00500368 0
M  V30 9272 C 868.575 2.11143 0.99705 0
M  V30 9273 C 869.556 1.0194 1.3617 0
M  V30 9274 O 870.741 1.29596 1.44632 0
M  V30 9275 C 867.871 2.61062 2.2905 0
M  V30 9276 C 866.825 3.74745 2.0676 0
M  V30 9277 C 866.151 4.10961 3.42075 0
M  V30 9278 C 867.451 5.02222 1.43424 0
M  V30 9279 H 869.145 2.94281 0.551251 0
M  V30 9280 H 866.691 1.41565 0.263715 0
M  V30 9281 H 868.644 2.97146 2.98801 0
M  V30 9282 H 867.368 1.75038 2.75734 0
M  V30 9283 H 866.027 3.39047 1.39436 0
M  V30 9284 H 865.675 3.21968 3.86453 0
M  V30 9285 H 865.375 4.87549 3.27979 0
M  V30 9286 H 866.899 4.49599 4.1315 0
M  V30 9287 H 868.313 5.36109 2.03125 0
M  V30 9288 H 866.71 5.83581 1.39831 0
M  V30 9289 H 867.78 4.83224 0.40285 0
M  V30 9290 N 869.123 -0.277682 1.55134 0
M  V30 9291 C 870.348 -1.03254 1.7987 0
M  V30 9292 C 870.773 -1.79324 0.567861 0
M  V30 9293 O 870.131 -1.74764 -0.4824 0
M  V30 9294 C 870.179 -1.9705 3.02 0
M  V30 9295 O 869.283 -3.05744 2.76757 0
M  V30 9296 H 868.624 -0.295447 0.594649 0
M  V30 9297 H 871.154 -0.308013 2.02268 0
M  V30 9298 H 871.164 -2.3909 3.30606 0
M  V30 9299 H 869.839 -1.41094 3.91236 0
M  V30 9300 H 868.416 -2.68052 2.59235 0
M  V30 9301 N 870.601 -1.47988 -0.541979 0
M  V30 9302 C 872.012 -1.49073 -1.12402 0
M  V30 9303 C 872.363 -0.253825 -1.94551 0
M  V30 9304 O 871.488 0.640056 -2.06718 0
M  V30 9305 C 872.083 -2.7011 -2.04514 0
M  V30 9306 C 870.642 -2.74105 -2.5796 0
M  V30 9307 C 869.789 -2.42409 -1.3466 0
M  V30 9308 H 872.74 -1.55277 -0.327818 0
M  V30 9309 H 872.761 -2.47946 -2.88623 0
M  V30 9310 H 872.273 -3.60117 -1.44697 0
M  V30 9311 H 870.374 -1.88276 -3.21532 0
M  V30 9312 H 870.487 -3.75213 -2.97913 0
M  V30 9313 H 868.851 -1.9331 -1.65841 0
M  V30 9314 H 869.634 -3.34642 -0.766133 0
M  V30 9315 N 872.079 0.78992 -1.36375 0
M  V30 9316 C 873.029 1.89227 -1.27189 0
M  V30 9317 C 874.013 1.60067 -0.163498 0
M  V30 9318 O 875.205 1.72507 -0.396262 0
M  V30 9319 C 872.334 3.26431 -1.06292 0
M  V30 9320 C 871.42 3.61602 -2.21596 0
M  V30 9321 N 871.811 3.68086 -3.4691 0
M  V30 9322 C 870.109 3.9166 -2.1335 0
M  V30 9323 C 870.81 3.99481 -4.22835 0
M  V30 9324 N 869.786 4.14438 -3.5177 0
M  V30 9325 H 873.588 1.92465 -2.22113 0
M  V30 9326 H 871.102 0.985414 -1.29087 0
M  V30 9327 H 873.099 4.05267 -0.97798 0
M  V30 9328 H 871.759 3.24468 -0.122676 0
M  V30 9329 H 872.77 3.50743 -3.81051 0
M  V30 9330 H 869.447 3.97626 -1.27279 0
M  V30 9331 H 870.837 4.11425 -5.31205 0
M  V30 9332 N 873.557 1.20646 1.01402 0
M  V30 9333 C 874.782 1.04462 1.79172 0
M  V30 9334 C 875.207 -0.401588 1.83763 0
M  V30 9335 O 874.565 -1.28934 1.27459 0
M  V30 9336 C 874.613 1.63583 3.21361 0
M  V30 9337 O 873.717 0.875198 4.03006 0
M  V30 9338 H 873.058 0.368235 0.552539 0
M  V30 9339 H 875.588 1.59994 1.27526 0
M  V30 9340 H 875.598 1.67426 3.72065 0
M  V30 9341 H 874.273 2.68835 3.17334 0
M  V30 9342 H 872.85 0.911172 3.61597 0
M  V30 9343 N 875.035 -1.20752 1.01276 0
M  V30 9344 C 876.283 -1.89645 0.698505 0
M  V30 9345 C 876.604 -1.78986 -0.773883 0
M  V30 9346 O 875.874 -1.18977 -1.55632 0
M  V30 9347 H 874.454 -0.701992 0.255375 0
M  V30 9348 H 877.116 -1.46668 1.28353 0
M  V30 9349 H 876.212 -2.96364 0.978512 0
M  V30 9350 N 876.513 -0.788492 -1.36457 0
M  V30 9351 C 877.924 -0.423742 -1.81828 0
M  V30 9352 C 878.275 1.05221 -1.65599 0
M  V30 9353 O 877.4 1.8163 -1.17641 0
M  V30 9354 C 877.995 -0.762354 -3.30112 0
M  V30 9355 C 876.554 -0.450445 -3.73695 0
M  V30 9356 C 875.701 -0.997482 -2.58738 0
M  V30 9357 H 878.652 -0.981718 -1.24692 0
M  V30 9358 H 878.673 -0.0531136 -3.80463 0
M  V30 9359 H 878.185 -1.83662 -3.41891 0
M  V30 9360 H 876.286 0.615829 -3.67476 0
M  V30 9361 H 876.399 -0.970408 -4.69169 0
M  V30 9362 H 874.763 -0.420761 -2.51201 0
M  V30 9363 H 875.546 -2.07749 -2.73304 0
M  V30 9364 N 877.991 1.48044 -0.54043 0
M  V30 9365 C 879.216 2.07396 -0.0124765 0
M  V30 9366 C 879.641 1.39288 1.26414 0
M  V30 9367 O 878.999 0.462252 1.75308 0
M  V30 9368 C 879.047 3.60131 0.18377 0
M  V30 9369 O 878.151 3.92995 1.25014 0
M  V30 9370 H 877.492 0.662554 -0.0438026 0
M  V30 9371 H 880.022 1.90306 -0.751327 0
M  V30 9372 H 880.032 4.06003 0.403197 0
M  V30 9373 H 878.707 4.09105 -0.74874 0
M  V30 9374 H 877.284 3.5889 1.01254 0
M  V30 9375 N 879.47 0.276058 1.55163 0
M  V30 9376 C 880.718 -0.339782 1.99223 0
M  V30 9377 C 881.039 -1.56307 1.16589 0
M  V30 9378 O 880.309 -1.94225 0.25564 0
M  V30 9379 H 878.889 -0.128534 0.735859 0
M  V30 9380 H 881.551 0.381612 1.91128 0
M  V30 9381 H 880.647 -0.629 3.05696 0
M  V30 9382 N 880.948 -1.576 0.00335426 0
M  V30 9383 C 881.858 -2.12067 -1.00322 0
M  V30 9384 C 882.874 -1.06672 -1.37467 0
M  V30 9385 O 884.05 -1.38592 -1.46131 0
M  V30 9386 C 881.115 -2.61593 -2.27531 0
M  V30 9387 C 880.176 -3.81602 -1.96668 0
M  V30 9388 C 879.409 -4.28756 -3.17811 0
M  V30 9389 O 879.632 -3.75222 -4.2961 0
M  V30 9390 O 878.566 -5.20877 -3.01613 0
M  V30 9391 H 882.392 -2.98299 -0.570199 0
M  V30 9392 H 879.977 -1.47835 -0.215682 0
M  V30 9393 H 881.859 -2.93631 -3.02256 0
M  V30 9394 H 880.534 -1.78457 -2.70065 0
M  V30 9395 H 879.441 -3.54531 -1.19408 0
M  V30 9396 H 880.774 -4.65822 -1.58968 0
M  V30 9397 N 882.426 0.269451 -1.5528 0
M  V30 9398 C 883.358 1.35553 -1.84819 0
M  V30 9399 C 884.371 1.45369 -0.732914 0
M  V30 9400 O 885.56 1.47122 -1.0108 0
M  V30 9401 C 882.66 2.73645 -1.9993 0
M  V30 9402 C 881.833 2.86376 -3.30617 0
M  V30 9403 C 880.892 4.05165 -3.35749 0
M  V30 9404 O 879.918 3.95756 -4.09104 0
M  V30 9405 N 881.12 5.17297 -2.63408 0
M  V30 9406 H 883.885 1.10557 -2.78563 0
M  V30 9407 H 881.446 0.459566 -1.5524 0
M  V30 9408 H 883.438 3.51411 -2.00729 0
M  V30 9409 H 882.008 2.91448 -1.13035 0
M  V30 9410 H 881.228 1.95465 -3.42326 0
M  V30 9411 H 882.516 2.91815 -4.16799 0
M  V30 9412 H 881.914 5.2783 -2.03501 0
M  V30 9413 H 880.471 5.93281 -2.69927 0
M  V30 9414 N 883.904 1.48273 0.534124 0
M  V30 9415 C 884.834 1.6538 1.64839 0
M  V30 9416 C 885.815 0.502741 1.62501 0
M  V30 9417 O 887 0.734799 1.79762 0
M  V30 9418 C 884.13 1.68949 3.03436 0
M  V30 9419 C 883.084 2.83513 3.20631 0
M  V30 9420 C 882.41 2.72169 4.60248 0
M  V30 9421 C 883.71 4.24858 3.03797 0
M  V30 9422 H 885.404 2.58663 1.50777 0
M  V30 9423 H 882.95 1.24479 0.723937 0
M  V30 9424 H 884.903 1.79505 3.81256 0
M  V30 9425 H 883.627 0.722415 3.1851 0
M  V30 9426 H 882.286 2.72505 2.45227 0
M  V30 9427 H 881.934 1.7344 4.72152 0
M  V30 9428 H 881.634 3.49042 4.72698 0
M  V30 9429 H 883.158 2.84687 5.40172 0
M  V30 9430 H 884.572 4.36721 3.71413 0
M  V30 9431 H 882.969 5.02697 3.27743 0
M  V30 9432 H 884.039 4.41611 2.0027 0
M  V30 9433 N 885.382 -0.782676 1.36792 0
M  V30 9434 C 886.631 -1.53605 1.30723 0
M  V30 9435 C 886.944 -1.95294 -0.109296 0
M  V30 9436 O 888.15 -2.69921 -0.292398 0
M  V30 9437 C 886.606 -2.77321 2.29393 0
M  V30 9438 C 886.214 -2.42774 3.76517 0
M  V30 9439 C 887.958 -3.55289 2.32314 0
M  V30 9440 C 885.865 -3.62926 4.66947 0
M  V30 9441 H 884.795 -0.576646 0.485794 0
M  V30 9442 H 887.446 -0.858255 1.62192 0
M  V30 9443 H 885.828 -3.46934 1.90927 0
M  V30 9444 H 887.002 -1.81014 4.23758 0
M  V30 9445 H 885.317 -1.78002 3.76436 0
M  V30 9446 H 887.914 -4.44573 2.97083 0
M  V30 9447 H 888.257 -3.94361 1.3336 0
M  V30 9448 H 888.79 -2.92662 2.69432 0
M  V30 9449 H 885.529 -3.28944 5.66989 0
M  V30 9450 H 885.049 -4.23828 4.24418 0
M  V30 9451 H 886.728 -4.29873 4.83548 0
M  V30 9452 N 886.86 -1.21182 -1.00761 0
M  V30 9453 C 887.792 -0.926523 -2.09638 0
M  V30 9454 C 888.805 0.0892511 -1.62555 0
M  V30 9455 O 889.994 -0.142915 -1.77927 0
M  V30 9456 C 887.094 -0.369175 -3.36883 0
M  V30 9457 C 886.267 -1.43866 -4.13063 0
M  V30 9458 C 885.326 -0.891015 -5.18601 0
M  V30 9459 O 884.352 -1.57384 -5.47009 0
M  V30 9460 N 885.554 0.295057 -5.7975 0
M  V30 9461 H 888.319 -1.8638 -2.34697 0
M  V30 9462 H 885.88 -1.11671 -1.17223 0
M  V30 9463 H 887.872 0.011534 -4.04698 0
M  V30 9464 H 886.442 0.472861 -3.09003 0
M  V30 9465 H 885.662 -1.99332 -3.40089 0
M  V30 9466 H 886.95 -2.15866 -4.60738 0
M  V30 9467 H 886.348 0.8669 -5.59018 0
M  V30 9468 H 884.905 0.617306 -6.4887 0
M  V30 9469 N 888.338 1.20213 -1.01915 0
M  V30 9470 C 889.271 2.2181 -0.536243 0
M  V30 9471 C 890.249 1.57144 0.417689 0
M  V30 9472 O 891.433 1.85461 0.337088 0
M  V30 9473 C 888.56 3.37989 0.219303 0
M  V30 9474 C 887.606 4.2097 -0.684571 0
M  V30 9475 S 888.439 4.90216 -2.15519 0
M  V30 9476 C 889.595 6.09814 -1.40988 0
M  V30 9477 H 889.828 2.62429 -1.39709 0
M  V30 9478 H 887.361 1.30305 -0.828254 0
M  V30 9479 H 889.319 4.05335 0.649112 0
M  V30 9480 H 887.98 2.95825 1.05575 0
M  V30 9481 H 887.173 5.03897 -0.101833 0
M  V30 9482 H 886.775 3.58892 -1.05227 0
M  V30 9483 H 889.067 6.73964 -0.691243 0
M  V30 9484 H 890.01 6.72552 -2.21539 0
M  V30 9485 H 890.418 5.5709 -0.911645 0
M  V30 9486 N 889.816 0.795718 1.36037 0
M  V30 9487 C 890.726 0.199784 2.33748 0
M  V30 9488 C 891.742 -0.651436 1.61345 0
M  V30 9489 O 892.918 -0.565743 1.93291 0
M  V30 9490 C 889.983 -0.650475 3.40543 0
M  V30 9491 C 889.044 0.219974 4.28736 0
M  V30 9492 C 888.277 -0.589798 5.30431 0
M  V30 9493 O 888.5 -1.82532 5.40406 0
M  V30 9494 O 887.434 0.0136187 6.01898 0
M  V30 9495 H 891.26 1.00782 2.8649 0
M  V30 9496 H 888.845 0.557293 1.38617 0
M  V30 9497 H 890.727 -1.13512 4.05824 0
M  V30 9498 H 889.402 -1.4363 2.9009 0
M  V30 9499 H 888.309 0.751516 3.66474 0
M  V30 9500 H 889.642 0.969468 4.82558 0
M  V30 9501 N 891.294 -1.47756 0.548274 0
M  V30 9502 C 892.522 -2.06884 0.0254873 0
M  V30 9503 C 892.937 -1.40225 -1.26422 0
M  V30 9504 O 892.294 -0.495776 -1.75637 0
M  V30 9505 C 892.345 -3.61036 -0.183134 0
M  V30 9506 O 892.066 -4.25195 1.05549 0
M  V30 9507 C 893.567 -4.37008 -0.744222 0
M  V30 9508 H 890.787 -0.669697 0.041789 0
M  V30 9509 H 893.331 -1.89888 0.759138 0
M  V30 9510 H 891.486 -3.77576 -0.866886 0
M  V30 9511 H 891.9 -5.17606 0.847629 0
M  V30 9512 H 893.374 -5.45579 -0.839529 0
M  V30 9513 H 893.851 -4.0268 -1.75344 0
M  V30 9514 H 894.457 -4.25191 -0.0964542 0
M  V30 9515 N 892.772 -0.284283 -1.55015 0
M  V30 9516 C 893.682 0.60906 -2.26556 0
M  V30 9517 C 894.698 1.16246 -1.29472 0
M  V30 9518 O 895.874 1.1908 -1.62425 0
M  V30 9519 C 892.939 1.77246 -2.97968 0
M  V30 9520 C 892 1.25482 -4.10552 0
M  V30 9521 C 891.233 2.36277 -4.78549 0
M  V30 9522 O 891.456 3.55829 -4.45805 0
M  V30 9523 O 890.39 2.03914 -5.66306 0
M  V30 9524 H 894.216 0.0292298 -3.03686 0
M  V30 9525 H 891.801 -0.0513466 -1.49312 0
M  V30 9526 H 893.683 2.45062 -3.42815 0
M  V30 9527 H 892.358 2.33921 -2.23747 0
M  V30 9528 H 891.265 0.542859 -3.7014 0
M  V30 9529 H 892.598 0.733708 -4.86701 0
M  V30 9530 N 894.251 1.57596 -0.0117121 0
M  V30 9531 C 895.161 2.12596 0.991964 0
M  V30 9532 C 896.177 1.07399 1.36899 0
M  V30 9533 O 897.353 1.39365 1.45394 0
M  V30 9534 C 894.418 2.62796 2.2614 0
M  V30 9535 C 893.479 3.8264 1.94642 0
M  V30 9536 C 892.712 4.30435 3.15533 0
M  V30 9537 O 892.935 3.77495 4.27614 0
M  V30 9538 O 891.869 5.22469 2.98847 0
M  V30 9539 H 895.695 2.98597 0.554371 0
M  V30 9540 H 893.28 1.47947 0.207839 0
M  V30 9541 H 895.162 2.9523 3.00695 0
M  V30 9542 H 893.837 1.79886 2.69114 0
M  V30 9543 H 892.744 3.5516 1.17526 0
M  V30 9544 H 894.077 4.66658 1.56496 0
M  V30 9545 N 895.729 -0.261212 1.5542 0
M  V30 9546 C 896.662 -1.34906 1.84054 0
M  V30 9547 C 897.64 -1.47024 0.694466 0
M  V30 9548 O 898.824 -1.63463 0.938719 0
M  V30 9549 C 895.951 -2.7242 2.01259 0
M  V30 9550 C 894.997 -2.77526 3.23855 0
M  V30 9551 S 895.83 -2.35578 4.80898 0
M  V30 9552 C 896.986 -3.75045 5.01091 0
M  V30 9553 H 897.219 -1.10416 2.76035 0
M  V30 9554 H 894.752 -0.461461 1.47343 0
M  V30 9555 H 896.71 -3.51606 2.11857 0
M  V30 9556 H 895.371 -2.94155 1.10145 0
M  V30 9557 H 894.564 -3.78483 3.32816 0
M  V30 9558 H 894.166 -2.0637 3.11909 0
M  V30 9559 H 896.458 -4.7042 4.87556 0
M  V30 9560 H 897.401 -3.71027 6.03112 0
M  V30 9561 H 897.809 -3.66894 4.29009 0
M  V30 9562 N 897.207 -1.48554 -0.526253 0
M  V30 9563 C 898.117 -1.66044 -1.65731 0
M  V30 9564 C 899.133 -0.542951 -1.65312 0
M  V30 9565 O 900.309 -0.814495 -1.84195 0
M  V30 9566 C 897.374 -1.69959 -3.02184 0
M  V30 9567 C 896.435 -2.93362 -3.13428 0
M  V30 9568 C 895.668 -2.97081 -4.43372 0
M  V30 9569 O 895.891 -2.09103 -5.3069 0
M  V30 9570 O 894.825 -3.8929 -4.59061 0
M  V30 9571 H 898.651 -2.61811 -1.53912 0
M  V30 9572 H 896.236 -1.31999 -0.699759 0
M  V30 9573 H 898.118 -1.75033 -3.83329 0
M  V30 9574 H 896.793 -0.773658 -3.14319 0
M  V30 9575 H 895.7 -2.93818 -2.31564 0
M  V30 9576 H 897.033 -3.85352 -3.06211 0
M  V30 9577 N 898.685 0.775411 -1.37205 0
M  V30 9578 C 899.648 1.8702 -1.325 0
M  V30 9579 C 900.648 1.5915 -0.229793 0
M  V30 9580 O 901.838 1.673 -0.485423 0
M  V30 9581 C 898.97 3.24085 -1.05745 0
M  V30 9582 H 900.163 1.92604 -2.29878 0
M  V30 9583 H 897.716 0.97476 -1.22181 0
M  V30 9584 H 898.451 3.24178 -0.0888371 0
M  V30 9585 H 898.236 3.45705 -1.85016 0
M  V30 9586 H 899.726 4.0416 -1.05094 0
M  V30 9587 N 900.163 1.21714 1.00117 0
M  V30 9588 C 901.403 1.04818 1.75478 0
M  V30 9589 C 901.767 -0.410653 1.87557 0
M  V30 9590 O 902.968 -0.700241 2.59519 0
M  V30 9591 C 901.239 1.73055 3.12709 0
M  V30 9592 S 902.798 1.71464 4.03913 0
M  V30 9593 H 899.616 0.375534 0.603734 0
M  V30 9594 H 902.218 1.54522 1.19763 0
M  V30 9595 H 900.922 2.78376 3.01554 0
M  V30 9596 H 900.453 1.23546 3.73497 0
M  V30 9597 H 902.468 0.75845 4.90369 0
M  V30 9598 N 901.641 -1.19671 1.02551 0
M  V30 9599 C 902.866 -1.93774 0.739363 0
M  V30 9600 C 903.291 -1.74787 -0.695064 0
M  V30 9601 O 902.649 -1.04796 -1.47944 0
M  V30 9602 C 902.697 -3.43684 1.09149 0
M  V30 9603 O 901.801 -4.11874 0.208213 0
M  V30 9604 H 901.142 -0.605064 0.273484 0
M  V30 9605 H 903.672 -1.51846 1.37128 0
M  V30 9606 H 903.682 -3.94339 1.04695 0
M  V30 9607 H 902.357 -3.56826 2.13654 0
M  V30 9608 H 900.934 -3.716 0.311045 0
M  V30 9609 N 903.119 -0.802921 -1.35613 0
M  V30 9610 C 904.067 -0.198783 -2.31749 0
M  V30 9611 C 905.061 0.649416 -1.56458 0
M  V30 9612 O 906.267 0.542989 -1.71615 0
M  V30 9613 H 902.642 -0.0455177 -0.750621 0
M  V30 9614 H 904.613 -1.02479 -2.80251 0
M  V30 9615 C 903.362 0.641066 -3.41739 0
M  V30 9616 H 902.685 -0.00226244 -3.998 0
M  V30 9617 H 904.125 1.03022 -4.11294 0
M  V30 9618 C 902.584 1.80505 -2.84464 0
M  V30 9619 O 903.114 2.90235 -2.77717 0
M  V30 9620 N 901.32 1.61542 -2.41563 0
M  V30 9621 H 900.867 0.722863 -2.4725 0
M  V30 9622 H 900.825 2.39581 -2.03589 0
M  V30 9623 N 904.597 1.47463 -0.556102 0
M  V30 9624 C 905.845 2.02075 -0.0315712 0
M  V30 9625 C 906.166 1.43292 1.32259 0
M  V30 9626 O 905.436 0.60771 1.86236 0
M  V30 9627 H 904.016 0.74695 -0.0086816 0
M  V30 9628 H 906.678 1.80879 -0.725859 0
M  V30 9629 H 905.774 3.12047 0.0573538 0
M  V30 9630 N 906.075 0.2925 1.54862 0
M  V30 9631 C 907.038 -0.574423 2.21885 0
M  V30 9632 C 908.038 -1.06791 1.20218 0
M  V30 9633 O 909.228 -0.9653 1.45009 0
M  V30 9634 C 906.36 -1.79438 2.89853 0
M  V30 9635 H 907.553 0.0110319 2.99898 0
M  V30 9636 H 905.106 0.043256 1.5624 0
M  V30 9637 H 905.841 -2.4199 2.15897 0
M  V30 9638 H 905.626 -1.44827 3.64373 0
M  V30 9639 H 907.116 -2.41048 3.41007 0
M  V30 9640 N 907.553 -1.57587 0.0200696 0
M  V30 9641 C 908.483 -2.12702 -0.963333 0
M  V30 9642 C 909.464 -1.04094 -1.34531 0
M  V30 9643 O 910.649 -1.31881 -1.42552 0
M  V30 9644 C 907.779 -2.64673 -2.24868 0
M  V30 9645 C 906.733 -3.77987 -2.00772 0
M  V30 9646 C 906.059 -4.16351 -3.35494 0
M  V30 9647 C 907.359 -5.0444 -1.35416 0
M  V30 9648 H 909.053 -2.95121 -0.504363 0
M  V30 9649 H 906.599 -1.41966 -0.24116 0
M  V30 9650 H 908.552 -3.01862 -2.94036 0
M  V30 9651 H 907.276 -1.79403 -2.72914 0
M  V30 9652 H 905.935 -3.41223 -1.34025 0
M  V30 9653 H 905.583 -3.28075 -3.81282 0
M  V30 9654 H 905.283 -4.92705 -3.20181 0
M  V30 9655 H 906.807 -4.56115 -4.05945 0
M  V30 9656 H 908.221 -5.39273 -1.94571 0
M  V30 9657 H 906.618 -5.85732 -1.30529 0
M  V30 9658 H 907.688 -4.83803 -0.325923 0
M  V30 9659 N 909.032 0.252966 -1.55557 0
M  V30 9660 C 910.281 0.979736 -1.76307 0
M  V30 9661 C 910.594 1.86714 -0.582871 0
M  V30 9662 O 911.8 2.6302 -0.673247 0
M  V30 9663 C 910.256 1.79205 -3.12112 0
M  V30 9664 C 909.864 0.952333 -4.37761 0
M  V30 9665 C 911.608 2.51191 -3.42203 0
M  V30 9666 C 909.515 1.76018 -5.64599 0
M  V30 9667 H 908.445 0.369538 -0.657235 0
M  V30 9668 H 911.096 0.234619 -1.81994 0
M  V30 9669 H 909.478 2.57888 -3.00515 0
M  V30 9670 H 910.652 0.208251 -4.60329 0
M  V30 9671 H 908.967 0.346082 -4.14959 0
M  V30 9672 H 911.564 3.12074 -4.34182 0
M  V30 9673 H 911.907 3.22499 -2.63249 0
M  V30 9674 H 912.44 1.79523 -3.54988 0
M  V30 9675 H 909.179 1.09095 -6.46358 0
M  V30 9676 H 908.699 2.4797 -5.46142 0
M  V30 9677 H 910.378 2.32884 -6.03634 0
M  V30 9678 N 910.51 1.48831 0.518367 0
M  V30 9679 C 911.921 1.50842 1.10016 0
M  V30 9680 C 912.272 0.284744 1.94123 0
M  V30 9681 O 911.397 -0.607088 2.0771 0
M  V30 9682 C 911.992 2.73329 2.00191 0
M  V30 9683 C 910.551 2.78175 2.53566 0
M  V30 9684 C 909.698 2.4452 1.30786 0
M  V30 9685 H 912.649 1.55779 0.303073 0
M  V30 9686 H 912.67 2.52506 2.84642 0
M  V30 9687 H 912.182 3.62374 1.3895 0
M  V30 9688 H 910.283 1.93368 3.18496 0
M  V30 9689 H 910.396 3.79905 2.91906 0
M  V30 9690 H 908.76 1.95924 1.62744 0
M  V30 9691 H 909.543 3.35819 0.712797 0
M  V30 9692 N 911.988 -0.768124 1.37614 0
M  V30 9693 C 913.236 -1.52379 1.3276 0
M  V30 9694 C 913.557 -1.94809 -0.0863564 0
M  V30 9695 O 912.827 -1.66568 -1.03112 0
M  V30 9696 H 911.407 -0.565179 0.488448 0
M  V30 9697 H 914.069 -0.913974 1.72141 0
M  V30 9698 H 913.165 -2.4215 1.96901 0
M  V30 9699 N 913.466 -1.22244 -0.994698 0
M  V30 9700 C 914.414 -0.988118 -2.10568 0
M  V30 9701 C 915.408 0.0681541 -1.69263 0
M  V30 9702 O 916.614 -0.0841311 -1.79803 0
M  V30 9703 H 912.989 -0.302343 -0.688544 0
M  V30 9704 H 914.96 -1.93091 -2.27505 0
M  V30 9705 C 913.709 -0.580557 -3.42819 0
M  V30 9706 H 913.032 -1.385 -3.75044 0
M  V30 9707 H 914.472 -0.456004 -4.21541 0
M  V30 9708 C 912.931 0.709692 -3.2934 0
M  V30 9709 O 913.461 1.76259 -3.60965 0
M  V30 9710 N 911.667 0.680155 -2.82528 0
M  V30 9711 H 911.214 -0.176977 -2.56991 0
M  V30 9712 H 911.172 1.54372 -2.73892 0
M  V30 9713 N 914.944 1.19125 -1.03184 0
M  V30 9714 C 915.874 2.24675 -0.635889 0
M  V30 9715 C 916.855 1.66321 0.356565 0
M  V30 9716 O 918.04 1.92728 0.238625 0
M  V30 9717 C 915.17 3.47298 0.011069 0
M  V30 9718 C 914.124 4.18345 -0.903979 0
M  V30 9719 C 913.45 5.34561 -0.12197 0
M  V30 9720 C 914.75 4.72816 -2.21907 0
M  V30 9721 H 916.444 2.5805 -1.51825 0
M  V30 9722 H 913.99 1.24039 -0.73146 0
M  V30 9723 H 915.943 4.20333 0.299729 0
M  V30 9724 H 914.667 3.13131 0.928245 0
M  V30 9725 H 913.326 3.47196 -1.17688 0
M  V30 9726 H 912.974 4.9664 0.797334 0
M  V30 9727 H 912.674 5.83029 -0.731498 0
M  V30 9728 H 914.198 6.10391 0.159881 0
M  V30 9729 H 915.612 5.3759 -1.99173 0
M  V30 9730 H 914.009 5.31782 -2.78078 0
M  V30 9731 H 915.079 3.9072 -2.87168 0
M  V30 9732 N 916.422 0.810101 1.35185 0
M  V30 9733 C 917.647 0.40364 2.03434 0
M  V30 9734 C 918.072 -0.97857 1.60641 0
M  V30 9735 O 917.43 -1.63435 0.784779 0
M  V30 9736 C 917.478 0.499154 3.57129 0
M  V30 9737 O 916.582 -0.486039 4.09526 0
M  V30 9738 H 915.923 0.168049 0.642383 0
M  V30 9739 H 918.453 1.09696 1.72708 0
M  V30 9740 H 918.463 0.370236 4.06317 0
M  V30 9741 H 917.138 1.50733 3.87624 0
M  V30 9742 H 915.715 -0.31707 3.7155 0
M  V30 9743 N 917.9 -1.47166 0.563914 0
M  V30 9744 C 918.847 -2.30097 -0.180013 0
M  V30 9745 C 919.817 -1.39473 -0.902019 0
M  V30 9746 O 921.002 -1.68432 -0.896396 0
M  V30 9747 C 918.142 -3.23573 -1.19978 0
M  V30 9748 C 917.255 -4.2929 -0.483149 0
M  V30 9749 C 916.39 -5.0991 -1.48879 0
M  V30 9750 C 915.429 -6.07395 -0.757513 0
M  V30 9751 N 914.566 -6.8095 -1.71031 0
M  V30 9752 H 919.406 -2.93189 0.53329 0
M  V30 9753 H 916.943 -1.4451 0.274814 0
M  V30 9754 H 918.901 -3.76196 -1.80368 0
M  V30 9755 H 917.531 -2.6233 -1.88103 0
M  V30 9756 H 916.583 -3.79671 0.235414 0
M  V30 9757 H 917.895 -4.9872 0.0894075 0
M  V30 9758 H 917.049 -5.66717 -2.16603 0
M  V30 9759 H 915.788 -4.40397 -2.09527 0
M  V30 9760 H 914.793 -5.4976 -0.0663841 0
M  V30 9761 H 916.018 -6.78919 -0.156685 0
M  V30 9762 H 913.964 -6.14162 -2.30524 0
M  V30 9763 H 913.881 -7.46574 -1.19007 0
M  V30 9764 H 915.149 -7.42326 -2.37849 0
M  V30 9765 N 919.378 -0.300708 -1.54705 0
M  V30 9766 C 920.288 0.584996 -2.27189 0
M  V30 9767 C 921.304 1.14866 -1.30697 0
M  V30 9768 O 922.48 1.17351 -1.63679 0
M  V30 9769 C 919.545 1.74076 -2.99831 0
M  V30 9770 C 918.606 1.2112 -4.1186 0
M  V30 9771 C 917.839 2.31188 -4.81028 0
M  V30 9772 O 918.062 3.5108 -4.49554 0
M  V30 9773 O 916.996 1.97897 -5.68437 0
M  V30 9774 H 920.822 -0.00298177 -3.037 0
M  V30 9775 H 918.407 -0.0671802 -1.49249 0
M  V30 9776 H 920.289 2.41413 -3.45395 0
M  V30 9777 H 918.964 2.31535 -2.26215 0
M  V30 9778 H 917.871 0.50357 -3.70695 0
M  V30 9779 H 919.204 0.682046 -4.87452 0
M  V30 9780 N 920.856 1.57574 -0.0284266 0
M  V30 9781 C 921.766 2.13637 0.96936 0
M  V30 9782 C 922.782 1.08845 1.35752 0
M  V30 9783 O 923.958 1.40899 1.43908 0
M  V30 9784 C 921.023 2.65179 2.2334 0
M  V30 9785 C 920.084 3.84683 1.90572 0
M  V30 9786 C 919.317 4.33758 3.1095 0
M  V30 9787 O 919.54 3.82009 4.23586 0
M  V30 9788 O 918.474 5.2561 2.93288 0
M  V30 9789 H 922.3 2.99169 0.52267 0
M  V30 9790 H 919.885 1.48159 0.192135 0
M  V30 9791 H 921.767 2.98402 2.97547 0
M  V30 9792 H 920.442 1.82731 2.67191 0
M  V30 9793 H 919.349 3.56386 1.13753 0
M  V30 9794 H 920.682 4.68292 1.51538 0
M  V30 9795 N 922.334 -0.244713 1.55689 0
M  V30 9796 C 923.244 -1.32447 1.93636 0
M  V30 9797 C 924.26 -1.52541 0.837086 0
M  V30 9798 O 925.436 -1.66121 1.13867 0
M  V30 9799 C 922.501 -2.65864 2.22525 0
M  V30 9800 C 921.562 -2.54273 3.45896 0
M  V30 9801 C 920.795 -3.81327 3.73397 0
M  V30 9802 O 921.018 -4.83307 3.02936 0
M  V30 9803 O 919.952 -3.79829 4.66919 0
M  V30 9804 H 923.778 -1.03255 2.85608 0
M  V30 9805 H 921.363 -0.445652 1.42598 0
M  V30 9806 H 923.245 -3.447 2.42404 0
M  V30 9807 H 921.92 -2.94784 1.33731 0
M  V30 9808 H 920.827 -1.73715 3.31321 0
M  V30 9809 H 922.16 -2.30297 4.34999 0
M  V30 9810 N 923.813 -1.49104 -0.510467 0
M  V30 9811 C 924.723 -1.67792 -1.6396 0
M  V30 9812 C 925.739 -0.560454 -1.64727 0
M  V30 9813 O 926.915 -0.833985 -1.83321 0
M  V30 9814 C 923.98 -1.73154 -3.00364 0
M  V30 9815 C 923.041 -2.9667 -3.10299 0
M  V30 9816 C 922.274 -3.01767 -4.40196 0
M  V30 9817 O 922.497 -2.1472 -5.28443 0
M  V30 9818 O 921.431 -3.94137 -4.54906 0
M  V30 9819 H 925.257 -2.63428 -1.51126 0
M  V30 9820 H 922.842 -1.32734 -0.685719 0
M  V30 9821 H 924.724 -1.79089 -3.81451 0
M  V30 9822 H 923.399 -0.806952 -3.1348 0
M  V30 9823 H 922.306 -2.96257 -2.28435 0
M  V30 9824 H 923.639 -3.88578 -3.02106 0
M  V30 9825 N 925.291 0.760815 -1.38019 0
M  V30 9826 C 926.221 1.88811 -1.37377 0
M  V30 9827 C 927.202 1.68388 -0.240737 0
M  V30 9828 O 928.387 1.89086 -0.442739 0
M  V30 9829 C 925.517 3.26244 -1.1909 0
M  V30 9830 C 924.471 3.61254 -2.29521 0
M  V30 9831 C 923.797 4.97346 -1.96345 0
M  V30 9832 C 925.097 3.66874 -3.71753 0
M  V30 9833 H 926.791 1.89606 -2.31711 0
M  V30 9834 H 924.337 0.910818 -1.11535 0
M  V30 9835 H 926.29 4.04755 -1.17267 0
M  V30 9836 H 925.014 3.2591 -0.212152 0
M  V30 9837 H 923.673 2.85057 -2.30517 0
M  V30 9838 H 923.321 4.93564 -0.969728 0
M  V30 9839 H 923.021 5.21739 -2.703 0
M  V30 9840 H 924.545 5.78244 -1.96129 0
M  V30 9841 H 925.959 4.35514 -3.72828 0
M  V30 9842 H 924.356 4.02772 -4.44853 0
M  V30 9843 H 925.426 2.67273 -4.0459 0
M  V30 9844 N 926.769 1.22769 0.988202 0
M  V30 9845 C 927.994 1.08239 1.76915 0
M  V30 9846 C 928.419 -0.362519 1.84574 0
M  V30 9847 O 927.777 -1.26202 1.30165 0
M  V30 9848 C 927.825 1.70363 3.17819 0
M  V30 9849 O 926.929 0.960484 4.01059 0
M  V30 9850 H 926.27 0.379872 0.544604 0
M  V30 9851 H 928.8 1.62663 1.24104 0
M  V30 9852 H 928.81 1.7528 3.6843 0
M  V30 9853 H 927.485 2.75505 3.1156 0
M  V30 9854 H 926.062 0.987667 3.59582 0
M  V30 9855 N 928.247 -1.18576 1.03814 0
M  V30 9856 C 929.472 -1.92978 0.759873 0
M  V30 9857 C 929.897 -1.75514 -0.676486 0
M  V30 9858 O 929.255 -1.06359 -1.46824 0
M  V30 9859 C 929.303 -3.42507 1.12788 0
M  V30 9860 O 928.407 -4.1163 0.251886 0
M  V30 9861 H 927.748 -0.602129 0.279886 0
M  V30 9862 H 930.278 -1.50383 1.3873 0
M  V30 9863 H 930.288 -3.93206 1.08872 0
M  V30 9864 H 928.963 -3.5454 2.17427 0
M  V30 9865 H 927.54 -3.7125 0.350441 0
M  V30 9866 N 929.725 -0.817259 -1.34754 0
M  V30 9867 C 930.657 -0.192695 -2.28389 0
M  V30 9868 C 931.67 0.614167 -1.50771 0
M  V30 9869 O 932.859 0.444776 -1.7287 0
M  V30 9870 C 929.959 0.748929 -3.30521 0
M  V30 9871 C 929.132 -0.0138762 -4.37398 0
M  V30 9872 C 928.191 0.847825 -5.19325 0
M  V30 9873 O 927.217 0.29487 -5.68436 0
M  V30 9874 N 928.419 2.16843 -5.38479 0
M  V30 9875 H 931.184 -0.997122 -2.82626 0
M  V30 9876 H 928.745 -0.673696 -1.47217 0
M  V30 9877 H 930.737 1.32987 -3.82226 0
M  V30 9878 H 929.307 1.45412 -2.7672 0
M  V30 9879 H 928.527 -0.776093 -3.86485 0
M  V30 9880 H 929.815 -0.539191 -5.05935 0
M  V30 9881 H 929.213 2.64148 -5.00242 0
M  V30 9882 H 927.77 2.69835 -5.93323 0
M  V30 9883 N 931.203 1.46865 -0.571711 0
M  V30 9884 C 932.136 2.27176 0.215944 0
M  V30 9885 C 933.114 1.34951 0.907035 0
M  V30 9886 O 934.298 1.64349 0.923127 0
M  V30 9887 C 931.425 3.12388 1.30888 0
M  V30 9888 C 930.471 4.20296 0.724804 0
M  V30 9889 S 931.304 5.33691 -0.439839 0
M  V30 9890 C 932.46 6.22468 0.654564 0
M  V30 9891 H 932.693 2.93633 -0.465518 0
M  V30 9892 H 930.226 1.50184 -0.358351 0
M  V30 9893 H 932.184 3.62049 1.93471 0
M  V30 9894 H 930.845 2.45265 1.96224 0
M  V30 9895 H 930.038 4.79703 1.54599 0
M  V30 9896 H 929.64 3.73591 0.174861 0
M  V30 9897 H 931.932 6.59694 1.54304 0
M  V30 9898 H 932.875 7.08033 0.0975111 0
M  V30 9899 H 933.283 5.56384 0.953762 0
M  V30 9900 N 932.681 0.308908 1.54543 0
M  V30 9901 C 933.906 -0.303196 2.05172 0
M  V30 9902 C 934.331 -1.46133 1.18434 0
M  V30 9903 O 933.689 -1.803 0.190162 0
M  V30 9904 C 933.737 -0.729526 3.53143 0
M  V30 9905 O 932.841 -1.83348 3.69401 0
M  V30 9906 H 932.182 -0.0575066 0.661505 0
M  V30 9907 H 934.712 0.453055 1.99521 0
M  V30 9908 H 934.722 -1.01619 3.95143 0
M  V30 9909 H 933.397 0.117622 4.15734 0
M  V30 9910 H 931.974 -1.54676 3.39308 0
M  V30 9911 N 934.159 -1.57557 0.0367827 0
M  V30 9912 C 935.384 -1.96828 -0.653707 0
M  V30 9913 C 935.809 -0.913559 -1.64425 0
M  V30 9914 O 935.167 0.124749 -1.8087 0
M  V30 9915 C 935.215 -3.35189 -1.32969 0
M  V30 9916 O 934.319 -3.32095 -2.44513 0
M  V30 9917 H 933.66 -0.64157 -0.171124 0
M  V30 9918 H 936.19 -2.04351 0.100912 0
M  V30 9919 H 936.2 -3.71593 -1.68472 0
M  V30 9920 H 934.875 -4.11496 -0.603654 0
M  V30 9921 H 933.452 -3.07418 -2.11065 0
M  V30 9922 N 935.637 0.236453 -1.55816 0
M  V30 9923 C 936.884 0.963012 -1.78136 0
M  V30 9924 C 937.212 1.84918 -0.602952 0
M  V30 9925 O 936.467 1.91285 0.413325 0
M  V30 9926 C 936.766 1.84549 -3.06066 0
M  V30 9927 C 936.432 1.11381 -4.36927 0
M  V30 9928 C 935.094 0.911635 -4.72486 0
M  V30 9929 C 937.446 0.596 -5.17781 0
M  V30 9930 C 934.774 0.179515 -5.86425 0
M  V30 9931 C 937.126 -0.122702 -6.32481 0
M  V30 9932 C 935.79 -0.336263 -6.66652 0
M  V30 9933 H 935.06 0.352391 -0.651845 0
M  V30 9934 H 937.707 0.232295 -1.90086 0
M  V30 9935 H 936.012 2.6436 -2.89173 0
M  V30 9936 H 937.709 2.40953 -3.20535 0
M  V30 9937 H 934.299 1.28134 -4.08998 0
M  V30 9938 H 938.483 0.73971 -4.90757 0
M  V30 9939 H 933.739 0.00368224 -6.114 0
M  V30 9940 H 937.913 -0.531516 -6.94369 0
M  V30 9941 H 935.54 -0.905507 -7.54788 0
M  V30 9942 N 937.115 1.49373 0.502552 0
M  V30 9943 C 938.063 1.66411 1.62512 0
M  V30 9944 C 939.057 0.530062 1.60893 0
M  V30 9945 O 940.263 0.709648 1.65421 0
M  V30 9946 H 936.638 0.524707 0.538689 0
M  V30 9947 H 938.609 2.60639 1.45293 0
M  V30 9948 C 937.358 1.74648 3.00655 0
M  V30 9949 H 936.681 2.61285 3.02606 0
M  V30 9950 H 938.121 1.90605 3.78742 0
M  V30 9951 C 936.58 0.490963 3.33303 0
M  V30 9952 O 937.11 -0.384039 3.9986 0
M  V30 9953 N 935.316 0.354375 2.88431 0
M  V30 9954 H 934.863 1.06742 2.34444 0
M  V30 9955 H 934.821 -0.484593 3.10643 0
M  V30 9956 N 938.594 -0.753485 1.38421 0
M  V30 9957 C 939.504 -1.89797 1.37892 0
M  V30 9958 C 940.52 -1.71797 0.276023 0
M  V30 9959 O 941.696 -1.94718 0.514464 0
M  V30 9960 C 938.761 -3.25166 1.20284 0
M  V30 9961 C 937.822 -3.55691 2.4038 0
M  V30 9962 C 937.055 -4.84601 2.23602 0
M  V30 9963 O 937.278 -5.56985 1.22979 0
M  V30 9964 O 936.212 -5.14605 3.12194 0
M  V30 9965 H 940.038 -1.93197 2.34326 0
M  V30 9966 H 937.623 -0.898775 1.19342 0
M  V30 9967 H 939.505 -4.06099 1.12525 0
M  V30 9968 H 938.18 -3.22577 0.269352 0
M  V30 9969 H 937.087 -2.74919 2.53714 0
M  V30 9970 H 938.42 -3.6304 3.32359 0
M  V30 9971 N 940.072 -1.23292 -0.981677 0
M  V30 9972 C 941.035 -1.01417 -2.05542 0
M  V30 9973 C 942.035 0.0235354 -1.60783 0
M  V30 9974 O 943.225 -0.216082 -1.72855 0
M  V30 9975 C 940.357 -0.534239 -3.36688 0
M  V30 9976 H 941.55 -1.96702 -2.26381 0
M  V30 9977 H 939.103 -1.05318 -1.1549 0
M  V30 9978 H 939.838 0.422452 -3.21537 0
M  V30 9979 H 939.623 -1.28304 -3.70514 0
M  V30 9980 H 941.113 -0.40179 -4.15663 0
M  V30 9981 N 941.55 1.18024 -1.04442 0
M  V30 9982 C 942.483 2.20623 -0.583171 0
M  V30 9983 C 943.461 1.57994 0.384262 0
M  V30 9984 O 944.645 1.86135 0.297673 0
M  V30 9985 C 941.772 3.38378 0.147561 0
M  V30 9986 C 940.818 4.19423 -0.773711 0
M  V30 9987 S 941.651 4.85534 -2.25869 0
M  V30 9988 C 942.807 6.06686 -1.53891 0
M  V30 9989 H 943.04 2.59406 -1.45244 0
M  V30 9990 H 940.573 1.28518 -0.855708 0
M  V30 9991 H 942.531 4.06621 0.562988 0
M  V30 9992 H 941.192 2.97998 0.992765 0
M  V30 9993 H 940.385 5.03568 -0.208694 0
M  V30 9994 H 939.987 3.56579 -1.12816 0
M  V30 9995 H 942.279 6.72347 -0.834045 0
M  V30 9996 H 943.222 6.67702 -2.35755 0
M  V30 9997 H 943.63 5.55031 -1.02961 0
M  V30 9998 N 943.028 0.824394 1.34319 0
M  V30 9999 C 944.256 0.426194 2.02463 0
M  V30 10000 C 944.671 -0.968298 1.62078 0
M  V30 10001 O 944.028 -1.62689 0.82696 0
M  V30 10002 C 944.079 0.520465 3.57734 0
M  V30 10003 O 943.8 1.86 3.96656 0
M  V30 10004 C 945.301 0.117353 4.43145 0
M  V30 10005 H 942.521 0.170864 0.648881 0
M  V30 10006 H 945.065 1.11296 1.71562 0
M  V30 10007 H 943.22 -0.118233 3.8722 0
M  V30 10008 H 943.634 1.83528 4.91343 0
M  V30 10009 H 945.108 0.234395 5.51502 0
M  V30 10010 H 945.585 -0.939271 4.29039 0
M  V30 10011 H 946.191 0.729908 4.1899 0
M  V30 10012 N 944.506 -1.46559 0.579492 0
M  V30 10013 C 945.438 -2.28383 -0.19337 0
M  V30 10014 C 946.451 -1.38324 -0.858511 0
M  V30 10015 O 947.64 -1.62952 -0.728615 0
M  V30 10016 C 944.74 -3.13262 -1.29306 0
M  V30 10017 C 943.913 -4.31426 -0.720459 0
M  V30 10018 C 942.972 -4.97728 -1.70744 0
M  V30 10019 O 941.998 -5.55423 -1.24476 0
M  V30 10020 N 943.2 -4.94445 -3.04146 0
M  V30 10021 H 945.965 -2.95353 0.508611 0
M  V30 10022 H 943.526 -1.56436 0.417046 0
M  V30 10023 H 945.518 -3.54483 -1.95254 0
M  V30 10024 H 944.088 -2.48388 -1.89795 0
M  V30 10025 H 943.308 -3.94028 0.116398 0
M  V30 10026 H 944.596 -5.07808 -0.31763 0
M  V30 10027 H 943.994 -4.4881 -3.44363 0
M  V30 10028 H 942.551 -5.39616 -3.65592 0
M  V30 10029 N 945.984 -0.3171 -1.54377 0
M  V30 10030 C 947.233 0.288271 -1.99629 0
M  V30 10031 C 947.546 1.53754 -1.2091 0
M  V30 10032 O 948.752 2.2185 -1.56508 0
M  V30 10033 C 947.208 0.564188 -3.5545 0
M  V30 10034 C 946.816 -0.667659 -4.42997 0
M  V30 10035 C 948.56 1.12987 -4.09187 0
M  V30 10036 C 946.467 -0.364003 -5.90279 0
M  V30 10037 H 945.397 0.111492 -0.745711 0
M  V30 10038 H 948.048 -0.428317 -1.78431 0
M  V30 10039 H 946.43 1.34079 -3.72611 0
M  V30 10040 H 947.604 -1.44335 -4.37612 0
M  V30 10041 H 945.919 -1.1531 -4.00116 0
M  V30 10042 H 948.516 1.37157 -5.1681 0
M  V30 10043 H 948.859 2.07722 -3.60773 0
M  V30 10044 H 949.392 0.414595 -3.95634 0
M  V30 10045 H 946.131 -1.28035 -6.42874 0
M  V30 10046 H 945.651 0.374102 -5.98632 0
M  V30 10047 H 947.33 0.0285433 -6.46994 0
M  V30 10048 N 947.462 1.57535 -0.0451378 0
M  V30 10049 C 948.878 1.56533 0.311373 0
M  V30 10050 C 949.078 1.05225 1.71843 0
M  V30 10051 O 948.134 0.706144 2.42425 0
M  V30 10052 C 949.447 3.00349 0.145348 0
M  V30 10053 C 950.995 3.12248 0.216908 0
M  V30 10054 C 951.47 4.57931 0.0794834 0
M  V30 10055 N 952.961 4.63 0.135954 0
M  V30 10056 C 953.696 5.73375 0.0536426 0
M  V30 10057 N 953.192 6.92753 -0.0806725 0
M  V30 10058 N 954.985 5.61995 0.108789 0
M  V30 10059 H 947.136 1.89211 -0.965044 0
M  V30 10060 H 949.399 0.871068 -0.374091 0
M  V30 10061 H 949.105 3.41898 -0.824533 0
M  V30 10062 H 948.979 3.66086 0.908903 0
M  V30 10063 H 951.366 2.70601 1.17726 0
M  V30 10064 H 951.447 2.49201 -0.577299 0
M  V30 10065 H 951.091 5.00262 -0.877516 0
M  V30 10066 H 951.021 5.18977 0.892758 0
M  V30 10067 H 953.512 3.77142 0.23926 0
M  V30 10068 H 953.825 7.7268 -0.136351 0
M  V30 10069 H 952.17 6.94904 -0.115675 0
M  V30 10070 H 955.361 4.67619 0.212235 0
M  V30 10071 H 955.534 6.47987 0.0411822 0
M  V30 10072 N 948.94 -0.228186 1.55939 0
M  V30 10073 C 949.85 -1.30386 1.9503 0
M  V30 10074 C 950.866 -1.51645 0.853218 0
M  V30 10075 O 952.042 -1.64904 1.15623 0
M  V30 10076 C 949.107 -2.63489 2.25332 0
M  V30 10077 C 948.168 -2.5059 3.48573 0
M  V30 10078 C 947.401 -3.77345 3.7742 0
M  V30 10079 O 947.624 -4.80067 3.08045 0
M  V30 10080 O 946.558 -3.74855 4.70922 0
M  V30 10081 H 950.384 -1.0022 2.86687 0
M  V30 10082 H 947.969 -0.430503 1.43063 0
M  V30 10083 H 949.851 -3.4211 2.46046 0
M  V30 10084 H 948.526 -2.93349 1.3685 0
M  V30 10085 H 947.433 -1.70191 3.33145 0
M  V30 10086 H 948.766 -2.2567 4.37417 0
M  V30 10087 N 950.418 -1.49637 -0.494624 0
M  V30 10088 C 951.348 -1.69692 -1.60396 0
M  V30 10089 C 952.329 -0.545648 -1.61111 0
M  V30 10090 O 953.514 -0.782202 -1.77751 0
M  V30 10091 C 950.644 -1.76934 -2.9885 0
M  V30 10092 C 949.598 -2.91915 -3.13001 0
M  V30 10093 C 948.924 -2.84276 -4.5287 0
M  V30 10094 C 950.224 -4.32764 -2.92426 0
M  V30 10095 H 951.918 -2.6257 -1.43866 0
M  V30 10096 H 949.464 -1.26355 -0.690679 0
M  V30 10097 H 951.417 -1.8955 -3.76362 0
M  V30 10098 H 950.141 -0.806609 -3.16483 0
M  V30 10099 H 948.8 -2.78911 -2.37916 0
M  V30 10100 H 948.448 -1.85897 -4.67388 0
M  V30 10101 H 948.148 -3.61452 -4.63278 0
M  V30 10102 H 949.672 -2.98909 -5.32434 0
M  V30 10103 H 951.086 -4.46415 -3.59703 0
M  V30 10104 H 949.483 -5.1121 -3.143 0
M  V30 10105 H 950.553 -4.46765 -1.88491 0
M  V30 10106 N 951.896 0.746133 -1.38819 0
M  V30 10107 C 952.806 1.89063 -1.38897 0
M  V30 10108 C 953.822 1.71648 -0.28513 0
M  V30 10109 O 954.998 1.94443 -0.524783 0
M  V30 10110 C 952.063 3.24523 -1.22007 0
M  V30 10111 C 951.124 3.54411 -2.42263 0
M  V30 10112 C 950.357 4.83408 -2.26169 0
M  V30 10113 O 950.58 5.56325 -1.25931 0
M  V30 10114 O 949.514 5.12943 -3.14918 0
M  V30 10115 H 953.34 1.91951 -2.35347 0
M  V30 10116 H 950.925 0.892433 -1.19816 0
M  V30 10117 H 952.807 4.05496 -1.14677 0
M  V30 10118 H 951.482 3.2243 -0.286455 0
M  V30 10119 H 950.389 2.73569 -2.55168 0
M  V30 10120 H 951.722 3.61273 -3.3428 0
M  V30 10121 N 953.375 1.23811 0.975125 0
M  V30 10122 C 954.285 1.0408 2.10249 0
M  V30 10123 C 955.301 -0.0162404 1.73992 0
M  V30 10124 O 956.477 0.180346 2.00591 0
M  V30 10125 C 953.542 0.640013 3.40741 0
M  V30 10126 C 952.603 1.7727 3.90991 0
M  V30 10127 C 951.836 1.39094 5.15256 0
M  V30 10128 O 952.059 0.277483 5.69725 0
M  V30 10129 O 950.993 2.21392 5.59704 0
M  V30 10130 H 954.819 1.98575 2.29786 0
M  V30 10131 H 952.404 1.02563 1.08633 0
M  V30 10132 H 954.286 0.427684 4.19224 0
M  V30 10133 H 952.961 -0.27589 3.22522 0
M  V30 10134 H 951.868 2.03971 3.13602 0
M  V30 10135 H 953.201 2.66711 4.13674 0
M  V30 10136 N 954.853 -1.17469 1.05066 0
M  V30 10137 C 955.8 -2.21443 0.650512 0
M  V30 10138 C 956.77 -1.62441 -0.346702 0
M  V30 10139 O 957.955 -1.89305 -0.238404 0
M  V30 10140 C 955.095 -3.45087 0.0301014 0
M  V30 10141 C 954.208 -4.18385 1.07599 0
M  V30 10142 C 953.343 -5.29513 0.423038 0
M  V30 10143 C 952.382 -5.94596 1.45333 0
M  V30 10144 N 951.519 -6.97241 0.824623 0
M  V30 10145 H 956.359 -2.55025 1.54163 0
M  V30 10146 H 953.896 -1.25274 0.771032 0
M  V30 10147 H 955.854 -4.15754 -0.347032 0
M  V30 10148 H 954.484 -3.12093 -0.824481 0
M  V30 10149 H 953.536 -3.46446 1.57097 0
M  V30 10150 H 954.848 -4.62899 1.85813 0
M  V30 10151 H 954.002 -6.067 -0.00774975 0
M  V30 10152 H 952.741 -4.86129 -0.391092 0
M  V30 10153 H 951.746 -5.16142 1.89415 0
M  V30 10154 H 952.971 -6.40061 2.26934 0
M  V30 10155 H 950.917 -6.55993 0.0309804 0
M  V30 10156 H 950.834 -7.40059 1.54432 0
M  V30 10157 H 952.102 -7.78375 0.418567 0
M  V30 10158 N 956.331 -0.831506 -1.3388 0
M  V30 10159 C 957.294 -0.264773 -2.27666 0
M  V30 10160 C 958.294 0.562273 -1.50649 0
M  V30 10161 O 959.484 0.377131 -1.70069 0
M  V30 10162 C 956.616 0.627814 -3.35069 0
M  V30 10163 H 957.809 -1.09225 -2.79303 0
M  V30 10164 H 955.362 -0.604021 -1.44157 0
M  V30 10165 H 956.097 1.47802 -2.88661 0
M  V30 10166 H 955.882 0.0361552 -3.92083 0
M  V30 10167 H 957.372 1.01786 -4.05005 0
M  V30 10168 N 957.809 1.4625 -0.587256 0
M  V30 10169 C 958.742 2.27392 0.191837 0
M  V30 10170 C 959.72 1.35905 0.89267 0
M  V30 10171 O 960.904 1.65319 0.905643 0
M  V30 10172 C 958.031 3.13758 1.27567 0
M  V30 10173 C 957.077 4.21041 0.680186 0
M  V30 10174 S 957.91 5.33194 -0.496419 0
M  V30 10175 C 959.066 6.23127 0.588506 0
M  V30 10176 H 959.299 2.93123 -0.496635 0
M  V30 10177 H 956.832 1.49795 -0.37426 0
M  V30 10178 H 958.79 3.6408 1.8962 0
M  V30 10179 H 957.451 2.47332 1.93612 0
M  V30 10180 H 956.644 4.81316 1.49503 0
M  V30 10181 H 956.246 3.73755 0.135227 0
M  V30 10182 H 958.538 6.61294 1.47298 0
M  V30 10183 H 959.481 7.08096 0.0224093 0
M  V30 10184 H 959.889 5.57365 0.894696 0
M  V30 10185 N 959.287 0.325282 1.54207 0
M  V30 10186 C 960.197 -0.548778 2.28091 0
M  V30 10187 C 961.213 -1.12772 1.32508 0
M  V30 10188 O 962.389 -1.14732 1.65525 0
M  V30 10189 C 959.454 -1.69284 3.02562 0
M  V30 10190 C 958.515 -1.14553 4.13734 0
M  V30 10191 C 957.748 -2.23506 4.84645 0
M  V30 10192 O 957.971 -3.43884 4.55082 0
M  V30 10193 O 956.905 -1.88828 5.71513 0
M  V30 10194 H 960.731 0.0512974 3.03657 0
M  V30 10195 H 958.316 0.0909159 1.49123 0
M  V30 10196 H 960.198 -2.35887 3.49192 0
M  V30 10197 H 958.873 -2.27906 2.2987 0
M  V30 10198 H 957.78 -0.444532 3.71449 0
M  V30 10199 H 959.113 -0.60441 4.88475 0
M  V30 10200 N 960.765 -1.57509 0.0534917 0
M  V30 10201 C 961.675 -2.15152 -0.935249 0
M  V30 10202 C 962.691 -1.10991 -1.34003 0
M  V30 10203 O 963.867 -1.43171 -1.41648 0
M  V30 10204 C 960.932 -2.68699 -2.19093 0
M  V30 10205 C 959.993 -3.87666 -1.84428 0
M  V30 10206 C 959.226 -4.3865 -3.0401 0
M  V30 10207 O 959.449 -3.887 -4.17455 0
M  V30 10208 O 958.383 -5.30209 -2.84889 0
M  V30 10209 H 962.209 -2.99962 -0.475009 0
M  V30 10210 H 959.794 -1.48446 -0.16854 0
M  V30 10211 H 961.676 -3.03098 -2.92762 0
M  V30 10212 H 960.351 -1.86958 -2.6425 0
M  V30 10213 H 959.258 -3.58151 -1.08068 0
M  V30 10214 H 960.591 -4.70643 -1.44068 0
M  V30 10215 N 962.243 0.219913 -1.56058 0
M  V30 10216 C 963.173 1.27572 -1.9557 0
M  V30 10217 C 964.154 1.48801 -0.824148 0
M  V30 10218 O 965.339 1.60957 -1.08658 0
M  V30 10219 C 962.469 2.62517 -2.27381 0
M  V30 10220 C 961.423 2.55941 -3.43042 0
M  V30 10221 C 960.749 3.94931 -3.60463 0
M  V30 10222 C 962.049 2.10584 -4.77966 0
M  V30 10223 H 963.743 0.947482 -2.84013 0
M  V30 10224 H 961.289 0.454337 -1.36645 0
M  V30 10225 H 963.242 3.36538 -2.53615 0
M  V30 10226 H 961.966 2.97031 -1.35794 0
M  V30 10227 H 960.625 1.84377 -3.1686 0
M  V30 10228 H 960.273 4.26756 -2.66249 0
M  V30 10229 H 959.973 3.91413 -4.38258 0
M  V30 10230 H 961.497 4.70611 -3.89046 0
M  V30 10231 H 962.911 2.74349 -5.03394 0
M  V30 10232 H 961.308 2.18122 -5.59055 0
M  V30 10233 H 962.378 1.05818 -4.73213 0
M  V30 10234 N 963.721 1.49897 0.486681 0
M  V30 10235 C 964.668 1.67619 1.58658 0
M  V30 10236 C 965.638 0.517537 1.57831 0
M  V30 10237 O 966.823 0.746272 1.756 0
M  V30 10238 C 963.963 1.762 2.96728 0
M  V30 10239 C 963.076 3.03465 3.07462 0
M  V30 10240 C 962.211 3.02937 4.36351 0
M  V30 10241 C 961.25 4.24721 4.4077 0
M  V30 10242 N 960.387 4.22021 5.61108 0
M  V30 10243 H 965.227 2.61528 1.42853 0
M  V30 10244 H 962.764 1.29657 0.694807 0
M  V30 10245 H 964.722 1.79156 3.76774 0
M  V30 10246 H 963.352 0.857452 3.11203 0
M  V30 10247 H 962.404 3.10054 2.20387 0
M  V30 10248 H 963.716 3.93454 3.06586 0
M  V30 10249 H 962.87 3.04536 5.24731 0
M  V30 10250 H 961.609 2.10751 4.39813 0
M  V30 10251 H 960.614 4.23352 3.5079 0
M  V30 10252 H 961.839 5.18116 4.39013 0
M  V30 10253 H 959.785 3.3268 5.65385 0
M  V30 10254 H 959.702 5.05761 5.61909 0
M  V30 10255 H 960.97 4.27743 6.51656 0
M  V30 10256 N 965.199 -0.738761 1.39212 0
M  V30 10257 C 966.109 -1.88324 1.39897 0
M  V30 10258 C 967.125 -1.71494 0.294229 0
M  V30 10259 O 968.301 -1.94162 0.535087 0
M  V30 10260 C 965.366 -3.23871 1.23726 0
M  V30 10261 C 964.427 -3.53121 2.44139 0
M  V30 10262 C 963.66 -4.82202 2.2873 0
M  V30 10263 O 963.883 -5.55649 1.28879 0
M  V30 10264 O 962.817 -5.11265 3.17634 0
M  V30 10265 H 966.643 -1.90701 2.36362 0
M  V30 10266 H 964.228 -0.886067 1.20288 0
M  V30 10267 H 966.11 -4.04882 1.16826 0
M  V30 10268 H 964.785 -3.22274 0.303551 0
M  V30 10269 H 963.692 -2.72212 2.56615 0
M  V30 10270 H 965.025 -3.59495 3.36191 0
M  V30 10271 N 966.677 -1.24326 -0.968545 0
M  V30 10272 C 967.926 -1.07647 -1.70572 0
M  V30 10273 C 968.239 0.384821 -1.91777 0
M  V30 10274 O 969.445 0.671782 -2.63058 0
M  V30 10275 C 967.901 -1.87799 -3.07017 0
M  V30 10276 C 967.509 -3.38333 -2.93658 0
M  V30 10277 C 969.253 -1.79647 -3.84613 0
M  V30 10278 C 967.16 -4.10831 -4.25407 0
M  V30 10279 H 966.09 -0.399216 -0.639642 0
M  V30 10280 H 968.741 -1.484 -1.07934 0
M  V30 10281 H 967.123 -1.3986 -3.7048 0
M  V30 10282 H 968.297 -3.93845 -2.39213 0
M  V30 10283 H 966.612 -3.47427 -2.29528 0
M  V30 10284 H 969.209 -2.31116 -4.82172 0
M  V30 10285 H 969.552 -0.761553 -4.09275 0
M  V30 10286 H 970.085 -2.25261 -3.27875 0
M  V30 10287 H 966.824 -5.14679 -4.05939 0
M  V30 10288 H 966.344 -3.60105 -4.79671 0
M  V30 10289 H 968.023 -4.17783 -4.94031 0
M  V30 10290 N 968.156 1.1691 -1.05688 0
M  V30 10291 C 969.405 1.86629 -0.765022 0
M  V30 10292 C 969.718 1.82223 0.710918 0
M  V30 10293 O 970.924 2.47462 1.11691 0
M  V30 10294 C 969.38 3.34886 -1.3183 0
M  V30 10295 C 968.988 3.47781 -2.82404 0
M  V30 10296 C 970.732 4.099 -1.10372 0
M  V30 10297 C 968.639 4.9009 -3.31008 0
M  V30 10298 H 967.569 0.699082 -0.282491 0
M  V30 10299 H 970.22 1.31989 -1.27481 0
M  V30 10300 H 968.602 3.89094 -0.736312 0
M  V30 10301 H 969.776 3.03765 -3.46502 0
M  V30 10302 H 968.091 2.86193 -3.02461 0
M  V30 10303 H 970.688 5.14894 -1.4418 0
M  V30 10304 H 971.031 4.16279 -0.0417372 0
M  V30 10305 H 971.564 3.61913 -1.65117 0
M  V30 10306 H 968.303 4.88887 -4.36657 0
M  V30 10307 H 967.823 5.34756 -2.71655 0
M  V30 10308 H 969.502 5.58881 -3.25977 0
M  V30 10309 N 969.634 0.838594 1.33437 0
M  V30 10310 C 970.566 0.229006 2.28053 0
M  V30 10311 C 971.579 -0.590103 1.51729 0
M  V30 10312 O 972.768 -0.417218 1.73556 0
M  V30 10313 C 969.868 -0.696251 3.31671 0
M  V30 10314 C 969.041 0.0834606 4.3732 0
M  V30 10315 C 968.1 -0.765097 5.20608 0
M  V30 10316 O 967.126 -0.2044 5.68833 0
M  V30 10317 N 968.328 -2.08249 5.4186 0
M  V30 10318 H 971.093 1.04196 2.81004 0
M  V30 10319 H 968.654 0.697031 1.46127 0
M  V30 10320 H 970.646 -1.26889 3.84293 0
M  V30 10321 H 969.216 -1.40992 2.78998 0
M  V30 10322 H 968.436 0.837481 3.85201 0
M  V30 10323 H 969.724 0.619613 5.05013 0
M  V30 10324 H 969.122 -2.56156 5.04381 0
M  V30 10325 H 967.679 -2.60362 5.97541 0
M  V30 10326 N 971.112 -1.45937 0.595003 0
M  V30 10327 C 972.044 -2.28575 -0.169137 0
M  V30 10328 C 973.057 -1.39226 -0.843792 0
M  V30 10329 O 974.246 -1.63716 -0.711291 0
M  V30 10330 C 971.346 -3.14616 -1.25976 0
M  V30 10331 C 970.519 -4.32166 -0.67466 0
M  V30 10332 C 969.578 -4.99511 -1.65456 0
M  V30 10333 O 968.604 -5.56712 -1.18578 0
M  V30 10334 N 969.806 -4.97643 -2.98885 0
M  V30 10335 H 972.571 -2.94797 0.539908 0
M  V30 10336 H 970.132 -1.55985 0.433614 0
M  V30 10337 H 972.124 -3.56534 -1.91483 0
M  V30 10338 H 970.694 -2.50387 -1.8715 0
M  V30 10339 H 969.914 -3.93882 0.158184 0
M  V30 10340 H 971.202 -5.08116 -0.263753 0
M  V30 10341 H 970.6 -4.52438 -3.39583 0
M  V30 10342 H 969.157 -5.43463 -3.59848 0
M  V30 10343 N 972.59 -0.333456 -1.54032 0
M  V30 10344 C 973.838 0.265608 -2.00347 0
M  V30 10345 C 974.159 1.51873 -1.2231 0
M  V30 10346 O 973.429 1.93142 -0.327549 0
M  V30 10347 H 972.009 0.101135 -0.740122 0
M  V30 10348 H 974.671 -0.452285 -1.8958 0
M  V30 10349 H 973.767 0.51511 -3.0782 0
M  V30 10350 N 974.068 1.57479 -0.061844 0
M  V30 10351 C 975.479 1.80627 0.472295 0
M  V30 10352 C 975.83 0.97496 1.70261 0
M  V30 10353 O 974.955 0.1946 2.15523 0
M  V30 10354 C 975.55 3.27608 0.863616 0
M  V30 10355 C 974.109 3.51638 1.34267 0
M  V30 10356 C 973.256 2.75412 0.323009 0
M  V30 10357 H 976.207 1.56072 -0.287634 0
M  V30 10358 H 976.228 3.39113 1.72577 0
M  V30 10359 H 975.74 3.88087 -0.0320226 0
M  V30 10360 H 973.841 2.96452 2.25714 0
M  V30 10361 H 973.954 4.60342 1.32747 0
M  V30 10362 H 972.318 2.4187 0.798175 0
M  V30 10363 H 973.101 3.38623 -0.564729 0
M  V30 10364 N 975.546 -0.211634 1.56173 0
M  V30 10365 C 976.823 -0.959467 1.70451 0
M  V30 10366 C 977.203 -2.02036 0.611942 0
M  V30 10367 O 976.551 -2.25325 -0.37959 0
M  V30 10368 C 976.761 -1.56092 3.12148 0
M  V30 10369 C 978.109 -2.04939 3.71867 0
M  V30 10370 O 979.133 -1.65966 3.15172 0
M  V30 10371 O 977.992 -2.766 4.71333 0
M  V30 10372 H 975.086 -0.448844 0.6946 0
M  V30 10373 H 977.632 -0.202633 1.68486 0
M  V30 10374 H 976.404 -0.79538 3.83131 0
M  V30 10375 H 976.027 -2.38303 3.18273 0
M  V30 10376 N 977.024 -1.50153 -0.478725 0
M  V30 10377 C 978.27 -1.61968 -1.23036 0
M  V30 10378 C 978.625 -0.312529 -1.89845 0
M  V30 10379 O 977.918 0.688995 -1.78783 0
M  V30 10380 C 978.112 -2.73208 -2.30417 0
M  V30 10381 C 977.941 -4.14614 -1.74142 0
M  V30 10382 C 976.711 -4.81116 -1.54452 0
M  V30 10383 C 978.909 -4.99111 -1.24066 0
M  V30 10384 N 976.891 -6.06763 -0.933399 0
M  V30 10385 C 978.262 -6.15419 -0.752286 0
M  V30 10386 C 980.317 -4.84943 -1.12849 0
M  V30 10387 C 979.02 -7.19116 -0.162808 0
M  V30 10388 C 981.046 -5.88809 -0.552955 0
M  V30 10389 C 980.408 -7.0436 -0.0749195 0
M  V30 10390 H 976.507 -0.646894 -0.439377 0
M  V30 10391 H 979.091 -1.87244 -0.53364 0
M  V30 10392 H 977.262 -2.49667 -2.97525 0
M  V30 10393 H 978.994 -2.74423 -2.97446 0
M  V30 10394 H 975.749 -4.38282 -1.7946 0
M  V30 10395 H 976.173 -6.73906 -0.64647 0
M  V30 10396 H 980.815 -3.959 -1.48402 0
M  V30 10397 H 978.533 -8.0784 0.204943 0
M  V30 10398 H 982.119 -5.7991 -0.468633 0
M  V30 10399 H 980.999 -7.83357 0.363455 0
M  V30 10400 N 978.502 0.731368 -1.39602 0
M  V30 10401 C 979.432 1.85855 -1.41351 0
M  V30 10402 C 980.413 1.67839 -0.2764 0
M  V30 10403 O 981.598 1.88104 -0.482747 0
M  V30 10404 C 978.728 3.23644 -1.25983 0
M  V30 10405 C 977.682 3.56304 -2.37132 0
M  V30 10406 C 977.008 4.93069 -2.0685 0
M  V30 10407 C 978.308 3.58906 -3.79452 0
M  V30 10408 H 980.002 1.84648 -2.3568 0
M  V30 10409 H 977.548 0.886955 -1.13442 0
M  V30 10410 H 979.501 4.02176 -1.25826 0
M  V30 10411 H 978.225 3.25387 -0.281234 0
M  V30 10412 H 976.884 2.80104 -2.36511 0
M  V30 10413 H 976.532 4.91396 -1.0742 0
M  V30 10414 H 976.232 5.15888 -2.81306 0
M  V30 10415 H 977.756 5.73953 -2.0835 0
M  V30 10416 H 979.17 4.27508 -3.81982 0
M  V30 10417 H 977.567 3.93246 -4.53297 0
M  V30 10418 H 978.637 2.58631 -4.10168 0
M  V30 10419 N 979.98 1.24838 0.961938 0
M  V30 10420 C 980.89 1.06304 2.09133 0
M  V30 10421 C 981.906 0.00221475 1.74 0
M  V30 10422 O 983.082 0.201611 2.00388 0
M  V30 10423 C 980.147 0.676117 3.40043 0
M  V30 10424 C 979.208 1.81407 3.89089 0
M  V30 10425 C 978.441 1.44551 5.13752 0
M  V30 10426 O 978.664 0.337894 5.69398 0
M  V30 10427 O 977.598 2.27316 5.57325 0
M  V30 10428 H 981.424 2.01001 2.27667 0
M  V30 10429 H 979.009 1.0371 1.07539 0
M  V30 10430 H 980.891 0.472124 4.18747 0
M  V30 10431 H 979.566 -0.241667 3.22797 0
M  V30 10432 H 978.473 2.07286 3.11421 0
M  V30 10433 H 979.806 2.71083 4.10822 0
M  V30 10434 N 981.458 -1.16348 1.06306 0
M  V30 10435 C 982.388 -2.2291 0.695234 0
M  V30 10436 C 983.369 -1.67208 -0.312343 0
M  V30 10437 O 984.554 -1.93293 -0.187442 0
M  V30 10438 C 981.684 -3.47205 0.0810149 0
M  V30 10439 C 980.638 -4.15801 1.01458 0
M  V30 10440 C 979.964 -5.3405 0.263656 0
M  V30 10441 C 981.264 -4.66766 2.34365 0
M  V30 10442 H 982.958 -2.53934 1.58613 0
M  V30 10443 H 980.504 -1.22056 0.76409 0
M  V30 10444 H 982.457 -4.2098 -0.18818 0
M  V30 10445 H 981.181 -3.15482 -0.844897 0
M  V30 10446 H 979.84 -3.43954 1.26852 0
M  V30 10447 H 979.488 -4.9858 -0.665378 0
M  V30 10448 H 979.188 -5.80885 0.88582 0
M  V30 10449 H 980.712 -6.106 0.00200994 0
M  V30 10450 H 982.126 -5.3212 2.13356 0
M  V30 10451 H 980.523 -5.24223 2.9208 0
M  V30 10452 H 981.593 -3.82969 2.97426 0
M  V30 10453 N 982.937 -0.845659 -1.3299 0
M  V30 10454 C 984.162 -0.457435 -2.02293 0
M  V30 10455 C 984.587 0.935634 -1.63179 0
M  V30 10456 O 983.945 1.61297 -0.827835 0
M  V30 10457 C 983.993 -0.593665 -3.5568 0
M  V30 10458 O 983.097 0.37729 -4.10671 0
M  V30 10459 H 982.438 -0.185022 -0.637701 0
M  V30 10460 H 984.968 -1.14237 -1.69738 0
M  V30 10461 H 984.978 -0.477834 -4.05192 0
M  V30 10462 H 983.653 -1.60957 -3.83491 0
M  V30 10463 H 982.23 0.218448 -3.7226 0
M  V30 10464 N 984.415 1.45619 -0.602734 0
M  V30 10465 C 985.325 2.34288 0.120902 0
M  V30 10466 C 986.341 1.50952 0.865414 0
M  V30 10467 O 987.517 1.83768 0.824094 0
M  V30 10468 C 984.582 3.28489 1.10888 0
M  V30 10469 C 983.643 4.2773 0.366853 0
M  V30 10470 C 982.876 5.17429 1.30776 0
M  V30 10471 O 983.099 5.10459 2.54535 0
M  V30 10472 O 982.033 5.96459 0.807464 0
M  V30 10473 H 985.859 2.97559 -0.60765 0
M  V30 10474 H 983.444 1.44922 -0.363019 0
M  V30 10475 H 985.326 3.86549 1.67803 0
M  V30 10476 H 984.001 2.67789 1.81854 0
M  V30 10477 H 982.908 3.73299 -0.244643 0
M  V30 10478 H 984.241 4.91271 -0.302226 0
M  V30 10479 N 985.893 0.34162 1.53853 0
M  V30 10480 C 986.826 -0.559051 2.21246 0
M  V30 10481 C 987.804 -1.10179 1.1958 0
M  V30 10482 O 988.988 -1.16242 1.48392 0
M  V30 10483 C 986.115 -1.7689 2.88838 0
M  V30 10484 C 985.161 -1.3558 4.04377 0
M  V30 10485 S 985.994 -0.377225 5.3417 0
M  V30 10486 C 987.15 -1.59395 6.05264 0
M  V30 10487 H 987.383 0.013373 2.97297 0
M  V30 10488 H 984.916 0.125694 1.53888 0
M  V30 10489 H 986.874 -2.463 3.284 0
M  V30 10490 H 985.535 -2.31254 2.12557 0
M  V30 10491 H 984.728 -2.25781 4.50599 0
M  V30 10492 H 984.33 -0.741197 3.66582 0
M  V30 10493 H 986.622 -2.52872 6.2854 0
M  V30 10494 H 987.565 -1.17356 6.98307 0
M  V30 10495 H 987.973 -1.78913 5.35397 0
M  V30 10496 N 987.371 -1.57444 0.0701946 0
M  V30 10497 C 988.599 -1.97754 -0.608358 0
M  V30 10498 C 989.014 -0.948496 -1.63245 0
M  V30 10499 O 988.371 0.065046 -1.82384 0
M  V30 10500 C 988.422 -3.38142 -1.27836 0
M  V30 10501 O 988.143 -4.37104 -0.295255 0
M  V30 10502 C 989.644 -3.93318 -2.04489 0
M  V30 10503 H 986.864 -0.650398 -0.164997 0
M  V30 10504 H 989.408 -2.04006 0.142124 0
M  V30 10505 H 987.563 -3.32982 -1.97994 0
M  V30 10506 H 987.977 -5.18732 -0.77574 0
M  V30 10507 H 989.451 -4.93774 -2.46762 0
M  V30 10508 H 989.928 -3.29774 -2.90079 0
M  V30 10509 H 990.534 -4.01875 -1.39201 0
M  V30 10510 N 988.849 0.203349 -1.56283 0
M  V30 10511 C 989.759 1.27266 -1.9708 0
M  V30 10512 C 990.775 1.50268 -0.877236 0
M  V30 10513 O 991.951 1.63044 -1.18231 0
M  V30 10514 C 989.016 2.59871 -2.29495 0
M  V30 10515 C 988.077 2.45012 -3.52516 0
M  V30 10516 C 987.31 3.71293 -3.83376 0
M  V30 10517 O 987.533 4.75106 -3.15643 0
M  V30 10518 O 986.467 3.67316 -4.76826 0
M  V30 10519 H 990.293 0.956461 -2.88246 0
M  V30 10520 H 987.878 0.407688 -1.4373 0
M  V30 10521 H 989.76 3.38152 -2.51458 0
M  V30 10522 H 988.435 2.91135 -1.415 0
M  V30 10523 H 987.342 1.6487 -3.35811 0
M  V30 10524 H 988.675 2.18683 -4.40952 0
M  V30 10525 N 990.327 1.50405 0.470755 0
M  V30 10526 C 991.259 1.65447 1.58619 0
M  V30 10527 C 992.272 0.535949 1.53725 0
M  V30 10528 O 993.461 0.80914 1.59107 0
M  V30 10529 C 990.561 1.62318 2.975 0
M  V30 10530 C 989.734 2.90207 3.27259 0
M  V30 10531 C 988.793 2.79717 4.45696 0
M  V30 10532 O 987.819 3.53672 4.45987 0
M  V30 10533 N 989.021 1.93296 5.47373 0
M  V30 10534 H 991.786 2.61659 1.46132 0
M  V30 10535 H 989.347 1.47873 0.659178 0
M  V30 10536 H 991.339 1.52912 3.747 0
M  V30 10537 H 989.909 0.738392 3.03754 0
M  V30 10538 H 989.129 3.13737 2.38669 0
M  V30 10539 H 990.417 3.74931 3.43953 0
M  V30 10540 H 989.815 1.32524 5.49958 0
M  V30 10541 H 988.372 1.89793 6.23556 0
M  V30 10542 N 991.805 -0.723954 1.39988 0
M  V30 10543 C 993.216 -1.30273 1.33738 0
M  V30 10544 C 993.567 -1.96199 0.00690581 0
M  V30 10545 O 992.692 -1.97016 -0.895179 0
M  V30 10546 C 993.287 -2.36889 2.42217 0
M  V30 10547 C 991.846 -2.90412 2.39453 0
M  V30 10548 C 990.993 -1.64103 2.2353 0
M  V30 10549 H 993.944 -0.520672 1.49916 0
M  V30 10550 H 993.965 -3.17538 2.09642 0
M  V30 10551 H 993.477 -1.88878 3.39038 0
M  V30 10552 H 991.578 -3.42674 1.46304 0
M  V30 10553 H 991.691 -3.42775 3.34727 0
M  V30 10554 H 990.055 -1.88855 1.70897 0
M  V30 10555 H 990.838 -1.18128 3.22336 0
M  V30 10556 N 993.283 -1.25346 -0.955304 0
M  V30 10557 C 994.56 -1.00829 -1.67609 0
M  V30 10558 C 994.94 0.465675 -2.059 0
M  V30 10559 O 994.288 1.44287 -1.77182 0
M  V30 10560 C 994.498 -1.94337 -2.89886 0
M  V30 10561 C 995.846 -2.22142 -3.61854 0
M  V30 10562 O 996.87 -1.9209 -2.99967 0
M  V30 10563 O 995.729 -2.73239 -4.73289 0
M  V30 10564 H 992.823 -0.382314 -0.733325 0
M  V30 10565 H 995.369 -1.36498 -1.00829 0
M  V30 10566 H 994.141 -2.93867 -2.58376 0
M  V30 10567 H 993.764 -1.59062 -3.64397 0
M  V30 10568 N 994.761 1.15782 -1.06922 0
M  V30 10569 C 995.991 1.90079 -0.809545 0
M  V30 10570 C 996.399 1.78028 0.640523 0
M  V30 10571 O 995.742 1.12692 1.45073 0
M  V30 10572 C 995.804 3.41179 -1.13302 0
M  V30 10573 C 995.468 3.77015 -2.5828 0
M  V30 10574 C 996.465 3.78403 -3.56521 0
M  V30 10575 C 994.15 4.07455 -2.93745 0
M  V30 10576 C 996.144 4.09729 -4.88264 0
M  V30 10577 C 993.831 4.38446 -4.25686 0
M  V30 10578 C 994.829 4.39564 -5.22755 0
M  V30 10579 O 994.517 4.69814 -6.52326 0
M  V30 10580 H 994.249 0.609397 -0.292595 0
M  V30 10581 H 996.803 1.47654 -1.42784 0
M  V30 10582 H 995.033 3.83982 -0.457676 0
M  V30 10583 H 996.722 3.96759 -0.856586 0
M  V30 10584 H 997.488 3.54991 -3.30464 0
M  V30 10585 H 993.367 4.05746 -2.1884 0
M  V30 10586 H 996.911 4.10516 -5.64023 0
M  V30 10587 H 992.808 4.61325 -4.51497 0
M  V30 10588 H 993.576 4.87598 -6.57412 0
M  V30 10589 N 996.239 0.8527 1.3254 0
M  V30 10590 C 997.516 0.376491 1.91942 0
M  V30 10591 C 997.896 -1.13972 1.7769 0
M  V30 10592 O 997.244 -1.96047 1.17379 0
M  V30 10593 C 997.454 0.838694 3.38773 0
M  V30 10594 C 998.802 0.854736 4.15908 0
M  V30 10595 O 999.826 0.783203 3.47483 0
M  V30 10596 O 998.685 0.955207 5.38087 0
M  V30 10597 H 995.779 0.109412 0.81973 0
M  V30 10598 H 998.325 0.93947 1.41322 0
M  V30 10599 H 997.097 1.88179 3.43081 0
M  V30 10600 H 996.72 0.253055 3.96794 0
M  V30 10601 N 997.718 -1.45297 0.610449 0
M  V30 10602 C 998.648 -2.33311 -0.0939698 0
M  V30 10603 C 999.629 -1.46999 -0.85588 0
M  V30 10604 O 1000.81 -1.75764 -0.825865 0
M  V30 10605 C 997.944 -3.29751 -1.09003 0
M  V30 10606 C 996.898 -4.2572 -0.441146 0
M  V30 10607 C 996.224 -5.11873 -1.54566 0
M  V30 10608 C 997.524 -5.1837 0.639489 0
M  V30 10609 H 999.218 -2.92459 0.640941 0
M  V30 10610 H 996.764 -1.40631 0.309675 0
M  V30 10611 H 998.717 -3.90195 -1.59141 0
M  V30 10612 H 997.441 -2.68768 -1.85557 0
M  V30 10613 H 996.1 -3.66579 0.0393908 0
M  V30 10614 H 995.748 -4.47256 -2.30155 0
M  V30 10615 H 995.448 -5.76886 -1.11698 0
M  V30 10616 H 996.972 -5.75185 -2.04925 0
M  V30 10617 H 998.386 -5.7287 0.22207 0
M  V30 10618 H 996.783 -5.91876 0.990089 0
M  V30 10619 H 997.853 -4.60627 1.51495 0
M  V30 10620 N 999.196 -0.349774 -1.5367 0
M  V30 10621 C 1000.11 0.512421 -2.28935 0
M  V30 10622 C 1001.12 1.1065 -1.34286 0
M  V30 10623 O 1002.3 1.12084 -1.67329 0
M  V30 10624 C 999.363 1.64449 -3.05217 0
M  V30 10625 C 998.424 1.07956 -4.15505 0
M  V30 10626 C 997.657 2.15768 -4.88139 0
M  V30 10627 O 997.88 3.366 -4.60496 0
M  V30 10628 O 996.814 1.79712 -5.74445 0
M  V30 10629 H 1000.64 -0.0996001 -3.03537 0
M  V30 10630 H 998.225 -0.114629 -1.4896 0
M  V30 10631 H 1000.11 2.30302 -3.52901 0
M  V30 10632 H 998.782 2.24221 -2.33467 0
M  V30 10633 H 997.689 0.385381 -3.7211 0
M  V30 10634 H 999.022 0.526621 -4.89375 0
M  V30 10635 N 1000.67 1.57404 -0.0785433 0
M  V30 10636 C 1001.9 1.98074 0.597862 0
M  V30 10637 C 1002.32 0.95714 1.6274 0
M  V30 10638 O 1001.67 -0.0553728 1.82416 0
M  V30 10639 C 1001.72 3.38815 1.26041 0
M  V30 10640 O 1001.45 4.37254 0.27207 0
M  V30 10641 C 1002.95 3.94397 2.024 0
M  V30 10642 H 1000.17 0.651263 0.161546 0
M  V30 10643 H 1002.71 2.03927 -0.152941 0
M  V30 10644 H 1000.87 3.34028 1.96225 0
M  V30 10645 H 1001.28 5.19136 0.74822 0
M  V30 10646 H 1002.75 4.95075 2.4414 0
M  V30 10647 H 1003.23 3.31308 2.88326 0
M  V30 10648 H 1003.84 4.02607 1.37068 0
M  V30 10649 N 1002.15 -0.195058 1.56388 0
M  V30 10650 C 1003.4 -0.915444 1.80626 0
M  V30 10651 C 1003.73 -1.83255 0.651768 0
M  V30 10652 O 1002.98 -1.92314 -0.362464 0
M  V30 10653 C 1003.28 -1.7637 3.10851 0
M  V30 10654 C 1002.95 -0.997572 4.39726 0
M  V30 10655 C 1001.61 -0.786043 4.74737 0
M  V30 10656 C 1003.96 -0.45851 5.19179 0
M  V30 10657 C 1001.29 -0.023972 5.86695 0
M  V30 10658 C 1003.64 0.29035 6.31933 0
M  V30 10659 C 1002.3 0.512895 6.65527 0
M  V30 10660 H 1001.57 -0.334985 0.660959 0
M  V30 10661 H 1004.22 -0.181815 1.90635 0
M  V30 10662 H 1002.53 -2.566 2.9608 0
M  V30 10663 H 1004.22 -2.3237 3.26811 0
M  V30 10664 H 1000.81 -1.17245 4.12252 0
M  V30 10665 H 1005 -0.609334 4.92545 0
M  V30 10666 H 1000.25 0.158421 6.11195 0
M  V30 10667 H 1004.43 0.715429 6.92715 0
M  V30 10668 H 1002.05 1.10531 7.52122 0
M  V30 10669 N 1003.63 -1.50653 -0.462772 0
M  V30 10670 C 1004.88 -1.62297 -1.21603 0
M  V30 10671 C 1005.21 -0.326191 -1.91441 0
M  V30 10672 O 1004.48 0.67284 -1.82491 0
M  V30 10673 C 1004.77 -2.80901 -2.25315 0
M  V30 10674 C 1004.62 -4.20484 -1.59728 0
M  V30 10675 C 1005.94 -2.95049 -3.26549 0
M  V30 10676 H 1003.06 -0.590691 -0.440741 0
M  V30 10677 H 1005.7 -1.83064 -0.508675 0
M  V30 10678 H 1003.85 -2.63325 -2.85643 0
M  V30 10679 H 1005.52 -4.49669 -1.02932 0
M  V30 10680 H 1003.76 -4.24357 -0.900181 0
M  V30 10681 H 1004.44 -4.99416 -2.35133 0
M  V30 10682 H 1006.91 -3.11166 -2.76251 0
M  V30 10683 H 1005.79 -3.79645 -3.96435 0
M  V30 10684 H 1006.05 -2.06019 -3.91163 0
M  V30 10685 N 1005.11 0.71652 -1.4037 0
M  V30 10686 C 1006.06 1.85194 -1.40734 0
M  V30 10687 C 1007.05 1.66934 -0.287969 0
M  V30 10688 O 1008.26 1.74051 -0.458957 0
M  V30 10689 H 1004.63 0.609922 -0.439885 0
M  V30 10690 H 1006.6 1.82003 -2.36468 0
M  V30 10691 C 1005.35 3.23048 -1.28589 0
M  V30 10692 H 1004.67 3.37704 -2.13999 0
M  V30 10693 H 1006.11 4.02633 -1.32902 0
M  V30 10694 C 1004.57 3.369 0.00396512 0
M  V30 10695 O 1005.1 3.89881 0.967243 0
M  V30 10696 N 1003.31 2.90508 0.0731565 0
M  V30 10697 H 1002.86 2.4758 -0.711454 0
M  V30 10698 H 1002.81 3.00155 0.935652 0
M  V30 10699 N 1006.59 1.25851 0.948643 0
M  V30 10700 C 1007.53 1.06759 2.04625 0
M  V30 10701 C 1008.5 -0.0251144 1.66081 0
M  V30 10702 O 1009.69 0.133221 1.90334 0
M  V30 10703 C 1006.83 0.698724 3.37952 0
M  V30 10704 C 1005.94 1.8669 3.89578 0
M  V30 10705 C 1005.08 1.44184 5.11258 0
M  V30 10706 C 1004.12 2.57878 5.55126 0
M  V30 10707 N 1003.25 2.16106 6.68014 0
M  V30 10708 H 1008.09 2.00691 2.20289 0
M  V30 10709 H 1005.63 0.999327 1.07944 0
M  V30 10710 H 1007.59 0.465788 4.14592 0
M  V30 10711 H 1006.22 -0.203618 3.22157 0
M  V30 10712 H 1005.27 2.21298 3.09405 0
M  V30 10713 H 1006.58 2.72051 4.18079 0
M  V30 10714 H 1005.74 1.16891 5.95333 0
M  V30 10715 H 1004.47 0.559035 4.84485 0
M  V30 10716 H 1003.48 2.85909 4.69612 0
M  V30 10717 H 1004.7 3.46747 5.83904 0
M  V30 10718 H 1002.65 1.3025 6.42939 0
M  V30 10719 H 1002.57 2.95012 6.96063 0
M  V30 10720 H 1003.84 1.92005 7.55483 0
M  V30 10721 N 1008.06 -1.15214 1.07534 0
M  V30 10722 C 1009.03 -2.18209 0.701237 0
M  V30 10723 C 1010.03 -1.58693 -0.25946 0
M  V30 10724 O 1011.22 -1.74154 -0.0401744 0
M  V30 10725 C 1008.35 -3.40883 0.0338703 0
M  V30 10726 H 1009.54 -2.5282 1.61314 0
M  V30 10727 H 1007.1 -1.29707 0.872105 0
M  V30 10728 H 1007.83 -3.11843 -0.890187 0
M  V30 10729 H 1007.62 -3.85342 0.72486 0
M  V30 10730 H 1009.11 -4.17056 -0.213152 0
M  V30 10731 N 1009.54 -0.859717 -1.32086 0
M  V30 10732 C 1010.45 -0.31108 -2.32528 0
M  V30 10733 C 1011.47 0.573714 -1.6427 0
M  V30 10734 O 1012.64 0.472878 -1.9577 0
M  V30 10735 C 1009.71 0.487256 -3.43259 0
M  V30 10736 C 1008.77 -0.424279 -4.27198 0
M  V30 10737 C 1008 0.336051 -5.32641 0
M  V30 10738 O 1008.23 1.56541 -5.48499 0
M  V30 10739 O 1007.16 -0.300777 -6.01148 0
M  V30 10740 H 1010.99 -1.14336 -2.81355 0
M  V30 10741 H 1008.57 -0.622794 -1.358 0
M  V30 10742 H 1010.45 0.940203 -4.10777 0
M  V30 10743 H 1009.13 1.29626 -2.96612 0
M  V30 10744 H 1008.04 -0.925509 -3.62471 0
M  V30 10745 H 1009.37 -1.1986 -4.77383 0
M  V30 10746 N 1011.02 1.44971 -0.618145 0
M  V30 10747 C 1012.25 2.07039 -0.122395 0
M  V30 10748 C 1012.67 1.45793 1.18853 0
M  V30 10749 O 1012.03 0.55453 1.72611 0
M  V30 10750 C 1012.08 3.60599 -0.0073864 0
M  V30 10751 O 1011.18 3.99069 1.04007 0
M  V30 10752 H 1010.52 0.6593 -0.0788615 0
M  V30 10753 H 1013.05 1.86055 -0.851147 0
M  V30 10754 H 1013.06 4.07569 0.187417 0
M  V30 10755 H 1011.74 4.04561 -0.964544 0
M  V30 10756 H 1010.31 3.63753 0.820879 0
M  V30 10757 N 1012.5 0.357919 1.53482 0
M  V30 10758 C 1013.46 -0.479797 2.24122 0
M  V30 10759 C 1014.46 -1.01596 1.24639 0
M  V30 10760 O 1015.65 -0.902928 1.48973 0
M  V30 10761 C 1012.78 -1.66983 2.97203 0
M  V30 10762 H 1013.98 0.138219 2.99581 0
M  V30 10763 H 1011.53 0.109484 1.55916 0
M  V30 10764 H 1012.26 -2.32615 2.25966 0
M  V30 10765 H 1012.05 -1.29242 3.70188 0
M  V30 10766 H 1013.54 -2.26367 3.50924 0
M  V30 10767 N 1013.98 -1.5736 0.0868897 0
M  V30 10768 C 1014.91 -2.16596 -0.872252 0
M  V30 10769 C 1015.89 -1.09706 -1.29995 0
M  V30 10770 O 1017.07 -1.37808 -1.36831 0
M  V30 10771 C 1014.2 -2.73972 -2.1344 0
M  V30 10772 C 1013.16 -3.86163 -1.8456 0
M  V30 10773 C 1012.48 -4.30206 -3.17533 0
M  V30 10774 C 1013.78 -5.0973 -1.13899 0
M  V30 10775 H 1015.48 -2.96995 -0.378738 0
M  V30 10776 H 1013.02 -1.42861 -0.18073 0
M  V30 10777 H 1014.98 -3.14062 -2.80968 0
M  V30 10778 H 1013.7 -1.90817 -2.6506 0
M  V30 10779 H 1012.36 -3.466 -1.19432 0
M  V30 10780 H 1012.01 -3.43951 -3.67024 0
M  V30 10781 H 1011.71 -5.05841 -2.98996 0
M  V30 10782 H 1013.23 -4.72922 -3.86234 0
M  V30 10783 H 1014.64 -5.4704 -1.71523 0
M  V30 10784 H 1013.04 -5.90741 -1.05569 0
M  V30 10785 H 1014.11 -4.8475 -0.120432 0
M  V30 10786 N 1015.45 0.186762 -1.56489 0
M  V30 10787 C 1016.42 1.21511 -1.94339 0
M  V30 10788 C 1017.42 1.38001 -0.82537 0
M  V30 10789 O 1018.61 1.3567 -1.09266 0
M  V30 10790 C 1015.74 2.583 -2.22472 0
M  V30 10791 H 1016.93 0.891371 -2.86347 0
M  V30 10792 H 1014.49 0.428612 -1.50308 0
M  V30 10793 H 1015.22 2.95715 -1.33129 0
M  V30 10794 H 1015.01 2.47701 -3.03951 0
M  V30 10795 H 1016.5 3.32441 -2.5273 0
M  V30 10796 N 1016.93 1.50896 0.454776 0
M  V30 10797 C 1017.86 1.6712 1.56855 0
M  V30 10798 C 1018.88 0.552223 1.53148 0
M  V30 10799 O 1020.07 0.825969 1.5824 0
M  V30 10800 C 1017.17 1.65464 2.95762 0
M  V30 10801 C 1016.34 2.93662 3.24163 0
M  V30 10802 C 1015.4 2.84428 4.42704 0
M  V30 10803 O 1014.42 3.58382 4.42211 0
M  V30 10804 N 1015.63 1.9909 5.45292 0
M  V30 10805 H 1018.39 2.63194 1.43349 0
M  V30 10806 H 1015.95 1.48564 0.643457 0
M  V30 10807 H 1017.94 1.56878 3.73057 0
M  V30 10808 H 1016.51 0.770568 3.02954 0
M  V30 10809 H 1015.73 3.16251 2.35328 0
M  V30 10810 H 1017.02 3.78558 3.39957 0
M  V30 10811 H 1016.42 1.3835 5.48521 0
M  V30 10812 H 1014.98 1.96396 6.21508 0
M  V30 10813 N 1018.41 -0.709066 1.40748 0
M  V30 10814 C 1019.34 -1.83412 1.37451 0
M  V30 10815 C 1020.36 -1.60394 0.27884 0
M  V30 10816 O 1021.54 -1.70147 0.539642 0
M  V30 10817 C 1018.64 -3.19935 1.1178 0
M  V30 10818 C 1017.82 -3.70095 2.33128 0
M  V30 10819 C 1016.88 -4.85249 2.03518 0
M  V30 10820 O 1015.9 -4.97563 2.76442 0
M  V30 10821 N 1017.1 -5.7152 1.01714 0
M  V30 10822 H 1019.87 -1.86736 2.34414 0
M  V30 10823 H 1017.43 -0.890863 1.35186 0
M  V30 10824 H 1019.42 -3.94578 0.899464 0
M  V30 10825 H 1017.99 -3.11718 0.234624 0
M  V30 10826 H 1017.21 -2.8651 2.70751 0
M  V30 10827 H 1018.5 -4.00344 3.1401 0
M  V30 10828 H 1017.9 -5.64188 0.413307 0
M  V30 10829 H 1016.46 -6.46119 0.858696 0
M  V30 10830 N 1019.89 -1.26353 -0.941956 0
M  V30 10831 C 1020.85 -1.07904 -2.02211 0
M  V30 10832 C 1021.85 -0.0276283 -1.60776 0
M  V30 10833 O 1023.04 -0.270965 -1.7208 0
M  V30 10834 C 1020.17 -0.641084 -3.34818 0
M  V30 10835 H 1021.37 -2.03804 -2.20009 0
M  V30 10836 H 1018.92 -1.08939 -1.12081 0
M  V30 10837 H 1019.66 0.319943 -3.22718 0
M  V30 10838 H 1019.44 -1.40027 -3.66244 0
M  V30 10839 H 1020.93 -0.533826 -4.14174 0
M  V30 10840 N 1021.37 1.14642 -1.08144 0
M  V30 10841 C 1022.31 2.1964 -0.708995 0
M  V30 10842 C 1023.28 1.63303 0.303512 0
M  V30 10843 O 1024.47 1.8987 0.18813 0
M  V30 10844 C 1021.61 3.44886 -0.121585 0
M  V30 10845 C 1020.72 4.15386 -1.18654 0
M  V30 10846 C 1019.86 5.28205 -0.56328 0
M  V30 10847 C 1018.9 5.90534 -1.61046 0
M  V30 10848 N 1018.03 6.94809 -1.00919 0
M  V30 10849 H 1022.87 2.50848 -1.6087 0
M  V30 10850 H 1020.41 1.23185 -0.803975 0
M  V30 10851 H 1022.37 4.16528 0.23668 0
M  V30 10852 H 1021 3.14169 0.741445 0
M  V30 10853 H 1020.05 3.42159 -1.66227 0
M  V30 10854 H 1021.36 4.57809 -1.9802 0
M  V30 10855 H 1020.52 6.06507 -0.153109 0
M  V30 10856 H 1019.26 4.86995 0.262066 0
M  V30 10857 H 1018.26 5.10938 -2.03033 0
M  V30 10858 H 1019.49 6.33819 -2.43824 0
M  V30 10859 H 1017.43 6.5568 -0.204894 0
M  V30 10860 H 1017.35 7.35704 -1.73999 0
M  V30 10861 H 1018.62 7.76992 -0.624792 0
M  V30 10862 N 1022.85 0.866709 1.31628 0
M  V30 10863 C 1023.8 0.291712 2.26126 0
M  V30 10864 C 1024.78 -0.569375 1.50489 0
M  V30 10865 O 1025.97 -0.416786 1.72023 0
M  V30 10866 C 1023.1 -0.508624 3.39511 0
M  V30 10867 C 1022.19 0.365524 4.22522 0
M  V30 10868 N 1022.58 1.45747 4.84346 0
M  V30 10869 C 1020.88 0.157384 4.45722 0
M  V30 10870 C 1021.58 1.99625 5.46374 0
M  V30 10871 N 1020.55 1.29371 5.27981 0
M  V30 10872 H 1024.35 1.12633 2.71461 0
M  V30 10873 H 1021.87 0.714118 1.45857 0
M  V30 10874 H 1023.87 -0.937057 4.06233 0
M  V30 10875 H 1022.53 -1.34089 2.9572 0
M  V30 10876 H 1023.54 1.84039 4.84097 0
M  V30 10877 H 1020.21 -0.639193 4.12578 0
M  V30 10878 H 1021.6 2.91222 6.05508 0
M  V30 10879 N 1024.32 -1.44642 0.625825 0
M  V30 10880 C 1025.57 -2.02094 0.128201 0
M  V30 10881 C 1025.9 -1.49181 -1.24801 0
M  V30 10882 O 1025.15 -0.663965 -1.84092 0
M  V30 10883 C 1025.45 -3.57352 0.0584381 0
M  V30 10884 C 1025.12 -4.29496 1.37272 0
M  V30 10885 C 1023.78 -4.48922 1.7327 0
M  V30 10886 C 1026.13 -4.70586 2.2405 0
M  V30 10887 C 1023.46 -5.06697 2.95762 0
M  V30 10888 C 1025.81 -5.29717 3.45807 0
M  V30 10889 C 1024.48 -5.47363 3.82034 0
M  V30 10890 H 1023.75 -0.739514 0.0469122 0
M  V30 10891 H 1026.39 -1.73475 0.811083 0
M  V30 10892 H 1024.7 -3.85354 -0.707791 0
M  V30 10893 H 1026.4 -3.9953 -0.34303 0
M  V30 10894 H 1022.99 -4.14702 1.08258 0
M  V30 10895 H 1027.17 -4.55295 1.97535 0
M  V30 10896 H 1022.43 -5.18546 3.23913 0
M  V30 10897 H 1026.6 -5.60507 4.13286 0
M  V30 10898 H 1024.23 -5.91898 4.77033 0
M  V30 10899 N 1025.8 -0.366053 -1.5329 0
M  V30 10900 C 1027.03 0.226839 -2.06156 0
M  V30 10901 C 1027.45 1.41637 -1.23776 0
M  V30 10902 O 1026.81 1.7947 -0.256948 0
M  V30 10903 C 1026.86 0.597956 -3.55608 0
M  V30 10904 O 1025.96 1.69512 -3.75951 0
M  V30 10905 H 1025.3 0.0329156 -0.663184 0
M  V30 10906 H 1027.83 -0.526793 -1.97702 0
M  V30 10907 H 1027.84 0.868831 -3.98642 0
M  V30 10908 H 1026.52 -0.271838 -4.15011 0
M  V30 10909 H 1025.09 1.41976 -3.44815 0
M  V30 10910 N 1027.28 1.57312 -0.0952337 0
M  V30 10911 C 1028.24 2.12889 0.849161 0
M  V30 10912 C 1029.24 1.05819 1.21075 0
M  V30 10913 O 1030.43 1.31704 1.14016 0
M  V30 10914 C 1027.56 2.6496 2.14498 0
M  V30 10915 H 1028.76 2.97651 0.366566 0
M  V30 10916 H 1026.31 1.55542 0.153762 0
M  V30 10917 H 1027.05 1.83718 2.67242 0
M  V30 10918 H 1026.83 3.43244 1.89542 0
M  V30 10919 H 1028.32 3.07952 2.82056 0
M  V30 10920 N 1028.76 -0.17846 1.56586 0
M  V30 10921 C 1029.69 -1.22342 1.98884 0
M  V30 10922 C 1030.67 -1.46564 0.86331 0
M  V30 10923 O 1031.85 -1.58019 1.12887 0
M  V30 10924 C 1028.98 -2.56396 2.34261 0
M  V30 10925 C 1027.94 -2.46756 3.49708 0
M  V30 10926 C 1027.26 -3.85235 3.70807 0
M  V30 10927 C 1028.56 -1.97838 4.83381 0
M  V30 10928 H 1030.26 -0.871848 2.86425 0
M  V30 10929 H 1027.8 -0.417948 1.37801 0
M  V30 10930 H 1029.76 -3.29695 2.62448 0
M  V30 10931 H 1028.48 -2.93327 1.43621 0
M  V30 10932 H 1027.14 -1.75912 3.21637 0
M  V30 10933 H 1026.79 -4.19547 2.7747 0
M  V30 10934 H 1026.49 -3.79655 4.48481 0
M  V30 10935 H 1028.01 -4.60131 4.01387 0
M  V30 10936 H 1029.43 -2.60906 5.10491 0
M  V30 10937 H 1027.82 -2.03223 5.64642 0
M  V30 10938 H 1028.89 -0.932339 4.75852 0
M  V30 10939 N 1030.24 -1.51135 -0.446768 0
M  V30 10940 C 1031.65 -1.39101 -0.782504 0
M  V30 10941 C 1031.85 -0.46599 -1.96038 0
M  V30 10942 O 1030.91 0.0823679 -2.52366 0
M  V30 10943 C 1032.22 -2.80953 -1.07173 0
M  V30 10944 C 1033.77 -2.90038 -1.17673 0
M  V30 10945 C 1034.24 -4.32777 -1.49894 0
M  V30 10946 N 1035.73 -4.3584 -1.56837 0
M  V30 10947 C 1036.47 -5.43305 -1.83322 0
M  V30 10948 N 1035.97 -6.60945 -2.07662 0
M  V30 10949 N 1037.76 -5.30775 -1.85026 0
M  V30 10950 H 1029.91 -2.09835 0.329114 0
M  V30 10951 H 1032.17 -0.944199 0.0848054 0
M  V30 10952 H 1031.88 -3.50591 -0.279037 0
M  V30 10953 H 1031.75 -3.197 -2.00179 0
M  V30 10954 H 1034.14 -2.20603 -1.96005 0
M  V30 10955 H 1034.22 -2.54801 -0.225892 0
M  V30 10956 H 1033.86 -5.02757 -0.720924 0
M  V30 10957 H 1033.79 -4.6552 -2.46168 0
M  V30 10958 H 1036.29 -3.51023 -1.39968 0
M  V30 10959 H 1036.6 -7.38643 -2.27214 0
M  V30 10960 H 1034.94 -6.64077 -2.05003 0
M  V30 10961 H 1038.13 -4.37858 -1.65523 0
M  V30 10962 H 1038.31 -6.14609 -2.05329 0
M  V30 10963 N 1031.71 0.701592 -1.41122 0
M  V30 10964 C 1032.99 1.45569 -1.30648 0
M  V30 10965 C 1033.37 2.10988 0.068744 0
M  V30 10966 O 1032.72 2.01228 1.08257 0
M  V30 10967 C 1032.93 2.48003 -2.45551 0
M  V30 10968 C 1034.28 3.13431 -2.86437 0
M  V30 10969 O 1035.3 2.58327 -2.45247 0
M  V30 10970 O 1034.16 4.13221 -3.57646 0
M  V30 10971 H 1031.25 0.648 -0.513834 0
M  V30 10972 H 1033.8 0.73258 -1.53073 0
M  V30 10973 H 1032.57 1.98276 -3.37346 0
M  V30 10974 H 1032.19 3.27832 -2.24971 0
M  V30 10975 N 1033.19 1.2685 0.935242 0
M  V30 10976 C 1034.44 1.12912 1.6846 0
M  V30 10977 C 1034.77 -0.325708 1.91449 0
M  V30 10978 O 1034.05 -1.23884 1.49944 0
M  V30 10979 C 1034.33 1.90513 3.05576 0
M  V30 10980 C 1034.18 3.43936 2.89876 0
M  V30 10981 C 1035.5 1.70363 4.05789 0
M  V30 10982 H 1032.62 0.411559 0.611382 0
M  V30 10983 H 1035.26 1.55917 1.08582 0
M  V30 10984 H 1033.41 1.53963 3.5669 0
M  V30 10985 H 1035.08 3.90272 2.45939 0
M  V30 10986 H 1033.33 3.70659 2.25376 0
M  V30 10987 H 1034 3.93467 3.87153 0
M  V30 10988 H 1036.47 2.02217 3.63659 0
M  V30 10989 H 1035.35 2.27066 4.99732 0
M  V30 10990 H 1035.61 0.649674 4.373 0
M  V30 10991 N 1034.67 -1.14067 1.0875 0
M  V30 10992 C 1035.92 -1.84535 0.814235 0
M  V30 10993 C 1036.23 -1.84044 -0.662355 0
M  V30 10994 O 1037.44 -2.50336 -1.05091 0
M  V30 10995 C 1035.89 -3.31273 1.40663 0
M  V30 10996 C 1035.5 -3.40171 2.91526 0
M  V30 10997 C 1037.25 -4.0683 1.21201 0
M  V30 10998 C 1035.15 -4.81141 3.43885 0
M  V30 10999 H 1034.08 -0.691346 0.300926 0
M  V30 11000 H 1036.73 -1.28562 1.30935 0
M  V30 11001 H 1035.12 -3.87005 0.839215 0
M  V30 11002 H 1036.29 -2.94471 3.54434 0
M  V30 11003 H 1034.61 -2.78073 3.09942 0
M  V30 11004 H 1037.2 -5.10891 1.57781 0
M  V30 11005 H 1037.55 -4.16022 0.152092 0
M  V30 11006 H 1038.08 -3.57408 1.74655 0
M  V30 11007 H 1034.82 -4.77138 4.49466 0
M  V30 11008 H 1034.34 -5.27365 2.85738 0
M  V30 11009 H 1036.02 -5.50042 3.40681 0
M  V30 11010 N 1036.15 -0.873678 -1.31166 0
M  V30 11011 C 1037.1 -0.330288 -2.28424 0
M  V30 11012 C 1038.07 0.573299 -1.55893 0
M  V30 11013 O 1039.25 0.504143 -1.84019 0
M  V30 11014 C 1036.39 0.459004 -3.42034 0
M  V30 11015 C 1035.5 -0.472519 -4.29408 0
M  V30 11016 C 1034.64 0.331261 -5.30166 0
M  V30 11017 C 1033.68 -0.596453 -6.09187 0
M  V30 11018 N 1032.81 0.171305 -7.01891 0
M  V30 11019 H 1037.65 -1.16485 -2.7429 0
M  V30 11020 H 1035.19 -0.585813 -1.34932 0
M  V30 11021 H 1037.15 0.932432 -4.06647 0
M  V30 11022 H 1035.78 1.25824 -2.97268 0
M  V30 11023 H 1034.83 -1.06441 -3.65205 0
M  V30 11024 H 1036.14 -1.18372 -4.84551 0
M  V30 11025 H 1035.3 0.867038 -6.00473 0
M  V30 11026 H 1034.04 1.07573 -4.75688 0
M  V30 11027 H 1033.04 -1.14395 -5.37767 0
M  V30 11028 H 1034.27 -1.33983 -6.65752 0
M  V30 11029 H 1032.21 0.89852 -6.49817 0
M  V30 11030 H 1032.13 -0.480481 -7.54472 0
M  V30 11031 H 1033.4 0.688192 -7.76456 0
M  V30 11032 N 1037.63 1.44308 -0.633487 0
M  V30 11033 C 1038.59 2.2912 0.060376 0
M  V30 11034 C 1039.59 1.41166 0.769992 0
M  V30 11035 O 1040.78 1.63012 0.614224 0
M  V30 11036 C 1037.91 3.22798 1.0961 0
M  V30 11037 H 1039.1 2.91958 -0.685617 0
M  V30 11038 H 1036.66 1.51259 -0.393738 0
M  V30 11039 H 1037.39 2.64815 1.87199 0
M  V30 11040 H 1037.18 3.87618 0.591161 0
M  V30 11041 H 1038.67 3.86504 1.58127 0
M  V30 11042 N 1039.1 0.374177 1.53094 0
M  V30 11043 C 1040.03 -0.459976 2.28925 0
M  V30 11044 C 1041.02 -1.07656 1.31698 0
M  V30 11045 O 1042.2 -1.09219 1.60577 0
M  V30 11046 C 1039.33 -1.5954 3.08487 0
M  V30 11047 C 1038.28 -1.10563 4.13473 0
M  V30 11048 C 1037.61 -2.33196 4.81169 0
M  V30 11049 C 1038.91 -0.184275 5.21975 0
M  V30 11050 H 1040.6 0.172692 2.98902 0
M  V30 11051 H 1038.15 0.0844956 1.43752 0
M  V30 11052 H 1040.1 -2.18565 3.60288 0
M  V30 11053 H 1038.83 -2.25543 2.36216 0
M  V30 11054 H 1037.49 -0.53801 3.62631 0
M  V30 11055 H 1037.13 -2.97675 4.05461 0
M  V30 11056 H 1036.83 -2.01094 5.52119 0
M  V30 11057 H 1038.36 -2.92892 5.35767 0
M  V30 11058 H 1039.77 -0.682262 5.69226 0
M  V30 11059 H 1038.17 0.0462746 6.00082 0
M  V30 11060 H 1039.24 0.771152 4.78729 0
M  V30 11061 N 1040.58 -1.57259 0.103575 0
M  V30 11062 C 1042 -1.57581 -0.253062 0
M  V30 11063 C 1042.2 -1.11531 -1.67819 0
M  V30 11064 O 1041.25 -0.795632 -2.39637 0
M  V30 11065 C 1042.57 -3.00681 -0.0337753 0
M  V30 11066 C 1044.12 -3.12837 -0.10087 0
M  V30 11067 C 1044.59 -4.57911 0.0905295 0
M  V30 11068 N 1046.08 -4.63186 0.0359789 0
M  V30 11069 C 1046.82 -5.73179 0.159199 0
M  V30 11070 N 1046.31 -6.91976 0.337728 0
M  V30 11071 N 1048.11 -5.62011 0.0998662 0
M  V30 11072 H 1040.26 -1.85499 1.0346 0
M  V30 11073 H 1042.52 -0.856584 0.406163 0
M  V30 11074 H 1042.23 -3.38602 0.950858 0
M  V30 11075 H 1042.1 -3.69207 -0.772406 0
M  V30 11076 H 1044.49 -2.74783 -1.07601 0
M  V30 11077 H 1044.57 -2.46886 0.66939 0
M  V30 11078 H 1044.21 -4.9666 1.06258 0
M  V30 11079 H 1044.14 -5.21933 -0.699528 0
M  V30 11080 H 1046.63 -3.7777 -0.099121 0
M  V30 11081 H 1046.95 -7.71641 0.423032 0
M  V30 11082 H 1045.29 -6.93996 0.373504 0
M  V30 11083 H 1048.48 -4.68084 -0.0385356 0
M  V30 11084 H 1048.65 -6.47693 0.199342 0
M  V30 11085 N 1042.06 0.170153 -1.56679 0
M  V30 11086 C 1042.99 1.21285 -1.9953 0
M  V30 11087 C 1043.97 1.46104 -0.871071 0
M  V30 11088 O 1045.16 1.57419 -1.13724 0
M  V30 11089 C 1042.29 2.5515 -2.35618 0
M  V30 11090 C 1041.24 2.44898 -3.51011 0
M  V30 11091 C 1040.57 3.83263 -3.72845 0
M  V30 11092 C 1041.87 1.95271 -4.84424 0
M  V30 11093 H 1043.56 0.856646 -2.86883 0
M  V30 11094 H 1041.11 0.410634 -1.38021 0
M  V30 11095 H 1043.06 3.28299 -2.64193 0
M  V30 11096 H 1041.78 2.92561 -1.45175 0
M  V30 11097 H 1040.44 1.74203 -3.22566 0
M  V30 11098 H 1040.09 4.18069 -2.79691 0
M  V30 11099 H 1039.79 3.77272 -4.50488 0
M  V30 11100 H 1041.31 4.57996 -4.03822 0
M  V30 11101 H 1042.73 2.58195 -5.11867 0
M  V30 11102 H 1041.13 2.00225 -5.65712 0
M  V30 11103 H 1042.2 0.90709 -4.7634 0
M  V30 11104 N 1043.54 1.5137 0.438746 0
M  V30 11105 C 1044.5 1.71993 1.51496 0
M  V30 11106 C 1045.5 0.589978 1.49586 0
M  V30 11107 O 1046.69 0.857505 1.51633 0
M  V30 11108 C 1043.82 1.77508 2.91039 0
M  V30 11109 H 1045.02 2.68041 1.34514 0
M  V30 11110 H 1042.57 1.41338 0.667326 0
M  V30 11111 H 1043.3 0.832698 3.13427 0
M  V30 11112 H 1043.09 2.59627 2.9383 0
M  V30 11113 H 1044.58 1.95308 3.69113 0
M  V30 11114 N 1045.02 -0.694098 1.41492 0
M  V30 11115 C 1045.95 -1.81841 1.37873 0
M  V30 11116 C 1046.93 -1.60732 0.245772 0
M  V30 11117 O 1048.11 -1.83461 0.432917 0
M  V30 11118 C 1045.24 -3.18543 1.15099 0
M  V30 11119 C 1044.28 -3.5844 2.31133 0
M  V30 11120 S 1045.12 -3.63079 3.93617 0
M  V30 11121 C 1046.27 -5.02505 3.73148 0
M  V30 11122 H 1046.51 -1.84634 2.33018 0
M  V30 11123 H 1044.04 -0.862948 1.28033 0
M  V30 11124 H 1046 -3.9746 1.02646 0
M  V30 11125 H 1044.66 -3.13358 0.21572 0
M  V30 11126 H 1043.85 -4.57754 2.10896 0
M  V30 11127 H 1043.45 -2.86837 2.40002 0
M  V30 11128 H 1045.75 -5.90046 3.32945 0
M  V30 11129 H 1046.69 -5.27784 4.72069 0
M  V30 11130 H 1047.1 -4.74113 3.06394 0
M  V30 11131 N 1046.49 -1.27344 -0.928501 0
M  V30 11132 C 1047.43 -1.05797 -2.03322 0
M  V30 11133 C 1048.44 -0.0143086 -1.62794 0
M  V30 11134 O 1049.63 -0.25578 -1.76658 0
M  V30 11135 C 1046.73 -0.582673 -3.33853 0
M  V30 11136 C 1045.9 -1.69844 -4.03078 0
M  V30 11137 C 1044.96 -1.21902 -5.11885 0
M  V30 11138 O 1043.99 -1.91853 -5.35893 0
M  V30 11139 N 1045.19 -0.0742392 -5.80453 0
M  V30 11140 H 1047.95 -2.00928 -2.22369 0
M  V30 11141 H 1045.51 -1.189 -1.09883 0
M  V30 11142 H 1047.51 -0.245862 -4.03952 0
M  V30 11143 H 1046.08 0.27539 -3.11385 0
M  V30 11144 H 1045.3 -2.20557 -3.26723 0
M  V30 11145 H 1046.58 -2.4473 -4.46077 0
M  V30 11146 H 1045.98 0.509631 -5.634 0
M  V30 11147 H 1044.54 0.203399 -6.51483 0
M  V30 11148 N 1047.97 1.13488 -1.09353 0
M  V30 11149 C 1048.9 2.20988 -0.75409 0
M  V30 11150 C 1049.88 1.67977 0.267901 0
M  V30 11151 O 1051.07 1.93722 0.136128 0
M  V30 11152 C 1048.2 3.46869 -0.173042 0
M  V30 11153 C 1047.15 4.12965 -1.12446 0
M  V30 11154 C 1046.48 5.33163 -0.405157 0
M  V30 11155 C 1047.78 4.60388 -2.46658 0
M  V30 11156 H 1049.47 2.49639 -1.6529 0
M  V30 11157 H 1047.02 1.19987 -0.796182 0
M  V30 11158 H 1048.97 4.21331 0.0764988 0
M  V30 11159 H 1047.7 3.17611 0.760956 0
M  V30 11160 H 1046.35 3.40469 -1.35927 0
M  V30 11161 H 1046 5.00169 0.532955 0
M  V30 11162 H 1045.7 5.78332 -1.03952 0
M  V30 11163 H 1047.23 6.1038 -0.163899 0
M  V30 11164 H 1048.64 5.26276 -2.27389 0
M  V30 11165 H 1047.04 5.16294 -3.05876 0
M  V30 11166 H 1048.11 3.74949 -3.07476 0
M  V30 11167 N 1049.45 0.880621 1.30701 0
M  V30 11168 C 1050.36 0.348034 2.32004 0
M  V30 11169 C 1051.38 -0.547508 1.65162 0
M  V30 11170 O 1052.55 -0.441673 1.96497 0
M  V30 11171 C 1049.62 -0.432585 3.43991 0
M  V30 11172 C 1048.68 0.492189 4.26469 0
M  V30 11173 C 1047.91 -0.25127 5.33108 0
M  V30 11174 O 1048.14 -1.47795 5.5092 0
M  V30 11175 O 1047.07 0.396376 6.00593 0
M  V30 11176 H 1050.9 1.18798 2.79501 0
M  V30 11177 H 1048.48 0.64432 1.34792 0
M  V30 11178 H 1050.36 -0.874733 4.12221 0
M  V30 11179 H 1049.04 -1.2489 2.98637 0
M  V30 11180 H 1047.94 0.983058 3.60953 0
M  V30 11181 H 1049.28 1.27439 4.75416 0
M  V30 11182 N 1050.93 -1.4397 0.641131 0
M  V30 11183 C 1051.84 -2.34526 -0.058742 0
M  V30 11184 C 1052.86 -1.53194 -0.825088 0
M  V30 11185 O 1054.03 -1.85888 -0.775081 0
M  V30 11186 C 1051.1 -3.31313 -1.02139 0
M  V30 11187 C 1050.16 -4.28552 -0.253319 0
M  V30 11188 C 1049.39 -5.20715 -1.17012 0
M  V30 11189 O 1049.61 -5.17028 -2.40911 0
M  V30 11190 O 1048.55 -5.9839 -0.649039 0
M  V30 11191 H 1052.37 -2.95843 0.686329 0
M  V30 11192 H 1049.96 -1.43909 0.401316 0
M  V30 11193 H 1051.84 -3.90862 -1.57496 0
M  V30 11194 H 1050.52 -2.72516 -1.7469 0
M  V30 11195 H 1049.42 -3.72519 0.343531 0
M  V30 11196 H 1050.76 -4.90297 0.432372 0
M  V30 11197 N 1052.41 -0.382291 -1.52893 0
M  V30 11198 C 1053.34 0.491199 -2.23875 0
M  V30 11199 C 1054.35 1.03249 -1.25871 0
M  V30 11200 O 1055.54 0.936016 -1.5199 0
M  V30 11201 C 1052.64 1.6927 -2.936 0
M  V30 11202 C 1051.81 1.28 -4.18252 0
M  V30 11203 C 1050.87 2.34541 -4.71038 0
M  V30 11204 O 1049.9 1.96239 -5.34302 0
M  V30 11205 N 1051.1 3.6636 -4.50289 0
M  V30 11206 H 1053.87 -0.116897 -2.99472 0
M  V30 11207 H 1051.43 -0.208296 -1.60554 0
M  V30 11208 H 1053.42 2.40054 -3.25816 0
M  V30 11209 H 1051.99 2.20729 -2.21354 0
M  V30 11210 H 1051.21 0.40133 -3.92152 0
M  V30 11211 H 1052.5 0.98082 -4.99257 0
M  V30 11212 H 1051.9 4.00245 -3.99775 0
M  V30 11213 H 1050.45 4.332 -4.87013 0
M  V30 11214 N 1053.89 1.57202 -0.111913 0
M  V30 11215 C 1054.85 2.13778 0.826534 0
M  V30 11216 C 1055.85 1.07097 1.19945 0
M  V30 11217 O 1057.04 1.32906 1.12613 0
M  V30 11218 C 1054.17 2.6722 2.11675 0
M  V30 11219 H 1055.36 2.98023 0.334975 0
M  V30 11220 H 1052.92 1.55696 0.137256 0
M  V30 11221 H 1053.65 1.86542 2.65278 0
M  V30 11222 H 1053.44 3.45235 1.8589 0
M  V30 11223 H 1054.93 3.10926 2.78774 0
M  V30 11224 N 1055.36 -0.161842 1.56767 0
M  V30 11225 C 1056.59 -0.896274 1.87034 0
M  V30 11226 C 1057.01 -1.74617 0.699314 0
M  V30 11227 O 1056.37 -1.77861 -0.351435 0
M  V30 11228 C 1056.42 -1.74105 3.15784 0
M  V30 11229 O 1055.52 -2.84372 2.98674 0
M  V30 11230 H 1054.86 -0.250523 0.614926 0
M  V30 11231 H 1057.39 -0.157127 2.03996 0
M  V30 11232 H 1057.4 -2.13907 3.4743 0
M  V30 11233 H 1056.08 -1.11684 4.00624 0
M  V30 11234 H 1054.66 -2.48084 2.78404 0
M  V30 11235 N 1056.84 -1.516 -0.430713 0
M  V30 11236 C 1058.26 -1.39923 -0.767706 0
M  V30 11237 C 1058.46 -0.486756 -1.95532 0
M  V30 11238 O 1057.51 0.0555965 -2.52439 0
M  V30 11239 C 1058.83 -2.82074 -1.04187 0
M  V30 11240 C 1060.37 -2.9127 -1.1459 0
M  V30 11241 C 1060.85 -4.34342 -1.45295 0
M  V30 11242 N 1062.34 -4.37479 -1.52206 0
M  V30 11243 C 1063.08 -5.45219 -1.77549 0
M  V30 11244 N 1062.57 -6.6311 -2.0064 0
M  V30 11245 N 1064.36 -5.32707 -1.79386 0
M  V30 11246 H 1056.52 -2.09474 0.351351 0
M  V30 11247 H 1058.78 -0.943247 0.0948151 0
M  V30 11248 H 1058.48 -3.50868 -0.241837 0
M  V30 11249 H 1058.36 -3.21805 -1.96777 0
M  V30 11250 H 1060.75 -2.2267 -1.93655 0
M  V30 11251 H 1060.83 -2.55026 -0.198854 0
M  V30 11252 H 1060.47 -5.03494 -0.667559 0
M  V30 11253 H 1060.4 -4.68105 -2.41217 0
M  V30 11254 H 1062.89 -3.52488 -1.36237 0
M  V30 11255 H 1063.2 -7.41012 -2.19366 0
M  V30 11256 H 1061.55 -6.66214 -1.97948 0
M  V30 11257 H 1064.74 -4.39589 -1.60869 0
M  V30 11258 H 1064.91 -6.16752 -1.98799 0
M  V30 11259 N 1058.32 0.686584 -1.41858 0
M  V30 11260 C 1059.25 1.81202 -1.40352 0
M  V30 11261 C 1060.26 1.5993 -0.304322 0
M  V30 11262 O 1061.45 1.69267 -0.566643 0
M  V30 11263 C 1058.55 3.18116 -1.16856 0
M  V30 11264 C 1057.73 3.66339 -2.38987 0
M  V30 11265 C 1056.79 4.8195 -2.11212 0
M  V30 11266 O 1055.81 4.93102 -2.84323 0
M  V30 11267 N 1057.01 5.69829 -1.10793 0
M  V30 11268 H 1059.78 1.82983 -2.37355 0
M  V30 11269 H 1057.34 0.869244 -1.36586 0
M  V30 11270 H 1059.33 3.93097 -0.962125 0
M  V30 11271 H 1057.9 3.11306 -0.284186 0
M  V30 11272 H 1057.12 2.82166 -2.75274 0
M  V30 11273 H 1058.41 3.95297 -3.2034 0
M  V30 11274 H 1057.81 5.63459 -0.503012 0
M  V30 11275 H 1056.36 6.44671 -0.961379 0
M  V30 11276 N 1059.8 1.27835 0.921735 0
M  V30 11277 C 1061.05 1.13904 1.6646 0
M  V30 11278 C 1061.36 -0.313379 1.93073 0
M  V30 11279 O 1062.57 -0.573687 2.6537 0
M  V30 11280 C 1061.02 1.99064 2.99836 0
M  V30 11281 C 1060.63 3.48998 2.80899 0
M  V30 11282 C 1062.37 1.93797 3.77681 0
M  V30 11283 C 1060.28 4.26337 4.09867 0
M  V30 11284 H 1059.21 0.422681 0.624385 0
M  V30 11285 H 1061.86 1.52303 1.02352 0
M  V30 11286 H 1060.24 1.53514 3.65034 0
M  V30 11287 H 1061.42 4.02452 2.24431 0
M  V30 11288 H 1059.73 3.55707 2.16476 0
M  V30 11289 H 1062.33 2.48852 4.73262 0
M  V30 11290 H 1062.67 0.912928 4.06167 0
M  V30 11291 H 1063.21 2.37275 3.19289 0
M  V30 11292 H 1059.94 5.2939 3.86557 0
M  V30 11293 H 1059.46 3.77659 4.65976 0
M  V30 11294 H 1061.14 4.3583 4.78185 0
M  V30 11295 N 1061.28 -1.12907 1.09954 0
M  V30 11296 C 1062.5 -1.88679 0.861099 0
M  V30 11297 C 1062.93 -1.78853 -0.582499 0
M  V30 11298 O 1062.28 -1.13992 -1.4098 0
M  V30 11299 C 1062.33 -3.36047 1.30785 0
M  V30 11300 O 1061.44 -4.09716 0.469728 0
M  V30 11301 H 1060.78 -0.586447 0.31141 0
M  V30 11302 H 1063.31 -1.42818 1.46507 0
M  V30 11303 H 1063.32 -3.86882 1.29562 0
M  V30 11304 H 1061.99 -3.42516 2.35914 0
M  V30 11305 H 1060.57 -3.6887 0.54674 0
M  V30 11306 N 1062.75 -0.88754 -1.30232 0
M  V30 11307 C 1063.98 -0.521562 -2.00735 0
M  V30 11308 C 1064.4 0.883247 -1.66073 0
M  V30 11309 O 1063.76 1.58581 -0.878731 0
M  V30 11310 C 1063.81 -0.706521 -3.53611 0
M  V30 11311 O 1062.91 0.246447 -4.11663 0
M  V30 11312 H 1062.25 -0.205216 -0.631492 0
M  V30 11313 H 1064.78 -1.19579 -1.66018 0
M  V30 11314 H 1064.79 -0.606501 -4.03467 0
M  V30 11315 H 1063.47 -1.73076 -3.78177 0
M  V30 11316 H 1062.05 0.0999062 -3.72766 0
M  V30 11317 N 1064.23 1.43628 -0.648757 0
M  V30 11318 C 1065.18 2.30755 0.0455536 0
M  V30 11319 C 1066.15 1.44495 0.819168 0
M  V30 11320 O 1067.33 1.73372 0.79667 0
M  V30 11321 C 1064.47 3.30017 1.00908 0
M  V30 11322 C 1063.59 4.31376 0.232039 0
M  V30 11323 C 1062.72 5.17723 1.18897 0
M  V30 11324 C 1061.76 6.10778 0.402096 0
M  V30 11325 N 1060.9 6.89763 1.31038 0
M  V30 11326 H 1065.74 2.89581 -0.70332 0
M  V30 11327 H 1063.28 1.42662 -0.3586 0
M  V30 11328 H 1065.23 3.86072 1.58128 0
M  V30 11329 H 1063.86 2.72851 1.72488 0
M  V30 11330 H 1062.92 3.77652 -0.456373 0
M  V30 11331 H 1064.23 4.9735 -0.380023 0
M  V30 11332 H 1063.38 5.78381 1.83194 0
M  V30 11333 H 1062.12 4.51864 1.83494 0
M  V30 11334 H 1061.13 5.49212 -0.254255 0
M  V30 11335 H 1062.35 6.78678 -0.239411 0
M  V30 11336 H 1060.3 6.26557 1.94324 0
M  V30 11337 H 1060.21 7.52243 0.752774 0
M  V30 11338 H 1061.48 7.54931 1.94164 0
M  V30 11339 N 1065.71 0.390394 1.52688 0
M  V30 11340 C 1066.66 -0.444229 2.26485 0
M  V30 11341 C 1067.63 -1.05688 1.28138 0
M  V30 11342 O 1068.81 -1.0847 1.56968 0
M  V30 11343 C 1065.95 -1.56501 3.07574 0
M  V30 11344 C 1065.07 -0.975111 4.20851 0
M  V30 11345 C 1064.2 -2.06704 4.89333 0
M  V30 11346 C 1063.24 -1.45309 5.94602 0
M  V30 11347 N 1062.38 -2.48437 6.56676 0
M  V30 11348 H 1067.22 0.191535 2.97384 0
M  V30 11349 H 1064.75 0.106287 1.46716 0
M  V30 11350 H 1066.71 -2.22558 3.52879 0
M  V30 11351 H 1065.34 -2.17107 2.38881 0
M  V30 11352 H 1064.39 -0.204109 3.79852 0
M  V30 11353 H 1065.71 -0.486465 4.96422 0
M  V30 11354 H 1064.86 -2.80528 5.37949 0
M  V30 11355 H 1063.6 -2.58928 4.13289 0
M  V30 11356 H 1062.6 -0.700091 5.45324 0
M  V30 11357 H 1063.83 -0.938775 6.7258 0
M  V30 11358 H 1061.77 -2.99829 5.83471 0
M  V30 11359 H 1061.69 -2.04331 7.27863 0
M  V30 11360 H 1062.96 -3.21888 7.09935 0
M  V30 11361 N 1067.19 -1.57141 0.120249 0
M  V30 11362 C 1068.6 -1.5784 -0.236335 0
M  V30 11363 C 1068.8 -1.13304 -1.66626 0
M  V30 11364 O 1067.86 -0.821004 -2.3878 0
M  V30 11365 C 1069.17 -3.007 -0.00188211 0
M  V30 11366 C 1070.72 -3.12927 -0.0676838 0
M  V30 11367 C 1071.2 -4.57789 0.139092 0
M  V30 11368 N 1072.69 -4.63122 0.085104 0
M  V30 11369 C 1073.42 -5.72978 0.219983 0
M  V30 11370 N 1072.92 -6.91579 0.411102 0
M  V30 11371 N 1074.71 -5.61874 0.159469 0
M  V30 11372 H 1066.86 -1.84391 1.05422 0
M  V30 11373 H 1069.13 -0.852228 0.415225 0
M  V30 11374 H 1068.83 -3.37575 0.986718 0
M  V30 11375 H 1068.71 -3.70005 -0.733203 0
M  V30 11376 H 1071.09 -2.75909 -1.04681 0
M  V30 11377 H 1071.17 -2.46162 0.695538 0
M  V30 11378 H 1070.82 -4.95506 1.1152 0
M  V30 11379 H 1070.75 -5.22646 -0.644131 0
M  V30 11380 H 1073.24 -3.77854 -0.0590479 0
M  V30 11381 H 1073.55 -7.71149 0.504851 0
M  V30 11382 H 1071.9 -6.9356 0.447091 0
M  V30 11383 H 1075.09 -4.68099 0.0111131 0
M  V30 11384 H 1075.26 -6.47445 0.268028 0
M  V30 11385 N 1068.67 0.153526 -1.5685 0
M  V30 11386 C 1070.08 0.714247 -1.72498 0
M  V30 11387 C 1070.43 1.81968 -0.733621 0
M  V30 11388 O 1069.55 2.16163 0.10118 0
M  V30 11389 C 1070.15 1.30238 -3.12767 0
M  V30 11390 C 1068.71 1.80974 -3.30038 0
M  V30 11391 C 1067.85 0.695638 -2.68433 0
M  V30 11392 H 1070.81 -0.0720733 -1.58536 0
M  V30 11393 H 1070.83 2.17217 -3.12405 0
M  V30 11394 H 1070.34 0.497605 -3.84897 0
M  V30 11395 H 1068.44 2.64039 -2.62895 0
M  V30 11396 H 1068.55 1.94294 -4.37934 0
M  V30 11397 H 1066.92 1.12061 -2.28723 0
M  V30 11398 H 1067.7 -0.0975885 -3.43161 0
M  V30 11399 N 1070.14 1.51827 0.422667 0
M  V30 11400 C 1071.08 1.70409 1.53275 0
M  V30 11401 C 1072.09 0.584584 1.51942 0
M  V30 11402 O 1073.28 0.859349 1.56453 0
M  V30 11403 C 1070.38 1.717 2.92185 0
M  V30 11404 C 1069.55 3.00472 3.17861 0
M  V30 11405 C 1068.61 2.93755 4.36571 0
M  V30 11406 O 1067.64 3.67682 4.3451 0
M  V30 11407 N 1068.84 2.10612 5.40946 0
M  V30 11408 H 1071.6 2.66176 1.37734 0
M  V30 11409 H 1069.16 1.49895 0.611799 0
M  V30 11410 H 1071.16 1.64756 3.69645 0
M  V30 11411 H 1069.73 0.834655 3.01251 0
M  V30 11412 H 1068.95 3.21171 2.28567 0
M  V30 11413 H 1070.23 3.85684 3.31851 0
M  V30 11414 H 1069.63 1.49954 5.45463 0
M  V30 11415 H 1068.19 2.09535 6.17202 0
M  V30 11416 O 1071.66 -0.568495 1.51163 0
M  V30 11417 H 1072.35 -1.22356 1.50162 0
M  V30 END ATOM
M  V30 BEGIN BOND
M  V30 END BOND
M  V30 END CTAB
M  END
$$$$
