drugbank_target|Q99624 Sodium-coupled neutral amino acid transporter 3 (DB00117)
 OpenBabel12092119283D

  0  0  0     0  0            999 V3000
M  V30 BEGIN CTAB
M  V30 COUNTS 7966 8068 0 0 0
M  V30 BEGIN ATOM
M  V30 1 H -0.908 1.98254 -0.117106 0
M  V30 2 N 0 1.576 0 0
M  V30 3 C 0.933 2.03868 1.02534 0
M  V30 4 C 1.911 0.928543 1.3348 0
M  V30 5 O 3.095 1.19667 1.45644 0
M  V30 6 C 0.222 2.43627 2.35294 0
M  V30 7 C -0.732 3.65373 2.2001 0
M  V30 8 S 0.101 5.13292 1.52614 0
M  V30 9 C 1.257 5.56322 2.86805 0
M  V30 10 H 1.49 2.90518 0.631377 0
M  V30 11 H -0.977 1.52953 0.210867 0
M  V30 12 H 0.981 2.67203 3.11629 0
M  V30 13 H -0.358 1.57376 2.7183 0
M  V30 14 H -1.165 3.90944 3.18086 0
M  V30 15 H -1.563 3.418 1.51819 0
M  V30 16 H 0.729 5.58782 3.83104 0
M  V30 17 H 1.672 6.56266 2.65933 0
M  V30 18 H 2.08 4.83886 2.90714 0
M  V30 19 N 1.4781 -0.272755 1.55222 0
M  V30 20 C 2.3881 -1.35918 1.91216 0
M  V30 21 C 3.4041 -1.54026 0.809436 0
M  V30 22 O 4.5801 -1.68148 1.10852 0
M  V30 23 C 1.6451 -2.69834 2.17693 0
M  V30 24 C 0.7061 -2.6047 3.41253 0
M  V30 25 C -0.0609 -3.88 3.66458 0
M  V30 26 O 0.1621 -4.88693 2.94169 0
M  V30 27 O -0.9039 -3.88189 4.59992 0
M  V30 28 H 2.9221 -1.0839 2.83699 0
M  V30 29 H 0.5071 -0.471301 1.41771 0
M  V30 30 H 2.3891 -3.49017 2.36147 0
M  V30 31 H 1.0641 -2.97148 1.28392 0
M  V30 32 H -0.0289 -1.79663 3.28134 0
M  V30 33 H 1.3041 -2.38106 4.30774 0
M  V30 34 N 2.9562 -1.48159 -0.537278 0
M  V30 35 C 3.9192 -1.61665 -1.62472 0
M  V30 36 C 4.9192 -0.490395 -1.5314 0
M  V30 37 O 6.1092 -0.755998 -1.5694 0
M  V30 38 C 3.2412 -1.57997 -3.02076 0
M  V30 39 H 4.4342 -2.58621 -1.51839 0
M  V30 40 H 1.9872 -1.36647 -0.758771 0
M  V30 41 H 2.7222 -0.624913 -3.18222 0
M  V30 42 H 2.5072 -2.39755 -3.10258 0
M  V30 43 H 3.9972 -1.70627 -3.81151 0
M  V30 44 N 4.4343 0.785586 -1.36625 0
M  V30 45 C 5.8453 1.36101 -1.27803 0
M  V30 46 C 6.1963 1.96035 0.0804875 0
M  V30 47 O 5.3213 1.92834 0.982042 0
M  V30 48 C 5.9163 2.47442 -2.31426 0
M  V30 49 C 4.4753 3.00789 -2.26281 0
M  V30 50 C 3.6223 1.73896 -2.15999 0
M  V30 51 H 6.5733 0.586928 -1.47448 0
M  V30 52 H 6.5943 3.2656 -1.95291 0
M  V30 53 H 6.1063 2.03791 -3.30289 0
M  V30 54 H 4.2073 3.48851 -1.30896 0
M  V30 55 H 4.3203 3.57343 -3.19128 0
M  V30 56 H 2.6843 1.9628 -1.62316 0
M  V30 57 H 3.4673 1.32368 -3.16755 0
M  V30 58 N 5.9124 1.20967 1.01018 0
M  V30 59 C 6.8424 0.988272 2.11555 0
M  V30 60 C 7.8234 -0.0849778 1.69888 0
M  V30 61 O 9.0084 0.0738202 1.9406 0
M  V30 62 C 6.1384 0.546528 3.42973 0
M  V30 63 C 5.0924 1.56375 3.9841 0
M  V30 64 C 4.4184 0.97842 5.25672 0
M  V30 65 C 5.7184 2.94922 4.31066 0
M  V30 66 H 7.4124 1.91276 2.30334 0
M  V30 67 H 4.9584 0.921073 1.1069 0
M  V30 68 H 6.9114 0.378839 4.19694 0
M  V30 69 H 5.6354 -0.413598 3.23971 0
M  V30 70 H 4.2944 1.71891 3.23804 0
M  V30 71 H 3.9424 0.0101688 5.02999 0
M  V30 72 H 3.6424 1.65784 5.63728 0
M  V30 73 H 5.1664 0.821939 6.05043 0
M  V30 74 H 6.5804 2.8288 4.9865 0
M  V30 75 H 4.9774 3.5983 4.80253 0
M  V30 76 H 6.0474 3.4616 3.39561 0
M  V30 77 N 7.3905 -1.2043 1.01659 0
M  V30 78 C 8.3225 -2.22626 0.544988 0
M  V30 79 C 9.3355 -1.58479 -0.372609 0
M  V30 80 O 10.5245 -1.77679 -0.170958 0
M  V30 81 C 7.6245 -3.38141 -0.22663 0
M  V30 82 C 6.7975 -4.31877 0.692876 0
M  V30 83 C 5.8565 -5.26191 -0.0311616 0
M  V30 84 O 4.8825 -5.6612 0.591343 0
M  V30 85 N 6.0845 -5.65618 -1.30601 0
M  V30 86 H 8.8495 -2.63716 1.42388 0
M  V30 87 H 6.4105 -1.34971 0.894116 0
M  V30 88 H 8.4025 -3.98239 -0.72024 0
M  V30 89 H 6.9725 -2.95943 -1.00681 0
M  V30 90 H 6.1925 -3.69746 1.36679 0
M  V30 91 H 7.4805 -4.91426 1.31824 0
M  V30 92 H 6.8785 -5.3519 -1.83269 0
M  V30 93 H 5.4355 -6.28025 -1.74435 0
M  V30 94 N 8.8686 -0.792821 -1.36206 0
M  V30 95 C 10.0966 -0.378825 -2.03402 0
M  V30 96 C 10.5116 1.00586 -1.59774 0
M  V30 97 O 9.8686 1.64574 -0.788764 0
M  V30 98 C 9.9196 -0.43683 -3.58851 0
M  V30 99 O 9.6406 -1.76691 -4.00889 0
M  V30 100 C 11.1416 -0.0138943 -4.43298 0
M  V30 101 H 8.3616 -0.155673 -0.652692 0
M  V30 102 H 10.9056 -1.07261 -1.74113 0
M  V30 103 H 9.0606 0.208575 -3.86838 0
M  V30 104 H 9.4746 -1.72011 -4.95492 0
M  V30 105 H 10.9486 -0.105615 -5.51899 0
M  V30 106 H 11.4256 1.03915 -4.2673 0
M  V30 107 H 12.0316 -0.63192 -4.20579 0
M  V30 108 N 10.3467 1.47872 -0.545128 0
M  V30 109 C 11.2567 2.33633 0.212746 0
M  V30 110 C 12.2727 1.4744 0.923983 0
M  V30 111 O 13.4487 1.80393 0.895572 0
M  V30 112 C 10.5137 3.23884 1.23693 0
M  V30 113 C 9.5747 4.25961 0.534417 0
M  V30 114 C 8.8077 5.11899 1.5098 0
M  V30 115 O 9.0307 5.00077 2.7437 0
M  V30 116 O 7.9647 5.92831 1.0409 0
M  V30 117 H 11.7907 2.99714 -0.490416 0
M  V30 118 H 9.3757 1.46235 -0.305871 0
M  V30 119 H 11.2577 3.79666 1.82843 0
M  V30 120 H 9.9327 2.60446 1.92222 0
M  V30 121 H 8.8397 3.73972 -0.0979679 0
M  V30 122 H 10.1727 4.92079 -0.109213 0
M  V30 123 N 11.8248 0.280983 1.55075 0
M  V30 124 C 12.7578 -0.645439 2.18882 0
M  V30 125 C 13.7358 -1.14786 1.15165 0
M  V30 126 O 14.9198 -1.21975 1.43716 0
M  V30 127 C 12.0468 -1.88088 2.81674 0
M  V30 128 C 11.0928 -1.51343 3.98745 0
M  V30 129 S 11.9258 -0.586548 5.32278 0
M  V30 130 C 13.0818 -1.83024 5.98543 0
M  V30 131 H 13.3148 -0.1033 2.9712 0
M  V30 132 H 10.8478 0.0652099 1.54262 0
M  V30 133 H 12.8058 -2.58997 3.18482 0
M  V30 134 H 11.4668 -2.39417 2.03318 0
M  V30 135 H 10.6598 -2.43289 4.41392 0
M  V30 136 H 10.2618 -0.884477 3.63391 0
M  V30 137 H 12.5538 -2.77342 6.18133 0
M  V30 138 H 13.4968 -1.44668 6.93164 0
M  V30 139 H 13.9048 -1.99785 5.27964 0
M  V30 140 N 13.3029 -1.57598 0.00835791 0
M  V30 141 C 14.5489 -1.91211 -0.675732 0
M  V30 142 C 14.8819 -0.883139 -1.72958 0
M  V30 143 O 14.1569 0.097016 -1.94258 0
M  V30 144 C 14.4399 -3.35379 -1.31123 0
M  V30 145 C 14.2929 -4.48999 -0.268356 0
M  V30 146 C 15.6119 -3.7912 -2.23508 0
M  V30 147 H 12.7309 -0.695374 -0.244179 0
M  V30 148 H 15.3729 -1.89901 0.0613655 0
M  V30 149 H 13.5229 -3.36626 -1.93946 0
M  V30 150 H 15.1949 -4.59887 0.360844 0
M  V30 151 H 13.4379 -4.31873 0.408482 0
M  V30 152 H 14.1089 -5.46851 -0.752218 0
M  V30 153 H 16.5849 -3.79477 -1.70693 0
M  V30 154 H 15.4609 -4.80729 -2.64936 0
M  V30 155 H 15.7219 -3.13455 -3.11766 0
M  V30 156 N 14.781 0.264519 -1.55364 0
M  V30 157 C 15.691 1.34902 -1.91934 0
M  V30 158 C 16.707 1.53595 -0.817593 0
M  V30 159 O 17.883 1.67558 -1.11742 0
M  V30 160 C 14.948 2.68676 -2.19121 0
M  V30 161 C 14.009 2.58657 -3.4263 0
M  V30 162 C 13.242 3.86051 -3.68511 0
M  V30 163 O 13.465 4.87126 -2.96757 0
M  V30 164 O 12.399 3.85744 -4.62045 0
M  V30 165 H 16.225 1.06883 -2.8427 0
M  V30 166 H 13.81 0.463775 -1.42019 0
M  V30 167 H 15.692 3.47759 -2.37995 0
M  V30 168 H 14.367 2.96463 -1.29966 0
M  V30 169 H 13.274 1.7792 -3.29082 0
M  V30 170 H 14.607 2.35818 -4.32031 0
M  V30 171 N 16.2591 1.48442 0.529413 0
M  V30 172 C 17.1891 1.65902 1.64313 0
M  V30 173 C 18.1701 0.507897 1.6234 0
M  V30 174 O 19.3551 0.740503 1.79528 0
M  V30 175 C 16.4851 1.69911 3.02898 0
M  V30 176 C 15.4391 2.8453 3.19729 0
M  V30 177 C 14.7651 2.73629 4.59381 0
M  V30 178 C 16.0651 4.25821 3.02447 0
M  V30 179 H 17.7591 2.5914 1.49955 0
M  V30 180 H 15.3051 1.24709 0.719982 0
M  V30 181 H 17.2581 1.80715 3.80684 0
M  V30 182 H 15.9821 0.732524 3.18279 0
M  V30 183 H 14.6411 2.73283 2.44361 0
M  V30 184 H 14.2891 1.74938 4.71599 0
M  V30 185 H 13.9891 3.50541 4.71588 0
M  V30 186 H 15.5131 2.86401 5.39265 0
M  V30 187 H 16.9271 4.37898 3.70024 0
M  V30 188 H 15.3241 5.03735 3.26146 0
M  V30 189 H 16.3941 4.42244 1.98867 0
M  V30 190 N 17.7372 -0.778329 1.37039 0
M  V30 191 C 18.9832 -1.53892 1.32079 0
M  V30 192 C 19.3162 -1.9396 -0.0965386 0
M  V30 193 O 18.5912 -1.63568 -1.05242 0
M  V30 194 C 18.8742 -2.80847 2.25382 0
M  V30 195 C 18.7272 -2.47076 3.75864 0
M  V30 196 C 20.0462 -3.82741 2.1725 0
M  V30 197 H 17.1652 -0.558303 0.48111 0
M  V30 198 H 19.8072 -0.893397 1.67685 0
M  V30 199 H 17.9572 -3.35931 1.95148 0
M  V30 200 H 19.6292 -1.97957 4.16666 0
M  V30 201 H 17.8722 -1.79863 3.94755 0
M  V30 202 H 18.5432 -3.37798 4.36574 0
M  V30 203 H 21.0192 -3.37133 2.43887 0
M  V30 204 H 19.8952 -4.69303 2.84686 0
M  V30 205 H 20.1562 -4.2652 1.16331 0
M  V30 206 N 19.2153 -1.21501 -1.00376 0
M  V30 207 C 20.6263 -1.03146 -1.55621 0
M  V30 208 C 20.9773 0.408375 -1.91903 0
M  V30 209 O 20.1023 1.29177 -1.73616 0
M  V30 210 C 20.6973 -1.86612 -2.82775 0
M  V30 211 C 19.2563 -1.72586 -3.34501 0
M  V30 212 C 18.4033 -1.83747 -2.07683 0
M  V30 213 H 21.3543 -1.35505 -0.826081 0
M  V30 214 H 21.3753 -1.3771 -3.54706 0
M  V30 215 H 20.8873 -2.91399 -2.56336 0
M  V30 216 H 18.9883 -0.704877 -3.65872 0
M  V30 217 H 19.1013 -2.54623 -4.05837 0
M  V30 218 H 17.4653 -1.27069 -2.20739 0
M  V30 219 H 18.2483 -2.90044 -1.83655 0
M  V30 220 N 20.6934 1.19889 -1.02296 0
M  V30 221 C 21.6414 2.24938 -0.592081 0
M  V30 222 C 22.6354 1.65257 0.372357 0
M  V30 223 O 23.8414 1.78371 0.241583 0
M  V30 224 H 20.2164 0.731787 -0.173182 0
M  V30 225 H 22.1874 2.58603 -1.48885 0
M  V30 226 C 20.9364 3.47668 0.047351 0
M  V30 227 H 20.2594 3.93875 -0.685772 0
M  V30 228 H 21.6994 4.22852 0.311862 0
M  V30 229 C 20.1584 3.11136 1.29212 0
M  V30 230 O 20.6884 3.2325 2.38479 0
M  V30 231 N 18.8944 2.65625 1.17863 0
M  V30 232 H 18.4414 2.55968 0.289493 0
M  V30 233 H 18.3994 2.41553 2.01245 0
M  V30 234 N 22.1715 0.800033 1.35784 0
M  V30 235 C 23.4195 0.376597 1.9856 0
M  V30 236 C 23.7405 -1.05812 1.63795 0
M  V30 237 O 23.0105 -1.73103 0.917171 0
M  V30 238 H 21.5905 0.136261 0.734467 0
M  V30 239 H 24.2525 1.02442 1.65806 0
M  V30 240 H 23.3485 0.477002 3.08433 0
M  V30 241 N 23.6496 -1.47581 0.552962 0
M  V30 242 C 24.5966 -2.29957 -0.197108 0
M  V30 243 C 25.5666 -1.38799 -0.912359 0
M  V30 244 O 26.7516 -1.67761 -0.908888 0
M  V30 245 C 23.8916 -3.22672 -1.22379 0
M  V30 246 C 23.0046 -4.28919 -0.515038 0
M  V30 247 C 22.1396 -5.0879 -1.52664 0
M  V30 248 C 21.1786 -6.06815 -0.802631 0
M  V30 249 N 20.3156 -6.7966 -1.76086 0
M  V30 250 H 25.1556 -2.93578 0.511486 0
M  V30 251 H 22.6926 -1.4471 0.264067 0
M  V30 252 H 24.6506 -3.74845 -1.83159 0
M  V30 253 H 23.2806 -2.60925 -1.90047 0
M  V30 254 H 22.3326 -3.79835 0.207192 0
M  V30 255 H 23.6446 -4.98773 0.0523425 0
M  V30 256 H 22.7986 -5.65091 -2.20809 0
M  V30 257 H 21.5376 -4.38828 -2.12794 0
M  V30 258 H 20.5426 -5.49695 -0.107238 0
M  V30 259 H 21.7676 -6.78784 -0.207135 0
M  V30 260 H 19.7136 -6.12432 -2.35081 0
M  V30 261 H 19.6306 -7.45669 -1.24552 0
M  V30 262 H 20.8986 -7.40538 -2.43359 0
M  V30 263 N 25.1277 -0.289203 -1.54924 0
M  V30 264 C 26.0777 0.606939 -2.19773 0
M  V30 265 C 27.0617 1.10783 -1.16687 0
M  V30 266 O 28.2537 1.05057 -1.4245 0
M  V30 267 C 25.3827 1.78398 -2.93307 0
M  V30 268 C 24.4687 1.29961 -4.03697 0
M  V30 269 N 24.8597 0.532377 -5.0299 0
M  V30 270 C 23.1577 1.58136 -4.17024 0
M  V30 271 C 23.8587 0.275912 -5.81045 0
M  V30 272 N 22.8347 0.852365 -5.36876 0
M  V30 273 H 26.6367 0.0130779 -2.93897 0
M  V30 274 H 24.1507 -0.09341 -1.62131 0
M  V30 275 H 26.1477 2.43741 -3.38225 0
M  V30 276 H 24.8077 2.38166 -2.20697 0
M  V30 277 H 25.8187 0.17838 -5.17593 0
M  V30 278 H 22.4957 2.18738 -3.55612 0
M  V30 279 H 23.8857 -0.339502 -6.71042 0
M  V30 280 N 26.6058 1.57591 -0.0167156 0
M  V30 281 C 27.8308 1.9598 0.67872 0
M  V30 282 C 28.2558 0.892546 1.65575 0
M  V30 283 O 27.6138 -0.147772 1.80697 0
M  V30 284 C 27.6618 3.33468 1.37227 0
M  V30 285 O 26.7658 3.28954 2.48722 0
M  V30 286 H 26.1068 0.639339 0.17928 0
M  V30 287 H 28.6368 2.04463 -0.0748802 0
M  V30 288 H 28.6468 3.69417 1.7319 0
M  V30 289 H 27.3218 4.10694 0.656007 0
M  V30 290 H 25.8988 3.04705 2.14963 0
M  V30 291 N 28.0839 -0.256276 1.55502 0
M  V30 292 C 28.9939 -1.33882 1.92647 0
M  V30 293 C 30.0099 -1.53159 0.825727 0
M  V30 294 O 31.1859 -1.66963 1.12629 0
M  V30 295 C 28.2509 -2.6751 2.20543 0
M  V30 296 C 27.3119 -2.56836 3.43997 0
M  V30 297 C 26.5449 -3.84092 3.70553 0
M  V30 298 O 26.7679 -4.85545 2.99336 0
M  V30 299 O 25.7019 -3.83288 4.64084 0
M  V30 300 H 29.5279 -1.05374 2.84833 0
M  V30 301 H 27.1129 -0.456237 1.42263 0
M  V30 302 H 28.9949 -3.46492 2.39835 0
M  V30 303 H 27.6699 -2.9577 1.31536 0
M  V30 304 H 26.5769 -1.76172 3.30021 0
M  V30 305 H 27.9099 -2.33523 4.33275 0
M  V30 306 N 29.562 -1.4872 -0.521534 0
M  V30 307 C 30.81 -1.56857 -1.27437 0
M  V30 308 C 31.131 -0.247982 -1.93417 0
M  V30 309 O 30.401 0.731151 -1.81744 0
M  V30 310 H 28.981 -0.577885 -0.473347 0
M  V30 311 H 31.643 -1.85233 -0.606205 0
M  V30 312 H 30.739 -2.35402 -2.0492 0
M  V30 313 N 31.0401 0.771051 -1.3745 0
M  V30 314 C 31.9701 1.89827 -1.3597 0
M  V30 315 C 32.9511 1.68562 -0.228216 0
M  V30 316 O 34.1361 1.8941 -0.428675 0
M  V30 317 C 31.2661 3.2712 -1.16662 0
M  V30 318 C 30.2201 3.6295 -2.2683 0
M  V30 319 C 29.5461 4.98791 -1.92644 0
M  V30 320 C 30.8461 3.69627 -3.69017 0
M  V30 321 H 32.5401 1.91323 -2.30295 0
M  V30 322 H 30.0861 0.919082 -1.10855 0
M  V30 323 H 32.0391 4.05615 -1.14256 0
M  V30 324 H 30.7631 3.26059 -0.187926 0
M  V30 325 H 29.4221 2.86763 -2.28392 0
M  V30 326 H 29.0701 4.94271 -0.933021 0
M  V30 327 H 28.7701 5.23733 -2.66416 0
M  V30 328 H 30.2941 5.79685 -1.91826 0
M  V30 329 H 31.7081 4.38273 -3.69581 0
M  V30 330 H 30.1051 4.06067 -4.41848 0
M  V30 331 H 31.1751 2.70273 -4.02592 0
M  V30 332 N 32.5182 1.22032 0.997298 0
M  V30 333 C 33.4482 1.01065 2.10495 0
M  V30 334 C 34.4292 -0.0669542 1.69968 0
M  V30 335 O 35.6142 0.0943987 1.9397 0
M  V30 336 C 32.7442 0.582874 3.42374 0
M  V30 337 C 31.6982 1.60592 3.96729 0
M  V30 338 C 31.0242 1.03412 5.24605 0
M  V30 339 C 32.3242 2.99478 4.27914 0
M  V30 340 H 34.0182 1.93708 2.28292 0
M  V30 341 H 31.5642 0.932761 1.09707 0
M  V30 342 H 33.5172 0.423332 4.19268 0
M  V30 343 H 32.2412 -0.379213 3.24391 0
M  V30 344 H 30.9002 1.75316 3.21963 0
M  V30 345 H 30.5482 0.063518 5.0296 0
M  V30 346 H 30.2482 1.71754 5.61938 0
M  V30 347 H 31.7722 0.886066 6.04137 0
M  V30 348 H 33.1862 2.88153 4.95622 0
M  V30 349 H 31.5832 3.64903 4.76409 0
M  V30 350 H 32.6532 3.49742 3.3587 0
M  V30 351 N 33.9963 -1.19345 1.0293 0
M  V30 352 C 35.4073 -1.70725 0.755633 0
M  V30 353 C 35.7583 -1.82326 -0.724676 0
M  V30 354 O 34.8833 -1.49471 -1.56484 0
M  V30 355 C 35.4783 -3.10084 1.36503 0
M  V30 356 C 34.0373 -3.58723 1.13994 0
M  V30 357 C 33.1843 -2.35577 1.46283 0
M  V30 358 H 36.1353 -1.0418 1.19718 0
M  V30 359 H 36.1563 -3.72787 0.762217 0
M  V30 360 H 35.6683 -3.01609 2.44241 0
M  V30 361 H 33.7693 -3.72512 0.0807901 0
M  V30 362 H 33.8823 -4.42816 1.82894 0
M  V30 363 H 32.2463 -2.38935 0.88217 0
M  V30 364 H 33.0293 -2.29731 2.55105 0
M  V30 365 N 35.4744 -0.807222 -1.35358 0
M  V30 366 C 36.7204 -0.388463 -1.99045 0
M  V30 367 C 37.0534 1.04184 -1.63888 0
M  V30 368 O 36.3284 1.72292 -0.902535 0
M  V30 369 C 36.6114 -0.572783 -3.55515 0
M  V30 370 C 36.4644 -2.04807 -4.00468 0
M  V30 371 C 37.7834 0.00114064 -4.401 0
M  V30 372 H 34.9024 -0.142619 -0.723069 0
M  V30 373 H 37.5444 -1.01687 -1.60498 0
M  V30 374 H 35.6944 -0.0378425 -3.88482 0
M  V30 375 H 37.3664 -2.64544 -3.77908 0
M  V30 376 H 35.6094 -2.54427 -3.51353 0
M  V30 377 H 36.2804 -2.12792 -5.09337 0
M  V30 378 H 38.7564 -0.455716 -4.13597 0
M  V30 379 H 37.6324 -0.157737 -5.48673 0
M  V30 380 H 37.8934 1.09488 -4.28328 0
M  V30 381 N 36.9525 1.47285 -0.560781 0
M  V30 382 C 38.2015 2.01668 -0.035895 0
M  V30 383 C 38.5145 1.44021 1.32353 0
M  V30 384 O 39.7205 1.90088 1.93853 0
M  V30 385 C 38.1765 3.59897 -0.0136659 0
M  V30 386 C 37.7845 4.26536 -1.37006 0
M  V30 387 C 39.5285 4.22017 0.458425 0
M  V30 388 C 37.4355 5.76782 -1.30675 0
M  V30 389 H 36.3655 0.753938 -0.00964879 0
M  V30 390 H 39.0165 1.69243 -0.709166 0
M  V30 391 H 37.3985 3.89301 0.725325 0
M  V30 392 H 38.5725 4.0877 -2.12705 0
M  V30 393 H 36.8875 3.76419 -1.78038 0
M  V30 394 H 39.4845 5.32124 0.524247 0
M  V30 395 H 39.8275 3.89437 1.4712 0
M  V30 396 H 40.3605 3.97159 -0.225818 0
M  V30 397 H 37.0995 6.13988 -2.29564 0
M  V30 398 H 36.6195 5.96875 -0.591622 0
M  V30 399 H 38.2985 6.39063 -1.01033 0
M  V30 400 N 38.4306 0.297415 1.54768 0
M  V30 401 C 39.6586 -0.315623 2.04478 0
M  V30 402 C 40.0736 -1.47792 1.17486 0
M  V30 403 O 39.4306 -1.81404 0.19971 0
M  V30 404 C 39.4816 -0.7753 3.53088 0
M  V30 405 O 39.2026 0.340732 4.36773 0
M  V30 406 C 40.7036 -1.45386 4.18781 0
M  V30 407 H 37.9236 -0.0690887 0.667434 0
M  V30 408 H 40.4676 0.436003 1.99798 0
M  V30 409 H 38.6226 -1.47696 3.58141 0
M  V30 410 H 39.0366 -0.0165035 5.24497 0
M  V30 411 H 40.5106 -1.72669 5.24299 0
M  V30 412 H 40.9876 -2.39275 3.68299 0
M  V30 413 H 41.5936 -0.795475 4.17795 0
M  V30 414 N 39.9087 -1.5758 0.0250728 0
M  V30 415 C 41.3197 -1.79476 -0.514323 0
M  V30 416 C 41.6707 -0.934956 -1.72491 0
M  V30 417 O 40.7957 -0.144245 -2.15919 0
M  V30 418 C 41.3907 -3.25503 -0.939842 0
M  V30 419 C 39.9497 -3.48408 -1.42438 0
M  V30 420 C 39.0967 -2.74583 -0.387201 0
M  V30 421 H 42.0477 -1.567 0.25113 0
M  V30 422 H 42.0687 -3.34992 -1.80445 0
M  V30 423 H 41.5807 -3.88056 -0.0585628 0
M  V30 424 H 39.6817 -2.91103 -2.32572 0
M  V30 425 H 39.7947 -4.57119 -1.43455 0
M  V30 426 H 38.1587 -2.39942 -0.854409 0
M  V30 427 H 38.9417 -3.39849 0.485543 0
M  V30 428 N 41.3868 0.248026 -1.55636 0
M  V30 429 C 42.3198 1.3334 -1.85191 0
M  V30 430 C 43.2978 1.46429 -0.706906 0
M  V30 431 O 44.4818 1.62662 -0.952544 0
M  V30 432 C 41.6088 2.70703 -2.03562 0
M  V30 433 C 40.6548 2.7477 -3.26196 0
M  V30 434 S 41.4878 2.31493 -4.82878 0
M  V30 435 C 42.6438 3.70783 -5.04253 0
M  V30 436 H 42.8768 1.08072 -2.76962 0
M  V30 437 H 40.4098 0.448952 -1.47729 0
M  V30 438 H 42.3678 3.49798 -2.1483 0
M  V30 439 H 41.0288 2.9321 -1.12635 0
M  V30 440 H 40.2218 3.75648 -3.36013 0
M  V30 441 H 39.8238 2.03719 -3.13647 0
M  V30 442 H 42.1158 4.6627 -4.91527 0
M  V30 443 H 43.0588 3.65901 -6.06236 0
M  V30 444 H 43.4668 3.63244 -4.32105 0
M  V30 445 N 42.8649 1.48995 0.513639 0
M  V30 446 C 43.8279 1.64229 1.59879 0
M  V30 447 C 44.8279 0.514696 1.5234 0
M  V30 448 O 46.0179 0.78087 1.55718 0
M  V30 449 C 43.1499 1.62783 2.99524 0
M  V30 450 H 44.3429 2.61004 1.47705 0
M  V30 451 H 41.8959 1.37837 0.736936 0
M  V30 452 H 42.6309 0.675461 3.17188 0
M  V30 453 H 42.4159 2.4466 3.06404 0
M  V30 454 H 43.9059 1.76669 3.78388 0
M  V30 455 N 44.343 -0.763751 1.37857 0
M  V30 456 C 45.591 -1.51957 1.33243 0
M  V30 457 C 45.912 -1.94835 -0.0801709 0
M  V30 458 O 45.182 -1.66894 -1.02582 0
M  V30 459 H 43.762 -0.563626 0.49024 0
M  V30 460 H 46.424 -0.908504 1.7243 0
M  V30 461 H 45.52 -2.41523 1.97669 0
M  V30 462 N 45.8211 -1.22559 -0.990812 0
M  V30 463 C 46.7691 -0.994798 -2.10253 0
M  V30 464 C 47.7631 0.0627798 -1.69284 0
M  V30 465 O 48.9691 -0.0898392 -1.79776 0
M  V30 466 H 45.3441 -0.304527 -0.687581 0
M  V30 467 H 47.3151 -1.93812 -2.26891 0
M  V30 468 C 46.0641 -0.591439 -3.42633 0
M  V30 469 H 45.3871 -1.3969 -3.74602 0
M  V30 470 H 46.8271 -0.469385 -4.21394 0
M  V30 471 C 45.2861 0.699232 -3.29564 0
M  V30 472 O 45.8161 1.75112 -3.61523 0
M  V30 473 N 44.0221 0.671182 -2.82743 0
M  V30 474 H 43.5691 -0.185136 -2.56934 0
M  V30 475 H 43.5271 1.53502 -2.7438 0
M  V30 476 N 47.2992 1.18797 -1.03562 0
M  V30 477 C 48.2312 2.21731 -0.580337 0
M  V30 478 C 49.2442 1.59051 0.347349 0
M  V30 479 O 50.4332 1.77929 0.142669 0
M  V30 480 C 47.5332 3.38459 0.172805 0
M  V30 481 C 46.7062 4.3072 -0.761496 0
M  V30 482 C 45.7652 5.26174 -0.0525547 0
M  V30 483 O 44.7912 5.65108 -0.681333 0
M  V30 484 N 45.9932 5.67624 1.21586 0
M  V30 485 H 48.7582 2.61417 -1.46565 0
M  V30 486 H 46.3192 1.33531 -0.915476 0
M  V30 487 H 48.3112 3.99335 0.656793 0
M  V30 488 H 46.8812 2.97507 0.959602 0
M  V30 489 H 46.1012 3.67525 -1.42544 0
M  V30 490 H 47.3892 4.89267 -1.39626 0
M  V30 491 H 46.7872 5.38038 1.74732 0
M  V30 492 H 45.3442 6.30721 1.64421 0
M  V30 493 N 48.7773 0.814389 1.34928 0
M  V30 494 C 50.1933 0.499084 1.51596 0
M  V30 495 C 50.3933 -0.978319 1.76157 0
M  V30 496 O 49.4493 -1.76309 1.80752 0
M  V30 497 C 50.7623 1.35121 2.68631 0
M  V30 498 C 52.3103 1.34746 2.82511 0
M  V30 499 C 52.7853 2.18388 4.0258 0
M  V30 500 N 54.2763 2.15966 4.09772 0
M  V30 501 C 55.0113 2.77437 5.01813 0
M  V30 502 N 54.5073 3.47866 5.99134 0
M  V30 503 N 56.3003 2.67037 4.94619 0
M  V30 504 H 48.4513 1.7711 1.17243 0
M  V30 505 H 50.7143 0.754256 0.574284 0
M  V30 506 H 50.4203 2.40001 2.57085 0
M  V30 507 H 50.2943 1.00991 3.63429 0
M  V30 508 H 52.6813 0.30648 2.93504 0
M  V30 509 H 52.7623 1.72869 1.88547 0
M  V30 510 H 52.4063 3.2253 3.92347 0
M  V30 511 H 52.3363 1.77621 4.9574 0
M  V30 512 H 54.8273 1.64729 3.40107 0
M  V30 513 H 55.1403 3.92038 6.65977 0
M  V30 514 H 53.4853 3.51972 5.99284 0
M  V30 515 H 56.6763 2.11597 4.17546 0
M  V30 516 H 56.8493 3.15232 5.66156 0
M  V30 517 N 50.2554 -1.46986 0.568584 0
M  V30 518 C 51.5014 -2.02741 0.0488709 0
M  V30 519 C 51.8344 -1.44077 -1.30214 0
M  V30 520 O 51.1094 -0.600552 -1.84996 0
M  V30 521 C 51.3924 -3.60086 -0.032047 0
M  V30 522 C 51.2454 -4.29162 1.34686 0
M  V30 523 C 52.5644 -4.33838 -0.739798 0
M  V30 524 H 49.6834 -0.736749 0.0192338 0
M  V30 525 H 52.3254 -1.75289 0.733065 0
M  V30 526 H 50.4754 -3.83606 -0.61473 0
M  V30 527 H 52.1474 -4.16948 1.97362 0
M  V30 528 H 50.3904 -3.89073 1.91846 0
M  V30 529 H 51.0614 -5.37826 1.24285 0
M  V30 530 H 53.5374 -4.15378 -0.244939 0
M  V30 531 H 52.4134 -5.43537 -0.765406 0
M  V30 532 H 52.6744 -4.03875 -1.79827 0
M  V30 533 N 51.7335 -0.305618 -1.54608 0
M  V30 534 C 52.6435 0.57778 -2.27374 0
M  V30 535 C 53.6595 1.14451 -1.31061 0
M  V30 536 O 54.8355 1.16831 -1.6405 0
M  V30 537 C 51.9005 1.73123 -3.00382 0
M  V30 538 C 50.9615 1.19812 -4.12242 0
M  V30 539 C 50.1945 2.2966 -4.81759 0
M  V30 540 O 50.4175 3.49651 -4.50666 0
M  V30 541 O 49.3515 1.96091 -5.69062 0
M  V30 542 H 53.1775 -0.012624 -3.03697 0
M  V30 543 H 50.7625 -0.0719184 -1.49227 0
M  V30 544 H 52.6445 2.40315 -3.4616 0
M  V30 545 H 51.3195 2.30815 -2.26949 0
M  V30 546 H 50.2265 0.491798 -3.70853 0
M  V30 547 H 51.5595 0.666566 -4.87666 0
M  V30 548 N 53.2116 1.57565 -0.0334293 0
M  V30 549 C 54.4886 1.83282 0.683163 0
M  V30 550 C 54.8686 0.91823 1.90084 0
M  V30 551 O 54.2166 -0.025113 2.28486 0
M  V30 552 C 54.4266 3.32599 1.0573 0
M  V30 553 C 55.7746 3.99179 1.44711 0
M  V30 554 O 56.7986 3.3712 1.15015 0
M  V30 555 O 55.6576 5.08565 2.0006 0
M  V30 556 H 52.7516 0.755869 0.335546 0
M  V30 557 H 55.2976 1.69589 -0.0614402 0
M  V30 558 H 54.0696 3.90834 0.190828 0
M  V30 559 H 53.6926 3.51415 1.85993 0
M  V30 560 N 54.6897 -0.239769 1.55765 0
M  V30 561 C 56.1007 -0.808263 1.68297 0
M  V30 562 C 56.4517 -1.85736 0.632181 0
M  V30 563 O 55.5767 -2.15277 -0.220204 0
M  V30 564 C 56.1717 -1.47284 3.05111 0
M  V30 565 C 54.7307 -1.98895 3.19559 0
M  V30 566 C 53.8777 -0.842575 2.64189 0
M  V30 567 H 56.8287 -0.0154422 1.58692 0
M  V30 568 H 56.8497 -2.34111 2.99954 0
M  V30 569 H 56.3617 -0.709053 3.81568 0
M  V30 570 H 54.4627 -2.78132 2.47938 0
M  V30 571 H 54.5757 -2.18143 4.26556 0
M  V30 572 H 52.9397 -1.24501 2.22197 0
M  V30 573 H 53.7227 -0.0917552 3.43177 0
M  V30 574 N 56.1678 -1.49265 -0.50573 0
M  V30 575 C 57.1308 -1.65075 -1.59006 0
M  V30 576 C 58.1308 -0.522768 -1.52065 0
M  V30 577 O 59.3208 -0.789117 -1.55302 0
M  V30 578 C 56.4528 -1.64369 -2.98656 0
M  V30 579 H 57.6458 -2.61784 -1.46319 0
M  V30 580 H 55.1988 -1.38226 -0.729616 0
M  V30 581 H 55.9338 -0.692272 -3.16825 0
M  V30 582 H 55.7188 -2.46282 -3.05103 0
M  V30 583 H 57.2088 -1.78674 -3.77446 0
M  V30 584 N 57.6459 0.756429 -1.3826 0
M  V30 585 C 59.0619 1.0591 -1.19395 0
M  V30 586 C 59.2619 2.01459 -0.0406567 0
M  V30 587 O 58.3179 2.44909 0.614467 0
M  V30 588 C 59.6309 1.64191 -2.51916 0
M  V30 589 C 61.1789 1.76376 -2.58574 0
M  V30 590 C 61.6539 2.38069 -3.91264 0
M  V30 591 N 63.1449 2.45503 -3.92788 0
M  V30 592 C 63.8799 2.94126 -4.92217 0
M  V30 593 N 63.3759 3.42805 -6.02043 0
M  V30 594 N 65.1689 2.9314 -4.7961 0
M  V30 595 H 57.3199 0.122313 -2.12048 0
M  V30 596 H 59.5829 0.116892 -0.940766 0
M  V30 597 H 59.2889 1.01451 -3.3675 0
M  V30 598 H 59.1629 2.6329 -2.70108 0
M  V30 599 H 61.5499 2.38244 -1.74137 0
M  V30 600 H 61.6309 0.759894 -2.44252 0
M  V30 601 H 61.2749 1.76835 -4.76121 0
M  V30 602 H 61.2049 3.39091 -4.02895 0
M  V30 603 H 63.6959 2.1107 -3.13461 0
M  V30 604 H 64.0089 3.78354 -6.73846 0
M  V30 605 H 62.3539 3.4087 -6.05667 0
M  V30 606 H 65.5449 2.54419 -3.92923 0
M  V30 607 H 65.7179 3.30721 -5.5725 0
M  V30 608 N 59.124 1.23083 0.984299 0
M  V30 609 C 60.349 1.088 1.76571 0
M  V30 610 C 60.774 -0.356657 1.84688 0
M  V30 611 O 60.132 -1.25788 1.30565 0
M  V30 612 C 60.18 1.71371 3.17277 0
M  V30 613 O 59.284 0.973213 4.00752 0
M  V30 614 H 58.625 0.381599 0.543395 0
M  V30 615 H 61.155 1.63057 1.23587 0
M  V30 616 H 61.165 1.76449 3.67872 0
M  V30 617 H 59.84 2.76493 3.10684 0
M  V30 618 H 58.417 0.999078 3.59267 0
M  V30 619 N 60.6021 -1.18246 1.0419 0
M  V30 620 C 61.8421 -1.89948 0.754916 0
M  V30 621 C 62.2061 -1.78608 -0.70451 0
M  V30 622 O 63.4071 -2.4503 -1.10516 0
M  V30 623 C 61.6781 -3.36305 1.20969 0
M  V30 624 S 63.2371 -4.26088 1.04854 0
M  V30 625 H 60.0551 -0.655897 0.274446 0
M  V30 626 H 62.6571 -1.42873 1.33445 0
M  V30 627 H 61.3611 -3.42089 2.26722 0
M  V30 628 H 60.8921 -3.8842 0.624004 0
M  V30 629 H 62.9071 -4.96189 -0.0332896 0
M  V30 630 N 62.0802 -0.821533 -1.34494 0
M  V30 631 C 63.0132 -0.187704 -2.27427 0
M  V30 632 C 63.9912 0.65507 -1.48821 0
M  V30 633 O 65.1752 0.619111 -1.78043 0
M  V30 634 C 62.3022 0.737996 -3.30562 0
M  V30 635 C 61.3482 -0.0270713 -4.26491 0
M  V30 636 S 62.1812 -1.37329 -5.17592 0
M  V30 637 C 63.3372 -0.452427 -6.24263 0
M  V30 638 H 63.5702 -0.975598 -2.80837 0
M  V30 639 H 61.1032 -0.61736 -1.4152 0
M  V30 640 H 63.0612 1.26654 -3.90473 0
M  V30 641 H 61.7222 1.4994 -2.76001 0
M  V30 642 H 60.9152 0.6766 -4.99438 0
M  V30 643 H 60.5172 -0.48612 -3.70827 0
M  V30 644 H 62.8092 0.356557 -6.76561 0
M  V30 645 H 63.7522 -1.15153 -6.98674 0
M  V30 646 H 64.1602 -0.0414755 -5.64485 0
M  V30 647 N 63.5583 1.46682 -0.576371 0
M  V30 648 C 64.4683 2.34032 0.163141 0
M  V30 649 C 65.4843 1.49367 0.892501 0
M  V30 650 O 66.6603 1.82252 0.857106 0
M  V30 651 C 63.7253 3.26435 1.16795 0
M  V30 652 C 62.7863 4.26998 0.443944 0
M  V30 653 C 62.0193 5.14986 1.40088 0
M  V30 654 O 62.2423 5.05785 2.637 0
M  V30 655 O 61.1763 5.94906 0.914917 0
M  V30 656 H 65.0023 2.98607 -0.55388 0
M  V30 657 H 62.5873 1.45554 -0.336821 0
M  V30 658 H 64.4693 3.83459 1.74748 0
M  V30 659 H 63.1443 2.64465 1.86655 0
M  V30 660 H 62.0513 3.7368 -0.177271 0
M  V30 661 H 63.3843 4.91736 -0.213566 0
M  V30 662 N 65.0364 0.313813 1.54444 0
M  V30 663 C 66.2844 -0.291099 1.99993 0
M  V30 664 C 66.6054 -1.53418 1.20366 0
M  V30 665 O 65.8754 -1.93544 0.302927 0
M  V30 666 H 64.4554 -0.110552 0.738774 0
M  V30 667 H 67.1174 0.428106 1.9014 0
M  V30 668 H 66.2134 -0.554268 3.07139 0
M  V30 669 N 66.5145 -1.57545 0.0417849 0
M  V30 670 C 67.4615 -2.10977 -0.935805 0
M  V30 671 C 68.4315 -1.01486 -1.31491 0
M  V30 672 O 69.6165 -1.2898 -1.40602 0
M  V30 673 C 66.7565 -2.65169 -2.2086 0
M  V30 674 C 65.8695 -3.88714 -1.88482 0
M  V30 675 C 65.0045 -4.31254 -3.1015 0
M  V30 676 C 64.0435 -5.47524 -2.7365 0
M  V30 677 N 63.1805 -5.85162 -3.87982 0
M  V30 678 H 68.0205 -2.94218 -0.473249 0
M  V30 679 H 65.5575 -1.45415 -0.221981 0
M  V30 680 H 67.5155 -2.94685 -2.95325 0
M  V30 681 H 66.1455 -1.8474 -2.64709 0
M  V30 682 H 65.1975 -3.65849 -1.04205 0
M  V30 683 H 66.5095 -4.73245 -1.57608 0
M  V30 684 H 65.6635 -4.62273 -3.92923 0
M  V30 685 H 64.4025 -3.45516 -3.44195 0
M  V30 686 H 63.4075 -5.16187 -1.89291 0
M  V30 687 H 64.6325 -6.34971 -2.40807 0
M  V30 688 H 62.5785 -5.02377 -4.21846 0
M  V30 689 H 62.4955 -6.64362 -3.60775 0
M  V30 690 H 63.7635 -6.20791 -4.71422 0
M  V30 691 N 67.9926 0.231505 -1.5589 0
M  V30 692 C 69.2176 0.978689 -1.82856 0
M  V30 693 C 69.6426 1.77559 -0.620846 0
M  V30 694 O 69.0006 1.76119 0.430305 0
M  V30 695 C 69.0486 1.87997 -3.07716 0
M  V30 696 O 68.1526 2.97393 -2.85712 0
M  V30 697 H 67.4936 0.277663 -0.603158 0
M  V30 698 H 70.0236 0.24783 -2.03093 0
M  V30 699 H 70.0336 2.2917 -3.37558 0
M  V30 700 H 68.7086 1.29417 -3.95252 0
M  V30 701 H 67.2856 2.60238 -2.67078 0
M  V30 702 N 69.4707 1.49531 0.497807 0
M  V30 703 C 70.7177 1.59179 1.25173 0
M  V30 704 C 71.0457 0.279932 1.92475 0
M  V30 705 O 70.3007 -0.732383 1.81479 0
M  V30 706 C 70.5997 2.70252 2.33878 0
M  V30 707 C 70.2657 4.11644 1.84012 0
M  V30 708 C 68.9277 4.50121 1.70132 0
M  V30 709 C 71.2797 5.00121 1.46725 0
M  V30 710 C 68.6077 5.74845 1.17348 0
M  V30 711 C 70.9597 6.25366 0.95392 0
M  V30 712 C 69.6237 6.6267 0.801538 0
M  V30 713 H 68.8937 0.582478 0.45804 0
M  V30 714 H 71.5407 1.83373 0.551948 0
M  V30 715 H 69.8457 2.40041 3.09657 0
M  V30 716 H 71.5427 2.74925 2.9192 0
M  V30 717 H 68.1327 3.81274 1.95775 0
M  V30 718 H 72.3167 4.71048 1.56294 0
M  V30 719 H 67.5727 6.02444 1.04264 0
M  V30 720 H 71.7467 6.93301 0.656225 0
M  V30 721 H 69.3737 7.59197 0.390351 0
M  V30 722 N 70.9488 -0.749086 1.3866 0
M  V30 723 C 71.8788 -1.8764 1.38973 0
M  V30 724 C 72.8598 -1.68178 0.255004 0
M  V30 725 O 74.0448 -1.88704 0.458754 0
M  V30 726 C 71.1748 -3.25222 1.21851 0
M  V30 727 C 70.1288 -3.59295 2.32575 0
M  V30 728 C 69.4548 -4.95663 2.00555 0
M  V30 729 C 70.7548 -3.63709 3.7485 0
M  V30 730 H 72.4488 -1.87635 2.3331 0
M  V30 731 H 69.9948 -0.901329 1.12303 0
M  V30 732 H 71.9478 -4.03746 1.20695 0
M  V30 733 H 70.6718 -3.25719 0.239775 0
M  V30 734 H 69.3308 -2.83093 2.32925 0
M  V30 735 H 68.9788 -4.92724 1.01154 0
M  V30 736 H 68.6788 -5.19429 2.74714 0
M  V30 737 H 70.2028 -5.7656 2.01024 0
M  V30 738 H 71.6168 -4.32338 3.76506 0
M  V30 739 H 70.0138 -3.98986 4.48252 0
M  V30 740 H 71.0838 -2.63834 4.06841 0
M  V30 741 N 72.4269 -1.23603 -0.977757 0
M  V30 742 C 73.3589 -0.977369 -2.07317 0
M  V30 743 C 74.3719 0.0495845 -1.62724 0
M  V30 744 O 75.5609 -0.186261 -1.77526 0
M  V30 745 C 72.6609 -0.451216 -3.35883 0
M  V30 746 C 71.8339 -1.53896 -4.09432 0
M  V30 747 C 70.8929 -1.01721 -5.16274 0
M  V30 748 O 69.9189 -1.70676 -5.43009 0
M  V30 749 N 71.1209 0.153594 -5.80297 0
M  V30 750 H 73.8859 -1.92047 -2.30082 0
M  V30 751 H 71.4469 -1.14497 -1.14465 0
M  V30 752 H 73.4389 -0.0871574 -4.04606 0
M  V30 753 H 72.0089 0.397368 -3.10064 0
M  V30 754 H 71.2289 -2.07566 -3.35127 0
M  V30 755 H 72.5169 -2.27037 -4.55337 0
M  V30 756 H 71.9149 0.730323 -5.60966 0
M  V30 757 H 70.4719 0.458892 -6.50183 0
M  V30 758 N 73.905 1.17692 -1.04816 0
M  V30 759 C 74.852 2.21581 -0.645797 0
M  V30 760 C 75.822 1.62367 0.350159 0
M  V30 761 O 77.007 1.89254 0.242433 0
M  V30 762 C 74.147 3.45092 -0.0227568 0
M  V30 763 C 73.26 4.18613 -1.06709 0
M  V30 764 C 72.395 5.29602 -0.411767 0
M  V30 765 C 71.434 5.94904 -1.44067 0
M  V30 766 N 70.571 6.97414 -0.809781 0
M  V30 767 H 75.411 2.55353 -1.5362 0
M  V30 768 H 72.948 1.25438 -0.768364 0
M  V30 769 H 74.906 4.15679 0.35588 0
M  V30 770 H 73.536 3.11917 0.831122 0
M  V30 771 H 72.588 3.46779 -1.5636 0
M  V30 772 H 73.9 4.63293 -1.84827 0
M  V30 773 H 73.054 6.06696 0.0206623 0
M  V30 774 H 71.793 4.86045 0.401438 0
M  V30 775 H 70.798 5.16544 -1.88316 0
M  V30 776 H 72.023 6.40542 -2.25571 0
M  V30 777 H 69.969 6.55998 -0.0170186 0
M  V30 778 H 69.886 7.40386 -1.52856 0
M  V30 779 H 71.154 7.78463 -0.401999 0
M  V30 780 N 75.3831 0.828654 1.34056 0
M  V30 781 C 76.6081 0.431637 2.02859 0
M  V30 782 C 77.0331 -0.956339 1.61975 0
M  V30 783 O 76.3911 -1.62338 0.807228 0
M  V30 784 C 76.4391 0.548323 3.56407 0
M  V30 785 O 75.5431 -0.429556 4.10157 0
M  V30 786 H 74.8841 0.176886 0.640006 0
M  V30 787 H 77.4141 1.12066 1.71179 0
M  V30 788 H 77.4241 0.426196 4.05768 0
M  V30 789 H 76.0991 1.5606 3.8551 0
M  V30 790 H 74.6761 -0.265836 3.71951 0
M  V30 791 N 76.8612 -1.46375 0.584142 0
M  V30 792 C 78.2722 -1.86031 0.157959 0
M  V30 793 C 78.6232 -1.48753 -1.27933 0
M  V30 794 O 77.7482 -0.903098 -1.96655 0
M  V30 795 C 78.3432 -3.37642 0.279892 0
M  V30 796 C 76.9022 -3.76289 -0.09143 0
M  V30 797 C 76.0492 -2.7039 0.615178 0
M  V30 798 H 79.0002 -1.37509 0.792274 0
M  V30 799 H 79.0212 -3.77275 -0.494364 0
M  V30 800 H 78.5332 -3.64742 1.32607 0
M  V30 801 H 76.6342 -3.54806 -1.13769 0
M  V30 802 H 76.7472 -4.78246 0.285886 0
M  V30 803 H 75.1112 -2.5464 0.0552833 0
M  V30 804 H 75.8942 -3.0033 1.66303 0
M  V30 805 N 78.3393 -0.321999 -1.54275 0
M  V30 806 C 79.5643 0.285791 -2.05422 0
M  V30 807 C 79.9893 1.45124 -1.19669 0
M  V30 808 O 79.3473 1.80132 -0.205441 0
M  V30 809 C 79.3953 0.69956 -3.53749 0
M  V30 810 O 78.4993 1.8021 -3.70942 0
M  V30 811 H 77.8403 0.0518962 -0.661969 0
M  V30 812 H 80.3703 -0.469954 -1.9913 0
M  V30 813 H 80.3803 0.982649 -3.9599 0
M  V30 814 H 79.0553 -0.152864 -4.15619 0
M  V30 815 H 77.6323 1.51794 -3.40607 0
M  V30 816 N 79.8174 1.5752 -0.0501392 0
M  V30 817 C 80.7644 2.1147 0.924603 0
M  V30 818 C 81.7344 1.02182 1.30951 0
M  V30 819 O 82.9194 1.29723 1.39916 0
M  V30 820 C 80.0594 2.66337 2.19451 0
M  V30 821 C 79.1724 3.89708 1.86418 0
M  V30 822 C 78.3074 4.32893 3.07859 0
M  V30 823 C 77.3464 5.48967 2.70742 0
M  V30 824 N 76.4834 5.87211 3.84874 0
M  V30 825 H 81.3234 2.94465 0.457639 0
M  V30 826 H 78.8604 1.45531 0.214266 0
M  V30 827 H 80.8184 2.96247 2.93758 0
M  V30 828 H 79.4484 1.86141 2.63726 0
M  V30 829 H 78.5004 3.66396 1.02264 0
M  V30 830 H 79.8124 4.74074 1.55096 0
M  V30 831 H 78.9664 4.6435 3.90466 0
M  V30 832 H 77.7054 3.47336 3.42358 0
M  V30 833 H 76.7104 5.17183 1.86551 0
M  V30 834 H 77.9354 6.3624 2.37436 0
M  V30 835 H 75.8814 5.04607 4.19175 0
M  V30 836 H 75.7984 6.66266 3.57247 0
M  V30 837 H 77.0664 6.23282 4.68123 0
M  V30 838 N 81.2955 -0.223234 1.56011 0
M  V30 839 C 82.2055 -1.29766 1.95443 0
M  V30 840 C 83.2215 -1.51373 0.858028 0
M  V30 841 O 84.3975 -1.64536 1.16146 0
M  V30 842 C 81.4625 -2.62772 2.26167 0
M  V30 843 C 80.5235 -2.49482 3.49367 0
M  V30 844 C 79.7565 -3.76145 3.78616 0
M  V30 845 O 79.9795 -4.79087 3.09568 0
M  V30 846 O 78.9135 -3.73358 4.72109 0
M  V30 847 H 82.7395 -0.99309 2.87004 0
M  V30 848 H 80.3245 -0.425958 1.43199 0
M  V30 849 H 82.2065 -3.41327 2.47131 0
M  V30 850 H 80.8815 -2.92913 1.37781 0
M  V30 851 H 79.7885 -1.69133 3.33684 0
M  V30 852 H 81.1215 -2.2428 4.38131 0
M  V30 853 N 82.7736 -1.49793 -0.48987 0
M  V30 854 C 84.1846 -1.52914 -1.07118 0
M  V30 855 C 84.5356 -0.321738 -1.93544 0
M  V30 856 O 83.6606 0.567338 -2.08831 0
M  V30 857 C 84.2556 -2.771 -1.94938 0
M  V30 858 C 82.8146 -2.82963 -2.48212 0
M  V30 859 C 81.9616 -2.46972 -1.26096 0
M  V30 860 H 84.9126 -1.56329 -0.273289 0
M  V30 861 H 84.9336 -2.57892 -2.79771 0
M  V30 862 H 84.4456 -3.64959 -1.32009 0
M  V30 863 H 82.5466 -1.99411 -3.14748 0
M  V30 864 H 82.6596 -3.85406 -2.84603 0
M  V30 865 H 81.0236 -1.98994 -1.58976 0
M  V30 866 H 81.8066 -3.37118 -0.648581 0
M  V30 867 N 84.2517 0.741722 -1.39055 0
M  V30 868 C 85.2017 1.84661 -1.33732 0
M  V30 869 C 86.1857 1.59397 -0.219401 0
M  V30 870 O 87.3777 1.71015 -0.456375 0
M  V30 871 C 84.5067 3.22512 -1.17647 0
M  V30 872 C 83.5927 3.53628 -2.34112 0
M  V30 873 N 83.9837 3.55723 -3.59576 0
M  V30 874 C 82.2817 3.83956 -2.26923 0
M  V30 875 C 82.9827 3.84443 -4.36553 0
M  V30 876 N 81.9587 4.01877 -3.66055 0
M  V30 877 H 85.7607 1.84576 -2.28711 0
M  V30 878 H 83.2747 0.939647 -1.32455 0
M  V30 879 H 85.2717 4.01597 -1.11917 0
M  V30 880 H 83.9317 3.2384 -0.236124 0
M  V30 881 H 84.9427 3.37196 -3.93089 0
M  V30 882 H 81.6197 3.92929 -1.41113 0
M  V30 883 H 83.0097 3.92588 -5.45274 0
M  V30 884 N 85.7298 1.2412 0.971189 0
M  V30 885 C 86.9768 1.07881 1.71371 0
M  V30 886 C 87.3048 -0.382901 1.90694 0
M  V30 887 O 86.5598 -1.29945 1.46331 0
M  V30 888 C 86.8588 1.75983 3.11071 0
M  V30 889 C 86.5248 3.25909 3.11599 0
M  V30 890 C 85.1868 3.66813 3.11451 0
M  V30 891 C 87.5388 4.21771 3.062 0
M  V30 892 C 84.8668 5.02021 3.03631 0
M  V30 893 C 87.2188 5.56982 2.99923 0
M  V30 894 C 85.8828 5.97237 2.98102 0
M  V30 895 H 85.1528 0.394764 0.62709 0
M  V30 896 H 87.7998 1.54176 1.13587 0
M  V30 897 H 86.1048 1.22072 3.72298 0
M  V30 898 H 87.8018 1.60887 3.6731 0
M  V30 899 H 84.3918 2.93353 3.12477 0
M  V30 900 H 88.5758 3.91172 3.05447 0
M  V30 901 H 83.8318 5.32411 3.0058 0
M  V30 902 H 88.0058 6.30969 2.94704 0
M  V30 903 H 85.6328 7.01967 2.91798 0
M  V30 904 N 87.2079 -1.17134 1.05439 0
M  V30 905 C 88.4359 -1.91372 0.786414 0
M  V30 906 C 88.8509 -1.76955 -0.658202 0
M  V30 907 O 88.2079 -1.10838 -1.44987 0
M  V30 908 C 88.2589 -3.42356 1.1608 0
M  V30 909 O 87.9799 -3.56332 2.54871 0
M  V30 910 C 89.4809 -4.33663 0.919322 0
M  V30 911 H 86.7009 -0.607118 0.285743 0
M  V30 912 H 89.2449 -1.48525 1.40572 0
M  V30 913 H 87.3999 -3.82939 0.586191 0
M  V30 914 H 87.8139 -4.49896 2.69618 0
M  V30 915 H 89.2879 -5.38099 1.231 0
M  V30 916 H 89.7649 -4.38959 -0.145359 0
M  V30 917 H 90.3709 -3.98796 1.47789 0
M  V30 918 N 88.686 -0.835752 -1.33615 0
M  V30 919 C 89.963 -0.352017 -1.92406 0
M  V30 920 C 90.343 1.16225 -1.76224 0
M  V30 921 O 89.691 1.97526 -1.14873 0
M  V30 922 C 89.901 -0.795485 -3.39813 0
M  V30 923 C 91.249 -0.801703 -4.16963 0
M  V30 924 O 92.273 -0.738889 -3.48452 0
M  V30 925 O 91.132 -0.886607 -5.3926 0
M  V30 926 H 88.226 -0.0989641 -0.821057 0
M  V30 927 H 90.772 -0.921397 -1.42507 0
M  V30 928 H 89.544 -1.83795 -3.45449 0
M  V30 929 H 89.167 -0.202505 -3.97084 0
M  V30 930 N 90.1641 1.46063 -0.591896 0
M  V30 931 C 91.4111 2.02338 -0.0809991 0
M  V30 932 C 91.7391 1.46228 1.28249 0
M  V30 933 O 90.9941 0.620818 1.85592 0
M  V30 934 C 91.2931 3.57391 0.0249813 0
M  V30 935 C 90.9591 4.32583 -1.27211 0
M  V30 936 C 89.6211 4.52844 -1.62745 0
M  V30 937 C 91.9731 4.75687 -2.13005 0
M  V30 938 C 89.3011 5.13462 -2.83855 0
M  V30 939 C 91.6531 5.37644 -3.3335 0
M  V30 940 C 90.3171 5.5613 -3.69155 0
M  V30 941 H 89.5871 0.740407 -0.0296397 0
M  V30 942 H 92.2341 1.75321 -0.770374 0
M  V30 943 H 90.5391 3.83597 0.797537 0
M  V30 944 H 92.2361 3.98621 0.436184 0
M  V30 945 H 88.8261 4.17116 -0.985499 0
M  V30 946 H 93.0101 4.59782 -1.86855 0
M  V30 947 H 88.2661 5.25965 -3.11722 0
M  V30 948 H 92.4401 5.7 -4.00092 0
M  V30 949 H 90.0671 6.0287 -4.63089 0
M  V30 950 N 91.6422 0.330177 1.54103 0
M  V30 951 C 92.5522 -0.541534 2.28264 0
M  V30 952 C 93.5682 -1.12351 1.32866 0
M  V30 953 O 94.7442 -1.14206 1.65888 0
M  V30 954 C 91.8092 -1.68322 3.03098 0
M  V30 955 C 90.8702 -1.13238 4.14096 0
M  V30 956 C 90.1032 -2.21966 4.85352 0
M  V30 957 O 90.3262 -3.42437 4.56172 0
M  V30 958 O 89.2602 -1.87013 5.7211 0
M  V30 959 H 93.0862 0.060938 3.03639 0
M  V30 960 H 90.6712 0.09565 1.49093 0
M  V30 961 H 92.5532 -2.34777 3.49939 0
M  V30 962 H 91.2282 -2.27176 2.30593 0
M  V30 963 H 90.1352 -0.432736 3.71589 0
M  V30 964 H 91.4682 -0.588898 4.88664 0
M  V30 965 N 93.1203 -1.57491 0.0584922 0
M  V30 966 C 94.3683 -1.92597 -0.612436 0
M  V30 967 C 94.6893 -0.938162 -1.70949 0
M  V30 968 O 93.9593 0.0158301 -1.95894 0
M  V30 969 H 92.5393 -0.710964 -0.229214 0
M  V30 970 H 95.2013 -1.94571 0.113218 0
M  V30 971 H 94.2973 -2.94038 -1.04633 0
M  V30 972 N 94.5984 0.214957 -1.56127 0
M  V30 973 C 95.5454 1.26642 -1.92952 0
M  V30 974 C 96.5154 1.46244 -0.78753 0
M  V30 975 O 97.7004 1.59704 -1.04399 0
M  V30 976 C 94.8404 2.6104 -2.25726 0
M  V30 977 C 93.9534 2.49183 -3.52891 0
M  V30 978 C 93.0884 3.76149 -3.7508 0
M  V30 979 C 92.1274 3.59041 -4.95738 0
M  V30 980 N 91.2644 4.77972 -5.14283 0
M  V30 981 H 96.1044 0.945384 -2.82607 0
M  V30 982 H 93.6414 0.455489 -1.3987 0
M  V30 983 H 95.5994 3.39313 -2.42739 0
M  V30 984 H 94.2294 2.91227 -1.39236 0
M  V30 985 H 93.2814 1.6231 -3.44034 0
M  V30 986 H 94.5934 2.32466 -4.41318 0
M  V30 987 H 93.7474 4.62865 -3.92226 0
M  V30 988 H 92.4864 3.95799 -2.84947 0
M  V30 989 H 91.4914 2.7071 -4.78535 0
M  V30 990 H 92.7164 3.40856 -5.87362 0
M  V30 991 H 90.6624 4.97923 -4.27093 0
M  V30 992 H 90.5794 4.64006 -5.96853 0
M  V30 993 H 91.8474 5.66096 -5.35869 0
M  V30 994 N 96.0765 1.50051 0.48192 0
M  V30 995 C 97.3045 1.64237 1.25832 0
M  V30 996 C 97.7195 0.321336 1.86045 0
M  V30 997 O 97.0765 -0.695478 1.68729 0
M  V30 998 C 97.1275 2.72548 2.37487 0
M  V30 999 O 96.8485 3.99529 1.79745 0
M  V30 1000 C 98.3495 2.9761 3.28547 0
M  V30 1001 H 95.5695 0.55237 0.380957 0
M  V30 1002 H 98.1135 1.96207 0.576467 0
M  V30 1003 H 96.2685 2.43303 3.01467 0
M  V30 1004 H 96.6825 4.59342 2.5319 0
M  V30 1005 H 98.1565 3.77084 4.03127 0
M  V30 1006 H 98.6335 2.0826 3.86684 0
M  V30 1007 H 99.2395 3.28345 2.70314 0
M  V30 1008 N 97.5546 -0.734337 1.39446 0
M  V30 1009 C 98.7796 -1.52866 1.40167 0
M  V30 1010 C 99.2046 -1.881 -0.00171513 0
M  V30 1011 O 98.5626 -1.51957 -0.988879 0
M  V30 1012 C 98.6106 -2.79235 2.28167 0
M  V30 1013 O 97.7146 -3.75185 1.71201 0
M  V30 1014 H 97.0556 -0.461618 0.477289 0
M  V30 1015 H 99.5856 -0.905949 1.8345 0
M  V30 1016 H 99.5956 -3.27963 2.42702 0
M  V30 1017 H 98.2706 -2.52923 3.30156 0
M  V30 1018 H 96.8476 -3.33958 1.65912 0
M  V30 1019 N 99.0327 -1.24633 -0.964593 0
M  V30 1020 C 100.28 -1.08788 -1.70796 0
M  V30 1021 C 100.608 0.372783 -1.90894 0
M  V30 1022 O 99.8627 1.29167 -1.47018 0
M  V30 1023 C 100.162 -1.7763 -3.10133 0
M  V30 1024 C 99.8277 -3.27557 -3.09866 0
M  V30 1025 C 98.4897 -3.6846 -3.09501 0
M  V30 1026 C 100.842 -4.23389 -3.03959 0
M  V30 1027 C 98.1697 -5.03624 -3.00965 0
M  V30 1028 C 100.522 -5.58565 -2.96965 0
M  V30 1029 C 99.1857 -5.98809 -2.9493 0
M  V30 1030 H 98.4557 -0.398084 -0.624988 0
M  V30 1031 H 101.103 -1.54777 -1.12767 0
M  V30 1032 H 99.4077 -1.24044 -3.71645 0
M  V30 1033 H 101.105 -1.62832 -3.66451 0
M  V30 1034 H 97.6947 -2.95006 -3.10917 0
M  V30 1035 H 101.879 -3.92787 -3.03368 0
M  V30 1036 H 97.1347 -5.33998 -2.97752 0
M  V30 1037 H 101.309 -6.32523 -2.91354 0
M  V30 1038 H 98.9357 -7.03505 -2.88071 0
M  V30 1039 N 100.511 1.16574 -1.06058 0
M  V30 1040 C 101.759 1.86677 -0.77434 0
M  V30 1041 C 102.08 1.81959 0.701147 0
M  V30 1042 O 101.35 1.2515 1.50713 0
M  V30 1043 H 99.9298 0.691134 -0.283449 0
M  V30 1044 H 102.592 1.41378 -1.34158 0
M  V30 1045 H 101.688 2.92181 -1.09711 0
M  V30 1046 N 101.989 0.842826 1.3317 0
M  V30 1047 C 102.922 0.223862 2.27099 0
M  V30 1048 C 103.9 -0.631311 1.49844 0
M  V30 1049 O 105.084 -0.590708 1.79005 0
M  V30 1050 C 102.211 -0.685313 3.31694 0
M  V30 1051 C 101.257 0.094919 4.26394 0
M  V30 1052 S 102.09 1.45546 5.15341 0
M  V30 1053 C 103.246 0.551685 6.23464 0
M  V30 1054 H 103.479 1.02015 2.79249 0
M  V30 1055 H 101.012 0.639797 1.4052 0
M  V30 1056 H 102.97 -1.20426 3.92438 0
M  V30 1057 H 101.631 -1.4553 2.78352 0
M  V30 1058 H 100.824 -0.597059 5.00451 0
M  V30 1059 H 100.426 0.545054 3.70007 0
M  V30 1060 H 102.718 -0.248877 6.77043 0
M  V30 1061 H 103.661 1.26253 6.96754 0
M  V30 1062 H 104.069 0.131275 5.64347 0
M  V30 1063 N 103.467 -1.45747 0.599634 0
M  V30 1064 C 104.692 -2.07178 0.0960198 0
M  V30 1065 C 105.117 -1.44268 -1.207 0
M  V30 1066 O 104.475 -0.532503 -1.73303 0
M  V30 1067 C 104.523 -3.60579 -0.0385348 0
M  V30 1068 O 103.627 -3.97713 -1.0908 0
M  V30 1069 H 102.968 -0.660251 0.0704593 0
M  V30 1070 H 105.498 -1.87124 0.827385 0
M  V30 1071 H 105.508 -4.07298 -0.239304 0
M  V30 1072 H 104.183 -4.05756 0.912947 0
M  V30 1073 H 102.76 -3.62678 -0.867135 0
M  V30 1074 N 104.945 -0.338344 -1.53925 0
M  V30 1075 C 106.191 0.260143 -2.01125 0
M  V30 1076 C 106.524 1.50617 -1.22589 0
M  V30 1077 O 105.799 1.91979 -0.312113 0
M  V30 1078 C 106.082 0.579499 -3.55407 0
M  V30 1079 C 105.935 -0.678264 -4.44657 0
M  V30 1080 C 107.254 1.39122 -4.17532 0
M  V30 1081 H 104.373 0.0930772 -0.731099 0
M  V30 1082 H 107.015 -0.457852 -1.84401 0
M  V30 1083 H 105.165 1.19118 -3.69788 0
M  V30 1084 H 106.837 -1.31631 -4.42121 0
M  V30 1085 H 105.08 -1.3042 -4.13731 0
M  V30 1086 H 105.751 -0.410143 -5.50474 0
M  V30 1087 H 108.227 0.874035 -4.06817 0
M  V30 1088 H 107.103 1.58342 -5.25565 0
M  V30 1089 H 107.364 2.39178 -3.71815 0
M  V30 1090 N 106.423 1.57458 -0.0668435 0
M  V30 1091 C 107.67 1.93301 0.603406 0
M  V30 1092 C 107.998 0.946486 1.69917 0
M  V30 1093 O 107.253 -0.0387021 1.95662 0
M  V30 1094 C 107.552 3.35784 1.22409 0
M  V30 1095 C 107.218 4.50179 0.254955 0
M  V30 1096 C 105.88 4.81199 -0.0116746 0
M  V30 1097 C 108.232 5.19598 -0.408338 0
M  V30 1098 C 105.56 5.78978 -0.94877 0
M  V30 1099 C 107.912 6.18381 -1.33372 0
M  V30 1100 C 106.576 6.47821 -1.60887 0
M  V30 1101 H 105.846 0.707338 0.220802 0
M  V30 1102 H 108.493 1.91012 -0.136665 0
M  V30 1103 H 106.798 3.34515 2.03978 0
M  V30 1104 H 108.495 3.60804 1.74989 0
M  V30 1105 H 105.085 4.25983 0.472954 0
M  V30 1106 H 109.269 4.95832 -0.215456 0
M  V30 1107 H 104.525 6.00115 -1.16925 0
M  V30 1108 H 108.699 6.71277 -1.85367 0
M  V30 1109 H 106.326 7.23399 -2.33661 0
M  V30 1110 N 107.901 -0.206675 1.56239 0
M  V30 1111 C 108.849 -1.27571 1.94495 0
M  V30 1112 C 109.843 -1.47737 0.828862 0
M  V30 1113 O 111.049 -1.48735 1.0138 0
M  V30 1114 H 107.424 -0.428029 0.6183 0
M  V30 1115 H 109.395 -0.925961 2.8367 0
M  V30 1116 C 108.144 -2.61568 2.29079 0
M  V30 1117 H 107.467 -2.46863 3.14482 0
M  V30 1118 H 108.907 -3.35144 2.5972 0
M  V30 1119 C 107.366 -3.17695 1.12123 0
M  V30 1120 O 107.896 -3.99801 0.390153 0
M  V30 1121 N 106.102 -2.76276 0.901097 0
M  V30 1122 H 105.649 -2.09613 1.49733 0
M  V30 1123 H 105.607 -3.1417 0.120319 0
M  V30 1124 N 109.379 -1.50304 -0.473955 0
M  V30 1125 C 110.309 -1.71886 -1.58042 0
M  V30 1126 C 111.29 -0.567799 -1.60344 0
M  V30 1127 O 112.475 -0.806623 -1.76656 0
M  V30 1128 C 109.605 -1.81036 -2.96384 0
M  V30 1129 C 108.559 -2.962 -3.08949 0
M  V30 1130 C 107.885 -2.9049 -4.48909 0
M  V30 1131 C 109.185 -4.36752 -2.86434 0
M  V30 1132 H 110.879 -2.64527 -1.40234 0
M  V30 1133 H 108.425 -1.27295 -0.673201 0
M  V30 1134 H 110.378 -1.94719 -3.73714 0
M  V30 1135 H 109.102 -0.850147 -3.15341 0
M  V30 1136 H 107.761 -2.82164 -2.3405 0
M  V30 1137 H 107.409 -1.92321 -4.64781 0
M  V30 1138 H 107.109 -3.67802 -4.58253 0
M  V30 1139 H 108.633 -3.06218 -5.28264 0
M  V30 1140 H 110.047 -4.5133 -3.53517 0
M  V30 1141 H 108.444 -5.15493 -3.07225 0
M  V30 1142 H 109.514 -4.49321 -1.82316 0
M  V30 1143 N 110.857 0.726932 -1.39834 0
M  V30 1144 C 112.082 1.52121 -1.40976 0
M  V30 1145 C 112.507 1.88098 -0.00826029 0
M  V30 1146 O 111.865 1.52479 0.980807 0
M  V30 1147 C 111.913 2.78021 -2.29644 0
M  V30 1148 O 111.017 3.74272 -1.73188 0
M  V30 1149 H 110.358 0.45908 -0.479731 0
M  V30 1150 H 112.888 0.896207 -1.83927 0
M  V30 1151 H 112.898 3.26671 -2.44438 0
M  V30 1152 H 111.573 2.51169 -3.31492 0
M  V30 1153 H 110.15 3.33073 -1.6768 0
M  V30 1154 N 112.336 1.25143 0.95797 0
M  V30 1155 C 113.284 1.05019 2.07542 0
M  V30 1156 C 114.278 -0.0178751 1.69391 0
M  V30 1157 O 115.484 0.137472 1.79474 0
M  V30 1158 H 111.859 0.32265 0.679265 0
M  V30 1159 H 113.83 1.99759 2.21673 0
M  V30 1160 C 112.579 0.682074 3.40944 0
M  V30 1161 H 111.902 1.49573 3.70767 0
M  V30 1162 H 113.342 0.580945 4.20001 0
M  V30 1163 C 111.801 -0.611608 3.31302 0
M  V30 1164 O 112.331 -1.65465 3.66038 0
M  V30 1165 N 110.537 -0.595982 2.84423 0
M  V30 1166 H 110.084 0.253192 2.56353 0
M  V30 1167 H 110.042 -1.46173 2.78354 0
M  V30 1168 N 113.814 -1.1601 1.06675 0
M  V30 1169 C 114.777 -2.18724 0.685001 0
M  V30 1170 C 115.777 -1.58496 -0.271246 0
M  V30 1171 O 116.967 -1.74119 -0.0531156 0
M  V30 1172 C 114.099 -3.40899 0.00853648 0
M  V30 1173 H 115.292 -2.54011 1.59431 0
M  V30 1174 H 112.845 -1.30352 0.862441 0
M  V30 1175 H 113.58 -3.11173 -0.913337 0
M  V30 1176 H 113.365 -3.8587 0.696204 0
M  V30 1177 H 114.855 -4.16886 -0.24414 0
M  V30 1178 N 115.292 -0.849877 -1.32721 0
M  V30 1179 C 116.541 -0.447175 -1.96681 0
M  V30 1180 C 116.854 1.00135 -1.68025 0
M  V30 1181 O 118.06 1.50926 -2.25685 0
M  V30 1182 C 116.516 -0.7487 -3.52026 0
M  V30 1183 C 116.124 -2.21264 -3.89546 0
M  V30 1184 C 117.868 -0.413487 -4.22481 0
M  V30 1185 C 115.775 -2.45763 -5.37917 0
M  V30 1186 H 114.705 -0.163486 -0.736063 0
M  V30 1187 H 117.356 -1.03999 -1.51183 0
M  V30 1188 H 115.738 -0.0853727 -3.95908 0
M  V30 1189 H 116.912 -2.91736 -3.56689 0
M  V30 1190 H 115.227 -2.5119 -3.32103 0
M  V30 1191 H 117.824 -0.574017 -5.3161 0
M  V30 1192 H 118.167 0.644492 -4.11281 0
M  V30 1193 H 118.7 -1.03251 -3.84167 0
M  V30 1194 H 115.439 -3.50168 -5.54132 0
M  V30 1195 H 114.959 -1.79864 -5.72197 0
M  V30 1196 H 116.638 -2.29471 -6.0494 0
M  V30 1197 N 116.77 1.45427 -0.607355 0
M  V30 1198 C 117.703 2.27635 0.160482 0
M  V30 1199 C 118.681 1.37122 0.873857 0
M  V30 1200 O 119.865 1.66551 0.882775 0
M  V30 1201 C 116.992 3.15486 1.23231 0
M  V30 1202 C 116.038 4.21939 0.622097 0
M  V30 1203 S 116.871 5.32459 -0.569852 0
M  V30 1204 C 118.027 6.23879 0.502577 0
M  V30 1205 H 118.26 2.9241 -0.536983 0
M  V30 1206 H 115.793 1.49265 -0.394868 0
M  V30 1207 H 117.751 3.66659 1.84585 0
M  V30 1208 H 116.412 2.49977 1.90185 0
M  V30 1209 H 115.605 4.8333 1.42856 0
M  V30 1210 H 115.207 3.73906 0.0837063 0
M  V30 1211 H 117.499 6.63261 1.38171 0
M  V30 1212 H 118.442 7.0806 -0.0751759 0
M  V30 1213 H 118.85 5.58545 0.8178 0
M  V30 1214 N 118.248 0.346503 1.53744 0
M  V30 1215 C 119.496 -0.248612 2.00565 0
M  V30 1216 C 119.817 -1.5083 1.23593 0
M  V30 1217 O 119.087 -1.92858 0.343912 0
M  V30 1218 H 117.667 -0.0948564 0.740953 0
M  V30 1219 H 120.329 0.468341 1.89189 0
M  V30 1220 H 119.425 -0.488994 3.08245 0
M  V30 1221 N 119.726 -1.57421 0.075193 0
M  V30 1222 C 120.951 -1.98364 -0.605515 0
M  V30 1223 C 121.376 -0.953383 -1.62149 0
M  V30 1224 O 120.734 0.0806053 -1.81121 0
M  V30 1225 C 120.782 -3.38332 -1.24756 0
M  V30 1226 O 119.886 -3.37959 -2.36342 0
M  V30 1227 H 119.227 -0.645553 -0.155428 0
M  V30 1228 H 121.757 -2.04044 0.150714 0
M  V30 1229 H 121.767 -3.75591 -1.5936 0
M  V30 1230 H 120.442 -4.12846 -0.503129 0
M  V30 1231 H 119.019 -3.12474 -2.03506 0
M  V30 1232 N 121.204 0.198386 -1.56346 0
M  V30 1233 C 122.452 0.91747 -1.80075 0
M  V30 1234 C 122.773 1.83929 -0.647692 0
M  V30 1235 O 122.043 1.93029 0.334166 0
M  V30 1236 H 120.623 0.341774 -0.664228 0
M  V30 1237 H 123.285 0.204684 -1.93822 0
M  V30 1238 H 122.381 1.51055 -2.7311 0
M  V30 1239 N 122.682 1.50554 0.465978 0
M  V30 1240 C 123.931 1.61038 1.21448 0
M  V30 1241 C 124.244 0.31865 1.92987 0
M  V30 1242 O 125.45 0.302469 2.6981 0
M  V30 1243 C 123.906 2.84283 2.20706 0
M  V30 1244 C 123.514 4.20352 1.54946 0
M  V30 1245 C 125.258 3.04115 2.96166 0
M  V30 1246 C 123.165 5.34778 2.5252 0
M  V30 1247 H 122.095 0.599718 0.457005 0
M  V30 1248 H 124.746 1.7699 0.484424 0
M  V30 1249 H 123.128 2.61901 2.97025 0
M  V30 1250 H 124.302 4.53008 0.843811 0
M  V30 1251 H 122.617 4.06167 0.917475 0
M  V30 1252 H 125.214 3.86774 3.69202 0
M  V30 1253 H 125.557 2.16045 3.55852 0
M  V30 1254 H 126.09 3.26702 2.26959 0
M  V30 1255 H 122.829 6.25018 1.97566 0
M  V30 1256 H 122.349 5.06534 3.21222 0
M  V30 1257 H 124.028 5.65561 3.14245 0
M  V30 1258 N 124.16 -0.719506 1.40217 0
M  V30 1259 C 125.09 -1.8465 1.42922 0
M  V30 1260 C 126.071 -1.67599 0.29062 0
M  V30 1261 O 127.256 -1.87688 0.498677 0
M  V30 1262 C 124.386 -3.22565 1.28722 0
M  V30 1263 C 123.34 -3.54281 2.40144 0
M  V30 1264 C 122.666 -4.91298 2.11023 0
M  V30 1265 C 123.966 -3.55676 3.82481 0
M  V30 1266 H 125.66 -1.82644 2.37237 0
M  V30 1267 H 123.206 -0.877305 1.1419 0
M  V30 1268 H 125.159 -4.01095 1.29232 0
M  V30 1269 H 123.883 -3.25137 0.308811 0
M  V30 1270 H 122.542 -2.78088 2.38877 0
M  V30 1271 H 122.19 -4.90468 1.11582 0
M  V30 1272 H 121.89 -5.13485 2.8567 0
M  V30 1273 H 123.414 -5.72166 2.13209 0
M  V30 1274 H 124.828 -4.24254 3.85592 0
M  V30 1275 H 123.225 -3.89388 4.56614 0
M  V30 1276 H 124.295 -2.55144 4.12346 0
M  V30 1277 N 125.638 -1.25649 -0.95132 0
M  V30 1278 C 126.886 -1.10375 -1.69298 0
M  V30 1279 C 127.207 0.355339 -1.91735 0
M  V30 1280 O 126.477 1.25188 -1.50681 0
M  V30 1281 H 125.057 -0.405461 -0.627384 0
M  V30 1282 H 127.719 -1.57823 -1.14358 0
M  V30 1283 H 126.815 -1.61465 -2.67087 0
M  V30 1284 N 127.117 1.15442 -1.07289 0
M  V30 1285 C 128.047 2.22312 -0.714107 0
M  V30 1286 C 129.028 1.67467 0.298155 0
M  V30 1287 O 130.213 1.93445 0.171048 0
M  V30 1288 C 127.343 3.47124 -0.110448 0
M  V30 1289 C 126.297 4.14926 -1.04979 0
M  V30 1290 C 125.623 5.33807 -0.308924 0
M  V30 1291 C 126.923 4.64762 -2.38314 0
M  V30 1292 H 128.617 2.5258 -1.6076 0
M  V30 1293 H 126.163 1.21404 -0.77441 0
M  V30 1294 H 128.116 4.21124 0.152482 0
M  V30 1295 H 126.84 3.16187 0.81812 0
M  V30 1296 H 125.499 3.42866 -1.29764 0
M  V30 1297 H 125.147 4.99126 0.623084 0
M  V30 1298 H 124.847 5.80113 -0.935036 0
M  V30 1299 H 126.371 6.10576 -0.0537771 0
M  V30 1300 H 127.785 5.30292 -2.1786 0
M  V30 1301 H 126.182 5.21728 -2.96514 0
M  V30 1302 H 127.252 3.80434 -3.00663 0
M  V30 1303 N 128.595 0.856903 1.32268 0
M  V30 1304 C 129.558 0.308171 2.27119 0
M  V30 1305 C 130.558 -0.533421 1.51695 0
M  V30 1306 O 131.748 -0.344607 1.70757 0
M  V30 1307 C 128.88 -0.563757 3.36206 0
M  V30 1308 H 130.073 1.14535 2.77167 0
M  V30 1309 H 127.626 0.631421 1.42978 0
M  V30 1310 H 128.361 -1.42266 2.91429 0
M  V30 1311 H 128.146 0.0386749 3.92081 0
M  V30 1312 H 129.636 -0.940386 4.06874 0
M  V30 1313 N 130.073 -1.45103 0.615059 0
M  V30 1314 C 131.303 -2.06254 0.119596 0
M  V30 1315 C 131.711 -1.4591 -1.20445 0
M  V30 1316 O 131.054 -0.570384 -1.7462 0
M  V30 1317 C 131.116 -3.59396 -0.0865591 0
M  V30 1318 C 130.78 -4.42116 1.15683 0
M  V30 1319 C 131.777 -4.7662 2.07676 0
M  V30 1320 C 129.462 -4.82749 1.38775 0
M  V30 1321 C 131.456 -5.50622 3.21082 0
M  V30 1322 C 129.143 -5.56504 2.52481 0
M  V30 1323 C 130.141 -5.90358 3.43463 0
M  V30 1324 O 129.829 -6.62615 4.55189 0
M  V30 1325 H 129.561 -0.672423 0.0694512 0
M  V30 1326 H 132.115 -1.87219 0.844885 0
M  V30 1327 H 130.345 -3.76859 -0.866823 0
M  V30 1328 H 132.034 -4.02365 -0.534555 0
M  V30 1329 H 132.8 -4.4578 1.91063 0
M  V30 1330 H 128.679 -4.55829 0.688545 0
M  V30 1331 H 132.223 -5.76965 3.92119 0
M  V30 1332 H 128.12 -5.86759 2.69043 0
M  V30 1333 H 128.888 -6.81071 4.53966 0
M  V30 1334 N 131.551 -0.354651 -1.53558 0
M  V30 1335 C 132.514 0.484566 -2.24019 0
M  V30 1336 C 133.514 1.01861 -1.24422 0
M  V30 1337 O 134.704 0.906097 -1.4878 0
M  V30 1338 C 131.836 1.67615 -2.96847 0
M  V30 1339 H 133.029 -0.131843 -2.9961 0
M  V30 1340 H 130.582 -0.106165 -1.55939 0
M  V30 1341 H 131.317 2.33095 -2.25471 0
M  V30 1342 H 131.102 1.30029 -3.69912 0
M  V30 1343 H 132.592 2.27114 -3.50441 0
M  V30 1344 N 133.029 1.57378 -0.0835403 0
M  V30 1345 C 133.962 2.09016 0.915833 0
M  V30 1346 C 134.94 0.997993 1.2837 0
M  V30 1347 O 136.124 1.27219 1.39096 0
M  V30 1348 C 133.251 2.55757 2.22049 0
M  V30 1349 C 132.297 3.76522 2.00333 0
M  V30 1350 S 133.13 5.20661 1.25191 0
M  V30 1351 C 134.286 5.70743 2.56912 0
M  V30 1352 H 134.519 2.93457 0.476492 0
M  V30 1353 H 132.052 1.53856 0.129493 0
M  V30 1354 H 134.01 2.83346 2.97027 0
M  V30 1355 H 132.671 1.71564 2.63106 0
M  V30 1356 H 131.864 4.07256 2.96916 0
M  V30 1357 H 131.466 3.49367 1.33488 0
M  V30 1358 H 133.758 5.78304 3.52946 0
M  V30 1359 H 134.701 6.6944 2.30772 0
M  V30 1360 H 135.109 4.98616 2.64655 0
M  V30 1361 N 134.507 -0.190092 1.56449 0
M  V30 1362 C 135.47 -1.21925 1.9408 0
M  V30 1363 C 136.47 -1.38176 0.822431 0
M  V30 1364 O 137.66 -1.35903 1.08977 0
M  V30 1365 C 134.792 -2.58773 2.21922 0
M  V30 1366 H 135.985 -0.897464 2.86157 0
M  V30 1367 H 133.538 -0.43181 1.50217 0
M  V30 1368 H 134.273 -2.95998 1.32499 0
M  V30 1369 H 134.058 -2.48348 3.03424 0
M  V30 1370 H 135.548 -3.32978 2.52022 0
M  V30 1371 N 135.985 -1.50799 -0.457987 0
M  V30 1372 C 136.933 -1.71162 -1.575 0
M  V30 1373 C 137.927 -0.577592 -1.59249 0
M  V30 1374 O 139.133 -0.758443 -1.63241 0
M  V30 1375 H 135.508 -0.540468 -0.522875 0
M  V30 1376 H 137.479 -2.64837 -1.37492 0
M  V30 1377 C 136.228 -1.83496 -2.95338 0
M  V30 1378 H 135.551 -2.70153 -2.94716 0
M  V30 1379 H 136.991 -2.01765 -3.72917 0
M  V30 1380 C 135.45 -0.589694 -3.31699 0
M  V30 1381 O 135.98 0.265163 -4.00824 0
M  V30 1382 N 134.186 -0.439845 -2.87252 0
M  V30 1383 H 133.733 -1.13655 -2.31172 0
M  V30 1384 H 133.691 0.392159 -3.11945 0
M  V30 1385 N 137.463 0.71206 -1.40597 0
M  V30 1386 C 138.691 1.50111 -1.42388 0
M  V30 1387 C 139.106 1.88784 -0.0245395 0
M  V30 1388 O 138.463 1.55681 0.952351 0
M  V30 1389 C 138.514 2.7742 -2.31776 0
M  V30 1390 O 138.235 2.40382 -3.66262 0
M  V30 1391 C 139.736 3.7129 -2.42196 0
M  V30 1392 H 136.956 0.46314 -0.485533 0
M  V30 1393 H 139.5 0.878068 -1.8469 0
M  V30 1394 H 137.655 3.36001 -1.92827 0
M  V30 1395 H 138.069 3.22324 -4.13772 0
M  V30 1396 H 139.543 4.57448 -3.08943 0
M  V30 1397 H 140.02 4.14641 -1.44809 0
M  V30 1398 H 140.626 3.18619 -2.81712 0
M  V30 1399 N 138.941 1.26152 0.944643 0
M  V30 1400 C 140.189 1.11271 1.6871 0
M  V30 1401 C 140.51 -0.345166 1.91921 0
M  V30 1402 O 139.78 -1.24387 1.51343 0
M  V30 1403 H 138.36 0.408783 0.625224 0
M  V30 1404 H 141.022 1.58427 1.1352 0
M  V30 1405 H 140.118 1.62879 2.66227 0
M  V30 1406 N 140.419 -1.14872 1.07899 0
M  V30 1407 C 141.668 -1.85135 0.800499 0
M  V30 1408 C 141.981 -1.83547 -0.676014 0
M  V30 1409 O 143.187 -2.49548 -1.06948 0
M  V30 1410 C 141.643 -3.3231 1.38197 0
M  V30 1411 C 141.251 -3.42329 2.8899 0
M  V30 1412 C 142.995 -4.0772 1.18174 0
M  V30 1413 C 140.902 -4.83684 3.403 0
M  V30 1414 H 139.832 -0.693563 0.29578 0
M  V30 1415 H 142.483 -1.29532 1.29976 0
M  V30 1416 H 140.865 -3.87618 0.810431 0
M  V30 1417 H 142.039 -2.97097 3.52236 0
M  V30 1418 H 140.354 -2.80369 3.07867 0
M  V30 1419 H 142.951 -5.12049 1.5398 0
M  V30 1420 H 143.294 -4.16124 0.12117 0
M  V30 1421 H 143.827 -3.58696 1.71994 0
M  V30 1422 H 140.566 -4.80465 4.45907 0
M  V30 1423 H 140.086 -5.29474 2.81811 0
M  V30 1424 H 141.765 -5.52558 3.36584 0
M  V30 1425 N 141.898 -0.863906 -1.31812 0
M  V30 1426 C 143.147 -0.46801 -1.96195 0
M  V30 1427 C 143.46 0.983474 -1.69077 0
M  V30 1428 O 144.666 1.48523 -2.27273 0
M  V30 1429 C 143.122 -0.785995 -3.51212 0
M  V30 1430 C 142.73 -2.25383 -3.87178 0
M  V30 1431 C 144.474 -0.458274 -4.22019 0
M  V30 1432 C 142.381 -2.51455 -5.3528 0
M  V30 1433 H 141.311 -0.171283 -0.734287 0
M  V30 1434 H 143.962 -1.05597 -1.50072 0
M  V30 1435 H 142.344 -0.127359 -3.95795 0
M  V30 1436 H 143.518 -2.95502 -3.53575 0
M  V30 1437 H 141.833 -2.54698 -3.2942 0
M  V30 1438 H 144.43 -0.630369 -5.30971 0
M  V30 1439 H 144.773 0.600834 -4.11941 0
M  V30 1440 H 145.306 -1.07319 -3.8305 0
M  V30 1441 H 142.045 -3.56025 -5.50387 0
M  V30 1442 H 141.565 -1.85923 -5.70257 0
M  V30 1443 H 143.244 -2.35874 -6.02472 0
M  V30 1444 N 143.376 1.44774 -0.622745 0
M  V30 1445 C 144.306 2.33382 0.0741861 0
M  V30 1446 C 145.287 1.47719 0.843387 0
M  V30 1447 O 146.472 1.76458 0.810934 0
M  V30 1448 C 143.602 3.30663 1.06204 0
M  V30 1449 C 142.556 4.26079 0.405037 0
M  V30 1450 C 141.882 5.13165 1.5022 0
M  V30 1451 C 143.182 5.1781 -0.683414 0
M  V30 1452 H 144.876 2.91905 -0.665713 0
M  V30 1453 H 142.422 1.40363 -0.321587 0
M  V30 1454 H 144.375 3.9153 1.55827 0
M  V30 1455 H 143.099 2.70331 1.83272 0
M  V30 1456 H 141.758 3.66532 -0.0704683 0
M  V30 1457 H 141.406 4.49191 2.26355 0
M  V30 1458 H 141.106 5.77812 1.06803 0
M  V30 1459 H 142.63 5.76902 2.00041 0
M  V30 1460 H 144.044 5.72661 -0.270631 0
M  V30 1461 H 142.441 5.91015 -1.04023 0
M  V30 1462 H 143.511 4.59326 -1.55395 0
M  V30 1463 N 144.854 0.36279 1.53368 0
M  V30 1464 C 146.101 -0.227776 2.01215 0
M  V30 1465 C 146.429 -1.49003 1.25014 0
M  V30 1466 O 145.684 -1.92876 0.331236 0
M  V30 1467 C 145.983 -0.568417 3.52851 0
M  V30 1468 C 145.649 0.59918 4.46901 0
M  V30 1469 C 144.311 0.919559 4.72332 0
M  V30 1470 C 146.663 1.38156 5.02556 0
M  V30 1471 C 143.991 2.02434 5.5067 0
M  V30 1472 C 146.343 2.47674 5.821 0
M  V30 1473 C 145.007 2.8025 6.05819 0
M  V30 1474 H 144.277 -0.083349 0.736297 0
M  V30 1475 H 146.924 0.494677 1.85001 0
M  V30 1476 H 145.229 -1.37185 3.66998 0
M  V30 1477 H 146.926 -1.03756 3.87344 0
M  V30 1478 H 143.516 0.339437 4.27254 0
M  V30 1479 H 147.7 1.14729 4.82857 0
M  V30 1480 H 142.956 2.28075 5.67267 0
M  V30 1481 H 147.13 3.08716 6.24234 0
M  V30 1482 H 144.757 3.65979 6.66306 0
M  V30 1483 N 146.332 -1.57332 0.0918853 0
M  V30 1484 C 147.262 -2.16872 -0.865371 0
M  V30 1485 C 148.243 -1.10118 -1.29646 0
M  V30 1486 O 149.428 -1.38242 -1.36392 0
M  V30 1487 C 146.558 -2.74649 -2.12569 0
M  V30 1488 C 145.512 -3.86747 -1.83333 0
M  V30 1489 C 144.838 -4.31212 -3.16166 0
M  V30 1490 C 146.138 -5.10089 -1.1228 0
M  V30 1491 H 147.832 -2.97114 -0.369307 0
M  V30 1492 H 145.378 -1.42918 -0.176194 0
M  V30 1493 H 147.331 -3.14952 -2.7997 0
M  V30 1494 H 146.055 -1.91657 -2.64452 0
M  V30 1495 H 144.714 -3.46978 -1.18331 0
M  V30 1496 H 144.362 -3.45115 -3.6593 0
M  V30 1497 H 144.062 -5.06788 -2.97388 0
M  V30 1498 H 145.586 -4.74146 -3.84731 0
M  V30 1499 H 147 -5.47582 -1.69785 0
M  V30 1500 H 145.397 -5.91073 -1.03693 0
M  V30 1501 H 146.467 -4.84786 -0.105041 0
M  V30 1502 N 147.81 0.181792 -1.56548 0
M  V30 1503 C 149.057 0.900097 -1.81396 0
M  V30 1504 C 149.385 1.82695 -0.667281 0
M  V30 1505 O 148.64 1.92614 0.346146 0
M  V30 1506 C 148.939 1.73728 -3.12335 0
M  V30 1507 C 148.605 0.960255 -4.40556 0
M  V30 1508 C 147.267 0.745766 -4.75386 0
M  V30 1509 C 149.619 0.414477 -5.19549 0
M  V30 1510 C 146.947 -0.0257694 -5.86694 0
M  V30 1511 C 149.299 -0.343916 -6.31664 0
M  V30 1512 C 147.963 -0.569301 -6.65068 0
M  V30 1513 H 147.233 0.329369 -0.663775 0
M  V30 1514 H 149.88 0.165647 -1.90782 0
M  V30 1515 H 148.185 2.54081 -2.98245 0
M  V30 1516 H 149.882 2.29591 -3.28769 0
M  V30 1517 H 146.472 1.13746 -4.13231 0
M  V30 1518 H 150.656 0.567554 -4.93044 0
M  V30 1519 H 145.912 -0.210233 -6.11038 0
M  V30 1520 H 150.086 -0.774133 -6.92084 0
M  V30 1521 H 147.713 -1.16903 -7.51158 0
M  V30 1522 N 149.288 1.51039 0.449983 0
M  V30 1523 C 150.218 1.74379 1.55288 0
M  V30 1524 C 151.199 0.593236 1.5942 0
M  V30 1525 O 152.384 0.834625 1.7535 0
M  V30 1526 C 149.514 1.85728 2.93466 0
M  V30 1527 C 148.468 3.01078 3.04197 0
M  V30 1528 C 147.794 2.97595 4.44231 0
M  V30 1529 C 149.094 4.41254 2.7945 0
M  V30 1530 H 150.788 2.66725 1.36008 0
M  V30 1531 H 148.334 1.2835 0.652864 0
M  V30 1532 H 150.287 2.0064 3.70569 0
M  V30 1533 H 149.011 0.900207 3.13949 0
M  V30 1534 H 147.67 2.85851 2.29531 0
M  V30 1535 H 147.318 1.99691 4.61663 0
M  V30 1536 H 147.018 3.75046 4.52343 0
M  V30 1537 H 148.542 3.14583 5.23326 0
M  V30 1538 H 149.956 4.56897 3.46292 0
M  V30 1539 H 148.353 5.20315 2.98985 0
M  V30 1540 H 149.423 4.52164 1.75144 0
M  V30 1541 N 150.766 -0.704594 1.40972 0
M  V30 1542 C 151.696 -1.83124 1.44872 0
M  V30 1543 C 152.677 -1.67281 0.30838 0
M  V30 1544 O 153.862 -1.87149 0.518556 0
M  V30 1545 C 150.992 -3.21181 1.32136 0
M  V30 1546 C 149.946 -3.51714 2.43888 0
M  V30 1547 C 149.272 -4.89032 2.16222 0
M  V30 1548 C 150.572 -3.516 3.86232 0
M  V30 1549 H 152.266 -1.80117 2.39161 0
M  V30 1550 H 149.812 -0.865145 1.15114 0
M  V30 1551 H 151.765 -3.99702 1.33479 0
M  V30 1552 H 150.489 -3.24791 0.343279 0
M  V30 1553 H 149.148 -2.75539 2.41813 0
M  V30 1554 H 148.796 -4.89256 1.16778 0
M  V30 1555 H 148.496 -5.10426 2.911 0
M  V30 1556 H 150.02 -5.69873 2.19265 0
M  V30 1557 H 151.434 -4.2014 3.9007 0
M  V30 1558 H 149.831 -3.84523 4.60719 0
M  V30 1559 H 150.901 -2.50757 4.15029 0
M  V30 1560 N 152.244 -1.26651 -0.937939 0
M  V30 1561 C 153.472 -1.15173 -1.7188 0
M  V30 1562 C 153.887 0.292668 -1.86518 0
M  V30 1563 O 153.244 1.20014 -1.37488 0
M  V30 1564 C 153.295 -1.81925 -3.12387 0
M  V30 1565 O 153.016 -3.2072 -2.98446 0
M  V30 1566 C 154.517 -1.76442 -4.06673 0
M  V30 1567 H 151.737 -0.400911 -0.538063 0
M  V30 1568 H 154.281 -1.67332 -1.1756 0
M  V30 1569 H 152.436 -1.33696 -3.63599 0
M  V30 1570 H 152.85 -3.53802 -3.872 0
M  V30 1571 H 154.324 -2.27781 -5.02812 0
M  V30 1572 H 154.801 -0.731608 -4.33064 0
M  V30 1573 H 155.407 -2.24238 -3.61382 0
M  V30 1574 N 153.722 1.14298 -1.08507 0
M  V30 1575 C 154.685 2.17607 -0.719711 0
M  V30 1576 C 155.685 1.58907 0.245997 0
M  V30 1577 O 156.875 1.74181 0.0254081 0
M  V30 1578 C 154.007 3.40842 -0.0627695 0
M  V30 1579 H 155.2 2.51443 -1.63452 0
M  V30 1580 H 152.753 1.28963 -0.88307 0
M  V30 1581 H 153.488 3.12587 0.863716 0
M  V30 1582 H 153.273 3.84713 -0.757504 0
M  V30 1583 H 154.763 4.17221 0.177786 0
M  V30 1584 N 155.201 0.870884 1.31352 0
M  V30 1585 C 156.447 0.482987 1.96965 0
M  V30 1586 C 156.78 -0.962462 1.68672 0
M  V30 1587 O 156.055 -1.6779 0.98371 0
M  V30 1588 C 156.338 0.741752 3.52378 0
M  V30 1589 C 156.191 2.2368 3.9024 0
M  V30 1590 C 157.51 0.208838 4.39604 0
M  V30 1591 H 154.629 0.176955 0.715441 0
M  V30 1592 H 157.271 1.09229 1.55464 0
M  V30 1593 H 155.421 0.223149 3.87859 0
M  V30 1594 H 157.093 2.82273 3.64856 0
M  V30 1595 H 155.336 2.70901 3.38814 0
M  V30 1596 H 156.007 2.3685 4.98604 0
M  V30 1597 H 158.483 0.652529 4.10952 0
M  V30 1598 H 157.359 0.419336 5.47296 0
M  V30 1599 H 157.62 -0.889275 4.33064 0
M  V30 1600 N 156.679 -1.44442 0.630414 0
M  V30 1601 C 157.642 -2.29107 -0.0652523 0
M  V30 1602 C 158.642 -1.41002 -0.772995 0
M  V30 1603 O 159.832 -1.62881 -0.617692 0
M  V30 1604 C 156.964 -3.22564 -1.10296 0
M  V30 1605 H 158.157 -2.92103 0.679401 0
M  V30 1606 H 155.71 -1.51343 0.390517 0
M  V30 1607 H 156.445 -2.64416 -1.87762 0
M  V30 1608 H 156.23 -3.87491 -0.59941 0
M  V30 1609 H 157.72 -3.86167 -1.5895 0
M  V30 1610 N 158.157 -0.370918 -1.53173 0
M  V30 1611 C 159.087 0.464847 -2.28826 0
M  V30 1612 C 160.068 1.07936 -1.31468 0
M  V30 1613 O 161.253 1.0956 -1.60344 0
M  V30 1614 C 158.383 1.60196 -3.08147 0
M  V30 1615 C 157.337 1.11443 -4.13237 0
M  V30 1616 C 156.663 2.3422 -4.80672 0
M  V30 1617 C 157.963 0.195384 -5.21934 0
M  V30 1618 H 159.657 -0.166329 -2.98938 0
M  V30 1619 H 157.203 -0.0814359 -1.4377 0
M  V30 1620 H 159.156 2.19332 -3.59822 0
M  V30 1621 H 157.88 2.26045 -2.35735 0
M  V30 1622 H 156.539 0.545727 -3.62515 0
M  V30 1623 H 156.187 2.98537 -4.04827 0
M  V30 1624 H 155.887 2.02269 -5.51689 0
M  V30 1625 H 157.411 2.94032 -5.35143 0
M  V30 1626 H 158.825 0.694375 -5.69079 0
M  V30 1627 H 157.222 -0.0335027 -6.00091 0
M  V30 1628 H 158.292 -0.760961 -4.78892 0
M  V30 1629 N 159.635 1.57281 -0.100228 0
M  V30 1630 C 160.565 2.17328 0.853857 0
M  V30 1631 C 161.546 1.10804 1.2906 0
M  V30 1632 O 162.731 1.38963 1.35657 0
M  V30 1633 C 159.861 2.75772 2.11109 0
M  V30 1634 C 158.815 3.87713 1.81279 0
M  V30 1635 C 158.141 4.32882 3.13874 0
M  V30 1636 C 159.441 5.10677 1.09574 0
M  V30 1637 H 161.135 2.97305 0.353545 0
M  V30 1638 H 158.681 1.43009 0.168612 0
M  V30 1639 H 160.634 3.16433 2.78296 0
M  V30 1640 H 159.358 1.93057 2.63432 0
M  V30 1641 H 158.017 3.476 1.16489 0
M  V30 1642 H 157.665 3.47051 3.64095 0
M  V30 1643 H 157.365 5.08358 2.94696 0
M  V30 1644 H 158.889 4.7618 3.82211 0
M  V30 1645 H 160.303 5.48474 1.66879 0
M  V30 1646 H 158.7 5.91615 1.00557 0
M  V30 1647 H 159.77 4.84835 0.0793299 0
M  V30 1648 N 161.113 -0.173488 1.56642 0
M  V30 1649 C 162.338 -0.910149 1.86363 0
M  V30 1650 C 162.763 -1.75132 0.686318 0
M  V30 1651 O 162.121 -1.77595 -0.364643 0
M  V30 1652 C 162.169 -1.76447 3.14482 0
M  V30 1653 O 161.273 -2.86584 2.96553 0
M  V30 1654 H 160.614 -0.255086 0.613047 0
M  V30 1655 H 163.144 -0.172283 2.03873 0
M  V30 1656 H 163.154 -2.16483 3.45831 0
M  V30 1657 H 161.829 -1.14658 3.99783 0
M  V30 1658 H 160.406 -2.50146 2.76553 0
M  V30 1659 N 162.591 -1.51276 -0.441967 0
M  V30 1660 C 163.816 -1.67799 -1.21895 0
M  V30 1661 C 164.241 -0.372864 -1.84367 0
M  V30 1662 O 163.599 0.666501 -1.68604 0
M  V30 1663 C 163.647 -2.79199 -2.28211 0
M  V30 1664 O 162.751 -2.42479 -3.33583 0
M  V30 1665 H 162.092 -0.559649 -0.357336 0
M  V30 1666 H 164.622 -1.97815 -0.522522 0
M  V30 1667 H 164.632 -3.03146 -2.73069 0
M  V30 1668 H 163.307 -3.73906 -1.82118 0
M  V30 1669 H 161.884 -2.29087 -2.94234 0
M  V30 1670 N 164.069 0.697108 -1.41344 0
M  V30 1671 C 165.299 1.48377 -1.43763 0
M  V30 1672 C 165.707 1.89156 -0.0408726 0
M  V30 1673 O 165.05 1.57239 0.949812 0
M  V30 1674 C 165.112 2.7781 -2.2817 0
M  V30 1675 C 164.776 2.59244 -3.76353 0
M  V30 1676 C 165.773 2.25292 -4.68551 0
M  V30 1677 C 163.458 2.74933 -4.20378 0
M  V30 1678 C 165.452 2.07264 -6.02761 0
M  V30 1679 C 163.139 2.56521 -5.54653 0
M  V30 1680 C 164.137 2.22737 -6.4566 0
M  V30 1681 O 163.825 2.04485 -7.77458 0
M  V30 1682 H 163.557 0.463842 -0.491759 0
M  V30 1683 H 166.111 0.865934 -1.86255 0
M  V30 1684 H 164.341 3.41995 -1.8049 0
M  V30 1685 H 166.03 3.39608 -2.22309 0
M  V30 1686 H 166.796 2.12787 -4.35829 0
M  V30 1687 H 162.675 3.00213 -3.49848 0
M  V30 1688 H 166.219 1.80817 -6.73759 0
M  V30 1689 H 162.116 2.68616 -5.86955 0
M  V30 1690 H 162.884 2.1926 -7.88586 0
M  V30 1691 N 165.547 1.27147 0.931209 0
M  V30 1692 C 166.772 1.16191 1.71797 0
M  V30 1693 C 167.197 -0.278004 1.86034 0
M  V30 1694 O 166.555 -1.20137 1.35782 0
M  V30 1695 C 166.603 1.84673 3.09723 0
M  V30 1696 O 165.707 1.14231 3.96264 0
M  V30 1697 H 165.048 0.404303 0.526721 0
M  V30 1698 H 167.578 1.68152 1.1656 0
M  V30 1699 H 167.588 1.91893 3.60057 0
M  V30 1700 H 166.263 2.89421 2.98677 0
M  V30 1701 H 164.84 1.15056 3.54706 0
M  V30 1702 N 167.025 -1.13721 1.09112 0
M  V30 1703 C 168.274 -1.84275 0.82009 0
M  V30 1704 C 168.587 -1.84253 -0.656509 0
M  V30 1705 O 169.793 -2.50668 -1.04296 0
M  V30 1706 C 168.249 -3.30825 1.41714 0
M  V30 1707 C 167.857 -3.39244 2.92605 0
M  V30 1708 C 169.601 -4.06443 1.22492 0
M  V30 1709 C 167.508 -4.80047 3.45411 0
M  V30 1710 H 166.438 -0.690387 0.30312 0
M  V30 1711 H 169.089 -1.28146 1.31343 0
M  V30 1712 H 167.471 -3.86737 0.851498 0
M  V30 1713 H 168.645 -2.93344 3.55367 0
M  V30 1714 H 166.96 -2.77088 3.10823 0
M  V30 1715 H 169.557 -5.10387 1.59402 0
M  V30 1716 H 169.9 -4.15972 0.165299 0
M  V30 1717 H 170.433 -3.56852 1.75788 0
M  V30 1718 H 167.172 -4.75709 4.50978 0
M  V30 1719 H 166.692 -5.26455 2.87411 0
M  V30 1720 H 168.371 -5.48957 3.42425 0
M  V30 1721 N 168.503 -0.877838 -1.30888 0
M  V30 1722 C 169.453 -0.310872 -2.25871 0
M  V30 1723 C 170.437 0.556596 -1.50966 0
M  V30 1724 O 171.629 0.402187 -1.7237 0
M  V30 1725 C 168.758 0.479821 -3.3993 0
M  V30 1726 C 167.844 -0.401333 -4.22197 0
M  V30 1727 N 168.235 -1.49848 -4.83093 0
M  V30 1728 C 166.533 -0.195167 -4.45573 0
M  V30 1729 C 167.234 -2.0425 -5.44662 0
M  V30 1730 N 166.21 -1.33843 -5.26865 0
M  V30 1731 H 170.012 -1.1493 -2.70496 0
M  V30 1732 H 167.526 -0.726458 -1.45246 0
M  V30 1733 H 169.523 0.902582 -4.07012 0
M  V30 1734 H 168.183 1.31577 -2.96846 0
M  V30 1735 H 169.194 -1.88137 -4.82519 0
M  V30 1736 H 165.871 0.604192 -4.13105 0
M  V30 1737 H 167.261 -2.96345 -6.03017 0
M  V30 1738 N 169.982 1.44106 -0.638065 0
M  V30 1739 C 170.912 2.33448 0.0494287 0
M  V30 1740 C 171.893 1.48606 0.827672 0
M  V30 1741 O 173.078 1.77308 0.792173 0
M  V30 1742 C 170.208 3.31771 1.02691 0
M  V30 1743 C 169.162 4.26485 0.359823 0
M  V30 1744 C 168.488 5.14729 1.44769 0
M  V30 1745 C 169.788 5.17056 -0.738296 0
M  V30 1746 H 171.482 2.91183 -0.696636 0
M  V30 1747 H 169.028 1.40014 -0.336456 0
M  V30 1748 H 170.981 3.93161 1.51666 0
M  V30 1749 H 169.705 2.7226 1.80395 0
M  V30 1750 H 168.364 3.66437 -0.10934 0
M  V30 1751 H 168.012 4.51566 2.21578 0
M  V30 1752 H 167.712 5.78913 1.00668 0
M  V30 1753 H 169.236 5.78991 1.93911 0
M  V30 1754 H 170.65 5.72342 -0.331354 0
M  V30 1755 H 169.047 5.89879 -1.10286 0
M  V30 1756 H 170.117 4.57652 -1.60258 0
M  V30 1757 N 171.46 0.379036 1.52974 0
M  V30 1758 C 172.39 -0.452706 2.29069 0
M  V30 1759 C 173.371 -1.07237 1.32039 0
M  V30 1760 O 174.556 -1.08708 1.60923 0
M  V30 1761 C 171.686 -1.5856 3.08992 0
M  V30 1762 C 170.64 -1.0925 4.13822 0
M  V30 1763 C 169.966 -2.31668 4.81907 0
M  V30 1764 C 171.266 -0.167702 5.22031 0
M  V30 1765 H 172.96 0.182181 2.98845 0
M  V30 1766 H 170.506 0.0890592 1.43724 0
M  V30 1767 H 172.459 -2.1742 3.6098 0
M  V30 1768 H 171.183 -2.24792 2.36931 0
M  V30 1769 H 169.842 -0.526494 3.628 0
M  V30 1770 H 169.49 -2.96386 4.06404 0
M  V30 1771 H 169.19 -1.9934 5.52754 0
M  V30 1772 H 170.714 -2.91189 5.36695 0
M  V30 1773 H 172.128 -0.664186 5.6944 0
M  V30 1774 H 170.525 0.0653265 6.00064 0
M  V30 1775 H 171.595 0.786347 4.78482 0
M  V30 1776 N 172.938 -1.57226 0.108567 0
M  V30 1777 C 173.868 -2.17778 -0.84232 0
M  V30 1778 C 174.849 -1.11487 -1.2847 0
M  V30 1779 O 176.034 -1.39681 -1.34918 0
M  V30 1780 C 173.164 -2.76888 -2.09644 0
M  V30 1781 C 172.118 -3.88669 -1.79221 0
M  V30 1782 C 171.444 -4.34541 -3.11574 0
M  V30 1783 C 172.744 -5.11251 -1.06864 0
M  V30 1784 H 174.438 -2.97489 -0.337774 0
M  V30 1785 H 171.984 -1.43097 -0.161025 0
M  V30 1786 H 173.937 -3.17904 -2.76614 0
M  V30 1787 H 172.661 -1.94451 -2.62405 0
M  V30 1788 H 171.32 -3.48213 -1.14644 0
M  V30 1789 H 170.968 -3.48977 -3.62249 0
M  V30 1790 H 170.668 -5.09914 -2.91996 0
M  V30 1791 H 172.192 -4.782 -3.7968 0
M  V30 1792 H 173.606 -5.49352 -1.63968 0
M  V30 1793 H 172.003 -5.9214 -0.974178 0
M  V30 1794 H 173.073 -4.8487 -0.0536168 0
M  V30 1795 N 174.416 0.165178 -1.56732 0
M  V30 1796 C 175.363 1.2044 -1.96883 0
M  V30 1797 C 176.333 1.43664 -0.833657 0
M  V30 1798 O 177.518 1.56302 -1.09427 0
M  V30 1799 C 174.658 2.53727 -2.33916 0
M  V30 1800 C 173.771 2.3783 -3.6064 0
M  V30 1801 C 172.906 3.64026 -3.86857 0
M  V30 1802 C 171.945 3.43088 -5.06909 0
M  V30 1803 N 171.082 4.61369 -5.29229 0
M  V30 1804 H 175.922 0.854996 -2.85471 0
M  V30 1805 H 173.459 0.41076 -1.41249 0
M  V30 1806 H 175.417 3.31419 -2.53411 0
M  V30 1807 H 174.047 2.8665 -1.48431 0
M  V30 1808 H 173.099 1.51282 -3.49024 0
M  V30 1809 H 174.411 2.18308 -4.4849 0
M  V30 1810 H 173.565 4.50152 -4.06753 0
M  V30 1811 H 172.304 3.86533 -2.97394 0
M  V30 1812 H 171.309 2.55349 -4.86906 0
M  V30 1813 H 172.534 3.21997 -5.97909 0
M  V30 1814 H 170.48 4.84084 -4.42718 0
M  V30 1815 H 170.397 4.44783 -6.11313 0
M  V30 1816 H 171.665 5.48761 -5.53608 0
M  V30 1817 N 175.894 1.51508 0.433938 0
M  V30 1818 C 177.119 1.68443 1.21003 0
M  V30 1819 C 177.544 0.382636 1.84167 0
M  V30 1820 O 176.902 -0.65755 1.68956 0
M  V30 1821 C 176.95 2.80405 2.26727 0
M  V30 1822 O 176.054 2.44245 3.32292 0
M  V30 1823 H 175.395 0.561536 0.354363 0
M  V30 1824 H 177.925 1.9809 0.512024 0
M  V30 1825 H 177.935 3.0459 2.71457 0
M  V30 1826 H 176.61 3.74867 1.80132 0
M  V30 1827 H 175.187 2.30644 2.93015 0
M  V30 1828 N 177.372 -0.689602 1.41712 0
M  V30 1829 C 178.597 -1.48329 1.44959 0
M  V30 1830 C 179.022 -1.8801 0.0581283 0
M  V30 1831 O 178.38 -1.55026 -0.940035 0
M  V30 1832 C 178.428 -2.71835 2.36935 0
M  V30 1833 O 177.532 -3.69549 1.8305 0
M  V30 1834 H 176.873 -0.446199 0.491734 0
M  V30 1835 H 179.403 -0.847127 1.86239 0
M  V30 1836 H 179.413 -3.20076 2.53013 0
M  V30 1837 H 178.088 -2.42291 3.38035 0
M  V30 1838 H 176.665 -3.2851 1.76452 0
M  V30 1839 N 178.85 -1.27639 -0.924453 0
M  V30 1840 C 180.098 -1.13941 -1.66918 0
M  V30 1841 C 180.419 0.314589 -1.92446 0
M  V30 1842 O 179.689 1.21964 -1.53303 0
M  V30 1843 H 178.269 -0.418678 -0.618642 0
M  V30 1844 H 180.931 -1.60213 -1.10985 0
M  V30 1845 H 180.027 -1.67094 -2.63602 0
M  V30 1846 N 180.328 1.1314 -1.09713 0
M  V30 1847 C 181.574 1.84757 -0.836224 0
M  V30 1848 C 181.907 1.8347 0.636598 0
M  V30 1849 O 181.182 1.27491 1.46889 0
M  V30 1850 C 181.465 3.32782 -1.37578 0
M  V30 1851 C 181.318 3.42567 -2.91493 0
M  V30 1852 C 182.637 4.28307 -1.01198 0
M  V30 1853 H 179.756 0.67082 -0.305236 0
M  V30 1854 H 182.398 1.3278 -1.35903 0
M  V30 1855 H 180.548 3.77177 -0.931097 0
M  V30 1856 H 182.22 3.06862 -3.44432 0
M  V30 1857 H 180.463 2.83349 -3.28475 0
M  V30 1858 H 181.134 4.46674 -3.24324 0
M  V30 1859 H 183.61 3.91999 -1.39556 0
M  V30 1860 H 182.486 5.30307 -1.41653 0
M  V30 1861 H 182.747 4.42029 0.0794833 0
M  V30 1862 N 181.806 0.884767 1.30421 0
M  V30 1863 C 183.052 0.503851 1.96441 0
M  V30 1864 C 183.385 -0.944518 1.69684 0
M  V30 1865 O 182.66 -1.66737 1.00145 0
M  V30 1866 C 182.943 0.779085 3.51571 0
M  V30 1867 C 182.796 2.27807 3.87846 0
M  V30 1868 C 184.115 0.255452 4.39358 0
M  V30 1869 H 181.234 0.184533 0.713524 0
M  V30 1870 H 183.876 1.10872 1.54297 0
M  V30 1871 H 182.026 0.264274 3.876 0
M  V30 1872 H 183.698 2.86127 3.61841 0
M  V30 1873 H 181.941 2.74479 3.35922 0
M  V30 1874 H 182.612 2.42125 4.96064 0
M  V30 1875 H 185.088 0.696079 4.10236 0
M  V30 1876 H 183.964 0.477361 5.4682 0
M  V30 1877 H 184.225 -0.843293 4.33983 0
M  V30 1878 N 183.284 -1.43765 0.645699 0
M  V30 1879 C 184.532 -2.01499 0.155731 0
M  V30 1880 C 184.853 -1.51151 -1.232 0
M  V30 1881 O 184.123 -0.721044 -1.82148 0
M  V30 1882 H 182.703 -0.745003 0.0545817 0
M  V30 1883 H 185.365 -1.76075 0.835677 0
M  V30 1884 H 184.461 -3.1181 0.134577 0
M  V30 1885 N 184.763 -0.387143 -1.52771 0
M  V30 1886 C 186.012 0.19697 -2.00736 0
M  V30 1887 C 186.325 1.48082 -1.27793 0
M  V30 1888 O 187.531 2.14485 -1.66458 0
M  V30 1889 C 185.987 0.401568 -3.57653 0
M  V30 1890 C 185.595 -0.868907 -4.39493 0
M  V30 1891 C 187.339 0.942164 -4.13912 0
M  V30 1892 C 185.246 -0.632705 -5.88006 0
M  V30 1893 H 184.176 0.0773827 -0.750019 0
M  V30 1894 H 186.827 -0.50921 -1.76293 0
M  V30 1895 H 185.209 1.16954 -3.78335 0
M  V30 1896 H 186.383 -1.64133 -4.30577 0
M  V30 1897 H 184.698 -1.33429 -3.94443 0
M  V30 1898 H 187.295 1.13455 -5.22525 0
M  V30 1899 H 187.638 1.9106 -3.69867 0
M  V30 1900 H 188.171 0.233814 -3.97112 0
M  V30 1901 H 184.91 -1.57208 -6.36369 0
M  V30 1902 H 184.43 0.100825 -5.99715 0
M  V30 1903 H 186.109 -0.26642 -6.46451 0
M  V30 1904 N 186.241 1.57166 -0.116904 0
M  V30 1905 C 187.657 1.5779 0.239693 0
M  V30 1906 C 187.857 1.1295 1.66867 0
M  V30 1907 O 186.913 0.81592 2.38954 0
M  V30 1908 C 188.226 3.00699 0.00828202 0
M  V30 1909 C 189.774 3.12912 0.0743438 0
M  V30 1910 C 190.249 4.57817 -0.129348 0
M  V30 1911 N 191.74 4.63139 -0.075247 0
M  V30 1912 C 192.475 5.73023 -0.207788 0
M  V30 1913 N 191.971 6.91665 -0.396382 0
M  V30 1914 N 193.764 5.61906 -0.14751 0
M  V30 1915 H 185.915 1.84615 -1.05029 0
M  V30 1916 H 188.178 0.85311 -0.41341 0
M  V30 1917 H 187.884 3.37784 -0.979531 0
M  V30 1918 H 187.758 3.69848 0.741077 0
M  V30 1919 H 190.145 2.75686 1.05268 0
M  V30 1920 H 190.226 2.4631 -0.690297 0
M  V30 1921 H 189.87 4.95742 -1.10465 0
M  V30 1922 H 189.8 5.22507 0.655253 0
M  V30 1923 H 192.291 3.7784 0.0670898 0
M  V30 1924 H 192.604 7.71255 -0.488437 0
M  V30 1925 H 190.949 6.93654 -0.432329 0
M  V30 1926 H 194.14 4.681 -0.00115036 0
M  V30 1927 H 194.313 6.47501 -0.254247 0
M  V30 1928 N 187.719 -0.156864 1.56817 0
M  V30 1929 C 188.682 -1.17781 1.96622 0
M  V30 1930 C 189.682 -1.36401 0.851555 0
M  V30 1931 O 190.872 -1.33561 1.11836 0
M  V30 1932 C 188.004 -2.54008 2.27361 0
M  V30 1933 H 189.197 -0.836564 2.87996 0
M  V30 1934 H 186.75 -0.39985 1.51099 0
M  V30 1935 H 187.485 -2.9312 1.38748 0
M  V30 1936 H 187.27 -2.41856 3.08623 0
M  V30 1937 H 188.76 -3.27558 2.59029 0
M  V30 1938 N 189.197 -1.51736 -0.425897 0
M  V30 1939 C 190.427 -1.68549 -1.19476 0
M  V30 1940 C 190.835 -0.387288 -1.85194 0
M  V30 1941 O 190.178 0.645142 -1.71999 0
M  V30 1942 C 190.24 -2.75275 -2.31223 0
M  V30 1943 C 189.904 -4.17534 -1.8578 0
M  V30 1944 C 190.901 -5.01936 -1.35485 0
M  V30 1945 C 188.586 -4.6369 -1.93123 0
M  V30 1946 C 190.58 -6.30559 -0.931347 0
M  V30 1947 C 188.267 -5.92307 -1.50384 0
M  V30 1948 C 189.265 -6.75569 -1.00473 0
M  V30 1949 O 188.953 -8.0178 -0.583452 0
M  V30 1950 H 188.685 -0.568525 -0.365725 0
M  V30 1951 H 191.239 -1.98982 -0.509444 0
M  V30 1952 H 189.469 -2.40182 -3.03067 0
M  V30 1953 H 191.158 -2.80853 -2.93047 0
M  V30 1954 H 191.924 -4.67475 -1.29197 0
M  V30 1955 H 187.803 -3.98997 -2.30916 0
M  V30 1956 H 191.347 -6.95498 -0.541084 0
M  V30 1957 H 187.244 -6.2628 -1.56346 0
M  V30 1958 H 188.012 -8.1543 -0.708275 0
M  V30 1959 N 190.675 0.682077 -1.42076 0
M  V30 1960 C 191.585 1.82535 -1.47371 0
M  V30 1961 C 192.601 1.7017 -0.363079 0
M  V30 1962 O 193.777 1.91848 -0.612875 0
M  V30 1963 C 190.842 3.18624 -1.36674 0
M  V30 1964 C 189.903 3.42999 -2.58167 0
M  V30 1965 C 189.136 4.72595 -2.4797 0
M  V30 1966 O 189.359 5.50006 -1.5116 0
M  V30 1967 O 188.293 4.98054 -3.37974 0
M  V30 1968 H 192.119 1.81023 -2.43853 0
M  V30 1969 H 189.704 0.836887 -1.2376 0
M  V30 1970 H 191.586 3.99847 -1.33043 0
M  V30 1971 H 190.261 3.20789 -0.433138 0
M  V30 1972 H 189.168 2.61653 -2.67373 0
M  V30 1973 H 190.501 3.45659 -3.50401 0
M  V30 1974 N 192.153 1.28127 0.917671 0
M  V30 1975 C 193.085 1.07517 2.02417 0
M  V30 1976 C 194.098 0.0281099 1.62776 0
M  V30 1977 O 195.287 0.270748 1.76435 0
M  V30 1978 C 192.387 0.610957 3.33347 0
M  V30 1979 C 191.56 1.73255 4.01624 0
M  V30 1980 C 190.619 1.26238 5.10833 0
M  V30 1981 O 189.645 1.96389 5.34247 0
M  V30 1982 N 190.847 0.123448 5.80369 0
M  V30 1983 H 193.612 2.02806 2.20658 0
M  V30 1984 H 191.173 1.19827 1.08871 0
M  V30 1985 H 193.165 0.280101 4.0373 0
M  V30 1986 H 191.735 -0.24898 3.11607 0
M  V30 1987 H 190.955 2.23319 3.24842 0
M  V30 1988 H 192.243 2.48503 4.43986 0
M  V30 1989 H 191.641 -0.461847 5.63812 0
M  V30 1990 H 190.198 -0.148158 6.51632 0
M  V30 1991 N 193.631 -1.12557 1.10312 0
M  V30 1992 C 194.561 -2.20341 0.772798 0
M  V30 1993 C 195.542 -1.68198 -0.25365 0
M  V30 1994 O 196.727 -1.93831 -0.119699 0
M  V30 1995 C 193.857 -3.46709 0.202443 0
M  V30 1996 C 192.811 -4.11996 1.15943 0
M  V30 1997 C 192.137 -5.328 0.450345 0
M  V30 1998 C 193.437 -4.5828 2.50552 0
M  V30 1999 H 195.131 -2.48229 1.674 0
M  V30 2000 H 192.677 -1.19308 0.806326 0
M  V30 2001 H 194.63 -4.2138 -0.0407752 0
M  V30 2002 H 193.354 -3.18245 -0.734001 0
M  V30 2003 H 192.013 -3.39305 1.38808 0
M  V30 2004 H 191.661 -5.00602 -0.490531 0
M  V30 2005 H 191.361 -5.7743 1.08851 0
M  V30 2006 H 192.885 -6.10219 0.215642 0
M  V30 2007 H 194.299 -5.2433 2.31843 0
M  V30 2008 H 192.696 -5.13683 3.10242 0
M  V30 2009 H 193.766 -3.72329 3.10643 0
M  V30 2010 N 195.109 -0.891671 -1.2995 0
M  V30 2011 C 196.357 -0.512486 -1.95494 0
M  V30 2012 C 196.678 0.942776 -1.70695 0
M  V30 2013 O 195.948 1.66374 -1.03424 0
M  V30 2014 H 194.528 -0.186533 -0.723336 0
M  V30 2015 H 197.19 -1.13621 -1.58355 0
M  V30 2016 H 196.286 -0.688342 -3.04415 0
M  V30 2017 N 196.587 1.43421 -0.653314 0
M  V30 2018 C 197.817 2.05864 -0.174238 0
M  V30 2019 C 198.225 1.49052 1.16534 0
M  V30 2020 O 197.568 0.616481 1.73047 0
M  V30 2021 C 197.63 3.59499 -0.00875873 0
M  V30 2022 C 197.294 4.38893 -1.27364 0
M  V30 2023 C 198.291 4.70947 -2.20239 0
M  V30 2024 C 195.976 4.789 -1.51525 0
M  V30 2025 C 197.97 5.41916 -3.35568 0
M  V30 2026 C 195.657 5.49614 -2.67147 0
M  V30 2027 C 196.655 5.81044 -3.58994 0
M  V30 2028 O 196.343 6.50313 -4.72597 0
M  V30 2029 H 196.075 0.670345 -0.0872549 0
M  V30 2030 H 198.629 1.84913 -0.894226 0
M  V30 2031 H 196.859 3.79025 0.7666 0
M  V30 2032 H 198.548 4.0364 0.427687 0
M  V30 2033 H 199.314 4.40558 -2.02815 0
M  V30 2034 H 195.193 4.53843 -0.809158 0
M  V30 2035 H 198.737 5.66365 -4.07279 0
M  V30 2036 H 194.634 5.79419 -2.84505 0
M  V30 2037 H 195.402 6.68795 -4.71864 0
M  V30 2038 N 198.065 0.39524 1.52563 0
M  V30 2039 C 199.481 0.0454682 1.59535 0
M  V30 2040 C 199.681 -1.44056 1.4089 0
M  V30 2041 O 198.737 -2.20579 1.22888 0
M  V30 2042 C 200.05 0.527963 2.96029 0
M  V30 2043 C 201.598 0.484733 3.09224 0
M  V30 2044 C 202.073 0.943512 4.48176 0
M  V30 2045 N 203.564 0.899765 4.54377 0
M  V30 2046 C 204.299 1.22609 5.60138 0
M  V30 2047 N 203.795 1.62319 6.73516 0
M  V30 2048 N 205.588 1.14696 5.50274 0
M  V30 2049 H 197.739 1.36261 1.62931 0
M  V30 2050 H 200.002 0.558887 0.765735 0
M  V30 2051 H 199.708 1.56607 3.14908 0
M  V30 2052 H 199.582 -0.0698056 3.77135 0
M  V30 2053 H 201.969 -0.544298 2.90037 0
M  V30 2054 H 202.05 1.11838 2.30056 0
M  V30 2055 H 201.694 1.9708 4.68104 0
M  V30 2056 H 201.624 0.286817 5.25818 0
M  V30 2057 H 204.115 0.607632 3.72983 0
M  V30 2058 H 204.428 1.85567 7.5019 0
M  V30 2059 H 202.773 1.66211 6.74833 0
M  V30 2060 H 205.964 0.835701 4.6058 0
M  V30 2061 H 206.137 1.40459 6.32594 0
M  V30 2062 N 199.544 -1.57102 0.125237 0
M  V30 2063 C 200.507 -2.14471 -0.80838 0
M  V30 2064 C 201.507 -1.0811 -1.19033 0
M  V30 2065 O 202.697 -1.33856 -1.11482 0
M  V30 2066 C 199.829 -2.69005 -2.09402 0
M  V30 2067 H 201.022 -2.98297 -0.309696 0
M  V30 2068 H 198.575 -1.55807 -0.124051 0
M  V30 2069 H 199.31 -1.88785 -2.63687 0
M  V30 2070 H 199.095 -3.46799 -1.82957 0
M  V30 2071 H 200.585 -3.13278 -2.76128 0
M  V30 2072 N 201.022 0.148545 -1.56898 0
M  V30 2073 C 202.269 0.861418 -1.83264 0
M  V30 2074 C 202.597 1.81239 -0.705883 0
M  V30 2075 O 201.852 1.93305 0.305212 0
M  V30 2076 C 202.151 1.67064 -3.1595 0
M  V30 2077 C 201.817 0.866591 -4.42494 0
M  V30 2078 C 200.479 0.644762 -4.76861 0
M  V30 2079 C 202.831 0.30418 -5.20312 0
M  V30 2080 C 200.159 -0.15021 -5.86508 0
M  V30 2081 C 202.511 -0.477824 -6.30793 0
M  V30 2082 C 201.175 -0.710244 -6.63711 0
M  V30 2083 H 200.445 0.315215 -0.670612 0
M  V30 2084 H 203.092 0.125142 -1.91091 0
M  V30 2085 H 201.397 2.47698 -3.03567 0
M  V30 2086 H 203.094 2.22566 -3.33565 0
M  V30 2087 H 199.684 1.04955 -4.15551 0
M  V30 2088 H 203.868 0.462844 -4.94137 0
M  V30 2089 H 199.124 -0.339796 -6.10455 0
M  V30 2090 H 203.298 -0.92076 -6.90286 0
M  V30 2091 H 200.925 -1.3281 -7.48509 0
M  V30 2092 N 202.5 1.5196 0.417844 0
M  V30 2093 C 203.748 1.65263 1.16329 0
M  V30 2094 C 204.069 0.380634 1.91249 0
M  V30 2095 O 203.339 -0.604214 1.86349 0
M  V30 2096 H 201.919 0.60912 0.432414 0
M  V30 2097 H 204.581 1.88969 0.477162 0
M  V30 2098 H 203.677 2.4896 1.88217 0
M  V30 2099 N 203.978 -0.674533 1.42435 0
M  V30 2100 C 205.206 -1.46283 1.46317 0
M  V30 2101 C 205.621 -1.88653 0.0745836 0
M  V30 2102 O 204.978 -1.58151 -0.91074 0
M  V30 2103 C 205.029 -2.71178 2.3905 0
M  V30 2104 O 204.75 -2.30586 3.72507 0
M  V30 2105 C 206.251 -3.64738 2.51955 0
M  V30 2106 H 203.471 -0.450104 0.497642 0
M  V30 2107 H 206.015 -0.828792 1.86953 0
M  V30 2108 H 204.17 -3.3077 2.01667 0
M  V30 2109 H 204.584 -3.11241 4.22172 0
M  V30 2110 H 206.058 -4.49096 3.20962 0
M  V30 2111 H 206.535 -4.10656 1.55752 0
M  V30 2112 H 207.141 -3.11038 2.90061 0
M  V30 2113 N 205.456 -1.28612 -0.910864 0
M  V30 2114 C 206.867 -1.14406 -1.47541 0
M  V30 2115 C 207.218 0.264901 -1.94403 0
M  V30 2116 O 206.343 1.15942 -1.82719 0
M  V30 2117 C 206.938 -2.07073 -2.68153 0
M  V30 2118 C 205.497 -1.96923 -3.20778 0
M  V30 2119 C 204.644 -1.98646 -1.93481 0
M  V30 2120 H 207.595 -1.41259 -0.723291 0
M  V30 2121 H 207.616 -1.63642 -3.43514 0
M  V30 2122 H 207.128 -3.09611 -2.34015 0
M  V30 2123 H 205.229 -0.97433 -3.59635 0
M  V30 2124 H 205.342 -2.84026 -3.85832 0
M  V30 2125 H 203.706 -1.43093 -2.10705 0
M  V30 2126 H 204.489 -3.02868 -1.61634 0
M  V30 2127 N 206.934 1.1197 -1.10907 0
M  V30 2128 C 208.182 1.83225 -0.852819 0
M  V30 2129 C 208.503 1.84769 0.623341 0
M  V30 2130 O 207.773 1.3143 1.45269 0
M  V30 2131 H 206.353 0.67849 -0.312507 0
M  V30 2132 H 209.015 1.3556 -1.40033 0
M  V30 2133 H 208.111 2.87265 -1.22005 0
M  V30 2134 N 208.412 0.89855 1.29475 0
M  V30 2135 C 209.359 0.373819 2.27753 0
M  V30 2136 C 210.329 -0.543444 1.56958 0
M  V30 2137 O 211.514 -0.468934 1.84948 0
M  V30 2138 C 208.654 -0.393648 3.42848 0
M  V30 2139 C 207.767 0.554379 4.28428 0
M  V30 2140 C 206.902 -0.230026 5.30702 0
M  V30 2141 C 205.941 0.712599 6.07938 0
M  V30 2142 N 205.078 -0.0373283 7.0209 0
M  V30 2143 H 209.918 1.21699 2.72017 0
M  V30 2144 H 207.455 0.611456 1.33789 0
M  V30 2145 H 209.413 -0.85466 4.08352 0
M  V30 2146 H 208.043 -1.20128 2.99615 0
M  V30 2147 H 207.095 1.13391 3.63107 0
M  V30 2148 H 208.407 1.27597 4.82204 0
M  V30 2149 H 207.561 -0.752288 6.02018 0
M  V30 2150 H 206.3 -0.984758 4.77654 0
M  V30 2151 H 205.305 1.24637 5.35486 0
M  V30 2152 H 206.53 1.46664 6.63074 0
M  V30 2153 H 204.476 -0.774348 6.51414 0
M  V30 2154 H 204.393 0.624374 7.53417 0
M  V30 2155 H 205.661 -0.539891 7.77628 0
M  V30 2156 N 209.89 -1.43072 0.660911 0
M  V30 2157 C 210.82 -2.33497 -0.0122829 0
M  V30 2158 C 211.801 -1.49903 -0.803925 0
M  V30 2159 O 212.986 -1.78546 -0.763864 0
M  V30 2160 C 210.116 -3.33363 -0.973994 0
M  V30 2161 C 209.07 -4.27003 -0.291928 0
M  V30 2162 C 208.396 -5.16967 -1.36562 0
M  V30 2163 C 209.696 -5.15816 0.820462 0
M  V30 2164 H 211.39 -2.90038 0.742873 0
M  V30 2165 H 208.936 -1.39461 0.358688 0
M  V30 2166 H 210.889 -3.95524 -1.45392 0
M  V30 2167 H 209.613 -2.75095 -1.7604 0
M  V30 2168 H 208.272 -3.66217 0.167623 0
M  V30 2169 H 207.92 -4.55034 -2.14366 0
M  V30 2170 H 207.62 -5.80441 -0.914454 0
M  V30 2171 H 209.144 -5.82003 -1.84675 0
M  V30 2172 H 210.558 -5.71742 0.422366 0
M  V30 2173 H 208.955 -5.8805 1.19656 0
M  V30 2174 H 210.025 -4.55045 1.67518 0
M  V30 2175 N 211.368 -0.403325 -1.52352 0
M  V30 2176 C 212.331 0.413051 -2.25447 0
M  V30 2177 C 213.331 0.978513 -1.276 0
M  V30 2178 O 214.521 0.858305 -1.51587 0
M  V30 2179 C 211.653 1.58087 -3.02029 0
M  V30 2180 H 212.846 -0.227094 -2.99039 0
M  V30 2181 H 210.399 -0.155722 -1.55522 0
M  V30 2182 H 211.134 2.25804 -2.32772 0
M  V30 2183 H 210.919 1.18195 -3.73861 0
M  V30 2184 H 212.409 2.1585 -3.57489 0
M  V30 2185 N 212.846 1.57033 -0.133567 0
M  V30 2186 C 213.809 2.14897 0.796995 0
M  V30 2187 C 214.809 1.0874 1.18458 0
M  V30 2188 O 215.999 1.34446 1.1077 0
M  V30 2189 C 213.131 2.70112 2.07973 0
M  V30 2190 H 214.324 2.98457 0.293873 0
M  V30 2191 H 211.877 1.55871 0.115787 0
M  V30 2192 H 212.612 1.9018 2.62682 0
M  V30 2193 H 212.397 3.47764 1.81115 0
M  V30 2194 H 213.887 3.14738 2.74462 0
M  V30 2195 N 214.325 -0.140222 1.56975 0
M  V30 2196 C 215.288 -1.15689 1.97861 0
M  V30 2197 C 216.288 -1.3549 0.865974 0
M  V30 2198 O 217.478 -1.32367 1.13246 0
M  V30 2199 C 214.61 -2.51582 2.30042 0
M  V30 2200 H 215.803 -0.805971 2.88867 0
M  V30 2201 H 213.356 -0.383801 1.51515 0
M  V30 2202 H 214.091 -2.91632 1.41849 0
M  V30 2203 H 213.876 -2.38569 3.11171 0
M  V30 2204 H 215.366 -3.24792 2.62488 0
M  V30 2205 N 215.803 -1.52179 -0.40978 0
M  V30 2206 C 216.733 -1.78435 -1.5061 0
M  V30 2207 C 217.714 -0.635295 -1.57791 0
M  V30 2208 O 218.899 -0.880823 -1.73076 0
M  V30 2209 C 216.029 -1.93444 -2.88439 0
M  V30 2210 C 214.983 -3.09038 -2.96108 0
M  V30 2211 C 214.309 -3.09268 -4.36185 0
M  V30 2212 C 215.609 -4.48508 -2.67652 0
M  V30 2213 H 217.303 -2.70237 -1.28889 0
M  V30 2214 H 214.849 -1.30036 -0.618605 0
M  V30 2215 H 216.802 -2.10394 -3.65119 0
M  V30 2216 H 215.526 -0.983129 -3.11452 0
M  V30 2217 H 214.185 -2.91837 -2.21872 0
M  V30 2218 H 213.833 -2.11861 -4.56206 0
M  V30 2219 H 213.533 -3.86907 -4.42241 0
M  V30 2220 H 215.057 -3.28348 -5.14801 0
M  V30 2221 H 216.471 -4.65918 -3.34056 0
M  V30 2222 H 214.868 -5.28059 -2.85085 0
M  V30 2223 H 215.938 -4.56649 -1.63095 0
M  V30 2224 N 217.281 0.66697 -1.42791 0
M  V30 2225 C 218.244 1.76211 -1.46568 0
M  V30 2226 C 219.244 1.56896 -0.352196 0
M  V30 2227 O 220.434 1.63044 -0.613364 0
M  V30 2228 C 217.566 3.14935 -1.30494 0
M  V30 2229 H 218.759 1.74247 -2.44086 0
M  V30 2230 H 216.312 0.877342 -1.29354 0
M  V30 2231 H 217.047 3.2252 -0.339301 0
M  V30 2232 H 216.832 3.30359 -2.11199 0
M  V30 2233 H 218.322 3.94821 -1.36038 0
M  V30 2234 N 218.759 1.29093 0.90403 0
M  V30 2235 C 220.008 1.16187 1.64874 0
M  V30 2236 C 220.321 -0.286742 1.93487 0
M  V30 2237 O 221.527 -0.537062 2.66135 0
M  V30 2238 C 219.983 2.03177 2.97064 0
M  V30 2239 C 219.591 3.52836 2.76062 0
M  V30 2240 C 221.335 1.98984 3.74974 0
M  V30 2241 C 219.242 4.31945 4.03952 0
M  V30 2242 H 218.172 0.431246 0.618501 0
M  V30 2243 H 220.823 1.53699 1.00243 0
M  V30 2244 H 219.205 1.5853 3.62883 0
M  V30 2245 H 220.379 4.05507 2.18863 0
M  V30 2246 H 218.694 3.58656 2.11553 0
M  V30 2247 H 221.291 2.55351 4.69787 0
M  V30 2248 H 221.634 0.968815 4.0487 0
M  V30 2249 H 222.167 2.41652 3.15989 0
M  V30 2250 H 218.906 5.34667 3.79225 0
M  V30 2251 H 218.426 3.84045 4.60727 0
M  V30 2252 H 220.105 4.42379 4.72133 0
M  V30 2253 N 220.237 -1.11381 1.11499 0
M  V30 2254 C 221.465 -1.86934 0.88675 0
M  V30 2255 C 221.88 -1.80195 -0.563476 0
M  V30 2256 O 221.237 -1.18367 -1.38908 0
M  V30 2257 C 221.288 -3.35722 1.34064 0
M  V30 2258 O 221.009 -3.4232 2.73401 0
M  V30 2259 C 222.51 -4.2818 1.14791 0
M  V30 2260 H 219.73 -0.591117 0.317523 0
M  V30 2261 H 222.274 -1.40865 1.48248 0
M  V30 2262 H 220.429 -3.79294 0.788355 0
M  V30 2263 H 220.843 -4.34971 2.93087 0
M  V30 2264 H 222.317 -5.30817 1.5145 0
M  V30 2265 H 222.794 -4.39113 0.0875279 0
M  V30 2266 H 223.4 -3.90402 1.68721 0
M  V30 2267 N 221.715 -0.905404 -1.28997 0
M  V30 2268 C 222.645 -0.404212 -2.29975 0
M  V30 2269 C 223.626 0.523784 -1.61835 0
M  V30 2270 O 224.811 0.433298 -1.89304 0
M  V30 2271 C 221.941 0.364042 -3.45387 0
M  V30 2272 C 220.895 -0.474048 -4.25367 0
M  V30 2273 C 220.221 0.422045 -5.33032 0
M  V30 2274 C 221.521 -1.72696 -4.92923 0
M  V30 2275 H 223.215 -1.24807 -2.72146 0
M  V30 2276 H 220.761 -0.601585 -1.30832 0
M  V30 2277 H 222.714 0.725447 -4.15109 0
M  V30 2278 H 221.438 1.24174 -3.02074 0
M  V30 2279 H 220.097 -0.81786 -3.57361 0
M  V30 2280 H 219.745 1.29804 -4.85963 0
M  V30 2281 H 219.445 -0.135057 -5.87445 0
M  V30 2282 H 220.969 0.779517 -6.05604 0
M  V30 2283 H 222.383 -1.43495 -5.55051 0
M  V30 2284 H 220.78 -2.22582 -5.57295 0
M  V30 2285 H 221.85 -2.45964 -4.17887 0
M  V30 2286 N 223.193 1.4272 -0.668489 0
M  V30 2287 C 224.125 2.2914 0.052613 0
M  V30 2288 C 225.138 1.43339 0.771857 0
M  V30 2289 O 226.327 1.67123 0.627067 0
M  V30 2290 C 223.427 3.20618 1.09804 0
M  V30 2291 C 222.6 4.35039 0.45389 0
M  V30 2292 C 221.659 5.07282 1.39825 0
M  V30 2293 O 220.685 5.62024 0.900978 0
M  V30 2294 N 221.887 5.12206 2.73176 0
M  V30 2295 H 224.652 2.91668 -0.689209 0
M  V30 2296 H 222.213 1.53577 -0.512422 0
M  V30 2297 H 224.205 3.65815 1.73094 0
M  V30 2298 H 222.775 2.59585 1.74167 0
M  V30 2299 H 221.995 3.92567 -0.358396 0
M  V30 2300 H 223.283 5.088 0.00486972 0
M  V30 2301 H 222.681 4.6913 3.16122 0
M  V30 2302 H 221.238 5.61069 3.31729 0
M  V30 2303 N 224.671 0.411399 1.52136 0
M  V30 2304 C 225.619 -0.427633 2.28635 0
M  V30 2305 C 226.613 -1.04383 1.33419 0
M  V30 2306 O 227.819 -0.981772 1.50868 0
M  V30 2307 H 224.194 -0.156689 0.735495 0
M  V30 2308 H 226.165 0.238761 2.97443 0
M  V30 2309 C 224.914 -1.53082 3.12188 0
M  V30 2310 H 224.237 -1.06601 3.85326 0
M  V30 2311 H 225.677 -2.09167 3.68816 0
M  V30 2312 C 224.136 -2.49946 2.25895 0
M  V30 2313 O 224.666 -3.53884 1.90076 0
M  V30 2314 N 222.872 -2.2021 1.8962 0
M  V30 2315 H 222.419 -1.35719 2.18948 0
M  V30 2316 H 222.377 -2.85266 1.32176 0
M  V30 2317 N 226.149 -1.5696 0.141893 0
M  V30 2318 C 227.398 -1.95135 -0.510427 0
M  V30 2319 C 227.711 -1.02896 -1.66348 0
M  V30 2320 O 228.917 -1.30629 -2.38009 0
M  V30 2321 C 227.373 -3.46876 -0.959427 0
M  V30 2322 C 226.981 -4.47691 0.166419 0
M  V30 2323 C 228.725 -3.93927 -1.58183 0
M  V30 2324 C 226.632 -5.90636 -0.300565 0
M  V30 2325 H 225.562 -0.728494 -0.194454 0
M  V30 2326 H 228.213 -1.8211 0.22542 0
M  V30 2327 H 226.595 -3.55215 -1.75038 0
M  V30 2328 H 227.769 -4.51043 0.94325 0
M  V30 2329 H 226.084 -4.10527 0.696905 0
M  V30 2330 H 228.681 -4.98158 -1.94275 0
M  V30 2331 H 229.024 -3.3519 -2.46888 0
M  V30 2332 H 229.557 -3.88484 -0.855863 0
M  V30 2333 H 226.296 -6.5318 0.550989 0
M  V30 2334 H 225.816 -5.90655 -1.04338 0
M  V30 2335 H 227.495 -6.42588 -0.754265 0
M  V30 2336 N 227.627 0.131896 -1.57047 0
M  V30 2337 C 228.875 0.840269 -1.83804 0
M  V30 2338 C 229.196 1.81017 -0.72512 0
M  V30 2339 O 228.466 1.94272 0.251995 0
M  V30 2340 H 227.046 0.313294 -0.678127 0
M  V30 2341 H 229.708 0.122294 -1.94516 0
M  V30 2342 H 228.804 1.39335 -2.79271 0
M  V30 2343 N 229.106 1.52395 0.401703 0
M  V30 2344 C 230.069 1.75636 1.47257 0
M  V30 2345 C 231.069 0.62628 1.48103 0
M  V30 2346 O 232.259 0.894227 1.49497 0
M  V30 2347 C 229.391 1.84553 2.86624 0
M  V30 2348 H 230.584 2.71241 1.27938 0
M  V30 2349 H 228.137 1.42923 0.632662 0
M  V30 2350 H 228.872 0.908882 3.11303 0
M  V30 2351 H 228.657 2.66715 2.87412 0
M  V30 2352 H 230.147 2.04251 3.64241 0
M  V30 2353 N 230.584 -0.659388 1.43143 0
M  V30 2354 C 231.517 -1.78425 1.42267 0
M  V30 2355 C 232.495 -1.60085 0.284894 0
M  V30 2356 O 233.679 -1.82351 0.477527 0
M  V30 2357 C 230.806 -3.15642 1.22833 0
M  V30 2358 C 229.852 -3.52698 2.39806 0
M  V30 2359 S 230.685 -3.53372 4.02353 0
M  V30 2360 C 231.841 -4.93256 3.85291 0
M  V30 2361 H 232.074 -1.78897 2.37452 0
M  V30 2362 H 229.607 -0.831469 1.301 0
M  V30 2363 H 231.565 -3.94838 1.12308 0
M  V30 2364 H 230.226 -3.12739 0.29207 0
M  V30 2365 H 229.419 -4.52475 2.21996 0
M  V30 2366 H 229.021 -2.80899 2.46925 0
M  V30 2367 H 231.313 -5.81751 3.47235 0
M  V30 2368 H 232.256 -5.16115 4.84799 0
M  V30 2369 H 232.664 -4.665 3.17865 0
M  V30 2370 N 232.062 -1.29571 -0.897171 0
M  V30 2371 C 233.287 -1.20705 -1.68656 0
M  V30 2372 C 233.712 0.228582 -1.86706 0
M  V30 2373 O 233.07 1.16494 -1.3892 0
M  V30 2374 C 233.118 -1.9282 -3.04717 0
M  V30 2375 O 232.222 -1.24697 -3.93096 0
M  V30 2376 H 231.563 -0.418126 -0.515816 0
M  V30 2377 H 234.093 -1.71183 -1.12061 0
M  V30 2378 H 234.103 -2.01372 -3.54843 0
M  V30 2379 H 232.778 -2.97239 -2.90899 0
M  V30 2380 H 231.355 -1.2442 -3.51531 0
M  V30 2381 N 233.54 1.10788 -1.12088 0
M  V30 2382 C 234.765 1.87002 -0.896949 0
M  V30 2383 C 235.19 1.79933 0.548261 0
M  V30 2384 O 234.548 1.16662 1.38779 0
M  V30 2385 C 234.596 3.3349 -1.37174 0
M  V30 2386 O 233.7 4.08745 -0.547831 0
M  V30 2387 H 233.041 0.580397 -0.322545 0
M  V30 2388 H 235.571 1.39996 -1.49206 0
M  V30 2389 H 235.581 3.84339 -1.36922 0
M  V30 2390 H 234.256 3.37951 -2.42408 0
M  V30 2391 H 232.833 3.6776 -0.617034 0
M  V30 2392 N 235.018 0.912232 1.28515 0
M  V30 2393 C 236.248 0.559604 1.98877 0
M  V30 2394 C 236.656 -0.863113 1.68366 0
M  V30 2395 O 235.999 -1.58304 0.931969 0
M  V30 2396 C 236.061 0.68703 3.52874 0
M  V30 2397 C 235.725 2.07901 4.06972 0
M  V30 2398 C 236.722 3.05157 4.20922 0
M  V30 2399 C 234.407 2.39178 4.417 0
M  V30 2400 C 236.401 4.31806 4.68852 0
M  V30 2401 C 234.088 3.66068 4.89324 0
M  V30 2402 C 235.086 4.62195 5.02856 0
M  V30 2403 O 234.774 5.86829 5.49442 0
M  V30 2404 H 234.506 0.212191 0.641834 0
M  V30 2405 H 237.06 1.22712 1.64715 0
M  V30 2406 H 235.29 -0.0375486 3.86682 0
M  V30 2407 H 236.979 0.341727 4.04459 0
M  V30 2408 H 237.745 2.82311 3.94367 0
M  V30 2409 H 233.624 1.65109 4.30418 0
M  V30 2410 H 237.168 5.06842 4.79329 0
M  V30 2411 H 233.065 3.88739 5.15318 0
M  V30 2412 H 233.833 5.89597 5.6773 0
M  V30 2413 N 236.496 -1.42363 0.676048 0
M  V30 2414 C 237.426 -2.33497 0.0124832 0
M  V30 2415 C 238.407 -1.50748 -0.787981 0
M  V30 2416 O 239.592 -1.79346 -0.744884 0
M  V30 2417 C 236.722 -3.34377 -0.938582 0
M  V30 2418 C 235.676 -4.27289 -0.246622 0
M  V30 2419 C 235.002 -5.18386 -1.31071 0
M  V30 2420 C 236.302 -5.14916 0.875125 0
M  V30 2421 H 237.996 -2.89233 0.773593 0
M  V30 2422 H 235.542 -1.39073 0.37346 0
M  V30 2423 H 237.495 -3.97044 -1.41188 0
M  V30 2424 H 236.219 -2.76947 -1.73113 0
M  V30 2425 H 234.878 -3.66018 0.206456 0
M  V30 2426 H 234.526 -4.57282 -2.09528 0
M  V30 2427 H 234.226 -5.81378 -0.852839 0
M  V30 2428 H 235.75 -5.83929 -1.78492 0
M  V30 2429 H 237.164 -5.71262 0.482983 0
M  V30 2430 H 235.561 -5.86747 1.25887 0
M  V30 2431 H 236.631 -4.53242 1.72335 0
M  V30 2432 N 237.974 -0.419461 -1.51915 0
M  V30 2433 C 239.204 0.151915 -2.06041 0
M  V30 2434 C 239.612 1.38539 -1.28855 0
M  V30 2435 O 238.955 1.80592 -0.336463 0
M  V30 2436 C 239.017 0.557119 -3.55157 0
M  V30 2437 C 238.681 -0.567054 -4.53468 0
M  V30 2438 C 239.678 -1.43379 -4.99738 0
M  V30 2439 C 237.363 -0.742693 -4.96779 0
M  V30 2440 C 239.357 -2.46102 -5.87973 0
M  V30 2441 C 237.044 -1.77322 -5.84808 0
M  V30 2442 C 238.042 -2.63078 -6.30301 0
M  V30 2443 O 237.73 -3.64364 -7.16585 0
M  V30 2444 H 237.462 0.0193293 -0.675724 0
M  V30 2445 H 240.016 -0.592073 -1.96682 0
M  V30 2446 H 238.246 1.35355 -3.62238 0
M  V30 2447 H 239.935 1.05759 -3.9188 0
M  V30 2448 H 240.701 -1.30954 -4.66986 0
M  V30 2449 H 236.58 -0.0848307 -4.60922 0
M  V30 2450 H 240.124 -3.13071 -6.23404 0
M  V30 2451 H 236.021 -1.89773 -6.16974 0
M  V30 2452 H 236.789 -3.60731 -7.34721 0
M  V30 2453 N 239.452 1.56882 -0.150215 0
M  V30 2454 C 240.701 1.95403 0.500071 0
M  V30 2455 C 241.014 1.03777 1.658 0
M  V30 2456 O 242.22 1.31889 2.37313 0
M  V30 2457 C 240.676 3.4738 0.941018 0
M  V30 2458 C 240.284 4.47596 -0.190158 0
M  V30 2459 C 242.028 3.9476 1.56091 0
M  V30 2460 C 239.935 5.90787 0.269237 0
M  V30 2461 H 238.865 0.729515 0.190588 0
M  V30 2462 H 241.516 1.81988 -0.235074 0
M  V30 2463 H 239.898 3.56138 1.73152 0
M  V30 2464 H 241.072 4.50536 -0.967157 0
M  V30 2465 H 239.387 4.10151 -0.718666 0
M  V30 2466 H 241.984 4.99181 1.9163 0
M  V30 2467 H 242.327 3.36494 2.45107 0
M  V30 2468 H 242.86 3.88932 0.835249 0
M  V30 2469 H 239.599 6.52879 -0.585621 0
M  V30 2470 H 239.119 5.912 1.01204 0
M  V30 2471 H 240.798 6.42979 0.720176 0
M  V30 2472 N 240.93 -0.123565 1.57115 0
M  V30 2473 C 242.179 -0.830704 1.83799 0
M  V30 2474 C 242.492 -1.81259 0.735158 0
M  V30 2475 O 243.698 -2.56558 0.888278 0
M  V30 2476 C 242.154 -1.52802 3.25852 0
M  V30 2477 C 241.762 -0.587356 4.44133 0
M  V30 2478 C 243.506 -2.22056 3.61789 0
M  V30 2479 C 241.413 -1.28764 5.77212 0
M  V30 2480 H 240.343 -0.313967 0.685522 0
M  V30 2481 H 242.994 -0.0834359 1.8331 0
M  V30 2482 H 241.376 -2.32175 3.20797 0
M  V30 2483 H 242.55 0.172829 4.60476 0
M  V30 2484 H 240.865 -0.00201892 4.164 0
M  V30 2485 H 243.462 -2.75131 4.58483 0
M  V30 2486 H 243.805 -2.99644 2.88997 0
M  V30 2487 H 244.338 -1.49576 3.68608 0
M  V30 2488 H 241.077 -0.55314 6.53162 0
M  V30 2489 H 240.597 -2.01995 5.64764 0
M  V30 2490 H 242.276 -1.8221 6.20813 0
M  V30 2491 N 242.408 -1.52605 -0.393616 0
M  V30 2492 C 243.355 -1.77055 -1.48054 0
M  V30 2493 C 244.325 -0.61358 -1.54352 0
M  V30 2494 O 245.51 -0.852806 -1.70681 0
M  V30 2495 C 242.65 -1.94108 -2.85335 0
M  V30 2496 C 241.763 -3.21792 -2.88226 0
M  V30 2497 C 240.898 -3.29188 -4.16904 0
M  V30 2498 C 239.937 -4.51013 -4.13828 0
M  V30 2499 N 239.074 -4.55716 -5.34105 0
M  V30 2500 H 243.914 -2.69815 -1.26506 0
M  V30 2501 H 241.451 -1.33683 -0.61379 0
M  V30 2502 H 243.409 -2.01979 -3.65049 0
M  V30 2503 H 242.039 -1.04713 -3.05344 0
M  V30 2504 H 241.091 -3.23015 -2.00911 0
M  V30 2505 H 242.403 -4.11557 -2.8182 0
M  V30 2506 H 241.557 -3.36216 -5.05018 0
M  V30 2507 H 240.296 -2.37389 -4.26026 0
M  V30 2508 H 239.301 -4.44115 -3.24102 0
M  V30 2509 H 240.526 -5.44123 -4.06333 0
M  V30 2510 H 238.472 -3.66807 -5.43865 0
M  V30 2511 H 238.389 -5.39346 -5.29756 0
M  V30 2512 H 239.657 -4.66993 -6.2413 0
M  V30 2513 N 243.887 0.651787 -1.4349 0
M  V30 2514 C 245.112 1.44434 -1.48841 0
M  V30 2515 C 245.537 1.8779 -0.107955 0
M  V30 2516 O 244.895 1.57464 0.898602 0
M  V30 2517 C 244.943 2.65458 -2.44059 0
M  V30 2518 O 244.047 3.64566 -1.92784 0
M  V30 2519 H 243.388 0.433005 -0.503391 0
M  V30 2520 H 245.918 0.797451 -1.88419 0
M  V30 2521 H 245.928 3.13255 -2.6141 0
M  V30 2522 H 244.603 2.33244 -3.4434 0
M  V30 2523 H 243.18 3.23716 -1.851 0
M  V30 2524 N 245.365 1.30045 0.890287 0
M  V30 2525 C 246.275 1.17885 2.02831 0
M  V30 2526 C 247.291 0.0999609 1.73713 0
M  V30 2527 O 248.467 0.313867 1.98939 0
M  V30 2528 C 245.532 0.866079 3.35708 0
M  V30 2529 C 244.593 2.02979 3.78283 0
M  V30 2530 C 243.826 1.73184 5.0482 0
M  V30 2531 O 244.049 0.657237 5.66601 0
M  V30 2532 O 242.983 2.58267 5.43674 0
M  V30 2533 H 246.809 2.13474 2.16015 0
M  V30 2534 H 244.394 1.09587 1.01543 0
M  V30 2535 H 246.276 0.706623 4.15433 0
M  V30 2536 H 244.951 -0.0599443 3.23644 0
M  V30 2537 H 243.858 2.24454 2.99285 0
M  V30 2538 H 245.191 2.93734 3.94944 0
M  V30 2539 N 246.843 -1.10192 1.12674 0
M  V30 2540 C 247.773 -2.18652 0.819362 0
M  V30 2541 C 248.754 -1.68698 -0.217915 0
M  V30 2542 O 249.939 -1.94041 -0.0785581 0
M  V30 2543 C 247.069 -3.46202 0.27594 0
M  V30 2544 C 246.023 -4.09444 1.24656 0
M  V30 2545 C 245.349 -5.31725 0.563258 0
M  V30 2546 C 246.649 -4.52863 2.60217 0
M  V30 2547 H 248.343 -2.44622 1.72628 0
M  V30 2548 H 245.889 -1.17571 0.831451 0
M  V30 2549 H 247.842 -4.21372 0.0486149 0
M  V30 2550 H 246.566 -3.1973 -0.666331 0
M  V30 2551 H 245.225 -3.36284 1.45974 0
M  V30 2552 H 244.873 -5.0153 -0.384235 0
M  V30 2553 H 244.573 -5.74991 1.21075 0
M  V30 2554 H 246.097 -6.09624 0.34503 0
M  V30 2555 H 247.511 -5.19294 2.42913 0
M  V30 2556 H 245.908 -5.06986 3.21068 0
M  V30 2557 H 246.978 -3.65656 3.18471 0
M  V30 2558 N 248.321 -0.919034 -1.28029 0
M  V30 2559 C 249.732 -0.600735 -1.76771 0
M  V30 2560 C 250.083 0.884024 -1.75156 0
M  V30 2561 O 249.208 1.69163 -1.34956 0
M  V30 2562 C 249.803 -1.08372 -3.21 0
M  V30 2563 C 248.362 -0.816248 -3.67443 0
M  V30 2564 C 247.509 -1.24742 -2.47658 0
M  V30 2565 H 250.46 -1.09974 -1.14418 0
M  V30 2566 H 250.481 -0.427512 -3.78091 0
M  V30 2567 H 249.993 -2.16437 -3.22144 0
M  V30 2568 H 248.094 0.250968 -3.71754 0
M  V30 2569 H 248.207 -1.4277 -4.57333 0
M  V30 2570 H 246.571 -0.666083 -2.45836 0
M  V30 2571 H 247.354 -2.33653 -2.51518 0
M  V30 2572 N 249.799 1.42003 -0.683588 0
M  V30 2573 C 250.729 2.33487 -0.024866 0
M  V30 2574 C 251.71 1.51163 0.779975 0
M  V30 2575 O 252.895 1.79739 0.735362 0
M  V30 2576 C 250.025 3.3487 0.920836 0
M  V30 2577 C 248.979 4.27414 0.223958 0
M  V30 2578 C 248.305 5.19074 1.2832 0
M  V30 2579 C 249.605 5.14445 -0.90242 0
M  V30 2580 H 251.299 2.88819 -0.788921 0
M  V30 2581 H 248.845 1.38873 -0.38083 0
M  V30 2582 H 250.798 3.97787 1.39081 0
M  V30 2583 H 249.522 2.77861 1.71642 0
M  V30 2584 H 248.181 3.65904 -0.225864 0
M  V30 2585 H 247.829 4.58387 2.071 0
M  V30 2586 H 247.529 5.81822 0.821995 0
M  V30 2587 H 249.053 5.84867 1.75392 0
M  V30 2588 H 250.467 5.70998 -0.513272 0
M  V30 2589 H 248.864 5.86072 -1.28997 0
M  V30 2590 H 249.934 4.52322 -1.74737 0
M  V30 2591 N 251.277 0.427512 1.51691 0
M  V30 2592 C 252.523 -0.142439 2.02299 0
M  V30 2593 C 252.856 -1.43214 1.31162 0
M  V30 2594 O 252.131 -1.89833 0.423511 0
M  V30 2595 C 252.414 -0.371301 3.58181 0
M  V30 2596 C 252.267 0.936358 4.39946 0
M  V30 2597 C 253.586 -1.14542 4.24933 0
M  V30 2598 H 250.705 -0.0502937 0.735282 0
M  V30 2599 H 253.347 0.564584 1.81418 0
M  V30 2600 H 251.497 -0.973559 3.76104 0
M  V30 2601 H 253.169 1.57184 4.33694 0
M  V30 2602 H 251.412 1.5432 4.05423 0
M  V30 2603 H 252.083 0.730388 5.47147 0
M  V30 2604 H 254.559 -0.635362 4.11221 0
M  V30 2605 H 253.435 -1.27431 5.33903 0
M  V30 2606 H 253.696 -2.17093 3.85127 0
M  V30 2607 N 252.755 -1.56801 0.158532 0
M  V30 2608 C 254.004 -1.95665 -0.489702 0
M  V30 2609 C 254.317 -1.04654 -1.65248 0
M  V30 2610 O 255.523 -1.33146 -2.3661 0
M  V30 2611 C 253.979 -3.47874 -0.922582 0
M  V30 2612 C 253.587 -4.47489 0.213893 0
M  V30 2613 C 255.331 -3.95583 -1.53996 0
M  V30 2614 C 253.238 -5.90921 -0.237903 0
M  V30 2615 H 252.168 -0.730516 -0.186716 0
M  V30 2616 H 254.819 -1.81861 0.244722 0
M  V30 2617 H 253.201 -3.57051 -1.71261 0
M  V30 2618 H 254.375 -4.50017 0.991036 0
M  V30 2619 H 252.69 -4.09764 0.740407 0
M  V30 2620 H 255.287 -5.0019 -1.8898 0
M  V30 2621 H 255.63 -3.37789 -2.43319 0
M  V30 2622 H 256.163 -3.8937 -0.814611 0
M  V30 2623 H 252.902 -6.52559 0.620236 0
M  V30 2624 H 252.422 -5.91729 -0.980676 0
M  V30 2625 H 254.101 -6.43352 -0.686067 0
M  V30 2626 N 254.233 0.115231 -1.57178 0
M  V30 2627 C 255.165 1.16694 -1.97269 0
M  V30 2628 C 256.178 1.37445 -0.872502 0
M  V30 2629 O 257.367 1.36454 -1.15077 0
M  V30 2630 C 254.467 2.52627 -2.25905 0
M  V30 2631 C 253.64 2.52427 -3.57211 0
M  V30 2632 C 252.699 3.70134 -3.74016 0
M  V30 2633 O 251.725 3.53546 -4.46087 0
M  V30 2634 N 252.927 4.88844 -3.13068 0
M  V30 2635 H 255.692 0.82588 -2.88096 0
M  V30 2636 H 253.253 0.304461 -1.59011 0
M  V30 2637 H 255.245 3.29937 -2.34359 0
M  V30 2638 H 253.815 2.789 -1.41186 0
M  V30 2639 H 253.035 1.60805 -3.5991 0
M  V30 2640 H 254.323 2.49353 -4.43509 0
M  V30 2641 H 253.721 5.05225 -2.54489 0
M  V30 2642 H 252.278 5.63817 -3.27037 0
M  V30 2643 N 255.711 1.52812 0.385517 0
M  V30 2644 C 256.939 1.71907 1.15133 0
M  V30 2645 C 257.354 0.439004 1.83625 0
M  V30 2646 O 256.711 -0.586765 1.7281 0
M  V30 2647 C 256.762 2.87099 2.19673 0
M  V30 2648 O 256.483 4.10151 1.53973 0
M  V30 2649 C 257.984 3.17902 3.08955 0
M  V30 2650 H 255.204 0.575479 0.345057 0
M  V30 2651 H 257.748 1.99476 0.45052 0
M  V30 2652 H 255.903 2.61982 2.85384 0
M  V30 2653 H 256.317 4.74514 2.23465 0
M  V30 2654 H 257.791 4.01959 3.7833 0
M  V30 2655 H 258.268 2.3243 3.72657 0
M  V30 2656 H 258.874 3.44871 2.48885 0
M  V30 2657 N 257.189 -0.644168 1.43834 0
M  V30 2658 C 258.436 -1.40395 1.4593 0
M  V30 2659 C 258.764 -1.94305 0.0869658 0
M  V30 2660 O 258.019 -1.73288 -0.909378 0
M  V30 2661 C 258.318 -2.59615 2.45631 0
M  V30 2662 C 257.984 -2.2407 3.91284 0
M  V30 2663 C 256.646 -2.14089 4.30952 0
M  V30 2664 C 258.998 -1.95775 4.83034 0
M  V30 2665 C 256.326 -1.73981 5.6031 0
M  V30 2666 C 258.678 -1.57163 6.12766 0
M  V30 2667 C 257.342 -1.45713 6.51402 0
M  V30 2668 H 256.612 -0.513741 0.533995 0
M  V30 2669 H 259.259 -0.731724 1.76969 0
M  V30 2670 H 257.564 -3.32011 2.08028 0
M  V30 2671 H 259.261 -3.17834 2.44504 0
M  V30 2672 H 255.851 -2.32753 3.59895 0
M  V30 2673 H 260.035 -2.02403 4.53152 0
M  V30 2674 H 255.291 -1.63709 5.89075 0
M  V30 2675 H 259.465 -1.34303 6.83327 0
M  V30 2676 H 257.092 -1.14406 7.51542 0
M  V30 2677 N 258.668 -1.30515 -0.883378 0
M  V30 2678 C 259.598 -1.19607 -2.00541 0
M  V30 2679 C 260.579 -0.086346 -1.69881 0
M  V30 2680 O 261.764 -0.268654 -1.92333 0
M  V30 2681 C 258.894 -0.888758 -3.35736 0
M  V30 2682 C 257.848 -1.95659 -3.8066 0
M  V30 2683 C 257.174 -1.50224 -5.13164 0
M  V30 2684 C 258.474 -3.36788 -3.99213 0
M  V30 2685 H 260.168 -2.13476 -2.09925 0
M  V30 2686 H 257.714 -1.02775 -1.00863 0
M  V30 2687 H 259.667 -0.799094 -4.13754 0
M  V30 2688 H 258.391 0.0856125 -3.26488 0
M  V30 2689 H 257.05 -2.03591 -3.04871 0
M  V30 2690 H 256.698 -0.516092 -5.00345 0
M  V30 2691 H 256.398 -2.2165 -5.44192 0
M  V30 2692 H 257.922 -1.42639 -5.93706 0
M  V30 2693 H 259.336 -3.31605 -4.67665 0
M  V30 2694 H 257.733 -4.06314 -4.41621 0
M  V30 2695 H 258.803 -3.78561 -3.03017 0
M  V30 2696 N 260.146 1.09593 -1.13257 0
M  V30 2697 C 261.094 2.18271 -0.803783 0
M  V30 2698 C 262.088 1.68054 0.213148 0
M  V30 2699 O 263.294 1.79862 0.0704699 0
M  V30 2700 H 259.669 0.711949 -0.242143 0
M  V30 2701 H 261.64 2.43235 -1.72856 0
M  V30 2702 C 260.389 3.46536 -0.28424 0
M  V30 2703 H 259.712 3.85545 -1.05807 0
M  V30 2704 H 261.152 4.23899 -0.0925945 0
M  V30 2705 C 259.611 3.22036 0.989684 0
M  V30 2706 O 260.141 3.44509 2.06584 0
M  V30 2707 N 258.347 2.7565 0.920086 0
M  V30 2708 H 257.894 2.57562 0.0442019 0
M  V30 2709 H 257.852 2.59635 1.77306 0
M  V30 2710 N 261.624 0.925811 1.2754 0
M  V30 2711 C 262.554 0.440748 2.29303 0
M  V30 2712 C 263.535 -0.497971 1.62648 0
M  V30 2713 O 264.72 -0.403126 1.8997 0
M  V30 2714 C 261.85 -0.309048 3.45922 0
M  V30 2715 C 260.804 0.54166 4.24559 0
M  V30 2716 C 260.13 -0.337191 5.33636 0
M  V30 2717 C 261.43 1.80516 4.90114 0
M  V30 2718 H 263.124 1.29121 2.70126 0
M  V30 2719 H 260.67 0.622323 1.29858 0
M  V30 2720 H 262.623 -0.659315 4.1621 0
M  V30 2721 H 261.347 -1.19352 3.04011 0
M  V30 2722 H 260.006 0.874609 3.56014 0
M  V30 2723 H 259.654 -1.22056 4.87966 0
M  V30 2724 H 259.354 0.228497 5.87156 0
M  V30 2725 H 260.878 -0.683072 6.06767 0
M  V30 2726 H 262.292 1.52307 5.52698 0
M  V30 2727 H 260.689 2.3142 5.53683 0
M  V30 2728 H 261.759 2.52581 4.13921 0
M  V30 2729 N 263.102 -1.41638 0.69111 0
M  V30 2730 C 264.012 -2.34588 0.0233487 0
M  V30 2731 C 265.028 -1.55987 -0.770984 0
M  V30 2732 O 266.204 -1.88486 -0.709569 0
M  V30 2733 C 263.269 -3.34684 -0.904851 0
M  V30 2734 C 262.33 -4.29176 -0.103225 0
M  V30 2735 C 261.563 -5.2449 -0.987216 0
M  V30 2736 O 261.786 -5.2514 -2.22674 0
M  V30 2737 O 260.72 -6.00295 -0.439281 0
M  V30 2738 H 264.546 -2.93261 0.789416 0
M  V30 2739 H 262.131 -1.42417 0.45142 0
M  V30 2740 H 264.013 -3.96133 -1.43724 0
M  V30 2741 H 262.688 -2.78461 -1.65049 0
M  V30 2742 H 261.595 -3.71089 0.473655 0
M  V30 2743 H 262.928 -4.88484 0.60365 0
M  V30 2744 N 264.58 -0.43555 -1.51462 0
M  V30 2745 C 265.49 0.383001 -2.31453 0
M  V30 2746 C 266.506 1.02931 -1.4029 0
M  V30 2747 O 267.682 1.02507 -1.73362 0
M  V30 2748 C 264.747 1.47043 -3.13973 0
M  V30 2749 C 263.808 0.844433 -4.20913 0
M  V30 2750 C 263.041 1.88004 -4.9949 0
M  V30 2751 O 263.264 3.10199 -4.78678 0
M  V30 2752 O 262.198 1.47157 -5.83634 0
M  V30 2753 H 266.024 -0.269964 -3.02498 0
M  V30 2754 H 263.609 -0.19813 -1.4808 0
M  V30 2755 H 265.491 2.10113 -3.65281 0
M  V30 2756 H 264.166 2.10751 -2.45695 0
M  V30 2757 H 263.073 0.175729 -3.73687 0
M  V30 2758 H 264.406 0.250869 -4.9156 0
M  V30 2759 N 266.058 1.56714 -0.166846 0
M  V30 2760 C 267.005 2.17746 0.765193 0
M  V30 2761 C 267.975 1.11614 1.23011 0
M  V30 2762 O 269.16 1.39745 1.29908 0
M  V30 2763 C 266.3 2.81882 1.9909 0
M  V30 2764 C 265.413 4.02462 1.56997 0
M  V30 2765 C 264.548 4.54537 2.749 0
M  V30 2766 C 263.587 5.67538 2.29275 0
M  V30 2767 N 262.724 6.14142 3.40255 0
M  V30 2768 H 267.564 2.97048 0.237952 0
M  V30 2769 H 265.101 1.4672 0.105725 0
M  V30 2770 H 267.059 3.17221 2.70974 0
M  V30 2771 H 265.689 2.05191 2.49192 0
M  V30 2772 H 264.741 3.72973 0.748037 0
M  V30 2773 H 266.053 4.84273 1.19503 0
M  V30 2774 H 265.207 4.92035 3.54946 0
M  V30 2775 H 263.946 3.71774 3.1565 0
M  V30 2776 H 262.951 5.29597 1.47674 0
M  V30 2777 H 264.176 6.52099 1.89588 0
M  V30 2778 H 262.122 5.3431 3.8059 0
M  V30 2779 H 262.039 6.9093 3.06841 0
M  V30 2780 H 263.307 6.56289 4.206 0
M  V30 2781 N 267.536 -0.106894 1.57237 0
M  V30 2782 C 268.764 -0.826389 1.8968 0
M  V30 2783 C 269.179 -1.72856 0.759353 0
M  V30 2784 O 268.536 -1.80503 -0.269263 0
M  V30 2785 C 268.587 -1.64967 3.21665 0
M  V30 2786 O 268.308 -0.783804 4.31031 0
M  V30 2787 C 269.809 -2.47326 3.67892 0
M  V30 2788 H 267.029 -0.236927 0.627779 0
M  V30 2789 H 269.573 -0.0876593 2.04312 0
M  V30 2790 H 267.728 -2.34103 3.08666 0
M  V30 2791 H 268.142 -1.35284 5.06753 0
M  V30 2792 H 269.616 -3.00604 4.6297 0
M  V30 2793 H 270.093 -3.25247 2.95146 0
M  V30 2794 H 270.699 -1.83411 3.83719 0
M  V30 2795 N 269.014 -1.53014 -0.377408 0
M  V30 2796 C 270.239 -1.72818 -1.14668 0
M  V30 2797 C 270.664 -0.450725 -1.8262 0
M  V30 2798 O 270.022 0.59439 -1.7128 0
M  V30 2799 C 270.07 -2.88627 -2.16164 0
M  V30 2800 O 269.174 -2.56409 -3.22998 0
M  V30 2801 H 268.515 -0.574301 -0.333278 0
M  V30 2802 H 271.045 -1.99853 -0.438152 0
M  V30 2803 H 271.055 -3.14455 -2.59966 0
M  V30 2804 H 269.73 -3.81294 -1.66095 0
M  V30 2805 H 268.307 -2.4136 -2.84253 0
M  V30 2806 N 270.492 0.636531 -1.44174 0
M  V30 2807 C 271.769 1.39463 -1.37148 0
M  V30 2808 C 272.149 2.11082 -0.027507 0
M  V30 2809 O 271.497 2.05954 0.989716 0
M  V30 2810 C 271.707 2.36552 -2.56601 0
M  V30 2811 C 273.055 3.00048 -3.00427 0
M  V30 2812 O 274.079 2.46878 -2.56767 0
M  V30 2813 O 272.938 3.96488 -3.76111 0
M  V30 2814 H 270.032 0.623903 -0.542839 0
M  V30 2815 H 272.578 0.662039 -1.56253 0
M  V30 2816 H 271.35 1.82692 -3.46034 0
M  V30 2817 H 270.973 3.17236 -2.39681 0
M  V30 2818 N 271.97 1.30982 0.876444 0
M  V30 2819 C 273.216 1.21484 1.63136 0
M  V30 2820 C 273.571 -0.226339 1.91064 0
M  V30 2821 O 272.864 -1.15788 1.52656 0
M  V30 2822 C 273.058 1.98572 2.9716 0
M  V30 2823 C 272.887 3.50039 2.82317 0
M  V30 2824 C 271.657 4.19393 2.81847 0
M  V30 2825 C 273.855 4.45111 2.57644 0
M  V30 2826 N 271.837 5.57061 2.57985 0
M  V30 2827 C 273.208 5.70402 2.42986 0
M  V30 2828 C 275.263 4.3461 2.42937 0
M  V30 2829 C 273.966 6.8638 2.15115 0
M  V30 2830 C 275.992 5.50365 2.16454 0
M  V30 2831 C 275.354 6.74642 2.02578 0
M  V30 2832 H 271.453 0.499632 0.601575 0
M  V30 2833 H 274.037 1.65094 1.03209 0
M  V30 2834 H 272.208 1.5734 3.55104 0
M  V30 2835 H 273.94 1.81146 3.61895 0
M  V30 2836 H 270.695 3.71303 2.93991 0
M  V30 2837 H 271.119 6.29529 2.49043 0
M  V30 2838 H 275.761 3.39199 2.52396 0
M  V30 2839 H 273.479 7.81824 2.04394 0
M  V30 2840 H 277.065 5.44154 2.05884 0
M  V30 2841 H 275.945 7.62699 1.82374 0
M  V30 2842 N 273.449 -1.08991 1.13837 0
M  V30 2843 C 274.679 -1.84743 0.924859 0
M  V30 2844 C 275.087 -1.81629 -0.529874 0
M  V30 2845 O 274.43 -1.21397 -1.37872 0
M  V30 2846 C 274.492 -3.33568 1.34061 0
M  V30 2847 C 274.156 -3.60425 2.80968 0
M  V30 2848 C 275.153 -3.55771 3.79108 0
M  V30 2849 C 272.838 -3.88627 3.18236 0
M  V30 2850 C 274.832 -3.78939 5.12527 0
M  V30 2851 C 272.519 -4.11449 4.51833 0
M  V30 2852 C 273.517 -4.06598 5.48787 0
M  V30 2853 O 273.205 -4.28826 6.79973 0
M  V30 2854 H 272.937 -0.590258 0.329502 0
M  V30 2855 H 275.491 -1.38598 1.51591 0
M  V30 2856 H 273.721 -3.80442 0.692853 0
M  V30 2857 H 275.41 -3.90743 1.09886 0
M  V30 2858 H 276.176 -3.34005 3.51661 0
M  V30 2859 H 272.055 -3.91526 2.43369 0
M  V30 2860 H 275.599 -3.75068 5.88192 0
M  V30 2861 H 271.496 -4.32698 4.79002 0
M  V30 2862 H 272.264 -4.46264 6.86142 0
M  V30 2863 N 274.927 -0.932562 -1.27047 0
M  V30 2864 C 275.86 -0.379774 -2.25018 0
M  V30 2865 C 276.838 0.526587 -1.53837 0
M  V30 2866 O 278.022 0.465992 -1.82649 0
M  V30 2867 C 275.149 0.455187 -3.35627 0
M  V30 2868 C 274.195 -0.388428 -4.24728 0
M  V30 2869 S 275.028 -1.80701 -5.04091 0
M  V30 2870 C 276.184 -0.979865 -6.18182 0
M  V30 2871 H 276.417 -1.2101 -2.71558 0
M  V30 2872 H 273.95 -0.735078 -1.35779 0
M  V30 2873 H 275.908 0.931052 -3.99802 0
M  V30 2874 H 274.569 1.26009 -2.87716 0
M  V30 2875 H 273.762 0.25089 -5.03375 0
M  V30 2876 H 273.364 -0.798649 -3.65373 0
M  V30 2877 H 275.656 -0.218115 -6.77149 0
M  V30 2878 H 276.599 -1.73951 -6.86401 0
M  V30 2879 H 277.007 -0.51973 -5.62102 0
M  V30 2880 N 276.405 1.4127 -0.698611 0
M  V30 2881 C 277.353 2.32588 -0.023855 0
M  V30 2882 C 278.347 1.51128 0.765292 0
M  V30 2883 O 279.553 1.67043 0.670571 0
M  V30 2884 H 275.928 0.751918 0.0110871 0
M  V30 2885 H 277.899 2.87167 -0.811031 0
M  V30 2886 C 276.648 3.35947 0.896369 0
M  V30 2887 H 275.971 3.98684 0.298548 0
M  V30 2888 H 277.411 4.02376 1.33676 0
M  V30 2889 C 275.87 2.70076 2.01396 0
M  V30 2890 O 276.4 2.55093 3.10307 0
M  V30 2891 N 274.606 2.28724 1.79259 0
M  V30 2892 H 274.153 2.4111 0.906841 0
M  V30 2893 H 274.111 1.84986 2.54219 0
M  V30 2894 N 277.883 0.443576 1.51229 0
M  V30 2895 C 279.131 -0.120557 2.0174 0
M  V30 2896 C 279.452 -1.42665 1.32935 0
M  V30 2897 O 278.722 -1.9028 0.465866 0
M  V30 2898 H 277.302 -0.0475426 0.745486 0
M  V30 2899 H 279.964 0.587711 1.85828 0
M  V30 2900 H 279.06 -0.291972 3.10731 0
M  V30 2901 N 279.361 -1.56624 0.175154 0
M  V30 2902 C 280.309 -2.19468 -0.770495 0
M  V30 2903 C 281.303 -1.15985 -1.23466 0
M  V30 2904 O 282.509 -1.34176 -1.19987 0
M  V30 2905 H 278.884 -0.703095 -0.266761 0
M  V30 2906 H 280.855 -2.97613 -0.216542 0
M  V30 2907 C 279.604 -2.85264 -1.98796 0
M  V30 2908 H 278.927 -3.64623 -1.63983 0
M  V30 2909 H 280.367 -3.327 -2.62843 0
M  V30 2910 C 278.826 -1.85239 -2.81404 0
M  V30 2911 O 279.356 -1.34024 -3.78682 0
M  V30 2912 N 277.562 -1.53911 -2.46495 0
M  V30 2913 H 277.109 -1.95751 -1.67449 0
M  V30 2914 H 277.067 -0.872382 -3.02054 0
M  V30 2915 N 280.839 0.0985539 -1.57292 0
M  V30 2916 C 282.069 0.815135 -1.8984 0
M  V30 2917 C 282.477 1.7297 -0.766679 0
M  V30 2918 O 281.82 1.81698 0.270483 0
M  V30 2919 C 281.882 1.6842 -3.17608 0
M  V30 2920 C 281.546 0.94182 -4.4719 0
M  V30 2921 C 282.543 0.273212 -5.19182 0
M  V30 2922 C 280.228 0.916927 -4.9386 0
M  V30 2923 C 282.222 -0.410361 -6.36078 0
M  V30 2924 C 279.909 0.229567 -6.10669 0
M  V30 2925 C 280.907 -0.432902 -6.81627 0
M  V30 2926 O 280.595 -1.10925 -7.9621 0
M  V30 2927 H 280.327 0.238501 -0.632529 0
M  V30 2928 H 282.881 0.0812659 -2.05239 0
M  V30 2929 H 281.111 2.46022 -2.98345 0
M  V30 2930 H 282.8 2.27704 -3.36015 0
M  V30 2931 H 283.566 0.283927 -4.84168 0
M  V30 2932 H 279.445 1.42201 -4.3852 0
M  V30 2933 H 282.989 -0.928013 -6.914 0
M  V30 2934 H 278.886 0.216686 -6.45136 0
M  V30 2935 H 279.654 -1.01579 -8.12172 0
M  V30 2936 N 282.317 1.53212 0.369288 0
M  V30 2937 C 283.247 1.82365 1.45826 0
M  V30 2938 C 284.228 0.676907 1.56051 0
M  V30 2939 O 285.413 0.926401 1.70679 0
M  V30 2940 C 282.543 2.01023 2.83208 0
M  V30 2941 C 281.497 3.1678 2.8781 0
M  V30 2942 C 280.823 3.20724 4.27832 0
M  V30 2943 C 282.123 4.55447 2.55667 0
M  V30 2944 H 283.817 2.73559 1.21678 0
M  V30 2945 H 281.363 1.3163 0.583911 0
M  V30 2946 H 283.316 2.20001 3.59413 0
M  V30 2947 H 282.04 1.06536 3.08736 0
M  V30 2948 H 280.699 2.97616 2.14056 0
M  V30 2949 H 280.347 2.23882 4.50429 0
M  V30 2950 H 280.047 3.98496 4.31827 0
M  V30 2951 H 281.571 3.41881 5.05915 0
M  V30 2952 H 282.985 4.74611 3.21586 0
M  V30 2953 H 281.382 5.35432 2.70984 0
M  V30 2954 H 282.452 4.60812 1.5093 0
M  V30 2955 N 283.795 -0.628877 1.44509 0
M  V30 2956 C 285.041 -1.39045 1.47629 0
M  V30 2957 C 285.374 -1.93892 0.109343 0
M  V30 2958 O 284.649 -1.7379 -0.87334 0
M  V30 2959 C 284.932 -2.55408 2.53848 0
M  V30 2960 C 284.785 -2.05896 3.99909 0
M  V30 2961 C 286.104 -3.5759 2.56549 0
M  V30 2962 H 283.223 -0.504232 0.537512 0
M  V30 2963 H 285.865 -0.710854 1.76201 0
M  V30 2964 H 284.015 -3.13384 2.29615 0
M  V30 2965 H 285.687 -1.52734 4.35282 0
M  V30 2966 H 283.93 -1.37061 4.11578 0
M  V30 2967 H 284.601 -2.89681 4.69882 0
M  V30 2968 H 287.077 -3.09419 2.78207 0
M  V30 2969 H 285.953 -4.36527 3.32769 0
M  V30 2970 H 286.214 -4.11808 1.60832 0
M  V30 2971 N 285.273 -1.31445 -0.869486 0
M  V30 2972 C 286.522 -1.20517 -1.61736 0
M  V30 2973 C 286.835 0.235341 -1.94179 0
M  V30 2974 O 288.041 0.466312 -2.67465 0
M  V30 2975 C 286.497 -2.10982 -2.91573 0
M  V30 2976 C 286.105 -3.60032 -2.66611 0
M  V30 2977 C 287.849 -2.08856 -3.69567 0
M  V30 2978 C 285.756 -4.42503 -3.92358 0
M  V30 2979 H 284.686 -0.447493 -0.606849 0
M  V30 2980 H 287.337 -1.56303 -0.96133 0
M  V30 2981 H 285.719 -1.68095 -3.58553 0
M  V30 2982 H 286.893 -4.11167 -2.08035 0
M  V30 2983 H 285.208 -3.64139 -2.0197 0
M  V30 2984 H 287.805 -2.67716 -4.62852 0
M  V30 2985 H 288.148 -1.07582 -4.02159 0
M  V30 2986 H 288.681 -2.49945 -3.09471 0
M  V30 2987 H 285.42 -5.44533 -3.64916 0
M  V30 2988 H 284.94 -3.96125 -4.50383 0
M  V30 2989 H 286.619 -4.54741 -4.60238 0
M  V30 2990 N 286.751 1.08385 -1.14413 0
M  V30 2991 C 287.681 2.17321 -0.854044 0
M  V30 2992 C 288.662 1.69024 0.191049 0
M  V30 2993 O 289.847 1.94141 0.0476779 0
M  V30 2994 C 286.977 3.45719 -0.330983 0
M  V30 2995 C 285.931 4.07409 -1.31155 0
M  V30 2996 C 285.257 5.30762 -0.64778 0
M  V30 2997 C 286.557 4.48665 -2.67388 0
M  V30 2998 H 288.251 2.41845 -1.76498 0
M  V30 2999 H 285.797 1.16233 -0.850051 0
M  V30 3000 H 287.75 4.21241 -0.115645 0
M  V30 3001 H 286.474 3.2075 0.615381 0
M  V30 3002 H 285.133 3.33919 -1.51306 0
M  V30 3003 H 284.781 5.02078 0.304398 0
M  V30 3004 H 284.481 5.72992 -1.30207 0
M  V30 3005 H 286.005 6.08998 -0.441972 0
M  V30 3006 H 287.419 5.15364 -2.51143 0
M  V30 3007 H 285.816 5.01814 -3.29093 0
M  V30 3008 H 286.886 3.60543 -3.24248 0
M  V30 3009 N 288.23 0.939286 1.26551 0
M  V30 3010 C 289.476 0.586715 1.94128 0
M  V30 3011 C 289.809 -0.8717 1.73537 0
M  V30 3012 O 289.084 -1.62339 1.07127 0
M  V30 3013 C 289.367 0.927497 3.4795 0
M  V30 3014 C 289.22 2.44052 3.77834 0
M  V30 3015 C 290.539 0.441569 4.37879 0
M  V30 3016 H 287.658 0.21463 0.705055 0
M  V30 3017 H 290.3 1.17316 1.49455 0
M  V30 3018 H 288.45 0.428431 3.8613 0
M  V30 3019 H 290.122 3.01216 3.4938 0
M  V30 3020 H 288.365 2.8848 3.23978 0
M  V30 3021 H 289.036 2.62947 4.85348 0
M  V30 3022 H 291.512 0.869448 4.06915 0
M  V30 3023 H 290.388 0.708856 5.44304 0
M  V30 3024 H 290.649 -0.658467 4.37169 0
M  V30 3025 N 289.708 -1.40897 0.706093 0
M  V30 3026 C 290.933 -2.05895 0.249435 0
M  V30 3027 C 291.358 -1.52823 -1.09666 0
M  V30 3028 O 290.716 -0.659589 -1.68876 0
M  V30 3029 C 290.764 -3.59872 0.22904 0
M  V30 3030 O 289.868 -4.04708 -0.792784 0
M  V30 3031 H 289.209 -0.653206 0.119241 0
M  V30 3032 H 291.739 -1.80471 0.96391 0
M  V30 3033 H 291.749 -4.07951 0.0634791 0
M  V30 3034 H 290.424 -3.97866 1.21141 0
M  V30 3035 H 289.001 -3.68111 -0.59572 0
M  V30 3036 N 291.186 -0.45159 -1.50991 0
M  V30 3037 C 292.432 0.110237 -2.025 0
M  V30 3038 C 292.765 1.41109 -1.33424 0
M  V30 3039 O 292.04 1.89135 -0.453659 0
M  V30 3040 C 292.323 0.314271 -3.58726 0
M  V30 3041 C 292.176 -1.00623 -4.38401 0
M  V30 3042 C 293.495 1.07767 -4.26702 0
M  V30 3043 H 290.614 0.0385897 -0.735989 0
M  V30 3044 H 293.256 -0.593374 -1.80497 0
M  V30 3045 H 291.406 0.913601 -3.77605 0
M  V30 3046 H 293.078 -1.64064 -4.31139 0
M  V30 3047 H 291.321 -1.6075 -4.02917 0
M  V30 3048 H 291.992 -0.817341 -5.45915 0
M  V30 3049 H 294.468 0.56986 -4.12179 0
M  V30 3050 H 293.344 1.18921 -5.35863 0
M  V30 3051 H 293.605 2.10939 -3.88532 0
M  V30 3052 N 292.664 1.56529 -0.183458 0
M  V30 3053 C 293.892 2.01623 0.464285 0
M  V30 3054 C 294.307 1.06366 1.55986 0
M  V30 3055 O 293.664 0.0665398 1.82379 0
M  V30 3056 C 293.715 3.46475 1.03139 0
M  V30 3057 O 293.436 4.38095 -0.0204675 0
M  V30 3058 C 294.937 4.0703 1.75617 0
M  V30 3059 H 292.157 0.660596 0.117704 0
M  V30 3060 H 294.701 2.02451 -0.288751 0
M  V30 3061 H 292.856 3.46383 1.73486 0
M  V30 3062 H 293.27 5.22973 0.399952 0
M  V30 3063 H 294.744 5.10271 2.10542 0
M  V30 3064 H 295.221 3.49819 2.65563 0
M  V30 3065 H 295.827 4.1086 1.09882 0
M  V30 3066 N 294.142 -0.090211 1.57342 0
M  V30 3067 C 295.391 -0.791531 1.8552 0
M  V30 3068 C 295.704 -1.79659 0.773441 0
M  V30 3069 O 296.91 -2.54616 0.942497 0
M  V30 3070 C 295.366 -1.45856 3.2902 0
M  V30 3071 C 294.974 -0.493017 4.45279 0
M  V30 3072 C 296.718 -2.14332 3.66418 0
M  V30 3073 C 294.625 -1.16491 5.79814 0
M  V30 3074 H 293.555 -0.299356 0.692027 0
M  V30 3075 H 296.206 -0.0445343 1.83446 0
M  V30 3076 H 294.588 -2.25318 3.2565 0
M  V30 3077 H 295.762 0.270464 4.60006 0
M  V30 3078 H 294.077 0.0863061 4.16311 0
M  V30 3079 H 296.674 -2.65344 4.64216 0
M  V30 3080 H 297.017 -2.93447 2.95287 0
M  V30 3081 H 297.55 -1.41724 3.71698 0
M  V30 3082 H 294.289 -0.41447 6.54188 0
M  V30 3083 H 293.809 -1.8997 5.68921 0
M  V30 3084 H 295.488 -1.69001 6.24538 0
M  V30 3085 N 295.62 -1.53406 -0.361157 0
M  V30 3086 C 296.869 -1.69022 -1.10066 0
M  V30 3087 C 297.182 -0.450838 -1.90333 0
M  V30 3088 O 298.388 -0.487617 -2.67085 0
M  V30 3089 C 296.844 -2.98812 -2.00598 0
M  V30 3090 C 296.452 -4.30027 -1.25621 0
M  V30 3091 C 298.196 -3.23795 -2.74513 0
M  V30 3092 C 296.103 -5.50903 -2.1508 0
M  V30 3093 H 295.033 -0.629776 -0.414606 0
M  V30 3094 H 297.684 -1.79907 -0.361348 0
M  V30 3095 H 296.066 -2.8174 -2.78278 0
M  V30 3096 H 297.24 -4.57745 -0.529739 0
M  V30 3097 H 295.555 -4.11522 -0.635496 0
M  V30 3098 H 298.152 -4.11289 -3.41681 0
M  V30 3099 H 298.495 -2.40045 -3.40123 0
M  V30 3100 H 299.028 -3.41561 -2.03914 0
M  V30 3101 H 295.767 -6.37143 -1.54041 0
M  V30 3102 H 295.287 -5.27459 -2.85565 0
M  V30 3103 H 296.966 -5.85865 -2.74538 0
M  V30 3104 N 297.098 0.621204 -1.44841 0
M  V30 3105 C 298.028 1.74366 -1.55303 0
M  V30 3106 C 299.009 1.65199 -0.405385 0
M  V30 3107 O 300.194 1.83807 -0.626787 0
M  V30 3108 C 297.324 3.12931 -1.50637 0
M  V30 3109 C 296.278 3.36896 -2.63979 0
M  V30 3110 C 295.604 4.75594 -2.44366 0
M  V30 3111 C 296.904 3.28483 -4.06074 0
M  V30 3112 H 298.598 1.65867 -2.49256 0
M  V30 3113 H 296.144 0.796558 -1.19962 0
M  V30 3114 H 298.097 3.9124 -1.56555 0
M  V30 3115 H 296.821 3.22237 -0.532057 0
M  V30 3116 H 295.48 2.60972 -2.57467 0
M  V30 3117 H 295.128 4.81616 -1.45105 0
M  V30 3118 H 294.828 4.92586 -3.20364 0
M  V30 3119 H 296.352 5.5612 -2.52117 0
M  V30 3120 H 297.766 3.96684 -4.13902 0
M  V30 3121 H 296.163 3.57008 -4.82354 0
M  V30 3122 H 297.233 2.26133 -4.28943 0
M  V30 3123 N 298.576 1.31904 0.862503 0
M  V30 3124 C 299.987 1.19803 1.43193 0
M  V30 3125 C 300.338 -0.192567 1.95253 0
M  V30 3126 O 299.463 -1.09081 1.86896 0
M  V30 3127 C 300.058 2.16883 2.60283 0
M  V30 3128 C 298.617 2.08692 3.13248 0
M  V30 3129 C 297.764 2.05691 1.85975 0
M  V30 3130 H 300.715 1.43846 0.670365 0
M  V30 3131 H 300.736 1.76278 3.37204 0
M  V30 3132 H 300.248 3.18083 2.22363 0
M  V30 3133 H 298.349 1.10713 3.55771 0
M  V30 3134 H 298.462 2.9815 3.75025 0
M  V30 3135 H 296.826 1.50814 2.05249 0
M  V30 3136 H 297.609 3.08659 1.50282 0
M  V30 3137 N 300.054 -1.07777 1.14986 0
M  V30 3138 C 300.984 -2.16865 0.865557 0
M  V30 3139 C 301.965 -1.69123 -0.182083 0
M  V30 3140 O 303.15 -1.94164 -0.0373815 0
M  V30 3141 C 300.28 -3.45539 0.349313 0
M  V30 3142 C 299.234 -4.06708 1.33313 0
M  V30 3143 C 298.56 -5.30411 0.675918 0
M  V30 3144 C 299.86 -4.47241 2.69764 0
M  V30 3145 H 301.554 -2.40905 1.77778 0
M  V30 3146 H 299.1 -1.15781 0.856203 0
M  V30 3147 H 301.053 -4.21174 0.137983 0
M  V30 3148 H 299.777 -3.21072 -0.598362 0
M  V30 3149 H 298.436 -3.33112 1.53075 0
M  V30 3150 H 298.084 -5.02232 -0.277767 0
M  V30 3151 H 297.784 -5.72293 1.33244 0
M  V30 3152 H 299.308 -6.08755 0.474262 0
M  V30 3153 H 300.722 -5.14025 2.53873 0
M  V30 3154 H 299.119 -5.00062 3.3175 0
M  V30 3155 H 300.189 -3.58818 3.26156 0
M  V30 3156 N 301.532 -0.945985 -1.26051 0
M  V30 3157 C 302.495 -0.463897 -2.24456 0
M  V30 3158 C 303.495 0.427655 -1.55009 0
M  V30 3159 O 304.685 0.226157 -1.72726 0
M  V30 3160 C 301.817 0.330812 -3.39291 0
M  V30 3161 H 303.01 -1.33357 -2.68619 0
M  V30 3162 H 300.563 -0.728416 -1.38289 0
M  V30 3163 H 301.298 1.21852 -3.00537 0
M  V30 3164 H 301.083 -0.308679 -3.90883 0
M  V30 3165 H 302.573 0.657865 -4.12386 0
M  V30 3166 N 303.011 1.40521 -0.713556 0
M  V30 3167 C 303.941 2.33381 -0.0743864 0
M  V30 3168 C 304.922 1.52784 0.747735 0
M  V30 3169 O 306.107 1.81258 0.697071 0
M  V30 3170 C 303.237 3.36748 0.849598 0
M  V30 3171 C 302.191 4.27793 0.133247 0
M  V30 3172 C 301.517 5.21679 1.17281 0
M  V30 3173 C 302.817 5.12415 -1.01134 0
M  V30 3174 H 304.511 2.87081 -0.850007 0
M  V30 3175 H 302.057 1.38034 -0.410201 0
M  V30 3176 H 304.01 4.00648 1.30612 0
M  V30 3177 H 302.734 2.81439 1.65709 0
M  V30 3178 H 301.393 3.65342 -0.303426 0
M  V30 3179 H 301.041 4.62677 1.9733 0
M  V30 3180 H 300.741 5.83435 0.698397 0
M  V30 3181 H 302.265 5.88456 1.62947 0
M  V30 3182 H 303.679 5.69781 -0.634274 0
M  V30 3183 H 302.076 5.83203 -1.41399 0
M  V30 3184 H 303.146 4.48514 -1.84292 0
M  V30 3185 N 304.489 0.459591 1.5075 0
M  V30 3186 C 305.422 -0.386257 2.24907 0
M  V30 3187 C 306.4 -1.006 1.27744 0
M  V30 3188 O 307.584 -1.04416 1.56938 0
M  V30 3189 C 304.711 -1.54021 3.01654 0
M  V30 3190 C 303.757 -1.03898 4.13651 0
M  V30 3191 S 304.59 0.0370501 5.35487 0
M  V30 3192 C 305.746 -1.12105 6.15779 0
M  V30 3193 H 305.979 0.243272 2.96303 0
M  V30 3194 H 303.512 0.244339 1.52454 0
M  V30 3195 H 305.47 -2.20163 3.46466 0
M  V30 3196 H 304.131 -2.14121 2.29806 0
M  V30 3197 H 303.324 -1.90254 4.66711 0
M  V30 3198 H 302.926 -0.45545 3.71216 0
M  V30 3199 H 305.218 -2.03501 6.46215 0
M  V30 3200 H 306.161 -0.62995 7.05292 0
M  V30 3201 H 306.569 -1.36967 5.47631 0
M  V30 3202 N 305.967 -1.56429 0.191757 0
M  V30 3203 C 307.383 -1.58754 -0.164137 0
M  V30 3204 C 307.583 -1.20782 -1.61288 0
M  V30 3205 O 306.639 -0.928999 -2.34789 0
M  V30 3206 C 307.952 -3.00396 0.135195 0
M  V30 3207 C 309.5 -3.1291 0.0750351 0
M  V30 3208 C 309.975 -4.56679 0.347632 0
M  V30 3209 N 311.466 -4.62252 0.296131 0
M  V30 3210 C 312.201 -5.71379 0.480948 0
M  V30 3211 N 311.697 -6.88986 0.725933 0
M  V30 3212 N 313.49 -5.60563 0.415435 0
M  V30 3213 H 305.641 -1.79393 1.13718 0
M  V30 3214 H 307.904 -0.832414 0.453643 0
M  V30 3215 H 307.61 -3.32726 1.13958 0
M  V30 3216 H 307.484 -3.72963 -0.563773 0
M  V30 3217 H 309.871 -2.80394 -0.919948 0
M  V30 3218 H 309.952 -2.42736 0.807029 0
M  V30 3219 H 309.596 -4.89907 1.33992 0
M  V30 3220 H 309.526 -5.25039 -0.405212 0
M  V30 3221 H 312.017 -3.7773 0.113259 0
M  V30 3222 H 312.33 -7.68046 0.855857 0
M  V30 3223 H 310.675 -6.90801 0.762788 0
M  V30 3224 H 313.866 -4.67561 0.224486 0
M  V30 3225 H 314.039 -6.45551 0.562889 0
M  V30 3226 N 307.445 0.0818655 -1.57387 0
M  V30 3227 C 308.377 1.12484 -1.997 0
M  V30 3228 C 309.39 1.35564 -0.90146 0
M  V30 3229 O 310.579 1.33982 -1.17945 0
M  V30 3230 C 307.679 2.47778 -2.31213 0
M  V30 3231 C 306.852 2.44793 -3.62485 0
M  V30 3232 C 305.911 3.62117 -3.81782 0
M  V30 3233 O 304.937 3.44005 -4.53486 0
M  V30 3234 N 306.139 4.82094 -3.23367 0
M  V30 3235 H 308.904 0.764585 -2.89783 0
M  V30 3236 H 306.465 0.270664 -1.59621 0
M  V30 3237 H 308.457 3.24891 -2.41304 0
M  V30 3238 H 307.027 2.75843 -1.4707 0
M  V30 3239 H 306.247 1.53134 -3.6324 0
M  V30 3240 H 307.535 2.39889 -4.48699 0
M  V30 3241 H 306.933 4.99713 -2.65148 0
M  V30 3242 H 305.49 5.56753 -3.38923 0
M  V30 3243 N 308.923 1.53595 0.353017 0
M  V30 3244 C 309.853 1.83902 1.43883 0
M  V30 3245 C 310.834 0.693421 1.55324 0
M  V30 3246 O 312.019 0.944452 1.69687 0
M  V30 3247 C 309.149 2.04016 2.8106 0
M  V30 3248 C 308.103 3.19814 2.84434 0
M  V30 3249 C 307.429 3.25244 4.24406 0
M  V30 3250 C 308.729 4.58133 2.50822 0
M  V30 3251 H 310.423 2.74835 1.1877 0
M  V30 3252 H 307.969 1.32242 0.569917 0
M  V30 3253 H 309.922 2.238 3.57059 0
M  V30 3254 H 308.646 1.09804 3.07588 0
M  V30 3255 H 307.305 2.9987 2.10887 0
M  V30 3256 H 306.953 2.28646 4.48029 0
M  V30 3257 H 306.653 4.03054 4.27576 0
M  V30 3258 H 308.177 3.47228 5.0226 0
M  V30 3259 H 309.591 4.77995 3.16534 0
M  V30 3260 H 307.988 5.38276 2.6529 0
M  V30 3261 H 309.058 4.62387 1.46034 0
M  V30 3262 N 310.401 -0.613514 1.45168 0
M  V30 3263 C 311.649 -1.36997 1.48581 0
M  V30 3264 C 311.97 -1.94589 0.126545 0
M  V30 3265 O 311.24 -1.76816 -0.843372 0
M  V30 3266 H 309.82 -0.508558 0.547154 0
M  V30 3267 H 312.482 -0.720853 1.81079 0
M  V30 3268 H 311.578 -2.1924 2.22127 0
M  V30 3269 N 311.879 -1.3236 -0.855495 0
M  V30 3270 C 313.109 -1.25688 -1.6397 0
M  V30 3271 C 313.517 0.177592 -1.88365 0
M  V30 3272 O 312.86 1.12485 -1.45234 0
M  V30 3273 C 312.922 -1.94602 -3.02275 0
M  V30 3274 C 312.586 -3.43937 -3.00926 0
M  V30 3275 C 313.583 -4.39435 -2.77835 0
M  V30 3276 C 311.268 -3.85858 -3.21588 0
M  V30 3277 C 313.262 -5.74829 -2.75409 0
M  V30 3278 C 310.949 -5.21361 -3.18789 0
M  V30 3279 C 311.947 -6.15658 -2.95727 0
M  V30 3280 O 311.635 -7.48681 -2.928 0
M  V30 3281 H 311.367 -0.434972 -0.51747 0
M  V30 3282 H 313.921 -1.75023 -1.075 0
M  V30 3283 H 312.151 -1.39836 -3.60531 0
M  V30 3284 H 313.84 -1.81651 -3.62985 0
M  V30 3285 H 314.606 -4.08374 -2.6164 0
M  V30 3286 H 310.485 -3.12883 -3.38564 0
M  V30 3287 H 314.029 -6.48404 -2.57328 0
M  V30 3288 H 309.926 -5.52052 -3.34528 0
M  V30 3289 H 310.694 -7.5803 -3.0876 0
M  V30 3290 N 313.357 1.07166 -1.15556 0
M  V30 3291 C 314.287 2.16403 -0.877046 0
M  V30 3292 C 315.268 1.69217 0.173111 0
M  V30 3293 O 316.453 1.94181 0.027084 0
M  V30 3294 C 313.583 3.45349 -0.367632 0
M  V30 3295 C 312.537 4.05995 -1.35468 0
M  V30 3296 C 311.863 5.30045 -0.704038 0
M  V30 3297 C 313.163 4.45804 -2.72132 0
M  V30 3298 H 314.857 2.39959 -1.79053 0
M  V30 3299 H 312.403 1.15325 -0.862331 0
M  V30 3300 H 314.356 4.21095 -0.160317 0
M  V30 3301 H 313.08 3.21385 0.581326 0
M  V30 3302 H 311.739 3.32296 -1.54839 0
M  V30 3303 H 311.387 5.02373 0.251128 0
M  V30 3304 H 311.087 5.71579 -1.36277 0
M  V30 3305 H 312.611 6.08495 -0.50654 0
M  V30 3306 H 314.025 5.12671 -2.56595 0
M  V30 3307 H 312.422 4.98296 -3.34397 0
M  V30 3308 H 313.492 3.57083 -3.28054 0
M  V30 3309 N 314.835 0.952656 1.25548 0
M  V30 3310 C 316.083 0.605176 1.92826 0
M  V30 3311 C 316.404 -0.860261 1.74999 0
M  V30 3312 O 315.674 -1.6125 1.11244 0
M  V30 3313 H 314.254 0.220832 0.713612 0
M  V30 3314 H 316.916 1.21047 1.52754 0
M  V30 3315 H 316.012 0.832798 3.00784 0
M  V30 3316 N 316.313 -1.40141 0.720998 0
M  V30 3317 C 317.543 -2.04798 0.27226 0
M  V30 3318 C 317.951 -1.54442 -1.09289 0
M  V30 3319 O 317.294 -0.698342 -1.69908 0
M  V30 3320 C 317.356 -3.59048 0.18027 0
M  V30 3321 C 317.02 -4.32317 1.48159 0
M  V30 3322 C 318.017 -4.59902 2.42458 0
M  V30 3323 C 315.702 -4.71125 1.74202 0
M  V30 3324 C 317.696 -5.25288 3.61042 0
M  V30 3325 C 315.383 -5.36242 2.93066 0
M  V30 3326 C 316.381 -5.63254 3.86308 0
M  V30 3327 O 316.069 -6.27024 5.03086 0
M  V30 3328 H 315.801 -0.665419 0.119139 0
M  V30 3329 H 318.355 -1.80436 0.981432 0
M  V30 3330 H 316.585 -3.82251 -0.58489 0
M  V30 3331 H 318.274 -4.05221 -0.234618 0
M  V30 3332 H 319.04 -4.30379 2.23604 0
M  V30 3333 H 314.919 -4.49466 1.02477 0
M  V30 3334 H 318.463 -5.46289 4.33837 0
M  V30 3335 H 314.36 -5.65185 3.11826 0
M  V30 3336 H 315.128 -6.4552 5.03235 0
M  V30 3337 N 317.792 -0.46758 -1.50504 0
M  V30 3338 C 319.017 0.0886943 -2.0721 0
M  V30 3339 C 319.442 1.33057 -1.32956 0
M  V30 3340 O 318.8 1.77354 -0.376197 0
M  V30 3341 C 318.848 0.359202 -3.58806 0
M  V30 3342 O 317.952 1.44034 -3.8643 0
M  V30 3343 H 317.293 -0.0114349 -0.663902 0
M  V30 3344 H 319.823 -0.657613 -1.93744 0
M  V30 3345 H 319.833 0.600742 -4.03553 0
M  V30 3346 H 318.508 -0.548311 -4.1227 0
M  V30 3347 H 317.085 1.18638 -3.53524 0
M  V30 3348 N 319.27 1.56325 -0.20005 0
M  V30 3349 C 320.495 2.02548 0.44597 0
M  V30 3350 C 320.92 1.07922 1.5406 0
M  V30 3351 O 320.278 0.0635775 1.81188 0
M  V30 3352 C 320.326 3.47175 0.974761 0
M  V30 3353 O 319.43 3.55671 2.08739 0
M  V30 3354 H 318.771 0.655862 0.103638 0
M  V30 3355 H 321.301 2.02201 -0.312381 0
M  V30 3356 H 321.311 3.87067 1.2901 0
M  V30 3357 H 319.986 4.15538 0.17347 0
M  V30 3358 H 318.563 3.27657 1.78032 0
M  V30 3359 N 320.748 -0.0735177 1.57428 0
M  V30 3360 C 321.996 -0.771472 1.86796 0
M  V30 3361 C 322.317 -1.78201 0.791804 0
M  V30 3362 O 321.587 -1.95074 -0.179718 0
M  V30 3363 H 320.167 -0.28791 0.689287 0
M  V30 3364 H 322.829 -0.0500161 1.94836 0
M  V30 3365 H 321.925 -1.28874 2.8425 0
M  V30 3366 N 322.226 -1.5378 -0.344866 0
M  V30 3367 C 323.473 -1.70963 -1.08526 0
M  V30 3368 C 323.801 -0.472126 -1.88683 0
M  V30 3369 O 323.056 0.546116 -1.87926 0
M  V30 3370 C 323.355 -2.92407 -2.05506 0
M  V30 3371 C 323.021 -4.28066 -1.41671 0
M  V30 3372 C 321.683 -4.64951 -1.2399 0
M  V30 3373 C 324.035 -5.12344 -0.956726 0
M  V30 3374 C 321.363 -5.83733 -0.589277 0
M  V30 3375 C 323.715 -6.3179 -0.320015 0
M  V30 3376 C 322.379 -6.67372 -0.130881 0
M  V30 3377 H 321.649 -0.625598 -0.397124 0
M  V30 3378 H 324.296 -1.87995 -0.36469 0
M  V30 3379 H 322.601 -2.69973 -2.8394 0
M  V30 3380 H 324.298 -3.02895 -2.62784 0
M  V30 3381 H 320.888 -3.99034 -1.56429 0
M  V30 3382 H 325.072 -4.8438 -1.08118 0
M  V30 3383 H 320.328 -6.09877 -0.431344 0
M  V30 3384 H 324.502 -6.96386 0.0445072 0
M  V30 3385 H 322.129 -7.59273 0.375318 0
M  V30 3386 N 323.704 0.605807 -1.45491 0
M  V30 3387 C 324.929 1.39625 -1.53361 0
M  V30 3388 C 325.354 1.87351 -0.167645 0
M  V30 3389 O 324.712 1.60243 0.848051 0
M  V30 3390 C 324.76 2.57559 -2.5238 0
M  V30 3391 O 323.864 3.58248 -2.04285 0
M  V30 3392 H 323.205 0.416771 -0.516912 0
M  V30 3393 H 325.735 0.737103 -1.90861 0
M  V30 3394 H 325.745 3.0478 -2.71244 0
M  V30 3395 H 324.42 2.22171 -3.51586 0
M  V30 3396 H 322.997 3.17664 -1.95305 0
M  V30 3397 N 325.182 1.32811 0.848464 0
M  V30 3398 C 326.112 1.24882 1.97299 0
M  V30 3399 C 327.093 0.131357 1.69592 0
M  V30 3400 O 328.278 0.319553 1.91553 0
M  V30 3401 C 325.408 0.97746 3.33261 0
M  V30 3402 C 324.362 2.05682 3.75338 0
M  V30 3403 C 323.688 1.63777 5.09 0
M  V30 3404 C 324.988 3.47254 3.90144 0
M  V30 3405 H 326.682 2.18966 2.04191 0
M  V30 3406 H 324.228 1.05413 0.981029 0
M  V30 3407 H 326.181 0.908513 4.1149 0
M  V30 3408 H 324.905 0.000980011 3.266 0
M  V30 3409 H 323.564 2.11603 2.99366 0
M  V30 3410 H 323.212 0.648569 4.98801 0
M  V30 3411 H 322.912 2.36 5.38124 0
M  V30 3412 H 324.436 1.5833 5.89715 0
M  V30 3413 H 325.85 3.43888 4.58709 0
M  V30 3414 H 324.247 4.1788 4.30693 0
M  V30 3415 H 325.317 3.86462 2.92874 0
M  V30 3416 N 326.66 -1.06551 1.16123 0
M  V30 3417 C 327.885 -1.83544 0.965735 0
M  V30 3418 C 328.31 -1.81843 -0.481102 0
M  V30 3419 O 327.668 -1.21732 -1.34354 0
M  V30 3420 C 327.716 -3.28169 1.49457 0
M  V30 3421 O 326.82 -4.0643 0.699157 0
M  V30 3422 H 326.161 -0.568026 0.343864 0
M  V30 3423 H 328.691 -1.34362 1.54299 0
M  V30 3424 H 328.701 -3.78992 1.51092 0
M  V30 3425 H 327.376 -3.28722 2.54784 0
M  V30 3426 H 325.953 -3.65216 0.7531 0
M  V30 3427 N 328.138 -0.959301 -1.25041 0
M  V30 3428 C 329.378 -0.624343 -1.94631 0
M  V30 3429 C 329.742 0.82403 -1.73418 0
M  V30 3430 O 330.943 1.26881 -2.3697 0
M  V30 3431 C 329.214 -0.978805 -3.43736 0
M  V30 3432 S 330.773 -0.757127 -4.32219 0
M  V30 3433 H 327.591 -0.229327 -0.673001 0
M  V30 3434 H 330.193 -1.23447 -1.51595 0
M  V30 3435 H 328.897 -2.02997 -3.56679 0
M  V30 3436 H 328.428 -0.359117 -3.91757 0
M  V30 3437 H 330.443 0.369759 -4.9482 0
M  V30 3438 N 329.616 1.39756 -0.72842 0
M  V30 3439 C 330.549 2.28176 -0.0330172 0
M  V30 3440 C 331.527 1.44035 0.754501 0
M  V30 3441 O 332.711 1.73434 0.738445 0
M  V30 3442 C 329.838 3.24795 0.960504 0
M  V30 3443 C 328.884 4.25693 0.262264 0
M  V30 3444 S 329.717 5.25714 -1.01906 0
M  V30 3445 C 330.873 6.25894 -0.0279717 0
M  V30 3446 H 331.106 2.86807 -0.78287 0
M  V30 3447 H 328.639 1.45382 -0.519951 0
M  V30 3448 H 330.597 3.80983 1.52846 0
M  V30 3449 H 329.258 2.65196 1.68315 0
M  V30 3450 H 328.451 4.93699 1.01379 0
M  V30 3451 H 328.053 3.7327 -0.233482 0
M  V30 3452 H 330.345 6.72585 0.814621 0
M  V30 3453 H 331.288 7.04876 -0.67499 0
M  V30 3454 H 331.696 5.63466 0.341489 0
M  V30 3455 N 331.094 0.475555 1.50254 0
M  V30 3456 C 332.34 -0.0780073 2.0265 0
M  V30 3457 C 332.673 -1.38968 1.35652 0
M  V30 3458 O 331.948 -1.8839 0.483691 0
M  V30 3459 C 332.231 -0.257161 3.59181 0
M  V30 3460 C 332.084 1.07585 4.36744 0
M  V30 3461 C 333.403 -1.00965 4.28362 0
M  V30 3462 H 330.522 -0.0268758 0.73651 0
M  V30 3463 H 333.164 0.622015 1.7953 0
M  V30 3464 H 331.314 -0.853412 3.79011 0
M  V30 3465 H 332.986 1.70902 4.28474 0
M  V30 3466 H 331.229 1.6714 4.00308 0
M  V30 3467 H 331.9 0.904088 5.44546 0
M  V30 3468 H 334.376 -0.504214 4.13034 0
M  V30 3469 H 333.252 -1.10381 5.37687 0
M  V30 3470 H 333.513 -2.04731 3.91839 0
M  V30 3471 N 332.573 -1.56217 0.208337 0
M  V30 3472 C 333.82 -1.97949 -0.42692 0
M  V30 3473 C 334.148 -1.09562 -1.60706 0
M  V30 3474 O 333.403 -0.137616 -1.95216 0
M  V30 3475 C 333.702 -3.45441 -0.916797 0
M  V30 3476 C 333.368 -4.50646 0.151391 0
M  V30 3477 C 332.03 -4.79139 0.444867 0
M  V30 3478 C 334.382 -5.13811 0.874492 0
M  V30 3479 C 331.71 -5.68084 1.46619 0
M  V30 3480 C 334.062 -6.03861 1.88506 0
M  V30 3481 C 332.726 -6.30704 2.18559 0
M  V30 3482 H 331.996 -0.724345 -0.156221 0
M  V30 3483 H 334.643 -1.89006 0.308084 0
M  V30 3484 H 332.948 -3.51521 -1.73032 0
M  V30 3485 H 334.645 -3.75094 -1.41794 0
M  V30 3486 H 331.235 -4.28511 -0.0875068 0
M  V30 3487 H 335.419 -4.91879 0.660996 0
M  V30 3488 H 330.675 -5.87151 1.7048 0
M  V30 3489 H 334.849 -6.51861 2.45051 0
M  V30 3490 H 332.476 -6.99424 2.97843 0
M  V30 3491 N 334.051 0.0651679 -1.57465 0
M  V30 3492 C 335.298 0.763063 -1.87573 0
M  V30 3493 C 335.626 1.77242 -0.800961 0
M  V30 3494 O 334.881 1.94651 0.202316 0
M  V30 3495 C 335.18 1.50081 -3.24362 0
M  V30 3496 C 334.846 0.630816 -4.46466 0
M  V30 3497 C 333.508 0.391082 -4.79608 0
M  V30 3498 C 335.86 0.0279465 -5.21193 0
M  V30 3499 C 333.188 -0.460894 -5.84887 0
M  V30 3500 C 335.54 -0.811522 -6.27373 0
M  V30 3501 C 334.204 -1.06106 -6.59013 0
M  V30 3502 H 333.474 0.279224 -0.686378 0
M  V30 3503 H 336.121 0.0236726 -1.91485 0
M  V30 3504 H 334.426 2.31258 -3.16271 0
M  V30 3505 H 336.123 2.04571 -3.44894 0
M  V30 3506 H 332.713 0.8278 -4.2053 0
M  V30 3507 H 336.897 0.200262 -4.95896 0
M  V30 3508 H 332.153 -0.662907 -6.07796 0
M  V30 3509 H 336.327 -1.28537 -6.84435 0
M  V30 3510 H 333.954 -1.723 -7.40417 0
M  V30 3511 N 335.529 1.53961 0.336706 0
M  V30 3512 C 336.459 1.85417 1.41925 0
M  V30 3513 C 337.44 0.709856 1.5458 0
M  V30 3514 O 338.625 0.962396 1.68676 0
M  V30 3515 C 335.755 2.06985 2.78881 0
M  V30 3516 C 334.709 3.22813 2.81026 0
M  V30 3517 C 334.035 3.29727 4.20932 0
M  V30 3518 C 335.335 4.60767 2.45949 0
M  V30 3519 H 337.029 2.76079 1.15848 0
M  V30 3520 H 334.575 1.32839 0.555859 0
M  V30 3521 H 336.528 2.27575 3.54665 0
M  V30 3522 H 335.252 1.13061 3.06406 0
M  V30 3523 H 333.911 3.0209 2.07695 0
M  V30 3524 H 333.559 2.33385 4.45579 0
M  V30 3525 H 333.259 4.07566 4.23277 0
M  V30 3526 H 334.783 3.52536 4.98549 0
M  V30 3527 H 336.197 4.81325 3.11446 0
M  V30 3528 H 334.594 5.4106 2.59566 0
M  V30 3529 H 335.664 4.6391 1.41122 0
M  V30 3530 N 337.007 -0.598083 1.45811 0
M  V30 3531 C 338.256 -1.35295 1.49594 0
M  V30 3532 C 338.569 -1.95057 0.145679 0
M  V30 3533 O 339.775 -2.71431 0.0612099 0
M  V30 3534 C 338.231 -2.45124 2.63519 0
M  V30 3535 C 337.839 -1.91732 4.04899 0
M  V30 3536 C 339.583 -3.2205 2.76558 0
M  V30 3537 C 337.49 -2.991 5.1019 0
M  V30 3538 H 336.42 -0.508552 0.556679 0
M  V30 3539 H 339.071 -0.639977 1.71978 0
M  V30 3540 H 337.453 -3.19149 2.34435 0
M  V30 3541 H 338.627 -1.24352 4.43704 0
M  V30 3542 H 336.942 -1.27522 3.96393 0
M  V30 3543 H 339.539 -4.0215 3.52391 0
M  V30 3544 H 339.882 -3.73663 1.83526 0
M  V30 3545 H 340.415 -2.55127 3.05213 0
M  V30 3546 H 337.154 -2.52393 6.04961 0
M  V30 3547 H 336.674 -3.65017 4.75944 0
M  V30 3548 H 338.353 -3.63318 5.35359 0
M  V30 3549 N 338.485 -1.33259 -0.841409 0
M  V30 3550 C 339.448 -1.23221 -1.9326 0
M  V30 3551 C 340.448 -0.151895 -1.60081 0
M  V30 3552 O 341.638 -0.403246 -1.69468 0
M  V30 3553 C 338.77 -0.898123 -3.28856 0
M  V30 3554 H 339.963 -2.2021 -2.03587 0
M  V30 3555 H 337.516 -1.17281 -1.03319 0
M  V30 3556 H 338.251 0.0693841 -3.24226 0
M  V30 3557 H 338.036 -1.67934 -3.54317 0
M  V30 3558 H 339.526 -0.852563 -4.08805 0
M  V30 3559 N 339.963 1.05934 -1.16686 0
M  V30 3560 C 341.209 1.79065 -0.95203 0
M  V30 3561 C 341.542 1.87147 0.518629 0
M  V30 3562 O 340.817 1.36574 1.38484 0
M  V30 3563 C 341.1 3.23359 -1.58464 0
M  V30 3564 C 340.953 3.23336 -3.12689 0
M  V30 3565 C 342.272 4.21004 -1.28232 0
M  V30 3566 H 339.391 0.65005 -0.34728 0
M  V30 3567 H 342.033 1.23868 -1.44072 0
M  V30 3568 H 340.183 3.70493 -1.16908 0
M  V30 3569 H 341.855 2.84336 -3.6325 0
M  V30 3570 H 340.098 2.61886 -3.4583 0
M  V30 3571 H 340.769 4.25144 -3.52075 0
M  V30 3572 H 343.245 3.8233 -1.64203 0
M  V30 3573 H 342.121 5.20225 -1.75092 0
M  V30 3574 H 342.382 4.41639 -0.201791 0
M  V30 3575 N 341.441 0.965919 1.2453 0
M  V30 3576 C 342.69 0.622437 1.91856 0
M  V30 3577 C 343.003 -0.846006 1.76358 0
M  V30 3578 O 344.209 -1.29993 2.38357 0
M  V30 3579 C 342.665 1.0626 3.43856 0
M  V30 3580 C 342.273 2.55437 3.68043 0
M  V30 3581 C 344.017 0.792183 4.17043 0
M  V30 3582 C 341.924 2.93196 5.13605 0
M  V30 3583 H 340.854 0.229092 0.718354 0
M  V30 3584 H 343.505 1.17189 1.41206 0
M  V30 3585 H 341.887 0.441476 3.93531 0
M  V30 3586 H 343.061 3.22665 3.28974 0
M  V30 3587 H 341.376 2.8007 3.08139 0
M  V30 3588 H 343.973 1.05031 5.24283 0
M  V30 3589 H 344.316 -0.271584 4.15413 0
M  V30 3590 H 344.849 1.37419 3.73311 0
M  V30 3591 H 341.588 3.98636 5.20355 0
M  V30 3592 H 341.108 2.30651 5.53679 0
M  V30 3593 H 342.787 2.83004 5.81823 0
M  V30 3594 N 342.919 -1.39368 0.735821 0
M  V30 3595 C 344.149 -2.04498 0.293967 0
M  V30 3596 C 344.557 -1.55593 -1.07645 0
M  V30 3597 O 343.9 -0.716324 -1.69158 0
M  V30 3598 C 343.962 -3.58836 0.218342 0
M  V30 3599 C 343.626 -4.30721 1.52736 0
M  V30 3600 C 344.623 -4.57305 2.47322 0
M  V30 3601 C 342.308 -4.69251 1.79189 0
M  V30 3602 C 344.302 -5.21429 3.66593 0
M  V30 3603 C 341.989 -5.33104 2.98737 0
M  V30 3604 C 342.987 -5.59125 3.9226 0
M  V30 3605 O 342.675 -6.21653 5.09708 0
M  V30 3606 H 342.407 -0.664118 0.126189 0
M  V30 3607 H 344.961 -1.79385 1.00051 0
M  V30 3608 H 343.191 -3.8285 -0.544314 0
M  V30 3609 H 344.88 -4.05447 -0.191626 0
M  V30 3610 H 345.646 -4.27983 2.28156 0
M  V30 3611 H 341.525 -4.48354 1.07239 0
M  V30 3612 H 345.069 -5.41656 4.39607 0
M  V30 3613 H 340.966 -5.61846 3.17803 0
M  V30 3614 H 341.734 -6.40146 5.10054 0
M  V30 3615 N 344.397 -0.483516 -1.5 0
M  V30 3616 C 345.344 0.304164 -2.28787 0
M  V30 3617 C 346.314 0.976114 -1.34392 0
M  V30 3618 O 347.499 0.986156 -1.63339 0
M  V30 3619 C 344.639 1.37298 -3.16612 0
M  V30 3620 C 343.752 0.714561 -4.26049 0
M  V30 3621 C 342.887 1.76232 -5.01114 0
M  V30 3622 C 341.926 1.08483 -6.0241 0
M  V30 3623 N 341.063 2.076 -6.70706 0
M  V30 3624 H 345.903 -0.373981 -2.95644 0
M  V30 3625 H 343.44 -0.196275 -1.45785 0
M  V30 3626 H 345.398 2.00445 -3.65893 0
M  V30 3627 H 344.028 2.02012 -2.51776 0
M  V30 3628 H 343.08 -0.0297798 -3.80388 0
M  V30 3629 H 344.392 0.180383 -4.98474 0
M  V30 3630 H 343.546 2.46929 -5.54176 0
M  V30 3631 H 342.285 2.33033 -4.28424 0
M  V30 3632 H 341.29 0.363545 -5.48597 0
M  V30 3633 H 342.515 0.523551 -6.77079 0
M  V30 3634 H 340.461 2.63394 -6.00799 0
M  V30 3635 H 340.378 1.59201 -7.39047 0
M  V30 3636 H 341.646 2.77639 -7.2838 0
M  V30 3637 N 345.875 1.56104 -0.216619 0
M  V30 3638 C 346.822 2.2007 0.695531 0
M  V30 3639 C 347.792 1.15471 1.19397 0
M  V30 3640 O 348.977 1.43807 1.25396 0
M  V30 3641 C 346.117 2.88073 1.90021 0
M  V30 3642 C 345.23 4.07253 1.44113 0
M  V30 3643 C 344.365 4.63052 2.603 0
M  V30 3644 C 343.404 5.74545 2.11103 0
M  V30 3645 N 342.541 6.24656 3.20545 0
M  V30 3646 H 347.381 2.97655 0.143327 0
M  V30 3647 H 344.918 1.46982 0.0589934 0
M  V30 3648 H 346.876 3.25681 2.60745 0
M  V30 3649 H 345.506 2.13015 2.42538 0
M  V30 3650 H 344.558 3.75164 0.628999 0
M  V30 3651 H 345.87 4.8783 1.04036 0
M  V30 3652 H 345.024 5.03078 3.39113 0
M  V30 3653 H 343.763 3.81628 3.03663 0
M  V30 3654 H 342.768 5.34027 1.3075 0
M  V30 3655 H 343.993 6.57801 1.68746 0
M  V30 3656 H 341.939 5.46148 3.63399 0
M  V30 3657 H 341.856 7.00343 2.84704 0
M  V30 3658 H 343.124 6.69338 3.99508 0
M  V30 3659 N 347.353 -0.0568162 1.57498 0
M  V30 3660 C 348.6 -0.753104 1.87975 0
M  V30 3661 C 348.928 -1.76815 0.81035 0
M  V30 3662 O 348.183 -1.94756 -0.19199 0
M  V30 3663 C 348.482 -1.48359 3.25153 0
M  V30 3664 C 348.148 -0.60713 4.46794 0
M  V30 3665 C 346.81 -0.365642 4.79809 0
M  V30 3666 C 349.162 -0.000305978 5.212 0
M  V30 3667 C 346.49 0.491905 5.84634 0
M  V30 3668 C 348.842 0.844781 6.26934 0
M  V30 3669 C 347.506 1.096 6.58441 0
M  V30 3670 H 346.776 -0.27558 0.687849 0
M  V30 3671 H 349.423 -0.0135173 1.91495 0
M  V30 3672 H 347.728 -2.29577 3.17492 0
M  V30 3673 H 349.425 -2.02739 3.45974 0
M  V30 3674 H 346.015 -0.805487 4.20963 0
M  V30 3675 H 350.199 -0.173961 4.95995 0
M  V30 3676 H 345.455 0.695131 6.07436 0
M  V30 3677 H 349.629 1.32165 6.83744 0
M  V30 3678 H 347.256 1.76224 7.39492 0
M  V30 3679 N 348.832 -1.54138 -0.328536 0
M  V30 3680 C 349.782 -1.79557 -1.4051 0
M  V30 3681 C 350.766 -0.651373 -1.47126 0
M  V30 3682 O 351.958 -0.911226 -1.51742 0
M  V30 3683 C 349.087 -2.02196 -2.77438 0
M  V30 3684 C 348.173 -3.22724 -2.75155 0
M  V30 3685 N 348.564 -4.43881 -2.42494 0
M  V30 3686 C 346.862 -3.24196 -3.06289 0
M  V30 3687 C 347.563 -5.25797 -2.48822 0
M  V30 3688 N 346.539 -4.62862 -2.8506 0
M  V30 3689 H 350.341 -2.70814 -1.1418 0
M  V30 3690 H 347.855 -1.53265 -0.536991 0
M  V30 3691 H 349.852 -2.18546 -3.55026 0
M  V30 3692 H 348.512 -1.12191 -3.04702 0
M  V30 3693 H 349.523 -4.70969 -2.15428 0
M  V30 3694 H 346.2 -2.44208 -3.38627 0
M  V30 3695 H 347.59 -6.32535 -2.26603 0
M  V30 3696 N 350.31 0.590341 -1.46126 0
M  V30 3697 C 351.556 1.35082 -1.51264 0
M  V30 3698 C 351.889 1.93534 -0.160711 0
M  V30 3699 O 351.164 1.76045 0.826956 0
M  V30 3700 C 351.447 2.48588 -2.6053 0
M  V30 3701 C 351.3 1.95221 -4.05227 0
M  V30 3702 C 352.619 3.50662 -2.6594 0
M  V30 3703 H 349.738 0.489803 -0.550692 0
M  V30 3704 H 352.38 0.663887 -1.78024 0
M  V30 3705 H 350.53 3.07186 -2.37843 0
M  V30 3706 H 352.202 1.41139 -4.39178 0
M  V30 3707 H 350.445 1.26101 -4.15068 0
M  V30 3708 H 351.116 2.77121 -4.77397 0
M  V30 3709 H 353.592 3.01934 -2.86313 0
M  V30 3710 H 352.468 4.27551 -3.44226 0
M  V30 3711 H 352.729 4.07399 -1.71694 0
M  V30 3712 N 351.788 1.33704 0.83433 0
M  V30 3713 C 353.199 1.22813 1.4062 0
M  V30 3714 C 353.55 -0.151107 1.95617 0
M  V30 3715 O 352.675 -1.05092 1.89168 0
M  V30 3716 C 353.27 2.22355 2.55624 0
M  V30 3717 C 351.829 2.1529 3.08751 0
M  V30 3718 C 350.976 2.09589 1.8157 0
M  V30 3719 H 353.927 1.45236 0.639702 0
M  V30 3720 H 353.948 1.83391 3.33389 0
M  V30 3721 H 353.46 3.22728 2.15566 0
M  V30 3722 H 351.561 1.18235 3.53343 0
M  V30 3723 H 351.674 3.06038 3.68616 0
M  V30 3724 H 350.038 1.55134 2.02004 0
M  V30 3725 H 350.821 3.11777 1.43701 0
M  V30 3726 N 353.266 -1.05314 1.17247 0
M  V30 3727 C 354.506 -1.79869 0.970898 0
M  V30 3728 C 354.87 -1.85594 -0.491808 0
M  V30 3729 O 356.071 -2.56229 -0.812409 0
M  V30 3730 C 354.342 -3.19937 1.59295 0
M  V30 3731 S 355.901 -4.10986 1.53741 0
M  V30 3732 H 352.719 -0.61949 0.348931 0
M  V30 3733 H 355.321 -1.26368 1.49169 0
M  V30 3734 H 354.025 -3.13372 2.65003 0
M  V30 3735 H 353.556 -3.78515 1.07191 0
M  V30 3736 H 355.571 -4.93203 0.544537 0
M  V30 3737 N 354.744 -0.972509 -1.24016 0
M  V30 3738 C 356.155 -0.67517 -1.74064 0
M  V30 3739 C 356.506 0.808939 -1.78747 0
M  V30 3740 O 355.631 1.63286 -1.42009 0
M  V30 3741 C 356.226 -1.21889 -3.16115 0
M  V30 3742 C 354.785 -0.971358 -3.6365 0
M  V30 3743 C 353.932 -1.35134 -2.42145 0
M  V30 3744 H 356.883 -1.14727 -1.09651 0
M  V30 3745 H 356.904 -0.587489 -3.75937 0
M  V30 3746 H 356.416 -2.29906 -3.12674 0
M  V30 3747 H 354.517 0.0930686 -3.72484 0
M  V30 3748 H 354.63 -1.62039 -4.50866 0
M  V30 3749 H 352.994 -0.769751 -2.4279 0
M  V30 3750 H 353.777 -2.4411 -2.41381 0
M  V30 3751 N 356.222 1.38976 -0.743202 0
M  V30 3752 C 357.152 2.33171 -0.123873 0
M  V30 3753 C 358.133 1.54336 0.71516 0
M  V30 3754 O 359.318 1.82696 0.658467 0
M  V30 3755 C 356.448 3.38474 0.777978 0
M  V30 3756 C 355.402 4.27979 0.0424758 0
M  V30 3757 C 354.728 5.2405 1.06189 0
M  V30 3758 C 356.028 5.10155 -1.1198 0
M  V30 3759 H 357.722 2.85213 -0.910709 0
M  V30 3760 H 355.268 1.37133 -0.439388 0
M  V30 3761 H 357.221 4.03328 1.22084 0
M  V30 3762 H 355.945 2.84891 1.59702 0
M  V30 3763 H 354.604 3.64616 -0.380853 0
M  V30 3764 H 354.252 4.66758 1.87472 0
M  V30 3765 H 353.952 5.84785 0.574485 0
M  V30 3766 H 355.476 5.9178 1.50428 0
M  V30 3767 H 356.89 5.68307 -0.75499 0
M  V30 3768 H 355.287 5.80073 -1.53738 0
M  V30 3769 H 356.357 4.44504 -1.93764 0
M  V30 3770 N 357.7 0.491464 1.49741 0
M  V30 3771 C 359.111 0.0413169 1.86654 0
M  V30 3772 C 359.462 -1.36985 1.40462 0
M  V30 3773 O 358.587 -2.01917 0.778354 0
M  V30 3774 C 359.182 0.0682023 3.38731 0
M  V30 3775 C 357.741 -0.32656 3.74981 0
M  V30 3776 C 356.888 0.444888 2.73708 0
M  V30 3777 H 359.839 0.704733 1.42194 0
M  V30 3778 H 359.86 -0.729322 3.73445 0
M  V30 3779 H 359.372 1.09539 3.72321 0
M  V30 3780 H 357.473 -1.35734 3.46997 0
M  V30 3781 H 357.586 -0.013741 4.79098 0
M  V30 3782 H 355.95 -0.104062 2.54487 0
M  V30 3783 H 356.733 1.47197 3.10142 0
M  V30 3784 N 359.178 -1.55987 0.224894 0
M  V30 3785 C 360.589 -1.84553 -0.282345 0
M  V30 3786 C 360.94 -1.14634 -1.59227 0
M  V30 3787 O 360.065 -0.417155 -2.12341 0
M  V30 3788 C 360.66 -3.348 -0.519062 0
M  V30 3789 C 359.219 -3.63671 -0.970604 0
M  V30 3790 C 358.366 -2.77277 -0.0355261 0
M  V30 3791 H 361.317 -1.52245 0.448006 0
M  V30 3792 H 361.338 -3.55187 -1.36463 0
M  V30 3793 H 360.85 -3.8566 0.43449 0
M  V30 3794 H 358.951 -3.1827 -1.9374 0
M  V30 3795 H 359.064 -4.71631 -0.842698 0
M  V30 3796 H 357.428 -2.48846 -0.542927 0
M  V30 3797 H 358.211 -3.30937 0.913003 0
M  V30 3798 N 360.656 0.0484629 -1.57525 0
M  V30 3799 C 361.604 1.07359 -2.06341 0
M  V30 3800 C 362.598 1.3865 -0.973269 0
M  V30 3801 O 363.804 1.37783 -1.15827 0
M  V30 3802 H 360.179 0.363662 -0.65822 0
M  V30 3803 H 362.15 0.635916 -2.91545 0
M  V30 3804 C 360.899 2.37198 -2.54229 0
M  V30 3805 H 360.222 2.13977 -3.37719 0
M  V30 3806 H 361.662 3.07319 -2.92115 0
M  V30 3807 C 360.121 3.04805 -1.43511 0
M  V30 3808 O 360.651 3.93848 -0.79034 0
M  V30 3809 N 358.857 2.65811 -1.17444 0
M  V30 3810 H 358.404 1.93488 -1.70059 0
M  V30 3811 H 358.362 3.11366 -0.435737 0
M  V30 3812 N 362.134 1.5431 0.320358 0
M  V30 3813 C 363.381 1.72668 1.05792 0
M  V30 3814 C 363.709 0.502084 1.87908 0
M  V30 3815 O 362.964 -0.516149 1.88771 0
M  V30 3816 C 363.263 2.95639 2.00828 0
M  V30 3817 C 362.929 4.30265 1.34843 0
M  V30 3818 C 361.591 4.66865 1.16578 0
M  V30 3819 C 363.943 5.13801 0.875095 0
M  V30 3820 C 361.271 5.84597 0.496336 0
M  V30 3821 C 363.623 6.32219 0.219463 0
M  V30 3822 C 362.287 6.67495 0.0246915 0
M  V30 3823 H 361.557 0.631837 0.387121 0
M  V30 3824 H 364.204 1.88552 0.334735 0
M  V30 3825 H 362.509 2.74456 2.79609 0
M  V30 3826 H 364.206 3.07038 2.57932 0
M  V30 3827 H 360.796 4.01472 1.50061 0
M  V30 3828 H 364.98 4.86039 1.00398 0
M  V30 3829 H 360.236 6.10486 0.334264 0
M  V30 3830 H 364.41 6.96227 -0.155291 0
M  V30 3831 H 362.037 7.5858 -0.496065 0
M  V30 3832 N 363.613 -0.582584 1.46437 0
M  V30 3833 C 364.561 -1.71272 1.5738 0
M  V30 3834 C 365.555 -1.63524 0.44229 0
M  V30 3835 O 366.761 -1.69016 0.619166 0
M  V30 3836 H 363.136 -0.566273 0.494813 0
M  V30 3837 H 365.107 -1.59174 2.52401 0
M  V30 3838 C 363.856 -3.09658 1.58136 0
M  V30 3839 H 363.179 -3.16291 2.44541 0
M  V30 3840 H 364.619 -3.88494 1.69847 0
M  V30 3841 C 363.078 -3.3547 0.310026 0
M  V30 3842 O 363.608 -3.97199 -0.599683 0
M  V30 3843 N 361.814 -2.89925 0.197901 0
M  V30 3844 H 361.361 -2.39873 0.93909 0
M  V30 3845 H 361.319 -3.07568 -0.65185 0
M  V30 3846 N 365.091 -1.34144 -0.827227 0
M  V30 3847 C 366.039 -1.25364 -1.95925 0
M  V30 3848 C 367.033 -0.152608 -1.68711 0
M  V30 3849 O 368.239 -0.317311 -1.77181 0
M  V30 3850 H 364.614 -0.389342 -0.643364 0
M  V30 3851 H 366.585 -2.21045 -2.00454 0
M  V30 3852 C 365.334 -1.02158 -3.32354 0
M  V30 3853 H 364.657 -1.86111 -3.5384 0
M  V30 3854 H 366.097 -1.00048 -4.12027 0
M  V30 3855 C 364.556 0.275244 -3.35774 0
M  V30 3856 O 365.086 1.27806 -3.80826 0
M  V30 3857 N 363.292 0.306853 -2.88975 0
M  V30 3858 H 362.839 -0.509777 -2.52506 0
M  V30 3859 H 362.797 1.17432 -2.91646 0
M  V30 3860 N 366.569 1.04691 -1.17803 0
M  V30 3861 C 367.797 1.81446 -0.99423 0
M  V30 3862 C 368.212 1.83174 0.457459 0
M  V30 3863 O 367.569 1.26265 1.31771 0
M  V30 3864 C 367.62 3.27334 -1.5341 0
M  V30 3865 O 367.341 3.25798 -2.92895 0
M  V30 3866 C 368.842 4.20759 -1.39559 0
M  V30 3867 H 366.062 0.571599 -0.351447 0
M  V30 3868 H 368.606 1.31982 -1.56208 0
M  V30 3869 H 366.761 3.74052 -1.00815 0
M  V30 3870 H 367.175 4.17144 -3.17949 0
M  V30 3871 H 368.649 5.21084 -1.82141 0
M  V30 3872 H 369.126 4.37856 -0.343394 0
M  V30 3873 H 369.732 3.79901 -1.91195 0
M  V30 3874 N 368.047 0.979072 1.23499 0
M  V30 3875 C 369.275 0.665202 1.95915 0
M  V30 3876 C 369.69 -0.767571 1.72493 0
M  V30 3877 O 369.047 -1.51635 1.01554 0
M  V30 3878 C 369.098 0.944438 3.48945 0
M  V30 3879 O 368.819 2.3209 3.71572 0
M  V30 3880 C 370.32 0.646336 4.38563 0
M  V30 3881 H 367.54 0.247218 0.623798 0
M  V30 3882 H 370.084 1.31009 1.57025 0
M  V30 3883 H 368.239 0.345575 3.85856 0
M  V30 3884 H 368.653 2.40957 4.65876 0
M  V30 3885 H 370.127 0.892091 5.44744 0
M  V30 3886 H 370.604 -0.419575 4.37191 0
M  V30 3887 H 371.21 1.22562 4.07258 0
M  V30 3888 N 369.525 -1.3858 0.750561 0
M  V30 3889 C 370.773 -1.99789 0.30477 0
M  V30 3890 C 371.094 -1.59874 -1.11649 0
M  V30 3891 O 370.364 -0.85417 -1.76297 0
M  V30 3892 H 368.944 -0.738902 0.109694 0
M  V30 3893 H 371.606 -1.69391 0.963983 0
M  V30 3894 H 370.702 -3.09952 0.365499 0
M  V30 3895 N 371.003 -0.499398 -1.49478 0
M  V30 3896 C 371.951 0.293604 -2.3074 0
M  V30 3897 C 372.945 0.96427 -1.39277 0
M  V30 3898 O 374.151 0.892141 -1.56336 0
M  V30 3899 H 370.526 0.113541 -0.743379 0
M  V30 3900 H 372.497 -0.411772 -2.95545 0
M  V30 3901 C 371.246 1.3462 -3.20582 0
M  V30 3902 H 370.569 0.83954 -3.90886 0
M  V30 3903 H 372.009 1.87308 -3.80384 0
M  V30 3904 C 370.468 2.36351 -2.40083 0
M  V30 3905 O 370.998 3.422 -2.10385 0
M  V30 3906 N 369.204 2.0878 -2.02137 0
M  V30 3907 H 368.751 1.22723 -2.26488 0
M  V30 3908 H 368.709 2.77075 -1.48583 0
M  V30 3909 N 372.481 1.55866 -0.233164 0
M  V30 3910 C 373.728 1.98603 0.395374 0
M  V30 3911 C 374.056 1.12105 1.58942 0
M  V30 3912 O 373.311 0.168656 1.94972 0
M  V30 3913 C 373.61 3.46856 0.861724 0
M  V30 3914 C 373.276 4.50348 -0.223066 0
M  V30 3915 C 371.938 4.78371 -0.521038 0
M  V30 3916 C 374.29 5.12355 -0.956124 0
M  V30 3917 C 371.618 5.6568 -1.55638 0
M  V30 3918 C 373.97 6.00786 -1.98089 0
M  V30 3919 C 372.634 6.27148 -2.28565 0
M  V30 3920 H 371.904 0.726739 0.144677 0
M  V30 3921 H 374.551 1.88491 -0.338114 0
M  V30 3922 H 372.856 3.5423 1.67418 0
M  V30 3923 H 374.553 3.77302 1.35809 0
M  V30 3924 H 371.143 4.28596 0.0193234 0
M  V30 3925 H 375.327 4.90765 -0.739166 0
M  V30 3926 H 370.583 5.84365 -1.798 0
M  V30 3927 H 374.757 6.4788 -2.55391 0
M  V30 3928 H 372.384 6.94597 -3.08932 0
M  V30 3929 N 373.959 -0.0401083 1.57549 0
M  V30 3930 C 375.184 -0.748931 1.93406 0
M  V30 3931 C 375.609 -1.68686 0.832274 0
M  V30 3932 O 374.967 -1.80047 -0.212818 0
M  V30 3933 C 375.015 -1.4916 3.28304 0
M  V30 3934 O 374.119 -2.6042 3.19774 0
M  V30 3935 H 373.46 -0.202212 0.63246 0
M  V30 3936 H 375.99 0.00112086 2.046 0
M  V30 3937 H 376 -1.86395 3.62934 0
M  V30 3938 H 374.675 -0.80364 4.08062 0
M  V30 3939 H 373.252 -2.25808 2.96758 0
M  V30 3940 N 375.437 -1.54477 -0.31217 0
M  V30 3941 C 376.387 -1.81037 -1.38598 0
M  V30 3942 C 377.371 -0.666941 -1.46426 0
M  V30 3943 O 378.563 -0.927269 -1.50767 0
M  V30 3944 C 375.692 -2.05127 -2.75277 0
M  V30 3945 C 374.778 -3.25624 -2.71716 0
M  V30 3946 N 375.169 -4.46428 -2.37773 0
M  V30 3947 C 373.467 -3.27427 -3.02833 0
M  V30 3948 C 374.168 -5.28406 -2.43232 0
M  V30 3949 N 373.144 -4.6586 -2.80135 0
M  V30 3950 H 376.946 -2.7201 -1.11301 0
M  V30 3951 H 374.46 -1.53826 -0.520705 0
M  V30 3952 H 376.457 -2.22299 -3.52688 0
M  V30 3953 H 375.117 -1.15416 -3.03495 0
M  V30 3954 H 376.128 -4.73227 -2.1042 0
M  V30 3955 H 372.805 -2.47786 -3.36018 0
M  V30 3956 H 374.195 -6.34903 -2.19882 0
M  V30 3957 N 376.915 0.57481 -1.46744 0
M  V30 3958 C 378.161 1.3347 -1.52688 0
M  V30 3959 C 378.494 1.93353 -0.181229 0
M  V30 3960 O 377.769 1.76912 0.808237 0
M  V30 3961 C 378.052 2.45811 -2.63152 0
M  V30 3962 C 377.905 1.90912 -4.07275 0
M  V30 3963 C 379.224 3.47822 -2.69644 0
M  V30 3964 H 376.343 0.483935 -0.555856 0
M  V30 3965 H 378.985 0.644968 -1.78718 0
M  V30 3966 H 377.135 3.04646 -2.41088 0
M  V30 3967 H 378.807 1.36473 -4.4065 0
M  V30 3968 H 377.05 1.21691 -4.16382 0
M  V30 3969 H 377.721 2.72042 -4.80309 0
M  V30 3970 H 380.197 2.9888 -2.895 0
M  V30 3971 H 379.073 4.23876 -3.48742 0
M  V30 3972 H 379.334 4.05555 -1.76005 0
M  V30 3973 N 378.394 1.34581 0.820102 0
M  V30 3974 C 379.304 1.28471 1.96297 0
M  V30 3975 C 380.32 0.191902 1.72939 0
M  V30 3976 O 381.496 0.418879 1.96996 0
M  V30 3977 C 378.561 1.04281 3.30645 0
M  V30 3978 C 377.622 2.22745 3.66992 0
M  V30 3979 C 376.855 1.997 4.9493 0
M  V30 3980 O 377.078 0.956656 5.6232 0
M  V30 3981 O 376.012 2.86723 5.2922 0
M  V30 3982 H 379.838 2.24624 2.04396 0
M  V30 3983 H 377.423 1.14816 0.955913 0
M  V30 3984 H 379.305 0.925841 4.11104 0
M  V30 3985 H 377.98 0.111697 3.23507 0
M  V30 3986 H 376.887 2.40003 2.86966 0
M  V30 3987 H 378.22 3.14257 3.78819 0
M  V30 3988 N 379.872 -1.04064 1.18357 0
M  V30 3989 C 381.121 -1.76662 0.973313 0
M  V30 3990 C 381.434 -1.89154 -0.497991 0
M  V30 3991 O 382.64 -2.58606 -0.826762 0
M  V30 3992 C 381.096 -3.17624 1.69242 0
M  V30 3993 C 380.704 -3.13225 3.20303 0
M  V30 3994 C 382.448 -3.946 1.56497 0
M  V30 3995 C 380.355 -4.49046 3.84853 0
M  V30 3996 H 379.285 -0.662214 0.36054 0
M  V30 3997 H 381.936 -1.16553 1.41731 0
M  V30 3998 H 380.318 -3.78129 1.1762 0
M  V30 3999 H 381.492 -2.62172 3.78949 0
M  V30 4000 H 379.807 -2.49749 3.33189 0
M  V30 4001 H 382.404 -4.95042 2.02084 0
M  V30 4002 H 382.747 -4.13074 0.517243 0
M  V30 4003 H 383.28 -3.4067 2.05399 0
M  V30 4004 H 380.019 -4.35777 4.89672 0
M  V30 4005 H 379.539 -5.00203 3.30994 0
M  V30 4006 H 381.218 -5.17961 3.87718 0
M  V30 4007 N 381.35 -0.985608 -1.22978 0
M  V30 4008 C 382.596 -0.65836 -1.91816 0
M  V30 4009 C 382.929 0.806692 -1.76653 0
M  V30 4010 O 382.204 1.58252 -1.13078 0
M  V30 4011 C 382.487 -1.056 -3.44268 0
M  V30 4012 C 382.34 -2.57906 -3.68516 0
M  V30 4013 C 383.659 -0.603781 -4.35939 0
M  V30 4014 H 380.778 -0.24065 -0.696604 0
M  V30 4015 H 383.42 -1.22783 -1.44998 0
M  V30 4016 H 381.57 -0.571445 -3.84274 0
M  V30 4017 H 383.242 -3.13976 -3.3796 0
M  V30 4018 H 381.485 -3.00305 -3.13048 0
M  V30 4019 H 382.156 -2.80779 -4.75255 0
M  V30 4020 H 384.632 -1.01987 -4.03408 0
M  V30 4021 H 383.508 -0.910383 -5.41298 0
M  V30 4022 H 383.769 0.495761 -4.39312 0
M  V30 4023 N 382.828 1.3818 -0.7579 0
M  V30 4024 C 383.775 2.30416 -0.133057 0
M  V30 4025 C 384.745 1.50398 0.704957 0
M  V30 4026 O 385.93 1.79014 0.660192 0
M  V30 4027 C 383.07 3.36834 0.750813 0
M  V30 4028 C 382.183 4.31879 -0.102297 0
M  V30 4029 C 381.318 5.25368 0.784979 0
M  V30 4030 C 380.357 6.12058 -0.0715046 0
M  V30 4031 N 379.494 6.97832 0.772972 0
M  V30 4032 H 384.334 2.83274 -0.925186 0
M  V30 4033 H 381.871 1.39461 -0.467866 0
M  V30 4034 H 383.829 3.97145 1.27794 0
M  V30 4035 H 382.459 2.85374 1.50868 0
M  V30 4036 H 381.511 3.72991 -0.747095 0
M  V30 4037 H 382.823 4.92921 -0.763552 0
M  V30 4038 H 381.977 5.90818 1.37911 0
M  V30 4039 H 380.716 4.64703 1.47996 0
M  V30 4040 H 379.721 5.456 -0.678272 0
M  V30 4041 H 380.946 6.74793 -0.763606 0
M  V30 4042 H 378.892 6.3971 1.45282 0
M  V30 4043 H 378.809 7.55812 0.168709 0
M  V30 4044 H 380.077 7.67687 1.35194 0
M  V30 4045 N 384.306 0.507319 1.49211 0
M  V30 4046 C 385.216 -0.272136 2.33016 0
M  V30 4047 C 386.232 -0.961206 1.45041 0
M  V30 4048 O 387.408 -0.941191 1.78055 0
M  V30 4049 C 384.473 -1.31895 3.20631 0
M  V30 4050 C 383.534 -0.642648 4.24463 0
M  V30 4051 C 382.767 -1.63959 5.07891 0
M  V30 4052 O 382.99 -2.87007 4.92933 0
M  V30 4053 O 381.924 -1.19143 5.8999 0
M  V30 4054 H 385.75 0.413982 3.00865 0
M  V30 4055 H 383.335 0.268556 1.46966 0
M  V30 4056 H 385.217 -1.92446 3.7489 0
M  V30 4057 H 383.892 -1.98788 2.5547 0
M  V30 4058 H 382.799 0.00276252 3.741 0
M  V30 4059 H 384.132 -0.0160534 4.92197 0
M  V30 4060 N 385.784 -1.5574 0.241426 0
M  V30 4061 C 386.731 -2.21149 -0.660432 0
M  V30 4062 C 387.701 -1.17356 -1.17545 0
M  V30 4063 O 388.886 -1.45784 -1.23093 0
M  V30 4064 C 386.026 -2.91059 -1.85414 0
M  V30 4065 C 385.139 -4.09495 -1.37616 0
M  V30 4066 C 384.274 -4.67135 -2.529 0
M  V30 4067 C 383.313 -5.77831 -2.01936 0
M  V30 4068 N 382.45 -6.29677 -3.10566 0
M  V30 4069 H 387.29 -2.97845 -0.095955 0
M  V30 4070 H 384.827 -1.47057 -0.0356024 0
M  V30 4071 H 386.785 -3.29788 -2.5553 0
M  V30 4072 H 385.415 -2.16846 -2.39118 0
M  V30 4073 H 384.467 -3.76117 -0.569235 0
M  V30 4074 H 385.779 -4.89423 -0.962618 0
M  V30 4075 H 384.933 -5.08409 -3.31067 0
M  V30 4076 H 383.672 -3.86411 -2.97553 0
M  V30 4077 H 382.677 -5.36039 -1.22238 0
M  V30 4078 H 383.902 -6.60402 -1.58259 0
M  V30 4079 H 381.848 -5.5186 -3.54664 0
M  V30 4080 H 381.765 -7.04783 -2.73526 0
M  V30 4081 H 383.033 -6.75609 -3.88809 0
M  V30 4082 N 387.262 0.0317525 -1.57568 0
M  V30 4083 C 388.508 0.724175 -1.8943 0
M  V30 4084 C 388.841 1.75149 -0.838836 0
M  V30 4085 O 388.116 1.93948 0.146422 0
M  V30 4086 C 388.399 1.39615 -3.31933 0
M  V30 4087 C 388.252 0.382537 -4.4817 0
M  V30 4088 C 389.571 2.33084 -3.73309 0
M  V30 4089 H 386.69 0.261797 -0.688935 0
M  V30 4090 H 389.332 -0.013017 -1.89996 0
M  V30 4091 H 387.482 2.02451 -3.31581 0
M  V30 4092 H 389.154 -0.243689 -4.60656 0
M  V30 4093 H 387.397 -0.29844 -4.32772 0
M  V30 4094 H 388.068 0.891145 -5.44759 0
M  V30 4095 H 390.544 1.80295 -3.7501 0
M  V30 4096 H 389.42 2.77084 -4.73831 0
M  V30 4097 H 389.681 3.19643 -3.05419 0
M  V30 4098 N 388.74 1.54641 0.303973 0
M  V30 4099 C 389.672 1.81754 1.39636 0
M  V30 4100 C 390.685 0.70035 1.46966 0
M  V30 4101 O 391.874 0.97778 1.49338 0
M  V30 4102 C 388.974 1.93785 2.7803 0
M  V30 4103 C 388.147 3.24156 2.93669 0
M  V30 4104 C 387.206 3.26641 4.12544 0
M  V30 4105 O 386.232 4.00187 4.04771 0
M  V30 4106 N 387.434 2.5182 5.23036 0
M  V30 4107 H 390.199 2.76031 1.16734 0
M  V30 4108 H 387.76 1.54178 0.494033 0
M  V30 4109 H 389.752 1.92852 3.55795 0
M  V30 4110 H 388.322 1.06515 2.93893 0
M  V30 4111 H 387.542 3.37887 2.03042 0
M  V30 4112 H 388.83 4.10195 3.01027 0
M  V30 4113 H 388.228 1.91692 5.32232 0
M  V30 4114 H 386.785 2.56644 5.99147 0
M  V30 4115 N 390.218 -0.567019 1.47046 0
M  V30 4116 C 391.148 -1.68482 1.61667 0
M  V30 4117 C 392.129 -1.6358 0.466418 0
M  V30 4118 O 393.314 -1.81354 0.694574 0
M  V30 4119 C 390.444 -3.07124 1.62148 0
M  V30 4120 C 389.398 -3.26867 2.76301 0
M  V30 4121 C 388.724 -4.66196 2.61849 0
M  V30 4122 C 390.024 -3.13186 4.17986 0
M  V30 4123 H 391.718 -1.56502 2.5524 0
M  V30 4124 H 389.264 -0.751486 1.22836 0
M  V30 4125 H 391.217 -3.8516 1.70968 0
M  V30 4126 H 389.941 -3.2004 0.651287 0
M  V30 4127 H 388.6 -2.51237 2.66975 0
M  V30 4128 H 388.248 -4.75898 1.62879 0
M  V30 4129 H 387.948 -4.80356 3.38425 0
M  V30 4130 H 389.472 -5.46379 2.72584 0
M  V30 4131 H 390.886 -3.81049 4.2834 0
M  V30 4132 H 389.283 -3.3886 4.95272 0
M  V30 4133 H 390.353 -2.10057 4.3704 0
M  V30 4134 N 391.696 -1.35014 -0.812953 0
M  V30 4135 C 392.628 -1.23262 -1.93233 0
M  V30 4136 C 393.641 -0.157371 -1.62038 0
M  V30 4137 O 394.83 -0.410096 -1.73725 0
M  V30 4138 C 391.93 -0.87392 -3.27438 0
M  V30 4139 C 391.103 -2.04622 -3.86586 0
M  V30 4140 C 390.162 -1.66432 -4.99186 0
M  V30 4141 O 389.188 -2.38222 -5.16951 0
M  V30 4142 N 390.39 -0.584248 -5.77552 0
M  V30 4143 H 393.155 -2.19699 -2.03844 0
M  V30 4144 H 390.716 -1.281 -0.99005 0
M  V30 4145 H 392.708 -0.600039 -4.00227 0
M  V30 4146 H 391.278 0.00057392 -3.126 0
M  V30 4147 H 390.498 -2.48427 -3.06068 0
M  V30 4148 H 391.786 -2.82999 -4.22835 0
M  V30 4149 H 391.184 0.0123526 -5.65699 0
M  V30 4150 H 389.741 -0.37013 -6.50748 0
M  V30 4151 N 393.175 1.03435 -1.18907 0
M  V30 4152 C 394.421 1.77005 -0.989798 0
M  V30 4153 C 394.754 1.88205 0.478816 0
M  V30 4154 O 394.029 1.39481 1.35556 0
M  V30 4155 C 394.312 3.19925 -1.65287 0
M  V30 4156 C 394.165 3.1663 -3.19477 0
M  V30 4157 C 395.484 4.18189 -1.37134 0
M  V30 4158 H 392.603 0.642538 -0.360991 0
M  V30 4159 H 395.245 1.20784 -1.46667 0
M  V30 4160 H 393.395 3.67929 -1.24741 0
M  V30 4161 H 395.067 2.76567 -3.692 0
M  V30 4162 H 393.31 2.54491 -3.51307 0
M  V30 4163 H 393.981 4.1758 -3.61013 0
M  V30 4164 H 396.457 3.78761 -1.72276 0
M  V30 4165 H 395.333 5.16394 -1.86087 0
M  V30 4166 H 395.594 4.41112 -0.295424 0
M  V30 4167 N 394.653 0.992116 1.22453 0
M  V30 4168 C 395.563 0.55065 2.28046 0
M  V30 4169 C 396.579 -0.400189 1.69335 0
M  V30 4170 O 397.755 -0.267215 1.99619 0
M  V30 4171 C 394.82 -0.128496 3.46462 0
M  V30 4172 C 393.881 0.865208 4.20491 0
M  V30 4173 C 393.114 0.218377 5.33253 0
M  V30 4174 O 393.337 -0.987894 5.6178 0
M  V30 4175 O 392.271 0.922845 5.94783 0
M  V30 4176 H 396.097 1.4291 2.67975 0
M  V30 4177 H 393.682 0.760326 1.28606 0
M  V30 4178 H 395.564 -0.508947 4.18315 0
M  V30 4179 H 394.239 -0.981526 3.0846 0
M  V30 4180 H 393.146 1.29658 3.50913 0
M  V30 4181 H 394.479 1.68741 4.62371 0
M  V30 4182 N 396.131 -1.37776 0.765217 0
M  V30 4183 C 397.542 -1.82521 0.392819 0
M  V30 4184 C 397.893 -1.63789 -1.08017 0
M  V30 4185 O 397.018 -1.14542 -1.83601 0
M  V30 4186 C 397.613 -3.31358 0.706214 0
M  V30 4187 C 396.172 -3.74406 0.386952 0
M  V30 4188 C 395.319 -2.60394 0.953422 0
M  V30 4189 H 398.27 -1.2634 0.960412 0
M  V30 4190 H 398.291 -3.80498 -0.0114706 0
M  V30 4191 H 397.803 -3.44959 1.77833 0
M  V30 4192 H 395.904 -3.66377 -0.678112 0
M  V30 4193 H 396.017 -4.70749 0.890636 0
M  V30 4194 H 394.381 -2.51878 0.378064 0
M  V30 4195 H 395.164 -2.76791 2.03081 0
M  V30 4196 N 397.609 -0.515225 -1.4894 0
M  V30 4197 C 398.519 0.259774 -2.33157 0
M  V30 4198 C 399.535 0.953501 -1.45548 0
M  V30 4199 O 400.711 0.931735 -1.78552 0
M  V30 4200 C 397.776 1.30193 -3.21326 0
M  V30 4201 C 396.837 0.620129 -4.24797 0
M  V30 4202 C 396.07 1.61263 -5.08753 0
M  V30 4203 O 396.293 2.84389 -4.94448 0
M  V30 4204 O 395.227 1.16013 -5.90614 0
M  V30 4205 H 399.053 -0.429932 -3.00641 0
M  V30 4206 H 396.638 -0.276346 -1.46822 0
M  V30 4207 H 398.52 1.90455 -3.75905 0
M  V30 4208 H 397.195 1.97431 -2.56521 0
M  V30 4209 H 396.102 -0.0226019 -3.74093 0
M  V30 4210 H 397.435 -0.0100493 -4.92199 0
M  V30 4211 N 399.087 1.5561 -0.249682 0
M  V30 4212 C 400.05 2.20217 0.635394 0
M  V30 4213 C 401.05 1.17227 1.10066 0
M  V30 4214 O 402.24 1.42292 1.00492 0
M  V30 4215 C 399.372 2.84794 1.87363 0
M  V30 4216 H 400.565 2.99814 0.0716752 0
M  V30 4217 H 398.118 1.563 -0.000153234 0
M  V30 4218 H 398.853 2.09142 2.47851 0
M  V30 4219 H 398.638 3.60241 1.5482 0
M  V30 4220 H 400.128 3.3423 2.5036 0
M  V30 4221 N 400.565 -0.0233959 1.57583 0
M  V30 4222 C 401.79 -0.728376 1.94189 0
M  V30 4223 C 402.215 -1.67793 0.850119 0
M  V30 4224 O 401.573 -1.80262 -0.19371 0
M  V30 4225 C 401.621 -1.45669 3.29868 0
M  V30 4226 O 400.725 -2.57013 3.22518 0
M  V30 4227 H 400.066 -0.195493 0.63457 0
M  V30 4228 H 402.596 0.0228214 2.04587 0
M  V30 4229 H 402.606 -1.82535 3.6489 0
M  V30 4230 H 401.281 -0.760314 4.08891 0
M  V30 4231 H 399.858 -2.22648 2.99136 0
M  V30 4232 N 402.043 -1.548 -0.295768 0
M  V30 4233 C 403.006 -1.85363 -1.34808 0
M  V30 4234 C 404.006 -0.726817 -1.43436 0
M  V30 4235 O 405.196 -0.995088 -1.42981 0
M  V30 4236 C 402.328 -2.03859 -2.73229 0
M  V30 4237 H 403.521 -2.7941 -1.08949 0
M  V30 4238 H 401.074 -1.46942 -0.532702 0
M  V30 4239 H 401.809 -1.12117 -3.04303 0
M  V30 4240 H 401.594 -2.8588 -2.68356 0
M  V30 4241 H 403.084 -2.28857 -3.49305 0
M  V30 4242 N 403.521 0.559213 -1.47345 0
M  V30 4243 C 404.768 1.31648 -1.53867 0
M  V30 4244 C 405.096 1.93468 -0.200104 0
M  V30 4245 O 404.351 1.78295 0.806799 0
M  V30 4246 C 404.65 2.44853 -2.6035 0
M  V30 4247 C 404.316 2.00876 -4.03683 0
M  V30 4248 C 402.978 1.88599 -4.42701 0
M  V30 4249 C 405.33 1.67279 -4.93626 0
M  V30 4250 C 402.658 1.41017 -5.69501 0
M  V30 4251 C 405.01 1.21169 -6.20887 0
M  V30 4252 C 403.674 1.07487 -6.58789 0
M  V30 4253 H 402.944 0.481734 -0.56304 0
M  V30 4254 H 405.591 0.627301 -1.80934 0
M  V30 4255 H 403.896 3.19318 -2.27032 0
M  V30 4256 H 405.593 3.03039 -2.62619 0
M  V30 4257 H 402.183 2.11374 -3.72853 0
M  V30 4258 H 406.367 1.75638 -4.64182 0
M  V30 4259 H 401.623 1.29086 -5.97618 0
M  V30 4260 H 405.797 0.942345 -6.89995 0
M  V30 4261 H 403.424 0.703946 -7.56934 0
M  V30 4262 N 404.999 1.35443 0.805782 0
M  V30 4263 C 406.239 1.30127 1.57627 0
M  V30 4264 C 406.603 -0.122567 1.91608 0
M  V30 4265 O 407.804 -0.300107 2.67119 0
M  V30 4266 C 406.075 2.18314 2.82973 0
M  V30 4267 S 407.634 2.30521 3.7337 0
M  V30 4268 H 404.452 0.462439 0.540066 0
M  V30 4269 H 407.054 1.70843 0.95042 0
M  V30 4270 H 405.758 3.20741 2.56034 0
M  V30 4271 H 405.289 1.78558 3.50543 0
M  V30 4272 H 407.304 1.49062 4.73281 0
M  V30 4273 N 406.477 -1.02803 1.19454 0
M  V30 4274 C 407.705 -1.79841 1.02297 0
M  V30 4275 C 408.12 -1.83879 -0.428259 0
M  V30 4276 O 407.477 -1.28345 -1.29745 0
M  V30 4277 C 407.528 -3.24852 1.58598 0
M  V30 4278 O 407.249 -3.21097 2.98041 0
M  V30 4279 C 408.75 -4.18485 1.46236 0
M  V30 4280 H 405.97 -0.565936 0.360496 0
M  V30 4281 H 408.514 -1.2948 1.58288 0
M  V30 4282 H 406.669 -3.72401 1.06753 0
M  V30 4283 H 407.083 -4.12033 3.24545 0
M  V30 4284 H 408.557 -5.18121 1.90407 0
M  V30 4285 H 409.034 -4.37254 0.41301 0
M  V30 4286 H 409.64 -3.76811 1.97215 0
M  V30 4287 N 407.956 -0.998596 -1.21925 0
M  V30 4288 C 409.367 -0.711939 -1.72593 0
M  V30 4289 C 409.718 0.770842 -1.80423 0
M  V30 4290 O 408.843 1.60237 -1.4544 0
M  V30 4291 C 409.438 -1.28567 -3.13458 0
M  V30 4292 C 407.997 -1.04828 -3.61508 0
M  V30 4293 C 407.144 -1.4024 -2.39224 0
M  V30 4294 H 410.095 -1.17027 -1.07193 0
M  V30 4295 H 410.116 -0.667098 -3.74607 0
M  V30 4296 H 409.628 -2.36486 -3.07727 0
M  V30 4297 H 407.729 0.0140383 -3.72597 0
M  V30 4298 H 407.842 -1.71566 -4.47328 0
M  V30 4299 H 406.206 -0.821077 -2.41103 0
M  V30 4300 H 406.989 -2.49176 -2.36149 0
M  V30 4301 N 409.434 1.37368 -0.772513 0
M  V30 4302 C 410.659 2.0447 -0.347386 0
M  V30 4303 C 411.084 1.57882 1.0225 0
M  V30 4304 O 410.442 0.73941 1.65537 0
M  V30 4305 C 410.49 3.58369 -0.400479 0
M  V30 4306 O 409.594 4.0803 0.598789 0
M  V30 4307 H 408.935 0.646773 -0.15027 0
M  V30 4308 H 411.465 1.75667 -1.04892 0
M  V30 4309 H 411.475 4.07183 -0.258045 0
M  V30 4310 H 410.15 3.91633 -1.39986 0
M  V30 4311 H 408.727 3.70534 0.419411 0
M  V30 4312 N 410.912 0.523116 1.48665 0
M  V30 4313 C 412.142 -0.00961724 2.06598 0
M  V30 4314 C 412.55 -1.29333 1.38093 0
M  V30 4315 O 411.893 -1.77846 0.46007 0
M  V30 4316 C 411.955 -0.311135 3.58151 0
M  V30 4317 C 411.619 0.878092 4.48485 0
M  V30 4318 C 412.616 1.77464 4.88674 0
M  V30 4319 C 410.301 1.08315 4.90483 0
M  V30 4320 C 412.295 2.86021 5.69623 0
M  V30 4321 C 409.982 2.17187 5.71203 0
M  V30 4322 C 410.98 3.05873 6.10681 0
M  V30 4323 O 410.668 4.12862 6.89783 0
M  V30 4324 H 410.4 0.0272658 0.67545 0
M  V30 4325 H 412.954 0.726156 1.92136 0
M  V30 4326 H 411.184 -1.10079 3.70701 0
M  V30 4327 H 412.873 -0.785125 3.98234 0
M  V30 4328 H 413.639 1.62813 4.56855 0
M  V30 4329 H 409.518 0.402149 4.59243 0
M  V30 4330 H 413.062 3.55272 6.00356 0
M  V30 4331 H 408.959 2.31824 6.02435 0
M  V30 4332 H 409.727 4.10487 7.08126 0
M  V30 4333 N 412.39 -1.55475 0.257931 0
M  V30 4334 C 413.637 -1.99207 -0.363728 0
M  V30 4335 C 413.965 -1.1462 -1.57139 0
M  V30 4336 O 413.22 -0.199653 -1.94679 0
M  V30 4337 C 413.519 -3.48183 -0.806433 0
M  V30 4338 C 413.185 -4.49936 0.294684 0
M  V30 4339 C 411.847 -4.77481 0.597076 0
M  V30 4340 C 414.199 -5.10769 1.03751 0
M  V30 4341 C 411.527 -5.63132 1.64618 0
M  V30 4342 C 413.879 -5.97558 2.07622 0
M  V30 4343 C 412.543 -6.23432 2.38514 0
M  V30 4344 H 411.813 -0.728949 -0.133097 0
M  V30 4345 H 414.46 -1.8793 0.368059 0
M  V30 4346 H 412.765 -3.56848 -1.61761 0
M  V30 4347 H 414.462 -3.79415 -1.29789 0
M  V30 4348 H 411.052 -4.28572 0.0488649 0
M  V30 4349 H 415.236 -4.89527 0.817149 0
M  V30 4350 H 410.492 -5.8143 1.89074 0
M  V30 4351 H 414.666 -6.43735 2.65666 0
M  V30 4352 H 412.293 -6.89594 3.19943 0
M  V30 4353 N 413.868 0.0150385 -1.57593 0
M  V30 4354 C 415.096 0.714395 -1.94175 0
M  V30 4355 C 415.511 1.68135 -0.858841 0
M  V30 4356 O 414.868 1.81766 0.163567 0
M  V30 4357 C 414.919 1.45933 -3.30735 0
M  V30 4358 O 414.64 0.531167 -4.34868 0
M  V30 4359 C 416.141 2.25456 -3.81686 0
M  V30 4360 H 413.361 0.199923 -0.640525 0
M  V30 4361 H 415.905 -0.0316096 -2.04476 0
M  V30 4362 H 414.06 2.15709 -3.21789 0
M  V30 4363 H 414.474 1.05509 -5.13778 0
M  V30 4364 H 415.948 2.731 -4.79709 0
M  V30 4365 H 416.425 3.07485 -3.13607 0
M  V30 4366 H 417.031 1.60727 -3.9376 0
M  V30 4367 N 415.346 1.54954 0.287554 0
M  V30 4368 C 416.276 1.89839 1.35954 0
M  V30 4369 C 417.257 0.758675 1.52244 0
M  V30 4370 O 418.442 1.01557 1.65529 0
M  V30 4371 C 415.572 2.15753 2.72154 0
M  V30 4372 C 414.526 3.3159 2.70614 0
M  V30 4373 C 413.852 3.42952 4.10229 0
M  V30 4374 C 415.152 4.68359 2.31165 0
M  V30 4375 H 416.846 2.79625 1.07007 0
M  V30 4376 H 414.392 1.3454 0.513316 0
M  V30 4377 H 416.345 2.38743 3.47246 0
M  V30 4378 H 415.069 1.22752 3.02654 0
M  V30 4379 H 413.728 3.08545 1.97979 0
M  V30 4380 H 413.376 2.47443 4.37928 0
M  V30 4381 H 413.076 4.20826 4.10097 0
M  V30 4382 H 414.6 3.68218 4.87081 0
M  V30 4383 H 416.014 4.9099 2.95976 0
M  V30 4384 H 414.411 5.49044 2.42221 0
M  V30 4385 H 415.481 4.68165 1.26291 0
M  V30 4386 N 416.824 -0.551391 1.4764 0
M  V30 4387 C 417.772 -1.67896 1.60978 0
M  V30 4388 C 418.766 -1.62549 0.476877 0
M  V30 4389 O 419.972 -1.67664 0.654878 0
M  V30 4390 H 416.347 -0.555649 0.506713 0
M  V30 4391 H 418.318 -1.53784 2.55721 0
M  V30 4392 C 417.067 -3.06234 1.64669 0
M  V30 4393 H 416.39 -3.11033 2.51194 0
M  V30 4394 H 417.83 -3.84804 1.7805 0
M  V30 4395 C 416.289 -3.34737 0.381115 0
M  V30 4396 O 416.819 -3.98381 -0.515297 0
M  V30 4397 N 415.025 -2.8944 0.259354 0
M  V30 4398 H 414.572 -2.37827 0.98976 0
M  V30 4399 H 414.53 -3.08882 -0.586464 0
M  V30 4400 N 418.302 -1.35869 -0.798587 0
M  V30 4401 C 419.527 -1.32883 -1.59238 0
M  V30 4402 C 419.952 0.0894587 -1.87887 0
M  V30 4403 O 419.31 1.05869 -1.47178 0
M  V30 4404 C 419.358 -2.14892 -2.89575 0
M  V30 4405 O 418.462 -1.53512 -3.82763 0
M  V30 4406 H 417.803 -0.455236 -0.48338 0
M  V30 4407 H 420.333 -1.79024 -0.990539 0
M  V30 4408 H 420.343 -2.27139 -3.38928 0
M  V30 4409 H 419.018 -3.17998 -2.68049 0
M  V30 4410 H 417.595 -1.50153 -3.41334 0
M  V30 4411 N 419.78 1.02168 -1.19998 0
M  V30 4412 C 420.712 2.10705 -0.901994 0
M  V30 4413 C 421.725 1.6244 0.108216 0
M  V30 4414 O 422.914 1.78082 -0.12214 0
M  V30 4415 C 420.014 3.37291 -0.329834 0
M  V30 4416 C 419.187 4.14714 -1.39035 0
M  V30 4417 C 418.246 5.19606 -0.830432 0
M  V30 4418 O 417.272 5.48809 -1.50989 0
M  V30 4419 N 418.474 5.79366 0.362696 0
M  V30 4420 H 421.239 2.36856 -1.83628 0
M  V30 4421 H 418.8 1.18518 -1.10296 0
M  V30 4422 H 420.792 4.04657 0.0587633 0
M  V30 4423 H 419.362 3.0843 0.508891 0
M  V30 4424 H 418.582 3.42392 -1.9535 0
M  V30 4425 H 419.87 4.63226 -2.10474 0
M  V30 4426 H 419.268 5.57968 0.932081 0
M  V30 4427 H 417.825 6.48106 0.69299 0
M  V30 4428 N 421.258 1.00505 1.21394 0
M  V30 4429 C 422.486 0.706609 1.9446 0
M  V30 4430 C 422.901 -0.73081 1.74082 0
M  V30 4431 O 422.258 -1.49446 1.04747 0
M  V30 4432 C 422.309 1.01824 3.46863 0
M  V30 4433 O 422.03 2.39919 3.66566 0
M  V30 4434 C 423.531 0.739216 4.37093 0
M  V30 4435 H 420.751 0.260394 0.618414 0
M  V30 4436 H 423.295 1.34311 1.54211 0
M  V30 4437 H 421.45 0.427343 3.85036 0
M  V30 4438 H 421.864 2.50784 4.6066 0
M  V30 4439 H 423.338 1.00744 5.42729 0
M  V30 4440 H 423.815 -0.326746 4.37983 0
M  V30 4441 H 424.421 1.31173 4.04566 0
M  V30 4442 N 422.737 -1.36956 0.779787 0
M  V30 4443 C 423.7 -2.2851 0.177662 0
M  V30 4444 C 424.7 -1.48393 -0.619377 0
M  V30 4445 O 425.89 -1.68505 -0.441785 0
M  V30 4446 C 423.022 -3.32428 -0.755279 0
M  V30 4447 H 424.215 -2.83269 0.984823 0
M  V30 4448 H 421.768 -1.46358 0.548544 0
M  V30 4449 H 422.503 -2.82808 -1.58714 0
M  V30 4450 H 422.288 -3.91659 -0.185817 0
M  V30 4451 H 423.778 -4.00824 -1.17174 0
M  V30 4452 N 424.215 -0.530993 -1.48385 0
M  V30 4453 C 425.445 -0.00133928 -2.066 0
M  V30 4454 C 425.853 1.28599 -1.38777 0
M  V30 4455 O 425.196 1.77599 -0.469495 0
M  V30 4456 C 425.258 0.292137 -3.58311 0
M  V30 4457 C 424.922 -0.901864 -4.48013 0
M  V30 4458 C 425.919 -1.80053 -4.87726 0
M  V30 4459 C 423.604 -1.10915 -4.89901 0
M  V30 4460 C 425.598 -2.89038 -5.68098 0
M  V30 4461 C 423.285 -2.20213 -5.70043 0
M  V30 4462 C 424.283 -3.09107 -6.0905 0
M  V30 4463 O 423.971 -4.16514 -6.87583 0
M  V30 4464 H 423.703 -0.0308475 -0.675296 0
M  V30 4465 H 426.257 -0.736335 -1.91748 0
M  V30 4466 H 424.487 1.08112 -3.7128 0
M  V30 4467 H 426.176 0.763994 -3.98645 0
M  V30 4468 H 426.942 -1.65234 -4.55986 0
M  V30 4469 H 422.821 -0.426498 -4.59023 0
M  V30 4470 H 426.365 -3.58451 -5.98464 0
M  V30 4471 H 422.262 -2.35016 -6.01197 0
M  V30 4472 H 423.03 -4.14237 -7.05939 0
M  V30 4473 N 425.693 1.55336 -0.266172 0
M  V30 4474 C 426.921 2.03801 0.356756 0
M  V30 4475 C 427.336 1.14485 1.50129 0
M  V30 4476 O 426.693 0.163121 1.8177 0
M  V30 4477 C 426.744 3.51455 0.846281 0
M  V30 4478 O 426.465 4.37371 -0.252663 0
M  V30 4479 C 427.966 4.15767 1.53794 0
M  V30 4480 H 425.186 0.665906 0.0825218 0
M  V30 4481 H 427.73 2.00636 -0.39566 0
M  V30 4482 H 425.885 3.55092 1.54881 0
M  V30 4483 H 426.299 5.24358 0.122173 0
M  V30 4484 H 427.773 5.20714 1.83198 0
M  V30 4485 H 428.25 3.63404 2.46646 0
M  V30 4486 H 428.856 4.16107 0.879488 0
M  V30 4487 N 427.171 -0.0066808 1.57599 0
M  V30 4488 C 428.42 -0.692078 1.89455 0
M  V30 4489 C 428.733 -1.75306 0.867586 0
M  V30 4490 O 429.939 -2.49262 1.07614 0
M  V30 4491 C 428.395 -1.2821 3.36289 0
M  V30 4492 C 428.003 -0.256291 4.47266 0
M  V30 4493 C 429.747 -1.94608 3.77264 0
M  V30 4494 C 427.654 -0.855927 5.85173 0
M  V30 4495 H 426.584 -0.262252 0.706923 0
M  V30 4496 H 429.235 0.052769 1.83424 0
M  V30 4497 H 427.617 -2.0774 3.37135 0
M  V30 4498 H 428.791 0.513923 4.57925 0
M  V30 4499 H 427.106 0.306862 4.15268 0
M  V30 4500 H 429.703 -2.40364 4.77629 0
M  V30 4501 H 430.046 -2.77382 3.10427 0
M  V30 4502 H 430.579 -1.21822 3.78688 0
M  V30 4503 H 427.318 -0.0671161 6.55466 0
M  V30 4504 H 426.838 -1.59546 5.78191 0
M  V30 4505 H 428.517 -1.35658 6.32618 0
M  V30 4506 N 428.649 -1.55105 -0.279332 0
M  V30 4507 C 430.06 -1.66186 -0.850832 0
M  V30 4508 C 430.411 -0.584707 -1.87285 0
M  V30 4509 O 429.536 0.274919 -2.14647 0
M  V30 4510 C 430.131 -3.01264 -1.55001 0
M  V30 4511 C 428.69 -3.14394 -2.06963 0
M  V30 4512 C 427.837 -2.61959 -0.909536 0
M  V30 4513 H 430.788 -1.58602 -0.0558235 0
M  V30 4514 H 430.809 -2.93899 -2.41669 0
M  V30 4515 H 430.321 -3.7964 -0.805931 0
M  V30 4516 H 428.422 -2.4078 -2.84352 0
M  V30 4517 H 428.535 -4.20867 -2.28928 0
M  V30 4518 H 426.899 -2.18957 -1.30116 0
M  V30 4519 H 427.682 -3.42833 -0.179062 0
M  V30 4520 N 430.127 0.543554 -1.4793 0
M  V30 4521 C 431.376 1.29649 -1.54512 0
M  V30 4522 C 431.689 1.94382 -0.217973 0
M  V30 4523 O 432.895 2.71017 -0.161908 0
M  V30 4524 C 431.351 2.35175 -2.72435 0
M  V30 4525 C 430.959 1.76572 -4.11736 0
M  V30 4526 C 432.703 3.11564 -2.8832 0
M  V30 4527 C 430.61 2.79958 -5.20939 0
M  V30 4528 H 429.54 0.487541 -0.57517 0
M  V30 4529 H 432.191 0.575708 -1.74235 0
M  V30 4530 H 430.573 3.10229 -2.46118 0
M  V30 4531 H 431.747 1.07799 -4.48013 0
M  V30 4532 H 430.062 1.12722 -4.00852 0
M  V30 4533 H 432.659 3.88794 -3.67074 0
M  V30 4534 H 433.002 3.66594 -1.97268 0
M  V30 4535 H 433.535 2.43623 -3.14472 0
M  V30 4536 H 430.274 2.29766 -6.13912 0
M  V30 4537 H 429.794 3.47101 -4.89164 0
M  V30 4538 H 431.473 3.43198 -5.48474 0
M  V30 4539 N 431.605 1.3629 0.791371 0
M  V30 4540 C 432.538 1.24816 1.9104 0
M  V30 4541 C 433.516 0.132739 1.62057 0
M  V30 4542 O 434.7 0.303527 1.8604 0
M  V30 4543 C 431.827 0.925355 3.25814 0
M  V30 4544 C 430.873 2.05495 3.7373 0
M  V30 4545 S 431.706 3.67255 3.89723 0
M  V30 4546 C 432.862 3.37084 5.27376 0
M  V30 4547 H 433.095 2.19533 2.00481 0
M  V30 4548 H 430.628 1.21684 0.950393 0
M  V30 4549 H 432.586 0.745924 4.03666 0
M  V30 4550 H 431.247 -0.00400098 3.141 0
M  V30 4551 H 430.44 1.7836 4.71385 0
M  V30 4552 H 430.042 2.1935 3.02922 0
M  V30 4553 H 432.334 2.90856 6.1189 0
M  V30 4554 H 433.277 4.33995 5.59512 0
M  V30 4555 H 433.685 2.7248 4.94383 0
M  V30 4556 N 433.083 -1.0153 1.20538 0
M  V30 4557 C 434.046 -2.0826 0.957098 0
M  V30 4558 C 435.046 -1.60657 -0.0678655 0
M  V30 4559 O 436.236 -1.73385 0.168332 0
M  V30 4560 C 433.368 -3.38033 0.441188 0
M  V30 4561 H 434.561 -2.31719 1.90384 0
M  V30 4562 H 432.114 -1.1835 1.02093 0
M  V30 4563 H 432.849 -3.20249 -0.510961 0
M  V30 4564 H 432.634 -3.73911 1.18038 0
M  V30 4565 H 434.124 -4.16613 0.287009 0
M  V30 4566 N 434.561 -1.01147 -1.20859 0
M  V30 4567 C 435.808 -0.697865 -1.90095 0
M  V30 4568 C 436.136 0.772014 -1.78522 0
M  V30 4569 O 435.391 1.57595 -1.16027 0
M  V30 4570 C 435.69 -1.0727 -3.40922 0
M  V30 4571 C 435.356 -2.53792 -3.72693 0
M  V30 4572 C 434.018 -2.93829 -3.81075 0
M  V30 4573 C 436.37 -3.48674 -3.87397 0
M  V30 4574 C 433.698 -4.27696 -4.01613 0
M  V30 4575 C 436.05 -4.82223 -4.09444 0
M  V30 4576 C 434.714 -5.21973 -4.16054 0
M  V30 4577 H 433.984 -0.255367 -0.695607 0
M  V30 4578 H 436.631 -1.27111 -1.43231 0
M  V30 4579 H 434.936 -0.417799 -3.89566 0
M  V30 4580 H 436.633 -0.807818 -3.92779 0
M  V30 4581 H 433.223 -2.21768 -3.66765 0
M  V30 4582 H 437.407 -3.18904 -3.80281 0
M  V30 4583 H 432.663 -4.58055 -4.04964 0
M  V30 4584 H 436.837 -5.55672 -4.19763 0
M  V30 4585 H 434.464 -6.25717 -4.31721 0
M  V30 4586 N 436.039 1.36541 -0.78704 0
M  V30 4587 C 437.002 2.28413 -0.189778 0
M  V30 4588 C 438.002 1.48719 0.611499 0
M  V30 4589 O 439.192 1.68737 0.432842 0
M  V30 4590 C 436.324 3.32824 0.737638 0
M  V30 4591 H 437.517 2.82743 -0.999831 0
M  V30 4592 H 435.07 1.46065 -0.556298 0
M  V30 4593 H 435.805 2.83646 1.57212 0
M  V30 4594 H 435.59 3.91752 0.165044 0
M  V30 4595 H 437.08 4.0144 1.15047 0
M  V30 4596 N 437.518 0.538854 1.48102 0
M  V30 4597 C 438.765 0.0080018 2.02498 0
M  V30 4598 C 439.093 -1.33437 1.41509 0
M  V30 4599 O 438.348 -1.87709 0.553507 0
M  V30 4600 C 438.647 -0.153808 3.57069 0
M  V30 4601 C 438.313 1.11533 4.36888 0
M  V30 4602 C 436.975 1.46314 4.58417 0
M  V30 4603 C 439.327 1.95718 4.83057 0
M  V30 4604 C 436.655 2.6516 5.23361 0
M  V30 4605 C 439.007 3.13751 5.49312 0
M  V30 4606 C 437.671 3.48866 5.69077 0
M  V30 4607 H 436.941 0.00292807 0.740994 0
M  V30 4608 H 439.588 0.706668 1.77984 0
M  V30 4609 H 437.893 -0.935309 3.80472 0
M  V30 4610 H 439.59 -0.579607 3.96789 0
M  V30 4611 H 436.18 0.834484 4.20398 0
M  V30 4612 H 440.364 1.70158 4.66219 0
M  V30 4613 H 435.62 2.92558 5.36861 0
M  V30 4614 H 439.794 3.79282 5.84053 0
M  V30 4615 H 437.421 4.41054 6.19173 0
M  V30 4616 N 438.996 -1.55193 0.274407 0
M  V30 4617 C 440.242 -1.99877 -0.343086 0
M  V30 4618 C 440.575 -1.16256 -1.55558 0
M  V30 4619 O 439.85 -0.232462 -1.93106 0
M  V30 4620 C 440.133 -3.52706 -0.725965 0
M  V30 4621 C 439.986 -4.47081 0.493818 0
M  V30 4622 C 441.305 -4.11422 -1.56268 0
M  V30 4623 H 438.424 -0.726625 -0.123229 0
M  V30 4624 H 441.066 -1.86136 0.38121 0
M  V30 4625 H 439.216 -3.64546 -1.34307 0
M  V30 4626 H 440.888 -4.47186 1.13237 0
M  V30 4627 H 439.131 -4.1877 1.13201 0
M  V30 4628 H 439.802 -5.51699 0.18217 0
M  V30 4629 H 442.278 -4.02855 -1.04151 0
M  V30 4630 H 441.154 -5.18568 -1.79939 0
M  V30 4631 H 441.415 -3.61607 -2.54348 0
M  V30 4632 N 440.474 -0.00167713 -1.576 0
M  V30 4633 C 441.714 0.687302 -1.92498 0
M  V30 4634 C 442.078 1.70844 -0.876144 0
M  V30 4635 O 443.279 2.44792 -1.11043 0
M  V30 4636 C 441.55 1.31217 -3.32441 0
M  V30 4637 S 443.109 2.02604 -3.89226 0
M  V30 4638 H 439.927 0.226985 -0.673794 0
M  V30 4639 H 442.529 -0.0587666 -1.95412 0
M  V30 4640 H 441.233 0.556164 -4.06614 0
M  V30 4641 H 440.764 2.09613 -3.32905 0
M  V30 4642 H 442.779 3.30137 -3.70438 0
M  V30 4643 N 441.952 1.55251 0.271103 0
M  V30 4644 C 442.902 1.84649 1.33749 0
M  V30 4645 C 443.886 0.705529 1.44607 0
M  V30 4646 O 445.078 0.966916 1.48256 0
M  V30 4647 C 442.207 2.12354 2.69742 0
M  V30 4648 C 441.293 3.32714 2.62988 0
M  V30 4649 N 441.684 4.52575 2.25853 0
M  V30 4650 C 439.982 3.35341 2.94045 0
M  V30 4651 C 440.683 5.34669 2.29136 0
M  V30 4652 N 439.659 4.73123 2.67685 0
M  V30 4653 H 443.461 2.74865 1.0405 0
M  V30 4654 H 440.975 1.55152 0.479738 0
M  V30 4655 H 442.972 2.31572 3.4667 0
M  V30 4656 H 441.632 1.23422 3.00328 0
M  V30 4657 H 442.643 4.78639 1.978 0
M  V30 4658 H 439.32 2.56608 3.2933 0
M  V30 4659 H 440.71 6.40509 2.02971 0
M  V30 4660 N 443.43 -0.535701 1.48216 0
M  V30 4661 C 444.841 -1.11769 1.49548 0
M  V30 4662 C 445.192 -1.94442 0.26207 0
M  V30 4663 O 444.317 -2.06987 -0.631287 0
M  V30 4664 C 444.912 -2.03367 2.70975 0
M  V30 4665 C 443.471 -2.56795 2.75196 0
M  V30 4666 C 442.618 -1.33631 2.42977 0
M  V30 4667 H 445.569 -0.321232 1.55415 0
M  V30 4668 H 445.59 -2.87569 2.49167 0
M  V30 4669 H 445.102 -1.43169 3.60727 0
M  V30 4670 H 443.203 -3.20731 1.89638 0
M  V30 4671 H 443.316 -2.9632 3.76472 0
M  V30 4672 H 441.68 -1.6502 1.94012 0
M  V30 4673 H 442.463 -0.75194 3.34964 0
M  V30 4674 N 444.908 -1.36708 -0.784132 0
M  V30 4675 C 445.818 -1.3363 -1.92822 0
M  V30 4676 C 446.834 -0.237686 -1.72369 0
M  V30 4677 O 448.01 -0.470962 -1.95816 0
M  V30 4678 C 445.075 -1.13011 -3.27764 0
M  V30 4679 C 444.136 -2.32397 -3.60957 0
M  V30 4680 C 443.369 -2.12752 -4.89461 0
M  V30 4681 O 443.592 -1.10541 -5.59586 0
M  V30 4682 O 442.526 -3.00653 -5.21432 0
M  V30 4683 H 446.352 -2.29964 -1.98369 0
M  V30 4684 H 443.937 -1.1731 -0.925136 0
M  V30 4685 H 445.819 -1.03451 -4.08504 0
M  V30 4686 H 444.494 -0.19743 -3.23097 0
M  V30 4687 H 443.401 -2.47527 -2.80502 0
M  V30 4688 H 444.734 -3.2419 -3.70354 0
M  V30 4689 N 446.386 1.0089 -1.21074 0
M  V30 4690 C 447.632 1.74866 -1.02712 0
M  V30 4691 C 447.965 1.89178 0.438787 0
M  V30 4692 O 447.24 1.42325 1.32567 0
M  V30 4693 C 447.523 3.16347 -1.72036 0
M  V30 4694 C 447.376 3.09782 -3.26121 0
M  V30 4695 C 448.695 4.15187 -1.45973 0
M  V30 4696 H 445.814 0.634736 -0.374539 0
M  V30 4697 H 448.456 1.17646 -1.49196 0
M  V30 4698 H 446.606 3.65201 -1.32517 0
M  V30 4699 H 448.278 2.68673 -3.74983 0
M  V30 4700 H 446.521 2.46982 -3.56626 0
M  V30 4701 H 447.192 4.09829 -3.6979 0
M  V30 4702 H 449.668 3.75022 -1.80272 0
M  V30 4703 H 448.544 5.12331 -1.96999 0
M  V30 4704 H 448.805 4.40386 -0.388924 0
M  V30 4705 N 447.864 1.01787 1.20321 0
M  V30 4706 C 448.794 0.609625 2.25401 0
M  V30 4707 C 449.775 -0.375951 1.65893 0
M  V30 4708 O 450.96 -0.261101 1.92437 0
M  V30 4709 C 448.09 -0.0515995 3.47262 0
M  V30 4710 C 447.044 0.855095 4.19371 0
M  V30 4711 C 446.37 0.0595757 5.34667 0
M  V30 4712 C 447.67 2.16374 4.75373 0
M  V30 4713 H 449.364 1.48803 2.59804 0
M  V30 4714 H 446.91 0.716934 1.24884 0
M  V30 4715 H 448.863 -0.348764 4.19954 0
M  V30 4716 H 447.587 -0.964726 3.12027 0
M  V30 4717 H 446.246 1.13628 3.48546 0
M  V30 4718 H 445.894 -0.85524 4.95676 0
M  V30 4719 H 445.594 0.663406 5.83843 0
M  V30 4720 H 447.118 -0.231105 6.10162 0
M  V30 4721 H 448.532 1.92885 5.39878 0
M  V30 4722 H 446.929 2.71853 5.34991 0
M  V30 4723 H 447.999 2.82589 3.94045 0
M  V30 4724 N 449.342 -1.36122 0.79427 0
M  V30 4725 C 450.753 -1.81646 0.431446 0
M  V30 4726 C 451.104 -1.66043 -1.04518 0
M  V30 4727 O 450.229 -1.1841 -1.8113 0
M  V30 4728 C 450.824 -3.29785 0.776341 0
M  V30 4729 C 449.383 -3.73501 0.466282 0
M  V30 4730 C 448.53 -2.58313 1.00844 0
M  V30 4731 H 451.481 -1.24274 0.986995 0
M  V30 4732 H 451.502 -3.80437 0.0692413 0
M  V30 4733 H 451.014 -3.4111 1.8511 0
M  V30 4734 H 449.115 -3.67733 -0.600245 0
M  V30 4735 H 449.228 -4.68754 0.990288 0
M  V30 4736 H 447.592 -2.5102 0.431406 0
M  V30 4737 H 448.375 -2.72421 2.08906 0
M  V30 4738 N 450.82 -0.546701 -1.47814 0
M  V30 4739 C 452.069 -0.0166497 -2.01693 0
M  V30 4740 C 452.382 1.33721 -1.42752 0
M  V30 4741 O 453.588 1.95658 -1.8823 0
M  V30 4742 C 452.044 0.0206769 -3.59894 0
M  V30 4743 C 451.652 -1.3293 -4.27824 0
M  V30 4744 C 453.396 0.498674 -4.21561 0
M  V30 4745 C 451.303 -1.25165 -5.78003 0
M  V30 4746 H 450.233 -0.0024541 -0.753996 0
M  V30 4747 H 452.884 -0.692984 -1.69912 0
M  V30 4748 H 451.266 0.76244 -3.88591 0
M  V30 4749 H 452.44 -2.08795 -4.10781 0
M  V30 4750 H 450.755 -1.74438 -3.78101 0
M  V30 4751 H 453.352 0.575 -5.31599 0
M  V30 4752 H 453.695 1.5083 -3.88016 0
M  V30 4753 H 454.228 -0.18791 -3.97356 0
M  V30 4754 H 450.967 -2.23695 -6.1615 0
M  V30 4755 H 450.487 -0.53464 -5.97412 0
M  V30 4756 H 452.166 -0.949299 -6.39998 0
M  V30 4757 N 452.299 1.55045 -0.282633 0
M  V30 4758 C 453.529 2.03872 0.334635 0
M  V30 4759 C 453.937 1.16018 1.49454 0
M  V30 4760 O 453.28 0.174449 1.8287 0
M  V30 4761 C 453.342 3.48791 0.870905 0
M  V30 4762 C 453.006 4.56715 -0.161338 0
M  V30 4763 C 454.003 5.10513 -0.983466 0
M  V30 4764 C 451.688 5.01417 -0.297745 0
M  V30 4765 C 453.682 6.07538 -1.92811 0
M  V30 4766 C 451.369 5.98265 -1.24586 0
M  V30 4767 C 452.367 6.51208 -2.05954 0
M  V30 4768 O 452.055 7.46162 -2.99162 0
M  V30 4769 H 451.787 0.671324 0.0793742 0
M  V30 4770 H 454.341 2.01169 -0.41473 0
M  V30 4771 H 452.571 3.48758 1.67047 0
M  V30 4772 H 454.26 3.80916 1.40207 0
M  V30 4773 H 455.026 4.76785 -0.888856 0
M  V30 4774 H 450.905 4.59849 0.325604 0
M  V30 4775 H 454.449 6.48787 -2.56363 0
M  V30 4776 H 450.346 6.31412 -1.34126 0
M  V30 4777 H 451.114 7.63903 -2.93929 0
M  V30 4778 N 453.777 0.010035 1.57597 0
M  V30 4779 C 455.005 -0.683413 1.95287 0
M  V30 4780 C 455.42 -1.66747 0.885481 0
M  V30 4781 O 454.777 -1.82003 -0.134629 0
M  V30 4782 C 454.828 -1.40652 3.33015 0
M  V30 4783 O 454.549 -0.461916 4.35658 0
M  V30 4784 C 456.05 -2.19356 3.85225 0
M  V30 4785 H 453.27 -0.189708 0.643624 0
M  V30 4786 H 455.814 0.0641359 2.04399 0
M  V30 4787 H 453.969 -2.10562 3.2518 0
M  V30 4788 H 454.383 -0.973215 5.15392 0
M  V30 4789 H 455.857 -2.65433 4.83993 0
M  V30 4790 H 456.334 -3.02457 3.18459 0
M  V30 4791 H 456.94 -1.54442 3.96267 0
M  V30 4792 N 455.255 -1.55392 -0.262866 0
M  V30 4793 C 456.165 -1.92077 -1.34698 0
M  V30 4794 C 457.181 -0.819227 -1.53508 0
M  V30 4795 O 458.357 -1.11921 -1.67439 0
M  V30 4796 C 455.422 -2.19407 -2.68443 0
M  V30 4797 C 454.483 -3.42905 -2.58292 0
M  V30 4798 C 453.716 -3.68921 -3.85659 0
M  V30 4799 O 453.939 -2.97275 -4.8681 0
M  V30 4800 O 452.873 -4.62455 -3.85252 0
M  V30 4801 H 456.699 -2.84384 -1.06581 0
M  V30 4802 H 454.284 -1.42069 -0.462264 0
M  V30 4803 H 456.166 -2.38365 -3.47506 0
M  V30 4804 H 454.841 -1.30282 -2.96325 0
M  V30 4805 H 453.748 -3.29272 -1.7757 0
M  V30 4806 H 455.081 -4.32282 -2.35358 0
M  V30 4807 N 456.733 0.527833 -1.48498 0
M  V30 4808 C 457.663 1.64136 -1.66077 0
M  V30 4809 C 458.644 1.62286 -0.509625 0
M  V30 4810 O 459.829 1.79449 -0.742413 0
M  V30 4811 C 456.959 3.02717 -1.70234 0
M  V30 4812 C 455.913 3.19426 -2.8487 0
M  V30 4813 C 455.239 4.5909 -2.74118 0
M  V30 4814 C 456.539 3.01993 -4.26142 0
M  V30 4815 H 458.233 1.4968 -2.593 0
M  V30 4816 H 455.779 0.718654 -1.24785 0
M  V30 4817 H 457.732 3.80491 -1.8112 0
M  V30 4818 H 456.456 3.18201 -0.735911 0
M  V30 4819 H 455.115 2.4407 -2.73542 0
M  V30 4820 H 454.763 4.71413 -1.7544 0
M  V30 4821 H 454.463 4.71214 -3.51042 0
M  V30 4822 H 455.987 5.3896 -2.86974 0
M  V30 4823 H 457.401 3.69558 -4.38292 0
M  V30 4824 H 455.798 3.2561 -5.04082 0
M  V30 4825 H 456.868 1.98396 -4.42456 0
M  V30 4826 N 458.211 1.37122 0.776871 0
M  V30 4827 C 459.158 1.3247 1.88998 0
M  V30 4828 C 460.128 0.191143 1.64997 0
M  V30 4829 O 461.313 0.379683 1.86984 0
M  V30 4830 C 458.453 1.13241 3.25992 0
M  V30 4831 C 457.566 2.35782 3.61982 0
M  V30 4832 C 456.701 2.09465 4.88158 0
M  V30 4833 C 455.74 3.279 5.16864 0
M  V30 4834 N 454.877 3.01167 6.34226 0
M  V30 4835 H 459.717 2.27642 1.9231 0
M  V30 4836 H 457.254 1.13125 0.94027 0
M  V30 4837 H 459.212 1.00115 4.0501 0
M  V30 4838 H 457.842 0.217186 3.22069 0
M  V30 4839 H 456.894 2.59666 2.77989 0
M  V30 4840 H 458.206 3.24125 3.79137 0
M  V30 4841 H 457.36 1.93341 5.75069 0
M  V30 4842 H 456.099 1.18452 4.73097 0
M  V30 4843 H 455.104 3.44569 4.2843 0
M  V30 4844 H 456.329 4.19757 5.33836 0
M  V30 4845 H 454.275 2.12779 6.20533 0
M  V30 4846 H 454.192 3.83052 6.51772 0
M  V30 4847 H 455.46 2.88649 7.24087 0
M  V30 4848 N 459.689 -1.00246 1.21608 0
M  V30 4849 C 460.966 -1.71336 0.943568 0
M  V30 4850 C 461.346 -2.03972 -0.543943 0
M  V30 4851 O 460.694 -1.71545 -1.50946 0
M  V30 4852 C 460.904 -2.97094 1.83128 0
M  V30 4853 C 462.252 -3.70071 2.08165 0
M  V30 4854 O 463.276 -3.07081 1.80498 0
M  V30 4855 O 462.135 -4.83376 2.54971 0
M  V30 4856 H 459.229 -0.747386 0.354039 0
M  V30 4857 H 461.775 -1.05967 1.32549 0
M  V30 4858 H 460.547 -2.69407 2.83788 0
M  V30 4859 H 460.17 -3.70204 1.45034 0
M  V30 4860 N 461.167 -1.02423 -1.1978 0
M  V30 4861 C 462.578 -0.748389 -1.71044 0
M  V30 4862 C 462.929 0.732398 -1.82017 0
M  V30 4863 O 462.054 1.57116 -1.48807 0
M  V30 4864 C 462.649 -1.35187 -3.1066 0
M  V30 4865 C 461.208 -1.12472 -3.59203 0
M  V30 4866 C 460.355 -1.45283 -2.36195 0
M  V30 4867 H 463.306 -1.19275 -1.04686 0
M  V30 4868 H 463.327 -0.746408 -3.73107 0
M  V30 4869 H 462.839 -2.4296 -3.02642 0
M  V30 4870 H 460.94 -0.0649983 -3.72543 0
M  V30 4871 H 461.053 -1.81016 -4.43588 0
M  V30 4872 H 459.417 -0.872034 -2.39307 0
M  V30 4873 H 460.2 -2.54129 -2.30811 0
M  V30 4874 N 462.645 1.35699 -0.801477 0
M  V30 4875 C 463.87 2.03687 -0.390678 0
M  V30 4876 C 464.295 1.60015 0.988778 0
M  V30 4877 O 463.653 0.774357 1.63931 0
M  V30 4878 C 463.701 3.57439 -0.476404 0
M  V30 4879 O 462.805 4.09208 0.512106 0
M  V30 4880 H 462.146 0.64344 -0.163956 0
M  V30 4881 H 464.676 1.73403 -1.08594 0
M  V30 4882 H 464.686 4.06544 -0.344357 0
M  V30 4883 H 463.361 3.88576 -1.48262 0
M  V30 4884 H 461.938 3.7134 0.340721 0
M  V30 4885 N 464.123 0.554532 1.47522 0
M  V30 4886 C 465.07 -0.19466 2.29978 0
M  V30 4887 C 466.04 -0.910882 1.38896 0
M  V30 4888 O 467.225 -0.907102 1.67858 0
M  V30 4889 C 464.365 -1.22035 3.22802 0
M  V30 4890 C 463.478 -0.510474 4.28973 0
M  V30 4891 C 462.613 -1.52123 5.08952 0
M  V30 4892 C 461.652 -0.796173 6.069 0
M  V30 4893 N 460.789 -1.75363 6.79847 0
M  V30 4894 H 465.629 0.51461 2.93523 0
M  V30 4895 H 463.166 0.265607 1.44682 0
M  V30 4896 H 465.124 -1.8276 3.7504 0
M  V30 4897 H 463.754 -1.89769 2.61127 0
M  V30 4898 H 462.806 0.211234 3.79813 0
M  V30 4899 H 464.118 0.0576503 4.98767 0
M  V30 4900 H 463.272 -2.20207 5.65326 0
M  V30 4901 H 462.011 -2.12327 4.39054 0
M  V30 4902 H 461.016 -0.101388 5.49707 0
M  V30 4903 H 462.241 -0.199911 6.78806 0
M  V30 4904 H 460.187 -2.3443 6.12682 0
M  V30 4905 H 460.104 -1.23759 7.45801 0
M  V30 4906 H 461.372 -2.4257 7.40797 0
M  V30 4907 N 465.601 -1.54893 0.290851 0
M  V30 4908 C 466.548 -2.23138 -0.58974 0
M  V30 4909 C 467.518 -1.21036 -1.13752 0
M  V30 4910 O 468.703 -1.49626 -1.18392 0
M  V30 4911 C 465.843 -2.96811 -1.76061 0
M  V30 4912 C 464.956 -4.13665 -1.24519 0
M  V30 4913 C 464.091 -4.74944 -2.3791 0
M  V30 4914 C 463.13 -5.83963 -1.83451 0
M  V30 4915 N 462.267 -6.39239 -2.90376 0
M  V30 4916 H 467.107 -2.98 -0.00114915 0
M  V30 4917 H 464.644 -1.47096 0.0112006 0
M  V30 4918 H 466.602 -3.37751 -2.44909 0
M  V30 4919 H 465.232 -2.24344 -2.32098 0
M  V30 4920 H 464.284 -3.77737 -0.449288 0
M  V30 4921 H 465.596 -4.92238 -0.806424 0
M  V30 4922 H 464.75 -5.18684 -3.14724 0
M  V30 4923 H 463.489 -3.95682 -2.85109 0
M  V30 4924 H 462.494 -5.39657 -1.05122 0
M  V30 4925 H 463.719 -6.65103 -1.37169 0
M  V30 4926 H 461.665 -5.62864 -3.36927 0
M  V30 4927 H 461.582 -7.13129 -2.50965 0
M  V30 4928 H 462.85 -6.87637 -3.67118 0
M  V30 4929 N 467.08 -0.0183926 -1.57589 0
M  V30 4930 C 468.027 0.967022 -2.09565 0
M  V30 4931 C 468.997 1.32983 -0.995225 0
M  V30 4932 O 470.182 1.42501 -1.26878 0
M  V30 4933 C 467.322 2.24772 -2.61861 0
M  V30 4934 C 466.435 1.94232 -3.85873 0
M  V30 4935 C 465.57 3.16518 -4.26603 0
M  V30 4936 C 464.609 2.81748 -5.43401 0
M  V30 4937 N 463.746 3.96626 -5.79338 0
M  V30 4938 H 468.586 0.516874 -2.93483 0
M  V30 4939 H 466.123 0.243544 -1.4507 0
M  V30 4940 H 468.081 2.99667 -2.90268 0
M  V30 4941 H 466.711 2.67423 -1.8079 0
M  V30 4942 H 465.763 1.09625 -3.64262 0
M  V30 4943 H 467.075 1.64616 -4.70853 0
M  V30 4944 H 466.229 3.99743 -4.56389 0
M  V30 4945 H 464.968 3.49286 -3.40368 0
M  V30 4946 H 463.973 1.96933 -5.1332 0
M  V30 4947 H 465.198 2.50207 -6.31327 0
M  V30 4948 H 463.144 4.29257 -4.96059 0
M  V30 4949 H 463.061 3.70598 -6.58933 0
M  V30 4950 H 464.329 4.80586 -6.13724 0
M  V30 4951 N 468.558 1.5553 0.254621 0
M  V30 4952 C 469.491 1.84624 1.34124 0
M  V30 4953 C 470.469 0.700693 1.46728 0
M  V30 4954 O 471.653 0.94564 1.63064 0
M  V30 4955 C 468.78 2.02412 2.71564 0
M  V30 4956 C 467.826 3.25028 2.7615 0
M  V30 4957 S 468.659 4.81893 2.33538 0
M  V30 4958 C 469.815 5.02677 3.72917 0
M  V30 4959 H 470.048 2.76501 1.09245 0
M  V30 4960 H 467.581 1.47537 0.455211 0
M  V30 4961 H 469.539 2.13345 3.50705 0
M  V30 4962 H 468.2 1.11391 2.93685 0
M  V30 4963 H 467.393 3.34418 3.77069 0
M  V30 4964 H 466.995 3.12781 2.05046 0
M  V30 4965 H 469.287 4.89546 4.68349 0
M  V30 4966 H 470.23 6.0468 3.68467 0
M  V30 4967 H 470.638 4.30561 3.65072 0
M  V30 4968 N 470.036 -0.519951 1.48776 0
M  V30 4969 C 470.968 -1.63973 1.60142 0
M  V30 4970 C 471.981 -1.55404 0.485117 0
M  V30 4971 O 473.17 -1.61682 0.756391 0
M  V30 4972 C 470.27 -3.02676 1.52449 0
M  V30 4973 C 469.443 -3.36624 2.79291 0
M  V30 4974 C 468.502 -4.54652 2.64912 0
M  V30 4975 O 467.528 -4.57374 3.38818 0
M  V30 4976 N 468.73 -5.53432 1.75195 0
M  V30 4977 H 471.495 -1.54656 2.56713 0
M  V30 4978 H 469.056 -0.707439 1.45626 0
M  V30 4979 H 471.048 -3.79525 1.4051 0
M  V30 4980 H 469.618 -3.06018 0.638125 0
M  V30 4981 H 468.838 -2.48855 3.0572 0
M  V30 4982 H 470.126 -3.56094 3.6342 0
M  V30 4983 H 469.524 -5.54018 1.14371 0
M  V30 4984 H 468.081 -6.29459 1.69189 0
M  V30 4985 N 471.514 -1.37532 -0.769588 0
M  V30 4986 C 472.464 -1.29984 -1.87318 0
M  V30 4987 C 473.448 -0.187242 -1.59807 0
M  V30 4988 O 474.64 -0.421827 -1.719 0
M  V30 4989 C 471.769 -1.11126 -3.24817 0
M  V30 4990 C 470.855 -2.26939 -3.58273 0
M  V30 4991 N 471.246 -3.52336 -3.62895 0
M  V30 4992 C 469.544 -2.19141 -3.8845 0
M  V30 4993 C 470.245 -4.28719 -3.9316 0
M  V30 4994 N 469.221 -3.57884 -4.0917 0
M  V30 4995 H 473.023 -2.24946 -1.89147 0
M  V30 4996 H 470.537 -1.30535 -0.966143 0
M  V30 4997 H 472.534 -1.03803 -4.0377 0
M  V30 4998 H 471.194 -0.17083 -3.2425 0
M  V30 4999 H 472.205 -3.86216 -3.45048 0
M  V30 5000 H 468.882 -1.33167 -3.95693 0
M  V30 5001 H 470.272 -5.37254 -4.03494 0
M  V30 5002 N 472.992 0.995999 -1.22138 0
M  V30 5003 C 474.241 1.72928 -1.03821 0
M  V30 5004 C 474.554 1.90872 0.427444 0
M  V30 5005 O 475.76 2.61496 0.730212 0
M  V30 5006 C 474.216 3.11124 -1.80913 0
M  V30 5007 C 473.824 3.01122 -3.31707 0
M  V30 5008 C 475.568 3.8852 -1.71035 0
M  V30 5009 C 473.475 4.34453 -4.01253 0
M  V30 5010 H 472.405 0.648376 -0.384869 0
M  V30 5011 H 475.056 1.11213 -1.45959 0
M  V30 5012 H 473.438 3.73503 -1.31573 0
M  V30 5013 H 474.612 2.47926 -3.88419 0
M  V30 5014 H 472.927 2.3721 -3.42228 0
M  V30 5015 H 475.524 4.872 -2.20318 0
M  V30 5016 H 475.867 4.1087 -0.670196 0
M  V30 5017 H 476.4 3.32812 -2.17902 0
M  V30 5018 H 473.139 4.17303 -5.05508 0
M  V30 5019 H 472.659 4.87574 -3.49331 0
M  V30 5020 H 474.338 5.03215 -4.06674 0
M  V30 5021 N 474.47 1.03057 1.19235 0
M  V30 5022 C 475.695 0.74757 1.93458 0
M  V30 5023 C 476.12 -0.687648 1.7508 0
M  V30 5024 O 475.478 -1.47499 1.05422 0
M  V30 5025 C 475.526 1.10604 3.43219 0
M  V30 5026 O 474.63 0.225671 4.11782 0
M  V30 5027 H 473.971 0.276047 0.603899 0
M  V30 5028 H 476.501 1.3777 1.51263 0
M  V30 5029 H 476.511 1.06366 3.93891 0
M  V30 5030 H 475.186 2.15165 3.55917 0
M  V30 5031 H 473.763 0.326795 3.71465 0
M  V30 5032 N 475.948 -1.35272 0.808662 0
M  V30 5033 C 476.896 -2.31663 0.208606 0
M  V30 5034 C 477.89 -1.56731 -0.642778 0
M  V30 5035 O 479.096 -1.71843 -0.53571 0
M  V30 5036 H 475.471 -0.750421 0.0486993 0
M  V30 5037 H 477.442 -2.79814 1.03666 0
M  V30 5038 C 476.191 -3.42008 -0.626573 0
M  V30 5039 H 475.514 -3.99795 0.0192103 0
M  V30 5040 H 476.954 -4.11727 -1.01278 0
M  V30 5041 C 475.413 -2.85226 -1.79298 0
M  V30 5042 O 475.943 -2.78945 -2.89055 0
M  V30 5043 N 474.149 -2.42245 -1.60516 0
M  V30 5044 H 473.696 -2.47554 -0.712375 0
M  V30 5045 H 473.654 -2.04603 -2.38715 0
M  V30 5046 N 477.426 -0.562348 -1.47226 0
M  V30 5047 C 478.356 0.170627 -2.32876 0
M  V30 5048 C 479.337 0.903748 -1.44106 0
M  V30 5049 O 480.522 0.883206 -1.72954 0
M  V30 5050 C 477.652 1.19786 -3.25989 0
M  V30 5051 C 476.606 0.580875 -4.2404 0
M  V30 5052 C 475.932 1.71311 -5.06514 0
M  V30 5053 C 477.232 -0.468714 -5.20193 0
M  V30 5054 H 478.926 -0.544441 -2.94408 0
M  V30 5055 H 476.472 -0.263271 -1.41573 0
M  V30 5056 H 478.425 1.71884 -3.84752 0
M  V30 5057 H 477.149 1.94294 -2.62521 0
M  V30 5058 H 475.808 0.0811538 -3.6651 0
M  V30 5059 H 475.456 2.44736 -4.39447 0
M  V30 5060 H 475.156 1.30604 -5.72902 0
M  V30 5061 H 476.68 2.23725 -5.68137 0
M  V30 5062 H 478.094 -0.0336028 -5.7329 0
M  V30 5063 H 476.491 -0.794957 -5.94811 0
M  V30 5064 H 477.561 -1.36269 -4.65359 0
M  V30 5065 N 478.904 1.54736 -0.299062 0
M  V30 5066 C 480.129 2.04975 0.316254 0
M  V30 5067 C 480.554 1.17501 1.46885 0
M  V30 5068 O 479.912 0.178678 1.80417 0
M  V30 5069 C 479.96 3.52672 0.751997 0
M  V30 5070 O 479.064 3.68226 1.85697 0
M  V30 5071 H 478.405 0.661126 0.0617175 0
M  V30 5072 H 480.935 1.99805 -0.440341 0
M  V30 5073 H 480.945 3.94488 1.04133 0
M  V30 5074 H 479.62 4.158 -0.0911482 0
M  V30 5075 H 478.197 3.38316 1.56834 0
M  V30 5076 N 480.382 0.0267497 1.57577 0
M  V30 5077 C 481.631 -0.651736 1.9088 0
M  V30 5078 C 481.944 -1.73427 0.904576 0
M  V30 5079 O 483.15 -2.46923 1.12877 0
M  V30 5080 C 481.606 -1.21048 3.38933 0
M  V30 5081 C 481.214 -0.161362 4.47709 0
M  V30 5082 C 482.958 -1.86562 3.81307 0
M  V30 5083 C 480.865 -0.731611 5.86857 0
M  V30 5084 H 479.795 -0.247198 0.712326 0
M  V30 5085 H 482.446 0.0916641 1.83271 0
M  V30 5086 H 480.828 -2.00542 3.41466 0
M  V30 5087 H 482.002 0.61094 4.56732 0
M  V30 5088 H 480.317 0.394877 4.14523 0
M  V30 5089 H 482.914 -2.30178 4.8262 0
M  V30 5090 H 483.257 -2.70735 3.16241 0
M  V30 5091 H 483.79 -1.13762 3.81186 0
M  V30 5092 H 480.529 0.0719329 6.55461 0
M  V30 5093 H 480.049 -1.47245 5.81445 0
M  V30 5094 H 481.728 -1.22208 6.35354 0
M  V30 5095 N 481.861 -1.55662 -0.24637 0
M  V30 5096 C 482.824 -1.89558 -1.28842 0
M  V30 5097 C 483.824 -0.772082 -1.41052 0
M  V30 5098 O 485.014 -1.04007 -1.39743 0
M  V30 5099 C 482.146 -2.12449 -2.66605 0
M  V30 5100 H 483.339 -2.82735 -1.00004 0
M  V30 5101 H 480.892 -1.48562 -0.485684 0
M  V30 5102 H 481.627 -1.21742 -3.00582 0
M  V30 5103 H 481.412 -2.94273 -2.59125 0
M  V30 5104 H 482.902 -2.39854 -3.41847 0
M  V30 5105 N 483.339 0.512053 -1.4905 0
M  V30 5106 C 484.585 1.26874 -1.58212 0
M  V30 5107 C 484.918 1.9241 -0.263073 0
M  V30 5108 O 484.193 1.80181 0.732476 0
M  V30 5109 C 484.476 2.34428 -2.73341 0
M  V30 5110 C 484.329 1.73466 -4.15006 0
M  V30 5111 C 485.648 3.36073 -2.84154 0
M  V30 5112 H 482.767 0.459924 -0.575881 0
M  V30 5113 H 485.409 0.568587 -1.81293 0
M  V30 5114 H 483.559 2.94146 -2.53792 0
M  V30 5115 H 485.231 1.17661 -4.46042 0
M  V30 5116 H 483.474 1.03921 -4.21168 0
M  V30 5117 H 484.145 2.51426 -4.91415 0
M  V30 5118 H 486.621 2.86332 -3.01916 0
M  V30 5119 H 485.497 4.08703 -3.66406 0
M  V30 5120 H 485.758 3.97725 -1.93048 0
M  V30 5121 N 484.817 1.37938 0.762283 0
M  V30 5122 C 485.75 1.2884 1.88349 0
M  V30 5123 C 486.728 0.167084 1.61739 0
M  V30 5124 O 487.912 0.34292 1.85355 0
M  V30 5125 C 485.039 0.994257 3.23778 0
M  V30 5126 C 484.085 2.13376 3.69287 0
M  V30 5127 S 484.918 3.75439 3.81845 0
M  V30 5128 C 486.074 3.48195 5.20107 0
M  V30 5129 H 486.307 2.23736 1.95779 0
M  V30 5130 H 483.84 1.23672 0.924368 0
M  V30 5131 H 485.798 0.83138 4.01993 0
M  V30 5132 H 484.459 0.0626251 3.14038 0
M  V30 5133 H 483.652 1.88319 4.67495 0
M  V30 5134 H 483.254 2.25726 2.98201 0
M  V30 5135 H 485.546 3.0377 6.05583 0
M  V30 5136 H 486.489 4.45765 5.50181 0
M  V30 5137 H 486.897 2.82905 4.88493 0
M  V30 5138 N 486.295 -0.989507 1.22664 0
M  V30 5139 C 487.525 -1.7624 1.0781 0
M  V30 5140 C 487.933 -1.85466 -0.374036 0
M  V30 5141 O 487.276 -1.32645 -1.27087 0
M  V30 5142 C 487.338 -3.21007 1.61849 0
M  V30 5143 C 487.002 -3.35316 3.10503 0
M  V30 5144 C 487.999 -3.22362 4.07896 0
M  V30 5145 C 485.684 -3.60258 3.50028 0
M  V30 5146 C 487.678 -3.34139 5.42798 0
M  V30 5147 C 485.365 -3.71676 4.85078 0
M  V30 5148 C 486.363 -3.58625 5.81272 0
M  V30 5149 O 486.051 -3.69655 7.1387 0
M  V30 5150 H 485.783 -0.560209 0.378341 0
M  V30 5151 H 488.337 -1.25252 1.62792 0
M  V30 5152 H 486.567 -3.73202 1.01279 0
M  V30 5153 H 488.256 -3.80024 1.42606 0
M  V30 5154 H 489.022 -3.03 3.78703 0
M  V30 5155 H 484.901 -3.69492 2.75675 0
M  V30 5156 H 488.445 -3.23869 6.17863 0
M  V30 5157 H 484.342 -3.90545 5.1395 0
M  V30 5158 H 485.11 -3.86507 7.21495 0
M  V30 5159 N 487.773 -1.03688 -1.18687 0
M  V30 5160 C 489.022 -0.733235 -1.879 0
M  V30 5161 C 489.335 0.741745 -1.8099 0
M  V30 5162 O 490.541 1.15875 -2.4553 0
M  V30 5163 C 488.997 -1.26127 -3.37076 0
M  V30 5164 C 488.605 -2.76461 -3.52524 0
M  V30 5165 C 490.349 -1.03398 -4.11715 0
M  V30 5166 C 488.256 -3.22642 -4.95637 0
M  V30 5167 H 487.186 -0.270584 -0.703776 0
M  V30 5168 H 489.837 -1.25222 -1.34133 0
M  V30 5169 H 488.219 -0.670165 -3.90288 0
M  V30 5170 H 489.393 -3.41296 -3.09602 0
M  V30 5171 H 487.708 -2.97559 -2.91286 0
M  V30 5172 H 490.305 -1.3542 -5.17267 0
M  V30 5173 H 490.648 0.0289246 -4.1629 0
M  V30 5174 H 491.181 -1.5895 -3.64664 0
M  V30 5175 H 487.92 -4.28296 -4.96228 0
M  V30 5176 H 487.44 -2.62539 -5.39289 0
M  V30 5177 H 489.119 -3.16444 -5.64333 0
M  V30 5178 N 489.251 1.34841 -0.815825 0
M  V30 5179 C 490.184 2.27504 -0.178062 0
M  V30 5180 C 491.162 1.48542 0.661373 0
M  V30 5181 O 492.346 1.77779 0.626653 0
M  V30 5182 C 489.473 3.30246 0.752002 0
M  V30 5183 C 488.519 4.26499 -0.00899172 0
M  V30 5184 S 489.352 5.18169 -1.35134 0
M  V30 5185 C 490.508 6.24449 -0.42596 0
M  V30 5186 H 490.741 2.81248 -0.963684 0
M  V30 5187 H 488.274 1.41781 -0.611355 0
M  V30 5188 H 490.232 3.89933 1.28308 0
M  V30 5189 H 488.893 2.75363 1.51109 0
M  V30 5190 H 488.086 4.99146 0.697766 0
M  V30 5191 H 487.688 3.7103 -0.470396 0
M  V30 5192 H 489.98 6.76404 0.385234 0
M  V30 5193 H 490.923 6.99156 -1.1219 0
M  V30 5194 H 491.331 5.64497 -0.0175461 0
M  V30 5195 N 490.729 0.570148 1.46925 0
M  V30 5196 C 491.959 0.0561151 2.06524 0
M  V30 5197 C 492.367 -1.24874 1.42137 0
M  V30 5198 O 491.71 -1.76292 0.516417 0
M  V30 5199 C 491.772 -0.197035 3.5896 0
M  V30 5200 C 491.436 1.02033 4.45464 0
M  V30 5201 C 492.433 1.92921 4.82781 0
M  V30 5202 C 490.118 1.23864 4.86788 0
M  V30 5203 C 492.112 3.03999 5.60235 0
M  V30 5204 C 489.799 2.35249 5.64004 0
M  V30 5205 C 490.797 3.25146 6.0064 0
M  V30 5206 O 490.485 4.34598 6.76299 0
M  V30 5207 H 490.217 0.0487409 0.674241 0
M  V30 5208 H 492.771 0.786915 1.89728 0
M  V30 5209 H 491.001 -0.982299 3.74016 0
M  V30 5210 H 492.69 -0.658032 4.00531 0
M  V30 5211 H 493.456 1.77265 4.51444 0
M  V30 5212 H 489.335 0.54805 4.57731 0
M  V30 5213 H 492.879 3.74192 5.8875 0
M  V30 5214 H 488.776 2.50873 5.94755 0
M  V30 5215 H 489.544 4.32808 6.94708 0
M  V30 5216 N 492.207 -1.54576 0.307264 0
M  V30 5217 C 493.454 -2.00263 -0.300167 0
M  V30 5218 C 493.782 -1.19561 -1.53413 0
M  V30 5219 O 493.037 -0.261487 -1.93945 0
M  V30 5220 C 493.336 -3.50572 -0.695253 0
M  V30 5221 C 493.002 -4.48771 0.437679 0
M  V30 5222 C 491.664 -4.7534 0.748681 0
M  V30 5223 C 494.016 -5.0721 1.19949 0
M  V30 5224 C 491.344 -5.5761 1.8245 0
M  V30 5225 C 493.696 -5.90651 2.26527 0
M  V30 5226 C 492.36 -6.15528 2.58227 0
M  V30 5227 H 491.63 -0.732814 -0.109839 0
M  V30 5228 H 494.277 -1.86664 0.427661 0
M  V30 5229 H 492.582 -3.61814 -1.50326 0
M  V30 5230 H 494.279 -3.83352 -1.17653 0
M  V30 5231 H 490.869 -4.282 0.185187 0
M  V30 5232 H 495.053 -4.86679 0.972474 0
M  V30 5233 H 490.309 -5.75121 2.07476 0
M  V30 5234 H 494.483 -6.34957 2.86011 0
M  V30 5235 H 492.11 -6.79066 3.4172 0
M  V30 5236 N 493.685 -0.035106 -1.57561 0
M  V30 5237 C 494.615 0.942993 -2.13612 0
M  V30 5238 C 495.596 1.33531 -1.05373 0
M  V30 5239 O 496.781 1.41287 -1.33235 0
M  V30 5240 C 493.911 2.22332 -2.66807 0
M  V30 5241 C 492.865 1.97156 -3.79886 0
M  V30 5242 C 492.191 3.31506 -4.19533 0
M  V30 5243 C 493.491 1.30596 -5.05709 0
M  V30 5244 H 495.185 0.476179 -2.95589 0
M  V30 5245 H 492.731 0.227602 -1.4219 0
M  V30 5246 H 494.684 2.91142 -3.04654 0
M  V30 5247 H 493.408 2.7119 -1.81999 0
M  V30 5248 H 492.067 1.30763 -3.42486 0
M  V30 5249 H 491.715 3.78134 -3.31698 0
M  V30 5250 H 491.415 3.15465 -4.95738 0
M  V30 5251 H 492.939 4.01574 -4.59968 0
M  V30 5252 H 494.353 1.89416 -5.41105 0
M  V30 5253 H 492.75 1.24934 -5.86951 0
M  V30 5254 H 493.82 0.279742 -4.84092 0
M  V30 5255 N 495.163 1.55791 0.238111 0
M  V30 5256 C 496.126 1.90239 1.27835 0
M  V30 5257 C 497.126 0.779552 1.4064 0
M  V30 5258 O 498.316 1.04747 1.3919 0
M  V30 5259 C 495.448 2.13859 2.65475 0
M  V30 5260 H 496.641 2.83262 0.985034 0
M  V30 5261 H 494.194 1.48818 0.477799 0
M  V30 5262 H 494.929 1.23334 2.99932 0
M  V30 5263 H 494.714 2.95643 2.57561 0
M  V30 5264 H 496.204 2.41664 3.40571 0
M  V30 5265 N 496.642 -0.504142 1.49319 0
M  V30 5266 C 497.605 -1.5883 1.65244 0
M  V30 5267 C 498.605 -1.52009 0.524386 0
M  V30 5268 O 499.795 -1.55218 0.79077 0
M  V30 5269 C 496.927 -2.98481 1.64687 0
M  V30 5270 H 498.12 -1.4604 2.61939 0
M  V30 5271 H 495.673 -0.728144 1.38303 0
M  V30 5272 H 496.408 -3.16751 0.695644 0
M  V30 5273 H 496.193 -3.0484 2.46607 0
M  V30 5274 H 497.683 -3.77256 1.79075 0
M  V30 5275 N 498.12 -1.38341 -0.754957 0
M  V30 5276 C 499.05 -1.38176 -1.88227 0
M  V30 5277 C 500.031 -0.247873 -1.68284 0
M  V30 5278 O 501.216 -0.45075 -1.88896 0
M  V30 5279 C 498.346 -1.20471 -3.25736 0
M  V30 5280 C 497.3 -2.3105 -3.60278 0
M  V30 5281 C 496.626 -1.98452 -4.96509 0
M  V30 5282 C 497.926 -3.73305 -3.65295 0
M  V30 5283 H 499.62 -2.32512 -1.88622 0
M  V30 5284 H 497.166 -1.1192 -0.906082 0
M  V30 5285 H 499.119 -1.18982 -4.04254 0
M  V30 5286 H 497.843 -0.225965 -3.25817 0
M  V30 5287 H 496.502 -2.31723 -2.84078 0
M  V30 5288 H 496.15 -0.990641 -4.93148 0
M  V30 5289 H 495.85 -2.7251 -5.20588 0
M  V30 5290 H 497.374 -1.98578 -5.77407 0
M  V30 5291 H 498.788 -3.7467 -4.3393 0
M  V30 5292 H 497.185 -4.46557 -4.00883 0
M  V30 5293 H 498.255 -4.05719 -2.65556 0
M  V30 5294 N 499.598 0.982988 -1.23187 0
M  V30 5295 C 500.845 1.72392 -1.06241 0
M  V30 5296 C 501.173 1.9032 0.40108 0
M  V30 5297 O 500.428 1.45084 1.31336 0
M  V30 5298 C 500.727 3.12736 -1.73006 0
M  V30 5299 C 500.393 3.14695 -3.22921 0
M  V30 5300 C 499.055 3.14937 -3.63824 0
M  V30 5301 C 501.407 3.10211 -4.1883 0
M  V30 5302 C 498.735 3.08408 -4.99101 0
M  V30 5303 C 501.087 3.05224 -5.54095 0
M  V30 5304 C 499.751 3.03787 -5.94365 0
M  V30 5305 H 499.021 0.630829 -0.388762 0
M  V30 5306 H 501.668 1.15053 -1.53085 0
M  V30 5307 H 499.973 3.73446 -1.18514 0
M  V30 5308 H 501.67 3.68828 -1.57374 0
M  V30 5309 H 498.26 3.15262 -2.90358 0
M  V30 5310 H 502.444 3.09166 -3.8824 0
M  V30 5311 H 497.7 3.05646 -5.29519 0
M  V30 5312 H 501.874 3.00712 -6.28128 0
M  V30 5313 H 499.501 2.98483 -6.99151 0
M  V30 5314 N 501.076 1.04316 1.18135 0
M  V30 5315 C 502.324 0.746542 1.87806 0
M  V30 5316 C 502.645 -0.728082 1.80898 0
M  V30 5317 O 501.915 -1.52554 1.22899 0
M  V30 5318 H 500.495 0.273157 0.695265 0
M  V30 5319 H 503.157 1.32044 1.43354 0
M  V30 5320 H 502.253 1.05362 2.93778 0
M  V30 5321 N 502.554 -1.34406 0.822964 0
M  V30 5322 C 503.784 -2.02214 0.423424 0
M  V30 5323 C 504.192 -1.62124 -0.975322 0
M  V30 5324 O 503.535 -0.822452 -1.6426 0
M  V30 5325 C 503.597 -3.56721 0.446107 0
M  V30 5326 C 503.261 -4.20136 1.79819 0
M  V30 5327 C 504.258 -4.4065 2.75904 0
M  V30 5328 C 501.943 -4.56906 2.08669 0
M  V30 5329 C 503.937 -4.9706 3.99012 0
M  V30 5330 C 501.624 -5.13026 3.32036 0
M  V30 5331 C 502.622 -5.33047 4.27024 0
M  V30 5332 O 502.31 -5.87979 5.48211 0
M  V30 5333 H 502.042 -0.654748 0.168169 0
M  V30 5334 H 504.596 -1.72659 1.11257 0
M  V30 5335 H 502.826 -3.85537 -0.299734 0
M  V30 5336 H 504.515 -4.05845 0.0666114 0
M  V30 5337 H 505.281 -4.12607 2.54912 0
M  V30 5338 H 501.16 -4.40626 1.35535 0
M  V30 5339 H 504.704 -5.12603 4.73164 0
M  V30 5340 H 500.601 -5.40498 3.52891 0
M  V30 5341 H 501.369 -6.06413 5.49732 0
M  V30 5342 N 504.032 -0.577932 -1.46621 0
M  V30 5343 C 504.962 0.145917 -2.33044 0
M  V30 5344 C 505.943 0.888412 -1.45056 0
M  V30 5345 O 507.128 0.864812 -1.73881 0
M  V30 5346 C 504.258 1.16322 -3.27241 0
M  V30 5347 C 503.212 0.535868 -4.24632 0
M  V30 5348 C 502.538 1.65929 -5.08303 0
M  V30 5349 C 503.838 -0.523861 -5.19666 0
M  V30 5350 H 505.532 -0.575636 -2.93814 0
M  V30 5351 H 503.078 -0.278272 -1.41286 0
M  V30 5352 H 505.031 1.67793 -3.86553 0
M  V30 5353 H 503.755 1.91498 -2.64567 0
M  V30 5354 H 502.414 0.0422759 -3.66576 0
M  V30 5355 H 502.062 2.40061 -4.42018 0
M  V30 5356 H 501.762 1.2452 -5.74255 0
M  V30 5357 H 503.286 2.17686 -5.70478 0
M  V30 5358 H 504.7 -0.0944059 -5.73222 0
M  V30 5359 H 503.097 -0.858 -5.93935 0
M  V30 5360 H 504.167 -1.41197 -4.63887 0
M  V30 5361 N 505.51 1.54411 -0.315457 0
M  V30 5362 C 506.738 2.04833 0.291738 0
M  V30 5363 C 507.153 1.19203 1.46411 0
M  V30 5364 O 506.51 0.220867 1.81159 0
M  V30 5365 C 506.561 3.53969 0.73404 0
M  V30 5366 O 506.282 4.36346 -0.391682 0
M  V30 5367 C 507.783 4.2045 1.40489 0
M  V30 5368 H 505.003 0.668195 0.0612947 0
M  V30 5369 H 507.547 1.99276 -0.45929 0
M  V30 5370 H 505.702 3.5984 1.43506 0
M  V30 5371 H 506.116 5.24481 -0.0447088 0
M  V30 5372 H 507.59 5.26278 1.66539 0
M  V30 5373 H 508.067 3.71067 2.3496 0
M  V30 5374 H 508.673 4.18694 0.746662 0
M  V30 5375 N 506.988 0.0434614 1.5754 0
M  V30 5376 C 508.235 -0.632035 1.92384 0
M  V30 5377 C 508.563 -1.71304 0.921157 0
M  V30 5378 O 507.818 -1.95583 -0.067744 0
M  V30 5379 C 508.117 -1.2738 3.3393 0
M  V30 5380 C 507.783 -0.321757 4.49751 0
M  V30 5381 C 506.445 -0.0597611 4.81163 0
M  V30 5382 C 508.797 0.331158 5.20147 0
M  V30 5383 C 506.125 0.862715 5.80322 0
M  V30 5384 C 508.477 1.24178 6.20292 0
M  V30 5385 C 507.141 1.51252 6.50138 0
M  V30 5386 H 506.411 -0.231278 0.703983 0
M  V30 5387 H 509.058 0.108294 1.91194 0
M  V30 5388 H 507.363 -2.08921 3.3145 0
M  V30 5389 H 509.06 -1.80326 3.58167 0
M  V30 5390 H 505.65 -0.53614 4.25233 0
M  V30 5391 H 509.834 0.141826 4.96097 0
M  V30 5392 H 505.09 1.08003 6.01785 0
M  V30 5393 H 509.264 1.75381 6.73954 0
M  V30 5394 H 506.891 2.22897 7.26788 0
M  V30 5395 N 508.466 -1.55915 -0.229846 0
M  V30 5396 C 509.696 -1.82352 -0.971152 0
M  V30 5397 C 510.104 -0.619231 -1.7878 0
M  V30 5398 O 509.447 0.421597 -1.78797 0
M  V30 5399 C 509.509 -3.02399 -1.9441 0
M  V30 5400 C 509.173 -4.37739 -1.31277 0
M  V30 5401 C 510.17 -5.15074 -0.706757 0
M  V30 5402 C 507.855 -4.84454 -1.32702 0
M  V30 5403 C 509.849 -6.37281 -0.123413 0
M  V30 5404 C 507.536 -6.06605 -0.739831 0
M  V30 5405 C 508.534 -6.82858 -0.139071 0
M  V30 5406 O 508.222 -8.027 0.439007 0
M  V30 5407 H 507.954 -0.61035 -0.290601 0
M  V30 5408 H 510.508 -2.03839 -0.252746 0
M  V30 5409 H 508.738 -2.76709 -2.70128 0
M  V30 5410 H 510.427 -3.15779 -2.55026 0
M  V30 5411 H 511.193 -4.80093 -0.688131 0
M  V30 5412 H 507.072 -4.25081 -1.78402 0
M  V30 5413 H 510.616 -6.96741 0.346124 0
M  V30 5414 H 506.513 -6.4106 -0.755841 0
M  V30 5415 H 507.281 -8.17824 0.332521 0
M  V30 5416 N 509.944 0.496216 -1.49584 0
M  V30 5417 C 510.892 1.61805 -1.67098 0
M  V30 5418 C 511.886 1.60667 -0.536877 0
M  V30 5419 O 513.092 1.65118 -0.716654 0
M  V30 5420 H 509.467 0.53646 -0.526986 0
M  V30 5421 H 511.438 1.44187 -2.61252 0
M  V30 5422 C 510.187 2.99912 -1.75921 0
M  V30 5423 H 509.51 3.01496 -2.62565 0
M  V30 5424 H 510.95 3.77931 -1.92209 0
M  V30 5425 C 509.409 3.33092 -0.505088 0
M  V30 5426 O 509.939 4.00019 0.367085 0
M  V30 5427 N 508.145 2.88278 -0.366599 0
M  V30 5428 H 507.692 2.33989 -1.07735 0
M  V30 5429 H 507.65 3.10846 0.47142 0
M  V30 5430 N 511.423 1.38739 0.74761 0
M  V30 5431 C 512.671 1.35007 1.50391 0
M  V30 5432 C 512.992 -0.0574274 1.94915 0
M  V30 5433 O 512.262 -1.00628 1.6808 0
M  V30 5434 H 510.842 0.496784 0.557866 0
M  V30 5435 H 513.504 1.73479 0.888319 0
M  V30 5436 H 512.6 2.00474 2.392 0
M  V30 5437 N 512.901 -0.976442 1.23707 0
M  V30 5438 C 514.147 -1.72081 1.07312 0
M  V30 5439 C 514.48 -1.90275 -0.388476 0
M  V30 5440 O 513.755 -1.4579 -1.28746 0
M  V30 5441 C 514.038 -3.11675 1.80363 0
M  V30 5442 C 513.891 -3.01027 3.3422 0
M  V30 5443 C 515.21 -4.1117 1.5693 0
M  V30 5444 H 512.329 -0.624583 0.391236 0
M  V30 5445 H 514.971 -1.13649 1.52263 0
M  V30 5446 H 513.121 -3.61559 1.42153 0
M  V30 5447 H 514.793 -2.58637 3.81975 0
M  V30 5448 H 513.036 -2.3744 3.63049 0
M  V30 5449 H 513.707 -3.9988 3.80525 0
M  V30 5450 H 516.183 -3.7011 1.90151 0
M  V30 5451 H 515.059 -5.06928 2.10513 0
M  V30 5452 H 515.32 -4.392 0.505548 0
M  V30 5453 N 514.379 -1.04941 -1.1758 0
M  V30 5454 C 515.289 -0.658826 -2.25159 0
M  V30 5455 C 516.305 0.318941 -1.71052 0
M  V30 5456 O 517.481 0.171669 -2.00667 0
M  V30 5457 C 514.546 -0.0369522 -3.4668 0
M  V30 5458 C 513.607 -1.06484 -4.15884 0
M  V30 5459 C 512.84 -0.472551 -5.31604 0
M  V30 5460 O 513.063 0.718736 -5.65854 0
M  V30 5461 O 511.997 -1.20557 -5.89703 0
M  V30 5462 H 515.823 -1.55533 -2.60851 0
M  V30 5463 H 513.408 -0.820819 -1.24832 0
M  V30 5464 H 515.29 0.308784 -4.20267 0
M  V30 5465 H 513.965 0.833238 -3.12792 0
M  V30 5466 H 512.872 -1.46253 -3.44327 0
M  V30 5467 H 514.205 -1.9061 -4.53794 0
M  V30 5468 N 515.857 1.33968 -0.830081 0
M  V30 5469 C 517.082 2.02813 -0.433796 0
M  V30 5470 C 517.507 1.62076 0.954614 0
M  V30 5471 O 516.865 0.808955 1.62252 0
M  V30 5472 C 516.913 3.56348 -0.552115 0
M  V30 5473 O 516.017 4.10202 0.425191 0
M  V30 5474 H 515.358 0.639817 -0.177567 0
M  V30 5475 H 517.888 1.7106 -1.12248 0
M  V30 5476 H 517.898 4.05722 -0.430513 0
M  V30 5477 H 516.573 3.85344 -1.56471 0
M  V30 5478 H 515.15 3.71979 0.261878 0
M  V30 5479 N 517.335 0.585699 1.46312 0
M  V30 5480 C 518.245 -0.148236 2.34131 0
M  V30 5481 C 519.261 -0.882972 1.49932 0
M  V30 5482 O 520.437 -0.845484 1.82794 0
M  V30 5483 C 517.502 -1.14714 3.27172 0
M  V30 5484 C 516.563 -0.416746 4.27272 0
M  V30 5485 C 515.796 -1.36806 5.15868 0
M  V30 5486 O 516.019 -2.60475 5.07454 0
M  V30 5487 O 514.953 -0.877018 5.95476 0
M  V30 5488 H 518.779 0.572882 2.98248 0
M  V30 5489 H 516.364 0.346082 1.45336 0
M  V30 5490 H 518.246 -1.72303 3.84564 0
M  V30 5491 H 516.921 -1.84967 2.65648 0
M  V30 5492 H 515.828 0.201061 3.73559 0
M  V30 5493 H 517.161 0.244872 4.9159 0
M  V30 5494 N 518.813 -1.54241 0.323641 0
M  V30 5495 C 519.743 -2.27289 -0.534993 0
M  V30 5496 C 520.724 -1.28087 -1.11927 0
M  V30 5497 O 521.909 -1.56899 -1.14439 0
M  V30 5498 C 519.039 -3.03075 -1.69596 0
M  V30 5499 C 517.993 -4.09614 -1.24098 0
M  V30 5500 C 517.319 -4.73242 -2.4889 0
M  V30 5501 C 518.619 -5.21087 -0.355789 0
M  V30 5502 H 520.313 -2.99308 0.0743257 0
M  V30 5503 H 517.859 -1.43952 0.0371874 0
M  V30 5504 H 519.812 -3.52907 -2.30293 0
M  V30 5505 H 518.536 -2.28673 -2.33187 0
M  V30 5506 H 517.195 -3.60666 -0.656945 0
M  V30 5507 H 516.843 -3.95455 -3.10845 0
M  V30 5508 H 516.543 -5.45209 -2.19138 0
M  V30 5509 H 518.067 -5.25848 -3.10348 0
M  V30 5510 H 519.481 -5.66675 -0.869042 0
M  V30 5511 H 517.878 -5.9991 -0.151045 0
M  V30 5512 H 518.948 -4.81005 0.613339 0
M  V30 5513 N 520.291 -0.0518155 -1.57515 0
M  V30 5514 C 521.221 0.920283 -2.146 0
M  V30 5515 C 522.202 1.32406 -1.06783 0
M  V30 5516 O 523.387 1.39866 -1.34726 0
M  V30 5517 C 520.517 2.1949 -2.6915 0
M  V30 5518 C 519.471 1.93116 -3.81956 0
M  V30 5519 C 518.797 3.27037 -4.23026 0
M  V30 5520 C 520.097 1.25225 -5.07066 0
M  V30 5521 H 521.791 0.444801 -2.96077 0
M  V30 5522 H 519.337 0.212508 -1.42423 0
M  V30 5523 H 521.29 2.87894 -3.07725 0
M  V30 5524 H 520.014 2.69244 -1.84865 0
M  V30 5525 H 518.673 1.27123 -3.43854 0
M  V30 5526 H 518.321 3.74595 -3.3569 0
M  V30 5527 H 518.021 3.10189 -4.99056 0
M  V30 5528 H 519.545 3.96673 -4.64202 0
M  V30 5529 H 520.959 1.83666 -5.43083 0
M  V30 5530 H 519.356 1.18702 -5.88243 0
M  V30 5531 H 520.426 0.228382 -4.84362 0
M  V30 5532 N 521.769 1.56035 0.221574 0
M  V30 5533 C 522.719 1.8881 1.27807 0
M  V30 5534 C 523.703 0.751177 1.42289 0
M  V30 5535 O 524.895 1.01359 1.45104 0
M  V30 5536 C 522.024 2.20828 2.6285 0
M  V30 5537 C 521.11 3.40912 2.52269 0
M  V30 5538 N 521.501 4.59531 2.1134 0
M  V30 5539 C 519.799 3.44526 2.83228 0
M  V30 5540 C 520.5 5.41689 2.1201 0
M  V30 5541 N 519.476 4.814 2.52497 0
M  V30 5542 H 523.278 2.78036 0.952529 0
M  V30 5543 H 520.792 1.566 0.430134 0
M  V30 5544 H 522.789 2.42483 3.39127 0
M  V30 5545 H 521.449 1.32914 2.9625 0
M  V30 5546 H 522.46 4.8469 1.82472 0
M  V30 5547 H 519.137 2.66956 3.21 0
M  V30 5548 H 520.527 6.46643 1.82491 0
M  V30 5549 N 523.247 -0.488276 1.49845 0
M  V30 5550 C 524.475 -1.26527 1.63702 0
M  V30 5551 C 524.89 -1.8618 0.313447 0
M  V30 5552 O 524.247 -1.68432 -0.702624 0
M  V30 5553 C 524.298 -2.3864 2.71538 0
M  V30 5554 O 524.019 -1.81437 3.98763 0
M  V30 5555 C 525.52 -3.29805 2.96215 0
M  V30 5556 H 522.74 -0.383295 0.55075 0
M  V30 5557 H 525.284 -0.584779 1.95961 0
M  V30 5558 H 523.439 -3.02496 2.42023 0
M  V30 5559 H 523.853 -2.55135 4.58265 0
M  V30 5560 H 525.327 -4.04722 3.75372 0
M  V30 5561 H 525.804 -3.87563 2.06619 0
M  V30 5562 H 526.41 -2.71703 3.27196 0
M  V30 5563 N 524.725 -1.39134 -0.740242 0
M  V30 5564 C 525.955 -1.39132 -1.52728 0
M  V30 5565 C 526.363 0.0173133 -1.89192 0
M  V30 5566 O 525.706 0.997715 -1.54244 0
M  V30 5567 C 525.768 -2.1952 -2.84695 0
M  V30 5568 C 525.432 -3.68203 -2.70695 0
M  V30 5569 C 526.429 -4.61401 -2.39593 0
M  V30 5570 C 524.114 -4.11724 -2.8773 0
M  V30 5571 C 526.108 -5.96102 -2.25701 0
M  V30 5572 C 523.795 -5.46503 -2.73456 0
M  V30 5573 C 524.793 -6.38506 -2.42486 0
M  V30 5574 O 524.481 -7.70803 -2.28295 0
M  V30 5575 H 524.213 -0.477263 -0.478744 0
M  V30 5576 H 526.767 -1.83504 -0.922799 0
M  V30 5577 H 524.997 -1.69888 -3.47383 0
M  V30 5578 H 526.686 -2.1176 -3.46284 0
M  V30 5579 H 527.452 -4.29079 -2.26088 0
M  V30 5580 H 523.331 -3.4045 -3.10829 0
M  V30 5581 H 526.875 -6.6788 -2.0145 0
M  V30 5582 H 522.772 -5.78417 -2.86538 0
M  V30 5583 H 523.54 -7.8147 -2.43405 0
M  V30 5584 N 526.204 0.969867 -1.24223 0
M  V30 5585 C 527.429 1.75289 -1.10853 0
M  V30 5586 C 527.854 1.85091 0.335079 0
M  V30 5587 O 527.212 1.32024 1.24255 0
M  V30 5588 C 527.26 3.15255 -1.75062 0
M  V30 5589 O 526.364 3.99589 -1.01992 0
M  V30 5590 H 525.705 0.538904 -0.387915 0
M  V30 5591 H 528.235 1.21675 -1.64488 0
M  V30 5592 H 528.245 3.65787 -1.80731 0
M  V30 5593 H 526.92 3.07436 -2.801 0
M  V30 5594 H 525.497 3.58077 -1.04094 0
M  V30 5595 N 527.682 1.05563 1.17022 0
M  V30 5596 C 528.629 0.659893 2.21165 0
M  V30 5597 C 529.599 -0.339813 1.62587 0
M  V30 5598 O 530.784 -0.230378 1.89404 0
M  V30 5599 C 527.924 0.0447297 3.45071 0
M  V30 5600 C 527.037 1.09372 4.17926 0
M  V30 5601 C 526.172 0.445481 5.29329 0
M  V30 5602 C 525.211 1.47852 5.93975 0
M  V30 5603 N 524.348 0.854172 6.96885 0
M  V30 5604 H 529.188 1.55243 2.54369 0
M  V30 5605 H 526.725 0.776336 1.24946 0
M  V30 5606 H 528.683 -0.329404 4.15898 0
M  V30 5607 H 527.313 -0.811244 3.1244 0
M  V30 5608 H 526.365 1.58564 3.45777 0
M  V30 5609 H 527.677 1.87773 4.62107 0
M  V30 5610 H 526.831 0.0179688 6.06697 0
M  V30 5611 H 525.57 -0.370481 4.86291 0
M  V30 5612 H 524.575 1.91601 5.15334 0
M  V30 5613 H 525.8 2.29645 6.39093 0
M  V30 5614 H 523.746 0.0587882 6.55974 0
M  V30 5615 H 523.663 1.57567 7.39397 0
M  V30 5616 H 524.931 0.451559 7.78191 0
M  V30 5617 N 529.16 -1.33526 0.837174 0
M  V30 5618 C 530.406 -1.9813 0.432704 0
M  V30 5619 C 530.739 -1.66168 -1.00508 0
M  V30 5620 O 530.014 -0.94069 -1.70239 0
M  V30 5621 C 530.297 -3.54151 0.651834 0
M  V30 5622 C 530.15 -3.95806 2.13676 0
M  V30 5623 C 531.469 -4.39993 0.0968937 0
M  V30 5624 H 528.588 -0.719713 0.15869 0
M  V30 5625 H 531.23 -1.58193 1.05237 0
M  V30 5626 H 529.38 -3.88301 0.124369 0
M  V30 5627 H 531.052 -3.71921 2.72896 0
M  V30 5628 H 529.295 -3.45599 2.62191 0
M  V30 5629 H 529.966 -5.0447 2.24084 0
M  V30 5630 H 532.442 -4.12479 0.547733 0
M  V30 5631 H 531.318 -5.48186 0.279917 0
M  V30 5632 H 531.579 -4.3066 -0.9992 0
M  V30 5633 N 530.638 -0.59345 -1.46 0
M  V30 5634 C 531.915 -0.0157933 -1.95594 0
M  V30 5635 C 532.295 1.44807 -1.53604 0
M  V30 5636 O 531.643 2.14342 -0.791824 0
M  V30 5637 C 531.853 -0.199081 -3.48432 0
M  V30 5638 C 533.201 -0.0724943 -4.24538 0
M  V30 5639 O 534.225 -0.128469 -3.55968 0
M  V30 5640 O 533.084 0.0542426 -5.46473 0
M  V30 5641 H 530.178 0.043749 -0.825842 0
M  V30 5642 H 532.724 -0.662522 -1.56233 0
M  V30 5643 H 531.496 -1.21631 -3.71916 0
M  V30 5644 H 531.119 0.483576 -3.94648 0
M  V30 5645 N 532.116 1.54067 -0.331816 0
M  V30 5646 C 533.527 1.86059 0.15454 0
M  V30 5647 C 533.878 1.25331 1.50952 0
M  V30 5648 O 533.003 0.562441 2.08963 0
M  V30 5649 C 533.598 3.37581 0.287192 0
M  V30 5650 C 532.157 3.69493 0.717773 0
M  V30 5651 C 531.304 2.76863 -0.155569 0
M  V30 5652 H 534.255 1.48797 -0.55182 0
M  V30 5653 H 534.276 3.63744 1.11671 0
M  V30 5654 H 533.788 3.81751 -0.699131 0
M  V30 5655 H 531.889 3.3086 1.71354 0
M  V30 5656 H 532.002 4.76315 0.5158 0
M  V30 5657 H 530.366 2.51995 0.370213 0
M  V30 5658 H 531.149 3.23861 -1.13881 0
M  V30 5659 N 533.594 0.0601682 1.57485 0
M  V30 5660 C 534.841 -0.611594 1.93043 0
M  V30 5661 C 535.169 -1.70317 0.939274 0
M  V30 5662 O 534.424 -1.95644 -0.046996 0
M  V30 5663 C 534.723 -1.23831 3.35262 0
M  V30 5664 C 534.389 -0.274037 4.50066 0
M  V30 5665 C 533.051 -0.00872394 4.81199 0
M  V30 5666 C 535.403 0.386308 5.19766 0
M  V30 5667 C 532.731 0.924218 5.79375 0
M  V30 5668 C 535.083 1.3075 6.1894 0
M  V30 5669 C 533.747 1.58139 6.48497 0
M  V30 5670 H 533.017 -0.223798 0.706396 0
M  V30 5671 H 535.664 0.128566 1.91068 0
M  V30 5672 H 533.969 -2.05394 3.33647 0
M  V30 5673 H 535.666 -1.76517 3.60059 0
M  V30 5674 H 532.256 -0.491008 4.25778 0
M  V30 5675 H 536.44 0.194436 4.95919 0
M  V30 5676 H 531.696 1.1438 6.00606 0
M  V30 5677 H 535.87 1.82519 6.72056 0
M  V30 5678 H 533.497 2.30593 7.24383 0
M  V30 5679 N 535.072 -1.5615 -0.213296 0
M  V30 5680 C 536.349 -1.70349 -0.961281 0
M  V30 5681 C 536.729 -0.609791 -2.02101 0
M  V30 5682 O 536.077 0.381987 -2.25285 0
M  V30 5683 C 536.287 -3.11982 -1.56424 0
M  V30 5684 C 537.635 -3.71649 -2.05334 0
M  V30 5685 O 538.659 -3.14995 -1.66302 0
M  V30 5686 O 537.518 -4.71038 -2.77102 0
M  V30 5687 H 534.612 -0.694121 -0.449582 0
M  V30 5688 H 537.158 -1.68464 -0.204426 0
M  V30 5689 H 535.93 -3.83046 -0.799457 0
M  V30 5690 H 535.553 -3.18019 -2.38641 0
M  V30 5691 N 536.55 0.480323 -1.50102 0
M  V30 5692 C 537.796 1.23489 -1.60867 0
M  V30 5693 C 538.129 1.91809 -0.303827 0
M  V30 5694 O 537.404 1.81694 0.694092 0
M  V30 5695 C 537.687 2.28578 -2.78252 0
M  V30 5696 C 537.54 1.64624 -4.18592 0
M  V30 5697 C 538.859 3.2997 -2.91218 0
M  V30 5698 H 535.978 0.447605 -0.585507 0
M  V30 5699 H 538.62 0.530005 -1.82458 0
M  V30 5700 H 536.77 2.88697 -2.59974 0
M  V30 5701 H 538.442 1.08173 -4.48438 0
M  V30 5702 H 536.685 0.949645 -4.23278 0
M  V30 5703 H 537.356 2.40946 -4.96638 0
M  V30 5704 H 539.832 2.79864 -3.07921 0
M  V30 5705 H 538.708 4.00839 -3.74993 0
M  V30 5706 H 538.969 3.93541 -2.0144 0
M  V30 5707 N 538.028 1.39524 0.732853 0
M  V30 5708 C 538.958 1.41153 1.86005 0
M  V30 5709 C 539.939 0.274614 1.67869 0
M  V30 5710 O 541.124 0.480745 1.88155 0
M  V30 5711 C 538.254 1.25638 3.23778 0
M  V30 5712 C 537.208 2.36752 3.56556 0
M  V30 5713 C 536.534 2.06326 4.93289 0
M  V30 5714 C 537.834 3.79069 3.5931 0
M  V30 5715 H 539.528 2.35484 1.84899 0
M  V30 5716 H 537.074 1.13348 0.888162 0
M  V30 5717 H 539.027 1.25398 4.0231 0
M  V30 5718 H 537.751 0.277772 3.25417 0
M  V30 5719 H 536.41 2.36213 2.80355 0
M  V30 5720 H 536.058 1.06897 4.9151 0
M  V30 5721 H 535.758 2.80757 5.16187 0
M  V30 5722 H 537.282 2.07739 5.74175 0
M  V30 5723 H 538.696 3.81526 4.27914 0
M  V30 5724 H 537.093 4.52878 3.93728 0
M  V30 5725 H 538.163 4.09893 2.59068 0
M  V30 5726 N 539.506 -0.963266 1.24736 0
M  V30 5727 C 540.755 -1.70115 1.08369 0
M  V30 5728 C 541.068 -1.91939 -0.376688 0
M  V30 5729 O 542.274 -2.6334 -0.660624 0
M  V30 5730 C 540.73 -3.06218 1.89099 0
M  V30 5731 C 540.338 -2.92221 3.39574 0
M  V30 5732 C 542.082 -3.83848 1.81275 0
M  V30 5733 C 539.989 -4.23662 4.12631 0
M  V30 5734 H 538.919 -0.637944 0.401924 0
M  V30 5735 H 541.57 -1.07304 1.48856 0
M  V30 5736 H 539.952 -3.69884 1.41429 0
M  V30 5737 H 541.126 -2.37541 3.94856 0
M  V30 5738 H 539.441 -2.28054 3.48397 0
M  V30 5739 H 542.038 -4.81188 2.33158 0
M  V30 5740 H 542.381 -4.08949 0.778895 0
M  V30 5741 H 542.914 -3.26918 2.26649 0
M  V30 5742 H 539.653 -4.03753 5.16395 0
M  V30 5743 H 539.173 -4.78141 3.62135 0
M  V30 5744 H 540.852 -4.92256 4.19873 0
M  V30 5745 N 540.985 -1.06182 -1.16461 0
M  V30 5746 C 541.915 -0.692861 -2.22984 0
M  V30 5747 C 542.896 0.314122 -1.67174 0
M  V30 5748 O 544.081 0.189499 -1.93273 0
M  V30 5749 C 541.211 -0.07732 -3.47214 0
M  V30 5750 C 540.165 -1.01015 -4.15909 0
M  V30 5751 C 539.491 -0.257973 -5.34077 0
M  V30 5752 C 540.791 -2.33868 -4.67015 0
M  V30 5753 H 542.485 -1.58343 -2.54102 0
M  V30 5754 H 540.031 -0.76279 -1.22137 0
M  V30 5755 H 541.984 0.19266 -4.20959 0
M  V30 5756 H 540.708 0.848254 -3.15392 0
M  V30 5757 H 539.367 -1.26486 -3.44088 0
M  V30 5758 H 539.015 0.670684 -4.98509 0
M  V30 5759 H 538.715 -0.879638 -5.80979 0
M  V30 5760 H 540.239 0.00448788 -6.106 0
M  V30 5761 H 541.653 -2.1279 -5.32347 0
M  V30 5762 H 540.05 -2.91522 -5.24533 0
M  V30 5763 H 541.12 -2.97019 -3.83286 0
M  V30 5764 N 542.463 1.3308 -0.844243 0
M  V30 5765 C 543.703 1.99414 -0.448697 0
M  V30 5766 C 544.067 1.65398 0.975058 0
M  V30 5767 O 545.268 2.24741 1.47461 0
M  V30 5768 C 543.539 3.51081 -0.669089 0
M  V30 5769 S 545.098 4.37241 -0.369564 0
M  V30 5770 H 541.916 0.690736 -0.168538 0
M  V30 5771 H 544.518 1.61977 -1.0947 0
M  V30 5772 H 543.222 3.73326 -1.70457 0
M  V30 5773 H 542.753 3.93399 -0.00913211 0
M  V30 5774 H 544.768 4.89568 0.808552 0
M  V30 5775 N 543.941 0.601185 1.45683 0
M  V30 5776 C 545.187 0.0940202 2.02582 0
M  V30 5777 C 545.52 -1.26972 1.46941 0
M  V30 5778 O 544.795 -1.83613 0.641612 0
M  V30 5779 C 545.078 0.0481715 3.60068 0
M  V30 5780 C 544.931 1.44212 4.26055 0
M  V30 5781 C 546.25 -0.642975 4.35378 0
M  V30 5782 H 543.369 0.0356404 0.736138 0
M  V30 5783 H 546.011 0.771929 1.73612 0
M  V30 5784 H 544.161 -0.529128 3.8488 0
M  V30 5785 H 545.833 2.06601 4.12449 0
M  V30 5786 H 544.076 2.00465 3.84703 0
M  V30 5787 H 544.747 1.36234 5.34925 0
M  V30 5788 H 547.223 -0.152351 4.15821 0
M  V30 5789 H 546.099 -0.644141 5.45107 0
M  V30 5790 H 546.36 -1.70785 4.0778 0
M  V30 5791 N 545.419 -1.53889 0.339982 0
M  V30 5792 C 546.835 -1.59595 -0.0120752 0
M  V30 5793 C 547.035 -1.35605 -1.49042 0
M  V30 5794 O 546.091 -1.14856 -2.24865 0
M  V30 5795 C 547.404 -2.9774 0.420898 0
M  V30 5796 C 548.952 -3.1077 0.37294 0
M  V30 5797 C 549.427 -4.51286 0.781327 0
M  V30 5798 N 550.918 -4.57325 0.735374 0
M  V30 5799 C 551.653 -5.64194 1.02336 0
M  V30 5800 N 551.149 -6.7893 1.37933 0
M  V30 5801 N 552.942 -5.54051 0.947838 0
M  V30 5802 H 545.093 -1.67738 1.30299 0
M  V30 5803 H 547.356 -0.785385 0.530918 0
M  V30 5804 H 547.062 -3.20349 1.45152 0
M  V30 5805 H 546.936 -3.76639 -0.205721 0
M  V30 5806 H 549.323 -2.87886 -0.648505 0
M  V30 5807 H 549.404 -2.33939 1.03472 0
M  V30 5808 H 549.048 -4.74905 1.80077 0
M  V30 5809 H 548.978 -5.26511 0.0970679 0
M  V30 5810 H 551.469 -3.74931 0.472773 0
M  V30 5811 H 551.782 -7.56392 1.58402 0
M  V30 5812 H 550.127 -6.80386 1.41774 0
M  V30 5813 H 553.318 -4.63293 0.669115 0
M  V30 5814 H 553.491 -6.37246 1.17563 0
M  V30 5815 N 546.897 -0.0685191 -1.57451 0
M  V30 5816 C 548.143 0.602239 -1.93652 0
M  V30 5817 C 548.476 1.6946 -0.948526 0
M  V30 5818 O 547.751 1.94487 0.022782 0
M  V30 5819 C 548.034 1.18223 -3.4014 0
M  V30 5820 C 547.887 0.0967431 -4.49696 0
M  V30 5821 C 549.206 2.08872 -3.87377 0
M  V30 5822 H 546.325 0.217453 -0.70419 0
M  V30 5823 H 548.967 -0.133821 -1.89528 0
M  V30 5824 H 547.117 1.80953 -3.43785 0
M  V30 5825 H 548.789 -0.536155 -4.58174 0
M  V30 5826 H 547.032 -0.573063 -4.29998 0
M  V30 5827 H 547.703 0.542894 -5.49324 0
M  V30 5828 H 550.179 1.56081 -3.85717 0
M  V30 5829 H 549.055 2.46389 -4.90493 0
M  V30 5830 H 549.316 2.99572 -3.25129 0
M  V30 5831 N 548.375 1.56261 0.205012 0
M  V30 5832 C 549.338 1.92908 1.23771 0
M  V30 5833 C 550.338 0.809208 1.38955 0
M  V30 5834 O 551.528 1.07676 1.36936 0
M  V30 5835 C 548.66 2.19442 2.60879 0
M  V30 5836 H 549.853 2.85287 0.924728 0
M  V30 5837 H 547.406 1.49798 0.446125 0
M  V30 5838 H 548.141 1.29668 2.97248 0
M  V30 5839 H 547.926 3.0104 2.51232 0
M  V30 5840 H 549.416 2.48833 3.35368 0
M  V30 5841 N 549.853 -0.472356 1.50355 0
M  V30 5842 C 551.099 -1.22634 1.6152 0
M  V30 5843 C 551.432 -1.91645 0.313995 0
M  V30 5844 O 550.707 -1.82059 -0.684446 0
M  V30 5845 C 550.99 -2.27099 2.7946 0
M  V30 5846 C 550.843 -1.62402 4.19459 0
M  V30 5847 C 552.162 -3.28421 2.92964 0
M  V30 5848 H 549.281 -0.444494 0.587873 0
M  V30 5849 H 551.923 -0.520321 1.82737 0
M  V30 5850 H 550.073 -2.87314 2.61501 0
M  V30 5851 H 551.745 -1.05793 4.49005 0
M  V30 5852 H 549.988 -0.927184 4.23776 0
M  V30 5853 H 550.659 -2.38309 4.97909 0
M  V30 5854 H 553.135 -2.78227 3.09401 0
M  V30 5855 H 552.011 -3.98845 3.77113 0
M  V30 5856 H 552.272 -3.92467 2.03525 0
M  V30 5857 N 551.331 -1.39911 -0.725443 0
M  V30 5858 C 552.261 -1.42138 -1.85254 0
M  V30 5859 C 553.242 -0.283513 -1.67721 0
M  V30 5860 O 554.427 -0.490717 -1.87898 0
M  V30 5861 C 551.557 -1.27354 -3.23107 0
M  V30 5862 C 550.511 -2.3864 -3.55296 0
M  V30 5863 C 549.837 -2.08939 -4.92188 0
M  V30 5864 C 551.137 -3.8097 -3.57295 0
M  V30 5865 H 552.831 -2.36461 -1.83648 0
M  V30 5866 H 550.377 -1.13817 -0.882138 0
M  V30 5867 H 552.33 -1.2753 -4.01639 0
M  V30 5868 H 551.054 -0.295025 -3.25265 0
M  V30 5869 H 549.713 -2.37696 -2.79099 0
M  V30 5870 H 549.361 -1.09502 -4.90936 0
M  V30 5871 H 549.061 -2.83491 -5.14691 0
M  V30 5872 H 550.585 -2.10781 -5.73065 0
M  V30 5873 H 551.999 -3.8379 -4.25885 0
M  V30 5874 H 550.396 -4.5496 -3.9132 0
M  V30 5875 H 551.466 -4.11261 -2.5689 0
M  V30 5876 N 552.809 0.956637 -1.25245 0
M  V30 5877 C 554.037 1.73571 -1.12608 0
M  V30 5878 C 554.452 1.86063 0.320324 0
M  V30 5879 O 553.809 1.35691 1.22042 0
M  V30 5880 C 553.86 3.15053 -1.77268 0
M  V30 5881 O 553.581 3.03174 -3.16255 0
M  V30 5882 C 555.082 4.09248 -1.70386 0
M  V30 5883 H 552.302 0.543955 -0.392879 0
M  V30 5884 H 554.846 1.20031 -1.65568 0
M  V30 5885 H 553.001 3.65543 -1.28284 0
M  V30 5886 H 553.415 3.9241 -3.48015 0
M  V30 5887 H 554.889 5.06138 -2.20291 0
M  V30 5888 H 555.366 4.34102 -0.667239 0
M  V30 5889 H 555.972 3.64672 -2.18849 0
M  V30 5890 N 554.287 1.06798 1.15896 0
M  V30 5891 C 555.25 0.687328 2.18651 0
M  V30 5892 C 556.25 -0.269559 1.58524 0
M  V30 5893 O 557.44 -0.0512627 1.74125 0
M  V30 5894 C 554.572 0.0121642 3.40898 0
M  V30 5895 H 555.765 1.59701 2.53842 0
M  V30 5896 H 553.318 0.863828 1.3026 0
M  V30 5897 H 554.053 -0.910025 3.1127 0
M  V30 5898 H 553.838 0.700309 3.85795 0
M  V30 5899 H 555.328 -0.239703 4.16911 0
M  V30 5900 N 555.766 -1.3263 0.851289 0
M  V30 5901 C 557.012 -1.9766 0.453694 0
M  V30 5902 C 557.345 -1.67225 -0.987396 0
M  V30 5903 O 556.62 -0.958693 -1.69232 0
M  V30 5904 C 556.903 -3.5344 0.68936 0
M  V30 5905 C 556.756 -3.93517 2.17862 0
M  V30 5906 C 558.075 -4.39866 0.143555 0
M  V30 5907 H 555.194 -0.717989 0.166314 0
M  V30 5908 H 557.836 -1.57068 1.06909 0
M  V30 5909 H 555.986 -3.88147 0.165546 0
M  V30 5910 H 557.658 -3.69006 2.76826 0
M  V30 5911 H 555.901 -3.42798 2.65841 0
M  V30 5912 H 556.572 -5.02065 2.29422 0
M  V30 5913 H 559.048 -4.11875 0.591451 0
M  V30 5914 H 557.924 -5.47858 0.338043 0
M  V30 5915 H 558.185 -4.31696 -0.953466 0
M  V30 5916 N 557.244 -0.608902 -1.45362 0
M  V30 5917 C 558.472 -0.111013 -2.06602 0
M  V30 5918 C 558.887 1.20516 -1.45332 0
M  V30 5919 O 558.244 1.73437 -0.567978 0
M  V30 5920 C 558.295 0.033688 -3.61484 0
M  V30 5921 O 558.016 -1.23041 -4.20467 0
M  V30 5922 C 559.517 0.562882 -4.39712 0
M  V30 5923 H 556.737 -0.0694453 -0.667397 0
M  V30 5924 H 559.281 -0.837008 -1.86586 0
M  V30 5925 H 557.436 0.710016 -3.80838 0
M  V30 5926 H 557.85 -1.06094 -5.13658 0
M  V30 5927 H 559.324 0.613213 -5.48583 0
M  V30 5928 H 559.801 1.58543 -4.09586 0
M  V30 5929 H 560.407 -0.0794454 -4.25226 0
M  V30 5930 N 558.722 1.53707 -0.348139 0
M  V30 5931 C 559.652 2.28111 0.498766 0
M  V30 5932 C 560.633 1.29851 1.09876 0
M  V30 5933 O 561.818 1.587 1.11928 0
M  V30 5934 C 558.948 3.05735 1.64753 0
M  V30 5935 C 557.902 4.11537 1.17565 0
M  V30 5936 C 557.228 4.77142 2.4133 0
M  V30 5937 C 558.528 5.21587 0.272844 0
M  V30 5938 H 560.222 2.99152 -0.121934 0
M  V30 5939 H 557.768 1.43875 -0.0600842 0
M  V30 5940 H 559.721 3.56526 2.24649 0
M  V30 5941 H 558.445 2.32354 2.2952 0
M  V30 5942 H 557.104 3.61665 0.599483 0
M  V30 5943 H 556.752 4.0035 3.04514 0
M  V30 5944 H 556.452 5.48626 2.10436 0
M  V30 5945 H 557.976 5.30719 3.01943 0
M  V30 5946 H 559.39 5.67986 0.778779 0
M  V30 5947 H 557.787 6.00074 0.0555849 0
M  V30 5948 H 558.857 4.79969 -0.689785 0
M  V30 5949 N 560.2 0.0768682 1.57412 0
M  V30 5950 C 561.428 -0.59997 1.9801 0
M  V30 5951 C 561.843 -1.62842 0.955408 0
M  V30 5952 O 561.2 -1.8241 -0.057314 0
M  V30 5953 C 561.251 -1.26401 3.38681 0
M  V30 5954 O 560.972 -0.276723 4.37225 0
M  V30 5955 C 562.473 -2.0282 3.94182 0
M  V30 5956 H 559.693 -0.162239 0.651091 0
M  V30 5957 H 562.237 0.150771 2.03943 0
M  V30 5958 H 560.392 -1.96581 3.33819 0
M  V30 5959 H 560.806 -0.753744 5.19056 0
M  V30 5960 H 562.28 -2.44667 4.94815 0
M  V30 5961 H 562.757 -2.88678 3.31001 0
M  V30 5962 H 563.363 -1.37496 4.02461 0
M  V30 5963 N 561.678 -1.56367 -0.196722 0
M  V30 5964 C 562.924 -1.80796 -0.918725 0
M  V30 5965 C 563.257 -0.650645 -1.82976 0
M  V30 5966 O 562.532 0.348889 -1.91345 0
M  V30 5967 C 562.815 -3.15472 -1.73636 0
M  V30 5968 C 562.668 -4.41693 -0.85015 0
M  V30 5969 C 563.987 -3.46824 -2.70927 0
M  V30 5970 H 561.106 -0.657702 -0.332561 0
M  V30 5971 H 563.748 -1.89086 -0.186186 0
M  V30 5972 H 561.898 -3.08536 -2.36088 0
M  V30 5973 H 563.57 -4.60673 -0.240459 0
M  V30 5974 H 561.813 -4.33517 -0.156785 0
M  V30 5975 H 562.484 -5.32419 -1.45719 0
M  V30 5976 H 564.96 -3.54049 -2.18607 0
M  V30 5977 H 563.836 -4.4218 -3.25219 0
M  V30 5978 H 564.097 -2.70236 -3.49893 0
M  V30 5979 N 563.156 0.464375 -1.50603 0
M  V30 5980 C 564.567 1.04507 -1.5471 0
M  V30 5981 C 564.918 1.9297 -0.354542 0
M  V30 5982 O 564.043 2.09763 0.531812 0
M  V30 5983 C 564.638 1.90207 -2.80369 0
M  V30 5984 C 563.197 2.43373 -2.87135 0
M  V30 5985 C 562.344 1.21886 -2.49076 0
M  V30 5986 H 565.295 0.246716 -1.56771 0
M  V30 5987 H 565.316 2.75353 -2.62604 0
M  V30 5988 H 564.828 1.25796 -3.67147 0
M  V30 5989 H 562.929 3.11318 -2.04724 0
M  V30 5990 H 563.042 2.7802 -3.90181 0
M  V30 5991 H 561.406 1.55575 -2.01664 0
M  V30 5992 H 562.189 0.591268 -3.3817 0
M  V30 5993 N 564.634 1.40294 0.718013 0
M  V30 5994 C 565.883 1.37746 1.4734 0
M  V30 5995 C 566.196 -0.0180754 1.95592 0
M  V30 5996 O 567.402 -0.166166 2.70991 0
M  V30 5997 C 565.858 2.4208 2.66318 0
M  V30 5998 C 565.466 3.87432 2.24945 0
M  V30 5999 C 567.21 2.48635 3.44065 0
M  V30 6000 C 565.117 4.83368 3.40748 0
M  V30 6001 H 564.047 0.512165 0.553356 0
M  V30 6002 H 566.698 1.66019 0.781661 0
M  V30 6003 H 565.08 2.06903 3.3765 0
M  V30 6004 H 566.254 4.3174 1.6105 0
M  V30 6005 H 564.569 3.8433 1.60249 0
M  V30 6006 H 567.166 3.17499 4.30231 0
M  V30 6007 H 567.509 1.51611 3.87711 0
M  V30 6008 H 568.042 2.82791 2.79775 0
M  V30 6009 H 564.781 5.81716 3.02136 0
M  V30 6010 H 564.301 4.43726 4.03568 0
M  V30 6011 H 565.98 5.03074 4.06848 0
M  V30 6012 N 566.112 -0.949982 1.2575 0
M  V30 6013 C 567.358 -1.69766 1.10938 0
M  V30 6014 C 567.691 -1.91056 -0.348028 0
M  V30 6015 O 566.966 -1.48488 -1.25625 0
M  V30 6016 C 567.249 -3.07779 1.86933 0
M  V30 6017 C 567.102 -2.9387 3.4053 0
M  V30 6018 C 568.421 -4.07749 1.65616 0
M  V30 6019 H 565.54 -0.616144 0.404396 0
M  V30 6020 H 568.182 -1.10394 1.54639 0
M  V30 6021 H 566.332 -3.58462 1.4979 0
M  V30 6022 H 568.004 -2.50476 3.87375 0
M  V30 6023 H 566.247 -2.29686 3.68004 0
M  V30 6024 H 566.918 -3.91719 3.88922 0
M  V30 6025 H 569.394 -3.65994 1.97959 0
M  V30 6026 H 568.27 -5.02348 2.21218 0
M  V30 6027 H 568.531 -4.38029 0.598595 0
M  V30 6028 N 567.59 -1.07411 -1.15328 0
M  V30 6029 C 568.52 -0.716472 -2.22236 0
M  V30 6030 C 569.501 0.296373 -1.67498 0
M  V30 6031 O 570.686 0.168989 -1.93463 0
M  V30 6032 C 567.816 -0.114142 -3.47112 0
M  V30 6033 C 566.77 -1.05421 -4.14814 0
M  V30 6034 C 566.096 -0.314604 -5.33774 0
M  V30 6035 C 567.396 -2.38808 -4.64508 0
M  V30 6036 H 569.09 -1.61029 -2.52408 0
M  V30 6037 H 566.636 -0.775702 -1.21321 0
M  V30 6038 H 568.589 0.148001 -4.2114 0
M  V30 6039 H 567.313 0.814755 -3.16274 0
M  V30 6040 H 565.972 -1.30128 -3.42728 0
M  V30 6041 H 565.62 0.617772 -4.99192 0
M  V30 6042 H 565.32 -0.941209 -5.80013 0
M  V30 6043 H 566.844 -0.0602747 -6.1057 0
M  V30 6044 H 568.258 -2.18424 -5.3006 0
M  V30 6045 H 566.655 -2.97069 -5.21412 0
M  V30 6046 H 567.725 -3.01067 -3.80114 0
M  V30 6047 N 569.068 1.32177 -0.85831 0
M  V30 6048 C 570.315 1.97125 -0.463484 0
M  V30 6049 C 570.643 1.67907 0.981705 0
M  V30 6050 O 569.898 0.961717 1.70439 0
M  V30 6051 C 570.197 3.51372 -0.653658 0
M  V30 6052 C 569.863 4.00584 -2.06987 0
M  V30 6053 C 568.525 4.13733 -2.4572 0
M  V30 6054 C 570.877 4.26624 -2.99402 0
M  V30 6055 C 568.205 4.50268 -3.76132 0
M  V30 6056 C 570.557 4.64618 -4.29316 0
M  V30 6057 C 569.221 4.75975 -4.67979 0
M  V30 6058 H 568.491 0.72133 -0.169601 0
M  V30 6059 H 571.138 1.57517 -1.08907 0
M  V30 6060 H 569.443 3.91761 0.0551328 0
M  V30 6061 H 571.14 3.99655 -0.328163 0
M  V30 6062 H 567.73 3.90837 -1.75911 0
M  V30 6063 H 571.914 4.1597 -2.70708 0
M  V30 6064 H 567.17 4.57256 -4.05865 0
M  V30 6065 H 571.344 4.83722 -5.00985 0
M  V30 6066 H 568.971 5.04041 -5.69076 0
M  V30 6067 N 570.547 0.616602 1.45037 0
M  V30 6068 C 571.958 0.199359 1.85633 0
M  V30 6069 C 572.309 -1.24588 1.51566 0
M  V30 6070 O 571.434 -1.94594 0.94668 0
M  V30 6071 C 572.029 0.355033 3.36935 0
M  V30 6072 C 570.588 -0.00758748 3.76399 0
M  V30 6073 C 569.735 0.675256 2.68953 0
M  V30 6074 H 572.686 0.822708 1.3571 0
M  V30 6075 H 572.707 -0.410201 3.78282 0
M  V30 6076 H 572.219 1.40699 3.61698 0
M  V30 6077 H 570.32 -1.05837 3.57252 0
M  V30 6078 H 570.433 0.392346 4.77491 0
M  V30 6079 H 568.797 0.111992 2.54454 0
M  V30 6080 H 569.58 1.72952 2.96551 0
M  V30 6081 N 572.025 -1.5352 0.356285 0
M  V30 6082 C 573.271 -2.01414 -0.236653 0
M  V30 6083 C 573.604 -1.24339 -1.49176 0
M  V30 6084 O 572.879 -0.334496 -1.91602 0
M  V30 6085 C 573.162 -3.56059 -0.537982 0
M  V30 6086 C 573.015 -4.43835 0.730112 0
M  V30 6087 C 574.334 -4.19127 -1.34239 0
M  V30 6088 H 571.453 -0.732135 -0.0845386 0
M  V30 6089 H 574.095 -1.83854 0.479341 0
M  V30 6090 H 572.245 -3.71153 -1.14795 0
M  V30 6091 H 573.917 -4.40555 1.36782 0
M  V30 6092 H 572.16 -4.1218 1.3524 0
M  V30 6093 H 572.831 -5.49958 0.474358 0
M  V30 6094 H 575.307 -4.07809 -0.826498 0
M  V30 6095 H 574.183 -5.27378 -1.52198 0
M  V30 6096 H 574.444 -3.74581 -2.34822 0
M  V30 6097 N 573.503 -0.0852151 -1.57369 0
M  V30 6098 C 574.919 0.271436 -1.57275 0
M  V30 6099 C 575.119 1.69109 -1.09565 0
M  V30 6100 O 574.175 2.40549 -0.767611 0
M  V30 6101 C 575.488 0.0688638 -3.00621 0
M  V30 6102 C 577.036 0.137373 -3.12698 0
M  V30 6103 C 577.511 -0.0370832 -4.57985 0
M  V30 6104 N 579.002 0.0180794 -4.63196 0
M  V30 6105 C 579.737 -0.0922953 -5.73326 0
M  V30 6106 N 579.233 -0.256948 -6.92323 0
M  V30 6107 N 581.026 -0.0342702 -5.6209 0
M  V30 6108 H 573.177 -1.01288 -1.86693 0
M  V30 6109 H 575.44 -0.396138 -0.861266 0
M  V30 6110 H 575.146 -0.911277 -3.39689 0
M  V30 6111 H 575.02 0.815442 -3.6828 0
M  V30 6112 H 577.407 1.10801 -2.73509 0
M  V30 6113 H 577.488 -0.640532 -2.47651 0
M  V30 6114 H 577.132 -1.00455 -4.97867 0
M  V30 6115 H 577.062 0.760392 -5.21081 0
M  V30 6116 H 579.553 0.143202 -3.77629 0
M  V30 6117 H 579.866 -0.332949 -7.72082 0
M  V30 6118 H 578.211 -0.292487 -6.94384 0
M  V30 6119 H 581.402 0.0931605 -4.68007 0
M  V30 6120 H 581.575 -0.12374 -6.47882 0
M  V30 6121 N 574.981 1.5647 0.188427 0
M  V30 6122 C 576.397 1.50204 0.539532 0
M  V30 6123 C 576.597 0.78644 1.85519 0
M  V30 6124 O 575.653 0.339714 2.50204 0
M  V30 6125 C 576.966 2.94893 0.588103 0
M  V30 6126 C 578.514 3.05602 0.67648 0
M  V30 6127 C 578.989 4.51716 0.756101 0
M  V30 6128 N 580.48 4.55894 0.819451 0
M  V30 6129 C 581.215 5.66272 0.90134 0
M  V30 6130 N 580.711 6.86323 0.945118 0
M  V30 6131 N 582.504 5.54201 0.939043 0
M  V30 6132 H 574.655 2.01406 -0.674493 0
M  V30 6133 H 576.918 0.916828 -0.241103 0
M  V30 6134 H 576.624 3.50334 -0.309633 0
M  V30 6135 H 576.498 3.4861 1.44051 0
M  V30 6136 H 578.885 2.50206 1.56465 0
M  V30 6137 H 578.966 2.54999 -0.202262 0
M  V30 6138 H 578.61 5.07739 -0.12774 0
M  V30 6139 H 578.54 5.00058 1.65074 0
M  V30 6140 H 581.031 3.69452 0.794594 0
M  V30 6141 H 581.344 7.66194 1.0083 0
M  V30 6142 H 579.689 6.88968 0.913683 0
M  V30 6143 H 582.88 4.59333 0.901725 0
M  V30 6144 H 583.053 6.40247 0.999402 0
M  V30 6145 N 576.459 -0.456382 1.50847 0
M  V30 6146 C 577.422 -1.53493 1.70213 0
M  V30 6147 C 578.422 -1.50264 0.572481 0
M  V30 6148 O 579.612 -1.52623 0.839751 0
M  V30 6149 C 576.744 -2.93091 1.741 0
M  V30 6150 H 577.937 -1.37633 2.66453 0
M  V30 6151 H 575.49 -0.683776 1.4055 0
M  V30 6152 H 576.225 -3.14378 0.796063 0
M  V30 6153 H 576.01 -2.9684 2.5618 0
M  V30 6154 H 577.5 -3.71368 1.90987 0
M  V30 6155 N 577.937 -1.40673 -0.710563 0
M  V30 6156 C 579.186 -1.38525 -1.46607 0
M  V30 6157 C 579.499 0.0077024 -1.95598 0
M  V30 6158 O 580.705 0.151792 -2.71075 0
M  V30 6159 C 579.161 -2.43489 -2.6503 0
M  V30 6160 C 578.769 -3.88619 -2.22888 0
M  V30 6161 C 580.513 -2.50456 -3.42742 0
M  V30 6162 C 578.42 -4.85168 -3.3818 0
M  V30 6163 H 577.35 -0.515092 -0.550632 0
M  V30 6164 H 580.001 -1.66431 -0.772846 0
M  V30 6165 H 578.383 -2.0869 -3.36548 0
M  V30 6166 H 579.557 -4.32588 -1.58758 0
M  V30 6167 H 577.872 -3.85174 -1.58208 0
M  V30 6168 H 580.469 -3.19776 -4.28541 0
M  V30 6169 H 580.812 -1.53665 -3.86902 0
M  V30 6170 H 581.345 -2.84271 -2.78271 0
M  V30 6171 H 578.084 -5.8331 -2.99047 0
M  V30 6172 H 577.604 -4.4586 -4.01209 0
M  V30 6173 H 579.283 -5.05225 -4.04174 0
M  V30 6174 N 579.415 0.9433 -1.26252 0
M  V30 6175 C 580.347 2.04542 -1.03417 0
M  V30 6176 C 581.36 1.62799 0.0046911 0
M  V30 6177 O 582.549 1.76944 -0.235146 0
M  V30 6178 C 579.649 3.34511 -0.543671 0
M  V30 6179 C 578.822 4.05033 -1.65128 0
M  V30 6180 C 577.881 5.13273 -1.1592 0
M  V30 6181 O 576.907 5.38095 -1.85586 0
M  V30 6182 N 578.109 5.805 -0.00649279 0
M  V30 6183 H 580.874 2.24699 -1.98319 0
M  V30 6184 H 578.435 1.11264 -1.1761 0
M  V30 6185 H 580.427 4.04212 -0.198703 0
M  V30 6186 H 578.997 3.11042 0.311711 0
M  V30 6187 H 578.217 3.29275 -2.16729 0
M  V30 6188 H 579.505 4.48903 -2.39508 0
M  V30 6189 H 578.903 5.62767 0.575347 0
M  V30 6190 H 577.46 6.51201 0.279416 0
M  V30 6191 N 580.893 1.08022 1.14757 0
M  V30 6192 C 581.825 0.664566 2.19354 0
M  V30 6193 C 582.838 -0.286374 1.60261 0
M  V30 6194 O 584.027 -0.0746362 1.78344 0
M  V30 6195 C 581.127 -0.0434634 3.38872 0
M  V30 6196 C 580.3 0.925381 4.27499 0
M  V30 6197 C 579.359 0.253398 5.2559 0
M  V30 6198 O 578.385 0.896581 5.62094 0
M  V30 6199 N 579.587 -0.998263 5.71852 0
M  V30 6200 H 582.352 1.56438 2.55631 0
M  V30 6201 H 579.913 0.965788 1.29939 0
M  V30 6202 H 581.905 -0.503857 4.01551 0
M  V30 6203 H 580.475 -0.845321 3.00954 0
M  V30 6204 H 579.695 1.56472 3.61815 0
M  V30 6205 H 580.983 1.58203 4.8358 0
M  V30 6206 H 580.381 -1.54063 5.44317 0
M  V30 6207 H 578.938 -1.40222 6.36538 0
M  V30 6208 N 582.371 -1.3172 0.865308 0
M  V30 6209 C 583.304 -2.26687 0.262376 0
M  V30 6210 C 584.282 -1.50894 -0.605787 0
M  V30 6211 O 585.466 -1.79982 -0.56024 0
M  V30 6212 C 582.593 -3.3281 -0.628915 0
M  V30 6213 C 581.639 -4.26172 0.167278 0
M  V30 6214 S 582.472 -5.12797 1.54272 0
M  V30 6215 C 583.628 -6.22438 0.657427 0
M  V30 6216 H 583.861 -2.77478 1.0674 0
M  V30 6217 H 581.394 -1.39414 0.663555 0
M  V30 6218 H 583.352 -3.94426 -1.13747 0
M  V30 6219 H 582.013 -2.80782 -1.40785 0
M  V30 6220 H 581.206 -5.01392 -0.51203 0
M  V30 6221 H 580.808 -3.69029 0.607777 0
M  V30 6222 H 583.1 -6.77368 -0.133925 0
M  V30 6223 H 584.043 -6.9451 1.38061 0
M  V30 6224 H 584.451 -5.64043 0.227044 0
M  V30 6225 N 583.85 -0.624285 -1.44708 0
M  V30 6226 C 584.779 0.0717025 -2.3339 0
M  V30 6227 C 585.76 0.841814 -1.47809 0
M  V30 6228 O 586.946 0.809056 -1.76544 0
M  V30 6229 C 584.076 1.05852 -3.30776 0
M  V30 6230 C 583.029 0.400503 -4.26122 0
M  V30 6231 C 582.356 1.49674 -5.13324 0
M  V30 6232 C 583.656 -0.688924 -5.17737 0
M  V30 6233 H 585.35 -0.668819 -2.91834 0
M  V30 6234 H 582.896 -0.32308 -1.40329 0
M  V30 6235 H 584.849 1.5541 -3.91696 0
M  V30 6236 H 583.572 1.82984 -2.70526 0
M  V30 6237 H 582.231 -0.0743687 -3.66525 0
M  V30 6238 H 581.88 2.25877 -4.49431 0
M  V30 6239 H 581.58 1.06188 -5.77926 0
M  V30 6240 H 583.104 1.99427 -5.77115 0
M  V30 6241 H 584.518 -0.276724 -5.72632 0
M  V30 6242 H 582.915 -1.04652 -5.90904 0
M  V30 6243 H 583.985 -1.55884 -4.5916 0
M  V30 6244 N 585.328 1.53329 -0.364422 0
M  V30 6245 C 586.575 2.01239 0.225634 0
M  V30 6246 C 586.903 1.25172 1.48869 0
M  V30 6247 O 586.158 0.333289 1.92841 0
M  V30 6248 C 586.457 3.52911 0.564661 0
M  V30 6249 C 586.123 4.46837 -0.603936 0
M  V30 6250 C 584.785 4.72234 -0.924585 0
M  V30 6251 C 587.137 5.02409 -1.38691 0
M  V30 6252 C 584.465 5.50454 -2.0302 0
M  V30 6253 C 586.817 5.81836 -2.48293 0
M  V30 6254 C 585.481 6.0552 -2.80894 0
M  V30 6255 H 584.751 0.736386 0.0825654 0
M  V30 6256 H 587.398 1.84948 -0.496645 0
M  V30 6257 H 585.703 3.67144 1.36794 0
M  V30 6258 H 587.4 3.87455 1.03344 0
M  V30 6259 H 583.99 4.27217 -0.343983 0
M  V30 6260 H 588.174 4.82735 -1.15243 0
M  V30 6261 H 583.43 5.67024 -2.28678 0
M  V30 6262 H 587.604 6.23905 -3.0938 0
M  V30 6263 H 585.231 6.65916 -3.66688 0
M  V30 6264 N 586.806 0.0935595 1.57322 0
M  V30 6265 C 588.217 -0.435807 1.81542 0
M  V30 6266 C 588.568 -1.68263 1.00907 0
M  V30 6267 O 587.693 -2.15087 0.237983 0
M  V30 6268 C 588.288 -0.797436 3.29282 0
M  V30 6269 C 586.847 -1.27155 3.54272 0
M  V30 6270 C 585.994 -0.267455 2.76007 0
M  V30 6271 H 588.945 0.31902 1.5546 0
M  V30 6272 H 588.966 -1.6571 3.42521 0
M  V30 6273 H 588.478 0.110206 3.87943 0
M  V30 6274 H 586.579 -2.19696 3.00939 0
M  V30 6275 H 586.692 -1.23445 4.62923 0
M  V30 6276 H 585.056 -0.749282 2.43429 0
M  V30 6277 H 585.839 0.632839 3.37417 0
M  V30 6278 N 588.284 -1.56567 -0.180126 0
M  V30 6279 C 589.232 -1.96632 -1.24251 0
M  V30 6280 C 590.226 -0.853818 -1.46309 0
M  V30 6281 O 591.432 -1.0389 -1.46993 0
M  V30 6282 H 587.807 -0.625476 -0.417473 0
M  V30 6283 H 589.778 -2.85201 -0.877679 0
M  V30 6284 C 588.527 -2.33486 -2.57642 0
M  V30 6285 H 587.85 -3.18626 -2.4149 0
M  V30 6286 H 589.29 -2.65371 -3.30688 0
M  V30 6287 C 587.749 -1.17499 -3.15746 0
M  V30 6288 O 588.279 -0.457956 -3.99081 0
M  V30 6289 N 586.485 -0.94786 -2.74707 0
M  V30 6290 H 586.032 -1.53269 -2.07042 0
M  V30 6291 H 585.99 -0.173626 -3.1392 0
M  V30 6292 N 589.762 0.448376 -1.51087 0
M  V30 6293 C 590.694 1.56146 -1.67783 0
M  V30 6294 C 591.707 1.52913 -0.55871 0
M  V30 6295 O 592.896 1.57889 -0.83267 0
M  V30 6296 C 589.996 2.95057 -1.66716 0
M  V30 6297 C 589.169 3.22915 -2.95033 0
M  V30 6298 C 588.228 4.41495 -2.86302 0
M  V30 6299 O 587.254 4.40688 -3.60254 0
M  V30 6300 N 588.456 5.44443 -2.014 0
M  V30 6301 H 591.221 1.42232 -2.638 0
M  V30 6302 H 588.782 0.637153 -1.48835 0
M  V30 6303 H 590.774 3.72388 -1.58458 0
M  V30 6304 H 589.344 3.02624 -0.783403 0
M  V30 6305 H 588.564 2.33985 -3.17245 0
M  V30 6306 H 589.852 3.38349 -3.79996 0
M  V30 6307 H 589.25 5.4793 -1.40674 0
M  V30 6308 H 587.807 6.2067 -1.99029 0
M  V30 6309 N 591.24 1.41047 0.703093 0
M  V30 6310 C 592.15 1.44645 1.84703 0
M  V30 6311 C 593.166 0.337778 1.7069 0
M  V30 6312 O 594.342 0.584327 1.92737 0
M  V30 6313 C 591.407 1.31928 3.20618 0
M  V30 6314 C 590.468 2.53047 3.46794 0
M  V30 6315 C 589.701 2.40927 4.76224 0
M  V30 6316 O 589.924 1.42978 5.5219 0
M  V30 6317 O 588.858 3.30543 5.03016 0
M  V30 6318 H 592.684 2.41139 1.84624 0
M  V30 6319 H 590.269 1.22504 0.855167 0
M  V30 6320 H 592.151 1.27092 4.01778 0
M  V30 6321 H 590.826 0.385469 3.21397 0
M  V30 6322 H 589.733 2.6346 2.65593 0
M  V30 6323 H 591.066 3.45231 3.50822 0
M  V30 6324 N 592.718 -0.936591 1.26751 0
M  V30 6325 C 593.965 -1.68331 1.12566 0
M  V30 6326 C 594.293 -1.91677 -0.330168 0
M  V30 6327 O 593.548 -1.49859 -1.2586 0
M  V30 6328 C 593.847 -3.06099 1.84494 0
M  V30 6329 C 593.513 -3.02493 3.34378 0
M  V30 6330 C 592.175 -3.01217 3.75262 0
M  V30 6331 C 594.527 -2.94453 4.30055 0
M  V30 6332 C 591.855 -2.89672 5.10203 0
M  V30 6333 C 594.207 -2.84449 5.65041 0
M  V30 6334 C 592.871 -2.81518 6.0523 0
M  V30 6335 H 592.141 -0.615965 0.411907 0
M  V30 6336 H 594.788 -1.09292 1.5725 0
M  V30 6337 H 593.093 -3.6879 1.32292 0
M  V30 6338 H 594.79 -3.62733 1.70955 0
M  V30 6339 H 591.38 -3.04269 3.01858 0
M  V30 6340 H 595.564 -2.94544 3.99447 0
M  V30 6341 H 590.82 -2.85783 5.40498 0
M  V30 6342 H 594.994 -2.77192 6.38856 0
M  V30 6343 H 592.621 -2.72329 7.09747 0
M  V30 6344 N 594.196 -1.08629 -1.14182 0
M  V30 6345 C 595.421 -0.83902 -1.89671 0
M  V30 6346 C 595.846 0.603332 -1.78161 0
M  V30 6347 O 595.204 1.42301 -1.12339 0
M  V30 6348 C 595.252 -1.26854 -3.37551 0
M  V30 6349 O 594.356 -0.42188 -4.10236 0
M  V30 6350 H 593.697 -0.304545 -0.590041 0
M  V30 6351 H 596.227 -1.4483 -1.44518 0
M  V30 6352 H 596.237 -1.25038 -3.88368 0
M  V30 6353 H 594.912 -2.31901 -3.45246 0
M  V30 6354 H 593.489 -0.503654 -3.69483 0
M  V30 6355 N 595.674 1.31259 -0.872281 0
M  V30 6356 C 596.92 1.973 -0.494414 0
M  V30 6357 C 597.275 1.67684 0.94339 0
M  V30 6358 O 596.568 0.964186 1.65572 0
M  V30 6359 C 596.762 3.50659 -0.690889 0
M  V30 6360 C 596.591 3.95179 -2.14624 0
M  V30 6361 C 595.361 4.21405 -2.7883 0
M  V30 6362 C 597.559 4.08948 -3.11875 0
M  V30 6363 N 595.541 4.52295 -4.15093 0
M  V30 6364 C 596.912 4.43576 -4.33174 0
M  V30 6365 C 598.967 3.91334 -3.07835 0
M  V30 6366 C 597.67 4.62429 -5.50956 0
M  V30 6367 C 599.696 4.11381 -4.24876 0
M  V30 6368 C 599.058 4.46343 -5.44938 0
M  V30 6369 H 595.157 0.747411 -0.230002 0
M  V30 6370 H 597.741 1.58741 -1.12736 0
M  V30 6371 H 595.912 3.88301 -0.0875162 0
M  V30 6372 H 597.644 4.03722 -0.281179 0
M  V30 6373 H 594.399 4.14131 -2.29767 0
M  V30 6374 H 594.823 4.71897 -4.8543 0
M  V30 6375 H 599.465 3.6339 -2.16119 0
M  V30 6376 H 597.183 4.8922 -6.43187 0
M  V30 6377 H 600.769 3.99235 -4.23205 0
M  V30 6378 H 599.649 4.6154 -6.33996 0
M  V30 6379 N 597.152 0.631951 1.44375 0
M  V30 6380 C 598.082 -0.0593243 2.33425 0
M  V30 6381 C 599.063 -0.833964 1.48253 0
M  V30 6382 O 600.248 -0.799682 1.76971 0
M  V30 6383 C 597.378 -1.04096 3.31333 0
M  V30 6384 C 596.332 -0.377899 4.26328 0
M  V30 6385 C 595.658 -1.4695 5.14111 0
M  V30 6386 C 596.958 0.716371 5.17364 0
M  V30 6387 H 598.652 0.684287 2.91475 0
M  V30 6388 H 596.198 0.330518 1.40156 0
M  V30 6389 H 598.151 -1.53331 3.92514 0
M  V30 6390 H 596.875 -1.81547 2.71493 0
M  V30 6391 H 595.534 0.0938054 3.6648 0
M  V30 6392 H 595.182 -2.2349 4.50623 0
M  V30 6393 H 594.882 -1.03121 5.78481 0
M  V30 6394 H 596.406 -1.96363 5.78164 0
M  V30 6395 H 597.82 0.307089 5.72477 0
M  V30 6396 H 596.217 1.07784 5.90341 0
M  V30 6397 H 597.287 1.58316 4.58327 0
M  V30 6398 N 598.631 -1.53133 0.372548 0
M  V30 6399 C 600.047 -1.59585 0.02178 0
M  V30 6400 C 600.247 -1.38736 -1.46132 0
M  V30 6401 O 599.303 -1.19599 -2.22379 0
M  V30 6402 C 600.616 -2.9678 0.483959 0
M  V30 6403 C 602.164 -3.09909 0.438775 0
M  V30 6404 C 602.639 -4.49527 0.876876 0
M  V30 6405 N 604.13 -4.55663 0.832214 0
M  V30 6406 C 604.865 -5.61896 1.14281 0
M  V30 6407 N 604.361 -6.75852 1.52303 0
M  V30 6408 N 606.154 -5.51916 1.06515 0
M  V30 6409 H 598.305 -1.64936 1.33827 0
M  V30 6410 H 600.568 -0.773947 0.547458 0
M  V30 6411 H 600.274 -3.17198 1.51915 0
M  V30 6412 H 600.148 -3.7699 -0.125784 0
M  V30 6413 H 602.535 -2.89197 -0.587294 0
M  V30 6414 H 602.616 -2.31691 1.0841 0
M  V30 6415 H 602.26 -4.70979 1.90109 0
M  V30 6416 H 602.19 -5.26186 0.208727 0
M  V30 6417 H 604.681 -3.73844 0.552195 0
M  V30 6418 H 604.994 -7.52862 1.7441 0
M  V30 6419 H 603.339 -6.77226 1.56175 0
M  V30 6420 H 606.53 -4.6177 0.767235 0
M  V30 6421 H 606.703 -6.34609 1.31053 0
M  V30 6422 N 600.109 -0.101901 -1.5727 0
M  V30 6423 C 601.059 0.865346 -2.1094 0
M  V30 6424 C 602.043 1.2394 -1.02605 0
M  V30 6425 O 603.235 1.21334 -1.28868 0
M  V30 6426 C 600.364 2.12187 -2.69874 0
M  V30 6427 C 599.45 1.77295 -3.85263 0
M  V30 6428 N 599.841 1.12993 -4.93017 0
M  V30 6429 C 598.139 2.06862 -3.95126 0
M  V30 6430 C 598.84 0.968631 -5.73579 0
M  V30 6431 N 597.816 1.48814 -5.22834 0
M  V30 6432 H 601.618 0.364368 -2.91633 0
M  V30 6433 H 599.132 0.101104 -1.62085 0
M  V30 6434 H 601.129 2.82431 -3.06657 0
M  V30 6435 H 599.789 2.62844 -1.90639 0
M  V30 6436 H 600.8 0.795935 -5.11747 0
M  V30 6437 H 597.477 2.59686 -3.26909 0
M  V30 6438 H 598.867 0.465231 -6.70287 0
M  V30 6439 N 601.587 1.56661 0.17182 0
M  V30 6440 C 602.833 1.82235 0.889845 0
M  V30 6441 C 603.166 0.679673 1.81918 0
M  V30 6442 O 602.441 -0.318404 1.91876 0
M  V30 6443 C 602.724 3.18195 1.68595 0
M  V30 6444 C 602.577 4.42989 0.779773 0
M  V30 6445 C 603.896 3.5109 2.65375 0
M  V30 6446 H 601.015 0.66291 0.322056 0
M  V30 6447 H 603.657 1.89358 0.15608 0
M  V30 6448 H 601.807 3.12253 2.3115 0
M  V30 6449 H 603.479 4.60997 0.16714 0
M  V30 6450 H 601.722 4.33711 0.0877964 0
M  V30 6451 H 602.393 5.3467 1.3723 0
M  V30 6452 H 604.869 3.57482 2.12946 0
M  V30 6453 H 603.745 4.47298 3.18144 0
M  V30 6454 H 604.006 2.75768 3.45549 0
M  V30 6455 N 603.065 -0.440357 1.51323 0
M  V30 6456 C 603.995 -1.54174 1.75364 0
M  V30 6457 C 604.976 -1.59039 0.603375 0
M  V30 6458 O 606.161 -1.74815 0.845774 0
M  V30 6459 C 603.291 -2.92277 1.87593 0
M  V30 6460 C 602.245 -3.02274 3.03009 0
M  V30 6461 C 601.571 -4.42327 3.00418 0
M  V30 6462 C 602.871 -2.76634 4.43024 0
M  V30 6463 H 604.565 -1.34307 2.67585 0
M  V30 6464 H 602.111 -0.644678 1.28763 0
M  V30 6465 H 604.064 -3.69284 2.02995 0
M  V30 6466 H 602.788 -3.13369 0.920179 0
M  V30 6467 H 601.447 -2.27706 2.87307 0
M  V30 6468 H 601.095 -4.60382 2.02626 0
M  V30 6469 H 600.795 -4.49946 3.77918 0
M  V30 6470 H 602.319 -5.21312 3.17909 0
M  V30 6471 H 603.733 -3.43376 4.59093 0
M  V30 6472 H 602.13 -2.95666 5.22208 0
M  V30 6473 H 603.2 -1.72262 4.5327 0
M  V30 6474 N 604.543 -1.41418 -0.695603 0
M  V30 6475 C 605.792 -1.40073 -1.4513 0
M  V30 6476 C 606.105 -0.0130439 -1.95596 0
M  V30 6477 O 607.311 0.123032 -2.71221 0
M  V30 6478 C 605.767 -2.46286 -2.62433 0
M  V30 6479 C 605.375 -3.90962 -2.18753 0
M  V30 6480 C 607.119 -2.54077 -3.40066 0
M  V30 6481 C 605.026 -4.88728 -3.33015 0
M  V30 6482 H 603.956 -0.520903 -0.545138 0
M  V30 6483 H 606.607 -1.67242 -0.75515 0
M  V30 6484 H 604.989 -2.12248 -3.34315 0
M  V30 6485 H 606.163 -4.34248 -1.54161 0
M  V30 6486 H 604.478 -3.86831 -1.54114 0
M  V30 6487 H 607.075 -3.24303 -4.25125 0
M  V30 6488 H 607.418 -1.5776 -3.8525 0
M  V30 6489 H 607.951 -2.87206 -2.75241 0
M  V30 6490 H 604.69 -5.86449 -2.92844 0
M  V30 6491 H 604.21 -4.50091 -3.96457 0
M  V30 6492 H 605.889 -5.09483 -3.98793 0
M  V30 6493 N 606.021 0.929856 -1.27246 0
M  V30 6494 C 606.984 2.01172 -1.09829 0
M  V30 6495 C 607.984 1.60743 -0.0429687 0
M  V30 6496 O 609.174 1.71813 -0.287373 0
M  V30 6497 C 606.306 3.34191 -0.673003 0
M  V30 6498 H 607.499 2.18054 -2.05895 0
M  V30 6499 H 605.052 1.11036 -1.10003 0
M  V30 6500 H 605.787 3.23009 0.289134 0
M  V30 6501 H 605.572 3.64892 -1.43515 0
M  V30 6502 H 607.062 4.13646 -0.573323 0
M  V30 6503 N 607.499 1.09233 1.13605 0
M  V30 6504 C 608.745 0.828385 1.8511 0
M  V30 6505 C 609.078 -0.64437 1.83198 0
M  V30 6506 O 608.353 -1.47428 1.26867 0
M  V30 6507 C 608.636 1.36167 3.33363 0
M  V30 6508 C 608.489 2.90038 3.438 0
M  V30 6509 C 609.808 0.993819 4.28732 0
M  V30 6510 H 606.927 0.30239 0.672108 0
M  V30 6511 H 609.569 1.35339 1.33355 0
M  V30 6512 H 607.719 0.9151 3.77569 0
M  V30 6513 H 609.391 3.43128 3.08319 0
M  V30 6514 H 607.634 3.27271 2.84739 0
M  V30 6515 H 608.305 3.22428 4.48045 0
M  V30 6516 H 610.781 1.37893 3.92587 0
M  V30 6517 H 609.657 1.39403 5.30903 0
M  V30 6518 H 609.918 -0.0982206 4.41991 0
M  V30 6519 N 608.977 -1.30795 0.87923 0
M  V30 6520 C 610.225 -1.95974 0.493809 0
M  V30 6521 C 610.546 -1.69787 -0.959021 0
M  V30 6522 O 609.816 -1.01832 -1.67353 0
M  V30 6523 H 608.396 -0.725083 0.179622 0
M  V30 6524 H 611.058 -1.59432 1.12105 0
M  V30 6525 H 610.154 -3.05058 0.659263 0
M  V30 6526 N 610.455 -0.639598 -1.44038 0
M  V30 6527 C 611.385 0.0469443 -2.33453 0
M  V30 6528 C 612.366 0.82609 -1.48694 0
M  V30 6529 O 613.551 0.790285 -1.77393 0
M  V30 6530 C 610.681 1.02338 -3.3188 0
M  V30 6531 C 609.635 0.355284 -4.26523 0
M  V30 6532 C 608.961 1.44221 -5.14883 0
M  V30 6533 C 610.261 -0.743798 -5.16977 0
M  V30 6534 H 611.955 -0.699735 -2.91108 0
M  V30 6535 H 609.501 -0.337946 -1.39978 0
M  V30 6536 H 611.454 1.51247 -3.93322 0
M  V30 6537 H 610.178 1.80105 -2.72451 0
M  V30 6538 H 608.837 -0.113239 -3.66425 0
M  V30 6539 H 608.485 2.21097 -4.51802 0
M  V30 6540 H 608.185 1.00052 -5.79019 0
M  V30 6541 H 609.709 1.93295 -5.79197 0
M  V30 6542 H 611.123 -0.337444 -5.72306 0
M  V30 6543 H 609.52 -1.10914 -5.89761 0
M  V30 6544 H 610.59 -1.60745 -4.57481 0
M  V30 6545 N 611.933 1.52934 -0.380664 0
M  V30 6546 C 612.863 2.29118 0.450268 0
M  V30 6547 C 613.844 1.32153 1.07096 0
M  V30 6548 O 615.029 1.61038 1.08537 0
M  V30 6549 C 612.159 3.09161 1.58231 0
M  V30 6550 C 611.113 4.13938 1.0881 0
M  V30 6551 C 610.439 4.82153 2.31155 0
M  V30 6552 C 611.739 5.22048 0.162146 0
M  V30 6553 H 613.433 2.98826 -0.185361 0
M  V30 6554 H 610.979 1.43715 -0.0905886 0
M  V30 6555 H 612.932 3.61211 2.17036 0
M  V30 6556 H 611.656 2.3717 2.2454 0
M  V30 6557 H 610.315 3.62855 0.522633 0
M  V30 6558 H 609.963 4.06719 2.95953 0
M  V30 6559 H 609.663 5.52966 1.98752 0
M  V30 6560 H 611.187 5.37004 2.90618 0
M  V30 6561 H 612.601 5.6951 0.658126 0
M  V30 6562 H 610.998 6.00057 -0.0717122 0
M  V30 6563 H 612.068 4.78398 -0.791438 0
M  V30 6564 N 613.412 0.11024 1.57214 0
M  V30 6565 C 614.64 -0.557834 1.99238 0
M  V30 6566 C 615.055 -1.60778 0.989734 0
M  V30 6567 O 614.412 -1.82491 -0.0186092 0
M  V30 6568 C 614.463 -1.19189 3.41286 0
M  V30 6569 O 614.184 -0.183919 4.37714 0
M  V30 6570 C 615.685 -1.94413 3.98395 0
M  V30 6571 H 612.905 -0.148392 0.654386 0
M  V30 6572 H 615.449 0.193996 2.03578 0
M  V30 6573 H 613.604 -1.89456 3.37913 0
M  V30 6574 H 614.018 -0.643475 5.20538 0
M  V30 6575 H 615.492 -2.34116 4.99894 0
M  V30 6576 H 615.969 -2.81592 3.3705 0
M  V30 6577 H 616.575 -1.28928 4.05287 0
M  V30 6578 N 614.89 -1.56749 -0.16351 0
M  V30 6579 C 616.13 -1.84234 -0.885271 0
M  V30 6580 C 616.494 -0.692259 -1.79086 0
M  V30 6581 O 617.695 -0.847747 -2.55082 0
M  V30 6582 C 615.966 -3.16857 -1.65337 0
M  V30 6583 S 617.525 -3.65848 -2.42282 0
M  V30 6584 H 614.343 -0.646293 -0.296354 0
M  V30 6585 H 616.945 -1.94951 -0.146365 0
M  V30 6586 H 615.649 -3.98546 -0.979266 0
M  V30 6587 H 615.18 -3.09102 -2.4335 0
M  V30 6588 H 617.195 -3.33796 -3.67143 0
M  V30 6589 N 616.368 0.432326 -1.51554 0
M  V30 6590 C 617.617 1.17831 -1.63703 0
M  V30 6591 C 617.93 1.92229 -0.36156 0
M  V30 6592 O 619.136 2.69069 -0.362495 0
M  V30 6593 C 617.592 2.14318 -2.89129 0
M  V30 6594 C 617.2 1.45544 -4.23699 0
M  V30 6595 C 618.944 2.89319 -3.10636 0
M  V30 6596 C 616.851 2.40545 -5.4027 0
M  V30 6597 H 615.781 0.443533 -0.60975 0
M  V30 6598 H 618.432 0.444878 -1.78026 0
M  V30 6599 H 616.814 2.91117 -2.68452 0
M  V30 6600 H 617.988 0.742693 -4.54775 0
M  V30 6601 H 616.303 0.826772 -4.0811 0
M  V30 6602 H 618.9 3.60495 -3.94902 0
M  V30 6603 H 619.243 3.50951 -2.23918 0
M  V30 6604 H 619.776 2.19625 -3.31677 0
M  V30 6605 H 616.515 1.83594 -6.29264 0
M  V30 6606 H 616.035 3.09859 -5.13563 0
M  V30 6607 H 617.714 3.01569 -5.72421 0
M  V30 6608 N 617.846 1.41785 0.688094 0
M  V30 6609 C 618.794 1.44436 1.82321 0
M  V30 6610 C 619.788 0.321544 1.6632 0
M  V30 6611 O 620.994 0.493931 1.73091 0
M  V30 6612 H 617.369 0.452084 0.600936 0
M  V30 6613 H 619.34 2.40087 1.77202 0
M  V30 6614 C 618.089 1.35071 3.20392 0
M  V30 6615 H 617.412 2.2076 3.33324 0
M  V30 6616 H 618.852 1.40988 3.99873 0
M  V30 6617 C 617.311 0.0639127 3.36839 0
M  V30 6618 O 617.841 -0.888495 3.91751 0
M  V30 6619 N 616.047 -0.0146114 2.90596 0
M  V30 6620 H 615.594 0.761191 2.46097 0
M  V30 6621 H 615.552 -0.874988 3.01979 0
M  V30 6622 N 619.324 -0.923095 1.27737 0
M  V30 6623 C 620.254 -2.04124 1.13383 0
M  V30 6624 C 621.235 -1.70066 0.0340658 0
M  V30 6625 O 622.42 -1.93068 0.209383 0
M  V30 6626 C 619.55 -3.3831 0.785097 0
M  V30 6627 C 618.504 -3.86496 1.8386 0
M  V30 6628 C 617.83 -5.1754 1.34373 0
M  V30 6629 C 619.13 -4.09381 3.24353 0
M  V30 6630 H 620.824 -2.1639 2.06919 0
M  V30 6631 H 618.37 -1.03976 0.996243 0
M  V30 6632 H 620.323 -4.16016 0.671485 0
M  V30 6633 H 619.047 -3.2607 -0.185969 0
M  V30 6634 H 617.706 -3.10987 1.9412 0
M  V30 6635 H 617.354 -5.01696 0.361989 0
M  V30 6636 H 617.054 -5.50751 2.04811 0
M  V30 6637 H 618.578 -5.97811 1.24315 0
M  V30 6638 H 619.992 -4.77641 3.17067 0
M  V30 6639 H 618.389 -4.53906 3.92542 0
M  V30 6640 H 619.459 -3.14515 3.69064 0
M  V30 6641 N 620.802 -1.09834 -1.13024 0
M  V30 6642 C 621.732 -0.763451 -2.20666 0
M  V30 6643 C 622.713 0.260778 -1.68089 0
M  V30 6644 O 623.898 0.127915 -1.93778 0
M  V30 6645 C 621.028 -0.187744 -3.46792 0
M  V30 6646 C 619.982 -1.14196 -4.12484 0
M  V30 6647 C 619.308 -0.427755 -5.32986 0
M  V30 6648 C 620.608 -2.48607 -4.59338 0
M  V30 6649 H 622.302 -1.66347 -2.48936 0
M  V30 6650 H 619.848 -0.801261 -1.19649 0
M  V30 6651 H 621.801 0.0586375 -4.21359 0
M  V30 6652 H 620.525 0.747485 -3.17931 0
M  V30 6653 H 619.184 -1.37369 -3.3989 0
M  V30 6654 H 618.832 0.511747 -5.0039 0
M  V30 6655 H 618.532 -1.06403 -5.77886 0
M  V30 6656 H 620.056 -0.189772 -6.10305 0
M  V30 6657 H 621.47 -2.29618 -5.25308 0
M  V30 6658 H 619.867 -3.08062 -5.14993 0
M  V30 6659 H 620.937 -3.09062 -3.73642 0
M  V30 6660 N 622.28 1.30327 -0.886154 0
M  V30 6661 C 623.526 1.96388 -0.505941 0
M  V30 6662 C 623.859 1.69784 0.942712 0
M  V30 6663 O 623.134 1.00322 1.6663 0
M  V30 6664 C 623.417 3.51488 -0.782826 0
M  V30 6665 C 623.27 3.87603 -2.28219 0
M  V30 6666 C 624.589 4.39331 -0.260128 0
M  V30 6667 H 621.708 0.713327 -0.185292 0
M  V30 6668 H 624.35 1.54178 -1.11036 0
M  V30 6669 H 622.5 3.87572 -0.268399 0
M  V30 6670 H 624.172 3.61537 -2.86512 0
M  V30 6671 H 622.415 3.3563 -2.74837 0
M  V30 6672 H 623.086 4.95806 -2.42653 0
M  V30 6673 H 625.562 4.10162 -0.700444 0
M  V30 6674 H 624.438 5.46769 -0.483179 0
M  V30 6675 H 624.699 4.34072 0.838674 0
M  V30 6676 N 623.758 0.647228 1.43697 0
M  V30 6677 C 625.007 0.155552 2.01099 0
M  V30 6678 C 625.32 -1.23569 1.51624 0
M  V30 6679 O 626.526 -1.82226 2.01261 0
M  V30 6680 C 624.982 0.227296 3.59182 0
M  V30 6681 C 624.59 1.62086 4.17651 0
M  V30 6682 C 626.334 -0.207085 4.23995 0
M  V30 6683 C 624.241 1.64685 5.68008 0
M  V30 6684 H 623.171 0.0543895 0.752036 0
M  V30 6685 H 625.822 0.808386 1.64734 0
M  V30 6686 H 624.204 -0.492937 3.9292 0
M  V30 6687 H 625.378 2.36597 3.95422 0
M  V30 6688 H 623.693 2.0007 3.65186 0
M  V30 6689 H 626.29 -0.207426 5.34298 0
M  V30 6690 H 626.633 -1.23742 3.97484 0
M  V30 6691 H 627.166 0.461193 3.95118 0
M  V30 6692 H 623.905 2.65608 5.99277 0
M  V30 6693 H 623.425 0.944914 5.9231 0
M  V30 6694 H 625.104 1.38792 6.31938 0
M  V30 6695 N 625.236 -1.5273 0.388769 0
M  V30 6696 C 626.483 -2.01573 -0.19359 0
M  V30 6697 C 626.811 -1.27525 -1.46859 0
M  V30 6698 O 626.066 -0.363926 -1.92286 0
M  V30 6699 C 626.365 -3.53765 -0.508445 0
M  V30 6700 C 626.031 -4.4582 0.674947 0
M  V30 6701 C 624.693 -4.70703 0.999596 0
M  V30 6702 C 627.045 -5.00138 1.46666 0
M  V30 6703 C 624.373 -5.47155 2.11751 0
M  V30 6704 C 626.725 -5.77812 2.57518 0
M  V30 6705 C 625.389 -6.00975 2.90492 0
M  V30 6706 H 624.659 -0.737606 -0.0708397 0
M  V30 6707 H 627.306 -1.84134 0.526006 0
M  V30 6708 H 625.611 -3.69274 -1.30936 0
M  V30 6709 H 627.308 -3.8905 -0.971664 0
M  V30 6710 H 623.898 -4.26616 0.411906 0
M  V30 6711 H 628.082 -4.8084 1.22909 0
M  V30 6712 H 623.338 -5.63314 2.3767 0
M  V30 6713 H 627.512 -6.18904 3.19267 0
M  V30 6714 H 625.139 -6.59998 3.77236 0
M  V30 6715 N 626.714 -0.118576 -1.57153 0
M  V30 6716 C 627.677 0.817464 -2.14127 0
M  V30 6717 C 628.677 1.1949 -1.07604 0
M  V30 6718 O 629.867 1.12048 -1.33382 0
M  V30 6719 C 626.999 2.10541 -2.68115 0
M  V30 6720 H 628.192 0.322339 -2.98163 0
M  V30 6721 H 625.745 0.130655 -1.55753 0
M  V30 6722 H 626.48 2.64485 -1.87665 0
M  V30 6723 H 626.265 1.84425 -3.4602 0
M  V30 6724 H 627.755 2.77453 -3.12105 0
M  V30 6725 N 628.193 1.56834 0.155195 0
M  V30 6726 C 629.604 1.72421 0.716082 0
M  V30 6727 C 629.955 0.731685 1.82046 0
M  V30 6728 O 629.08 -0.103481 2.16152 0
M  V30 6729 C 629.675 3.12629 1.30571 0
M  V30 6730 C 628.234 3.29846 1.81325 0
M  V30 6731 C 627.381 2.68359 0.698494 0
M  V30 6732 H 630.332 1.58544 -0.0703861 0
M  V30 6733 H 630.353 3.12174 2.1755 0
M  V30 6734 H 629.865 3.84844 0.501701 0
M  V30 6735 H 627.966 2.62614 2.64319 0
M  V30 6736 H 628.079 4.37727 1.9476 0
M  V30 6737 H 626.443 2.28604 1.12305 0
M  V30 6738 H 627.226 3.43171 -0.0939366 0
M  V30 6739 N 629.671 -0.424282 1.51781 0
M  V30 6740 C 630.619 -1.53649 1.74628 0
M  V30 6741 C 631.613 -1.57923 0.612922 0
M  V30 6742 O 632.819 -1.61511 0.794618 0
M  V30 6743 H 629.194 -0.510706 0.551981 0
M  V30 6744 H 631.165 -1.31558 2.67834 0
M  V30 6745 C 629.914 -2.91177 1.9003 0
M  V30 6746 H 629.237 -2.88625 2.76651 0
M  V30 6747 H 630.677 -3.6833 2.10021 0
M  V30 6748 C 629.136 -3.30303 0.663435 0
M  V30 6749 O 629.666 -4.01315 -0.175812 0
M  V30 6750 N 627.872 -2.86201 0.503723 0
M  V30 6751 H 627.419 -2.28583 1.18776 0
M  V30 6752 H 627.377 -3.12741 -0.322575 0
M  V30 6753 N 631.149 -1.42148 -0.680565 0
M  V30 6754 C 632.398 -1.41604 -1.43636 0
M  V30 6755 C 632.711 -0.0337887 -1.95571 0
M  V30 6756 O 633.917 0.0942588 -2.71336 0
M  V30 6757 C 632.373 -2.49056 -2.59806 0
M  V30 6758 C 631.981 -3.9326 -2.14594 0
M  V30 6759 C 633.725 -2.5767 -3.37352 0
M  V30 6760 C 631.632 -4.92232 -3.27813 0
M  V30 6761 H 630.562 -0.526656 -0.539583 0
M  V30 6762 H 633.213 -1.68033 -0.737369 0
M  V30 6763 H 631.595 -2.15782 -3.32045 0
M  V30 6764 H 632.769 -4.35858 -1.49546 0
M  V30 6765 H 631.084 -3.88443 -1.50002 0
M  V30 6766 H 633.681 -3.28794 -4.21662 0
M  V30 6767 H 634.024 -1.61837 -3.83555 0
M  V30 6768 H 634.557 -2.90109 -2.72179 0
M  V30 6769 H 631.296 -5.89522 -2.86607 0
M  V30 6770 H 630.816 -4.5427 -3.91661 0
M  V30 6771 H 632.495 -5.13684 -3.93367 0
M  V30 6772 N 632.627 0.916307 -1.28225 0
M  V30 6773 C 633.557 2.0352 -1.14464 0
M  V30 6774 C 634.538 1.70045 -0.0430844 0
M  V30 6775 O 635.723 1.92954 -0.219619 0
M  V30 6776 C 632.853 3.37889 -0.803027 0
M  V30 6777 C 631.807 3.85516 -1.85908 0
M  V30 6778 C 631.133 5.1682 -1.37116 0
M  V30 6779 C 632.433 4.07655 -3.26519 0
M  V30 6780 H 634.127 2.1529 -2.08064 0
M  V30 6781 H 631.673 1.03446 -1.00174 0
M  V30 6782 H 633.626 4.15654 -0.693537 0
M  V30 6783 H 632.35 3.26164 0.168674 0
M  V30 6784 H 631.009 3.09953 -1.95767 0
M  V30 6785 H 630.657 5.01497 -0.38859 0
M  V30 6786 H 630.357 5.49657 -2.07728 0
M  V30 6787 H 631.881 5.97143 -1.27484 0
M  V30 6788 H 633.295 4.75953 -3.19596 0
M  V30 6789 H 631.692 4.51818 -3.94943 0
M  V30 6790 H 632.762 3.12553 -3.70727 0
M  V30 6791 N 634.105 1.10431 1.1244 0
M  V30 6792 C 635.353 0.845045 1.83585 0
M  V30 6793 C 635.674 -0.631168 1.84503 0
M  V30 6794 O 634.944 -1.45825 1.30813 0
M  V30 6795 H 633.524 0.309628 0.679809 0
M  V30 6796 H 636.186 1.39458 1.36153 0
M  V30 6797 H 635.282 1.20786 2.8778 0
M  V30 6798 N 635.583 -1.29855 0.893053 0
M  V30 6799 C 636.832 -1.95104 0.511597 0
M  V30 6800 C 637.145 -1.71226 -0.945567 0
M  V30 6801 O 638.351 -2.30525 -1.43424 0
M  V30 6802 C 636.807 -3.49374 0.864034 0
M  V30 6803 C 636.415 -3.82061 2.33952 0
M  V30 6804 C 638.159 -4.20894 0.552167 0
M  V30 6805 C 636.066 -5.29546 2.63316 0
M  V30 6806 H 634.996 -0.73029 0.187597 0
M  V30 6807 H 637.647 -1.47682 1.08914 0
M  V30 6808 H 636.029 -3.95413 0.215493 0
M  V30 6809 H 637.203 -3.46904 3.03305 0
M  V30 6810 H 635.518 -3.23665 2.61973 0
M  V30 6811 H 638.115 -5.29435 0.748489 0
M  V30 6812 H 638.458 -4.13178 -0.508924 0
M  V30 6813 H 638.991 -3.80564 1.15825 0
M  V30 6814 H 635.73 -5.4232 3.68197 0
M  V30 6815 H 635.25 -5.65974 1.9858 0
M  V30 6816 H 636.929 -5.97068 2.49236 0
M  V30 6817 N 637.061 -0.65484 -1.43351 0
M  V30 6818 C 638.308 -0.168892 -2.01794 0
M  V30 6819 C 638.636 1.2177 -1.51665 0
M  V30 6820 O 637.891 1.82717 -0.70092 0
M  V30 6821 C 638.19 -0.130424 -3.57162 0
M  V30 6822 C 637.856 -1.45898 -4.26643 0
M  V30 6823 C 636.518 -1.82279 -4.4534 0
M  V30 6824 C 638.87 -2.33485 -4.65976 0
M  V30 6825 C 636.198 -3.0591 -5.00635 0
M  V30 6826 C 638.55 -3.5641 -5.22642 0
M  V30 6827 C 637.214 -3.92985 -5.39555 0
M  V30 6828 H 636.484 -0.061802 -0.738418 0
M  V30 6829 H 639.131 -0.845869 -1.71806 0
M  V30 6830 H 637.436 0.630008 -3.86702 0
M  V30 6831 H 639.133 0.262465 -4.0014 0
M  V30 6832 H 635.723 -1.16591 -4.12437 0
M  V30 6833 H 639.907 -2.06668 -4.51223 0
M  V30 6834 H 635.163 -3.34295 -5.11915 0
M  V30 6835 H 639.337 -4.24495 -5.52066 0
M  V30 6836 H 636.964 -4.88862 -5.82167 0
M  V30 6837 N 638.539 1.52521 -0.396863 0
M  V30 6838 C 639.787 2.01274 0.182536 0
M  V30 6839 C 640.108 1.28485 1.46685 0
M  V30 6840 O 639.378 0.407134 1.91623 0
M  V30 6841 H 637.958 0.743671 0.0704442 0
M  V30 6842 H 640.62 1.87547 -0.530289 0
M  V30 6843 H 639.716 3.09687 0.387385 0
M  V30 6844 N 640.017 0.126909 1.57088 0
M  V30 6845 C 641.263 -0.529952 1.95753 0
M  V30 6846 C 641.596 -1.65823 1.01077 0
M  V30 6847 O 640.871 -1.94437 0.0494162 0
M  V30 6848 C 641.154 -1.05517 3.44294 0
M  V30 6849 C 641.007 0.0702253 4.49745 0
M  V30 6850 C 642.326 -1.9435 3.94862 0
M  V30 6851 H 639.445 -0.191168 0.711775 0
M  V30 6852 H 642.087 0.204071 1.88901 0
M  V30 6853 H 640.237 -1.68069 3.50264 0
M  V30 6854 H 641.909 0.705834 4.55868 0
M  V30 6855 H 640.152 0.732259 4.27575 0
M  V30 6856 H 640.823 -0.338642 5.5096 0
M  V30 6857 H 643.299 -1.41658 3.91244 0
M  V30 6858 H 642.175 -2.28015 4.993 0
M  V30 6859 H 642.436 -2.87299 3.36024 0
M  V30 6860 N 641.495 -1.56914 -0.146875 0
M  V30 6861 C 642.744 -1.82546 -0.857898 0
M  V30 6862 C 643.057 -0.708169 -1.8233 0
M  V30 6863 O 644.263 -0.850093 -2.57848 0
M  V30 6864 C 642.719 -3.23548 -1.57623 0
M  V30 6865 C 642.327 -4.43212 -0.653224 0
M  V30 6866 C 644.071 -3.58453 -2.27402 0
M  V30 6867 C 641.978 -5.75237 -1.37318 0
M  V30 6868 H 640.908 -0.680786 -0.32411 0
M  V30 6869 H 643.559 -1.83166 -0.110639 0
M  V30 6870 H 641.941 -3.17315 -2.36912 0
M  V30 6871 H 643.115 -4.60682 0.104452 0
M  V30 6872 H 641.43 -4.16351 -0.0638336 0
M  V30 6873 H 644.027 -4.54349 -2.81907 0
M  V30 6874 H 644.37 -2.84516 -3.03901 0
M  V30 6875 H 644.903 -3.66347 -1.55032 0
M  V30 6876 H 641.642 -6.52269 -0.650041 0
M  V30 6877 H 641.162 -5.61703 -2.10357 0
M  V30 6878 H 642.841 -6.18039 -1.91406 0
M  V30 6879 N 642.974 0.416227 -1.52004 0
M  V30 6880 C 644.222 1.16153 -1.65387 0
M  V30 6881 C 644.543 1.91208 -0.382669 0
M  V30 6882 O 643.813 1.86413 0.602231 0
M  V30 6883 H 642.393 0.431765 -0.60958 0
M  V30 6884 H 645.055 0.475151 -1.89019 0
M  V30 6885 H 644.151 1.87952 -2.4916 0
M  V30 6886 N 644.452 1.42507 0.673017 0
M  V30 6887 C 645.415 1.4582 1.76831 0
M  V30 6888 C 646.415 0.345542 1.57043 0
M  V30 6889 O 647.605 0.606447 1.63303 0
M  V30 6890 C 644.737 1.29158 3.15485 0
M  V30 6891 H 645.93 2.43345 1.7528 0
M  V30 6892 H 643.483 1.28981 0.882817 0
M  V30 6893 H 644.218 0.325626 3.22661 0
M  V30 6894 H 644.003 2.09797 3.31252 0
M  V30 6895 H 645.493 1.34363 3.95394 0
M  V30 6896 N 645.93 -0.909495 1.28709 0
M  V30 6897 C 647.158 -1.69272 1.18973 0
M  V30 6898 C 647.573 -1.87123 -0.251048 0
M  V30 6899 O 646.93 -1.40127 -1.16922 0
M  V30 6900 C 646.981 -3.08257 1.88839 0
M  V30 6901 O 646.702 -2.91228 3.27289 0
M  V30 6902 C 648.203 -4.02642 1.85457 0
M  V30 6903 H 645.423 -0.528999 0.412797 0
M  V30 6904 H 647.967 -1.13803 1.69909 0
M  V30 6905 H 646.122 -3.6053 1.41762 0
M  V30 6906 H 646.536 -3.79223 3.6234 0
M  V30 6907 H 648.01 -4.97613 2.38925 0
M  V30 6908 H 648.487 -4.31327 0.827893 0
M  V30 6909 H 649.093 -3.56298 2.32233 0
M  V30 6910 N 647.408 -1.11026 -1.11852 0
M  V30 6911 C 648.633 -0.879064 -1.87849 0
M  V30 6912 C 649.058 0.565406 -1.79401 0
M  V30 6913 O 648.416 1.39886 -1.15333 0
M  V30 6914 C 648.464 -1.33985 -3.34784 0
M  V30 6915 O 647.568 -0.508803 -4.09249 0
M  V30 6916 H 646.909 -0.316992 -0.583448 0
M  V30 6917 H 649.439 -1.47863 -1.41413 0
M  V30 6918 H 649.449 -1.33248 -3.85628 0
M  V30 6919 H 648.124 -2.39172 -3.40249 0
M  V30 6920 H 646.701 -0.581913 -3.68332 0
M  V30 6921 N 648.886 1.2938 -0.899927 0
M  V30 6922 C 649.849 2.25983 -0.382677 0
M  V30 6923 C 650.849 1.53366 0.483259 0
M  V30 6924 O 652.039 1.71798 0.28828 0
M  V30 6925 C 649.171 3.37878 0.452915 0
M  V30 6926 H 650.364 2.73252 -1.23586 0
M  V30 6927 H 647.917 1.40825 -0.678088 0
M  V30 6928 H 648.652 2.95949 1.32608 0
M  V30 6929 H 648.437 3.91742 -0.167562 0
M  V30 6930 H 649.927 4.09746 0.806107 0
M  V30 6931 N 650.364 0.662433 1.43002 0
M  V30 6932 C 651.775 0.258315 1.84904 0
M  V30 6933 C 652.126 -1.19703 1.55453 0
M  V30 6934 O 651.251 -1.91484 1.00811 0
M  V30 6935 C 651.846 0.462047 3.35635 0
M  V30 6936 C 650.405 0.112165 3.76233 0
M  V30 6937 C 649.552 0.760479 2.66668 0
M  V30 6938 H 652.503 0.865467 1.33024 0
M  V30 6939 H 652.524 -0.289646 3.79396 0
M  V30 6940 H 652.036 1.52135 3.57039 0
M  V30 6941 H 650.137 -0.944179 3.60439 0
M  V30 6942 H 650.25 0.544058 4.76001 0
M  V30 6943 H 648.614 0.192887 2.53969 0
M  V30 6944 H 649.397 1.82299 2.90898 0
M  V30 6945 N 651.842 -1.52309 0.404946 0
M  V30 6946 C 653.089 -2.01767 -0.1722 0
M  V30 6947 C 653.417 -1.29075 -1.45498 0
M  V30 6948 O 652.672 -0.3843 -1.9189 0
M  V30 6949 C 652.971 -3.54284 -0.470895 0
M  V30 6950 C 652.637 -4.45079 0.722194 0
M  V30 6951 C 651.299 -4.69617 1.04946 0
M  V30 6952 C 653.651 -4.98555 1.51962 0
M  V30 6953 C 650.979 -5.44878 2.17543 0
M  V30 6954 C 653.331 -5.75049 2.63632 0
M  V30 6955 C 651.995 -5.9786 2.9685 0
M  V30 6956 H 651.265 -0.738316 -0.0630125 0
M  V30 6957 H 653.912 -1.83566 0.545506 0
M  V30 6958 H 652.217 -3.70642 -1.27012 0
M  V30 6959 H 653.914 -3.90058 -0.930346 0
M  V30 6960 H 650.504 -4.26155 0.457131 0
M  V30 6961 H 654.688 -4.79509 1.28002 0
M  V30 6962 H 649.944 -5.60762 2.43631 0
M  V30 6963 H 654.118 -6.15483 3.25813 0
M  V30 6964 H 651.745 -6.5596 3.84215 0
M  V30 6965 N 653.32 -0.135238 -1.57019 0
M  V30 6966 C 654.25 0.805235 -2.19176 0
M  V30 6967 C 655.231 1.2656 -1.13651 0
M  V30 6968 O 656.416 1.32528 -1.4195 0
M  V30 6969 C 653.546 2.04914 -2.80406 0
M  V30 6970 C 652.5 1.72598 -3.91655 0
M  V30 6971 C 651.826 3.04154 -4.39766 0
M  V30 6972 C 653.126 0.981709 -5.12991 0
M  V30 6973 H 654.82 0.287232 -2.98019 0
M  V30 6974 H 652.366 0.136714 -1.4335 0
M  V30 6975 H 654.319 2.71178 -3.22553 0
M  V30 6976 H 653.043 2.59067 -1.98877 0
M  V30 6977 H 651.702 1.08717 -3.50109 0
M  V30 6978 H 651.35 3.56274 -3.55075 0
M  V30 6979 H 651.05 2.83299 -5.14796 0
M  V30 6980 H 652.574 3.71509 -4.84576 0
M  V30 6981 H 653.988 1.5462 -5.52056 0
M  V30 6982 H 652.385 0.873533 -5.93708 0
M  V30 6983 H 653.455 -0.0286887 -4.84892 0
M  V30 6984 N 654.798 1.5699 0.138552 0
M  V30 6985 C 656.047 1.82998 0.848205 0
M  V30 6986 C 656.36 0.717829 1.81952 0
M  V30 6987 O 657.566 0.863756 2.57394 0
M  V30 6988 C 656.022 3.24379 1.55904 0
M  V30 6989 C 655.63 4.43552 0.62971 0
M  V30 6990 C 657.374 3.59654 2.25498 0
M  V30 6991 C 655.281 5.75957 1.34266 0
M  V30 6992 H 654.211 0.682495 0.320495 0
M  V30 6993 H 656.862 1.83222 0.100924 0
M  V30 6994 H 655.244 3.18567 2.35226 0
M  V30 6995 H 656.418 4.6062 -0.128882 0
M  V30 6996 H 654.733 4.16379 0.0417526 0
M  V30 6997 H 657.33 4.55837 2.79493 0
M  V30 6998 H 657.673 2.86124 3.02388 0
M  V30 6999 H 658.206 3.67164 1.53087 0
M  V30 7000 H 654.945 6.52604 0.615441 0
M  V30 7001 H 654.465 5.62811 2.07375 0
M  V30 7002 H 656.144 6.19046 1.88126 0
M  V30 7003 N 656.276 -0.40816 1.52223 0
M  V30 7004 C 657.523 -1.15502 1.66329 0
M  V30 7005 C 657.851 -1.90474 0.393701 0
M  V30 7006 O 657.106 -1.85507 -0.623356 0
M  V30 7007 C 657.405 -2.17422 2.83659 0
M  V30 7008 C 657.071 -1.5925 4.21841 0
M  V30 7009 C 655.733 -1.4311 4.59427 0
M  V30 7010 C 658.085 -1.16776 5.0795 0
M  V30 7011 C 655.413 -0.830148 5.80797 0
M  V30 7012 C 657.765 -0.580988 6.29926 0
M  V30 7013 C 656.429 -0.406729 6.6626 0
M  V30 7014 H 655.699 -0.422653 0.608642 0
M  V30 7015 H 658.346 -0.442114 1.86327 0
M  V30 7016 H 656.651 -2.94861 2.58001 0
M  V30 7017 H 658.348 -2.75084 2.9177 0
M  V30 7018 H 654.938 -1.72796 3.92224 0
M  V30 7019 H 659.122 -1.28055 4.79495 0
M  V30 7020 H 654.378 -0.68316 6.07571 0
M  V30 7021 H 658.552 -0.243488 6.95974 0
M  V30 7022 H 656.179 0.0610366 7.60175 0
M  V30 7023 N 657.755 -1.42862 -0.66545 0
M  V30 7024 C 659.004 -1.43119 -1.42126 0
M  V30 7025 C 659.317 -0.0545297 -1.95524 0
M  V30 7026 O 660.523 0.0654747 -2.71421 0
M  V30 7027 C 658.979 -2.51797 -2.5715 0
M  V30 7028 C 658.587 -3.95514 -2.10411 0
M  V30 7029 C 660.331 -2.61233 -3.346 0
M  V30 7030 C 658.238 -4.95682 -3.22573 0
M  V30 7031 H 657.168 -0.532349 -0.533966 0
M  V30 7032 H 659.819 -1.68806 -0.719506 0
M  V30 7033 H 658.201 -2.19292 -3.29738 0
M  V30 7034 H 659.375 -4.3742 -1.44915 0
M  V30 7035 H 657.69 -3.90012 -1.45874 0
M  V30 7036 H 660.287 -3.33248 -4.18151 0
M  V30 7037 H 660.63 -1.65896 -3.81817 0
M  V30 7038 H 661.163 -2.9298 -2.69087 0
M  V30 7039 H 657.902 -5.92529 -2.80338 0
M  V30 7040 H 657.422 -4.58399 -3.86821 0
M  V30 7041 H 659.101 -5.17828 -3.87896 0
M  V30 7042 N 659.233 0.902656 -1.29189 0
M  V30 7043 C 660.48 1.65287 -1.16989 0
M  V30 7044 C 660.808 1.92485 0.279232 0
M  V30 7045 O 660.063 1.53143 1.21843 0
M  V30 7046 C 660.362 3.011 -1.92545 0
M  V30 7047 C 660.028 2.93521 -3.42281 0
M  V30 7048 C 658.69 2.91161 -3.83117 0
M  V30 7049 C 661.042 2.82947 -4.3771 0
M  V30 7050 C 658.37 2.76043 -5.17704 0
M  V30 7051 C 660.722 2.69368 -5.72384 0
M  V30 7052 C 659.386 2.65373 -6.12482 0
M  V30 7053 H 658.656 0.604828 -0.428094 0
M  V30 7054 H 661.303 1.05084 -1.60092 0
M  V30 7055 H 659.608 3.65153 -1.42024 0
M  V30 7056 H 661.305 3.58073 -1.80512 0
M  V30 7057 H 657.895 2.96158 -3.09819 0
M  V30 7058 H 662.079 2.83849 -4.07116 0
M  V30 7059 H 657.335 2.71352 -5.47885 0
M  V30 7060 H 661.509 2.60156 -6.45981 0
M  V30 7061 H 659.136 2.53415 -7.16718 0
M  V30 7062 N 660.711 1.11618 1.11262 0
M  V30 7063 C 662.122 0.881942 1.64556 0
M  V30 7064 C 662.473 -0.585442 1.87262 0
M  V30 7065 O 661.598 -1.44795 1.60821 0
M  V30 7066 C 662.193 1.59446 2.98935 0
M  V30 7067 C 660.752 1.40661 3.4913 0
M  V30 7068 C 659.899 1.63593 2.23903 0
M  V30 7069 H 662.85 1.27217 0.94877 0
M  V30 7070 H 662.871 1.04054 3.65996 0
M  V30 7071 H 662.383 2.66241 2.82378 0
M  V30 7072 H 660.484 0.360835 3.70849 0
M  V30 7073 H 660.597 2.15693 4.27801 0
M  V30 7074 H 658.961 1.05944 2.3162 0
M  V30 7075 H 659.744 2.71666 2.09886 0
M  V30 7076 N 662.189 -1.289 0.906776 0
M  V30 7077 C 663.152 -2.25777 0.394656 0
M  V30 7078 C 664.152 -1.53621 -0.475119 0
M  V30 7079 O 665.342 -1.71949 -0.279165 0
M  V30 7080 C 662.474 -3.38113 -0.43499 0
M  V30 7081 H 663.667 -2.72592 1.25033 0
M  V30 7082 H 661.22 -1.40463 0.685547 0
M  V30 7083 H 661.955 -2.96648 -1.31036 0
M  V30 7084 H 661.74 -3.91647 0.188334 0
M  V30 7085 H 663.23 -4.10168 -0.784365 0
M  V30 7086 N 663.667 -0.670007 -1.42649 0
M  V30 7087 C 664.916 -0.187526 -2.00826 0
M  V30 7088 C 665.229 1.21142 -1.53571 0
M  V30 7089 O 666.435 1.79001 -2.04134 0
M  V30 7090 C 664.891 -0.284409 -3.58774 0
M  V30 7091 C 664.499 -1.6871 -4.15019 0
M  V30 7092 C 666.243 0.139605 -4.2427 0
M  V30 7093 C 664.15 -1.73701 -5.65316 0
M  V30 7094 H 663.08 -0.0663468 -0.751075 0
M  V30 7095 H 665.731 -0.834492 -1.63427 0
M  V30 7096 H 664.113 0.430364 -3.93655 0
M  V30 7097 H 665.287 -2.42857 -3.91608 0
M  V30 7098 H 663.602 -2.05855 -3.61957 0
M  V30 7099 H 666.199 0.122398 -5.3456 0
M  V30 7100 H 666.542 1.17403 -3.99402 0
M  V30 7101 H 667.075 -0.523995 -3.94334 0
M  V30 7102 H 663.814 -2.75109 -5.94975 0
M  V30 7103 H 663.334 -1.03903 -5.90732 0
M  V30 7104 H 665.013 -1.48829 -6.2965 0
M  V30 7105 N 665.145 1.52092 -0.413018 0
M  V30 7106 C 666.392 2.01855 0.161497 0
M  V30 7107 C 666.72 1.29845 1.44812 0
M  V30 7108 O 665.975 0.394471 1.91683 0
M  V30 7109 C 666.274 3.54529 0.4521 0
M  V30 7110 C 665.94 4.4469 -0.745788 0
M  V30 7111 C 664.602 4.69053 -1.07435 0
M  V30 7112 C 666.954 4.97742 -1.54604 0
M  V30 7113 C 664.282 5.43717 -2.20429 0
M  V30 7114 C 666.634 5.73642 -2.66678 0
M  V30 7115 C 665.298 5.96277 -3.00016 0
M  V30 7116 H 664.568 0.73864 0.0590961 0
M  V30 7117 H 667.215 1.83274 -0.555234 0
M  V30 7118 H 665.52 3.7131 1.25045 0
M  V30 7119 H 667.217 3.90546 0.909647 0
M  V30 7120 H 663.807 4.25907 -0.479725 0
M  V30 7121 H 667.991 4.78824 -1.30543 0
M  V30 7122 H 663.247 5.59462 -2.46602 0
M  V30 7123 H 667.421 6.13746 -3.29072 0
M  V30 7124 H 665.048 6.53913 -3.87688 0
M  V30 7125 N 666.623 0.143563 1.56945 0
M  V30 7126 C 667.853 -0.514699 2.00086 0
M  V30 7127 C 668.261 -1.59184 1.0226 0
M  V30 7128 O 667.604 -1.83697 0.0110514 0
M  V30 7129 C 667.666 -1.17778 3.39659 0
M  V30 7130 C 667.33 -0.245657 4.56339 0
M  V30 7131 C 668.327 0.525343 5.17239 0
M  V30 7132 C 666.012 -0.149564 5.02077 0
M  V30 7133 C 668.006 1.37992 6.22284 0
M  V30 7134 C 665.693 0.708621 6.06978 0
M  V30 7135 C 666.691 1.47197 6.6695 0
M  V30 7136 O 666.379 2.31586 7.6982 0
M  V30 7137 H 666.111 -0.138789 0.661599 0
M  V30 7138 H 668.665 0.234098 2.04062 0
M  V30 7139 H 666.895 -1.97415 3.32512 0
M  V30 7140 H 668.584 -1.73542 3.6693 0
M  V30 7141 H 669.35 0.461118 4.82803 0
M  V30 7142 H 665.229 -0.733457 4.55128 0
M  V30 7143 H 668.773 1.97621 6.69023 0
M  V30 7144 H 664.67 0.77415 6.40841 0
M  V30 7145 H 665.438 2.24796 7.87025 0
M  V30 7146 N 668.101 -1.57061 -0.130224 0
M  V30 7147 C 669.348 -1.84257 -0.839972 0
M  V30 7148 C 669.676 -0.726986 -1.80403 0
M  V30 7149 O 668.931 0.282632 -1.93648 0
M  V30 7150 C 669.23 -3.17878 -1.63365 0
M  V30 7151 C 668.896 -4.43475 -0.814891 0
M  V30 7152 C 667.558 -4.77581 -0.589066 0
M  V30 7153 C 669.91 -5.20631 -0.243437 0
M  V30 7154 C 667.238 -5.86292 0.218648 0
M  V30 7155 C 669.59 -6.30192 0.551408 0
M  V30 7156 C 668.254 -6.62837 0.787653 0
M  V30 7157 H 667.524 -0.674245 -0.307367 0
M  V30 7158 H 670.171 -1.91224 -0.102832 0
M  V30 7159 H 668.476 -3.06437 -2.44138 0
M  V30 7160 H 670.173 -3.3614 -2.18658 0
M  V30 7161 H 666.763 -4.16747 -1.00098 0
M  V30 7162 H 670.947 -4.94644 -0.405145 0
M  V30 7163 H 666.203 -6.10017 0.411016 0
M  V30 7164 H 670.377 -6.89165 1.00126 0
M  V30 7165 H 668.004 -7.46908 1.41537 0
M  V30 7166 N 669.579 0.400081 -1.52437 0
M  V30 7167 C 670.995 0.739359 -1.41441 0
M  V30 7168 C 671.195 1.94512 -0.526053 0
M  V30 7169 O 670.251 2.525 0.00472502 0
M  V30 7170 C 671.564 0.984824 -2.84116 0
M  V30 7171 C 673.112 1.08698 -2.93519 0
M  V30 7172 C 673.587 1.36515 -4.37181 0
M  V30 7173 N 675.078 1.43361 -4.40457 0
M  V30 7174 C 675.813 1.66528 -5.48686 0
M  V30 7175 N 675.309 1.87239 -6.67018 0
M  V30 7176 N 677.102 1.68617 -5.36213 0
M  V30 7177 H 669.253 -0.393484 -2.08723 0
M  V30 7178 H 671.516 -0.1138 -0.941145 0
M  V30 7179 H 671.222 0.171096 -3.51284 0
M  V30 7180 H 671.096 1.90253 -3.25705 0
M  V30 7181 H 673.483 1.89129 -2.26526 0
M  V30 7182 H 673.564 0.147432 -2.55375 0
M  V30 7183 H 673.208 0.565982 -5.04737 0
M  V30 7184 H 673.138 2.31737 -4.7287 0
M  V30 7185 H 675.629 1.29108 -3.55161 0
M  V30 7186 H 675.942 2.04392 -7.45281 0
M  V30 7187 H 674.287 1.84486 -6.70067 0
M  V30 7188 H 677.478 1.5198 -4.42741 0
M  V30 7189 H 677.651 1.86332 -6.20632 0
M  V30 7190 N 671.057 1.43213 0.657864 0
M  V30 7191 C 672.306 1.43871 1.41365 0
M  V30 7192 C 672.619 0.064898 1.95492 0
M  V30 7193 O 673.825 -0.0510796 2.71452 0
M  V30 7194 C 672.281 2.53158 2.55811 0
M  V30 7195 C 671.889 3.96624 2.08311 0
M  V30 7196 C 673.633 2.63004 3.3321 0
M  V30 7197 C 671.54 4.97385 3.1994 0
M  V30 7198 H 670.47 0.535174 0.531136 0
M  V30 7199 H 673.121 1.69185 0.710543 0
M  V30 7200 H 671.503 2.21037 3.2857 0
M  V30 7201 H 672.677 4.38182 1.42593 0
M  V30 7202 H 670.992 3.90781 1.43804 0
M  V30 7203 H 673.589 3.3546 4.16378 0
M  V30 7204 H 673.932 1.67918 3.80932 0
M  V30 7205 H 674.465 2.94403 2.67529 0
M  V30 7206 H 671.204 5.94007 2.77192 0
M  V30 7207 H 670.724 4.60444 3.84385 0
M  V30 7208 H 672.403 5.19877 3.85145 0
M  V30 7209 N 672.536 -0.895792 1.29666 0
M  V30 7210 C 673.469 -2.00238 1.09453 0
M  V30 7211 C 674.447 -1.62599 0.00527044 0
M  V30 7212 O 675.631 -1.87847 0.156729 0
M  V30 7213 C 672.758 -3.32066 0.667054 0
M  V30 7214 C 671.804 -3.88691 1.7556 0
M  V30 7215 S 672.637 -4.17317 3.35569 0
M  V30 7216 C 673.793 -5.52181 2.94698 0
M  V30 7217 H 674.026 -2.17076 2.03138 0
M  V30 7218 H 671.559 -1.04287 1.13858 0
M  V30 7219 H 673.517 -4.08272 0.427136 0
M  V30 7220 H 672.178 -3.13101 -0.250256 0
M  V30 7221 H 671.371 -4.83918 1.40853 0
M  V30 7222 H 670.973 -3.19187 1.94924 0
M  V30 7223 H 673.265 -6.3281 2.41986 0
M  V30 7224 H 674.208 -5.91817 3.88791 0
M  V30 7225 H 674.616 -5.14225 2.32879 0
M  V30 7226 N 674.014 -1.12206 -1.10668 0
M  V30 7227 C 675.425 -0.890657 -1.64086 0
M  V30 7228 C 675.776 0.575502 -1.8757 0
M  V30 7229 O 674.901 1.4394 -1.61587 0
M  V30 7230 C 675.496 -1.61029 -2.98085 0
M  V30 7231 C 674.055 -1.4251 -3.48379 0
M  V30 7232 C 673.202 -1.64778 -2.23033 0
M  V30 7233 H 676.153 -1.27718 -0.94201 0
M  V30 7234 H 676.174 -1.05993 -3.65439 0
M  V30 7235 H 675.686 -2.67735 -2.80962 0
M  V30 7236 H 673.787 -0.380497 -3.70652 0
M  V30 7237 H 673.9 -2.17959 -4.26651 0
M  V30 7238 H 672.264 -1.07171 -2.31055 0
M  V30 7239 H 673.047 -2.72776 -2.08443 0
M  V30 7240 N 675.492 1.28418 -0.913599 0
M  V30 7241 C 676.72 1.99106 -0.562536 0
M  V30 7242 C 677.135 1.68273 0.856137 0
M  V30 7243 O 676.492 0.935401 1.56705 0
M  V30 7244 C 676.543 3.5338 -0.761903 0
M  V30 7245 O 676.264 3.83127 -2.12475 0
M  V30 7246 C 677.765 4.41328 -0.417651 0
M  V30 7247 H 674.985 0.635798 -0.214481 0
M  V30 7248 H 677.529 1.63618 -1.22676 0
M  V30 7249 H 675.684 3.8713 -0.144676 0
M  V30 7250 H 676.098 4.77763 -2.16431 0
M  V30 7251 H 677.572 5.48642 -0.607919 0
M  V30 7252 H 678.049 4.34422 0.646108 0
M  V30 7253 H 678.655 4.13074 -1.01241 0
M  V30 7254 N 676.97 0.677563 1.42291 0
M  V30 7255 C 677.88 0.000962654 2.346 0
M  V30 7256 C 678.896 -0.785833 1.55244 0
M  V30 7257 O 680.072 -0.727523 1.87801 0
M  V30 7258 C 677.137 -0.936746 3.33805 0
M  V30 7259 C 676.198 -0.144173 4.29058 0
M  V30 7260 C 675.431 -1.03722 5.23524 0
M  V30 7261 O 675.654 -2.27675 5.22992 0
M  V30 7262 O 674.588 -0.496542 5.99848 0
M  V30 7263 H 678.414 0.761397 2.94001 0
M  V30 7264 H 675.999 0.43781 1.42841 0
M  V30 7265 H 677.881 -1.47497 3.94744 0
M  V30 7266 H 676.556 -1.67698 2.76874 0
M  V30 7267 H 675.463 0.438224 3.71524 0
M  V30 7268 H 676.796 0.55701 4.89038 0
M  V30 7269 N 678.448 -1.51871 0.421078 0
M  V30 7270 C 679.395 -2.27334 -0.398508 0
M  V30 7271 C 680.365 -1.30241 -1.03085 0
M  V30 7272 O 681.55 -1.59121 -1.05285 0
M  V30 7273 C 678.69 -3.10664 -1.50272 0
M  V30 7274 C 677.803 -4.2273 -0.890122 0
M  V30 7275 C 676.938 -4.93399 -1.96803 0
M  V30 7276 C 675.977 -5.97409 -1.333 0
M  V30 7277 N 675.114 -6.61548 -2.35156 0
M  V30 7278 H 679.954 -2.96938 0.251411 0
M  V30 7279 H 677.491 -1.46472 0.135825 0
M  V30 7280 H 679.449 -3.57292 -2.15403 0
M  V30 7281 H 678.079 -2.43207 -2.1225 0
M  V30 7282 H 677.131 -3.80186 -0.127537 0
M  V30 7283 H 678.443 -4.97302 -0.386349 0
M  V30 7284 H 677.597 -5.43491 -2.69633 0
M  V30 7285 H 676.336 -4.18421 -2.50549 0
M  V30 7286 H 675.341 -5.46624 -0.59008 0
M  V30 7287 H 676.566 -6.74335 -0.803076 0
M  V30 7288 H 674.512 -5.89394 -2.88012 0
M  V30 7289 H 674.429 -7.31832 -1.89624 0
M  V30 7290 H 675.697 -7.16276 -3.0752 0
M  V30 7291 N 679.926 -0.151884 -1.56866 0
M  V30 7292 C 680.836 0.798876 -2.20579 0
M  V30 7293 C 681.852 1.268 -1.19154 0
M  V30 7294 O 683.028 1.32418 -1.51748 0
M  V30 7295 C 680.093 2.01861 -2.81874 0
M  V30 7296 C 679.154 1.59825 -3.9844 0
M  V30 7297 C 678.387 2.75984 -4.56802 0
M  V30 7298 O 678.61 3.92331 -4.14044 0
M  V30 7299 O 677.544 2.51175 -5.46987 0
M  V30 7300 H 681.37 0.2865 -3.02346 0
M  V30 7301 H 678.955 0.0753806 -1.4921 0
M  V30 7302 H 680.837 2.73235 -3.20813 0
M  V30 7303 H 679.512 2.52042 -2.03117 0
M  V30 7304 H 678.419 0.854601 -3.64208 0
M  V30 7305 H 679.752 1.14355 -4.78731 0
M  V30 7306 N 681.404 1.57128 0.121893 0
M  V30 7307 C 682.815 1.73902 0.679348 0
M  V30 7308 C 683.166 0.770135 1.80453 0
M  V30 7309 O 682.291 -0.0576083 2.16323 0
M  V30 7310 C 682.886 3.15328 1.2391 0
M  V30 7311 C 681.445 3.33618 1.74288 0
M  V30 7312 C 680.592 2.6978 0.641414 0
M  V30 7313 H 683.543 1.58359 -0.104 0
M  V30 7314 H 683.564 3.16718 2.10879 0
M  V30 7315 H 683.076 3.85821 0.419957 0
M  V30 7316 H 681.177 2.68162 2.58689 0
M  V30 7317 H 681.29 4.4176 1.85432 0
M  V30 7318 H 679.654 2.30935 1.0743 0
M  V30 7319 H 680.437 3.42895 -0.166707 0
M  V30 7320 N 682.882 -0.391992 1.52647 0
M  V30 7321 C 683.845 -1.46135 1.7657 0
M  V30 7322 C 684.845 -1.47701 0.635698 0
M  V30 7323 O 686.035 -1.48924 0.903728 0
M  V30 7324 C 683.167 -2.85443 1.86374 0
M  V30 7325 H 684.36 -1.26208 2.72051 0
M  V30 7326 H 681.913 -0.623549 1.43323 0
M  V30 7327 H 682.648 -3.10718 0.928685 0
M  V30 7328 H 682.433 -2.85708 2.68539 0
M  V30 7329 H 683.923 -3.62933 2.06566 0
M  V30 7330 N 684.36 -1.4356 -0.65026 0
M  V30 7331 C 685.776 -1.27025 -0.966269 0
M  V30 7332 C 685.976 -0.192117 -2.00582 0
M  V30 7333 O 685.032 0.428459 -2.48838 0
M  V30 7334 C 686.345 -2.63556 -1.44772 0
M  V30 7335 C 687.893 -2.71111 -1.56421 0
M  V30 7336 C 688.368 -4.08067 -2.07956 0
M  V30 7337 N 689.859 -4.10146 -2.15254 0
M  V30 7338 C 690.594 -5.12952 -2.56258 0
M  V30 7339 N 690.09 -6.26129 -2.96537 0
M  V30 7340 N 691.883 -5.00306 -2.56224 0
M  V30 7341 H 684.034 -2.12367 0.0375758 0
M  V30 7342 H 686.297 -0.946894 -0.0457782 0
M  V30 7343 H 686.003 -3.43429 -0.758271 0
M  V30 7344 H 685.877 -2.89152 -2.42221 0
M  V30 7345 H 688.264 -1.91569 -2.24467 0
M  V30 7346 H 688.345 -2.49277 -0.573967 0
M  V30 7347 H 687.989 -4.88077 -1.40511 0
M  V30 7348 H 687.919 -4.27266 -3.07817 0
M  V30 7349 H 690.41 -3.28453 -1.86887 0
M  V30 7350 H 690.723 -7.00403 -3.26582 0
M  V30 7351 H 689.068 -6.29597 -2.94334 0
M  V30 7352 H 692.259 -4.10952 -2.24135 0
M  V30 7353 H 692.432 -5.80553 -2.87857 0
M  V30 7354 N 685.838 0.888903 -1.30139 0
M  V30 7355 C 687.063 1.67884 -1.21777 0
M  V30 7356 C 687.488 1.86848 0.216689 0
M  V30 7357 O 686.846 1.39659 1.15608 0
M  V30 7358 C 686.894 3.03483 -1.94757 0
M  V30 7359 O 685.998 3.92294 -1.27198 0
M  V30 7360 H 685.339 0.513144 -0.421402 0
M  V30 7361 H 687.869 1.10968 -1.71893 0
M  V30 7362 H 687.879 3.53553 -2.03627 0
M  V30 7363 H 686.554 2.89 -2.99085 0
M  V30 7364 H 685.131 3.50732 -1.26655 0
M  V30 7365 N 687.317 1.12792 1.10072 0
M  V30 7366 C 688.545 0.908506 1.85886 0
M  V30 7367 C 688.96 -0.542408 1.80841 0
M  V30 7368 O 688.317 -1.37517 1.1998 0
M  V30 7369 C 688.368 1.37973 3.34134 0
M  V30 7370 O 688.089 2.77378 3.39106 0
M  V30 7371 C 689.59 1.1978 4.26811 0
M  V30 7372 H 686.81 0.3244 0.587372 0
M  V30 7373 H 689.354 1.49882 1.39125 0
M  V30 7374 H 687.509 0.832566 3.78348 0
M  V30 7375 H 687.923 2.98144 4.31521 0
M  V30 7376 H 689.397 1.57635 5.29014 0
M  V30 7377 H 689.874 0.138768 4.38981 0
M  V30 7378 H 690.48 1.73266 3.88406 0
M  V30 7379 N 688.795 -1.27931 0.920396 0
M  V30 7380 C 690.206 -1.76707 0.602616 0
M  V30 7381 C 690.557 -1.75249 -0.882159 0
M  V30 7382 O 689.682 -1.35135 -1.69019 0
M  V30 7383 C 690.277 -3.20884 1.08714 0
M  V30 7384 C 688.836 -3.67356 0.820157 0
M  V30 7385 C 687.983 -2.47525 1.25006 0
M  V30 7386 H 690.934 -1.14301 1.10095 0
M  V30 7387 H 690.955 -3.78045 0.431535 0
M  V30 7388 H 690.467 -3.21913 2.1678 0
M  V30 7389 H 688.568 -3.7178 -0.247012 0
M  V30 7390 H 688.681 -4.57181 1.43257 0
M  V30 7391 H 687.045 -2.45765 0.668698 0
M  V30 7392 H 687.828 -2.51269 2.3392 0
M  V30 7393 N 690.273 -0.685099 -1.4193 0
M  V30 7394 C 691.22 -0.0131869 -2.30796 0
M  V30 7395 C 692.19 0.782129 -1.46533 0
M  V30 7396 O 693.375 0.75229 -1.75343 0
M  V30 7397 C 690.515 0.924768 -3.32479 0
M  V30 7398 C 689.628 0.122181 -4.31827 0
M  V30 7399 C 688.763 1.05682 -5.20581 0
M  V30 7400 C 687.802 0.246526 -6.11603 0
M  V30 7401 N 686.939 1.13442 -6.92875 0
M  V30 7402 H 691.779 -0.776789 -2.87698 0
M  V30 7403 H 689.316 -0.394791 -1.41703 0
M  V30 7404 H 691.274 1.48251 -3.89971 0
M  V30 7405 H 689.904 1.65488 -2.77152 0
M  V30 7406 H 688.956 -0.552335 -3.76369 0
M  V30 7407 H 690.268 -0.506473 -4.96222 0
M  V30 7408 H 689.422 1.68415 -5.82856 0
M  V30 7409 H 688.161 1.71935 -4.56388 0
M  V30 7410 H 687.166 -0.393944 -5.48387 0
M  V30 7411 H 688.391 -0.412053 -6.77849 0
M  V30 7412 H 686.337 1.78316 -6.313 0
M  V30 7413 H 686.254 0.561089 -7.53915 0
M  V30 7414 H 687.522 1.74889 -7.59628 0
M  V30 7415 N 691.751 1.51645 -0.429126 0
M  V30 7416 C 693 2.01203 0.141538 0
M  V30 7417 C 693.313 1.31828 1.44502 0
M  V30 7418 O 694.519 1.7231 2.09813 0
M  V30 7419 C 692.975 3.58624 0.302786 0
M  V30 7420 C 692.583 4.3693 -0.989775 0
M  V30 7421 C 694.327 4.16353 0.827661 0
M  V30 7422 C 692.234 5.86037 -0.794619 0
M  V30 7423 H 691.164 0.751867 0.05667 0
M  V30 7424 H 693.815 1.74822 -0.557633 0
M  V30 7425 H 692.197 3.81417 1.06476 0
M  V30 7426 H 693.371 4.25887 -1.75945 0
M  V30 7427 H 691.686 3.90614 -1.44256 0
M  V30 7428 H 694.283 5.25455 0.990026 0
M  V30 7429 H 694.626 3.74995 1.80787 0
M  V30 7430 H 695.159 3.97606 0.124213 0
M  V30 7431 H 691.898 6.31792 -1.74697 0
M  V30 7432 H 691.418 5.99765 -0.0645968 0
M  V30 7433 H 693.097 6.45471 -0.444591 0
M  V30 7434 N 693.229 0.160201 1.56784 0
M  V30 7435 C 694.159 -0.770264 2.2043 0
M  V30 7436 C 695.14 -1.24736 1.15651 0
M  V30 7437 O 696.325 -1.30253 1.44041 0
M  V30 7438 C 693.455 -2.00427 2.83631 0
M  V30 7439 C 692.409 -1.66345 3.94352 0
M  V30 7440 C 691.735 -2.97119 4.4455 0
M  V30 7441 C 693.035 -0.899972 5.14488 0
M  V30 7442 H 694.729 -0.239783 2.98438 0
M  V30 7443 H 692.275 -0.113891 1.43549 0
M  V30 7444 H 694.228 -2.66012 3.26827 0
M  V30 7445 H 692.952 -2.5587 2.02973 0
M  V30 7446 H 691.611 -1.03133 3.51794 0
M  V30 7447 H 691.259 -3.5058 3.60698 0
M  V30 7448 H 690.959 -2.75073 5.19238 0
M  V30 7449 H 692.483 -3.63753 4.90425 0
M  V30 7450 H 693.897 -1.45818 5.54446 0
M  V30 7451 H 692.294 -0.778968 5.95023 0
M  V30 7452 H 693.364 0.105827 4.84785 0
M  V30 7453 N 694.707 -1.5719 -0.113559 0
M  V30 7454 C 695.67 -1.99796 -1.12314 0
M  V30 7455 C 696.67 -0.888847 -1.34001 0
M  V30 7456 O 697.86 -1.15476 -1.30426 0
M  V30 7457 C 694.992 -2.34279 -2.47641 0
M  V30 7458 H 696.185 -2.90193 -0.756825 0
M  V30 7459 H 693.738 -1.52144 -0.358029 0
M  V30 7460 H 694.473 -1.46778 -2.89183 0
M  V30 7461 H 694.258 -3.15175 -2.33253 0
M  V30 7462 H 695.748 -2.67963 -3.2029 0
M  V30 7463 N 696.185 0.383891 -1.52853 0
M  V30 7464 C 697.115 1.47559 -1.80965 0
M  V30 7465 C 698.096 1.5669 -0.661986 0
M  V30 7466 O 699.281 1.71556 -0.910072 0
M  V30 7467 C 696.411 2.85114 -1.98312 0
M  V30 7468 C 695.365 2.9082 -3.14019 0
M  V30 7469 C 694.691 4.30873 -3.16627 0
M  V30 7470 C 695.991 2.60001 -4.52986 0
M  V30 7471 H 697.685 1.24283 -2.72386 0
M  V30 7472 H 695.231 0.596445 -1.31067 0
M  V30 7473 H 697.184 3.61496 -2.16561 0
M  V30 7474 H 695.908 3.09738 -1.03585 0
M  V30 7475 H 694.567 2.16886 -2.9556 0
M  V30 7476 H 694.215 4.52545 -2.19573 0
M  V30 7477 H 693.915 4.3561 -3.94357 0
M  V30 7478 H 695.439 5.09154 -3.37038 0
M  V30 7479 H 696.853 3.261 -4.71521 0
M  V30 7480 H 695.25 2.76081 -5.32822 0
M  V30 7481 H 696.32 1.5532 -4.59351 0
M  V30 7482 N 697.663 1.43903 0.642637 0
M  V30 7483 C 698.903 1.47591 1.41408 0
M  V30 7484 C 699.267 0.101313 1.91733 0
M  V30 7485 O 700.468 0.0128797 2.68797 0
M  V30 7486 C 698.739 2.4977 2.55636 0
M  V30 7487 S 700.298 2.72417 3.43998 0
M  V30 7488 H 697.116 0.522163 0.482563 0
M  V30 7489 H 699.718 1.80745 0.745085 0
M  V30 7490 H 698.422 3.48365 2.16956 0
M  V30 7491 H 697.953 2.1815 3.27375 0
M  V30 7492 H 699.968 2.03142 4.52712 0
M  V30 7493 N 699.141 -0.881989 1.30609 0
M  V30 7494 C 700.388 -1.63405 1.19604 0
M  V30 7495 C 700.716 -1.92905 -0.248574 0
M  V30 7496 O 699.971 -1.55062 -1.19391 0
M  V30 7497 C 700.27 -2.97999 1.97311 0
M  V30 7498 C 699.936 -2.88039 3.46907 0
M  V30 7499 C 698.598 -2.85029 3.877 0
M  V30 7500 C 700.95 -2.75948 4.42156 0
M  V30 7501 C 698.278 -2.67772 5.2203 0
M  V30 7502 C 700.63 -2.60228 5.76597 0
M  V30 7503 C 699.294 -2.55595 6.16626 0
M  V30 7504 H 698.564 -0.597941 0.437662 0
M  V30 7505 H 701.211 -1.02524 1.61744 0
M  V30 7506 H 699.516 -3.62847 1.47815 0
M  V30 7507 H 701.213 -3.55156 1.86186 0
M  V30 7508 H 697.803 -2.91192 3.14492 0
M  V30 7509 H 701.987 -2.77337 4.1158 0
M  V30 7510 H 697.243 -2.62601 5.52133 0
M  V30 7511 H 701.417 -2.49847 6.50038 0
M  V30 7512 H 699.044 -2.41981 7.20659 0
M  V30 7513 N 700.619 -1.13374 -1.09472 0
M  V30 7514 C 701.582 -0.813639 -2.14272 0
M  V30 7515 C 702.582 0.176677 -1.59826 0
M  V30 7516 O 703.772 -0.0503441 -1.74127 0
M  V30 7517 C 700.904 -0.210897 -3.40247 0
M  V30 7518 H 702.097 -1.74229 -2.44099 0
M  V30 7519 H 699.65 -0.938304 -1.25002 0
M  V30 7520 H 700.385 0.726998 -3.16046 0
M  V30 7521 H 700.17 -0.924048 -3.81056 0
M  V30 7522 H 701.66 -0.00377603 -4.176 0
M  V30 7523 N 702.098 1.27442 -0.927168 0
M  V30 7524 C 703.031 2.25177 -0.370232 0
M  V30 7525 C 704.009 1.53612 0.533103 0
M  V30 7526 O 705.193 1.8245 0.47373 0
M  V30 7527 C 702.32 3.35431 0.469411 0
M  V30 7528 C 701.366 4.24888 -0.370419 0
M  V30 7529 S 702.199 5.04852 -1.78562 0
M  V30 7530 C 703.355 6.18592 -0.953651 0
M  V30 7531 H 703.588 2.72069 -1.19858 0
M  V30 7532 H 701.121 1.36089 -0.729316 0
M  V30 7533 H 703.079 3.99404 0.947992 0
M  V30 7534 H 701.74 2.87179 1.27228 0
M  V30 7535 H 700.933 5.03264 0.272226 0
M  V30 7536 H 700.535 3.65709 -0.783153 0
M  V30 7537 H 702.827 6.77235 -0.189408 0
M  V30 7538 H 703.77 6.87132 -1.7104 0
M  V30 7539 H 704.178 5.62318 -0.495897 0
M  V30 7540 N 703.576 0.692616 1.41565 0
M  V30 7541 C 704.506 0.0397325 2.33466 0
M  V30 7542 C 705.487 -0.770334 1.51657 0
M  V30 7543 O 706.672 -0.723903 1.80203 0
M  V30 7544 C 703.802 -0.899495 3.3545 0
M  V30 7545 C 702.756 -0.196738 4.27548 0
M  V30 7546 C 702.082 -1.25012 5.19881 0
M  V30 7547 C 703.382 0.935158 5.1386 0
M  V30 7548 H 705.076 0.807296 2.88311 0
M  V30 7549 H 702.622 0.389665 1.38628 0
M  V30 7550 H 704.575 -1.36545 3.98665 0
M  V30 7551 H 703.299 -1.69869 2.78948 0
M  V30 7552 H 701.958 0.249158 3.65752 0
M  V30 7553 H 701.606 -2.04177 4.59696 0
M  V30 7554 H 701.306 -0.784931 5.82334 0
M  V30 7555 H 702.83 -1.71665 5.85972 0
M  V30 7556 H 704.244 0.549619 5.70659 0
M  V30 7557 H 702.641 1.32726 5.85238 0
M  V30 7558 H 703.711 1.77613 4.512 0
M  V30 7559 N 705.054 -1.51416 0.437162 0
M  V30 7560 C 706.302 -2.01687 -0.129108 0
M  V30 7561 C 706.623 -1.32329 -1.43227 0
M  V30 7562 O 705.893 -0.457796 -1.90476 0
M  V30 7563 H 704.473 -0.745277 -0.0507023 0
M  V30 7564 H 707.135 -1.86075 0.579828 0
M  V30 7565 H 706.231 -3.10605 -0.305141 0
M  V30 7566 N 706.532 -0.168513 -1.56696 0
M  V30 7567 C 707.779 0.477158 -1.96798 0
M  V30 7568 C 708.107 1.63442 -1.05437 0
M  V30 7569 O 707.362 1.95503 -0.0878903 0
M  V30 7570 C 707.661 1.00441 -3.42996 0
M  V30 7571 C 707.327 -0.0366556 -4.50885 0
M  V30 7572 C 705.989 -0.322785 -4.80116 0
M  V30 7573 C 708.341 -0.743447 -5.1587 0
M  V30 7574 C 705.669 -1.32114 -5.71632 0
M  V30 7575 C 708.021 -1.73077 -6.08463 0
M  V30 7576 C 706.685 -2.02437 -6.36062 0
M  V30 7577 H 705.955 0.174604 -0.720135 0
M  V30 7578 H 708.602 -0.259884 -1.89728 0
M  V30 7579 H 706.907 1.81922 -3.47004 0
M  V30 7580 H 708.604 1.51294 -3.71364 0
M  V30 7581 H 705.194 0.196532 -4.28149 0
M  V30 7582 H 709.378 -0.535602 -4.93401 0
M  V30 7583 H 704.634 -1.55482 -5.913 0
M  V30 7584 H 708.808 -2.28382 -6.57886 0
M  V30 7585 H 706.435 -2.79946 -7.06777 0
M  V30 7586 N 708.01 1.57248 0.105221 0
M  V30 7587 C 708.94 2.04374 1.12931 0
M  V30 7588 C 709.921 0.93074 1.42377 0
M  V30 7589 O 711.106 1.20136 1.52581 0
M  V30 7590 C 708.236 2.45967 2.45189 0
M  V30 7591 C 707.19 3.60838 2.30174 0
M  V30 7592 C 706.516 3.88374 3.67518 0
M  V30 7593 C 707.816 4.92084 1.75073 0
M  V30 7594 H 709.51 2.9018 0.737287 0
M  V30 7595 H 707.056 1.39601 0.353211 0
M  V30 7596 H 709.009 2.77542 3.17094 0
M  V30 7597 H 707.733 1.57148 2.86308 0
M  V30 7598 H 706.392 3.29493 1.60716 0
M  V30 7599 H 706.04 2.96739 4.06147 0
M  V30 7600 H 705.74 4.65703 3.58321 0
M  V30 7601 H 707.264 4.22415 4.40906 0
M  V30 7602 H 708.678 5.22106 2.36809 0
M  V30 7603 H 707.075 5.73507 1.76662 0
M  V30 7604 H 708.145 4.79684 0.709347 0
M  V30 7605 N 709.488 -0.375779 1.53054 0
M  V30 7606 C 710.418 -1.46598 1.81745 0
M  V30 7607 C 711.399 -1.56337 0.670286 0
M  V30 7608 O 712.584 -1.71071 0.919158 0
M  V30 7609 C 709.714 -2.84058 1.99821 0
M  V30 7610 C 708.668 -2.8915 3.15557 0
M  V30 7611 C 707.994 -4.29187 3.18908 0
M  V30 7612 C 709.294 -2.57595 4.54359 0
M  V30 7613 H 710.988 -1.22837 2.73041 0
M  V30 7614 H 708.534 -0.589485 1.31381 0
M  V30 7615 H 710.487 -3.60342 2.18475 0
M  V30 7616 H 709.211 -3.09184 1.05226 0
M  V30 7617 H 707.87 -2.15316 2.96706 0
M  V30 7618 H 707.518 -4.51374 2.2197 0
M  V30 7619 H 707.218 -4.33512 3.96662 0
M  V30 7620 H 708.742 -5.07359 3.39734 0
M  V30 7621 H 710.156 -3.23595 4.73243 0
M  V30 7622 H 708.553 -2.73252 5.34279 0
M  V30 7623 H 709.623 -1.52882 4.60169 0
M  V30 7624 N 710.966 -1.44241 -0.634997 0
M  V30 7625 C 711.899 -1.45274 -1.75985 0
M  V30 7626 C 712.877 -0.312025 -1.59578 0
M  V30 7627 O 714.061 -0.508409 -1.81514 0
M  V30 7628 C 711.188 -1.28173 -3.13511 0
M  V30 7629 C 710.234 -2.45757 -3.48576 0
M  V30 7630 S 711.067 -4.08293 -3.46492 0
M  V30 7631 C 712.223 -3.93608 -4.86645 0
M  V30 7632 H 712.456 -2.40454 -1.74841 0
M  V30 7633 H 709.989 -1.31492 -0.809268 0
M  V30 7634 H 711.947 -1.18993 -3.92875 0
M  V30 7635 H 710.608 -0.34511 -3.12198 0
M  V30 7636 H 709.801 -2.29644 -4.48642 0
M  V30 7637 H 709.403 -2.51657 -2.76667 0
M  V30 7638 H 711.695 -3.57059 -5.75774 0
M  V30 7639 H 712.638 -4.9349 -5.07813 0
M  V30 7640 H 713.046 -3.25737 -4.61038 0
M  V30 7641 N 712.444 0.87505 -1.31075 0
M  V30 7642 C 713.672 1.66058 -1.23419 0
M  V30 7643 C 714.087 1.87723 0.201347 0
M  V30 7644 O 713.444 1.43178 1.13165 0
M  V30 7645 C 713.495 3.03142 -1.96945 0
M  V30 7646 O 713.216 2.82448 -3.34895 0
M  V30 7647 C 714.717 3.97583 -1.96067 0
M  V30 7648 H 711.937 0.517868 -0.426677 0
M  V30 7649 H 714.481 1.09258 -1.72867 0
M  V30 7650 H 712.636 3.56645 -1.51271 0
M  V30 7651 H 713.05 3.69483 -3.72267 0
M  V30 7652 H 714.524 4.91104 -2.52034 0
M  V30 7653 H 715.001 4.2898 -0.941961 0
M  V30 7654 H 715.607 3.50015 -2.41597 0
M  V30 7655 N 713.922 1.13953 1.08869 0
M  V30 7656 C 714.855 0.765765 2.14968 0
M  V30 7657 C 715.833 -0.250689 1.60656 0
M  V30 7658 O 717.017 -0.140852 1.87973 0
M  V30 7659 C 714.144 0.136146 3.38426 0
M  V30 7660 C 713.19 1.12201 4.11477 0
M  V30 7661 S 714.023 2.65711 4.64928 0
M  V30 7662 C 715.179 2.04125 5.91679 0
M  V30 7663 H 715.412 1.66444 2.46341 0
M  V30 7664 H 712.945 0.960263 1.20906 0
M  V30 7665 H 714.903 -0.220712 4.09906 0
M  V30 7666 H 713.564 -0.739887 3.05261 0
M  V30 7667 H 712.757 0.629398 5.00055 0
M  V30 7668 H 712.359 1.42262 3.45886 0
M  V30 7669 H 714.651 1.39381 6.63008 0
M  V30 7670 H 715.594 2.90808 6.45629 0
M  V30 7671 H 716.002 1.4905 5.44467 0
M  V30 7672 N 715.4 -1.26948 0.933913 0
M  V30 7673 C 716.625 -1.98724 0.593589 0
M  V30 7674 C 717.05 -1.6915 -0.822801 0
M  V30 7675 O 716.408 -0.93533 -1.5531 0
M  V30 7676 C 716.456 -3.50834 0.833542 0
M  V30 7677 O 715.56 -4.12284 -0.0978788 0
M  V30 7678 H 714.901 -0.623683 0.227849 0
M  V30 7679 H 717.431 -1.61599 1.25486 0
M  V30 7680 H 717.441 -4.01018 0.75156 0
M  V30 7681 H 716.116 -3.71691 1.86597 0
M  V30 7682 H 714.693 -3.72884 0.0345443 0
M  V30 7683 N 716.879 -0.700114 -1.41195 0
M  V30 7684 C 717.809 -0.0521132 -2.33442 0
M  V30 7685 C 718.79 0.76228 -1.52063 0
M  V30 7686 O 719.975 0.714336 -1.80585 0
M  V30 7687 C 717.105 0.881693 -3.35922 0
M  V30 7688 C 716.059 0.174062 -4.27646 0
M  V30 7689 C 715.385 1.22254 -5.20536 0
M  V30 7690 C 716.685 -0.962396 -5.13357 0
M  V30 7691 H 718.379 -0.822574 -2.87879 0
M  V30 7692 H 715.925 -0.397011 -1.38419 0
M  V30 7693 H 717.878 1.34429 -3.99383 0
M  V30 7694 H 716.602 1.68387 -2.79845 0
M  V30 7695 H 715.261 -0.268551 -3.65615 0
M  V30 7696 H 714.909 2.01736 -4.60773 0
M  V30 7697 H 714.609 0.754038 -5.82742 0
M  V30 7698 H 716.133 1.68555 -5.86874 0
M  V30 7699 H 717.547 -0.579875 -5.7036 0
M  V30 7700 H 715.944 -1.35828 -5.84526 0
M  V30 7701 H 717.014 -1.80003 -4.50252 0
M  V30 7702 N 718.357 1.51182 -0.445186 0
M  V30 7703 C 719.582 2.07056 0.119445 0
M  V30 7704 C 720.007 1.30966 1.35016 0
M  V30 7705 O 719.365 0.349827 1.77893 0
M  V30 7706 C 719.413 3.58234 0.412428 0
M  V30 7707 O 718.517 3.84249 1.49754 0
M  V30 7708 H 717.858 0.663998 -0.00157797 0
M  V30 7709 H 720.388 1.94699 -0.628779 0
M  V30 7710 H 720.398 4.02617 0.660583 0
M  V30 7711 H 719.073 4.13038 -0.487049 0
M  V30 7712 H 717.65 3.51724 1.23873 0
M  V30 7713 N 719.835 0.176821 1.56605 0
M  V30 7714 C 721.082 -0.466715 1.97048 0
M  V30 7715 C 721.41 -1.6288 1.06302 0
M  V30 7716 O 720.665 -1.95453 0.0982571 0
M  V30 7717 C 720.964 -0.986208 3.43524 0
M  V30 7718 C 720.63 0.0605667 4.50859 0
M  V30 7719 C 719.292 0.348242 4.79938 0
M  V30 7720 C 721.644 0.770794 5.15469 0
M  V30 7721 C 718.972 1.35144 5.70923 0
M  V30 7722 C 721.324 1.76301 6.07537 0
M  V30 7723 C 719.988 2.05808 6.3498 0
M  V30 7724 H 719.258 -0.170783 0.721051 0
M  V30 7725 H 721.905 0.269942 1.89588 0
M  V30 7726 H 720.21 -1.80079 3.47964 0
M  V30 7727 H 721.907 -1.49323 3.72161 0
M  V30 7728 H 718.497 -0.173823 4.28247 0
M  V30 7729 H 722.681 0.56176 4.9311 0
M  V30 7730 H 717.937 1.58616 5.90467 0
M  V30 7731 H 722.111 2.31868 6.56666 0
M  V30 7732 H 719.738 2.8369 7.05283 0
M  V30 7733 N 721.313 -1.57302 -0.09688 0
M  V30 7734 C 722.562 -1.85183 -0.799388 0
M  V30 7735 C 722.875 -0.765818 -1.79985 0
M  V30 7736 O 724.081 -0.931696 -2.55013 0
M  V30 7737 C 722.537 -3.28399 -1.47249 0
M  V30 7738 C 722.145 -4.45066 -0.511888 0
M  V30 7739 C 723.889 -3.65506 -2.15883 0
M  V30 7740 C 721.796 -5.79315 -1.18948 0
M  V30 7741 H 720.726 -0.690752 -0.302287 0
M  V30 7742 H 723.377 -1.83425 -0.0523104 0
M  V30 7743 H 721.759 -3.24692 -2.26697 0
M  V30 7744 H 722.933 -4.60116 0.250962 0
M  V30 7745 H 721.248 -4.16343 0.0686576 0
M  V30 7746 H 723.845 -4.63087 -2.67309 0
M  V30 7747 H 724.188 -2.94041 -2.94696 0
M  V30 7748 H 724.721 -3.71094 -1.43298 0
M  V30 7749 H 721.46 -6.54007 -0.442198 0
M  V30 7750 H 720.98 -5.68111 -1.9238 0
M  V30 7751 H 722.659 -6.23816 -1.71646 0
M  V30 7752 N 722.791 0.367657 -1.53252 0
M  V30 7753 C 724.04 1.10782 -1.68554 0
M  V30 7754 C 724.353 1.90523 -0.442765 0
M  V30 7755 O 725.559 2.6729 -0.47629 0
M  V30 7756 C 724.015 2.01863 -2.97959 0
M  V30 7757 C 723.623 1.27443 -4.29491 0
M  V30 7758 C 725.367 2.75883 -3.22628 0
M  V30 7759 C 723.274 2.17414 -5.49987 0
M  V30 7760 H 722.204 0.417272 -0.628013 0
M  V30 7761 H 724.855 0.368971 -1.79752 0
M  V30 7762 H 723.237 2.7947 -2.80558 0
M  V30 7763 H 724.411 0.549138 -4.57516 0
M  V30 7764 H 722.726 0.652935 -4.11249 0
M  V30 7765 H 725.323 3.43421 -4.09837 0
M  V30 7766 H 725.666 3.41138 -2.38601 0
M  V30 7767 H 726.199 2.0536 -3.40693 0
M  V30 7768 H 722.938 1.5674 -6.36485 0
M  V30 7769 H 722.458 2.87799 -5.26243 0
M  V30 7770 H 724.137 2.77019 -5.84696 0
M  V30 7771 N 724.269 1.44576 0.627338 0
M  V30 7772 C 725.518 1.46837 1.38281 0
M  V30 7773 C 725.831 0.10635 1.95311 0
M  V30 7774 O 727.037 0.00651084 2.71499 0
M  V30 7775 C 725.493 2.58527 2.50384 0
M  V30 7776 C 725.101 4.00953 1.99851 0
M  V30 7777 C 726.845 2.70013 3.27557 0
M  V30 7778 C 724.752 5.0406 3.09318 0
M  V30 7779 H 723.682 0.546319 0.519664 0
M  V30 7780 H 726.333 1.70654 0.674497 0
M  V30 7781 H 724.715 2.27957 3.23808 0
M  V30 7782 H 725.889 4.41108 1.33267 0
M  V30 7783 H 724.204 3.93743 1.35482 0
M  V30 7784 H 726.801 3.44217 4.09168 0
M  V30 7785 H 727.144 1.75961 3.77284 0
M  V30 7786 H 727.677 3.00011 2.61224 0
M  V30 7787 H 724.416 5.99753 2.6453 0
M  V30 7788 H 723.936 4.68493 3.74532 0
M  V30 7789 H 725.615 5.2793 3.74031 0
M  V30 7790 N 725.747 -0.868086 1.31537 0
M  V30 7791 C 727.024 -1.60384 1.11965 0
M  V30 7792 C 727.404 -2.08584 -0.324949 0
M  V30 7793 O 726.752 -1.86561 -1.31937 0
M  V30 7794 C 726.962 -2.76038 2.13551 0
M  V30 7795 C 728.31 -3.45954 2.46173 0
M  V30 7796 O 729.334 -2.86247 2.11993 0
M  V30 7797 O 728.193 -4.53666 3.04711 0
M  V30 7798 H 725.287 -0.705705 0.431172 0
M  V30 7799 H 727.833 -0.913385 1.43022 0
M  V30 7800 H 726.605 -2.37849 3.10714 0
M  V30 7801 H 726.228 -3.52769 1.83411 0
M  V30 7802 N 727.225 -1.14528 -1.08264 0
M  V30 7803 C 728.471 -0.925721 -1.81113 0
M  V30 7804 C 728.826 0.54185 -1.84612 0
M  V30 7805 O 728.119 1.39628 -1.31205 0
M  V30 7806 C 728.313 -1.46226 -3.26117 0
M  V30 7807 C 728.142 -2.98047 -3.36746 0
M  V30 7808 C 726.912 -3.66508 -3.4785 0
M  V30 7809 C 729.11 -3.95903 -3.28277 0
M  V30 7810 N 727.092 -5.06227 -3.47285 0
M  V30 7811 C 728.463 -5.21883 -3.34721 0
M  V30 7812 C 730.518 -3.88002 -3.12024 0
M  V30 7813 C 729.221 -6.40886 -3.26585 0
M  V30 7814 C 731.247 -5.06553 -3.05219 0
M  V30 7815 C 730.609 -6.31403 -3.12266 0
M  V30 7816 H 726.708 -0.392294 -0.676483 0
M  V30 7817 H 729.292 -1.45567 -1.293 0
M  V30 7818 H 727.463 -0.959076 -3.76373 0
M  V30 7819 H 729.195 -1.18247 -3.8704 0
M  V30 7820 H 725.95 -3.17067 -3.51804 0
M  V30 7821 H 726.374 -5.79172 -3.50555 0
M  V30 7822 H 731.016 -2.9235 -3.05436 0
M  V30 7823 H 728.734 -7.36781 -3.31934 0
M  V30 7824 H 732.32 -5.02191 -2.93761 0
M  V30 7825 H 731.2 -7.21596 -3.07032 0
M  V30 7826 N 728.703 1.26451 -0.940633 0
M  V30 7827 C 729.666 2.24651 -0.454378 0
M  V30 7828 C 730.666 1.54826 0.434222 0
M  V30 7829 O 731.856 1.72628 0.233477 0
M  V30 7830 C 728.988 3.39148 0.345192 0
M  V30 7831 H 730.181 2.69182 -1.32217 0
M  V30 7832 H 727.734 1.38596 -0.722547 0
M  V30 7833 H 728.469 3.00018 1.23125 0
M  V30 7834 H 728.254 3.9101 -0.292107 0
M  V30 7835 H 729.744 4.12103 0.675341 0
M  V30 7836 N 730.181 0.707592 1.40822 0
M  V30 7837 C 731.406 0.251626 2.05868 0
M  V30 7838 C 731.831 -1.09503 1.5294 0
M  V30 7839 O 731.189 -1.68806 0.661385 0
M  V30 7840 C 731.237 0.23287 3.59847 0
M  V30 7841 O 730.341 -0.788477 4.04792 0
M  V30 7842 H 729.682 0.119936 0.653078 0
M  V30 7843 H 732.212 0.96583 1.80369 0
M  V30 7844 H 732.222 0.0678204 4.07944 0
M  V30 7845 H 730.897 1.21565 3.97737 0
M  V30 7846 H 729.474 -0.591802 3.68174 0
M  V30 7847 N 731.66 -1.50943 0.453197 0
M  V30 7848 C 732.908 -2.01813 -0.107709 0
M  V30 7849 C 733.229 -1.33841 -1.41816 0
M  V30 7850 O 732.499 -0.477973 -1.8998 0
M  V30 7851 H 731.079 -0.745773 -0.0427948 0
M  V30 7852 H 733.741 -1.8545 0.599531 0
M  V30 7853 H 732.837 -3.10911 -0.27218 0
M  V30 7854 N 733.138 -0.185124 -1.56509 0
M  V30 7855 C 734.366 0.462139 -2.01673 0
M  V30 7856 C 734.781 1.55873 -1.06532 0
M  V30 7857 O 734.138 1.82371 -0.0684805 0
M  V30 7858 C 734.189 1.0277 -3.46584 0
M  V30 7859 O 733.91 -0.0251296 -4.38093 0
M  V30 7860 C 735.411 1.75183 -4.07217 0
M  V30 7861 H 732.631 0.117001 -0.660721 0
M  V30 7862 H 735.175 -0.290905 -2.0242 0
M  V30 7863 H 733.33 1.73118 -3.46568 0
M  V30 7864 H 733.744 0.394387 -5.23015 0
M  V30 7865 H 735.218 2.09999 -5.10494 0
M  V30 7866 H 735.695 2.6519 -3.50101 0
M  V30 7867 H 736.301 1.09445 -4.10977 0
M  V30 7868 N 734.616 1.57351 0.0885366 0
M  V30 7869 C 735.841 1.91011 0.80805 0
M  V30 7870 C 736.266 0.780009 1.71165 0
M  V30 7871 O 735.624 -0.268083 1.79307 0
M  V30 7872 C 735.672 3.23562 1.59185 0
M  V30 7873 O 734.776 3.11615 2.7013 0
M  V30 7874 H 734.117 0.625943 0.221565 0
M  V30 7875 H 736.647 2.04507 0.0617954 0
M  V30 7876 H 736.657 3.5703 1.97468 0
M  V30 7877 H 735.332 4.05398 0.928741 0
M  V30 7878 H 733.909 2.89673 2.34827 0
M  V30 7879 N 736.094 -0.359525 1.53444 0
M  V30 7880 C 737.51 -0.701599 1.43352 0
M  V30 7881 C 737.71 -1.93049 0.577439 0
M  V30 7882 O 736.766 -2.52423 0.0622224 0
M  V30 7883 C 738.079 -0.90915 2.86627 0
M  V30 7884 C 739.627 -1.00878 2.96298 0
M  V30 7885 C 740.102 -1.24876 4.40647 0
M  V30 7886 N 741.593 -1.31632 4.44103 0
M  V30 7887 C 742.328 -1.51922 5.52908 0
M  V30 7888 N 741.824 -1.69489 6.71748 0
M  V30 7889 N 743.617 -1.54341 5.40496 0
M  V30 7890 H 735.768 0.448685 2.07607 0
M  V30 7891 H 738.031 0.138713 0.937797 0
M  V30 7892 H 737.737 -0.0778997 3.51614 0
M  V30 7893 H 737.611 -1.81551 3.30634 0
M  V30 7894 H 739.998 -1.83057 2.31461 0
M  V30 7895 H 740.079 -0.0796721 2.55676 0
M  V30 7896 H 739.723 -0.431961 5.0606 0
M  V30 7897 H 739.653 -2.19118 4.78848 0
M  V30 7898 H 742.144 -1.19646 3.5846 0
M  V30 7899 H 742.457 -1.84561 7.50438 0
M  V30 7900 H 740.802 -1.66655 6.74723 0
M  V30 7901 H 743.993 -1.40188 4.46615 0
M  V30 7902 H 744.166 -1.69812 6.25354 0
M  V30 7903 N 737.572 -1.44907 -0.619662 0
M  V30 7904 C 738.522 -1.49085 -1.72504 0
M  V30 7905 C 739.506 -0.355372 -1.56926 0
M  V30 7906 O 740.698 -0.601441 -1.66468 0
M  V30 7907 C 737.827 -1.44889 -3.11227 0
M  V30 7908 C 736.913 -2.63593 -3.32234 0
M  V30 7909 N 737.304 -3.88775 -3.23555 0
M  V30 7910 C 735.602 -2.59033 -3.63067 0
M  V30 7911 C 736.303 -4.67932 -3.45564 0
M  V30 7912 N 735.279 -3.9919 -3.68983 0
M  V30 7913 H 739.081 -2.43706 -1.6427 0
M  V30 7914 H 736.595 -1.4003 -0.82252 0
M  V30 7915 H 738.592 -1.45966 -3.90512 0
M  V30 7916 H 737.252 -0.513143 -3.2062 0
M  V30 7917 H 738.263 -4.20574 -3.02221 0
M  V30 7918 H 734.94 -1.7431 -3.79371 0
M  V30 7919 H 736.33 -5.76952 -3.44349 0
M  V30 7920 N 739.05 0.861098 -1.31996 0
M  V30 7921 C 740.298 1.61162 -1.21947 0
M  V30 7922 C 740.619 1.93751 0.220351 0
M  V30 7923 O 739.889 1.59069 1.14341 0
M  V30 7924 H 738.469 0.597485 -0.448353 0
M  V30 7925 H 741.131 1.03039 -1.65436 0
M  V30 7926 H 740.227 2.55138 -1.79752 0
M  V30 7927 N 740.528 1.15101 1.07655 0
M  V30 7928 C 741.776 0.922149 1.79836 0
M  V30 7929 C 742.097 -0.552346 1.87014 0
M  V30 7930 O 741.367 -1.40145 1.3688 0
M  V30 7931 H 739.947 0.338182 0.666064 0
M  V30 7932 H 742.609 1.45107 1.30115 0
M  V30 7933 H 741.705 1.32883 2.82398 0
M  V30 7934 N 742.006 -1.2595 0.947325 0
M  V30 7935 C 742.954 -2.28152 0.452687 0
M  V30 7936 C 743.948 -1.62655 -0.473239 0
M  V30 7937 O 745.154 -1.76549 -0.350774 0
M  V30 7938 H 741.529 -0.741049 0.12787 0
M  V30 7939 H 743.5 -2.67267 1.32707 0
M  V30 7940 C 742.249 -3.46719 -0.26098 0
M  V30 7941 H 741.572 -3.97345 0.442352 0
M  V30 7942 H 743.012 -4.20135 -0.571208 0
M  V30 7943 C 741.471 -3.02605 -1.48094 0
M  V30 7944 O 742.001 -3.07979 -2.57899 0
M  V30 7945 N 740.207 -2.57877 -1.33969 0
M  V30 7946 H 739.754 -2.53704 -0.446295 0
M  V30 7947 H 739.712 -2.28725 -2.15713 0
M  V30 7948 N 743.484 -0.715051 -1.40445 0
M  V30 7949 C 744.434 -0.038591 -2.27967 0
M  V30 7950 C 745.418 0.733099 -1.43229 0
M  V30 7951 O 746.61 0.605388 -1.66325 0
M  V30 7952 C 743.739 0.882801 -3.31755 0
M  V30 7953 C 742.825 0.106325 -4.23967 0
M  V30 7954 N 743.216 -0.910143 -4.97544 0
M  V30 7955 C 741.514 0.33896 -4.4471 0
M  V30 7956 C 742.215 -1.37665 -5.65175 0
M  V30 7957 N 741.191 -0.698905 -5.39088 0
M  V30 7958 H 744.993 -0.81765 -2.82297 0
M  V30 7959 H 742.507 -0.547591 -1.5289 0
M  V30 7960 H 744.504 1.38273 -3.93302 0
M  V30 7961 H 743.164 1.66124 -2.78985 0
M  V30 7962 H 744.175 -1.29097 -5.01552 0
M  V30 7963 H 740.852 1.09377 -4.02918 0
M  V30 7964 H 742.242 -2.22122 -6.34123 0
M  V30 7965 O 745.001 1.49816 -0.603118 0
M  V30 7966 H 745.692 1.93366 -0.113681 0
M  V30 END ATOM
M  V30 BEGIN BOND
M  V30 END BOND
M  V30 END CTAB
M  END
$$$$
