drugbank_target|Q99712 ATP-sensitive inward rectifier potassium channel 15 (DB01392; DB11148)
 OpenBabel12092121003D

  0  0  0     0  0            999 V3000
M  V30 BEGIN CTAB
M  V30 COUNTS 6045 6108 0 0 0
M  V30 BEGIN ATOM
M  V30 1 H -0.908 1.98254 -0.117106 0
M  V30 2 N 0 1.576 0 0
M  V30 3 C 0.933 2.03868 1.02534 0
M  V30 4 C 1.911 0.928543 1.3348 0
M  V30 5 O 3.095 1.19667 1.45644 0
M  V30 6 C 0.222 2.43627 2.35294 0
M  V30 7 C -0.732 3.65373 2.2001 0
M  V30 8 S 0.101 5.13292 1.52614 0
M  V30 9 C 1.257 5.56322 2.86805 0
M  V30 10 H 1.49 2.90518 0.631377 0
M  V30 11 H -0.977 1.52953 0.210867 0
M  V30 12 H 0.981 2.67203 3.11629 0
M  V30 13 H -0.358 1.57376 2.7183 0
M  V30 14 H -1.165 3.90944 3.18086 0
M  V30 15 H -1.563 3.418 1.51819 0
M  V30 16 H 0.729 5.58782 3.83104 0
M  V30 17 H 1.672 6.56266 2.65933 0
M  V30 18 H 2.08 4.83886 2.90714 0
M  V30 19 N 1.4781 -0.272755 1.55222 0
M  V30 20 C 2.7551 -1.02562 1.66555 0
M  V30 21 C 3.1351 -2.04282 0.532189 0
M  V30 22 O 2.4831 -2.23662 -0.467717 0
M  V30 23 C 2.6931 -1.6822 3.05782 0
M  V30 24 C 4.0411 -2.19373 3.63539 0
M  V30 25 O 5.0651 -1.78206 3.08417 0
M  V30 26 O 3.9241 -2.94883 4.60115 0
M  V30 27 H 1.0181 -0.475755 0.676451 0
M  V30 28 H 3.5641 -0.268593 1.67561 0
M  V30 29 H 2.3361 -0.945112 3.79715 0
M  V30 30 H 1.9591 -2.50609 3.08676 0
M  V30 31 N 2.9562 -1.48159 -0.537278 0
M  V30 32 C 3.9192 -1.61665 -1.62472 0
M  V30 33 C 4.9192 -0.490395 -1.5314 0
M  V30 34 O 6.1092 -0.755998 -1.5694 0
M  V30 35 C 3.2412 -1.57997 -3.02076 0
M  V30 36 H 4.4342 -2.58621 -1.51839 0
M  V30 37 H 1.9872 -1.36647 -0.758771 0
M  V30 38 H 2.7222 -0.624913 -3.18222 0
M  V30 39 H 2.5072 -2.39755 -3.10258 0
M  V30 40 H 3.9972 -1.70627 -3.81151 0
M  V30 41 N 4.4343 0.785586 -1.36625 0
M  V30 42 C 5.6833 1.53883 -1.30396 0
M  V30 43 C 5.9963 1.95271 0.113452 0
M  V30 44 O 7.2023 2.69858 0.298142 0
M  V30 45 C 5.6583 2.77808 -2.28802 0
M  V30 46 C 5.2663 2.43574 -3.75999 0
M  V30 47 C 7.0103 3.55783 -2.31558 0
M  V30 48 C 4.9173 3.63919 -4.66173 0
M  V30 49 H 3.8473 0.577678 -0.484566 0
M  V30 50 H 6.4983 0.861705 -1.62009 0
M  V30 51 H 4.8803 3.47339 -1.90188 0
M  V30 52 H 6.0543 1.81916 -4.23371 0
M  V30 53 H 4.3693 1.78803 -3.76056 0
M  V30 54 H 6.9663 4.45205 -2.96137 0
M  V30 55 H 7.3093 3.94644 -1.3252 0
M  V30 56 H 7.8423 2.93235 -2.68809 0
M  V30 57 H 4.5813 3.3015 -5.66287 0
M  V30 58 H 4.1013 4.2473 -4.23515 0
M  V30 59 H 5.7803 4.30901 -4.82632 0
M  V30 60 N 5.9124 1.20967 1.01018 0
M  V30 61 C 6.8624 0.93182 2.08089 0
M  V30 62 C 7.8464 -0.110898 1.60517 0
M  V30 63 O 9.0384 0.0973392 1.76732 0
M  V30 64 C 6.1674 0.492719 3.39746 0
M  V30 65 C 5.2534 1.56922 3.94 0
M  V30 66 N 5.6444 2.79312 4.21686 0
M  V30 67 C 3.9424 1.43688 4.2222 0
M  V30 68 C 4.6434 3.48797 4.65527 0
M  V30 69 N 3.6194 2.76224 4.68189 0
M  V30 70 H 7.4214 1.86175 2.27412 0
M  V30 71 H 4.9354 1.10463 1.19045 0
M  V30 72 H 6.9324 0.275044 4.15992 0
M  V30 73 H 5.5924 -0.430509 3.21833 0
M  V30 74 H 6.6034 3.15903 4.10397 0
M  V30 75 H 3.2804 0.578548 4.13472 0
M  V30 76 H 4.6704 4.53561 4.95714 0
M  V30 77 N 7.3905 -1.2043 1.01659 0
M  V30 78 C 8.6395 -1.89118 0.701237 0
M  V30 79 C 8.9525 -1.79705 -0.772358 0
M  V30 80 O 10.1585 -2.43528 -1.20026 0
M  V30 81 C 8.6145 -3.39168 1.20388 0
M  V30 82 C 8.2225 -3.57166 2.70438 0
M  V30 83 C 9.9665 -4.1341 0.963953 0
M  V30 84 C 7.8735 -5.01042 3.14183 0
M  V30 85 H 6.8035 -0.708267 0.2586 0
M  V30 86 H 9.4545 -1.36239 1.22927 0
M  V30 87 H 7.8365 -3.91369 0.603824 0
M  V30 88 H 9.0105 -3.15351 3.35992 0
M  V30 89 H 7.3255 -2.96294 2.92572 0
M  V30 90 H 9.9225 -5.19491 1.26621 0
M  V30 91 H 10.2655 -4.16181 -0.099578 0
M  V30 92 H 10.7985 -3.67309 1.52738 0
M  V30 93 H 7.5375 -5.03426 4.19812 0
M  V30 94 H 7.0575 -5.43668 2.53348 0
M  V30 95 H 8.7365 -5.69623 3.0682 0
M  V30 96 N 8.8686 -0.792821 -1.36206 0
M  V30 97 C 10.1166 -0.366062 -1.98757 0
M  V30 98 C 10.4376 1.0668 -1.63231 0
M  V30 99 O 9.7076 1.73587 -0.907978 0
M  V30 100 H 8.2876 -0.132364 -0.735179 0
M  V30 101 H 10.9496 -1.01562 -1.66347 0
M  V30 102 H 10.0456 -0.460638 -3.08682 0
M  V30 103 N 10.3467 1.47872 -0.545128 0
M  V30 104 C 11.2797 2.2675 0.256885 0
M  V30 105 C 12.2577 1.33293 0.931228 0
M  V30 106 O 13.4417 1.62657 0.95262 0
M  V30 107 C 10.5687 3.09976 1.36501 0
M  V30 108 C 9.6147 4.1892 0.800496 0
M  V30 109 S 10.4477 5.34397 -0.343505 0
M  V30 110 C 11.6037 6.21186 0.766733 0
M  V30 111 H 11.8367 2.94425 -0.412479 0
M  V30 112 H 9.3697 1.50806 -0.331204 0
M  V30 113 H 11.3277 3.585 1.9997 0
M  V30 114 H 9.9887 2.41686 2.00616 0
M  V30 115 H 9.1817 4.76836 1.63227 0
M  V30 116 H 8.7837 3.73215 0.242217 0
M  V30 117 H 11.0757 6.56804 1.66178 0
M  V30 118 H 12.0187 7.07742 0.225204 0
M  V30 119 H 12.4267 5.54574 1.05396 0
M  V30 120 N 11.8248 0.280983 1.55075 0
M  V30 121 C 13.0498 -0.340154 2.04592 0
M  V30 122 C 13.4748 -1.48246 1.15779 0
M  V30 123 O 12.8328 -1.80614 0.15761 0
M  V30 124 C 12.8808 -0.793104 3.5177 0
M  V30 125 O 11.9848 -1.89981 3.66034 0
M  V30 126 H 11.3258 -0.0694289 0.66036 0
M  V30 127 H 13.8558 0.416993 2.00306 0
M  V30 128 H 13.8658 -1.08729 3.93245 0
M  V30 129 H 12.5408 0.0426163 4.15878 0
M  V30 130 H 11.1178 -1.60771 3.36463 0
M  V30 131 N 13.3029 -1.57598 0.00835791 0
M  V30 132 C 14.5279 -1.95617 -0.689103 0
M  V30 133 C 14.9529 -0.883753 -1.66046 0
M  V30 134 O 14.3109 0.157352 -1.80616 0
M  V30 135 C 14.3589 -3.32736 -1.38994 0
M  V30 136 O 13.4629 -3.27631 -2.50463 0
M  V30 137 H 12.8039 -0.638379 -0.182668 0
M  V30 138 H 15.3339 -2.045 0.064036 0
M  V30 139 H 15.3439 -3.68494 -1.75147 0
M  V30 140 H 14.0189 -4.1034 -0.677778 0
M  V30 141 H 12.5959 -3.03561 -2.16576 0
M  V30 142 N 14.781 0.264519 -1.55364 0
M  V30 143 C 16.009 1.013 -1.80405 0
M  V30 144 C 16.424 1.79618 -0.581622 0
M  V30 145 O 15.781 1.76879 0.449468 0
M  V30 146 C 15.832 1.96487 -3.03439 0
M  V30 147 O 15.553 1.21341 -4.20961 0
M  V30 148 C 17.054 2.83079 -3.41147 0
M  V30 149 H 14.274 0.298875 -0.600762 0
M  V30 150 H 16.818 0.292736 -2.02394 0
M  V30 151 H 14.973 2.63965 -2.83551 0
M  V30 152 H 15.387 1.85573 -4.90574 0
M  V30 153 H 16.861 3.4565 -4.30384 0
M  V30 154 H 17.338 3.53286 -2.60932 0
M  V30 155 H 17.944 2.2108 -3.63323 0
M  V30 156 N 16.2591 1.48442 0.529413 0
M  V30 157 C 17.6701 1.5002 1.11134 0
M  V30 158 C 18.0211 0.27031 1.94329 0
M  V30 159 O 17.1461 -0.622507 2.07253 0
M  V30 160 C 17.7411 2.71834 2.02217 0
M  V30 161 C 16.3001 2.76283 2.55627 0
M  V30 162 C 15.4471 2.43542 1.326 0
M  V30 163 H 18.3981 1.5555 0.314641 0
M  V30 164 H 18.4191 2.50384 2.8651 0
M  V30 165 H 17.9311 3.61331 1.41639 0
M  V30 166 H 16.0321 1.90995 3.19924 0
M  V30 167 H 16.1451 3.77725 2.94721 0
M  V30 168 H 14.5091 1.94709 1.64196 0
M  V30 169 H 15.2921 3.3528 0.737734 0
M  V30 170 N 17.7372 -0.778329 1.37039 0
M  V30 171 C 18.6672 -1.90546 1.34962 0
M  V30 172 C 19.6482 -1.68681 0.219274 0
M  V30 173 O 20.8332 -1.89634 0.418624 0
M  V30 174 C 17.9632 -3.27734 1.14925 0
M  V30 175 C 16.9172 -3.64147 2.24902 0
M  V30 176 C 16.2432 -4.99806 1.89996 0
M  V30 177 C 17.5432 -3.71579 3.67051 0
M  V30 178 H 19.2372 -1.92541 2.29277 0
M  V30 179 H 16.7832 -0.924948 1.10366 0
M  V30 180 H 18.7362 -4.06215 1.12104 0
M  V30 181 H 17.4602 -3.26154 0.170631 0
M  V30 182 H 16.1192 -2.8797 2.26868 0
M  V30 183 H 15.7672 -4.94759 0.906796 0
M  V30 184 H 15.4672 -5.25139 2.63634 0
M  V30 185 H 16.9912 -5.80694 1.88749 0
M  V30 186 H 18.4052 -4.40227 3.67251 0
M  V30 187 H 16.8022 -4.08405 4.39688 0
M  V30 188 H 17.8722 -2.72404 4.01154 0
M  V30 189 N 19.2153 -1.21501 -1.00376 0
M  V30 190 C 20.4613 -1.03452 -1.74429 0
M  V30 191 C 20.7943 0.430764 -1.89362 0
M  V30 192 O 20.0693 1.31962 -1.42886 0
M  V30 193 C 20.3523 -1.73375 -3.15615 0
M  V30 194 C 20.2053 -3.27431 -3.08397 0
M  V30 195 C 21.5243 -1.47732 -4.14564 0
M  V30 196 H 18.6433 -0.377226 -0.633143 0
M  V30 197 H 21.2853 -1.49693 -1.17013 0
M  V30 198 H 19.4353 -1.34064 -3.64636 0
M  V30 199 H 21.1073 -3.76119 -2.67081 0
M  V30 200 H 19.3503 -3.5767 -2.45468 0
M  V30 201 H 20.0213 -3.71524 -4.08258 0
M  V30 202 H 22.4973 -1.8186 -3.74254 0
M  V30 203 H 21.3733 -1.99169 -5.11491 0
M  V30 204 H 21.6343 -0.407589 -4.40217 0
M  V30 205 N 20.6934 1.19889 -1.02296 0
M  V30 206 C 21.6404 2.22901 -0.598651 0
M  V30 207 C 22.6104 1.61588 0.384521 0
M  V30 208 O 23.7954 1.88697 0.282522 0
M  V30 209 C 20.9354 3.45063 0.0504476 0
M  V30 210 C 20.0484 4.20783 -0.978053 0
M  V30 211 C 19.1834 5.30356 -0.299338 0
M  V30 212 C 18.2224 5.97826 -1.31416 0
M  V30 213 N 17.3594 6.98975 -0.661667 0
M  V30 214 H 22.1994 2.58554 -1.48169 0
M  V30 215 H 19.7364 1.27039 -0.741584 0
M  V30 216 H 21.6944 4.14831 0.443971 0
M  V30 217 H 20.3244 3.10084 0.897097 0
M  V30 218 H 19.3764 3.50018 -1.48969 0
M  V30 219 H 20.6884 4.67109 -1.74958 0
M  V30 220 H 19.8424 6.06516 0.149347 0
M  V30 221 H 18.5814 4.85084 0.504445 0
M  V30 222 H 17.5864 5.20422 -1.77317 0
M  V30 223 H 18.8114 6.45183 -2.11933 0
M  V30 224 H 16.7574 6.55886 0.122132 0
M  V30 225 H 16.6744 7.43461 -1.37117 0
M  V30 226 H 17.9424 7.7914 -0.236785 0
M  V30 227 N 22.1715 0.800033 1.35784 0
M  V30 228 C 23.1215 0.178654 2.27299 0
M  V30 229 C 24.1055 -0.643667 1.47464 0
M  V30 230 O 25.2975 -0.502 1.69732 0
M  V30 231 C 22.4265 -0.677194 3.36555 0
M  V30 232 C 21.5125 0.154497 4.23818 0
M  V30 233 N 21.9035 1.21427 4.91008 0
M  V30 234 C 20.2015 -0.0649462 4.45953 0
M  V30 235 C 20.9025 1.72147 5.55644 0
M  V30 236 N 19.8785 1.02897 5.33773 0
M  V30 237 H 23.6805 0.989637 2.76737 0
M  V30 238 H 21.1945 0.64054 1.49234 0
M  V30 239 H 23.1915 -1.13835 4.01058 0
M  V30 240 H 21.8515 -1.4866 2.8867 0
M  V30 241 H 22.8625 1.59684 4.92668 0
M  V30 242 H 19.5395 -0.844016 4.0888 0
M  V30 243 H 20.9295 2.60683 6.19269 0
M  V30 244 N 23.6496 -1.47581 0.552962 0
M  V30 245 C 24.8776 -2.06875 0.0320556 0
M  V30 246 C 25.2926 -1.40625 -1.25976 0
M  V30 247 O 24.6496 -0.501349 -1.75479 0
M  V30 248 C 24.7006 -3.61092 -0.17167 0
M  V30 249 O 24.4216 -4.24858 1.06899 0
M  V30 250 C 25.9226 -4.37242 -0.730344 0
M  V30 251 H 23.1426 -0.669561 0.043915 0
M  V30 252 H 25.6866 -1.89646 0.765163 0
M  V30 253 H 23.8416 -3.7785 -0.854894 0
M  V30 254 H 24.2556 -5.17334 0.864059 0
M  V30 255 H 25.7296 -5.45842 -0.822203 0
M  V30 256 H 26.2066 -4.03235 -1.74064 0
M  V30 257 H 26.8126 -4.25219 -0.0829543 0
M  V30 258 N 25.1277 -0.289203 -1.54924 0
M  V30 259 C 26.0907 0.579144 -2.21762 0
M  V30 260 C 27.0907 1.07047 -1.1999 0
M  V30 261 O 28.2807 0.968384 -1.44803 0
M  V30 262 C 25.4127 1.80055 -2.8947 0
M  V30 263 H 26.6057 -0.00464908 -2.999 0
M  V30 264 H 24.1587 -0.0399306 -1.56249 0
M  V30 265 H 24.8937 2.42449 -2.15381 0
M  V30 266 H 24.6787 1.45602 -3.64064 0
M  V30 267 H 26.1687 2.41773 -3.40493 0
M  V30 268 N 26.6058 1.57591 -0.0167156 0
M  V30 269 C 27.8538 1.90906 0.663285 0
M  V30 270 C 28.1748 0.892509 1.73376 0
M  V30 271 O 27.4448 -0.0677623 1.95783 0
M  V30 272 H 26.0248 0.704637 0.247983 0
M  V30 273 H 28.6868 1.94803 -0.0615909 0
M  V30 274 H 27.7828 2.9116 1.12393 0
M  V30 275 N 28.0839 -0.256276 1.55502 0
M  V30 276 C 29.0469 -1.30047 1.88734 0
M  V30 277 C 30.0469 -1.4154 0.763086 0
M  V30 278 O 31.2369 -1.40403 1.03115 0
M  V30 279 C 28.3689 -2.67953 2.10747 0
M  V30 280 H 29.5619 -1.01802 2.82093 0
M  V30 281 H 27.1149 -0.495134 1.4825 0
M  V30 282 H 27.8499 -3.01351 1.19825 0
M  V30 283 H 27.6349 -2.60993 2.92617 0
M  V30 284 H 29.1249 -3.43368 2.37673 0
M  V30 285 N 29.562 -1.4872 -0.521534 0
M  V30 286 C 30.81 -1.56857 -1.27437 0
M  V30 287 C 31.131 -0.247982 -1.93417 0
M  V30 288 O 30.401 0.731151 -1.81744 0
M  V30 289 H 28.981 -0.577885 -0.473347 0
M  V30 290 H 31.643 -1.85233 -0.606205 0
M  V30 291 H 30.739 -2.35402 -2.0492 0
M  V30 292 N 31.0401 0.771051 -1.3745 0
M  V30 293 C 31.9701 1.89827 -1.3597 0
M  V30 294 C 32.9511 1.68562 -0.228216 0
M  V30 295 O 34.1361 1.8941 -0.428675 0
M  V30 296 C 31.2661 3.2712 -1.16662 0
M  V30 297 C 30.2201 3.6295 -2.2683 0
M  V30 298 C 29.5461 4.98791 -1.92644 0
M  V30 299 C 30.8461 3.69627 -3.69017 0
M  V30 300 H 32.5401 1.91323 -2.30295 0
M  V30 301 H 30.0861 0.919082 -1.10855 0
M  V30 302 H 32.0391 4.05615 -1.14256 0
M  V30 303 H 30.7631 3.26059 -0.187926 0
M  V30 304 H 29.4221 2.86763 -2.28392 0
M  V30 305 H 29.0701 4.94271 -0.933021 0
M  V30 306 H 28.7701 5.23733 -2.66416 0
M  V30 307 H 30.2941 5.79685 -1.91826 0
M  V30 308 H 31.7081 4.38273 -3.69581 0
M  V30 309 H 30.1051 4.06067 -4.41848 0
M  V30 310 H 31.1751 2.70273 -4.02592 0
M  V30 311 N 32.5182 1.22032 0.997298 0
M  V30 312 C 33.4652 0.986467 2.08656 0
M  V30 313 C 34.4352 -0.0902671 1.65855 0
M  V30 314 O 35.6202 0.0584294 1.90711 0
M  V30 315 C 32.7602 0.565569 3.40434 0
M  V30 316 C 31.8732 1.71259 3.96604 0
M  V30 317 C 31.0082 1.24011 5.16522 0
M  V30 318 C 30.0472 2.35896 5.64818 0
M  V30 319 N 29.1842 1.89726 6.7598 0
M  V30 320 H 34.0242 1.91892 2.27994 0
M  V30 321 H 31.5612 0.956199 1.11782 0
M  V30 322 H 33.5192 0.302738 4.161 0
M  V30 323 H 32.1492 -0.329879 3.2111 0
M  V30 324 H 31.2012 2.08986 3.17851 0
M  V30 325 H 32.5132 2.55436 4.28432 0
M  V30 326 H 31.6672 0.934395 5.99461 0
M  V30 327 H 30.4062 0.368487 4.86306 0
M  V30 328 H 29.4112 2.67261 4.8047 0
M  V30 329 H 30.6362 3.23567 5.97061 0
M  V30 330 H 28.5822 1.0492 6.47555 0
M  V30 331 H 28.4992 2.67471 7.07103 0
M  V30 332 H 29.7672 1.62211 7.62435 0
M  V30 333 N 33.9963 -1.19345 1.0293 0
M  V30 334 C 34.9593 -2.20793 0.615069 0
M  V30 335 C 35.9593 -1.57553 -0.321533 0
M  V30 336 O 37.1493 -1.73862 -0.108483 0
M  V30 337 C 34.2813 -3.40754 -0.0999222 0
M  V30 338 H 35.4743 -2.58955 1.51269 0
M  V30 339 H 33.0273 -1.3303 0.820534 0
M  V30 340 H 33.7623 -3.0811 -1.01187 0
M  V30 341 H 33.5473 -3.87889 0.57309 0
M  V30 342 H 35.0373 -4.15898 -0.376645 0
M  V30 343 N 35.4744 -0.807222 -1.35358 0
M  V30 344 C 36.4224 -0.20614 -2.31685 0
M  V30 345 C 37.4164 0.644445 -1.56663 0
M  V30 346 O 38.6224 0.537538 -1.71786 0
M  V30 347 H 34.9974 -0.0479006 -0.750473 0
M  V30 348 H 36.9684 -1.03369 -2.79924 0
M  V30 349 C 35.7174 0.630212 -3.41941 0
M  V30 350 H 35.0404 -0.0149558 -3.99797 0
M  V30 351 H 36.4804 1.01716 -4.11619 0
M  V30 352 C 34.9394 1.79601 -2.85035 0
M  V30 353 O 35.4694 2.89351 -2.78637 0
M  V30 354 N 33.6754 1.60774 -2.42074 0
M  V30 355 H 33.2224 0.715009 -2.47478 0
M  V30 356 H 33.1804 2.38933 -2.04349 0
M  V30 357 N 36.9525 1.47285 -0.560781 0
M  V30 358 C 38.3685 1.58065 -0.22081 0
M  V30 359 C 38.5685 1.55892 1.27671 0
M  V30 360 O 37.6245 1.46422 2.0571 0
M  V30 361 C 38.9375 2.88418 -0.850625 0
M  V30 362 C 40.4855 3.02009 -0.822184 0
M  V30 363 C 40.9605 4.35066 -1.43113 0
M  V30 364 N 42.4515 4.41711 -1.39448 0
M  V30 365 C 43.1865 5.43237 -1.83525 0
M  V30 366 N 42.6825 6.51555 -2.35474 0
M  V30 367 N 44.4755 5.34304 -1.74574 0
M  V30 368 H 36.6265 1.46941 -1.53369 0
M  V30 369 H 38.8895 0.699558 -0.639783 0
M  V30 370 H 38.5955 2.95755 -1.9032 0
M  V30 371 H 38.4695 3.75612 -0.345773 0
M  V30 372 H 40.8565 2.94266 0.221714 0
M  V30 373 H 40.9375 2.16347 -1.36483 0
M  V30 374 H 40.5815 4.43565 -2.47412 0
M  V30 375 H 40.5115 5.19465 -0.863899 0
M  V30 376 H 43.0025 3.64027 -1.01452 0
M  V30 377 H 43.3155 7.25203 -2.67021 0
M  V30 378 H 41.6605 6.52435 -2.39487 0
M  V30 379 H 44.8515 4.48581 -1.33763 0
M  V30 380 H 45.0245 6.13288 -2.09242 0
M  V30 381 N 38.4306 0.297415 1.54768 0
M  V30 382 C 39.8416 -0.195947 1.85669 0
M  V30 383 C 40.1926 -1.53707 1.21937 0
M  V30 384 O 39.3176 -2.10164 0.515754 0
M  V30 385 C 39.9126 -0.362318 3.36857 0
M  V30 386 C 38.4716 -0.799901 3.67802 0
M  V30 387 C 37.6186 0.0938578 2.77141 0
M  V30 388 H 40.5696 0.518538 1.4999 0
M  V30 389 H 40.5906 -1.19745 3.61167 0
M  V30 390 H 40.1026 0.613921 3.83214 0
M  V30 391 H 38.2036 -1.78682 3.26961 0
M  V30 392 H 38.3166 -0.621773 4.75048 0
M  V30 393 H 36.6806 -0.426254 2.51108 0
M  V30 394 H 37.4636 1.06639 3.26318 0
M  V30 395 N 39.9087 -1.5758 0.0250728 0
M  V30 396 C 41.3247 -1.56124 -0.331282 0
M  V30 397 C 41.5247 -1.03029 -1.73169 0
M  V30 398 O 40.5807 -0.675215 -2.43305 0
M  V30 399 C 41.8937 -3.00139 -0.183584 0
M  V30 400 C 43.4417 -3.11946 -0.256654 0
M  V30 401 C 43.9167 -4.57793 -0.137792 0
M  V30 402 N 45.4077 -4.6279 -0.194904 0
M  V30 403 C 46.1427 -5.7326 -0.126655 0
M  V30 404 N 45.6387 -6.928 -0.00755288 0
M  V30 405 N 47.4317 -5.61811 -0.180348 0
M  V30 406 H 39.5827 -1.90424 0.94087 0
M  V30 407 H 41.8457 -0.875761 0.362968 0
M  V30 408 H 41.5517 -3.4292 0.780927 0
M  V30 409 H 41.4257 -3.64899 -0.955448 0
M  V30 410 H 43.8127 -2.69079 -1.21162 0
M  V30 411 H 43.8937 -2.49915 0.545517 0
M  V30 412 H 43.5377 -5.01339 0.813739 0
M  V30 413 H 43.4677 -5.17798 -0.958775 0
M  V30 414 H 45.9587 -3.76807 -0.287267 0
M  V30 415 H 46.2717 -7.72791 0.0379428 0
M  V30 416 H 44.6167 -6.94995 0.0271731 0
M  V30 417 H 47.8077 -4.6731 -0.271767 0
M  V30 418 H 47.9807 -6.47882 -0.123697 0
M  V30 419 N 41.3868 0.248026 -1.55636 0
M  V30 420 C 42.6328 0.97767 -1.77678 0
M  V30 421 C 42.9658 1.85016 -0.590135 0
M  V30 422 O 42.2408 1.90095 0.411611 0
M  V30 423 C 42.5238 1.83914 -3.09593 0
M  V30 424 C 42.3768 0.99491 -4.38659 0
M  V30 425 C 43.6958 2.82183 -3.37729 0
M  V30 426 H 40.8148 0.354005 -0.646413 0
M  V30 427 H 43.4568 0.248253 -1.88371 0
M  V30 428 H 41.6068 2.46104 -3.00608 0
M  V30 429 H 43.2788 0.391789 -4.59633 0
M  V30 430 H 41.5218 0.299231 -4.32767 0
M  V30 431 H 42.1928 1.63145 -5.2734 0
M  V30 432 H 44.6688 2.30129 -3.4667 0
M  V30 433 H 43.5448 3.39582 -4.31249 0
M  V30 434 H 43.8058 3.58588 -2.58586 0
M  V30 435 N 42.8649 1.48995 0.513639 0
M  V30 436 C 43.7979 1.59319 1.63379 0
M  V30 437 C 44.7759 0.442816 1.56454 0
M  V30 438 O 45.9599 0.656655 1.76693 0
M  V30 439 C 43.0869 1.5364 3.01848 0
M  V30 440 C 42.1329 2.7372 3.27078 0
M  V30 441 S 42.9659 4.35528 3.1157 0
M  V30 442 C 44.1219 4.32473 4.52458 0
M  V30 443 H 44.3549 2.54079 1.54374 0
M  V30 444 H 41.8879 1.3773 0.697849 0
M  V30 445 H 43.8459 1.51049 3.81699 0
M  V30 446 H 42.5069 0.601898 3.08279 0
M  V30 447 H 41.6999 2.6593 4.28132 0
M  V30 448 H 41.3019 2.73657 2.54927 0
M  V30 449 H 43.5939 4.03414 5.44301 0
M  V30 450 H 44.5369 5.33762 4.65299 0
M  V30 451 H 44.9449 3.62718 4.32546 0
M  V30 452 N 44.343 -0.763751 1.37857 0
M  V30 453 C 45.568 -1.55805 1.36893 0
M  V30 454 C 45.993 -1.88054 -0.0416135 0
M  V30 455 O 45.351 -1.49825 -1.02089 0
M  V30 456 C 45.399 -2.84012 2.22192 0
M  V30 457 O 44.503 -3.78732 1.63204 0
M  V30 458 H 43.844 -0.471638 0.46739 0
M  V30 459 H 46.374 -0.944657 1.81487 0
M  V30 460 H 46.384 -3.33037 2.35691 0
M  V30 461 H 45.059 -2.59869 3.24716 0
M  V30 462 H 43.636 -3.37402 1.58791 0
M  V30 463 N 45.8211 -1.22559 -0.990812 0
M  V30 464 C 46.7681 -0.997519 -2.0813 0
M  V30 465 C 47.7381 0.0814702 -1.659 0
M  V30 466 O 48.9231 -0.0685424 -1.90677 0
M  V30 467 C 46.0631 -0.583615 -3.40129 0
M  V30 468 C 45.1761 -1.7336 -3.9569 0
M  V30 469 C 44.3111 -1.26748 -5.15857 0
M  V30 470 C 43.3501 -2.38888 -5.63559 0
M  V30 471 N 42.4871 -1.93308 -6.74964 0
M  V30 472 H 47.3271 -1.93099 -2.26973 0
M  V30 473 H 44.8641 -0.962114 -1.11273 0
M  V30 474 H 46.8221 -0.324801 -4.15934 0
M  V30 475 H 45.4521 0.312845 -3.2128 0
M  V30 476 H 44.5041 -2.10669 -3.16738 0
M  V30 477 H 45.8161 -2.57704 -4.27071 0
M  V30 478 H 44.9701 -0.966173 -5.98957 0
M  V30 479 H 43.7091 -0.394272 -4.86104 0
M  V30 480 H 42.7141 -2.69805 -4.79046 0
M  V30 481 H 43.9391 -3.26728 -5.95336 0
M  V30 482 H 41.8851 -1.08352 -6.4699 0
M  V30 483 H 41.8021 -2.71217 -7.05675 0
M  V30 484 H 43.0701 -1.66252 -7.61564 0
M  V30 485 N 47.2992 1.18797 -1.03562 0
M  V30 486 C 48.5242 1.9314 -0.755764 0
M  V30 487 C 48.9492 1.7537 0.68022 0
M  V30 488 O 48.3072 1.06046 1.47051 0
M  V30 489 C 48.3552 3.42747 -1.12058 0
M  V30 490 O 47.4592 4.11683 -0.243124 0
M  V30 491 H 46.8002 0.602724 -0.278604 0
M  V30 492 H 49.3302 1.50678 -1.3841 0
M  V30 493 H 49.3402 3.93437 -1.08035 0
M  V30 494 H 48.0152 3.55002 -2.16672 0
M  V30 495 H 46.5922 3.71323 -0.342539 0
M  V30 496 N 48.7773 0.814389 1.34928 0
M  V30 497 C 50.0253 0.397636 1.9815 0
M  V30 498 C 50.3463 -1.04069 1.64908 0
M  V30 499 O 49.6163 -1.72121 0.93548 0
M  V30 500 H 48.1963 0.144043 0.732981 0
M  V30 501 H 50.8583 1.04195 1.6471 0
M  V30 502 H 49.9543 0.509688 3.0791 0
M  V30 503 N 50.2554 -1.46986 0.568584 0
M  V30 504 C 51.2054 -2.27179 -0.193339 0
M  V30 505 C 52.1894 -1.35035 -0.874895 0
M  V30 506 O 53.3814 -1.5931 -0.771322 0
M  V30 507 C 50.5104 -3.21063 -1.21546 0
M  V30 508 C 49.5964 -4.2069 -0.536738 0
M  V30 509 N 49.9874 -5.04218 0.399673 0
M  V30 510 C 48.2854 -4.38961 -0.789254 0
M  V30 511 C 48.9864 -5.76242 0.795017 0
M  V30 512 N 47.9624 -5.434 0.1473 0
M  V30 513 H 51.7644 -2.89146 0.526458 0
M  V30 514 H 49.2784 -1.57664 0.389342 0
M  V30 515 H 51.2754 -3.77209 -1.77536 0
M  V30 516 H 49.9354 -2.60654 -1.93623 0
M  V30 517 H 50.9464 -5.12077 0.774454 0
M  V30 518 H 47.6234 -3.89713 -1.49767 0
M  V30 519 H 49.0134 -6.53417 1.56513 0
M  V30 520 N 51.7335 -0.305618 -1.54608 0
M  V30 521 C 52.9585 0.307562 -2.05107 0
M  V30 522 C 53.3835 1.46385 -1.18123 0
M  V30 523 O 52.7415 1.8034 -0.186324 0
M  V30 524 C 52.7895 0.73704 -3.52987 0
M  V30 525 O 51.8935 1.84134 -3.6901 0
M  V30 526 H 51.2345 0.0589143 -0.661381 0
M  V30 527 H 53.7645 -0.448807 -1.99617 0
M  V30 528 H 53.7745 1.02459 -3.94925 0
M  V30 529 H 52.4495 -0.108773 -4.15758 0
M  V30 530 H 51.0265 1.55398 -3.38978 0
M  V30 531 N 53.2116 1.57565 -0.0334293 0
M  V30 532 C 54.1596 2.1164 0.96496 0
M  V30 533 C 55.1536 1.04398 1.33407 0
M  V30 534 O 56.3596 1.22828 1.3158 0
M  V30 535 H 52.7346 0.676222 0.32898 0
M  V30 536 H 54.7056 2.94455 0.483614 0
M  V30 537 C 53.4546 2.66207 2.23672 0
M  V30 538 H 52.7776 3.48378 1.96145 0
M  V30 539 H 54.2176 3.07685 2.9173 0
M  V30 540 C 52.6766 1.59151 2.96939 0
M  V30 541 O 53.2066 0.993858 3.89211 0
M  V30 542 N 51.4126 1.31093 2.59351 0
M  V30 543 H 50.9596 1.7988 1.84393 0
M  V30 544 H 50.9176 0.596889 3.08682 0
M  V30 545 N 54.6897 -0.239769 1.55765 0
M  V30 546 C 55.9357 -0.968234 1.78194 0
M  V30 547 C 56.2687 -1.84701 0.599938 0
M  V30 548 O 55.5437 -1.9031 -0.401524 0
M  V30 549 C 55.8267 -1.8227 3.10564 0
M  V30 550 C 55.6797 -0.971633 4.3918 0
M  V30 551 C 56.9987 -2.80388 3.39221 0
M  V30 552 H 54.1177 -0.350572 0.648281 0
M  V30 553 H 56.7597 -0.238259 1.885 0
M  V30 554 H 54.9097 -2.44507 3.01908 0
M  V30 555 H 56.5817 -0.367408 4.59835 0
M  V30 556 H 54.8247 -0.276276 4.32919 0
M  V30 557 H 55.4957 -1.60346 5.28198 0
M  V30 558 H 57.9717 -2.28287 3.47885 0
M  V30 559 H 56.8477 -3.3729 4.33044 0
M  V30 560 H 57.1087 -3.57212 2.60484 0
M  V30 561 N 56.1678 -1.49265 -0.50573 0
M  V30 562 C 57.5838 -1.35923 -0.836486 0
M  V30 563 C 57.7838 -0.388704 -1.97715 0
M  V30 564 O 56.8398 0.181336 -2.51848 0
M  V30 565 C 58.1528 -2.76531 -1.18115 0
M  V30 566 C 59.7008 -2.85197 -1.28964 0
M  V30 567 C 60.1758 -4.26561 -1.66761 0
M  V30 568 N 61.6668 -4.2935 -1.73819 0
M  V30 569 C 62.4018 -5.35693 -2.045 0
M  V30 570 N 61.8978 -6.52287 -2.33438 0
M  V30 571 N 63.6908 -5.23105 -2.05711 0
M  V30 572 H 55.8418 -2.10965 0.246519 0
M  V30 573 H 58.1048 -0.9468 0.0476887 0
M  V30 574 H 57.8108 -3.49226 -0.416398 0
M  V30 575 H 57.6848 -3.11599 -2.1257 0
M  V30 576 H 60.0718 -2.12742 -2.04511 0
M  V30 577 H 60.1528 -2.53718 -0.325704 0
M  V30 578 H 59.7968 -4.99541 -0.917656 0
M  V30 579 H 59.7268 -4.55502 -2.64246 0
M  V30 580 H 62.2178 -3.4526 -1.53635 0
M  V30 581 H 62.5308 -7.29158 -2.56024 0
M  V30 582 H 60.8758 -6.55521 -2.30905 0
M  V30 583 H 64.0668 -4.31026 -1.82577 0
M  V30 584 H 64.2398 -6.06078 -2.29289 0
M  V30 585 N 57.6459 0.756429 -1.3826 0
M  V30 586 C 58.8949 1.51082 -1.3363 0
M  V30 587 C 59.2079 1.95467 0.0720068 0
M  V30 588 O 60.4139 2.7043 0.240834 0
M  V30 589 C 58.8699 2.72893 -2.34644 0
M  V30 590 C 58.4779 2.35544 -3.81081 0
M  V30 591 C 60.2219 3.50791 -2.39052 0
M  V30 592 C 58.1289 3.53948 -4.73787 0
M  V30 593 H 57.0589 0.56727 -0.49671 0
M  V30 594 H 59.7099 0.827147 -1.638 0
M  V30 595 H 58.0919 3.43227 -1.97513 0
M  V30 596 H 59.2659 1.72894 -4.27135 0
M  V30 597 H 57.5809 1.70786 -3.79764 0
M  V30 598 H 60.1779 4.38823 -3.05513 0
M  V30 599 H 60.5209 3.91745 -1.40861 0
M  V30 600 H 61.0539 2.87467 -2.74968 0
M  V30 601 H 57.7929 3.18064 -5.73163 0
M  V30 602 H 57.3129 4.15651 -4.32428 0
M  V30 603 H 58.9919 4.20566 -4.91663 0
M  V30 604 N 59.124 1.23083 0.984299 0
M  V30 605 C 60.401 0.9689 1.69917 0
M  V30 606 C 60.781 -0.513604 2.04757 0
M  V30 607 O 60.129 -1.48383 1.73767 0
M  V30 608 C 60.339 1.87518 2.94343 0
M  V30 609 C 61.687 2.13636 3.6694 0
M  V30 610 O 62.711 1.85036 3.04368 0
M  V30 611 O 61.57 2.62119 4.79537 0
M  V30 612 H 58.664 0.365095 0.742048 0
M  V30 613 H 61.21 1.34107 1.03987 0
M  V30 614 H 59.982 2.87756 2.65164 0
M  V30 615 H 59.605 1.50514 3.6801 0
M  V30 616 N 60.6021 -1.18246 1.0419 0
M  V30 617 C 61.5491 -2.2192 0.634037 0
M  V30 618 C 62.5191 -1.62179 -0.358765 0
M  V30 619 O 63.7041 -1.89122 -0.252466 0
M  V30 620 C 60.8441 -3.451 0.00445535 0
M  V30 621 C 59.9571 -4.19174 1.04487 0
M  V30 622 C 59.0921 -5.29813 0.383676 0
M  V30 623 C 58.1311 -5.9566 1.4091 0
M  V30 624 N 57.2681 -6.97834 0.772784 0
M  V30 625 H 62.1081 -2.56164 1.52263 0
M  V30 626 H 59.6451 -1.25843 0.761701 0
M  V30 627 H 61.6031 -4.15485 -0.377919 0
M  V30 628 H 60.2331 -3.11472 -0.847652 0
M  V30 629 H 59.2851 -3.47604 1.54518 0
M  V30 630 H 60.5971 -4.64267 1.82368 0
M  V30 631 H 59.7511 -6.06677 -0.0528366 0
M  V30 632 H 58.4901 -4.85825 -0.427208 0
M  V30 633 H 57.4951 -5.17535 1.85574 0
M  V30 634 H 58.7201 -6.4173 2.22171 0
M  V30 635 H 56.6661 -6.55998 -0.0177708 0
M  V30 636 H 56.5831 -7.41186 1.48928 0
M  V30 637 H 57.8511 -7.78665 0.36071 0
M  V30 638 N 62.0802 -0.821533 -1.34494 0
M  V30 639 C 63.3262 -0.409552 -1.98622 0
M  V30 640 C 63.6592 1.0244 -1.64984 0
M  V30 641 O 62.9342 1.71325 -0.920758 0
M  V30 642 C 63.2172 -0.610458 -3.54888 0
M  V30 643 C 63.0702 -2.09043 -3.98273 0
M  V30 644 C 64.3892 -0.0455379 -4.40076 0
M  V30 645 H 61.5082 -0.15028 -0.721516 0
M  V30 646 H 64.1502 -1.03384 -1.59411 0
M  V30 647 H 62.3002 -0.079044 -3.8842 0
M  V30 648 H 63.9722 -2.68537 -3.75081 0
M  V30 649 H 62.2152 -2.58139 -3.48635 0
M  V30 650 H 62.8862 -2.18182 -5.07051 0
M  V30 651 H 65.3622 -0.499557 -4.1309 0
M  V30 652 H 64.2382 -0.215922 -5.48475 0
M  V30 653 H 64.4992 1.04939 -4.29465 0
M  V30 654 N 63.5583 1.46682 -0.576371 0
M  V30 655 C 64.8353 1.95599 0.00703437 0
M  V30 656 C 65.2153 1.51904 1.46589 0
M  V30 657 O 64.5633 0.766755 2.15251 0
M  V30 658 C 64.7733 3.4864 -0.158404 0
M  V30 659 C 66.1213 4.24594 -0.0229439 0
M  V30 660 O 67.1453 3.56094 -0.0869173 0
M  V30 661 O 66.0043 5.46373 0.118015 0
M  V30 662 H 63.0983 0.825275 0.053384 0
M  V30 663 H 65.6443 1.56996 -0.644244 0
M  V30 664 H 64.4163 3.7331 -1.17282 0
M  V30 665 H 64.0393 3.94057 0.5296 0
M  V30 666 N 65.0364 0.313813 1.54444 0
M  V30 667 C 66.2844 -0.291099 1.99993 0
M  V30 668 C 66.6054 -1.53418 1.20366 0
M  V30 669 O 65.8754 -1.93544 0.302927 0
M  V30 670 H 64.4554 -0.110552 0.738774 0
M  V30 671 H 67.1174 0.428106 1.9014 0
M  V30 672 H 66.2134 -0.554268 3.07139 0
M  V30 673 N 66.5145 -1.57545 0.0417849 0
M  V30 674 C 67.7635 -1.91494 -0.633492 0
M  V30 675 C 68.0765 -0.921084 -1.72556 0
M  V30 676 O 69.2825 -1.15228 -2.45835 0
M  V30 677 C 67.7385 -3.40072 -1.17808 0
M  V30 678 C 67.3465 -4.47843 -0.118633 0
M  V30 679 C 69.0905 -3.8307 -1.82915 0
M  V30 680 C 66.9975 -5.87529 -0.675578 0
M  V30 681 H 65.9275 -0.714653 -0.24039 0
M  V30 682 H 68.5785 -1.83175 0.109148 0
M  V30 683 H 66.9605 -3.43364 -1.97274 0
M  V30 684 H 68.1345 -4.56128 0.654494 0
M  V30 685 H 66.4495 -4.14128 0.434414 0
M  V30 686 H 69.0465 -4.84794 -2.25563 0
M  V30 687 H 69.3895 -3.1881 -2.67705 0
M  V30 688 H 69.9225 -3.82255 -1.10119 0
M  V30 689 H 66.6615 -6.55362 0.134475 0
M  V30 690 H 66.1815 -5.82824 -1.4169 0
M  V30 691 H 67.8605 -6.36491 -1.1614 0
M  V30 692 N 67.9926 0.231505 -1.5589 0
M  V30 693 C 69.2226 0.973092 -1.82248 0
M  V30 694 C 69.6306 1.78845 -0.617328 0
M  V30 695 O 68.9736 1.78752 0.423499 0
M  V30 696 C 69.0356 1.94732 -3.02192 0
M  V30 697 C 68.6996 1.31743 -4.37599 0
M  V30 698 C 69.6966 0.712238 -5.14998 0
M  V30 699 C 67.3816 1.33218 -4.84312 0
M  V30 700 C 69.3756 0.130195 -6.37267 0
M  V30 701 C 67.0626 0.746286 -6.06526 0
M  V30 702 C 68.0606 0.146337 -6.82843 0
M  V30 703 O 67.7486 -0.430465 -8.02747 0
M  V30 704 H 67.4806 0.29125 -0.61004 0
M  V30 705 H 70.0346 0.254915 -2.03812 0
M  V30 706 H 68.2646 2.70422 -2.76422 0
M  V30 707 H 69.9536 2.55362 -3.15508 0
M  V30 708 H 70.7196 0.69324 -4.8002 0
M  V30 709 H 66.5986 1.78854 -4.24891 0
M  V30 710 H 70.1426 -0.33871 -6.96777 0
M  V30 711 H 66.0396 0.762663 -6.40979 0
M  V30 712 H 66.8076 -0.323818 -8.17859 0
M  V30 713 N 69.4707 1.49531 0.497807 0
M  V30 714 C 70.4007 1.6935 1.60757 0
M  V30 715 C 71.3817 0.542218 1.61227 0
M  V30 716 O 72.5667 0.778417 1.77917 0
M  V30 717 C 69.6967 1.76298 2.99226 0
M  V30 718 C 68.6507 2.91248 3.13622 0
M  V30 719 C 67.9767 2.83312 4.53474 0
M  V30 720 C 69.2767 4.3214 2.93346 0
M  V30 721 H 70.9707 2.62263 1.44425 0
M  V30 722 H 68.5167 1.26208 0.693367 0
M  V30 723 H 70.4697 1.88749 3.76765 0
M  V30 724 H 69.1937 0.799871 3.16654 0
M  V30 725 H 67.8527 2.78404 2.38509 0
M  V30 726 H 67.5007 1.84902 4.67782 0
M  V30 727 H 67.2007 3.60465 4.64046 0
M  V30 728 H 68.7247 2.97775 5.33069 0
M  V30 729 H 70.1387 4.45649 3.60652 0
M  V30 730 H 68.5357 5.1054 3.15387 0
M  V30 731 H 69.6057 4.46363 1.89441 0
M  V30 732 N 70.9488 -0.749086 1.3866 0
M  V30 733 C 71.8788 -1.8764 1.38973 0
M  V30 734 C 72.8598 -1.68178 0.255004 0
M  V30 735 O 74.0448 -1.88704 0.458754 0
M  V30 736 C 71.1748 -3.25222 1.21851 0
M  V30 737 C 70.1288 -3.59295 2.32575 0
M  V30 738 C 69.4548 -4.95663 2.00555 0
M  V30 739 C 70.7548 -3.63709 3.7485 0
M  V30 740 H 72.4488 -1.87635 2.3331 0
M  V30 741 H 69.9948 -0.901329 1.12303 0
M  V30 742 H 71.9478 -4.03746 1.20695 0
M  V30 743 H 70.6718 -3.25719 0.239775 0
M  V30 744 H 69.3308 -2.83093 2.32925 0
M  V30 745 H 68.9788 -4.92724 1.01154 0
M  V30 746 H 68.6788 -5.19429 2.74714 0
M  V30 747 H 70.2028 -5.7656 2.01024 0
M  V30 748 H 71.6168 -4.32338 3.76506 0
M  V30 749 H 70.0138 -3.98986 4.48252 0
M  V30 750 H 71.0838 -2.63834 4.06841 0
M  V30 751 N 72.4269 -1.23603 -0.977757 0
M  V30 752 C 73.6569 -1.09487 -1.75203 0
M  V30 753 C 74.0649 0.356321 -1.85814 0
M  V30 754 O 73.4079 1.25816 -1.33851 0
M  V30 755 C 73.4699 -1.64905 -3.19447 0
M  V30 756 C 73.1339 -3.13688 -3.32338 0
M  V30 757 C 74.1309 -4.10953 -3.18455 0
M  V30 758 C 71.8159 -3.53449 -3.56902 0
M  V30 759 C 73.8099 -5.45962 -3.28944 0
M  V30 760 C 71.4969 -4.88602 -3.6703 0
M  V30 761 C 72.4949 -5.84668 -3.53062 0
M  V30 762 O 72.1829 -7.17365 -3.62826 0
M  V30 763 H 71.9149 -0.38367 -0.556573 0
M  V30 764 H 74.4689 -1.6398 -1.23693 0
M  V30 765 H 72.6989 -1.04835 -3.72218 0
M  V30 766 H 74.3879 -1.46226 -3.78646 0
M  V30 767 H 75.1539 -3.81577 -2.99372 0
M  V30 768 H 71.0329 -2.79188 -3.66844 0
M  V30 769 H 74.5769 -6.20925 -3.17958 0
M  V30 770 H 70.4739 -5.17653 -3.85623 0
M  V30 771 H 71.2419 -7.2515 -3.79605 0
M  V30 772 N 73.905 1.17692 -1.04816 0
M  V30 773 C 74.835 2.23777 -0.666791 0
M  V30 774 C 75.816 1.66796 0.33361 0
M  V30 775 O 77.001 1.93039 0.212042 0
M  V30 776 C 74.131 3.47281 -0.0367933 0
M  V30 777 C 73.085 4.17059 -0.961546 0
M  V30 778 C 72.411 5.34342 -0.195626 0
M  V30 779 C 73.711 4.69713 -2.28402 0
M  V30 780 H 75.405 2.55933 -1.55367 0
M  V30 781 H 72.951 1.23019 -0.748484 0
M  V30 782 H 74.904 4.20706 0.241775 0
M  V30 783 H 73.628 3.14381 0.885004 0
M  V30 784 H 72.287 3.45541 -1.22462 0
M  V30 785 H 71.935 4.97692 0.728816 0
M  V30 786 H 71.635 5.81966 -0.811775 0
M  V30 787 H 73.159 6.10553 0.0757473 0
M  V30 788 H 74.573 5.34794 -2.06563 0
M  V30 789 H 72.97 5.279 -2.8538 0
M  V30 790 H 74.04 3.86726 -2.92525 0
M  V30 791 N 75.3831 0.828654 1.34056 0
M  V30 792 C 76.3151 0.212052 2.28217 0
M  V30 793 C 77.3281 -0.601362 1.51286 0
M  V30 794 O 78.5171 -0.430104 1.73241 0
M  V30 795 C 75.6171 -0.72088 3.31144 0
M  V30 796 C 74.7901 0.0509587 4.3737 0
M  V30 797 C 73.8491 -0.803766 5.20025 0
M  V30 798 O 72.8751 -0.246667 5.68665 0
M  V30 799 N 74.0771 -2.1227 5.40298 0
M  V30 800 H 76.8421 1.02105 2.81771 0
M  V30 801 H 74.4031 0.686153 1.46641 0
M  V30 802 H 76.3951 -1.29742 3.8334 0
M  V30 803 H 74.9651 -1.43061 2.77943 0
M  V30 804 H 74.1851 0.808831 3.85813 0
M  V30 805 H 75.4731 0.582065 5.0546 0
M  V30 806 H 74.8711 -2.59898 5.02464 0
M  V30 807 H 73.4281 -2.64796 5.95589 0
M  V30 808 N 76.8612 -1.46375 0.584142 0
M  V30 809 C 78.1382 -1.956 0.0033388 0
M  V30 810 C 78.5182 -1.52679 -1.45782 0
M  V30 811 O 77.8662 -0.77816 -2.14842 0
M  V30 812 C 78.0762 -3.48551 0.176891 0
M  V30 813 C 79.4242 -4.24576 0.0454609 0
M  V30 814 O 80.4482 -3.56043 0.105801 0
M  V30 815 O 79.3072 -5.46427 -0.0890376 0
M  V30 816 H 76.4012 -0.825547 -0.0490066 0
M  V30 817 H 78.9472 -1.56652 0.65256 0
M  V30 818 H 77.7192 -3.72683 1.1926 0
M  V30 819 H 77.3422 -3.94332 -0.508695 0
M  V30 820 N 78.3393 -0.321999 -1.54275 0
M  V30 821 C 79.2693 0.537411 -2.27231 0
M  V30 822 C 80.2503 1.12064 -1.27968 0
M  V30 823 O 81.4353 1.14606 -1.56777 0
M  V30 824 C 78.5653 1.69919 -3.02894 0
M  V30 825 C 77.5193 1.24534 -4.09482 0
M  V30 826 C 76.8453 2.49394 -4.72977 0
M  V30 827 C 78.1453 0.361335 -5.21049 0
M  V30 828 H 79.8393 -0.0711406 -2.99315 0
M  V30 829 H 77.3853 -0.0356555 -1.43956 0
M  V30 830 H 79.3383 2.30668 -3.52662 0
M  V30 831 H 78.0623 2.33431 -2.28424 0
M  V30 832 H 76.7213 0.660782 -3.60596 0
M  V30 833 H 76.3693 3.11265 -3.95124 0
M  V30 834 H 76.0693 2.19718 -5.44975 0
M  V30 835 H 77.5933 3.10908 -5.25517 0
M  V30 836 H 79.0073 0.875072 -5.66582 0
M  V30 837 H 77.4043 0.157428 -5.99893 0
M  V30 838 H 78.4743 -0.60822 -4.8107 0
M  V30 839 N 79.8174 1.5752 -0.0501392 0
M  V30 840 C 81.0634 1.93755 0.618901 0
M  V30 841 C 81.4184 0.928514 1.68512 0
M  V30 842 O 80.7114 -0.0524613 1.91528 0
M  V30 843 C 80.9054 3.34467 1.25963 0
M  V30 844 C 80.7344 4.48965 0.257 0
M  V30 845 C 79.5044 5.05075 -0.150656 0
M  V30 846 C 81.7024 5.11891 -0.497166 0
M  V30 847 N 79.6844 6.03104 -1.14626 0
M  V30 848 C 81.0554 6.05216 -1.34588 0
M  V30 849 C 83.1104 4.9479 -0.55559 0
M  V30 850 C 81.8134 6.83277 -2.24778 0
M  V30 851 C 83.8394 5.73477 -1.44492 0
M  V30 852 C 83.2014 6.66433 -2.28136 0
M  V30 853 H 79.3004 0.756479 0.198149 0
M  V30 854 H 81.8844 1.94316 -0.122229 0
M  V30 855 H 80.0554 3.34685 1.97079 0
M  V30 856 H 81.7874 3.57994 1.88739 0
M  V30 857 H 78.5424 4.7305 0.228094 0
M  V30 858 H 78.9664 6.56813 -1.64092 0
M  V30 859 H 83.6084 4.2273 0.0768625 0
M  V30 860 H 81.3264 7.54629 -2.89069 0
M  V30 861 H 84.9124 5.62273 -1.49468 0
M  V30 862 H 83.7924 7.26258 -2.95835 0
M  V30 863 N 81.2955 -0.223234 1.56011 0
M  V30 864 C 82.5235 -0.964812 1.83027 0
M  V30 865 C 82.9385 -1.78013 0.62904 0
M  V30 866 O 82.2955 -1.78008 -0.402414 0
M  V30 867 C 82.3465 -1.88373 3.08542 0
M  V30 868 O 82.0675 -1.10137 4.2403 0
M  V30 869 C 83.5685 -2.73934 3.48533 0
M  V30 870 H 80.7885 -0.282842 0.608475 0
M  V30 871 H 83.3325 -0.238971 2.03099 0
M  V30 872 H 81.4875 -2.56354 2.9045 0
M  V30 873 H 81.9015 -1.72501 4.95322 0
M  V30 874 H 83.3755 -3.34117 4.39397 0
M  V30 875 H 83.8525 -3.46244 2.70207 0
M  V30 876 H 84.4585 -2.11369 3.69057 0
M  V30 877 N 82.7736 -1.49793 -0.48987 0
M  V30 878 C 84.0016 -1.63568 -1.26701 0
M  V30 879 C 84.4166 -0.311465 -1.86213 0
M  V30 880 O 83.7736 0.704416 -1.68357 0
M  V30 881 C 83.8246 -2.71284 -2.38929 0
M  V30 882 O 83.5456 -3.9857 -1.81861 0
M  V30 883 C 85.0466 -2.95864 -3.3012 0
M  V30 884 H 82.2666 -0.550342 -0.383881 0
M  V30 885 H 84.8106 -1.95898 -0.586864 0
M  V30 886 H 82.9656 -2.417 -3.02753 0
M  V30 887 H 83.3796 -4.57993 -2.55622 0
M  V30 888 H 84.8536 -3.74941 -4.05121 0
M  V30 889 H 85.3306 -2.06206 -3.87783 0
M  V30 890 H 85.9366 -3.26907 -2.72051 0
M  V30 891 N 84.2517 0.741722 -1.39055 0
M  V30 892 C 85.4977 1.50336 -1.36113 0
M  V30 893 C 85.8307 1.94148 0.0450796 0
M  V30 894 O 85.1057 1.66301 1.00868 0
M  V30 895 C 85.3887 2.74773 -2.32749 0
M  V30 896 C 85.2417 2.37023 -3.82283 0
M  V30 897 C 86.5607 3.76846 -2.27322 0
M  V30 898 H 83.6797 0.545351 -0.495743 0
M  V30 899 H 86.3217 0.848624 -1.69995 0
M  V30 900 H 84.4717 3.30639 -2.03986 0
M  V30 901 H 86.1437 1.8684 -4.21768 0
M  V30 902 H 84.3867 1.69334 -3.99385 0
M  V30 903 H 85.0577 3.26104 -4.45376 0
M  V30 904 H 87.5337 3.30548 -2.5274 0
M  V30 905 H 86.4097 4.6159 -2.97028 0
M  V30 906 H 86.6707 4.23286 -1.27599 0
M  V30 907 N 85.7298 1.2412 0.971189 0
M  V30 908 C 86.9788 1.07284 1.70801 0
M  V30 909 C 87.2918 -0.388902 1.91695 0
M  V30 910 O 88.4978 -0.677379 2.62914 0
M  V30 911 C 86.9538 1.87145 3.07416 0
M  V30 912 C 86.5618 3.37707 2.94377 0
M  V30 913 C 88.3058 1.78828 3.84995 0
M  V30 914 C 86.2128 4.09925 4.26281 0
M  V30 915 H 85.1428 0.397854 0.64049 0
M  V30 916 H 87.7938 1.4817 1.0825 0
M  V30 917 H 86.1758 1.39071 3.70777 0
M  V30 918 H 87.3498 3.93335 2.4005 0
M  V30 919 H 85.6648 3.46938 2.30267 0
M  V30 920 H 88.2618 2.30089 4.82662 0
M  V30 921 H 88.6048 0.75284 4.09436 0
M  V30 922 H 89.1378 2.24563 3.28354 0
M  V30 923 H 85.8768 5.13813 4.07033 0
M  V30 924 H 85.3968 3.59083 4.80437 0
M  V30 925 H 87.0758 4.1673 4.94919 0
M  V30 926 N 87.2079 -1.17134 1.05439 0
M  V30 927 C 88.4849 -1.83411 0.679699 0
M  V30 928 C 88.8649 -1.9368 -0.839726 0
M  V30 929 O 88.2129 -1.47325 -1.74664 0
M  V30 930 C 88.4229 -3.20918 1.37159 0
M  V30 931 C 89.7709 -3.96796 1.51123 0
M  V30 932 O 90.7949 -3.30406 1.3308 0
M  V30 933 O 89.6539 -5.15778 1.80651 0
M  V30 934 H 86.7479 -0.79154 0.239569 0
M  V30 935 H 89.2939 -1.24411 1.15413 0
M  V30 936 H 88.0659 -3.08428 2.40807 0
M  V30 937 H 87.6889 -3.87587 0.886674 0
M  V30 938 N 88.686 -0.835752 -1.33615 0
M  V30 939 C 89.619 -0.211815 -2.27215 0
M  V30 940 C 90.597 0.639249 -1.49507 0
M  V30 941 O 91.781 0.600193 -1.78689 0
M  V30 942 C 88.908 0.702893 -3.31326 0
M  V30 943 C 87.954 -0.0723049 -4.26439 0
M  V30 944 S 88.787 -1.42811 -5.16106 0
M  V30 945 C 89.943 -0.518613 -6.23748 0
M  V30 946 H 90.176 -1.00533 -2.79786 0
M  V30 947 H 87.709 -0.632336 -1.40858 0
M  V30 948 H 89.667 1.22505 -3.91794 0
M  V30 949 H 88.328 1.47004 -2.77576 0
M  V30 950 H 87.521 0.62359 -5.00127 0
M  V30 951 H 87.123 -0.525424 -3.70291 0
M  V30 952 H 89.415 0.284778 -6.76901 0
M  V30 953 H 90.358 -1.22556 -6.97413 0
M  V30 954 H 90.766 -0.101344 -5.64409 0
M  V30 955 N 90.1641 1.46063 -0.591896 0
M  V30 956 C 91.1111 2.30399 0.136069 0
M  V30 957 C 92.0811 1.41169 0.875238 0
M  V30 958 O 93.2661 1.70112 0.86409 0
M  V30 959 C 90.4061 3.25804 1.13781 0
M  V30 960 C 89.5191 4.30134 0.401137 0
M  V30 961 C 88.6541 5.12659 1.39121 0
M  V30 962 C 87.6931 6.0873 0.641462 0
M  V30 963 N 86.8301 6.8409 1.58004 0
M  V30 964 H 91.6701 2.92118 -0.589144 0
M  V30 965 H 89.2071 1.43959 -0.302342 0
M  V30 966 H 91.1651 3.79569 1.73156 0
M  V30 967 H 89.7951 2.65872 1.83062 0
M  V30 968 H 88.8471 3.79152 -0.307826 0
M  V30 969 H 90.1591 4.98458 -0.184565 0
M  V30 970 H 89.3131 5.70747 2.05749 0
M  V30 971 H 88.0521 4.44316 2.01084 0
M  V30 972 H 87.0571 5.49786 -0.0385419 0
M  V30 973 H 88.2821 6.79095 0.0270945 0
M  V30 974 H 86.2281 6.18449 2.18761 0
M  V30 975 H 86.1451 7.48709 1.04738 0
M  V30 976 H 87.4131 7.4673 2.23639 0
M  V30 977 N 91.6422 0.330177 1.54103 0
M  V30 978 C 92.8882 -0.263542 2.01685 0
M  V30 979 C 93.2432 -1.49258 1.21408 0
M  V30 980 O 92.5362 -1.89395 0.289852 0
M  V30 981 C 92.7302 -0.643134 3.51566 0
M  V30 982 C 92.5592 0.547571 4.46354 0
M  V30 983 C 91.3292 1.04873 4.94297 0
M  V30 984 C 93.5272 1.40184 4.94826 0
M  V30 985 N 91.5092 2.20316 5.73005 0
M  V30 986 C 92.8802 2.40335 5.71524 0
M  V30 987 C 94.9352 1.42884 4.76958 0
M  V30 988 C 93.6382 3.42998 6.32254 0
M  V30 989 C 95.6642 2.44421 5.38528 0
M  V30 990 C 95.0262 3.43298 6.15082 0
M  V30 991 H 91.1252 -0.0601026 0.779687 0
M  V30 992 H 93.7092 0.466714 1.89023 0
M  V30 993 H 91.8802 -1.34251 3.6446 0
M  V30 994 H 93.6122 -1.21889 3.85908 0
M  V30 995 H 90.3672 0.618956 4.69538 0
M  V30 996 H 90.7912 2.78565 6.17034 0
M  V30 997 H 95.4332 0.678049 4.17328 0
M  V30 998 H 93.1512 4.1898 6.91 0
M  V30 999 H 96.7372 2.4732 5.26616 0
M  V30 1000 H 95.6172 4.20579 6.61878 0
M  V30 1001 N 93.1203 -1.57491 0.0584922 0
M  V30 1002 C 94.5363 -1.56792 -0.298091 0
M  V30 1003 C 94.7363 -1.06679 -1.70944 0
M  V30 1004 O 93.7923 -0.726672 -2.41818 0
M  V30 1005 C 95.1053 -3.00461 -0.119879 0
M  V30 1006 C 96.6533 -3.1242 -0.190428 0
M  V30 1007 C 97.1283 -4.57982 -0.0406567 0
M  V30 1008 N 98.6193 -4.63099 -0.0966958 0
M  V30 1009 C 99.3543 -5.734 -0.00502943 0
M  V30 1010 N 98.8503 -6.9266 0.139402 0
M  V30 1011 N 100.643 -5.62067 -0.0611391 0
M  V30 1012 H 92.7943 -1.88386 0.98105 0
M  V30 1013 H 95.0573 -0.867865 0.381463 0
M  V30 1014 H 94.7633 -3.41187 0.85349 0
M  V30 1015 H 94.6373 -3.66843 -0.877833 0
M  V30 1016 H 97.0243 -2.71589 -1.15427 0
M  V30 1017 H 97.1053 -2.48702 0.598405 0
M  V30 1018 H 96.7493 -4.995 0.919897 0
M  V30 1019 H 96.6793 -5.19715 -0.848727 0
M  V30 1020 H 99.1703 -3.77331 -0.207277 0
M  V30 1021 H 99.4833 -7.72536 0.201855 0
M  V30 1022 H 97.8283 -6.94781 0.174586 0
M  V30 1023 H 101.019 -4.67782 -0.172583 0
M  V30 1024 H 101.192 -6.47999 0.0137562 0
M  V30 1025 N 94.5984 0.214957 -1.56127 0
M  V30 1026 C 95.8284 0.953707 -1.8327 0
M  V30 1027 C 96.2364 1.78181 -0.636262 0
M  V30 1028 O 95.5794 1.79191 0.404516 0
M  V30 1029 C 95.6414 1.91516 -3.0424 0
M  V30 1030 C 95.3054 1.27094 -4.38972 0
M  V30 1031 C 96.3024 0.657575 -5.15725 0
M  V30 1032 C 93.9874 1.28073 -4.85698 0
M  V30 1033 C 95.9814 0.0625968 -6.37369 0
M  V30 1034 C 93.6684 0.681914 -6.07283 0
M  V30 1035 C 94.6664 0.0739046 -6.8296 0
M  V30 1036 O 94.3544 -0.515582 -8.02245 0
M  V30 1037 H 94.0864 0.284764 -0.613095 0
M  V30 1038 H 96.6404 0.233283 -2.04071 0
M  V30 1039 H 94.8704 2.67475 -2.79274 0
M  V30 1040 H 96.5594 2.52001 -3.18198 0
M  V30 1041 H 97.3254 0.642288 -4.80728 0
M  V30 1042 H 93.2044 1.74337 -4.26764 0
M  V30 1043 H 96.7484 -0.412593 -6.96379 0
M  V30 1044 H 92.6454 0.694636 -6.41752 0
M  V30 1045 H 93.4134 -0.410544 -8.1747 0
M  V30 1046 N 96.0765 1.50051 0.48192 0
M  V30 1047 C 97.0235 1.68122 1.58125 0
M  V30 1048 C 97.9935 0.522545 1.57666 0
M  V30 1049 O 99.1785 0.751844 1.75362 0
M  V30 1050 C 96.3185 1.77142 2.96167 0
M  V30 1051 C 95.4315 3.0444 3.06497 0
M  V30 1052 C 94.5665 3.04321 4.35387 0
M  V30 1053 C 93.6055 4.26118 4.3942 0
M  V30 1054 N 92.7425 4.238 5.59766 0
M  V30 1055 H 97.5825 2.6198 1.42022 0
M  V30 1056 H 95.1195 1.29877 0.690687 0
M  V30 1057 H 97.0775 1.80352 3.76203 0
M  V30 1058 H 95.7075 0.867329 3.1093 0
M  V30 1059 H 94.7595 3.10752 2.19402 0
M  V30 1060 H 96.0715 3.94426 3.05336 0
M  V30 1061 H 95.2255 3.062 5.23762 0
M  V30 1062 H 93.9645 2.12147 4.39141 0
M  V30 1063 H 92.9695 4.24463 3.49444 0
M  V30 1064 H 94.1945 5.19507 4.37366 0
M  V30 1065 H 92.1405 3.34474 5.64326 0
M  V30 1066 H 92.0575 5.07542 5.60301 0
M  V30 1067 H 93.3255 4.2981 6.50295 0
M  V30 1068 N 97.5546 -0.734337 1.39446 0
M  V30 1069 C 98.4846 -1.86155 1.40955 0
M  V30 1070 C 99.4656 -1.67898 0.272827 0
M  V30 1071 O 100.651 -1.88207 0.478743 0
M  V30 1072 C 97.7806 -3.23912 1.25294 0
M  V30 1073 C 96.7346 -3.56808 2.36373 0
M  V30 1074 C 96.0606 -4.93508 2.058 0
M  V30 1075 C 97.3606 -3.59713 3.78687 0
M  V30 1076 H 99.0546 -1.8515 2.35287 0
M  V30 1077 H 96.6006 -0.889367 1.13253 0
M  V30 1078 H 98.5536 -4.02443 1.2497 0
M  V30 1079 H 97.2776 -3.25446 0.274308 0
M  V30 1080 H 95.9366 -2.80606 2.35914 0
M  V30 1081 H 95.5846 -4.91623 1.06374 0
M  V30 1082 H 95.2846 -5.16486 2.80208 0
M  V30 1083 H 96.8086 -5.74396 2.07128 0
M  V30 1084 H 98.2226 -4.2832 3.81071 0
M  V30 1085 H 96.6196 -3.94209 4.52459 0
M  V30 1086 H 97.6896 -2.59504 4.09617 0
M  V30 1087 N 99.0327 -1.24633 -0.964593 0
M  V30 1088 C 100.261 -1.11501 -1.74285 0
M  V30 1089 C 100.676 0.332165 -1.85855 0
M  V30 1090 O 100.033 1.22903 -1.34911 0
M  V30 1091 C 100.084 -1.75258 -3.16175 0
M  V30 1092 O 99.8047 -3.14318 -3.05182 0
M  V30 1093 C 101.306 -1.67776 -4.10324 0
M  V30 1094 H 98.5257 -0.389407 -0.546446 0
M  V30 1095 H 101.07 -1.64801 -1.21083 0
M  V30 1096 H 99.2247 -1.25954 -3.66353 0
M  V30 1097 H 99.6387 -3.4551 -3.94618 0
M  V30 1098 H 101.113 -2.17064 -5.0753 0
M  V30 1099 H 101.59 -0.639584 -4.34518 0
M  V30 1100 H 102.196 -2.16522 -3.66058 0
M  V30 1101 N 100.511 1.16574 -1.06058 0
M  V30 1102 C 101.441 2.23057 -0.690488 0
M  V30 1103 C 102.422 1.67141 0.315901 0
M  V30 1104 O 103.607 1.93253 0.191556 0
M  V30 1105 C 100.737 3.47222 -0.073625 0
M  V30 1106 C 99.6908 4.16016 -1.00573 0
M  V30 1107 C 99.0168 5.34104 -0.252289 0
M  V30 1108 C 100.317 4.67264 -2.33371 0
M  V30 1109 H 102.011 2.54271 -1.58072 0
M  V30 1110 H 99.5568 1.22218 -0.76149 0
M  V30 1111 H 101.51 4.20939 0.19714 0
M  V30 1112 H 100.234 3.15302 0.85161 0
M  V30 1113 H 98.8928 3.44223 -1.2612 0
M  V30 1114 H 98.5408 4.98437 0.675988 0
M  V30 1115 H 98.2408 5.81072 -0.873455 0
M  V30 1116 H 99.7648 6.10599 0.0109857 0
M  V30 1117 H 101.179 5.32573 -2.12223 0
M  V30 1118 H 99.5758 5.24843 -2.90963 0
M  V30 1119 H 100.646 3.83602 -2.96611 0
M  V30 1120 N 101.989 0.842826 1.3317 0
M  V30 1121 C 103.236 0.440447 1.97652 0
M  V30 1122 C 103.564 -1.00123 1.6675 0
M  V30 1123 O 102.819 -1.7155 0.941761 0
M  V30 1124 C 103.118 0.612607 3.52111 0
M  V30 1125 C 102.784 2.02297 4.02972 0
M  V30 1126 C 101.446 2.40874 4.16573 0
M  V30 1127 C 103.798 2.94402 4.30089 0
M  V30 1128 C 101.126 3.70852 4.54627 0
M  V30 1129 C 103.478 4.23865 4.69597 0
M  V30 1130 C 102.142 4.62392 4.81404 0
M  V30 1131 H 101.412 0.161171 0.72326 0
M  V30 1132 H 104.059 1.07061 1.58777 0
M  V30 1133 H 102.364 -0.100849 3.9167 0
M  V30 1134 H 104.061 0.2815 4.00011 0
M  V30 1135 H 100.651 1.71338 3.92863 0
M  V30 1136 H 104.835 2.65835 4.19101 0
M  V30 1137 H 100.091 4.00501 4.61962 0
M  V30 1138 H 104.265 4.95306 4.89536 0
M  V30 1139 H 101.892 5.63154 5.10648 0
M  V30 1140 N 103.467 -1.45747 0.599634 0
M  V30 1141 C 104.43 -2.28917 -0.113835 0
M  V30 1142 C 105.43 -1.3933 -0.802729 0
M  V30 1143 O 106.62 -1.61534 -0.652103 0
M  V30 1144 C 103.752 -3.20152 -1.17114 0
M  V30 1145 H 104.945 -2.93478 0.617289 0
M  V30 1146 H 102.498 -1.52137 0.358327 0
M  V30 1147 H 103.233 -2.60374 -1.93329 0
M  V30 1148 H 103.018 -3.86133 -0.681468 0
M  V30 1149 H 104.508 -3.82708 -1.67105 0
M  V30 1150 N 104.945 -0.338344 -1.53925 0
M  V30 1151 C 105.908 0.508299 -2.23493 0
M  V30 1152 C 106.908 1.03175 -1.23335 0
M  V30 1153 O 108.098 0.921826 -1.47811 0
M  V30 1154 C 105.23 1.70754 -2.95052 0
M  V30 1155 H 106.423 -0.100058 -2.99733 0
M  V30 1156 H 103.976 -0.0896198 -1.56043 0
M  V30 1157 H 104.711 2.35474 -2.22986 0
M  V30 1158 H 104.496 1.33946 -3.68512 0
M  V30 1159 H 105.986 2.30818 -3.48013 0
M  V30 1160 N 106.423 1.57458 -0.0668435 0
M  V30 1161 C 107.651 1.97624 0.612565 0
M  V30 1162 C 108.066 0.94502 1.63447 0
M  V30 1163 O 107.423 -0.0689276 1.8237 0
M  V30 1164 C 107.474 3.37869 1.28555 0
M  V30 1165 O 107.195 4.3704 0.304557 0
M  V30 1166 C 108.696 3.92882 2.05325 0
M  V30 1167 H 105.916 0.650045 0.166381 0
M  V30 1168 H 108.46 2.04035 -0.137782 0
M  V30 1169 H 106.615 3.3256 1.98702 0
M  V30 1170 H 107.029 5.18565 0.786779 0
M  V30 1171 H 108.503 4.93247 2.47812 0
M  V30 1172 H 108.98 3.29156 2.9078 0
M  V30 1173 H 109.586 4.01577 1.40056 0
M  V30 1174 N 107.901 -0.206675 1.56239 0
M  V30 1175 C 109.148 -0.928842 1.79941 0
M  V30 1176 C 109.476 -1.83734 0.638131 0
M  V30 1177 O 108.731 -1.92039 -0.376746 0
M  V30 1178 C 109.03 -1.78675 3.09532 0
M  V30 1179 C 108.696 -1.03022 4.38973 0
M  V30 1180 C 107.358 -0.821302 4.74139 0
M  V30 1181 C 109.71 -0.497081 5.18824 0
M  V30 1182 C 107.038 -0.0675719 5.86661 0
M  V30 1183 C 109.39 0.24338 6.32132 0
M  V30 1184 C 108.054 0.463422 6.65889 0
M  V30 1185 H 107.324 -0.339887 0.658451 0
M  V30 1186 H 109.971 -0.195977 1.90495 0
M  V30 1187 H 108.276 -2.58794 2.94165 0
M  V30 1188 H 109.973 -2.34792 3.25075 0
M  V30 1189 H 106.563 -1.20306 4.11369 0
M  V30 1190 H 110.747 -0.645921 4.92079 0
M  V30 1191 H 106.003 0.112995 6.11296 0
M  V30 1192 H 110.177 0.66393 6.93228 0
M  V30 1193 H 107.804 1.04938 7.52922 0
M  V30 1194 N 109.379 -1.50304 -0.473955 0
M  V30 1195 C 110.625 -1.61389 -1.22806 0
M  V30 1196 C 110.958 -0.311955 -1.91678 0
M  V30 1197 O 110.233 0.686384 -1.81986 0
M  V30 1198 C 110.516 -2.79219 -2.27396 0
M  V30 1199 C 110.369 -4.19286 -1.62848 0
M  V30 1200 C 111.688 -2.92614 -3.28732 0
M  V30 1201 H 108.807 -0.587399 -0.445119 0
M  V30 1202 H 111.449 -1.82681 -0.522265 0
M  V30 1203 H 109.599 -2.61195 -2.87592 0
M  V30 1204 H 111.271 -4.48892 -1.06271 0
M  V30 1205 H 109.514 -4.23677 -0.931693 0
M  V30 1206 H 110.185 -4.97655 -2.38838 0
M  V30 1207 H 112.661 -3.09105 -2.78556 0
M  V30 1208 H 111.537 -3.76688 -3.99246 0
M  V30 1209 H 111.798 -2.03107 -3.92683 0
M  V30 1210 N 110.857 0.726932 -1.39834 0
M  V30 1211 C 111.79 1.8501 -1.33592 0
M  V30 1212 C 112.768 1.61262 -0.208191 0
M  V30 1213 O 113.952 1.84422 -0.389981 0
M  V30 1214 C 111.079 3.21143 -1.07633 0
M  V30 1215 C 110.125 3.63737 -2.22705 0
M  V30 1216 S 110.958 3.72167 -3.85035 0
M  V30 1217 C 112.114 5.11077 -3.61318 0
M  V30 1218 H 112.347 1.90022 -2.28646 0
M  V30 1219 H 109.88 0.892595 -1.25985 0
M  V30 1220 H 111.838 3.99747 -0.933415 0
M  V30 1221 H 110.499 3.13776 -0.142526 0
M  V30 1222 H 109.692 4.62551 -2.00155 0
M  V30 1223 H 109.294 2.9236 -2.33242 0
M  V30 1224 H 111.586 5.97656 -3.19083 0
M  V30 1225 H 112.529 5.38658 -4.59623 0
M  V30 1226 H 112.937 4.81135 -2.95245 0
M  V30 1227 N 112.336 1.25143 0.95797 0
M  V30 1228 C 113.564 1.12424 1.73691 0
M  V30 1229 C 113.979 -0.322304 1.86029 0
M  V30 1230 O 113.336 -1.22186 1.35561 0
M  V30 1231 C 113.387 1.76933 3.15241 0
M  V30 1232 O 113.108 3.15932 3.03511 0
M  V30 1233 C 114.609 1.6995 4.09429 0
M  V30 1234 H 111.829 0.3923 0.544373 0
M  V30 1235 H 114.373 1.6544 1.20207 0
M  V30 1236 H 112.528 1.27895 3.6568 0
M  V30 1237 H 112.942 3.47598 3.9278 0
M  V30 1238 H 114.416 2.19753 5.06372 0
M  V30 1239 H 114.893 0.662619 4.34173 0
M  V30 1240 H 115.499 2.18461 3.64904 0
M  V30 1241 N 113.814 -1.1601 1.06675 0
M  V30 1242 C 115.06 -1.87145 0.796766 0
M  V30 1243 C 115.415 -1.8037 -0.669658 0
M  V30 1244 O 114.708 -1.21116 -1.48463 0
M  V30 1245 C 114.902 -3.35547 1.23057 0
M  V30 1246 C 114.731 -3.56769 2.73762 0
M  V30 1247 C 113.501 -3.72635 3.41279 0
M  V30 1248 C 115.699 -3.55166 3.7197 0
M  V30 1249 N 113.681 -3.81845 4.80695 0
M  V30 1250 C 115.052 -3.70406 4.97191 0
M  V30 1251 C 117.107 -3.384 3.65226 0
M  V30 1252 C 115.81 -3.70615 6.16471 0
M  V30 1253 C 117.836 -3.39904 4.83962 0
M  V30 1254 C 117.198 -3.55667 6.08013 0
M  V30 1255 H 113.297 -0.702267 0.344014 0
M  V30 1256 H 115.881 -1.39165 1.36166 0
M  V30 1257 H 114.052 -3.82159 0.693456 0
M  V30 1258 H 115.784 -3.94363 0.908844 0
M  V30 1259 H 112.539 -3.73121 2.91681 0
M  V30 1260 H 112.963 -3.90209 5.53232 0
M  V30 1261 H 117.605 -3.25138 2.70269 0
M  V30 1262 H 115.323 -3.82658 7.11757 0
M  V30 1263 H 118.909 -3.28169 4.80413 0
M  V30 1264 H 117.789 -3.56755 6.98352 0
M  V30 1265 N 115.292 -0.849877 -1.32721 0
M  V30 1266 C 116.539 -0.450923 -1.97416 0
M  V30 1267 C 116.867 0.992376 -1.67279 0
M  V30 1268 O 116.122 1.71048 -0.950845 0
M  V30 1269 C 116.421 -0.631272 -3.51781 0
M  V30 1270 C 116.087 -2.04432 -4.01894 0
M  V30 1271 C 114.749 -2.4308 -4.1529 0
M  V30 1272 C 117.101 -2.96679 -4.28522 0
M  V30 1273 C 114.429 -3.73257 -4.52654 0
M  V30 1274 C 116.781 -4.26349 -4.67343 0
M  V30 1275 C 115.445 -4.64939 -4.78945 0
M  V30 1276 H 114.715 -0.165004 -0.722395 0
M  V30 1277 H 117.362 -1.07901 -1.58207 0
M  V30 1278 H 115.667 0.0800767 -3.91718 0
M  V30 1279 H 117.364 -0.302709 -3.99856 0
M  V30 1280 H 113.954 -1.73419 -3.91949 0
M  V30 1281 H 118.138 -2.68054 -4.17685 0
M  V30 1282 H 113.394 -4.02946 -4.59831 0
M  V30 1283 H 117.568 -4.97895 -4.86902 0
M  V30 1284 H 115.195 -5.65855 -5.07654 0
M  V30 1285 N 116.77 1.45427 -0.607355 0
M  V30 1286 C 117.7 2.3329 0.0989352 0
M  V30 1287 C 118.681 1.46816 0.859007 0
M  V30 1288 O 119.866 1.75588 0.829604 0
M  V30 1289 C 116.996 3.29518 1.09705 0
M  V30 1290 C 115.95 4.25626 0.450206 0
M  V30 1291 C 115.276 5.11542 1.55655 0
M  V30 1292 C 116.576 5.18505 -0.628455 0
M  V30 1293 H 118.27 2.92595 -0.634716 0
M  V30 1294 H 115.816 1.40696 -0.306681 0
M  V30 1295 H 117.769 3.89855 1.59971 0
M  V30 1296 H 116.493 2.68372 1.86129 0
M  V30 1297 H 115.152 3.66586 -0.0315886 0
M  V30 1298 H 114.8 4.46765 2.31107 0
M  V30 1299 H 114.5 5.76647 1.12925 0
M  V30 1300 H 116.024 5.74748 2.06148 0
M  V30 1301 H 117.438 5.72916 -0.209877 0
M  V30 1302 H 115.835 5.92085 -0.977489 0
M  V30 1303 H 116.905 4.60948 -1.50514 0
M  V30 1304 N 118.248 0.346503 1.53744 0
M  V30 1305 C 119.495 -0.249104 2.00962 0
M  V30 1306 C 119.823 -1.5032 1.23426 0
M  V30 1307 O 119.078 -1.93217 0.310761 0
M  V30 1308 C 119.377 -0.605809 3.52228 0
M  V30 1309 C 119.043 0.551747 4.47512 0
M  V30 1310 C 117.705 0.86941 4.73281 0
M  V30 1311 C 120.057 1.32818 5.03993 0
M  V30 1312 C 117.385 1.96582 5.52786 0
M  V30 1313 C 119.737 2.41486 5.84694 0
M  V30 1314 C 118.401 2.73808 6.08757 0
M  V30 1315 H 117.671 -0.0911538 0.735372 0
M  V30 1316 H 120.318 0.475027 1.85515 0
M  V30 1317 H 118.623 -1.4107 3.65522 0
M  V30 1318 H 120.32 -1.07858 3.86222 0
M  V30 1319 H 116.91 0.294102 4.2759 0
M  V30 1320 H 121.094 1.09602 4.84047 0
M  V30 1321 H 116.35 2.22045 5.69654 0
M  V30 1322 H 120.524 3.02078 6.27473 0
M  V30 1323 H 118.151 3.58892 6.7015 0
M  V30 1324 N 119.726 -1.57421 0.075193 0
M  V30 1325 C 120.974 -1.93236 -0.591974 0
M  V30 1326 C 121.295 -0.956241 -1.69944 0
M  V30 1327 O 120.565 -0.00494792 -1.95899 0
M  V30 1328 H 119.145 -0.713355 -0.22166 0
M  V30 1329 H 121.807 -1.9444 0.133848 0
M  V30 1330 H 120.903 -2.95131 -1.01509 0
M  V30 1331 N 121.204 0.198386 -1.56346 0
M  V30 1332 C 122.45 0.920648 -1.80698 0
M  V30 1333 C 122.783 1.83045 -0.648697 0
M  V30 1334 O 122.058 1.91308 0.350925 0
M  V30 1335 C 122.341 1.73971 -3.15287 0
M  V30 1336 C 122.194 0.85485 -4.41602 0
M  V30 1337 C 123.513 2.71296 -3.46535 0
M  V30 1338 H 120.632 0.333261 -0.657348 0
M  V30 1339 H 123.274 0.188198 -1.89066 0
M  V30 1340 H 121.424 2.36416 -3.08285 0
M  V30 1341 H 123.096 0.245362 -4.60647 0
M  V30 1342 H 121.339 0.161398 -4.335 0
M  V30 1343 H 122.01 1.46286 -5.32264 0
M  V30 1344 H 124.486 2.18983 -3.53816 0
M  V30 1345 H 123.362 3.2569 -4.41834 0
M  V30 1346 H 123.623 3.5018 -2.69864 0
M  V30 1347 N 122.682 1.50554 0.465978 0
M  V30 1348 C 123.931 1.61038 1.21448 0
M  V30 1349 C 124.244 0.31865 1.92987 0
M  V30 1350 O 125.45 0.302469 2.6981 0
M  V30 1351 C 123.906 2.84283 2.20706 0
M  V30 1352 C 123.514 4.20352 1.54946 0
M  V30 1353 C 125.258 3.04115 2.96166 0
M  V30 1354 C 123.165 5.34778 2.5252 0
M  V30 1355 H 122.095 0.599718 0.457005 0
M  V30 1356 H 124.746 1.7699 0.484424 0
M  V30 1357 H 123.128 2.61901 2.97025 0
M  V30 1358 H 124.302 4.53008 0.843811 0
M  V30 1359 H 122.617 4.06167 0.917475 0
M  V30 1360 H 125.214 3.86774 3.69202 0
M  V30 1361 H 125.557 2.16045 3.55852 0
M  V30 1362 H 126.09 3.26702 2.26959 0
M  V30 1363 H 122.829 6.25018 1.97566 0
M  V30 1364 H 122.349 5.06534 3.21222 0
M  V30 1365 H 124.028 5.65561 3.14245 0
M  V30 1366 N 124.16 -0.719506 1.40217 0
M  V30 1367 C 125.39 -1.50646 1.41384 0
M  V30 1368 C 125.798 -1.89197 0.0107743 0
M  V30 1369 O 125.141 -1.55709 -0.974708 0
M  V30 1370 C 125.203 -2.81405 2.23722 0
M  V30 1371 C 124.867 -2.65199 3.72181 0
M  V30 1372 C 125.864 -2.32717 4.64907 0
M  V30 1373 C 123.549 -2.81586 4.1595 0
M  V30 1374 C 125.543 -2.16827 5.99387 0
M  V30 1375 C 123.23 -2.65313 5.50502 0
M  V30 1376 C 124.228 -2.32981 6.42035 0
M  V30 1377 O 123.916 -2.16827 7.74107 0
M  V30 1378 H 123.648 -0.471606 0.484318 0
M  V30 1379 H 126.202 -0.895456 1.84853 0
M  V30 1380 H 124.432 -3.44823 1.75026 0
M  V30 1381 H 126.121 -3.43102 2.16878 0
M  V30 1382 H 126.887 -2.19694 4.32388 0
M  V30 1383 H 122.766 -3.0574 3.45027 0
M  V30 1384 H 126.31 -1.91513 6.70797 0
M  V30 1385 H 122.207 -2.7792 5.82607 0
M  V30 1386 H 122.975 -2.31778 7.84998 0
M  V30 1387 N 125.638 -1.25649 -0.95132 0
M  V30 1388 C 126.868 -1.13179 -1.72841 0
M  V30 1389 C 127.276 0.316827 -1.86528 0
M  V30 1390 O 126.619 1.22948 -1.3649 0
M  V30 1391 C 126.681 -1.71644 -3.15878 0
M  V30 1392 C 126.345 -3.20667 -3.25609 0
M  V30 1393 C 127.342 -4.17616 -3.09666 0
M  V30 1394 C 125.027 -3.6094 -3.49324 0
M  V30 1395 C 127.021 -5.52817 -3.17289 0
M  V30 1396 C 124.708 -4.96278 -3.56584 0
M  V30 1397 C 125.706 -5.92025 -3.40581 0
M  V30 1398 O 125.394 -7.24899 -3.47528 0
M  V30 1399 H 125.126 -0.395389 -0.54831 0
M  V30 1400 H 127.68 -1.66566 -1.20187 0
M  V30 1401 H 125.91 -1.12707 -3.69911 0
M  V30 1402 H 127.599 -1.54225 -3.75459 0
M  V30 1403 H 128.365 -3.87842 -2.91211 0
M  V30 1404 H 124.244 -2.86907 -3.6084 0
M  V30 1405 H 127.788 -6.2753 -3.04716 0
M  V30 1406 H 123.685 -5.25716 -3.74556 0
M  V30 1407 H 124.453 -7.33039 -3.64138 0
M  V30 1408 N 127.117 1.15442 -1.07289 0
M  V30 1409 C 128.08 2.18358 -0.696591 0
M  V30 1410 C 129.08 1.58637 0.262837 0
M  V30 1411 O 130.27 1.74145 0.0438809 0
M  V30 1412 C 127.402 3.4089 -0.0266151 0
M  V30 1413 H 128.595 2.53162 -1.60776 0
M  V30 1414 H 126.148 1.29893 -0.869342 0
M  V30 1415 H 126.883 3.11653 0.896822 0
M  V30 1416 H 126.668 3.85495 -0.716657 0
M  V30 1417 H 128.158 4.17009 0.222028 0
M  V30 1418 N 128.595 0.856903 1.32268 0
M  V30 1419 C 129.844 0.457599 1.96441 0
M  V30 1420 C 130.157 -0.992426 1.68553 0
M  V30 1421 O 131.363 -1.49727 2.26482 0
M  V30 1422 C 129.819 0.767358 3.51624 0
M  V30 1423 C 129.427 2.23326 3.88367 0
M  V30 1424 C 131.171 0.435887 4.22256 0
M  V30 1425 C 129.078 2.48613 5.36606 0
M  V30 1426 H 128.008 0.167387 0.735185 0
M  V30 1427 H 130.659 1.048 1.5063 0
M  V30 1428 H 129.041 0.106367 3.95857 0
M  V30 1429 H 130.215 2.93623 3.55137 0
M  V30 1430 H 128.53 2.52948 3.30766 0
M  V30 1431 H 131.127 0.602202 5.31298 0
M  V30 1432 H 131.47 -0.622672 4.11617 0
M  V30 1433 H 132.003 1.05286 3.83614 0
M  V30 1434 H 128.742 3.53101 5.52268 0
M  V30 1435 H 128.262 1.82896 5.71235 0
M  V30 1436 H 129.941 2.32676 6.03714 0
M  V30 1437 N 130.073 -1.45103 0.615059 0
M  V30 1438 C 131.036 -2.29025 -0.0895485 0
M  V30 1439 C 132.036 -1.40174 -0.787906 0
M  V30 1440 O 133.226 -1.62217 -0.634933 0
M  V30 1441 C 130.358 -3.21376 -1.13711 0
M  V30 1442 H 131.551 -2.92807 0.648382 0
M  V30 1443 H 129.104 -1.51749 0.374444 0
M  V30 1444 H 129.839 -2.6241 -1.90556 0
M  V30 1445 H 129.624 -3.86834 -0.640475 0
M  V30 1446 H 131.114 -3.84459 -1.63036 0
M  V30 1447 N 131.551 -0.354651 -1.53558 0
M  V30 1448 C 132.798 0.238443 -2.01091 0
M  V30 1449 C 133.126 1.49663 -1.24222 0
M  V30 1450 O 132.381 1.93049 -0.321003 0
M  V30 1451 C 132.68 0.587121 -3.52545 0
M  V30 1452 C 132.346 -0.575472 -4.47213 0
M  V30 1453 C 131.008 -0.894497 -4.72813 0
M  V30 1454 C 133.36 -1.35489 -5.03281 0
M  V30 1455 C 130.688 -1.99511 -5.51736 0
M  V30 1456 C 133.04 -2.44583 -5.83405 0
M  V30 1457 C 131.704 -2.77033 -6.07296 0
M  V30 1458 H 130.974 0.0872526 -0.735845 0
M  V30 1459 H 133.621 -0.484859 -1.8526 0
M  V30 1460 H 131.926 1.39129 -3.66265 0
M  V30 1461 H 133.623 1.05809 -3.86789 0
M  V30 1462 H 130.213 -0.316774 -4.27428 0
M  V30 1463 H 134.397 -1.12167 -4.83459 0
M  V30 1464 H 129.653 -2.25063 -5.68469 0
M  V30 1465 H 133.827 -3.05401 -6.25862 0
M  V30 1466 H 131.454 -3.6244 -6.68237 0
M  V30 1467 N 133.029 1.57378 -0.0835403 0
M  V30 1468 C 134.278 1.93106 0.582498 0
M  V30 1469 C 134.591 0.96651 1.70053 0
M  V30 1470 O 135.797 1.21705 2.42693 0
M  V30 1471 C 134.253 3.43076 1.08751 0
M  V30 1472 C 133.861 4.48 -0.000146404 0
M  V30 1473 C 135.605 3.87785 1.72694 0
M  V30 1474 C 133.512 5.89113 0.519568 0
M  V30 1475 H 132.442 0.720775 0.221358 0
M  V30 1476 H 135.093 1.82821 -0.157675 0
M  V30 1477 H 133.475 3.48474 1.88101 0
M  V30 1478 H 134.649 4.54233 -0.775199 0
M  V30 1479 H 132.964 4.1283 -0.54406 0
M  V30 1480 H 135.561 4.90604 2.1263 0
M  V30 1481 H 135.904 3.25796 2.59158 0
M  V30 1482 H 136.437 3.8504 0.999457 0
M  V30 1483 H 133.176 6.54775 -0.308186 0
M  V30 1484 H 132.696 5.86376 1.26188 0
M  V30 1485 H 134.375 6.39346 0.992237 0
M  V30 1486 N 134.507 -0.190092 1.56449 0
M  V30 1487 C 135.457 -1.23977 1.91347 0
M  V30 1488 C 136.441 -1.40747 0.779693 0
M  V30 1489 O 137.633 -1.43033 1.04262 0
M  V30 1490 C 134.762 -2.58347 2.26079 0
M  V30 1491 C 133.848 -2.4535 3.45925 0
M  V30 1492 N 134.239 -2.02039 4.63696 0
M  V30 1493 C 132.537 -2.76229 3.50162 0
M  V30 1494 C 133.238 -2.01053 5.4585 0
M  V30 1495 N 132.214 -2.42747 4.8639 0
M  V30 1496 H 136.016 -0.896318 2.79899 0
M  V30 1497 H 133.53 -0.398496 1.57435 0
M  V30 1498 H 135.527 -3.34173 2.49267 0
M  V30 1499 H 134.187 -2.93512 1.38856 0
M  V30 1500 H 135.198 -1.7267 4.88268 0
M  V30 1501 H 131.875 -3.15556 2.73369 0
M  V30 1502 H 133.265 -1.69426 6.50188 0
M  V30 1503 N 135.985 -1.50799 -0.457987 0
M  V30 1504 C 137.233 -1.62121 -1.2067 0
M  V30 1505 C 137.554 -0.329793 -1.92191 0
M  V30 1506 O 136.824 0.653409 -1.84682 0
M  V30 1507 H 135.404 -0.597441 -0.448411 0
M  V30 1508 H 138.066 -1.87637 -0.527096 0
M  V30 1509 H 137.162 -2.43882 -1.94751 0
M  V30 1510 N 137.463 0.71206 -1.40597 0
M  V30 1511 C 138.74 1.46536 -1.29563 0
M  V30 1512 C 139.12 2.10931 0.0844217 0
M  V30 1513 O 138.468 2.00418 1.0975 0
M  V30 1514 C 138.678 2.49821 -2.43701 0
M  V30 1515 C 140.026 3.15551 -2.841 0
M  V30 1516 O 141.05 2.60142 -2.4332 0
M  V30 1517 O 139.909 4.15867 -3.54566 0
M  V30 1518 H 137.003 0.651801 -0.509004 0
M  V30 1519 H 139.549 0.743935 -1.52524 0
M  V30 1520 H 138.321 2.00778 -3.35863 0
M  V30 1521 H 137.944 3.29495 -2.22528 0
M  V30 1522 N 138.941 1.26152 0.944643 0
M  V30 1523 C 139.871 1.09902 2.06019 0
M  V30 1524 C 140.852 0.00519538 1.70099 0
M  V30 1525 O 142.037 0.176583 1.93396 0
M  V30 1526 C 139.167 0.727562 3.39594 0
M  V30 1527 C 138.121 1.77274 3.89561 0
M  V30 1528 C 137.447 1.25569 5.19747 0
M  V30 1529 C 138.747 3.17357 4.14827 0
M  V30 1530 H 140.441 2.03217 2.19871 0
M  V30 1531 H 137.987 0.978452 1.05652 0
M  V30 1532 H 139.94 0.600777 4.17095 0
M  V30 1533 H 138.664 -0.241287 3.25707 0
M  V30 1534 H 137.323 1.88814 3.14237 0
M  V30 1535 H 136.971 0.276783 5.02238 0
M  V30 1536 H 136.671 1.95433 5.54148 0
M  V30 1537 H 138.195 1.1415 5.99835 0
M  V30 1538 H 139.609 3.08914 4.82954 0
M  V30 1539 H 138.006 3.84781 4.60504 0
M  V30 1540 H 139.076 3.63673 3.20734 0
M  V30 1541 N 140.419 -1.14872 1.07899 0
M  V30 1542 C 141.329 -2.2341 0.715915 0
M  V30 1543 C 142.345 -1.71808 -0.275306 0
M  V30 1544 O 143.521 -2.01039 -0.120545 0
M  V30 1545 C 140.586 -3.46474 0.125168 0
M  V30 1546 C 139.647 -4.13039 1.17034 0
M  V30 1547 C 138.88 -5.30229 0.607688 0
M  V30 1548 O 139.103 -5.675 -0.574497 0
M  V30 1549 O 138.037 -5.86444 1.35526 0
M  V30 1550 H 141.863 -2.56808 1.62121 0
M  V30 1551 H 139.448 -1.22702 0.852322 0
M  V30 1552 H 141.33 -4.20917 -0.201729 0
M  V30 1553 H 140.005 -3.14811 -0.753364 0
M  V30 1554 H 138.912 -3.40493 1.54968 0
M  V30 1555 H 140.245 -4.48796 2.02097 0
M  V30 1556 N 141.898 -0.863906 -1.31812 0
M  V30 1557 C 143.309 -0.52522 -1.7916 0
M  V30 1558 C 143.66 0.957518 -1.71248 0
M  V30 1559 O 142.785 1.74734 -1.27659 0
M  V30 1560 C 143.38 -0.9466 -3.25307 0
M  V30 1561 C 141.939 -0.659668 -3.70574 0
M  V30 1562 C 141.086 -1.14126 -2.52726 0
M  V30 1563 H 144.037 -1.05022 -1.1898 0
M  V30 1564 H 144.058 -0.266766 -3.79564 0
M  V30 1565 H 143.57 -2.02579 -3.31034 0
M  V30 1566 H 141.671 0.408416 -3.70355 0
M  V30 1567 H 141.784 -1.23245 -4.62977 0
M  V30 1568 H 140.148 -0.561216 -2.4844 0
M  V30 1569 H 140.931 -2.22775 -2.61201 0
M  V30 1570 N 143.376 1.44774 -0.622745 0
M  V30 1571 C 144.624 2.01721 -0.123655 0
M  V30 1572 C 144.945 1.49172 1.25589 0
M  V30 1573 O 144.215 0.691974 1.83272 0
M  V30 1574 H 142.795 0.745777 -0.0427225 0
M  V30 1575 H 145.457 1.77382 -0.807559 0
M  V30 1576 H 144.553 3.11984 -0.0849534 0
M  V30 1577 N 144.854 0.36279 1.53368 0
M  V30 1578 C 145.764 -0.492994 2.29362 0
M  V30 1579 C 146.78 -1.09507 1.35219 0
M  V30 1580 O 147.956 -1.10662 1.68273 0
M  V30 1581 C 145.021 -1.61855 3.066 0
M  V30 1582 C 144.082 -1.04429 4.16405 0
M  V30 1583 C 143.315 -2.11621 4.89951 0
M  V30 1584 O 143.538 -3.32684 4.63333 0
M  V30 1585 O 142.472 -1.74835 5.75948 0
M  V30 1586 H 146.298 0.125331 3.03441 0
M  V30 1587 H 143.883 0.127253 1.48857 0
M  V30 1588 H 145.765 -2.27302 3.54841 0
M  V30 1589 H 144.44 -2.22233 2.3536 0
M  V30 1590 H 143.347 -0.353819 3.72423 0
M  V30 1591 H 144.68 -0.485113 4.89804 0
M  V30 1592 N 146.332 -1.57332 0.0918853 0
M  V30 1593 C 147.743 -1.81496 -0.437739 0
M  V30 1594 C 148.094 -1.00727 -1.6837 0
M  V30 1595 O 147.219 -0.235694 -2.15113 0
M  V30 1596 C 147.814 -3.29197 -0.800939 0
M  V30 1597 C 146.373 -3.54136 -1.27532 0
M  V30 1598 C 145.52 -2.75979 -0.270392 0
M  V30 1599 H 148.471 -1.55494 0.317366 0
M  V30 1600 H 148.492 -3.42344 -1.66074 0
M  V30 1601 H 148.004 -3.87955 0.106078 0
M  V30 1602 H 146.105 -3.00705 -2.20016 0
M  V30 1603 H 146.218 -4.62792 -1.23938 0
M  V30 1604 H 144.582 -2.43349 -0.751872 0
M  V30 1605 H 145.365 -3.37484 0.629248 0
M  V30 1606 N 147.81 0.181792 -1.56548 0
M  V30 1607 C 149.059 0.898348 -1.8059 0
M  V30 1608 C 149.372 1.83862 -0.667379 0
M  V30 1609 O 150.578 2.59678 -0.792446 0
M  V30 1610 C 149.034 1.64791 -3.19956 0
M  V30 1611 C 148.642 0.751789 -4.41647 0
M  V30 1612 C 150.386 2.35331 -3.53298 0
M  V30 1613 C 148.293 1.50098 -5.72035 0
M  V30 1614 H 147.223 0.339194 -0.673397 0
M  V30 1615 H 149.874 0.151413 -1.82874 0
M  V30 1616 H 148.256 2.43921 -3.11959 0
M  V30 1617 H 149.43 -0.0018076 -4.608 0
M  V30 1618 H 147.745 0.156562 -4.16106 0
M  V30 1619 H 150.342 2.91958 -4.47956 0
M  V30 1620 H 150.685 3.10164 -2.77676 0
M  V30 1621 H 151.218 1.63154 -3.62803 0
M  V30 1622 H 147.957 0.795175 -6.50659 0
M  V30 1623 H 147.477 2.22817 -5.56878 0
M  V30 1624 H 149.156 2.05125 -6.13622 0
M  V30 1625 N 149.288 1.51039 0.449983 0
M  V30 1626 C 150.513 1.6715 1.22783 0
M  V30 1627 C 150.938 0.363081 1.84563 0
M  V30 1628 O 150.296 -0.675433 1.68249 0
M  V30 1629 C 150.344 2.77985 2.29689 0
M  V30 1630 O 149.448 2.40707 3.34864 0
M  V30 1631 H 148.789 0.557746 0.360299 0
M  V30 1632 H 151.319 1.97535 0.533005 0
M  V30 1633 H 151.329 3.01693 2.74673 0
M  V30 1634 H 150.004 3.72935 1.84098 0
M  V30 1635 H 148.581 2.27523 2.95445 0
M  V30 1636 N 150.766 -0.704594 1.40972 0
M  V30 1637 C 151.714 -1.83994 1.42299 0
M  V30 1638 C 152.708 -1.66684 0.302111 0
M  V30 1639 O 153.914 -1.73655 0.473697 0
M  V30 1640 H 150.289 -0.606171 0.44504 0
M  V30 1641 H 152.26 -1.79992 2.38003 0
M  V30 1642 C 151.009 -3.21946 1.31323 0
M  V30 1643 H 150.332 -3.35878 2.16855 0
M  V30 1644 H 151.772 -4.01491 1.36311 0
M  V30 1645 C 150.231 -3.36891 0.0245977 0
M  V30 1646 O 150.761 -3.90687 -0.934153 0
M  V30 1647 N 148.967 -2.90559 -0.0485243 0
M  V30 1648 H 148.514 -2.46968 0.732419 0
M  V30 1649 H 148.472 -3.00937 -0.910171 0
M  V30 1650 N 152.244 -1.26651 -0.937939 0
M  V30 1651 C 153.194 -1.05156 -2.02302 0
M  V30 1652 C 154.178 0.0171233 -1.60891 0
M  V30 1653 O 155.37 -0.200213 -1.75864 0
M  V30 1654 C 152.499 -0.689962 -3.36295 0
M  V30 1655 C 151.585 -1.79626 -3.84181 0
M  V30 1656 N 151.976 -3.03422 -4.04684 0
M  V30 1657 C 150.274 -1.6806 -4.13124 0
M  V30 1658 C 150.975 -3.75345 -4.444 0
M  V30 1659 N 149.951 -3.03051 -4.51288 0
M  V30 1660 H 153.753 -1.99117 -2.1617 0
M  V30 1661 H 151.267 -1.17216 -1.12402 0
M  V30 1662 H 153.264 -0.517112 -4.13681 0
M  V30 1663 H 151.924 0.242139 -3.23796 0
M  V30 1664 H 152.935 -3.39293 -3.91281 0
M  V30 1665 H 149.612 -0.818629 -4.09396 0
M  V30 1666 H 151.002 -4.81691 -4.68427 0
M  V30 1667 N 153.722 1.14298 -1.08507 0
M  V30 1668 C 154.95 1.89219 -0.836876 0
M  V30 1669 C 155.365 1.78638 0.611054 0
M  V30 1670 O 154.722 1.14643 1.41998 0
M  V30 1671 C 154.773 3.39158 -1.25116 0
M  V30 1672 O 154.494 3.49449 -2.64229 0
M  V30 1673 C 155.995 4.31073 -1.03398 0
M  V30 1674 H 153.215 0.599328 -0.301739 0
M  V30 1675 H 155.759 1.44746 -1.44461 0
M  V30 1676 H 153.914 3.81251 -0.687514 0
M  V30 1677 H 154.328 4.42589 -2.81452 0
M  V30 1678 H 155.802 5.34646 -1.37323 0
M  V30 1679 H 156.279 4.3919 0.0289259 0
M  V30 1680 H 156.885 3.94738 -1.58311 0
M  V30 1681 N 155.201 0.870884 1.31352 0
M  V30 1682 C 156.612 0.534714 1.78879 0
M  V30 1683 C 156.963 -0.948423 1.71754 0
M  V30 1684 O 156.088 -1.74055 1.28584 0
M  V30 1685 C 156.683 0.963839 3.24801 0
M  V30 1686 C 155.242 0.679311 3.70219 0
M  V30 1687 C 154.389 1.15465 2.52117 0
M  V30 1688 H 157.34 1.05651 1.18421 0
M  V30 1689 H 157.361 0.286892 3.79417 0
M  V30 1690 H 156.873 2.04332 3.29955 0
M  V30 1691 H 154.974 -0.388769 3.70566 0
M  V30 1692 H 155.087 1.25698 4.62317 0
M  V30 1693 H 153.451 0.574383 2.48139 0
M  V30 1694 H 154.234 2.24157 2.60016 0
M  V30 1695 N 156.679 -1.44442 0.630414 0
M  V30 1696 C 157.919 -2.03934 0.137919 0
M  V30 1697 C 158.283 -1.48509 -1.21692 0
M  V30 1698 O 159.484 -1.99499 -1.80149 0
M  V30 1699 C 157.755 -3.57187 0.123373 0
M  V30 1700 S 159.314 -4.37741 -0.304604 0
M  V30 1701 H 156.132 -0.708401 0.0607353 0
M  V30 1702 H 158.734 -1.76835 0.833643 0
M  V30 1703 H 157.438 -3.95032 1.11256 0
M  V30 1704 H 156.969 -3.88895 -0.59362 0
M  V30 1705 H 158.984 -4.71403 -1.54897 0
M  V30 1706 N 158.157 -0.370918 -1.53173 0
M  V30 1707 C 159.406 0.218249 -2.00516 0
M  V30 1708 C 159.719 1.49429 -1.26215 0
M  V30 1709 O 160.925 2.16239 -1.64174 0
M  V30 1710 C 159.381 0.43948 -3.57207 0
M  V30 1711 C 158.989 -0.822244 -4.4039 0
M  V30 1712 C 160.733 0.986012 -4.1289 0
M  V30 1713 C 158.64 -0.570304 -5.88644 0
M  V30 1714 H 157.57 0.0853333 -0.749156 0
M  V30 1715 H 160.221 -0.490483 -1.76823 0
M  V30 1716 H 158.603 1.20961 -3.77074 0
M  V30 1717 H 159.777 -1.59557 -4.32294 0
M  V30 1718 H 158.092 -1.29238 -3.95836 0
M  V30 1719 H 160.689 1.18991 -5.21292 0
M  V30 1720 H 161.032 1.94972 -3.6782 0
M  V30 1721 H 161.565 0.27592 -3.96842 0
M  V30 1722 H 158.304 -1.50449 -6.38001 0
M  V30 1723 H 157.824 0.164427 -5.99575 0
M  V30 1724 H 159.503 -0.19784 -6.46697 0
M  V30 1725 N 159.635 1.57281 -0.100228 0
M  V30 1726 C 160.568 2.09976 0.893612 0
M  V30 1727 C 161.546 1.01155 1.27304 0
M  V30 1728 O 162.73 1.28687 1.37739 0
M  V30 1729 C 159.857 2.58098 2.19324 0
M  V30 1730 C 158.903 3.78626 1.96328 0
M  V30 1731 S 159.736 5.21959 1.19662 0
M  V30 1732 C 160.892 5.73435 2.50844 0
M  V30 1733 H 161.125 2.93946 0.44534 0
M  V30 1734 H 158.658 1.53985 0.113167 0
M  V30 1735 H 160.616 2.8648 2.94005 0
M  V30 1736 H 159.277 1.74344 2.61272 0
M  V30 1737 H 158.47 4.10382 2.92579 0
M  V30 1738 H 158.072 3.50763 1.29775 0
M  V30 1739 H 160.364 5.82015 3.46792 0
M  V30 1740 H 161.307 6.7185 2.23659 0
M  V30 1741 H 161.715 5.01395 2.59352 0
M  V30 1742 N 161.113 -0.173488 1.56642 0
M  V30 1743 C 162.06 -1.21482 1.96242 0
M  V30 1744 C 163.03 -1.44104 0.826027 0
M  V30 1745 O 164.215 -1.5688 1.08597 0
M  V30 1746 C 161.355 -2.54964 2.32567 0
M  V30 1747 C 160.468 -2.39739 3.59373 0
M  V30 1748 C 159.603 -3.66072 3.84921 0
M  V30 1749 C 158.642 -3.45771 5.05083 0
M  V30 1750 N 157.779 -4.64169 5.26775 0
M  V30 1751 H 162.619 -0.870123 2.85014 0
M  V30 1752 H 160.156 -0.418245 1.41029 0
M  V30 1753 H 162.114 -3.32758 2.5165 0
M  V30 1754 H 160.744 -2.87433 1.46908 0
M  V30 1755 H 159.796 -1.53131 3.48217 0
M  V30 1756 H 161.108 -2.20683 4.47326 0
M  V30 1757 H 160.262 -4.52303 4.0436 0
M  V30 1758 H 159.001 -3.88105 2.9534 0
M  V30 1759 H 158.006 -2.57927 4.85545 0
M  V30 1760 H 159.231 -3.25163 5.96193 0
M  V30 1761 H 157.177 -4.86425 4.40144 0
M  V30 1762 H 157.094 -4.48019 6.08946 0
M  V30 1763 H 158.362 -5.51689 5.5069 0
M  V30 1764 N 162.591 -1.51276 -0.441967 0
M  V30 1765 C 163.837 -1.63958 -1.19355 0
M  V30 1766 C 164.17 -0.352543 -1.90973 0
M  V30 1767 O 163.445 0.647627 -1.83401 0
M  V30 1768 C 163.728 -2.83979 -2.21422 0
M  V30 1769 C 163.581 -4.22646 -1.53918 0
M  V30 1770 C 164.9 -2.99521 -3.22451 0
M  V30 1771 H 162.019 -0.596709 -0.432559 0
M  V30 1772 H 164.661 -1.83748 -0.483398 0
M  V30 1773 H 162.811 -2.67237 -2.81987 0
M  V30 1774 H 164.483 -4.51045 -0.967256 0
M  V30 1775 H 162.726 -4.25558 -0.841615 0
M  V30 1776 H 163.397 -5.02609 -2.28229 0
M  V30 1777 H 165.873 -3.14944 -2.71937 0
M  V30 1778 H 164.749 -3.85072 -3.91166 0
M  V30 1779 H 165.01 -2.11391 -3.88287 0
M  V30 1780 N 164.069 0.697108 -1.41344 0
M  V30 1781 C 165.346 1.45154 -1.31109 0
M  V30 1782 C 165.726 2.11009 0.0620449 0
M  V30 1783 O 165.074 2.01571 1.07618 0
M  V30 1784 C 165.284 2.47223 -2.46337 0
M  V30 1785 C 166.632 3.1252 -2.87431 0
M  V30 1786 O 167.656 2.57547 -2.46065 0
M  V30 1787 O 166.515 4.12083 -3.58957 0
M  V30 1788 H 163.609 0.646365 -0.515889 0
M  V30 1789 H 166.155 0.727716 -1.53305 0
M  V30 1790 H 164.927 1.97204 -3.37974 0
M  V30 1791 H 164.55 3.27116 -2.2601 0
M  V30 1792 N 165.547 1.27147 0.931209 0
M  V30 1793 C 166.772 1.16191 1.71797 0
M  V30 1794 C 167.197 -0.278004 1.86034 0
M  V30 1795 O 166.555 -1.20137 1.35782 0
M  V30 1796 C 166.603 1.84673 3.09723 0
M  V30 1797 O 165.707 1.14231 3.96264 0
M  V30 1798 H 165.048 0.404303 0.526721 0
M  V30 1799 H 167.578 1.68152 1.1656 0
M  V30 1800 H 167.588 1.91893 3.60057 0
M  V30 1801 H 166.263 2.89421 2.98677 0
M  V30 1802 H 164.84 1.15056 3.54706 0
M  V30 1803 N 167.025 -1.13721 1.09112 0
M  V30 1804 C 167.955 -2.21148 0.749385 0
M  V30 1805 C 168.936 -1.6792 -0.271475 0
M  V30 1806 O 170.121 -1.93693 -0.140251 0
M  V30 1807 C 167.251 -3.46905 0.165659 0
M  V30 1808 C 166.205 -4.13203 1.11567 0
M  V30 1809 C 165.531 -5.33248 0.393809 0
M  V30 1810 C 166.831 -4.60912 2.45678 0
M  V30 1811 H 168.525 -2.4999 1.64758 0
M  V30 1812 H 166.071 -1.20156 0.793626 0
M  V30 1813 H 168.024 -4.21313 -0.085466 0
M  V30 1814 H 166.748 -3.17449 -0.767714 0
M  V30 1815 H 165.407 -3.40758 1.35202 0
M  V30 1816 H 165.055 -5.00054 -0.543599 0
M  V30 1817 H 164.755 -5.78552 1.02721 0
M  V30 1818 H 166.279 -6.10413 0.150908 0
M  V30 1819 H 167.693 -5.26759 2.26269 0
M  V30 1820 H 166.09 -5.16944 3.04776 0
M  V30 1821 H 167.16 -3.75603 3.06677 0
M  V30 1822 N 168.503 -0.877838 -1.30888 0
M  V30 1823 C 169.731 -0.507414 -2.00581 0
M  V30 1824 C 170.146 0.902216 -1.65848 0
M  V30 1825 O 169.503 1.59225 -0.891831 0
M  V30 1826 C 169.554 -0.664162 -3.55347 0
M  V30 1827 O 169.275 -2.01829 -3.8884 0
M  V30 1828 C 170.776 -0.295787 -4.42312 0
M  V30 1829 H 167.996 -0.196866 -0.641471 0
M  V30 1830 H 170.54 -1.18117 -1.66939 0
M  V30 1831 H 168.695 -0.0378619 -3.87381 0
M  V30 1832 H 169.109 -2.03174 -4.8355 0
M  V30 1833 H 170.583 -0.456388 -5.5011 0
M  V30 1834 H 171.06 0.765663 -4.32475 0
M  V30 1835 H 171.666 -0.898113 -4.15709 0
M  V30 1836 N 169.982 1.44106 -0.638065 0
M  V30 1837 C 171.23 2.01579 -0.145043 0
M  V30 1838 C 171.551 1.50496 1.24 0
M  V30 1839 O 170.821 0.711374 1.82527 0
M  V30 1840 H 169.401 0.745282 -0.05063 0
M  V30 1841 H 172.063 1.76516 -0.826327 0
M  V30 1842 H 171.159 3.11877 -0.118039 0
M  V30 1843 N 171.46 0.379036 1.52974 0
M  V30 1844 C 172.423 -0.448865 2.24762 0
M  V30 1845 C 173.423 -0.998689 1.26027 0
M  V30 1846 O 174.613 -0.882313 1.50203 0
M  V30 1847 C 171.745 -1.62872 2.99476 0
M  V30 1848 H 172.938 0.179491 2.99362 0
M  V30 1849 H 170.491 0.13096 1.5575 0
M  V30 1850 H 171.226 -2.29479 2.29151 0
M  V30 1851 H 171.011 -1.24128 3.71934 0
M  V30 1852 H 172.501 -2.2151 3.5401 0
M  V30 1853 N 172.938 -1.57226 0.108567 0
M  V30 1854 C 174.185 -1.94833 -0.551943 0
M  V30 1855 C 174.513 -0.991204 -1.67348 0
M  V30 1856 O 173.768 -0.0131878 -1.95696 0
M  V30 1857 C 174.067 -3.38911 -1.13463 0
M  V30 1858 C 173.733 -4.50696 -0.135509 0
M  V30 1859 C 172.395 -4.80998 0.139252 0
M  V30 1860 C 174.747 -5.18333 0.545957 0
M  V30 1861 C 172.075 -5.76259 1.10194 0
M  V30 1862 C 174.427 -6.14627 1.49721 0
M  V30 1863 C 173.091 -6.43327 1.78006 0
M  V30 1864 H 172.361 -0.712944 -0.20197 0
M  V30 1865 H 175.008 -1.90582 0.18726 0
M  V30 1866 H 173.313 -3.39805 -1.95037 0
M  V30 1867 H 175.01 -3.65317 -1.65362 0
M  V30 1868 H 171.6 -4.27087 -0.359846 0
M  V30 1869 H 175.784 -4.95087 0.346842 0
M  V30 1870 H 171.04 -5.96804 1.32795 0
M  V30 1871 H 175.214 -6.66126 2.03099 0
M  V30 1872 H 172.841 -7.1695 2.52759 0
M  V30 1873 N 174.416 0.165178 -1.56732 0
M  V30 1874 C 175.346 1.20651 -1.99914 0
M  V30 1875 C 176.327 1.45827 -0.875705 0
M  V30 1876 O 177.512 1.57057 -1.14223 0
M  V30 1877 C 174.642 2.54401 -2.36427 0
M  V30 1878 C 173.596 2.43782 -3.51787 0
M  V30 1879 C 172.922 3.82078 -3.7406 0
M  V30 1880 C 174.222 1.93732 -4.85041 0
M  V30 1881 H 175.916 0.847534 -2.87154 0
M  V30 1882 H 173.462 0.40625 -1.38151 0
M  V30 1883 H 175.415 3.27458 -2.65234 0
M  V30 1884 H 174.139 2.92098 -1.46103 0
M  V30 1885 H 172.798 1.73178 -3.23117 0
M  V30 1886 H 172.446 4.17179 -2.81017 0
M  V30 1887 H 172.146 3.7584 -4.51684 0
M  V30 1888 H 173.67 4.56712 -4.05274 0
M  V30 1889 H 175.084 2.56569 -5.12684 0
M  V30 1890 H 173.481 1.98428 -5.66345 0
M  V30 1891 H 174.551 0.891962 -4.76626 0
M  V30 1892 N 175.894 1.51508 0.433938 0
M  V30 1893 C 177.141 1.64345 1.18309 0
M  V30 1894 C 177.469 0.361315 1.91115 0
M  V30 1895 O 176.724 -0.654753 1.84422 0
M  V30 1896 C 177.023 2.79928 2.22205 0
M  V30 1897 C 176.689 4.19078 1.66387 0
M  V30 1898 C 175.351 4.56932 1.50887 0
M  V30 1899 C 177.703 5.05894 1.25381 0
M  V30 1900 C 175.031 5.79305 0.928608 0
M  V30 1901 C 177.383 6.2885 0.687823 0
M  V30 1902 C 176.047 6.65473 0.519755 0
M  V30 1903 H 175.317 0.601381 0.432923 0
M  V30 1904 H 177.964 1.85549 0.473676 0
M  V30 1905 H 176.269 2.52959 2.99197 0
M  V30 1906 H 177.966 2.87059 2.79997 0
M  V30 1907 H 174.556 3.89234 1.79428 0
M  V30 1908 H 178.74 4.77253 1.36175 0
M  V30 1909 H 173.996 6.06324 0.786186 0
M  V30 1910 H 178.17 6.95461 0.361581 0
M  V30 1911 H 175.797 7.6017 0.0679979 0
M  V30 1912 N 177.372 -0.689602 1.41712 0
M  V30 1913 C 178.597 -1.48329 1.44959 0
M  V30 1914 C 179.022 -1.8801 0.0581283 0
M  V30 1915 O 178.38 -1.55026 -0.940035 0
M  V30 1916 C 178.428 -2.71835 2.36935 0
M  V30 1917 O 177.532 -3.69549 1.8305 0
M  V30 1918 H 176.873 -0.446199 0.491734 0
M  V30 1919 H 179.403 -0.847127 1.86239 0
M  V30 1920 H 179.413 -3.20076 2.53013 0
M  V30 1921 H 178.088 -2.42291 3.38035 0
M  V30 1922 H 176.665 -3.2851 1.76452 0
M  V30 1923 N 178.85 -1.27639 -0.924453 0
M  V30 1924 C 179.78 -1.13166 -2.04244 0
M  V30 1925 C 180.761 -0.032256 -1.70069 0
M  V30 1926 O 181.946 -0.207328 -1.9309 0
M  V30 1927 C 179.076 -0.781496 -3.38393 0
M  V30 1928 C 178.03 -1.83449 -3.86692 0
M  V30 1929 C 177.356 -1.33822 -5.17683 0
M  V30 1930 C 178.656 -3.23917 -4.09726 0
M  V30 1931 H 180.35 -2.06689 -2.1661 0
M  V30 1932 H 177.896 -0.995136 -1.04082 0
M  V30 1933 H 179.849 -0.667057 -4.16087 0
M  V30 1934 H 178.573 0.189439 -3.2605 0
M  V30 1935 H 177.232 -1.93789 -3.11193 0
M  V30 1936 H 176.88 -0.35665 -5.01734 0
M  V30 1937 H 176.58 -2.04224 -5.50968 0
M  V30 1938 H 178.104 -1.23679 -5.97943 0
M  V30 1939 H 179.518 -3.16559 -4.77978 0
M  V30 1940 H 177.915 -3.92059 -4.54324 0
M  V30 1941 H 178.985 -3.68729 -3.14908 0
M  V30 1942 N 180.328 1.1314 -1.09713 0
M  V30 1943 C 181.238 2.22242 -0.751367 0
M  V30 1944 C 182.254 1.72224 0.247938 0
M  V30 1945 O 183.43 2.01205 0.0885463 0
M  V30 1946 C 180.495 3.46231 -0.180274 0
M  V30 1947 C 179.556 4.11125 -1.2359 0
M  V30 1948 C 178.789 5.29195 -0.691966 0
M  V30 1949 O 179.012 5.68342 0.48414 0
M  V30 1950 O 177.946 5.84214 -1.44838 0
M  V30 1951 H 181.772 2.54197 -1.66186 0
M  V30 1952 H 179.357 1.21331 -0.871735 0
M  V30 1953 H 181.239 4.21185 0.134739 0
M  V30 1954 H 179.914 3.1597 0.703185 0
M  V30 1955 H 178.821 3.37985 -1.60366 0
M  V30 1956 H 180.154 4.45524 -2.09211 0
M  V30 1957 N 181.806 0.884767 1.30421 0
M  V30 1958 C 183.031 0.517288 2.00845 0
M  V30 1959 C 183.456 -0.886779 1.65885 0
M  V30 1960 O 182.814 -1.58768 0.875354 0
M  V30 1961 C 182.862 0.698994 3.5376 0
M  V30 1962 O 181.966 -0.255208 4.1161 0
M  V30 1963 H 181.307 0.203872 0.631927 0
M  V30 1964 H 183.837 1.19225 1.66272 0
M  V30 1965 H 183.847 0.597912 4.03595 0
M  V30 1966 H 182.522 1.72271 3.78544 0
M  V30 1967 H 181.099 -0.10784 3.72744 0
M  V30 1968 N 183.284 -1.43765 0.645699 0
M  V30 1969 C 184.216 -2.29027 -0.0890605 0
M  V30 1970 C 185.229 -1.42093 -0.794563 0
M  V30 1971 O 186.418 -1.66104 -0.653575 0
M  V30 1972 C 183.518 -3.18831 -1.14891 0
M  V30 1973 C 182.691 -4.34261 -0.523043 0
M  V30 1974 C 181.75 -5.04994 -1.47878 0
M  V30 1975 O 180.776 -5.6052 -0.990277 0
M  V30 1976 N 181.978 -5.07795 -2.81291 0
M  V30 1977 H 184.743 -2.92727 0.64272 0
M  V30 1978 H 182.304 -1.54373 0.487924 0
M  V30 1979 H 184.296 -3.63015 -1.78892 0
M  V30 1980 H 182.866 -2.56782 -1.78275 0
M  V30 1981 H 182.086 -3.93088 0.295896 0
M  V30 1982 H 183.374 -5.08728 -0.0858147 0
M  V30 1983 H 182.772 -4.64042 -3.23546 0
M  V30 1984 H 181.329 -5.55721 -3.40614 0
M  V30 1985 N 184.763 -0.387143 -1.52771 0
M  V30 1986 C 185.991 0.195869 -2.05971 0
M  V30 1987 C 186.406 1.40691 -1.25903 0
M  V30 1988 O 185.763 1.79931 -0.305134 0
M  V30 1989 C 185.814 0.56812 -3.57008 0
M  V30 1990 O 185.535 -0.594803 -4.34043 0
M  V30 1991 C 187.036 1.20723 -4.26545 0
M  V30 1992 H 184.256 0.0300578 -0.670326 0
M  V30 1993 H 186.8 -0.551749 -1.96916 0
M  V30 1994 H 184.955 1.26564 -3.66143 0
M  V30 1995 H 185.369 -0.289322 -5.23701 0
M  V30 1996 H 186.843 1.41807 -5.33474 0
M  V30 1997 H 187.32 2.17395 -3.81623 0
M  V30 1998 H 187.926 0.550535 -4.21722 0
M  V30 1999 N 186.241 1.57166 -0.116904 0
M  V30 2000 C 187.469 1.99473 0.549383 0
M  V30 2001 C 187.884 0.996541 1.60357 0
M  V30 2002 O 187.241 -0.0108731 1.82497 0
M  V30 2003 C 187.292 3.41788 1.17741 0
M  V30 2004 O 187.013 4.37788 0.165362 0
M  V30 2005 C 188.514 3.99216 1.92722 0
M  V30 2006 H 185.734 0.655009 0.145616 0
M  V30 2007 H 188.278 2.03494 -0.202625 0
M  V30 2008 H 186.433 3.38713 1.88021 0
M  V30 2009 H 186.847 5.20806 0.621403 0
M  V30 2010 H 188.321 5.00882 2.31995 0
M  V30 2011 H 188.798 3.3824 2.80161 0
M  V30 2012 H 189.404 4.0583 1.27209 0
M  V30 2013 N 187.719 -0.156864 1.56817 0
M  V30 2014 C 188.968 -0.869504 1.81996 0
M  V30 2015 C 189.281 -1.82777 0.696545 0
M  V30 2016 O 190.487 -2.58384 0.833658 0
M  V30 2017 C 188.943 -1.59679 3.22538 0
M  V30 2018 C 188.551 -0.681431 4.42787 0
M  V30 2019 C 190.295 -2.2968 3.56997 0
M  V30 2020 C 188.202 -1.40978 5.74351 0
M  V30 2021 H 187.132 -0.328438 0.678708 0
M  V30 2022 H 189.783 -0.1223 1.83092 0
M  V30 2023 H 188.165 -2.38927 3.158 0
M  V30 2024 H 189.339 0.0751166 4.60739 0
M  V30 2025 H 187.654 -0.0903431 4.16302 0
M  V30 2026 H 190.251 -2.84794 4.52544 0
M  V30 2027 H 190.594 -3.05707 2.82576 0
M  V30 2028 H 191.127 -1.57361 3.65352 0
M  V30 2029 H 187.866 -0.691561 6.51842 0
M  V30 2030 H 187.386 -2.13929 5.60352 0
M  V30 2031 H 189.065 -1.95337 6.16808 0
M  V30 2032 N 189.197 -1.51736 -0.425897 0
M  V30 2033 C 190.445 -1.64644 -1.17204 0
M  V30 2034 C 190.766 -0.370486 -1.91448 0
M  V30 2035 O 190.036 0.614088 -1.86026 0
M  V30 2036 H 188.616 -0.606819 -0.435638 0
M  V30 2037 H 191.278 -1.88713 -0.487177 0
M  V30 2038 H 190.374 -2.47958 -1.89534 0
M  V30 2039 N 190.675 0.682077 -1.42076 0
M  V30 2040 C 191.905 1.46844 -1.45329 0
M  V30 2041 C 192.313 1.89102 -0.0609328 0
M  V30 2042 O 191.656 1.58238 0.933082 0
M  V30 2043 C 191.718 2.75375 -2.31104 0
M  V30 2044 C 191.382 2.55238 -3.79081 0
M  V30 2045 C 192.379 2.20309 -4.70914 0
M  V30 2046 C 190.064 2.70459 -4.2327 0
M  V30 2047 C 192.058 2.00859 -6.04925 0
M  V30 2048 C 189.745 2.50624 -5.57343 0
M  V30 2049 C 190.743 2.15876 -6.47986 0
M  V30 2050 O 190.431 1.96227 -7.79583 0
M  V30 2051 H 190.163 0.4586 -0.496651 0
M  V30 2052 H 192.717 0.846131 -1.87162 0
M  V30 2053 H 190.947 3.40061 -1.84107 0
M  V30 2054 H 192.636 3.37231 -2.25898 0
M  V30 2055 H 193.402 2.08153 -4.38061 0
M  V30 2056 H 189.281 2.96485 -3.53012 0
M  V30 2057 H 192.825 1.7366 -6.75639 0
M  V30 2058 H 188.722 2.62375 -5.89771 0
M  V30 2059 H 189.49 2.10883 -7.90867 0
M  V30 2060 N 192.153 1.28127 0.917671 0
M  V30 2061 C 193.401 1.14825 1.66312 0
M  V30 2062 C 193.722 -0.304379 1.9261 0
M  V30 2063 O 192.992 -1.21149 1.53947 0
M  V30 2064 H 191.572 0.421953 0.616413 0
M  V30 2065 H 194.234 1.608 1.10134 0
M  V30 2066 H 193.33 1.68489 2.62712 0
M  V30 2067 N 193.631 -1.12557 1.10312 0
M  V30 2068 C 194.877 -1.84311 0.846011 0
M  V30 2069 C 195.21 -1.83805 -0.626859 0
M  V30 2070 O 194.485 -1.28268 -1.46211 0
M  V30 2071 C 194.768 -3.32048 1.39341 0
M  V30 2072 C 194.621 -3.41016 2.93305 0
M  V30 2073 C 195.94 -4.27764 1.03468 0
M  V30 2074 H 193.059 -0.669192 0.30879 0
M  V30 2075 H 195.701 -1.32057 1.36605 0
M  V30 2076 H 193.851 -3.76678 0.951087 0
M  V30 2077 H 195.523 -3.05031 3.46055 0
M  V30 2078 H 193.766 -2.81603 3.29973 0
M  V30 2079 H 194.437 -4.44948 3.26689 0
M  V30 2080 H 196.913 -3.91253 1.41633 0
M  V30 2081 H 195.789 -5.29549 1.44463 0
M  V30 2082 H 196.05 -4.42064 -0.0560404 0
M  V30 2083 N 195.109 -0.891671 -1.2995 0
M  V30 2084 C 196.525 -0.58662 -1.48428 0
M  V30 2085 C 196.725 0.873951 -1.81561 0
M  V30 2086 O 195.781 1.65471 -1.90724 0
M  V30 2087 C 197.094 -1.50553 -2.60296 0
M  V30 2088 C 198.642 -1.50988 -2.74175 0
M  V30 2089 C 199.117 -2.41488 -3.89163 0
M  V30 2090 N 200.608 -2.39489 -3.96483 0
M  V30 2091 C 201.343 -3.06223 -4.84784 0
M  V30 2092 N 200.839 -3.82206 -5.77833 0
M  V30 2093 N 202.632 -2.95421 -4.78208 0
M  V30 2094 H 194.783 -1.83644 -1.06718 0
M  V30 2095 H 197.046 -0.786455 -0.529332 0
M  V30 2096 H 196.752 -2.54581 -2.42654 0
M  V30 2097 H 196.626 -1.22008 -3.56923 0
M  V30 2098 H 199.013 -0.47708 -2.91218 0
M  V30 2099 H 199.094 -1.83567 -1.78148 0
M  V30 2100 H 198.738 -3.44857 -3.72876 0
M  V30 2101 H 198.668 -2.06222 -4.84541 0
M  V30 2102 H 201.159 -1.84278 -3.29924 0
M  V30 2103 H 201.472 -4.302 -6.41988 0
M  V30 2104 H 199.817 -3.86313 -5.77743 0
M  V30 2105 H 203.008 -2.35581 -4.04499 0
M  V30 2106 H 203.181 -3.47704 -5.46814 0
M  V30 2107 N 196.587 1.43421 -0.653314 0
M  V30 2108 C 197.812 2.06678 -0.172846 0
M  V30 2109 C 198.237 1.48648 1.15262 0
M  V30 2110 O 197.595 0.596457 1.71208 0
M  V30 2111 C 197.643 3.60474 -0.0953184 0
M  V30 2112 O 196.747 4.01487 0.942442 0
M  V30 2113 H 196.088 0.657181 -0.0949155 0
M  V30 2114 H 198.618 1.83925 -0.896265 0
M  V30 2115 H 198.628 4.07905 0.0879728 0
M  V30 2116 H 197.303 4.02088 -1.06291 0
M  V30 2117 H 195.88 3.65646 0.731932 0
M  V30 2118 N 198.065 0.39524 1.52563 0
M  V30 2119 C 199.314 -0.186321 2.00838 0
M  V30 2120 C 199.627 -1.47402 1.28577 0
M  V30 2121 O 200.833 -2.13599 1.67593 0
M  V30 2122 C 199.289 -0.382595 3.57861 0
M  V30 2123 C 198.897 0.892202 4.39026 0
M  V30 2124 C 200.641 -0.9202 4.14406 0
M  V30 2125 C 198.548 0.66388 5.87662 0
M  V30 2126 H 197.478 -0.0734041 0.750418 0
M  V30 2127 H 200.129 0.518552 1.76021 0
M  V30 2128 H 198.511 -1.14946 3.7895 0
M  V30 2129 H 199.685 1.66414 4.29701 0
M  V30 2130 H 198 1.35519 3.9373 0
M  V30 2131 H 200.597 -1.10683 5.23119 0
M  V30 2132 H 200.94 -1.89096 3.70875 0
M  V30 2133 H 201.473 -0.212751 3.97231 0
M  V30 2134 H 198.212 1.6058 6.35527 0
M  V30 2135 H 197.732 -0.0690193 5.9976 0
M  V30 2136 H 199.411 0.300699 6.46301 0
M  V30 2137 N 199.544 -1.57102 0.125237 0
M  V30 2138 C 200.772 -1.99761 -0.538797 0
M  V30 2139 C 201.187 -1.00503 -1.59827 0
M  V30 2140 O 200.544 0.00119474 -1.825 0
M  V30 2141 C 200.595 -3.42408 -1.15927 0
M  V30 2142 O 200.316 -4.37869 -0.142143 0
M  V30 2143 C 201.817 -4.00232 -1.90602 0
M  V30 2144 H 199.037 -0.655772 -0.14214 0
M  V30 2145 H 201.581 -2.03383 0.213413 0
M  V30 2146 H 199.736 -3.39706 -1.86223 0
M  V30 2147 H 200.15 -5.21128 -0.593775 0
M  V30 2148 H 201.624 -5.02105 -2.29335 0
M  V30 2149 H 202.101 -3.39721 -2.78363 0
M  V30 2150 H 202.707 -4.06499 -1.25055 0
M  V30 2151 N 201.022 0.148545 -1.56898 0
M  V30 2152 C 201.932 1.20293 -2.01412 0
M  V30 2153 C 202.948 1.47107 -0.929273 0
M  V30 2154 O 204.124 1.58807 -1.23863 0
M  V30 2155 C 201.189 2.51682 -2.38447 0
M  V30 2156 C 200.25 2.32529 -3.60872 0
M  V30 2157 C 199.483 3.57653 -3.96132 0
M  V30 2158 O 199.706 4.63771 -3.32073 0
M  V30 2159 O 198.64 3.50408 -4.89385 0
M  V30 2160 H 202.466 0.855025 -2.91416 0
M  V30 2161 H 200.051 0.357151 -1.45068 0
M  V30 2162 H 201.933 3.29147 -2.63135 0
M  V30 2163 H 200.608 2.86006 -1.51599 0
M  V30 2164 H 199.515 1.53019 -3.41373 0
M  V30 2165 H 200.848 2.03121 -4.48333 0
M  V30 2166 N 202.5 1.5196 0.417844 0
M  V30 2167 C 203.41 1.77554 1.53336 0
M  V30 2168 C 204.426 0.660655 1.6097 0
M  V30 2169 O 205.602 0.945099 1.77848 0
M  V30 2170 C 202.667 1.91291 2.89152 0
M  V30 2171 C 201.728 3.15183 2.91475 0
M  V30 2172 C 200.961 3.28256 4.20813 0
M  V30 2173 O 201.184 2.46798 5.14244 0
M  V30 2174 O 200.118 4.21356 4.29817 0
M  V30 2175 H 203.944 2.7222 1.34647 0
M  V30 2176 H 201.529 1.36698 0.602828 0
M  V30 2177 H 203.411 2.02199 3.69721 0
M  V30 2178 H 202.086 0.998129 3.07927 0
M  V30 2179 H 200.993 3.09739 2.09791 0
M  V30 2180 H 202.326 4.06414 2.77648 0
M  V30 2181 N 203.978 -0.674533 1.42435 0
M  V30 2182 C 205.218 -1.4466 1.44405 0
M  V30 2183 C 205.582 -1.91911 0.0585784 0
M  V30 2184 O 206.783 -2.68759 -0.0469991 0
M  V30 2185 C 205.054 -2.61136 2.44013 0
M  V30 2186 S 206.613 -3.49981 2.64687 0
M  V30 2187 H 203.431 -0.494074 0.511284 0
M  V30 2188 H 206.033 -0.785162 1.7904 0
M  V30 2189 H 204.737 -2.24662 3.43446 0
M  V30 2190 H 204.268 -3.32153 2.10803 0
M  V30 2191 H 206.283 -4.57124 1.93007 0
M  V30 2192 N 205.456 -1.28612 -0.910864 0
M  V30 2193 C 206.867 -1.14406 -1.47541 0
M  V30 2194 C 207.218 0.264901 -1.94403 0
M  V30 2195 O 206.343 1.15942 -1.82719 0
M  V30 2196 C 206.938 -2.07073 -2.68153 0
M  V30 2197 C 205.497 -1.96923 -3.20778 0
M  V30 2198 C 204.644 -1.98646 -1.93481 0
M  V30 2199 H 207.595 -1.41259 -0.723291 0
M  V30 2200 H 207.616 -1.63642 -3.43514 0
M  V30 2201 H 207.128 -3.09611 -2.34015 0
M  V30 2202 H 205.229 -0.97433 -3.59635 0
M  V30 2203 H 205.342 -2.84026 -3.85832 0
M  V30 2204 H 203.706 -1.43093 -2.10705 0
M  V30 2205 H 204.489 -3.02868 -1.61634 0
M  V30 2206 N 206.934 1.1197 -1.10907 0
M  V30 2207 C 207.884 2.15946 -0.731538 0
M  V30 2208 C 208.868 1.58758 0.261699 0
M  V30 2209 O 210.06 1.76863 0.0696722 0
M  V30 2210 C 207.189 3.42877 -0.170299 0
M  V30 2211 C 206.275 4.07037 -1.19087 0
M  V30 2212 N 206.666 4.46135 -2.38322 0
M  V30 2213 C 204.964 4.33884 -1.03252 0
M  V30 2214 C 205.665 4.96331 -3.03366 0
M  V30 2215 N 204.641 4.9214 -2.30865 0
M  V30 2216 H 208.443 2.43947 -1.63912 0
M  V30 2217 H 205.957 1.28927 -0.987505 0
M  V30 2218 H 207.954 4.16732 0.118271 0
M  V30 2219 H 206.614 3.16343 0.731935 0
M  V30 2220 H 207.625 4.38345 -2.75815 0
M  V30 2221 H 204.302 4.17084 -0.186256 0
M  V30 2222 H 205.692 5.36257 -4.04818 0
M  V30 2223 N 208.412 0.89855 1.29475 0
M  V30 2224 C 209.375 0.380272 2.26023 0
M  V30 2225 C 210.375 -0.484891 1.53315 0
M  V30 2226 O 211.565 -0.290108 1.71767 0
M  V30 2227 C 208.697 -0.45651 3.3783 0
M  V30 2228 H 209.89 1.23295 2.73383 0
M  V30 2229 H 207.443 0.676589 1.40897 0
M  V30 2230 H 208.178 -1.32922 2.95808 0
M  V30 2231 H 207.963 0.163393 3.91759 0
M  V30 2232 H 209.453 -0.810466 4.0966 0
M  V30 2233 N 209.89 -1.43072 0.660911 0
M  V30 2234 C 211.139 -2.00942 0.174735 0
M  V30 2235 C 211.452 -1.52797 -1.22117 0
M  V30 2236 O 212.658 -2.02991 -1.80297 0
M  V30 2237 C 211.114 -3.58948 0.261559 0
M  V30 2238 C 210.722 -4.16085 1.66064 0
M  V30 2239 C 212.466 -4.24173 -0.166617 0
M  V30 2240 C 210.373 -5.6641 1.70098 0
M  V30 2241 H 209.303 -0.751483 0.0615631 0
M  V30 2242 H 211.954 -1.63955 0.824069 0
M  V30 2243 H 210.336 -3.93372 -0.455421 0
M  V30 2244 H 211.51 -3.93147 2.40359 0
M  V30 2245 H 209.825 -3.6326 2.03546 0
M  V30 2246 H 212.422 -5.34471 -0.156433 0
M  V30 2247 H 212.765 -3.98647 -1.19943 0
M  V30 2248 H 213.298 -3.94659 0.498875 0
M  V30 2249 H 210.037 -5.96715 2.71315 0
M  V30 2250 H 209.557 -5.91382 1.00139 0
M  V30 2251 H 211.236 -6.30585 1.44816 0
M  V30 2252 N 211.368 -0.403325 -1.52352 0
M  V30 2253 C 212.615 0.174347 -2.01748 0
M  V30 2254 C 212.943 1.45636 -1.2892 0
M  V30 2255 O 212.198 1.9193 -0.382258 0
M  V30 2256 C 212.497 0.474665 -3.54234 0
M  V30 2257 C 212.163 -0.717458 -4.45155 0
M  V30 2258 C 210.825 -1.04447 -4.69728 0
M  V30 2259 C 213.177 -1.51432 -4.98716 0
M  V30 2260 C 210.505 -2.16963 -5.45109 0
M  V30 2261 C 212.857 -2.6302 -5.75329 0
M  V30 2262 C 211.521 -2.96213 -5.98175 0
M  V30 2263 H 210.791 0.0637981 -0.738248 0
M  V30 2264 H 213.438 -0.543553 -1.83624 0
M  V30 2265 H 211.743 1.27406 -3.70506 0
M  V30 2266 H 213.44 0.934496 -3.89959 0
M  V30 2267 H 210.03 -0.452596 -4.26204 0
M  V30 2268 H 214.214 -1.27491 -4.79645 0
M  V30 2269 H 209.47 -2.43034 -5.61021 0
M  V30 2270 H 213.644 -3.25158 -6.15829 0
M  V30 2271 H 211.271 -3.83516 -6.56368 0
M  V30 2272 N 212.846 1.57033 -0.133567 0
M  V30 2273 C 213.776 2.1909 0.807567 0
M  V30 2274 C 214.757 1.13517 1.26681 0
M  V30 2275 O 215.942 1.41809 1.32679 0
M  V30 2276 C 213.072 2.80188 2.05212 0
M  V30 2277 C 212.026 3.91471 1.73015 0
M  V30 2278 C 211.352 4.39443 3.04622 0
M  V30 2279 C 212.652 5.12886 0.987168 0
M  V30 2280 H 214.346 2.97988 0.290403 0
M  V30 2281 H 211.892 1.43335 0.138239 0
M  V30 2282 H 213.845 3.22264 2.71521 0
M  V30 2283 H 212.569 1.98601 2.59278 0
M  V30 2284 H 211.228 3.49993 1.0909 0
M  V30 2285 H 210.876 3.54695 3.56651 0
M  V30 2286 H 210.576 5.14495 2.83847 0
M  V30 2287 H 212.1 4.8418 3.72024 0
M  V30 2288 H 213.514 5.51891 1.55208 0
M  V30 2289 H 211.911 5.93615 0.87985 0
M  V30 2290 H 212.981 4.84894 -0.0235286 0
M  V30 2291 N 214.325 -0.140222 1.56975 0
M  V30 2292 C 215.255 -1.17456 2.01808 0
M  V30 2293 C 216.236 -1.44415 0.898794 0
M  V30 2294 O 217.421 -1.5522 1.16707 0
M  V30 2295 C 214.551 -2.50607 2.40444 0
M  V30 2296 C 213.505 -2.38155 3.55621 0
M  V30 2297 C 212.831 -3.76078 3.80091 0
M  V30 2298 C 214.131 -1.85991 4.88062 0
M  V30 2299 H 215.825 -0.801743 2.88466 0
M  V30 2300 H 213.371 -0.38422 1.38779 0
M  V30 2301 H 215.324 -3.23197 2.7041 0
M  V30 2302 H 214.048 -2.89737 1.50732 0
M  V30 2303 H 212.707 -1.68016 3.25832 0
M  V30 2304 H 212.355 -4.12656 2.87618 0
M  V30 2305 H 212.055 -3.68606 4.57606 0
M  V30 2306 H 213.579 -4.50206 4.12488 0
M  V30 2307 H 214.993 -2.4838 5.16701 0
M  V30 2308 H 213.39 -1.89393 5.6943 0
M  V30 2309 H 214.46 -0.816023 4.77984 0
M  V30 2310 N 215.803 -1.52179 -0.40978 0
M  V30 2311 C 217.049 -1.66453 -1.15851 0
M  V30 2312 C 217.382 -0.392972 -1.90182 0
M  V30 2313 O 216.657 0.608579 -1.84734 0
M  V30 2314 C 216.94 -2.88612 -2.15349 0
M  V30 2315 C 216.793 -4.25815 -1.44918 0
M  V30 2316 C 218.112 -3.06294 -3.16026 0
M  V30 2317 H 215.231 -0.60575 -0.419805 0
M  V30 2318 H 217.873 -1.84732 -0.444314 0
M  V30 2319 H 216.023 -2.73158 -2.76255 0
M  V30 2320 H 217.695 -4.52995 -0.871365 0
M  V30 2321 H 215.938 -4.27247 -0.751159 0
M  V30 2322 H 216.609 -5.07337 -2.17516 0
M  V30 2323 H 219.085 -3.20641 -2.65195 0
M  V30 2324 H 217.961 -3.93283 -3.8291 0
M  V30 2325 H 218.222 -2.19579 -3.83715 0
M  V30 2326 N 217.281 0.66697 -1.42791 0
M  V30 2327 C 218.244 1.76211 -1.46568 0
M  V30 2328 C 219.244 1.56896 -0.352196 0
M  V30 2329 O 220.434 1.63044 -0.613364 0
M  V30 2330 C 217.566 3.14935 -1.30494 0
M  V30 2331 H 218.759 1.74247 -2.44086 0
M  V30 2332 H 216.312 0.877342 -1.29354 0
M  V30 2333 H 217.047 3.2252 -0.339301 0
M  V30 2334 H 216.832 3.30359 -2.11199 0
M  V30 2335 H 218.322 3.94821 -1.36038 0
M  V30 2336 N 218.759 1.29093 0.90403 0
M  V30 2337 C 219.691 1.09658 2.01266 0
M  V30 2338 C 220.704 0.0453729 1.62737 0
M  V30 2339 O 221.893 0.289446 1.76138 0
M  V30 2340 C 218.993 0.646278 3.32681 0
M  V30 2341 C 218.166 1.77505 3.99763 0
M  V30 2342 C 217.225 1.31649 5.09465 0
M  V30 2343 O 216.251 2.02045 5.32134 0
M  V30 2344 N 217.453 0.184997 5.80205 0
M  V30 2345 H 220.218 2.05135 2.18494 0
M  V30 2346 H 217.779 1.20975 1.07594 0
M  V30 2347 H 219.771 0.322906 4.0341 0
M  V30 2348 H 218.341 -0.215916 3.11853 0
M  V30 2349 H 217.561 2.26752 3.22455 0
M  V30 2350 H 218.849 2.53198 4.41325 0
M  V30 2351 H 218.247 -0.402021 5.6427 0
M  V30 2352 H 216.804 -0.0790358 6.51752 0
M  V30 2353 N 220.237 -1.11381 1.11499 0
M  V30 2354 C 221.167 -2.19509 0.796125 0
M  V30 2355 C 222.148 -1.68458 -0.235796 0
M  V30 2356 O 223.333 -1.93947 -0.0991344 0
M  V30 2357 C 220.463 -3.46475 0.239205 0
M  V30 2358 C 219.417 -4.10744 1.20307 0
M  V30 2359 C 218.743 -5.32293 0.50683 0
M  V30 2360 C 220.043 -4.55597 2.55399 0
M  V30 2361 H 221.737 -2.46439 1.70024 0
M  V30 2362 H 219.283 -1.18446 0.818935 0
M  V30 2363 H 221.236 -4.214 0.00392006 0
M  V30 2364 H 219.96 -3.19006 -0.700206 0
M  V30 2365 H 218.619 -3.37813 1.42399 0
M  V30 2366 H 218.267 -5.01095 -0.437408 0
M  V30 2367 H 217.967 -5.76243 1.1497 0
M  V30 2368 H 219.491 -6.09956 0.280351 0
M  V30 2369 H 220.905 -5.21841 2.37391 0
M  V30 2370 H 219.302 -5.10363 3.15673 0
M  V30 2371 H 220.372 -3.69013 3.14575 0
M  V30 2372 N 221.715 -0.905404 -1.28997 0
M  V30 2373 C 222.961 -0.535039 -1.95615 0
M  V30 2374 C 223.294 0.917404 -1.71165 0
M  V30 2375 O 222.569 1.65123 -1.02785 0
M  V30 2376 C 222.852 -0.834918 -3.50287 0
M  V30 2377 C 222.705 -2.33948 -3.84172 0
M  V30 2378 C 224.024 -0.325318 -4.38896 0
M  V30 2379 H 221.143 -0.195861 -0.710498 0
M  V30 2380 H 223.785 -1.13313 -1.52513 0
M  V30 2381 H 221.935 -0.325904 -3.87131 0
M  V30 2382 H 223.607 -2.91847 -3.57243 0
M  V30 2383 H 221.85 -2.79789 -3.31513 0
M  V30 2384 H 222.521 -2.49987 -4.92149 0
M  V30 2385 H 224.997 -0.761256 -4.09077 0
M  V30 2386 H 223.873 -0.564295 -5.45992 0
M  V30 2387 H 224.134 0.774144 -4.35269 0
M  V30 2388 N 223.193 1.4272 -0.668489 0
M  V30 2389 C 224.442 2.00846 -0.185389 0
M  V30 2390 C 224.755 1.53442 1.21305 0
M  V30 2391 O 225.961 2.03944 1.79218 0
M  V30 2392 C 224.417 3.58805 -0.280591 0
M  V30 2393 C 224.025 4.15198 -1.68268 0
M  V30 2394 C 225.769 4.24255 0.14412 0
M  V30 2395 C 223.676 5.655 -1.73099 0
M  V30 2396 H 222.606 0.751145 -0.0655475 0
M  V30 2397 H 225.257 1.63516 -0.832752 0
M  V30 2398 H 223.639 3.93608 0.434553 0
M  V30 2399 H 224.813 3.91866 -2.42441 0
M  V30 2400 H 223.128 3.62176 -2.05469 0
M  V30 2401 H 225.725 5.34547 0.128086 0
M  V30 2402 H 226.068 3.99277 1.17827 0
M  V30 2403 H 226.601 3.94389 -0.519798 0
M  V30 2404 H 223.34 5.95268 -2.74475 0
M  V30 2405 H 222.86 5.90842 -1.03274 0
M  V30 2406 H 224.539 6.29808 -1.48158 0
M  V30 2407 N 224.671 0.411399 1.52136 0
M  V30 2408 C 225.899 -0.163076 2.06256 0
M  V30 2409 C 226.314 -1.3867 1.28125 0
M  V30 2410 O 225.671 -1.79423 0.333721 0
M  V30 2411 C 225.722 -0.511252 3.57867 0
M  V30 2412 O 225.443 0.66378 4.33042 0
M  V30 2413 C 226.944 -1.13921 4.28412 0
M  V30 2414 H 224.164 -0.0193897 0.67072 0
M  V30 2415 H 226.708 0.583007 1.96013 0
M  V30 2416 H 224.863 -1.20723 3.6811 0
M  V30 2417 H 225.277 0.372601 5.23175 0
M  V30 2418 H 226.751 -1.33302 5.35663 0
M  V30 2419 H 227.228 -2.11296 3.85033 0
M  V30 2420 H 227.834 -0.483373 4.22544 0
M  V30 2421 N 226.149 -1.5696 0.141893 0
M  V30 2422 C 227.377 -2.00322 -0.517579 0
M  V30 2423 C 227.792 -1.02193 -1.58752 0
M  V30 2424 O 227.149 -0.0181619 -1.82491 0
M  V30 2425 C 227.2 -3.43618 -1.12289 0
M  V30 2426 O 226.921 -4.37995 -0.0956929 0
M  V30 2427 C 228.422 -4.02231 -1.86347 0
M  V30 2428 H 225.642 -0.657243 -0.135177 0
M  V30 2429 H 228.186 -2.03146 0.234973 0
M  V30 2430 H 226.341 -3.41662 -1.82609 0
M  V30 2431 H 226.755 -5.21729 -0.538469 0
M  V30 2432 H 228.229 -5.04509 -2.23997 0
M  V30 2433 H 228.706 -3.42655 -2.74744 0
M  V30 2434 H 229.312 -4.07802 -1.20737 0
M  V30 2435 N 227.627 0.131896 -1.57047 0
M  V30 2436 C 228.557 1.16384 -2.02428 0
M  V30 2437 C 229.538 1.43936 -0.90644 0
M  V30 2438 O 230.723 1.54599 -1.17528 0
M  V30 2439 C 227.853 2.49328 -2.4177 0
M  V30 2440 C 226.807 2.36266 -3.56879 0
M  V30 2441 C 226.133 3.74057 -3.8208 0
M  V30 2442 C 227.433 1.834 -4.89042 0
M  V30 2443 H 229.127 0.786433 -2.88887 0
M  V30 2444 H 226.673 0.376855 -1.38981 0
M  V30 2445 H 228.626 3.21759 -2.7212 0
M  V30 2446 H 227.35 2.88934 -1.52266 0
M  V30 2447 H 226.009 1.66286 -3.26718 0
M  V30 2448 H 225.657 4.11125 -2.89803 0
M  V30 2449 H 225.357 3.66174 -4.59554 0
M  V30 2450 H 226.881 4.48012 -4.1487 0
M  V30 2451 H 228.295 2.45636 -5.18011 0
M  V30 2452 H 226.692 1.8637 -5.70426 0
M  V30 2453 H 227.762 0.790662 -4.7841 0
M  V30 2454 N 229.106 1.52395 0.401703 0
M  V30 2455 C 230.355 1.66044 1.14509 0
M  V30 2456 C 230.668 0.400216 1.91462 0
M  V30 2457 O 231.874 0.416632 2.68284 0
M  V30 2458 C 230.33 2.93388 2.0845 0
M  V30 2459 C 229.938 4.26545 1.36978 0
M  V30 2460 C 231.682 3.16402 2.83001 0
M  V30 2461 C 229.589 5.45007 2.29611 0
M  V30 2462 H 228.519 0.618562 0.431158 0
M  V30 2463 H 231.17 1.78886 0.40892 0
M  V30 2464 H 229.552 2.74263 2.8565 0
M  V30 2465 H 230.726 4.56179 0.650916 0
M  V30 2466 H 229.041 4.09692 0.74438 0
M  V30 2467 H 231.638 4.02085 3.52465 0
M  V30 2468 H 231.981 2.30943 3.46368 0
M  V30 2469 H 232.514 3.36034 2.12898 0
M  V30 2470 H 229.253 6.32835 1.70879 0
M  V30 2471 H 228.773 5.19702 2.9945 0
M  V30 2472 H 230.452 5.7838 2.89974 0
M  V30 2473 N 230.584 -0.659388 1.43143 0
M  V30 2474 C 231.494 -1.80167 1.50256 0
M  V30 2475 C 232.51 -1.69571 0.390106 0
M  V30 2476 O 233.686 -1.90849 0.643319 0
M  V30 2477 C 230.751 -3.16409 1.41725 0
M  V30 2478 C 229.812 -3.38848 2.63591 0
M  V30 2479 C 229.045 -4.68591 2.55458 0
M  V30 2480 O 229.268 -5.47532 1.59891 0
M  V30 2481 O 228.202 -4.92614 3.45854 0
M  V30 2482 H 232.028 -1.77121 2.46702 0
M  V30 2483 H 229.613 -0.817092 1.25076 0
M  V30 2484 H 231.495 -3.9768 1.39387 0
M  V30 2485 H 230.17 -3.20059 0.484118 0
M  V30 2486 H 229.077 -2.57366 2.71502 0
M  V30 2487 H 230.41 -3.4004 3.55856 0
M  V30 2488 N 232.062 -1.29571 -0.897171 0
M  V30 2489 C 233.311 -1.1706 -1.64256 0
M  V30 2490 C 233.624 0.276476 -1.93636 0
M  V30 2491 O 234.83 0.52294 -2.66416 0
M  V30 2492 C 233.286 -2.0475 -2.95982 0
M  V30 2493 C 232.894 -3.54295 -2.74187 0
M  V30 2494 C 234.638 -2.0097 -3.73914 0
M  V30 2495 C 232.545 -4.34081 -4.01656 0
M  V30 2496 H 231.475 -0.43452 -0.616205 0
M  V30 2497 H 234.126 -1.54229 -0.994268 0
M  V30 2498 H 232.508 -1.60452 -3.62038 0
M  V30 2499 H 233.682 -4.06662 -2.1671 0
M  V30 2500 H 231.997 -3.59773 -2.09648 0
M  V30 2501 H 234.594 -2.57838 -4.68427 0
M  V30 2502 H 234.937 -0.990273 -4.0435 0
M  V30 2503 H 235.47 -2.43325 -3.14703 0
M  V30 2504 H 232.209 -5.36671 -3.76384 0
M  V30 2505 H 231.729 -3.86483 -4.58684 0
M  V30 2506 H 233.408 -4.44877 -4.69781 0
M  V30 2507 N 233.54 1.10788 -1.12088 0
M  V30 2508 C 234.787 1.82671 -0.873931 0
M  V30 2509 C 235.115 1.85004 0.600311 0
M  V30 2510 O 234.37 1.30365 1.45957 0
M  V30 2511 C 234.669 3.29294 -1.38926 0
M  V30 2512 C 234.335 3.47113 -2.87791 0
M  V30 2513 C 232.997 3.51684 -3.28439 0
M  V30 2514 C 235.349 3.52808 -3.83635 0
M  V30 2515 C 232.677 3.59513 -4.63646 0
M  V30 2516 C 235.029 3.62169 -5.18668 0
M  V30 2517 C 233.693 3.65003 -5.58864 0
M  V30 2518 H 232.963 0.668441 -0.319794 0
M  V30 2519 H 235.61 1.30613 -1.40045 0
M  V30 2520 H 233.915 3.83894 -0.783122 0
M  V30 2521 H 235.612 3.83416 -1.17443 0
M  V30 2522 H 232.202 3.4423 -2.5535 0
M  V30 2523 H 236.386 3.4853 -3.53328 0
M  V30 2524 H 231.642 3.59987 -4.94185 0
M  V30 2525 H 235.816 3.6552 -5.92763 0
M  V30 2526 H 233.443 3.70822 -6.63623 0
M  V30 2527 N 235.018 0.912232 1.28515 0
M  V30 2528 C 236.267 0.540504 1.94323 0
M  V30 2529 C 236.58 -0.920044 1.72611 0
M  V30 2530 O 237.786 -1.39986 2.32629 0
M  V30 2531 C 236.242 0.915803 3.48053 0
M  V30 2532 C 235.85 2.39598 3.78546 0
M  V30 2533 C 237.594 0.614588 4.20027 0
M  V30 2534 C 235.501 2.71148 5.25578 0
M  V30 2535 H 234.431 0.198418 0.727424 0
M  V30 2536 H 237.082 1.11094 1.46049 0
M  V30 2537 H 235.464 0.274168 3.9505 0
M  V30 2538 H 236.638 3.08422 3.42364 0
M  V30 2539 H 234.953 2.66749 3.1974 0
M  V30 2540 H 237.55 0.827002 5.28266 0
M  V30 2541 H 237.893 -0.447531 4.13887 0
M  V30 2542 H 238.426 1.21462 3.78803 0
M  V30 2543 H 235.165 3.76207 5.36794 0
M  V30 2544 H 234.685 2.0696 5.62963 0
M  V30 2545 H 236.364 2.58072 5.93302 0
M  V30 2546 N 236.496 -1.42363 0.676048 0
M  V30 2547 C 237.724 -2.05859 0.207268 0
M  V30 2548 C 238.139 -1.50796 -1.13605 0
M  V30 2549 O 237.496 -0.648265 -1.70598 0
M  V30 2550 C 237.547 -3.61248 0.134975 0
M  V30 2551 O 237.268 -4.1427 1.42521 0
M  V30 2552 C 238.769 -4.41859 -0.357151 0
M  V30 2553 H 235.989 -0.663431 0.100503 0
M  V30 2554 H 238.533 -1.82479 0.923136 0
M  V30 2555 H 236.688 -3.83735 -0.531588 0
M  V30 2556 H 237.102 -5.0815 1.29939 0
M  V30 2557 H 238.576 -5.50847 -0.356641 0
M  V30 2558 H 239.053 -4.16536 -1.39264 0
M  V30 2559 H 239.659 -4.24392 0.27772 0
M  V30 2560 N 237.974 -0.419461 -1.51915 0
M  V30 2561 C 239.222 0.152637 -2.01523 0
M  V30 2562 C 239.543 1.44762 -1.30649 0
M  V30 2563 O 238.813 1.90997 -0.435535 0
M  V30 2564 H 237.393 0.0593966 -0.744635 0
M  V30 2565 H 240.055 -0.558073 -1.86739 0
M  V30 2566 H 239.151 0.341369 -3.10227 0
M  V30 2567 N 239.452 1.56882 -0.150215 0
M  V30 2568 C 240.68 2.00593 0.506948 0
M  V30 2569 C 241.095 1.03033 1.58208 0
M  V30 2570 O 240.452 0.0278396 1.82479 0
M  V30 2571 C 240.503 3.44209 1.10465 0
M  V30 2572 O 240.224 4.3804 0.0724636 0
M  V30 2573 C 241.725 4.03214 1.84211 0
M  V30 2574 H 238.945 0.65795 0.13169 0
M  V30 2575 H 241.489 2.03018 -0.245743 0
M  V30 2576 H 239.644 3.42625 1.80795 0
M  V30 2577 H 240.058 5.22007 0.510793 0
M  V30 2578 H 241.532 5.0569 2.21318 0
M  V30 2579 H 242.009 3.44107 2.72923 0
M  V30 2580 H 242.615 4.08437 1.18572 0
M  V30 2581 N 240.93 -0.123565 1.57115 0
M  V30 2582 C 242.177 -0.832153 1.84612 0
M  V30 2583 C 242.505 -1.80093 0.734627 0
M  V30 2584 O 241.76 -1.93766 -0.27442 0
M  V30 2585 C 242.059 -1.62016 3.18568 0
M  V30 2586 C 241.725 -0.796084 4.43817 0
M  V30 2587 C 240.387 -0.568816 4.77826 0
M  V30 2588 C 242.739 -0.221364 5.2073 0
M  V30 2589 C 240.067 0.243499 5.86194 0
M  V30 2590 C 242.419 0.578117 6.29953 0
M  V30 2591 C 241.083 0.815744 6.62497 0
M  V30 2592 H 240.353 -0.304507 0.675542 0
M  V30 2593 H 243 -0.0947248 1.91266 0
M  V30 2594 H 241.305 -2.42837 3.0747 0
M  V30 2595 H 243.002 -2.17231 3.37064 0
M  V30 2596 H 239.592 -0.983307 4.17168 0
M  V30 2597 H 243.776 -0.384173 4.94811 0
M  V30 2598 H 239.032 0.436871 6.09837 0
M  V30 2599 H 243.206 1.03046 6.88734 0
M  V30 2600 H 240.833 1.44701 7.46301 0
M  V30 2601 N 242.408 -1.52605 -0.393616 0
M  V30 2602 C 243.338 -1.80022 -1.48709 0
M  V30 2603 C 244.319 -0.651995 -1.57108 0
M  V30 2604 O 245.504 -0.89913 -1.72132 0
M  V30 2605 C 242.634 -1.96492 -2.86371 0
M  V30 2606 C 241.588 -3.12161 -2.92813 0
M  V30 2607 C 240.914 -3.13877 -4.3288 0
M  V30 2608 C 242.214 -4.51322 -2.6288 0
M  V30 2609 H 243.908 -2.71589 -1.26015 0
M  V30 2610 H 241.454 -1.30684 -0.604778 0
M  V30 2611 H 243.407 -2.14255 -3.62867 0
M  V30 2612 H 242.131 -1.01611 -3.10391 0
M  V30 2613 H 240.79 -2.94173 -2.18764 0
M  V30 2614 H 240.438 -2.16687 -4.53933 0
M  V30 2615 H 240.138 -3.91576 -4.38112 0
M  V30 2616 H 241.662 -3.33789 -5.1129 0
M  V30 2617 H 243.076 -4.69435 -3.29096 0
M  V30 2618 H 241.473 -5.31053 -2.79468 0
M  V30 2619 H 242.543 -4.58353 -1.58242 0
M  V30 2620 N 243.887 0.651787 -1.4349 0
M  V30 2621 C 244.85 1.74647 -1.48429 0
M  V30 2622 C 245.85 1.56513 -0.368817 0
M  V30 2623 O 247.04 1.62385 -0.630623 0
M  V30 2624 C 244.172 3.13533 -1.33827 0
M  V30 2625 H 245.365 1.71649 -2.4592 0
M  V30 2626 H 242.918 0.863573 -1.30277 0
M  V30 2627 H 243.653 3.22142 -0.37349 0
M  V30 2628 H 243.438 3.28101 -2.14691 0
M  V30 2629 H 244.928 3.93356 -1.40218 0
M  V30 2630 N 245.365 1.30045 0.890287 0
M  V30 2631 C 246.312 1.15976 1.99545 0
M  V30 2632 C 247.282 0.0506202 1.66023 0
M  V30 2633 O 248.467 0.219847 1.89529 0
M  V30 2634 C 245.607 0.852054 3.34416 0
M  V30 2635 C 244.72 2.04255 3.80662 0
M  V30 2636 C 243.855 1.6734 5.04154 0
M  V30 2637 C 242.894 2.82916 5.42794 0
M  V30 2638 N 242.031 2.46333 6.57468 0
M  V30 2639 H 246.871 2.10524 2.10911 0
M  V30 2640 H 244.408 1.04749 1.03276 0
M  V30 2641 H 246.366 0.654296 4.12037 0
M  V30 2642 H 244.996 -0.0565502 3.2275 0
M  V30 2643 H 244.048 2.35172 2.98995 0
M  V30 2644 H 245.36 2.90826 4.05242 0
M  V30 2645 H 244.514 1.43908 5.89386 0
M  V30 2646 H 243.253 0.779308 4.81433 0
M  V30 2647 H 242.258 3.0702 4.56091 0
M  V30 2648 H 243.483 3.73004 5.6749 0
M  V30 2649 H 241.429 1.59423 6.36334 0
M  V30 2650 H 241.346 3.26436 6.81891 0
M  V30 2651 H 242.614 2.26244 7.45945 0
M  V30 2652 N 246.843 -1.10192 1.12674 0
M  V30 2653 C 248.092 -1.81573 0.8783 0
M  V30 2654 C 248.405 -1.86249 -0.597557 0
M  V30 2655 O 249.611 -2.5386 -0.962681 0
M  V30 2656 C 248.067 -3.26149 1.52167 0
M  V30 2657 C 247.675 -3.29763 3.03249 0
M  V30 2658 C 249.419 -4.0234 1.3536 0
M  V30 2659 C 247.326 -4.68815 3.60508 0
M  V30 2660 H 246.256 -0.680394 0.324931 0
M  V30 2661 H 248.907 -1.23902 1.35353 0
M  V30 2662 H 247.289 -3.83832 0.974104 0
M  V30 2663 H 248.463 -2.8189 3.6452 0
M  V30 2664 H 246.778 -2.67059 3.19481 0
M  V30 2665 H 249.375 -5.05058 1.75559 0
M  V30 2666 H 249.718 -4.15235 0.297554 0
M  V30 2667 H 250.251 -3.51079 1.87052 0
M  V30 2668 H 246.99 -4.61121 4.65884 0
M  V30 2669 H 246.51 -5.17045 3.04014 0
M  V30 2670 H 248.189 -5.37785 3.59717 0
M  V30 2671 N 248.321 -0.919034 -1.28029 0
M  V30 2672 C 249.284 -0.416182 -2.2539 0
M  V30 2673 C 250.284 0.460438 -1.54067 0
M  V30 2674 O 251.474 0.262744 -1.72207 0
M  V30 2675 C 248.606 0.402707 -3.38513 0
M  V30 2676 H 249.799 -1.27629 -2.71387 0
M  V30 2677 H 247.352 -0.698919 -1.39803 0
M  V30 2678 H 248.087 1.282 -2.97885 0
M  V30 2679 H 247.872 -0.225698 -3.9145 0
M  V30 2680 H 249.362 0.745191 -4.10897 0
M  V30 2681 N 249.799 1.42003 -0.683588 0
M  V30 2682 C 251.215 1.55625 -0.353976 0
M  V30 2683 C 251.415 1.66151 1.14 0
M  V30 2684 O 250.471 1.63329 1.92561 0
M  V30 2685 C 251.784 2.80171 -1.092 0
M  V30 2686 C 253.332 2.93954 -1.07518 0
M  V30 2687 C 253.807 4.21372 -1.79471 0
M  V30 2688 N 255.298 4.28303 -1.76381 0
M  V30 2689 C 256.033 5.25729 -2.28904 0
M  V30 2690 N 255.529 6.29254 -2.89846 0
M  V30 2691 N 257.322 5.17586 -2.19228 0
M  V30 2692 H 249.473 1.33415 -1.6527 0
M  V30 2693 H 251.736 0.64282 -0.696769 0
M  V30 2694 H 251.442 2.78561 -2.14701 0
M  V30 2695 H 251.316 3.7133 -0.662862 0
M  V30 2696 H 253.703 2.95086 -0.028475 0
M  V30 2697 H 253.784 2.04002 -1.54328 0
M  V30 2698 H 253.428 4.21001 -2.84114 0
M  V30 2699 H 253.358 5.10275 -1.30104 0
M  V30 2700 H 255.849 3.54119 -1.31939 0
M  V30 2701 H 256.162 6.99964 -3.27522 0
M  V30 2702 H 254.507 6.29791 -2.93919 0
M  V30 2703 H 257.698 4.35631 -1.71299 0
M  V30 2704 H 257.871 5.93348 -2.60466 0
M  V30 2705 N 251.277 0.427512 1.51691 0
M  V30 2706 C 252.688 -0.0378867 1.86662 0
M  V30 2707 C 253.039 -1.42819 1.34525 0
M  V30 2708 O 252.164 -2.05037 0.692014 0
M  V30 2709 C 252.759 -0.0755266 3.38716 0
M  V30 2710 C 251.318 -0.485309 3.73258 0
M  V30 2711 C 250.465 0.328399 2.75349 0
M  V30 2712 H 253.416 0.64379 1.45055 0
M  V30 2713 H 253.437 -0.887056 3.70016 0
M  V30 2714 H 252.949 0.936487 3.76632 0
M  V30 2715 H 251.05 -1.50329 3.40928 0
M  V30 2716 H 251.163 -0.21693 4.78609 0
M  V30 2717 H 249.527 -0.211905 2.53817 0
M  V30 2718 H 250.31 1.3391 3.16106 0
M  V30 2719 N 252.755 -1.56801 0.158532 0
M  V30 2720 C 253.702 -2.17337 -0.776729 0
M  V30 2721 C 254.672 -1.1096 -1.23601 0
M  V30 2722 O 255.857 -1.39054 -1.30647 0
M  V30 2723 C 252.997 -2.80822 -2.00582 0
M  V30 2724 C 252.11 -4.01624 -1.59129 0
M  V30 2725 C 251.245 -4.53072 -2.77306 0
M  V30 2726 C 250.284 -5.66314 -2.32282 0
M  V30 2727 N 249.421 -6.12329 -3.43508 0
M  V30 2728 H 254.261 -2.96918 -0.253701 0
M  V30 2729 H 251.798 -1.46661 -0.113504 0
M  V30 2730 H 253.756 -3.15779 -2.72652 0
M  V30 2731 H 252.386 -2.03866 -2.50277 0
M  V30 2732 H 251.438 -3.72571 -0.767806 0
M  V30 2733 H 252.75 -4.83633 -1.2207 0
M  V30 2734 H 251.904 -4.90145 -3.57551 0
M  V30 2735 H 250.643 -3.70095 -3.17617 0
M  V30 2736 H 249.648 -5.28806 -1.5048 0
M  V30 2737 H 250.873 -6.51085 -1.93043 0
M  V30 2738 H 248.819 -5.32284 -3.83418 0
M  V30 2739 H 248.736 -6.89293 -3.105 0
M  V30 2740 H 250.004 -6.5405 -4.24075 0
M  V30 2741 N 254.233 0.115231 -1.57178 0
M  V30 2742 C 255.18 1.14115 -2.00615 0
M  V30 2743 C 256.15 1.40939 -0.878941 0
M  V30 2744 O 257.335 1.52741 -1.14345 0
M  V30 2745 C 254.475 2.46156 -2.4187 0
M  V30 2746 C 253.588 2.26236 -3.68024 0
M  V30 2747 C 252.723 3.51534 -3.98243 0
M  V30 2748 C 251.762 3.26787 -5.17568 0
M  V30 2749 N 250.899 4.44298 -5.43639 0
M  V30 2750 H 255.739 0.763743 -2.88047 0
M  V30 2751 H 253.276 0.365615 -1.42484 0
M  V30 2752 H 255.234 3.23189 -2.63827 0
M  V30 2753 H 253.864 2.81783 -1.57475 0
M  V30 2754 H 252.916 1.40102 -3.5366 0
M  V30 2755 H 254.228 2.03929 -4.55208 0
M  V30 2756 H 253.382 4.36984 -4.20868 0
M  V30 2757 H 252.121 3.76876 -3.09541 0
M  V30 2758 H 251.126 2.39729 -4.94783 0
M  V30 2759 H 252.351 3.02812 -6.0785 0
M  V30 2760 H 250.297 4.69754 -4.57895 0
M  V30 2761 H 250.214 4.25109 -6.25154 0
M  V30 2762 H 251.482 5.3087 -5.70786 0
M  V30 2763 N 255.711 1.52812 0.385517 0
M  V30 2764 C 257.127 1.4214 0.725829 0
M  V30 2765 C 257.327 0.544589 1.94001 0
M  V30 2766 O 256.383 0.0193693 2.52493 0
M  V30 2767 C 257.696 2.85042 0.957668 0
M  V30 2768 C 259.244 2.94543 1.05892 0
M  V30 2769 C 259.719 4.38464 1.32337 0
M  V30 2770 N 261.21 4.41804 1.39151 0
M  V30 2771 C 261.945 5.5025 1.61285 0
M  V30 2772 N 261.441 6.68775 1.80866 0
M  V30 2773 N 263.234 5.37798 1.63492 0
M  V30 2774 H 255.385 2.08338 -0.413383 0
M  V30 2775 H 257.648 0.940016 -0.122775 0
M  V30 2776 H 257.354 3.51431 0.137568 0
M  V30 2777 H 257.228 3.27505 1.87137 0
M  V30 2778 H 259.615 2.28321 1.86959 0
M  V30 2779 H 259.696 2.55504 0.123057 0
M  V30 2780 H 259.34 5.05254 0.517793 0
M  V30 2781 H 259.27 4.75059 2.27214 0
M  V30 2782 H 261.761 3.56377 1.25713 0
M  V30 2783 H 262.074 7.47197 1.97271 0
M  V30 2784 H 260.419 6.71797 1.78083 0
M  V30 2785 H 263.61 4.44171 1.47749 0
M  V30 2786 H 263.783 6.22382 1.80402 0
M  V30 2787 N 257.189 -0.644168 1.43834 0
M  V30 2788 C 258.152 -1.73857 1.49353 0
M  V30 2789 C 259.152 -1.56315 0.377112 0
M  V30 2790 O 260.342 -1.62048 0.639226 0
M  V30 2791 C 257.474 -3.12819 1.35488 0
M  V30 2792 H 258.667 -1.70342 2.46827 0
M  V30 2793 H 256.22 -0.856652 1.30733 0
M  V30 2794 H 256.955 -3.2194 0.390569 0
M  V30 2795 H 256.74 -3.26958 2.16428 0
M  V30 2796 H 258.23 -3.92606 1.42302 0
M  V30 2797 N 258.668 -1.30515 -0.883378 0
M  V30 2798 C 259.578 -1.18959 -2.02203 0
M  V30 2799 C 260.594 -0.109172 -1.73657 0
M  V30 2800 O 261.77 -0.324413 -1.9877 0
M  V30 2801 C 258.835 -0.883871 -3.35244 0
M  V30 2802 C 257.896 -2.04982 -3.77201 0
M  V30 2803 C 257.129 -1.75859 -5.03894 0
M  V30 2804 O 257.352 -0.687276 -5.66244 0
M  V30 2805 O 256.286 -2.61146 -5.42297 0
M  V30 2806 H 260.112 -2.14616 -2.1488 0
M  V30 2807 H 257.697 -1.10124 -1.0096 0
M  V30 2808 H 259.579 -0.728644 -4.15053 0
M  V30 2809 H 258.254 0.0427798 -3.23672 0
M  V30 2810 H 257.161 -2.26038 -2.9809 0
M  V30 2811 H 258.494 -2.95825 -3.93381 0
M  V30 2812 N 260.146 1.09593 -1.13257 0
M  V30 2813 C 261.374 1.855 -0.916378 0
M  V30 2814 C 261.789 1.81069 0.534738 0
M  V30 2815 O 261.146 1.20562 1.37007 0
M  V30 2816 C 261.197 3.33546 -1.39388 0
M  V30 2817 O 260.918 3.37927 -2.78813 0
M  V30 2818 C 262.419 4.26299 -1.21588 0
M  V30 2819 H 259.639 0.585991 -0.326887 0
M  V30 2820 H 262.183 1.38488 -1.5047 0
M  V30 2821 H 260.338 3.77992 -0.848597 0
M  V30 2822 H 260.752 4.30254 -2.9997 0
M  V30 2823 H 262.226 5.28341 -1.59876 0
M  V30 2824 H 262.703 4.38918 -0.157376 0
M  V30 2825 H 263.309 3.87668 -1.7491 0
M  V30 2826 N 261.624 0.925811 1.2754 0
M  V30 2827 C 262.873 0.561084 1.93739 0
M  V30 2828 C 263.186 -0.901685 1.73577 0
M  V30 2829 O 264.392 -1.37511 2.34101 0
M  V30 2830 C 262.848 0.952668 3.47062 0
M  V30 2831 C 262.456 2.43599 3.75983 0
M  V30 2832 C 264.2 0.659103 4.19352 0
M  V30 2833 C 262.107 2.76707 5.22673 0
M  V30 2834 H 261.037 0.206122 0.725279 0
M  V30 2835 H 263.688 1.12637 1.44863 0
M  V30 2836 H 262.07 0.316053 3.94737 0
M  V30 2837 H 263.244 3.12035 3.39073 0
M  V30 2838 H 261.559 2.70125 3.16893 0
M  V30 2839 H 264.156 0.882985 5.27359 0
M  V30 2840 H 264.499 -0.403607 4.14339 0
M  V30 2841 H 265.032 1.25473 3.77494 0
M  V30 2842 H 261.771 3.8188 5.32774 0
M  V30 2843 H 261.291 2.12919 5.60737 0
M  V30 2844 H 262.97 2.6435 5.90532 0
M  V30 2845 N 263.102 -1.41638 0.69111 0
M  V30 2846 C 264.049 -2.30789 0.0229705 0
M  V30 2847 C 265.019 -1.46863 -0.775911 0
M  V30 2848 O 266.204 -1.75661 -0.74485 0
M  V30 2849 C 263.344 -3.32868 -0.910666 0
M  V30 2850 C 262.457 -4.31875 -0.103874 0
M  V30 2851 C 261.592 -5.21024 -1.03475 0
M  V30 2852 C 260.631 -6.11702 -0.220598 0
M  V30 2853 N 259.768 -6.93349 -1.10504 0
M  V30 2854 H 264.608 -2.87366 0.788978 0
M  V30 2855 H 262.145 -1.41535 0.400794 0
M  V30 2856 H 264.103 -3.90596 -1.46597 0
M  V30 2857 H 262.733 -2.77851 -1.64312 0
M  V30 2858 H 261.785 -3.76131 0.568285 0
M  V30 2859 H 263.097 -4.96003 0.527504 0
M  V30 2860 H 262.251 -5.83565 -1.65943 0
M  V30 2861 H 260.99 -4.57112 -1.69999 0
M  V30 2862 H 259.995 -5.48215 0.417187 0
M  V30 2863 H 261.22 -6.77668 0.440784 0
M  V30 2864 H 259.166 -6.3205 -1.75638 0
M  V30 2865 H 259.083 -7.54146 -0.529125 0
M  V30 2866 H 260.351 -7.60362 -1.71667 0
M  V30 2867 N 264.58 -0.43555 -1.51462 0
M  V30 2868 C 265.827 0.131514 -2.02072 0
M  V30 2869 C 266.155 1.42868 -1.31981 0
M  V30 2870 O 265.41 1.91076 -0.422883 0
M  V30 2871 C 265.709 0.39942 -3.55161 0
M  V30 2872 C 265.375 -0.81172 -4.43533 0
M  V30 2873 C 264.037 -1.14387 -4.67407 0
M  V30 2874 C 266.389 -1.61976 -4.95392 0
M  V30 2875 C 263.717 -2.28477 -5.40384 0
M  V30 2876 C 266.069 -2.75164 -5.6962 0
M  V30 2877 C 264.733 -3.08835 -5.91758 0
M  V30 2878 H 264.003 0.0481244 -0.739436 0
M  V30 2879 H 266.65 -0.58238 -1.8243 0
M  V30 2880 H 264.955 1.19519 -3.73125 0
M  V30 2881 H 266.652 0.85157 -3.91854 0
M  V30 2882 H 263.242 -0.542898 -4.25148 0
M  V30 2883 H 267.426 -1.37637 -4.76833 0
M  V30 2884 H 262.682 -2.5488 -5.55739 0
M  V30 2885 H 266.856 -3.38147 -6.08793 0
M  V30 2886 H 264.483 -3.97353 -6.48086 0
M  V30 2887 N 266.058 1.56714 -0.166846 0
M  V30 2888 C 267.283 2.01557 0.488833 0
M  V30 2889 C 267.708 1.0463 1.56314 0
M  V30 2890 O 267.066 0.0251304 1.81283 0
M  V30 2891 C 267.114 3.4503 1.04818 0
M  V30 2892 O 266.218 3.51163 2.16236 0
M  V30 2893 H 265.559 0.653516 0.117526 0
M  V30 2894 H 268.089 2.02818 -0.269421 0
M  V30 2895 H 268.099 3.84243 1.37191 0
M  V30 2896 H 266.774 4.15077 0.261572 0
M  V30 2897 H 265.351 3.23807 1.84942 0
M  V30 2898 N 267.536 -0.106894 1.57237 0
M  V30 2899 C 268.486 -1.1366 1.9765 0
M  V30 2900 C 269.47 -1.36416 0.853203 0
M  V30 2901 O 270.662 -1.37305 1.11697 0
M  V30 2902 C 267.791 -2.46 2.39455 0
M  V30 2903 C 266.877 -2.26668 3.58445 0
M  V30 2904 N 267.268 -1.77176 4.73754 0
M  V30 2905 C 265.566 -2.57279 3.64312 0
M  V30 2906 C 266.267 -1.71836 5.5574 0
M  V30 2907 N 265.243 -2.16623 4.98573 0
M  V30 2908 H 269.045 -0.74669 2.84256 0
M  V30 2909 H 266.559 -0.314483 1.59326 0
M  V30 2910 H 268.556 -3.2049 2.6663 0
M  V30 2911 H 267.216 -2.85738 1.54219 0
M  V30 2912 H 268.227 -1.46545 4.96734 0
M  V30 2913 H 264.904 -3.00622 2.89711 0
M  V30 2914 H 266.294 -1.34723 6.58255 0
M  V30 2915 N 269.014 -1.53014 -0.377408 0
M  V30 2916 C 270.254 -1.70318 -1.1301 0
M  V30 2917 C 270.618 -0.439538 -1.86901 0
M  V30 2918 O 271.819 -0.489095 -2.64313 0
M  V30 2919 C 270.09 -2.91125 -2.07319 0
M  V30 2920 S 271.649 -3.29075 -2.90268 0
M  V30 2921 H 268.467 -0.599426 -0.382374 0
M  V30 2922 H 271.069 -1.91089 -0.412933 0
M  V30 2923 H 269.773 -3.81303 -1.51777 0
M  V30 2924 H 269.304 -2.7272 -2.83526 0
M  V30 2925 H 271.319 -2.80165 -4.09539 0
M  V30 2926 N 270.492 0.636531 -1.44174 0
M  V30 2927 C 271.455 1.73063 -1.50273 0
M  V30 2928 C 272.455 1.56113 -0.385397 0
M  V30 2929 O 273.645 1.61707 -0.64781 0
M  V30 2930 C 270.777 3.12096 -1.37145 0
M  V30 2931 H 271.97 1.69031 -2.47727 0
M  V30 2932 H 269.523 0.849706 -1.31186 0
M  V30 2933 H 270.258 3.21728 -0.407636 0
M  V30 2934 H 270.043 3.25805 -2.18159 0
M  V30 2935 H 271.533 3.91846 -1.44382 0
M  V30 2936 N 271.97 1.30982 0.876444 0
M  V30 2937 C 273.216 1.20474 1.63138 0
M  V30 2938 C 273.549 -0.238096 1.92735 0
M  V30 2939 O 272.824 -1.1692 1.55435 0
M  V30 2940 C 273.107 2.04244 2.96574 0
M  V30 2941 C 272.96 3.56793 2.73896 0
M  V30 2942 C 274.279 1.88684 3.97601 0
M  V30 2943 H 271.398 0.439001 0.591985 0
M  V30 2944 H 274.04 1.60704 1.01361 0
M  V30 2945 H 272.19 1.70063 3.493 0
M  V30 2946 H 273.862 4.01077 2.27892 0
M  V30 2947 H 272.105 3.80548 2.08245 0
M  V30 2948 H 272.776 4.10706 3.68815 0
M  V30 2949 H 275.252 2.18584 3.54062 0
M  V30 2950 H 274.128 2.4961 4.88862 0
M  V30 2951 H 274.389 0.848343 4.33884 0
M  V30 2952 N 273.449 -1.08991 1.13837 0
M  V30 2953 C 274.698 -1.80631 0.897509 0
M  V30 2954 C 275.011 -1.86872 -0.57777 0
M  V30 2955 O 276.217 -2.54866 -0.935701 0
M  V30 2956 C 274.673 -3.24517 1.55618 0
M  V30 2957 C 274.281 -3.26529 3.0673 0
M  V30 2958 C 276.025 -4.00882 1.3962 0
M  V30 2959 C 273.932 -4.64965 3.65461 0
M  V30 2960 H 272.862 -0.67691 0.332129 0
M  V30 2961 H 275.513 -1.2246 1.3666 0
M  V30 2962 H 273.895 -3.82778 1.01476 0
M  V30 2963 H 275.069 -2.78008 3.67489 0
M  V30 2964 H 273.384 -2.63656 3.22296 0
M  V30 2965 H 275.981 -5.03167 1.80906 0
M  V30 2966 H 276.324 -4.14896 0.341578 0
M  V30 2967 H 276.857 -3.49075 1.90766 0
M  V30 2968 H 273.596 -4.56153 4.70749 0
M  V30 2969 H 273.116 -5.13792 3.09481 0
M  V30 2970 H 274.795 -5.3394 3.654 0
M  V30 2971 N 274.927 -0.932562 -1.27047 0
M  V30 2972 C 276.155 -0.592031 -1.98249 0
M  V30 2973 C 276.57 0.831062 -1.69525 0
M  V30 2974 O 275.927 1.55299 -0.958561 0
M  V30 2975 C 275.978 -0.814279 -3.5221 0
M  V30 2976 O 275.699 -2.18139 -3.7993 0
M  V30 2977 C 277.2 -0.483121 -4.4066 0
M  V30 2978 H 274.42 -0.223896 -0.632544 0
M  V30 2979 H 276.964 -1.25091 -1.61779 0
M  V30 2980 H 275.119 -0.20213 -3.86872 0
M  V30 2981 H 275.533 -2.235 -4.74498 0
M  V30 2982 H 277.007 -0.689298 -5.47679 0
M  V30 2983 H 277.484 0.581546 -4.35333 0
M  V30 2984 H 278.09 -1.07362 -4.11526 0
M  V30 2985 N 276.405 1.4127 -0.698611 0
M  V30 2986 C 277.352 2.30773 -0.0352094 0
M  V30 2987 C 278.322 1.47273 0.768111 0
M  V30 2988 O 279.507 1.76053 0.735524 0
M  V30 2989 C 276.647 3.33346 0.893 0
M  V30 2990 C 275.76 4.31924 0.0809695 0
M  V30 2991 C 274.895 5.21566 1.0071 0
M  V30 2992 C 273.934 6.11811 0.188155 0
M  V30 2993 N 273.071 6.93926 1.06825 0
M  V30 2994 H 277.911 2.86943 -0.804207 0
M  V30 2995 H 275.448 1.4132 -0.408294 0
M  V30 2996 H 277.406 3.91368 1.44523 0
M  V30 2997 H 276.036 2.78719 1.62836 0
M  V30 2998 H 275.088 3.75825 -0.588224 0
M  V30 2999 H 276.4 4.95716 -0.553801 0
M  V30 3000 H 275.554 5.84437 1.62845 0
M  V30 3001 H 274.293 4.58008 1.67572 0
M  V30 3002 H 273.298 5.47986 -0.446254 0
M  V30 3003 H 274.523 6.77425 -0.476716 0
M  V30 3004 H 272.469 6.32973 1.72283 0
M  V30 3005 H 272.386 7.54416 0.489123 0
M  V30 3006 H 273.654 7.61262 1.67632 0
M  V30 3007 N 277.883 0.443576 1.51229 0
M  V30 3008 C 278.815 -0.400608 2.25672 0
M  V30 3009 C 279.828 -0.980945 1.29928 0
M  V30 3010 O 281.017 -0.874024 1.55638 0
M  V30 3011 C 278.117 -1.57304 3.00181 0
M  V30 3012 C 277.29 -1.11046 4.23069 0
M  V30 3013 C 276.349 -2.15374 4.80105 0
M  V30 3014 O 275.375 -1.74554 5.41774 0
M  V30 3015 N 276.577 -3.47922 4.64683 0
M  V30 3016 H 279.342 0.23745 2.98758 0
M  V30 3017 H 276.903 0.272809 1.59585 0
M  V30 3018 H 278.895 -2.26733 3.35223 0
M  V30 3019 H 277.465 -2.11632 2.30066 0
M  V30 3020 H 276.685 -0.243019 3.9345 0
M  V30 3021 H 277.973 -0.778888 5.02803 0
M  V30 3022 H 277.371 -3.83815 4.15575 0
M  V30 3023 H 275.928 -4.13228 5.0407 0
M  V30 3024 N 279.361 -1.56624 0.175154 0
M  V30 3025 C 280.309 -2.19468 -0.770495 0
M  V30 3026 C 281.303 -1.15985 -1.23466 0
M  V30 3027 O 282.509 -1.34176 -1.19987 0
M  V30 3028 H 278.884 -0.703095 -0.266761 0
M  V30 3029 H 280.855 -2.97613 -0.216542 0
M  V30 3030 C 279.604 -2.85264 -1.98796 0
M  V30 3031 H 278.927 -3.64623 -1.63983 0
M  V30 3032 H 280.367 -3.327 -2.62843 0
M  V30 3033 C 278.826 -1.85239 -2.81404 0
M  V30 3034 O 279.356 -1.34024 -3.78682 0
M  V30 3035 N 277.562 -1.53911 -2.46495 0
M  V30 3036 H 277.109 -1.95751 -1.67449 0
M  V30 3037 H 277.067 -0.872382 -3.02054 0
M  V30 3038 N 280.839 0.0985539 -1.57292 0
M  V30 3039 C 282.087 0.801092 -1.85545 0
M  V30 3040 C 282.408 1.79438 -0.763353 0
M  V30 3041 O 281.678 1.94763 0.21073 0
M  V30 3042 H 280.258 0.29884 -0.684619 0
M  V30 3043 H 282.92 0.0810064 -1.94732 0
M  V30 3044 H 282.016 1.3338 -2.82163 0
M  V30 3045 N 282.317 1.53212 0.369288 0
M  V30 3046 C 283.264 1.79388 1.45219 0
M  V30 3047 C 284.234 0.638059 1.53356 0
M  V30 3048 O 285.419 0.879852 1.69302 0
M  V30 3049 C 282.559 1.98623 2.82211 0
M  V30 3050 C 281.672 3.26337 2.8307 0
M  V30 3051 C 280.807 3.35779 4.11614 0
M  V30 3052 C 279.846 4.5754 4.06601 0
M  V30 3053 N 278.983 4.64155 5.26787 0
M  V30 3054 H 283.823 2.71794 1.22198 0
M  V30 3055 H 281.36 1.34642 0.592444 0
M  V30 3056 H 283.318 2.07761 3.61789 0
M  V30 3057 H 281.948 1.09558 3.03639 0
M  V30 3058 H 281 3.26171 1.95747 0
M  V30 3059 H 282.312 4.15988 2.75237 0
M  V30 3060 H 281.466 3.44208 4.99606 0
M  V30 3061 H 280.205 2.44137 4.22195 0
M  V30 3062 H 279.21 4.49215 3.16996 0
M  V30 3063 H 280.435 5.50519 3.97625 0
M  V30 3064 H 278.381 3.75413 5.3796 0
M  V30 3065 H 278.298 5.47706 5.21109 0
M  V30 3066 H 279.566 4.76863 6.16621 0
M  V30 3067 N 283.795 -0.628877 1.44509 0
M  V30 3068 C 284.725 -1.75187 1.54376 0
M  V30 3069 C 285.706 -1.65411 0.396618 0
M  V30 3070 O 286.891 -1.84137 0.617031 0
M  V30 3071 C 284.021 -3.13725 1.48976 0
M  V30 3072 C 282.975 -3.38291 2.62189 0
M  V30 3073 C 282.301 -4.76883 2.41841 0
M  V30 3074 C 283.601 -3.30632 4.04326 0
M  V30 3075 H 285.295 -1.67187 2.48373 0
M  V30 3076 H 282.841 -0.802909 1.19538 0
M  V30 3077 H 284.794 -3.92064 1.54478 0
M  V30 3078 H 283.518 -3.22515 0.514961 0
M  V30 3079 H 282.177 -2.62334 2.56079 0
M  V30 3080 H 281.825 -4.82378 1.42548 0
M  V30 3081 H 281.525 -4.94278 3.17747 0
M  V30 3082 H 283.049 -5.57449 2.49165 0
M  V30 3083 H 284.463 -3.98873 4.11793 0
M  V30 3084 H 282.86 -3.59561 4.80454 0
M  V30 3085 H 283.93 -2.28404 4.27738 0
M  V30 3086 N 285.273 -1.31445 -0.869486 0
M  V30 3087 C 286.513 -1.22458 -1.63656 0
M  V30 3088 C 286.877 0.213846 -1.90805 0
M  V30 3089 O 288.078 0.427212 -2.65383 0
M  V30 3090 C 286.349 -2.04564 -2.93067 0
M  V30 3091 S 287.908 -2.12445 -3.83944 0
M  V30 3092 H 284.726 -0.436145 -0.561514 0
M  V30 3093 H 287.328 -1.66114 -1.03085 0
M  V30 3094 H 286.032 -3.0816 -2.71045 0
M  V30 3095 H 285.563 -1.6163 -3.58663 0
M  V30 3096 H 287.578 -1.26312 -4.79854 0
M  V30 3097 N 286.751 1.08385 -1.14413 0
M  V30 3098 C 287.681 2.17321 -0.854044 0
M  V30 3099 C 288.662 1.69024 0.191049 0
M  V30 3100 O 289.847 1.94141 0.0476779 0
M  V30 3101 C 286.977 3.45719 -0.330983 0
M  V30 3102 C 285.931 4.07409 -1.31155 0
M  V30 3103 C 285.257 5.30762 -0.64778 0
M  V30 3104 C 286.557 4.48665 -2.67388 0
M  V30 3105 H 288.251 2.41845 -1.76498 0
M  V30 3106 H 285.797 1.16233 -0.850051 0
M  V30 3107 H 287.75 4.21241 -0.115645 0
M  V30 3108 H 286.474 3.2075 0.615381 0
M  V30 3109 H 285.133 3.33919 -1.51306 0
M  V30 3110 H 284.781 5.02078 0.304398 0
M  V30 3111 H 284.481 5.72992 -1.30207 0
M  V30 3112 H 286.005 6.08998 -0.441972 0
M  V30 3113 H 287.419 5.15364 -2.51143 0
M  V30 3114 H 285.816 5.01814 -3.29093 0
M  V30 3115 H 286.886 3.60543 -3.24248 0
M  V30 3116 N 288.23 0.939286 1.26551 0
M  V30 3117 C 289.476 0.586715 1.94128 0
M  V30 3118 C 289.809 -0.8717 1.73537 0
M  V30 3119 O 289.084 -1.62339 1.07127 0
M  V30 3120 C 289.367 0.927497 3.4795 0
M  V30 3121 C 289.22 2.44052 3.77834 0
M  V30 3122 C 290.539 0.441569 4.37879 0
M  V30 3123 H 287.658 0.21463 0.705055 0
M  V30 3124 H 290.3 1.17316 1.49455 0
M  V30 3125 H 288.45 0.428431 3.8613 0
M  V30 3126 H 290.122 3.01216 3.4938 0
M  V30 3127 H 288.365 2.8848 3.23978 0
M  V30 3128 H 289.036 2.62947 4.85348 0
M  V30 3129 H 291.512 0.869448 4.06915 0
M  V30 3130 H 290.388 0.708856 5.44304 0
M  V30 3131 H 290.649 -0.658467 4.37169 0
M  V30 3132 N 289.708 -1.40897 0.706093 0
M  V30 3133 C 290.957 -2.00284 0.238574 0
M  V30 3134 C 291.27 -1.56604 -1.17194 0
M  V30 3135 O 292.476 -2.08624 -1.73748 0
M  V30 3136 C 290.932 -3.57934 0.375623 0
M  V30 3137 C 290.54 -4.10591 1.79217 0
M  V30 3138 C 292.284 -4.24488 -0.0315857 0
M  V30 3139 C 290.191 -5.60712 1.88032 0
M  V30 3140 H 289.121 -0.749144 0.0854398 0
M  V30 3141 H 291.772 -1.61251 0.875813 0
M  V30 3142 H 290.154 -3.94622 -0.330042 0
M  V30 3143 H 291.328 -3.85301 2.52745 0
M  V30 3144 H 289.643 -3.56601 2.15 0
M  V30 3145 H 292.24 -5.34698 0.0136842 0
M  V30 3146 H 292.583 -4.02261 -1.072 0
M  V30 3147 H 293.116 -3.92873 0.624181 0
M  V30 3148 H 289.855 -5.87781 2.90161 0
M  V30 3149 H 289.375 -5.87896 1.18903 0
M  V30 3150 H 291.054 -6.25658 1.64805 0
M  V30 3151 N 291.186 -0.45159 -1.50991 0
M  V30 3152 C 292.118 0.388634 -2.25881 0
M  V30 3153 C 293.131 0.974041 -1.30446 0
M  V30 3154 O 294.32 0.865758 -1.56099 0
M  V30 3155 C 291.42 1.5571 -3.01011 0
M  V30 3156 C 290.593 1.08801 -4.23652 0
M  V30 3157 C 289.652 2.12825 -4.8124 0
M  V30 3158 O 288.678 1.71678 -5.42693 0
M  V30 3159 N 289.88 3.45453 -4.66522 0
M  V30 3160 H 292.645 -0.25329 -2.98628 0
M  V30 3161 H 290.206 -0.281268 -1.59438 0
M  V30 3162 H 292.198 2.24952 -3.3642 0
M  V30 3163 H 290.768 2.10409 -2.31186 0
M  V30 3164 H 289.988 0.22215 -3.93574 0
M  V30 3165 H 291.276 0.752213 -5.03209 0
M  V30 3166 H 290.674 3.81605 -4.17605 0
M  V30 3167 H 289.231 4.10549 -5.06254 0
M  V30 3168 N 292.664 1.56529 -0.183458 0
M  V30 3169 C 293.91 1.97537 0.459036 0
M  V30 3170 C 294.243 1.06989 1.62071 0
M  V30 3171 O 293.518 0.11948 1.94133 0
M  V30 3172 C 293.801 3.47874 0.930368 0
M  V30 3173 C 293.654 4.492 -0.232317 0
M  V30 3174 C 294.973 4.01612 1.79989 0
M  V30 3175 H 292.092 0.718204 0.165383 0
M  V30 3176 H 294.734 1.88042 -0.272038 0
M  V30 3177 H 292.884 3.56095 1.55333 0
M  V30 3178 H 294.556 4.53027 -0.86972 0
M  V30 3179 H 292.799 4.24657 -0.885928 0
M  V30 3180 H 293.47 5.51823 0.139796 0
M  V30 3181 H 295.946 3.96097 1.27461 0
M  V30 3182 H 294.822 5.07195 2.09867 0
M  V30 3183 H 295.083 3.46163 2.74998 0
M  V30 3184 N 294.142 -0.090211 1.57342 0
M  V30 3185 C 295.105 -1.09335 2.01441 0
M  V30 3186 C 296.105 -1.32666 0.908641 0
M  V30 3187 O 297.295 -1.28697 1.174 0
M  V30 3188 C 294.427 -2.44136 2.3793 0
M  V30 3189 H 295.62 -0.713662 2.91285 0
M  V30 3190 H 293.173 -0.335404 1.52659 0
M  V30 3191 H 293.908 -2.86972 1.51055 0
M  V30 3192 H 293.693 -2.28548 3.18603 0
M  V30 3193 H 295.183 -3.16277 2.72688 0
M  V30 3194 N 295.62 -1.53406 -0.361157 0
M  V30 3195 C 296.568 -1.80832 -1.46296 0
M  V30 3196 C 297.562 -0.677699 -1.55253 0
M  V30 3197 O 298.768 -0.860723 -1.58087 0
M  V30 3198 H 295.143 -0.572627 -0.487445 0
M  V30 3199 H 297.114 -2.73045 -1.20371 0
M  V30 3200 C 295.863 -2.01907 -2.8307 0
M  V30 3201 H 295.186 -2.88349 -2.76938 0
M  V30 3202 H 296.626 -2.25072 -3.59331 0
M  V30 3203 C 295.085 -0.799449 -3.27277 0
M  V30 3204 O 295.615 0.00971761 -4.01699 0
M  V30 3205 N 293.821 -0.621637 -2.83873 0
M  V30 3206 H 293.368 -1.28126 -2.23476 0
M  V30 3207 H 293.326 0.19298 -3.13807 0
M  V30 3208 N 297.098 0.621204 -1.44841 0
M  V30 3209 C 298.031 1.7459 -1.46947 0
M  V30 3210 C 299.009 1.59273 -0.327238 0
M  V30 3211 O 300.193 1.81021 -0.525706 0
M  V30 3212 C 297.32 3.12274 -1.31159 0
M  V30 3213 C 296.366 3.46216 -2.49072 0
M  V30 3214 S 297.199 3.4258 -4.11581 0
M  V30 3215 C 298.355 4.82867 -3.98233 0
M  V30 3216 H 298.588 1.72538 -2.42111 0
M  V30 3217 H 296.121 0.796683 -1.32259 0
M  V30 3218 H 298.079 3.91722 -1.22737 0
M  V30 3219 H 296.74 3.11855 -0.374885 0
M  V30 3220 H 295.933 4.4643 -2.33915 0
M  V30 3221 H 295.535 2.74253 -2.54286 0
M  V30 3222 H 297.827 5.7234 -3.62537 0
M  V30 3223 H 298.77 5.0308 -4.98313 0
M  V30 3224 H 299.178 4.57908 -3.30121 0
M  V30 3225 N 298.576 1.31904 0.862503 0
M  V30 3226 C 299.992 1.10724 1.14945 0
M  V30 3227 C 300.192 -0.117421 2.01158 0
M  V30 3228 O 299.248 -0.804595 2.39338 0
M  V30 3229 C 300.561 2.38267 1.83437 0
M  V30 3230 C 302.109 2.43949 1.96106 0
M  V30 3231 C 302.584 3.71394 2.68013 0
M  V30 3232 N 304.075 3.72331 2.75543 0
M  V30 3233 C 304.81 4.67641 3.31812 0
M  V30 3234 N 304.306 5.73313 3.88953 0
M  V30 3235 N 306.099 4.5515 3.29841 0
M  V30 3236 H 298.25 2.10436 0.288191 0
M  V30 3237 H 300.513 0.928705 0.190292 0
M  V30 3238 H 300.219 3.27759 1.27542 0
M  V30 3239 H 300.093 2.48633 2.83657 0
M  V30 3240 H 302.48 1.54922 2.51164 0
M  V30 3241 H 302.561 2.37543 0.949059 0
M  V30 3242 H 302.205 4.60791 2.13621 0
M  V30 3243 H 302.135 3.75069 3.69636 0
M  V30 3244 H 304.626 2.95947 2.34997 0
M  V30 3245 H 304.939 6.42107 4.30022 0
M  V30 3246 H 303.284 5.77077 3.87308 0
M  V30 3247 H 306.475 3.71766 2.84443 0
M  V30 3248 H 306.648 5.29604 3.73394 0
M  V30 3249 N 300.054 -1.07777 1.14986 0
M  V30 3250 C 301.001 -2.14867 0.842672 0
M  V30 3251 C 301.971 -1.6486 -0.202552 0
M  V30 3252 O 303.156 -1.90668 -0.0710568 0
M  V30 3253 C 300.296 -3.43486 0.333363 0
M  V30 3254 C 299.409 -4.07306 1.43965 0
M  V30 3255 C 298.544 -5.23744 0.886914 0
M  V30 3256 C 297.583 -5.79517 1.97043 0
M  V30 3257 N 296.72 -6.87291 1.4344 0
M  V30 3258 H 301.56 -2.40485 1.75986 0
M  V30 3259 H 299.097 -1.1801 0.878179 0
M  V30 3260 H 301.055 -4.17195 0.0198163 0
M  V30 3261 H 299.685 -3.18133 -0.546916 0
M  V30 3262 H 298.737 -3.31293 1.86946 0
M  V30 3263 H 300.049 -4.44771 2.25788 0
M  V30 3264 H 299.203 -6.04419 0.525651 0
M  V30 3265 H 297.942 -4.87685 0.0377957 0
M  V30 3266 H 296.947 -4.97491 2.34057 0
M  V30 3267 H 298.172 -6.17632 2.82325 0
M  V30 3268 H 296.118 -6.5318 0.607567 0
M  V30 3269 H 296.035 -7.23617 2.18895 0
M  V30 3270 H 297.303 -7.71682 1.10124 0
M  V30 3271 N 301.532 -0.945985 -1.26051 0
M  V30 3272 C 302.757 -0.612525 -1.98149 0
M  V30 3273 C 303.182 0.806623 -1.69927 0
M  V30 3274 O 302.54 1.54411 -0.950108 0
M  V30 3275 C 302.588 -0.866981 -3.50023 0
M  V30 3276 O 301.692 0.0585333 -4.12358 0
M  V30 3277 H 301.033 -0.23379 -0.621481 0
M  V30 3278 H 303.563 -1.27023 -1.60395 0
M  V30 3279 H 303.573 -0.789792 -4.00283 0
M  V30 3280 H 302.248 -1.90135 -3.69894 0
M  V30 3281 H 300.825 -0.0701241 -3.72834 0
M  V30 3282 N 303.011 1.40521 -0.713556 0
M  V30 3283 C 303.941 2.33381 -0.0743864 0
M  V30 3284 C 304.922 1.52784 0.747735 0
M  V30 3285 O 306.107 1.81258 0.697071 0
M  V30 3286 C 303.237 3.36748 0.849598 0
M  V30 3287 C 302.191 4.27793 0.133247 0
M  V30 3288 C 301.517 5.21679 1.17281 0
M  V30 3289 C 302.817 5.12415 -1.01134 0
M  V30 3290 H 304.511 2.87081 -0.850007 0
M  V30 3291 H 302.057 1.38034 -0.410201 0
M  V30 3292 H 304.01 4.00648 1.30612 0
M  V30 3293 H 302.734 2.81439 1.65709 0
M  V30 3294 H 301.393 3.65342 -0.303426 0
M  V30 3295 H 301.041 4.62677 1.9733 0
M  V30 3296 H 300.741 5.83435 0.698397 0
M  V30 3297 H 302.265 5.88456 1.62947 0
M  V30 3298 H 303.679 5.69781 -0.634274 0
M  V30 3299 H 302.076 5.83203 -1.41399 0
M  V30 3300 H 303.146 4.48514 -1.84292 0
M  V30 3301 N 304.489 0.459591 1.5075 0
M  V30 3302 C 305.419 -0.330644 2.31147 0
M  V30 3303 C 306.4 -1.00087 1.37538 0
M  V30 3304 O 307.585 -1.00025 1.66459 0
M  V30 3305 C 304.715 -1.41958 3.16962 0
M  V30 3306 C 303.669 -0.871608 4.19031 0
M  V30 3307 C 302.995 -2.05797 4.9351 0
M  V30 3308 C 304.295 0.109251 5.22186 0
M  V30 3309 H 305.989 0.340336 2.97459 0
M  V30 3310 H 303.535 0.165119 1.4305 0
M  V30 3311 H 305.488 -1.9798 3.71997 0
M  V30 3312 H 304.212 -2.11917 2.48513 0
M  V30 3313 H 302.871 -0.333442 3.6508 0
M  V30 3314 H 302.519 -2.74427 4.21544 0
M  V30 3315 H 302.219 -1.6976 5.62544 0
M  V30 3316 H 303.743 -2.62331 5.51375 0
M  V30 3317 H 305.157 -0.361405 5.7216 0
M  V30 3318 H 303.554 0.383316 5.98875 0
M  V30 3319 H 304.624 1.03887 4.73641 0
M  V30 3320 N 305.967 -1.56429 0.191757 0
M  V30 3321 C 307.216 -1.9666 -0.448088 0
M  V30 3322 C 307.529 -1.08136 -1.62991 0
M  V30 3323 O 308.735 -1.38135 -2.33733 0
M  V30 3324 C 307.191 -3.49753 -0.848585 0
M  V30 3325 C 306.799 -4.46935 0.308764 0
M  V30 3326 C 308.543 -3.9876 -1.4557 0
M  V30 3327 C 306.45 -5.91293 -0.112506 0
M  V30 3328 H 305.38 -0.734312 -0.171179 0
M  V30 3329 H 308.031 -1.81301 0.283242 0
M  V30 3330 H 306.413 -3.60604 -1.63649 0
M  V30 3331 H 307.587 -4.47813 1.08627 0
M  V30 3332 H 305.902 -4.08102 0.827158 0
M  V30 3333 H 308.499 -5.04086 -1.78328 0
M  V30 3334 H 308.842 -3.42875 -2.36099 0
M  V30 3335 H 309.375 -3.9101 -0.731836 0
M  V30 3336 H 306.114 -6.51097 0.758514 0
M  V30 3337 H 305.634 -5.93676 -0.854941 0
M  V30 3338 H 307.313 -6.44663 -0.549448 0
M  V30 3339 N 307.445 0.0818655 -1.57387 0
M  V30 3340 C 308.377 1.12484 -1.997 0
M  V30 3341 C 309.39 1.35564 -0.90146 0
M  V30 3342 O 310.579 1.33982 -1.17945 0
M  V30 3343 C 307.679 2.47778 -2.31213 0
M  V30 3344 C 306.852 2.44793 -3.62485 0
M  V30 3345 C 305.911 3.62117 -3.81782 0
M  V30 3346 O 304.937 3.44005 -4.53486 0
M  V30 3347 N 306.139 4.82094 -3.23367 0
M  V30 3348 H 308.904 0.764585 -2.89783 0
M  V30 3349 H 306.465 0.270664 -1.59621 0
M  V30 3350 H 308.457 3.24891 -2.41304 0
M  V30 3351 H 307.027 2.75843 -1.4707 0
M  V30 3352 H 306.247 1.53134 -3.6324 0
M  V30 3353 H 307.535 2.39889 -4.48699 0
M  V30 3354 H 306.933 4.99713 -2.65148 0
M  V30 3355 H 305.49 5.56753 -3.38923 0
M  V30 3356 N 308.923 1.53595 0.353017 0
M  V30 3357 C 310.163 1.72094 1.10286 0
M  V30 3358 C 310.527 0.469217 1.86178 0
M  V30 3359 O 311.728 0.531083 2.63501 0
M  V30 3360 C 309.999 2.94386 2.02661 0
M  V30 3361 S 311.558 3.33651 2.84996 0
M  V30 3362 H 308.376 0.605433 0.372789 0
M  V30 3363 H 310.978 1.91722 0.38248 0
M  V30 3364 H 309.682 3.83669 1.45691 0
M  V30 3365 H 309.213 2.77197 2.79152 0
M  V30 3366 H 311.228 2.86645 4.0503 0
M  V30 3367 N 310.401 -0.613514 1.45168 0
M  V30 3368 C 311.333 -1.73825 1.4939 0
M  V30 3369 C 312.346 -1.58175 0.385304 0
M  V30 3370 O 313.535 -1.66165 0.652036 0
M  V30 3371 C 310.635 -3.11758 1.32891 0
M  V30 3372 C 309.808 -3.53704 2.57317 0
M  V30 3373 C 308.867 -4.70579 2.35462 0
M  V30 3374 O 307.893 -4.77996 3.09044 0
M  V30 3375 N 309.095 -5.63454 1.39644 0
M  V30 3376 H 311.86 -1.70669 2.46358 0
M  V30 3377 H 309.421 -0.79862 1.40832 0
M  V30 3378 H 311.413 -3.87692 1.1609 0
M  V30 3379 H 309.983 -3.09456 0.442218 0
M  V30 3380 H 309.203 -2.67794 2.89275 0
M  V30 3381 H 310.491 -3.78486 3.40038 0
M  V30 3382 H 309.889 -5.6017 0.789062 0
M  V30 3383 H 308.446 -6.38944 1.28816 0
M  V30 3384 N 311.879 -1.3236 -0.855495 0
M  V30 3385 C 312.809 -1.23833 -1.97958 0
M  V30 3386 C 313.79 -0.122361 -1.69659 0
M  V30 3387 O 314.975 -0.30939 -1.9172 0
M  V30 3388 C 312.105 -0.959772 -3.33775 0
M  V30 3389 C 311.059 -2.03689 -3.76424 0
M  V30 3390 C 310.385 -1.61075 -5.09862 0
M  V30 3391 C 311.685 -3.4518 -3.9198 0
M  V30 3392 H 313.379 -2.1788 -2.0535 0
M  V30 3393 H 310.925 -1.04891 -0.986605 0
M  V30 3394 H 312.878 -0.886678 -4.11966 0
M  V30 3395 H 311.602 0.0163404 -3.26596 0
M  V30 3396 H 310.261 -2.10012 -3.00484 0
M  V30 3397 H 309.909 -0.622107 -4.99138 0
M  V30 3398 H 309.609 -2.33143 -5.39368 0
M  V30 3399 H 311.133 -1.55201 -5.90546 0
M  V30 3400 H 312.547 -3.4145 -4.60526 0
M  V30 3401 H 310.944 -4.1559 -4.32903 0
M  V30 3402 H 312.014 -3.84903 -2.94919 0
M  V30 3403 N 313.357 1.07166 -1.15556 0
M  V30 3404 C 314.582 1.84053 -0.955988 0
M  V30 3405 C 315.007 1.81586 0.490739 0
M  V30 3406 O 314.365 1.21018 1.34997 0
M  V30 3407 C 314.413 3.28957 -1.47714 0
M  V30 3408 O 313.517 4.06795 -0.677593 0
M  V30 3409 H 312.858 0.569842 -0.340847 0
M  V30 3410 H 315.388 1.35178 -1.53584 0
M  V30 3411 H 315.398 3.79788 -1.4908 0
M  V30 3412 H 314.073 3.30068 -2.53037 0
M  V30 3413 H 312.65 3.6561 -0.733721 0
M  V30 3414 N 314.835 0.952656 1.25548 0
M  V30 3415 C 316.083 0.605176 1.92826 0
M  V30 3416 C 316.404 -0.860261 1.74999 0
M  V30 3417 O 315.674 -1.6125 1.11244 0
M  V30 3418 H 314.254 0.220832 0.713612 0
M  V30 3419 H 316.916 1.21047 1.52754 0
M  V30 3420 H 316.012 0.832798 3.00784 0
M  V30 3421 N 316.313 -1.40141 0.720998 0
M  V30 3422 C 317.26 -2.30688 0.071919 0
M  V30 3423 C 318.23 -1.48476 -0.744584 0
M  V30 3424 O 319.415 -1.77201 -0.707423 0
M  V30 3425 C 316.555 -3.34724 -0.839855 0
M  V30 3426 C 315.668 -4.31998 -0.0122438 0
M  V30 3427 C 314.803 -5.23102 -0.923995 0
M  V30 3428 C 313.842 -6.12033 -0.0907969 0
M  V30 3429 N 312.979 -6.95537 -0.957718 0
M  V30 3430 H 317.819 -2.85628 0.849755 0
M  V30 3431 H 315.356 -1.40653 0.430726 0
M  V30 3432 H 317.314 -3.93618 -1.38279 0
M  V30 3433 H 315.944 -2.81274 -1.58381 0
M  V30 3434 H 314.996 -3.74841 0.64794 0
M  V30 3435 H 316.308 -4.94772 0.632595 0
M  V30 3436 H 315.462 -5.86953 -1.53527 0
M  V30 3437 H 314.201 -4.60615 -1.60264 0
M  V30 3438 H 313.206 -5.47207 0.533377 0
M  V30 3439 H 314.431 -6.76581 0.584428 0
M  V30 3440 H 312.377 -6.35633 -1.62192 0
M  V30 3441 H 312.294 -7.55099 -0.36904 0
M  V30 3442 H 313.562 -7.63832 -1.555 0
M  V30 3443 N 317.792 -0.46758 -1.50504 0
M  V30 3444 C 318.722 0.318381 -2.31319 0
M  V30 3445 C 319.703 0.993564 -1.38066 0
M  V30 3446 O 320.888 0.991411 -1.66987 0
M  V30 3447 C 318.018 1.40275 -3.17711 0
M  V30 3448 C 316.972 0.849373 -4.19487 0
M  V30 3449 C 316.298 2.03177 -4.94594 0
M  V30 3450 C 317.598 -0.136942 -5.2212 0
M  V30 3451 H 319.292 -0.356106 -2.97275 0
M  V30 3452 H 316.838 -0.172703 -1.42961 0
M  V30 3453 H 318.791 1.96004 -3.73042 0
M  V30 3454 H 317.515 2.10596 -2.49634 0
M  V30 3455 H 316.174 0.314076 -3.65252 0
M  V30 3456 H 315.822 2.72187 -4.22993 0
M  V30 3457 H 315.522 1.66774 -5.63436 0
M  V30 3458 H 317.046 2.59403 -5.52759 0
M  V30 3459 H 318.46 0.331056 -5.72343 0
M  V30 3460 H 316.857 -0.41507 -5.98663 0
M  V30 3461 H 317.927 -1.06398 -4.73083 0
M  V30 3462 N 319.27 1.56325 -0.20005 0
M  V30 3463 C 320.2 2.22318 0.713916 0
M  V30 3464 C 321.181 1.18788 1.21752 0
M  V30 3465 O 322.366 1.47309 1.26545 0
M  V30 3466 C 319.496 2.88639 1.93144 0
M  V30 3467 C 318.45 3.98457 1.56255 0
M  V30 3468 C 317.776 4.51967 2.85709 0
M  V30 3469 C 319.076 5.16612 0.768747 0
M  V30 3470 H 320.77 2.98952 0.163755 0
M  V30 3471 H 318.316 1.43792 0.0773219 0
M  V30 3472 H 320.269 3.33491 2.57608 0
M  V30 3473 H 318.993 2.09419 2.50621 0
M  V30 3474 H 317.652 3.54305 0.941471 0
M  V30 3475 H 317.3 3.69503 3.41287 0
M  V30 3476 H 317 5.26071 2.6177 0
M  V30 3477 H 318.524 4.99523 3.51154 0
M  V30 3478 H 319.938 5.57977 1.3166 0
M  V30 3479 H 318.335 5.96812 0.627286 0
M  V30 3480 H 319.405 4.84358 -0.229168 0
M  V30 3481 N 320.748 -0.0735177 1.57428 0
M  V30 3482 C 321.68 -1.11423 2.00294 0
M  V30 3483 C 322.693 -1.35084 0.908637 0
M  V30 3484 O 323.882 -1.33355 1.18654 0
M  V30 3485 C 320.982 -2.46548 2.32523 0
M  V30 3486 C 320.155 -2.42867 3.63778 0
M  V30 3487 C 319.214 -3.60087 3.83697 0
M  V30 3488 O 318.24 -3.41595 4.55304 0
M  V30 3489 N 319.442 -4.80372 3.25919 0
M  V30 3490 H 322.207 -0.749206 2.90184 0
M  V30 3491 H 319.768 -0.262195 1.59763 0
M  V30 3492 H 321.76 -3.23607 2.43024 0
M  V30 3493 H 320.33 -2.75059 1.48531 0
M  V30 3494 H 319.55 -1.51206 3.64047 0
M  V30 3495 H 320.838 -2.37506 4.49965 0
M  V30 3496 H 320.236 -4.983 2.67795 0
M  V30 3497 H 318.793 -5.54948 3.41871 0
M  V30 3498 N 322.226 -1.5378 -0.344866 0
M  V30 3499 C 323.454 -1.74899 -1.10534 0
M  V30 3500 C 323.869 -0.487534 -1.82397 0
M  V30 3501 O 323.226 0.540741 -1.74305 0
M  V30 3502 C 323.277 -2.92822 -2.11984 0
M  V30 3503 O 322.998 -4.14089 -1.43044 0
M  V30 3504 C 324.499 -3.25982 -3.00417 0
M  V30 3505 H 321.719 -0.584426 -0.329678 0
M  V30 3506 H 324.263 -2.006 -0.397474 0
M  V30 3507 H 322.418 -2.69457 -2.78338 0
M  V30 3508 H 322.832 -4.80272 -2.10805 0
M  V30 3509 H 324.306 -4.11848 -3.67539 0
M  V30 3510 H 324.783 -2.42228 -3.66363 0
M  V30 3511 H 325.389 -3.51349 -2.39654 0
M  V30 3512 N 323.704 0.605807 -1.45491 0
M  V30 3513 C 324.654 1.71074 -1.50724 0
M  V30 3514 C 325.638 1.5658 -0.37033 0
M  V30 3515 O 326.83 1.65887 -0.617299 0
M  V30 3516 C 323.959 3.0983 -1.47852 0
M  V30 3517 C 323.045 3.29704 -2.66751 0
M  V30 3518 N 323.436 3.19831 -3.91844 0
M  V30 3519 C 321.734 3.60579 -2.62486 0
M  V30 3520 C 322.435 3.41083 -4.71208 0
M  V30 3521 N 321.411 3.65157 -4.02693 0
M  V30 3522 H 325.213 1.61937 -2.45263 0
M  V30 3523 H 322.727 0.80912 -1.40808 0
M  V30 3524 H 324.724 3.89101 -1.49686 0
M  V30 3525 H 323.384 3.20115 -0.543714 0
M  V30 3526 H 324.395 2.98194 -4.23439 0
M  V30 3527 H 321.072 3.7769 -1.77922 0
M  V30 3528 H 322.462 3.38828 -5.80211 0
M  V30 3529 N 325.182 1.32811 0.848464 0
M  V30 3530 C 326.428 1.23907 1.60546 0
M  V30 3531 C 326.761 -0.197161 1.93197 0
M  V30 3532 O 326.036 -1.13596 1.5788 0
M  V30 3533 C 326.319 2.10489 2.92175 0
M  V30 3534 C 326.172 3.62522 2.66266 0
M  V30 3535 C 327.491 1.97075 3.93509 0
M  V30 3536 H 324.61 0.451459 0.58254 0
M  V30 3537 H 327.252 1.62818 0.979296 0
M  V30 3538 H 325.402 1.77434 3.45614 0
M  V30 3539 H 327.074 4.05821 2.19334 0
M  V30 3540 H 325.317 3.84879 2.00126 0
M  V30 3541 H 325.988 4.18437 3.6002 0
M  V30 3542 H 328.464 2.26045 3.49346 0
M  V30 3543 H 327.34 2.59923 4.83457 0
M  V30 3544 H 327.601 0.940186 4.31987 0
M  V30 3545 N 326.66 -1.06551 1.16123 0
M  V30 3546 C 327.888 -1.83005 0.965237 0
M  V30 3547 C 328.303 -1.82423 -0.486542 0
M  V30 3548 O 327.66 -1.24152 -1.33763 0
M  V30 3549 C 327.711 -3.29733 1.48183 0
M  V30 3550 O 327.432 -3.30416 2.87674 0
M  V30 3551 C 328.933 -4.22926 1.32848 0
M  V30 3552 H 326.153 -0.577118 0.342309 0
M  V30 3553 H 328.697 -1.3445 1.54089 0
M  V30 3554 H 326.852 -3.75609 0.948517 0
M  V30 3555 H 327.266 -4.22149 3.11272 0
M  V30 3556 H 328.74 -5.23916 1.73827 0
M  V30 3557 H 329.217 -4.38346 0.273692 0
M  V30 3558 H 329.823 -3.82894 1.85127 0
M  V30 3559 N 328.138 -0.959301 -1.25041 0
M  V30 3560 C 329.085 -0.482057 -2.2571 0
M  V30 3561 C 330.055 0.467939 -1.59372 0
M  V30 3562 O 331.24 0.380159 -1.86974 0
M  V30 3563 C 328.38 0.229623 -3.44335 0
M  V30 3564 C 327.493 -0.758156 -4.25295 0
M  V30 3565 C 326.628 -0.0234403 -5.31195 0
M  V30 3566 C 325.667 -1.00184 -6.03846 0
M  V30 3567 N 324.804 -0.29769 -7.01469 0
M  V30 3568 H 329.644 -1.34538 -2.65901 0
M  V30 3569 H 327.181 -0.674592 -1.3072 0
M  V30 3570 H 329.139 0.658856 -4.11965 0
M  V30 3571 H 327.769 1.05696 -3.05005 0
M  V30 3572 H 326.821 -1.30586 -3.57284 0
M  V30 3573 H 328.133 -1.50458 -4.75567 0
M  V30 3574 H 327.287 0.464201 -6.04922 0
M  V30 3575 H 326.026 0.755741 -4.81809 0
M  V30 3576 H 325.031 -1.50044 -5.2893 0
M  V30 3577 H 326.256 -1.78133 -6.55321 0
M  V30 3578 H 324.202 0.462668 -6.54366 0
M  V30 3579 H 324.119 -0.983128 -7.4958 0
M  V30 3580 H 325.387 0.16826 -7.79318 0
M  V30 3581 N 329.616 1.39756 -0.72842 0
M  V30 3582 C 330.526 2.34444 -0.0855374 0
M  V30 3583 C 331.542 1.57976 0.729356 0
M  V30 3584 O 332.718 1.90301 0.659346 0
M  V30 3585 C 329.783 3.36965 0.815798 0
M  V30 3586 C 328.844 4.29299 -0.0105996 0
M  V30 3587 C 328.077 5.26923 0.84781 0
M  V30 3588 O 328.3 5.30859 2.08673 0
M  V30 3589 O 327.234 6.01249 0.279969 0
M  V30 3590 H 331.06 2.91065 -0.866892 0
M  V30 3591 H 328.645 1.4117 -0.48902 0
M  V30 3592 H 330.527 3.99804 1.33171 0
M  V30 3593 H 329.202 2.82739 1.57608 0
M  V30 3594 H 328.109 3.69703 -0.571877 0
M  V30 3595 H 329.442 4.86712 -0.73295 0
M  V30 3596 N 331.094 0.475555 1.50254 0
M  V30 3597 C 332.342 -0.077738 2.0195 0
M  V30 3598 C 332.663 -1.39813 1.35931 0
M  V30 3599 O 331.933 -1.89249 0.506123 0
M  V30 3600 H 330.513 -0.031719 0.746326 0
M  V30 3601 H 333.175 0.626995 1.84539 0
M  V30 3602 H 332.271 -0.225995 3.11281 0
M  V30 3603 N 332.573 -1.56217 0.208337 0
M  V30 3604 C 333.483 -2.23316 -0.718836 0
M  V30 3605 C 334.499 -1.23648 -1.22422 0
M  V30 3606 O 335.675 -1.56423 -1.26861 0
M  V30 3607 C 332.74 -2.88968 -1.91568 0
M  V30 3608 C 331.801 -4.03943 -1.45357 0
M  V30 3609 C 331.034 -4.66455 -2.59337 0
M  V30 3610 O 331.257 -4.27919 -3.77149 0
M  V30 3611 O 330.191 -5.55686 -2.31293 0
M  V30 3612 H 334.017 -3.03182 -0.177315 0
M  V30 3613 H 331.602 -1.49384 -0.0215402 0
M  V30 3614 H 333.484 -3.30455 -2.61491 0
M  V30 3615 H 332.159 -2.12071 -2.44556 0
M  V30 3616 H 331.066 -3.67052 -0.722746 0
M  V30 3617 H 332.399 -4.82543 -0.970219 0
M  V30 3618 N 334.051 0.0651679 -1.57465 0
M  V30 3619 C 335.467 0.420105 -1.53972 0
M  V30 3620 C 335.667 1.78782 -0.929474 0
M  V30 3621 O 334.723 2.46771 -0.534839 0
M  V30 3622 C 336.036 0.355084 -2.98596 0
M  V30 3623 C 337.584 0.434792 -3.09965 0
M  V30 3624 C 338.059 0.399609 -4.56253 0
M  V30 3625 N 339.55 0.459488 -4.60915 0
M  V30 3626 C 340.285 0.454584 -5.71595 0
M  V30 3627 N 339.781 0.404102 -6.9162 0
M  V30 3628 N 341.574 0.501635 -5.59857 0
M  V30 3629 H 333.725 -0.830328 -1.95498 0
M  V30 3630 H 335.988 -0.312244 -0.895102 0
M  V30 3631 H 335.694 -0.583357 -3.46828 0
M  V30 3632 H 335.568 1.16275 -3.58831 0
M  V30 3633 H 337.955 1.36366 -2.61703 0
M  V30 3634 H 338.036 -0.40157 -2.52628 0
M  V30 3635 H 337.68 -0.525436 -5.05175 0
M  V30 3636 H 337.61 1.25359 -5.11461 0
M  V30 3637 H 340.101 0.502482 -3.74544 0
M  V30 3638 H 340.414 0.404468 -7.71741 0
M  V30 3639 H 338.759 0.37069 -6.94011 0
M  V30 3640 H 341.95 0.538812 -4.64989 0
M  V30 3641 H 342.123 0.494345 -6.46112 0
M  V30 3642 N 335.529 1.53961 0.336706 0
M  V30 3643 C 336.778 1.70751 1.07363 0
M  V30 3644 C 337.091 0.481061 1.89592 0
M  V30 3645 O 338.297 0.530046 2.66276 0
M  V30 3646 C 336.753 3.01965 1.95818 0
M  V30 3647 C 336.361 4.31971 1.18764 0
M  V30 3648 C 338.105 3.28121 2.69327 0
M  V30 3649 C 336.012 5.54255 2.06289 0
M  V30 3650 H 334.942 0.636292 0.404535 0
M  V30 3651 H 337.593 1.80459 0.332681 0
M  V30 3652 H 335.975 2.86132 2.7376 0
M  V30 3653 H 337.149 4.5853 0.456849 0
M  V30 3654 H 335.464 4.12481 0.569946 0
M  V30 3655 H 338.061 4.16673 3.35094 0
M  V30 3656 H 338.404 2.45426 3.36261 0
M  V30 3657 H 338.937 3.44762 1.98454 0
M  V30 3658 H 335.676 6.39513 1.43885 0
M  V30 3659 H 335.196 5.31935 2.77138 0
M  V30 3660 H 336.875 5.90159 2.65182 0
M  V30 3661 N 337.007 -0.598083 1.45811 0
M  V30 3662 C 337.937 -1.71873 1.58057 0
M  V30 3663 C 338.918 -1.64533 0.431615 0
M  V30 3664 O 340.103 -1.82787 0.65595 0
M  V30 3665 C 337.233 -3.10495 1.55597 0
M  V30 3666 C 336.187 -3.32654 2.69305 0
M  V30 3667 C 335.513 -4.71646 2.51902 0
M  V30 3668 C 336.813 -3.21981 4.11248 0
M  V30 3669 H 338.507 -1.61881 2.51863 0
M  V30 3670 H 336.053 -0.777372 1.21214 0
M  V30 3671 H 338.006 -3.88699 1.6276 0
M  V30 3672 H 336.73 -3.2135 0.583255 0
M  V30 3673 H 335.389 -2.56843 2.61586 0
M  V30 3674 H 335.037 -4.79246 1.52748 0
M  V30 3675 H 334.737 -4.87426 3.2816 0
M  V30 3676 H 336.261 -5.52038 2.60933 0
M  V30 3677 H 337.675 -3.90049 4.20161 0
M  V30 3678 H 336.072 -3.49289 4.87972 0
M  V30 3679 H 337.142 -2.1928 4.32486 0
M  V30 3680 N 338.485 -1.33259 -0.841409 0
M  V30 3681 C 339.415 -1.25926 -1.96634 0
M  V30 3682 C 340.396 -0.140349 -1.6952 0
M  V30 3683 O 341.581 -0.329707 -1.91381 0
M  V30 3684 C 338.711 -0.99512 -3.32738 0
M  V30 3685 C 337.665 -2.0767 -3.74242 0
M  V30 3686 C 336.991 -1.66474 -5.08125 0
M  V30 3687 C 338.291 -3.49318 -3.88297 0
M  V30 3688 H 339.985 -2.20046 -2.03027 0
M  V30 3689 H 337.531 -1.05931 -0.975425 0
M  V30 3690 H 339.484 -0.930323 -4.11002 0
M  V30 3691 H 338.208 -0.0183004 -3.26595 0
M  V30 3692 H 336.867 -2.13187 -2.98239 0
M  V30 3693 H 336.515 -0.675012 -4.9845 0
M  V30 3694 H 336.215 -2.3885 -5.36865 0
M  V30 3695 H 337.739 -1.61455 -5.88867 0
M  V30 3696 H 339.153 -3.46316 -4.56879 0
M  V30 3697 H 337.55 -4.20158 -4.28471 0
M  V30 3698 H 338.62 -3.8801 -2.9082 0
M  V30 3699 N 339.963 1.05934 -1.16686 0
M  V30 3700 C 340.911 2.15603 -0.872817 0
M  V30 3701 C 341.905 1.68647 0.159576 0
M  V30 3702 O 343.111 1.79995 0.0132125 0
M  V30 3703 H 339.486 0.703885 -0.264671 0
M  V30 3704 H 341.457 2.37613 -1.80507 0
M  V30 3705 C 340.206 3.45457 -0.394344 0
M  V30 3706 H 339.529 3.81984 -1.18019 0
M  V30 3707 H 340.969 4.2339 -0.227408 0
M  V30 3708 C 339.428 3.25021 0.88673 0
M  V30 3709 O 339.958 3.50906 1.95519 0
M  V30 3710 N 338.164 2.78437 0.831925 0
M  V30 3711 H 337.711 2.57572 -0.0377619 0
M  V30 3712 H 337.669 2.65144 1.68956 0
M  V30 3713 N 341.441 0.965919 1.2453 0
M  V30 3714 C 342.373 0.452465 2.2469 0
M  V30 3715 C 343.386 -0.437821 1.56802 0
M  V30 3716 O 344.575 -0.244283 1.76821 0
M  V30 3717 C 341.675 -0.366258 3.36915 0
M  V30 3718 C 340.848 0.513701 4.34373 0
M  V30 3719 C 339.907 -0.248716 5.25612 0
M  V30 3720 O 338.933 0.356745 5.68081 0
M  V30 3721 N 340.135 -1.53877 5.59734 0
M  V30 3722 H 342.9 1.31361 2.69378 0
M  V30 3723 H 340.461 0.837541 1.38553 0
M  V30 3724 H 342.453 -0.884297 3.94921 0
M  V30 3725 H 341.023 -1.12832 2.91526 0
M  V30 3726 H 340.243 1.21273 3.75082 0
M  V30 3727 H 341.531 1.11391 4.96457 0
M  V30 3728 H 340.929 -2.05243 5.27154 0
M  V30 3729 H 339.486 -2.00254 6.20275 0
M  V30 3730 N 342.919 -1.39368 0.735821 0
M  V30 3731 C 343.882 -2.2896 0.104874 0
M  V30 3732 C 344.882 -1.46347 -0.666274 0
M  V30 3733 O 346.072 -1.67014 -0.49517 0
M  V30 3734 C 343.204 -3.29857 -0.860656 0
M  V30 3735 H 344.397 -2.86259 0.894205 0
M  V30 3736 H 341.95 -1.48029 0.501704 0
M  V30 3737 H 342.685 -2.77615 -1.67631 0
M  V30 3738 H 342.47 -3.9087 -0.310327 0
M  V30 3739 H 343.96 -3.96893 -1.29867 0
M  V30 3740 N 344.397 -0.483516 -1.5 0
M  V30 3741 C 345.625 0.0644831 -2.06799 0
M  V30 3742 C 346.04 1.32399 -1.34596 0
M  V30 3743 O 345.397 1.77626 -0.418946 0
M  V30 3744 C 345.448 0.339927 -3.59898 0
M  V30 3745 O 345.169 -0.869635 -4.29382 0
M  V30 3746 C 346.67 0.933515 -4.33359 0
M  V30 3747 H 343.89 -0.0126333 -0.670881 0
M  V30 3748 H 346.434 -0.675864 -1.93009 0
M  V30 3749 H 344.589 1.03022 -3.7345 0
M  V30 3750 H 345.003 -0.62179 -5.20801 0
M  V30 3751 H 346.477 1.07593 -5.41413 0
M  V30 3752 H 346.954 1.92685 -3.94676 0
M  V30 3753 H 347.56 0.281221 -4.24369 0
M  V30 3754 N 345.875 1.56104 -0.216619 0
M  V30 3755 C 347.121 1.98466 0.417033 0
M  V30 3756 C 347.454 1.10403 1.59765 0
M  V30 3757 O 346.729 0.160632 1.93836 0
M  V30 3758 C 347.012 3.49769 0.85637 0
M  V30 3759 C 346.865 4.48606 -0.327546 0
M  V30 3760 C 348.184 4.05339 1.7143 0
M  V30 3761 H 345.303 0.721551 0.150112 0
M  V30 3762 H 347.945 1.87423 -0.311864 0
M  V30 3763 H 346.095 3.5931 1.47745 0
M  V30 3764 H 347.767 4.5108 -0.965618 0
M  V30 3765 H 346.01 4.22682 -0.975805 0
M  V30 3766 H 346.681 5.51995 0.0227149 0
M  V30 3767 H 349.157 3.98712 1.19031 0
M  V30 3768 H 348.033 5.11533 1.99061 0
M  V30 3769 H 348.294 3.51918 2.67593 0
M  V30 3770 N 347.353 -0.0568162 1.57498 0
M  V30 3771 C 348.3 -1.06591 2.04712 0
M  V30 3772 C 349.27 -1.3758 0.930644 0
M  V30 3773 O 350.455 -1.48392 1.19935 0
M  V30 3774 C 347.595 -2.3701 2.50839 0
M  V30 3775 C 346.708 -2.12421 3.76167 0
M  V30 3776 C 345.843 -3.36511 4.11015 0
M  V30 3777 C 344.882 -3.07353 5.2934 0
M  V30 3778 N 344.019 -4.23816 5.59754 0
M  V30 3779 H 348.859 -0.65631 2.90683 0
M  V30 3780 H 346.396 -0.312481 1.43743 0
M  V30 3781 H 348.354 -3.13175 2.7564 0
M  V30 3782 H 346.984 -2.75744 1.67825 0
M  V30 3783 H 346.036 -1.2688 3.58616 0
M  V30 3784 H 347.348 -1.86894 4.62463 0
M  V30 3785 H 346.502 -4.21062 4.36797 0
M  V30 3786 H 345.241 -3.65128 3.23315 0
M  V30 3787 H 344.246 -2.212 5.03339 0
M  V30 3788 H 345.471 -2.80043 6.1867 0
M  V30 3789 H 343.417 -4.52436 4.75014 0
M  V30 3790 H 343.334 -4.01614 6.40501 0
M  V30 3791 H 344.602 -5.0932 5.90096 0
M  V30 3792 N 348.832 -1.54138 -0.328536 0
M  V30 3793 C 350.079 -1.72105 -1.06706 0
M  V30 3794 C 350.407 -0.492111 -1.88171 0
M  V30 3795 O 349.662 0.526153 -1.88494 0
M  V30 3796 C 349.961 -2.9457 -2.02393 0
M  V30 3797 C 349.627 -4.29544 -1.37122 0
M  V30 3798 C 348.289 -4.6624 -1.19052 0
M  V30 3799 C 350.641 -5.1333 -0.902331 0
M  V30 3800 C 347.969 -5.84325 -0.527331 0
M  V30 3801 C 350.321 -6.32094 -0.252988 0
M  V30 3802 C 348.985 -6.67473 -0.0600901 0
M  V30 3803 H 348.255 -0.629775 -0.390466 0
M  V30 3804 H 350.902 -1.88372 -0.34473 0
M  V30 3805 H 349.207 -2.72969 -2.81061 0
M  V30 3806 H 350.904 -3.05665 -2.59557 0
M  V30 3807 H 347.494 -4.0067 -1.52188 0
M  V30 3808 H 351.678 -4.855 -1.02974 0
M  V30 3809 H 346.934 -6.103 -0.366634 0
M  V30 3810 H 351.108 -6.96299 0.118366 0
M  V30 3811 H 348.735 -7.58832 0.455828 0
M  V30 3812 N 350.31 0.590341 -1.46126 0
M  V30 3813 C 351.26 1.69466 -1.5253 0
M  V30 3814 C 352.244 1.56179 -0.386917 0
M  V30 3815 O 353.436 1.65223 -0.634858 0
M  V30 3816 C 350.565 3.08245 -1.5113 0
M  V30 3817 C 349.651 3.26856 -2.70233 0
M  V30 3818 N 350.042 3.15657 -3.95214 0
M  V30 3819 C 348.34 3.57775 -2.66296 0
M  V30 3820 C 349.041 3.36066 -4.74799 0
M  V30 3821 N 348.017 3.60865 -4.06543 0
M  V30 3822 H 351.819 1.59326 -2.46966 0
M  V30 3823 H 349.333 0.79414 -1.41659 0
M  V30 3824 H 351.33 3.87492 -1.53804 0
M  V30 3825 H 349.99 3.19521 -0.577636 0
M  V30 3826 H 351.001 2.93686 -4.26578 0
M  V30 3827 H 347.678 3.75782 -1.81918 0
M  V30 3828 H 349.068 3.32655 -5.83772 0
M  V30 3829 N 351.788 1.33704 0.83433 0
M  V30 3830 C 353.034 1.25603 1.59222 0
M  V30 3831 C 353.367 -0.176659 1.93395 0
M  V30 3832 O 352.642 -1.11915 1.59076 0
M  V30 3833 C 352.925 2.13576 2.89926 0
M  V30 3834 C 352.778 3.65326 2.62406 0
M  V30 3835 C 354.097 2.01238 3.91397 0
M  V30 3836 H 351.216 0.457613 0.577719 0
M  V30 3837 H 353.858 1.63848 0.961972 0
M  V30 3838 H 352.008 1.8109 3.43713 0
M  V30 3839 H 353.68 4.08124 2.15017 0
M  V30 3840 H 351.923 3.8698 1.96033 0
M  V30 3841 H 352.594 4.22232 3.55562 0
M  V30 3842 H 355.07 2.29738 3.46929 0
M  V30 3843 H 353.946 2.65036 4.80673 0
M  V30 3844 H 354.207 0.985951 4.30966 0
M  V30 3845 N 353.266 -1.05314 1.17247 0
M  V30 3846 C 354.543 -1.75184 0.87005 0
M  V30 3847 C 354.923 -2.01481 -0.629965 0
M  V30 3848 O 354.271 -1.64988 -1.58086 0
M  V30 3849 C 354.481 -3.04594 1.70363 0
M  V30 3850 C 355.829 -3.78567 1.92281 0
M  V30 3851 O 356.853 -3.14461 1.67311 0
M  V30 3852 O 355.712 -4.93755 2.3424 0
M  V30 3853 H 352.806 -0.761729 0.322021 0
M  V30 3854 H 355.352 -1.11493 1.27935 0
M  V30 3855 H 354.124 -2.81201 2.72106 0
M  V30 3856 H 353.747 -3.76022 1.29202 0
M  V30 3857 N 354.744 -0.972509 -1.24016 0
M  V30 3858 C 355.969 -0.654417 -1.96805 0
M  V30 3859 C 356.394 0.770398 -1.716 0
M  V30 3860 O 355.752 1.52361 -0.982647 0
M  V30 3861 C 355.8 -0.941031 -3.48105 0
M  V30 3862 O 354.904 -0.0289472 -4.1239 0
M  V30 3863 H 354.245 -0.24692 -0.616382 0
M  V30 3864 H 356.775 -1.30396 -1.57664 0
M  V30 3865 H 356.785 -0.87452 -3.98517 0
M  V30 3866 H 355.46 -1.97939 -3.65777 0
M  V30 3867 H 354.037 -0.149192 -3.72601 0
M  V30 3868 N 356.222 1.38976 -0.743202 0
M  V30 3869 C 357.447 2.05161 -0.303936 0
M  V30 3870 C 357.872 1.55677 1.05576 0
M  V30 3871 O 357.23 0.704131 1.67068 0
M  V30 3872 C 357.278 3.59138 -0.324373 0
M  V30 3873 O 356.382 4.06668 0.685204 0
M  V30 3874 H 355.723 0.649815 -0.136518 0
M  V30 3875 H 358.253 1.77852 -1.01142 0
M  V30 3876 H 358.263 4.07639 -0.171618 0
M  V30 3877 H 356.938 3.94515 -1.31647 0
M  V30 3878 H 355.515 3.69561 0.497913 0
M  V30 3879 N 357.7 0.491464 1.49741 0
M  V30 3880 C 358.925 -0.0557177 2.07325 0
M  V30 3881 C 359.35 -1.30925 1.35056 0
M  V30 3882 O 358.708 -1.76733 0.404365 0
M  V30 3883 C 358.756 -0.302074 3.59333 0
M  V30 3884 O 357.86 -1.37868 3.88672 0
M  V30 3885 H 357.201 0.0219956 0.663636 0
M  V30 3886 H 359.731 0.688352 1.92673 0
M  V30 3887 H 359.741 -0.536464 4.04458 0
M  V30 3888 H 358.416 0.61383 4.11345 0
M  V30 3889 H 356.993 -1.12999 3.55367 0
M  V30 3890 N 359.178 -1.55987 0.224894 0
M  V30 3891 C 360.088 -2.24066 -0.69511 0
M  V30 3892 C 361.104 -1.24939 -1.21104 0
M  V30 3893 O 362.28 -1.5776 -1.25195 0
M  V30 3894 C 359.345 -2.90983 -1.88493 0
M  V30 3895 C 358.406 -4.05462 -1.41064 0
M  V30 3896 C 357.639 -4.69179 -2.54375 0
M  V30 3897 O 357.862 -4.31895 -3.72589 0
M  V30 3898 O 356.796 -5.58108 -2.25386 0
M  V30 3899 H 360.622 -3.03353 -0.145149 0
M  V30 3900 H 358.207 -1.49399 -0.00569476 0
M  V30 3901 H 360.089 -3.33209 -2.57972 0
M  V30 3902 H 358.764 -2.14653 -2.42293 0
M  V30 3903 H 357.671 -3.67798 -0.683774 0
M  V30 3904 H 359.004 -4.83545 -0.918985 0
M  V30 3905 N 360.656 0.0484629 -1.57525 0
M  V30 3906 C 361.881 0.759177 -1.93006 0
M  V30 3907 C 362.306 1.69125 -0.823317 0
M  V30 3908 O 361.664 1.79931 0.222364 0
M  V30 3909 C 361.712 1.50899 -3.27509 0
M  V30 3910 O 360.816 2.62112 -3.18388 0
M  V30 3911 H 360.157 0.205564 -0.631379 0
M  V30 3912 H 362.687 0.00972959 -2.04598 0
M  V30 3913 H 362.697 1.88317 -3.6194 0
M  V30 3914 H 361.372 0.825269 -4.0763 0
M  V30 3915 H 359.949 2.27379 -2.95556 0
M  V30 3916 N 362.134 1.5431 0.320358 0
M  V30 3917 C 363.545 1.63872 0.894594 0
M  V30 3918 C 363.896 0.534847 1.88769 0
M  V30 3919 O 363.021 -0.331732 2.13842 0
M  V30 3920 C 363.616 2.97049 1.62934 0
M  V30 3921 C 362.175 3.08796 2.15226 0
M  V30 3922 C 361.322 2.59456 0.978671 0
M  V30 3923 H 364.273 1.58398 0.0978544 0
M  V30 3924 H 364.294 2.87388 2.49376 0
M  V30 3925 H 363.806 3.7737 0.906302 0
M  V30 3926 H 361.907 2.33156 2.90636 0
M  V30 3927 H 362.02 4.14649 2.40006 0
M  V30 3928 H 360.384 2.1543 1.35875 0
M  V30 3929 H 361.167 3.42237 0.269895 0
M  V30 3930 N 363.613 -0.582584 1.46437 0
M  V30 3931 C 364.86 -1.34079 1.51753 0
M  V30 3932 C 365.188 -1.93762 0.169299 0
M  V30 3933 O 364.443 -1.76989 -0.835062 0
M  V30 3934 C 364.742 -2.48964 2.56421 0
M  V30 3935 C 364.408 -2.07273 4.00436 0
M  V30 3936 C 363.07 -1.95618 4.39644 0
M  V30 3937 C 365.422 -1.75111 4.90903 0
M  V30 3938 C 362.75 -1.5006 5.67185 0
M  V30 3939 C 365.102 -1.31032 6.18881 0
M  V30 3940 C 363.766 -1.17954 6.56996 0
M  V30 3941 H 363.036 -0.49063 0.555304 0
M  V30 3942 H 365.683 -0.656007 1.79913 0
M  V30 3943 H 363.988 -3.22889 2.21923 0
M  V30 3944 H 365.685 -3.07178 2.57765 0
M  V30 3945 H 362.275 -2.17279 3.69443 0
M  V30 3946 H 366.459 -1.83001 4.61329 0
M  V30 3947 H 361.715 -1.38577 5.95488 0
M  V30 3948 H 365.889 -1.052 6.88408 0
M  V30 3949 H 363.516 -0.824279 7.55718 0
M  V30 3950 N 365.091 -1.34144 -0.827227 0
M  V30 3951 C 366.021 -1.28005 -1.95287 0
M  V30 3952 C 367.002 -0.158321 -1.69362 0
M  V30 3953 O 368.187 -0.349987 -1.9102 0
M  V30 3954 C 365.317 -1.03036 -3.31664 0
M  V30 3955 C 364.271 -2.11628 -3.72019 0
M  V30 3956 C 363.597 -1.71854 -5.0633 0
M  V30 3957 C 364.897 -3.53417 -3.8457 0
M  V30 3958 H 366.591 -2.22187 -2.00682 0
M  V30 3959 H 364.137 -1.0696 -0.964135 0
M  V30 3960 H 366.09 -0.973863 -4.09993 0
M  V30 3961 H 364.814 -0.0529391 -3.26557 0
M  V30 3962 H 363.473 -2.16339 -2.95961 0
M  V30 3963 H 363.121 -0.727841 -4.97706 0
M  V30 3964 H 362.821 -2.44531 -5.34302 0
M  V30 3965 H 364.345 -1.67692 -5.87122 0
M  V30 3966 H 365.759 -3.51142 -4.5318 0
M  V30 3967 H 364.156 -4.24679 -4.2399 0
M  V30 3968 H 365.226 -3.91072 -2.86689 0
M  V30 3969 N 366.569 1.04691 -1.17803 0
M  V30 3970 C 367.818 1.77176 -0.963931 0
M  V30 3971 C 368.131 1.88888 0.508015 0
M  V30 3972 O 369.337 2.58164 0.840465 0
M  V30 3973 C 367.793 3.18518 -1.67555 0
M  V30 3974 C 367.401 3.14919 -3.18637 0
M  V30 3975 C 369.145 3.95424 -1.54402 0
M  V30 3976 C 367.052 4.51081 -3.82466 0
M  V30 3977 H 365.982 0.664116 -0.357023 0
M  V30 3978 H 368.633 1.17303 -1.4111 0
M  V30 3979 H 367.015 3.78748 -1.15613 0
M  V30 3980 H 368.189 2.64178 -3.77554 0
M  V30 3981 H 366.504 2.51512 -3.31859 0
M  V30 3982 H 369.101 4.96106 -1.99456 0
M  V30 3983 H 369.444 4.13343 -0.495329 0
M  V30 3984 H 369.977 3.41754 -2.0359 0
M  V30 3985 H 366.716 4.38368 -4.87354 0
M  V30 3986 H 366.236 5.01951 -3.28337 0
M  V30 3987 H 367.915 5.2001 -3.84965 0
M  V30 3988 N 368.047 0.979072 1.23499 0
M  V30 3989 C 368.977 0.537606 2.27227 0
M  V30 3990 C 369.958 -0.428539 1.64613 0
M  V30 3991 O 371.143 -0.322191 1.91509 0
M  V30 3992 C 368.273 -0.162052 3.46922 0
M  V30 3993 C 367.227 0.721242 4.21879 0
M  V30 3994 C 366.553 -0.110555 5.34586 0
M  V30 3995 C 367.853 2.01141 4.82016 0
M  V30 3996 H 369.547 1.40462 2.64406 0
M  V30 3997 H 367.093 0.67684 1.27102 0
M  V30 3998 H 369.046 -0.482192 4.18632 0
M  V30 3999 H 367.77 -1.06351 3.08799 0
M  V30 4000 H 366.429 1.02482 3.51984 0
M  V30 4001 H 366.077 -1.0125 4.92704 0
M  V30 4002 H 365.777 0.477325 5.85658 0
M  V30 4003 H 367.301 -0.425107 6.09118 0
M  V30 4004 H 368.715 1.75612 5.45741 0
M  V30 4005 H 367.112 2.54695 5.43369 0
M  V30 4006 H 368.182 2.69909 4.02836 0
M  V30 4007 N 369.525 -1.3858 0.750561 0
M  V30 4008 C 370.936 -1.82927 0.373438 0
M  V30 4009 C 371.287 -1.62634 -1.09748 0
M  V30 4010 O 370.412 -1.12588 -1.84805 0
M  V30 4011 C 371.007 -3.32088 0.671029 0
M  V30 4012 C 369.566 -3.74795 0.34722 0
M  V30 4013 C 368.713 -2.61391 0.92575 0
M  V30 4014 H 371.664 -1.27351 0.946958 0
M  V30 4015 H 371.685 -3.80465 -0.0518269 0
M  V30 4016 H 371.197 -3.46826 1.74164 0
M  V30 4017 H 369.298 -3.65638 -0.716933 0
M  V30 4018 H 369.411 -4.71667 0.840656 0
M  V30 4019 H 367.775 -2.52265 0.351327 0
M  V30 4020 H 368.558 -2.78929 2.00133 0
M  V30 4021 N 371.003 -0.499398 -1.49478 0
M  V30 4022 C 371.936 0.326491 -2.25852 0
M  V30 4023 C 372.914 0.971776 -1.30366 0
M  V30 4024 O 374.098 1.00219 -1.59651 0
M  V30 4025 C 371.225 1.45969 -3.05632 0
M  V30 4026 C 370.271 0.928938 -4.16261 0
M  V30 4027 S 371.104 -0.179012 -5.35201 0
M  V30 4028 C 372.26 0.957389 -6.18534 0
M  V30 4029 H 372.493 -0.321746 -2.95554 0
M  V30 4030 H 370.026 -0.284674 -1.51753 0
M  V30 4031 H 371.984 2.109 -3.52181 0
M  V30 4032 H 370.645 2.07953 -2.35402 0
M  V30 4033 H 369.838 1.77813 -4.71592 0
M  V30 4034 H 369.44 0.356869 -3.72293 0
M  V30 4035 H 371.732 1.86296 -6.51383 0
M  V30 4036 H 372.675 0.442733 -7.06715 0
M  V30 4037 H 373.083 1.224 -5.5107 0
M  V30 4038 N 372.481 1.55866 -0.233164 0
M  V30 4039 C 373.709 2.02998 0.399905 0
M  V30 4040 C 374.124 1.11274 1.52524 0
M  V30 4041 O 373.481 0.124528 1.82075 0
M  V30 4042 C 373.532 3.4958 0.920639 0
M  V30 4043 O 373.253 4.37808 -0.159834 0
M  V30 4044 C 374.754 4.12411 1.62578 0
M  V30 4045 H 371.974 0.664006 0.0966281 0
M  V30 4046 H 374.518 2.0143 -0.353013 0
M  V30 4047 H 372.673 3.51727 1.62379 0
M  V30 4048 H 373.087 5.23981 0.23337 0
M  V30 4049 H 374.561 5.16711 1.94201 0
M  V30 4050 H 375.038 3.5809 2.54299 0
M  V30 4051 H 375.644 4.14148 0.967553 0
M  V30 4052 N 373.959 -0.0401083 1.57549 0
M  V30 4053 C 375.206 -0.733125 1.88763 0
M  V30 4054 C 375.534 -1.75946 0.829058 0
M  V30 4055 O 374.789 -1.94949 -0.171323 0
M  V30 4056 C 375.088 -1.44902 3.26708 0
M  V30 4057 C 374.754 -0.559707 4.47413 0
M  V30 4058 C 373.416 -0.314731 4.8017 0
M  V30 4059 C 375.768 0.0549743 5.21171 0
M  V30 4060 C 373.096 0.553886 5.8408 0
M  V30 4061 C 375.448 0.911229 6.26003 0
M  V30 4062 C 374.112 1.16577 6.57241 0
M  V30 4063 H 373.382 -0.268269 0.690733 0
M  V30 4064 H 376.029 0.00679408 1.91499 0
M  V30 4065 H 374.334 -2.26197 3.1991 0
M  V30 4066 H 376.031 -1.99058 3.48105 0
M  V30 4067 H 372.621 -0.760793 4.21794 0
M  V30 4068 H 376.805 -0.121344 4.96152 0
M  V30 4069 H 372.061 0.759518 6.06664 0
M  V30 4070 H 376.235 1.3941 6.82303 0
M  V30 4071 H 373.862 1.84058 7.37582 0
M  V30 4072 N 375.437 -1.54477 -0.31217 0
M  V30 4073 C 376.667 -1.76948 -1.06645 0
M  V30 4074 C 377.075 -0.523593 -1.81811 0
M  V30 4075 O 376.418 0.51578 -1.76311 0
M  V30 4076 C 376.48 -2.91668 -2.10166 0
M  V30 4077 C 376.144 -4.30165 -1.54296 0
M  V30 4078 C 377.141 -5.10603 -0.978793 0
M  V30 4079 C 374.826 -4.76738 -1.58196 0
M  V30 4080 C 376.82 -6.3573 -0.461048 0
M  V30 4081 C 374.507 -6.01831 -1.06034 0
M  V30 4082 C 375.505 -6.81161 -0.500844 0
M  V30 4083 O 375.193 -8.03899 0.0128958 0
M  V30 4084 H 374.925 -0.594088 -0.322546 0
M  V30 4085 H 377.479 -2.02213 -0.360441 0
M  V30 4086 H 375.709 -2.62001 -2.84416 0
M  V30 4087 H 377.398 -3.01817 -2.71406 0
M  V30 4088 H 378.164 -4.75771 -0.941651 0
M  V30 4089 H 374.043 -4.15027 -2.00683 0
M  V30 4090 H 377.587 -6.97596 -0.0236894 0
M  V30 4091 H 373.484 -6.36152 -1.09459 0
M  V30 4092 H 374.252 -8.18437 -0.101457 0
M  V30 4093 N 376.915 0.57481 -1.46744 0
M  V30 4094 C 377.865 1.67838 -1.54319 0
M  V30 4095 C 378.849 1.55759 -0.40346 0
M  V30 4096 O 380.041 1.6454 -0.652347 0
M  V30 4097 C 377.17 3.06624 -1.5439 0
M  V30 4098 C 376.256 3.23971 -2.73685 0
M  V30 4099 N 376.647 3.11447 -3.9854 0
M  V30 4100 C 374.945 3.5493 -2.70075 0
M  V30 4101 C 375.646 3.31011 -4.78337 0
M  V30 4102 N 374.622 3.56533 -4.10348 0
M  V30 4103 H 378.424 1.56698 -2.48642 0
M  V30 4104 H 375.938 0.779071 -1.42493 0
M  V30 4105 H 377.935 3.85839 -1.57905 0
M  V30 4106 H 376.595 3.1889 -0.611493 0
M  V30 4107 H 377.606 2.89145 -4.29669 0
M  V30 4108 H 374.283 3.73832 -1.85893 0
M  V30 4109 H 375.673 3.26445 -5.87268 0
M  V30 4110 N 378.394 1.34581 0.820102 0
M  V30 4111 C 379.64 1.27285 1.57881 0
M  V30 4112 C 379.973 -0.156137 1.93571 0
M  V30 4113 O 379.248 -1.10222 1.60254 0
M  V30 4114 C 379.531 2.16639 2.87645 0
M  V30 4115 C 379.384 3.68088 2.58517 0
M  V30 4116 C 380.703 2.05378 3.8924 0
M  V30 4117 H 377.822 0.463714 0.572833 0
M  V30 4118 H 380.464 1.64859 0.944539 0
M  V30 4119 H 378.614 1.84725 3.41773 0
M  V30 4120 H 380.286 4.10382 2.10676 0
M  V30 4121 H 378.529 3.89038 1.91917 0
M  V30 4122 H 379.2 4.2598 3.51063 0
M  V30 4123 H 381.676 2.33404 3.44473 0
M  V30 4124 H 380.552 2.7012 4.77835 0
M  V30 4125 H 380.813 1.0316 4.29896 0
M  V30 4126 N 379.872 -1.04064 1.18357 0
M  V30 4127 C 380.802 -2.14001 0.934113 0
M  V30 4128 C 381.783 -1.69616 -0.128186 0
M  V30 4129 O 382.968 -1.94185 0.0244093 0
M  V30 4130 C 380.098 -3.44253 0.459066 0
M  V30 4131 C 379.052 -4.02261 1.46185 0
M  V30 4132 C 378.378 -5.27992 0.844322 0
M  V30 4133 C 379.678 -4.38432 2.83856 0
M  V30 4134 H 381.372 -2.35127 1.85352 0
M  V30 4135 H 378.918 -1.12998 0.892604 0
M  V30 4136 H 380.871 -4.20522 0.271907 0
M  V30 4137 H 379.595 -3.22813 -0.495912 0
M  V30 4138 H 378.254 -3.28074 1.63595 0
M  V30 4139 H 377.902 -5.02862 -0.117845 0
M  V30 4140 H 377.602 -5.67765 1.51384 0
M  V30 4141 H 379.126 -6.06938 0.667693 0
M  V30 4142 H 380.54 -5.05688 2.70098 0
M  V30 4143 H 378.937 -4.89254 3.47491 0
M  V30 4144 H 380.007 -3.4826 3.37406 0
M  V30 4145 N 381.35 -0.985608 -1.22978 0
M  V30 4146 C 382.627 -0.573599 -1.87001 0
M  V30 4147 C 383.007 0.949213 -1.88555 0
M  V30 4148 O 382.355 1.82811 -1.37086 0
M  V30 4149 C 382.565 -1.18564 -3.28243 0
M  V30 4150 C 383.913 -1.28163 -4.04796 0
M  V30 4151 O 384.937 -1.13949 -3.37482 0
M  V30 4152 O 383.796 -1.50832 -5.25273 0
M  V30 4153 H 380.89 -0.193868 -0.803955 0
M  V30 4154 H 383.436 -1.08102 -1.30813 0
M  V30 4155 H 382.208 -2.22758 -3.21706 0
M  V30 4156 H 381.831 -0.663363 -3.92027 0
M  V30 4157 N 382.828 1.3818 -0.7579 0
M  V30 4158 C 383.738 2.3421 -0.135247 0
M  V30 4159 C 384.754 1.59487 0.695683 0
M  V30 4160 O 385.93 1.91657 0.618832 0
M  V30 4161 C 382.995 3.3862 0.744139 0
M  V30 4162 C 382.056 4.2918 -0.101658 0
M  V30 4163 C 381.289 5.28603 0.735851 0
M  V30 4164 O 381.512 5.35166 1.97366 0
M  V30 4165 O 380.446 6.01707 0.152372 0
M  V30 4166 H 384.272 2.8916 -0.928436 0
M  V30 4167 H 381.857 1.40101 -0.518855 0
M  V30 4168 H 383.739 4.02539 1.2466 0
M  V30 4169 H 382.414 2.86019 1.51575 0
M  V30 4170 H 381.321 3.68407 -0.650167 0
M  V30 4171 H 382.654 4.85048 -0.836024 0
M  V30 4172 N 384.306 0.507319 1.49211 0
M  V30 4173 C 385.534 -0.0315749 2.06876 0
M  V30 4174 C 385.949 -1.30241 1.36685 0
M  V30 4175 O 385.306 -1.76937 0.447152 0
M  V30 4176 C 385.357 -0.282627 3.60393 0
M  V30 4177 O 385.078 0.937835 4.27944 0
M  V30 4178 C 386.579 -0.864453 4.3479 0
M  V30 4179 H 383.799 0.0233048 0.670595 0
M  V30 4180 H 386.343 0.706484 1.91909 0
M  V30 4181 H 384.498 -0.97068 3.75042 0
M  V30 4182 H 384.912 0.704567 5.19746 0
M  V30 4183 H 386.386 -0.989664 5.43056 0
M  V30 4184 H 386.863 -1.86382 3.97692 0
M  V30 4185 H 387.469 -0.213672 4.24763 0
M  V30 4186 N 385.784 -1.5574 0.241426 0
M  V30 4187 C 387.009 -2.0366 -0.392111 0
M  V30 4188 C 387.434 -1.11969 -1.51144 0
M  V30 4189 O 386.792 -0.111594 -1.80956 0
M  V30 4190 C 386.84 -3.49638 -0.882371 0
M  V30 4191 O 385.944 -3.6108 -1.99235 0
M  V30 4192 H 385.285 -0.658379 -0.0862122 0
M  V30 4193 H 387.815 -2.01302 0.365881 0
M  V30 4194 H 387.825 -3.90351 -1.18702 0
M  V30 4195 H 386.5 -4.15852 -0.0632361 0
M  V30 4196 H 385.077 -3.32262 -1.69282 0
M  V30 4197 N 387.262 0.0317525 -1.57568 0
M  V30 4198 C 388.673 0.578692 -1.77505 0
M  V30 4199 C 389.024 1.75749 -0.872164 0
M  V30 4200 O 388.149 2.16298 -0.0663106 0
M  V30 4201 C 388.744 1.05658 -3.21904 0
M  V30 4202 C 387.303 1.54906 -3.43047 0
M  V30 4203 C 386.45 0.485939 -2.73009 0
M  V30 4204 H 389.401 -0.194475 -1.57504 0
M  V30 4205 H 389.422 1.92404 -3.28269 0
M  V30 4206 H 388.934 0.198422 -3.87592 0
M  V30 4207 H 387.035 2.42915 -2.82529 0
M  V30 4208 H 387.148 1.59841 -4.5165 0
M  V30 4209 H 385.512 0.940354 -2.36705 0
M  V30 4210 H 386.295 -0.362709 -3.41379 0
M  V30 4211 N 388.74 1.54641 0.303973 0
M  V30 4212 C 389.67 1.88386 1.3796 0
M  V30 4213 C 390.651 0.742485 1.5304 0
M  V30 4214 O 391.836 0.997959 1.66597 0
M  V30 4215 C 388.966 2.12854 2.74427 0
M  V30 4216 C 387.92 3.28702 2.74115 0
M  V30 4217 C 387.246 3.38582 4.13844 0
M  V30 4218 C 388.546 4.65881 2.3612 0
M  V30 4219 H 390.24 2.78474 1.09966 0
M  V30 4220 H 387.786 1.33988 0.527556 0
M  V30 4221 H 389.739 2.35047 3.49758 0
M  V30 4222 H 388.463 1.19535 3.03939 0
M  V30 4223 H 387.122 3.06428 2.0124 0
M  V30 4224 H 386.77 2.42784 4.40528 0
M  V30 4225 H 386.47 4.16453 4.14537 0
M  V30 4226 H 387.994 3.63031 4.90959 0
M  V30 4227 H 389.408 4.87823 3.01167 0
M  V30 4228 H 387.805 5.46444 2.48031 0
M  V30 4229 H 388.875 4.66799 1.3125 0
M  V30 4230 N 390.218 -0.567019 1.47046 0
M  V30 4231 C 391.634 -0.891975 1.32348 0
M  V30 4232 C 391.834 -1.99154 0.306616 0
M  V30 4233 O 390.89 -2.50883 -0.28532 0
M  V30 4234 C 392.203 -1.29449 2.7141 0
M  V30 4235 C 393.751 -1.40646 2.79621 0
M  V30 4236 C 394.226 -1.84257 4.19301 0
M  V30 4237 N 395.717 -1.91424 4.21795 0
M  V30 4238 C 396.452 -2.26476 5.26779 0
M  V30 4239 N 395.948 -2.60211 6.42077 0
M  V30 4240 N 397.741 -2.27166 5.14152 0
M  V30 4241 H 389.892 0.159074 2.11803 0
M  V30 4242 H 392.155 0.00849752 0.947962 0
M  V30 4243 H 391.861 -0.560448 3.47206 0
M  V30 4244 H 391.735 -2.25273 3.02542 0
M  V30 4245 H 394.122 -2.13133 2.04104 0
M  V30 4246 H 394.203 -0.430339 2.52154 0
M  V30 4247 H 393.847 -1.12343 4.95319 0
M  V30 4248 H 393.777 -2.82855 4.44185 0
M  V30 4249 H 396.268 -1.6778 3.38612 0
M  V30 4250 H 396.581 -2.85956 7.17948 0
M  V30 4251 H 394.926 -2.57813 6.45413 0
M  V30 4252 H 398.117 -2.00244 4.23107 0
M  V30 4253 H 398.29 -2.54154 5.96079 0
M  V30 4254 N 391.696 -1.35014 -0.812953 0
M  V30 4255 C 392.973 -1.18502 -1.55617 0
M  V30 4256 C 393.353 0.238421 -2.09749 0
M  V30 4257 O 392.701 1.2411 -1.91857 0
M  V30 4258 C 392.911 -2.24783 -2.66971 0
M  V30 4259 C 394.259 -2.60268 -3.35478 0
M  V30 4260 O 395.283 -2.23648 -2.77236 0
M  V30 4261 O 394.142 -3.2321 -4.40678 0
M  V30 4262 H 391.236 -0.459984 -0.687272 0
M  V30 4263 H 393.782 -1.46677 -0.853464 0
M  V30 4264 H 392.554 -3.20284 -2.24798 0
M  V30 4265 H 392.177 -1.97841 -3.44884 0
M  V30 4266 N 393.175 1.03435 -1.18907 0
M  V30 4267 C 394.105 2.13503 -0.945448 0
M  V30 4268 C 395.086 1.69682 0.119189 0
M  V30 4269 O 396.271 1.94169 -0.034707 0
M  V30 4270 C 393.401 3.44004 -0.477316 0
M  V30 4271 C 392.355 4.0148 -1.48316 0
M  V30 4272 C 391.681 5.27537 -0.872311 0
M  V30 4273 C 392.981 4.36921 -2.86177 0
M  V30 4274 H 394.675 2.34141 -1.86597 0
M  V30 4275 H 392.221 1.12523 -0.898584 0
M  V30 4276 H 394.174 4.20372 -0.294204 0
M  V30 4277 H 392.898 3.23072 0.478786 0
M  V30 4278 H 391.557 3.27201 -1.65332 0
M  V30 4279 H 391.205 5.02917 0.0911752 0
M  V30 4280 H 390.905 5.66954 -1.54393 0
M  V30 4281 H 392.429 6.06576 -0.699871 0
M  V30 4282 H 393.843 5.04248 -2.72776 0
M  V30 4283 H 392.24 4.87405 -3.50081 0
M  V30 4284 H 393.31 3.46466 -3.39248 0
M  V30 4285 N 394.653 0.992116 1.22453 0
M  V30 4286 C 395.881 0.685944 1.95198 0
M  V30 4287 C 396.296 -0.749233 1.73297 0
M  V30 4288 O 395.653 -1.50549 1.03156 0
M  V30 4289 C 395.704 0.981395 3.47924 0
M  V30 4290 O 395.425 2.36018 3.6909 0
M  V30 4291 C 396.926 0.692815 4.37853 0
M  V30 4292 H 394.146 0.253821 0.621141 0
M  V30 4293 H 396.69 1.32668 1.55626 0
M  V30 4294 H 394.845 0.386481 3.85467 0
M  V30 4295 H 395.259 2.45884 4.63294 0
M  V30 4296 H 396.733 0.949818 5.43767 0
M  V30 4297 H 397.21 -0.373181 4.37612 0
M  V30 4298 H 397.816 1.26874 4.05935 0
M  V30 4299 N 396.131 -1.37776 0.765217 0
M  V30 4300 C 397.542 -1.82521 0.392819 0
M  V30 4301 C 397.893 -1.63789 -1.08017 0
M  V30 4302 O 397.018 -1.14542 -1.83601 0
M  V30 4303 C 397.613 -3.31358 0.706214 0
M  V30 4304 C 396.172 -3.74406 0.386952 0
M  V30 4305 C 395.319 -2.60394 0.953422 0
M  V30 4306 H 398.27 -1.2634 0.960412 0
M  V30 4307 H 398.291 -3.80498 -0.0114706 0
M  V30 4308 H 397.803 -3.44959 1.77833 0
M  V30 4309 H 395.904 -3.66377 -0.678112 0
M  V30 4310 H 396.017 -4.70749 0.890636 0
M  V30 4311 H 394.381 -2.51878 0.378064 0
M  V30 4312 H 395.164 -2.76791 2.03081 0
M  V30 4313 N 397.609 -0.515225 -1.4894 0
M  V30 4314 C 398.541 0.292481 -2.27326 0
M  V30 4315 C 399.554 0.917838 -1.3446 0
M  V30 4316 O 400.743 0.798772 -1.5963 0
M  V30 4317 C 397.843 1.42803 -3.07344 0
M  V30 4318 C 397.016 0.907347 -4.27885 0
M  V30 4319 C 396.075 1.92222 -4.89834 0
M  V30 4320 O 395.101 1.48506 -5.49486 0
M  V30 4321 N 396.303 3.25355 -4.80754 0
M  V30 4322 H 399.068 -0.379721 -2.97285 0
M  V30 4323 H 396.629 -0.348638 -1.58102 0
M  V30 4324 H 398.621 2.10481 -3.45658 0
M  V30 4325 H 397.191 2.00414 -2.39902 0
M  V30 4326 H 396.411 0.0550218 -3.94162 0
M  V30 4327 H 397.699 0.538108 -5.05946 0
M  V30 4328 H 397.097 3.6355 -4.33414 0
M  V30 4329 H 395.654 3.88707 -5.23211 0
M  V30 4330 N 399.087 1.5561 -0.249682 0
M  V30 4331 C 400.035 2.22894 0.664906 0
M  V30 4332 C 401.029 1.21743 1.17792 0
M  V30 4333 O 402.235 1.39748 1.13449 0
M  V30 4334 H 398.61 0.715022 0.232912 0
M  V30 4335 H 400.581 2.98307 0.0742998 0
M  V30 4336 C 399.33 2.94424 1.84959 0
M  V30 4337 H 398.653 3.72031 1.46399 0
M  V30 4338 H 400.093 3.44862 2.4667 0
M  V30 4339 C 398.552 1.98454 2.72245 0
M  V30 4340 O 399.082 1.51939 3.71857 0
M  V30 4341 N 397.288 1.65496 2.38871 0
M  V30 4342 H 396.835 2.03517 1.57919 0
M  V30 4343 H 396.793 1.0155 2.97548 0
M  V30 4344 N 400.565 -0.0233959 1.57583 0
M  V30 4345 C 401.495 -1.02162 2.09965 0
M  V30 4346 C 402.476 -1.3735 1.00344 0
M  V30 4347 O 403.661 -1.46135 1.27899 0
M  V30 4348 C 400.791 -2.32081 2.58371 0
M  V30 4349 C 399.745 -2.1112 3.72307 0
M  V30 4350 C 399.071 -3.46848 4.06941 0
M  V30 4351 C 400.371 -1.49276 5.00514 0
M  V30 4352 H 402.065 -0.585557 2.93618 0
M  V30 4353 H 399.611 -0.280218 1.41247 0
M  V30 4354 H 401.564 -3.02249 2.93639 0
M  V30 4355 H 400.288 -2.77758 1.71808 0
M  V30 4356 H 398.947 -1.43384 3.37397 0
M  V30 4357 H 398.595 -3.90184 3.17436 0
M  V30 4358 H 398.295 -3.33646 4.83688 0
M  V30 4359 H 399.819 -4.18369 4.44747 0
M  V30 4360 H 401.233 -2.09368 5.33702 0
M  V30 4361 H 399.63 -1.46632 5.8191 0
M  V30 4362 H 400.7 -0.459217 4.82721 0
M  V30 4363 N 402.043 -1.548 -0.295768 0
M  V30 4364 C 402.99 -1.86113 -1.36494 0
M  V30 4365 C 403.96 -0.7105 -1.50137 0
M  V30 4366 O 405.145 -0.959626 -1.64912 0
M  V30 4367 C 402.285 -2.11861 -2.72413 0
M  V30 4368 C 401.398 -3.39471 -2.67177 0
M  V30 4369 C 400.533 -3.55035 -3.95125 0
M  V30 4370 C 399.572 -4.76418 -3.84308 0
M  V30 4371 N 398.709 -4.8876 -5.04042 0
M  V30 4372 H 403.549 -2.77314 -1.09091 0
M  V30 4373 H 401.086 -1.37315 -0.52753 0
M  V30 4374 H 403.044 -2.24786 -3.51464 0
M  V30 4375 H 401.674 -1.2392 -2.98066 0
M  V30 4376 H 400.726 -3.35139 -1.79962 0
M  V30 4377 H 402.038 -4.28646 -2.55076 0
M  V30 4378 H 401.192 -3.67653 -4.82614 0
M  V30 4379 H 399.931 -2.64002 -4.10066 0
M  V30 4380 H 398.936 -4.63827 -2.95202 0
M  V30 4381 H 400.161 -5.68863 -3.70906 0
M  V30 4382 H 398.107 -4.00652 -5.19436 0
M  V30 4383 H 398.024 -5.71945 -4.94384 0
M  V30 4384 H 399.292 -5.0574 -5.93167 0
M  V30 4385 N 403.521 0.559213 -1.47345 0
M  V30 4386 C 404.431 1.69388 -1.62311 0
M  V30 4387 C 405.447 1.6648 -0.505993 0
M  V30 4388 O 406.623 1.85964 -0.773262 0
M  V30 4389 C 403.688 3.05894 -1.63185 0
M  V30 4390 C 402.749 3.19885 -2.86307 0
M  V30 4391 C 401.982 4.49879 -2.87131 0
M  V30 4392 O 402.205 5.35217 -1.97229 0
M  V30 4393 O 401.139 4.67618 -3.78968 0
M  V30 4394 H 404.965 1.59706 -2.58317 0
M  V30 4395 H 402.55 0.728989 -1.30407 0
M  V30 4396 H 404.432 3.87133 -1.66451 0
M  V30 4397 H 403.107 3.15964 -0.70345 0
M  V30 4398 H 402.014 2.38052 -2.88587 0
M  V30 4399 H 403.347 3.14718 -3.78435 0
M  V30 4400 N 404.999 1.35443 0.805782 0
M  V30 4401 C 405.946 1.28431 1.91766 0
M  V30 4402 C 406.916 0.156102 1.65365 0
M  V30 4403 O 408.101 0.339936 1.87747 0
M  V30 4404 C 405.241 1.06301 3.2832 0
M  V30 4405 C 404.354 2.2805 3.66902 0
M  V30 4406 C 403.489 1.99064 4.92491 0
M  V30 4407 C 402.528 3.16863 5.23703 0
M  V30 4408 N 401.665 2.87647 6.40471 0
M  V30 4409 H 406.505 2.23511 1.97096 0
M  V30 4410 H 404.042 1.11105 0.964054 0
M  V30 4411 H 406 0.915012 4.07042 0
M  V30 4412 H 404.63 0.148822 3.22457 0
M  V30 4413 H 403.682 2.53711 2.83434 0
M  V30 4414 H 404.994 3.1601 3.85927 0
M  V30 4415 H 404.148 1.81099 5.7904 0
M  V30 4416 H 402.887 1.0839 4.75503 0
M  V30 4417 H 401.892 3.35404 4.35642 0
M  V30 4418 H 403.117 4.08339 5.4262 0
M  V30 4419 H 401.063 1.99568 6.24907 0
M  V30 4420 H 400.98 3.69141 6.59751 0
M  V30 4421 H 402.248 2.73226 7.30047 0
M  V30 4422 N 406.477 -1.02803 1.19454 0
M  V30 4423 C 407.387 -2.14575 0.948408 0
M  V30 4424 C 408.403 -1.73757 -0.091871 0
M  V30 4425 O 409.579 -2.01185 0.0929654 0
M  V30 4426 C 406.644 -3.43202 0.491265 0
M  V30 4427 C 405.705 -3.98328 1.60103 0
M  V30 4428 C 404.938 -5.20816 1.16561 0
M  V30 4429 O 405.161 -5.70392 0.0295238 0
M  V30 4430 O 404.095 -5.68801 1.96849 0
M  V30 4431 H 407.921 -2.38202 1.88397 0
M  V30 4432 H 405.506 -1.12989 0.977433 0
M  V30 4433 H 407.388 -4.20687 0.245015 0
M  V30 4434 H 406.063 -3.21018 -0.415851 0
M  V30 4435 H 404.97 -3.22174 1.90144 0
M  V30 4436 H 406.303 -4.24879 2.48473 0
M  V30 4437 N 407.956 -0.998596 -1.21925 0
M  V30 4438 C 409.203 -0.677663 -1.90824 0
M  V30 4439 C 409.531 0.790905 -1.77693 0
M  V30 4440 O 408.786 1.58817 -1.14349 0
M  V30 4441 C 409.085 -1.03648 -3.42041 0
M  V30 4442 C 408.751 -2.49825 -3.75364 0
M  V30 4443 C 407.413 -2.8977 -3.8417 0
M  V30 4444 C 409.765 -3.44545 -3.91073 0
M  V30 4445 C 407.093 -4.23412 -4.06127 0
M  V30 4446 C 409.445 -4.77853 -4.14535 0
M  V30 4447 C 408.109 -5.17531 -4.21566 0
M  V30 4448 H 407.379 -0.247975 -0.698276 0
M  V30 4449 H 410.026 -1.25584 -1.44571 0
M  V30 4450 H 408.331 -0.376457 -3.89987 0
M  V30 4451 H 410.028 -0.766113 -3.93614 0
M  V30 4452 H 406.618 -2.17866 -3.69097 0
M  V30 4453 H 410.802 -3.14853 -3.83642 0
M  V30 4454 H 406.058 -4.53734 -4.09799 0
M  V30 4455 H 410.232 -5.51189 -4.25633 0
M  V30 4456 H 407.859 -6.21102 -4.38333 0
M  V30 4457 N 409.434 1.37368 -0.772513 0
M  V30 4458 C 410.344 2.34053 -0.160081 0
M  V30 4459 C 411.36 1.60216 0.678728 0
M  V30 4460 O 412.536 1.92303 0.59847 0
M  V30 4461 C 409.601 3.3939 0.708182 0
M  V30 4462 C 408.662 4.29048 -0.147172 0
M  V30 4463 C 407.895 5.29354 0.679744 0
M  V30 4464 O 408.118 5.3723 1.91678 0
M  V30 4465 O 407.052 6.01835 0.0885444 0
M  V30 4466 H 410.878 2.88159 -0.959053 0
M  V30 4467 H 408.463 1.39543 -0.533685 0
M  V30 4468 H 410.345 4.03839 1.20384 0
M  V30 4469 H 409.02 2.8761 1.48533 0
M  V30 4470 H 407.927 3.67697 -0.689205 0
M  V30 4471 H 409.26 4.84134 -0.887423 0
M  V30 4472 N 410.912 0.523116 1.48665 0
M  V30 4473 C 411.842 -0.23231 2.32342 0
M  V30 4474 C 412.823 -0.941637 1.41659 0
M  V30 4475 O 414.008 -0.928751 1.70552 0
M  V30 4476 C 411.138 -1.28387 3.22698 0
M  V30 4477 C 410.092 -0.693098 4.22351 0
M  V30 4478 C 409.418 -1.8468 5.01794 0
M  V30 4479 C 410.718 0.33063 5.21252 0
M  V30 4480 H 412.412 0.466192 2.95748 0
M  V30 4481 H 409.958 0.225643 1.42221 0
M  V30 4482 H 411.911 -1.82024 3.80059 0
M  V30 4483 H 410.635 -2.01186 2.57278 0
M  V30 4484 H 409.294 -0.178299 3.66166 0
M  V30 4485 H 408.942 -2.56301 4.32804 0
M  V30 4486 H 408.642 -1.45747 5.69238 0
M  V30 4487 H 410.166 -2.38709 5.62006 0
M  V30 4488 H 411.58 -0.118407 5.73178 0
M  V30 4489 H 409.977 0.636974 5.9671 0
M  V30 4490 H 411.047 1.23883 4.68808 0
M  V30 4491 N 412.39 -1.55475 0.257931 0
M  V30 4492 C 413.636 -1.99502 -0.364266 0
M  V30 4493 C 413.969 -1.146 -1.56782 0
M  V30 4494 O 413.244 -0.211968 -1.93342 0
M  V30 4495 C 413.527 -3.51917 -0.763333 0
M  V30 4496 C 413.38 -4.4758 0.446371 0
M  V30 4497 C 414.699 -4.09742 -1.60623 0
M  V30 4498 H 411.818 -0.725277 -0.130929 0
M  V30 4499 H 414.46 -1.8653 0.361446 0
M  V30 4500 H 412.61 -3.63101 -1.38166 0
M  V30 4501 H 414.282 -4.48362 1.08487 0
M  V30 4502 H 412.525 -4.19947 1.08753 0
M  V30 4503 H 413.196 -5.51862 0.123645 0
M  V30 4504 H 415.672 -4.01727 -1.08418 0
M  V30 4505 H 414.548 -5.16631 -1.85429 0
M  V30 4506 H 414.809 -3.58889 -2.58169 0
M  V30 4507 N 413.868 0.0150385 -1.57593 0
M  V30 4508 C 415.114 0.704043 -1.90187 0
M  V30 4509 C 415.447 1.74249 -0.857366 0
M  V30 4510 O 414.722 1.94092 0.125843 0
M  V30 4511 C 415.005 1.36087 -3.33395 0
M  V30 4512 C 414.858 0.334981 -4.48551 0
M  V30 4513 C 416.177 2.29112 -3.7576 0
M  V30 4514 H 413.296 0.254475 -0.691673 0
M  V30 4515 H 415.938 -0.0331678 -1.89971 0
M  V30 4516 H 414.088 1.98922 -3.3371 0
M  V30 4517 H 415.76 -0.292534 -4.60372 0
M  V30 4518 H 414.003 -0.344325 -4.32431 0
M  V30 4519 H 414.674 0.833316 -5.45674 0
M  V30 4520 H 417.15 1.76308 -3.76902 0
M  V30 4521 H 416.026 2.72043 -4.76743 0
M  V30 4522 H 416.287 3.16385 -3.08793 0
M  V30 4523 N 415.346 1.54954 0.287554 0
M  V30 4524 C 416.276 1.89839 1.35954 0
M  V30 4525 C 417.257 0.758675 1.52244 0
M  V30 4526 O 418.442 1.01557 1.65529 0
M  V30 4527 C 415.572 2.15753 2.72154 0
M  V30 4528 C 414.526 3.3159 2.70614 0
M  V30 4529 C 413.852 3.42952 4.10229 0
M  V30 4530 C 415.152 4.68359 2.31165 0
M  V30 4531 H 416.846 2.79625 1.07007 0
M  V30 4532 H 414.392 1.3454 0.513316 0
M  V30 4533 H 416.345 2.38743 3.47246 0
M  V30 4534 H 415.069 1.22752 3.02654 0
M  V30 4535 H 413.728 3.08545 1.97979 0
M  V30 4536 H 413.376 2.47443 4.37928 0
M  V30 4537 H 413.076 4.20826 4.10097 0
M  V30 4538 H 414.6 3.68218 4.87081 0
M  V30 4539 H 416.014 4.9099 2.95976 0
M  V30 4540 H 414.411 5.49044 2.42221 0
M  V30 4541 H 415.481 4.68165 1.26291 0
M  V30 4542 N 416.824 -0.551391 1.4764 0
M  V30 4543 C 417.754 -1.66757 1.63445 0
M  V30 4544 C 418.735 -1.63077 0.483742 0
M  V30 4545 O 419.92 -1.80607 0.71377 0
M  V30 4546 C 417.05 -3.05387 1.65396 0
M  V30 4547 C 416.004 -3.23918 2.79752 0
M  V30 4548 C 415.33 -4.63393 2.66779 0
M  V30 4549 C 416.63 -3.08735 4.21284 0
M  V30 4550 H 418.324 -1.53786 2.56886 0
M  V30 4551 H 415.87 -0.738415 1.23626 0
M  V30 4552 H 417.823 -3.83325 1.75043 0
M  V30 4553 H 416.547 -3.19332 0.685195 0
M  V30 4554 H 415.206 -2.48391 2.69625 0
M  V30 4555 H 414.854 -4.74144 1.67918 0
M  V30 4556 H 414.554 -4.7674 3.43501 0
M  V30 4557 H 416.078 -5.43458 2.78364 0
M  V30 4558 H 417.492 -3.76484 4.32357 0
M  V30 4559 H 415.889 -3.33588 4.98838 0
M  V30 4560 H 416.959 -2.0541 4.39243 0
M  V30 4561 N 418.302 -1.35869 -0.798587 0
M  V30 4562 C 419.25 -1.29491 -1.93222 0
M  V30 4563 C 420.244 -0.18836 -1.6835 0
M  V30 4564 O 421.45 -0.354822 -1.76468 0
M  V30 4565 H 417.825 -0.402901 -0.63496 0
M  V30 4566 H 419.796 -2.25247 -1.9572 0
M  V30 4567 C 418.545 -1.09184 -3.30112 0
M  V30 4568 H 417.868 -1.93574 -3.49813 0
M  V30 4569 H 419.308 -1.08766 -4.09812 0
M  V30 4570 C 417.767 0.203959 -3.36282 0
M  V30 4571 O 418.297 1.19699 -3.83451 0
M  V30 4572 N 416.503 0.245488 -2.89561 0
M  V30 4573 H 416.05 -0.563223 -2.51367 0
M  V30 4574 H 416.008 1.11219 -2.94071 0
M  V30 4575 N 419.78 1.02168 -1.19998 0
M  V30 4576 C 420.743 2.08765 -0.94604 0
M  V30 4577 C 421.743 1.60618 0.0763846 0
M  V30 4578 O 422.933 1.73472 -0.159135 0
M  V30 4579 C 420.065 3.38262 -0.423255 0
M  V30 4580 H 421.258 2.32726 -1.89153 0
M  V30 4581 H 418.811 1.1889 -1.01464 0
M  V30 4582 H 419.546 3.19974 0.527938 0
M  V30 4583 H 419.331 3.74532 -1.16053 0
M  V30 4584 H 420.821 4.16759 -0.264911 0
M  V30 4585 N 421.258 1.00505 1.21394 0
M  V30 4586 C 422.486 0.706609 1.9446 0
M  V30 4587 C 422.901 -0.73081 1.74082 0
M  V30 4588 O 422.258 -1.49446 1.04747 0
M  V30 4589 C 422.309 1.01824 3.46863 0
M  V30 4590 O 422.03 2.39919 3.66566 0
M  V30 4591 C 423.531 0.739216 4.37093 0
M  V30 4592 H 420.751 0.260394 0.618414 0
M  V30 4593 H 423.295 1.34311 1.54211 0
M  V30 4594 H 421.45 0.427343 3.85036 0
M  V30 4595 H 421.864 2.50784 4.6066 0
M  V30 4596 H 423.338 1.00744 5.42729 0
M  V30 4597 H 423.815 -0.326746 4.37983 0
M  V30 4598 H 424.421 1.31173 4.04566 0
M  V30 4599 N 422.737 -1.36956 0.779787 0
M  V30 4600 C 423.983 -1.99787 0.348281 0
M  V30 4601 C 424.316 -1.61756 -1.07465 0
M  V30 4602 O 423.591 -0.867639 -1.74075 0
M  V30 4603 C 423.874 -3.56597 0.50104 0
M  V30 4604 C 423.727 -4.04513 1.96697 0
M  V30 4605 C 425.046 -4.40008 -0.0898097 0
M  V30 4606 H 422.165 -0.725796 0.128022 0
M  V30 4607 H 424.807 -1.62514 0.984331 0
M  V30 4608 H 422.957 -3.88479 -0.0404347 0
M  V30 4609 H 424.629 -3.83161 2.56876 0
M  V30 4610 H 422.872 -3.56408 2.47297 0
M  V30 4611 H 423.543 -5.1352 2.02486 0
M  V30 4612 H 426.019 -4.14431 0.372293 0
M  V30 4613 H 424.895 -5.4888 0.0471605 0
M  V30 4614 H 425.156 -4.26035 -1.18096 0
M  V30 4615 N 424.215 -0.530993 -1.48385 0
M  V30 4616 C 425.125 0.23503 -2.3342 0
M  V30 4617 C 426.141 0.93801 -1.46552 0
M  V30 4618 O 427.317 0.912745 -1.7953 0
M  V30 4619 C 424.382 1.26778 -3.22689 0
M  V30 4620 C 423.443 0.575038 -4.25431 0
M  V30 4621 C 422.676 1.55858 -5.10435 0
M  V30 4622 O 422.899 2.79129 -4.97437 0
M  V30 4623 O 421.833 1.09742 -5.91811 0
M  V30 4624 H 425.659 -0.461794 -3.00169 0
M  V30 4625 H 423.244 -0.291903 -1.46521 0
M  V30 4626 H 425.126 1.86457 -3.77904 0
M  V30 4627 H 423.801 1.94699 -2.586 0
M  V30 4628 H 422.708 -0.0622782 -3.74048 0
M  V30 4629 H 424.041 -0.062253 -4.92161 0
M  V30 4630 N 425.693 1.55336 -0.266172 0
M  V30 4631 C 426.918 2.04258 0.359661 0
M  V30 4632 C 427.343 1.14359 1.49344 0
M  V30 4633 O 426.701 0.140369 1.80756 0
M  V30 4634 C 426.749 3.50997 0.826635 0
M  V30 4635 O 425.853 3.64204 1.93466 0
M  V30 4636 H 425.194 0.659668 0.075727 0
M  V30 4637 H 427.724 2.00694 -0.39786 0
M  V30 4638 H 427.734 3.9219 1.12477 0
M  V30 4639 H 426.409 4.159 -0.00293032 0
M  V30 4640 H 424.986 3.34913 1.63974 0
M  V30 4641 N 427.171 -0.0066808 1.57599 0
M  V30 4642 C 428.399 -0.704087 1.94551 0
M  V30 4643 C 428.814 -1.67677 0.867746 0
M  V30 4644 O 428.171 -1.8185 -0.153925 0
M  V30 4645 C 428.222 -1.44177 3.31505 0
M  V30 4646 O 427.943 -0.508097 4.35144 0
M  V30 4647 C 429.444 -2.23429 3.82876 0
M  V30 4648 H 426.664 -0.196523 0.641576 0
M  V30 4649 H 429.208 0.042453 2.04456 0
M  V30 4650 H 427.363 -2.13999 3.22929 0
M  V30 4651 H 427.777 -1.02782 5.14331 0
M  V30 4652 H 429.251 -2.70552 4.8115 0
M  V30 4653 H 429.728 -3.05818 3.15233 0
M  V30 4654 H 430.334 -1.58636 3.94607 0
M  V30 4655 N 428.649 -1.55105 -0.279332 0
M  V30 4656 C 429.874 -1.7976 -1.03446 0
M  V30 4657 C 430.299 -0.565952 -1.79384 0
M  V30 4658 O 429.657 0.484259 -1.74713 0
M  V30 4659 C 429.705 -3.0179 -1.97371 0
M  V30 4660 O 428.809 -2.76432 -3.06038 0
M  V30 4661 H 428.15 -0.594334 -0.29608 0
M  V30 4662 H 430.68 -2.02235 -0.310165 0
M  V30 4663 H 430.69 -3.30351 -2.39441 0
M  V30 4664 H 429.365 -3.91085 -1.4151 0
M  V30 4665 H 427.942 -2.58949 -2.68328 0
M  V30 4666 N 430.127 0.543554 -1.4793 0
M  V30 4667 C 431.09 1.63156 -1.60975 0
M  V30 4668 C 432.09 1.53346 -0.483899 0
M  V30 4669 O 433.28 1.5726 -0.749339 0
M  V30 4670 C 430.412 3.02743 -1.56716 0
M  V30 4671 H 431.605 1.52934 -2.57975 0
M  V30 4672 H 429.158 0.764557 -1.36324 0
M  V30 4673 H 429.893 3.18484 -0.611418 0
M  V30 4674 H 429.678 3.11272 -2.38438 0
M  V30 4675 H 431.168 3.81871 -1.6901 0
M  V30 4676 N 431.605 1.3629 0.791371 0
M  V30 4677 C 432.851 1.30605 1.55146 0
M  V30 4678 C 433.184 -0.115042 1.93859 0
M  V30 4679 O 432.459 -1.06798 1.62556 0
M  V30 4680 C 432.742 2.22692 2.82985 0
M  V30 4681 C 432.595 3.73489 2.50651 0
M  V30 4682 C 433.914 2.13588 3.84796 0
M  V30 4683 H 431.033 0.475761 0.562868 0
M  V30 4684 H 433.675 1.66825 0.909358 0
M  V30 4685 H 431.825 1.91933 3.37778 0
M  V30 4686 H 433.497 4.14758 2.01924 0
M  V30 4687 H 431.74 3.93021 1.83622 0
M  V30 4688 H 432.411 4.3333 3.41949 0
M  V30 4689 H 434.887 2.40659 3.39445 0
M  V30 4690 H 433.763 2.80195 4.71998 0
M  V30 4691 H 434.024 1.12256 4.27611 0
M  V30 4692 N 433.083 -1.0153 1.20538 0
M  V30 4693 C 434.323 -1.76689 1.02763 0
M  V30 4694 C 434.687 -1.87065 -0.432513 0
M  V30 4695 O 435.888 -2.58684 -0.730481 0
M  V30 4696 C 434.159 -3.14707 1.69393 0
M  V30 4697 S 435.718 -4.05886 1.66738 0
M  V30 4698 H 432.536 -0.608076 0.368463 0
M  V30 4699 H 435.138 -1.21558 1.53114 0
M  V30 4700 H 433.842 -3.04782 2.74838 0
M  V30 4701 H 433.373 -3.74913 1.19179 0
M  V30 4702 H 435.388 -4.91221 0.70117 0
M  V30 4703 N 434.561 -1.01147 -1.20859 0
M  V30 4704 C 435.493 -0.535546 -2.22855 0
M  V30 4705 C 436.506 0.379323 -1.58319 0
M  V30 4706 O 437.695 0.178489 -1.77605 0
M  V30 4707 C 434.795 0.240962 -3.38042 0
M  V30 4708 C 433.968 -0.674562 -4.32167 0
M  V30 4709 C 433.027 0.053467 -5.26173 0
M  V30 4710 O 432.053 -0.567339 -5.66366 0
M  V30 4711 N 433.255 1.32997 -5.65059 0
M  V30 4712 H 436.02 -1.41268 -2.64317 0
M  V30 4713 H 433.581 -0.888386 -1.35349 0
M  V30 4714 H 435.573 0.737115 -3.97931 0
M  V30 4715 H 434.143 1.01935 -2.95513 0
M  V30 4716 H 433.363 -1.35111 -3.70322 0
M  V30 4717 H 434.651 -1.2974 -4.91981 0
M  V30 4718 H 434.049 1.85536 -5.34409 0
M  V30 4719 H 432.606 1.77095 -6.2728 0
M  V30 4720 N 436.039 1.36541 -0.78704 0
M  V30 4721 C 437.264 2.0409 -0.369053 0
M  V30 4722 C 437.689 1.58957 1.00569 0
M  V30 4723 O 437.047 0.756926 1.64743 0
M  V30 4724 C 437.095 3.57924 -0.438466 0
M  V30 4725 O 436.199 4.08642 0.555479 0
M  V30 4726 H 435.54 0.645142 -0.157122 0
M  V30 4727 H 438.07 1.74545 -1.06749 0
M  V30 4728 H 438.08 4.06887 -0.301218 0
M  V30 4729 H 436.755 3.90127 -1.44132 0
M  V30 4730 H 435.332 3.70958 0.380088 0
M  V30 4731 N 437.518 0.538854 1.48102 0
M  V30 4732 C 438.934 0.19732 1.58376 0
M  V30 4733 C 439.134 -1.29971 1.5398 0
M  V30 4734 O 438.19 -2.07861 1.43352 0
M  V30 4735 C 439.503 0.807716 2.89649 0
M  V30 4736 C 441.051 0.77726 3.03196 0
M  V30 4737 C 441.526 1.36639 4.37143 0
M  V30 4738 N 443.017 1.32875 4.43732 0
M  V30 4739 C 443.752 1.7544 5.45901 0
M  V30 4740 N 443.248 2.25776 6.54979 0
M  V30 4741 N 445.041 1.66623 5.36836 0
M  V30 4742 H 437.192 1.5117 1.49202 0
M  V30 4743 H 439.455 0.629327 0.708979 0
M  V30 4744 H 439.161 1.85909 2.98548 0
M  V30 4745 H 439.035 0.289975 3.76084 0
M  V30 4746 H 441.422 -0.265374 2.93904 0
M  V30 4747 H 441.503 1.33256 2.18349 0
M  V30 4748 H 441.147 2.408 4.47189 0
M  V30 4749 H 441.077 0.786689 5.20691 0
M  V30 4750 H 443.568 0.96037 3.65493 0
M  V30 4751 H 443.881 2.56226 7.29087 0
M  V30 4752 H 442.226 2.29775 6.55918 0
M  V30 4753 H 445.417 1.27089 4.50517 0
M  V30 4754 H 445.59 2.00115 6.16326 0
M  V30 4755 N 438.996 -1.55193 0.274407 0
M  V30 4756 C 440.224 -2.03987 -0.345943 0
M  V30 4757 C 440.639 -1.15279 -1.4952 0
M  V30 4758 O 439.996 -0.172759 -1.8168 0
M  V30 4759 C 440.047 -3.51898 -0.827631 0
M  V30 4760 O 439.768 -4.37231 0.275855 0
M  V30 4761 C 441.269 -4.16577 -1.51587 0
M  V30 4762 H 438.489 -0.666335 -0.0789892 0
M  V30 4763 H 441.033 -2.00423 0.406294 0
M  V30 4764 H 439.188 -3.55909 -1.52996 0
M  V30 4765 H 439.602 -5.24415 -0.0943638 0
M  V30 4766 H 441.076 -5.21678 -1.80433 0
M  V30 4767 H 441.553 -3.64707 -2.44716 0
M  V30 4768 H 442.159 -4.16568 -0.857409 0
M  V30 4769 N 440.474 -0.00167713 -1.576 0
M  V30 4770 C 441.699 0.69739 -1.95323 0
M  V30 4771 C 442.124 1.6642 -0.876706 0
M  V30 4772 O 441.482 1.80548 0.165007 0
M  V30 4773 C 441.53 1.40403 -3.32144 0
M  V30 4774 O 440.634 2.5185 -3.26566 0
M  V30 4775 H 439.975 0.185373 -0.637599 0
M  V30 4776 H 442.505 -0.0553665 -2.04525 0
M  V30 4777 H 442.515 1.76707 -3.67748 0
M  V30 4778 H 441.19 0.695167 -4.10049 0
M  V30 4779 H 439.767 2.17861 -3.0264 0
M  V30 4780 N 441.952 1.55251 0.271103 0
M  V30 4781 C 443.182 1.79713 1.01916 0
M  V30 4782 C 443.59 0.571613 1.80359 0
M  V30 4783 O 442.933 -0.468853 1.77616 0
M  V30 4784 C 442.995 2.97138 2.02359 0
M  V30 4785 C 442.659 4.34104 1.42837 0
M  V30 4786 C 443.656 5.13019 0.843071 0
M  V30 4787 C 441.341 4.80765 1.455 0
M  V30 4788 C 443.335 6.36729 0.292333 0
M  V30 4789 C 441.022 6.0443 0.900402 0
M  V30 4790 C 442.02 6.8225 0.32007 0
M  V30 4791 O 441.708 8.03582 -0.226031 0
M  V30 4792 H 441.44 0.602431 0.306681 0
M  V30 4793 H 443.994 2.03097 0.306701 0
M  V30 4794 H 442.224 2.6945 2.77369 0
M  V30 4795 H 443.913 3.08907 2.63309 0
M  V30 4796 H 444.679 4.781 0.815178 0
M  V30 4797 H 440.558 4.20202 1.89609 0
M  V30 4798 H 444.102 6.97414 -0.161274 0
M  V30 4799 H 439.999 6.3883 0.925541 0
M  V30 4800 H 440.767 8.18418 -0.115572 0
M  V30 4801 N 443.43 -0.535701 1.48216 0
M  V30 4802 C 444.679 -1.28828 1.55197 0
M  V30 4803 C 444.992 -1.94263 0.228278 0
M  V30 4804 O 446.198 -2.70927 0.176278 0
M  V30 4805 C 444.654 -2.33727 2.73678 0
M  V30 4806 C 444.262 -1.74386 4.12666 0
M  V30 4807 C 446.006 -3.1003 2.89968 0
M  V30 4808 C 443.913 -2.77192 5.22416 0
M  V30 4809 H 442.843 -0.484484 0.577747 0
M  V30 4810 H 445.494 -0.56646 1.74538 0
M  V30 4811 H 443.876 -3.08919 2.4776 0
M  V30 4812 H 445.05 -1.05421 4.48579 0
M  V30 4813 H 443.365 -1.10595 4.01445 0
M  V30 4814 H 445.962 -3.86842 3.6913 0
M  V30 4815 H 446.305 -3.65542 1.9921 0
M  V30 4816 H 446.838 -2.41952 3.15759 0
M  V30 4817 H 443.577 -2.26507 6.15122 0
M  V30 4818 H 443.097 -3.44502 4.90998 0
M  V30 4819 H 444.776 -3.40285 5.50286 0
M  V30 4820 N 444.908 -1.36708 -0.784132 0
M  V30 4821 C 446.319 -1.27947 -1.35965 0
M  V30 4822 C 446.67 0.0784013 -1.96043 0
M  V30 4823 O 445.795 0.979989 -1.92938 0
M  V30 4824 C 446.39 -2.31689 -2.47195 0
M  V30 4825 C 444.949 -2.26601 -3.00548 0
M  V30 4826 C 444.096 -2.16184 -1.73666 0
M  V30 4827 H 447.047 -1.4751 -0.585358 0
M  V30 4828 H 447.068 -1.95638 -3.26352 0
M  V30 4829 H 446.58 -3.30506 -2.03439 0
M  V30 4830 H 444.681 -1.31268 -3.48711 0
M  V30 4831 H 444.794 -3.19508 -3.57004 0
M  V30 4832 H 443.158 -1.62524 -1.96107 0
M  V30 4833 H 443.941 -3.16896 -1.32031 0
M  V30 4834 N 446.386 1.0089 -1.21074 0
M  V30 4835 C 447.296 2.13039 -0.982425 0
M  V30 4836 C 448.312 1.73881 0.0642161 0
M  V30 4837 O 449.488 2.01012 -0.12496 0
M  V30 4838 C 446.553 3.42377 -0.545803 0
M  V30 4839 C 445.614 3.95731 -1.6642 0
M  V30 4840 C 444.847 5.18896 -1.24832 0
M  V30 4841 O 445.07 5.70273 -0.120265 0
M  V30 4842 O 444.004 5.65597 -2.05873 0
M  V30 4843 H 447.83 2.35175 -1.92163 0
M  V30 4844 H 445.415 1.1142 -0.995285 0
M  V30 4845 H 447.297 4.20244 -0.311912 0
M  V30 4846 H 445.972 3.21639 0.364727 0
M  V30 4847 H 444.879 3.19108 -1.95246 0
M  V30 4848 H 446.212 4.20872 -2.55201 0
M  V30 4849 N 447.864 1.01787 1.20321 0
M  V30 4850 C 448.774 0.598898 2.26827 0
M  V30 4851 C 449.79 -0.36418 1.70146 0
M  V30 4852 O 450.966 -0.224812 2.00141 0
M  V30 4853 C 448.031 -0.0549769 3.46656 0
M  V30 4854 C 447.092 0.954205 4.18561 0
M  V30 4855 C 446.325 0.331439 5.3267 0
M  V30 4856 O 446.548 -0.86851 5.63749 0
M  V30 4857 O 445.482 1.0488 5.92692 0
M  V30 4858 H 449.308 1.48562 2.64883 0
M  V30 4859 H 446.893 0.787434 1.26964 0
M  V30 4860 H 448.775 -0.420102 4.19301 0
M  V30 4861 H 447.45 -0.915876 3.10473 0
M  V30 4862 H 446.357 1.37072 3.48083 0
M  V30 4863 H 447.69 1.78511 4.58688 0
M  V30 4864 N 449.342 -1.36122 0.79427 0
M  V30 4865 C 450.591 -1.98361 0.365464 0
M  V30 4866 C 450.904 -1.6374 -1.06997 0
M  V30 4867 O 452.11 -2.19251 -1.60129 0
M  V30 4868 C 450.566 -3.54821 0.602496 0
M  V30 4869 C 450.174 -3.98362 2.04967 0
M  V30 4870 C 451.918 -4.2383 0.238437 0
M  V30 4871 C 449.825 -5.47619 2.2331 0
M  V30 4872 H 448.755 -0.742193 0.13291 0
M  V30 4873 H 451.406 -1.55354 0.976589 0
M  V30 4874 H 449.788 -3.95922 -0.078409 0
M  V30 4875 H 450.962 -3.68447 2.76737 0
M  V30 4876 H 449.277 -3.42206 2.37243 0
M  V30 4877 H 451.874 -5.33529 0.353705 0
M  V30 4878 H 452.217 -4.08264 -0.814006 0
M  V30 4879 H 452.75 -3.88108 0.872769 0
M  V30 4880 H 449.489 -5.68138 3.26955 0
M  V30 4881 H 449.009 -5.79145 1.5605 0
M  V30 4882 H 450.688 -6.13911 2.0426 0
M  V30 4883 N 450.82 -0.546701 -1.47814 0
M  V30 4884 C 452.05 -0.0232519 -2.06587 0
M  V30 4885 C 452.458 1.2712 -1.40133 0
M  V30 4886 O 451.801 1.77091 -0.488305 0
M  V30 4887 C 451.863 0.254117 -3.58601 0
M  V30 4888 C 451.527 -0.949331 -4.47031 0
M  V30 4889 C 452.524 -1.85216 -4.85789 0
M  V30 4890 C 450.209 -1.16104 -4.88697 0
M  V30 4891 C 452.203 -2.95047 -5.65001 0
M  V30 4892 C 449.89 -2.26247 -5.67676 0
M  V30 4893 C 450.888 -3.1555 -6.05737 0
M  V30 4894 O 450.576 -4.23784 -6.83127 0
M  V30 4895 H 450.308 -0.0380082 -0.674931 0
M  V30 4896 H 452.862 -0.756631 -1.90956 0
M  V30 4897 H 451.092 1.04168 -3.72406 0
M  V30 4898 H 452.781 0.72167 -3.99433 0
M  V30 4899 H 453.547 -1.70061 -4.54207 0
M  V30 4900 H 449.426 -0.475159 -4.58545 0
M  V30 4901 H 452.97 -3.64778 -5.94628 0
M  V30 4902 H 448.867 -2.41379 -5.98671 0
M  V30 4903 H 449.635 -4.21701 -7.01506 0
M  V30 4904 N 452.299 1.55045 -0.282633 0
M  V30 4905 C 453.545 2.0078 0.325436 0
M  V30 4906 C 453.9 1.1676 1.52921 0
M  V30 4907 O 453.193 0.231475 1.90197 0
M  V30 4908 C 453.387 3.49422 0.750938 0
M  V30 4909 C 453.216 4.47827 -0.410056 0
M  V30 4910 C 451.986 4.97288 -0.896239 0
M  V30 4911 C 454.184 4.98903 -1.24902 0
M  V30 4912 N 452.166 5.79508 -2.02591 0
M  V30 4913 C 453.537 5.78644 -2.22646 0
M  V30 4914 C 455.592 4.81126 -1.2815 0
M  V30 4915 C 454.295 6.42502 -3.23393 0
M  V30 4916 C 456.321 5.45789 -2.27745 0
M  V30 4917 C 455.683 6.25348 -3.24222 0
M  V30 4918 H 451.782 0.77747 0.08405 0
M  V30 4919 H 454.366 1.90369 -0.408368 0
M  V30 4920 H 452.537 3.60159 1.45395 0
M  V30 4921 H 454.269 3.81978 1.33698 0
M  V30 4922 H 451.024 4.71219 -0.474277 0
M  V30 4923 H 451.448 6.25308 -2.59459 0
M  V30 4924 H 456.09 4.19215 -0.549397 0
M  V30 4925 H 453.808 7.03558 -3.97533 0
M  V30 4926 H 457.394 5.33972 -2.31009 0
M  V30 4927 H 456.274 6.74498 -4.00027 0
M  V30 4928 N 453.777 0.010035 1.57597 0
M  V30 4929 C 455.025 -0.671371 1.90623 0
M  V30 4930 C 455.346 -1.73753 0.885151 0
M  V30 4931 O 454.616 -1.95752 -0.0760611 0
M  V30 4932 H 453.196 -0.250968 0.703579 0
M  V30 4933 H 455.858 0.0533325 1.94827 0
M  V30 4934 H 454.954 -1.13626 2.90681 0
M  V30 4935 N 455.255 -1.55392 -0.262866 0
M  V30 4936 C 456.502 -1.76476 -0.993109 0
M  V30 4937 C 456.83 -0.571479 -1.85915 0
M  V30 4938 O 456.085 0.445733 -1.90556 0
M  V30 4939 C 456.384 -3.02889 -1.89718 0
M  V30 4940 C 456.05 -4.34974 -1.18781 0
M  V30 4941 C 454.712 -4.7087 -0.991699 0
M  V30 4942 C 457.064 -5.16695 -0.683798 0
M  V30 4943 C 454.392 -5.86036 -0.279024 0
M  V30 4944 C 456.744 -6.32598 0.0153327 0
M  V30 4945 C 455.408 -6.67127 0.223062 0
M  V30 4946 H 454.678 -0.64577 -0.363404 0
M  V30 4947 H 457.325 -1.89664 -0.264525 0
M  V30 4948 H 455.63 -2.84644 -2.6923 0
M  V30 4949 H 457.327 -3.16399 -2.46359 0
M  V30 4950 H 453.917 -4.06765 -1.35058 0
M  V30 4951 H 458.101 -4.8943 -0.8229 0
M  V30 4952 H 453.357 -6.11306 -0.107456 0
M  V30 4953 H 457.531 -6.95171 0.413584 0
M  V30 4954 H 455.158 -7.56216 0.777265 0
M  V30 4955 N 456.733 0.527833 -1.48498 0
M  V30 4956 C 457.643 1.65907 -1.65867 0
M  V30 4957 C 458.659 1.6537 -0.541192 0
M  V30 4958 O 459.835 1.84282 -0.812534 0
M  V30 4959 C 456.9 3.02364 -1.69637 0
M  V30 4960 C 455.961 3.1374 -2.93028 0
M  V30 4961 C 455.194 4.43688 -2.96609 0
M  V30 4962 O 455.417 5.30913 -2.08538 0
M  V30 4963 O 454.351 4.59475 -3.88802 0
M  V30 4964 H 458.177 1.5419 -2.61647 0
M  V30 4965 H 455.762 0.701163 -1.31924 0
M  V30 4966 H 457.644 3.83515 -1.74625 0
M  V30 4967 H 456.319 3.14401 -0.770312 0
M  V30 4968 H 455.226 2.31877 -2.93571 0
M  V30 4969 H 456.559 3.06621 -3.85026 0
M  V30 4970 N 458.211 1.37122 0.776871 0
M  V30 4971 C 459.458 1.32047 1.53524 0
M  V30 4972 C 459.786 -0.0965631 1.9426 0
M  V30 4973 O 459.041 -1.06866 1.63945 0
M  V30 4974 C 459.34 2.20068 2.81611 0
M  V30 4975 C 459.006 3.68423 2.59953 0
M  V30 4976 C 457.668 4.08854 2.53755 0
M  V30 4977 C 460.02 4.62431 2.40431 0
M  V30 4978 C 457.348 5.41417 2.26018 0
M  V30 4979 C 459.7 5.95225 2.14219 0
M  V30 4980 C 458.364 6.34767 2.06462 0
M  V30 4981 H 457.634 0.483196 0.561785 0
M  V30 4982 H 460.281 1.69284 0.895268 0
M  V30 4983 H 458.586 1.75809 3.50141 0
M  V30 4984 H 460.283 2.13458 3.39465 0
M  V30 4985 H 456.873 3.36354 2.65638 0
M  V30 4986 H 461.057 4.32057 2.44213 0
M  V30 4987 H 456.313 5.71022 2.18504 0
M  V30 4988 H 460.487 6.67626 1.98112 0
M  V30 4989 H 458.114 7.37413 1.84733 0
M  V30 4990 N 459.689 -1.00246 1.21608 0
M  V30 4991 C 460.935 -1.74319 1.03638 0
M  V30 4992 C 461.268 -1.89408 -0.428749 0
M  V30 4993 O 460.543 -1.43026 -1.3181 0
M  V30 4994 C 460.826 -3.15431 1.73711 0
M  V30 4995 C 460.679 -3.08049 3.27759 0
M  V30 4996 C 461.998 -4.14407 1.48173 0
M  V30 4997 H 459.117 -0.632741 0.377899 0
M  V30 4998 H 461.759 -1.16853 1.49818 0
M  V30 4999 H 459.909 -3.64493 1.34452 0
M  V30 5000 H 461.581 -2.66681 3.76403 0
M  V30 5001 H 459.824 -2.45088 3.57931 0
M  V30 5002 H 460.495 -4.07862 3.71958 0
M  V30 5003 H 462.971 -3.74061 1.82258 0
M  V30 5004 H 461.847 -5.11279 1.99713 0
M  V30 5005 H 462.108 -4.40174 0.412273 0
M  V30 5006 N 461.167 -1.02423 -1.1978 0
M  V30 5007 C 462.578 -0.748389 -1.71044 0
M  V30 5008 C 462.929 0.732398 -1.82017 0
M  V30 5009 O 462.054 1.57116 -1.48807 0
M  V30 5010 C 462.649 -1.35187 -3.1066 0
M  V30 5011 C 461.208 -1.12472 -3.59203 0
M  V30 5012 C 460.355 -1.45283 -2.36195 0
M  V30 5013 H 463.306 -1.19275 -1.04686 0
M  V30 5014 H 463.327 -0.746408 -3.73107 0
M  V30 5015 H 462.839 -2.4296 -3.02642 0
M  V30 5016 H 460.94 -0.0649983 -3.72543 0
M  V30 5017 H 461.053 -1.81016 -4.43588 0
M  V30 5018 H 459.417 -0.872034 -2.39307 0
M  V30 5019 H 460.2 -2.54129 -2.30811 0
M  V30 5020 N 462.645 1.35699 -0.801477 0
M  V30 5021 C 463.891 1.99208 -0.380022 0
M  V30 5022 C 464.224 1.63445 1.04878 0
M  V30 5023 O 463.499 0.895223 1.72673 0
M  V30 5024 C 463.782 3.55755 -0.557708 0
M  V30 5025 C 463.635 4.01332 -2.03107 0
M  V30 5026 C 464.954 4.40096 0.0197968 0
M  V30 5027 H 462.073 0.723667 -0.139552 0
M  V30 5028 H 464.715 1.60928 -1.01006 0
M  V30 5029 H 462.865 3.88494 -0.0213741 0
M  V30 5030 H 464.537 3.79026 -2.62939 0
M  V30 5031 H 462.78 3.52429 -2.52936 0
M  V30 5032 H 463.451 5.10234 -2.1063 0
M  V30 5033 H 465.927 4.13786 -0.438179 0
M  V30 5034 H 464.803 5.48735 -0.134477 0
M  V30 5035 H 465.064 4.2786 1.11303 0
M  V30 5036 N 464.123 0.554532 1.47522 0
M  V30 5037 C 465.369 0.0295227 2.02779 0
M  V30 5038 C 465.702 -1.31582 1.42828 0
M  V30 5039 O 464.977 -1.85561 0.582872 0
M  V30 5040 C 465.26 -0.0664057 3.60039 0
M  V30 5041 C 465.113 1.30585 4.30427 0
M  V30 5042 C 466.432 -0.781162 4.33112 0
M  V30 5043 H 463.551 0.0122027 0.736899 0
M  V30 5044 H 466.193 0.716305 1.7598 0
M  V30 5045 H 464.343 -0.651307 3.83002 0
M  V30 5046 H 466.015 1.93374 4.18813 0
M  V30 5047 H 464.258 1.88125 3.90886 0
M  V30 5048 H 464.929 1.19147 5.38988 0
M  V30 5049 H 467.405 -0.284565 4.15126 0
M  V30 5050 H 466.281 -0.817237 5.42782 0
M  V30 5051 H 466.542 -1.83672 4.0214 0
M  V30 5052 N 465.601 -1.54893 0.290851 0
M  V30 5053 C 466.826 -2.04804 -0.32712 0
M  V30 5054 C 467.251 -1.16721 -1.47506 0
M  V30 5055 O 466.609 -0.169107 -1.8051 0
M  V30 5056 C 466.657 -3.52268 -0.770689 0
M  V30 5057 O 465.761 -3.67236 -1.87647 0
M  V30 5058 H 465.102 -0.660789 -0.0652227 0
M  V30 5059 H 467.632 -2.00036 0.429739 0
M  V30 5060 H 467.642 -3.9393 -1.06223 0
M  V30 5061 H 466.317 -4.15843 0.069096 0
M  V30 5062 H 464.894 -3.37479 -1.58626 0
M  V30 5063 N 467.08 -0.0183926 -1.57589 0
M  V30 5064 C 468.01 0.965596 -2.12599 0
M  V30 5065 C 468.991 1.34641 -1.0395 0
M  V30 5066 O 470.176 1.42693 -1.31729 0
M  V30 5067 C 467.306 2.25149 -2.64434 0
M  V30 5068 C 466.26 2.01175 -3.77773 0
M  V30 5069 C 465.586 3.35937 -4.15994 0
M  V30 5070 C 466.886 1.35953 -5.04296 0
M  V30 5071 H 468.58 0.507504 -2.95067 0
M  V30 5072 H 466.126 0.242671 -1.41941 0
M  V30 5073 H 468.079 2.94357 -3.01549 0
M  V30 5074 H 466.803 2.73105 -1.79112 0
M  V30 5075 H 465.462 1.34388 -3.4108 0
M  V30 5076 H 465.11 3.81631 -3.27669 0
M  V30 5077 H 464.81 3.20705 -4.92364 0
M  V30 5078 H 466.334 4.0643 -4.55683 0
M  V30 5079 H 467.748 1.95144 -5.39065 0
M  V30 5080 H 466.145 1.31152 -5.85593 0
M  V30 5081 H 467.215 0.331071 -4.83768 0
M  V30 5082 N 468.558 1.5553 0.254621 0
M  V30 5083 C 469.783 1.81383 1.00573 0
M  V30 5084 C 470.208 0.594419 1.78461 0
M  V30 5085 O 469.566 -0.456403 1.75461 0
M  V30 5086 C 469.614 3.04892 1.92545 0
M  V30 5087 O 468.718 2.81266 3.01601 0
M  V30 5088 H 468.059 0.598969 0.286587 0
M  V30 5089 H 470.589 2.02703 0.277952 0
M  V30 5090 H 470.599 3.34119 2.34155 0
M  V30 5091 H 469.274 3.93287 1.3527 0
M  V30 5092 H 467.851 2.63185 2.64174 0
M  V30 5093 N 470.036 -0.519951 1.48776 0
M  V30 5094 C 470.983 -1.62352 1.64044 0
M  V30 5095 C 471.953 -1.58945 0.482251 0
M  V30 5096 O 473.138 -1.77219 0.706971 0
M  V30 5097 C 470.278 -3.00579 1.69547 0
M  V30 5098 C 469.391 -3.14145 2.96541 0
M  V30 5099 C 468.526 -4.42991 2.93142 0
M  V30 5100 C 467.565 -4.50122 4.14797 0
M  V30 5101 N 466.702 -5.7037 4.09418 0
M  V30 5102 H 471.542 -1.48643 2.58281 0
M  V30 5103 H 469.079 -0.723516 1.28077 0
M  V30 5104 H 471.037 -3.80671 1.70719 0
M  V30 5105 H 469.667 -3.13036 0.787918 0
M  V30 5106 H 468.719 -2.27239 3.05068 0
M  V30 5107 H 470.031 -3.15275 3.86527 0
M  V30 5108 H 469.185 -5.31385 2.92772 0
M  V30 5109 H 467.924 -4.44398 2.00902 0
M  V30 5110 H 466.929 -3.60133 4.15433 0
M  V30 5111 H 468.154 -4.50445 5.08208 0
M  V30 5112 H 466.1 -5.72655 3.20004 0
M  V30 5113 H 466.017 -5.73036 4.93119 0
M  V30 5114 H 467.285 -6.61023 4.13121 0
M  V30 5115 N 471.514 -1.37532 -0.769588 0
M  V30 5116 C 472.462 -1.33561 -1.90432 0
M  V30 5117 C 473.456 -0.224027 -1.67912 0
M  V30 5118 O 474.662 -0.392174 -1.75676 0
M  V30 5119 H 471.037 -0.416279 -0.626271 0
M  V30 5120 H 473.008 -2.29348 -1.90899 0
M  V30 5121 C 471.757 -1.16162 -3.27722 0
M  V30 5122 H 471.08 -2.00951 -3.45628 0
M  V30 5123 H 472.52 -1.17434 -4.07413 0
M  V30 5124 C 470.979 0.132583 -3.36639 0
M  V30 5125 O 471.509 1.11539 -3.85904 0
M  V30 5126 N 469.715 0.184013 -2.90017 0
M  V30 5127 H 469.262 -0.616415 -2.50116 0
M  V30 5128 H 469.22 1.04956 -2.96364 0
M  V30 5129 N 472.992 0.995999 -1.22138 0
M  V30 5130 C 474.24 1.73167 -1.042 0
M  V30 5131 C 474.561 1.90329 0.42423 0
M  V30 5132 O 473.831 1.4607 1.30539 0
M  V30 5133 H 472.411 0.641593 -0.38258 0
M  V30 5134 H 475.073 1.19974 -1.53598 0
M  V30 5135 H 474.169 2.72734 -1.51731 0
M  V30 5136 N 474.47 1.03057 1.19235 0
M  V30 5137 C 475.417 0.612832 2.22515 0
M  V30 5138 C 476.387 -0.374224 1.61829 0
M  V30 5139 O 477.572 -0.270501 1.88873 0
M  V30 5140 C 474.712 -0.028475 3.45088 0
M  V30 5141 C 473.825 1.00483 4.20151 0
M  V30 5142 C 472.96 0.333102 5.30155 0
M  V30 5143 C 471.999 1.3522 5.96977 0
M  V30 5144 N 471.136 0.70616 6.9854 0
M  V30 5145 H 475.976 1.49812 2.57605 0
M  V30 5146 H 473.513 0.749658 1.26564 0
M  V30 5147 H 475.471 -0.417548 4.15105 0
M  V30 5148 H 474.101 -0.877334 3.10649 0
M  V30 5149 H 473.153 1.51194 3.49062 0
M  V30 5150 H 474.465 1.77929 4.65986 0
M  V30 5151 H 473.619 -0.110725 6.06599 0
M  V30 5152 H 472.358 -0.473547 4.85396 0
M  V30 5153 H 471.363 1.80627 5.19282 0
M  V30 5154 H 472.588 2.16037 6.4382 0
M  V30 5155 H 470.534 -0.0803667 6.55951 0
M  V30 5156 H 470.451 1.41848 7.42573 0
M  V30 5157 H 471.719 0.286391 7.78974 0
M  V30 5158 N 475.948 -1.35272 0.808662 0
M  V30 5159 C 477.178 -2.02652 0.401953 0
M  V30 5160 C 477.586 -1.6108 -0.992462 0
M  V30 5161 O 476.929 -0.804984 -1.65123 0
M  V30 5162 C 476.991 -3.57174 0.408246 0
M  V30 5163 C 476.655 -4.22019 1.75353 0
M  V30 5164 C 477.652 -4.43552 2.71215 0
M  V30 5165 C 475.337 -4.59093 2.03811 0
M  V30 5166 C 477.331 -5.01264 3.93717 0
M  V30 5167 C 475.018 -5.16519 3.26576 0
M  V30 5168 C 476.016 -5.37546 4.21347 0
M  V30 5169 O 475.704 -5.93761 5.41944 0
M  V30 5170 H 475.436 -0.656495 0.161216 0
M  V30 5171 H 477.99 -1.73829 1.0942 0
M  V30 5172 H 476.22 -3.85197 -0.340608 0
M  V30 5173 H 477.909 -4.05893 0.0235623 0
M  V30 5174 H 478.675 -4.15288 2.50522 0
M  V30 5175 H 474.554 -4.42039 1.30854 0
M  V30 5176 H 478.098 -5.17592 4.67701 0
M  V30 5177 H 473.995 -5.4421 3.47139 0
M  V30 5178 H 474.763 -6.1221 5.43269 0
M  V30 5179 N 477.426 -0.562348 -1.47226 0
M  V30 5180 C 478.672 -0.0402761 -2.0276 0
M  V30 5181 C 479.005 1.30823 -1.43523 0
M  V30 5182 O 478.28 1.85249 -0.592705 0
M  V30 5183 C 478.563 0.047311 -3.60069 0
M  V30 5184 C 478.416 -1.32865 -4.29729 0
M  V30 5185 C 479.735 0.758182 -4.3352 0
M  V30 5186 H 476.854 -0.0161105 -0.736824 0
M  V30 5187 H 479.496 -0.725628 -1.75598 0
M  V30 5188 H 477.646 0.630986 -3.83342 0
M  V30 5189 H 479.318 -1.95593 -4.17781 0
M  V30 5190 H 477.561 -1.90195 -3.89882 0
M  V30 5191 H 478.232 -1.22004 -5.38349 0
M  V30 5192 H 480.708 0.262546 -4.15271 0
M  V30 5193 H 479.584 0.78844 -5.43208 0
M  V30 5194 H 479.845 1.81537 -4.03109 0
M  V30 5195 N 478.904 1.54736 -0.299062 0
M  V30 5196 C 479.867 2.22127 0.565012 0
M  V30 5197 C 480.867 1.20669 1.06281 0
M  V30 5198 O 482.057 1.45417 0.959145 0
M  V30 5199 C 479.189 2.90611 1.78208 0
M  V30 5200 H 480.382 2.99891 -0.0237448 0
M  V30 5201 H 477.935 1.5622 -0.0498788 0
M  V30 5202 H 478.67 2.16921 2.41072 0
M  V30 5203 H 478.455 3.64984 1.43281 0
M  V30 5204 H 479.945 3.42026 2.396 0
M  V30 5205 N 480.382 0.0267497 1.57577 0
M  V30 5206 C 481.659 -0.690926 1.82991 0
M  V30 5207 C 482.039 -1.90471 0.910164 0
M  V30 5208 O 481.387 -2.28474 -0.0347985 0
M  V30 5209 C 481.597 -1.07139 3.32148 0
M  V30 5210 C 482.945 -1.46402 3.98562 0
M  V30 5211 O 483.969 -1.16443 3.36629 0
M  V30 5212 O 482.828 -2.02214 5.07712 0
M  V30 5213 H 479.922 -0.338747 0.75444 0
M  V30 5214 H 482.468 0.0542506 1.69613 0
M  V30 5215 H 481.24 -0.207394 3.9075 0
M  V30 5216 H 480.863 -1.87481 3.50623 0
M  V30 5217 N 481.861 -1.55662 -0.24637 0
M  V30 5218 C 483.108 -1.77519 -0.974335 0
M  V30 5219 C 483.436 -0.591165 -1.85298 0
M  V30 5220 O 482.691 0.425497 -1.91018 0
M  V30 5221 C 482.99 -3.04885 -1.86494 0
M  V30 5222 C 482.656 -4.36209 -1.14161 0
M  V30 5223 C 481.318 -4.71896 -0.941701 0
M  V30 5224 C 483.67 -5.17391 -0.628957 0
M  V30 5225 C 480.998 -5.86299 -0.216852 0
M  V30 5226 C 483.35 -6.32546 0.0824273 0
M  V30 5227 C 482.014 -6.66853 0.293807 0
M  V30 5228 H 481.284 -0.649588 -0.356535 0
M  V30 5229 H 483.931 -1.89934 -0.244394 0
M  V30 5230 H 482.236 -2.87484 -2.66196 0
M  V30 5231 H 483.933 -3.18994 -2.42989 0
M  V30 5232 H 480.523 -4.08174 -1.30736 0
M  V30 5233 H 484.707 -4.90276 -0.770943 0
M  V30 5234 H 479.963 -6.11385 -0.0426124 0
M  V30 5235 H 484.137 -6.94693 0.487292 0
M  V30 5236 H 481.764 -7.55349 0.857428 0
M  V30 5237 N 483.339 0.512053 -1.4905 0
M  V30 5238 C 484.564 1.2959 -1.6193 0
M  V30 5239 C 484.989 1.85906 -0.286454 0
M  V30 5240 O 484.347 1.65312 0.744426 0
M  V30 5241 C 484.395 2.40987 -2.68249 0
M  V30 5242 O 483.499 3.44531 -2.26654 0
M  V30 5243 H 482.84 0.383053 -0.542371 0
M  V30 5244 H 485.37 0.614231 -1.95162 0
M  V30 5245 H 485.38 2.86913 -2.90078 0
M  V30 5246 H 484.055 1.99361 -3.65004 0
M  V30 5247 H 482.632 3.046 -2.15112 0
M  V30 5248 N 484.817 1.37938 0.762283 0
M  V30 5249 C 485.749 1.30349 1.88525 0
M  V30 5250 C 486.762 0.217402 1.61342 0
M  V30 5251 O 487.951 0.474291 1.72084 0
M  V30 5252 C 485.051 0.994844 3.23969 0
M  V30 5253 C 484.224 2.18829 3.78725 0
M  V30 5254 C 483.283 1.84844 4.92665 0
M  V30 5255 O 482.309 2.57244 5.07754 0
M  V30 5256 N 483.511 0.798201 5.74986 0
M  V30 5257 H 486.276 2.27114 1.95549 0
M  V30 5258 H 483.837 1.31686 0.941825 0
M  V30 5259 H 485.829 0.748168 3.97724 0
M  V30 5260 H 484.399 0.115446 3.12387 0
M  V30 5261 H 483.619 2.59615 2.96637 0
M  V30 5262 H 484.907 2.98497 4.1204 0
M  V30 5263 H 484.305 0.197611 5.65355 0
M  V30 5264 H 482.862 0.611396 6.48926 0
M  V30 5265 N 486.295 -0.989507 1.22664 0
M  V30 5266 C 487.542 -1.72953 1.05325 0
M  V30 5267 C 487.87 -1.90104 -0.411168 0
M  V30 5268 O 487.125 -1.44386 -1.32103 0
M  V30 5269 C 487.424 -3.13649 1.71345 0
M  V30 5270 C 487.09 -3.16403 3.21248 0
M  V30 5271 C 485.752 -3.16862 3.62149 0
M  V30 5272 C 488.104 -3.12428 4.17179 0
M  V30 5273 C 485.432 -3.11051 4.97458 0
M  V30 5274 C 487.784 -3.08159 5.52468 0
M  V30 5275 C 486.448 -3.06935 5.92746 0
M  V30 5276 H 485.718 -0.632881 0.385412 0
M  V30 5277 H 488.365 -1.15863 1.52473 0
M  V30 5278 H 486.67 -3.74069 1.16532 0
M  V30 5279 H 488.367 -3.69658 1.55416 0
M  V30 5280 H 484.957 -3.16798 2.88682 0
M  V30 5281 H 489.141 -3.11221 3.86595 0
M  V30 5282 H 484.397 -3.0845 5.27891 0
M  V30 5283 H 488.571 -3.04039 6.26525 0
M  V30 5284 H 486.198 -3.02186 6.97558 0
M  V30 5285 N 487.773 -1.03688 -1.18687 0
M  V30 5286 C 488.683 -0.634908 -2.25845 0
M  V30 5287 C 489.699 0.337065 -1.70704 0
M  V30 5288 O 490.875 0.192943 -2.00474 0
M  V30 5289 C 487.94 -0.000180054 -3.467 0
M  V30 5290 C 487.001 -1.02067 -4.1699 0
M  V30 5291 C 486.234 -0.41614 -5.32075 0
M  V30 5292 O 486.457 0.778712 -5.65059 0
M  V30 5293 O 485.391 -1.14296 -5.90948 0
M  V30 5294 H 489.217 -1.52757 -2.62486 0
M  V30 5295 H 486.802 -0.807533 -1.25695 0
M  V30 5296 H 488.684 0.353342 -4.19916 0
M  V30 5297 H 487.359 0.866367 -3.11891 0
M  V30 5298 H 486.266 -1.42592 -3.45859 0
M  V30 5299 H 487.599 -1.85786 -4.5579 0
M  V30 5300 N 489.251 1.34841 -0.815825 0
M  V30 5301 C 490.183 2.28409 -0.190265 0
M  V30 5302 C 491.196 1.50705 0.615771 0
M  V30 5303 O 492.385 1.72822 0.446616 0
M  V30 5304 C 489.485 3.30441 0.752446 0
M  V30 5305 C 488.658 4.37399 -0.00922152 0
M  V30 5306 C 487.717 5.19234 0.853351 0
M  V30 5307 O 486.743 5.68404 0.300919 0
M  V30 5308 N 487.945 5.38248 2.17416 0
M  V30 5309 H 490.71 2.82732 -0.994114 0
M  V30 5310 H 488.271 1.47289 -0.672129 0
M  V30 5311 H 490.263 3.82084 1.33394 0
M  V30 5312 H 488.833 2.76565 1.45707 0
M  V30 5313 H 488.053 3.86567 -0.771979 0
M  V30 5314 H 489.341 5.05992 -0.533807 0
M  V30 5315 H 488.739 4.99961 2.6468 0
M  V30 5316 H 487.296 5.93035 2.70467 0
M  V30 5317 N 490.729 0.570148 1.46925 0
M  V30 5318 C 491.978 0.0487352 2.01641 0
M  V30 5319 C 492.291 -1.31433 1.44861 0
M  V30 5320 O 493.497 -1.92638 1.91318 0
M  V30 5321 C 491.953 0.0365817 3.59881 0
M  V30 5322 C 491.561 1.39719 4.25655 0
M  V30 5323 C 493.305 -0.431545 4.22301 0
M  V30 5324 C 491.212 1.34345 5.75939 0
M  V30 5325 H 490.142 0.0144492 0.753862 0
M  V30 5326 H 492.793 0.719928 1.68788 0
M  V30 5327 H 491.175 -0.700522 3.89755 0
M  V30 5328 H 492.349 2.15303 4.07408 0
M  V30 5329 H 490.664 1.80431 3.75278 0
M  V30 5330 H 493.261 -0.490354 5.32447 0
M  V30 5331 H 493.604 -1.44638 3.90366 0
M  V30 5332 H 494.137 0.251102 3.97007 0
M  V30 5333 H 490.876 2.33469 6.12513 0
M  V30 5334 H 490.396 0.629615 5.96486 0
M  V30 5335 H 492.075 1.051 6.38407 0
M  V30 5336 N 492.207 -1.54576 0.307264 0
M  V30 5337 C 493.623 -1.59534 -0.0459251 0
M  V30 5338 C 493.823 -1.32414 -1.51884 0
M  V30 5339 O 492.879 -1.1006 -2.27251 0
M  V30 5340 C 494.192 -2.98566 0.357649 0
M  V30 5341 C 495.74 -3.11491 0.306937 0
M  V30 5342 C 496.215 -4.52842 0.685427 0
M  V30 5343 N 497.706 -4.58782 0.638203 0
M  V30 5344 C 498.441 -5.66238 0.903458 0
M  V30 5345 N 497.937 -6.81703 1.23501 0
M  V30 5346 N 499.73 -5.55937 0.830102 0
M  V30 5347 H 491.881 -1.70464 1.26712 0
M  V30 5348 H 494.144 -0.79647 0.514139 0
M  V30 5349 H 493.85 -3.23356 1.38325 0
M  V30 5350 H 493.724 -3.76117 -0.285565 0
M  V30 5351 H 496.111 -2.86446 -0.709424 0
M  V30 5352 H 496.192 -2.36081 0.984861 0
M  V30 5353 H 495.836 -4.78618 1.69963 0
M  V30 5354 H 495.766 -5.26598 -0.0146346 0
M  V30 5355 H 498.257 -3.75849 0.393138 0
M  V30 5356 H 498.57 -7.59582 1.42322 0
M  V30 5357 H 496.915 -6.8324 1.27311 0
M  V30 5358 H 500.106 -4.64608 0.570693 0
M  V30 5359 H 500.279 -6.39597 1.04019 0
M  V30 5360 N 493.685 -0.035106 -1.57561 0
M  V30 5361 C 494.632 0.94474 -2.10578 0
M  V30 5362 C 495.602 1.3192 -1.00927 0
M  V30 5363 O 496.787 1.41147 -1.28382 0
M  V30 5364 C 493.927 2.21982 -2.64231 0
M  V30 5365 C 493.04 1.90128 -3.87911 0
M  V30 5366 C 492.175 3.11975 -4.29936 0
M  V30 5367 C 491.214 2.75968 -5.46359 0
M  V30 5368 N 490.351 3.90459 -5.83512 0
M  V30 5369 H 495.191 0.485717 -2.94015 0
M  V30 5370 H 492.728 0.228143 -1.4532 0
M  V30 5371 H 494.686 2.96572 -2.9343 0
M  V30 5372 H 493.316 2.6549 -1.83616 0
M  V30 5373 H 492.368 1.05755 -3.65404 0
M  V30 5374 H 493.68 1.59613 -4.72573 0
M  V30 5375 H 492.834 3.9488 -4.60603 0
M  V30 5376 H 491.573 3.45657 -3.44053 0
M  V30 5377 H 490.578 1.91478 -5.1538 0
M  V30 5378 H 491.803 2.43497 -6.33945 0
M  V30 5379 H 489.749 4.23971 -5.00584 0
M  V30 5380 H 489.666 3.63588 -6.62827 0
M  V30 5381 H 490.934 4.7405 -6.18787 0
M  V30 5382 N 495.163 1.55791 0.238111 0
M  V30 5383 C 496.388 1.8244 0.986432 0
M  V30 5384 C 496.813 0.613314 1.7782 0
M  V30 5385 O 496.171 -0.437767 1.75935 0
M  V30 5386 C 496.219 3.06917 1.893 0
M  V30 5387 O 495.323 2.84449 2.98601 0
M  V30 5388 H 494.664 0.601975 0.280218 0
M  V30 5389 H 497.194 2.02987 0.256437 0
M  V30 5390 H 497.204 3.36583 2.30598 0
M  V30 5391 H 495.879 3.947 1.31091 0
M  V30 5392 H 494.456 2.65972 2.61368 0
M  V30 5393 N 496.642 -0.504142 1.49319 0
M  V30 5394 C 498.053 -1.08572 1.51885 0
M  V30 5395 C 498.404 -1.93842 0.303255 0
M  V30 5396 O 497.529 -2.0828 -0.58724 0
M  V30 5397 C 498.124 -1.97574 2.75227 0
M  V30 5398 C 496.683 -2.509 2.80581 0
M  V30 5399 C 495.83 -1.28447 2.45757 0
M  V30 5400 H 498.781 -0.288194 1.56061 0
M  V30 5401 H 498.802 -2.82219 2.55211 0
M  V30 5402 H 498.314 -1.35486 3.63683 0
M  V30 5403 H 496.415 -3.16636 1.96398 0
M  V30 5404 H 496.528 -2.88268 3.82673 0
M  V30 5405 H 494.892 -1.60868 1.97468 0
M  V30 5406 H 495.675 -0.68072 3.36483 0
M  V30 5407 N 498.12 -1.38341 -0.754957 0
M  V30 5408 C 499.397 -1.24995 -1.50451 0
M  V30 5409 C 499.777 0.149244 -2.10572 0
M  V30 5410 O 499.125 1.15861 -1.96948 0
M  V30 5411 C 499.335 -2.35904 -2.57197 0
M  V30 5412 C 500.683 -2.74262 -3.24138 0
M  V30 5413 O 501.707 -2.35205 -2.67501 0
M  V30 5414 O 500.566 -3.4161 -4.26574 0
M  V30 5415 H 497.66 -0.48872 -0.667144 0
M  V30 5416 H 500.206 -1.50165 -0.790486 0
M  V30 5417 H 498.978 -3.2953 -2.11011 0
M  V30 5418 H 498.601 -2.12291 -3.36182 0
M  V30 5419 N 499.598 0.982988 -1.23187 0
M  V30 5420 C 500.838 1.73903 -1.07412 0
M  V30 5421 C 501.202 1.88146 0.382764 0
M  V30 5422 O 502.403 2.6053 0.661638 0
M  V30 5423 C 500.674 3.10105 -1.77678 0
M  V30 5424 S 502.233 4.01323 -1.77441 0
M  V30 5425 H 499.051 0.598093 -0.384456 0
M  V30 5426 H 501.653 1.17456 -1.56283 0
M  V30 5427 H 500.357 2.97388 -2.82822 0
M  V30 5428 H 499.888 3.71622 -1.29077 0
M  V30 5429 H 501.903 4.89189 -0.831162 0
M  V30 5430 N 501.076 1.04316 1.18135 0
M  V30 5431 C 502.304 0.768117 1.92113 0
M  V30 5432 C 502.719 -0.675057 1.76319 0
M  V30 5433 O 502.076 -1.46038 1.09449 0
M  V30 5434 C 502.127 1.12808 3.43448 0
M  V30 5435 O 501.848 2.5146 3.58747 0
M  V30 5436 C 503.349 0.8779 4.3452 0
M  V30 5437 H 500.569 0.279937 0.609817 0
M  V30 5438 H 503.113 1.39149 1.49859 0
M  V30 5439 H 501.268 0.549623 3.83481 0
M  V30 5440 H 501.682 2.65313 4.52448 0
M  V30 5441 H 503.156 1.17959 5.39249 0
M  V30 5442 H 503.633 -0.187239 4.38801 0
M  V30 5443 H 504.239 1.43977 4.00188 0
M  V30 5444 N 502.554 -1.34406 0.822964 0
M  V30 5445 C 503.801 -1.98284 0.411057 0
M  V30 5446 C 504.129 -1.65245 -1.02588 0
M  V30 5447 O 503.384 -0.91619 -1.72929 0
M  V30 5448 C 503.683 -3.52981 0.560268 0
M  V30 5449 C 503.349 -4.05931 1.96293 0
M  V30 5450 C 502.011 -4.20103 2.34664 0
M  V30 5451 C 504.363 -4.34412 2.87985 0
M  V30 5452 C 501.691 -4.60082 3.64062 0
M  V30 5453 C 504.043 -4.75838 4.16847 0
M  V30 5454 C 502.707 -4.88215 4.55195 0
M  V30 5455 H 501.977 -0.725573 0.150416 0
M  V30 5456 H 504.624 -1.60349 1.04692 0
M  V30 5457 H 502.929 -3.91477 -0.158982 0
M  V30 5458 H 504.626 -4.00385 0.222087 0
M  V30 5459 H 501.216 -3.95363 1.65487 0
M  V30 5460 H 505.4 -4.23001 2.59584 0
M  V30 5461 H 500.656 -4.67856 3.93599 0
M  V30 5462 H 504.83 -4.96834 4.87984 0
M  V30 5463 H 502.457 -5.18952 5.55512 0
M  V30 5464 N 504.032 -0.577932 -1.46621 0
M  V30 5465 C 505.262 -0.0670668 -2.06491 0
M  V30 5466 C 505.67 1.24119 -1.42798 0
M  V30 5467 O 505.013 1.76016 -0.525759 0
M  V30 5468 C 505.075 0.177995 -3.59059 0
M  V30 5469 C 504.739 -1.04394 -4.44917 0
M  V30 5470 C 505.736 -1.95479 -4.81751 0
M  V30 5471 C 503.421 -1.26444 -4.86125 0
M  V30 5472 C 505.415 -3.06965 -5.58615 0
M  V30 5473 C 503.102 -2.38237 -5.62749 0
M  V30 5474 C 504.1 -3.28327 -5.98908 0
M  V30 5475 O 503.788 -4.38179 -6.73984 0
M  V30 5476 H 503.52 -0.0523159 -0.673973 0
M  V30 5477 H 506.074 -0.796966 -1.89308 0
M  V30 5478 H 504.304 0.962451 -3.74531 0
M  V30 5479 H 505.993 0.636782 -4.00874 0
M  V30 5480 H 506.759 -1.79657 -4.50498 0
M  V30 5481 H 502.638 -0.572316 -4.57434 0
M  V30 5482 H 506.182 -3.77309 -5.86757 0
M  V30 5483 H 502.079 -2.54023 -5.93416 0
M  V30 5484 H 502.847 -4.36486 -6.92403 0
M  V30 5485 N 505.51 1.54411 -0.315457 0
M  V30 5486 C 506.75 2.02329 0.290236 0
M  V30 5487 C 507.114 1.19878 1.49977 0
M  V30 5488 O 508.315 1.57562 2.17779 0
M  V30 5489 C 506.586 3.51912 0.623937 0
M  V30 5490 S 508.145 4.21775 1.21044 0
M  V30 5491 H 504.963 0.705499 0.0882739 0
M  V30 5492 H 507.565 1.90328 -0.446694 0
M  V30 5493 H 506.269 4.09546 -0.264624 0
M  V30 5494 H 505.8 3.67977 1.39128 0
M  V30 5495 H 507.815 4.28757 2.49764 0
M  V30 5496 N 506.988 0.0434614 1.5754 0
M  V30 5497 C 507.951 -0.918696 2.09982 0
M  V30 5498 C 508.951 -1.24488 1.01781 0
M  V30 5499 O 510.141 -1.18284 1.27885 0
M  V30 5500 C 507.273 -2.23093 2.57764 0
M  V30 5501 H 508.466 -0.464229 2.96285 0
M  V30 5502 H 506.019 -0.204818 1.54952 0
M  V30 5503 H 506.754 -2.73137 1.74832 0
M  V30 5504 H 506.539 -2.00724 3.36827 0
M  V30 5505 H 508.029 -2.92028 2.98512 0
M  V30 5506 N 508.466 -1.55915 -0.229846 0
M  V30 5507 C 509.743 -1.6932 -0.979295 0
M  V30 5508 C 510.123 -0.588321 -2.02736 0
M  V30 5509 O 509.471 0.40586 -2.24867 0
M  V30 5510 C 509.681 -3.10305 -1.59724 0
M  V30 5511 C 511.029 -3.6945 -2.09264 0
M  V30 5512 O 512.053 -3.13214 -1.69633 0
M  V30 5513 O 510.912 -4.68072 -2.82082 0
M  V30 5514 H 508.006 -0.689314 -0.456919 0
M  V30 5515 H 510.552 -1.68238 -0.222283 0
M  V30 5516 H 509.324 -3.82177 -0.840039 0
M  V30 5517 H 508.947 -3.1547 -2.42001 0
M  V30 5518 N 509.944 0.496216 -1.49584 0
M  V30 5519 C 511.169 1.27865 -1.63295 0
M  V30 5520 C 511.594 1.85592 -0.306156 0
M  V30 5521 O 510.952 1.66092 0.726851 0
M  V30 5522 C 511 2.38128 -2.7079 0
M  V30 5523 O 510.104 3.42108 -2.30296 0
M  V30 5524 H 509.445 0.377279 -0.546403 0
M  V30 5525 H 511.975 0.593497 -1.95803 0
M  V30 5526 H 511.985 2.8382 -2.93104 0
M  V30 5527 H 510.66 1.95479 -3.67098 0
M  V30 5528 H 509.237 3.02301 -2.18331 0
M  V30 5529 N 511.423 1.38739 0.74761 0
M  V30 5530 C 512.333 1.38696 1.89211 0
M  V30 5531 C 513.349 0.283303 1.71678 0
M  V30 5532 O 514.525 0.522713 1.94498 0
M  V30 5533 C 511.59 1.21662 3.24653 0
M  V30 5534 C 510.651 2.41886 3.54669 0
M  V30 5535 C 509.884 2.25655 4.83648 0
M  V30 5536 O 510.107 1.25339 5.56459 0
M  V30 5537 O 509.041 3.14372 5.13277 0
M  V30 5538 H 512.867 2.35143 1.92202 0
M  V30 5539 H 510.452 1.19721 0.893708 0
M  V30 5540 H 512.334 1.14246 4.05618 0
M  V30 5541 H 511.009 0.283024 3.2246 0
M  V30 5542 H 509.916 2.54877 2.73841 0
M  V30 5543 H 511.249 3.33895 3.61628 0
M  V30 5544 N 512.901 -0.976442 1.23707 0
M  V30 5545 C 513.848 -2.06952 1.02174 0
M  V30 5546 C 514.818 -1.65984 -0.0621034 0
M  V30 5547 O 516.003 -1.90584 0.0907906 0
M  V30 5548 C 513.143 -3.39425 0.62327 0
M  V30 5549 C 512.256 -3.9364 1.77966 0
M  V30 5550 C 511.391 -5.14343 1.3276 0
M  V30 5551 C 510.43 -5.60733 2.45449 0
M  V30 5552 N 509.567 -6.72662 2.01172 0
M  V30 5553 H 514.407 -2.24704 1.95734 0
M  V30 5554 H 511.944 -1.10143 0.975034 0
M  V30 5555 H 513.902 -4.15526 0.37332 0
M  V30 5556 H 512.532 -3.21624 -0.275329 0
M  V30 5557 H 511.584 -3.14258 2.14351 0
M  V30 5558 H 512.896 -4.24035 2.62671 0
M  V30 5559 H 512.05 -5.97789 1.03601 0
M  V30 5560 H 510.789 -4.8561 0.450975 0
M  V30 5561 H 509.794 -4.75865 2.75378 0
M  V30 5562 H 511.019 -5.91483 3.33654 0
M  V30 5563 H 508.965 -6.45681 1.15895 0
M  V30 5564 H 508.882 -7.02462 2.79434 0
M  V30 5565 H 510.15 -7.59572 1.75129 0
M  V30 5566 N 514.379 -1.04941 -1.1758 0
M  V30 5567 C 515.311 -0.606174 -2.21039 0
M  V30 5568 C 516.324 0.328763 -1.59446 0
M  V30 5569 O 517.513 0.121895 -1.78083 0
M  V30 5570 C 514.613 0.133294 -3.38638 0
M  V30 5571 C 513.786 -0.811711 -4.29802 0
M  V30 5572 C 512.845 -0.113958 -5.26077 0
M  V30 5573 O 511.871 -0.747237 -5.64274 0
M  V30 5574 N 513.073 1.14953 -5.69004 0
M  V30 5575 H 515.838 -1.49606 -2.59689 0
M  V30 5576 H 513.399 -0.930997 -1.32454 0
M  V30 5577 H 515.391 0.610144 -4.00074 0
M  V30 5578 H 513.961 0.924816 -2.98607 0
M  V30 5579 H 513.181 -1.46824 -3.65837 0
M  V30 5580 H 514.469 -1.45326 -4.87604 0
M  V30 5581 H 513.867 1.68441 -5.40041 0
M  V30 5582 H 512.424 1.57049 -6.32597 0
M  V30 5583 N 515.857 1.33968 -0.830081 0
M  V30 5584 C 516.789 2.28194 -0.21448 0
M  V30 5585 C 517.802 1.5135 0.599752 0
M  V30 5586 O 518.991 1.73286 0.42826 0
M  V30 5587 C 516.091 3.31221 0.717356 0
M  V30 5588 C 515.264 4.37365 -0.055613 0
M  V30 5589 C 514.323 5.2011 0.798231 0
M  V30 5590 O 513.349 5.68691 0.240616 0
M  V30 5591 N 514.551 5.40523 2.11695 0
M  V30 5592 H 517.316 2.81662 -1.02405 0
M  V30 5593 H 514.877 1.46568 -0.687713 0
M  V30 5594 H 516.869 3.83477 1.29334 0
M  V30 5595 H 515.439 2.78095 1.42765 0
M  V30 5596 H 514.659 3.85727 -0.812936 0
M  V30 5597 H 515.947 5.05397 -0.587444 0
M  V30 5598 H 515.345 5.0274 2.59363 0
M  V30 5599 H 513.902 5.95871 2.64162 0
M  V30 5600 N 517.335 0.585699 1.46312 0
M  V30 5601 C 518.265 -0.133556 2.33118 0
M  V30 5602 C 519.246 -0.880707 1.45525 0
M  V30 5603 O 520.431 -0.855579 1.74337 0
M  V30 5604 C 517.561 -1.14585 3.27853 0
M  V30 5605 C 516.515 -0.513341 4.2491 0
M  V30 5606 C 515.841 -1.63231 5.09175 0
M  V30 5607 C 517.141 0.551413 5.19381 0
M  V30 5608 H 518.835 0.59121 2.93505 0
M  V30 5609 H 516.381 0.285761 1.41136 0
M  V30 5610 H 518.334 -1.65741 3.87438 0
M  V30 5611 H 517.058 -1.90093 2.65579 0
M  V30 5612 H 515.717 -0.0228349 3.66593 0
M  V30 5613 H 515.365 -2.37713 4.43285 0
M  V30 5614 H 515.065 -1.21473 5.74907 0
M  V30 5615 H 516.589 -2.14658 5.71624 0
M  V30 5616 H 518.003 0.124804 5.73164 0
M  V30 5617 H 516.4 0.889486 5.93471 0
M  V30 5618 H 517.47 1.43655 4.63132 0
M  V30 5619 N 518.813 -1.54241 0.323641 0
M  V30 5620 C 519.723 -2.28033 -0.551205 0
M  V30 5621 C 520.739 -1.32388 -1.12913 0
M  V30 5622 O 521.915 -1.65403 -1.14908 0
M  V30 5623 C 518.98 -3.02382 -1.69606 0
M  V30 5624 C 518.041 -4.13612 -1.14993 0
M  V30 5625 C 517.274 -4.84407 -2.24022 0
M  V30 5626 O 517.497 -4.54716 -3.44368 0
M  V30 5627 O 516.431 -5.71312 -1.89436 0
M  V30 5628 H 520.257 -3.03662 0.048066 0
M  V30 5629 H 517.842 -1.49133 0.0893289 0
M  V30 5630 H 519.724 -3.48941 -2.36259 0
M  V30 5631 H 518.399 -2.29628 -2.28151 0
M  V30 5632 H 517.306 -3.71402 -0.448484 0
M  V30 5633 H 518.639 -4.8841 -0.609608 0
M  V30 5634 N 520.291 -0.0518155 -1.57515 0
M  V30 5635 C 521.201 0.937539 -2.15052 0
M  V30 5636 C 522.217 1.34121 -1.10849 0
M  V30 5637 O 523.393 1.418 -1.4302 0
M  V30 5638 C 520.458 2.19379 -2.68466 0
M  V30 5639 C 519.519 1.84841 -3.87469 0
M  V30 5640 C 518.752 3.04477 -4.38326 0
M  V30 5641 O 518.975 4.17868 -3.88256 0
M  V30 5642 O 517.909 2.85453 -5.29906 0
M  V30 5643 H 521.735 0.478201 -2.99912 0
M  V30 5644 H 519.32 0.17012 -1.48428 0
M  V30 5645 H 521.202 2.93084 -3.02787 0
M  V30 5646 H 519.877 2.64449 -1.86677 0
M  V30 5647 H 518.784 1.08449 -3.58036 0
M  V30 5648 H 520.117 1.44569 -4.7049 0
M  V30 5649 N 521.769 1.56035 0.221574 0
M  V30 5650 C 522.716 1.92413 1.27459 0
M  V30 5651 C 523.686 0.781323 1.46576 0
M  V30 5652 O 524.871 1.03721 1.60145 0
M  V30 5653 C 522.011 2.24617 2.61995 0
M  V30 5654 C 521.124 3.51831 2.50677 0
M  V30 5655 C 520.259 3.73482 3.77736 0
M  V30 5656 C 519.298 4.94211 3.6114 0
M  V30 5657 N 518.435 5.12252 4.80148 0
M  V30 5658 H 523.275 2.82203 0.957355 0
M  V30 5659 H 520.812 1.39676 0.461415 0
M  V30 5660 H 522.77 2.41298 3.40339 0
M  V30 5661 H 521.4 1.38 2.91815 0
M  V30 5662 H 520.452 3.43343 1.63767 0
M  V30 5663 H 521.764 4.40328 2.34334 0
M  V30 5664 H 520.918 3.9026 4.64523 0
M  V30 5665 H 519.657 2.83266 3.97003 0
M  V30 5666 H 518.662 4.77384 2.72736 0
M  V30 5667 H 519.887 5.85912 3.43343 0
M  V30 5668 H 517.833 4.24978 4.99729 0
M  V30 5669 H 517.75 5.94881 4.66532 0
M  V30 5670 H 519.018 5.33465 5.68362 0
M  V30 5671 N 523.247 -0.488276 1.49845 0
M  V30 5672 C 524.477 -1.26344 1.63465 0
M  V30 5673 C 524.885 -1.86637 0.310379 0
M  V30 5674 O 524.228 -1.69184 -0.715712 0
M  V30 5675 C 524.29 -2.42407 2.65479 0
M  V30 5676 C 523.954 -2.02886 4.09495 0
M  V30 5677 C 524.951 -1.56124 4.95904 0
M  V30 5678 C 522.636 -2.12131 4.55308 0
M  V30 5679 C 524.63 -1.19129 6.26169 0
M  V30 5680 C 522.317 -1.74747 5.85582 0
M  V30 5681 C 523.315 -1.28322 6.70837 0
M  V30 5682 O 523.003 -0.914491 7.98682 0
M  V30 5683 H 522.735 -0.388921 0.552916 0
M  V30 5684 H 525.289 -0.591288 1.96705 0
M  V30 5685 H 523.519 -3.12739 2.27445 0
M  V30 5686 H 525.208 -3.04409 2.68495 0
M  V30 5687 H 525.974 -1.48417 4.61733 0
M  V30 5688 H 521.853 -2.47217 3.89107 0
M  V30 5689 H 525.397 -0.828211 6.92666 0
M  V30 5690 H 521.294 -1.82109 6.19279 0
M  V30 5691 H 522.062 -1.04485 8.11804 0
M  V30 5692 N 524.725 -1.39134 -0.740242 0
M  V30 5693 C 526.141 -1.20623 -1.0451 0
M  V30 5694 C 526.341 -0.0641651 -2.01398 0
M  V30 5695 O 525.397 0.585843 -2.4561 0
M  V30 5696 C 526.71 -2.53815 -1.6124 0
M  V30 5697 C 528.258 -2.60615 -1.73346 0
M  V30 5698 C 528.733 -3.94015 -2.33486 0
M  V30 5699 N 530.224 -3.95627 -2.40902 0
M  V30 5700 C 530.959 -4.95616 -2.88361 0
M  V30 5701 N 530.455 -6.06003 -3.35756 0
M  V30 5702 N 532.248 -4.82998 -2.87523 0
M  V30 5703 H 524.399 -2.12176 -0.0975576 0
M  V30 5704 H 526.662 -0.942066 -0.105904 0
M  V30 5705 H 526.368 -3.37911 -0.975144 0
M  V30 5706 H 526.242 -2.73162 -2.6012 0
M  V30 5707 H 528.629 -1.76906 -2.36195 0
M  V30 5708 H 528.71 -2.45123 -0.731336 0
M  V30 5709 H 528.354 -4.78153 -1.71267 0
M  V30 5710 H 528.284 -4.06825 -3.34366 0
M  V30 5711 H 530.775 -3.15903 -2.07398 0
M  V30 5712 H 531.088 -6.78215 -3.70464 0
M  V30 5713 H 529.433 -6.09604 -3.33778 0
M  V30 5714 H 532.624 -3.95866 -2.49816 0
M  V30 5715 H 532.797 -5.61072 -3.24196 0
M  V30 5716 N 526.204 0.969867 -1.24223 0
M  V30 5717 C 527.136 2.0669 -0.99055 0
M  V30 5718 C 528.149 1.62753 0.0392222 0
M  V30 5719 O 529.338 1.77403 -0.197561 0
M  V30 5720 C 526.438 3.35589 -0.472594 0
M  V30 5721 C 525.611 4.08444 -1.56499 0
M  V30 5722 C 524.67 5.15616 -1.05007 0
M  V30 5723 O 523.696 5.41911 -1.7413 0
M  V30 5724 N 524.898 5.80383 0.116641 0
M  V30 5725 H 527.663 2.28855 -1.93508 0
M  V30 5726 H 525.224 1.13733 -1.15223 0
M  V30 5727 H 527.216 4.04542 -0.112919 0
M  V30 5728 H 525.786 3.10311 0.377617 0
M  V30 5729 H 525.006 3.33798 -2.09696 0
M  V30 5730 H 526.294 4.53882 -2.29932 0
M  V30 5731 H 525.692 5.6142 0.694589 0
M  V30 5732 H 524.249 6.50462 0.417483 0
M  V30 5733 N 527.682 1.05563 1.17022 0
M  V30 5734 C 528.592 0.670758 2.24807 0
M  V30 5735 C 529.608 -0.309865 1.71219 0
M  V30 5736 O 530.784 -0.161025 2.00755 0
M  V30 5737 C 527.849 0.055337 3.46656 0
M  V30 5738 C 526.91 1.08688 4.15314 0
M  V30 5739 C 526.143 0.500736 5.31346 0
M  V30 5740 O 526.366 -0.688718 5.66227 0
M  V30 5741 O 525.3 1.23683 5.89055 0
M  V30 5742 H 529.126 1.56914 2.60023 0
M  V30 5743 H 526.711 0.827428 1.24395 0
M  V30 5744 H 528.593 -0.286492 4.20425 0
M  V30 5745 H 527.268 -0.816638 3.13229 0
M  V30 5746 H 526.175 1.48077 3.43546 0
M  V30 5747 H 527.508 1.93014 4.52777 0
M  V30 5748 N 529.16 -1.33526 0.837174 0
M  V30 5749 C 530.437 -1.92369 0.354065 0
M  V30 5750 C 530.817 -1.76348 -1.16038 0
M  V30 5751 O 530.165 -1.15083 -1.97403 0
M  V30 5752 C 530.375 -3.39728 0.799101 0
M  V30 5753 C 531.723 -4.16877 0.806139 0
M  V30 5754 O 532.747 -3.48373 0.742597 0
M  V30 5755 O 531.606 -5.39166 0.892345 0
M  V30 5756 H 528.7 -0.820952 0.0998378 0
M  V30 5757 H 531.246 -1.42409 0.922913 0
M  V30 5758 H 530.018 -3.45254 1.84162 0
M  V30 5759 H 529.641 -3.97062 0.206731 0
M  V30 5760 N 530.638 -0.59345 -1.46 0
M  V30 5761 C 531.57 0.171569 -2.28557 0
M  V30 5762 C 532.583 0.845273 -1.39137 0
M  V30 5763 O 533.772 0.713033 -1.6364 0
M  V30 5764 C 530.872 1.26311 -3.14482 0
M  V30 5765 C 530.045 0.679258 -4.32094 0
M  V30 5766 C 529.104 1.65987 -4.99334 0
M  V30 5767 O 528.13 1.19171 -5.56585 0
M  V30 5768 N 529.332 2.99414 -4.97324 0
M  V30 5769 H 532.097 -0.536771 -2.94854 0
M  V30 5770 H 529.658 -0.431954 -1.56031 0
M  V30 5771 H 531.65 1.91863 -3.5633 0
M  V30 5772 H 530.22 1.87416 -2.50188 0
M  V30 5773 H 529.44 -0.153992 -3.93899 0
M  V30 5774 H 530.728 0.26916 -5.08088 0
M  V30 5775 H 530.126 3.40064 -4.52076 0
M  V30 5776 H 528.683 3.60426 -5.4308 0
M  V30 5777 N 532.116 1.54067 -0.331816 0
M  V30 5778 C 533.532 1.59587 0.0205388 0
M  V30 5779 C 533.732 1.34813 1.49759 0
M  V30 5780 O 532.788 1.13661 2.25471 0
M  V30 5781 C 534.101 2.97959 -0.405103 0
M  V30 5782 C 535.649 3.10964 -0.356454 0
M  V30 5783 C 536.124 4.51694 -0.757384 0
M  V30 5784 N 537.615 4.57709 -0.71111 0
M  V30 5785 C 538.35 5.64729 -0.993427 0
M  V30 5786 N 537.846 6.79652 -1.3433 0
M  V30 5787 N 539.639 5.54546 -0.918442 0
M  V30 5788 H 531.79 1.68426 -1.29407 0
M  V30 5789 H 534.053 0.78819 -0.526745 0
M  V30 5790 H 533.759 3.21115 -1.43451 0
M  V30 5791 H 533.633 3.76524 0.225692 0
M  V30 5792 H 536.02 2.87538 0.663763 0
M  V30 5793 H 536.101 2.34484 -1.02229 0
M  V30 5794 H 535.745 4.75853 -1.77555 0
M  V30 5795 H 535.675 5.26555 -0.0691444 0
M  V30 5796 H 538.166 3.75176 -0.452883 0
M  V30 5797 H 538.479 7.57221 -1.54388 0
M  V30 5798 H 536.824 6.81128 -1.38164 0
M  V30 5799 H 540.015 4.63641 -0.644536 0
M  V30 5800 H 540.188 6.37861 -1.14181 0
M  V30 5801 N 533.594 0.0601682 1.57485 0
M  V30 5802 C 534.504 -0.926121 2.15546 0
M  V30 5803 C 535.52 -1.33532 1.11558 0
M  V30 5804 O 536.696 -1.4104 1.4377 0
M  V30 5805 C 533.761 -2.17952 2.69625 0
M  V30 5806 C 532.822 -1.82783 3.88444 0
M  V30 5807 C 532.055 -3.02148 4.39935 0
M  V30 5808 O 532.278 -4.15803 3.90466 0
M  V30 5809 O 531.212 -2.82639 5.31412 0
M  V30 5810 H 535.038 -0.462289 3.00161 0
M  V30 5811 H 532.623 -0.162246 1.48516 0
M  V30 5812 H 534.505 -2.91474 3.04337 0
M  V30 5813 H 533.18 -2.63456 1.88077 0
M  V30 5814 H 532.087 -1.06549 3.58606 0
M  V30 5815 H 533.42 -1.42072 4.7125 0
M  V30 5816 N 535.072 -1.5615 -0.213296 0
M  V30 5817 C 536.488 -1.49327 -0.56336 0
M  V30 5818 C 536.688 -0.756826 -1.86747 0
M  V30 5819 O 535.744 -0.299866 -2.50713 0
M  V30 5820 C 537.057 -2.9392 -0.634944 0
M  V30 5821 C 538.605 -3.04487 -0.725013 0
M  V30 5822 C 539.08 -4.50456 -0.82787 0
M  V30 5823 N 540.571 -4.54533 -0.891876 0
M  V30 5824 C 541.306 -5.64766 -0.991315 0
M  V30 5825 N 540.802 -6.84733 -1.05419 0
M  V30 5826 N 542.595 -5.52637 -1.02709 0
M  V30 5827 H 534.746 -2.02453 0.642366 0
M  V30 5828 H 537.009 -0.920548 0.226487 0
M  V30 5829 H 536.715 -3.50783 0.253859 0
M  V30 5830 H 536.589 -3.46274 -1.49579 0
M  V30 5831 H 538.976 -2.47685 -1.60425 0
M  V30 5832 H 539.057 -2.55289 0.161669 0
M  V30 5833 H 538.701 -5.07878 0.0469464 0
M  V30 5834 H 538.631 -4.97369 -1.73009 0
M  V30 5835 H 541.122 -3.68141 -0.85327 0
M  V30 5836 H 541.435 -7.64493 -1.13007 0
M  V30 5837 H 539.78 -6.87427 -1.02318 0
M  V30 5838 H 542.971 -4.5784 -0.974687 0
M  V30 5839 H 543.144 -6.38576 -1.10113 0
M  V30 5840 N 536.55 0.480323 -1.50102 0
M  V30 5841 C 537.46 1.60547 -1.71061 0
M  V30 5842 C 538.476 1.63564 -0.593529 0
M  V30 5843 O 539.652 1.81604 -0.870751 0
M  V30 5844 C 536.717 2.96814 -1.79171 0
M  V30 5845 C 535.778 3.04259 -3.02861 0
M  V30 5846 C 535.011 4.34027 -3.10574 0
M  V30 5847 O 535.234 5.24009 -2.25323 0
M  V30 5848 O 534.168 4.46873 -4.03223 0
M  V30 5849 H 537.994 1.45788 -2.6642 0
M  V30 5850 H 535.579 0.658838 -1.34088 0
M  V30 5851 H 537.461 3.77765 -1.86738 0
M  V30 5852 H 536.136 3.11791 -0.869947 0
M  V30 5853 H 535.043 2.22419 -3.008 0
M  V30 5854 H 536.376 2.94216 -3.94586 0
M  V30 5855 N 538.028 1.39524 0.732853 0
M  V30 5856 C 538.958 1.41153 1.86005 0
M  V30 5857 C 539.939 0.274614 1.67869 0
M  V30 5858 O 541.124 0.480745 1.88155 0
M  V30 5859 C 538.254 1.25638 3.23778 0
M  V30 5860 C 537.208 2.36752 3.56556 0
M  V30 5861 C 536.534 2.06326 4.93289 0
M  V30 5862 C 537.834 3.79069 3.5931 0
M  V30 5863 H 539.528 2.35484 1.84899 0
M  V30 5864 H 537.074 1.13348 0.888162 0
M  V30 5865 H 539.027 1.25398 4.0231 0
M  V30 5866 H 537.751 0.277772 3.25417 0
M  V30 5867 H 536.41 2.36213 2.80355 0
M  V30 5868 H 536.058 1.06897 4.9151 0
M  V30 5869 H 535.758 2.80757 5.16187 0
M  V30 5870 H 537.282 2.07739 5.74175 0
M  V30 5871 H 538.696 3.81526 4.27914 0
M  V30 5872 H 537.093 4.52878 3.93728 0
M  V30 5873 H 538.163 4.09893 2.59068 0
M  V30 5874 N 539.506 -0.963266 1.24736 0
M  V30 5875 C 540.922 -1.23273 1.01371 0
M  V30 5876 C 541.122 -1.99618 -0.274776 0
M  V30 5877 O 540.178 -2.32293 -0.989769 0
M  V30 5878 C 541.491 -2.01554 2.23152 0
M  V30 5879 C 543.039 -2.14629 2.27823 0
M  V30 5880 C 543.514 -2.96307 3.49237 0
M  V30 5881 N 545.005 -3.03887 3.49581 0
M  V30 5882 C 545.74 -3.67456 4.40186 0
M  V30 5883 N 545.236 -4.32706 5.41052 0
M  V30 5884 N 547.029 -3.64511 4.27888 0
M  V30 5885 H 539.18 -0.452294 2.07528 0
M  V30 5886 H 541.443 -0.262521 0.910926 0
M  V30 5887 H 541.149 -1.52847 3.1675 0
M  V30 5888 H 541.023 -3.02278 2.25628 0
M  V30 5889 H 543.41 -2.62537 1.34753 0
M  V30 5890 H 543.491 -1.13238 2.2937 0
M  V30 5891 H 543.135 -2.49091 4.42624 0
M  V30 5892 H 543.065 -3.97905 3.44933 0
M  V30 5893 H 545.556 -2.57477 2.76611 0
M  V30 5894 H 545.869 -4.79042 6.06415 0
M  V30 5895 H 544.214 -4.31361 5.44934 0
M  V30 5896 H 547.405 -3.12715 3.4832 0
M  V30 5897 H 547.578 -4.13768 4.98698 0
M  V30 5898 N 540.985 -1.06182 -1.16461 0
M  V30 5899 C 542.213 -0.798583 -1.90867 0
M  V30 5900 C 542.628 0.646921 -1.77371 0
M  V30 5901 O 541.985 1.44279 -1.11758 0
M  V30 5902 C 542.036 -1.18258 -3.4161 0
M  V30 5903 O 541.757 -2.57135 -3.54701 0
M  V30 5904 C 543.258 -0.946917 -4.33069 0
M  V30 5905 H 540.478 -0.289603 -0.605286 0
M  V30 5906 H 543.022 -1.41515 -1.47627 0
M  V30 5907 H 541.177 -0.610562 -3.82558 0
M  V30 5908 H 541.591 -2.72477 -4.4817 0
M  V30 5909 H 543.065 -1.26523 -5.37304 0
M  V30 5910 H 543.542 0.117406 -4.39043 0
M  V30 5911 H 544.148 -1.50326 -3.97847 0
M  V30 5912 N 542.463 1.3308 -0.844243 0
M  V30 5913 C 543.393 2.3161 -0.296493 0
M  V30 5914 C 544.374 1.59215 0.598707 0
M  V30 5915 O 545.559 1.87077 0.521134 0
M  V30 5916 C 542.689 3.43313 0.524762 0
M  V30 5917 C 541.643 4.27115 -0.275106 0
M  V30 5918 C 540.969 5.30483 0.670236 0
M  V30 5919 C 542.269 5.00443 -1.49514 0
M  V30 5920 H 543.963 2.77672 -1.11976 0
M  V30 5921 H 541.509 1.33496 -0.539899 0
M  V30 5922 H 543.462 4.11273 0.918298 0
M  V30 5923 H 542.186 2.95952 1.3813 0
M  V30 5924 H 540.845 3.60787 -0.650267 0
M  V30 5925 H 540.493 4.79379 1.52332 0
M  V30 5926 H 540.193 5.87435 0.139123 0
M  V30 5927 H 541.717 6.01308 1.06117 0
M  V30 5928 H 543.131 5.61141 -1.17447 0
M  V30 5929 H 541.528 5.67071 -1.96343 0
M  V30 5930 H 542.598 4.28906 -2.26202 0
M  V30 5931 N 543.941 0.601185 1.45683 0
M  V30 5932 C 544.871 -0.108824 2.33246 0
M  V30 5933 C 545.852 -0.865223 1.46451 0
M  V30 5934 O 547.037 -0.83704 1.75235 0
M  V30 5935 C 544.167 -1.11101 3.2905 0
M  V30 5936 C 543.121 -0.468244 4.25431 0
M  V30 5937 C 542.447 -1.57822 5.10878 0
M  V30 5938 C 543.747 0.606469 5.18767 0
M  V30 5939 H 545.441 0.622306 2.92861 0
M  V30 5940 H 542.987 0.300714 1.40825 0
M  V30 5941 H 544.94 -1.61622 3.89174 0
M  V30 5942 H 543.664 -1.87265 2.67581 0
M  V30 5943 H 542.323 0.0160484 3.66596 0
M  V30 5944 H 541.971 -2.32998 4.45781 0
M  V30 5945 H 541.671 -1.15369 5.76163 0
M  V30 5946 H 543.195 -2.08583 5.73869 0
M  V30 5947 H 544.609 0.185589 5.73 0
M  V30 5948 H 543.006 0.952381 5.92494 0
M  V30 5949 H 544.076 1.48559 4.61582 0
M  V30 5950 N 545.419 -1.53889 0.339982 0
M  V30 5951 C 546.349 -2.27843 -0.510856 0
M  V30 5952 C 547.33 -1.29267 -1.10563 0
M  V30 5953 O 548.515 -1.58104 -1.12768 0
M  V30 5954 C 545.645 -3.04857 -1.66372 0
M  V30 5955 C 544.599 -4.10907 -1.19746 0
M  V30 5956 C 543.925 -4.75855 -2.43857 0
M  V30 5957 C 545.225 -5.21435 -0.300501 0
M  V30 5958 H 546.919 -2.99212 0.106067 0
M  V30 5959 H 544.465 -1.43904 0.0524533 0
M  V30 5960 H 546.418 -3.5533 -2.26537 0
M  V30 5961 H 545.142 -2.31133 -2.30749 0
M  V30 5962 H 543.801 -3.61342 -0.618654 0
M  V30 5963 H 543.449 -3.9873 -3.06633 0
M  V30 5964 H 543.149 -5.47502 -2.13343 0
M  V30 5965 H 544.673 -5.2911 -3.04754 0
M  V30 5966 H 546.087 -5.67565 -0.80889 0
M  V30 5967 H 544.484 -6.00036 -0.0874076 0
M  V30 5968 H 545.554 -4.80328 0.664321 0
M  V30 5969 N 546.897 -0.0685191 -1.57451 0
M  V30 5970 C 547.829 0.929372 -2.09512 0
M  V30 5971 C 548.842 1.26354 -1.02657 0
M  V30 5972 O 550.031 1.2213 -1.30179 0
M  V30 5973 C 547.131 2.24612 -2.53777 0
M  V30 5974 C 546.304 2.09128 -3.84167 0
M  V30 5975 C 545.363 3.24079 -4.14559 0
M  V30 5976 O 544.389 2.99215 -4.8421 0
M  V30 5977 N 545.591 4.49077 -3.67845 0
M  V30 5978 H 548.356 0.484901 -2.95751 0
M  V30 5979 H 545.917 0.11729 -1.61475 0
M  V30 5980 H 547.909 3.00412 -2.71172 0
M  V30 5981 H 546.479 2.60569 -1.72692 0
M  V30 5982 H 545.699 1.17815 -3.76182 0
M  V30 5983 H 546.987 1.9603 -4.69521 0
M  V30 5984 H 546.385 4.72165 -3.11571 0
M  V30 5985 H 544.942 5.21915 -3.90446 0
M  V30 5986 N 548.375 1.56261 0.205012 0
M  V30 5987 C 549.307 1.90266 1.27795 0
M  V30 5988 C 550.32 0.792397 1.42214 0
M  V30 5989 O 551.509 1.07077 1.42817 0
M  V30 5990 C 548.609 2.11074 2.65143 0
M  V30 5991 C 547.782 3.42176 2.7246 0
M  V30 5992 C 546.841 3.52216 3.90936 0
M  V30 5993 O 545.867 4.25119 3.78501 0
M  V30 5994 N 547.069 2.84573 5.05963 0
M  V30 5995 H 549.834 2.82896 0.989434 0
M  V30 5996 H 547.395 1.57008 0.394981 0
M  V30 5997 H 549.387 2.15089 3.4281 0
M  V30 5998 H 547.957 1.2499 2.86524 0
M  V30 5999 H 547.177 3.50116 1.81142 0
M  V30 6000 H 548.465 4.28509 2.74331 0
M  V30 6001 H 547.863 2.25152 5.18963 0
M  V30 6002 H 546.42 2.94228 5.81613 0
M  V30 6003 N 549.853 -0.472356 1.50355 0
M  V30 6004 C 551.078 -1.25251 1.65309 0
M  V30 6005 C 551.503 -1.85081 0.335643 0
M  V30 6006 O 550.861 -1.67227 -0.700335 0
M  V30 6007 C 550.909 -2.3379 2.74544 0
M  V30 6008 O 550.013 -3.38401 2.35709 0
M  V30 6009 H 549.354 -0.368539 0.552336 0
M  V30 6010 H 551.884 -0.562271 1.96722 0
M  V30 6011 H 551.894 -2.79121 2.97583 0
M  V30 6012 H 550.569 -1.89614 3.70161 0
M  V30 6013 H 549.146 -2.9879 2.23112 0
M  V30 6014 N 551.331 -1.39911 -0.725443 0
M  V30 6015 C 552.279 -1.39552 -1.86086 0
M  V30 6016 C 553.273 -0.277334 -1.67114 0
M  V30 6017 O 554.479 -0.447865 -1.74339 0
M  V30 6018 H 550.854 -0.435993 -0.612711 0
M  V30 6019 H 552.825 -2.35305 -1.83505 0
M  V30 6020 C 551.574 -1.26529 -3.2386 0
M  V30 6021 H 550.897 -2.11845 -3.3906 0
M  V30 6022 H 552.337 -1.30336 -4.03471 0
M  V30 6023 C 550.796 0.0254168 -3.3689 0
M  V30 6024 O 551.326 0.992048 -3.89257 0
M  V30 6025 N 549.532 0.0916528 -2.90455 0
M  V30 6026 H 549.079 -0.695675 -2.48028 0
M  V30 6027 H 549.037 0.954745 -2.99553 0
M  V30 6028 N 552.809 0.956637 -1.25245 0
M  V30 6029 C 554.055 1.70352 -1.10036 0
M  V30 6030 C 554.388 1.90869 0.358156 0
M  V30 6031 O 553.663 1.47819 1.26411 0
M  V30 6032 C 553.946 3.08766 -1.85298 0
M  V30 6033 C 553.799 2.95672 -3.38966 0
M  V30 6034 C 555.118 4.08622 -1.63451 0
M  V30 6035 H 552.237 0.618279 -0.401123 0
M  V30 6036 H 554.879 1.11212 -1.54051 0
M  V30 6037 H 553.029 3.59252 -1.47887 0
M  V30 6038 H 554.701 2.52527 -3.86041 0
M  V30 6039 H 552.944 2.31634 -3.6678 0
M  V30 6040 H 553.615 3.93776 -3.86839 0
M  V30 6041 H 556.091 3.67038 -1.96015 0
M  V30 6042 H 554.967 5.03514 -2.18551 0
M  V30 6043 H 555.228 4.3834 -0.575357 0
M  V30 6044 O 554.326 1.1921 1.08956 0
M  V30 6045 H 555.017 0.939352 1.69399 0
M  V30 END ATOM
M  V30 BEGIN BOND
M  V30 END BOND
M  V30 END CTAB
M  END
$$$$
