drugbank_target|Q99759 Mitogen-activated protein kinase kinase kinase 3 (DB12010)
 OpenBabel12092121163D

  0  0  0     0  0            999 V3000
M  V30 BEGIN CTAB
M  V30 COUNTS 9860 9961 0 0 0
M  V30 BEGIN ATOM
M  V30 1 H -0.908 1.98254 -0.117106 0
M  V30 2 N 0 1.576 0 0
M  V30 3 C 0.933 2.03868 1.02534 0
M  V30 4 C 1.911 0.928543 1.3348 0
M  V30 5 O 3.095 1.19667 1.45644 0
M  V30 6 C 0.222 2.43627 2.35294 0
M  V30 7 C -0.732 3.65373 2.2001 0
M  V30 8 S 0.101 5.13292 1.52614 0
M  V30 9 C 1.257 5.56322 2.86805 0
M  V30 10 H 1.49 2.90518 0.631377 0
M  V30 11 H -0.977 1.52953 0.210867 0
M  V30 12 H 0.981 2.67203 3.11629 0
M  V30 13 H -0.358 1.57376 2.7183 0
M  V30 14 H -1.165 3.90944 3.18086 0
M  V30 15 H -1.563 3.418 1.51819 0
M  V30 16 H 0.729 5.58782 3.83104 0
M  V30 17 H 1.672 6.56266 2.65933 0
M  V30 18 H 2.08 4.83886 2.90714 0
M  V30 19 N 1.4781 -0.272755 1.55222 0
M  V30 20 C 2.7551 -1.02562 1.66555 0
M  V30 21 C 3.1351 -2.04282 0.532189 0
M  V30 22 O 2.4831 -2.23662 -0.467717 0
M  V30 23 C 2.6931 -1.6822 3.05782 0
M  V30 24 C 4.0411 -2.19373 3.63539 0
M  V30 25 O 5.0651 -1.78206 3.08417 0
M  V30 26 O 3.9241 -2.94883 4.60115 0
M  V30 27 H 1.0181 -0.475755 0.676451 0
M  V30 28 H 3.5641 -0.268593 1.67561 0
M  V30 29 H 2.3361 -0.945112 3.79715 0
M  V30 30 H 1.9591 -2.50609 3.08676 0
M  V30 31 N 2.9562 -1.48159 -0.537278 0
M  V30 32 C 3.8662 -1.64807 -1.6696 0
M  V30 33 C 4.8822 -0.530651 -1.65711 0
M  V30 34 O 6.0582 -0.800784 -1.84796 0
M  V30 35 C 3.1232 -1.67708 -3.03438 0
M  V30 36 C 2.1842 -2.91025 -3.156 0
M  V30 37 C 1.4172 -2.93778 -4.45567 0
M  V30 38 O 1.6402 -2.05153 -5.3223 0
M  V30 39 O 0.5742 -3.85868 -4.61941 0
M  V30 40 H 4.4002 -2.6066 -1.55853 0
M  V30 41 H 1.9852 -1.31475 -0.709549 0
M  V30 42 H 3.8672 -1.7218 -3.84619 0
M  V30 43 H 2.5422 -0.750278 -3.14885 0
M  V30 44 H 1.4492 -2.92089 -2.33741 0
M  V30 45 H 2.7822 -3.83065 -3.09066 0
M  V30 46 N 4.4343 0.785586 -1.36625 0
M  V30 47 C 5.3663 1.90711 -1.2713 0
M  V30 48 C 6.3793 1.61688 -0.189986 0
M  V30 49 O 7.5683 1.72864 -0.445014 0
M  V30 50 C 4.6683 3.25611 -0.939713 0
M  V30 51 C 3.8413 3.82385 -2.12369 0
M  V30 52 C 2.9003 4.95732 -1.76456 0
M  V30 53 O 1.9263 5.12047 -2.48589 0
M  V30 54 N 3.1283 5.76258 -0.700492 0
M  V30 55 H 5.8933 1.99376 -2.23762 0
M  V30 56 H 3.4543 0.964041 -1.30069 0
M  V30 57 H 5.4463 3.98937 -0.680554 0
M  V30 58 H 4.0163 3.12538 -0.0624074 0
M  V30 59 H 3.2363 3.01001 -2.54543 0
M  V30 60 H 4.5243 4.17047 -2.9146 0
M  V30 61 H 3.9223 5.65609 -0.101624 0
M  V30 62 H 2.4793 6.4987 -0.501165 0
M  V30 63 N 5.9124 1.20967 1.01018 0
M  V30 64 C 6.8224 0.980157 2.13143 0
M  V30 65 C 7.8384 -0.0660665 1.73875 0
M  V30 66 O 9.0144 0.122821 2.01025 0
M  V30 67 C 6.0794 0.54216 3.42435 0
M  V30 68 C 5.1404 1.65999 3.95908 0
M  V30 69 C 4.3734 1.2428 5.19028 0
M  V30 70 O 4.5964 0.114196 5.70286 0
M  V30 71 O 3.5304 2.05271 5.65816 0
M  V30 72 H 7.3564 1.91913 2.35379 0
M  V30 73 H 4.9414 0.994099 1.11526 0
M  V30 74 H 6.8234 0.30744 4.20277 0
M  V30 75 H 5.4984 -0.36815 3.216 0
M  V30 76 H 4.4054 1.94906 3.19316 0
M  V30 77 H 5.7384 2.54753 4.21143 0
M  V30 78 N 7.3905 -1.2043 1.01659 0
M  V30 79 C 8.3535 -2.21433 0.591616 0
M  V30 80 C 9.3535 -1.57203 -0.338226 0
M  V30 81 O 10.5435 -1.73737 -0.126918 0
M  V30 82 C 7.6755 -3.40628 -0.136058 0
M  V30 83 H 8.8685 -2.60545 1.48514 0
M  V30 84 H 6.4215 -1.33893 0.806379 0
M  V30 85 H 7.1565 -3.07019 -1.04449 0
M  V30 86 H 6.9415 -3.88475 0.531917 0
M  V30 87 H 8.4315 -4.15475 -0.420735 0
M  V30 88 N 8.8686 -0.792821 -1.36206 0
M  V30 89 C 9.7986 -0.207853 -2.32573 0
M  V30 90 C 10.7796 0.659055 -1.56813 0
M  V30 91 O 11.9646 0.592176 -1.84951 0
M  V30 92 C 9.0946 0.655449 -3.41059 0
M  V30 93 C 8.0486 -0.111842 -4.27854 0
M  V30 94 C 7.3746 0.872274 -5.27537 0
M  V30 95 C 8.6746 -1.30299 -5.05786 0
M  V30 96 H 10.3686 -1.01294 -2.81744 0
M  V30 97 H 7.9146 -0.48854 -1.3546 0
M  V30 98 H 9.8676 1.07464 -4.07467 0
M  V30 99 H 8.5916 1.49328 -2.90463 0
M  V30 100 H 7.2506 -0.512053 -3.63006 0
M  V30 101 H 6.8986 1.70523 -4.73214 0
M  V30 102 H 6.5986 0.363291 -5.86476 0
M  V30 103 H 8.1226 1.28996 -5.96818 0
M  V30 104 H 9.5366 -0.959379 -5.65216 0
M  V30 105 H 7.9336 -1.7455 -5.74154 0
M  V30 106 H 9.0036 -2.09663 -4.37229 0
M  V30 107 N 10.3467 1.47872 -0.545128 0
M  V30 108 C 11.2947 2.31533 0.222512 0
M  V30 109 C 12.2887 1.42177 0.920985 0
M  V30 110 O 13.4947 1.59005 0.843645 0
M  V30 111 H 9.8697 0.746519 0.0906278 0
M  V30 112 H 11.8407 2.94139 -0.50246 0
M  V30 113 C 10.5897 3.2457 1.24699 0
M  V30 114 H 9.9127 3.93283 0.718944 0
M  V30 115 H 11.3527 3.85963 1.75523 0
M  V30 116 C 9.8117 2.47237 2.28856 0
M  V30 117 O 10.3417 2.20808 3.35569 0
M  V30 118 N 8.5477 2.08461 2.02466 0
M  V30 119 H 8.0947 2.30155 1.157 0
M  V30 120 H 8.0527 1.57033 2.72375 0
M  V30 121 N 11.8248 0.280983 1.55075 0
M  V30 122 C 13.0498 -0.340154 2.04592 0
M  V30 123 C 13.4748 -1.48246 1.15779 0
M  V30 124 O 12.8328 -1.80614 0.15761 0
M  V30 125 C 12.8808 -0.793104 3.5177 0
M  V30 126 O 11.9848 -1.89981 3.66034 0
M  V30 127 H 11.3258 -0.0694289 0.66036 0
M  V30 128 H 13.8558 0.416993 2.00306 0
M  V30 129 H 13.8658 -1.08729 3.93245 0
M  V30 130 H 12.5408 0.0426163 4.15878 0
M  V30 131 H 11.1178 -1.60771 3.36463 0
M  V30 132 N 13.3029 -1.57598 0.00835791 0
M  V30 133 C 14.5519 -1.90107 -0.673968 0
M  V30 134 C 14.8649 -0.884275 -1.7447 0
M  V30 135 O 16.0709 -1.09987 -2.48224 0
M  V30 136 C 14.5269 -3.37497 -1.24995 0
M  V30 137 C 14.1349 -4.47491 -0.2136 0
M  V30 138 C 15.8789 -3.79104 -1.90999 0
M  V30 139 C 13.7859 -5.85963 -0.80005 0
M  V30 140 H 12.7159 -0.709393 -0.255495 0
M  V30 141 H 15.3669 -1.83365 0.0702693 0
M  V30 142 H 13.7489 -3.39102 -2.04513 0
M  V30 143 H 14.9229 -4.57414 0.557596 0
M  V30 144 H 13.2379 -4.14956 0.346474 0
M  V30 145 H 15.8349 -4.79901 -2.35795 0
M  V30 146 H 16.1779 -3.1306 -2.74407 0
M  V30 147 H 16.7109 -3.79833 -1.18203 0
M  V30 148 H 13.4499 -6.555 -0.00456708 0
M  V30 149 H 12.9699 -5.79687 -1.54021 0
M  V30 150 H 14.6489 -6.33884 -1.29615 0
M  V30 151 N 14.781 0.264519 -1.55364 0
M  V30 152 C 15.714 1.35297 -1.83766 0
M  V30 153 C 16.692 1.47171 -0.691336 0
M  V30 154 O 17.876 1.63663 -0.935238 0
M  V30 155 C 15.003 2.72847 -2.00679 0
M  V30 156 C 14.049 2.78214 -3.23263 0
M  V30 157 S 14.882 2.36601 -4.80396 0
M  V30 158 C 16.038 3.7611 -5.00292 0
M  V30 159 H 16.271 1.11003 -2.758 0
M  V30 160 H 13.804 0.464596 -1.47244 0
M  V30 161 H 15.762 3.52057 -2.11108 0
M  V30 162 H 14.423 2.94388 -1.09518 0
M  V30 163 H 13.616 3.7919 -3.3201 0
M  V30 164 H 13.218 2.07034 -3.11469 0
M  V30 165 H 15.51 4.71457 -4.86554 0
M  V30 166 H 16.453 3.7231 -6.02321 0
M  V30 167 H 16.861 3.67806 -4.28228 0
M  V30 168 N 16.2591 1.48442 0.529413 0
M  V30 169 C 17.2071 1.63452 1.65487 0
M  V30 170 C 18.2011 0.500955 1.61823 0
M  V30 171 O 19.4071 0.679695 1.66674 0
M  V30 172 H 15.7821 0.514905 0.548066 0
M  V30 173 H 17.7531 2.57975 1.49971 0
M  V30 174 C 16.5021 1.69196 3.03756 0
M  V30 175 H 15.8251 2.55784 3.07269 0
M  V30 176 H 17.2651 1.83743 3.82119 0
M  V30 177 C 15.7241 0.430765 3.34135 0
M  V30 178 O 16.2541 -0.4561 3.99102 0
M  V30 179 N 14.4601 0.302293 2.89023 0
M  V30 180 H 14.0071 1.02496 2.36331 0
M  V30 181 H 13.9651 -0.540546 3.09718 0
M  V30 182 N 17.7372 -0.778329 1.37039 0
M  V30 183 C 19.0142 -1.52551 1.22424 0
M  V30 184 C 19.3942 -2.10288 -0.184964 0
M  V30 185 O 18.7422 -1.94953 -1.19187 0
M  V30 186 C 18.9522 -2.61164 2.31504 0
M  V30 187 C 20.3002 -3.28746 2.68721 0
M  V30 188 O 21.3242 -2.71455 2.30631 0
M  V30 189 O 20.1832 -4.3231 3.3432 0
M  V30 190 H 17.2772 -0.675343 0.477326 0
M  V30 191 H 19.8232 -0.815859 1.48801 0
M  V30 192 H 18.5952 -2.16574 3.25901 0
M  V30 193 H 18.2182 -3.39737 2.06554 0
M  V30 194 N 19.2153 -1.21501 -1.00376 0
M  V30 195 C 20.1453 -0.999478 -2.11028 0
M  V30 196 C 21.1263 0.0759671 -1.6993 0
M  V30 197 O 22.3113 -0.0841106 -1.94018 0
M  V30 198 C 19.4413 -0.564709 -3.42678 0
M  V30 199 C 18.3953 -1.58486 -3.97576 0
M  V30 200 C 17.7213 -1.00628 -5.25146 0
M  V30 201 C 19.0213 -2.97204 -4.29496 0
M  V30 202 H 20.7153 -1.92495 -2.29317 0
M  V30 203 H 18.2613 -0.92693 -1.102 0
M  V30 204 H 20.2143 -0.401091 -4.19487 0
M  V30 205 H 18.9383 0.396411 -3.24185 0
M  V30 206 H 17.5973 -1.73606 -3.22888 0
M  V30 207 H 17.2453 -0.0368439 -5.02987 0
M  V30 208 H 16.9453 -1.68771 -5.62841 0
M  V30 209 H 18.4693 -0.854015 -6.04598 0
M  V30 210 H 19.8833 -2.8552 -4.97143 0
M  V30 211 H 18.2803 -3.62372 -4.78338 0
M  V30 212 H 19.3503 -3.47956 -3.3772 0
M  V30 213 N 20.6934 1.19889 -1.02296 0
M  V30 214 C 21.9394 1.89701 -0.717033 0
M  V30 215 C 22.2724 1.7905 0.751989 0
M  V30 216 O 21.5474 1.17891 1.547 0
M  V30 217 C 21.8304 3.40858 -1.16136 0
M  V30 218 C 21.6834 3.60411 -2.69117 0
M  V30 219 C 23.0024 4.33876 -0.737549 0
M  V30 220 H 20.1214 0.688874 -0.261957 0
M  V30 221 H 22.7634 1.41154 -1.27183 0
M  V30 222 H 20.9134 3.82335 -0.689342 0
M  V30 223 H 22.5854 3.28145 -3.2422 0
M  V30 224 H 20.8284 3.03665 -3.0979 0
M  V30 225 H 21.4994 4.66396 -2.95261 0
M  V30 226 H 23.9754 4.00081 -1.14344 0
M  V30 227 H 22.8514 5.38242 -1.0764 0
M  V30 228 H 23.1124 4.40628 0.360436 0
M  V30 229 N 22.1715 0.800033 1.35784 0
M  V30 230 C 23.1345 0.211565 2.28221 0
M  V30 231 C 24.1345 -0.59728 1.49296 0
M  V30 232 O 25.3245 -0.416721 1.69142 0
M  V30 233 C 22.4565 -0.705846 3.33513 0
M  V30 234 H 23.6495 1.02677 2.81776 0
M  V30 235 H 21.2025 0.570211 1.45528 0
M  V30 236 H 21.9375 -1.54498 2.85133 0
M  V30 237 H 21.7225 -0.127655 3.91892 0
M  V30 238 H 23.2125 -1.11211 4.02519 0
M  V30 239 N 23.6496 -1.47581 0.552962 0
M  V30 240 C 24.5796 -2.32762 -0.185451 0
M  V30 241 C 25.5606 -1.43527 -0.912905 0
M  V30 242 O 26.7456 -1.72388 -0.894201 0
M  V30 243 C 23.8756 -3.25219 -1.21859 0
M  V30 244 C 22.8296 -4.23661 -0.607864 0
M  V30 245 C 22.1556 -5.05413 -1.74533 0
M  V30 246 C 23.4556 -5.20481 0.435582 0
M  V30 247 H 25.1496 -2.94749 0.525684 0
M  V30 248 H 22.6956 -1.41738 0.254251 0
M  V30 249 H 24.6486 -3.8365 -1.7433 0
M  V30 250 H 23.3726 -2.61279 -1.95961 0
M  V30 251 H 22.0316 -3.66451 -0.104489 0
M  V30 252 H 21.6796 -4.3788 -2.47529 0
M  V30 253 H 21.3796 -5.72059 -1.34249 0
M  V30 254 H 22.9036 -5.66701 -2.27338 0
M  V30 255 H 24.3176 -5.733 -0.00290157 0
M  V30 256 H 22.7146 -5.95305 0.757067 0
M  V30 257 H 23.7846 -4.66217 1.33303 0
M  V30 258 N 25.1277 -0.289203 -1.54924 0
M  V30 259 C 26.0597 0.625583 -2.20497 0
M  V30 260 C 27.0727 1.10667 -1.19402 0
M  V30 261 O 28.2617 1.02615 -1.46056 0
M  V30 262 C 25.3617 1.86702 -2.82835 0
M  V30 263 C 24.5347 1.5304 -4.09753 0
M  V30 264 C 23.5937 2.62576 -4.56005 0
M  V30 265 O 22.6197 2.28167 -5.21468 0
M  V30 266 N 23.8217 3.92901 -4.27328 0
M  V30 267 H 26.5867 0.0642801 -2.99631 0
M  V30 268 H 24.1477 -0.110896 -1.6152 0
M  V30 269 H 26.1397 2.59304 -3.10715 0
M  V30 270 H 24.7097 2.33702 -2.07611 0
M  V30 271 H 23.9297 0.637564 -3.8901 0
M  V30 272 H 25.2177 1.28072 -4.92418 0
M  V30 273 H 24.6157 4.23671 -3.74859 0
M  V30 274 H 23.1727 4.61837 -4.59946 0
M  V30 275 N 26.6058 1.57591 -0.0167156 0
M  V30 276 C 27.5388 2.04944 1.00366 0
M  V30 277 C 28.5168 0.942648 1.32487 0
M  V30 278 O 29.7008 1.21205 1.44367 0
M  V30 279 C 26.8278 2.46109 2.32697 0
M  V30 280 C 25.8738 3.67686 2.16123 0
M  V30 281 S 26.7068 5.14882 1.47161 0
M  V30 282 C 27.8628 5.59332 2.80888 0
M  V30 283 H 28.0958 2.91172 0.600528 0
M  V30 284 H 25.6288 1.53168 0.194632 0
M  V30 285 H 27.5868 2.70493 3.08778 0
M  V30 286 H 26.2478 1.6025 2.70146 0
M  V30 287 H 25.4408 3.94296 3.13922 0
M  V30 288 H 25.0428 3.43391 1.48185 0
M  V30 289 H 27.3348 5.62814 3.77156 0
M  V30 290 H 28.2778 6.5905 2.58958 0
M  V30 291 H 28.6858 4.86942 2.85565 0
M  V30 292 N 28.0839 -0.256276 1.55502 0
M  V30 293 C 29.0319 -1.33694 1.90338 0
M  V30 294 C 30.0259 -1.50299 0.781441 0
M  V30 295 O 31.2319 -1.51885 0.965966 0
M  V30 296 H 27.6069 -0.447483 0.60437 0
M  V30 297 H 29.5779 -1.01574 2.8058 0
M  V30 298 C 28.3269 -2.68724 2.20642 0
M  V30 299 H 27.6499 -2.56743 3.06469 0
M  V30 300 H 29.0899 -3.43237 2.48926 0
M  V30 301 C 27.5489 -3.21101 1.01959 0
M  V30 302 O 28.0789 -4.0084 0.262762 0
M  V30 303 N 26.2849 -2.79003 0.812746 0
M  V30 304 H 25.8319 -2.14271 1.42989 0
M  V30 305 H 25.7899 -3.14393 0.0203076 0
M  V30 306 N 29.562 -1.4872 -0.521534 0
M  V30 307 C 30.978 -1.35028 -0.850855 0
M  V30 308 C 31.178 -0.367712 -1.98116 0
M  V30 309 O 30.234 0.208037 -2.51642 0
M  V30 310 C 31.547 -2.75263 -1.21041 0
M  V30 311 C 33.095 -2.83813 -1.31981 0
M  V30 312 C 33.57 -4.24769 -1.71276 0
M  V30 313 N 35.061 -4.27482 -1.78363 0
M  V30 314 C 35.796 -5.33494 -2.1017 0
M  V30 315 N 35.292 -6.49775 -2.40343 0
M  V30 316 N 37.085 -5.20894 -2.11248 0
M  V30 317 H 29.236 -2.11214 0.22413 0
M  V30 318 H 31.499 -0.947252 0.0376439 0
M  V30 319 H 31.205 -3.48765 -0.453415 0
M  V30 320 H 31.079 -3.09327 -2.15863 0
M  V30 321 H 33.466 -2.10561 -2.06756 0
M  V30 322 H 33.547 -2.53358 -0.352596 0
M  V30 323 H 33.191 -4.9854 -0.970588 0
M  V30 324 H 33.121 -4.52673 -2.69062 0
M  V30 325 H 35.612 -3.43611 -1.57288 0
M  V30 326 H 35.925 -7.26402 -2.63743 0
M  V30 327 H 34.27 -6.53035 -2.37844 0
M  V30 328 H 37.461 -4.29065 -1.87139 0
M  V30 329 H 37.634 -6.03612 -2.35704 0
M  V30 330 N 31.0401 0.771051 -1.3745 0
M  V30 331 C 32.4561 1.07171 -1.18265 0
M  V30 332 C 32.6561 2.01491 -0.019287 0
M  V30 333 O 31.7121 2.44244 0.640408 0
M  V30 334 C 33.0251 1.66854 -2.50161 0
M  V30 335 C 34.5731 1.79109 -2.56689 0
M  V30 336 C 35.0481 2.42205 -3.88717 0
M  V30 337 N 36.5391 2.49655 -3.90162 0
M  V30 338 C 37.2741 2.9933 -4.8907 0
M  V30 339 N 36.7701 3.49172 -5.98374 0
M  V30 340 N 38.5631 2.9821 -4.76474 0
M  V30 341 H 30.7141 0.144796 -2.11906 0
M  V30 342 H 32.9771 0.126863 -0.939473 0
M  V30 343 H 32.6831 1.05017 -3.35655 0
M  V30 344 H 32.5571 2.6614 -2.673 0
M  V30 345 H 34.9441 2.40077 -1.71601 0
M  V30 346 H 35.0251 0.785757 -2.43433 0
M  V30 347 H 34.6691 1.81875 -4.74219 0
M  V30 348 H 34.5991 3.43345 -3.99276 0
M  V30 349 H 37.0901 2.14383 -3.11205 0
M  V30 350 H 37.4031 3.8548 -6.69795 0
M  V30 351 H 35.7481 3.47275 -6.02018 0
M  V30 352 H 38.9391 2.58572 -3.90203 0
M  V30 353 H 39.1121 3.36613 -5.53711 0
M  V30 354 N 32.5182 1.22032 0.997298 0
M  V30 355 C 33.4682 0.953838 2.07089 0
M  V30 356 C 34.4522 -0.0938669 1.60626 0
M  V30 357 O 35.6442 0.116078 1.76619 0
M  V30 358 C 32.7732 0.528726 3.39204 0
M  V30 359 C 31.8592 1.61092 3.92314 0
M  V30 360 N 32.2502 2.83768 4.18699 0
M  V30 361 C 30.5482 1.48158 4.20672 0
M  V30 362 C 31.2492 3.53715 4.61802 0
M  V30 363 N 30.2252 2.81174 4.65233 0
M  V30 364 H 34.0272 1.88577 2.25424 0
M  V30 365 H 31.5412 1.11719 1.17867 0
M  V30 366 H 33.5382 0.31915 4.15677 0
M  V30 367 H 32.1982 -0.39635 3.22272 0
M  V30 368 H 33.2092 3.20238 4.07023 0
M  V30 369 H 29.8862 0.622369 4.12835 0
M  V30 370 H 31.2762 4.58793 4.90875 0
M  V30 371 N 33.9963 -1.19345 1.0293 0
M  V30 372 C 35.4123 -1.41069 0.746446 0
M  V30 373 C 35.6123 -1.90078 -0.668776 0
M  V30 374 O 34.6683 -2.0778 -1.4347 0
M  V30 375 C 35.9813 -2.42141 1.78292 0
M  V30 376 C 37.5293 -2.55887 1.80252 0
M  V30 377 C 38.0043 -3.60214 2.8286 0
M  V30 378 N 39.4953 -3.67711 2.81679 0
M  V30 379 C 40.2303 -4.48128 3.57727 0
M  V30 380 N 39.7263 -5.32248 4.43491 0
M  V30 381 N 41.5193 -4.42782 3.46267 0
M  V30 382 H 33.6703 -0.858536 1.94275 0
M  V30 383 H 35.9333 -0.439541 0.839945 0
M  V30 384 H 35.6393 -2.13155 2.79746 0
M  V30 385 H 35.5133 -3.41323 1.60557 0
M  V30 386 H 37.9003 -2.84196 0.794757 0
M  V30 387 H 37.9813 -1.56858 2.02062 0
M  V30 388 H 37.6253 -3.32647 3.83807 0
M  V30 389 H 37.5553 -4.58895 2.58307 0
M  V30 390 H 40.0463 -3.07634 2.19476 0
M  V30 391 H 40.3593 -5.90729 4.98256 0
M  V30 392 H 38.7043 -5.31707 4.47564 0
M  V30 393 H 41.8953 -3.76107 2.78677 0
M  V30 394 H 42.0683 -5.05215 4.05785 0
M  V30 395 N 35.4744 -0.807222 -1.35358 0
M  V30 396 C 36.4074 -0.163572 -2.27613 0
M  V30 397 C 37.3854 0.670817 -1.48118 0
M  V30 398 O 38.5694 0.63796 -1.77376 0
M  V30 399 C 35.6964 0.773015 -3.29761 0
M  V30 400 C 34.7424 0.0181653 -4.26496 0
M  V30 401 S 35.5754 -1.31831 -5.19019 0
M  V30 402 C 36.7314 -0.38619 -6.24707 0
M  V30 403 H 36.9644 -0.945757 -2.81856 0
M  V30 404 H 34.4974 -0.602315 -1.42167 0
M  V30 405 H 36.4554 1.30788 -3.89108 0
M  V30 406 H 35.1164 1.52859 -2.74396 0
M  V30 407 H 34.3094 0.729534 -4.98692 0
M  V30 408 H 33.9114 -0.446761 -3.71322 0
M  V30 409 H 36.2034 0.428295 -6.76145 0
M  V30 410 H 37.1464 -1.07736 -6.99856 0
M  V30 411 H 37.5544 0.018398 -5.64497 0
M  V30 412 N 36.9525 1.47285 -0.560781 0
M  V30 413 C 38.3635 1.86258 -0.128343 0
M  V30 414 C 38.7145 1.46699 1.30284 0
M  V30 415 O 37.8395 0.871698 1.98067 0
M  V30 416 C 38.4345 3.38044 -0.22614 0
M  V30 417 C 36.9935 3.76096 0.151283 0
M  V30 418 C 36.1405 2.71335 -0.572084 0
M  V30 419 H 39.0915 1.38752 -0.770297 0
M  V30 420 H 39.1125 3.76441 0.554322 0
M  V30 421 H 38.6245 3.66806 -1.26788 0
M  V30 422 H 36.7255 3.52951 1.19399 0
M  V30 423 H 36.8385 4.78641 -0.209765 0
M  V30 424 H 35.2025 2.54696 -0.0147653 0
M  V30 425 H 35.9855 3.02938 -1.61504 0
M  V30 426 N 38.4306 0.297415 1.54768 0
M  V30 427 C 39.6786 -0.312295 1.99673 0
M  V30 428 C 39.9996 -1.54686 1.18732 0
M  V30 429 O 39.2696 -1.93854 0.282382 0
M  V30 430 H 37.8496 -0.118381 0.73756 0
M  V30 431 H 40.5116 0.407915 1.90583 0
M  V30 432 H 39.6076 -0.586813 3.06534 0
M  V30 433 N 39.9087 -1.5758 0.0250728 0
M  V30 434 C 41.1387 -1.95646 -0.663783 0
M  V30 435 C 41.5467 -0.899935 -1.66427 0
M  V30 436 O 40.8897 0.127191 -1.83259 0
M  V30 437 C 40.9517 -3.29835 -1.43 0
M  V30 438 C 40.6157 -4.53197 -0.588305 0
M  V30 439 C 41.6127 -5.19726 0.13469 0
M  V30 440 C 39.2977 -4.99529 -0.526897 0
M  V30 441 C 41.2917 -6.30902 0.90781 0
M  V30 442 C 38.9787 -6.10589 0.24993 0
M  V30 443 C 39.9767 -6.76134 0.965994 0
M  V30 444 O 39.6647 -7.85062 1.7301 0
M  V30 445 H 39.3967 -0.649282 -0.188174 0
M  V30 446 H 41.9507 -2.05245 0.0799006 0
M  V30 447 H 40.1807 -3.16716 -2.21873 0
M  V30 448 H 41.8697 -3.52833 -2.00658 0
M  V30 449 H 42.6357 -4.84904 0.0965562 0
M  V30 450 H 38.5147 -4.48319 -1.07381 0
M  V30 451 H 42.0587 -6.81995 1.46724 0
M  V30 452 H 37.9557 -6.44849 0.289795 0
M  V30 453 H 38.7237 -8.01708 1.64944 0
M  V30 454 N 41.3868 0.248026 -1.55636 0
M  V30 455 C 42.2968 1.32859 -1.93354 0
M  V30 456 C 43.3128 1.52719 -0.833838 0
M  V30 457 O 44.4888 1.66363 -1.13513 0
M  V30 458 C 41.5538 2.66337 -2.21958 0
M  V30 459 C 40.6148 2.55008 -3.45354 0
M  V30 460 C 39.8478 3.82121 -3.72584 0
M  V30 461 O 40.0708 4.83951 -3.01907 0
M  V30 462 O 39.0048 3.80822 -4.6611 0
M  V30 463 H 42.8308 1.03862 -2.85388 0
M  V30 464 H 40.4158 0.448686 -1.42503 0
M  V30 465 H 42.2978 3.45216 -2.4167 0
M  V30 466 H 40.9728 2.95068 -1.33103 0
M  V30 467 H 39.8798 1.7442 -3.30951 0
M  V30 468 H 41.2128 2.31222 -4.34508 0
M  V30 469 N 42.8649 1.48995 0.513639 0
M  V30 470 C 44.0929 1.61531 1.29288 0
M  V30 471 C 44.5079 0.281801 1.86685 0
M  V30 472 O 43.8649 -0.731111 1.67215 0
M  V30 473 C 43.9159 2.67449 2.43215 0
M  V30 474 O 43.6369 3.95626 1.88179 0
M  V30 475 C 45.1379 2.90575 3.34785 0
M  V30 476 H 42.3579 0.544165 0.392588 0
M  V30 477 H 44.9019 1.9494 0.617956 0
M  V30 478 H 43.0569 2.36853 3.0656 0
M  V30 479 H 43.4709 4.53868 2.62876 0
M  V30 480 H 44.9449 3.68449 4.11035 0
M  V30 481 H 45.4219 2.00011 3.91015 0
M  V30 482 H 46.0279 3.22538 2.77218 0
M  V30 483 N 44.343 -0.763751 1.37857 0
M  V30 484 C 45.276 -1.88486 1.28639 0
M  V30 485 C 46.254 -1.61757 0.165363 0
M  V30 486 O 47.438 -1.85391 0.340948 0
M  V30 487 C 44.565 -3.23884 0.990811 0
M  V30 488 C 43.611 -3.69514 2.12983 0
M  V30 489 S 44.444 -3.82244 3.75033 0
M  V30 490 C 45.6 -5.20477 3.47641 0
M  V30 491 H 45.833 -1.96017 2.23527 0
M  V30 492 H 43.366 -0.925684 1.23574 0
M  V30 493 H 45.324 -4.02081 0.827101 0
M  V30 494 H 43.985 -3.14044 0.0592832 0
M  V30 495 H 43.178 -4.67696 1.87821 0
M  V30 496 H 42.78 -2.98441 2.25408 0
M  V30 497 H 45.072 -6.05905 3.03125 0
M  V30 498 H 46.015 -5.50655 4.4518 0
M  V30 499 H 46.423 -4.88793 2.82385 0
M  V30 500 N 45.8211 -1.22559 -0.990812 0
M  V30 501 C 46.7681 -0.997519 -2.0813 0
M  V30 502 C 47.7381 0.0814702 -1.659 0
M  V30 503 O 48.9231 -0.0685424 -1.90677 0
M  V30 504 C 46.0631 -0.583615 -3.40129 0
M  V30 505 C 45.1761 -1.7336 -3.9569 0
M  V30 506 C 44.3111 -1.26748 -5.15857 0
M  V30 507 C 43.3501 -2.38888 -5.63559 0
M  V30 508 N 42.4871 -1.93308 -6.74964 0
M  V30 509 H 47.3271 -1.93099 -2.26973 0
M  V30 510 H 44.8641 -0.962114 -1.11273 0
M  V30 511 H 46.8221 -0.324801 -4.15934 0
M  V30 512 H 45.4521 0.312845 -3.2128 0
M  V30 513 H 44.5041 -2.10669 -3.16738 0
M  V30 514 H 45.8161 -2.57704 -4.27071 0
M  V30 515 H 44.9701 -0.966173 -5.98957 0
M  V30 516 H 43.7091 -0.394272 -4.86104 0
M  V30 517 H 42.7141 -2.69805 -4.79046 0
M  V30 518 H 43.9391 -3.26728 -5.95336 0
M  V30 519 H 41.8851 -1.08352 -6.4699 0
M  V30 520 H 41.8021 -2.71217 -7.05675 0
M  V30 521 H 43.0701 -1.66252 -7.61564 0
M  V30 522 N 47.2992 1.18797 -1.03562 0
M  V30 523 C 48.2472 2.24297 -0.615905 0
M  V30 524 C 49.2412 1.65643 0.354808 0
M  V30 525 O 50.4472 1.78618 0.22265 0
M  V30 526 H 46.8222 0.729909 -0.180934 0
M  V30 527 H 48.7932 2.5701 -1.5162 0
M  V30 528 C 47.5422 3.47698 0.0104735 0
M  V30 529 H 46.8652 3.93125 -0.727509 0
M  V30 530 H 48.3052 4.23159 0.266995 0
M  V30 531 C 46.7642 3.12489 1.25905 0
M  V30 532 O 47.2942 3.25761 2.35038 0
M  V30 533 N 45.5002 2.6686 1.15039 0
M  V30 534 H 45.0472 2.56261 0.262328 0
M  V30 535 H 45.0052 2.43674 1.98672 0
M  V30 536 N 48.7773 0.814389 1.34928 0
M  V30 537 C 49.7243 0.22822 2.29669 0
M  V30 538 C 50.6943 -0.642164 1.53184 0
M  V30 539 O 51.8793 -0.585605 1.81591 0
M  V30 540 C 49.0193 -0.61089 3.3965 0
M  V30 541 C 48.1323 0.280792 4.31086 0
M  V30 542 C 47.2673 -0.567067 5.28165 0
M  V30 543 C 46.3063 0.324531 6.11239 0
M  V30 544 N 45.4433 -0.483756 7.00431 0
M  V30 545 H 50.2833 1.04153 2.79206 0
M  V30 546 H 47.8203 0.525133 1.37407 0
M  V30 547 H 49.7783 -1.11263 4.0209 0
M  V30 548 H 48.4083 -1.38939 2.91369 0
M  V30 549 H 47.4603 0.900688 3.69583 0
M  V30 550 H 48.7723 0.966723 4.89342 0
M  V30 551 H 47.9263 -1.13363 5.96015 0
M  V30 552 H 46.6653 -1.28654 4.70425 0
M  V30 553 H 45.6703 0.903298 5.42329 0
M  V30 554 H 46.8953 1.04198 6.71059 0
M  V30 555 H 44.8413 -1.18706 6.45171 0
M  V30 556 H 44.7583 0.143965 7.55863 0
M  V30 557 H 46.0263 -1.03334 7.7262 0
M  V30 558 N 50.2554 -1.46986 0.568584 0
M  V30 559 C 51.5324 -1.95592 -0.0174074 0
M  V30 560 C 51.9124 -1.51124 -1.47393 0
M  V30 561 O 51.2604 -0.755329 -2.15655 0
M  V30 562 C 51.4704 -3.48719 0.139913 0
M  V30 563 C 52.8184 -4.246 0.000426376 0
M  V30 564 O 53.8424 -3.56135 0.0680316 0
M  V30 565 O 52.7014 -5.46302 -0.146988 0
M  V30 566 H 49.7954 -0.82498 -0.0577599 0
M  V30 567 H 52.3414 -1.57335 0.635909 0
M  V30 568 H 51.1134 -3.73927 1.15301 0
M  V30 569 H 50.7364 -3.93771 -0.550491 0
M  V30 570 N 51.7335 -0.305618 -1.54608 0
M  V30 571 C 52.9615 0.304775 -2.04643 0
M  V30 572 C 53.3765 1.47167 -1.18268 0
M  V30 573 O 52.7335 1.81296 -0.209328 0
M  V30 574 C 52.7845 0.756564 -3.53495 0
M  V30 575 O 52.5055 -0.36389 -4.36586 0
M  V30 576 C 54.0065 1.43163 -4.19546 0
M  V30 577 H 51.2265 0.0655481 -0.667791 0
M  V30 578 H 53.7705 -0.446592 -1.99564 0
M  V30 579 H 51.9255 1.45794 -3.58919 0
M  V30 580 H 52.3395 -0.0113121 -5.24499 0
M  V30 581 H 53.8135 1.69886 -5.25207 0
M  V30 582 H 54.2905 2.37318 -3.69563 0
M  V30 583 H 54.8965 0.773307 -4.18211 0
M  V30 584 N 53.2116 1.57565 -0.0334293 0
M  V30 585 C 54.4596 1.91598 0.642999 0
M  V30 586 C 54.7806 0.910847 1.7242 0
M  V30 587 O 54.0506 -0.0469931 1.95844 0
M  V30 588 H 52.6306 0.707228 0.240496 0
M  V30 589 H 55.2926 1.94726 -0.0822488 0
M  V30 590 H 54.3886 2.92336 1.09298 0
M  V30 591 N 54.6897 -0.239769 1.55765 0
M  V30 592 C 55.6397 -1.30002 1.87306 0
M  V30 593 C 56.6237 -1.43156 0.73452 0
M  V30 594 O 57.8157 -1.46277 0.99659 0
M  V30 595 C 54.9447 -2.65409 2.17745 0
M  V30 596 C 54.0307 -2.56231 3.37945 0
M  V30 597 N 54.4217 -2.16689 4.57033 0
M  V30 598 C 52.7197 -2.87229 3.41197 0
M  V30 599 C 53.4207 -2.18318 5.39177 0
M  V30 600 N 52.3967 -2.58098 4.78421 0
M  V30 601 H 56.1987 -0.984912 2.76906 0
M  V30 602 H 53.7127 -0.448381 1.56087 0
M  V30 603 H 55.7097 -3.41934 2.38509 0
M  V30 604 H 54.3697 -2.97781 1.29448 0
M  V30 605 H 55.3807 -1.88116 4.82528 0
M  V30 606 H 52.0577 -3.24094 2.63191 0
M  V30 607 H 53.4477 -1.90025 6.44469 0
M  V30 608 N 56.1678 -1.49265 -0.50573 0
M  V30 609 C 57.3928 -1.62478 -1.28902 0
M  V30 610 C 57.8178 -0.294332 -1.85783 0
M  V30 611 O 57.1758 0.737412 -1.65626 0
M  V30 612 C 57.2238 -2.69268 -2.39848 0
M  V30 613 O 56.3278 -2.28113 -3.43567 0
M  V30 614 H 55.6688 -0.54399 -0.380751 0
M  V30 615 H 58.1988 -1.95421 -0.605952 0
M  V30 616 H 58.2088 -2.91291 -2.85681 0
M  V30 617 H 56.8838 -3.65846 -1.97812 0
M  V30 618 H 55.4608 -2.16401 -3.03685 0
M  V30 619 N 57.6459 0.756429 -1.3826 0
M  V30 620 C 58.5939 1.89149 -1.35372 0
M  V30 621 C 59.5879 1.67691 -0.24004 0
M  V30 622 O 60.7939 1.75294 -0.408919 0
M  V30 623 H 57.1689 0.622271 -0.422236 0
M  V30 624 H 59.1399 1.88701 -2.31159 0
M  V30 625 C 57.8889 3.26599 -1.19284 0
M  V30 626 H 57.2119 3.43695 -2.0424 0
M  V30 627 H 58.6519 4.06274 -1.21316 0
M  V30 628 C 57.1109 3.3675 0.100454 0
M  V30 629 O 57.6409 3.86951 1.07851 0
M  V30 630 N 55.8469 2.90179 0.15633 0
M  V30 631 H 55.3939 2.49517 -0.640253 0
M  V30 632 H 55.3519 2.97352 1.02123 0
M  V30 633 N 59.124 1.23083 0.984299 0
M  V30 634 C 60.54 0.992637 1.24975 0
M  V30 635 C 60.74 -0.308618 1.99123 0
M  V30 636 O 59.796 -1.02905 2.30579 0
M  V30 637 C 61.109 2.19698 2.05312 0
M  V30 638 C 62.657 2.24147 2.18465 0
M  V30 639 C 63.132 3.44157 3.02192 0
M  V30 640 N 64.623 3.44372 3.09777 0
M  V30 641 C 65.358 4.33886 3.74874 0
M  V30 642 N 64.854 5.3363 4.41827 0
M  V30 643 N 66.647 4.21639 3.71721 0
M  V30 644 H 58.798 2.06731 0.487453 0
M  V30 645 H 61.061 0.906339 0.277944 0
M  V30 646 H 60.767 3.1411 1.58201 0
M  V30 647 H 60.641 2.20465 3.06064 0
M  V30 648 H 63.028 1.30277 2.64786 0
M  V30 649 H 63.109 2.27415 1.17115 0
M  V30 650 H 62.753 4.38332 2.56568 0
M  V30 651 H 62.683 3.3813 4.03702 0
M  V30 652 H 65.174 2.72201 2.62135 0
M  V30 653 H 65.487 5.98196 4.89266 0
M  V30 654 H 63.832 5.37534 4.40548 0
M  V30 655 H 67.023 3.42962 3.18582 0
M  V30 656 H 67.196 4.91604 4.22173 0
M  V30 657 N 60.6021 -1.18246 1.0419 0
M  V30 658 C 61.5341 -2.2142 0.592088 0
M  V30 659 C 62.5471 -1.59233 -0.338909 0
M  V30 660 O 63.7361 -1.78002 -0.133231 0
M  V30 661 C 60.8361 -3.38546 -0.154854 0
M  V30 662 C 60.0091 -4.3031 0.784328 0
M  V30 663 C 59.0681 -5.26138 0.0804583 0
M  V30 664 O 58.0941 -5.64738 0.711292 0
M  V30 665 N 59.2961 -5.68261 -1.18574 0
M  V30 666 H 62.0611 -2.60636 1.47949 0
M  V30 667 H 59.6221 -1.33044 0.922544 0
M  V30 668 H 61.6141 -3.99678 -0.635606 0
M  V30 669 H 60.1841 -2.98012 -0.943811 0
M  V30 670 H 59.4041 -3.66764 1.44491 0
M  V30 671 H 60.6921 -4.8852 1.42218 0
M  V30 672 H 60.0901 -5.38957 -1.71876 0
M  V30 673 H 58.6471 -6.31584 -1.61074 0
M  V30 674 N 62.0802 -0.821533 -1.34494 0
M  V30 675 C 63.3052 -0.420873 -2.03085 0
M  V30 676 C 63.7302 0.964915 -1.61465 0
M  V30 677 O 63.0882 1.62763 -0.798607 0
M  V30 678 C 63.1362 -0.529414 -3.56693 0
M  V30 679 O 62.2402 0.451302 -4.09923 0
M  V30 680 H 61.5812 -0.173489 -0.640935 0
M  V30 681 H 64.1112 -1.11157 -1.71771 0
M  V30 682 H 64.1212 -0.404671 -4.05988 0
M  V30 683 H 62.7962 -1.54014 -3.86332 0
M  V30 684 H 61.3732 0.285558 -3.71805 0
M  V30 685 N 63.5583 1.46682 -0.576371 0
M  V30 686 C 64.8353 1.95599 0.00703437 0
M  V30 687 C 65.2153 1.51904 1.46589 0
M  V30 688 O 64.5633 0.766755 2.15251 0
M  V30 689 C 64.7733 3.4864 -0.158404 0
M  V30 690 C 66.1213 4.24594 -0.0229439 0
M  V30 691 O 67.1453 3.56094 -0.0869173 0
M  V30 692 O 66.0043 5.46373 0.118015 0
M  V30 693 H 63.0983 0.825275 0.053384 0
M  V30 694 H 65.6443 1.56996 -0.644244 0
M  V30 695 H 64.4163 3.7331 -1.17282 0
M  V30 696 H 64.0393 3.94057 0.5296 0
M  V30 697 N 65.0364 0.313813 1.54444 0
M  V30 698 C 66.2824 -0.292108 2.00685 0
M  V30 699 C 66.6154 -1.52548 1.20177 0
M  V30 700 O 65.8904 -1.92452 0.281531 0
M  V30 701 C 66.1734 -0.635968 3.5444 0
M  V30 702 C 66.0264 0.607437 4.4568 0
M  V30 703 C 67.3454 -1.45747 4.15266 0
M  V30 704 H 64.4644 -0.104697 0.729526 0
M  V30 705 H 67.1064 0.428457 1.85106 0
M  V30 706 H 65.2564 -1.24986 3.67846 0
M  V30 707 H 66.9284 1.24581 4.44159 0
M  V30 708 H 65.1714 1.23822 4.15753 0
M  V30 709 H 65.8424 0.322515 5.51057 0
M  V30 710 H 68.3184 -0.938645 4.05375 0
M  V30 711 H 67.1944 -1.66683 5.2298 0
M  V30 712 H 67.4554 -2.45063 3.67963 0
M  V30 713 N 66.5145 -1.57545 0.0417849 0
M  V30 714 C 67.9305 -1.56467 -0.314704 0
M  V30 715 C 68.1305 -1.04859 -1.72066 0
M  V30 716 O 67.1865 -0.700983 -2.42575 0
M  V30 717 C 68.4995 -3.00317 -0.15174 0
M  V30 718 C 70.0475 -3.12201 -0.223553 0
M  V30 719 C 70.5225 -4.57913 -0.0892295 0
M  V30 720 N 72.0135 -4.6297 -0.145808 0
M  V30 721 C 72.7485 -5.73362 -0.0658459 0
M  V30 722 N 72.2445 -6.92769 0.0659282 0
M  V30 723 N 74.0375 -5.6197 -0.12075 0
M  V30 724 H 66.1885 -1.89416 0.961014 0
M  V30 725 H 68.4515 -0.871862 0.372237 0
M  V30 726 H 68.1575 -3.42073 0.817254 0
M  V30 727 H 68.0315 -3.65892 -0.916692 0
M  V30 728 H 70.4185 -2.70349 -1.18301 0
M  V30 729 H 70.4995 -2.49323 0.571994 0
M  V30 730 H 70.1435 -5.00448 0.866867 0
M  V30 731 H 70.0735 -5.18786 -0.903802 0
M  V30 732 H 72.5645 -3.7709 -0.247286 0
M  V30 733 H 72.8775 -7.72707 0.119905 0
M  V30 734 H 71.2225 -6.94927 0.100885 0
M  V30 735 H 74.4135 -4.67572 -0.222187 0
M  V30 736 H 74.5865 -6.47977 -0.0549735 0
M  V30 737 N 67.9926 0.231505 -1.5589 0
M  V30 738 C 69.2416 0.955346 -1.7764 0
M  V30 739 C 69.5546 1.85893 -0.608546 0
M  V30 740 O 70.7606 2.62067 -0.70943 0
M  V30 741 C 69.2166 1.74886 -3.14552 0
M  V30 742 C 68.8246 0.891915 -4.39032 0
M  V30 743 C 70.5686 2.46452 -3.45633 0
M  V30 744 C 68.4756 1.68221 -5.66971 0
M  V30 745 H 67.4056 0.360446 -0.662265 0
M  V30 746 H 70.0566 0.209516 -1.823 0
M  V30 747 H 68.4386 2.53723 -3.04041 0
M  V30 748 H 69.6126 0.144793 -4.60572 0
M  V30 749 H 67.9276 0.288863 -4.15397 0
M  V30 750 H 70.5246 3.06061 -4.38441 0
M  V30 751 H 70.8676 3.18841 -2.67668 0
M  V30 752 H 71.4006 1.74613 -3.57428 0
M  V30 753 H 68.1396 1.00178 -6.478 0
M  V30 754 H 67.6596 2.4042 -5.49507 0
M  V30 755 H 69.3386 2.24544 -6.06786 0
M  V30 756 N 69.4707 1.49531 0.497807 0
M  V30 757 C 70.4177 1.66436 1.59899 0
M  V30 758 C 71.3877 0.505793 1.58212 0
M  V30 759 O 72.5727 0.733202 1.7615 0
M  V30 760 C 69.7127 1.7399 2.98029 0
M  V30 761 C 68.8257 3.01172 3.09708 0
M  V30 762 C 67.9607 2.99686 4.38591 0
M  V30 763 C 66.9997 4.21434 4.43914 0
M  V30 764 N 66.1367 4.1784 5.64229 0
M  V30 765 H 70.9767 2.60459 1.44793 0
M  V30 766 H 68.5137 1.29137 0.704423 0
M  V30 767 H 70.4717 1.76352 3.78095 0
M  V30 768 H 69.1017 0.834301 3.11832 0
M  V30 769 H 68.1537 3.08408 2.22685 0
M  V30 770 H 69.4657 3.91165 3.09502 0
M  V30 771 H 68.6197 3.00628 5.2698 0
M  V30 772 H 67.3587 2.07477 4.41367 0
M  V30 773 H 66.3637 4.20733 3.53926 0
M  V30 774 H 67.5887 5.14839 4.42851 0
M  V30 775 H 65.5347 3.28469 5.67841 0
M  V30 776 H 65.4517 5.01571 5.65652 0
M  V30 777 H 66.7197 4.22889 6.54817 0
M  V30 778 N 70.9488 -0.749086 1.3866 0
M  V30 779 C 72.1958 -1.50833 1.35114 0
M  V30 780 C 72.5238 -1.94415 -0.0574049 0
M  V30 781 O 71.7788 -1.66065 -1.03541 0
M  V30 782 C 72.0778 -2.7712 2.25697 0
M  V30 783 C 71.7438 -2.52477 3.73585 0
M  V30 784 C 70.4058 -2.45466 4.13884 0
M  V30 785 C 72.7578 -2.31066 4.67181 0
M  V30 786 C 70.0858 -2.15064 5.45861 0
M  V30 787 C 72.4378 -2.02183 5.9942 0
M  V30 788 C 71.1018 -1.93631 6.38798 0
M  V30 789 H 70.3718 -0.551936 0.494416 0
M  V30 790 H 73.0188 -0.860979 1.71054 0
M  V30 791 H 71.3238 -3.46528 1.82827 0
M  V30 792 H 73.0208 -3.35096 2.20254 0
M  V30 793 H 69.6108 -2.58807 3.41638 0
M  V30 794 H 73.7948 -2.35459 4.3689 0
M  V30 795 H 69.0508 -2.06954 5.75308 0
M  V30 796 H 73.2248 -1.8462 6.71482 0
M  V30 797 H 70.8518 -1.69839 7.40985 0
M  V30 798 N 72.4269 -1.23603 -0.977757 0
M  V30 799 C 73.3369 -1.03632 -2.1047 0
M  V30 800 C 74.3529 0.0199435 -1.73989 0
M  V30 801 O 75.5289 -0.176076 -2.00629 0
M  V30 802 C 72.5939 -0.63276 -3.40877 0
M  V30 803 C 71.6549 -1.76437 -3.91367 0
M  V30 804 C 70.8879 -1.37997 -5.15551 0
M  V30 805 O 71.1109 -0.265357 -5.69782 0
M  V30 806 O 70.0449 -2.20201 -5.60174 0
M  V30 807 H 73.8709 -1.98086 -2.30208 0
M  V30 808 H 71.4559 -1.02332 -1.08851 0
M  V30 809 H 73.3379 -0.418761 -4.19314 0
M  V30 810 H 72.0129 0.282754 -3.22463 0
M  V30 811 H 70.9199 -2.03304 -3.14036 0
M  V30 812 H 72.2529 -2.6583 -4.14241 0
M  V30 813 N 73.905 1.17692 -1.04816 0
M  V30 814 C 74.855 2.1952 -0.616042 0
M  V30 815 C 75.839 1.57147 0.345485 0
M  V30 816 O 77.031 1.76245 0.163325 0
M  V30 817 C 74.16 3.43298 0.0116917 0
M  V30 818 C 73.246 4.12777 -0.973435 0
M  V30 819 N 73.637 4.5814 -2.14339 0
M  V30 820 C 71.935 4.38747 -0.80108 0
M  V30 821 C 72.636 5.11713 -2.7663 0
M  V30 822 N 71.612 5.03686 -2.04453 0
M  V30 823 H 75.414 2.52293 -1.5075 0
M  V30 824 H 72.928 1.3398 -0.917776 0
M  V30 825 H 74.925 4.15519 0.339006 0
M  V30 826 H 73.585 3.12018 0.898593 0
M  V30 827 H 74.596 4.52349 -2.52191 0
M  V30 828 H 71.273 4.17485 0.0350934 0
M  V30 829 H 72.663 5.56962 -3.75823 0
M  V30 830 N 75.3831 0.828654 1.34056 0
M  V30 831 C 76.3311 0.242973 2.31327 0
M  V30 832 C 77.3251 -0.61944 1.57668 0
M  V30 833 O 78.5311 -0.51014 1.7262 0
M  V30 834 H 74.9061 0.059834 0.749616 0
M  V30 835 H 76.8771 1.07809 2.78244 0
M  V30 836 C 75.6261 -0.575733 3.429 0
M  V30 837 H 74.9491 0.0785582 3.99723 0
M  V30 838 H 76.3891 -0.951547 4.13185 0
M  V30 839 C 74.8481 -1.75044 2.87856 0
M  V30 840 O 75.3781 -2.84882 2.83205 0
M  V30 841 N 73.5841 -1.56903 2.44602 0
M  V30 842 H 73.1311 -0.675547 2.48584 0
M  V30 843 H 73.0891 -2.35652 2.08124 0
M  V30 844 N 76.8612 -1.46375 0.584142 0
M  V30 845 C 78.1092 -2.01978 0.0701287 0
M  V30 846 C 78.4302 -1.4579 -1.295 0
M  V30 847 O 77.7002 -0.64314 -1.85042 0
M  V30 848 H 76.2802 -0.746648 0.0229345 0
M  V30 849 H 78.9422 -1.79461 0.760245 0
M  V30 850 H 78.0382 -3.121 0.0022064 0
M  V30 851 N 78.3393 -0.321999 -1.54275 0
M  V30 852 C 79.2493 0.553631 -2.27974 0
M  V30 853 C 80.2653 1.13054 -1.32268 0
M  V30 854 O 81.4413 1.15084 -1.6528 0
M  V30 855 C 78.5063 1.69927 -3.02201 0
M  V30 856 C 77.5673 1.15433 -4.1349 0
M  V30 857 C 76.8003 2.24537 -4.84168 0
M  V30 858 O 77.0233 3.44852 -4.5435 0
M  V30 859 O 75.9573 1.90044 -5.7111 0
M  V30 860 H 79.7833 -0.0448345 -3.03667 0
M  V30 861 H 77.3683 -0.0877418 -1.49142 0
M  V30 862 H 79.2503 2.3663 -3.48689 0
M  V30 863 H 77.9253 2.28395 -2.29385 0
M  V30 864 H 76.8323 0.452436 -3.71354 0
M  V30 865 H 78.1653 0.614805 -4.88345 0
M  V30 866 N 79.8174 1.5752 -0.0501392 0
M  V30 867 C 81.2334 1.56631 0.306402 0
M  V30 868 C 81.4334 1.0577 1.71508 0
M  V30 869 O 80.4894 0.713837 2.422 0
M  V30 870 C 81.8024 3.00393 0.135811 0
M  V30 871 C 83.3504 3.12315 0.206993 0
M  V30 872 C 83.8254 4.57954 0.064944 0
M  V30 873 N 85.3164 4.63041 0.121254 0
M  V30 874 C 86.0514 5.73389 0.0354381 0
M  V30 875 N 85.5474 6.92724 -0.102666 0
M  V30 876 N 87.3404 5.62026 0.090946 0
M  V30 877 H 79.4914 1.88903 -0.971046 0
M  V30 878 H 81.7544 0.869876 -0.376855 0
M  V30 879 H 81.4604 3.41635 -0.835384 0
M  V30 880 H 81.3344 3.66373 0.897275 0
M  V30 881 H 83.7214 2.70973 1.16866 0
M  V30 882 H 83.8024 2.49016 -0.585208 0
M  V30 883 H 83.4464 4.99981 -0.893394 0
M  V30 884 H 83.3764 5.19258 0.876277 0
M  V30 885 H 85.8674 3.77216 0.227284 0
M  V30 886 H 86.1804 7.72633 -0.160882 0
M  V30 887 H 84.5254 6.94864 -0.137737 0
M  V30 888 H 87.7164 4.67684 0.197388 0
M  V30 889 H 87.8894 6.47997 0.0206089 0
M  V30 890 N 81.2955 -0.223234 1.56011 0
M  V30 891 C 82.7115 -0.572856 1.48965 0
M  V30 892 C 82.9115 -1.87225 0.74492 0
M  V30 893 O 81.9675 -2.50899 0.283896 0
M  V30 894 C 83.2805 -0.653646 2.9351 0
M  V30 895 C 84.8285 -0.744386 3.0402 0
M  V30 896 C 85.3035 -0.856535 4.49919 0
M  V30 897 N 86.7945 -0.9208 4.53955 0
M  V30 898 C 87.5295 -1.02726 5.64123 0
M  V30 899 N 87.0255 -1.09777 6.84047 0
M  V30 900 N 88.8185 -1.06226 5.51971 0
M  V30 901 H 80.9695 0.629462 2.02858 0
M  V30 902 H 83.2325 0.220621 0.921971 0
M  V30 903 H 82.9385 0.231518 3.50937 0
M  V30 904 H 82.8125 -1.51781 3.45315 0
M  V30 905 H 85.1995 -1.61999 2.46658 0
M  V30 906 H 85.2805 0.14541 2.55386 0
M  V30 907 H 84.9245 0.0146069 5.07898 0
M  V30 908 H 84.8545 -1.76172 4.96257 0
M  V30 909 H 87.3455 -0.876694 3.6759 0
M  V30 910 H 87.6585 -1.17872 7.63758 0
M  V30 911 H 86.0035 -1.06693 6.86762 0
M  V30 912 H 89.1945 -1.00382 4.5721 0
M  V30 913 H 89.3675 -1.14177 6.37862 0
M  V30 914 N 82.7736 -1.49793 -0.48987 0
M  V30 915 C 84.0226 -1.59085 -1.23995 0
M  V30 916 C 84.3356 -0.287907 -1.9347 0
M  V30 917 O 85.5416 -0.259506 -2.70257 0
M  V30 918 C 83.9976 -2.80736 -2.252 0
M  V30 919 C 83.6056 -4.17833 -1.61614 0
M  V30 920 C 85.3496 -2.99364 -3.00967 0
M  V30 921 C 83.2566 -5.30693 -2.60996 0
M  V30 922 H 82.1866 -0.592372 -0.466488 0
M  V30 923 H 84.8376 -1.76197 -0.51252 0
M  V30 924 H 83.2196 -2.57142 -3.01154 0
M  V30 925 H 84.3936 -4.51608 -0.915774 0
M  V30 926 H 82.7086 -4.04656 -0.981977 0
M  V30 927 H 85.3056 -3.80851 -3.75308 0
M  V30 928 H 85.6486 -2.10356 -3.59244 0
M  V30 929 H 86.1816 -3.2305 -2.32128 0
M  V30 930 H 82.9206 -6.21796 -2.07485 0
M  V30 931 H 82.4406 -5.01359 -3.2924 0
M  V30 932 H 84.1196 -5.6049 -3.23202 0
M  V30 933 N 84.2517 0.741722 -1.39055 0
M  V30 934 C 85.5007 1.49656 -1.35225 0
M  V30 935 C 85.8137 1.95533 0.0512708 0
M  V30 936 O 87.0197 2.7067 0.212138 0
M  V30 937 C 85.4757 2.70389 -2.37525 0
M  V30 938 C 85.0837 2.31489 -3.83558 0
M  V30 939 C 86.8277 3.48236 -2.42759 0
M  V30 940 C 84.7347 3.48903 -4.77515 0
M  V30 941 H 83.6647 0.56197 -0.502699 0
M  V30 942 H 86.3157 0.809727 -1.64668 0
M  V30 943 H 84.6977 3.41113 -2.01142 0
M  V30 944 H 85.8717 1.68354 -4.28945 0
M  V30 945 H 84.1867 1.66749 -3.81554 0
M  V30 946 H 86.7837 4.35558 -3.1015 0
M  V30 947 H 87.1267 3.90229 -1.45008 0
M  V30 948 H 87.6597 2.84535 -2.78002 0
M  V30 949 H 84.3987 3.11966 -5.76504 0
M  V30 950 H 83.9187 4.11041 -4.36813 0
M  V30 951 H 85.5977 4.15328 -4.96096 0
M  V30 952 N 85.7298 1.2412 0.971189 0
M  V30 953 C 86.6928 1.03156 2.04674 0
M  V30 954 C 87.6928 -0.00990322 1.60797 0
M  V30 955 O 88.8828 0.230729 1.72665 0
M  V30 956 C 86.0148 0.562765 3.36223 0
M  V30 957 H 87.2078 1.98614 2.24705 0
M  V30 958 H 84.7608 1.06293 1.14593 0
M  V30 959 H 85.4958 -0.395176 3.21883 0
M  V30 960 H 85.2808 1.31441 3.69413 0
M  V30 961 H 86.7708 0.437015 4.15307 0
M  V30 962 N 87.2079 -1.17134 1.05439 0
M  V30 963 C 88.4549 -1.87456 0.765942 0
M  V30 964 C 88.7829 -1.81189 -0.707153 0
M  V30 965 O 88.0379 -1.21633 -1.5331 0
M  V30 966 C 88.3369 -3.36833 1.19491 0
M  V30 967 C 88.0029 -3.63301 2.67063 0
M  V30 968 C 86.6649 -3.70234 3.07376 0
M  V30 969 C 89.0169 -3.74575 3.62413 0
M  V30 970 C 86.3449 -3.85933 4.41896 0
M  V30 971 C 88.6969 -3.91793 4.9667 0
M  V30 972 C 87.3609 -3.96966 5.36633 0
M  V30 973 H 86.6309 -0.685948 0.280278 0
M  V30 974 H 89.2779 -1.38556 1.32192 0
M  V30 975 H 87.5829 -3.87807 0.557969 0
M  V30 976 H 89.2799 -3.89611 0.948893 0
M  V30 977 H 85.8699 -3.58532 2.34846 0
M  V30 978 H 90.0539 -3.68537 3.32406 0
M  V30 979 H 85.3099 -3.88187 4.72357 0
M  V30 980 H 89.4839 -3.99458 5.70444 0
M  V30 981 H 87.1109 -4.08883 6.40874 0
M  V30 982 N 88.686 -0.835752 -1.33615 0
M  V30 983 C 89.911 -0.442389 -2.02627 0
M  V30 984 C 90.336 0.947735 -1.62479 0
M  V30 985 O 89.694 1.61907 -0.815826 0
M  V30 986 C 89.742 -0.567216 -3.56111 0
M  V30 987 O 88.846 0.407799 -4.10379 0
M  V30 988 H 88.187 -0.180278 -0.639059 0
M  V30 989 H 90.717 -1.12972 -1.70583 0
M  V30 990 H 90.727 -0.447708 -4.05536 0
M  V30 991 H 89.402 -1.58103 -3.84677 0
M  V30 992 H 87.979 0.246107 -3.72087 0
M  V30 993 N 90.1641 1.46063 -0.591896 0
M  V30 994 C 91.5801 1.57561 -0.254288 0
M  V30 995 C 91.7801 1.58565 1.24336 0
M  V30 996 O 90.8361 1.50753 2.02558 0
M  V30 997 C 92.1491 2.86549 -0.911611 0
M  V30 998 C 93.6971 3.00197 -0.886059 0
M  V30 999 C 94.1721 4.31933 -1.5231 0
M  V30 1000 N 95.6631 4.38654 -1.48786 0
M  V30 1001 C 96.3981 5.39222 -1.95006 0
M  V30 1002 N 95.8941 6.46414 -2.49241 0
M  V30 1003 N 97.6871 5.3048 -1.85868 0
M  V30 1004 H 89.8381 1.43655 -1.56451 0
M  V30 1005 H 92.1011 0.68583 -0.654478 0
M  V30 1006 H 91.8071 2.91651 -1.96551 0
M  V30 1007 H 91.6811 3.74794 -0.425368 0
M  V30 1008 H 94.0681 2.9467 0.159246 0
M  V30 1009 H 94.1491 2.13403 -1.41041 0
M  V30 1010 H 93.7931 4.38217 -2.56765 0
M  V30 1011 H 93.7231 5.17516 -0.973891 0
M  V30 1012 H 96.2141 3.61793 -1.09151 0
M  V30 1013 H 96.5271 7.19376 -2.82344 0
M  V30 1014 H 94.8721 6.47208 -2.53272 0
M  V30 1015 H 98.0631 4.45643 -1.43248 0
M  V30 1016 H 98.2361 6.08711 -2.22204 0
M  V30 1017 N 91.6422 0.330177 1.54103 0
M  V30 1018 C 93.0532 -0.15652 1.86043 0
M  V30 1019 C 93.4042 -1.51086 1.2517 0
M  V30 1020 O 92.5292 -2.09023 0.560217 0
M  V30 1021 C 93.1242 -0.290784 3.3755 0
M  V30 1022 C 91.6832 -0.721705 3.69416 0
M  V30 1023 C 90.8302 0.152622 2.7688 0
M  V30 1024 H 93.7812 0.550237 1.48856 0
M  V30 1025 H 93.8022 -1.12058 3.63625 0
M  V30 1026 H 93.3142 0.695068 3.81825 0
M  V30 1027 H 91.4152 -1.71706 3.30678 0
M  V30 1028 H 91.5282 -0.520869 4.7626 0
M  V30 1029 H 89.8922 -0.372894 2.51956 0
M  V30 1030 H 90.6752 1.13536 3.23982 0
M  V30 1031 N 93.1203 -1.57491 0.0584922 0
M  V30 1032 C 94.3663 -1.93264 -0.614558 0
M  V30 1033 C 94.6993 -0.937717 -1.7006 0
M  V30 1034 O 93.9743 0.0351652 -1.94468 0
M  V30 1035 C 94.2573 -3.3938 -1.20386 0
M  V30 1036 C 94.1103 -4.49625 -0.125375 0
M  V30 1037 C 95.4293 -3.86039 -2.11334 0
M  V30 1038 H 92.5483 -0.702791 -0.221933 0
M  V30 1039 H 95.1903 -1.8961 0.12175 0
M  V30 1040 H 93.3403 -3.42626 -1.83139 0
M  V30 1041 H 95.0123 -4.58506 0.506971 0
M  V30 1042 H 93.2553 -4.30354 0.545672 0
M  V30 1043 H 93.9263 -5.48967 -0.577861 0
M  V30 1044 H 96.4023 -3.84716 -1.58534 0
M  V30 1045 H 95.2783 -4.88914 -2.49507 0
M  V30 1046 H 95.5393 -3.23215 -3.01636 0
M  V30 1047 N 94.5984 0.214957 -1.56127 0
M  V30 1048 C 95.5454 1.26642 -1.92952 0
M  V30 1049 C 96.5154 1.46244 -0.78753 0
M  V30 1050 O 97.7004 1.59704 -1.04399 0
M  V30 1051 C 94.8404 2.6104 -2.25726 0
M  V30 1052 C 93.9534 2.49183 -3.52891 0
M  V30 1053 C 93.0884 3.76149 -3.7508 0
M  V30 1054 C 92.1274 3.59041 -4.95738 0
M  V30 1055 N 91.2644 4.77972 -5.14283 0
M  V30 1056 H 96.1044 0.945384 -2.82607 0
M  V30 1057 H 93.6414 0.455489 -1.3987 0
M  V30 1058 H 95.5994 3.39313 -2.42739 0
M  V30 1059 H 94.2294 2.91227 -1.39236 0
M  V30 1060 H 93.2814 1.6231 -3.44034 0
M  V30 1061 H 94.5934 2.32466 -4.41318 0
M  V30 1062 H 93.7474 4.62865 -3.92226 0
M  V30 1063 H 92.4864 3.95799 -2.84947 0
M  V30 1064 H 91.4914 2.7071 -4.78535 0
M  V30 1065 H 92.7164 3.40856 -5.87362 0
M  V30 1066 H 90.6624 4.97923 -4.27093 0
M  V30 1067 H 90.5794 4.64006 -5.96853 0
M  V30 1068 H 91.8474 5.66096 -5.35869 0
M  V30 1069 N 96.0765 1.50051 0.48192 0
M  V30 1070 C 97.3065 1.63999 1.2565 0
M  V30 1071 C 97.7145 0.318288 1.86504 0
M  V30 1072 O 97.0575 -0.708534 1.69486 0
M  V30 1073 C 97.1195 2.66504 2.4128 0
M  V30 1074 C 96.7835 4.10352 2.01148 0
M  V30 1075 C 97.7805 4.96562 1.54021 0
M  V30 1076 C 95.4655 4.56203 2.10199 0
M  V30 1077 C 97.4595 6.26668 1.16473 0
M  V30 1078 C 95.1465 5.86318 1.72264 0
M  V30 1079 C 96.1445 6.71375 1.25477 0
M  V30 1080 O 95.8325 7.99062 0.880626 0
M  V30 1081 H 95.5645 0.55456 0.386574 0
M  V30 1082 H 98.1185 1.96954 0.582944 0
M  V30 1083 H 96.3485 2.28769 3.11772 0
M  V30 1084 H 98.0375 2.69783 3.03268 0
M  V30 1085 H 98.8035 4.62358 1.46458 0
M  V30 1086 H 94.6825 3.90152 2.45566 0
M  V30 1087 H 98.2265 6.93011 0.798841 0
M  V30 1088 H 94.1235 6.20046 1.79482 0
M  V30 1089 H 94.8915 8.12239 1.01043 0
M  V30 1090 N 97.5546 -0.734337 1.39446 0
M  V30 1091 C 98.4646 -1.87879 1.40495 0
M  V30 1092 C 99.4806 -1.714 0.299672 0
M  V30 1093 O 100.657 -1.93991 0.541249 0
M  V30 1094 C 97.7216 -3.23477 1.24754 0
M  V30 1095 C 96.7826 -3.52344 2.45259 0
M  V30 1096 C 96.0156 -4.81473 2.30259 0
M  V30 1097 O 96.2386 -5.55237 1.30643 0
M  V30 1098 O 95.1726 -5.10254 3.19256 0
M  V30 1099 H 98.9986 -1.89949 2.36966 0
M  V30 1100 H 96.5836 -0.882243 1.20569 0
M  V30 1101 H 98.4656 -4.04509 1.18111 0
M  V30 1102 H 97.1406 -3.22176 0.313781 0
M  V30 1103 H 96.0476 -2.71396 2.57478 0
M  V30 1104 H 97.3806 -3.58426 3.37331 0
M  V30 1105 N 99.0327 -1.24633 -0.964593 0
M  V30 1106 C 100.31 -0.995809 -1.68354 0
M  V30 1107 C 100.69 0.480964 -2.05548 0
M  V30 1108 O 100.038 1.45599 -1.76105 0
M  V30 1109 C 100.248 -1.92177 -2.91323 0
M  V30 1110 C 101.596 -2.19446 -3.63495 0
M  V30 1111 O 102.62 -1.89855 -3.01386 0
M  V30 1112 O 101.479 -2.69714 -4.75307 0
M  V30 1113 H 98.5727 -0.376854 -0.736146 0
M  V30 1114 H 101.119 -1.35745 -1.0184 0
M  V30 1115 H 99.8907 -2.91938 -2.60553 0
M  V30 1116 H 99.5137 -1.56349 -3.65569 0
M  V30 1117 N 100.511 1.16574 -1.06058 0
M  V30 1118 C 101.757 1.87324 -0.777022 0
M  V30 1119 C 102.09 1.81351 0.694645 0
M  V30 1120 O 101.365 1.22753 1.50871 0
M  V30 1121 C 101.648 3.36991 -1.26922 0
M  V30 1122 C 101.501 3.51667 -2.80447 0
M  V30 1123 C 102.82 4.3131 -0.87521 0
M  V30 1124 H 99.9388 0.680191 -0.28374 0
M  V30 1125 H 102.581 1.37036 -1.3161 0
M  V30 1126 H 100.731 3.79949 -0.81063 0
M  V30 1127 H 102.403 3.17664 -3.34495 0
M  V30 1128 H 100.646 2.93656 -3.19294 0
M  V30 1129 H 101.317 4.56766 -3.0995 0
M  V30 1130 H 103.793 3.9624 -1.27014 0
M  V30 1131 H 102.669 5.34545 -1.2471 0
M  V30 1132 H 102.93 4.41552 0.220071 0
M  V30 1133 N 101.989 0.842826 1.3317 0
M  V30 1134 C 102.899 0.281444 2.32906 0
M  V30 1135 C 103.915 -0.594587 1.63526 0
M  V30 1136 O 105.091 -0.49777 1.95152 0
M  V30 1137 C 102.156 -0.530929 3.42611 0
M  V30 1138 C 101.217 0.369843 4.27704 0
M  V30 1139 C 100.45 -0.403853 5.3217 0
M  V30 1140 O 100.673 -1.63513 5.46461 0
M  V30 1141 O 99.6069 0.224199 6.01482 0
M  V30 1142 H 103.433 1.10744 2.82789 0
M  V30 1143 H 101.018 0.60545 1.36582 0
M  V30 1144 H 102.9 -0.992437 4.09547 0
M  V30 1145 H 101.575 -1.33392 2.94938 0
M  V30 1146 H 100.482 0.879275 3.6362 0
M  V30 1147 H 101.815 1.13771 4.78871 0
M  V30 1148 N 103.467 -1.45747 0.599634 0
M  V30 1149 C 104.417 -2.27538 -0.145107 0
M  V30 1150 C 105.401 -1.3686 -0.846055 0
M  V30 1151 O 106.593 -1.6091 -0.737357 0
M  V30 1152 C 103.722 -3.23569 -1.14708 0
M  V30 1153 C 102.808 -4.21734 -0.447383 0
M  V30 1154 N 103.199 -5.03257 0.506535 0
M  V30 1155 C 101.497 -4.40536 -0.695966 0
M  V30 1156 C 102.198 -5.74426 0.917068 0
M  V30 1157 N 101.174 -5.42966 0.26253 0
M  V30 1158 H 104.976 -2.87965 0.587672 0
M  V30 1159 H 102.49 -1.56803 0.422697 0
M  V30 1160 H 104.487 -3.8089 -1.69495 0
M  V30 1161 H 103.147 -2.64702 -1.8805 0
M  V30 1162 H 104.158 -5.10319 0.882899 0
M  V30 1163 H 100.835 -3.92802 -1.41467 0
M  V30 1164 H 102.225 -6.4995 1.70338 0
M  V30 1165 N 104.945 -0.338344 -1.53925 0
M  V30 1166 C 105.892 0.520845 -2.24846 0
M  V30 1167 C 106.862 1.09976 -1.24477 0
M  V30 1168 O 108.047 1.13735 -1.53196 0
M  V30 1169 C 105.187 1.6685 -3.02084 0
M  V30 1170 C 104.3 1.11739 -4.17299 0
M  V30 1171 C 103.435 2.23193 -4.82036 0
M  V30 1172 C 102.474 1.65407 -5.89328 0
M  V30 1173 N 101.611 2.70582 -6.47866 0
M  V30 1174 H 106.451 -0.0904881 -2.97863 0
M  V30 1175 H 103.988 -0.0564282 -1.46992 0
M  V30 1176 H 105.946 2.34407 -3.45122 0
M  V30 1177 H 104.576 2.2509 -2.31375 0
M  V30 1178 H 103.628 0.332919 -3.7894 0
M  V30 1179 H 104.94 0.654677 -4.94485 0
M  V30 1180 H 104.094 2.98626 -5.28117 0
M  V30 1181 H 102.833 2.72807 -4.04262 0
M  V30 1182 H 101.838 0.884779 -5.42634 0
M  V30 1183 H 103.063 1.16652 -6.69006 0
M  V30 1184 H 101.009 3.1946 -5.72959 0
M  V30 1185 H 100.926 2.28917 -7.20509 0
M  V30 1186 H 102.194 3.45799 -6.98601 0
M  V30 1187 N 106.423 1.57458 -0.0668435 0
M  V30 1188 C 107.669 1.93587 0.6043 0
M  V30 1189 C 108.002 0.946722 1.69561 0
M  V30 1190 O 107.277 -0.0248516 1.94484 0
M  V30 1191 C 107.56 3.40014 1.18585 0
M  V30 1192 C 107.413 4.49685 0.101529 0
M  V30 1193 C 108.732 3.87154 2.09284 0
M  V30 1194 H 105.851 0.703958 0.218202 0
M  V30 1195 H 108.493 1.89542 -0.131804 0
M  V30 1196 H 106.643 3.43592 1.81319 0
M  V30 1197 H 108.315 4.5823 -0.531279 0
M  V30 1198 H 106.558 4.30059 -0.568487 0
M  V30 1199 H 107.229 5.49266 0.54874 0
M  V30 1200 H 109.705 3.85551 1.56491 0
M  V30 1201 H 108.581 4.90231 2.46911 0
M  V30 1202 H 108.842 3.2481 2.99918 0
M  V30 1203 N 107.901 -0.206675 1.56239 0
M  V30 1204 C 109.129 -0.945345 1.8404 0
M  V30 1205 C 109.544 -1.77336 0.647885 0
M  V30 1206 O 108.901 -1.78425 -0.383511 0
M  V30 1207 C 108.952 -1.8509 3.10522 0
M  V30 1208 O 108.673 -1.05634 4.25174 0
M  V30 1209 C 110.174 -2.70222 3.51418 0
M  V30 1210 H 107.394 -0.276372 0.61144 0
M  V30 1211 H 109.938 -0.217417 2.03341 0
M  V30 1212 H 108.093 -2.53259 2.93153 0
M  V30 1213 H 108.507 -1.67238 4.97124 0
M  V30 1214 H 109.981 -3.29438 4.42916 0
M  V30 1215 H 110.458 -3.43358 2.73864 0
M  V30 1216 H 111.064 -2.07443 3.71278 0
M  V30 1217 N 109.379 -1.50304 -0.473955 0
M  V30 1218 C 110.607 -1.64902 -1.24959 0
M  V30 1219 C 111.022 -0.331198 -1.85872 0
M  V30 1220 O 110.379 0.68652 -1.69095 0
M  V30 1221 C 110.43 -2.73803 -2.36038 0
M  V30 1222 O 110.151 -4.00477 -1.77624 0
M  V30 1223 C 111.652 -2.99349 -3.26964 0
M  V30 1224 H 108.872 -0.554383 -0.378022 0
M  V30 1225 H 111.416 -1.9651 -0.566054 0
M  V30 1226 H 109.571 -2.44898 -3.00173 0
M  V30 1227 H 109.985 -4.60678 -2.5075 0
M  V30 1228 H 111.459 -3.79217 -4.01121 0
M  V30 1229 H 111.936 -2.10307 -3.85574 0
M  V30 1230 H 112.542 -3.29774 -2.68569 0
M  V30 1231 N 110.857 0.726932 -1.39834 0
M  V30 1232 C 112.103 1.48884 -1.377 0
M  V30 1233 C 112.436 1.94185 0.0244852 0
M  V30 1234 O 111.711 1.67361 0.990986 0
M  V30 1235 C 111.994 2.72288 -2.3565 0
M  V30 1236 C 111.847 2.32956 -3.84775 0
M  V30 1237 C 113.166 3.74414 -2.31306 0
M  V30 1238 H 110.285 0.540062 -0.5015 0
M  V30 1239 H 112.927 0.830547 -1.70886 0
M  V30 1240 H 111.077 3.28457 -2.07481 0
M  V30 1241 H 112.749 1.82356 -4.23726 0
M  V30 1242 H 110.992 1.65088 -4.01159 0
M  V30 1243 H 111.663 3.21362 -4.4881 0
M  V30 1244 H 114.139 3.27849 -2.56231 0
M  V30 1245 H 113.015 4.58414 -3.01907 0
M  V30 1246 H 113.276 4.21909 -1.32081 0
M  V30 1247 N 112.336 1.25143 0.95797 0
M  V30 1248 C 113.583 1.09692 1.70217 0
M  V30 1249 C 113.911 -0.362654 1.91089 0
M  V30 1250 O 113.166 -1.28386 1.47701 0
M  V30 1251 C 113.465 1.79272 3.09187 0
M  V30 1252 C 113.131 3.29196 3.08125 0
M  V30 1253 C 111.793 3.70096 3.07543 0
M  V30 1254 C 114.145 4.24995 3.0171 0
M  V30 1255 C 111.473 5.05213 2.9829 0
M  V30 1256 C 113.825 5.60132 2.93999 0
M  V30 1257 C 112.489 6.00365 2.9175 0
M  V30 1258 H 111.759 0.401393 0.622868 0
M  V30 1259 H 114.406 1.55372 1.11945 0
M  V30 1260 H 112.711 1.26014 3.70982 0
M  V30 1261 H 114.408 1.64773 3.65583 0
M  V30 1262 H 110.998 2.96651 3.09348 0
M  V30 1263 H 115.182 3.9439 3.01281 0
M  V30 1264 H 110.438 5.35569 2.94916 0
M  V30 1265 H 114.612 6.3406 2.87996 0
M  V30 1266 H 112.239 7.05023 2.84336 0
M  V30 1267 N 113.814 -1.1601 1.06675 0
M  V30 1268 C 115.062 -1.86264 0.784229 0
M  V30 1269 C 115.383 -1.82328 -0.691488 0
M  V30 1270 O 114.653 -1.25947 -1.50047 0
M  V30 1271 H 113.233 -0.689621 0.28711 0
M  V30 1272 H 115.895 -1.40664 1.34906 0
M  V30 1273 H 114.991 -2.91595 1.11259 0
M  V30 1274 N 115.292 -0.849877 -1.32721 0
M  V30 1275 C 116.224 -0.248332 -2.27851 0
M  V30 1276 C 117.237 0.577218 -1.52224 0
M  V30 1277 O 118.426 0.402489 -1.73903 0
M  V30 1278 C 115.526 0.668107 -3.32249 0
M  V30 1279 C 114.699 -0.120534 -4.37234 0
M  V30 1280 C 113.758 0.720932 -5.21238 0
M  V30 1281 O 112.784 0.156166 -5.68986 0
M  V30 1282 N 113.986 2.03647 -5.43607 0
M  V30 1283 H 116.751 -1.06575 -2.80111 0
M  V30 1284 H 114.312 -0.709395 -1.45531 0
M  V30 1285 H 116.304 1.23627 -3.85355 0
M  V30 1286 H 114.874 1.38621 -2.80184 0
M  V30 1287 H 114.094 -0.870108 -3.84477 0
M  V30 1288 H 115.382 -0.662406 -5.0447 0
M  V30 1289 H 114.78 2.51871 -5.06535 0
M  V30 1290 H 113.337 2.55287 -5.99727 0
M  V30 1291 N 116.77 1.45427 -0.607355 0
M  V30 1292 C 118.181 1.85756 -0.187535 0
M  V30 1293 C 118.532 1.5077 1.25551 0
M  V30 1294 O 117.657 0.93427 1.95193 0
M  V30 1295 C 118.252 3.37154 -0.333572 0
M  V30 1296 C 116.811 3.76387 0.0315542 0
M  V30 1297 C 115.958 2.69377 -0.658117 0
M  V30 1298 H 118.909 1.36231 -0.81405 0
M  V30 1299 H 118.93 3.78014 0.43428 0
M  V30 1300 H 118.442 3.62586 -1.38393 0
M  V30 1301 H 116.543 3.56571 1.0811 0
M  V30 1302 H 116.656 4.77731 -0.361935 0
M  V30 1303 H 115.02 2.5452 -0.0957873 0
M  V30 1304 H 115.803 2.97646 -1.7106 0
M  V30 1305 N 118.248 0.346503 1.53744 0
M  V30 1306 C 119.178 -0.501193 2.28058 0
M  V30 1307 C 120.159 -1.10014 1.29734 0
M  V30 1308 O 121.344 -1.12097 1.58581 0
M  V30 1309 C 118.474 -1.65078 3.05559 0
M  V30 1310 C 117.428 -1.18003 4.11411 0
M  V30 1311 C 116.754 -2.41837 4.76884 0
M  V30 1312 C 118.054 -0.278394 5.21558 0
M  V30 1313 H 119.748 0.11875 2.99164 0
M  V30 1314 H 117.294 0.0585531 1.43881 0
M  V30 1315 H 119.247 -2.25028 3.56287 0
M  V30 1316 H 117.971 -2.29767 2.32109 0
M  V30 1317 H 116.63 -0.603331 3.61601 0
M  V30 1318 H 116.278 -3.0494 4.00026 0
M  V30 1319 H 115.978 -2.1102 5.48402 0
M  V30 1320 H 117.502 -3.02508 5.30397 0
M  V30 1321 H 118.916 -0.784823 5.67903 0
M  V30 1322 H 117.313 -0.0619707 6.00068 0
M  V30 1323 H 118.383 0.684677 4.80042 0
M  V30 1324 N 119.726 -1.57421 0.075193 0
M  V30 1325 C 121.003 -1.85029 -0.634329 0
M  V30 1326 C 121.383 -0.968305 -1.87582 0
M  V30 1327 O 120.731 -0.0354749 -2.28472 0
M  V30 1328 C 120.941 -3.35286 -0.968742 0
M  V30 1329 C 122.289 -4.02875 -1.34077 0
M  V30 1330 O 123.313 -3.40051 -1.06037 0
M  V30 1331 O 122.172 -5.13691 -1.86506 0
M  V30 1332 H 119.266 -0.7645 -0.315387 0
M  V30 1333 H 121.812 -1.69366 0.106382 0
M  V30 1334 H 120.584 -3.91203 -0.0871376 0
M  V30 1335 H 120.207 -3.56223 -1.7661 0
M  V30 1336 N 121.204 0.198386 -1.56346 0
M  V30 1337 C 122.134 1.24865 -1.9731 0
M  V30 1338 C 123.115 1.47651 -0.844576 0
M  V30 1339 O 124.3 1.59444 -1.10866 0
M  V30 1340 C 121.43 2.59358 -2.30977 0
M  V30 1341 C 120.384 2.5119 -3.46537 0
M  V30 1342 C 119.71 3.89926 -3.65871 0
M  V30 1343 C 121.01 2.03977 -4.80823 0
M  V30 1344 H 122.704 0.908252 -2.85291 0
M  V30 1345 H 120.25 0.435462 -1.37258 0
M  V30 1346 H 122.203 3.33011 -2.58228 0
M  V30 1347 H 120.927 2.95132 -1.39874 0
M  V30 1348 H 119.586 1.79993 -3.19371 0
M  V30 1349 H 119.234 4.23046 -2.72105 0
M  V30 1350 H 118.934 3.85336 -4.4361 0
M  V30 1351 H 120.458 4.65205 -3.95495 0
M  V30 1352 H 121.872 2.67386 -5.07127 0
M  V30 1353 H 120.269 2.10397 -5.62008 0
M  V30 1354 H 121.339 0.992861 -4.74626 0
M  V30 1355 N 122.682 1.50554 0.465978 0
M  V30 1356 C 123.632 1.66177 1.56106 0
M  V30 1357 C 124.616 0.516265 1.52393 0
M  V30 1358 O 125.808 0.770906 1.5933 0
M  V30 1359 C 122.937 1.76396 2.94515 0
M  V30 1360 C 122.023 2.9664 3.03093 0
M  V30 1361 N 122.414 4.20245 2.81474 0
M  V30 1362 C 120.712 2.95304 3.34233 0
M  V30 1363 C 121.413 5.01259 2.95151 0
M  V30 1364 N 120.389 4.35318 3.25576 0
M  V30 1365 H 124.191 2.59434 1.38099 0
M  V30 1366 H 121.705 1.47808 0.6728 0
M  V30 1367 H 123.702 1.85694 3.73261 0
M  V30 1368 H 122.362 0.843017 3.13565 0
M  V30 1369 H 123.373 4.4966 2.56956 0
M  V30 1370 H 120.05 2.12729 3.59239 0
M  V30 1371 H 121.44 6.09564 2.82632 0
M  V30 1372 N 124.16 -0.719506 1.40217 0
M  V30 1373 C 125.39 -1.50646 1.41384 0
M  V30 1374 C 125.798 -1.89197 0.0107743 0
M  V30 1375 O 125.141 -1.55709 -0.974708 0
M  V30 1376 C 125.203 -2.81405 2.23722 0
M  V30 1377 C 124.867 -2.65199 3.72181 0
M  V30 1378 C 125.864 -2.32717 4.64907 0
M  V30 1379 C 123.549 -2.81586 4.1595 0
M  V30 1380 C 125.543 -2.16827 5.99387 0
M  V30 1381 C 123.23 -2.65313 5.50502 0
M  V30 1382 C 124.228 -2.32981 6.42035 0
M  V30 1383 O 123.916 -2.16827 7.74107 0
M  V30 1384 H 123.648 -0.471606 0.484318 0
M  V30 1385 H 126.202 -0.895456 1.84853 0
M  V30 1386 H 124.432 -3.44823 1.75026 0
M  V30 1387 H 126.121 -3.43102 2.16878 0
M  V30 1388 H 126.887 -2.19694 4.32388 0
M  V30 1389 H 122.766 -3.0574 3.45027 0
M  V30 1390 H 126.31 -1.91513 6.70797 0
M  V30 1391 H 122.207 -2.7792 5.82607 0
M  V30 1392 H 122.975 -2.31778 7.84998 0
M  V30 1393 N 125.638 -1.25649 -0.95132 0
M  V30 1394 C 126.571 -1.00644 -2.04807 0
M  V30 1395 C 127.549 0.0654271 -1.62468 0
M  V30 1396 O 128.733 -0.074911 -1.88351 0
M  V30 1397 C 125.86 -0.522052 -3.34653 0
M  V30 1398 C 124.906 -1.58495 -3.95957 0
M  V30 1399 S 125.739 -3.17108 -4.31512 0
M  V30 1400 C 126.895 -2.70412 -5.64471 0
M  V30 1401 H 127.128 -1.93508 -2.25703 0
M  V30 1402 H 124.661 -1.09216 -1.09139 0
M  V30 1403 H 126.619 -0.24923 -4.09743 0
M  V30 1404 H 125.28 0.386146 -3.11717 0
M  V30 1405 H 124.473 -1.1968 -4.89584 0
M  V30 1406 H 124.075 -1.80862 -3.2736 0
M  V30 1407 H 126.367 -2.14245 -6.42733 0
M  V30 1408 H 127.31 -3.62693 -6.08161 0
M  V30 1409 H 127.718 -2.10302 -5.23864 0
M  V30 1410 N 127.117 1.15442 -1.07289 0
M  V30 1411 C 128.065 2.22225 -0.686952 0
M  V30 1412 C 129.059 1.66688 0.30193 0
M  V30 1413 O 130.265 1.79236 0.165712 0
M  V30 1414 H 126.64 0.723783 -0.204064 0
M  V30 1415 H 128.611 2.52056 -1.5972 0
M  V30 1416 C 127.36 3.47556 -0.100149 0
M  V30 1417 H 126.683 3.90612 -0.852211 0
M  V30 1418 H 128.123 4.23794 0.132235 0
M  V30 1419 C 126.582 3.16337 1.159 0
M  V30 1420 O 127.112 3.33074 2.24555 0
M  V30 1421 N 125.318 2.70385 1.06491 0
M  V30 1422 H 124.865 2.56966 0.180668 0
M  V30 1423 H 124.823 2.49871 1.90819 0
M  V30 1424 N 128.595 0.856903 1.32268 0
M  V30 1425 C 129.543 0.291987 2.3076 0
M  V30 1426 C 130.537 -0.585857 1.58947 0
M  V30 1427 O 131.743 -0.47341 1.73663 0
M  V30 1428 H 128.118 0.075721 0.748178 0
M  V30 1429 H 130.089 1.13687 2.75895 0
M  V30 1430 C 128.838 -0.502869 3.44044 0
M  V30 1431 H 128.161 0.163328 3.99466 0
M  V30 1432 H 129.601 -0.863691 4.1511 0
M  V30 1433 C 128.06 -1.68898 2.91505 0
M  V30 1434 O 128.59 -2.78811 2.89184 0
M  V30 1435 N 126.796 -1.51679 2.47875 0
M  V30 1436 H 126.343 -0.622666 2.49961 0
M  V30 1437 H 126.301 -2.31184 2.13076 0
M  V30 1438 N 130.073 -1.45103 0.615059 0
M  V30 1439 C 130.983 -2.34382 -0.101034 0
M  V30 1440 C 131.999 -1.51681 -0.852585 0
M  V30 1441 O 133.175 -1.8446 -0.808484 0
M  V30 1442 C 130.24 -3.29417 -1.08099 0
M  V30 1443 C 129.301 -4.28025 -0.330577 0
M  V30 1444 C 128.534 -5.1852 -1.26385 0
M  V30 1445 O 128.757 -5.12598 -2.50198 0
M  V30 1446 O 127.691 -5.97122 -0.756866 0
M  V30 1447 H 131.517 -2.97033 0.632855 0
M  V30 1448 H 129.102 -1.4461 0.375293 0
M  V30 1449 H 130.984 -3.87958 -1.6452 0
M  V30 1450 H 129.659 -2.69321 -1.79577 0
M  V30 1451 H 128.566 -3.73078 0.276283 0
M  V30 1452 H 129.899 -4.90997 0.343866 0
M  V30 1453 N 131.551 -0.354651 -1.53558 0
M  V30 1454 C 132.481 0.489091 -2.2832 0
M  V30 1455 C 133.462 1.09324 -1.30316 0
M  V30 1456 O 134.647 1.11255 -1.59173 0
M  V30 1457 C 131.777 1.63456 -3.0643 0
M  V30 1458 C 130.731 1.1582 -4.12031 0
M  V30 1459 C 130.057 2.39305 -4.7816 0
M  V30 1460 C 131.357 0.250731 -5.21698 0
M  V30 1461 H 133.051 -0.134614 -2.99097 0
M  V30 1462 H 130.597 -0.0661826 -1.43848 0
M  V30 1463 H 132.55 2.23136 -3.57475 0
M  V30 1464 H 131.274 2.28533 -2.33325 0
M  V30 1465 H 129.933 0.584146 -3.61916 0
M  V30 1466 H 129.581 3.02814 -4.01637 0
M  V30 1467 H 129.281 2.08109 -5.49513 0
M  V30 1468 H 130.805 2.99691 -5.31994 0
M  V30 1469 H 132.219 0.754695 -5.68311 0
M  V30 1470 H 130.616 0.0301468 -6.00092 0
M  V30 1471 H 131.686 -0.710125 -4.79672 0
M  V30 1472 N 133.029 1.57378 -0.0835403 0
M  V30 1473 C 134.254 1.98682 0.594987 0
M  V30 1474 C 134.679 0.961969 1.61641 0
M  V30 1475 O 134.037 -0.0709989 1.81161 0
M  V30 1476 C 134.085 3.38988 1.2296 0
M  V30 1477 O 133.189 3.39208 2.34546 0
M  V30 1478 H 132.53 0.646368 0.152002 0
M  V30 1479 H 135.06 2.03961 -0.161533 0
M  V30 1480 H 135.07 3.76431 1.57366 0
M  V30 1481 H 133.745 4.13107 0.481228 0
M  V30 1482 H 132.322 3.13548 2.01846 0
M  V30 1483 N 134.507 -0.190092 1.56449 0
M  V30 1484 C 135.756 -0.907912 1.80111 0
M  V30 1485 C 136.069 -1.84214 0.657619 0
M  V30 1486 O 137.275 -2.60094 0.778663 0
M  V30 1487 C 135.731 -1.66485 3.19078 0
M  V30 1488 C 135.339 -0.7752 4.41242 0
M  V30 1489 C 137.083 -2.37201 3.52045 0
M  V30 1490 C 134.99 -1.53129 5.71231 0
M  V30 1491 H 133.92 -0.34276 0.671589 0
M  V30 1492 H 136.571 -0.161109 1.82791 0
M  V30 1493 H 134.953 -2.45572 3.10661 0
M  V30 1494 H 136.127 -0.0226298 4.60794 0
M  V30 1495 H 134.442 -0.178627 4.16017 0
M  V30 1496 H 137.039 -2.94329 4.46402 0
M  V30 1497 H 137.382 -3.11632 2.76028 0
M  V30 1498 H 137.915 -1.65075 3.61932 0
M  V30 1499 H 134.654 -0.82967 6.50228 0
M  V30 1500 H 134.174 -2.25767 5.55688 0
M  V30 1501 H 135.853 -2.08377 6.12526 0
M  V30 1502 N 135.985 -1.50799 -0.457987 0
M  V30 1503 C 136.915 -1.73553 -1.5621 0
M  V30 1504 C 137.896 -0.584774 -1.59732 0
M  V30 1505 O 139.081 -0.825314 -1.7579 0
M  V30 1506 C 136.211 -1.84169 -2.94447 0
M  V30 1507 C 135.165 -2.99461 -3.0579 0
M  V30 1508 C 134.491 -2.95235 -4.45803 0
M  V30 1509 C 135.791 -4.39766 -2.81786 0
M  V30 1510 H 137.485 -2.66 -1.37421 0
M  V30 1511 H 135.031 -1.28002 -0.659662 0
M  V30 1512 H 136.984 -1.98672 -3.71628 0
M  V30 1513 H 135.708 -0.883545 -3.14422 0
M  V30 1514 H 134.367 -2.8463 -2.31044 0
M  V30 1515 H 134.015 -1.97239 -4.62715 0
M  V30 1516 H 133.715 -3.72642 -4.54326 0
M  V30 1517 H 135.239 -3.11803 -5.24987 0
M  V30 1518 H 136.653 -4.55054 -3.4871 0
M  V30 1519 H 135.05 -5.18722 -3.0174 0
M  V30 1520 H 136.12 -4.51229 -1.7754 0
M  V30 1521 N 137.463 0.71206 -1.40597 0
M  V30 1522 C 138.393 1.83889 -1.43899 0
M  V30 1523 C 139.374 1.67442 -0.299504 0
M  V30 1524 O 140.559 1.87421 -0.508624 0
M  V30 1525 C 137.689 3.21877 -1.30431 0
M  V30 1526 C 136.643 3.53002 -2.42019 0
M  V30 1527 C 135.969 4.90172 -2.13626 0
M  V30 1528 C 137.269 3.53643 -3.84362 0
M  V30 1529 H 138.963 1.81383 -2.38203 0
M  V30 1530 H 136.509 0.871237 -1.14654 0
M  V30 1531 H 138.462 4.00404 -1.31357 0
M  V30 1532 H 137.186 3.24968 -0.326049 0
M  V30 1533 H 135.845 2.76818 -2.40349 0
M  V30 1534 H 135.493 4.89869 -1.14182 0
M  V30 1535 H 135.193 5.11962 -2.88389 0
M  V30 1536 H 136.717 5.71028 -2.1624 0
M  V30 1537 H 138.131 4.22203 -3.87837 0
M  V30 1538 H 136.528 3.86961 -4.58673 0
M  V30 1539 H 137.598 2.52954 -4.13693 0
M  V30 1540 N 138.941 1.26152 0.944643 0
M  V30 1541 C 139.888 1.07408 2.04285 0
M  V30 1542 C 140.858 -0.0198413 1.66088 0
M  V30 1543 O 142.043 0.139264 1.90291 0
M  V30 1544 C 139.183 0.70945 3.37729 0
M  V30 1545 C 138.296 1.87926 3.88983 0
M  V30 1546 C 137.431 1.45807 5.10797 0
M  V30 1547 C 136.47 2.5964 5.54305 0
M  V30 1548 N 135.607 2.18226 6.67324 0
M  V30 1549 H 140.447 2.01389 2.1965 0
M  V30 1550 H 137.984 1.00275 1.07626 0
M  V30 1551 H 139.942 0.478948 4.14442 0
M  V30 1552 H 138.572 -0.193389 3.2222 0
M  V30 1553 H 137.624 2.22279 3.08701 0
M  V30 1554 H 138.936 2.73377 4.17213 0
M  V30 1555 H 138.09 1.18781 5.94959 0
M  V30 1556 H 136.829 0.574414 4.84305 0
M  V30 1557 H 135.834 2.87399 4.68702 0
M  V30 1558 H 137.059 3.48599 5.828 0
M  V30 1559 H 135.005 1.3229 6.42523 0
M  V30 1560 H 134.922 2.97221 6.95123 0
M  V30 1561 H 136.19 1.94403 7.54869 0
M  V30 1562 N 140.419 -1.14872 1.07899 0
M  V30 1563 C 141.367 -2.21857 0.698727 0
M  V30 1564 C 142.361 -1.66845 -0.293086 0
M  V30 1565 O 143.567 -1.79321 -0.156204 0
M  V30 1566 H 139.942 -0.722691 0.207899 0
M  V30 1567 H 141.913 -2.51205 1.61054 0
M  V30 1568 C 140.662 -3.47498 0.11858 0
M  V30 1569 H 139.985 -3.90154 0.872914 0
M  V30 1570 H 141.425 -4.23858 -0.109759 0
M  V30 1571 C 139.884 -3.16947 -1.1422 0
M  V30 1572 O 140.414 -3.3426 -2.22785 0
M  V30 1573 N 138.62 -2.70946 -1.05055 0
M  V30 1574 H 138.167 -2.57058 -0.167038 0
M  V30 1575 H 138.125 -2.50879 -1.89491 0
M  V30 1576 N 141.898 -0.863906 -1.31812 0
M  V30 1577 C 142.83 -0.272485 -2.27575 0
M  V30 1578 C 143.843 0.56104 -1.52827 0
M  V30 1579 O 145.032 0.384021 -1.7432 0
M  V30 1580 C 142.132 0.63283 -3.32939 0
M  V30 1581 C 141.305 -0.166902 -4.37081 0
M  V30 1582 C 140.364 0.665608 -5.21973 0
M  V30 1583 O 139.39 0.0958091 -5.69119 0
M  V30 1584 N 140.592 1.9787 -5.45736 0
M  V30 1585 H 143.357 -1.0954 -2.78964 0
M  V30 1586 H 140.918 -0.724791 -1.4477 0
M  V30 1587 H 142.91 1.19532 -3.86645 0
M  V30 1588 H 141.48 1.35642 -2.81638 0
M  V30 1589 H 140.7 -0.910838 -3.83533 0
M  V30 1590 H 141.988 -0.715874 -5.03739 0
M  V30 1591 H 141.386 2.46484 -5.09178 0
M  V30 1592 H 139.943 2.48911 -6.024 0
M  V30 1593 N 143.376 1.44774 -0.622745 0
M  V30 1594 C 144.653 1.95522 -0.0551974 0
M  V30 1595 C 145.033 1.5649 1.41683 0
M  V30 1596 O 144.381 0.834848 2.12703 0
M  V30 1597 C 144.591 3.4796 -0.269242 0
M  V30 1598 C 145.939 4.24306 -0.158014 0
M  V30 1599 O 146.963 3.55637 -0.200162 0
M  V30 1600 O 145.822 5.46471 -0.0558693 0
M  V30 1601 H 142.916 0.826556 0.0271015 0
M  V30 1602 H 145.462 1.54866 -0.693864 0
M  V30 1603 H 144.234 3.6939 -1.29099 0
M  V30 1604 H 143.857 3.95543 0.403966 0
M  V30 1605 N 144.854 0.36279 1.53368 0
M  V30 1606 C 146.131 -0.284021 1.93527 0
M  V30 1607 C 146.511 -1.66628 1.29608 0
M  V30 1608 O 145.859 -2.23942 0.45413 0
M  V30 1609 C 146.069 -0.337028 3.47369 0
M  V30 1610 C 147.417 -0.578708 4.20638 0
M  V30 1611 O 148.441 -0.418352 3.53735 0
M  V30 1612 O 147.3 -0.89074 5.39192 0
M  V30 1613 H 144.394 -0.169743 0.809393 0
M  V30 1614 H 146.94 0.41537 1.64538 0
M  V30 1615 H 145.712 0.632217 3.86159 0
M  V30 1616 H 145.335 -1.08243 3.82582 0
M  V30 1617 N 146.332 -1.57332 0.0918853 0
M  V30 1618 C 147.262 -2.16872 -0.865371 0
M  V30 1619 C 148.243 -1.10118 -1.29646 0
M  V30 1620 O 149.428 -1.38242 -1.36392 0
M  V30 1621 C 146.558 -2.74649 -2.12569 0
M  V30 1622 C 145.512 -3.86747 -1.83333 0
M  V30 1623 C 144.838 -4.31212 -3.16166 0
M  V30 1624 C 146.138 -5.10089 -1.1228 0
M  V30 1625 H 147.832 -2.97114 -0.369307 0
M  V30 1626 H 145.378 -1.42918 -0.176194 0
M  V30 1627 H 147.331 -3.14952 -2.7997 0
M  V30 1628 H 146.055 -1.91657 -2.64452 0
M  V30 1629 H 144.714 -3.46978 -1.18331 0
M  V30 1630 H 144.362 -3.45115 -3.6593 0
M  V30 1631 H 144.062 -5.06788 -2.97388 0
M  V30 1632 H 145.586 -4.74146 -3.84731 0
M  V30 1633 H 147 -5.47582 -1.69785 0
M  V30 1634 H 145.397 -5.91073 -1.03693 0
M  V30 1635 H 146.467 -4.84786 -0.105041 0
M  V30 1636 N 147.81 0.181792 -1.56548 0
M  V30 1637 C 149.087 0.926765 -1.72251 0
M  V30 1638 C 149.467 2.00831 -0.650386 0
M  V30 1639 O 148.815 2.26008 0.336521 0
M  V30 1640 C 149.025 1.50106 -3.1507 0
M  V30 1641 C 150.373 1.97805 -3.75711 0
M  V30 1642 O 151.397 1.59922 -3.18282 0
M  V30 1643 O 150.256 2.67555 -4.76525 0
M  V30 1644 H 147.35 0.435506 -0.703039 0
M  V30 1645 H 149.896 0.170443 -1.68842 0
M  V30 1646 H 148.668 0.72212 -3.84579 0
M  V30 1647 H 148.291 2.32186 -3.22763 0
M  V30 1648 N 149.288 1.51039 0.449983 0
M  V30 1649 C 150.235 1.71439 1.54523 0
M  V30 1650 C 151.205 0.555871 1.56522 0
M  V30 1651 O 152.39 0.788871 1.73728 0
M  V30 1652 C 149.53 1.83384 2.92343 0
M  V30 1653 C 148.643 3.10873 2.9997 0
M  V30 1654 C 147.778 3.13488 4.28834 0
M  V30 1655 C 146.817 4.35343 4.30282 0
M  V30 1656 N 145.954 4.35579 5.5065 0
M  V30 1657 H 150.794 2.64934 1.36433 0
M  V30 1658 H 148.331 1.31312 0.662982 0
M  V30 1659 H 150.289 1.88291 3.72293 0
M  V30 1660 H 148.919 0.933086 3.0902 0
M  V30 1661 H 147.971 3.15336 2.12761 0
M  V30 1662 H 149.283 4.00814 2.96901 0
M  V30 1663 H 148.437 3.17241 5.17149 0
M  V30 1664 H 147.176 2.21414 4.34543 0
M  V30 1665 H 146.181 4.3178 3.40362 0
M  V30 1666 H 147.406 5.28668 4.26248 0
M  V30 1667 H 145.352 3.46369 5.57104 0
M  V30 1668 H 145.269 5.19313 5.49409 0
M  V30 1669 H 146.537 4.43507 6.41032 0
M  V30 1670 N 150.766 -0.704594 1.40972 0
M  V30 1671 C 151.729 -1.80035 1.41845 0
M  V30 1672 C 152.729 -1.57774 0.310474 0
M  V30 1673 O 153.919 -1.64613 0.56992 0
M  V30 1674 C 151.051 -3.18284 1.22098 0
M  V30 1675 H 152.244 -1.80658 2.3938 0
M  V30 1676 H 149.797 -0.911329 1.26982 0
M  V30 1677 H 150.532 -3.23306 0.253672 0
M  V30 1678 H 150.317 -3.35843 2.02366 0
M  V30 1679 H 151.807 -3.98289 1.25522 0
M  V30 1680 N 152.244 -1.26651 -0.937939 0
M  V30 1681 C 153.493 -1.11775 -1.67897 0
M  V30 1682 C 153.806 0.33794 -1.92659 0
M  V30 1683 O 155.012 0.607434 -2.64618 0
M  V30 1684 C 153.468 -1.9523 -3.02346 0
M  V30 1685 C 153.076 -3.45393 -2.8532 0
M  V30 1686 C 154.82 -1.88972 -3.80118 0
M  V30 1687 C 152.727 -4.21083 -4.15263 0
M  V30 1688 H 151.657 -0.414696 -0.629717 0
M  V30 1689 H 154.308 -1.50988 -1.04283 0
M  V30 1690 H 152.69 -1.48853 -3.66959 0
M  V30 1691 H 153.864 -3.99561 -2.29537 0
M  V30 1692 H 152.179 -3.52921 -2.20988 0
M  V30 1693 H 154.776 -2.42805 -4.76392 0
M  V30 1694 H 155.119 -0.86113 -4.07296 0
M  V30 1695 H 155.652 -2.33189 -3.22285 0
M  V30 1696 H 152.391 -5.24425 -3.93267 0
M  V30 1697 H 151.911 -3.71695 -4.70747 0
M  V30 1698 H 153.59 -4.29706 -4.83696 0
M  V30 1699 N 153.722 1.14298 -1.08507 0
M  V30 1700 C 154.999 1.81544 -0.728088 0
M  V30 1701 C 155.379 1.95838 0.78808 0
M  V30 1702 O 154.727 1.51904 1.70697 0
M  V30 1703 C 154.937 3.17169 -1.45619 0
M  V30 1704 C 156.285 3.9265 -1.61591 0
M  V30 1705 O 157.309 3.26762 -1.41793 0
M  V30 1706 O 156.168 5.10807 -1.94263 0
M  V30 1707 H 153.262 0.78491 -0.260471 0
M  V30 1708 H 155.808 1.21307 -1.18671 0
M  V30 1709 H 154.58 3.01934 -2.489 0
M  V30 1710 H 154.203 3.851 -0.989124 0
M  V30 1711 N 155.201 0.870884 1.31352 0
M  V30 1712 C 156.45 0.478408 1.95944 0
M  V30 1713 C 156.763 -0.974493 1.69597 0
M  V30 1714 O 157.969 -1.47316 2.28058 0
M  V30 1715 C 156.425 0.804609 3.50791 0
M  V30 1716 C 156.033 2.27433 3.85977 0
M  V30 1717 C 157.777 0.480648 4.2177 0
M  V30 1718 C 155.684 2.5429 5.33939 0
M  V30 1719 H 154.614 0.175175 0.733369 0
M  V30 1720 H 157.265 1.06391 1.4951 0
M  V30 1721 H 155.647 0.148347 3.95722 0
M  V30 1722 H 156.821 2.97373 3.52002 0
M  V30 1723 H 155.136 2.56442 3.28065 0
M  V30 1724 H 157.733 0.658519 5.30629 0
M  V30 1725 H 158.076 -0.578979 4.12254 0
M  V30 1726 H 158.609 1.09349 3.82476 0
M  V30 1727 H 155.348 3.58939 5.48491 0
M  V30 1728 H 154.868 1.88945 5.69263 0
M  V30 1729 H 156.547 2.39066 6.01212 0
M  V30 1730 N 156.679 -1.44442 0.630414 0
M  V30 1731 C 157.609 -2.33418 -0.0618083 0
M  V30 1732 C 158.59 -1.48165 -0.835541 0
M  V30 1733 O 159.775 -1.76886 -0.801564 0
M  V30 1734 C 156.905 -3.31222 -1.04449 0
M  V30 1735 C 155.859 -4.26288 -0.382436 0
M  V30 1736 C 155.185 -5.13954 -1.47497 0
M  V30 1737 C 156.485 -5.1744 0.710865 0
M  V30 1738 H 158.179 -2.91548 0.681184 0
M  V30 1739 H 155.725 -1.40191 0.329026 0
M  V30 1740 H 157.678 -3.92351 -1.53748 0
M  V30 1741 H 156.402 -2.71299 -1.81836 0
M  V30 1742 H 155.061 -3.6649 0.0899054 0
M  V30 1743 H 154.709 -4.50385 -2.2397 0
M  V30 1744 H 154.409 -5.7837 -1.03737 0
M  V30 1745 H 155.933 -5.77955 -1.96979 0
M  V30 1746 H 157.347 -5.72509 0.300996 0
M  V30 1747 H 155.744 -5.90455 1.07156 0
M  V30 1748 H 156.814 -4.58496 1.57829 0
M  V30 1749 N 158.157 -0.370918 -1.53173 0
M  V30 1750 C 159.434 0.273754 -1.93675 0
M  V30 1751 C 159.814 1.65938 -1.3049 0
M  V30 1752 O 159.162 2.23698 -0.465999 0
M  V30 1753 C 159.372 0.318602 -3.47543 0
M  V30 1754 C 160.72 0.556392 -4.20939 0
M  V30 1755 O 161.744 0.399587 -3.53952 0
M  V30 1756 O 160.603 0.862133 -5.39657 0
M  V30 1757 H 157.697 0.165448 -0.810281 0
M  V30 1758 H 160.243 -0.42409 -1.64315 0
M  V30 1759 H 159.015 -0.652687 -3.85818 0
M  V30 1760 H 158.638 1.06212 -3.83151 0
M  V30 1761 N 159.635 1.57281 -0.100228 0
M  V30 1762 C 161.051 1.57527 0.256416 0
M  V30 1763 C 161.251 1.11173 1.68056 0
M  V30 1764 O 160.307 0.79053 2.39806 0
M  V30 1765 C 161.62 3.00673 0.0401747 0
M  V30 1766 C 163.168 3.12815 0.107528 0
M  V30 1767 C 163.643 4.57929 -0.0807834 0
M  V30 1768 N 165.134 4.63193 -0.0261207 0
M  V30 1769 C 165.869 5.73212 -0.146999 0
M  V30 1770 N 165.365 6.92047 -0.322999 0
M  V30 1771 N 167.158 5.62031 -0.0879044 0
M  V30 1772 H 159.309 1.85718 -1.03065 0
M  V30 1773 H 161.572 0.857446 -0.404339 0
M  V30 1774 H 161.278 3.38804 -0.943649 0
M  V30 1775 H 161.152 3.69042 0.780262 0
M  V30 1776 H 163.539 2.74554 1.08186 0
M  V30 1777 H 163.62 2.47028 -0.664134 0
M  V30 1778 H 163.264 4.96886 -1.05201 0
M  V30 1779 H 163.194 5.21783 0.710635 0
M  V30 1780 H 165.685 3.77748 0.107161 0
M  V30 1781 H 165.998 7.7173 -0.406608 0
M  V30 1782 H 164.343 6.94074 -0.358733 0
M  V30 1783 H 167.534 4.68075 0.048498 0
M  V30 1784 H 167.707 6.47734 -0.185557 0
M  V30 1785 N 161.113 -0.173488 1.56642 0
M  V30 1786 C 162.338 -0.910149 1.86363 0
M  V30 1787 C 162.763 -1.75132 0.686318 0
M  V30 1788 O 162.121 -1.77595 -0.364643 0
M  V30 1789 C 162.169 -1.76447 3.14482 0
M  V30 1790 O 161.273 -2.86584 2.96553 0
M  V30 1791 H 160.614 -0.255086 0.613047 0
M  V30 1792 H 163.144 -0.172283 2.03873 0
M  V30 1793 H 163.154 -2.16483 3.45831 0
M  V30 1794 H 161.829 -1.14658 3.99783 0
M  V30 1795 H 160.406 -2.50146 2.76553 0
M  V30 1796 N 162.591 -1.51276 -0.441967 0
M  V30 1797 C 163.816 -1.67799 -1.21895 0
M  V30 1798 C 164.241 -0.372864 -1.84367 0
M  V30 1799 O 163.599 0.666501 -1.68604 0
M  V30 1800 C 163.647 -2.79199 -2.28211 0
M  V30 1801 O 162.751 -2.42479 -3.33583 0
M  V30 1802 H 162.092 -0.559649 -0.357336 0
M  V30 1803 H 164.622 -1.97815 -0.522522 0
M  V30 1804 H 164.632 -3.03146 -2.73069 0
M  V30 1805 H 163.307 -3.73906 -1.82118 0
M  V30 1806 H 161.884 -2.29087 -2.94234 0
M  V30 1807 N 164.069 0.697108 -1.41344 0
M  V30 1808 C 165.294 1.49096 -1.44171 0
M  V30 1809 C 165.719 1.88038 -0.0481568 0
M  V30 1810 O 165.077 1.54525 0.948243 0
M  V30 1811 C 165.125 2.73088 -2.3549 0
M  V30 1812 O 164.229 3.70514 -1.81088 0
M  V30 1813 H 163.57 0.448801 -0.489361 0
M  V30 1814 H 166.1 0.856992 -1.85787 0
M  V30 1815 H 166.11 3.21413 -2.51312 0
M  V30 1816 H 164.785 2.44081 -3.36745 0
M  V30 1817 H 163.362 3.29441 -1.74708 0
M  V30 1818 N 165.547 1.27147 0.931209 0
M  V30 1819 C 166.48 1.0389 2.0318 0
M  V30 1820 C 167.458 -0.0395716 1.62552 0
M  V30 1821 O 168.642 0.104867 1.88208 0
M  V30 1822 C 165.769 0.575227 3.3378 0
M  V30 1823 C 164.815 1.64774 3.93385 0
M  V30 1824 S 165.648 3.23933 4.26413 0
M  V30 1825 C 166.804 2.79358 5.60098 0
M  V30 1826 H 167.037 1.97075 2.22596 0
M  V30 1827 H 164.57 1.10938 1.07387 0
M  V30 1828 H 166.528 0.314385 4.09294 0
M  V30 1829 H 165.189 -0.336505 3.12292 0
M  V30 1830 H 164.382 1.27454 4.87618 0
M  V30 1831 H 163.984 1.86048 3.24441 0
M  V30 1832 H 166.276 2.24443 6.39243 0
M  V30 1833 H 167.219 3.72322 6.02314 0
M  V30 1834 H 167.627 2.1861 5.20452 0
M  V30 1835 N 167.025 -1.13721 1.09112 0
M  V30 1836 C 167.972 -2.19031 0.727591 0
M  V30 1837 C 168.942 -1.63555 -0.289656 0
M  V30 1838 O 170.127 -1.90023 -0.172026 0
M  V30 1839 C 167.267 -3.4477 0.15082 0
M  V30 1840 C 166.38 -4.14365 1.22172 0
M  V30 1841 C 165.515 -5.27709 0.608042 0
M  V30 1842 C 164.554 -5.89147 1.66047 0
M  V30 1843 N 163.691 -6.93929 1.06806 0
M  V30 1844 H 168.531 -2.49475 1.62991 0
M  V30 1845 H 166.068 -1.22499 0.81439 0
M  V30 1846 H 168.026 -4.16714 -0.201358 0
M  V30 1847 H 166.656 -3.14787 -0.714783 0
M  V30 1848 H 165.708 -3.40737 1.69122 0
M  V30 1849 H 167.02 -4.56114 2.01895 0
M  V30 1850 H 166.174 -6.06355 0.204523 0
M  V30 1851 H 164.913 -4.872 -0.220769 0
M  V30 1852 H 163.918 -5.09198 2.07357 0
M  V30 1853 H 165.143 -6.31729 2.49189 0
M  V30 1854 H 163.089 -6.55483 0.260476 0
M  V30 1855 H 163.006 -7.34202 1.8023 0
M  V30 1856 H 164.274 -7.76434 0.690644 0
M  V30 1857 N 168.503 -0.877838 -1.30888 0
M  V30 1858 C 169.728 -0.506629 -2.01117 0
M  V30 1859 C 170.153 0.895564 -1.65412 0
M  V30 1860 O 169.511 1.5923 -0.866922 0
M  V30 1861 C 169.559 -0.680223 -3.54126 0
M  V30 1862 O 168.663 0.277033 -4.11468 0
M  V30 1863 H 168.004 -0.200518 -0.633 0
M  V30 1864 H 170.534 -1.18342 -1.66902 0
M  V30 1865 H 170.544 -0.5765 -4.03907 0
M  V30 1866 H 169.219 -1.70261 -3.79452 0
M  V30 1867 H 167.796 0.127606 -3.72682 0
M  V30 1868 N 169.982 1.44106 -0.638065 0
M  V30 1869 C 170.912 2.33448 0.0494287 0
M  V30 1870 C 171.893 1.48606 0.827672 0
M  V30 1871 O 173.078 1.77308 0.792173 0
M  V30 1872 C 170.208 3.31771 1.02691 0
M  V30 1873 C 169.162 4.26485 0.359823 0
M  V30 1874 C 168.488 5.14729 1.44769 0
M  V30 1875 C 169.788 5.17056 -0.738296 0
M  V30 1876 H 171.482 2.91183 -0.696636 0
M  V30 1877 H 169.028 1.40014 -0.336456 0
M  V30 1878 H 170.981 3.93161 1.51666 0
M  V30 1879 H 169.705 2.7226 1.80395 0
M  V30 1880 H 168.364 3.66437 -0.10934 0
M  V30 1881 H 168.012 4.51566 2.21578 0
M  V30 1882 H 167.712 5.78913 1.00668 0
M  V30 1883 H 169.236 5.78991 1.93911 0
M  V30 1884 H 170.65 5.72342 -0.331354 0
M  V30 1885 H 169.047 5.89879 -1.10286 0
M  V30 1886 H 170.117 4.57652 -1.60258 0
M  V30 1887 N 171.46 0.379036 1.52974 0
M  V30 1888 C 172.876 0.0285448 1.59574 0
M  V30 1889 C 173.076 -1.45542 1.39355 0
M  V30 1890 O 172.132 -2.2187 1.20541 0
M  V30 1891 C 173.445 0.496535 2.96572 0
M  V30 1892 C 174.993 0.451909 3.0972 0
M  V30 1893 C 175.468 0.895924 4.49152 0
M  V30 1894 N 176.959 0.851522 4.55306 0
M  V30 1895 C 177.694 1.16661 5.61407 0
M  V30 1896 N 177.19 1.55166 6.752 0
M  V30 1897 N 178.983 1.08853 5.51459 0
M  V30 1898 H 171.134 1.34525 1.64367 0
M  V30 1899 H 173.397 0.550733 0.771619 0
M  V30 1900 H 173.103 1.53258 3.16552 0
M  V30 1901 H 172.977 -0.109802 3.7704 0
M  V30 1902 H 175.364 -0.575029 2.89443 0
M  V30 1903 H 175.445 1.09392 2.3123 0
M  V30 1904 H 175.089 1.92104 4.70168 0
M  V30 1905 H 175.019 0.23103 5.26093 0
M  V30 1906 H 177.51 0.568038 3.73606 0
M  V30 1907 H 177.823 1.776 7.52116 0
M  V30 1908 H 176.168 1.59044 6.76557 0
M  V30 1909 H 179.359 0.786803 4.6144 0
M  V30 1910 H 179.532 1.33742 6.34048 0
M  V30 1911 N 172.938 -1.57226 0.108567 0
M  V30 1912 C 174.187 -1.94008 -0.551703 0
M  V30 1913 C 174.5 -0.993442 -1.68494 0
M  V30 1914 O 175.706 -1.25551 -2.40726 0
M  V30 1915 C 174.162 -3.44763 -1.03279 0
M  V30 1916 C 173.77 -4.47943 0.0714193 0
M  V30 1917 C 175.514 -3.90483 -1.66503 0
M  V30 1918 C 173.421 -5.89865 -0.425779 0
M  V30 1919 H 172.351 -0.724206 -0.209863 0
M  V30 1920 H 175.002 -1.82547 0.186741 0
M  V30 1921 H 173.384 -3.51422 -1.82533 0
M  V30 1922 H 174.558 -4.52942 0.847365 0
M  V30 1923 H 172.873 -4.11913 0.609669 0
M  V30 1924 H 175.47 -4.93925 -2.04798 0
M  V30 1925 H 175.813 -3.29877 -2.53942 0
M  V30 1926 H 176.346 -3.86581 -0.938074 0
M  V30 1927 H 173.085 -6.54202 0.412316 0
M  V30 1928 H 172.605 -5.88309 -1.16843 0
M  V30 1929 H 174.284 -6.40844 -0.890397 0
M  V30 1930 N 174.416 0.165178 -1.56732 0
M  V30 1931 C 175.346 1.20651 -1.99914 0
M  V30 1932 C 176.327 1.45827 -0.875705 0
M  V30 1933 O 177.512 1.57057 -1.14223 0
M  V30 1934 C 174.642 2.54401 -2.36427 0
M  V30 1935 C 173.596 2.43782 -3.51787 0
M  V30 1936 C 172.922 3.82078 -3.7406 0
M  V30 1937 C 174.222 1.93732 -4.85041 0
M  V30 1938 H 175.916 0.847534 -2.87154 0
M  V30 1939 H 173.462 0.40625 -1.38151 0
M  V30 1940 H 175.415 3.27458 -2.65234 0
M  V30 1941 H 174.139 2.92098 -1.46103 0
M  V30 1942 H 172.798 1.73178 -3.23117 0
M  V30 1943 H 172.446 4.17179 -2.81017 0
M  V30 1944 H 172.146 3.7584 -4.51684 0
M  V30 1945 H 173.67 4.56712 -4.05274 0
M  V30 1946 H 175.084 2.56569 -5.12684 0
M  V30 1947 H 173.481 1.98428 -5.66345 0
M  V30 1948 H 174.551 0.891962 -4.76626 0
M  V30 1949 N 175.894 1.51508 0.433938 0
M  V30 1950 C 176.824 1.76016 1.53429 0
M  V30 1951 C 177.805 0.610112 1.58782 0
M  V30 1952 O 178.99 0.853177 1.74455 0
M  V30 1953 C 176.12 1.88831 2.9148 0
M  V30 1954 C 175.074 3.04288 3.00987 0
M  V30 1955 C 174.4 3.0229 4.4105 0
M  V30 1956 C 175.7 4.44193 2.74754 0
M  V30 1957 H 177.394 2.68152 1.33171 0
M  V30 1958 H 174.94 1.29035 0.639214 0
M  V30 1959 H 176.893 2.04559 3.6842 0
M  V30 1960 H 175.617 0.933455 3.12976 0
M  V30 1961 H 174.276 2.8827 2.26486 0
M  V30 1962 H 173.924 2.04576 4.59519 0
M  V30 1963 H 173.624 3.79822 4.4834 0
M  V30 1964 H 175.148 3.20116 5.1996 0
M  V30 1965 H 176.562 4.60544 3.41426 0
M  V30 1966 H 174.959 5.23457 2.9345 0
M  V30 1967 H 176.029 4.53996 1.70339 0
M  V30 1968 N 177.372 -0.689602 1.41712 0
M  V30 1969 C 178.302 -1.81577 1.46806 0
M  V30 1970 C 179.283 -1.66945 0.326105 0
M  V30 1971 O 180.468 -1.86588 0.538377 0
M  V30 1972 C 177.598 -3.19762 1.35535 0
M  V30 1973 C 176.552 -3.49107 2.47605 0
M  V30 1974 C 175.878 -4.86711 2.21397 0
M  V30 1975 C 177.178 -3.47483 3.89939 0
M  V30 1976 H 178.872 -1.7757 2.41058 0
M  V30 1977 H 176.418 -0.852887 1.16025 0
M  V30 1978 H 178.371 -3.98263 1.3771 0
M  V30 1979 H 177.095 -3.24409 0.377708 0
M  V30 1980 H 175.754 -2.72959 2.44722 0
M  V30 1981 H 175.402 -4.8799 1.21961 0
M  V30 1982 H 175.102 -5.0731 2.96497 0
M  V30 1983 H 176.626 -5.67515 2.25297 0
M  V30 1984 H 178.04 -4.1598 3.94505 0
M  V30 1985 H 176.437 -3.79615 4.64771 0
M  V30 1986 H 177.507 -2.46341 4.17665 0
M  V30 1987 N 178.85 -1.27639 -0.924453 0
M  V30 1988 C 180.075 -1.17101 -1.71179 0
M  V30 1989 C 180.5 0.268134 -1.86179 0
M  V30 1990 O 179.858 1.19415 -1.36418 0
M  V30 1991 C 179.906 -1.86313 -3.08739 0
M  V30 1992 O 179.01 -1.16331 -3.95652 0
M  V30 1993 H 178.351 -0.407091 -0.524569 0
M  V30 1994 H 180.881 -1.68767 -1.15666 0
M  V30 1995 H 180.891 -1.938 -3.59034 0
M  V30 1996 H 179.566 -2.91001 -2.97138 0
M  V30 1997 H 178.143 -1.16935 -3.54091 0
M  V30 1998 N 180.328 1.1314 -1.09713 0
M  V30 1999 C 181.26 2.18343 -0.697056 0
M  V30 2000 C 182.273 1.60669 0.262551 0
M  V30 2001 O 183.462 1.78435 0.0481527 0
M  V30 2002 C 180.562 3.38899 -0.00684728 0
M  V30 2003 C 179.735 4.26078 -0.988741 0
M  V30 2004 C 178.794 5.25155 -0.331394 0
M  V30 2005 O 177.82 5.60701 -0.979926 0
M  V30 2006 N 179.022 5.73271 0.913261 0
M  V30 2007 H 181.787 2.5328 -1.60216 0
M  V30 2008 H 179.348 1.28491 -0.984971 0
M  V30 2009 H 181.34 4.02255 0.444191 0
M  V30 2010 H 179.91 3.02175 0.800551 0
M  V30 2011 H 179.13 3.59453 -1.61826 0
M  V30 2012 H 180.418 4.81178 -1.65364 0
M  V30 2013 H 179.816 5.46544 1.45966 0
M  V30 2014 H 178.373 6.3855 1.30757 0
M  V30 2015 N 181.806 0.884767 1.30421 0
M  V30 2016 C 183.083 0.423185 1.90967 0
M  V30 2017 C 183.463 -1.09605 1.80416 0
M  V30 2018 O 182.811 -1.93126 1.22125 0
M  V30 2019 C 183.021 0.921056 3.36627 0
M  V30 2020 C 184.369 0.955903 4.137 0
M  V30 2021 O 185.393 0.867706 3.4547 0
M  V30 2022 O 184.252 1.08614 5.35598 0
M  V30 2023 H 181.346 0.129369 0.816819 0
M  V30 2024 H 183.892 0.973653 1.3899 0
M  V30 2025 H 182.664 1.96489 3.3839 0
M  V30 2026 H 182.287 0.349741 3.96059 0
M  V30 2027 N 183.284 -1.43765 0.645699 0
M  V30 2028 C 184.7 -1.56509 0.312591 0
M  V30 2029 C 184.9 -1.6307 -1.18365 0
M  V30 2030 O 183.956 -1.58167 -1.96824 0
M  V30 2031 C 185.269 -2.82968 1.01733 0
M  V30 2032 C 186.817 -2.96701 0.996865 0
M  V30 2033 C 187.292 -4.25982 1.68236 0
M  V30 2034 N 188.783 -4.32829 1.64964 0
M  V30 2035 C 189.518 -5.31613 2.14885 0
M  V30 2036 N 189.014 -6.36718 2.73061 0
M  V30 2037 N 190.807 -5.23217 2.05428 0
M  V30 2038 H 182.958 -1.3775 1.61675 0
M  V30 2039 H 185.221 -0.661067 0.679481 0
M  V30 2040 H 184.927 -2.84156 2.0724 0
M  V30 2041 H 184.801 -3.72957 0.564177 0
M  V30 2042 H 187.188 -2.95058 -0.0497719 0
M  V30 2043 H 187.269 -2.08022 1.48865 0
M  V30 2044 H 186.913 -4.28386 2.72852 0
M  V30 2045 H 186.843 -5.13545 1.16529 0
M  V30 2046 H 189.334 -3.57493 1.22503 0
M  V30 2047 H 189.647 -7.08401 3.08848 0
M  V30 2048 H 187.992 -6.37362 2.77118 0
M  V30 2049 H 191.183 -4.40019 1.59689 0
M  V30 2050 H 191.356 -6.00045 2.44643 0
M  V30 2051 N 184.763 -0.387143 -1.52771 0
M  V30 2052 C 185.711 0.463953 -2.27926 0
M  V30 2053 C 186.705 1.06493 -1.31741 0
M  V30 2054 O 187.911 1.00565 -1.49287 0
M  V30 2055 H 184.286 0.16837 -0.732909 0
M  V30 2056 H 186.257 -0.19141 -2.97785 0
M  V30 2057 C 185.006 1.5803 -3.09713 0
M  V30 2058 H 184.329 1.12718 -3.83581 0
M  V30 2059 H 185.769 2.15008 -3.65442 0
M  V30 2060 C 184.228 2.53509 -2.2189 0
M  V30 2061 O 184.758 3.56863 -1.84422 0
M  V30 2062 N 182.964 2.23199 -1.86093 0
M  V30 2063 H 182.511 1.39185 -2.16761 0
M  V30 2064 H 182.469 2.87333 -1.27621 0
M  V30 2065 N 186.241 1.57166 -0.116904 0
M  V30 2066 C 187.191 2.11756 0.845178 0
M  V30 2067 C 188.175 1.03783 1.22955 0
M  V30 2068 O 189.367 1.3002 1.20099 0
M  V30 2069 C 186.496 2.71886 2.09602 0
M  V30 2070 C 185.582 3.86937 1.7361 0
M  V30 2071 N 185.973 4.94073 1.08284 0
M  V30 2072 C 184.271 3.97082 2.03082 0
M  V30 2073 C 184.972 5.74477 0.913855 0
M  V30 2074 N 183.948 5.2423 1.43818 0
M  V30 2075 H 187.75 2.91967 0.336523 0
M  V30 2076 H 185.264 1.62174 0.0856332 0
M  V30 2077 H 187.261 3.09338 2.79492 0
M  V30 2078 H 185.921 1.93138 2.61013 0
M  V30 2079 H 186.932 5.12483 0.747067 0
M  V30 2080 H 183.609 3.29372 2.56554 0
M  V30 2081 H 184.999 6.70701 0.40125 0
M  V30 2082 N 187.719 -0.156864 1.56817 0
M  V30 2083 C 188.667 -1.21319 1.98455 0
M  V30 2084 C 189.661 -1.45025 0.875444 0
M  V30 2085 O 190.867 -1.45435 1.0606 0
M  V30 2086 H 187.242 -0.408142 0.631605 0
M  V30 2087 H 189.213 -0.835244 2.86472 0
M  V30 2088 C 187.962 -2.54148 2.37285 0
M  V30 2089 H 187.285 -2.36733 3.22176 0
M  V30 2090 H 188.725 -3.26712 2.70251 0
M  V30 2091 C 187.184 -3.13967 1.22173 0
M  V30 2092 O 187.714 -3.98357 0.517149 0
M  V30 2093 N 185.92 -2.7327 0.988536 0
M  V30 2094 H 185.467 -2.04744 1.56326 0
M  V30 2095 H 185.425 -3.13628 0.220209 0
M  V30 2096 N 189.197 -1.51736 -0.425897 0
M  V30 2097 C 190.422 -1.69082 -1.20108 0
M  V30 2098 C 190.847 -0.392398 -1.83962 0
M  V30 2099 O 190.205 0.64858 -1.69302 0
M  V30 2100 C 190.253 -2.81604 -2.25237 0
M  V30 2101 O 189.357 -2.46004 -3.30992 0
M  V30 2102 H 188.698 -0.563408 -0.35138 0
M  V30 2103 H 191.228 -1.98358 -0.501512 0
M  V30 2104 H 191.238 -3.06025 -2.69838 0
M  V30 2105 H 189.913 -3.75817 -1.78142 0
M  V30 2106 H 188.49 -2.32195 -2.91787 0
M  V30 2107 N 190.675 0.682077 -1.42076 0
M  V30 2108 C 191.9 1.47558 -1.45744 0
M  V30 2109 C 192.325 1.87977 -0.0680981 0
M  V30 2110 O 191.683 1.55522 0.9318 0
M  V30 2111 C 191.731 2.70575 -2.38373 0
M  V30 2112 O 190.835 3.68573 -1.85007 0
M  V30 2113 H 190.176 0.443585 -0.494093 0
M  V30 2114 H 192.706 0.837238 -1.86686 0
M  V30 2115 H 192.716 3.18729 -2.54707 0
M  V30 2116 H 191.391 2.40495 -3.39315 0
M  V30 2117 H 189.968 3.2757 -1.78192 0
M  V30 2118 N 192.153 1.28127 0.917671 0
M  V30 2119 C 193.378 1.18007 1.70555 0
M  V30 2120 C 193.803 -0.258257 1.86319 0
M  V30 2121 O 193.161 -1.1869 1.37049 0
M  V30 2122 C 193.209 1.87948 3.07746 0
M  V30 2123 O 192.313 1.18427 3.9503 0
M  V30 2124 H 191.654 0.409867 0.522403 0
M  V30 2125 H 194.184 1.69379 1.1477 0
M  V30 2126 H 194.194 1.95701 3.58001 0
M  V30 2127 H 192.869 2.92573 2.95591 0
M  V30 2128 H 191.446 1.18811 3.53466 0
M  V30 2129 N 193.631 -1.12557 1.10312 0
M  V30 2130 C 195.042 -1.65574 0.862678 0
M  V30 2131 C 195.393 -1.86566 -0.607256 0
M  V30 2132 O 194.518 -1.59121 -1.46662 0
M  V30 2133 C 195.113 -3.00776 1.55947 0
M  V30 2134 C 193.672 -3.50748 1.36576 0
M  V30 2135 C 192.819 -2.25797 1.60968 0
M  V30 2136 H 195.77 -0.963552 1.26101 0
M  V30 2137 H 195.791 -3.67185 0.997753 0
M  V30 2138 H 195.303 -2.85465 2.62928 0
M  V30 2139 H 193.404 -3.71245 0.317531 0
M  V30 2140 H 193.517 -4.30289 2.10686 0
M  V30 2141 H 191.881 -2.32841 1.03234 0
M  V30 2142 H 192.664 -2.13043 2.69198 0
M  V30 2143 N 195.109 -0.891671 -1.2995 0
M  V30 2144 C 196.059 -0.334811 -2.25528 0
M  V30 2145 C 197.043 0.540553 -1.51548 0
M  V30 2146 O 198.235 0.383882 -1.72787 0
M  V30 2147 C 195.364 0.44374 -3.4042 0
M  V30 2148 C 194.45 -0.44609 -4.21747 0
M  V30 2149 N 194.841 -1.54963 -4.81477 0
M  V30 2150 C 193.139 -0.242415 -4.45341 0
M  V30 2151 C 193.84 -2.10015 -5.42465 0
M  V30 2152 N 192.816 -1.39423 -5.25416 0
M  V30 2153 H 196.618 -1.17792 -2.69262 0
M  V30 2154 H 194.132 -0.741822 -1.44467 0
M  V30 2155 H 196.129 0.859362 -4.07947 0
M  V30 2156 H 194.789 1.28421 -2.98225 0
M  V30 2157 H 195.8 -1.93244 -4.80497 0
M  V30 2158 H 192.477 0.560342 -4.13723 0
M  V30 2159 H 193.867 -3.02724 -5.9984 0
M  V30 2160 N 196.587 1.43421 -0.653314 0
M  V30 2161 C 197.812 2.06678 -0.172846 0
M  V30 2162 C 198.237 1.48648 1.15262 0
M  V30 2163 O 197.595 0.596457 1.71208 0
M  V30 2164 C 197.643 3.60474 -0.0953184 0
M  V30 2165 O 196.747 4.01487 0.942442 0
M  V30 2166 H 196.088 0.657181 -0.0949155 0
M  V30 2167 H 198.618 1.83925 -0.896265 0
M  V30 2168 H 198.628 4.07905 0.0879728 0
M  V30 2169 H 197.303 4.02088 -1.06291 0
M  V30 2170 H 195.88 3.65646 0.731932 0
M  V30 2171 N 198.065 0.39524 1.52563 0
M  V30 2172 C 199.313 -0.184678 2.01254 0
M  V30 2173 C 199.634 -1.46822 1.28329 0
M  V30 2174 O 198.904 -1.91666 0.405094 0
M  V30 2175 H 197.484 -0.0712355 0.743596 0
M  V30 2176 H 200.146 0.528293 1.87603 0
M  V30 2177 H 199.242 -0.390681 3.09645 0
M  V30 2178 N 199.544 -1.57102 0.125237 0
M  V30 2179 C 200.79 -1.95697 -0.532035 0
M  V30 2180 C 201.123 -1.009 -1.6593 0
M  V30 2181 O 200.398 -0.047347 -1.94442 0
M  V30 2182 C 200.681 -3.44181 -1.05884 0
M  V30 2183 C 200.534 -4.49752 0.0654392 0
M  V30 2184 C 201.853 -3.94655 -1.9477 0
M  V30 2185 H 198.972 -0.711571 -0.191925 0
M  V30 2186 H 201.614 -1.88923 0.20206 0
M  V30 2187 H 199.764 -3.50085 -1.68442 0
M  V30 2188 H 201.436 -4.55943 0.700982 0
M  V30 2189 H 199.679 -4.27653 0.727709 0
M  V30 2190 H 200.35 -5.50924 -0.344505 0
M  V30 2191 H 202.826 -3.91094 -1.42074 0
M  V30 2192 H 201.702 -4.99057 -2.28546 0
M  V30 2193 H 201.963 -3.35718 -2.87656 0
M  V30 2194 N 201.022 0.148545 -1.56898 0
M  V30 2195 C 202.247 0.880385 -1.87787 0
M  V30 2196 C 202.672 1.74018 -0.714093 0
M  V30 2197 O 202.03 1.78153 0.336343 0
M  V30 2198 C 202.078 1.71422 -3.17249 0
M  V30 2199 O 201.182 2.8183 -3.01074 0
M  V30 2200 H 200.523 0.245301 -0.617028 0
M  V30 2201 H 203.053 0.139826 -2.04122 0
M  V30 2202 H 203.063 2.10954 -3.49231 0
M  V30 2203 H 201.738 1.08284 -4.01556 0
M  V30 2204 H 200.315 2.45715 -2.80497 0
M  V30 2205 N 202.5 1.5196 0.417844 0
M  V30 2206 C 203.916 1.40569 0.755816 0
M  V30 2207 C 204.116 0.503316 1.95113 0
M  V30 2208 O 203.172 -0.0341925 2.52477 0
M  V30 2209 C 204.485 2.82947 1.01791 0
M  V30 2210 C 206.033 2.92231 1.12116 0
M  V30 2211 C 206.508 4.35559 1.41608 0
M  V30 2212 N 207.999 4.38753 1.48491 0
M  V30 2213 C 208.734 5.46705 1.7292 0
M  V30 2214 N 208.23 6.64788 1.95011 0
M  V30 2215 N 210.023 5.34209 1.74863 0
M  V30 2216 H 202.174 2.09168 -0.369098 0
M  V30 2217 H 204.437 0.942409 -0.102809 0
M  V30 2218 H 204.143 3.5106 0.212081 0
M  V30 2219 H 204.017 3.23462 1.94042 0
M  V30 2220 H 206.404 2.24304 1.9176 0
M  V30 2221 H 206.485 2.55185 0.177225 0
M  V30 2222 H 206.129 5.04042 0.624848 0
M  V30 2223 H 206.059 4.70133 2.37239 0
M  V30 2224 H 208.55 3.5363 1.33244 0
M  V30 2225 H 208.863 7.42845 2.13076 0
M  V30 2226 H 207.208 6.67869 1.92293 0
M  V30 2227 H 210.399 4.40937 1.57137 0
M  V30 2228 H 210.572 6.18415 1.93563 0
M  V30 2229 N 203.978 -0.674533 1.42435 0
M  V30 2230 C 204.91 -1.80005 1.41883 0
M  V30 2231 C 205.923 -1.59667 0.31787 0
M  V30 2232 O 207.112 -1.68781 0.580973 0
M  V30 2233 C 204.212 -3.17114 1.19549 0
M  V30 2234 C 203.385 -3.64299 2.42084 0
M  V30 2235 C 202.444 -4.80142 2.15291 0
M  V30 2236 O 201.47 -4.90673 2.88493 0
M  V30 2237 N 202.672 -5.68869 1.1562 0
M  V30 2238 H 205.437 -1.80964 2.38898 0
M  V30 2239 H 202.998 -0.857633 1.37318 0
M  V30 2240 H 204.99 -3.92267 0.995417 0
M  V30 2241 H 203.56 -3.11053 0.310569 0
M  V30 2242 H 202.78 -2.79822 2.77657 0
M  V30 2243 H 204.068 -3.92567 3.23679 0
M  V30 2244 H 203.466 -5.63012 0.550765 0
M  V30 2245 H 202.023 -6.43833 1.016 0
M  V30 2246 N 205.456 -1.28612 -0.910864 0
M  V30 2247 C 206.702 -1.16106 -1.66274 0
M  V30 2248 C 207.035 0.289113 -1.92036 0
M  V30 2249 O 206.31 1.21 -1.52281 0
M  V30 2250 C 206.593 -1.96309 -3.01885 0
M  V30 2251 C 206.446 -3.49405 -2.8326 0
M  V30 2252 C 207.765 -1.78076 -4.02463 0
M  V30 2253 H 204.884 -0.423152 -0.603417 0
M  V30 2254 H 207.526 -1.57961 -1.05586 0
M  V30 2255 H 205.676 -1.60742 -3.53687 0
M  V30 2256 H 207.348 -3.94894 -2.38446 0
M  V30 2257 H 205.591 -3.74893 -2.18261 0
M  V30 2258 H 206.262 -4.00784 -3.79574 0
M  V30 2259 H 208.738 -2.0912 -3.59733 0
M  V30 2260 H 207.614 -2.36561 -4.95308 0
M  V30 2261 H 207.875 -0.733008 -4.35981 0
M  V30 2262 N 206.934 1.1197 -1.10907 0
M  V30 2263 C 208.35 1.35591 -0.841852 0
M  V30 2264 C 208.55 1.94233 0.536246 0
M  V30 2265 O 207.606 2.1717 1.28816 0
M  V30 2266 C 208.919 2.29284 -1.94549 0
M  V30 2267 C 210.467 2.42862 -1.97451 0
M  V30 2268 C 210.942 3.39873 -3.07002 0
M  V30 2269 N 212.433 3.47433 -3.06341 0
M  V30 2270 C 213.168 4.22421 -3.87748 0
M  V30 2271 N 212.664 5.00432 -4.79103 0
M  V30 2272 N 214.457 4.17876 -3.75946 0
M  V30 2273 H 206.608 0.722664 -1.99728 0
M  V30 2274 H 208.871 0.380635 -0.868229 0
M  V30 2275 H 208.577 1.93378 -2.93765 0
M  V30 2276 H 208.451 3.29452 -1.83688 0
M  V30 2277 H 210.838 2.78046 -0.988645 0
M  V30 2278 H 210.919 1.42566 -2.12388 0
M  V30 2279 H 210.563 3.05417 -4.05811 0
M  V30 2280 H 210.493 4.40011 -2.89306 0
M  V30 2281 H 212.984 2.91784 -2.40147 0
M  V30 2282 H 213.297 5.55002 -5.37766 0
M  V30 2283 H 211.642 4.99612 -4.83128 0
M  V30 2284 H 214.833 3.56016 -3.03924 0
M  V30 2285 H 215.006 4.76061 -4.39624 0
M  V30 2286 N 208.412 0.89855 1.29475 0
M  V30 2287 C 209.661 0.519863 1.94885 0
M  V30 2288 C 209.974 -0.9383 1.71625 0
M  V30 2289 O 211.18 -1.42445 2.31131 0
M  V30 2290 C 209.636 0.878836 3.49005 0
M  V30 2291 C 209.244 2.35569 3.81066 0
M  V30 2292 C 210.988 0.570004 4.20656 0
M  V30 2293 C 208.895 2.65558 5.28425 0
M  V30 2294 H 207.825 0.190692 0.729488 0
M  V30 2295 H 210.476 1.09539 1.47219 0
M  V30 2296 H 208.858 0.232253 3.95318 0
M  V30 2297 H 210.032 3.04773 3.45616 0
M  V30 2298 H 208.347 2.63343 3.22552 0
M  V30 2299 H 210.944 0.770925 5.29113 0
M  V30 2300 H 211.287 -0.491404 4.1339 0
M  V30 2301 H 211.82 1.17438 3.8007 0
M  V30 2302 H 208.559 3.70493 5.40754 0
M  V30 2303 H 208.079 2.00977 5.65127 0
M  V30 2304 H 209.758 2.51765 5.96006 0
M  V30 2305 N 209.89 -1.43072 0.660911 0
M  V30 2306 C 210.837 -2.30785 -0.0259884 0
M  V30 2307 C 211.807 -1.45184 -0.806888 0
M  V30 2308 O 212.992 -1.74041 -0.781943 0
M  V30 2309 C 210.132 -3.30861 -0.981067 0
M  V30 2310 C 209.245 -4.31558 -0.195458 0
M  V30 2311 C 208.38 -5.18712 -1.14503 0
M  V30 2312 C 207.419 -6.11097 -0.350299 0
M  V30 2313 N 206.556 -6.90849 -1.25186 0
M  V30 2314 H 211.396 -2.88975 0.727846 0
M  V30 2315 H 208.933 -1.42353 0.370682 0
M  V30 2316 H 210.891 -3.87399 -1.54849 0
M  V30 2317 H 209.521 -2.74304 -1.70169 0
M  V30 2318 H 208.573 -3.77252 0.488374 0
M  V30 2319 H 209.885 -4.9701 0.422176 0
M  V30 2320 H 209.039 -5.79914 -1.78284 0
M  V30 2321 H 207.778 -4.53404 -1.79656 0
M  V30 2322 H 206.783 -5.48976 0.300808 0
M  V30 2323 H 208.008 -6.7845 0.296941 0
M  V30 2324 H 205.954 -6.28182 -1.89005 0
M  V30 2325 H 205.871 -7.52854 -0.688971 0
M  V30 2326 H 207.139 -7.5655 -1.87757 0
M  V30 2327 N 211.368 -0.403325 -1.52352 0
M  V30 2328 C 212.331 0.413051 -2.25447 0
M  V30 2329 C 213.331 0.978513 -1.276 0
M  V30 2330 O 214.521 0.858305 -1.51587 0
M  V30 2331 C 211.653 1.58087 -3.02029 0
M  V30 2332 H 212.846 -0.227094 -2.99039 0
M  V30 2333 H 210.399 -0.155722 -1.55522 0
M  V30 2334 H 211.134 2.25804 -2.32772 0
M  V30 2335 H 210.919 1.18195 -3.73861 0
M  V30 2336 H 212.409 2.1585 -3.57489 0
M  V30 2337 N 212.846 1.57033 -0.133567 0
M  V30 2338 C 214.071 2.00475 0.531477 0
M  V30 2339 C 214.496 1.01291 1.58499 0
M  V30 2340 O 213.854 -0.0133279 1.81295 0
M  V30 2341 C 213.902 3.42729 1.12113 0
M  V30 2342 O 213.006 3.46498 2.23636 0
M  V30 2343 H 212.347 0.650876 0.131362 0
M  V30 2344 H 214.877 2.03344 -0.22634 0
M  V30 2345 H 214.887 3.81246 1.4531 0
M  V30 2346 H 213.562 4.14428 0.349557 0
M  V30 2347 H 212.139 3.19811 1.91769 0
M  V30 2348 N 214.325 -0.140222 1.56975 0
M  V30 2349 C 215.257 -1.19818 1.95388 0
M  V30 2350 C 216.27 -1.38816 0.850525 0
M  V30 2351 O 217.459 -1.38267 1.12891 0
M  V30 2352 C 214.559 -2.56189 2.21857 0
M  V30 2353 C 213.732 -2.58077 3.5315 0
M  V30 2354 C 212.791 -3.76037 3.6808 0
M  V30 2355 O 211.817 -3.60598 4.40406 0
M  V30 2356 N 213.019 -4.93763 3.05251 0
M  V30 2357 H 215.784 -0.871609 2.86746 0
M  V30 2358 H 213.345 -0.32972 1.58507 0
M  V30 2359 H 215.337 -3.33623 2.2908 0
M  V30 2360 H 213.907 -2.81111 1.36731 0
M  V30 2361 H 213.127 -1.6651 3.57307 0
M  V30 2362 H 214.415 -2.56377 4.39486 0
M  V30 2363 H 213.813 -5.09209 2.46419 0
M  V30 2364 H 212.37 -5.68949 3.18026 0
M  V30 2365 N 215.803 -1.52179 -0.40978 0
M  V30 2366 C 217.028 -1.70347 -1.18308 0
M  V30 2367 C 217.453 -0.411887 -1.83535 0
M  V30 2368 O 216.811 0.630587 -1.6998 0
M  V30 2369 C 216.859 -2.83977 -2.22238 0
M  V30 2370 O 215.963 -2.495 -3.28365 0
M  V30 2371 H 215.304 -0.567103 -0.345384 0
M  V30 2372 H 217.834 -1.98879 -0.480445 0
M  V30 2373 H 217.844 -3.0887 -2.66577 0
M  V30 2374 H 216.519 -3.77685 -1.74146 0
M  V30 2375 H 215.096 -2.35277 -2.89308 0
M  V30 2376 N 217.281 0.66697 -1.42791 0
M  V30 2377 C 218.244 1.76211 -1.46568 0
M  V30 2378 C 219.244 1.56896 -0.352196 0
M  V30 2379 O 220.434 1.63044 -0.613364 0
M  V30 2380 C 217.566 3.14935 -1.30494 0
M  V30 2381 H 218.759 1.74247 -2.44086 0
M  V30 2382 H 216.312 0.877342 -1.29354 0
M  V30 2383 H 217.047 3.2252 -0.339301 0
M  V30 2384 H 216.832 3.30359 -2.11199 0
M  V30 2385 H 218.322 3.94821 -1.36038 0
M  V30 2386 N 218.759 1.29093 0.90403 0
M  V30 2387 C 220.007 1.16583 1.65085 0
M  V30 2388 C 220.328 -0.283933 1.92922 0
M  V30 2389 O 219.598 -1.19509 1.55224 0
M  V30 2390 H 218.178 0.428467 0.611903 0
M  V30 2391 H 220.84 1.61959 1.08422 0
M  V30 2392 H 219.936 1.71266 2.6091 0
M  V30 2393 N 220.237 -1.11381 1.11499 0
M  V30 2394 C 221.514 -1.7955 0.775965 0
M  V30 2395 C 221.894 -1.97859 -0.73588 0
M  V30 2396 O 221.242 -1.56376 -1.66609 0
M  V30 2397 C 221.452 -3.13196 1.53977 0
M  V30 2398 C 222.8 -3.88227 1.71944 0
M  V30 2399 O 223.824 -3.22887 1.50407 0
M  V30 2400 O 222.683 -5.05477 2.07738 0
M  V30 2401 H 219.777 -0.777728 0.28119 0
M  V30 2402 H 222.323 -1.18118 1.21845 0
M  V30 2403 H 221.095 -2.95229 2.56818 0
M  V30 2404 H 220.718 -3.82342 1.09088 0
M  V30 2405 N 221.715 -0.905404 -1.28997 0
M  V30 2406 C 222.964 -0.530191 -1.94607 0
M  V30 2407 C 223.277 0.929185 -1.72121 0
M  V30 2408 O 224.483 1.41218 -2.31883 0
M  V30 2409 C 222.939 -0.897333 -3.48534 0
M  V30 2410 C 222.547 -2.37587 -3.79811 0
M  V30 2411 C 224.291 -0.592304 -4.20347 0
M  V30 2412 C 222.198 -2.68357 -5.27009 0
M  V30 2413 H 221.128 -0.194558 -0.728466 0
M  V30 2414 H 223.779 -1.10318 -1.46636 0
M  V30 2415 H 222.161 -0.253214 -3.9519 0
M  V30 2416 H 223.335 -3.06602 -3.43994 0
M  V30 2417 H 221.65 -2.6505 -3.2115 0
M  V30 2418 H 224.247 -0.798975 -5.28697 0
M  V30 2419 H 224.59 0.469474 -4.13644 0
M  V30 2420 H 225.123 -1.19452 -3.79442 0
M  V30 2421 H 221.862 -3.73355 -5.38782 0
M  V30 2422 H 221.382 -2.03971 -5.64053 0
M  V30 2423 H 223.061 -2.54922 -5.94663 0
M  V30 2424 N 223.193 1.4272 -0.668489 0
M  V30 2425 C 224.141 2.32586 0.0254857 0
M  V30 2426 C 225.135 1.49471 0.797176 0
M  V30 2427 O 226.341 1.65583 0.705853 0
M  V30 2428 H 222.716 0.751514 0.0270339 0
M  V30 2429 H 224.687 2.88823 -0.749936 0
M  V30 2430 C 223.436 3.3397 0.967427 0
M  V30 2431 H 222.759 3.97961 0.383048 0
M  V30 2432 H 224.199 3.9945 1.42181 0
M  V30 2433 C 222.658 2.65744 2.0708 0
M  V30 2434 O 223.188 2.48454 3.15648 0
M  V30 2435 N 221.394 2.2487 1.8407 0
M  V30 2436 H 220.941 2.39132 0.95778 0
M  V30 2437 H 220.899 1.79552 2.58086 0
M  V30 2438 N 224.671 0.411399 1.52136 0
M  V30 2439 C 225.899 -0.163076 2.06256 0
M  V30 2440 C 226.314 -1.3867 1.28125 0
M  V30 2441 O 225.671 -1.79423 0.333721 0
M  V30 2442 C 225.722 -0.511252 3.57867 0
M  V30 2443 O 225.443 0.66378 4.33042 0
M  V30 2444 C 226.944 -1.13921 4.28412 0
M  V30 2445 H 224.164 -0.0193897 0.67072 0
M  V30 2446 H 226.708 0.583007 1.96013 0
M  V30 2447 H 224.863 -1.20723 3.6811 0
M  V30 2448 H 225.277 0.372601 5.23175 0
M  V30 2449 H 226.751 -1.33302 5.35663 0
M  V30 2450 H 227.228 -2.11296 3.85033 0
M  V30 2451 H 227.834 -0.483373 4.22544 0
M  V30 2452 N 226.149 -1.5696 0.141893 0
M  V30 2453 C 227.398 -1.95135 -0.510427 0
M  V30 2454 C 227.711 -1.02896 -1.66348 0
M  V30 2455 O 228.917 -1.30629 -2.38009 0
M  V30 2456 C 227.373 -3.46876 -0.959427 0
M  V30 2457 C 226.981 -4.47691 0.166419 0
M  V30 2458 C 228.725 -3.93927 -1.58183 0
M  V30 2459 C 226.632 -5.90636 -0.300565 0
M  V30 2460 H 225.562 -0.728494 -0.194454 0
M  V30 2461 H 228.213 -1.8211 0.22542 0
M  V30 2462 H 226.595 -3.55215 -1.75038 0
M  V30 2463 H 227.769 -4.51043 0.94325 0
M  V30 2464 H 226.084 -4.10527 0.696905 0
M  V30 2465 H 228.681 -4.98158 -1.94275 0
M  V30 2466 H 229.024 -3.3519 -2.46888 0
M  V30 2467 H 229.557 -3.88484 -0.855863 0
M  V30 2468 H 226.296 -6.5318 0.550989 0
M  V30 2469 H 225.816 -5.90655 -1.04338 0
M  V30 2470 H 227.495 -6.42588 -0.754265 0
M  V30 2471 N 227.627 0.131896 -1.57047 0
M  V30 2472 C 228.857 0.855219 -1.88068 0
M  V30 2473 C 229.265 1.74557 -0.729817 0
M  V30 2474 O 228.608 1.81083 0.308962 0
M  V30 2475 C 228.67 1.75119 -3.13964 0
M  V30 2476 C 228.334 1.03646 -4.45091 0
M  V30 2477 C 229.331 0.383276 -5.18485 0
M  V30 2478 C 227.016 1.02148 -4.91804 0
M  V30 2479 C 229.01 -0.275347 -6.36805 0
M  V30 2480 C 226.697 0.359047 -6.10044 0
M  V30 2481 C 227.695 -0.288222 -6.82392 0
M  V30 2482 O 227.383 -0.94011 -7.98384 0
M  V30 2483 H 227.115 0.251864 -0.627328 0
M  V30 2484 H 229.669 0.124782 -2.05021 0
M  V30 2485 H 227.899 2.52295 -2.9306 0
M  V30 2486 H 229.588 2.3478 -3.31109 0
M  V30 2487 H 230.354 0.386562 -4.83457 0
M  V30 2488 H 226.233 1.5147 -4.35405 0
M  V30 2489 H 229.777 -0.781148 -6.93213 0
M  V30 2490 H 225.674 0.35348 -6.44531 0
M  V30 2491 H 226.442 -0.84329 -8.14144 0
M  V30 2492 N 229.106 1.52395 0.401703 0
M  V30 2493 C 230.038 1.72505 1.50912 0
M  V30 2494 C 231.051 0.605468 1.51122 0
M  V30 2495 O 232.24 0.880828 1.55254 0
M  V30 2496 C 229.34 1.75711 2.89791 0
M  V30 2497 C 228.513 3.04824 3.1369 0
M  V30 2498 C 227.572 2.99743 4.32482 0
M  V30 2499 O 226.598 3.73635 4.29402 0
M  V30 2500 N 227.8 2.18047 5.37992 0
M  V30 2501 H 230.565 2.68049 1.34052 0
M  V30 2502 H 228.126 1.50724 0.591084 0
M  V30 2503 H 230.118 1.69834 3.6734 0
M  V30 2504 H 228.688 0.876092 3.00072 0
M  V30 2505 H 227.908 3.2429 2.24119 0
M  V30 2506 H 229.196 3.90221 3.26504 0
M  V30 2507 H 228.594 1.57456 5.43345 0
M  V30 2508 H 227.151 2.18021 6.14256 0
M  V30 2509 N 230.584 -0.659388 1.43143 0
M  V30 2510 C 231.995 -1.24041 1.39537 0
M  V30 2511 C 232.346 -1.95963 0.0963364 0
M  V30 2512 O 231.471 -2.00892 -0.804438 0
M  V30 2513 C 232.066 -2.25601 2.52764 0
M  V30 2514 C 230.625 -2.79195 2.52443 0
M  V30 2515 C 229.772 -1.53743 2.30778 0
M  V30 2516 H 232.723 -0.451792 1.52133 0
M  V30 2517 H 232.744 -3.07651 2.23899 0
M  V30 2518 H 232.256 -1.73226 3.47296 0
M  V30 2519 H 230.357 -3.35649 1.61773 0
M  V30 2520 H 230.47 -3.2716 3.50004 0
M  V30 2521 H 228.834 -1.80869 1.79328 0
M  V30 2522 H 229.617 -1.03312 3.27386 0
M  V30 2523 N 232.062 -1.29571 -0.897171 0
M  V30 2524 C 233.473 -1.15964 -1.46319 0
M  V30 2525 C 233.824 0.244267 -1.94674 0
M  V30 2526 O 232.949 1.13998 -1.83939 0
M  V30 2527 C 233.544 -2.09906 -2.65942 0
M  V30 2528 C 232.103 -2.00314 -3.18671 0
M  V30 2529 C 231.25 -2.00687 -1.91363 0
M  V30 2530 H 234.201 -1.42019 -0.708268 0
M  V30 2531 H 234.222 -1.67276 -3.41759 0
M  V30 2532 H 233.734 -3.12075 -2.30718 0
M  V30 2533 H 231.835 -1.01242 -3.58582 0
M  V30 2534 H 231.948 -2.88102 -3.82798 0
M  V30 2535 H 230.312 -1.45319 -2.09175 0
M  V30 2536 H 231.095 -3.04566 -1.58413 0
M  V30 2537 N 233.54 1.10788 -1.12088 0
M  V30 2538 C 234.45 2.20599 -0.798338 0
M  V30 2539 C 235.466 1.72712 0.21135 0
M  V30 2540 O 236.642 2.01348 0.0458477 0
M  V30 2541 C 233.707 3.45771 -0.253674 0
M  V30 2542 C 232.768 4.08411 -1.32283 0
M  V30 2543 C 232.001 5.27608 -0.80406 0
M  V30 2544 O 232.224 5.69241 0.363478 0
M  V30 2545 O 231.158 5.8101 -1.57198 0
M  V30 2546 H 234.984 2.50614 -1.7154 0
M  V30 2547 H 232.569 1.19454 -0.897275 0
M  V30 2548 H 234.451 4.21376 0.0453691 0
M  V30 2549 H 233.126 3.1739 0.636005 0
M  V30 2550 H 232.033 3.34507 -1.67499 0
M  V30 2551 H 233.366 4.40986 -2.18614 0
M  V30 2552 N 235.018 0.912232 1.28515 0
M  V30 2553 C 236.429 0.591352 1.77087 0
M  V30 2554 C 236.78 -0.8933 1.74684 0
M  V30 2555 O 235.905 -1.69876 1.34056 0
M  V30 2556 C 236.5 1.06668 3.2157 0
M  V30 2557 C 235.059 0.79675 3.67871 0
M  V30 2558 C 234.206 1.23427 2.48316 0
M  V30 2559 H 237.157 1.09365 1.15 0
M  V30 2560 H 237.178 0.407455 3.78312 0
M  V30 2561 H 236.69 2.14726 3.23287 0
M  V30 2562 H 234.791 -0.270679 3.71616 0
M  V30 2563 H 234.904 1.40343 4.58084 0
M  V30 2564 H 233.268 0.653036 2.46186 0
M  V30 2565 H 234.051 2.32316 2.52753 0
M  V30 2566 N 236.496 -1.42363 0.676048 0
M  V30 2567 C 237.912 -1.55811 0.345718 0
M  V30 2568 C 238.112 -1.65544 -1.14879 0
M  V30 2569 O 237.168 -1.62306 -1.93424 0
M  V30 2570 C 238.481 -2.80746 1.07713 0
M  V30 2571 C 240.029 -2.9452 1.05958 0
M  V30 2572 C 240.504 -4.22318 1.77233 0
M  V30 2573 N 241.995 -4.29233 1.74108 0
M  V30 2574 C 242.73 -5.26935 2.26113 0
M  V30 2575 N 242.226 -6.30783 2.86505 0
M  V30 2576 N 244.019 -5.18741 2.1648 0
M  V30 2577 H 236.17 -1.34289 1.6456 0
M  V30 2578 H 238.433 -0.646506 0.69335 0
M  V30 2579 H 238.139 -2.79696 2.13221 0
M  V30 2580 H 238.013 -3.71676 0.64316 0
M  V30 2581 H 240.4 -2.95097 0.0128255 0
M  V30 2582 H 240.481 -2.04817 1.53244 0
M  V30 2583 H 240.125 -4.22502 2.81877 0
M  V30 2584 H 240.055 -5.10958 1.27396 0
M  V30 2585 H 242.546 -3.54814 1.30059 0
M  V30 2586 H 242.859 -7.01691 3.23805 0
M  V30 2587 H 241.204 -6.31341 2.90575 0
M  V30 2588 H 244.395 -4.36533 1.68987 0
M  V30 2589 H 244.568 -5.94721 2.57316 0
M  V30 2590 N 237.974 -0.419461 -1.51915 0
M  V30 2591 C 239.199 0.154572 -2.06823 0
M  V30 2592 C 239.624 1.3722 -1.28656 0
M  V30 2593 O 238.982 1.78461 -0.319583 0
M  V30 2594 C 239.03 0.473172 -3.57482 0
M  V30 2595 O 238.134 1.56255 -3.81652 0
M  V30 2596 H 237.475 0.0096924 -0.663929 0
M  V30 2597 H 240.005 -0.595642 -1.95738 0
M  V30 2598 H 240.015 0.728825 -4.01438 0
M  V30 2599 H 238.69 -0.416873 -4.13805 0
M  V30 2600 H 237.267 1.29825 -3.49571 0
M  V30 2601 N 239.452 1.56882 -0.150215 0
M  V30 2602 C 240.868 1.58263 0.20617 0
M  V30 2603 C 241.068 1.16464 1.64434 0
M  V30 2604 O 240.124 0.866422 2.3717 0
M  V30 2605 C 241.437 3.00649 -0.0555025 0
M  V30 2606 C 242.985 3.12999 0.00795388 0
M  V30 2607 C 243.46 4.5744 -0.226429 0
M  V30 2608 N 244.951 4.62875 -0.173469 0
M  V30 2609 C 245.686 5.72454 -0.329288 0
M  V30 2610 N 245.182 6.90669 -0.543005 0
M  V30 2611 N 246.975 5.61467 -0.266666 0
M  V30 2612 H 239.126 1.82345 -1.08922 0
M  V30 2613 H 241.389 0.844149 -0.431413 0
M  V30 2614 H 241.095 3.3563 -1.05096 0
M  V30 2615 H 240.969 3.71337 0.66246 0
M  V30 2616 H 243.356 2.77857 0.993966 0
M  V30 2617 H 243.437 2.4479 -0.742388 0
M  V30 2618 H 243.081 4.93287 -1.20956 0
M  V30 2619 H 243.011 5.2378 0.544274 0
M  V30 2620 H 245.502 3.77898 -0.0130709 0
M  V30 2621 H 245.815 7.70045 -0.651922 0
M  V30 2622 H 244.16 6.92581 -0.579366 0
M  V30 2623 H 247.351 4.67992 -0.100441 0
M  V30 2624 H 247.524 6.46816 -0.391535 0
M  V30 2625 N 240.93 -0.123565 1.57115 0
M  V30 2626 C 241.88 -1.1575 1.96433 0
M  V30 2627 C 242.864 -1.37313 0.838686 0
M  V30 2628 O 244.056 -1.38482 1.10235 0
M  V30 2629 C 241.185 -2.48526 2.36833 0
M  V30 2630 C 240.271 -2.30457 3.5602 0
M  V30 2631 N 240.662 -1.8219 4.71848 0
M  V30 2632 C 238.96 -2.61129 3.61563 0
M  V30 2633 C 239.661 -1.77721 5.53886 0
M  V30 2634 N 238.637 -2.21899 4.96248 0
M  V30 2635 H 242.439 -0.776797 2.83449 0
M  V30 2636 H 239.953 -0.331364 1.58983 0
M  V30 2637 H 241.95 -3.233 2.63216 0
M  V30 2638 H 240.61 -2.87358 1.5118 0
M  V30 2639 H 241.621 -1.51805 4.95152 0
M  V30 2640 H 238.298 -3.03678 2.86507 0
M  V30 2641 H 239.688 -1.41697 6.56789 0
M  V30 2642 N 242.408 -1.52605 -0.393616 0
M  V30 2643 C 243.338 -1.80022 -1.48709 0
M  V30 2644 C 244.319 -0.651995 -1.57108 0
M  V30 2645 O 245.504 -0.89913 -1.72132 0
M  V30 2646 C 242.634 -1.96492 -2.86371 0
M  V30 2647 C 241.588 -3.12161 -2.92813 0
M  V30 2648 C 240.914 -3.13877 -4.3288 0
M  V30 2649 C 242.214 -4.51322 -2.6288 0
M  V30 2650 H 243.908 -2.71589 -1.26015 0
M  V30 2651 H 241.454 -1.30684 -0.604778 0
M  V30 2652 H 243.407 -2.14255 -3.62867 0
M  V30 2653 H 242.131 -1.01611 -3.10391 0
M  V30 2654 H 240.79 -2.94173 -2.18764 0
M  V30 2655 H 240.438 -2.16687 -4.53933 0
M  V30 2656 H 240.138 -3.91576 -4.38112 0
M  V30 2657 H 241.662 -3.33789 -5.1129 0
M  V30 2658 H 243.076 -4.69435 -3.29096 0
M  V30 2659 H 241.473 -5.31053 -2.79468 0
M  V30 2660 H 242.543 -4.58353 -1.58242 0
M  V30 2661 N 243.887 0.651787 -1.4349 0
M  V30 2662 C 245.112 1.44434 -1.48841 0
M  V30 2663 C 245.537 1.8779 -0.107955 0
M  V30 2664 O 244.895 1.57464 0.898602 0
M  V30 2665 C 244.943 2.65458 -2.44059 0
M  V30 2666 O 244.047 3.64566 -1.92784 0
M  V30 2667 H 243.388 0.433005 -0.503391 0
M  V30 2668 H 245.918 0.797451 -1.88419 0
M  V30 2669 H 245.928 3.13255 -2.6141 0
M  V30 2670 H 244.603 2.33244 -3.4434 0
M  V30 2671 H 243.18 3.23716 -1.851 0
M  V30 2672 N 245.365 1.30045 0.890287 0
M  V30 2673 C 246.611 1.18737 1.64406 0
M  V30 2674 C 246.944 -0.258525 1.92472 0
M  V30 2675 O 246.219 -1.18562 1.54186 0
M  V30 2676 C 246.502 2.01087 2.98724 0
M  V30 2677 C 246.355 3.53867 2.77665 0
M  V30 2678 C 247.674 1.84457 3.9958 0
M  V30 2679 H 244.793 0.432698 0.596608 0
M  V30 2680 H 247.435 1.5962 1.0306 0
M  V30 2681 H 245.585 1.66349 3.51084 0
M  V30 2682 H 247.257 3.98637 2.32133 0
M  V30 2683 H 245.5 3.78318 2.12269 0
M  V30 2684 H 246.171 4.06772 3.7315 0
M  V30 2685 H 248.647 2.14817 3.56361 0
M  V30 2686 H 247.523 2.44411 4.91482 0
M  V30 2687 H 247.784 0.802276 4.3476 0
M  V30 2688 N 246.843 -1.10192 1.12674 0
M  V30 2689 C 248.068 -1.86523 0.906853 0
M  V30 2690 C 248.493 -1.80221 -0.538711 0
M  V30 2691 O 247.851 -1.17396 -1.38158 0
M  V30 2692 C 247.899 -3.32758 1.3894 0
M  V30 2693 O 247.003 -4.08449 0.5695 0
M  V30 2694 H 246.344 -0.578678 0.325619 0
M  V30 2695 H 248.874 -1.39203 1.49946 0
M  V30 2696 H 248.884 -3.83608 1.38958 0
M  V30 2697 H 247.559 -3.36661 2.44197 0
M  V30 2698 H 246.136 -3.67427 0.636528 0
M  V30 2699 N 248.321 -0.919034 -1.28029 0
M  V30 2700 C 249.546 -0.570357 -1.99403 0
M  V30 2701 C 249.971 0.842486 -1.68178 0
M  V30 2702 O 249.329 1.56391 -0.917141 0
M  V30 2703 C 249.377 -0.792541 -3.51783 0
M  V30 2704 O 248.481 0.145988 -4.12142 0
M  V30 2705 H 247.822 -0.220555 -0.6263 0
M  V30 2706 H 250.352 -1.23592 -1.63053 0
M  V30 2707 H 250.362 -0.704708 -4.01868 0
M  V30 2708 H 249.037 -1.82247 -3.73844 0
M  V30 2709 H 247.614 0.00897528 -3.72899 0
M  V30 2710 N 249.799 1.42003 -0.683588 0
M  V30 2711 C 250.731 2.29183 0.0283068 0
M  V30 2712 C 251.744 1.4415 0.756611 0
M  V30 2713 O 252.933 1.67779 0.609306 0
M  V30 2714 C 250.033 3.21765 1.06398 0
M  V30 2715 C 249.206 4.35496 0.407723 0
M  V30 2716 C 248.265 5.08737 1.34437 0
M  V30 2717 O 247.291 5.62948 0.841318 0
M  V30 2718 N 248.493 5.15075 2.67728 0
M  V30 2719 H 251.258 2.9092 -0.720105 0
M  V30 2720 H 248.819 1.53025 -0.528682 0
M  V30 2721 H 250.811 3.6763 1.69204 0
M  V30 2722 H 249.381 2.61418 1.71404 0
M  V30 2723 H 248.601 3.92165 -0.400012 0
M  V30 2724 H 249.889 5.08776 -0.0490956 0
M  V30 2725 H 249.287 4.72457 3.11129 0
M  V30 2726 H 247.844 5.64556 3.2576 0
M  V30 2727 N 251.277 0.427512 1.51691 0
M  V30 2728 C 252.225 -0.403359 2.29076 0
M  V30 2729 C 253.219 -1.02962 1.34518 0
M  V30 2730 O 254.425 -0.965715 1.51901 0
M  V30 2731 H 250.8 -0.148879 0.737115 0
M  V30 2732 H 252.771 0.270295 2.97173 0
M  V30 2733 C 251.52 -1.49763 3.13794 0
M  V30 2734 H 250.843 -1.02508 3.86435 0
M  V30 2735 H 252.283 -2.05244 3.71014 0
M  V30 2736 C 250.742 -2.47536 2.28533 0
M  V30 2737 O 251.272 -3.51848 1.93819 0
M  V30 2738 N 249.478 -2.18187 1.91945 0
M  V30 2739 H 249.025 -1.33389 2.20375 0
M  V30 2740 H 248.983 -2.83848 1.35195 0
M  V30 2741 N 252.755 -1.56801 0.158532 0
M  V30 2742 C 254.166 -1.83189 -0.360366 0
M  V30 2743 C 254.517 -1.07778 -1.63946 0
M  V30 2744 O 253.642 -0.326718 -2.13919 0
M  V30 2745 C 254.237 -3.32297 -0.660595 0
M  V30 2746 C 252.796 -3.59227 -1.12398 0
M  V30 2747 C 251.943 -2.76877 -0.153097 0
M  V30 2748 H 254.894 -1.54008 0.383031 0
M  V30 2749 H 254.915 -3.4908 -1.51405 0
M  V30 2750 H 254.427 -3.87156 0.270527 0
M  V30 2751 H 252.528 -3.09766 -2.07064 0
M  V30 2752 H 252.641 -4.67632 -1.04197 0
M  V30 2753 H 251.005 -2.46319 -0.647983 0
M  V30 2754 H 251.788 -3.34511 0.77182 0
M  V30 2755 N 254.233 0.115231 -1.57178 0
M  V30 2756 C 255.481 0.820727 -1.84685 0
M  V30 2757 C 255.802 1.80237 -0.744279 0
M  V30 2758 O 255.072 1.94529 0.231375 0
M  V30 2759 H 253.652 0.306084 -0.681411 0
M  V30 2760 H 256.314 0.101656 -1.94635 0
M  V30 2761 H 255.41 1.36366 -2.80733 0
M  V30 2762 N 255.711 1.52812 0.385517 0
M  V30 2763 C 257.127 1.4214 0.725829 0
M  V30 2764 C 257.327 0.544589 1.94001 0
M  V30 2765 O 256.383 0.0193693 2.52493 0
M  V30 2766 C 257.696 2.85042 0.957668 0
M  V30 2767 C 259.244 2.94543 1.05892 0
M  V30 2768 C 259.719 4.38464 1.32337 0
M  V30 2769 N 261.21 4.41804 1.39151 0
M  V30 2770 C 261.945 5.5025 1.61285 0
M  V30 2771 N 261.441 6.68775 1.80866 0
M  V30 2772 N 263.234 5.37798 1.63492 0
M  V30 2773 H 255.385 2.08338 -0.413383 0
M  V30 2774 H 257.648 0.940016 -0.122775 0
M  V30 2775 H 257.354 3.51431 0.137568 0
M  V30 2776 H 257.228 3.27505 1.87137 0
M  V30 2777 H 259.615 2.28321 1.86959 0
M  V30 2778 H 259.696 2.55504 0.123057 0
M  V30 2779 H 259.34 5.05254 0.517793 0
M  V30 2780 H 259.27 4.75059 2.27214 0
M  V30 2781 H 261.761 3.56377 1.25713 0
M  V30 2782 H 262.074 7.47197 1.97271 0
M  V30 2783 H 260.419 6.71797 1.78083 0
M  V30 2784 H 263.61 4.44171 1.47749 0
M  V30 2785 H 263.783 6.22382 1.80402 0
M  V30 2786 N 257.189 -0.644168 1.43834 0
M  V30 2787 C 258.414 -1.43642 1.49605 0
M  V30 2788 C 258.839 -1.8773 0.117913 0
M  V30 2789 O 258.197 -1.57938 -0.890239 0
M  V30 2790 C 258.245 -2.6416 2.45463 0
M  V30 2791 O 257.349 -3.63538 1.94714 0
M  V30 2792 H 256.69 -0.430329 0.50568 0
M  V30 2793 H 259.22 -0.787448 1.8884 0
M  V30 2794 H 259.23 -3.11864 2.63068 0
M  V30 2795 H 257.905 -2.31414 3.45572 0
M  V30 2796 H 256.482 -3.2273 1.86814 0
M  V30 2797 N 258.668 -1.30515 -0.883378 0
M  V30 2798 C 259.893 -1.22487 -1.67367 0
M  V30 2799 C 260.318 0.208767 -1.86938 0
M  V30 2800 O 259.676 1.15015 -1.40148 0
M  V30 2801 C 259.724 -1.96041 -3.02655 0
M  V30 2802 O 258.828 -1.28859 -3.91751 0
M  V30 2803 H 258.169 -0.423573 -0.511353 0
M  V30 2804 H 260.699 -1.72362 -1.10239 0
M  V30 2805 H 260.709 -2.05124 -3.52687 0
M  V30 2806 H 259.384 -3.00307 -2.8773 0
M  V30 2807 H 257.961 -1.28141 -3.50192 0
M  V30 2808 N 260.146 1.09593 -1.13257 0
M  V30 2809 C 261.557 1.63229 -0.906274 0
M  V30 2810 C 261.908 1.8811 0.557578 0
M  V30 2811 O 261.033 1.62953 1.42391 0
M  V30 2812 C 261.628 2.96535 -1.63867 0
M  V30 2813 C 260.187 3.47003 -1.45828 0
M  V30 2814 C 259.334 2.2145 -1.66898 0
M  V30 2815 H 262.285 0.92978 -1.28611 0
M  V30 2816 H 262.306 3.64411 -1.09476 0
M  V30 2817 H 261.818 2.78394 -2.70404 0
M  V30 2818 H 259.919 3.70272 -0.415848 0
M  V30 2819 H 260.032 4.24551 -2.2202 0
M  V30 2820 H 258.396 2.30022 -1.09371 0
M  V30 2821 H 259.179 2.0583 -2.74752 0
M  V30 2822 N 261.624 0.925811 1.2754 0
M  V30 2823 C 263.035 0.610102 1.7645 0
M  V30 2824 C 263.386 -0.874723 1.75622 0
M  V30 2825 O 262.511 -1.68444 1.35851 0
M  V30 2826 C 263.106 1.10073 3.20421 0
M  V30 2827 C 261.665 0.835723 3.67005 0
M  V30 2828 C 260.812 1.26054 2.46993 0
M  V30 2829 H 263.763 1.10579 1.13833 0
M  V30 2830 H 263.784 0.447557 3.77859 0
M  V30 2831 H 263.296 2.18143 3.20991 0
M  V30 2832 H 261.397 -0.231249 3.71882 0
M  V30 2833 H 261.51 1.45193 4.56569 0
M  V30 2834 H 259.874 0.679111 2.45479 0
M  V30 2835 H 260.657 2.34984 2.50275 0
M  V30 2836 N 263.102 -1.41638 0.69111 0
M  V30 2837 C 264.513 -1.84346 0.295517 0
M  V30 2838 C 264.864 -1.57833 -1.16547 0
M  V30 2839 O 263.989 -1.04648 -1.89414 0
M  V30 2840 C 264.584 -3.34636 0.529575 0
M  V30 2841 C 263.143 -3.7593 0.187944 0
M  V30 2842 C 262.29 -2.65082 0.814052 0
M  V30 2843 H 265.241 -1.31253 0.892092 0
M  V30 2844 H 265.262 -3.79903 -0.213148 0
M  V30 2845 H 264.774 -3.53901 1.59297 0
M  V30 2846 H 262.875 -3.62268 -0.871367 0
M  V30 2847 H 262.988 -4.74808 0.63985 0
M  V30 2848 H 261.352 -2.53528 0.244017 0
M  V30 2849 H 262.135 -2.87167 1.88123 0
M  V30 2850 N 264.58 -0.43555 -1.51462 0
M  V30 2851 C 265.828 0.131254 -2.01673 0
M  V30 2852 C 266.149 1.43368 -1.32177 0
M  V30 2853 O 265.419 1.90524 -0.455769 0
M  V30 2854 H 263.999 0.0514954 -0.745223 0
M  V30 2855 H 266.661 -0.577847 -1.86137 0
M  V30 2856 H 265.757 0.308446 -3.10572 0
M  V30 2857 N 266.058 1.56714 -0.166846 0
M  V30 2858 C 267.288 2.00828 0.48494 0
M  V30 2859 C 267.696 1.04612 1.57648 0
M  V30 2860 O 267.039 0.0383201 1.8366 0
M  V30 2861 C 267.101 3.4137 1.12723 0
M  V30 2862 C 266.765 4.56654 0.177886 0
M  V30 2863 C 267.762 5.16402 -0.60207 0
M  V30 2864 C 265.447 5.02244 0.0750139 0
M  V30 2865 C 267.441 6.20167 -1.47215 0
M  V30 2866 C 265.128 6.05859 -0.798649 0
M  V30 2867 C 266.126 6.64691 -1.57082 0
M  V30 2868 O 265.814 7.66297 -2.42989 0
M  V30 2869 H 265.546 0.663587 0.128953 0
M  V30 2870 H 268.1 2.03692 -0.264365 0
M  V30 2871 H 266.33 3.35406 1.92457 0
M  V30 2872 H 268.019 3.69466 1.68076 0
M  V30 2873 H 268.785 4.82065 -0.53274 0
M  V30 2874 H 264.664 4.56167 0.665812 0
M  V30 2875 H 268.208 6.66016 -2.07531 0
M  V30 2876 H 264.105 6.39621 -0.869199 0
M  V30 2877 H 264.873 7.83601 -2.36455 0
M  V30 2878 N 267.536 -0.106894 1.57237 0
M  V30 2879 C 268.782 -0.81373 1.85759 0
M  V30 2880 C 269.115 -1.78952 0.754315 0
M  V30 2881 O 268.39 -1.93029 -0.23879 0
M  V30 2882 C 268.673 -1.55293 3.24894 0
M  V30 2883 C 268.526 -0.595929 4.45835 0
M  V30 2884 C 269.845 -2.5063 3.61763 0
M  V30 2885 H 266.964 -0.294369 0.67566 0
M  V30 2886 H 269.606 -0.0776472 1.89841 0
M  V30 2887 H 267.756 -2.1804 3.21544 0
M  V30 2888 H 269.428 0.0236262 4.61294 0
M  V30 2889 H 267.671 0.0916191 4.33703 0
M  V30 2890 H 268.342 -1.15004 5.39887 0
M  V30 2891 H 270.818 -1.97982 3.65981 0
M  V30 2892 H 269.694 -2.99376 4.60071 0
M  V30 2893 H 269.955 -3.3385 2.89821 0
M  V30 2894 N 269.014 -1.53014 -0.377408 0
M  V30 2895 C 270.425 -1.60438 -0.954798 0
M  V30 2896 C 270.776 -0.464418 -1.90624 0
M  V30 2897 O 269.901 0.41087 -2.12464 0
M  V30 2898 C 270.496 -2.90797 -1.73847 0
M  V30 2899 C 269.055 -3.00595 -2.26538 0
M  V30 2900 C 268.202 -2.55645 -1.07429 0
M  V30 2901 H 271.153 -1.57926 -0.156575 0
M  V30 2902 H 271.174 -2.77935 -2.5987 0
M  V30 2903 H 270.686 -3.73746 -1.04574 0
M  V30 2904 H 268.787 -2.22208 -2.99089 0
M  V30 2905 H 268.9 -4.05456 -2.5523 0
M  V30 2906 H 267.264 -2.10239 -1.43777 0
M  V30 2907 H 268.047 -3.41 -0.396728 0
M  V30 2908 N 270.492 0.636531 -1.44174 0
M  V30 2909 C 271.402 1.77754 -1.53103 0
M  V30 2910 C 272.418 1.68928 -0.417034 0
M  V30 2911 O 273.594 1.89801 -0.6736 0
M  V30 2912 C 270.659 3.14115 -1.46741 0
M  V30 2913 C 269.72 3.34612 -2.68948 0
M  V30 2914 C 268.953 4.64467 -2.6288 0
M  V30 2915 O 269.176 5.44919 -1.68581 0
M  V30 2916 O 268.11 4.87049 -3.53648 0
M  V30 2917 H 271.936 1.73174 -2.49489 0
M  V30 2918 H 269.521 0.79709 -1.2636 0
M  V30 2919 H 271.403 3.95412 -1.45696 0
M  V30 2920 H 270.078 3.19249 -0.534975 0
M  V30 2921 H 268.985 2.53014 -2.75562 0
M  V30 2922 H 270.318 3.34336 -3.61221 0
M  V30 2923 N 271.97 1.30982 0.876444 0
M  V30 2924 C 273.386 1.09498 1.16113 0
M  V30 2925 C 273.586 -0.13875 2.01022 0
M  V30 2926 O 272.642 -0.829935 2.38471 0
M  V30 2927 C 273.955 2.36308 1.85954 0
M  V30 2928 C 275.503 2.41856 1.98683 0
M  V30 2929 C 275.978 3.6853 2.71937 0
M  V30 2930 N 277.469 3.69387 2.79477 0
M  V30 2931 C 278.204 4.64096 3.36753 0
M  V30 2932 N 277.7 5.69155 3.95012 0
M  V30 2933 N 279.493 4.51626 3.3465 0
M  V30 2934 H 271.644 2.10118 0.310494 0
M  V30 2935 H 273.907 0.926634 0.200131 0
M  V30 2936 H 273.613 3.26388 1.31011 0
M  V30 2937 H 273.487 2.4561 2.86278 0
M  V30 2938 H 275.874 1.52249 2.52793 0
M  V30 2939 H 275.955 2.36523 0.9742 0
M  V30 2940 H 275.599 4.58499 2.18496 0
M  V30 2941 H 275.529 3.71127 3.73593 0
M  V30 2942 H 278.02 2.93438 2.38123 0
M  V30 2943 H 278.333 6.3751 4.36808 0
M  V30 2944 H 276.678 5.72937 3.93406 0
M  V30 2945 H 279.869 3.68728 2.8837 0
M  V30 2946 H 280.042 5.25614 3.7899 0
M  V30 2947 N 273.449 -1.08991 1.13837 0
M  V30 2948 C 274.381 -2.15606 0.777612 0
M  V30 2949 C 275.394 -1.61533 -0.202739 0
M  V30 2950 O 276.583 -1.78491 0.0181055 0
M  V30 2951 C 273.683 -3.3864 0.132623 0
M  V30 2952 C 272.856 -4.22115 1.1462 0
M  V30 2953 C 271.915 -5.23564 0.526074 0
M  V30 2954 O 270.941 -5.56678 1.18735 0
M  V30 2955 N 272.143 -5.76266 -0.699866 0
M  V30 2956 H 274.908 -2.47159 1.69506 0
M  V30 2957 H 272.469 -1.24747 1.03198 0
M  V30 2958 H 274.461 -4.03626 -0.29459 0
M  V30 2959 H 273.031 -3.04938 -0.687849 0
M  V30 2960 H 272.251 -3.53199 1.75055 0
M  V30 2961 H 273.539 -4.74709 1.83109 0
M  V30 2962 H 272.937 -5.51585 -1.25581 0
M  V30 2963 H 271.494 -6.42963 -1.06968 0
M  V30 2964 N 274.927 -0.932562 -1.27047 0
M  V30 2965 C 275.859 -0.392734 -2.2581 0
M  V30 2966 C 276.872 0.479241 -1.55586 0
M  V30 2967 O 278.061 0.291078 -1.76111 0
M  V30 2968 C 275.161 0.455456 -3.35826 0
M  V30 2969 C 274.334 -0.398355 -4.35582 0
M  V30 2970 C 273.393 0.387985 -5.24768 0
M  V30 2971 O 272.419 -0.206003 -5.68827 0
M  V30 2972 N 273.621 1.68664 -5.55457 0
M  V30 2973 H 276.386 -1.24173 -2.72766 0
M  V30 2974 H 273.947 -0.800511 -1.40725 0
M  V30 2975 H 275.939 0.988692 -3.92437 0
M  V30 2976 H 274.509 1.20522 -2.88432 0
M  V30 2977 H 273.729 -1.11286 -3.78165 0
M  V30 2978 H 275.017 -0.981889 -4.99236 0
M  V30 2979 H 274.415 2.19147 -5.21528 0
M  V30 2980 H 272.972 2.1663 -6.14748 0
M  V30 2981 N 276.405 1.4127 -0.698611 0
M  V30 2982 C 277.355 2.27997 -0.0119836 0
M  V30 2983 C 278.339 1.42363 0.749765 0
M  V30 2984 O 279.531 1.65607 0.624758 0
M  V30 2985 C 276.66 3.30702 0.921458 0
M  V30 2986 C 275.746 4.23814 0.155796 0
M  V30 2987 N 276.137 4.98572 -0.852015 0
M  V30 2988 C 274.435 4.44284 0.390836 0
M  V30 2989 C 275.136 5.66744 -1.3106 0
M  V30 2990 N 274.112 5.39867 -0.635944 0
M  V30 2991 H 277.914 2.83232 -0.784649 0
M  V30 2992 H 275.428 1.53518 -0.529711 0
M  V30 2993 H 277.425 3.91661 1.42854 0
M  V30 2994 H 276.085 2.77028 1.69369 0
M  V30 2995 H 277.096 5.03024 -1.23235 0
M  V30 2996 H 273.773 4.01614 1.14071 0
M  V30 2997 H 275.163 6.36672 -2.14707 0
M  V30 2998 N 277.883 0.443576 1.51229 0
M  V30 2999 C 279.132 -0.122332 2.01329 0
M  V30 3000 C 279.445 -1.43237 1.33201 0
M  V30 3001 O 280.651 -2.0816 1.74304 0
M  V30 3002 C 279.107 -0.268551 3.58897 0
M  V30 3003 C 278.715 1.03142 4.35965 0
M  V30 3004 C 280.459 -0.787894 4.17124 0
M  V30 3005 C 278.366 0.850504 5.85252 0
M  V30 3006 H 277.296 -0.0494929 0.752374 0
M  V30 3007 H 279.947 0.574289 1.74282 0
M  V30 3008 H 278.329 -1.02832 3.82415 0
M  V30 3009 H 279.503 1.80001 4.24189 0
M  V30 3010 H 277.818 1.47977 3.89219 0
M  V30 3011 H 280.415 -0.939841 5.26375 0
M  V30 3012 H 280.758 -1.77201 3.76703 0
M  V30 3013 H 281.291 -0.0862669 3.97706 0
M  V30 3014 H 278.03 1.80718 6.30096 0
M  V30 3015 H 277.55 0.121825 5.99676 0
M  V30 3016 H 279.229 0.506163 6.45017 0
M  V30 3017 N 279.361 -1.56624 0.175154 0
M  V30 3018 C 280.324 -2.16934 -0.739738 0
M  V30 3019 C 281.324 -1.11842 -1.15533 0
M  V30 3020 O 282.514 -1.37335 -1.07167 0
M  V30 3021 C 279.646 -2.75531 -2.00738 0
M  V30 3022 H 280.839 -2.99131 -0.214639 0
M  V30 3023 H 278.392 -1.56123 -0.0744197 0
M  V30 3024 H 279.127 -1.97078 -2.57548 0
M  V30 3025 H 278.912 -3.52444 -1.71831 0
M  V30 3026 H 280.402 -3.21904 -2.66021 0
M  V30 3027 N 280.839 0.0985539 -1.57292 0
M  V30 3028 C 282.255 0.45267 -1.53046 0
M  V30 3029 C 282.455 1.80713 -0.891342 0
M  V30 3030 O 281.511 2.4785 -0.482375 0
M  V30 3031 C 282.824 0.418341 -2.97776 0
M  V30 3032 C 284.372 0.500443 -3.08973 0
M  V30 3033 C 284.847 0.496297 -4.55303 0
M  V30 3034 N 286.338 0.557151 -4.59837 0
M  V30 3035 C 287.073 0.575726 -5.70502 0
M  V30 3036 N 286.569 0.550714 -6.90608 0
M  V30 3037 N 288.362 0.620277 -5.58667 0
M  V30 3038 H 280.513 -0.788673 -1.97215 0
M  V30 3039 H 282.776 -0.293188 -0.901524 0
M  V30 3040 H 282.482 -0.509659 -3.47988 0
M  V30 3041 H 282.356 1.2386 -3.56284 0
M  V30 3042 H 284.743 1.41886 -2.58751 0
M  V30 3043 H 284.824 -0.347894 -2.53423 0
M  V30 3044 H 284.468 -0.418162 -5.06176 0
M  V30 3045 H 284.398 1.3618 -5.08687 0
M  V30 3046 H 286.889 0.581816 -3.73394 0
M  V30 3047 H 287.202 0.568075 -7.70709 0
M  V30 3048 H 285.547 0.517816 -6.93068 0
M  V30 3049 H 288.738 0.637322 -4.63741 0
M  V30 3050 H 288.911 0.631283 -6.44918 0
M  V30 3051 N 282.317 1.53212 0.369288 0
M  V30 3052 C 283.249 1.75668 1.47219 0
M  V30 3053 C 284.262 0.637387 1.49804 0
M  V30 3054 O 285.451 0.913561 1.5335 0
M  V30 3055 C 282.551 1.81818 2.85999 0
M  V30 3056 C 281.724 3.11409 3.07153 0
M  V30 3057 C 280.783 3.08849 4.26026 0
M  V30 3058 O 279.809 3.82659 4.2138 0
M  V30 3059 N 281.011 2.29409 5.33246 0
M  V30 3060 H 283.776 2.70832 1.28337 0
M  V30 3061 H 281.337 1.51944 0.55898 0
M  V30 3062 H 283.329 1.77588 3.63655 0
M  V30 3063 H 281.899 0.939544 2.98146 0
M  V30 3064 H 281.119 3.28971 2.1719 0
M  V30 3065 H 282.407 3.97059 3.18154 0
M  V30 3066 H 281.805 1.68946 5.39883 0
M  V30 3067 H 280.362 2.31001 6.09493 0
M  V30 3068 N 283.795 -0.628877 1.44509 0
M  V30 3069 C 285.043 -1.38565 1.4712 0
M  V30 3070 C 285.364 -1.94712 0.105899 0
M  V30 3071 O 284.634 -1.75912 -0.862079 0
M  V30 3072 H 283.214 -0.514333 0.541729 0
M  V30 3073 H 285.876 -0.740018 1.80305 0
M  V30 3074 H 284.972 -2.21583 2.19789 0
M  V30 3075 N 285.273 -1.31445 -0.869486 0
M  V30 3076 C 286.498 -1.24256 -1.66058 0
M  V30 3077 C 286.923 0.188928 -1.87149 0
M  V30 3078 O 286.281 1.13522 -1.4136 0
M  V30 3079 C 286.329 -1.9924 -3.00559 0
M  V30 3080 O 285.433 -1.33007 -3.90362 0
M  V30 3081 H 284.774 -0.428973 -0.506831 0
M  V30 3082 H 287.304 -1.73521 -1.08404 0
M  V30 3083 H 287.314 -2.08854 -3.50491 0
M  V30 3084 H 285.989 -3.03342 -2.84528 0
M  V30 3085 H 284.566 -1.31848 -3.48813 0
M  V30 3086 N 286.751 1.08385 -1.14413 0
M  V30 3087 C 287.981 1.8425 -0.934644 0
M  V30 3088 C 288.389 1.81907 0.520234 0
M  V30 3089 O 287.732 1.22126 1.37226 0
M  V30 3090 C 287.794 3.32853 -1.35828 0
M  V30 3091 C 287.458 3.5893 -2.82875 0
M  V30 3092 C 288.455 3.53756 -3.80989 0
M  V30 3093 C 286.14 3.86934 -3.20293 0
M  V30 3094 C 288.134 3.76216 -5.14529 0
M  V30 3095 C 285.821 4.09047 -4.54008 0
M  V30 3096 C 286.819 4.03682 -5.50936 0
M  V30 3097 O 286.507 4.25214 -6.82238 0
M  V30 3098 H 286.239 0.588502 -0.332628 0
M  V30 3099 H 288.793 1.37792 -1.52324 0
M  V30 3100 H 287.023 3.8007 -0.713019 0
M  V30 3101 H 288.712 3.90154 -1.11957 0
M  V30 3102 H 289.478 3.32135 -3.53428 0
M  V30 3103 H 285.357 3.9023 -2.45442 0
M  V30 3104 H 288.901 3.71943 -5.90173 0
M  V30 3105 H 284.798 4.30151 -4.8129 0
M  V30 3106 H 285.566 4.42619 -6.88499 0
M  V30 3107 N 288.23 0.939286 1.26551 0
M  V30 3108 C 289.458 0.602536 1.97932 0
M  V30 3109 C 289.873 -0.82206 1.69964 0
M  V30 3110 O 289.23 -1.54789 0.966784 0
M  V30 3111 C 289.281 0.832946 3.51773 0
M  V30 3112 O 289.002 2.20151 3.78768 0
M  V30 3113 C 290.503 0.506483 4.40397 0
M  V30 3114 H 287.723 0.227248 0.631347 0
M  V30 3115 H 290.267 1.25948 1.61113 0
M  V30 3116 H 288.422 0.222644 3.8676 0
M  V30 3117 H 288.836 2.26013 4.73306 0
M  V30 3118 H 290.31 0.718333 5.47306 0
M  V30 3119 H 290.787 -0.558451 4.35635 0
M  V30 3120 H 291.393 1.09543 4.10951 0
M  V30 3121 N 289.708 -1.40897 0.706093 0
M  V30 3122 C 290.933 -2.05895 0.249435 0
M  V30 3123 C 291.358 -1.52823 -1.09666 0
M  V30 3124 O 290.716 -0.659589 -1.68876 0
M  V30 3125 C 290.764 -3.59872 0.22904 0
M  V30 3126 O 289.868 -4.04708 -0.792784 0
M  V30 3127 H 289.209 -0.653206 0.119241 0
M  V30 3128 H 291.739 -1.80471 0.96391 0
M  V30 3129 H 291.749 -4.07951 0.0634791 0
M  V30 3130 H 290.424 -3.97866 1.21141 0
M  V30 3131 H 289.001 -3.68111 -0.59572 0
M  V30 3132 N 291.186 -0.45159 -1.50991 0
M  V30 3133 C 292.435 0.111653 -2.01391 0
M  V30 3134 C 292.748 1.42529 -1.33959 0
M  V30 3135 O 293.954 2.07232 -1.75405 0
M  V30 3136 C 292.41 0.249514 -3.59034 0
M  V30 3137 C 292.018 -1.05453 -4.35412 0
M  V30 3138 C 293.762 0.765762 -4.17536 0
M  V30 3139 C 291.669 -0.881529 -5.84793 0
M  V30 3140 H 290.599 0.0455022 -0.752626 0
M  V30 3141 H 293.25 -0.583524 -1.73975 0
M  V30 3142 H 291.632 1.00803 -3.82955 0
M  V30 3143 H 292.806 -1.82248 -4.23229 0
M  V30 3144 H 291.121 -1.50039 -3.88429 0
M  V30 3145 H 293.718 0.911913 -5.26866 0
M  V30 3146 H 294.061 1.75201 -3.77638 0
M  V30 3147 H 294.594 0.0651744 -3.97747 0
M  V30 3148 H 291.333 -1.84057 -6.29129 0
M  V30 3149 H 290.853 -0.153625 -5.99603 0
M  V30 3150 H 292.532 -0.540363 -6.4474 0
M  V30 3151 N 292.664 1.56529 -0.183458 0
M  V30 3152 C 293.612 2.19873 0.758845 0
M  V30 3153 C 294.606 1.16638 1.22849 0
M  V30 3154 O 295.812 1.3481 1.19274 0
M  V30 3155 H 292.187 0.7045 0.263029 0
M  V30 3156 H 294.158 2.97724 0.200755 0
M  V30 3157 C 292.907 2.86314 1.9728 0
M  V30 3158 H 292.23 3.65487 1.62047 0
M  V30 3159 H 293.67 3.3409 2.61075 0
M  V30 3160 C 292.129 1.86729 2.80418 0
M  V30 3161 O 292.659 1.36031 3.77966 0
M  V30 3162 N 290.865 1.55216 2.45675 0
M  V30 3163 H 290.412 1.96636 1.66409 0
M  V30 3164 H 290.37 0.888388 3.01588 0
M  V30 3165 N 294.142 -0.090211 1.57342 0
M  V30 3166 C 295.367 -0.810082 1.90925 0
M  V30 3167 C 295.792 -1.71248 0.778187 0
M  V30 3168 O 295.15 -1.79278 -0.269991 0
M  V30 3169 C 295.198 -1.59529 3.23393 0
M  V30 3170 O 294.302 -2.70461 3.11327 0
M  V30 3171 H 293.643 -0.222231 0.625707 0
M  V30 3172 H 296.173 -0.0639716 2.045 0
M  V30 3173 H 296.183 -1.97847 3.5682 0
M  V30 3174 H 294.858 -0.933055 4.05299 0
M  V30 3175 H 293.435 -2.35135 2.89423 0
M  V30 3176 N 295.62 -1.53406 -0.361157 0
M  V30 3177 C 296.53 -1.83122 -1.4664 0
M  V30 3178 C 297.546 -0.719943 -1.58407 0
M  V30 3179 O 298.722 -1.01046 -1.74218 0
M  V30 3180 C 295.787 -2.01891 -2.81853 0
M  V30 3181 C 294.848 -3.25784 -2.79577 0
M  V30 3182 C 294.081 -3.43648 -4.0834 0
M  V30 3183 O 294.304 -2.65714 -5.0473 0
M  V30 3184 O 293.238 -4.37018 -4.13883 0
M  V30 3185 H 297.064 -2.7703 -1.24451 0
M  V30 3186 H 294.649 -1.38841 -0.551678 0
M  V30 3187 H 296.531 -2.15782 -3.61962 0
M  V30 3188 H 295.206 -1.11173 -3.0401 0
M  V30 3189 H 294.113 -3.17312 -1.98151 0
M  V30 3190 H 295.446 -4.16439 -2.62373 0
M  V30 3191 N 297.098 0.621204 -1.44841 0
M  V30 3192 C 298.346 1.37783 -1.47852 0
M  V30 3193 C 298.667 1.94653 -0.116224 0
M  V30 3194 O 297.937 1.76367 0.852737 0
M  V30 3195 H 296.517 0.511453 -0.544449 0
M  V30 3196 H 299.179 0.730446 -1.80694 0
M  V30 3197 H 298.275 2.20414 -2.20961 0
M  V30 3198 N 298.576 1.31904 0.862503 0
M  V30 3199 C 299.486 1.22161 2.00285 0
M  V30 3200 C 300.502 0.136785 1.73462 0
M  V30 3201 O 301.678 0.355994 1.98229 0
M  V30 3202 C 298.743 0.937093 3.33796 0
M  V30 3203 C 297.804 2.10957 3.73893 0
M  V30 3204 C 297.037 1.83853 5.01033 0
M  V30 3205 O 297.26 0.777274 5.65079 0
M  V30 3206 O 296.194 2.69741 5.38074 0
M  V30 3207 H 300.02 2.18008 2.11439 0
M  V30 3208 H 297.605 1.11716 0.991957 0
M  V30 3209 H 299.487 0.794583 4.13841 0
M  V30 3210 H 298.162 0.00871894 3.23699 0
M  V30 3211 H 297.069 2.30752 2.94456 0
M  V30 3212 H 298.402 3.02046 3.88625 0
M  V30 3213 N 300.054 -1.07777 1.14986 0
M  V30 3214 C 301.301 -1.8029 0.922056 0
M  V30 3215 C 301.629 -1.86531 -0.55105 0
M  V30 3216 O 300.884 -1.34189 -1.42449 0
M  V30 3217 C 301.183 -3.25495 1.47608 0
M  V30 3218 C 300.849 -3.39361 2.96893 0
M  V30 3219 C 299.511 -3.42852 3.37647 0
M  V30 3220 C 301.863 -3.42512 3.92854 0
M  V30 3221 C 299.191 -3.47094 4.73015 0
M  V30 3222 C 301.543 -3.4829 5.28088 0
M  V30 3223 C 300.207 -3.50058 5.68345 0
M  V30 3224 H 299.477 -0.659727 0.337404 0
M  V30 3225 H 302.124 -1.26854 1.43459 0
M  V30 3226 H 300.429 -3.81683 0.88463 0
M  V30 3227 H 302.126 -3.80168 1.27568 0
M  V30 3228 H 298.716 -3.37339 2.64387 0
M  V30 3229 H 302.9 -3.3904 3.62444 0
M  V30 3230 H 298.156 -3.46758 5.03556 0
M  V30 3231 H 302.33 -3.49675 6.02246 0
M  V30 3232 H 299.957 -3.53097 6.73221 0
M  V30 3233 N 301.532 -0.945985 -1.26051 0
M  V30 3234 C 302.781 -0.591836 -1.92822 0
M  V30 3235 C 303.094 0.873956 -1.7499 0
M  V30 3236 O 304.3 1.33769 -2.36259 0
M  V30 3237 C 302.756 -1.00776 -3.45503 0
M  V30 3238 C 302.364 -2.4955 -3.7206 0
M  V30 3239 C 304.108 -0.725735 -4.1825 0
M  V30 3240 C 302.015 -2.84988 -5.18205 0
M  V30 3241 H 300.945 -0.217635 -0.721908 0
M  V30 3242 H 303.596 -1.14927 -1.43052 0
M  V30 3243 H 301.978 -0.378812 -3.94184 0
M  V30 3244 H 303.152 -3.1739 -3.34066 0
M  V30 3245 H 301.467 -2.75133 -3.12555 0
M  V30 3246 H 304.064 -0.966771 -5.25887 0
M  V30 3247 H 304.407 0.337639 -4.14929 0
M  V30 3248 H 304.94 -1.31463 -3.7545 0
M  V30 3249 H 301.679 -3.90307 -5.26631 0
M  V30 3250 H 301.199 -2.21813 -5.57278 0
M  V30 3251 H 302.878 -2.73712 -5.86252 0
M  V30 3252 N 303.011 1.40521 -0.713556 0
M  V30 3253 C 304.422 1.83853 -0.324807 0
M  V30 3254 C 304.773 1.59667 1.14021 0
M  V30 3255 O 303.898 1.07649 1.87725 0
M  V30 3256 C 304.493 3.33751 -0.582746 0
M  V30 3257 C 303.052 3.75584 -0.247727 0
M  V30 3258 C 302.199 2.63753 -0.856121 0
M  V30 3259 H 305.15 1.29817 -0.91286 0
M  V30 3260 H 305.171 3.80194 0.152682 0
M  V30 3261 H 304.683 3.51322 -1.64908 0
M  V30 3262 H 302.784 3.63608 0.813624 0
M  V30 3263 H 302.897 4.7373 -0.715307 0
M  V30 3264 H 301.261 2.53108 -0.28432 0
M  V30 3265 H 302.044 2.84137 -1.92668 0
M  V30 3266 N 304.489 0.459591 1.5075 0
M  V30 3267 C 305.399 -0.34613 2.32033 0
M  V30 3268 C 306.415 -1.00686 1.41909 0
M  V30 3269 O 307.591 -0.997361 1.7497 0
M  V30 3270 C 304.656 -1.42029 3.16273 0
M  V30 3271 C 303.717 -0.777362 4.22203 0
M  V30 3272 C 302.95 -1.80034 5.02418 0
M  V30 3273 O 303.173 -3.02544 4.83553 0
M  V30 3274 O 302.107 -1.37853 5.85901 0
M  V30 3275 H 305.933 0.318054 3.0203 0
M  V30 3276 H 303.518 0.221663 1.47746 0
M  V30 3277 H 305.4 -2.04275 3.68578 0
M  V30 3278 H 304.075 -2.06815 2.49016 0
M  V30 3279 H 302.982 -0.116256 3.73919 0
M  V30 3280 H 304.315 -0.172634 4.91897 0
M  V30 3281 N 305.967 -1.56429 0.191757 0
M  V30 3282 C 307.195 -2.01867 -0.453586 0
M  V30 3283 C 307.61 -1.07191 -1.5542 0
M  V30 3284 O 306.967 -0.0762108 -1.82341 0
M  V30 3285 C 307.018 -3.47017 -1.013 0
M  V30 3286 O 306.739 -4.38078 0.0437005 0
M  V30 3287 C 308.24 -4.07956 -1.73456 0
M  V30 3288 H 305.46 -0.661211 -0.114199 0
M  V30 3289 H 308.004 -2.02295 0.299483 0
M  V30 3290 H 306.159 -3.47298 -1.71647 0
M  V30 3291 H 306.573 -5.23178 -0.372212 0
M  V30 3292 H 308.047 -5.1138 -2.07833 0
M  V30 3293 H 308.524 -3.51222 -2.63704 0
M  V30 3294 H 309.13 -4.11437 -1.07702 0
M  V30 3295 N 307.445 0.0818655 -1.57387 0
M  V30 3296 C 308.67 0.799946 -1.91352 0
M  V30 3297 C 309.095 1.70833 -0.787258 0
M  V30 3298 O 308.453 1.79419 0.26048 0
M  V30 3299 C 308.501 1.57812 -3.24234 0
M  V30 3300 O 307.605 2.68806 -3.12757 0
M  V30 3301 H 306.946 0.21891 -0.626877 0
M  V30 3302 H 309.476 0.0531256 -2.04531 0
M  V30 3303 H 309.486 1.95952 -3.57864 0
M  V30 3304 H 308.161 0.911548 -4.05788 0
M  V30 3305 H 306.738 2.33597 -2.90666 0
M  V30 3306 N 308.923 1.53595 0.353017 0
M  V30 3307 C 309.833 1.83897 1.45667 0
M  V30 3308 C 310.849 0.728334 1.58023 0
M  V30 3309 O 312.025 1.01968 1.73679 0
M  V30 3310 C 309.09 2.03383 2.80778 0
M  V30 3311 C 308.151 3.27262 2.77845 0
M  V30 3312 C 307.384 3.45809 4.06512 0
M  V30 3313 O 307.607 2.68387 5.03314 0
M  V30 3314 O 306.541 4.39207 4.11559 0
M  V30 3315 H 310.367 2.77686 1.2298 0
M  V30 3316 H 307.952 1.39132 0.544308 0
M  V30 3317 H 309.834 2.17698 3.60812 0
M  V30 3318 H 308.509 1.12783 3.03417 0
M  V30 3319 H 307.416 3.18359 1.96465 0
M  V30 3320 H 308.749 4.17824 2.60161 0
M  V30 3321 N 310.401 -0.613514 1.45168 0
M  V30 3322 C 311.333 -1.73825 1.4939 0
M  V30 3323 C 312.346 -1.58175 0.385304 0
M  V30 3324 O 313.535 -1.66165 0.652036 0
M  V30 3325 C 310.635 -3.11758 1.32891 0
M  V30 3326 C 309.808 -3.53704 2.57317 0
M  V30 3327 C 308.867 -4.70579 2.35462 0
M  V30 3328 O 307.893 -4.77996 3.09044 0
M  V30 3329 N 309.095 -5.63454 1.39644 0
M  V30 3330 H 311.86 -1.70669 2.46358 0
M  V30 3331 H 309.421 -0.79862 1.40832 0
M  V30 3332 H 311.413 -3.87692 1.1609 0
M  V30 3333 H 309.983 -3.09456 0.442218 0
M  V30 3334 H 309.203 -2.67794 2.89275 0
M  V30 3335 H 310.491 -3.78486 3.40038 0
M  V30 3336 H 309.889 -5.6017 0.789062 0
M  V30 3337 H 308.446 -6.38944 1.28816 0
M  V30 3338 N 311.879 -1.3236 -0.855495 0
M  V30 3339 C 313.119 -1.24187 -1.62348 0
M  V30 3340 C 313.483 0.193597 -1.91021 0
M  V30 3341 O 314.684 0.39904 -2.65822 0
M  V30 3342 C 312.955 -2.07661 -2.90881 0
M  V30 3343 S 314.514 -2.16505 -3.81669 0
M  V30 3344 H 311.332 -0.442076 -0.556857 0
M  V30 3345 H 313.934 -1.67198 -1.01317 0
M  V30 3346 H 312.638 -3.11018 -2.67761 0
M  V30 3347 H 312.169 -1.65425 -3.56929 0
M  V30 3348 H 314.184 -1.31394 -4.78487 0
M  V30 3349 N 313.357 1.07166 -1.15556 0
M  V30 3350 C 314.29 2.13808 -0.797593 0
M  V30 3351 C 315.268 1.6101 0.226812 0
M  V30 3352 O 316.452 1.88161 0.112932 0
M  V30 3353 C 313.579 3.38187 -0.186371 0
M  V30 3354 C 312.625 4.09766 -1.18297 0
M  V30 3355 S 313.458 4.60932 -2.72584 0
M  V30 3356 C 314.614 5.88583 -2.12886 0
M  V30 3357 H 314.847 2.43843 -1.70083 0
M  V30 3358 H 312.38 1.19467 -0.978106 0
M  V30 3359 H 314.338 4.10189 0.159837 0
M  V30 3360 H 312.999 3.06326 0.694489 0
M  V30 3361 H 312.192 4.99065 -0.703562 0
M  V30 3362 H 311.794 3.43736 -1.47381 0
M  V30 3363 H 314.086 6.60866 -1.49208 0
M  V30 3364 H 315.029 6.41241 -3.0036 0
M  V30 3365 H 315.437 5.42194 -1.57116 0
M  V30 3366 N 314.835 0.952656 1.25548 0
M  V30 3367 C 315.765 0.489287 2.28316 0
M  V30 3368 C 316.746 -0.463359 1.63667 0
M  V30 3369 O 317.931 -0.36274 1.90782 0
M  V30 3370 C 315.061 -0.235603 3.465 0
M  V30 3371 C 314.015 0.631593 4.23314 0
M  V30 3372 C 313.341 -0.223923 5.34231 0
M  V30 3373 C 314.641 1.90871 4.86174 0
M  V30 3374 H 316.335 1.34822 2.67326 0
M  V30 3375 H 313.881 0.649728 1.28509 0
M  V30 3376 H 315.834 -0.570882 4.17515 0
M  V30 3377 H 314.558 -1.12877 3.06474 0
M  V30 3378 H 313.217 0.949929 3.54079 0
M  V30 3379 H 312.865 -1.11678 4.90446 0
M  V30 3380 H 312.565 0.35299 5.86539 0
M  V30 3381 H 314.089 -0.554214 6.0808 0
M  V30 3382 H 315.503 1.63997 5.49343 0
M  V30 3383 H 313.9 2.43112 5.4865 0
M  V30 3384 H 314.97 2.61304 4.08471 0
M  V30 3385 N 316.313 -1.40141 0.720998 0
M  V30 3386 C 317.59 -1.94677 0.189757 0
M  V30 3387 C 317.97 -1.65879 -1.30566 0
M  V30 3388 O 317.318 -0.979391 -2.06447 0
M  V30 3389 C 317.528 -3.45279 0.508304 0
M  V30 3390 C 318.876 -4.22209 0.449934 0
M  V30 3391 O 319.9 -3.53413 0.444677 0
M  V30 3392 O 318.759 -5.44788 0.432189 0
M  V30 3393 H 315.853 -0.826459 0.0299026 0
M  V30 3394 H 318.399 -1.49719 0.7989 0
M  V30 3395 H 317.171 -3.59619 1.54239 0
M  V30 3396 H 316.794 -3.97386 -0.130525 0
M  V30 3397 N 317.792 -0.46758 -1.50504 0
M  V30 3398 C 319.203 -0.0116166 -1.86696 0
M  V30 3399 C 319.554 1.39202 -1.38265 0
M  V30 3400 O 318.679 2.0313 -0.746132 0
M  V30 3401 C 319.274 -0.0143044 -3.38797 0
M  V30 3402 C 317.833 0.386175 -3.74414 0
M  V30 3403 C 316.98 -0.401287 -2.74381 0
M  V30 3404 H 319.931 -0.682022 -1.43297 0
M  V30 3405 H 319.952 0.788641 -3.72237 0
M  V30 3406 H 319.464 -1.03602 -3.74016 0
M  V30 3407 H 317.565 1.41237 -3.44794 0
M  V30 3408 H 317.678 0.0899596 -4.79016 0
M  V30 3409 H 316.042 0.144536 -2.5429 0
M  V30 3410 H 316.825 -1.42244 -3.12444 0
M  V30 3411 N 319.27 1.56325 -0.20005 0
M  V30 3412 C 320.2 2.22318 0.713916 0
M  V30 3413 C 321.181 1.18788 1.21752 0
M  V30 3414 O 322.366 1.47309 1.26545 0
M  V30 3415 C 319.496 2.88639 1.93144 0
M  V30 3416 C 318.45 3.98457 1.56255 0
M  V30 3417 C 317.776 4.51967 2.85709 0
M  V30 3418 C 319.076 5.16612 0.768747 0
M  V30 3419 H 320.77 2.98952 0.163755 0
M  V30 3420 H 318.316 1.43792 0.0773219 0
M  V30 3421 H 320.269 3.33491 2.57608 0
M  V30 3422 H 318.993 2.09419 2.50621 0
M  V30 3423 H 317.652 3.54305 0.941471 0
M  V30 3424 H 317.3 3.69503 3.41287 0
M  V30 3425 H 317 5.26071 2.6177 0
M  V30 3426 H 318.524 4.99523 3.51154 0
M  V30 3427 H 319.938 5.57977 1.3166 0
M  V30 3428 H 318.335 5.96812 0.627286 0
M  V30 3429 H 319.405 4.84358 -0.229168 0
M  V30 3430 N 320.748 -0.0735177 1.57428 0
M  V30 3431 C 321.973 -0.789787 1.91774 0
M  V30 3432 C 322.398 -1.70413 0.796306 0
M  V30 3433 O 321.756 -1.79555 -0.250961 0
M  V30 3434 C 321.804 -1.5609 3.25067 0
M  V30 3435 O 320.908 -2.67144 3.14178 0
M  V30 3436 H 320.249 -0.215582 0.628029 0
M  V30 3437 H 322.779 -0.0422781 2.04556 0
M  V30 3438 H 322.789 -1.94052 3.58898 0
M  V30 3439 H 321.464 -0.890015 4.06265 0
M  V30 3440 H 320.041 -2.32052 2.91901 0
M  V30 3441 N 322.226 -1.5378 -0.344866 0
M  V30 3442 C 323.451 -1.75211 -1.10977 0
M  V30 3443 C 323.876 -0.48936 -1.81623 0
M  V30 3444 O 323.234 0.557925 -1.72502 0
M  V30 3445 C 323.282 -2.93147 -2.09993 0
M  V30 3446 O 322.386 -2.63203 -3.17487 0
M  V30 3447 H 321.727 -0.581241 -0.321021 0
M  V30 3448 H 324.257 -2.00738 -0.395661 0
M  V30 3449 H 324.267 -3.19898 -2.53237 0
M  V30 3450 H 322.942 -3.84731 -1.5797 0
M  V30 3451 H 321.519 -2.47336 -2.79069 0
M  V30 3452 N 323.704 0.605807 -1.45491 0
M  V30 3453 C 324.667 1.69836 -1.5391 0
M  V30 3454 C 325.667 1.55261 -0.418424 0
M  V30 3455 O 326.857 1.60296 -0.681965 0
M  V30 3456 C 323.989 3.09117 -1.43734 0
M  V30 3457 H 325.182 1.63738 -2.51257 0
M  V30 3458 H 322.735 0.821689 -1.32959 0
M  V30 3459 H 323.47 3.20791 -0.475788 0
M  V30 3460 H 323.255 3.21104 -2.25021 0
M  V30 3461 H 324.745 3.88696 -1.52661 0
M  V30 3462 N 325.182 1.32811 0.848464 0
M  V30 3463 C 326.092 1.24278 1.98978 0
M  V30 3464 C 327.108 0.155176 1.73307 0
M  V30 3465 O 328.284 0.376999 1.9784 0
M  V30 3466 C 325.349 0.972444 3.32783 0
M  V30 3467 C 324.41 2.14911 3.71634 0
M  V30 3468 C 323.643 1.89157 4.99054 0
M  V30 3469 O 323.866 0.837165 5.64223 0
M  V30 3470 O 322.8 2.75433 5.35183 0
M  V30 3471 H 326.626 2.20238 2.09115 0
M  V30 3472 H 324.211 1.12762 0.980052 0
M  V30 3473 H 326.093 0.838432 4.12975 0
M  V30 3474 H 324.768 0.043051 3.23671 0
M  V30 3475 H 323.675 2.33862 2.91992 0
M  V30 3476 H 325.008 3.06151 3.85399 0
M  V30 3477 N 326.66 -1.06551 1.16123 0
M  V30 3478 C 327.608 -2.16063 0.861371 0
M  V30 3479 C 328.602 -1.6856 -0.168517 0
M  V30 3480 O 329.808 -1.79986 -0.0227579 0
M  V30 3481 H 326.183 -0.705278 0.260934 0
M  V30 3482 H 328.154 -2.38567 1.79244 0
M  V30 3483 C 326.903 -3.45661 0.376018 0
M  V30 3484 H 326.226 -3.82604 1.15992 0
M  V30 3485 H 327.666 -4.23504 0.204951 0
M  V30 3486 C 326.125 -3.24546 -0.903954 0
M  V30 3487 O 326.655 -3.49865 -1.97377 0
M  V30 3488 N 324.861 -2.77992 -0.846679 0
M  V30 3489 H 324.408 -2.57589 0.0241017 0
M  V30 3490 H 324.366 -2.64244 -1.70359 0
M  V30 3491 N 328.138 -0.959301 -1.25041 0
M  V30 3492 C 329.363 -0.633507 -1.97488 0
M  V30 3493 C 329.788 0.788555 -1.70773 0
M  V30 3494 O 329.146 1.53394 -0.966431 0
M  V30 3495 C 329.194 -0.904057 -3.49083 0
M  V30 3496 O 328.298 0.0147939 -4.12397 0
M  V30 3497 H 327.639 -0.240368 -0.618966 0
M  V30 3498 H 330.169 -1.28717 -1.59038 0
M  V30 3499 H 330.179 -0.832203 -3.99423 0
M  V30 3500 H 328.854 -1.94048 -3.67856 0
M  V30 3501 H 327.431 -0.109664 -3.72739 0
M  V30 3502 N 329.616 1.39756 -0.72842 0
M  V30 3503 C 330.546 2.33289 -0.0991354 0
M  V30 3504 C 331.527 1.53568 0.731489 0
M  V30 3505 O 332.712 1.81987 0.677807 0
M  V30 3506 C 329.842 3.3763 0.813834 0
M  V30 3507 C 328.796 4.2791 0.0878663 0
M  V30 3508 C 328.122 5.22894 1.11741 0
M  V30 3509 C 329.422 5.11314 -1.06563 0
M  V30 3510 H 331.116 2.86163 -0.880408 0
M  V30 3511 H 328.662 1.37591 -0.424819 0
M  V30 3512 H 330.615 4.0201 1.26355 0
M  V30 3513 H 329.339 2.83181 1.62715 0
M  V30 3514 H 327.998 3.65 -0.342159 0
M  V30 3515 H 327.646 4.64744 1.92412 0
M  V30 3516 H 327.346 5.84143 0.636477 0
M  V30 3517 H 328.87 5.90151 1.56697 0
M  V30 3518 H 330.284 5.69076 -0.694671 0
M  V30 3519 H 328.681 5.81671 -1.47577 0
M  V30 3520 H 329.751 4.46534 -1.89038 0
M  V30 3521 N 331.094 0.475555 1.50254 0
M  V30 3522 C 332.319 -0.0777042 2.07254 0
M  V30 3523 C 332.744 -1.3235 1.3366 0
M  V30 3524 O 332.102 -1.77152 0.385597 0
M  V30 3525 C 332.15 -0.340169 3.58992 0
M  V30 3526 O 331.254 -1.41982 3.87188 0
M  V30 3527 H 330.595 0.0149556 0.663832 0
M  V30 3528 H 333.125 0.667878 1.93392 0
M  V30 3529 H 333.135 -0.579332 4.03866 0
M  V30 3530 H 331.81 0.570167 4.11973 0
M  V30 3531 H 330.387 -1.16762 3.54148 0
M  V30 3532 N 332.573 -1.56217 0.208337 0
M  V30 3533 C 333.821 -1.97558 -0.426076 0
M  V30 3534 C 334.142 -1.09683 -1.61229 0
M  V30 3535 O 333.412 -0.170956 -1.95153 0
M  V30 3536 H 331.992 -0.729575 -0.160405 0
M  V30 3537 H 334.654 -1.92606 0.298155 0
M  V30 3538 H 333.75 -3.02672 -0.761312 0
M  V30 3539 N 334.051 0.0651679 -1.57465 0
M  V30 3540 C 335.276 0.779605 -1.9219 0
M  V30 3541 C 335.701 1.69988 -0.805333 0
M  V30 3542 O 335.059 1.79685 0.241435 0
M  V30 3543 C 335.107 1.54364 -3.2589 0
M  V30 3544 O 334.211 2.65474 -3.1559 0
M  V30 3545 H 333.552 0.212249 -0.629163 0
M  V30 3546 H 336.082 0.0314294 -2.04576 0
M  V30 3547 H 336.092 1.92146 -3.59922 0
M  V30 3548 H 334.767 0.868457 -4.06732 0
M  V30 3549 H 333.344 2.30501 -2.93128 0
M  V30 3550 N 335.529 1.53961 0.336706 0
M  V30 3551 C 336.769 1.73254 1.08454 0
M  V30 3552 C 337.133 0.488937 1.8567 0
M  V30 3553 O 338.334 0.559001 2.62923 0
M  V30 3554 C 336.605 2.96519 1.99528 0
M  V30 3555 S 338.164 3.36655 2.81441 0
M  V30 3556 H 334.982 0.609353 0.366347 0
M  V30 3557 H 337.584 1.92117 0.362124 0
M  V30 3558 H 336.288 3.85193 1.41614 0
M  V30 3559 H 335.819 2.80142 2.76196 0
M  V30 3560 H 337.834 2.90925 4.01967 0
M  V30 3561 N 337.007 -0.598083 1.45811 0
M  V30 3562 C 337.939 -1.72231 1.51225 0
M  V30 3563 C 338.952 -1.57757 0.402059 0
M  V30 3564 O 340.141 -1.65464 0.669624 0
M  V30 3565 C 337.241 -3.10331 1.3619 0
M  V30 3566 C 336.414 -3.50955 2.61054 0
M  V30 3567 C 335.473 -4.68055 2.40439 0
M  V30 3568 O 334.499 -4.74691 3.14097 0
M  V30 3569 N 335.701 -5.61941 1.45612 0
M  V30 3570 H 338.466 -1.68046 2.48154 0
M  V30 3571 H 336.027 -0.783637 1.41671 0
M  V30 3572 H 338.019 -3.86439 1.20195 0
M  V30 3573 H 336.589 -3.0897 0.475015 0
M  V30 3574 H 335.809 -2.64711 2.92099 0
M  V30 3575 H 337.097 -3.74858 3.44034 0
M  V30 3576 H 336.495 -5.59301 0.848431 0
M  V30 3577 H 335.052 -6.37542 1.35585 0
M  V30 3578 N 338.485 -1.33259 -0.841409 0
M  V30 3579 C 339.71 -1.2775 -1.63385 0
M  V30 3580 C 340.135 0.149188 -1.87507 0
M  V30 3581 O 339.493 1.10498 -1.43736 0
M  V30 3582 C 339.541 -2.05571 -2.96265 0
M  V30 3583 O 338.645 -1.41257 -3.87453 0
M  V30 3584 H 337.986 -0.439627 -0.497618 0
M  V30 3585 H 340.516 -1.75782 -1.04699 0
M  V30 3586 H 340.526 -2.16241 -3.45982 0
M  V30 3587 H 339.201 -3.09309 -2.7803 0
M  V30 3588 H 337.778 -1.39217 -3.45938 0
M  V30 3589 N 339.963 1.05934 -1.16686 0
M  V30 3590 C 340.893 2.1546 -0.899949 0
M  V30 3591 C 341.874 1.69391 0.155154 0
M  V30 3592 O 343.059 1.94199 0.00648693 0
M  V30 3593 C 340.189 3.44939 -0.404241 0
M  V30 3594 C 339.143 4.04536 -1.39767 0
M  V30 3595 C 338.469 5.29268 -0.760216 0
M  V30 3596 C 339.769 4.42893 -2.76845 0
M  V30 3597 H 341.463 2.38046 -1.81588 0
M  V30 3598 H 339.009 1.14404 -0.874514 0
M  V30 3599 H 340.962 4.20901 -0.204971 0
M  V30 3600 H 339.686 3.21983 0.547206 0
M  V30 3601 H 338.345 3.30635 -1.58355 0
M  V30 3602 H 337.993 5.02611 0.197831 0
M  V30 3603 H 337.693 5.70101 -1.42332 0
M  V30 3604 H 339.217 6.07924 -0.57105 0
M  V30 3605 H 340.631 5.09921 -2.62019 0
M  V30 3606 H 339.028 4.94721 -3.39663 0
M  V30 3607 H 340.098 3.53584 -3.31823 0
M  V30 3608 N 341.441 0.965919 1.2453 0
M  V30 3609 C 342.718 0.543777 1.87889 0
M  V30 3610 C 343.098 -0.97909 1.87021 0
M  V30 3611 O 342.446 -1.84969 1.3416 0
M  V30 3612 C 342.656 1.13327 3.30088 0
M  V30 3613 C 344.004 1.21707 4.06783 0
M  V30 3614 O 345.028 1.08566 3.39252 0
M  V30 3615 O 343.887 1.42456 5.27606 0
M  V30 3616 H 340.981 0.181054 0.806938 0
M  V30 3617 H 343.527 1.06007 1.32516 0
M  V30 3618 H 342.299 2.17612 3.25209 0
M  V30 3619 H 341.922 0.600911 3.93033 0
M  V30 3620 N 342.919 -1.39368 0.735821 0
M  V30 3621 C 344.335 -1.54204 0.411492 0
M  V30 3622 C 344.535 -1.70268 -1.07755 0
M  V30 3623 O 343.591 -1.70364 -1.86366 0
M  V30 3624 C 344.904 -2.75925 1.19523 0
M  V30 3625 C 346.452 -2.89761 1.18354 0
M  V30 3626 C 346.927 -4.14421 1.94986 0
M  V30 3627 N 348.418 -4.21462 1.92156 0
M  V30 3628 C 349.153 -5.16871 2.48258 0
M  V30 3629 N 348.649 -6.18063 3.13001 0
M  V30 3630 N 350.442 -5.09093 2.38287 0
M  V30 3631 H 342.593 -1.27189 1.70108 0
M  V30 3632 H 344.856 -0.616517 0.720147 0
M  V30 3633 H 344.562 -2.70401 2.24892 0
M  V30 3634 H 344.436 -3.68614 0.800222 0
M  V30 3635 H 346.823 -2.94777 0.137975 0
M  V30 3636 H 346.904 -1.98133 1.61793 0
M  V30 3637 H 346.548 -4.10166 2.99543 0
M  V30 3638 H 346.478 -5.05095 1.48953 0
M  V30 3639 H 348.969 -3.48979 1.44991 0
M  V30 3640 H 349.282 -6.87326 3.53275 0
M  V30 3641 H 347.627 -6.18448 3.17091 0
M  V30 3642 H 350.818 -4.28973 1.8735 0
M  V30 3643 H 350.991 -5.83272 2.82308 0
M  V30 3644 N 344.397 -0.483516 -1.5 0
M  V30 3645 C 345.622 0.0667119 -2.07293 0
M  V30 3646 C 346.047 1.3164 -1.3436 0
M  V30 3647 O 345.405 1.76945 -0.394987 0
M  V30 3648 C 345.453 0.321126 -3.59167 0
M  V30 3649 O 344.557 1.39927 -3.87936 0
M  V30 3650 H 343.898 -0.0184758 -0.663743 0
M  V30 3651 H 346.428 -0.678125 -1.93035 0
M  V30 3652 H 346.438 0.557906 -4.04168 0
M  V30 3653 H 345.113 -0.592007 -4.11665 0
M  V30 3654 H 343.69 1.14882 -3.54763 0
M  V30 3655 N 345.875 1.56104 -0.216619 0
M  V30 3656 C 346.838 2.18819 0.681962 0
M  V30 3657 C 347.838 1.14866 1.12528 0
M  V30 3658 O 349.028 1.40128 1.03488 0
M  V30 3659 C 346.16 2.80756 1.93362 0
M  V30 3660 H 347.353 2.99595 0.135254 0
M  V30 3661 H 344.906 1.56265 0.0330003 0
M  V30 3662 H 345.641 2.03837 2.52232 0
M  V30 3663 H 345.426 3.56876 1.62426 0
M  V30 3664 H 346.916 3.28844 2.57393 0
M  V30 3665 N 347.353 -0.0568162 1.57498 0
M  V30 3666 C 348.63 -0.786954 1.79071 0
M  V30 3667 C 349.01 -1.95028 0.80792 0
M  V30 3668 O 348.358 -2.27968 -0.155858 0
M  V30 3669 C 348.568 -1.24594 3.26002 0
M  V30 3670 C 349.916 -1.67323 3.90241 0
M  V30 3671 O 350.94 -1.34124 3.29984 0
M  V30 3672 O 349.799 -2.28842 4.9628 0
M  V30 3673 H 346.893 -0.378262 0.735423 0
M  V30 3674 H 349.439 -0.035734 1.69662 0
M  V30 3675 H 348.211 -0.41423 3.89101 0
M  V30 3676 H 347.834 -2.05803 3.40192 0
M  V30 3677 N 348.832 -1.54138 -0.328536 0
M  V30 3678 C 350.057 -1.76378 -1.09112 0
M  V30 3679 C 350.482 -0.508596 -1.81094 0
M  V30 3680 O 349.84 0.539598 -1.73084 0
M  V30 3681 C 349.888 -2.95358 -2.06872 0
M  V30 3682 O 348.992 -2.66556 -3.14677 0
M  V30 3683 H 348.333 -0.584614 -0.314838 0
M  V30 3684 H 350.863 -2.01146 -0.374348 0
M  V30 3685 H 350.873 -3.22566 -2.4983 0
M  V30 3686 H 349.548 -3.86385 -1.5388 0
M  V30 3687 H 348.125 -2.50282 -2.7643 0
M  V30 3688 N 350.31 0.590341 -1.46126 0
M  V30 3689 C 351.721 1.17243 -1.45296 0
M  V30 3690 C 352.072 1.95281 -0.189723 0
M  V30 3691 O 351.197 2.04502 0.707674 0
M  V30 3692 C 351.792 2.13284 -2.6324 0
M  V30 3693 C 350.351 2.66832 -2.65476 0
M  V30 3694 C 349.498 1.42557 -2.3785 0
M  V30 3695 H 352.449 0.378692 -1.54116 0
M  V30 3696 H 352.47 2.96619 -2.38323 0
M  V30 3697 H 351.982 1.56459 -3.55165 0
M  V30 3698 H 350.083 3.27548 -1.77603 0
M  V30 3699 H 350.196 3.10088 -3.65215 0
M  V30 3700 H 348.56 1.72107 -1.87753 0
M  V30 3701 H 349.343 0.875741 -3.31942 0
M  V30 3702 N 351.788 1.33704 0.83433 0
M  V30 3703 C 353.013 1.28615 1.62705 0
M  V30 3704 C 353.438 -0.139242 1.87584 0
M  V30 3705 O 352.796 -1.09734 1.4432 0
M  V30 3706 C 352.844 2.07139 2.95171 0
M  V30 3707 O 351.948 1.4331 3.86699 0
M  V30 3708 H 351.289 0.44226 0.49528 0
M  V30 3709 H 353.819 1.76335 1.03766 0
M  V30 3710 H 353.829 2.18073 3.44831 0
M  V30 3711 H 352.504 3.10779 2.76386 0
M  V30 3712 H 351.081 1.4105 3.45195 0
M  V30 3713 N 353.266 -1.05314 1.17247 0
M  V30 3714 C 354.513 -1.78293 0.960091 0
M  V30 3715 C 354.841 -1.87658 -0.51136 0
M  V30 3716 O 354.096 -1.3718 -1.39571 0
M  V30 3717 C 354.395 -3.2229 1.54479 0
M  V30 3718 C 354.061 -3.32987 3.04024 0
M  V30 3719 C 352.723 -3.35613 3.44844 0
M  V30 3720 C 355.075 -3.34102 4.00031 0
M  V30 3721 C 352.403 -3.36982 4.8027 0
M  V30 3722 C 354.755 -3.3701 5.35357 0
M  V30 3723 C 353.419 -3.37923 5.75642 0
M  V30 3724 H 352.689 -0.652422 0.351322 0
M  V30 3725 H 355.336 -1.23782 1.46117 0
M  V30 3726 H 353.641 -3.7972 0.965391 0
M  V30 3727 H 355.338 -3.77376 1.35603 0
M  V30 3728 H 351.928 -3.31655 2.71483 0
M  V30 3729 H 356.112 -3.31276 3.69554 0
M  V30 3730 H 351.368 -3.35999 5.10798 0
M  V30 3731 H 355.542 -3.36822 6.09528 0
M  V30 3732 H 353.169 -3.38738 6.80559 0
M  V30 3733 N 354.744 -0.972509 -1.24016 0
M  V30 3734 C 356.16 -0.679827 -1.44397 0
M  V30 3735 C 356.36 0.756716 -1.86751 0
M  V30 3736 O 355.416 1.53007 -2.00861 0
M  V30 3737 C 356.729 -1.66803 -2.50195 0
M  V30 3738 C 358.277 -1.68119 -2.64017 0
M  V30 3739 C 358.752 -2.65748 -3.73017 0
M  V30 3740 N 360.243 -2.64219 -3.8045 0
M  V30 3741 C 360.978 -3.36433 -4.64328 0
M  V30 3742 N 360.474 -4.1818 -5.52356 0
M  V30 3743 N 362.267 -3.25235 -4.58453 0
M  V30 3744 H 354.418 -1.90059 -0.948228 0
M  V30 3745 H 356.681 -0.818527 -0.478245 0
M  V30 3746 H 356.387 -2.69498 -2.25973 0
M  V30 3747 H 356.261 -1.4446 -3.48441 0
M  V30 3748 H 358.648 -0.661319 -2.87594 0
M  V30 3749 H 358.729 -1.94525 -1.66113 0
M  V30 3750 H 358.373 -3.67872 -3.50189 0
M  V30 3751 H 358.303 -2.36619 -4.70446 0
M  V30 3752 H 360.794 -2.04887 -3.17537 0
M  V30 3753 H 361.107 -4.70157 -6.13329 0
M  V30 3754 H 359.452 -4.22273 -5.52006 0
M  V30 3755 H 362.643 -2.60829 -3.88698 0
M  V30 3756 H 362.816 -3.81776 -5.23594 0
M  V30 3757 N 356.222 1.38976 -0.743202 0
M  V30 3758 C 357.169 2.30544 -0.10861 0
M  V30 3759 C 358.139 1.49642 0.720869 0
M  V30 3760 O 359.324 1.78304 0.679142 0
M  V30 3761 C 356.464 3.36018 0.786496 0
M  V30 3762 C 355.577 4.31963 -0.0564849 0
M  V30 3763 C 354.712 5.24506 0.840657 0
M  V30 3764 C 353.751 6.121 -0.00658363 0
M  V30 3765 N 352.888 6.96973 0.846943 0
M  V30 3766 H 357.728 2.8424 -0.895088 0
M  V30 3767 H 355.265 1.3995 -0.453048 0
M  V30 3768 H 357.223 3.95768 1.31999 0
M  V30 3769 H 355.853 2.83758 1.53887 0
M  V30 3770 H 354.905 3.73763 -0.707492 0
M  V30 3771 H 356.217 4.93703 -0.711229 0
M  V30 3772 H 355.371 5.89322 1.4417 0
M  V30 3773 H 354.11 4.63107 1.52916 0
M  V30 3774 H 353.115 5.46289 -0.620366 0
M  V30 3775 H 354.34 6.75565 -0.691992 0
M  V30 3776 H 352.286 6.38133 1.52059 0
M  V30 3777 H 352.203 7.5559 0.248864 0
M  V30 3778 H 353.471 7.6621 1.43328 0
M  V30 3779 N 357.7 0.491464 1.49741 0
M  V30 3780 C 358.925 -0.0557177 2.07325 0
M  V30 3781 C 359.35 -1.30925 1.35056 0
M  V30 3782 O 358.708 -1.76733 0.404365 0
M  V30 3783 C 358.756 -0.302074 3.59333 0
M  V30 3784 O 357.86 -1.37868 3.88672 0
M  V30 3785 H 357.201 0.0219956 0.663636 0
M  V30 3786 H 359.731 0.688352 1.92673 0
M  V30 3787 H 359.741 -0.536464 4.04458 0
M  V30 3788 H 358.416 0.61383 4.11345 0
M  V30 3789 H 356.993 -1.12999 3.55367 0
M  V30 3790 N 359.178 -1.55987 0.224894 0
M  V30 3791 C 360.594 -1.59066 -0.130426 0
M  V30 3792 C 360.794 -1.24176 -1.5869 0
M  V30 3793 O 359.85 -0.978592 -2.32766 0
M  V30 3794 C 361.163 -3.00042 0.198883 0
M  V30 3795 C 362.711 -3.1268 0.141391 0
M  V30 3796 C 363.186 -4.55839 0.444422 0
M  V30 3797 N 364.677 -4.6152 0.394115 0
M  V30 3798 C 365.412 -5.70231 0.602038 0
M  V30 3799 N 364.908 -6.87291 0.871914 0
M  V30 3800 N 366.701 -5.59555 0.534245 0
M  V30 3801 H 358.852 -1.76941 1.17497 0
M  V30 3802 H 361.115 -0.822604 0.471197 0
M  V30 3803 H 360.821 -3.30234 1.2099 0
M  V30 3804 H 360.695 -3.74075 -0.484535 0
M  V30 3805 H 363.082 -2.82283 -0.860265 0
M  V30 3806 H 363.163 -2.40969 0.858335 0
M  V30 3807 H 362.807 -4.86954 1.44353 0
M  V30 3808 H 362.737 -5.2578 -0.293752 0
M  V30 3809 H 365.228 -3.77405 0.193356 0
M  V30 3810 H 365.541 -7.66058 1.01858 0
M  V30 3811 H 363.886 -6.89028 0.909145 0
M  V30 3812 H 367.077 -4.6698 0.323612 0
M  V30 3813 H 367.25 -6.44211 0.699693 0
M  V30 3814 N 360.656 0.0484629 -1.57525 0
M  V30 3815 C 361.589 1.08755 -2.00618 0
M  V30 3816 C 362.567 1.36272 -0.887058 0
M  V30 3817 O 363.751 1.49255 -1.15131 0
M  V30 3818 C 360.878 2.42675 -2.36277 0
M  V30 3819 C 359.924 2.31142 -3.58435 0
M  V30 3820 S 360.757 1.68326 -5.08357 0
M  V30 3821 C 361.913 3.03776 -5.47239 0
M  V30 3822 H 362.146 0.720415 -2.88439 0
M  V30 3823 H 359.679 0.257801 -1.52233 0
M  V30 3824 H 361.637 3.19699 -2.57494 0
M  V30 3825 H 360.298 2.76541 -1.48942 0
M  V30 3826 H 359.491 3.29957 -3.80978 0
M  V30 3827 H 359.093 1.62258 -3.36969 0
M  V30 3828 H 361.385 4.00106 -5.46737 0
M  V30 3829 H 362.328 2.85988 -6.47778 0
M  V30 3830 H 362.736 3.05456 -4.74718 0
M  V30 3831 N 362.134 1.5431 0.320358 0
M  V30 3832 C 363.359 1.76954 1.08175 0
M  V30 3833 C 363.784 0.518193 1.80821 0
M  V30 3834 O 363.142 -0.530411 1.73368 0
M  V30 3835 C 363.19 2.96451 2.05303 0
M  V30 3836 O 362.294 2.68221 3.13259 0
M  V30 3837 H 361.635 0.586275 0.311733 0
M  V30 3838 H 364.165 2.01342 0.363676 0
M  V30 3839 H 364.175 3.23887 2.48116 0
M  V30 3840 H 362.85 3.87196 1.51829 0
M  V30 3841 H 361.427 2.51744 2.75099 0
M  V30 3842 N 363.613 -0.582584 1.46437 0
M  V30 3843 C 365.029 -0.905962 1.31394 0
M  V30 3844 C 365.229 -1.99468 0.285476 0
M  V30 3845 O 364.285 -2.50566 -0.311914 0
M  V30 3846 C 365.598 -1.3232 2.70022 0
M  V30 3847 C 367.146 -1.43604 2.78113 0
M  V30 3848 C 367.621 -1.88694 4.17323 0
M  V30 3849 N 369.112 -1.95887 4.19741 0
M  V30 3850 C 369.847 -2.32051 5.24347 0
M  V30 3851 N 369.343 -2.67006 6.39281 0
M  V30 3852 N 371.136 -2.32606 5.11713 0
M  V30 3853 H 363.287 0.1366 2.1196 0
M  V30 3854 H 365.55 -0.00155736 0.947999 0
M  V30 3855 H 365.256 -0.597242 3.46592 0
M  V30 3856 H 365.13 -2.28469 3.00136 0
M  V30 3857 H 367.517 -2.15286 2.01832 0
M  V30 3858 H 367.598 -0.457059 2.51684 0
M  V30 3859 H 367.242 -1.1759 4.941 0
M  V30 3860 H 367.172 -2.8755 4.4116 0
M  V30 3861 H 369.663 -1.71362 3.36814 0
M  V30 3862 H 369.976 -2.93554 7.14875 0
M  V30 3863 H 368.321 -2.64644 6.42642 0
M  V30 3864 H 371.512 -2.04721 4.2096 0
M  V30 3865 H 371.685 -2.60462 5.93349 0
M  V30 3866 N 365.091 -1.34144 -0.827227 0
M  V30 3867 C 366.054 -1.25264 -1.91942 0
M  V30 3868 C 367.054 -0.168866 -1.59911 0
M  V30 3869 O 368.244 -0.421198 -1.69031 0
M  V30 3870 C 365.376 -0.932952 -3.27885 0
M  V30 3871 H 366.569 -2.22357 -2.0124 0
M  V30 3872 H 364.122 -1.1837 -1.0207 0
M  V30 3873 H 364.857 0.0349917 -3.24281 0
M  V30 3874 H 364.642 -1.71682 -3.52516 0
M  V30 3875 H 366.132 -0.895874 -4.07877 0
M  V30 3876 N 366.569 1.04691 -1.17803 0
M  V30 3877 C 367.501 2.12571 -0.857097 0
M  V30 3878 C 368.514 1.62174 0.142647 0
M  V30 3879 O 369.703 1.78301 -0.0843387 0
M  V30 3880 C 366.803 3.37915 -0.258216 0
M  V30 3881 C 365.976 4.1757 -1.30207 0
M  V30 3882 C 365.035 5.2125 -0.720029 0
M  V30 3883 O 364.061 5.51888 -1.39314 0
M  V30 3884 N 365.263 5.78466 0.485507 0
M  V30 3885 H 368.028 2.40698 -1.78562 0
M  V30 3886 H 365.589 1.20831 -1.07757 0
M  V30 3887 H 367.581 4.04442 0.144584 0
M  V30 3888 H 366.151 3.07281 0.574199 0
M  V30 3889 H 365.371 3.46458 -1.88043 0
M  V30 3890 H 366.659 4.67586 -2.00601 0
M  V30 3891 H 366.057 5.55866 1.05022 0
M  V30 3892 H 364.614 6.4649 0.830307 0
M  V30 3893 N 368.047 0.979072 1.23499 0
M  V30 3894 C 369.272 0.664845 1.96455 0
M  V30 3895 C 369.697 -0.761287 1.72006 0
M  V30 3896 O 369.055 -1.51837 0.990713 0
M  V30 3897 C 369.103 0.959479 3.47601 0
M  V30 3898 O 368.207 0.0508168 4.12369 0
M  V30 3899 H 367.548 0.250185 0.615064 0
M  V30 3900 H 370.078 1.31231 1.5697 0
M  V30 3901 H 370.088 0.895642 3.98048 0
M  V30 3902 H 368.763 1.99876 3.64723 0
M  V30 3903 H 367.34 0.16895 3.72517 0
M  V30 3904 N 369.525 -1.3858 0.750561 0
M  V30 3905 C 370.772 -2.00184 0.305373 0
M  V30 3906 C 371.1 -1.59575 -1.11203 0
M  V30 3907 O 370.355 -0.823236 -1.77542 0
M  V30 3908 C 370.654 -3.55455 0.372373 0
M  V30 3909 C 370.32 -4.15765 1.745 0
M  V30 3910 C 368.982 -4.31951 2.12065 0
M  V30 3911 C 371.334 -4.49067 2.64553 0
M  V30 3912 C 368.662 -4.78734 3.39162 0
M  V30 3913 C 371.014 -4.97265 3.91038 0
M  V30 3914 C 369.678 -5.11658 4.28676 0
M  V30 3915 H 368.948 -0.732526 0.111744 0
M  V30 3916 H 371.595 -1.65673 0.960451 0
M  V30 3917 H 369.9 -3.90084 -0.366272 0
M  V30 3918 H 371.597 -4.00999 0.00953918 0
M  V30 3919 H 368.187 -4.03579 1.44297 0
M  V30 3920 H 372.371 -4.36166 2.36796 0
M  V30 3921 H 367.627 -4.88062 3.68246 0
M  V30 3922 H 371.801 -5.22003 4.60962 0
M  V30 3923 H 369.428 -5.47668 5.27222 0
M  V30 3924 N 371.003 -0.499398 -1.49478 0
M  V30 3925 C 372.414 -0.051215 -1.8663 0
M  V30 3926 C 372.765 1.36238 -1.41186 0
M  V30 3927 O 371.89 2.01502 -0.789051 0
M  V30 3928 C 372.485 -0.0861651 -3.3869 0
M  V30 3929 C 371.044 0.30667 -3.75149 0
M  V30 3930 C 370.191 -0.459397 -2.73468 0
M  V30 3931 H 373.142 -0.712264 -1.41818 0
M  V30 3932 H 373.163 0.709507 -3.73826 0
M  V30 3933 H 372.675 -1.11512 -3.71735 0
M  V30 3934 H 370.776 1.33892 -3.47712 0
M  V30 3935 H 370.889 -0.0116669 -4.79099 0
M  V30 3936 H 369.253 0.0905645 -2.54539 0
M  V30 3937 H 370.036 -1.4884 -3.09357 0
M  V30 3938 N 372.481 1.55866 -0.233164 0
M  V30 3939 C 373.758 1.90471 0.444988 0
M  V30 3940 C 374.138 1.15209 1.7689 0
M  V30 3941 O 373.486 0.265119 2.26957 0
M  V30 3942 C 373.696 3.4333 0.626559 0
M  V30 3943 C 375.044 4.14319 0.92871 0
M  V30 3944 O 376.068 3.48993 0.712926 0
M  V30 3945 O 374.927 5.29846 1.33887 0
M  V30 3946 H 372.021 0.792347 0.236885 0
M  V30 3947 H 374.567 1.67437 -0.276211 0
M  V30 3948 H 373.339 3.90095 -0.306822 0
M  V30 3949 H 372.962 3.72181 1.39881 0
M  V30 3950 N 373.959 -0.0401083 1.57549 0
M  V30 3951 C 374.907 -1.06264 2.06908 0
M  V30 3952 C 375.901 -1.38132 0.980608 0
M  V30 3953 O 377.107 -1.37167 1.16556 0
M  V30 3954 H 373.482 -0.360166 0.660139 0
M  V30 3955 H 375.453 -0.620445 2.91878 0
M  V30 3956 C 374.202 -2.35846 2.55483 0
M  V30 3957 H 373.525 -2.12183 3.38849 0
M  V30 3958 H 374.965 -3.05765 2.93741 0
M  V30 3959 C 373.424 -3.0404 1.45126 0
M  V30 3960 O 373.954 -3.93424 0.811216 0
M  V30 3961 N 372.16 -2.65184 1.18852 0
M  V30 3962 H 371.707 -1.92584 1.71083 0
M  V30 3963 H 371.665 -3.1113 0.452244 0
M  V30 3964 N 375.437 -1.54477 -0.31217 0
M  V30 3965 C 376.853 -1.45442 -0.657185 0
M  V30 3966 C 377.053 -0.63653 -1.91182 0
M  V30 3967 O 376.109 -0.139815 -2.52113 0
M  V30 3968 C 377.422 -2.89287 -0.82058 0
M  V30 3969 C 378.97 -2.9926 -0.917188 0
M  V30 3970 C 379.445 -4.44279 -1.11267 0
M  V30 3971 N 380.936 -4.4794 -1.17914 0
M  V30 3972 C 381.671 -5.57318 -1.34848 0
M  V30 3973 N 381.167 -6.76642 -1.48752 0
M  V30 3974 N 382.96 -5.44986 -1.37647 0
M  V30 3975 H 375.111 -2.06129 0.512313 0
M  V30 3976 H 377.374 -0.933088 0.167485 0
M  V30 3977 H 377.08 -3.51687 0.0302604 0
M  V30 3978 H 376.954 -3.36061 -1.71298 0
M  V30 3979 H 379.341 -2.36981 -1.75852 0
M  V30 3980 H 379.422 -2.558 -0.00101257 0
M  V30 3981 H 379.066 -5.07149 -0.27614 0
M  V30 3982 H 378.996 -4.85359 -2.04289 0
M  V30 3983 H 381.487 -3.61969 -1.08567 0
M  V30 3984 H 381.8 -7.55758 -1.61397 0
M  V30 3985 H 380.145 -6.79529 -1.45828 0
M  V30 3986 H 383.336 -4.50715 -1.26388 0
M  V30 3987 H 383.509 -6.3028 -1.50501 0
M  V30 3988 N 376.915 0.57481 -1.46744 0
M  V30 3989 C 377.847 1.69804 -1.53946 0
M  V30 3990 C 378.86 1.57098 -0.427106 0
M  V30 3991 O 380.049 1.64378 -0.695863 0
M  V30 3992 C 377.149 3.08125 -1.4111 0
M  V30 3993 C 376.322 3.46757 -2.66605 0
M  V30 3994 C 375.381 4.6417 -2.47855 0
M  V30 3995 O 374.407 4.69634 -3.21609 0
M  V30 3996 N 375.609 5.59553 -1.54534 0
M  V30 3997 H 378.374 1.64077 -2.50796 0
M  V30 3998 H 375.935 0.761 -1.429 0
M  V30 3999 H 377.927 3.84478 -1.26328 0
M  V30 4000 H 376.497 3.08175 -0.524109 0
M  V30 4001 H 375.717 2.6003 -2.96274 0
M  V30 4002 H 377.005 3.69337 -3.49954 0
M  V30 4003 H 376.403 5.57881 -0.937304 0
M  V30 4004 H 374.96 6.35304 -1.45711 0
M  V30 4005 N 378.394 1.34581 0.820102 0
M  V30 4006 C 379.304 1.28471 1.96297 0
M  V30 4007 C 380.32 0.191902 1.72939 0
M  V30 4008 O 381.496 0.418879 1.96996 0
M  V30 4009 C 378.561 1.04281 3.30645 0
M  V30 4010 C 377.622 2.22745 3.66992 0
M  V30 4011 C 376.855 1.997 4.9493 0
M  V30 4012 O 377.078 0.956656 5.6232 0
M  V30 4013 O 376.012 2.86723 5.2922 0
M  V30 4014 H 379.838 2.24624 2.04396 0
M  V30 4015 H 377.423 1.14816 0.955913 0
M  V30 4016 H 379.305 0.925841 4.11104 0
M  V30 4017 H 377.98 0.111697 3.23507 0
M  V30 4018 H 376.887 2.40003 2.86966 0
M  V30 4019 H 378.22 3.14257 3.78819 0
M  V30 4020 N 379.872 -1.04064 1.18357 0
M  V30 4021 C 381.102 -1.80654 1.00238 0
M  V30 4022 C 381.51 -1.83713 -0.452362 0
M  V30 4023 O 380.853 -1.27135 -1.32599 0
M  V30 4024 C 380.915 -3.27582 1.48088 0
M  V30 4025 C 380.579 -3.48184 2.96002 0
M  V30 4026 C 381.576 -3.39372 3.93856 0
M  V30 4027 C 379.261 -3.7478 3.34433 0
M  V30 4028 C 381.255 -3.5686 5.28138 0
M  V30 4029 C 378.942 -3.91915 4.68877 0
M  V30 4030 C 379.94 -3.82956 5.65539 0
M  V30 4031 O 379.628 -3.996 6.97549 0
M  V30 4032 H 379.36 -0.575751 0.354241 0
M  V30 4033 H 381.914 -1.32044 1.57333 0
M  V30 4034 H 380.144 -3.77161 0.853588 0
M  V30 4035 H 381.833 -3.8573 1.2636 0
M  V30 4036 H 382.599 -3.18789 3.65511 0
M  V30 4037 H 378.478 -3.80852 2.59756 0
M  V30 4038 H 382.022 -3.49783 6.03571 0
M  V30 4039 H 377.919 -4.11992 4.96923 0
M  V30 4040 H 378.687 -4.1676 7.04452 0
M  V30 4041 N 381.35 -0.985608 -1.22978 0
M  V30 4042 C 382.575 -0.675254 -1.961 0
M  V30 4043 C 383 0.752154 -1.72407 0
M  V30 4044 O 382.358 1.5131 -0.998751 0
M  V30 4045 C 382.406 -0.977899 -3.47087 0
M  V30 4046 O 381.51 -0.072685 -4.12336 0
M  V30 4047 H 380.851 -0.253443 -0.613728 0
M  V30 4048 H 383.381 -1.32061 -1.56272 0
M  V30 4049 H 383.391 -0.916739 -3.97567 0
M  V30 4050 H 382.066 -2.01807 -3.63657 0
M  V30 4051 H 380.643 -0.188703 -3.72422 0
M  V30 4052 N 382.828 1.3818 -0.7579 0
M  V30 4053 C 384.105 1.94106 -0.241306 0
M  V30 4054 C 384.485 1.69282 1.26122 0
M  V30 4055 O 383.833 1.03378 2.03777 0
M  V30 4056 C 384.043 3.43809 -0.59967 0
M  V30 4057 C 385.391 4.20868 -0.561717 0
M  V30 4058 O 386.415 3.5211 -0.538222 0
M  V30 4059 O 385.274 5.43451 -0.576478 0
M  V30 4060 H 382.368 0.825376 -0.0518042 0
M  V30 4061 H 384.914 1.47548 -0.838315 0
M  V30 4062 H 383.686 3.55403 -1.6372 0
M  V30 4063 H 383.309 3.97592 0.0251197 0
M  V30 4064 N 384.306 0.507319 1.49211 0
M  V30 4065 C 385.722 0.163682 1.58758 0
M  V30 4066 C 385.922 -1.33208 1.51188 0
M  V30 4067 O 384.978 -2.10855 1.38911 0
M  V30 4068 C 386.291 0.746095 2.91297 0
M  V30 4069 C 387.839 0.712773 3.04776 0
M  V30 4070 C 388.314 1.27336 4.39943 0
M  V30 4071 N 389.805 1.23433 4.46451 0
M  V30 4072 C 390.54 1.63821 5.495 0
M  V30 4073 N 390.036 2.11832 6.5962 0
M  V30 4074 N 391.829 1.55198 5.4025 0
M  V30 4075 H 383.98 1.47972 1.52375 0
M  V30 4076 H 386.243 0.614147 0.722168 0
M  V30 4077 H 385.949 1.79534 3.02424 0
M  V30 4078 H 385.823 0.210137 3.76614 0
M  V30 4079 H 388.21 -0.327656 2.93275 0
M  V30 4080 H 388.291 1.28595 2.21127 0
M  V30 4081 H 387.935 2.3126 4.52196 0
M  V30 4082 H 387.865 0.676066 5.22242 0
M  V30 4083 H 390.356 0.882627 3.67448 0
M  V30 4084 H 390.669 2.40703 7.34358 0
M  V30 4085 H 389.014 2.1581 6.60644 0
M  V30 4086 H 392.205 1.17505 4.53112 0
M  V30 4087 H 392.378 1.86997 6.20432 0
M  V30 4088 N 385.784 -1.5574 0.241426 0
M  V30 4089 C 386.694 -2.2479 -0.671305 0
M  V30 4090 C 387.71 -1.26217 -1.19772 0
M  V30 4091 O 388.886 -1.59079 -1.23514 0
M  V30 4092 C 385.951 -2.92966 -1.85396 0
M  V30 4093 C 385.012 -4.06935 -1.36756 0
M  V30 4094 C 384.245 -4.71851 -2.49384 0
M  V30 4095 O 384.468 -4.35823 -3.67987 0
M  V30 4096 O 383.402 -5.60467 -2.19454 0
M  V30 4097 H 387.228 -3.0349 -0.112966 0
M  V30 4098 H 384.813 -1.49397 0.0101513 0
M  V30 4099 H 386.695 -3.35927 -2.54423 0
M  V30 4100 H 385.37 -2.17211 -2.40002 0
M  V30 4101 H 384.277 -3.68503 -0.644726 0
M  V30 4102 H 385.61 -4.84492 -0.867647 0
M  V30 4103 N 387.262 0.0317525 -1.57568 0
M  V30 4104 C 388.49 0.734949 -1.93407 0
M  V30 4105 C 388.905 1.69036 -0.84096 0
M  V30 4106 O 388.262 1.81582 0.182836 0
M  V30 4107 C 388.313 1.49432 -3.29169 0
M  V30 4108 O 388.034 0.577261 -4.3428 0
M  V30 4109 C 389.535 2.29492 -3.79273 0
M  V30 4110 H 386.755 0.206706 -0.638368 0
M  V30 4111 H 389.299 -0.00992046 -2.04498 0
M  V30 4112 H 387.454 2.1911 -3.19483 0
M  V30 4113 H 387.868 1.10952 -5.1263 0
M  V30 4114 H 389.342 2.78172 -4.76785 0
M  V30 4115 H 389.819 3.10794 -3.10328 0
M  V30 4116 H 390.425 1.64894 -3.92033 0
M  V30 4117 N 388.74 1.54641 0.303973 0
M  V30 4118 C 389.672 1.81754 1.39636 0
M  V30 4119 C 390.685 0.70035 1.46966 0
M  V30 4120 O 391.874 0.97778 1.49338 0
M  V30 4121 C 388.974 1.93785 2.7803 0
M  V30 4122 C 388.147 3.24156 2.93669 0
M  V30 4123 C 387.206 3.26641 4.12544 0
M  V30 4124 O 386.232 4.00187 4.04771 0
M  V30 4125 N 387.434 2.5182 5.23036 0
M  V30 4126 H 390.199 2.76031 1.16734 0
M  V30 4127 H 387.76 1.54178 0.494033 0
M  V30 4128 H 389.752 1.92852 3.55795 0
M  V30 4129 H 388.322 1.06515 2.93893 0
M  V30 4130 H 387.542 3.37887 2.03042 0
M  V30 4131 H 388.83 4.10195 3.01027 0
M  V30 4132 H 388.228 1.91692 5.32232 0
M  V30 4133 H 386.785 2.56644 5.99147 0
M  V30 4134 N 390.218 -0.567019 1.47046 0
M  V30 4135 C 391.148 -1.68482 1.61667 0
M  V30 4136 C 392.129 -1.6358 0.466418 0
M  V30 4137 O 393.314 -1.81354 0.694574 0
M  V30 4138 C 390.444 -3.07124 1.62148 0
M  V30 4139 C 389.398 -3.26867 2.76301 0
M  V30 4140 C 388.724 -4.66196 2.61849 0
M  V30 4141 C 390.024 -3.13186 4.17986 0
M  V30 4142 H 391.718 -1.56502 2.5524 0
M  V30 4143 H 389.264 -0.751486 1.22836 0
M  V30 4144 H 391.217 -3.8516 1.70968 0
M  V30 4145 H 389.941 -3.2004 0.651287 0
M  V30 4146 H 388.6 -2.51237 2.66975 0
M  V30 4147 H 388.248 -4.75898 1.62879 0
M  V30 4148 H 387.948 -4.80356 3.38425 0
M  V30 4149 H 389.472 -5.46379 2.72584 0
M  V30 4150 H 390.886 -3.81049 4.2834 0
M  V30 4151 H 389.283 -3.3886 4.95272 0
M  V30 4152 H 390.353 -2.10057 4.3704 0
M  V30 4153 N 391.696 -1.35014 -0.812953 0
M  V30 4154 C 392.926 -1.30841 -1.59888 0
M  V30 4155 C 393.334 0.117576 -1.88834 0
M  V30 4156 O 392.677 1.07807 -1.48739 0
M  V30 4157 C 392.739 -2.0412 -2.95931 0
M  V30 4158 C 392.403 -3.53336 -2.89832 0
M  V30 4159 C 393.4 -4.48052 -2.63714 0
M  V30 4160 C 391.085 -3.95894 -3.0915 0
M  V30 4161 C 393.079 -5.833 -2.56982 0
M  V30 4162 C 390.766 -5.31239 -3.0204 0
M  V30 4163 C 391.764 -6.24754 -2.75991 0
M  V30 4164 O 391.452 -7.57617 -2.68833 0
M  V30 4165 H 391.184 -0.451215 -0.50337 0
M  V30 4166 H 393.738 -1.78354 -1.01877 0
M  V30 4167 H 391.968 -1.51235 -3.559 0
M  V30 4168 H 393.657 -1.93107 -3.57022 0
M  V30 4169 H 394.423 -4.16492 -2.48515 0
M  V30 4170 H 390.302 -3.23495 -3.28438 0
M  V30 4171 H 393.846 -6.56263 -2.36569 0
M  V30 4172 H 389.743 -5.62415 -3.16796 0
M  V30 4173 H 390.511 -7.67469 -2.84487 0
M  V30 4174 N 393.175 1.03435 -1.18907 0
M  V30 4175 C 394.452 1.73778 -0.89781 0
M  V30 4176 C 394.832 2.02458 0.597832 0
M  V30 4177 O 394.18 1.67482 1.55441 0
M  V30 4178 C 394.39 3.01845 -1.75187 0
M  V30 4179 C 395.738 3.7546 -1.9828 0
M  V30 4180 O 396.762 3.11759 -1.72293 0
M  V30 4181 O 395.621 4.89966 -2.42065 0
M  V30 4182 H 392.715 0.75651 -0.334098 0
M  V30 4183 H 395.261 1.09444 -1.29693 0
M  V30 4184 H 394.033 2.76836 -2.76545 0
M  V30 4185 H 393.656 3.73919 -1.35167 0
M  V30 4186 N 394.653 0.992116 1.22453 0
M  V30 4187 C 395.6 0.541731 2.24352 0
M  V30 4188 C 396.57 -0.425519 1.60557 0
M  V30 4189 O 397.755 -0.330453 1.87917 0
M  V30 4190 C 394.895 -0.138248 3.44823 0
M  V30 4191 C 394.008 0.870649 4.23136 0
M  V30 4192 C 393.143 0.164269 5.30946 0
M  V30 4193 C 392.182 1.16159 6.00977 0
M  V30 4194 N 391.319 0.483568 7.00433 0
M  V30 4195 H 396.159 1.41541 2.62241 0
M  V30 4196 H 393.696 0.709013 1.28885 0
M  V30 4197 H 395.654 -0.5494 4.13567 0
M  V30 4198 H 394.284 -0.975721 3.077 0
M  V30 4199 H 393.336 1.40013 3.53696 0
M  V30 4200 H 394.648 1.63014 4.7141 0
M  V30 4201 H 393.802 -0.303653 6.0594 0
M  V30 4202 H 392.541 -0.627733 4.83643 0
M  V30 4203 H 391.546 1.64015 5.24766 0
M  V30 4204 H 392.771 1.95445 6.50368 0
M  V30 4205 H 390.717 -0.289012 6.55363 0
M  V30 4206 H 390.634 1.18152 7.4671 0
M  V30 4207 H 391.902 0.0384219 7.79491 0
M  V30 4208 N 396.131 -1.37776 0.765217 0
M  V30 4209 C 397.379 -1.99454 0.325943 0
M  V30 4210 C 397.7 -1.61049 -1.09947 0
M  V30 4211 O 396.97 -0.872821 -1.75381 0
M  V30 4212 H 395.55 -0.737697 0.117525 0
M  V30 4213 H 398.212 -1.68359 0.981895 0
M  V30 4214 H 397.308 -3.09547 0.398353 0
M  V30 4215 N 397.609 -0.515225 -1.4894 0
M  V30 4216 C 398.855 0.0242508 -2.02785 0
M  V30 4217 C 399.188 1.35323 -1.39289 0
M  V30 4218 O 398.463 1.87041 -0.533469 0
M  V30 4219 C 398.746 0.16184 -3.59736 0
M  V30 4220 C 398.599 -1.19127 -4.33738 0
M  V30 4221 C 399.918 0.895719 -4.30888 0
M  V30 4222 H 397.037 0.00733914 -0.736963 0
M  V30 4223 H 399.679 -0.669395 -1.77818 0
M  V30 4224 H 397.829 0.752624 -3.8114 0
M  V30 4225 H 399.501 -1.82202 -4.23792 0
M  V30 4226 H 397.744 -1.77695 -3.95736 0
M  V30 4227 H 398.415 -1.04815 -5.41957 0
M  V30 4228 H 400.891 0.394528 -4.14225 0
M  V30 4229 H 399.767 0.960859 -5.40425 0
M  V30 4230 H 400.028 1.9427 -3.97129 0
M  V30 4231 N 399.087 1.5561 -0.249682 0
M  V30 4232 C 400.034 2.21496 0.648694 0
M  V30 4233 C 401.004 1.17977 1.16921 0
M  V30 4234 O 402.189 1.46434 1.22318 0
M  V30 4235 C 399.329 2.92039 1.83868 0
M  V30 4236 C 398.442 4.10219 1.35442 0
M  V30 4237 C 397.577 4.6847 2.50419 0
M  V30 4238 C 396.616 5.78893 1.98869 0
M  V30 4239 N 395.753 6.31315 3.07223 0
M  V30 4240 H 400.593 2.97892 0.0801582 0
M  V30 4241 H 398.13 1.47074 0.0278031 0
M  V30 4242 H 400.088 3.31138 2.53778 0
M  V30 4243 H 398.718 2.18111 2.37965 0
M  V30 4244 H 397.77 3.76413 0.54928 0
M  V30 4245 H 399.082 4.89927 0.936649 0
M  V30 4246 H 398.236 5.10158 3.28366 0
M  V30 4247 H 396.975 3.87984 2.95499 0
M  V30 4248 H 395.98 5.3668 1.19393 0
M  V30 4249 H 397.205 6.61232 1.54755 0
M  V30 4250 H 395.151 5.53733 3.51732 0
M  V30 4251 H 395.068 7.06224 2.69784 0
M  V30 4252 H 396.336 6.77662 3.8522 0
M  V30 4253 N 400.565 -0.0233959 1.57583 0
M  V30 4254 C 401.813 -0.711654 1.89156 0
M  V30 4255 C 402.134 -1.75591 0.848096 0
M  V30 4256 O 401.404 -1.95547 -0.117566 0
M  V30 4257 H 399.984 -0.265835 0.698098 0
M  V30 4258 H 402.646 0.0119948 1.94896 0
M  V30 4259 H 401.742 -1.19766 2.88206 0
M  V30 4260 N 402.043 -1.548 -0.295768 0
M  V30 4261 C 403.291 -1.73985 -1.02828 0
M  V30 4262 C 403.612 -0.531406 -1.87619 0
M  V30 4263 O 402.882 0.454221 -1.90561 0
M  V30 4264 H 401.462 -0.641556 -0.382642 0
M  V30 4265 H 404.124 -1.92163 -0.325489 0
M  V30 4266 H 403.22 -2.63129 -1.67838 0
M  V30 4267 N 403.521 0.559213 -1.47345 0
M  V30 4268 C 404.749 1.34194 -1.57479 0
M  V30 4269 C 405.164 1.87463 -0.224261 0
M  V30 4270 O 404.521 1.64888 0.782185 0
M  V30 4271 C 404.572 2.51324 -2.59843 0
M  V30 4272 O 404.293 2.00256 -3.89653 0
M  V30 4273 C 405.794 3.43563 -2.80142 0
M  V30 4274 H 403.014 0.409136 -0.531835 0
M  V30 4275 H 405.558 0.677609 -1.92947 0
M  V30 4276 H 403.713 3.13699 -2.27314 0
M  V30 4277 H 404.127 2.76708 -4.4557 0
M  V30 4278 H 405.601 4.2217 -3.55635 0
M  V30 4279 H 406.078 3.9698 -1.87892 0
M  V30 4280 H 406.684 2.87005 -3.1386 0
M  V30 4281 N 404.999 1.35443 0.805782 0
M  V30 4282 C 406.229 1.31687 1.59192 0
M  V30 4283 C 406.637 -0.10756 1.88894 0
M  V30 4284 O 405.98 -1.07017 1.49309 0
M  V30 4285 C 406.042 2.05686 2.94845 0
M  V30 4286 C 405.706 3.54868 2.87954 0
M  V30 4287 C 406.703 4.49444 2.61335 0
M  V30 4288 C 404.388 3.97528 3.07046 0
M  V30 4289 C 406.382 5.84655 2.53885 0
M  V30 4290 C 404.069 5.32833 2.99219 0
M  V30 4291 C 405.067 6.26209 2.72674 0
M  V30 4292 O 404.755 7.59032 2.64811 0
M  V30 4293 H 404.487 0.453878 0.50097 0
M  V30 4294 H 407.041 1.78892 1.0093 0
M  V30 4295 H 405.271 1.5312 3.55093 0
M  V30 4296 H 406.96 1.94998 3.55993 0
M  V30 4297 H 407.726 4.17804 2.46303 0
M  V30 4298 H 403.605 3.25233 3.26718 0
M  V30 4299 H 407.149 6.57508 2.33086 0
M  V30 4300 H 403.046 5.64087 3.13809 0
M  V30 4301 H 403.814 7.68967 2.80413 0
M  V30 4302 N 406.477 -1.02803 1.19454 0
M  V30 4303 C 407.888 -1.57667 0.999899 0
M  V30 4304 C 408.239 -1.91041 -0.446956 0
M  V30 4305 O 407.364 -1.70978 -1.32648 0
M  V30 4306 C 407.959 -2.86477 1.80877 0
M  V30 4307 C 406.518 -3.37911 1.65811 0
M  V30 4308 C 405.665 -2.11343 1.79526 0
M  V30 4309 H 408.616 -0.853214 1.33813 0
M  V30 4310 H 408.637 -3.57408 1.30536 0
M  V30 4311 H 408.149 -2.62155 2.86175 0
M  V30 4312 H 406.25 -3.67218 0.63102 0
M  V30 4313 H 406.363 -4.10885 2.46395 0
M  V30 4314 H 404.727 -2.23254 1.22596 0
M  V30 4315 H 405.51 -1.89461 2.86285 0
M  V30 4316 N 407.956 -0.998596 -1.21925 0
M  V30 4317 C 409.372 -0.710303 -1.42923 0
M  V30 4318 C 409.572 0.716933 -1.88314 0
M  V30 4319 O 408.628 1.48712 -2.04062 0
M  V30 4320 C 409.941 -1.72072 -2.466 0
M  V30 4321 C 411.489 -1.73681 -2.60392 0
M  V30 4322 C 411.964 -2.73601 -3.67296 0
M  V30 4323 N 413.455 -2.7223 -3.7476 0
M  V30 4324 C 414.19 -3.46206 -4.57087 0
M  V30 4325 N 413.686 -4.29802 -5.43362 0
M  V30 4326 N 415.479 -3.34886 -4.51451 0
M  V30 4327 H 407.63 -1.92028 -0.9077 0
M  V30 4328 H 409.893 -0.828487 -0.460775 0
M  V30 4329 H 409.599 -2.74231 -2.20206 0
M  V30 4330 H 409.473 -1.51818 -3.45299 0
M  V30 4331 H 411.86 -0.722173 -2.86127 0
M  V30 4332 H 411.941 -1.98005 -1.61949 0
M  V30 4333 H 411.585 -3.75217 -3.42307 0
M  V30 4334 H 411.515 -2.46545 -4.65321 0
M  V30 4335 H 414.006 -2.11576 -3.1312 0
M  V30 4336 H 414.319 -4.83061 -6.03218 0
M  V30 4337 H 412.664 -4.33887 -5.42925 0
M  V30 4338 H 415.855 -2.69015 -3.83078 0
M  V30 4339 H 416.028 -3.92796 -5.15379 0
M  V30 4340 N 409.434 1.37368 -0.772513 0
M  V30 4341 C 410.85 1.53059 -0.452231 0
M  V30 4342 C 411.05 1.73065 1.03203 0
M  V30 4343 O 410.106 1.75245 1.81784 0
M  V30 4344 C 411.419 2.72659 -1.26797 0
M  V30 4345 C 412.967 2.86521 -1.25995 0
M  V30 4346 C 413.442 4.09105 -2.05905 0
M  V30 4347 N 414.933 4.16219 -2.03263 0
M  V30 4348 C 415.668 5.10107 -2.61875 0
M  V30 4349 N 415.164 6.09547 -3.29278 0
M  V30 4350 N 416.957 5.02596 -2.51701 0
M  V30 4351 H 409.108 1.22634 -1.7342 0
M  V30 4352 H 411.371 0.597206 -0.736239 0
M  V30 4353 H 411.077 2.64343 -2.31982 0
M  V30 4354 H 410.951 3.66363 -0.897672 0
M  V30 4355 H 413.338 2.94308 -0.216081 0
M  V30 4356 H 413.419 1.93774 -1.66989 0
M  V30 4357 H 413.063 4.0208 -3.10313 0
M  V30 4358 H 412.993 5.00968 -1.62292 0
M  V30 4359 H 415.484 3.45012 -1.54192 0
M  V30 4360 H 415.797 6.77718 -3.71374 0
M  V30 4361 H 414.142 6.09824 -3.33377 0
M  V30 4362 H 417.333 4.23855 -1.98657 0
M  V30 4363 H 417.506 5.75582 -2.97673 0
M  V30 4364 N 410.912 0.523116 1.48665 0
M  V30 4365 C 412.142 -0.00961724 2.06598 0
M  V30 4366 C 412.55 -1.29333 1.38093 0
M  V30 4367 O 411.893 -1.77846 0.46007 0
M  V30 4368 C 411.955 -0.311135 3.58151 0
M  V30 4369 C 411.619 0.878092 4.48485 0
M  V30 4370 C 412.616 1.77464 4.88674 0
M  V30 4371 C 410.301 1.08315 4.90483 0
M  V30 4372 C 412.295 2.86021 5.69623 0
M  V30 4373 C 409.982 2.17187 5.71203 0
M  V30 4374 C 410.98 3.05873 6.10681 0
M  V30 4375 O 410.668 4.12862 6.89783 0
M  V30 4376 H 410.4 0.0272658 0.67545 0
M  V30 4377 H 412.954 0.726156 1.92136 0
M  V30 4378 H 411.184 -1.10079 3.70701 0
M  V30 4379 H 412.873 -0.785125 3.98234 0
M  V30 4380 H 413.639 1.62813 4.56855 0
M  V30 4381 H 409.518 0.402149 4.59243 0
M  V30 4382 H 413.062 3.55272 6.00356 0
M  V30 4383 H 408.959 2.31824 6.02435 0
M  V30 4384 H 409.727 4.10487 7.08126 0
M  V30 4385 N 412.39 -1.55475 0.257931 0
M  V30 4386 C 413.34 -2.18506 -0.651094 0
M  V30 4387 C 414.324 -1.14431 -1.13112 0
M  V30 4388 O 415.516 -1.40305 -1.07905 0
M  V30 4389 C 412.645 -2.89653 -1.84272 0
M  V30 4390 C 411.731 -4.00996 -1.38068 0
M  V30 4391 N 412.122 -5.01816 -0.633609 0
M  V30 4392 C 410.42 -4.13753 -1.66506 0
M  V30 4393 C 411.121 -5.80371 -0.392922 0
M  V30 4394 N 410.097 -5.3505 -0.960359 0
M  V30 4395 H 413.899 -2.93811 -0.0722883 0
M  V30 4396 H 411.413 -1.62286 0.0607256 0
M  V30 4397 H 413.41 -3.33245 -2.50506 0
M  V30 4398 H 412.07 -2.15854 -2.42564 0
M  V30 4399 H 413.081 -5.17128 -0.282626 0
M  V30 4400 H 409.758 -3.51133 -2.25858 0
M  V30 4401 H 411.148 -6.7159 0.204235 0
M  V30 4402 N 413.868 0.0150385 -1.57593 0
M  V30 4403 C 415.114 0.704043 -1.90187 0
M  V30 4404 C 415.447 1.74249 -0.857366 0
M  V30 4405 O 414.722 1.94092 0.125843 0
M  V30 4406 C 415.005 1.36087 -3.33395 0
M  V30 4407 C 414.858 0.334981 -4.48551 0
M  V30 4408 C 416.177 2.29112 -3.7576 0
M  V30 4409 H 413.296 0.254475 -0.691673 0
M  V30 4410 H 415.938 -0.0331678 -1.89971 0
M  V30 4411 H 414.088 1.98922 -3.3371 0
M  V30 4412 H 415.76 -0.292534 -4.60372 0
M  V30 4413 H 414.003 -0.344325 -4.32431 0
M  V30 4414 H 414.674 0.833316 -5.45674 0
M  V30 4415 H 417.15 1.76308 -3.76902 0
M  V30 4416 H 416.026 2.72043 -4.76743 0
M  V30 4417 H 416.287 3.16385 -3.08793 0
M  V30 4418 N 415.346 1.54954 0.287554 0
M  V30 4419 C 416.571 1.79209 1.04397 0
M  V30 4420 C 416.996 0.556431 1.79682 0
M  V30 4421 O 416.354 -0.493518 1.74454 0
M  V30 4422 C 416.402 3.00739 1.98969 0
M  V30 4423 O 415.506 2.74805 3.075 0
M  V30 4424 H 414.847 0.592755 0.299227 0
M  V30 4425 H 417.377 2.02068 0.320886 0
M  V30 4426 H 417.387 3.29077 2.4119 0
M  V30 4427 H 416.062 3.90329 1.43582 0
M  V30 4428 H 414.639 2.57523 2.69697 0
M  V30 4429 N 416.824 -0.551391 1.4764 0
M  V30 4430 C 418.07 -1.31024 1.54792 0
M  V30 4431 C 418.403 -1.9304 0.211967 0
M  V30 4432 O 417.678 -1.78175 -0.77999 0
M  V30 4433 C 417.961 -2.41593 2.67029 0
M  V30 4434 C 417.814 -1.84408 4.10261 0
M  V30 4435 C 419.133 -3.43488 2.75143 0
M  V30 4436 H 416.252 -0.475031 0.563485 0
M  V30 4437 H 418.894 -0.616454 1.79722 0
M  V30 4438 H 417.044 -3.00772 2.45904 0
M  V30 4439 H 418.716 -1.29445 4.42766 0
M  V30 4440 H 416.959 -1.15051 4.18265 0
M  V30 4441 H 417.63 -2.64367 4.84576 0
M  V30 4442 H 420.106 -2.94236 2.94218 0
M  V30 4443 H 418.982 -4.18274 3.55441 0
M  V30 4444 H 419.243 -4.02703 1.82435 0
M  V30 4445 N 418.302 -1.35869 -0.798587 0
M  V30 4446 C 419.252 -1.25982 -1.90033 0
M  V30 4447 C 420.236 -0.153303 -1.60168 0
M  V30 4448 O 421.428 -0.38527 -1.72756 0
M  V30 4449 C 418.557 -1.04211 -3.27101 0
M  V30 4450 C 417.643 -2.19289 -3.63006 0
M  V30 4451 N 418.034 -3.44559 -3.70287 0
M  V30 4452 C 416.332 -2.10852 -3.93011 0
M  V30 4453 C 417.033 -4.20283 -4.02166 0
M  V30 4454 N 416.009 -3.49124 -4.16669 0
M  V30 4455 H 419.811 -2.20883 -1.93876 0
M  V30 4456 H 417.325 -1.28457 -0.993614 0
M  V30 4457 H 419.322 -0.952155 -4.05881 0
M  V30 4458 H 417.982 -0.102013 -3.2454 0
M  V30 4459 H 418.993 -3.7881 -3.53162 0
M  V30 4460 H 415.67 -1.24744 -3.98428 0
M  V30 4461 H 417.06 -5.28575 -4.14799 0
M  V30 4462 N 419.78 1.02168 -1.19998 0
M  V30 4463 C 420.73 2.08969 -0.911921 0
M  V30 4464 C 421.714 1.60404 0.12621 0
M  V30 4465 O 422.906 1.76817 -0.0804706 0
M  V30 4466 C 420.035 3.402 -0.460277 0
M  V30 4467 C 419.121 3.9548 -1.53155 0
M  V30 4468 N 419.512 4.24332 -2.75275 0
M  V30 4469 C 417.81 4.23572 -1.39653 0
M  V30 4470 C 418.511 4.68834 -3.44339 0
M  V30 4471 N 417.487 4.70804 -2.71744 0
M  V30 4472 H 421.289 2.29178 -1.83997 0
M  V30 4473 H 418.803 1.20094 -1.09322 0
M  V30 4474 H 420.8 4.16235 -0.235337 0
M  V30 4475 H 419.46 3.21408 0.4612 0
M  V30 4476 H 420.471 4.13393 -3.11973 0
M  V30 4477 H 417.148 4.14005 -0.539067 0
M  V30 4478 H 418.538 5.00019 -4.4881 0
M  V30 4479 N 421.258 1.00505 1.21394 0
M  V30 4480 C 422.205 0.565496 2.23765 0
M  V30 4481 C 423.175 -0.408466 1.60999 0
M  V30 4482 O 424.36 -0.310503 1.88257 0
M  V30 4483 C 421.5 -0.101667 3.4495 0
M  V30 4484 C 420.613 0.915479 4.22188 0
M  V30 4485 C 419.748 0.220574 5.30742 0
M  V30 4486 C 418.787 1.22527 5.99711 0
M  V30 4487 N 417.924 0.557831 6.9988 0
M  V30 4488 H 422.764 1.44314 2.60725 0
M  V30 4489 H 420.301 0.722643 1.28126 0
M  V30 4490 H 422.259 -0.505504 4.14126 0
M  V30 4491 H 420.889 -0.94303 3.08718 0
M  V30 4492 H 419.941 1.43756 3.52191 0
M  V30 4493 H 421.253 1.68005 4.69655 0
M  V30 4494 H 420.407 -0.239368 6.06228 0
M  V30 4495 H 419.146 -0.576401 4.84282 0
M  V30 4496 H 418.151 1.69571 5.22997 0
M  V30 4497 H 419.376 2.02332 6.48258 0
M  V30 4498 H 417.322 -0.219486 6.55633 0
M  V30 4499 H 417.239 1.26065 7.45415 0
M  V30 4500 H 418.507 0.121095 7.79406 0
M  V30 4501 N 422.737 -1.36956 0.779787 0
M  V30 4502 C 424.014 -1.93697 0.272156 0
M  V30 4503 C 424.394 -1.71267 -1.23413 0
M  V30 4504 O 423.742 -1.06607 -2.02107 0
M  V30 4505 C 423.952 -3.42812 0.654291 0
M  V30 4506 C 425.3 -4.19921 0.628602 0
M  V30 4507 O 426.324 -3.51209 0.594172 0
M  V30 4508 O 425.183 -5.42465 0.662864 0
M  V30 4509 H 422.277 -0.824447 0.0649286 0
M  V30 4510 H 424.823 -1.46196 0.861682 0
M  V30 4511 H 423.595 -3.52754 1.69353 0
M  V30 4512 H 423.218 -3.97582 0.0381369 0
M  V30 4513 N 424.215 -0.530993 -1.48385 0
M  V30 4514 C 425.445 -0.00133928 -2.066 0
M  V30 4515 C 425.853 1.28599 -1.38777 0
M  V30 4516 O 425.196 1.77599 -0.469495 0
M  V30 4517 C 425.258 0.292137 -3.58311 0
M  V30 4518 C 424.922 -0.901864 -4.48013 0
M  V30 4519 C 425.919 -1.80053 -4.87726 0
M  V30 4520 C 423.604 -1.10915 -4.89901 0
M  V30 4521 C 425.598 -2.89038 -5.68098 0
M  V30 4522 C 423.285 -2.20213 -5.70043 0
M  V30 4523 C 424.283 -3.09107 -6.0905 0
M  V30 4524 O 423.971 -4.16514 -6.87583 0
M  V30 4525 H 423.703 -0.0308475 -0.675296 0
M  V30 4526 H 426.257 -0.736335 -1.91748 0
M  V30 4527 H 424.487 1.08112 -3.7128 0
M  V30 4528 H 426.176 0.763994 -3.98645 0
M  V30 4529 H 426.942 -1.65234 -4.55986 0
M  V30 4530 H 422.821 -0.426498 -4.59023 0
M  V30 4531 H 426.365 -3.58451 -5.98464 0
M  V30 4532 H 422.262 -2.35016 -6.01197 0
M  V30 4533 H 423.03 -4.14237 -7.05939 0
M  V30 4534 N 425.693 1.55336 -0.266172 0
M  V30 4535 C 426.918 2.04258 0.359661 0
M  V30 4536 C 427.343 1.14359 1.49344 0
M  V30 4537 O 426.701 0.140369 1.80756 0
M  V30 4538 C 426.749 3.50997 0.826635 0
M  V30 4539 O 425.853 3.64204 1.93466 0
M  V30 4540 H 425.194 0.659668 0.075727 0
M  V30 4541 H 427.724 2.00694 -0.39786 0
M  V30 4542 H 427.734 3.9219 1.12477 0
M  V30 4543 H 426.409 4.159 -0.00293032 0
M  V30 4544 H 424.986 3.34913 1.63974 0
M  V30 4545 N 427.171 -0.0066808 1.57599 0
M  V30 4546 C 428.448 -0.729586 1.81484 0
M  V30 4547 C 428.828 -1.92359 0.869558 0
M  V30 4548 O 428.176 -2.28348 -0.0832533 0
M  V30 4549 C 428.386 -1.1416 3.29801 0
M  V30 4550 C 429.734 -1.54823 3.95367 0
M  V30 4551 O 430.758 -1.23558 3.34084 0
M  V30 4552 O 429.617 -2.12937 5.03309 0
M  V30 4553 H 426.711 -0.354674 0.747085 0
M  V30 4554 H 429.257 0.0182609 1.6969 0
M  V30 4555 H 428.029 -0.290231 3.90222 0
M  V30 4556 H 427.652 -1.94876 3.46568 0
M  V30 4557 N 428.649 -1.55105 -0.279332 0
M  V30 4558 C 429.897 -1.75066 -1.00977 0
M  V30 4559 C 430.218 -0.551276 -1.87045 0
M  V30 4560 O 429.488 0.433984 -1.91032 0
M  V30 4561 H 428.068 -0.645578 -0.375816 0
M  V30 4562 H 430.73 -1.92497 -0.305089 0
M  V30 4563 H 429.826 -2.64894 -1.65038 0
M  V30 4564 N 430.127 0.543554 -1.4793 0
M  V30 4565 C 431.543 0.870806 -1.3375 0
M  V30 4566 C 431.743 1.9864 -0.338261 0
M  V30 4567 O 430.799 2.51305 0.245371 0
M  V30 4568 C 432.112 1.25114 -2.73435 0
M  V30 4569 C 433.66 1.3618 -2.81823 0
M  V30 4570 C 434.135 1.77563 -4.22179 0
M  V30 4571 N 435.626 1.8469 -4.24787 0
M  V30 4572 C 436.361 2.18067 -5.30315 0
M  V30 4573 N 435.857 2.49963 -6.46135 0
M  V30 4574 N 437.65 2.18958 -5.17701 0
M  V30 4575 H 429.801 -0.19275 -2.11524 0
M  V30 4576 H 432.064 -0.0235777 -0.947707 0
M  V30 4577 H 431.77 0.50514 -3.48053 0
M  V30 4578 H 431.644 2.20431 -3.06088 0
M  V30 4579 H 434.031 2.09859 -2.07468 0
M  V30 4580 H 434.112 0.390169 -2.52807 0
M  V30 4581 H 433.756 1.04449 -4.97044 0
M  V30 4582 H 433.686 2.75753 -4.48629 0
M  V30 4583 H 436.177 1.62372 -3.41239 0
M  V30 4584 H 436.49 2.74497 -7.22406 0
M  V30 4585 H 434.835 2.47513 -6.49432 0
M  V30 4586 H 438.026 1.93488 -4.2624 0
M  V30 4587 H 438.199 2.44639 -6.00047 0
M  V30 4588 N 431.605 1.3629 0.791371 0
M  V30 4589 C 433.021 1.16661 1.08914 0
M  V30 4590 C 433.221 -0.0106266 2.01497 0
M  V30 4591 O 432.277 -0.676596 2.43266 0
M  V30 4592 C 433.59 2.47656 1.70549 0
M  V30 4593 C 435.138 2.54002 1.82899 0
M  V30 4594 C 435.613 3.85078 2.47949 0
M  V30 4595 N 437.104 3.86413 2.5542 0
M  V30 4596 C 437.839 4.84572 3.06557 0
M  V30 4597 N 437.335 5.93124 3.58016 0
M  V30 4598 N 439.128 4.71994 3.05251 0
M  V30 4599 H 431.279 2.11668 0.176238 0
M  V30 4600 H 433.542 0.937486 0.140796 0
M  V30 4601 H 433.248 3.34059 1.09989 0
M  V30 4602 H 433.122 2.63319 2.70079 0
M  V30 4603 H 435.509 1.68018 2.42598 0
M  V30 4604 H 435.59 2.42239 0.821808 0
M  V30 4605 H 435.234 4.71467 1.88895 0
M  V30 4606 H 435.164 3.94135 3.49235 0
M  V30 4607 H 437.655 3.07988 2.18979 0
M  V30 4608 H 437.968 6.63999 3.95381 0
M  V30 4609 H 436.313 5.96796 3.56173 0
M  V30 4610 H 439.504 3.86321 2.64336 0
M  V30 4611 H 439.677 5.48653 3.44796 0
M  V30 4612 N 433.083 -1.0153 1.20538 0
M  V30 4613 C 434.311 -1.78746 1.04199 0
M  V30 4614 C 434.726 -1.84323 -0.408733 0
M  V30 4615 O 434.083 -1.29714 -1.28377 0
M  V30 4616 C 434.134 -3.23152 1.62035 0
M  V30 4617 O 433.855 -3.17918 3.0143 0
M  V30 4618 C 435.356 -4.16911 1.50666 0
M  V30 4619 H 432.576 -0.56208 0.366479 0
M  V30 4620 H 435.12 -1.27794 1.59653 0
M  V30 4621 H 433.275 -3.71248 1.10697 0
M  V30 4622 H 433.689 -4.08567 3.28897 0
M  V30 4623 H 435.163 -5.16072 1.95892 0
M  V30 4624 H 435.64 -4.36791 0.459363 0
M  V30 4625 H 436.246 -3.74698 2.01201 0
M  V30 4626 N 434.561 -1.01147 -1.20859 0
M  V30 4627 C 435.808 -0.697865 -1.90095 0
M  V30 4628 C 436.136 0.772014 -1.78522 0
M  V30 4629 O 435.391 1.57595 -1.16027 0
M  V30 4630 C 435.69 -1.0727 -3.40922 0
M  V30 4631 C 435.356 -2.53792 -3.72693 0
M  V30 4632 C 434.018 -2.93829 -3.81075 0
M  V30 4633 C 436.37 -3.48674 -3.87397 0
M  V30 4634 C 433.698 -4.27696 -4.01613 0
M  V30 4635 C 436.05 -4.82223 -4.09444 0
M  V30 4636 C 434.714 -5.21973 -4.16054 0
M  V30 4637 H 433.984 -0.255367 -0.695607 0
M  V30 4638 H 436.631 -1.27111 -1.43231 0
M  V30 4639 H 434.936 -0.417799 -3.89566 0
M  V30 4640 H 436.633 -0.807818 -3.92779 0
M  V30 4641 H 433.223 -2.21768 -3.66765 0
M  V30 4642 H 437.407 -3.18904 -3.80281 0
M  V30 4643 H 432.663 -4.58055 -4.04964 0
M  V30 4644 H 436.837 -5.55672 -4.19763 0
M  V30 4645 H 434.464 -6.25717 -4.31721 0
M  V30 4646 N 436.039 1.36541 -0.78704 0
M  V30 4647 C 437.45 1.81873 -0.421807 0
M  V30 4648 C 437.801 1.65487 1.05397 0
M  V30 4649 O 436.926 1.17448 1.81755 0
M  V30 4650 C 437.521 3.30192 -0.758841 0
M  V30 4651 C 436.08 3.73743 -0.446468 0
M  V30 4652 C 435.227 2.58844 -0.994728 0
M  V30 4653 H 438.178 1.24796 -0.98039 0
M  V30 4654 H 438.199 3.80468 -0.0490648 0
M  V30 4655 H 437.711 3.42087 -1.83299 0
M  V30 4656 H 435.812 3.6741 0.619739 0
M  V30 4657 H 435.925 4.69272 -0.965415 0
M  V30 4658 H 434.289 2.51245 -0.418087 0
M  V30 4659 H 435.072 2.73525 -2.07458 0
M  V30 4660 N 437.518 0.538854 1.48102 0
M  V30 4661 C 438.934 0.19732 1.58376 0
M  V30 4662 C 439.134 -1.29971 1.5398 0
M  V30 4663 O 438.19 -2.07861 1.43352 0
M  V30 4664 C 439.503 0.807716 2.89649 0
M  V30 4665 C 441.051 0.77726 3.03196 0
M  V30 4666 C 441.526 1.36639 4.37143 0
M  V30 4667 N 443.017 1.32875 4.43732 0
M  V30 4668 C 443.752 1.7544 5.45901 0
M  V30 4669 N 443.248 2.25776 6.54979 0
M  V30 4670 N 445.041 1.66623 5.36836 0
M  V30 4671 H 437.192 1.5117 1.49202 0
M  V30 4672 H 439.455 0.629327 0.708979 0
M  V30 4673 H 439.161 1.85909 2.98548 0
M  V30 4674 H 439.035 0.289975 3.76084 0
M  V30 4675 H 441.422 -0.265374 2.93904 0
M  V30 4676 H 441.503 1.33256 2.18349 0
M  V30 4677 H 441.147 2.408 4.47189 0
M  V30 4678 H 441.077 0.786689 5.20691 0
M  V30 4679 H 443.568 0.96037 3.65493 0
M  V30 4680 H 443.881 2.56226 7.29087 0
M  V30 4681 H 442.226 2.29775 6.55918 0
M  V30 4682 H 445.417 1.27089 4.50517 0
M  V30 4683 H 445.59 2.00115 6.16326 0
M  V30 4684 N 438.996 -1.55193 0.274407 0
M  V30 4685 C 440.245 -1.98758 -0.343213 0
M  V30 4686 C 440.558 -1.16624 -1.5703 0
M  V30 4687 O 441.764 -1.5033 -2.26082 0
M  V30 4688 C 440.22 -3.53759 -0.661996 0
M  V30 4689 C 439.828 -4.4467 0.54524 0
M  V30 4690 C 441.572 -4.05916 -1.24228 0
M  V30 4691 C 439.479 -5.91058 0.201084 0
M  V30 4692 H 438.409 -0.742353 -0.132014 0
M  V30 4693 H 441.06 -1.79545 0.378948 0
M  V30 4694 H 439.442 -3.68772 -1.44304 0
M  V30 4695 H 440.616 -4.41426 1.32212 0
M  V30 4696 H 438.931 -4.03143 1.04232 0
M  V30 4697 H 441.528 -5.12831 -1.51357 0
M  V30 4698 H 441.871 -3.54908 -2.17592 0
M  V30 4699 H 442.404 -3.9434 -0.523542 0
M  V30 4700 H 439.143 -6.46161 1.10258 0
M  V30 4701 H 438.663 -5.97373 -0.539045 0
M  V30 4702 H 440.342 -6.46669 -0.206954 0
M  V30 4703 N 440.474 -0.00167713 -1.576 0
M  V30 4704 C 441.89 0.354422 -1.55615 0
M  V30 4705 C 442.09 1.74679 -1.00447 0
M  V30 4706 O 441.146 2.4428 -0.639022 0
M  V30 4707 C 442.459 0.22812 -2.99833 0
M  V30 4708 C 444.007 0.302934 -3.11531 0
M  V30 4709 C 444.482 0.205737 -4.57538 0
M  V30 4710 N 445.973 0.263584 -4.62449 0
M  V30 4711 C 446.708 0.211742 -5.73009 0
M  V30 4712 N 446.204 0.110399 -6.92712 0
M  V30 4713 N 447.997 0.263729 -5.61481 0
M  V30 4714 H 440.148 -0.912498 -1.918 0
M  V30 4715 H 442.411 -0.349928 -0.881053 0
M  V30 4716 H 442.117 -0.729934 -3.44042 0
M  V30 4717 H 441.991 1.00951 -3.6344 0
M  V30 4718 H 444.378 1.25143 -2.67251 0
M  V30 4719 H 444.459 -0.508357 -2.50698 0
M  V30 4720 H 444.103 -0.739225 -5.02492 0
M  V30 4721 H 444.033 1.03554 -5.16318 0
M  V30 4722 H 446.524 0.343173 -3.76339 0
M  V30 4723 H 446.837 0.0767828 -7.72762 0
M  V30 4724 H 445.182 0.0760025 -6.94958 0
M  V30 4725 H 448.373 0.34111 -4.66855 0
M  V30 4726 H 448.546 0.219862 -6.47627 0
M  V30 4727 N 441.952 1.55251 0.271103 0
M  V30 4728 C 443.368 1.47133 0.618393 0
M  V30 4729 C 443.568 0.686994 1.89427 0
M  V30 4730 O 442.624 0.206609 2.51653 0
M  V30 4731 C 443.937 2.91361 0.743593 0
M  V30 4732 C 445.485 3.01587 0.837522 0
M  V30 4733 C 445.96 4.47073 0.994483 0
M  V30 4734 N 447.451 4.50909 1.05996 0
M  V30 4735 C 448.186 5.60698 1.20024 0
M  V30 4736 N 447.682 6.80348 1.30759 0
M  V30 4737 N 449.475 5.48444 1.23149 0
M  V30 4738 H 441.626 2.04698 -0.566784 0
M  V30 4739 H 443.889 0.928319 -0.192165 0
M  V30 4740 H 443.595 3.51483 -0.123493 0
M  V30 4741 H 443.469 3.40484 1.62328 0
M  V30 4742 H 445.856 2.4156 1.69507 0
M  V30 4743 H 445.937 2.55713 -0.0668086 0
M  V30 4744 H 445.581 5.07703 0.141582 0
M  V30 4745 H 445.511 4.90605 1.91349 0
M  V30 4746 H 448.002 3.6472 0.989316 0
M  V30 4747 H 448.315 7.59772 1.41303 0
M  V30 4748 H 446.66 6.83156 1.27761 0
M  V30 4749 H 449.851 4.53907 1.14394 0
M  V30 4750 H 450.024 6.34049 1.33738 0
M  V30 4751 N 443.43 -0.535701 1.48216 0
M  V30 4752 C 444.38 -1.63688 1.58714 0
M  V30 4753 C 445.364 -1.54635 0.444615 0
M  V30 4754 O 446.556 -1.62753 0.695742 0
M  V30 4755 C 443.685 -3.02423 1.62466 0
M  V30 4756 C 442.771 -3.16601 2.82178 0
M  V30 4757 N 443.162 -3.00771 4.06658 0
M  V30 4758 C 441.46 -3.47645 2.79391 0
M  V30 4759 C 442.161 -3.18213 4.86945 0
M  V30 4760 N 441.137 -3.45528 4.19656 0
M  V30 4761 H 444.939 -1.5005 2.5271 0
M  V30 4762 H 442.453 -0.741018 1.44508 0
M  V30 4763 H 444.45 -3.81517 1.6808 0
M  V30 4764 H 443.11 -3.17157 0.695826 0
M  V30 4765 H 444.121 -2.77652 4.37184 0
M  V30 4766 H 440.798 -3.68771 1.95739 0
M  V30 4767 H 442.188 -3.1076 5.95716 0
M  V30 4768 N 444.908 -1.36708 -0.784132 0
M  V30 4769 C 445.84 -1.27333 -1.90575 0
M  V30 4770 C 446.853 -0.191706 -1.61667 0
M  V30 4771 O 448.042 -0.446854 -1.72816 0
M  V30 4772 C 445.142 -0.943177 -3.25511 0
M  V30 4773 C 444.315 -2.12776 -3.82158 0
M  V30 4774 C 443.374 -1.76983 -4.95544 0
M  V30 4775 O 442.4 -2.49134 -5.11782 0
M  V30 4776 N 443.602 -0.706624 -5.76183 0
M  V30 4777 H 446.367 -2.23974 -1.99138 0
M  V30 4778 H 443.928 -1.30171 -0.962656 0
M  V30 4779 H 445.92 -0.684799 -3.98864 0
M  V30 4780 H 444.49 -0.0657333 -3.12531 0
M  V30 4781 H 443.71 -2.54863 -3.0073 0
M  V30 4782 H 444.998 -2.91904 -4.16737 0
M  V30 4783 H 444.396 -0.107643 -5.65598 0
M  V30 4784 H 442.953 -0.50808 -6.49817 0
M  V30 4785 N 446.386 1.0089 -1.21074 0
M  V30 4786 C 447.634 1.74262 -1.02358 0
M  V30 4787 C 447.955 1.89869 0.444393 0
M  V30 4788 O 447.225 1.44677 1.32081 0
M  V30 4789 H 445.805 0.645615 -0.375754 0
M  V30 4790 H 448.467 1.21596 -1.52317 0
M  V30 4791 H 447.563 2.74328 -1.4883 0
M  V30 4792 N 447.864 1.01787 1.20321 0
M  V30 4793 C 448.812 0.58254 2.25187 0
M  V30 4794 C 449.806 -0.379359 1.65098 0
M  V30 4795 O 451.012 -0.249142 1.78267 0
M  V30 4796 H 447.387 0.170078 0.732514 0
M  V30 4797 H 449.358 1.47788 2.59232 0
M  V30 4798 C 448.107 -0.0620885 3.47645 0
M  V30 4799 H 447.43 0.669069 3.94162 0
M  V30 4800 H 448.87 -0.329784 4.22716 0
M  V30 4801 C 447.329 -1.3053 3.10586 0
M  V30 4802 O 447.859 -2.39848 3.22236 0
M  V30 4803 N 446.065 -1.18988 2.65123 0
M  V30 4804 H 445.612 -0.300341 2.55843 0
M  V30 4805 H 445.57 -2.02267 2.40698 0
M  V30 4806 N 449.342 -1.36122 0.79427 0
M  V30 4807 C 450.272 -2.32551 0.210328 0
M  V30 4808 C 451.253 -1.56884 -0.657386 0
M  V30 4809 O 452.438 -1.85014 -0.590207 0
M  V30 4810 C 449.568 -3.41128 -0.651819 0
M  V30 4811 C 448.522 -4.27842 0.116395 0
M  V30 4812 C 447.848 -5.2763 -0.86666 0
M  V30 4813 C 449.148 -5.05647 1.30837 0
M  V30 4814 H 450.842 -2.81636 1.01594 0
M  V30 4815 H 448.388 -1.35407 0.489981 0
M  V30 4816 H 450.341 -4.07581 -1.07031 0
M  V30 4817 H 449.065 -2.90622 -1.49019 0
M  V30 4818 H 447.724 -3.62952 0.515915 0
M  V30 4819 H 447.372 -4.73395 -1.70019 0
M  V30 4820 H 447.072 -5.86514 -0.35705 0
M  V30 4821 H 448.596 -5.96955 -1.28361 0
M  V30 4822 H 450.01 -5.65113 0.965393 0
M  V30 4823 H 448.407 -5.73967 1.75161 0
M  V30 4824 H 449.477 -4.37006 2.10128 0
M  V30 4825 N 450.82 -0.546701 -1.47814 0
M  V30 4826 C 452.067 -0.0187407 -2.02491 0
M  V30 4827 C 452.395 1.32685 -1.42215 0
M  V30 4828 O 451.65 1.87413 -0.563454 0
M  V30 4829 C 451.949 0.134869 -3.57145 0
M  V30 4830 C 451.615 -1.13849 -4.3629 0
M  V30 4831 C 450.277 -1.48743 -4.57634 0
M  V30 4832 C 452.629 -1.98277 -4.82012 0
M  V30 4833 C 449.957 -2.67932 -5.21948 0
M  V30 4834 C 452.309 -3.16659 -5.4764 0
M  V30 4835 C 450.973 -3.51879 -5.67219 0
M  V30 4836 H 450.243 -0.0068577 -0.740968 0
M  V30 4837 H 452.89 -0.716097 -1.77607 0
M  V30 4838 H 451.195 0.915118 -3.80963 0
M  V30 4839 H 452.892 0.558556 -3.97091 0
M  V30 4840 H 449.482 -0.856767 -4.19949 0
M  V30 4841 H 453.666 -1.72628 -4.6531 0
M  V30 4842 H 448.922 -2.95401 -5.35302 0
M  V30 4843 H 453.096 -3.82374 -5.82033 0
M  V30 4844 H 450.723 -4.44331 -6.16825 0
M  V30 4845 N 452.299 1.55045 -0.282633 0
M  V30 4846 C 453.527 2.04168 0.33512 0
M  V30 4847 C 453.942 1.16071 1.48906 0
M  V30 4848 O 453.299 0.182391 1.81586 0
M  V30 4849 C 453.35 3.52332 0.808957 0
M  V30 4850 O 453.071 4.37078 -0.299038 0
M  V30 4851 C 454.572 4.17375 1.49375 0
M  V30 4852 H 451.792 0.666744 0.0754543 0
M  V30 4853 H 454.336 2.00205 -0.416918 0
M  V30 4854 H 452.491 3.56715 1.51106 0
M  V30 4855 H 452.905 5.24458 0.0665514 0
M  V30 4856 H 454.379 5.22627 1.77664 0
M  V30 4857 H 454.856 3.65999 2.42778 0
M  V30 4858 H 455.462 4.17016 0.835305 0
M  V30 4859 N 453.777 0.010035 1.57597 0
M  V30 4860 C 454.707 -0.976857 2.12084 0
M  V30 4861 C 455.688 -1.35191 1.03235 0
M  V30 4862 O 456.873 -1.43389 1.3097 0
M  V30 4863 C 454.003 -2.26548 2.63236 0
M  V30 4864 C 452.957 -2.03175 3.76701 0
M  V30 4865 C 452.283 -3.38138 4.14206 0
M  V30 4866 C 453.583 -1.38625 5.03568 0
M  V30 4867 H 455.277 -0.523145 2.94794 0
M  V30 4868 H 452.823 -0.250195 1.4181 0
M  V30 4869 H 454.776 -2.95952 2.99984 0
M  V30 4870 H 453.5 -2.74051 1.77661 0
M  V30 4871 H 452.159 -1.36195 3.40362 0
M  V30 4872 H 451.807 -3.83363 3.25641 0
M  V30 4873 H 451.507 -3.23312 4.90656 0
M  V30 4874 H 453.031 -4.08841 4.53521 0
M  V30 4875 H 454.445 -1.98 5.38023 0
M  V30 4876 H 452.842 -1.34256 5.84889 0
M  V30 4877 H 453.912 -0.356722 4.83586 0
M  V30 4878 N 455.255 -1.55392 -0.262866 0
M  V30 4879 C 456.501 -1.76737 -0.99458 0
M  V30 4880 C 456.834 -0.572453 -1.85571 0
M  V30 4881 O 456.109 0.429732 -1.89693 0
M  V30 4882 C 456.392 -3.07824 -1.8686 0
M  V30 4883 C 456.245 -4.3769 -1.03672 0
M  V30 4884 C 457.564 -3.35021 -2.85393 0
M  V30 4885 H 454.683 -0.643005 -0.360157 0
M  V30 4886 H 457.325 -1.88126 -0.266216 0
M  V30 4887 H 455.475 -2.98245 -2.48962 0
M  V30 4888 H 457.147 -4.59238 -0.43563 0
M  V30 4889 H 455.39 -4.32461 -0.340513 0
M  V30 4890 H 456.061 -5.25759 -1.6817 0
M  V30 4891 H 458.537 -3.44458 -2.33426 0
M  V30 4892 H 457.413 -4.27989 -3.43681 0
M  V30 4893 H 457.674 -2.55153 -3.61039 0
M  V30 4894 N 456.733 0.527833 -1.48498 0
M  V30 4895 C 458.144 1.10975 -1.50138 0
M  V30 4896 C 458.495 1.943 -0.272378 0
M  V30 4897 O 457.62 2.07319 0.620301 0
M  V30 4898 C 458.215 2.01927 -2.72049 0
M  V30 4899 C 456.774 2.55332 -2.76554 0
M  V30 4900 C 455.921 1.32341 -2.43683 0
M  V30 4901 H 458.872 0.312986 -1.55583 0
M  V30 4902 H 458.893 2.86244 -2.50689 0
M  V30 4903 H 458.405 1.41254 -3.61481 0
M  V30 4904 H 456.506 3.19721 -1.91336 0
M  V30 4905 H 456.619 2.94319 -3.78038 0
M  V30 4906 H 454.983 1.63989 -1.94884 0
M  V30 4907 H 455.766 0.734165 -3.35358 0
M  V30 4908 N 458.211 1.37122 0.776871 0
M  V30 4909 C 459.436 1.354 1.57104 0
M  V30 4910 C 459.861 -0.0595562 1.88006 0
M  V30 4911 O 459.219 -1.03514 1.48844 0
M  V30 4912 C 459.267 2.19472 2.8612 0
M  V30 4913 O 458.371 1.59582 3.80273 0
M  V30 4914 H 457.712 0.462869 0.476076 0
M  V30 4915 H 460.242 1.80577 0.961932 0
M  V30 4916 H 460.252 2.32502 3.35271 0
M  V30 4917 H 458.927 3.22222 2.62956 0
M  V30 4918 H 457.504 1.55564 3.38902 0
M  V30 4919 N 459.689 -1.00246 1.21608 0
M  V30 4920 C 460.914 -1.78167 1.06167 0
M  V30 4921 C 461.339 -1.84138 -0.384035 0
M  V30 4922 O 460.697 -1.28683 -1.27712 0
M  V30 4923 C 460.745 -3.19786 1.66642 0
M  V30 4924 O 459.849 -4.02153 0.913613 0
M  V30 4925 H 459.19 -0.549 0.37349 0
M  V30 4926 H 461.72 -1.25994 1.61204 0
M  V30 4927 H 461.73 -3.70451 1.70969 0
M  V30 4928 H 460.405 -3.14754 2.7185 0
M  V30 4929 H 458.982 -3.60711 0.945635 0
M  V30 4930 N 461.167 -1.02423 -1.1978 0
M  V30 4931 C 462.583 -0.740459 -1.41384 0
M  V30 4932 C 462.783 0.676827 -1.89793 0
M  V30 4933 O 461.839 1.4435 -2.0717 0
M  V30 4934 C 463.152 -1.77264 -2.42895 0
M  V30 4935 C 464.7 -1.79165 -2.56649 0
M  V30 4936 C 465.175 -2.8133 -3.6141 0
M  V30 4937 N 466.666 -2.80118 -3.68901 0
M  V30 4938 C 467.401 -3.55824 -4.49641 0
M  V30 4939 N 466.897 -4.41231 -5.34123 0
M  V30 4940 N 468.69 -3.44387 -4.44246 0
M  V30 4941 H 460.841 -1.9391 -0.866764 0
M  V30 4942 H 463.104 -0.838074 -0.443098 0
M  V30 4943 H 462.81 -2.7884 -2.14339 0
M  V30 4944 H 462.684 -1.59108 -3.42001 0
M  V30 4945 H 465.071 -0.782702 -2.84531 0
M  V30 4946 H 465.152 -2.01396 -1.57713 0
M  V30 4947 H 464.796 -3.82394 -3.34271 0
M  V30 4948 H 464.726 -2.56359 -4.59986 0
M  V30 4949 H 467.217 -2.1817 -3.08562 0
M  V30 4950 H 467.53 -4.95747 -5.92836 0
M  V30 4951 H 465.875 -4.45306 -5.33599 0
M  V30 4952 H 469.066 -2.7708 -3.77285 0
M  V30 4953 H 469.239 -4.0364 -5.06931 0
M  V30 4954 N 462.645 1.35699 -0.801477 0
M  V30 4955 C 463.87 2.03687 -0.390678 0
M  V30 4956 C 464.295 1.60015 0.988778 0
M  V30 4957 O 463.653 0.774357 1.63931 0
M  V30 4958 C 463.701 3.57439 -0.476404 0
M  V30 4959 O 462.805 4.09208 0.512106 0
M  V30 4960 H 462.146 0.64344 -0.163956 0
M  V30 4961 H 464.676 1.73403 -1.08594 0
M  V30 4962 H 464.686 4.06544 -0.344357 0
M  V30 4963 H 463.361 3.88576 -1.48262 0
M  V30 4964 H 461.938 3.7134 0.340721 0
M  V30 4965 N 464.123 0.554532 1.47522 0
M  V30 4966 C 465.053 -0.182974 2.32782 0
M  V30 4967 C 466.034 -0.911377 1.43624 0
M  V30 4968 O 467.219 -0.892366 1.72483 0
M  V30 4969 C 464.349 -1.21513 3.25349 0
M  V30 4970 C 463.303 -0.603355 4.23726 0
M  V30 4971 C 462.629 -1.73995 5.05598 0
M  V30 4972 C 463.929 0.441121 5.20434 0
M  V30 4973 H 465.623 0.52882 2.94693 0
M  V30 4974 H 463.169 0.255759 1.41711 0
M  V30 4975 H 465.122 -1.73922 3.83835 0
M  V30 4976 H 463.846 -1.95683 2.61487 0
M  V30 4977 H 462.505 -0.10059 3.66462 0
M  V30 4978 H 462.153 -2.47063 4.38143 0
M  V30 4979 H 461.853 -1.3364 5.72201 0
M  V30 4980 H 463.377 -2.26735 5.66942 0
M  V30 4981 H 464.791 0.00319931 5.733 0
M  V30 4982 H 463.188 0.763402 5.95224 0
M  V30 4983 H 464.258 1.33799 4.66075 0
M  V30 4984 N 465.601 -1.54893 0.290851 0
M  V30 4985 C 466.826 -2.04804 -0.32712 0
M  V30 4986 C 467.251 -1.16721 -1.47506 0
M  V30 4987 O 466.609 -0.169107 -1.8051 0
M  V30 4988 C 466.657 -3.52268 -0.770689 0
M  V30 4989 O 465.761 -3.67236 -1.87647 0
M  V30 4990 H 465.102 -0.660789 -0.0652227 0
M  V30 4991 H 467.632 -2.00036 0.429739 0
M  V30 4992 H 467.642 -3.9393 -1.06223 0
M  V30 4993 H 466.317 -4.15843 0.069096 0
M  V30 4994 H 464.894 -3.37479 -1.58626 0
M  V30 4995 N 467.08 -0.0183926 -1.57589 0
M  V30 4996 C 468.308 0.673046 -1.95647 0
M  V30 4997 C 468.723 1.66275 -0.894312 0
M  V30 4998 O 468.08 1.82072 0.124975 0
M  V30 4999 C 468.131 1.38884 -3.33756 0
M  V30 5000 O 467.852 0.438806 -4.35897 0
M  V30 5001 C 469.353 2.1731 -3.86383 0
M  V30 5002 H 466.573 0.186292 -0.644621 0
M  V30 5003 H 469.117 -0.0749748 -2.04363 0
M  V30 5004 H 467.272 2.08835 -3.26293 0
M  V30 5005 H 467.686 0.945869 -5.15901 0
M  V30 5006 H 469.16 2.62863 -4.85394 0
M  V30 5007 H 469.637 3.00764 -3.20059 0
M  V30 5008 H 470.243 1.52339 -3.97081 0
M  V30 5009 N 468.558 1.5553 0.254621 0
M  V30 5010 C 469.506 1.9048 1.33492 0
M  V30 5011 C 470.5 0.78304 1.50216 0
M  V30 5012 O 471.706 0.967582 1.51782 0
M  V30 5013 H 468.081 0.604846 0.44684 0
M  V30 5014 H 470.052 2.80688 1.01275 0
M  V30 5015 C 468.801 2.20928 2.68489 0
M  V30 5016 H 468.124 3.06742 2.56417 0
M  V30 5017 H 469.564 2.49291 3.42972 0
M  V30 5018 C 468.023 1.023 3.20993 0
M  V30 5019 O 468.553 0.267027 4.00811 0
M  V30 5020 N 466.759 0.815714 2.78917 0
M  V30 5021 H 466.306 1.43217 2.14119 0
M  V30 5022 H 466.264 0.0236532 3.14391 0
M  V30 5023 N 470.036 -0.519951 1.48776 0
M  V30 5024 C 471.284 -1.2727 1.56993 0
M  V30 5025 C 471.605 -1.9339 0.25004 0
M  V30 5026 O 470.875 -1.81822 -0.729216 0
M  V30 5027 H 469.455 -0.472732 0.578389 0
M  V30 5028 H 472.117 -0.604234 1.85297 0
M  V30 5029 H 471.213 -2.04669 2.3562 0
M  V30 5030 N 471.514 -1.37532 -0.769588 0
M  V30 5031 C 472.424 -1.35668 -1.91393 0
M  V30 5032 C 473.44 -0.255954 -1.72107 0
M  V30 5033 O 474.616 -0.491704 -1.95305 0
M  V30 5034 C 471.681 -1.16481 -3.26547 0
M  V30 5035 C 470.742 -2.36212 -3.58472 0
M  V30 5036 C 469.975 -2.17932 -4.87177 0
M  V30 5037 O 470.198 -1.1647 -5.58382 0
M  V30 5038 O 469.132 -3.06167 -5.18214 0
M  V30 5039 H 472.958 -2.32055 -1.95918 0
M  V30 5040 H 470.543 -1.18284 -0.912641 0
M  V30 5041 H 472.425 -1.07778 -4.07384 0
M  V30 5042 H 471.1 -0.231687 -3.2287 0
M  V30 5043 H 470.007 -2.50488 -2.77861 0
M  V30 5044 H 471.34 -3.281 -3.66894 0
M  V30 5045 N 472.992 0.995999 -1.22138 0
M  V30 5046 C 473.94 2.10673 -0.985876 0
M  V30 5047 C 474.934 1.69255 0.0699553 0
M  V30 5048 O 476.14 1.79812 -0.0822176 0
M  V30 5049 H 472.515 0.688865 -0.30161 0
M  V30 5050 H 474.486 2.27711 -1.92848 0
M  V30 5051 C 473.235 3.42881 -0.576909 0
M  V30 5052 H 472.558 3.75191 -1.38101 0
M  V30 5053 H 473.998 4.21589 -0.451518 0
M  V30 5054 C 472.457 3.29265 0.713196 0
M  V30 5055 O 472.987 3.60777 1.76643 0
M  V30 5056 N 471.193 2.82456 0.683162 0
M  V30 5057 H 470.74 2.5701 -0.174242 0
M  V30 5058 H 470.698 2.73727 1.54663 0
M  V30 5059 N 474.47 1.03057 1.19235 0
M  V30 5060 C 475.403 0.557384 2.21288 0
M  V30 5061 C 476.381 -0.402675 1.57535 0
M  V30 5062 O 477.565 -0.319376 1.85775 0
M  V30 5063 C 474.692 -0.187041 3.38183 0
M  V30 5064 C 473.738 0.72471 4.20298 0
M  V30 5065 S 474.571 2.20187 4.88137 0
M  V30 5066 C 475.727 1.46801 6.08441 0
M  V30 5067 H 475.96 1.42207 2.61083 0
M  V30 5068 H 473.493 0.840651 1.29508 0
M  V30 5069 H 475.451 -0.610405 4.05936 0
M  V30 5070 H 474.112 -1.02748 2.96819 0
M  V30 5071 H 473.305 0.149911 5.03777 0
M  V30 5072 H 472.907 1.08647 3.57871 0
M  V30 5073 H 475.199 0.755522 6.73274 0
M  V30 5074 H 476.142 2.27946 6.70407 0
M  V30 5075 H 476.55 0.964762 5.56195 0
M  V30 5076 N 475.948 -1.35272 0.808662 0
M  V30 5077 C 477.196 -1.98316 0.389233 0
M  V30 5078 C 477.517 -1.64465 -1.04767 0
M  V30 5079 O 476.787 -0.928175 -1.72516 0
M  V30 5080 H 475.367 -0.733585 0.140935 0
M  V30 5081 H 478.029 -1.6515 1.03496 0
M  V30 5082 H 477.125 -3.08123 0.496631 0
M  V30 5083 N 477.426 -0.562348 -1.47226 0
M  V30 5084 C 478.356 0.170627 -2.32876 0
M  V30 5085 C 479.337 0.903748 -1.44106 0
M  V30 5086 O 480.522 0.883206 -1.72954 0
M  V30 5087 C 477.652 1.19786 -3.25989 0
M  V30 5088 C 476.606 0.580875 -4.2404 0
M  V30 5089 C 475.932 1.71311 -5.06514 0
M  V30 5090 C 477.232 -0.468714 -5.20193 0
M  V30 5091 H 478.926 -0.544441 -2.94408 0
M  V30 5092 H 476.472 -0.263271 -1.41573 0
M  V30 5093 H 478.425 1.71884 -3.84752 0
M  V30 5094 H 477.149 1.94294 -2.62521 0
M  V30 5095 H 475.808 0.0811538 -3.6651 0
M  V30 5096 H 475.456 2.44736 -4.39447 0
M  V30 5097 H 475.156 1.30604 -5.72902 0
M  V30 5098 H 476.68 2.23725 -5.68137 0
M  V30 5099 H 478.094 -0.0336028 -5.7329 0
M  V30 5100 H 476.491 -0.794957 -5.94811 0
M  V30 5101 H 477.561 -1.36269 -4.65359 0
M  V30 5102 N 478.904 1.54736 -0.299062 0
M  V30 5103 C 479.867 2.22127 0.565012 0
M  V30 5104 C 480.867 1.20669 1.06281 0
M  V30 5105 O 482.057 1.45417 0.959145 0
M  V30 5106 C 479.189 2.90611 1.78208 0
M  V30 5107 H 480.382 2.99891 -0.0237448 0
M  V30 5108 H 477.935 1.5622 -0.0498788 0
M  V30 5109 H 478.67 2.16921 2.41072 0
M  V30 5110 H 478.455 3.64984 1.43281 0
M  V30 5111 H 479.945 3.42026 2.396 0
M  V30 5112 N 480.382 0.0267497 1.57577 0
M  V30 5113 C 481.628 -0.653371 1.91987 0
M  V30 5114 C 481.961 -1.71915 0.903263 0
M  V30 5115 O 481.236 -1.94358 -0.0743387 0
M  V30 5116 C 481.519 -1.272 3.36886 0
M  V30 5117 C 481.372 -0.215938 4.49281 0
M  V30 5118 C 482.691 -2.19069 3.81703 0
M  V30 5119 H 479.81 -0.236047 0.698177 0
M  V30 5120 H 482.452 0.0835236 1.89816 0
M  V30 5121 H 480.602 -1.90005 3.38866 0
M  V30 5122 H 482.274 0.41449 4.59434 0
M  V30 5123 H 480.517 0.458855 4.31366 0
M  V30 5124 H 481.188 -0.688347 5.47691 0
M  V30 5125 H 483.664 -1.66253 3.81444 0
M  V30 5126 H 482.54 -2.59307 4.83788 0
M  V30 5127 H 482.801 -3.08087 3.17072 0
M  V30 5128 N 481.861 -1.55662 -0.24637 0
M  V30 5129 C 482.793 -1.86811 -1.32794 0
M  V30 5130 C 483.806 -0.754413 -1.44265 0
M  V30 5131 O 484.995 -1.03253 -1.45606 0
M  V30 5132 C 482.095 -2.0397 -2.70646 0
M  V30 5133 C 481.268 -3.34832 -2.81436 0
M  V30 5134 C 480.327 -3.41727 -4.00136 0
M  V30 5135 O 479.353 -4.14934 -3.89639 0
M  V30 5136 N 480.555 -2.71058 -5.1333 0
M  V30 5137 H 483.32 -2.80174 -1.06409 0
M  V30 5138 H 480.881 -1.55906 -0.43647 0
M  V30 5139 H 482.873 -2.05924 -3.48393 0
M  V30 5140 H 481.443 -1.1735 -2.89738 0
M  V30 5141 H 480.663 -3.4519 -1.90361 0
M  V30 5142 H 481.951 -4.21085 -2.85595 0
M  V30 5143 H 481.349 -2.11314 -5.2475 0
M  V30 5144 H 479.906 -2.78704 -5.89209 0
M  V30 5145 N 483.339 0.512053 -1.4905 0
M  V30 5146 C 484.569 1.28928 -1.61434 0
M  V30 5147 C 484.977 1.87107 -0.280647 0
M  V30 5148 O 484.32 1.68024 0.742537 0
M  V30 5149 C 484.382 2.466 -2.61588 0
M  V30 5150 C 484.046 2.09375 -4.06216 0
M  V30 5151 C 485.043 1.63994 -4.93358 0
M  V30 5152 C 482.728 2.19348 -4.51876 0
M  V30 5153 C 484.722 1.29076 -6.24194 0
M  V30 5154 C 482.409 1.84041 -5.82728 0
M  V30 5155 C 483.407 1.38978 -6.68711 0
M  V30 5156 O 483.095 1.04144 -7.97126 0
M  V30 5157 H 482.827 0.397668 -0.546659 0
M  V30 5158 H 485.381 0.622507 -1.9574 0
M  V30 5159 H 483.611 3.16318 -2.22441 0
M  V30 5160 H 485.3 3.08642 -2.63619 0
M  V30 5161 H 486.066 1.55744 -4.59313 0
M  V30 5162 H 481.945 2.53376 -3.85125 0
M  V30 5163 H 485.489 0.938303 -6.91261 0
M  V30 5164 H 481.386 1.91938 -6.16304 0
M  V30 5165 H 482.154 1.17387 -8.10039 0
M  V30 5166 N 484.817 1.37938 0.762283 0
M  V30 5167 C 485.747 1.37176 1.88958 0
M  V30 5168 C 486.728 0.238945 1.68413 0
M  V30 5169 O 487.913 0.440726 1.89133 0
M  V30 5170 C 485.043 1.18742 3.2637 0
M  V30 5171 C 483.997 2.29136 3.61498 0
M  V30 5172 C 483.323 1.95816 4.97554 0
M  V30 5173 C 484.623 3.71363 3.6727 0
M  V30 5174 H 486.317 2.31509 1.89853 0
M  V30 5175 H 483.863 1.11438 0.912005 0
M  V30 5176 H 485.816 1.16837 4.04879 0
M  V30 5177 H 484.54 0.208683 3.25933 0
M  V30 5178 H 483.199 2.30213 2.85303 0
M  V30 5179 H 482.847 0.964475 4.93667 0
M  V30 5180 H 482.547 2.69745 5.22026 0
M  V30 5181 H 484.071 1.95513 5.78452 0
M  V30 5182 H 485.485 3.72364 4.35911 0
M  V30 5183 H 483.882 4.44425 4.03245 0
M  V30 5184 H 484.952 4.04305 2.67704 0
M  V30 5185 N 486.295 -0.989507 1.22664 0
M  V30 5186 C 487.572 -1.70326 0.961688 0
M  V30 5187 C 487.952 -2.04537 -0.522279 0
M  V30 5188 O 487.3 -1.73136 -1.49118 0
M  V30 5189 C 487.51 -2.95135 1.86269 0
M  V30 5190 C 488.858 -3.67842 2.12078 0
M  V30 5191 O 489.882 -3.0515 1.83745 0
M  V30 5192 O 488.741 -4.80644 2.60083 0
M  V30 5193 H 485.835 -0.743589 0.361946 0
M  V30 5194 H 488.381 -1.04555 1.33665 0
M  V30 5195 H 487.153 -2.66382 2.8663 0
M  V30 5196 H 486.776 -3.68645 1.48952 0
M  V30 5197 N 487.773 -1.03688 -1.18687 0
M  V30 5198 C 489.184 -0.766488 -1.70241 0
M  V30 5199 C 489.535 0.713052 -1.82784 0
M  V30 5200 O 488.66 1.55529 -1.50465 0
M  V30 5201 C 489.255 -1.38475 -3.09209 0
M  V30 5202 C 487.814 -1.16276 -3.5799 0
M  V30 5203 C 486.961 -1.4778 -2.34641 0
M  V30 5204 H 489.912 -1.20378 -1.03415 0
M  V30 5205 H 489.933 -0.785939 -3.72295 0
M  V30 5206 H 489.445 -2.46157 -3.00048 0
M  V30 5207 H 487.546 -0.104508 -3.72453 0
M  V30 5208 H 487.659 -1.8571 -4.41643 0
M  V30 5209 H 486.023 -0.897366 -2.38368 0
M  V30 5210 H 486.806 -2.56562 -2.28102 0
M  V30 5211 N 489.251 1.34841 -0.815825 0
M  V30 5212 C 490.667 1.51543 -0.500697 0
M  V30 5213 C 490.867 1.76261 0.976444 0
M  V30 5214 O 489.923 1.8094 1.76117 0
M  V30 5215 C 491.236 2.68487 -1.35407 0
M  V30 5216 C 492.784 2.82368 -1.35046 0
M  V30 5217 C 493.259 4.02347 -2.18816 0
M  V30 5218 N 494.75 4.09542 -2.16402 0
M  V30 5219 C 495.485 5.01517 -2.77971 0
M  V30 5220 N 494.981 5.98763 -3.48503 0
M  V30 5221 N 496.774 4.94334 -2.67563 0
M  V30 5222 H 488.925 1.17055 -1.77234 0
M  V30 5223 H 491.188 0.573481 -0.754866 0
M  V30 5224 H 490.894 2.56829 -2.40274 0
M  V30 5225 H 490.768 3.63321 -1.01377 0
M  V30 5226 H 493.155 2.93471 -0.309604 0
M  V30 5227 H 493.236 1.88363 -1.73069 0
M  V30 5228 H 492.88 3.92004 -3.22948 0
M  V30 5229 H 492.81 4.95551 -1.78148 0
M  V30 5230 H 495.301 3.39932 -1.65091 0
M  V30 5231 H 495.614 6.6556 -3.92747 0
M  V30 5232 H 493.959 5.98909 -3.52609 0
M  V30 5233 H 497.15 4.1732 -2.12041 0
M  V30 5234 H 497.323 5.6582 -3.15834 0
M  V30 5235 N 490.729 0.570148 1.46925 0
M  V30 5236 C 491.977 0.0508523 2.02036 0
M  V30 5237 C 492.298 -1.30885 1.44548 0
M  V30 5238 O 491.568 -1.85647 0.625453 0
M  V30 5239 H 490.148 0.0158088 0.746833 0
M  V30 5240 H 492.81 0.743086 1.80178 0
M  V30 5241 H 491.906 -0.027575 3.12088 0
M  V30 5242 N 492.207 -1.54576 0.307264 0
M  V30 5243 C 493.623 -1.59534 -0.0459251 0
M  V30 5244 C 493.823 -1.32414 -1.51884 0
M  V30 5245 O 492.879 -1.1006 -2.27251 0
M  V30 5246 C 494.192 -2.98566 0.357649 0
M  V30 5247 C 495.74 -3.11491 0.306937 0
M  V30 5248 C 496.215 -4.52842 0.685427 0
M  V30 5249 N 497.706 -4.58782 0.638203 0
M  V30 5250 C 498.441 -5.66238 0.903458 0
M  V30 5251 N 497.937 -6.81703 1.23501 0
M  V30 5252 N 499.73 -5.55937 0.830102 0
M  V30 5253 H 491.881 -1.70464 1.26712 0
M  V30 5254 H 494.144 -0.79647 0.514139 0
M  V30 5255 H 493.85 -3.23356 1.38325 0
M  V30 5256 H 493.724 -3.76117 -0.285565 0
M  V30 5257 H 496.111 -2.86446 -0.709424 0
M  V30 5258 H 496.192 -2.36081 0.984861 0
M  V30 5259 H 495.836 -4.78618 1.69963 0
M  V30 5260 H 495.766 -5.26598 -0.0146346 0
M  V30 5261 H 498.257 -3.75849 0.393138 0
M  V30 5262 H 498.57 -7.59582 1.42322 0
M  V30 5263 H 496.915 -6.8324 1.27311 0
M  V30 5264 H 500.106 -4.64608 0.570693 0
M  V30 5265 H 500.279 -6.39597 1.04019 0
M  V30 5266 N 493.685 -0.035106 -1.57561 0
M  V30 5267 C 494.615 0.942993 -2.13612 0
M  V30 5268 C 495.596 1.33531 -1.05373 0
M  V30 5269 O 496.781 1.41287 -1.33235 0
M  V30 5270 C 493.911 2.22332 -2.66807 0
M  V30 5271 C 492.865 1.97156 -3.79886 0
M  V30 5272 C 492.191 3.31506 -4.19533 0
M  V30 5273 C 493.491 1.30596 -5.05709 0
M  V30 5274 H 495.185 0.476179 -2.95589 0
M  V30 5275 H 492.731 0.227602 -1.4219 0
M  V30 5276 H 494.684 2.91142 -3.04654 0
M  V30 5277 H 493.408 2.7119 -1.81999 0
M  V30 5278 H 492.067 1.30763 -3.42486 0
M  V30 5279 H 491.715 3.78134 -3.31698 0
M  V30 5280 H 491.415 3.15465 -4.95738 0
M  V30 5281 H 492.939 4.01574 -4.59968 0
M  V30 5282 H 494.353 1.89416 -5.41105 0
M  V30 5283 H 492.75 1.24934 -5.86951 0
M  V30 5284 H 493.82 0.279742 -4.84092 0
M  V30 5285 N 495.163 1.55791 0.238111 0
M  V30 5286 C 496.579 1.48411 0.587045 0
M  V30 5287 C 496.779 0.72702 1.87927 0
M  V30 5288 O 495.835 0.259942 2.51158 0
M  V30 5289 C 497.148 2.92873 0.681623 0
M  V30 5290 C 498.696 3.03295 0.773363 0
M  V30 5291 C 499.171 4.49082 0.899428 0
M  V30 5292 N 500.662 4.53056 0.964075 0
M  V30 5293 C 501.397 5.63117 1.08104 0
M  V30 5294 N 500.893 6.82969 1.16299 0
M  V30 5295 N 502.686 5.50933 1.11488 0
M  V30 5296 H 494.837 2.0345 -0.610076 0
M  V30 5297 H 497.1 0.924034 -0.211813 0
M  V30 5298 H 496.806 3.51142 -0.19802 0
M  V30 5299 H 496.68 3.43851 1.55069 0
M  V30 5300 H 499.067 2.45101 1.64346 0
M  V30 5301 H 499.148 2.55513 -0.121034 0
M  V30 5302 H 498.792 5.07889 0.0338586 0
M  V30 5303 H 498.722 4.94553 1.809 0
M  V30 5304 H 501.213 3.66737 0.91173 0
M  V30 5305 H 501.526 7.62598 1.25155 0
M  V30 5306 H 499.871 6.85712 1.13241 0
M  V30 5307 H 503.062 4.56231 1.0474 0
M  V30 5308 H 503.235 6.36743 1.20259 0
M  V30 5309 N 496.642 -0.504142 1.49319 0
M  V30 5310 C 497.867 -1.28729 1.62615 0
M  V30 5311 C 498.292 -1.85752 0.296309 0
M  V30 5312 O 497.65 -1.65704 -0.735649 0
M  V30 5313 C 497.698 -2.39561 2.69524 0
M  V30 5314 O 496.802 -3.43324 2.28478 0
M  V30 5315 H 496.143 -0.380172 0.544395 0
M  V30 5316 H 498.673 -0.603872 1.95485 0
M  V30 5317 H 498.683 -2.8537 2.91595 0
M  V30 5318 H 497.358 -1.97423 3.66056 0
M  V30 5319 H 495.935 -3.03455 2.16725 0
M  V30 5320 N 498.12 -1.38341 -0.754957 0
M  V30 5321 C 499.083 -1.35262 -1.85032 0
M  V30 5322 C 500.083 -0.253393 -1.58791 0
M  V30 5323 O 501.273 -0.510205 -1.66561 0
M  V30 5324 C 498.405 -1.10544 -3.22479 0
M  V30 5325 H 499.598 -2.32712 -1.8917 0
M  V30 5326 H 497.151 -1.23614 -0.956515 0
M  V30 5327 H 497.886 -0.136952 -3.24011 0
M  V30 5328 H 497.671 -1.90127 -3.4292 0
M  V30 5329 H 499.161 -1.11082 -4.02555 0
M  V30 5330 N 499.598 0.982988 -1.23187 0
M  V30 5331 C 500.875 1.69814 -0.970707 0
M  V30 5332 C 501.255 2.04811 0.511424 0
M  V30 5333 O 500.603 1.73924 1.48198 0
M  V30 5334 C 500.813 2.94143 -1.87831 0
M  V30 5335 C 502.161 3.66712 -2.14026 0
M  V30 5336 O 503.185 3.04171 -1.8536 0
M  V30 5337 O 502.044 4.79258 -2.62629 0
M  V30 5338 H 499.138 0.741659 -0.365884 0
M  V30 5339 H 501.684 1.03844 -1.34218 0
M  V30 5340 H 500.456 2.64858 -2.88038 0
M  V30 5341 H 500.079 3.6785 -1.50905 0
M  V30 5342 N 501.076 1.04316 1.18135 0
M  V30 5343 C 502.301 0.768047 1.92655 0
M  V30 5344 C 502.726 -0.66904 1.758 0
M  V30 5345 O 502.084 -1.46372 1.06981 0
M  V30 5346 C 502.132 1.14239 3.42026 0
M  V30 5347 O 501.236 0.269333 4.1152 0
M  V30 5348 H 500.577 0.282436 0.600937 0
M  V30 5349 H 503.107 1.39367 1.49793 0
M  V30 5350 H 503.117 1.10538 3.92741 0
M  V30 5351 H 501.792 2.18928 3.53615 0
M  V30 5352 H 500.369 0.366175 3.71098 0
M  V30 5353 N 502.554 -1.34406 0.822964 0
M  V30 5354 C 503.464 -2.33298 0.246838 0
M  V30 5355 C 504.48 -1.62625 -0.618797 0
M  V30 5356 O 505.656 -1.94391 -0.526685 0
M  V30 5357 C 502.721 -3.41785 -0.581731 0
M  V30 5358 C 501.782 -4.28206 0.306309 0
M  V30 5359 C 501.015 -5.31512 -0.48281 0
M  V30 5360 O 501.238 -5.43973 -1.71607 0
M  V30 5361 O 500.172 -6.01749 0.134884 0
M  V30 5362 H 503.998 -2.84401 1.06534 0
M  V30 5363 H 501.583 -1.37466 0.585108 0
M  V30 5364 H 503.465 -4.08028 -1.05313 0
M  V30 5365 H 502.14 -2.92925 -1.37756 0
M  V30 5366 H 501.047 -3.64885 0.825199 0
M  V30 5367 H 502.38 -4.80507 1.06649 0
M  V30 5368 N 504.032 -0.577932 -1.46621 0
M  V30 5369 C 504.98 0.170882 -2.31971 0
M  V30 5370 C 505.974 0.889086 -1.44193 0
M  V30 5371 O 507.18 0.808017 -1.60845 0
M  V30 5372 H 503.555 0.0739763 -0.748353 0
M  V30 5373 H 505.526 -0.567856 -2.92947 0
M  V30 5374 C 504.275 1.17438 -3.27267 0
M  V30 5375 H 503.598 0.63116 -3.94787 0
M  V30 5376 H 505.038 1.66882 -3.89778 0
M  V30 5377 C 503.497 2.23292 -2.52274 0
M  V30 5378 O 504.027 3.30567 -2.28229 0
M  V30 5379 N 502.233 1.97772 -2.12919 0
M  V30 5380 H 501.78 1.10545 -2.32675 0
M  V30 5381 H 501.738 2.68809 -1.63062 0
M  V30 5382 N 505.51 1.54411 -0.315457 0
M  V30 5383 C 506.473 2.22713 0.54142 0
M  V30 5384 C 507.473 1.2179 1.04995 0
M  V30 5385 O 508.663 1.46426 0.943667 0
M  V30 5386 C 505.795 2.92485 1.75116 0
M  V30 5387 H 506.988 2.99849 -0.0555508 0
M  V30 5388 H 504.541 1.56159 -0.0664453 0
M  V30 5389 H 505.276 2.19466 2.38758 0
M  V30 5390 H 505.061 3.66483 1.39401 0
M  V30 5391 H 506.551 3.44548 2.35959 0
M  V30 5392 N 506.988 0.0434614 1.5754 0
M  V30 5393 C 507.918 -0.931651 2.14109 0
M  V30 5394 C 508.899 -1.32971 1.06079 0
M  V30 5395 O 510.084 -1.40579 1.33982 0
M  V30 5396 C 507.214 -2.20914 2.67982 0
M  V30 5397 C 506.168 -1.95139 3.80926 0
M  V30 5398 C 505.494 -3.29276 4.21285 0
M  V30 5399 C 506.794 -1.27913 5.06395 0
M  V30 5400 H 508.488 -0.460497 2.95837 0
M  V30 5401 H 506.034 -0.220058 1.42309 0
M  V30 5402 H 507.987 -2.89522 3.06194 0
M  V30 5403 H 506.711 -2.70221 1.83434 0
M  V30 5404 H 505.37 -1.28945 3.43175 0
M  V30 5405 H 505.018 -3.76369 3.33699 0
M  V30 5406 H 504.718 -3.12831 4.97404 0
M  V30 5407 H 506.242 -3.99129 4.62091 0
M  V30 5408 H 507.656 -1.86544 5.42102 0
M  V30 5409 H 506.053 -1.2182 5.87605 0
M  V30 5410 H 507.123 -0.254066 4.84234 0
M  V30 5411 N 508.466 -1.55915 -0.229846 0
M  V30 5412 C 509.691 -1.8296 -0.976743 0
M  V30 5413 C 510.116 -0.622735 -1.77493 0
M  V30 5414 O 509.474 0.428431 -1.76165 0
M  V30 5415 C 509.522 -3.07916 -1.8767 0
M  V30 5416 O 508.626 -2.86028 -2.97088 0
M  V30 5417 H 507.967 -0.603453 -0.277021 0
M  V30 5418 H 510.497 -2.0312 -0.245669 0
M  V30 5419 H 510.507 -3.37802 -2.2881 0
M  V30 5420 H 509.182 -3.95389 -1.28996 0
M  V30 5421 H 507.759 -2.67355 -2.59954 0
M  V30 5422 N 509.944 0.496216 -1.49584 0
M  V30 5423 C 511.19 1.25189 -1.59548 0
M  V30 5424 C 511.523 1.9212 -0.283466 0
M  V30 5425 O 510.798 1.80947 0.713324 0
M  V30 5426 C 511.081 2.31516 -2.75812 0
M  V30 5427 C 510.934 1.69054 -4.16822 0
M  V30 5428 C 512.253 3.3304 -2.87702 0
M  V30 5429 H 509.372 0.45379 -0.580727 0
M  V30 5430 H 512.014 0.549327 -1.81886 0
M  V30 5431 H 510.164 2.91438 -2.56897 0
M  V30 5432 H 511.836 1.12923 -4.47265 0
M  V30 5433 H 510.079 0.994485 -4.22247 0
M  V30 5434 H 510.75 2.462 -4.94054 0
M  V30 5435 H 513.226 2.83114 -3.04936 0
M  V30 5436 H 512.102 4.04794 -3.7072 0
M  V30 5437 H 512.363 3.95655 -1.97255 0
M  V30 5438 N 511.423 1.38739 0.74761 0
M  V30 5439 C 512.355 1.32341 1.87132 0
M  V30 5440 C 513.368 0.234502 1.61102 0
M  V30 5441 O 514.557 0.492516 1.71571 0
M  V30 5442 C 511.657 1.02915 3.22896 0
M  V30 5443 C 510.83 2.22834 3.76383 0
M  V30 5444 C 509.889 1.90059 4.90677 0
M  V30 5445 O 508.915 2.62615 5.04997 0
M  V30 5446 N 510.117 0.859141 5.74107 0
M  V30 5447 H 512.882 2.29175 1.93129 0
M  V30 5448 H 510.443 1.32678 0.927805 0
M  V30 5449 H 512.435 0.79031 3.96908 0
M  V30 5450 H 511.005 0.148572 3.12247 0
M  V30 5451 H 510.225 2.62747 2.93867 0
M  V30 5452 H 511.513 3.02851 4.08851 0
M  V30 5453 H 510.911 0.257564 5.65113 0
M  V30 5454 H 509.468 0.680189 6.48241 0
M  V30 5455 N 512.901 -0.976442 1.23707 0
M  V30 5456 C 513.811 -2.10359 1.03856 0
M  V30 5457 C 514.827 -1.73991 -0.0180919 0
M  V30 5458 O 516.003 -2.0061 0.178211 0
M  V30 5459 C 513.068 -3.40809 0.636387 0
M  V30 5460 C 512.129 -3.91179 1.76854 0
M  V30 5461 C 511.362 -5.15404 1.38546 0
M  V30 5462 O 511.585 -5.69754 0.27142 0
M  V30 5463 O 510.519 -5.5994 2.20797 0
M  V30 5464 H 514.345 -2.29997 1.98331 0
M  V30 5465 H 511.93 -1.08742 1.02448 0
M  V30 5466 H 513.812 -4.19269 0.423223 0
M  V30 5467 H 512.487 -3.22493 -0.279322 0
M  V30 5468 H 511.394 -3.13819 2.03638 0
M  V30 5469 H 512.727 -4.13958 2.6627 0
M  V30 5470 N 514.379 -1.04941 -1.1758 0
M  V30 5471 C 515.795 -0.770282 -1.39781 0
M  V30 5472 C 515.995 0.636417 -1.91186 0
M  V30 5473 O 515.051 1.39923 -2.10185 0
M  V30 5474 C 516.364 -1.82376 -2.3908 0
M  V30 5475 C 517.912 -1.84569 -2.52791 0
M  V30 5476 C 518.387 -2.88933 -3.55361 0
M  V30 5477 N 519.878 -2.8788 -3.62877 0
M  V30 5478 C 520.613 -3.65282 -4.41992 0
M  V30 5479 N 520.109 -4.52461 -5.24643 0
M  V30 5480 N 521.902 -3.53732 -4.36841 0
M  V30 5481 H 514.053 -1.95705 -0.825438 0
M  V30 5482 H 516.316 -0.847284 -0.425222 0
M  V30 5483 H 516.022 -2.83323 -2.08376 0
M  V30 5484 H 515.896 -1.66327 -3.38549 0
M  V30 5485 H 518.283 -0.842879 -2.82807 0
M  V30 5486 H 518.364 -2.04696 -1.53406 0
M  V30 5487 H 518.008 -3.89398 -3.26085 0
M  V30 5488 H 517.938 -2.66059 -4.54445 0
M  V30 5489 H 520.429 -2.24666 -3.03864 0
M  V30 5490 H 520.742 -5.08211 -5.82187 0
M  V30 5491 H 519.087 -4.56524 -5.24033 0
M  V30 5492 H 522.278 -2.85021 -3.71323 0
M  V30 5493 H 522.451 -4.14302 -4.98255 0
M  V30 5494 N 515.857 1.33968 -0.830081 0
M  V30 5495 C 516.805 2.31301 -0.245435 0
M  V30 5496 C 517.799 1.57734 0.617762 0
M  V30 5497 O 519.005 1.72674 0.508303 0
M  V30 5498 H 515.38 0.749552 -0.0606316 0
M  V30 5499 H 517.351 2.78129 -1.08105 0
M  V30 5500 C 516.1 3.42961 0.572084 0
M  V30 5501 H 515.423 3.99714 -0.0828118 0
M  V30 5502 H 516.863 4.13286 0.94715 0
M  V30 5503 C 515.322 2.88043 1.74737 0
M  V30 5504 O 515.852 2.83508 2.8458 0
M  V30 5505 N 514.058 2.44768 1.56642 0
M  V30 5506 H 513.605 2.48656 0.672901 0
M  V30 5507 H 513.563 2.08375 2.3543 0
M  V30 5508 N 517.335 0.585699 1.46312 0
M  V30 5509 C 518.581 0.0725284 2.0267 0
M  V30 5510 C 518.914 -1.28523 1.45586 0
M  V30 5511 O 518.189 -1.84283 0.622101 0
M  V30 5512 C 518.472 0.0099788 3.60099 0
M  V30 5513 C 518.325 1.39685 4.27561 0
M  V30 5514 C 519.644 -0.689117 4.34671 0
M  V30 5515 H 516.763 0.0278307 0.736474 0
M  V30 5516 H 519.405 0.753472 1.74421 0
M  V30 5517 H 517.555 -0.56992 3.84297 0
M  V30 5518 H 519.227 2.02215 4.14617 0
M  V30 5519 H 517.47 1.96374 3.86807 0
M  V30 5520 H 518.141 1.30553 5.36339 0
M  V30 5521 H 520.617 -0.196446 4.15636 0
M  V30 5522 H 519.493 -0.701921 5.44393 0
M  V30 5523 H 519.754 -1.75101 4.05946 0
M  V30 5524 N 518.813 -1.54241 0.323641 0
M  V30 5525 C 520.224 -1.85975 -0.164405 0
M  V30 5526 C 520.575 -1.24529 -1.51615 0
M  V30 5527 O 519.7 -0.551351 -2.09258 0
M  V30 5528 C 520.295 -3.37424 -0.305091 0
M  V30 5529 C 518.854 -3.69107 -0.737358 0
M  V30 5530 C 518.001 -2.76942 0.140884 0
M  V30 5531 H 520.952 -1.49088 0.543922 0
M  V30 5532 H 520.973 -3.63147 -1.13598 0
M  V30 5533 H 520.485 -3.82116 0.678876 0
M  V30 5534 H 518.586 -3.29947 -1.73107 0
M  V30 5535 H 518.699 -4.76035 -0.541053 0
M  V30 5536 H 517.063 -2.51795 -0.383572 0
M  V30 5537 H 517.846 -3.24461 1.12162 0
M  V30 5538 N 520.291 -0.0518155 -1.57515 0
M  V30 5539 C 521.519 0.631395 -1.9703 0
M  V30 5540 C 521.934 1.64341 -0.92938 0
M  V30 5541 O 521.291 1.82296 0.0863266 0
M  V30 5542 C 521.342 1.31774 -3.36627 0
M  V30 5543 O 521.063 0.346247 -4.3673 0
M  V30 5544 C 522.564 2.09065 -3.90905 0
M  V30 5545 H 519.784 0.172576 -0.648428 0
M  V30 5546 H 522.328 -0.118306 -2.04158 0
M  V30 5547 H 520.483 2.01867 -3.30649 0
M  V30 5548 H 520.897 0.836226 -5.17791 0
M  V30 5549 H 522.371 2.52508 -4.9086 0
M  V30 5550 H 522.848 2.93908 -3.26366 0
M  V30 5551 H 523.454 1.43882 -4.00223 0
M  V30 5552 N 521.769 1.56035 0.221574 0
M  V30 5553 C 522.716 1.92413 1.27459 0
M  V30 5554 C 523.686 0.781323 1.46576 0
M  V30 5555 O 524.871 1.03721 1.60145 0
M  V30 5556 C 522.011 2.24617 2.61995 0
M  V30 5557 C 521.124 3.51831 2.50677 0
M  V30 5558 C 520.259 3.73482 3.77736 0
M  V30 5559 C 519.298 4.94211 3.6114 0
M  V30 5560 N 518.435 5.12252 4.80148 0
M  V30 5561 H 523.275 2.82203 0.957355 0
M  V30 5562 H 520.812 1.39676 0.461415 0
M  V30 5563 H 522.77 2.41298 3.40339 0
M  V30 5564 H 521.4 1.38 2.91815 0
M  V30 5565 H 520.452 3.43343 1.63767 0
M  V30 5566 H 521.764 4.40328 2.34334 0
M  V30 5567 H 520.918 3.9026 4.64523 0
M  V30 5568 H 519.657 2.83266 3.97003 0
M  V30 5569 H 518.662 4.77384 2.72736 0
M  V30 5570 H 519.887 5.85912 3.43343 0
M  V30 5571 H 517.833 4.24978 4.99729 0
M  V30 5572 H 517.75 5.94881 4.66532 0
M  V30 5573 H 519.018 5.33465 5.68362 0
M  V30 5574 N 523.247 -0.488276 1.49845 0
M  V30 5575 C 524.472 -1.26997 1.63971 0
M  V30 5576 C 524.897 -1.85427 0.315994 0
M  V30 5577 O 524.255 -1.66475 -0.718032 0
M  V30 5578 C 524.303 -2.36689 2.72049 0
M  V30 5579 O 523.407 -3.40882 2.32107 0
M  V30 5580 H 522.748 -0.374376 0.548396 0
M  V30 5581 H 525.278 -0.583104 1.96115 0
M  V30 5582 H 525.288 -2.82262 2.94605 0
M  V30 5583 H 523.963 -1.93529 3.68129 0
M  V30 5584 H 522.54 -3.01139 2.19931 0
M  V30 5585 N 524.725 -1.39134 -0.740242 0
M  V30 5586 C 526.136 -1.32208 -1.31825 0
M  V30 5587 C 526.487 0.0159919 -1.96193 0
M  V30 5588 O 525.612 0.918111 -1.95958 0
M  V30 5589 C 526.207 -2.39436 -2.39699 0
M  V30 5590 C 524.766 -2.36048 -2.93187 0
M  V30 5591 C 523.913 -2.21599 -1.66701 0
M  V30 5592 H 526.864 -1.49298 -0.538133 0
M  V30 5593 H 526.885 -2.05922 -3.19963 0
M  V30 5594 H 526.397 -3.36811 -1.92821 0
M  V30 5595 H 524.498 -1.42295 -3.44359 0
M  V30 5596 H 524.611 -3.30704 -3.46658 0
M  V30 5597 H 522.975 -1.68681 -1.90837 0
M  V30 5598 H 523.758 -3.20936 -1.21882 0
M  V30 5599 N 526.204 0.969867 -1.24223 0
M  V30 5600 C 527.429 1.75289 -1.10853 0
M  V30 5601 C 527.854 1.85091 0.335079 0
M  V30 5602 O 527.212 1.32024 1.24255 0
M  V30 5603 C 527.26 3.15255 -1.75062 0
M  V30 5604 O 526.364 3.99589 -1.01992 0
M  V30 5605 H 525.705 0.538904 -0.387915 0
M  V30 5606 H 528.235 1.21675 -1.64488 0
M  V30 5607 H 528.245 3.65787 -1.80731 0
M  V30 5608 H 526.92 3.07436 -2.801 0
M  V30 5609 H 525.497 3.58077 -1.04094 0
M  V30 5610 N 527.682 1.05563 1.17022 0
M  V30 5611 C 528.645 0.664098 2.19368 0
M  V30 5612 C 529.645 -0.286358 1.5823 0
M  V30 5613 O 530.835 -0.069728 1.7406 0
M  V30 5614 C 527.967 -0.0239932 3.40892 0
M  V30 5615 H 529.16 1.57 2.55521 0
M  V30 5616 H 526.713 0.849964 1.31169 0
M  V30 5617 H 527.448 -0.942988 3.10287 0
M  V30 5618 H 527.233 0.659351 3.86516 0
M  V30 5619 H 528.723 -0.283909 4.16634 0
M  V30 5620 N 529.16 -1.33526 0.837174 0
M  V30 5621 C 530.571 -1.80182 0.489017 0
M  V30 5622 C 530.922 -1.69285 -0.991826 0
M  V30 5623 O 530.047 -1.24113 -1.77271 0
M  V30 5624 C 530.642 -3.27149 0.880866 0
M  V30 5625 C 529.201 -3.71828 0.584872 0
M  V30 5626 C 528.348 -2.54974 1.09011 0
M  V30 5627 H 531.299 -1.21071 1.02603 0
M  V30 5628 H 531.32 -3.80024 0.190239 0
M  V30 5629 H 530.832 -3.35048 1.95869 0
M  V30 5630 H 528.933 -3.69457 -0.48295 0
M  V30 5631 H 529.046 -4.65366 1.13892 0
M  V30 5632 H 527.41 -2.4952 0.511047 0
M  V30 5633 H 528.193 -2.65637 2.17467 0
M  V30 5634 N 530.638 -0.59345 -1.46 0
M  V30 5635 C 531.887 -0.0808084 -2.01538 0
M  V30 5636 C 532.2 1.29112 -1.46934 0
M  V30 5637 O 533.406 1.8957 -1.94359 0
M  V30 5638 C 531.862 -0.0938311 -3.59778 0
M  V30 5639 C 531.47 -1.46474 -4.23379 0
M  V30 5640 C 533.214 0.364306 -4.22934 0
M  V30 5641 C 531.121 -1.4349 -5.73729 0
M  V30 5642 H 530.051 -0.0264407 -0.753536 0
M  V30 5643 H 532.702 -0.746689 -1.67621 0
M  V30 5644 H 531.084 0.638427 -3.9082 0
M  V30 5645 H 532.258 -2.21758 -4.03931 0
M  V30 5646 H 530.573 -1.86379 -3.7236 0
M  V30 5647 H 533.17 0.405584 -5.3316 0
M  V30 5648 H 533.513 1.38409 -3.92618 0
M  V30 5649 H 534.046 -0.31423 -3.96557 0
M  V30 5650 H 530.785 -2.43184 -6.08722 0
M  V30 5651 H 530.305 -0.724431 -5.95409 0
M  V30 5652 H 531.984 -1.15243 -6.36654 0
M  V30 5653 N 532.116 1.54067 -0.331816 0
M  V30 5654 C 533.064 2.26105 0.54582 0
M  V30 5655 C 534.058 1.27816 1.11173 0
M  V30 5656 O 535.264 1.45565 1.05882 0
M  V30 5657 H 531.639 0.726363 0.194683 0
M  V30 5658 H 533.61 2.98282 -0.083931 0
M  V30 5659 C 532.359 3.03814 1.69092 0
M  V30 5660 H 531.682 3.79269 1.26473 0
M  V30 5661 H 533.122 3.57453 2.28043 0
M  V30 5662 C 531.581 2.12606 2.61343 0
M  V30 5663 O 532.111 1.71437 3.6328 0
M  V30 5664 N 530.317 1.77925 2.29763 0
M  V30 5665 H 529.864 2.11602 1.46909 0
M  V30 5666 H 529.822 1.1718 2.91747 0
M  V30 5667 N 533.594 0.0601682 1.57485 0
M  V30 5668 C 534.84 -0.606552 1.94146 0
M  V30 5669 C 535.195 -1.67918 0.939225 0
M  V30 5670 O 534.488 -1.91558 -0.0402649 0
M  V30 5671 C 534.682 -1.23831 3.35262 0
M  V30 5672 C 534.511 -0.228408 4.4912 0
M  V30 5673 C 533.281 0.182813 5.04969 0
M  V30 5674 C 535.479 0.52975 5.11564 0
M  V30 5675 N 533.461 1.18464 6.02362 0
M  V30 5676 C 534.832 1.38439 6.04346 0
M  V30 5677 C 536.887 0.587084 4.94427 0
M  V30 5678 C 535.59 2.29125 6.81832 0
M  V30 5679 C 537.616 1.4814 5.72546 0
M  V30 5680 C 536.978 2.32375 6.64967 0
M  V30 5681 H 533.077 -0.193328 0.757726 0
M  V30 5682 H 535.661 0.1346 1.94234 0
M  V30 5683 H 533.832 -1.94944 3.35933 0
M  V30 5684 H 535.564 -1.86456 3.59188 0
M  V30 5685 H 532.319 -0.197968 4.73186 0
M  V30 5686 H 532.743 1.68271 6.55754 0
M  V30 5687 H 537.385 -0.049944 4.22771 0
M  V30 5688 H 535.103 2.93868 7.52773 0
M  V30 5689 H 538.689 1.53045 5.6131 0
M  V30 5690 H 537.569 3.00454 7.2436 0
M  V30 5691 N 535.072 -1.5615 -0.213296 0
M  V30 5692 C 536.488 -1.49327 -0.56336 0
M  V30 5693 C 536.688 -0.756826 -1.86747 0
M  V30 5694 O 535.744 -0.299866 -2.50713 0
M  V30 5695 C 537.057 -2.9392 -0.634944 0
M  V30 5696 C 538.605 -3.04487 -0.725013 0
M  V30 5697 C 539.08 -4.50456 -0.82787 0
M  V30 5698 N 540.571 -4.54533 -0.891876 0
M  V30 5699 C 541.306 -5.64766 -0.991315 0
M  V30 5700 N 540.802 -6.84733 -1.05419 0
M  V30 5701 N 542.595 -5.52637 -1.02709 0
M  V30 5702 H 534.746 -2.02453 0.642366 0
M  V30 5703 H 537.009 -0.920548 0.226487 0
M  V30 5704 H 536.715 -3.50783 0.253859 0
M  V30 5705 H 536.589 -3.46274 -1.49579 0
M  V30 5706 H 538.976 -2.47685 -1.60425 0
M  V30 5707 H 539.057 -2.55289 0.161669 0
M  V30 5708 H 538.701 -5.07878 0.0469464 0
M  V30 5709 H 538.631 -4.97369 -1.73009 0
M  V30 5710 H 541.122 -3.68141 -0.85327 0
M  V30 5711 H 541.435 -7.64493 -1.13007 0
M  V30 5712 H 539.78 -6.87427 -1.02318 0
M  V30 5713 H 542.971 -4.5784 -0.974687 0
M  V30 5714 H 543.144 -6.38576 -1.10113 0
M  V30 5715 N 536.55 0.480323 -1.50102 0
M  V30 5716 C 537.966 0.813295 -1.37323 0
M  V30 5717 C 538.166 1.97027 -0.422206 0
M  V30 5718 O 537.222 2.5212 0.138563 0
M  V30 5719 C 538.535 1.13404 -2.78496 0
M  V30 5720 C 540.083 1.24104 -2.87345 0
M  V30 5721 C 540.558 1.59497 -4.29331 0
M  V30 5722 N 542.049 1.66507 -4.32238 0
M  V30 5723 C 542.784 1.95378 -5.39087 0
M  V30 5724 N 542.28 2.22333 -6.56155 0
M  V30 5725 N 544.073 1.96803 -5.26522 0
M  V30 5726 H 536.224 -0.282291 -2.10516 0
M  V30 5727 H 538.487 -0.063752 -0.945854 0
M  V30 5728 H 538.193 0.357064 -3.49883 0
M  V30 5729 H 538.067 2.07251 -3.15162 0
M  V30 5730 H 540.454 2.00871 -2.16183 0
M  V30 5731 H 540.535 0.282593 -2.54234 0
M  V30 5732 H 540.179 0.832736 -5.01027 0
M  V30 5733 H 540.109 2.56477 -4.59921 0
M  V30 5734 H 542.6 1.47753 -3.47818 0
M  V30 5735 H 542.913 2.43611 -7.33399 0
M  V30 5736 H 541.258 2.19745 -6.59346 0
M  V30 5737 H 544.449 1.75235 -4.34062 0
M  V30 5738 H 544.622 2.18969 -6.09883 0
M  V30 5739 N 538.028 1.39524 0.732853 0
M  V30 5740 C 539.276 1.36594 1.48951 0
M  V30 5741 C 539.597 -0.0367507 1.94965 0
M  V30 5742 O 538.867 -0.988391 1.69138 0
M  V30 5743 H 537.447 0.502673 0.552566 0
M  V30 5744 H 540.109 1.74411 0.869869 0
M  V30 5745 H 539.205 2.03 2.3706 0
M  V30 5746 N 539.506 -0.963266 1.24736 0
M  V30 5747 C 540.453 -2.05857 1.04363 0
M  V30 5748 C 541.423 -1.6604 -0.0444951 0
M  V30 5749 O 542.608 -1.90477 0.110999 0
M  V30 5750 C 539.748 -3.38745 0.659235 0
M  V30 5751 C 538.861 -3.9173 1.82131 0
M  V30 5752 C 537.996 -5.12906 1.38208 0
M  V30 5753 C 537.035 -5.58098 2.51382 0
M  V30 5754 N 536.172 -6.7049 2.08295 0
M  V30 5755 H 541.012 -2.22616 1.98107 0
M  V30 5756 H 538.549 -1.09103 0.986661 0
M  V30 5757 H 540.507 -4.15107 0.417371 0
M  V30 5758 H 539.137 -3.21898 -0.241201 0
M  V30 5759 H 538.189 -3.11966 2.17672 0
M  V30 5760 H 539.501 -4.21225 2.67153 0
M  V30 5761 H 538.655 -5.96657 1.09935 0
M  V30 5762 H 537.394 -4.85105 0.502456 0
M  V30 5763 H 536.399 -4.72917 2.80409 0
M  V30 5764 H 537.624 -5.87911 3.39909 0
M  V30 5765 H 535.57 -6.44416 1.22737 0
M  V30 5766 H 535.487 -6.99458 2.86869 0
M  V30 5767 H 536.755 -7.57672 1.83175 0
M  V30 5768 N 540.985 -1.06182 -1.16461 0
M  V30 5769 C 541.915 -0.692861 -2.22984 0
M  V30 5770 C 542.896 0.314122 -1.67174 0
M  V30 5771 O 544.081 0.189499 -1.93273 0
M  V30 5772 C 541.211 -0.07732 -3.47214 0
M  V30 5773 C 540.165 -1.01015 -4.15909 0
M  V30 5774 C 539.491 -0.257973 -5.34077 0
M  V30 5775 C 540.791 -2.33868 -4.67015 0
M  V30 5776 H 542.485 -1.58343 -2.54102 0
M  V30 5777 H 540.031 -0.76279 -1.22137 0
M  V30 5778 H 541.984 0.19266 -4.20959 0
M  V30 5779 H 540.708 0.848254 -3.15392 0
M  V30 5780 H 539.367 -1.26486 -3.44088 0
M  V30 5781 H 539.015 0.670684 -4.98509 0
M  V30 5782 H 538.715 -0.879638 -5.80979 0
M  V30 5783 H 540.239 0.00448788 -6.106 0
M  V30 5784 H 541.653 -2.1279 -5.32347 0
M  V30 5785 H 540.05 -2.91522 -5.24533 0
M  V30 5786 H 541.12 -2.97019 -3.83286 0
M  V30 5787 N 542.463 1.3308 -0.844243 0
M  V30 5788 C 543.393 2.3161 -0.296493 0
M  V30 5789 C 544.374 1.59215 0.598707 0
M  V30 5790 O 545.559 1.87077 0.521134 0
M  V30 5791 C 542.689 3.43313 0.524762 0
M  V30 5792 C 541.643 4.27115 -0.275106 0
M  V30 5793 C 540.969 5.30483 0.670236 0
M  V30 5794 C 542.269 5.00443 -1.49514 0
M  V30 5795 H 543.963 2.77672 -1.11976 0
M  V30 5796 H 541.509 1.33496 -0.539899 0
M  V30 5797 H 543.462 4.11273 0.918298 0
M  V30 5798 H 542.186 2.95952 1.3813 0
M  V30 5799 H 540.845 3.60787 -0.650267 0
M  V30 5800 H 540.493 4.79379 1.52332 0
M  V30 5801 H 540.193 5.87435 0.139123 0
M  V30 5802 H 541.717 6.01308 1.06117 0
M  V30 5803 H 543.131 5.61141 -1.17447 0
M  V30 5804 H 541.528 5.67071 -1.96343 0
M  V30 5805 H 542.598 4.28906 -2.26202 0
M  V30 5806 N 543.941 0.601185 1.45683 0
M  V30 5807 C 545.189 0.0936957 2.01883 0
M  V30 5808 C 545.51 -1.2779 1.47291 0
M  V30 5809 O 544.78 -1.84279 0.664691 0
M  V30 5810 H 543.36 0.0316466 0.746329 0
M  V30 5811 H 546.022 0.781137 1.78562 0
M  V30 5812 H 545.118 0.0386297 3.12076 0
M  V30 5813 N 545.419 -1.53889 0.339982 0
M  V30 5814 C 546.351 -2.22435 -0.55275 0
M  V30 5815 C 547.364 -1.22975 -1.06681 0
M  V30 5816 O 548.553 -1.49351 -0.977575 0
M  V30 5817 C 545.653 -2.8882 -1.77302 0
M  V30 5818 C 544.826 -4.14563 -1.39486 0
M  V30 5819 C 543.885 -4.64391 -2.47442 0
M  V30 5820 O 542.911 -5.28687 -2.10899 0
M  V30 5821 N 544.113 -4.40015 -3.78639 0
M  V30 5822 H 546.878 -2.9968 0.0342669 0
M  V30 5823 H 544.439 -1.61068 0.16394 0
M  V30 5824 H 546.431 -3.19072 -2.48948 0
M  V30 5825 H 545.001 -2.15182 -2.26749 0
M  V30 5826 H 544.221 -3.90896 -0.509321 0
M  V30 5827 H 545.509 -4.96362 -1.11813 0
M  V30 5828 H 544.907 -3.88586 -4.11118 0
M  V30 5829 H 543.464 -4.74881 -4.46465 0
M  V30 5830 N 546.897 -0.0685191 -1.57451 0
M  V30 5831 C 548.145 0.60016 -1.92983 0
M  V30 5832 C 548.466 1.70348 -0.949028 0
M  V30 5833 O 547.736 1.959 0.00335647 0
M  V30 5834 H 546.316 0.224682 -0.712409 0
M  V30 5835 H 548.978 -0.125605 -1.94495 0
M  V30 5836 H 548.074 1.02759 -2.94698 0
M  V30 5837 N 548.375 1.56261 0.205012 0
M  V30 5838 C 549.338 1.92908 1.23771 0
M  V30 5839 C 550.338 0.809208 1.38955 0
M  V30 5840 O 551.528 1.07676 1.36936 0
M  V30 5841 C 548.66 2.19442 2.60879 0
M  V30 5842 H 549.853 2.85287 0.924728 0
M  V30 5843 H 547.406 1.49798 0.446125 0
M  V30 5844 H 548.141 1.29668 2.97248 0
M  V30 5845 H 547.926 3.0104 2.51232 0
M  V30 5846 H 549.416 2.48833 3.35368 0
M  V30 5847 N 549.853 -0.472356 1.50355 0
M  V30 5848 C 551.1 -1.22453 1.61281 0
M  V30 5849 C 551.428 -1.91972 0.31256 0
M  V30 5850 O 550.683 -1.82696 -0.701475 0
M  V30 5851 C 550.982 -2.29257 2.74182 0
M  V30 5852 C 550.648 -1.76999 4.14708 0
M  V30 5853 C 549.31 -1.62467 4.52944 0
M  V30 5854 C 551.662 -1.38215 5.0254 0
M  V30 5855 C 548.99 -1.07574 5.76754 0
M  V30 5856 C 551.342 -0.847638 6.26895 0
M  V30 5857 C 550.006 -0.688946 6.63935 0
M  V30 5858 H 549.276 -0.448087 0.590168 0
M  V30 5859 H 551.923 -0.520744 1.84284 0
M  V30 5860 H 550.228 -3.05538 2.45263 0
M  V30 5861 H 551.925 -2.87212 2.7984 0
M  V30 5862 H 548.515 -1.89276 3.84542 0
M  V30 5863 H 552.699 -1.48276 4.73633 0
M  V30 5864 H 547.955 -0.940237 6.04127 0
M  V30 5865 H 552.129 -0.538455 6.94315 0
M  V30 5866 H 549.756 -0.261435 7.5975 0
M  V30 5867 N 551.331 -1.39911 -0.725443 0
M  V30 5868 C 552.579 -1.37382 -1.48224 0
M  V30 5869 C 552.9 0.0264107 -1.94982 0
M  V30 5870 O 552.17 0.979408 -1.6966 0
M  V30 5871 H 550.75 -0.505596 -0.549892 0
M  V30 5872 H 553.412 -1.7487 -0.860608 0
M  V30 5873 H 552.508 -2.04254 -2.3598 0
M  V30 5874 N 552.809 0.956637 -1.25245 0
M  V30 5875 C 554.225 1.22733 -1.02023 0
M  V30 5876 C 554.425 1.99761 0.264186 0
M  V30 5877 O 553.481 2.32814 0.977436 0
M  V30 5878 C 554.794 2.00367 -2.24217 0
M  V30 5879 C 556.342 2.13418 -2.28958 0
M  V30 5880 C 556.817 2.9445 -3.50803 0
M  V30 5881 N 558.308 3.02029 -3.51187 0
M  V30 5882 C 559.043 3.65116 -4.42129 0
M  V30 5883 N 558.539 4.2983 -5.43339 0
M  V30 5884 N 560.332 3.62237 -4.29815 0
M  V30 5885 H 552.483 0.441282 -2.07765 0
M  V30 5886 H 554.746 0.257686 -0.912306 0
M  V30 5887 H 554.452 1.51165 -3.17556 0
M  V30 5888 H 554.326 3.01077 -2.27228 0
M  V30 5889 H 556.713 2.61819 -1.36143 0
M  V30 5890 H 556.794 1.1202 -2.29968 0
M  V30 5891 H 556.438 2.46741 -4.43939 0
M  V30 5892 H 556.368 3.9607 -3.47039 0
M  V30 5893 H 558.859 2.56007 -2.77973 0
M  V30 5894 H 559.172 4.75819 -6.08947 0
M  V30 5895 H 557.517 4.28465 -5.47214 0
M  V30 5896 H 560.708 3.10863 -3.49974 0
M  V30 5897 H 560.881 4.11117 -5.00886 0
M  V30 5898 N 554.287 1.06798 1.15896 0
M  V30 5899 C 555.533 0.788934 1.86825 0
M  V30 5900 C 555.866 -0.683084 1.8179 0
M  V30 5901 O 555.141 -1.50086 1.23711 0
M  V30 5902 C 555.424 1.29065 3.36176 0
M  V30 5903 C 555.277 2.8268 3.49874 0
M  V30 5904 C 556.596 0.902655 4.30744 0
M  V30 5905 H 553.715 0.288066 0.678371 0
M  V30 5906 H 556.357 1.32479 1.36195 0
M  V30 5907 H 554.507 0.834806 3.79425 0
M  V30 5908 H 556.179 3.36511 3.15528 0
M  V30 5909 H 554.422 3.21157 2.91617 0
M  V30 5910 H 555.093 3.12852 4.54783 0
M  V30 5911 H 557.569 1.29535 3.95424 0
M  V30 5912 H 556.445 1.28111 5.3374 0
M  V30 5913 H 556.706 -0.191951 4.41683 0
M  V30 5914 N 555.766 -1.3263 0.851289 0
M  V30 5915 C 556.996 -2.01271 0.466222 0
M  V30 5916 C 557.404 -1.64156 -0.940714 0
M  V30 5917 O 556.747 -0.857109 -1.62479 0
M  V30 5918 C 556.809 -3.55695 0.521672 0
M  V30 5919 C 556.473 -4.16227 1.88691 0
M  V30 5920 C 557.47 -4.34699 2.85189 0
M  V30 5921 C 555.155 -4.52377 2.18313 0
M  V30 5922 C 557.149 -4.88484 4.09465 0
M  V30 5923 C 554.836 -5.05868 3.42843 0
M  V30 5924 C 555.834 -5.23869 4.38235 0
M  V30 5925 O 555.522 -5.76218 5.6056 0
M  V30 5926 H 555.254 -0.651034 0.18202 0
M  V30 5927 H 557.808 -1.7026 1.14894 0
M  V30 5928 H 556.038 -3.86086 -0.217888 0
M  V30 5929 H 557.727 -4.05613 0.152682 0
M  V30 5930 H 558.493 -4.07107 2.63607 0
M  V30 5931 H 554.372 -4.37652 1.44851 0
M  V30 5932 H 557.916 -5.02451 4.83931 0
M  V30 5933 H 553.813 -5.32891 3.64277 0
M  V30 5934 H 554.581 -5.94616 5.62471 0
M  V30 5935 N 557.244 -0.608902 -1.45362 0
M  V30 5936 C 558.174 0.0964526 -2.33301 0
M  V30 5937 C 559.155 0.857444 -1.46908 0
M  V30 5938 O 560.34 0.827735 -1.75676 0
M  V30 5939 C 557.47 1.09354 -3.29635 0
M  V30 5940 C 556.424 0.445676 -4.25673 0
M  V30 5941 C 555.75 1.5511 -5.11708 0
M  V30 5942 C 557.05 -0.633972 -5.18438 0
M  V30 5943 H 558.744 -0.637829 -2.92527 0
M  V30 5944 H 556.29 -0.308178 -1.40664 0
M  V30 5945 H 558.243 1.59556 -3.90025 0
M  V30 5946 H 556.967 1.85843 -2.6857 0
M  V30 5947 H 555.626 -0.0354897 -3.66583 0
M  V30 5948 H 555.274 2.30631 -4.4701 0
M  V30 5949 H 554.974 1.12311 -5.76767 0
M  V30 5950 H 556.498 2.05537 -5.74967 0
M  V30 5951 H 557.912 -0.215974 -5.72893 0
M  V30 5952 H 556.309 -0.983789 -5.91981 0
M  V30 5953 H 557.379 -1.51005 -4.60788 0
M  V30 5954 N 558.722 1.53707 -0.348139 0
M  V30 5955 C 559.962 2.02899 0.247254 0
M  V30 5956 C 560.326 1.23033 1.47401 0
M  V30 5957 O 561.527 1.62146 2.14388 0
M  V30 5958 C 559.798 3.53156 0.549151 0
M  V30 5959 S 561.357 4.24247 1.1207 0
M  V30 5960 H 558.175 0.707213 0.0732894 0
M  V30 5961 H 560.777 1.89338 -0.486965 0
M  V30 5962 H 559.481 4.08893 -0.351435 0
M  V30 5963 H 559.012 3.70845 1.31291 0
M  V30 5964 H 561.027 4.33958 2.40613 0
M  V30 5965 N 560.2 0.0768682 1.57412 0
M  V30 5966 C 561.43 -0.5991 1.97723 0
M  V30 5967 C 561.838 -1.63378 0.954166 0
M  V30 5968 O 561.181 -1.83578 -0.0668706 0
M  V30 5969 C 561.243 -1.32078 3.34358 0
M  V30 5970 C 560.907 -0.438985 4.54887 0
M  V30 5971 C 561.904 0.305492 5.19002 0
M  V30 5972 C 559.589 -0.362378 5.00991 0
M  V30 5973 C 561.583 1.11475 6.27576 0
M  V30 5974 C 559.27 0.450543 6.09437 0
M  V30 5975 C 560.268 1.18777 6.72593 0
M  V30 5976 O 559.956 1.98727 7.7895 0
M  V30 5977 H 559.688 -0.166725 0.655117 0
M  V30 5978 H 562.242 0.147337 2.04871 0
M  V30 5979 H 560.472 -2.1134 3.2384 0
M  V30 5980 H 562.161 -1.88949 3.5924 0
M  V30 5981 H 562.927 0.25593 4.84324 0
M  V30 5982 H 558.806 -0.925832 4.51608 0
M  V30 5983 H 562.35 1.69068 6.76803 0
M  V30 5984 H 558.247 0.501651 6.43548 0
M  V30 5985 H 559.015 1.91214 7.95851 0
M  V30 5986 N 561.678 -1.56367 -0.196722 0
M  V30 5987 C 562.955 -1.71359 -0.943159 0
M  V30 5988 C 563.335 -0.631192 -2.01443 0
M  V30 5989 O 562.683 0.358071 -2.25677 0
M  V30 5990 C 562.893 -3.13623 -1.53106 0
M  V30 5991 C 564.241 -3.73806 -2.01381 0
M  V30 5992 O 565.265 -3.16742 -1.62951 0
M  V30 5993 O 564.124 -4.73951 -2.7209 0
M  V30 5994 H 561.218 -0.698851 -0.442195 0
M  V30 5995 H 563.764 -1.68672 -0.186547 0
M  V30 5996 H 562.536 -3.83873 -0.758785 0
M  V30 5997 H 562.159 -3.20532 -2.35255 0
M  V30 5998 N 563.156 0.464375 -1.50603 0
M  V30 5999 C 564.402 1.21776 -1.62168 0
M  V30 6000 C 564.735 1.91476 -0.324154 0
M  V30 6001 O 564.01 1.8242 0.674782 0
M  V30 6002 C 564.293 2.25614 -2.80661 0
M  V30 6003 C 564.146 1.60175 -4.20314 0
M  V30 6004 C 565.465 3.26862 -2.94702 0
M  V30 6005 H 562.584 0.44137 -0.590222 0
M  V30 6006 H 565.226 0.510623 -1.8301 0
M  V30 6007 H 563.376 2.85923 -2.63021 0
M  V30 6008 H 565.048 1.03411 -4.4956 0
M  V30 6009 H 563.291 0.904697 -4.24261 0
M  V30 6010 H 563.962 2.35665 -4.99165 0
M  V30 6011 H 566.438 2.76582 -3.10872 0
M  V30 6012 H 565.314 3.96839 -3.79223 0
M  V30 6013 H 565.575 3.91382 -2.05603 0
M  V30 6014 N 564.634 1.40294 0.718013 0
M  V30 6015 C 565.911 1.2894 1.47084 0
M  V30 6016 C 566.291 -0.0933625 2.10893 0
M  V30 6017 O 565.639 -1.10598 1.99951 0
M  V30 6018 C 565.849 2.4264 2.50852 0
M  V30 6019 C 567.197 2.8276 3.16752 0
M  V30 6020 O 568.221 2.42215 2.61171 0
M  V30 6021 O 567.08 3.528 4.17366 0
M  V30 6022 H 564.174 0.506236 0.653952 0
M  V30 6023 H 566.72 1.52208 0.750394 0
M  V30 6024 H 565.492 3.35009 2.022 0
M  V30 6025 H 565.115 2.21129 3.30435 0
M  V30 6026 N 566.112 -0.949982 1.2575 0
M  V30 6027 C 567.34 -1.72972 1.13527 0
M  V30 6028 C 567.755 -1.8623 -0.310453 0
M  V30 6029 O 567.112 -1.36336 -1.2132 0
M  V30 6030 C 567.163 -3.14108 1.78936 0
M  V30 6031 O 566.884 -3.01493 3.17858 0
M  V30 6032 C 568.385 -4.08338 1.72554 0
M  V30 6033 H 565.605 -0.541864 0.395758 0
M  V30 6034 H 568.149 -1.19151 1.66202 0
M  V30 6035 H 566.304 -3.64858 1.30221 0
M  V30 6036 H 566.718 -3.90559 3.50092 0
M  V30 6037 H 568.192 -5.04963 2.22973 0
M  V30 6038 H 568.669 -4.33742 0.690251 0
M  V30 6039 H 569.275 -3.63506 2.2078 0
M  V30 6040 N 567.59 -1.07411 -1.15328 0
M  V30 6041 C 568.838 -0.796073 -1.85761 0
M  V30 6042 C 569.159 0.679864 -1.82764 0
M  V30 6043 O 568.429 1.49242 -1.269 0
M  V30 6044 H 567.009 -0.291495 -0.687779 0
M  V30 6045 H 569.671 -1.35799 -1.39802 0
M  V30 6046 H 568.767 -1.13114 -2.90881 0
M  V30 6047 N 569.068 1.32177 -0.85831 0
M  V30 6048 C 570.484 1.49873 -0.548656 0
M  V30 6049 C 570.684 1.79278 0.919874 0
M  V30 6050 O 569.74 1.86451 1.70271 0
M  V30 6051 C 571.053 2.64043 -1.4388 0
M  V30 6052 C 572.601 2.77928 -1.43961 0
M  V30 6053 C 573.076 3.95182 -2.31506 0
M  V30 6054 N 574.567 4.0245 -2.29321 0
M  V30 6055 C 575.302 4.9242 -2.93786 0
M  V30 6056 N 574.798 5.87373 -3.67376 0
M  V30 6057 N 576.591 4.85572 -2.83155 0
M  V30 6058 H 568.742 1.11357 -1.80868 0
M  V30 6059 H 571.005 0.549175 -0.772729 0
M  V30 6060 H 570.711 2.49055 -2.48324 0
M  V30 6061 H 570.585 3.59912 -1.12885 0
M  V30 6062 H 572.972 2.92338 -0.402813 0
M  V30 6063 H 573.053 1.82762 -1.78974 0
M  V30 6064 H 572.697 3.81531 -3.35256 0
M  V30 6065 H 572.627 4.89633 -1.93823 0
M  V30 6066 H 575.118 3.34507 -1.75822 0
M  V30 6067 H 575.431 6.52728 -4.13722 0
M  V30 6068 H 573.776 5.87388 -3.71484 0
M  V30 6069 H 576.967 4.10363 -2.25211 0
M  V30 6070 H 577.14 5.55486 -3.33676 0
M  V30 6071 N 570.547 0.616602 1.45037 0
M  V30 6072 C 571.457 -0.0985401 2.34393 0
M  V30 6073 C 572.473 -0.850971 1.51771 0
M  V30 6074 O 573.649 -0.806521 1.84546 0
M  V30 6075 C 570.714 -1.07748 3.29532 0
M  V30 6076 C 569.775 -0.326022 4.2806 0
M  V30 6077 C 569.008 -1.25833 5.18654 0
M  V30 6078 O 569.231 -2.49652 5.12864 0
M  V30 6079 O 568.165 -0.750512 5.97203 0
M  V30 6080 H 571.991 0.636016 2.96966 0
M  V30 6081 H 569.576 0.376832 1.44569 0
M  V30 6082 H 571.458 -1.64107 3.88133 0
M  V30 6083 H 570.133 -1.79291 2.69512 0
M  V30 6084 H 569.04 0.280253 3.73049 0
M  V30 6085 H 570.373 0.349091 4.9096 0
M  V30 6086 N 572.025 -1.5352 0.356285 0
M  V30 6087 C 572.955 -2.28372 -0.486661 0
M  V30 6088 C 573.936 -1.30432 -1.09185 0
M  V30 6089 O 575.121 -1.59291 -1.11085 0
M  V30 6090 C 572.251 -3.06604 -1.63129 0
M  V30 6091 C 571.205 -4.12154 -1.15381 0
M  V30 6092 C 570.531 -4.78415 -2.38796 0
M  V30 6093 C 571.831 -5.21724 -0.245179 0
M  V30 6094 H 573.525 -2.99083 0.137797 0
M  V30 6095 H 571.071 -1.43841 0.0677134 0
M  V30 6096 H 573.024 -3.57712 -2.22755 0
M  V30 6097 H 571.748 -2.33568 -2.28284 0
M  V30 6098 H 570.407 -3.61978 -0.580294 0
M  V30 6099 H 570.055 -4.01959 -3.02387 0
M  V30 6100 H 569.755 -5.49734 -2.07524 0
M  V30 6101 H 571.279 -5.32313 -2.99125 0
M  V30 6102 H 572.693 -5.68391 -0.748646 0
M  V30 6103 H 571.09 -6.00095 -0.0237608 0
M  V30 6104 H 572.16 -4.79596 0.715229 0
M  V30 6105 N 573.503 -0.0852151 -1.57369 0
M  V30 6106 C 574.466 0.8627 -2.12344 0
M  V30 6107 C 575.466 1.21746 -1.05046 0
M  V30 6108 O 576.656 1.14852 -1.30976 0
M  V30 6109 C 573.788 2.1618 -2.63589 0
M  V30 6110 H 574.981 0.385511 -2.97412 0
M  V30 6111 H 572.534 0.163663 -1.55441 0
M  V30 6112 H 573.269 2.68406 -1.82013 0
M  V30 6113 H 573.054 1.91723 -3.4203 0
M  V30 6114 H 574.544 2.84011 -3.06149 0
M  V30 6115 N 574.981 1.5647 0.188427 0
M  V30 6116 C 576.206 1.85486 0.927891 0
M  V30 6117 C 576.631 0.669575 1.75779 0
M  V30 6118 O 575.989 -0.381573 1.77239 0
M  V30 6119 C 576.037 3.12784 1.7944 0
M  V30 6120 O 575.141 2.93805 2.894 0
M  V30 6121 H 574.482 0.610585 0.260925 0
M  V30 6122 H 577.012 2.037 0.191729 0
M  V30 6123 H 577.022 3.43749 2.19774 0
M  V30 6124 H 575.697 3.98671 1.18468 0
M  V30 6125 H 574.274 2.74153 2.52774 0
M  V30 6126 N 576.459 -0.456382 1.50847 0
M  V30 6127 C 577.406 -1.55249 1.70782 0
M  V30 6128 C 578.376 -1.56757 0.549231 0
M  V30 6129 O 579.561 -1.74061 0.7815 0
M  V30 6130 C 576.701 -2.93118 1.82143 0
M  V30 6131 C 575.814 -3.01285 3.09598 0
M  V30 6132 C 574.949 -4.30159 3.11667 0
M  V30 6133 C 573.988 -4.32124 4.33515 0
M  V30 6134 N 573.125 -5.52492 4.3324 0
M  V30 6135 H 577.965 -1.37555 2.64353 0
M  V30 6136 H 575.502 -0.668543 1.3103 0
M  V30 6137 H 577.46 -3.73088 1.86711 0
M  V30 6138 H 576.09 -3.09413 0.919978 0
M  V30 6139 H 575.142 -2.14096 3.14431 0
M  V30 6140 H 576.454 -2.98597 3.99551 0
M  V30 6141 H 575.608 -5.18489 3.15046 0
M  V30 6142 H 574.347 -4.35477 2.1957 0
M  V30 6143 H 573.352 -3.42189 4.30333 0
M  V30 6144 H 574.577 -4.28485 5.26856 0
M  V30 6145 H 572.523 -5.58567 3.44004 0
M  V30 6146 H 572.44 -5.51605 5.16979 0
M  V30 6147 H 573.708 -6.42906 4.40786 0
M  V30 6148 N 577.937 -1.40673 -0.710563 0
M  V30 6149 C 578.869 -1.37256 -1.83558 0
M  V30 6150 C 579.882 -0.277133 -1.60424 0
M  V30 6151 O 581.071 -0.537831 -1.70205 0
M  V30 6152 C 578.171 -1.1144 -3.20054 0
M  V30 6153 C 577.344 -2.32734 -3.70342 0
M  V30 6154 C 576.403 -2.03002 -4.85465 0
M  V30 6155 O 575.429 -2.75912 -4.97857 0
M  V30 6156 N 576.631 -1.01105 -5.71627 0
M  V30 6157 H 579.396 -2.34215 -1.86985 0
M  V30 6158 H 576.957 -1.35091 -0.892301 0
M  V30 6159 H 578.949 -0.895265 -3.94673 0
M  V30 6160 H 577.519 -0.231307 -3.11743 0
M  V30 6161 H 576.739 -2.70446 -2.86798 0
M  V30 6162 H 578.027 -3.13584 -4.00678 0
M  V30 6163 H 577.425 -0.407303 -5.64232 0
M  V30 6164 H 575.982 -0.85182 -6.4621 0
M  V30 6165 N 579.415 0.9433 -1.26252 0
M  V30 6166 C 580.661 1.69175 -1.11837 0
M  V30 6167 C 580.994 1.91238 0.337891 0
M  V30 6168 O 580.269 1.49152 1.24836 0
M  V30 6169 C 580.552 3.06783 -1.88563 0
M  V30 6170 C 580.405 2.9206 -3.42083 0
M  V30 6171 C 581.724 4.06865 -1.67776 0
M  V30 6172 H 578.843 0.61399 -0.407658 0
M  V30 6173 H 581.485 1.09572 -1.55222 0
M  V30 6174 H 579.635 3.57663 -1.51689 0
M  V30 6175 H 581.307 2.48419 -3.88698 0
M  V30 6176 H 579.55 2.27731 -3.69217 0
M  V30 6177 H 580.221 3.89651 -3.90994 0
M  V30 6178 H 582.697 3.64939 -1.99897 0
M  V30 6179 H 581.573 5.01168 -2.23879 0
M  V30 6180 H 581.834 4.37705 -0.621816 0
M  V30 6181 N 580.893 1.08022 1.14757 0
M  V30 6182 C 581.825 0.664566 2.19354 0
M  V30 6183 C 582.838 -0.286374 1.60261 0
M  V30 6184 O 584.027 -0.0746362 1.78344 0
M  V30 6185 C 581.127 -0.0434634 3.38872 0
M  V30 6186 C 580.3 0.925381 4.27499 0
M  V30 6187 C 579.359 0.253398 5.2559 0
M  V30 6188 O 578.385 0.896581 5.62094 0
M  V30 6189 N 579.587 -0.998263 5.71852 0
M  V30 6190 H 582.352 1.56438 2.55631 0
M  V30 6191 H 579.913 0.965788 1.29939 0
M  V30 6192 H 581.905 -0.503857 4.01551 0
M  V30 6193 H 580.475 -0.845321 3.00954 0
M  V30 6194 H 579.695 1.56472 3.61815 0
M  V30 6195 H 580.983 1.58203 4.8358 0
M  V30 6196 H 580.381 -1.54063 5.44317 0
M  V30 6197 H 578.938 -1.40222 6.36538 0
M  V30 6198 N 582.371 -1.3172 0.865308 0
M  V30 6199 C 583.618 -1.96876 0.473931 0
M  V30 6200 C 583.946 -1.68425 -0.972786 0
M  V30 6201 O 583.201 -0.970742 -1.69927 0
M  V30 6202 C 583.5 -3.5102 0.672283 0
M  V30 6203 C 583.166 -3.9948 2.09108 0
M  V30 6204 C 581.828 -4.12425 2.4791 0
M  V30 6205 C 584.18 -4.2503 3.0166 0
M  V30 6206 C 581.508 -4.48267 3.78515 0
M  V30 6207 C 583.86 -4.62335 4.31774 0
M  V30 6208 C 582.524 -4.73486 4.70497 0
M  V30 6209 H 581.794 -0.72042 0.173424 0
M  V30 6210 H 584.441 -1.56937 1.0974 0
M  V30 6211 H 582.746 -3.91785 -0.034356 0
M  V30 6212 H 584.443 -3.99475 0.349353 0
M  V30 6213 H 581.033 -3.89898 1.77981 0
M  V30 6214 H 585.217 -4.14529 2.7291 0
M  V30 6215 H 580.473 -4.55097 4.08285 0
M  V30 6216 H 584.647 -4.81058 5.03543 0
M  V30 6217 H 582.274 -5.01016 5.71741 0
M  V30 6218 N 583.85 -0.624285 -1.44708 0
M  V30 6219 C 585.127 -0.0572781 -1.95516 0
M  V30 6220 C 585.507 1.41516 -1.56641 0
M  V30 6221 O 584.855 2.12614 -0.837111 0
M  V30 6222 C 585.065 -0.272944 -3.47931 0
M  V30 6223 C 586.413 -0.162529 -4.24289 0
M  V30 6224 O 587.437 -0.203946 -3.55616 0
M  V30 6225 O 586.296 -0.0616847 -5.46465 0
M  V30 6226 H 583.389 0.0262219 -0.826584 0
M  V30 6227 H 585.936 -0.695512 -1.54793 0
M  V30 6228 H 584.707 -1.29492 -3.69253 0
M  V30 6229 H 584.331 0.399756 -3.95585 0
M  V30 6230 N 585.328 1.53329 -0.364422 0
M  V30 6231 C 586.739 1.86345 0.115039 0
M  V30 6232 C 587.09 1.28505 1.4826 0
M  V30 6233 O 586.215 0.606639 2.07723 0
M  V30 6234 C 586.81 3.38114 0.215522 0
M  V30 6235 C 585.369 3.70932 0.639237 0
M  V30 6236 C 584.516 2.76471 -0.214261 0
M  V30 6237 H 587.467 1.47593 -0.583258 0
M  V30 6238 H 587.488 3.66031 1.0393 0
M  V30 6239 H 587 3.80182 -0.779948 0
M  V30 6240 H 585.101 3.3442 1.64298 0
M  V30 6241 H 585.214 4.77302 0.41465 0
M  V30 6242 H 583.578 2.52724 0.316678 0
M  V30 6243 H 584.361 3.21373 -1.20725 0
M  V30 6244 N 586.806 0.0935595 1.57322 0
M  V30 6245 C 588.083 -0.612692 1.85756 0
M  V30 6246 C 588.463 -1.86439 0.99013 0
M  V30 6247 O 587.811 -2.28416 0.0621362 0
M  V30 6248 C 588.021 -0.929547 3.36393 0
M  V30 6249 C 589.369 -1.29366 4.04413 0
M  V30 6250 O 590.393 -1.02061 3.41265 0
M  V30 6251 O 589.252 -1.80498 5.15832 0
M  V30 6252 H 586.346 -0.306444 0.768128 0
M  V30 6253 H 588.892 0.126141 1.69231 0
M  V30 6254 H 587.664 -0.0414766 3.91278 0
M  V30 6255 H 587.287 -1.72441 3.5826 0
M  V30 6256 N 588.284 -1.56567 -0.180126 0
M  V30 6257 C 589.509 -1.85975 -0.918041 0
M  V30 6258 C 589.934 -0.678888 -1.75422 0
M  V30 6259 O 589.292 0.372168 -1.77439 0
M  V30 6260 C 589.34 -3.13731 -1.77779 0
M  V30 6261 O 588.444 -2.95335 -2.87838 0
M  V30 6262 H 587.785 -0.61196 -0.257683 0
M  V30 6263 H 590.315 -2.03798 -0.180923 0
M  V30 6264 H 590.325 -3.4491 -2.17948 0
M  V30 6265 H 589 -3.99293 -1.16352 0
M  V30 6266 H 587.577 -2.7549 -2.51316 0
M  V30 6267 N 589.762 0.448376 -1.51087 0
M  V30 6268 C 591.173 1.0286 -1.5581 0
M  V30 6269 C 591.524 1.92583 -0.374989 0
M  V30 6270 O 590.649 2.10316 0.509533 0
M  V30 6271 C 591.244 1.87223 -2.8237 0
M  V30 6272 C 589.803 2.40314 -2.897 0
M  V30 6273 C 588.95 1.19238 -2.50355 0
M  V30 6274 H 591.901 0.230075 -1.57023 0
M  V30 6275 H 591.922 2.72553 -2.6551 0
M  V30 6276 H 591.434 1.21894 -3.68461 0
M  V30 6277 H 589.535 3.09129 -2.08014 0
M  V30 6278 H 589.648 2.73866 -3.93108 0
M  V30 6279 H 588.012 1.53428 -2.03303 0
M  V30 6280 H 588.795 0.555367 -3.38778 0
M  V30 6281 N 591.24 1.41047 0.703093 0
M  V30 6282 C 592.15 1.44645 1.84703 0
M  V30 6283 C 593.166 0.337778 1.7069 0
M  V30 6284 O 594.342 0.584327 1.92737 0
M  V30 6285 C 591.407 1.31928 3.20618 0
M  V30 6286 C 590.468 2.53047 3.46794 0
M  V30 6287 C 589.701 2.40927 4.76224 0
M  V30 6288 O 589.924 1.42978 5.5219 0
M  V30 6289 O 588.858 3.30543 5.03016 0
M  V30 6290 H 592.684 2.41139 1.84624 0
M  V30 6291 H 590.269 1.22504 0.855167 0
M  V30 6292 H 592.151 1.27092 4.01778 0
M  V30 6293 H 590.826 0.385469 3.21397 0
M  V30 6294 H 589.733 2.6346 2.65593 0
M  V30 6295 H 591.066 3.45231 3.50822 0
M  V30 6296 N 592.718 -0.936591 1.26751 0
M  V30 6297 C 593.946 -1.71758 1.15355 0
M  V30 6298 C 594.361 -1.86549 -0.290683 0
M  V30 6299 O 593.718 -1.37616 -1.19868 0
M  V30 6300 C 593.769 -3.12193 1.82258 0
M  V30 6301 O 593.49 -2.98105 3.21038 0
M  V30 6302 C 594.991 -4.06485 1.76875 0
M  V30 6303 H 592.211 -0.537636 0.401483 0
M  V30 6304 H 594.755 -1.17382 1.67457 0
M  V30 6305 H 592.91 -3.63456 1.34083 0
M  V30 6306 H 593.324 -3.86824 3.54214 0
M  V30 6307 H 594.798 -5.02569 2.28316 0
M  V30 6308 H 595.275 -4.32986 0.736216 0
M  V30 6309 H 595.881 -3.61144 2.24623 0
M  V30 6310 N 594.196 -1.08629 -1.14182 0
M  V30 6311 C 595.421 -0.83902 -1.89671 0
M  V30 6312 C 595.846 0.603332 -1.78161 0
M  V30 6313 O 595.204 1.42301 -1.12339 0
M  V30 6314 C 595.252 -1.26854 -3.37551 0
M  V30 6315 O 594.356 -0.42188 -4.10236 0
M  V30 6316 H 593.697 -0.304545 -0.590041 0
M  V30 6317 H 596.227 -1.4483 -1.44518 0
M  V30 6318 H 596.237 -1.25038 -3.88368 0
M  V30 6319 H 594.912 -2.31901 -3.45246 0
M  V30 6320 H 593.489 -0.503654 -3.69483 0
M  V30 6321 N 595.674 1.31259 -0.872281 0
M  V30 6322 C 596.621 2.28459 -0.327857 0
M  V30 6323 C 597.591 1.55831 0.574957 0
M  V30 6324 O 598.776 1.83965 0.506101 0
M  V30 6325 C 595.916 3.41985 0.462644 0
M  V30 6326 C 595.029 4.29458 -0.467949 0
M  V30 6327 C 594.164 5.30131 0.336903 0
M  V30 6328 C 593.203 6.0925 -0.58997 0
M  V30 6329 N 592.34 7.01872 0.178775 0
M  V30 6330 H 597.18 2.74414 -1.16193 0
M  V30 6331 H 594.717 1.34994 -0.584376 0
M  V30 6332 H 596.675 4.06547 0.936759 0
M  V30 6333 H 595.305 2.97134 1.2614 0
M  V30 6334 H 594.357 3.65318 -1.06052 0
M  V30 6335 H 595.669 4.84677 -1.17856 0
M  V30 6336 H 594.823 6.0038 0.873427 0
M  V30 6337 H 593.562 4.75573 1.08079 0
M  V30 6338 H 592.567 5.37889 -1.13823 0
M  V30 6339 H 593.792 6.65894 -1.33275 0
M  V30 6340 H 591.738 6.49721 0.905435 0
M  V30 6341 H 591.655 7.54522 -0.472452 0
M  V30 6342 H 592.923 7.76382 0.696454 0
M  V30 6343 N 597.152 0.631951 1.44375 0
M  V30 6344 C 598.062 -0.073674 2.34484 0
M  V30 6345 C 599.078 -0.834825 1.52665 0
M  V30 6346 O 600.254 -0.786902 1.85391 0
M  V30 6347 C 597.319 -1.04247 3.30656 0
M  V30 6348 C 596.38 -0.280602 4.28382 0
M  V30 6349 C 595.613 -1.20325 5.19959 0
M  V30 6350 O 595.836 -2.44199 5.15484 0
M  V30 6351 O 594.77 -0.687128 5.97965 0
M  V30 6352 H 598.596 0.667477 2.96274 0
M  V30 6353 H 596.181 0.392144 1.44162 0
M  V30 6354 H 598.063 -1.59981 3.89851 0
M  V30 6355 H 596.738 -1.76422 2.71398 0
M  V30 6356 H 595.645 0.319804 3.72731 0
M  V30 6357 H 596.978 0.401144 4.90563 0
M  V30 6358 N 598.631 -1.53133 0.372548 0
M  V30 6359 C 599.877 -2.01654 -0.215277 0
M  V30 6360 C 600.21 -1.25914 -1.47849 0
M  V30 6361 O 599.485 -0.3548 -1.91237 0
M  V30 6362 C 599.768 -3.56609 -0.500187 0
M  V30 6363 C 599.621 -4.43036 0.777145 0
M  V30 6364 C 600.94 -4.20528 -1.29786 0
M  V30 6365 H 598.059 -0.732991 -0.0767686 0
M  V30 6366 H 600.701 -1.83335 0.498814 0
M  V30 6367 H 598.851 -3.7235 -1.10852 0
M  V30 6368 H 600.523 -4.39079 1.41447 0
M  V30 6369 H 598.766 -4.10723 1.39604 0
M  V30 6370 H 599.437 -5.49424 0.532662 0
M  V30 6371 H 601.913 -4.08663 -0.783198 0
M  V30 6372 H 600.789 -5.28962 -1.46596 0
M  V30 6373 H 601.05 -3.77051 -2.30836 0
M  V30 6374 N 600.109 -0.101901 -1.5727 0
M  V30 6375 C 601.334 0.571759 -1.99363 0
M  V30 6376 C 601.759 1.60507 -0.980768 0
M  V30 6377 O 601.117 1.81231 0.0498517 0
M  V30 6378 C 601.165 1.18996 -3.404 0
M  V30 6379 O 600.269 2.30572 -3.41922 0
M  V30 6380 H 599.61 0.144449 -0.648098 0
M  V30 6381 H 602.14 -0.185325 -2.03759 0
M  V30 6382 H 602.15 1.52962 -3.78241 0
M  V30 6383 H 600.825 0.432984 -4.1364 0
M  V30 6384 H 599.402 1.98173 -3.15883 0
M  V30 6385 N 601.587 1.56661 0.17182 0
M  V30 6386 C 602.55 1.9549 1.19651 0
M  V30 6387 C 603.55 0.838501 1.37207 0
M  V30 6388 O 604.74 1.10556 1.34622 0
M  V30 6389 C 601.872 2.24927 2.56166 0
M  V30 6390 H 603.065 2.87184 0.864007 0
M  V30 6391 H 600.618 1.50711 0.41425 0
M  V30 6392 H 601.353 1.35944 2.94431 0
M  V30 6393 H 601.138 3.06301 2.4479 0
M  V30 6394 H 602.628 2.55891 3.30014 0
M  V30 6395 N 603.065 -0.440357 1.51323 0
M  V30 6396 C 603.995 -1.54174 1.75364 0
M  V30 6397 C 604.976 -1.59039 0.603375 0
M  V30 6398 O 606.161 -1.74815 0.845774 0
M  V30 6399 C 603.291 -2.92277 1.87593 0
M  V30 6400 C 602.245 -3.02274 3.03009 0
M  V30 6401 C 601.571 -4.42327 3.00418 0
M  V30 6402 C 602.871 -2.76634 4.43024 0
M  V30 6403 H 604.565 -1.34307 2.67585 0
M  V30 6404 H 602.111 -0.644678 1.28763 0
M  V30 6405 H 604.064 -3.69284 2.02995 0
M  V30 6406 H 602.788 -3.13369 0.920179 0
M  V30 6407 H 601.447 -2.27706 2.87307 0
M  V30 6408 H 601.095 -4.60382 2.02626 0
M  V30 6409 H 600.795 -4.49946 3.77918 0
M  V30 6410 H 602.319 -5.21312 3.17909 0
M  V30 6411 H 603.733 -3.43376 4.59093 0
M  V30 6412 H 602.13 -2.95666 5.22208 0
M  V30 6413 H 603.2 -1.72262 4.5327 0
M  V30 6414 N 604.543 -1.41418 -0.695603 0
M  V30 6415 C 605.453 -1.45622 -1.83933 0
M  V30 6416 C 606.469 -0.346825 -1.70508 0
M  V30 6417 O 607.645 -0.59454 -1.92424 0
M  V30 6418 C 604.71 -1.33627 -3.19914 0
M  V30 6419 C 603.771 -2.54882 -3.45447 0
M  V30 6420 C 603.004 -2.43449 -4.7494 0
M  V30 6421 O 603.227 -1.45905 -5.51424 0
M  V30 6422 O 602.161 -3.33206 -5.01256 0
M  V30 6423 H 605.987 -2.42114 -1.83342 0
M  V30 6424 H 603.572 -1.22956 -0.848658 0
M  V30 6425 H 605.454 -1.29221 -4.01098 0
M  V30 6426 H 604.129 -0.402508 -3.21188 0
M  V30 6427 H 603.036 -2.64865 -2.64192 0
M  V30 6428 H 604.369 -3.47087 -3.48987 0
M  V30 6429 N 606.021 0.929856 -1.27246 0
M  V30 6430 C 607.261 1.6919 -1.14691 0
M  V30 6431 C 607.625 1.896 0.302621 0
M  V30 6432 O 608.826 2.63102 0.550543 0
M  V30 6433 C 607.097 3.02291 -1.9067 0
M  V30 6434 S 608.656 3.93436 -1.94303 0
M  V30 6435 H 605.474 0.581248 -0.409477 0
M  V30 6436 H 608.076 1.10722 -1.61124 0
M  V30 6437 H 606.78 2.85125 -2.95181 0
M  V30 6438 H 606.311 3.65813 -1.44723 0
M  V30 6439 H 608.326 4.85224 -1.0379 0
M  V30 6440 N 607.499 1.09233 1.13605 0
M  V30 6441 C 608.409 0.741939 2.22559 0
M  V30 6442 C 609.425 -0.255236 1.72118 0
M  V30 6443 O 610.601 -0.0970747 2.01166 0
M  V30 6444 C 607.666 0.165595 3.46304 0
M  V30 6445 C 606.727 1.21846 4.11645 0
M  V30 6446 C 605.96 0.669526 5.29484 0
M  V30 6447 O 606.183 -0.508228 5.68131 0
M  V30 6448 O 605.117 1.42361 5.84822 0
M  V30 6449 H 608.943 1.65107 2.54899 0
M  V30 6450 H 606.528 0.866584 1.21699 0
M  V30 6451 H 608.41 -0.152592 4.21124 0
M  V30 6452 H 607.085 -0.716573 3.15669 0
M  V30 6453 H 605.992 1.58931 3.38662 0
M  V30 6454 H 607.325 2.07321 4.46407 0
M  V30 6455 N 608.977 -1.30795 0.87923 0
M  V30 6456 C 610.226 -1.95636 0.490875 0
M  V30 6457 C 610.539 -1.70214 -0.963674 0
M  V30 6458 O 611.745 -2.28991 -1.45861 0
M  V30 6459 C 610.201 -3.50271 0.826929 0
M  V30 6460 C 609.809 -3.84521 2.29886 0
M  V30 6461 C 611.553 -4.21456 0.507494 0
M  V30 6462 C 609.46 -5.32309 2.57685 0
M  V30 6463 H 608.39 -0.732238 0.179841 0
M  V30 6464 H 611.041 -1.48829 1.07341 0
M  V30 6465 H 609.423 -3.9562 0.173542 0
M  V30 6466 H 610.597 -3.50102 2.99609 0
M  V30 6467 H 608.912 -3.26425 2.58526 0
M  V30 6468 H 611.509 -5.30199 0.692293 0
M  V30 6469 H 611.852 -4.12614 -0.552718 0
M  V30 6470 H 612.385 -3.81772 1.11782 0
M  V30 6471 H 609.124 -5.46195 3.62424 0
M  V30 6472 H 608.644 -5.68048 1.92566 0
M  V30 6473 H 610.323 -5.99678 2.42889 0
M  V30 6474 N 610.455 -0.639598 -1.44038 0
M  V30 6475 C 611.387 0.0987684 -2.28987 0
M  V30 6476 C 612.4 0.80058 -1.41755 0
M  V30 6477 O 613.589 0.660611 -1.65826 0
M  V30 6478 C 610.689 1.16242 -3.18341 0
M  V30 6479 C 609.862 0.541447 -4.34036 0
M  V30 6480 C 608.921 1.50017 -5.04362 0
M  V30 6481 O 607.947 1.01403 -5.60095 0
M  V30 6482 N 609.149 2.83441 -5.06598 0
M  V30 6483 H 611.914 -0.630305 -2.92997 0
M  V30 6484 H 609.475 -0.481376 -1.54578 0
M  V30 6485 H 611.467 1.80429 -3.62253 0
M  V30 6486 H 610.037 1.79362 -2.56024 0
M  V30 6487 H 609.257 -0.27923 -3.9321 0
M  V30 6488 H 610.545 0.107379 -5.08687 0
M  V30 6489 H 609.943 3.2551 -4.62666 0
M  V30 6490 H 608.5 3.42966 -5.54272 0
M  V30 6491 N 611.933 1.52934 -0.380664 0
M  V30 6492 C 612.863 2.29118 0.450268 0
M  V30 6493 C 613.844 1.32153 1.07096 0
M  V30 6494 O 615.029 1.61038 1.08537 0
M  V30 6495 C 612.159 3.09161 1.58231 0
M  V30 6496 C 611.113 4.13938 1.0881 0
M  V30 6497 C 610.439 4.82153 2.31155 0
M  V30 6498 C 611.739 5.22048 0.162146 0
M  V30 6499 H 613.433 2.98826 -0.185361 0
M  V30 6500 H 610.979 1.43715 -0.0905886 0
M  V30 6501 H 612.932 3.61211 2.17036 0
M  V30 6502 H 611.656 2.3717 2.2454 0
M  V30 6503 H 610.315 3.62855 0.522633 0
M  V30 6504 H 609.963 4.06719 2.95953 0
M  V30 6505 H 609.663 5.52966 1.98752 0
M  V30 6506 H 611.187 5.37004 2.90618 0
M  V30 6507 H 612.601 5.6951 0.658126 0
M  V30 6508 H 610.998 6.00057 -0.0717122 0
M  V30 6509 H 612.068 4.78398 -0.791438 0
M  V30 6510 N 613.412 0.11024 1.57214 0
M  V30 6511 C 614.342 -0.840002 2.17867 0
M  V30 6512 C 615.323 -1.28352 1.11624 0
M  V30 6513 O 616.508 -1.3477 1.39824 0
M  V30 6514 C 613.638 -2.09349 2.77111 0
M  V30 6515 C 612.592 -1.78807 3.8886 0
M  V30 6516 C 611.918 -3.11112 4.34872 0
M  V30 6517 C 613.218 -1.0632 5.11364 0
M  V30 6518 H 614.912 -0.334608 2.97524 0
M  V30 6519 H 612.458 -0.159502 1.43114 0
M  V30 6520 H 614.411 -2.76275 3.18198 0
M  V30 6521 H 613.135 -2.62198 1.9473 0
M  V30 6522 H 611.794 -1.14273 3.48335 0
M  V30 6523 H 611.442 -3.61877 3.49362 0
M  V30 6524 H 611.142 -2.91453 5.10224 0
M  V30 6525 H 612.666 -3.79171 4.78604 0
M  V30 6526 H 614.08 -1.63383 5.49526 0
M  V30 6527 H 612.477 -0.967876 5.92243 0
M  V30 6528 H 613.547 -0.0484569 4.84876 0
M  V30 6529 N 614.89 -1.56749 -0.16351 0
M  V30 6530 C 615.837 -1.97011 -1.2023 0
M  V30 6531 C 616.807 -0.835186 -1.43575 0
M  V30 6532 O 617.992 -1.09594 -1.56185 0
M  V30 6533 C 615.132 -2.34186 -2.53478 0
M  V30 6534 C 614.245 -3.60893 -2.37446 0
M  V30 6535 C 613.38 -3.87245 -3.63614 0
M  V30 6536 C 612.419 -5.07274 -3.42548 0
M  V30 6537 N 611.556 -5.29719 -4.60806 0
M  V30 6538 H 616.396 -2.85562 -0.851958 0
M  V30 6539 H 613.933 -1.41292 -0.409257 0
M  V30 6540 H 615.891 -2.53764 -3.31149 0
M  V30 6541 H 614.521 -1.48736 -2.86492 0
M  V30 6542 H 613.573 -3.49185 -1.50911 0
M  V30 6543 H 614.885 -4.48722 -2.1783 0
M  V30 6544 H 614.039 -4.07232 -4.49719 0
M  V30 6545 H 612.778 -2.97806 -3.86216 0
M  V30 6546 H 611.783 -4.87177 -2.5483 0
M  V30 6547 H 613.008 -5.98251 -3.2136 0
M  V30 6548 H 610.954 -4.43233 -4.83612 0
M  V30 6549 H 610.871 -6.11786 -4.44132 0
M  V30 6550 H 612.139 -5.54192 -5.48171 0
M  V30 6551 N 616.368 0.432326 -1.51554 0
M  V30 6552 C 617.316 1.54572 -1.73811 0
M  V30 6553 C 618.31 1.58246 -0.604539 0
M  V30 6554 O 619.516 1.6193 -0.786041 0
M  V30 6555 H 615.891 0.513626 -0.549265 0
M  V30 6556 H 617.862 1.32977 -2.67132 0
M  V30 6557 C 616.611 2.92181 -1.88483 0
M  V30 6558 H 615.934 2.90088 -2.75116 0
M  V30 6559 H 617.374 3.69439 -2.08065 0
M  V30 6560 C 615.833 3.3065 -0.645909 0
M  V30 6561 O 616.363 4.01216 0.197093 0
M  V30 6562 N 614.569 2.86464 -0.488538 0
M  V30 6563 H 614.116 2.29209 -1.17562 0
M  V30 6564 H 614.074 3.12565 0.339156 0
M  V30 6565 N 617.846 1.41785 0.688094 0
M  V30 6566 C 618.776 1.47 1.8142 0
M  V30 6567 C 619.757 0.327881 1.6691 0
M  V30 6568 O 620.942 0.540362 1.86531 0
M  V30 6569 C 618.072 1.35876 3.19617 0
M  V30 6570 C 617.026 2.47976 3.48844 0
M  V30 6571 C 616.352 2.21915 4.86475 0
M  V30 6572 C 617.652 3.90309 3.47068 0
M  V30 6573 H 619.346 2.41247 1.77314 0
M  V30 6574 H 616.892 1.16116 0.851651 0
M  V30 6575 H 618.845 1.38134 3.98117 0
M  V30 6576 H 617.569 0.38116 3.24368 0
M  V30 6577 H 616.228 2.45013 2.72698 0
M  V30 6578 H 615.876 1.2248 4.8786 0
M  V30 6579 H 615.576 2.97037 5.06994 0
M  V30 6580 H 617.1 2.25901 5.67275 0
M  V30 6581 H 618.514 3.94947 4.1556 0
M  V30 6582 H 616.911 4.65175 3.7912 0
M  V30 6583 H 617.981 4.17927 2.45896 0
M  V30 6584 N 619.324 -0.923095 1.27737 0
M  V30 6585 C 620.256 -2.02871 1.06658 0
M  V30 6586 C 621.269 -1.62786 0.0212095 0
M  V30 6587 O 622.458 -1.76548 0.263267 0
M  V30 6588 C 619.558 -3.33603 0.59682 0
M  V30 6589 C 618.731 -4.02354 1.71551 0
M  V30 6590 C 617.79 -5.11364 1.24071 0
M  V30 6591 O 616.816 -5.35075 1.94123 0
M  V30 6592 N 618.018 -5.80416 0.0988444 0
M  V30 6593 H 620.783 -2.21515 2.01869 0
M  V30 6594 H 618.344 -1.09378 1.19365 0
M  V30 6595 H 620.336 -4.03845 0.262984 0
M  V30 6596 H 618.906 -3.11499 -0.262187 0
M  V30 6597 H 618.126 -3.25786 2.2194 0
M  V30 6598 H 619.414 -4.45035 2.46619 0
M  V30 6599 H 618.812 -5.63611 -0.485743 0
M  V30 6600 H 617.369 -6.51563 -0.17578 0
M  V30 6601 N 620.802 -1.09834 -1.13024 0
M  V30 6602 C 621.752 -0.710899 -2.16634 0
M  V30 6603 C 622.736 0.276836 -1.58501 0
M  V30 6604 O 623.928 0.0865457 -1.76788 0
M  V30 6605 C 621.057 -0.137574 -3.43024 0
M  V30 6606 C 620.143 -1.15198 -4.08155 0
M  V30 6607 N 620.534 -2.34054 -4.48388 0
M  V30 6608 C 618.832 -0.991074 -4.34849 0
M  V30 6609 C 619.533 -2.98616 -4.99203 0
M  V30 6610 N 618.509 -2.26159 -4.94321 0
M  V30 6611 H 622.311 -1.61576 -2.455 0
M  V30 6612 H 619.825 -0.975158 -1.29863 0
M  V30 6613 H 621.822 0.158031 -4.166 0
M  V30 6614 H 620.482 0.762088 -3.1563 0
M  V30 6615 H 621.493 -2.7162 -4.40957 0
M  V30 6616 H 618.17 -0.146448 -4.17243 0
M  V30 6617 H 619.56 -3.99683 -5.40096 0
M  V30 6618 N 622.28 1.30327 -0.886154 0
M  V30 6619 C 623.19 2.31854 -0.357866 0
M  V30 6620 C 624.206 1.65392 0.540502 0
M  V30 6621 O 625.382 1.96683 0.433339 0
M  V30 6622 C 622.447 3.44171 0.417999 0
M  V30 6623 C 621.508 4.26257 -0.510263 0
M  V30 6624 C 620.741 5.3321 0.228669 0
M  V30 6625 O 620.964 5.51542 1.45458 0
M  V30 6626 O 619.898 6.0042 -0.421832 0
M  V30 6627 H 623.724 2.78995 -1.19982 0
M  V30 6628 H 621.309 1.34518 -0.650028 0
M  V30 6629 H 623.191 4.12588 0.857251 0
M  V30 6630 H 621.866 2.99164 1.23623 0
M  V30 6631 H 620.773 3.60533 -0.99835 0
M  V30 6632 H 622.106 4.74871 -1.29454 0
M  V30 6633 N 623.758 0.647228 1.43697 0
M  V30 6634 C 625.174 0.314256 1.56476 0
M  V30 6635 C 625.374 -1.18191 1.63196 0
M  V30 6636 O 624.43 -1.96655 1.58376 0
M  V30 6637 C 625.743 1.02034 2.82859 0
M  V30 6638 C 627.291 1.00002 2.96595 0
M  V30 6639 C 627.766 1.68689 4.25803 0
M  V30 6640 N 629.257 1.65424 4.32654 0
M  V30 6641 C 629.992 2.1545 5.31384 0
M  V30 6642 N 629.488 2.73738 6.36427 0
M  V30 6643 N 631.281 2.05985 5.22998 0
M  V30 6644 H 623.432 1.61821 1.37578 0
M  V30 6645 H 625.695 0.680184 0.660344 0
M  V30 6646 H 625.401 2.07542 2.83935 0
M  V30 6647 H 625.275 0.568146 3.72897 0
M  V30 6648 H 627.662 -0.0466319 2.95063 0
M  V30 6649 H 627.743 1.49086 2.07863 0
M  V30 6650 H 627.387 2.73308 4.28095 0
M  V30 6651 H 627.317 1.17076 5.13421 0
M  V30 6652 H 629.808 1.22884 3.57363 0
M  V30 6653 H 630.121 3.09602 7.08072 0
M  V30 6654 H 628.466 2.77796 6.37067 0
M  V30 6655 H 631.657 1.60157 4.39849 0
M  V30 6656 H 631.83 2.45281 5.99784 0
M  V30 6657 N 625.236 -1.5273 0.388769 0
M  V30 6658 C 626.485 -2.00757 -0.194833 0
M  V30 6659 C 626.798 -1.27951 -1.47946 0
M  V30 6660 O 628.004 -1.66686 -2.14308 0
M  V30 6661 C 626.46 -3.57695 -0.397762 0
M  V30 6662 C 626.068 -4.394 0.873583 0
M  V30 6663 C 627.812 -4.14012 -0.937759 0
M  V30 6664 C 625.719 -5.87938 0.638962 0
M  V30 6665 H 624.649 -0.750101 -0.0765845 0
M  V30 6666 H 627.3 -1.76239 0.511086 0
M  V30 6667 H 625.682 -3.7846 -1.16552 0
M  V30 6668 H 626.856 -4.30403 1.64591 0
M  V30 6669 H 625.171 -3.94301 1.33849 0
M  V30 6670 H 627.768 -5.22645 -1.12899 0
M  V30 6671 H 628.111 -3.7007 -1.90666 0
M  V30 6672 H 628.644 -3.97137 -0.229588 0
M  V30 6673 H 625.383 -6.36202 1.57885 0
M  V30 6674 H 624.903 -5.99726 -0.094443 0
M  V30 6675 H 626.582 -6.46423 0.273299 0
M  V30 6676 N 626.714 -0.118576 -1.57153 0
M  V30 6677 C 627.96 0.540326 -1.95469 0
M  V30 6678 C 628.293 1.66356 -1.00196 0
M  V30 6679 O 627.568 1.94461 -0.039104 0
M  V30 6680 C 627.851 1.07342 -3.43729 0
M  V30 6681 C 627.704 -0.0463732 -4.49776 0
M  V30 6682 C 629.023 1.96442 -3.93826 0
M  V30 6683 H 626.142 0.19494 -0.710751 0
M  V30 6684 H 628.784 -0.19405 -1.89006 0
M  V30 6685 H 626.934 1.69925 -3.49368 0
M  V30 6686 H 628.606 -0.681648 -4.56236 0
M  V30 6687 H 626.849 -0.709574 -4.27957 0
M  V30 6688 H 627.52 0.367856 -5.50773 0
M  V30 6689 H 629.996 1.43731 -3.90488 0
M  V30 6690 H 628.872 2.3066 -4.98084 0
M  V30 6691 H 629.133 2.89077 -3.34495 0
M  V30 6692 N 628.193 1.56834 0.155195 0
M  V30 6693 C 629.125 1.94235 1.21677 0
M  V30 6694 C 630.138 0.83724 1.39621 0
M  V30 6695 O 631.327 1.11567 1.39338 0
M  V30 6696 C 628.427 2.19402 2.58294 0
M  V30 6697 C 627.6 3.50671 2.61436 0
M  V30 6698 C 626.659 3.64475 3.79532 0
M  V30 6699 O 625.685 4.36945 3.64784 0
M  V30 6700 N 626.887 3.00526 4.96653 0
M  V30 6701 H 629.652 2.85901 0.898932 0
M  V30 6702 H 627.213 1.58185 0.34483 0
M  V30 6703 H 629.205 2.25886 3.35794 0
M  V30 6704 H 627.775 1.34042 2.82403 0
M  V30 6705 H 626.995 3.55702 1.69912 0
M  V30 6706 H 628.283 4.3702 2.60559 0
M  V30 6707 H 627.681 2.41549 5.11538 0
M  V30 6708 H 626.238 3.12583 5.71958 0
M  V30 6709 N 629.671 -0.424282 1.51781 0
M  V30 6710 C 630.901 -1.19297 1.68677 0
M  V30 6711 C 631.309 -1.85152 0.389258 0
M  V30 6712 O 630.652 -1.72067 -0.643311 0
M  V30 6713 C 630.714 -2.30929 2.75521 0
M  V30 6714 C 630.378 -1.85335 4.17732 0
M  V30 6715 C 631.375 -1.34951 5.0208 0
M  V30 6716 C 629.06 -1.92629 4.63896 0
M  V30 6717 C 631.054 -0.924636 6.30658 0
M  V30 6718 C 628.741 -1.49754 5.92467 0
M  V30 6719 C 629.739 -0.997543 6.75676 0
M  V30 6720 O 629.427 -0.57492 8.01842 0
M  V30 6721 H 629.159 -0.36512 0.568914 0
M  V30 6722 H 631.713 -0.507327 1.99036 0
M  V30 6723 H 629.943 -3.02811 2.40505 0
M  V30 6724 H 631.632 -2.92748 2.81165 0
M  V30 6725 H 632.398 -1.287 4.67612 0
M  V30 6726 H 628.277 -2.30491 3.99243 0
M  V30 6727 H 631.821 -0.533682 6.95556 0
M  V30 6728 H 627.718 -1.55679 6.26446 0
M  V30 6729 H 628.486 -0.699597 8.15505 0
M  V30 6730 N 631.149 -1.42148 -0.680565 0
M  V30 6731 C 632.379 -1.45485 -1.46689 0
M  V30 6732 C 632.787 -0.0629451 -1.89095 0
M  V30 6733 O 632.13 0.931397 -1.58337 0
M  V30 6734 C 632.192 -2.31397 -2.75129 0
M  V30 6735 C 631.856 -3.79353 -2.54834 0
M  V30 6736 C 632.853 -4.71148 -2.19808 0
M  V30 6737 C 630.538 -4.23557 -2.70008 0
M  V30 6738 C 632.532 -6.05139 -2.00215 0
M  V30 6739 C 630.219 -5.57609 -2.50031 0
M  V30 6740 C 631.217 -6.48216 -2.15187 0
M  V30 6741 O 630.905 -7.79792 -1.95397 0
M  V30 6742 H 630.637 -0.497139 -0.458071 0
M  V30 6743 H 633.191 -1.87252 -0.844139 0
M  V30 6744 H 631.421 -1.84468 -3.39865 0
M  V30 6745 H 633.11 -2.26257 -3.36991 0
M  V30 6746 H 633.876 -4.38282 -2.07686 0
M  V30 6747 H 629.755 -3.53327 -2.96109 0
M  V30 6748 H 633.299 -6.75823 -1.72941 0
M  V30 6749 H 629.196 -5.9005 -2.61748 0
M  V30 6750 H 629.964 -7.91091 -2.10042 0
M  V30 6751 N 632.627 0.916307 -1.28225 0
M  V30 6752 C 633.875 1.6619 -1.15002 0
M  V30 6753 C 634.196 1.92642 0.302329 0
M  V30 6754 O 633.466 1.54076 1.20985 0
M  V30 6755 H 632.046 0.615964 -0.422608 0
M  V30 6756 H 634.708 1.09963 -1.60917 0
M  V30 6757 H 633.804 2.62533 -1.68769 0
M  V30 6758 N 634.105 1.10431 1.1244 0
M  V30 6759 C 635.345 0.856518 1.85589 0
M  V30 6760 C 635.709 -0.606905 1.82156 0
M  V30 6761 O 636.91 -0.97105 2.50647 0
M  V30 6762 C 635.181 1.38977 3.29272 0
M  V30 6763 S 636.74 1.27739 4.19795 0
M  V30 6764 H 633.558 0.309509 0.640098 0
M  V30 6765 H 636.16 1.40975 1.35449 0
M  V30 6766 H 634.864 2.44887 3.2933 0
M  V30 6767 H 634.395 0.833112 3.84477 0
M  V30 6768 H 636.41 0.235051 4.95643 0
M  V30 6769 N 635.583 -1.29855 0.893053 0
M  V30 6770 C 636.513 -2.3035 0.382249 0
M  V30 6771 C 637.494 -1.61328 -0.539203 0
M  V30 6772 O 638.679 -1.88882 -0.451342 0
M  V30 6773 C 635.809 -3.45024 -0.396983 0
M  V30 6774 C 634.763 -4.258 0.433437 0
M  V30 6775 C 634.089 -5.32605 -0.472889 0
M  V30 6776 C 635.389 -4.94549 1.67984 0
M  V30 6777 H 637.083 -2.73325 1.22205 0
M  V30 6778 H 634.629 -1.314 0.589073 0
M  V30 6779 H 636.582 -4.14398 -0.765024 0
M  V30 6780 H 635.306 -3.00875 -1.2705 0
M  V30 6781 H 633.965 -3.58125 0.783723 0
M  V30 6782 H 633.613 -4.84702 -1.34435 0
M  V30 6783 H 633.313 -5.87547 0.0789958 0
M  V30 6784 H 634.837 -6.04832 -0.837269 0
M  V30 6785 H 636.251 -5.56395 1.38192 0
M  V30 6786 H 634.648 -5.59393 2.17254 0
M  V30 6787 H 635.718 -4.20215 2.41965 0
M  V30 6788 N 637.061 -0.65484 -1.43351 0
M  V30 6789 C 638.477 -0.32255 -1.56307 0
M  V30 6790 C 638.677 1.17324 -1.63821 0
M  V30 6791 O 637.733 1.95813 -1.59417 0
M  V30 6792 C 639.046 -1.03533 -2.82314 0
M  V30 6793 C 640.594 -1.01574 -2.9606 0
M  V30 6794 C 641.069 -1.70945 -4.24902 0
M  V30 6795 N 642.56 -1.67716 -4.3177 0
M  V30 6796 C 643.295 -2.18265 -5.30234 0
M  V30 6797 N 642.791 -2.7711 -6.34966 0
M  V30 6798 N 644.584 -2.08756 -5.21898 0
M  V30 6799 H 636.735 -1.62549 -1.36717 0
M  V30 6800 H 638.998 -0.683676 -0.656727 0
M  V30 6801 H 638.704 -2.09045 -2.8283 0
M  V30 6802 H 638.578 -0.587913 -3.7259 0
M  V30 6803 H 640.965 0.0309834 -2.95084 0
M  V30 6804 H 641.046 -1.50186 -2.07069 0
M  V30 6805 H 640.69 -2.75574 -4.26639 0
M  V30 6806 H 640.62 -1.19797 -5.12793 0
M  V30 6807 H 643.111 -1.24777 -3.56706 0
M  V30 6808 H 643.424 -3.13353 -7.06421 0
M  V30 6809 H 641.769 -2.81171 -6.35585 0
M  V30 6810 H 644.96 -1.62488 -4.38994 0
M  V30 6811 H 645.133 -2.48459 -5.98475 0
M  V30 6812 N 638.539 1.52521 -0.396863 0
M  V30 6813 C 639.816 1.94112 0.240842 0
M  V30 6814 C 640.196 1.33288 1.637 0
M  V30 6815 O 639.544 0.503901 2.22875 0
M  V30 6816 C 639.754 3.48033 0.259567 0
M  V30 6817 C 641.102 4.21822 0.484866 0
M  V30 6818 O 642.126 3.54579 0.339453 0
M  V30 6819 O 640.985 5.41042 0.770412 0
M  V30 6820 H 638.079 0.812973 0.151671 0
M  V30 6821 H 640.625 1.63572 -0.451918 0
M  V30 6822 H 639.397 3.84655 -0.718078 0
M  V30 6823 H 639.02 3.84899 0.996937 0
M  V30 6824 N 640.017 0.126909 1.57088 0
M  V30 6825 C 641.433 -0.229641 1.57939 0
M  V30 6826 C 641.633 -1.66145 1.1401 0
M  V30 6827 O 640.689 -2.3843 0.831119 0
M  V30 6828 C 642.002 0.0108648 3.00698 0
M  V30 6829 C 643.55 -0.054418 3.12953 0
M  V30 6830 C 644.025 0.158497 4.57726 0
M  V30 6831 N 645.516 0.104735 4.63082 0
M  V30 6832 C 646.251 0.24427 5.72879 0
M  V30 6833 N 645.747 0.440415 6.91399 0
M  V30 6834 N 647.54 0.183286 5.61801 0
M  V30 6835 H 639.691 1.06203 1.83942 0
M  V30 6836 H 641.954 0.418834 0.85046 0
M  V30 6837 H 641.66 1.00102 3.37154 0
M  V30 6838 H 641.534 -0.717512 3.70313 0
M  V30 6839 H 643.921 -1.0351 2.7635 0
M  V30 6840 H 644.002 0.705967 2.45865 0
M  V30 6841 H 643.646 1.13619 4.95028 0
M  V30 6842 H 643.576 -0.62197 5.22914 0
M  V30 6843 H 646.067 -0.0430298 3.77876 0
M  V30 6844 H 646.38 0.537536 7.70928 0
M  V30 6845 H 644.725 0.476488 6.93365 0
M  V30 6846 H 647.916 0.0309561 4.6809 0
M  V30 6847 H 648.089 0.295471 6.47326 0
M  V30 6848 N 641.495 -1.56914 -0.146875 0
M  V30 6849 C 642.458 -1.97368 -1.16526 0
M  V30 6850 C 643.458 -0.860223 -1.35856 0
M  V30 6851 O 644.648 -1.12684 -1.32846 0
M  V30 6852 C 641.78 -2.28974 -2.52555 0
M  V30 6853 H 642.973 -2.88523 -0.818209 0
M  V30 6854 H 640.526 -1.5135 -0.390221 0
M  V30 6855 H 641.261 -1.40611 -2.92231 0
M  V30 6856 H 641.046 -3.10157 -2.39886 0
M  V30 6857 H 642.536 -2.61109 -3.25902 0
M  V30 6858 N 642.974 0.416227 -1.52004 0
M  V30 6859 C 643.884 1.53147 -1.77717 0
M  V30 6860 C 644.9 1.609 -0.662368 0
M  V30 6861 O 646.076 1.77747 -0.946991 0
M  V30 6862 C 643.141 2.88948 -1.91598 0
M  V30 6863 C 642.202 2.9114 -3.15493 0
M  V30 6864 C 641.435 4.20464 -3.28703 0
M  V30 6865 O 641.658 5.13981 -2.47345 0
M  V30 6866 O 640.592 4.29368 -4.21813 0
M  V30 6867 H 644.418 1.34357 -2.72363 0
M  V30 6868 H 642.003 0.601373 -1.36762 0
M  V30 6869 H 643.885 3.69505 -2.02593 0
M  V30 6870 H 642.56 3.07821 -1.00141 0
M  V30 6871 H 641.467 2.09461 -3.09962 0
M  V30 6872 H 642.8 2.77216 -4.06709 0
M  V30 6873 N 644.452 1.42507 0.673017 0
M  V30 6874 C 645.399 1.46124 1.78651 0
M  V30 6875 C 646.369 0.313007 1.63124 0
M  V30 6876 O 647.554 0.517337 1.83653 0
M  V30 6877 C 644.694 1.3711 3.16694 0
M  V30 6878 C 643.807 2.61983 3.43495 0
M  V30 6879 C 642.942 2.45098 4.71275 0
M  V30 6880 C 641.981 3.65336 4.91117 0
M  V30 6881 N 641.118 3.47383 6.10139 0
M  V30 6882 H 645.958 2.4128 1.74895 0
M  V30 6883 H 643.495 1.19788 0.853766 0
M  V30 6884 H 645.453 1.29881 3.96468 0
M  V30 6885 H 644.083 0.45549 3.1957 0
M  V30 6886 H 643.135 2.79571 2.57961 0
M  V30 6887 H 644.447 3.51355 3.5405 0
M  V30 6888 H 643.601 2.35466 5.59143 0
M  V30 6889 H 642.34 1.53219 4.63007 0
M  V30 6890 H 641.345 3.754 4.0169 0
M  V30 6891 H 642.57 4.58199 5.01229 0
M  V30 6892 H 640.516 2.58222 6.0304 0
M  V30 6893 H 640.433 4.30344 6.21563 0
M  V30 6894 H 641.701 3.41565 7.00681 0
M  V30 6895 N 645.93 -0.909495 1.28709 0
M  V30 6896 C 647.158 -1.69272 1.18973 0
M  V30 6897 C 647.573 -1.87123 -0.251048 0
M  V30 6898 O 646.93 -1.40127 -1.16922 0
M  V30 6899 C 646.981 -3.08257 1.88839 0
M  V30 6900 O 646.702 -2.91228 3.27289 0
M  V30 6901 C 648.203 -4.02642 1.85457 0
M  V30 6902 H 645.423 -0.528999 0.412797 0
M  V30 6903 H 647.967 -1.13803 1.69909 0
M  V30 6904 H 646.122 -3.6053 1.41762 0
M  V30 6905 H 646.536 -3.79223 3.6234 0
M  V30 6906 H 648.01 -4.97613 2.38925 0
M  V30 6907 H 648.487 -4.31327 0.827893 0
M  V30 6908 H 649.093 -3.56298 2.32233 0
M  V30 6909 N 647.408 -1.11026 -1.11852 0
M  V30 6910 C 648.338 -0.786812 -2.19844 0
M  V30 6911 C 649.319 0.242935 -1.68356 0
M  V30 6912 O 650.504 0.107355 -1.93903 0
M  V30 6913 C 647.634 -0.224516 -3.46574 0
M  V30 6914 C 646.588 -1.18564 -4.1125 0
M  V30 6915 C 645.914 -0.484261 -5.32503 0
M  V30 6916 C 647.214 -2.53465 -4.56676 0
M  V30 6917 H 648.908 -1.68978 -2.47158 0
M  V30 6918 H 646.454 -0.813906 -1.18792 0
M  V30 6919 H 648.407 0.0139435 -4.21398 0
M  V30 6920 H 647.131 0.713722 -3.18706 0
M  V30 6921 H 645.79 -1.40966 -3.38414 0
M  V30 6922 H 645.438 0.458646 -5.00905 0
M  V30 6923 H 645.138 -1.12526 -5.76725 0
M  V30 6924 H 646.662 -0.254492 -6.10069 0
M  V30 6925 H 648.076 -2.35177 -5.22843 0
M  V30 6926 H 646.473 -3.13507 -5.11697 0
M  V30 6927 H 647.543 -3.13008 -3.70343 0
M  V30 6928 N 648.886 1.2938 -0.899927 0
M  V30 6929 C 650.114 1.99691 -0.541386 0
M  V30 6930 C 650.529 1.67355 0.873936 0
M  V30 6931 O 649.886 0.918728 1.57688 0
M  V30 6932 C 649.937 3.54168 -0.72438 0
M  V30 6933 O 649.658 3.85359 -2.08399 0
M  V30 6934 C 651.159 4.41746 -0.370819 0
M  V30 6935 H 648.379 0.638037 -0.207726 0
M  V30 6936 H 650.923 1.6491 -1.20934 0
M  V30 6937 H 649.078 3.87261 -0.103607 0
M  V30 6938 H 649.492 4.80032 -2.11352 0
M  V30 6939 H 650.966 5.49256 -0.549693 0
M  V30 6940 H 651.443 4.33712 0.692148 0
M  V30 6941 H 652.049 4.14125 -0.968543 0
M  V30 6942 N 650.364 0.662433 1.43002 0
M  V30 6943 C 651.613 0.176873 2.00923 0
M  V30 6944 C 651.926 -1.21954 1.52927 0
M  V30 6945 O 653.132 -1.80081 2.03182 0
M  V30 6946 C 651.588 0.265379 3.5892 0
M  V30 6947 C 651.196 1.66507 4.15908 0
M  V30 6948 C 652.94 -0.162103 4.2419 0
M  V30 6949 C 650.847 1.707 5.66229 0
M  V30 6950 H 649.777 0.0623627 0.751417 0
M  V30 6951 H 652.428 0.825813 1.63868 0
M  V30 6952 H 650.81 -0.451235 3.93421 0
M  V30 6953 H 651.984 2.40777 3.92891 0
M  V30 6954 H 650.299 2.03932 3.63044 0
M  V30 6955 H 652.896 -0.150745 5.34487 0
M  V30 6956 H 653.239 -1.19519 3.98774 0
M  V30 6957 H 653.772 0.503075 3.94606 0
M  V30 6958 H 650.511 2.7195 5.96426 0
M  V30 6959 H 650.031 1.00768 5.91275 0
M  V30 6960 H 651.71 1.45487 6.3043 0
M  V30 6961 N 651.842 -1.52309 0.404946 0
M  V30 6962 C 653.089 -2.01767 -0.1722 0
M  V30 6963 C 653.417 -1.29075 -1.45498 0
M  V30 6964 O 652.672 -0.3843 -1.9189 0
M  V30 6965 C 652.971 -3.54284 -0.470895 0
M  V30 6966 C 652.637 -4.45079 0.722194 0
M  V30 6967 C 651.299 -4.69617 1.04946 0
M  V30 6968 C 653.651 -4.98555 1.51962 0
M  V30 6969 C 650.979 -5.44878 2.17543 0
M  V30 6970 C 653.331 -5.75049 2.63632 0
M  V30 6971 C 651.995 -5.9786 2.9685 0
M  V30 6972 H 651.265 -0.738316 -0.0630125 0
M  V30 6973 H 653.912 -1.83566 0.545506 0
M  V30 6974 H 652.217 -3.70642 -1.27012 0
M  V30 6975 H 653.914 -3.90058 -0.930346 0
M  V30 6976 H 650.504 -4.26155 0.457131 0
M  V30 6977 H 654.688 -4.79509 1.28002 0
M  V30 6978 H 649.944 -5.60762 2.43631 0
M  V30 6979 H 654.118 -6.15483 3.25813 0
M  V30 6980 H 651.745 -6.5596 3.84215 0
M  V30 6981 N 653.32 -0.135238 -1.57019 0
M  V30 6982 C 654.253 0.846618 -2.11914 0
M  V30 6983 C 655.231 1.25019 -1.03966 0
M  V30 6984 O 656.415 1.34838 -1.31723 0
M  V30 6985 C 653.542 2.1352 -2.6292 0
M  V30 6986 C 652.588 1.87846 -3.82905 0
M  V30 6987 S 653.421 1.08005 -5.24495 0
M  V30 6988 C 654.577 2.38008 -5.78881 0
M  V30 6989 H 654.81 0.379752 -2.94865 0
M  V30 6990 H 652.343 0.0788387 -1.54199 0
M  V30 6991 H 654.301 2.87551 -2.92958 0
M  V30 6992 H 652.962 2.57323 -1.80121 0
M  V30 6993 H 652.155 2.83365 -4.16797 0
M  V30 6994 H 651.757 1.21929 -3.53567 0
M  V30 6995 H 654.049 3.33742 -5.89595 0
M  V30 6996 H 654.992 2.08638 -6.76665 0
M  V30 6997 H 655.4 2.48119 -5.07048 0
M  V30 6998 N 654.798 1.5699 0.138552 0
M  V30 6999 C 655.708 2.02174 1.19008 0
M  V30 7000 C 656.724 0.938622 1.46512 0
M  V30 7001 O 657.9 1.24872 1.58016 0
M  V30 7002 C 654.965 2.40045 2.50159 0
M  V30 7003 C 654.026 3.62346 2.30226 0
M  V30 7004 C 653.259 3.98401 3.55123 0
M  V30 7005 O 653.482 3.35019 4.61647 0
M  V30 7006 O 652.416 4.91606 3.47285 0
M  V30 7007 H 656.242 2.91954 0.836452 0
M  V30 7008 H 653.827 1.45293 0.347907 0
M  V30 7009 H 655.709 2.65225 3.27465 0
M  V30 7010 H 654.384 1.53417 2.85035 0
M  V30 7011 H 653.291 3.42341 1.50843 0
M  V30 7012 H 654.624 4.49617 2.00262 0
M  V30 7013 N 656.276 -0.40816 1.52223 0
M  V30 7014 C 657.506 -1.17501 1.69932 0
M  V30 7015 C 657.914 -1.84729 0.408874 0
M  V30 7016 O 657.257 -1.7274 -0.625025 0
M  V30 7017 C 657.319 -2.27994 2.77955 0
M  V30 7018 C 656.983 -1.80894 4.19674 0
M  V30 7019 C 657.98 -1.29618 5.03483 0
M  V30 7020 C 655.665 -1.87698 4.65913 0
M  V30 7021 C 657.659 -0.857695 6.31603 0
M  V30 7022 C 655.346 -1.43461 5.94022 0
M  V30 7023 C 656.344 -0.925822 6.76696 0
M  V30 7024 O 656.032 -0.489841 8.02406 0
M  V30 7025 H 655.764 -0.359065 0.572755 0
M  V30 7026 H 658.318 -0.486188 1.99563 0
M  V30 7027 H 656.548 -3.00243 2.43703 0
M  V30 7028 H 658.237 -2.89749 2.84254 0
M  V30 7029 H 659.003 -1.23733 4.68951 0
M  V30 7030 H 654.882 -2.26244 4.01665 0
M  V30 7031 H 658.426 -0.459879 6.96083 0
M  V30 7032 H 654.323 -1.49026 6.28062 0
M  V30 7033 H 655.091 -0.613062 8.16201 0
M  V30 7034 N 657.755 -1.42862 -0.66545 0
M  V30 7035 C 658.688 -1.41509 -1.79026 0
M  V30 7036 C 659.666 -0.278106 -1.60204 0
M  V30 7037 O 660.85 -0.469792 -1.82552 0
M  V30 7038 C 657.977 -1.21494 -3.1616 0
M  V30 7039 C 657.023 -2.38308 -3.53711 0
M  V30 7040 S 657.856 -4.00852 -3.55075 0
M  V30 7041 C 659.012 -3.83197 -4.94885 0
M  V30 7042 H 659.245 -2.36691 -1.79902 0
M  V30 7043 H 656.778 -1.29746 -0.836977 0
M  V30 7044 H 658.736 -1.10633 -3.95311 0
M  V30 7045 H 657.397 -0.27881 -3.1286 0
M  V30 7046 H 656.59 -2.20076 -4.53412 0
M  V30 7047 H 656.192 -2.45732 -2.81943 0
M  V30 7048 H 658.484 -3.44765 -5.83218 0
M  V30 7049 H 659.427 -4.82607 -5.18166 0
M  V30 7050 H 659.835 -3.15884 -4.67843 0
M  V30 7051 N 659.233 0.902656 -1.29189 0
M  V30 7052 C 660.644 1.46809 -1.15343 0
M  V30 7053 C 660.995 1.94568 0.252517 0
M  V30 7054 O 660.12 1.83454 1.14777 0
M  V30 7055 C 660.715 2.66829 -2.08776 0
M  V30 7056 C 659.274 3.19518 -1.98961 0
M  V30 7057 C 658.421 1.92212 -1.99874 0
M  V30 7058 H 661.372 0.714282 -1.41717 0
M  V30 7059 H 661.393 3.42465 -1.65826 0
M  V30 7060 H 660.905 2.32039 -3.11094 0
M  V30 7061 H 659.006 3.59008 -0.99721 0
M  V30 7062 H 659.119 3.84016 -2.86477 0
M  V30 7063 H 657.483 2.0979 -1.44431 0
M  V30 7064 H 658.266 1.59702 -3.03891 0
M  V30 7065 N 660.711 1.11618 1.11262 0
M  V30 7066 C 661.959 0.864469 1.82678 0
M  V30 7067 C 662.28 -0.611564 1.85162 0
M  V30 7068 O 661.55 -1.44429 1.32352 0
M  V30 7069 H 660.13 0.316821 0.676486 0
M  V30 7070 H 662.792 1.40894 1.34666 0
M  V30 7071 H 661.888 1.23832 2.86482 0
M  V30 7072 N 662.189 -1.289 0.906776 0
M  V30 7073 C 663.437 -1.94883 0.535266 0
M  V30 7074 C 663.758 -1.71784 -0.922791 0
M  V30 7075 O 663.028 -1.05359 -1.65156 0
M  V30 7076 H 661.608 -0.721109 0.194962 0
M  V30 7077 H 664.27 -1.57018 1.15461 0
M  V30 7078 H 663.366 -3.03591 0.723821 0
M  V30 7079 N 663.667 -0.670007 -1.42649 0
M  V30 7080 C 664.892 -0.196955 -2.06463 0
M  V30 7081 C 665.317 1.1352 -1.49983 0
M  V30 7082 O 664.675 1.705 -0.616397 0
M  V30 7083 C 664.723 -0.137381 -3.60338 0
M  V30 7084 O 663.827 0.895523 -4.02559 0
M  V30 7085 H 663.168 -0.102579 -0.656029 0
M  V30 7086 H 665.698 -0.917669 -1.82866 0
M  V30 7087 H 665.708 0.0403625 -4.0798 0
M  V30 7088 H 664.383 -1.10977 -4.0082 0
M  V30 7089 H 662.96 0.689209 -3.66476 0
M  V30 7090 N 665.145 1.52092 -0.413018 0
M  V30 7091 C 666.391 2.02154 0.161737 0
M  V30 7092 C 666.724 1.29789 1.44459 0
M  V30 7093 O 665.999 0.405378 1.90229 0
M  V30 7094 C 666.282 3.5781 0.405463 0
M  V30 7095 C 666.135 4.40819 -0.894335 0
M  V30 7096 C 667.454 4.23821 1.18591 0
M  V30 7097 H 664.573 0.734769 0.0573077 0
M  V30 7098 H 667.215 1.81948 -0.547247 0
M  V30 7099 H 665.365 3.75158 1.0094 0
M  V30 7100 H 667.037 4.35175 -1.53039 0
M  V30 7101 H 665.28 4.06877 -1.50444 0
M  V30 7102 H 665.951 5.47819 -0.678144 0
M  V30 7103 H 668.427 4.10596 0.674573 0
M  V30 7104 H 667.303 5.32663 1.3252 0
M  V30 7105 H 667.564 3.83038 2.20758 0
M  V30 7106 N 666.623 0.143563 1.56945 0
M  V30 7107 C 667.57 -0.797433 2.16586 0
M  V30 7108 C 668.54 -1.24654 1.09775 0
M  V30 7109 O 669.725 -1.31968 1.37801 0
M  V30 7110 C 666.865 -2.03253 2.78895 0
M  V30 7111 C 665.978 -1.62954 4.00087 0
M  V30 7112 C 665.113 -2.81617 4.50406 0
M  V30 7113 C 664.152 -2.37675 5.64072 0
M  V30 7114 N 663.289 -3.49335 6.09023 0
M  V30 7115 H 668.129 -0.282023 2.96662 0
M  V30 7116 H 665.666 -0.127494 1.46546 0
M  V30 7117 H 667.624 -2.75653 3.13163 0
M  V30 7118 H 666.254 -2.52211 2.01469 0
M  V30 7119 H 665.306 -0.803322 3.71821 0
M  V30 7120 H 666.618 -1.26679 4.82446 0
M  V30 7121 H 665.772 -3.62212 4.86711 0
M  V30 7122 H 664.511 -3.21134 3.67048 0
M  V30 7123 H 663.516 -1.55519 5.27346 0
M  V30 7124 H 664.741 -1.99247 6.49213 0
M  V30 7125 H 662.687 -3.8848 5.28601 0
M  V30 7126 H 662.604 -3.17064 6.86299 0
M  V30 7127 H 663.872 -4.30297 6.49973 0
M  V30 7128 N 668.101 -1.57061 -0.130224 0
M  V30 7129 C 669.378 -1.75205 -0.869631 0
M  V30 7130 C 669.758 -0.716063 -1.98584 0
M  V30 7131 O 669.106 0.262032 -2.26993 0
M  V30 7132 C 669.316 -3.19835 -1.39666 0
M  V30 7133 C 670.664 -3.82011 -1.85345 0
M  V30 7134 O 671.688 -3.23368 -1.49371 0
M  V30 7135 O 670.547 -4.85064 -2.51744 0
M  V30 7136 H 667.641 -0.716977 -0.412157 0
M  V30 7137 H 670.187 -1.69311 -0.11484 0
M  V30 7138 H 668.959 -3.86745 -0.595288 0
M  V30 7139 H 668.582 -3.30222 -2.21448 0
M  V30 7140 N 669.579 0.400081 -1.52437 0
M  V30 7141 C 670.511 1.50729 -1.72666 0
M  V30 7142 C 671.524 1.51058 -0.607075 0
M  V30 7143 O 672.713 1.5516 -0.88248 0
M  V30 7144 C 669.813 2.89604 -1.76019 0
M  V30 7145 C 668.986 3.13365 -3.05157 0
M  V30 7146 C 668.045 4.32163 -3.00203 0
M  V30 7147 O 667.071 4.29004 -3.74092 0
M  V30 7148 N 668.273 5.3776 -2.18619 0
M  V30 7149 H 671.038 1.33767 -2.68191 0
M  V30 7150 H 668.599 0.58948 -1.50787 0
M  V30 7151 H 670.591 3.67159 -1.70225 0
M  V30 7152 H 669.161 2.99979 -0.879284 0
M  V30 7153 H 668.381 2.23774 -3.24529 0
M  V30 7154 H 669.669 3.26089 -3.90568 0
M  V30 7155 H 669.067 5.43177 -1.58035 0
M  V30 7156 H 667.624 6.14023 -2.18674 0
M  V30 7157 N 671.057 1.43213 0.657864 0
M  V30 7158 C 671.987 1.50815 1.78262 0
M  V30 7159 C 672.968 0.363211 1.66177 0
M  V30 7160 O 674.153 0.579806 1.85343 0
M  V30 7161 C 671.283 1.42625 3.16663 0
M  V30 7162 C 670.237 2.5532 3.43505 0
M  V30 7163 C 669.563 2.32184 4.81658 0
M  V30 7164 C 670.863 3.97583 3.38711 0
M  V30 7165 H 672.557 2.44954 1.72157 0
M  V30 7166 H 670.103 1.17896 0.82683 0
M  V30 7167 H 672.056 1.46548 3.95097 0
M  V30 7168 H 670.78 0.449877 3.23487 0
M  V30 7169 H 669.439 2.50742 2.6744 0
M  V30 7170 H 669.087 1.32801 4.85153 0
M  V30 7171 H 668.787 3.07724 5.00579 0
M  V30 7172 H 670.311 2.37883 5.62356 0
M  V30 7173 H 671.725 4.03673 4.07089 0
M  V30 7174 H 670.122 4.73112 3.69168 0
M  V30 7175 H 671.192 4.23049 2.36976 0
M  V30 7176 N 672.536 -0.895792 1.29666 0
M  V30 7177 C 673.483 -2.00035 1.15129 0
M  V30 7178 C 674.453 -1.66043 0.0435819 0
M  V30 7179 O 675.638 -1.89621 0.211811 0
M  V30 7180 C 672.778 -3.34774 0.83787 0
M  V30 7181 C 671.891 -3.81525 2.0264 0
M  V30 7182 C 671.026 -5.04858 1.65201 0
M  V30 7183 C 670.065 -5.43988 2.80612 0
M  V30 7184 N 669.202 -6.58507 2.43544 0
M  V30 7185 H 674.042 -2.11802 2.09628 0
M  V30 7186 H 671.579 -1.03719 1.04311 0
M  V30 7187 H 673.537 -4.12311 0.636824 0
M  V30 7188 H 672.167 -3.22724 -0.0702314 0
M  V30 7189 H 671.219 -2.9999 2.33903 0
M  V30 7190 H 672.531 -4.06472 2.89106 0
M  V30 7191 H 671.685 -5.8999 1.41408 0
M  V30 7192 H 670.424 -4.81759 0.758893 0
M  V30 7193 H 669.429 -4.57388 3.05083 0
M  V30 7194 H 670.654 -5.69066 3.70595 0
M  V30 7195 H 668.6 -6.37004 1.56724 0
M  V30 7196 H 668.517 -6.83269 3.23542 0
M  V30 7197 H 669.785 -7.46897 2.2308 0
M  V30 7198 N 674.014 -1.12206 -1.10668 0
M  V30 7199 C 674.977 -0.790867 -2.15123 0
M  V30 7200 C 675.977 0.193618 -1.5963 0
M  V30 7201 O 677.167 -0.0318728 -1.74171 0
M  V30 7202 C 674.299 -0.174797 -3.40452 0
M  V30 7203 H 675.492 -1.7163 -2.45933 0
M  V30 7204 H 673.045 -0.924993 -1.2599 0
M  V30 7205 H 673.78 0.760478 -3.15257 0
M  V30 7206 H 673.565 -0.88358 -3.82015 0
M  V30 7207 H 675.055 0.0405162 -4.1758 0
M  V30 7208 N 675.492 1.28418 -0.913599 0
M  V30 7209 C 676.722 1.98817 -0.56172 0
M  V30 7210 C 677.13 1.68457 0.861321 0
M  V30 7211 O 676.473 0.933653 1.58204 0
M  V30 7212 C 676.535 3.52801 -0.690785 0
M  V30 7213 C 676.199 4.0675 -2.08334 0
M  V30 7214 C 677.196 4.20597 -3.05604 0
M  V30 7215 C 674.881 4.41445 -2.39648 0
M  V30 7216 C 676.875 4.68392 -4.32305 0
M  V30 7217 C 674.562 4.88934 -3.66588 0
M  V30 7218 C 675.56 5.02364 -4.6273 0
M  V30 7219 O 675.248 5.48817 -5.87414 0
M  V30 7220 H 674.98 0.641608 -0.212874 0
M  V30 7221 H 677.534 1.64584 -1.22887 0
M  V30 7222 H 675.764 3.86686 0.0334336 0
M  V30 7223 H 677.453 4.04422 -0.346031 0
M  V30 7224 H 678.219 3.94067 -2.8273 0
M  V30 7225 H 674.098 4.30242 -1.65567 0
M  V30 7226 H 677.642 4.7879 -5.07352 0
M  V30 7227 H 673.539 5.14904 -3.89287 0
M  V30 7228 H 674.307 5.67103 -5.90201 0
M  V30 7229 N 676.97 0.677563 1.42291 0
M  V30 7230 C 678.218 0.200578 2.01102 0
M  V30 7231 C 678.539 -1.19803 1.53858 0
M  V30 7232 O 677.809 -1.80496 0.761439 0
M  V30 7233 H 676.389 0.0711634 0.743603 0
M  V30 7234 H 679.051 0.874691 1.7417 0
M  V30 7235 H 678.147 0.204 3.11433 0
M  V30 7236 N 678.448 -1.51871 0.421078 0
M  V30 7237 C 679.411 -2.25914 -0.386712 0
M  V30 7238 C 680.411 -1.28733 -0.963555 0
M  V30 7239 O 681.601 -1.52579 -0.840556 0
M  V30 7240 C 678.733 -3.03853 -1.54551 0
M  V30 7241 H 679.926 -2.98754 0.261978 0
M  V30 7242 H 677.479 -1.5533 0.173862 0
M  V30 7243 H 678.214 -2.35392 -2.23072 0
M  V30 7244 H 677.999 -3.75215 -1.13824 0
M  V30 7245 H 679.489 -3.59984 -2.11663 0
M  V30 7246 N 679.926 -0.151884 -1.56866 0
M  V30 7247 C 680.856 0.781943 -2.20018 0
M  V30 7248 C 681.837 1.25347 -1.14987 0
M  V30 7249 O 683.022 1.31015 -1.43348 0
M  V30 7250 C 680.152 2.01928 -2.82564 0
M  V30 7251 C 679.106 1.68434 -3.93464 0
M  V30 7252 C 678.432 2.99472 -4.42968 0
M  V30 7253 C 679.732 0.927244 -5.14003 0
M  V30 7254 H 681.426 0.255607 -2.98307 0
M  V30 7255 H 678.972 0.121502 -1.43486 0
M  V30 7256 H 680.925 2.67741 -3.25411 0
M  V30 7257 H 679.649 2.56943 -2.01614 0
M  V30 7258 H 678.308 1.04998 -3.51242 0
M  V30 7259 H 677.956 3.52488 -3.58834 0
M  V30 7260 H 677.656 2.77823 -5.17772 0
M  V30 7261 H 679.18 3.66348 -4.88489 0
M  V30 7262 H 680.594 1.48756 -5.53665 0
M  V30 7263 H 678.991 0.810513 -5.94601 0
M  V30 7264 H 680.061 -0.0801163 -4.84834 0
M  V30 7265 N 681.404 1.57128 0.121893 0
M  V30 7266 C 682.632 1.88883 0.844451 0
M  V30 7267 C 683.047 0.742824 1.73573 0
M  V30 7268 O 682.404 -0.286475 1.80238 0
M  V30 7269 C 682.455 3.20076 1.68029 0
M  V30 7270 O 682.176 4.30264 0.824898 0
M  V30 7271 C 683.677 3.65515 2.50826 0
M  V30 7272 H 680.897 0.62549 0.242907 0
M  V30 7273 H 683.441 2.04219 0.107151 0
M  V30 7274 H 681.596 3.06418 2.37038 0
M  V30 7275 H 682.01 5.05439 1.40113 0
M  V30 7276 H 683.484 4.60081 3.05008 0
M  V30 7277 H 683.961 2.92029 3.28048 0
M  V30 7278 H 684.567 3.81952 1.87064 0
M  V30 7279 N 682.882 -0.391992 1.52647 0
M  V30 7280 C 683.792 -1.503 1.80131 0
M  V30 7281 C 684.808 -1.59825 0.687882 0
M  V30 7282 O 685.984 -1.76218 0.975149 0
M  V30 7283 C 683.049 -2.85863 1.96171 0
M  V30 7284 C 682.11 -2.86084 3.20085 0
M  V30 7285 C 681.343 -4.15181 3.35351 0
M  V30 7286 O 681.566 -5.09981 2.55491 0
M  V30 7287 O 680.5 -4.22603 4.28591 0
M  V30 7288 H 684.326 -1.30007 2.74466 0
M  V30 7289 H 681.911 -0.579539 1.37701 0
M  V30 7290 H 683.793 -3.66236 2.08445 0
M  V30 7291 H 682.468 -3.06189 1.05025 0
M  V30 7292 H 681.375 -2.04504 3.13256 0
M  V30 7293 H 682.708 -2.7071 4.11068 0
M  V30 7294 N 684.36 -1.4356 -0.65026 0
M  V30 7295 C 685.585 -1.48995 -1.44275 0
M  V30 7296 C 686.01 -0.109954 -1.87778 0
M  V30 7297 O 685.368 0.896926 -1.57559 0
M  V30 7298 C 685.416 -2.44341 -2.65198 0
M  V30 7299 O 684.52 -1.93172 -3.6436 0
M  V30 7300 H 683.861 -0.503852 -0.432469 0
M  V30 7301 H 686.391 -1.88504 -0.795446 0
M  V30 7302 H 686.401 -2.61743 -3.12977 0
M  V30 7303 H 685.076 -3.44588 -2.32877 0
M  V30 7304 H 683.653 -1.85445 -3.23519 0
M  V30 7305 N 685.838 0.888903 -1.30139 0
M  V30 7306 C 687.084 1.6428 -1.18912 0
M  V30 7307 C 687.417 1.92499 0.256477 0
M  V30 7308 O 686.692 1.54312 1.18397 0
M  V30 7309 C 686.975 2.9851 -2.01405 0
M  V30 7310 C 686.828 2.77288 -3.54163 0
M  V30 7311 C 688.147 3.99383 -1.84882 0
M  V30 7312 H 685.266 0.596148 -0.433333 0
M  V30 7313 H 687.908 1.0289 -1.5973 0
M  V30 7314 H 686.058 3.50907 -1.66722 0
M  V30 7315 H 687.73 2.31709 -3.98884 0
M  V30 7316 H 685.973 2.11867 -3.78543 0
M  V30 7317 H 686.644 3.72717 -4.07168 0
M  V30 7318 H 689.12 3.56132 -2.15196 0
M  V30 7319 H 687.996 4.91222 -2.44934 0
M  V30 7320 H 688.257 4.34674 -0.806902 0
M  V30 7321 N 687.317 1.12792 1.10072 0
M  V30 7322 C 688.545 0.908506 1.85886 0
M  V30 7323 C 688.96 -0.542408 1.80841 0
M  V30 7324 O 688.317 -1.37517 1.1998 0
M  V30 7325 C 688.368 1.37973 3.34134 0
M  V30 7326 O 688.089 2.77378 3.39106 0
M  V30 7327 C 689.59 1.1978 4.26811 0
M  V30 7328 H 686.81 0.3244 0.587372 0
M  V30 7329 H 689.354 1.49882 1.39125 0
M  V30 7330 H 687.509 0.832566 3.78348 0
M  V30 7331 H 687.923 2.98144 4.31521 0
M  V30 7332 H 689.397 1.57635 5.29014 0
M  V30 7333 H 689.874 0.138768 4.38981 0
M  V30 7334 H 690.48 1.73266 3.88406 0
M  V30 7335 N 688.795 -1.27931 0.920396 0
M  V30 7336 C 690.211 -1.47085 0.619537 0
M  V30 7337 C 690.411 -1.83463 -0.833291 0
M  V30 7338 O 689.467 -1.94363 -1.61181 0
M  V30 7339 C 690.78 -2.56878 1.56314 0
M  V30 7340 C 692.328 -2.70743 1.57058 0
M  V30 7341 C 692.803 -3.83687 2.50097 0
M  V30 7342 N 694.294 -3.9105 2.48262 0
M  V30 7343 C 695.029 -4.77842 3.16945 0
M  V30 7344 N 694.525 -5.69176 3.94982 0
M  V30 7345 N 696.318 -4.71509 3.06 0
M  V30 7346 H 688.469 -1.02601 1.85975 0
M  V30 7347 H 690.732 -0.511682 0.798051 0
M  V30 7348 H 690.438 -2.36923 2.59923 0
M  V30 7349 H 690.312 -3.54117 1.29928 0
M  V30 7350 H 692.699 -2.90083 0.541832 0
M  V30 7351 H 692.78 -1.74015 1.8749 0
M  V30 7352 H 692.424 -3.65101 3.53077 0
M  V30 7353 H 692.354 -4.79827 2.16964 0
M  V30 7354 H 694.845 -3.25738 1.91581 0
M  V30 7355 H 695.158 -6.32245 4.44394 0
M  V30 7356 H 693.503 -5.68995 3.99086 0
M  V30 7357 H 696.694 -3.99151 2.44533 0
M  V30 7358 H 696.867 -5.38933 3.59799 0
M  V30 7359 N 690.273 -0.685099 -1.4193 0
M  V30 7360 C 691.22 -0.0131869 -2.30796 0
M  V30 7361 C 692.19 0.782129 -1.46533 0
M  V30 7362 O 693.375 0.75229 -1.75343 0
M  V30 7363 C 690.515 0.924768 -3.32479 0
M  V30 7364 C 689.628 0.122181 -4.31827 0
M  V30 7365 C 688.763 1.05682 -5.20581 0
M  V30 7366 C 687.802 0.246526 -6.11603 0
M  V30 7367 N 686.939 1.13442 -6.92875 0
M  V30 7368 H 691.779 -0.776789 -2.87698 0
M  V30 7369 H 689.316 -0.394791 -1.41703 0
M  V30 7370 H 691.274 1.48251 -3.89971 0
M  V30 7371 H 689.904 1.65488 -2.77152 0
M  V30 7372 H 688.956 -0.552335 -3.76369 0
M  V30 7373 H 690.268 -0.506473 -4.96222 0
M  V30 7374 H 689.422 1.68415 -5.82856 0
M  V30 7375 H 688.161 1.71935 -4.56388 0
M  V30 7376 H 687.166 -0.393944 -5.48387 0
M  V30 7377 H 688.391 -0.412053 -6.77849 0
M  V30 7378 H 686.337 1.78316 -6.313 0
M  V30 7379 H 686.254 0.561089 -7.53915 0
M  V30 7380 H 687.522 1.74889 -7.59628 0
M  V30 7381 N 691.751 1.51645 -0.429126 0
M  V30 7382 C 692.981 2.06133 0.138793 0
M  V30 7383 C 693.389 1.29735 1.37716 0
M  V30 7384 O 692.732 0.347955 1.80375 0
M  V30 7385 C 692.794 3.55504 0.534493 0
M  V30 7386 C 692.458 4.53098 -0.595917 0
M  V30 7387 C 693.455 4.98815 -1.46558 0
M  V30 7388 C 691.14 4.96296 -0.774309 0
M  V30 7389 C 693.134 5.86394 -2.4984 0
M  V30 7390 C 690.821 5.83667 -1.81042 0
M  V30 7391 C 691.819 6.28613 -2.67086 0
M  V30 7392 O 691.507 7.14251 -3.68919 0
M  V30 7393 H 691.239 0.675833 0.0150263 0
M  V30 7394 H 693.793 1.96301 -0.604584 0
M  V30 7395 H 692.023 3.63092 1.33045 0
M  V30 7396 H 693.712 3.92545 1.03262 0
M  V30 7397 H 694.478 4.66143 -1.33925 0
M  V30 7398 H 690.357 4.60859 -0.114178 0
M  V30 7399 H 693.901 6.21398 -3.17034 0
M  V30 7400 H 689.798 6.15753 -1.93698 0
M  V30 7401 H 690.566 7.3241 -3.65402 0
M  V30 7402 N 693.229 0.160201 1.56784 0
M  V30 7403 C 694.457 -0.494165 2.00912 0
M  V30 7404 C 694.872 -1.57548 1.04038 0
M  V30 7405 O 694.229 -1.82457 0.0394581 0
M  V30 7406 C 694.28 -1.08271 3.44905 0
M  V30 7407 O 694.001 -0.0445704 4.38077 0
M  V30 7408 C 695.502 -1.8164 4.04378 0
M  V30 7409 H 692.722 -0.127498 0.658776 0
M  V30 7410 H 695.266 0.258665 2.02858 0
M  V30 7411 H 693.421 -1.78609 3.4377 0
M  V30 7412 H 693.835 -0.477544 5.22322 0
M  V30 7413 H 695.309 -2.18094 5.07089 0
M  V30 7414 H 695.786 -2.70727 3.45838 0
M  V30 7415 H 696.392 -1.15969 4.09184 0
M  V30 7416 N 694.707 -1.5719 -0.113559 0
M  V30 7417 C 696.123 -1.52607 -0.467253 0
M  V30 7418 C 696.323 -0.874058 -1.81556 0
M  V30 7419 O 695.379 -0.458703 -2.48299 0
M  V30 7420 C 696.692 -2.97363 -0.446736 0
M  V30 7421 C 698.24 -3.08482 -0.529903 0
M  V30 7422 C 698.715 -4.54809 -0.539721 0
M  V30 7423 N 700.206 -4.59284 -0.601005 0
M  V30 7424 C 700.941 -5.69927 -0.630138 0
M  V30 7425 N 700.437 -6.90051 -0.616589 0
M  V30 7426 N 702.23 -5.5805 -0.673558 0
M  V30 7427 H 694.381 -1.97958 0.769819 0
M  V30 7428 H 696.644 -0.90428 0.284572 0
M  V30 7429 H 696.35 -3.48458 0.47643 0
M  V30 7430 H 696.224 -3.55086 -1.27254 0
M  V30 7431 H 698.611 -2.57386 -1.44349 0
M  V30 7432 H 698.692 -2.53744 0.323695 0
M  V30 7433 H 698.336 -5.06552 0.369843 0
M  V30 7434 H 698.266 -5.07364 -1.41028 0
M  V30 7435 H 700.757 -3.72822 -0.617419 0
M  V30 7436 H 701.07 -7.70132 -0.641592 0
M  V30 7437 H 699.415 -6.92543 -0.583927 0
M  V30 7438 H 702.606 -4.63112 -0.681544 0
M  V30 7439 H 702.779 -6.44286 -0.692794 0
M  V30 7440 N 696.185 0.383891 -1.52853 0
M  V30 7441 C 697.117 1.48889 -1.74255 0
M  V30 7442 C 698.13 1.50405 -0.623063 0
M  V30 7443 O 699.319 1.54215 -0.898887 0
M  V30 7444 C 696.419 2.87721 -1.79081 0
M  V30 7445 C 695.592 3.10111 -3.08464 0
M  V30 7446 C 694.651 4.28954 -3.0477 0
M  V30 7447 O 693.677 4.25012 -3.78621 0
M  V30 7448 N 694.879 5.35411 -2.24311 0
M  V30 7449 H 697.644 1.30915 -2.69595 0
M  V30 7450 H 695.205 0.573454 -1.51404 0
M  V30 7451 H 697.197 3.65333 -1.7411 0
M  V30 7452 H 695.767 2.99029 -0.911052 0
M  V30 7453 H 694.987 2.20319 -3.26884 0
M  V30 7454 H 696.275 3.21928 -3.94005 0
M  V30 7455 H 695.673 5.41471 -1.63787 0
M  V30 7456 H 694.23 6.1167 -2.25175 0
M  V30 7457 N 697.663 1.43903 0.642637 0
M  V30 7458 C 698.912 1.45362 1.39831 0
M  V30 7459 C 699.225 0.0856289 1.95412 0
M  V30 7460 O 700.431 -0.0222856 2.71491 0
M  V30 7461 C 698.887 2.55857 2.53111 0
M  V30 7462 C 698.495 3.98811 2.04092 0
M  V30 7463 C 700.239 2.66524 3.30402 0
M  V30 7464 C 698.146 5.00751 3.14647 0
M  V30 7465 H 697.076 0.540777 0.52543 0
M  V30 7466 H 699.727 1.69929 0.692559 0
M  V30 7467 H 698.109 2.2451 3.26207 0
M  V30 7468 H 699.283 4.3967 1.37938 0
M  V30 7469 H 697.598 3.92284 1.39651 0
M  V30 7470 H 700.195 3.39858 4.12796 0
M  V30 7471 H 700.538 1.71949 3.79129 0
M  V30 7472 H 701.071 2.97224 2.64392 0
M  V30 7473 H 697.81 5.96914 2.70876 0
M  V30 7474 H 697.33 4.64495 3.79479 0
M  V30 7475 H 699.009 5.23933 3.79609 0
M  V30 7476 N 699.141 -0.881989 1.30609 0
M  V30 7477 C 700.071 -2.00413 1.1982 0
M  V30 7478 C 701.052 -1.69871 0.0881538 0
M  V30 7479 O 702.237 -1.92304 0.2707 0
M  V30 7480 C 699.367 -3.35641 0.89233 0
M  V30 7481 C 698.321 -3.80451 1.96064 0
M  V30 7482 C 697.647 -5.13003 1.5077 0
M  V30 7483 C 698.947 -3.98855 3.37213 0
M  V30 7484 H 700.641 -2.09698 2.13699 0
M  V30 7485 H 698.187 -1.00754 1.02882 0
M  V30 7486 H 700.14 -4.13669 0.803497 0
M  V30 7487 H 698.864 -3.26497 -0.0821381 0
M  V30 7488 H 697.523 -3.04654 2.03916 0
M  V30 7489 H 697.171 -5.0029 0.521417 0
M  V30 7490 H 696.871 -5.43956 2.22229 0
M  V30 7491 H 698.395 -5.93554 1.43271 0
M  V30 7492 H 699.809 -4.67312 3.32103 0
M  V30 7493 H 698.206 -4.41188 4.06784 0
M  V30 7494 H 699.276 -3.02614 3.78883 0
M  V30 7495 N 700.619 -1.13374 -1.09472 0
M  V30 7496 C 701.529 -0.824029 -2.19652 0
M  V30 7497 C 702.545 0.19118 -1.72947 0
M  V30 7498 O 703.721 0.0223464 -2.01388 0
M  V30 7499 C 700.786 -0.294009 -3.45451 0
M  V30 7500 C 699.847 -1.3704 -4.0684 0
M  V30 7501 C 699.08 -0.86558 -5.26634 0
M  V30 7502 O 699.303 0.29702 -5.69626 0
M  V30 7503 O 698.237 -1.63968 -5.79136 0
M  V30 7504 H 702.063 -1.74454 -2.48595 0
M  V30 7505 H 699.648 -0.911155 -1.18399 0
M  V30 7506 H 701.53 -0.00381039 -4.214 0
M  V30 7507 H 700.205 0.598921 -3.18111 0
M  V30 7508 H 699.112 -1.71391 -3.3253 0
M  V30 7509 H 700.445 -2.23746 -4.38405 0
M  V30 7510 N 702.098 1.27442 -0.927168 0
M  V30 7511 C 703.346 1.94007 -0.566203 0
M  V30 7512 C 703.667 1.7323 0.895345 0
M  V30 7513 O 702.937 1.07973 1.63459 0
M  V30 7514 H 701.517 0.717917 -0.206409 0
M  V30 7515 H 704.179 1.55161 -1.17945 0
M  V30 7516 H 703.275 3.02401 -0.772028 0
M  V30 7517 N 703.576 0.692616 1.41565 0
M  V30 7518 C 704.509 -0.025063 2.28186 0
M  V30 7519 C 705.487 -0.790912 1.42068 0
M  V30 7520 O 706.671 -0.782344 1.71498 0
M  V30 7521 C 703.798 -1.04285 3.22246 0
M  V30 7522 C 702.844 -0.370515 4.24888 0
M  V30 7523 S 703.677 0.884942 5.28137 0
M  V30 7524 C 704.833 -0.131324 6.25762 0
M  V30 7525 H 705.066 0.709626 2.88707 0
M  V30 7526 H 702.599 0.482783 1.46658 0
M  V30 7527 H 704.557 -1.62493 3.7697 0
M  V30 7528 H 703.218 -1.7501 2.60827 0
M  V30 7529 H 702.411 -1.13911 4.90959 0
M  V30 7530 H 702.013 0.138411 3.73744 0
M  V30 7531 H 704.305 -0.985527 6.70294 0
M  V30 7532 H 705.248 0.495384 7.06365 0
M  V30 7533 H 705.656 -0.484777 5.62415 0
M  V30 7534 N 705.054 -1.51416 0.437162 0
M  V30 7535 C 706.279 -2.0699 -0.130424 0
M  V30 7536 C 706.704 -1.30249 -1.35709 0
M  V30 7537 O 706.062 -0.340388 -1.78076 0
M  V30 7538 C 706.11 -3.5801 -0.43142 0
M  V30 7539 O 705.214 -3.8345 -1.5179 0
M  V30 7540 H 704.555 -0.663997 -0.00194339 0
M  V30 7541 H 707.085 -1.95029 0.618445 0
M  V30 7542 H 707.095 -4.02261 -0.681926 0
M  V30 7543 H 705.77 -4.13291 0.465137 0
M  V30 7544 H 704.347 -3.51062 -1.25737 0
M  V30 7545 N 706.532 -0.168513 -1.56696 0
M  V30 7546 C 707.762 0.482802 -2.0088 0
M  V30 7547 C 708.17 1.57537 -1.0478 0
M  V30 7548 O 707.513 1.83656 -0.0402746 0
M  V30 7549 C 707.575 1.1236 -3.4149 0
M  V30 7550 C 707.239 0.173027 -4.56672 0
M  V30 7551 C 708.236 -0.607565 -5.16338 0
M  V30 7552 C 705.921 0.0696691 -5.02252 0
M  V30 7553 C 707.915 -1.47874 -6.2001 0
M  V30 7554 C 705.602 -0.805096 -6.05773 0
M  V30 7555 C 706.6 -1.57789 -6.64524 0
M  V30 7556 O 706.288 -2.43804 -7.66038 0
M  V30 7557 H 706.02 0.128246 -0.663723 0
M  V30 7558 H 708.574 -0.266532 -2.03663 0
M  V30 7559 H 706.804 1.921 -3.35611 0
M  V30 7560 H 708.493 1.67683 -3.69645 0
M  V30 7561 H 709.259 -0.53787 -4.82008 0
M  V30 7562 H 705.138 0.660957 -4.56237 0
M  V30 7563 H 708.682 -2.0824 -6.65794 0
M  V30 7564 H 704.579 -0.876005 -6.39528 0
M  V30 7565 H 705.347 -2.37289 -7.83349 0
M  V30 7566 N 708.01 1.57248 0.105221 0
M  V30 7567 C 708.94 2.04374 1.12931 0
M  V30 7568 C 709.921 0.93074 1.42377 0
M  V30 7569 O 711.106 1.20136 1.52581 0
M  V30 7570 C 708.236 2.45967 2.45189 0
M  V30 7571 C 707.19 3.60838 2.30174 0
M  V30 7572 C 706.516 3.88374 3.67518 0
M  V30 7573 C 707.816 4.92084 1.75073 0
M  V30 7574 H 709.51 2.9018 0.737287 0
M  V30 7575 H 707.056 1.39601 0.353211 0
M  V30 7576 H 709.009 2.77542 3.17094 0
M  V30 7577 H 707.733 1.57148 2.86308 0
M  V30 7578 H 706.392 3.29493 1.60716 0
M  V30 7579 H 706.04 2.96739 4.06147 0
M  V30 7580 H 705.74 4.65703 3.58321 0
M  V30 7581 H 707.264 4.22415 4.40906 0
M  V30 7582 H 708.678 5.22106 2.36809 0
M  V30 7583 H 707.075 5.73507 1.76662 0
M  V30 7584 H 708.145 4.79684 0.709347 0
M  V30 7585 N 709.488 -0.375779 1.53054 0
M  V30 7586 C 710.438 -1.45965 1.75152 0
M  V30 7587 C 711.422 -1.49059 0.605823 0
M  V30 7588 O 712.614 -1.54472 0.864133 0
M  V30 7589 C 709.743 -2.83524 1.93569 0
M  V30 7590 C 708.829 -2.84949 3.1411 0
M  V30 7591 N 709.22 -2.56029 4.36214 0
M  V30 7592 C 707.518 -3.16113 3.14625 0
M  V30 7593 C 708.219 -2.64873 5.17897 0
M  V30 7594 N 707.195 -2.99159 4.53878 0
M  V30 7595 H 710.997 -1.22454 2.67175 0
M  V30 7596 H 708.511 -0.583867 1.51541 0
M  V30 7597 H 710.508 -3.61578 2.07525 0
M  V30 7598 H 709.168 -3.08008 1.02768 0
M  V30 7599 H 710.179 -2.29808 4.64121 0
M  V30 7600 H 706.856 -3.45977 2.3368 0
M  V30 7601 H 708.246 -2.45947 6.25268 0
M  V30 7602 N 710.966 -1.44241 -0.634997 0
M  V30 7603 C 712.191 -1.50516 -1.42687 0
M  V30 7604 C 712.616 -0.129864 -1.87651 0
M  V30 7605 O 711.974 0.880164 -1.58502 0
M  V30 7606 C 712.022 -2.4714 -2.62591 0
M  V30 7607 O 711.126 -1.97025 -3.62291 0
M  V30 7608 H 710.467 -0.50841 -0.427101 0
M  V30 7609 H 712.997 -1.89337 -0.775408 0
M  V30 7610 H 713.007 -2.65048 -3.10183 0
M  V30 7611 H 711.682 -3.47039 -2.29209 0
M  V30 7612 H 710.259 -1.88866 -3.21534 0
M  V30 7613 N 712.444 0.87505 -1.31075 0
M  V30 7614 C 713.392 2.00317 -1.18219 0
M  V30 7615 C 714.386 1.69152 -0.0916872 0
M  V30 7616 O 715.592 1.7821 -0.253229 0
M  V30 7617 H 711.967 0.656981 -0.365895 0
M  V30 7618 H 713.938 2.08293 -2.13674 0
M  V30 7619 C 712.687 3.35821 -0.901095 0
M  V30 7620 H 712.01 3.6032 -1.73233 0
M  V30 7621 H 713.45 4.15366 -0.851295 0
M  V30 7622 C 711.909 3.34563 0.396114 0
M  V30 7623 O 712.439 3.75971 1.41452 0
M  V30 7624 N 710.645 2.87681 0.410832 0
M  V30 7625 H 710.192 2.54179 -0.418415 0
M  V30 7626 H 710.15 2.87223 1.27869 0
M  V30 7627 N 713.922 1.13953 1.08869 0
M  V30 7628 C 714.855 0.765765 2.14968 0
M  V30 7629 C 715.833 -0.250689 1.60656 0
M  V30 7630 O 717.017 -0.140852 1.87973 0
M  V30 7631 C 714.144 0.136146 3.38426 0
M  V30 7632 C 713.19 1.12201 4.11477 0
M  V30 7633 S 714.023 2.65711 4.64928 0
M  V30 7634 C 715.179 2.04125 5.91679 0
M  V30 7635 H 715.412 1.66444 2.46341 0
M  V30 7636 H 712.945 0.960263 1.20906 0
M  V30 7637 H 714.903 -0.220712 4.09906 0
M  V30 7638 H 713.564 -0.739887 3.05261 0
M  V30 7639 H 712.757 0.629398 5.00055 0
M  V30 7640 H 712.359 1.42262 3.45886 0
M  V30 7641 H 714.651 1.39381 6.63008 0
M  V30 7642 H 715.594 2.90808 6.45629 0
M  V30 7643 H 716.002 1.4905 5.44467 0
M  V30 7644 N 715.4 -1.26948 0.933913 0
M  V30 7645 C 716.649 -1.93378 0.573409 0
M  V30 7646 C 716.962 -1.74148 -0.890614 0
M  V30 7647 O 718.168 -2.34971 -1.36017 0
M  V30 7648 C 716.624 -3.46449 0.974747 0
M  V30 7649 C 716.232 -3.74425 2.45988 0
M  V30 7650 C 717.976 -4.18924 0.685791 0
M  V30 7651 C 715.883 -5.209 2.8003 0
M  V30 7652 H 714.813 -0.723952 0.210736 0
M  V30 7653 H 717.464 -1.44143 1.13557 0
M  V30 7654 H 715.846 -3.94528 0.341181 0
M  V30 7655 H 717.02 -3.37079 3.14188 0
M  V30 7656 H 715.335 -3.15167 2.72138 0
M  V30 7657 H 717.932 -5.26786 0.916546 0
M  V30 7658 H 718.275 -4.14587 -0.377217 0
M  V30 7659 H 718.808 -3.76687 1.27874 0
M  V30 7660 H 715.547 -5.30332 3.85264 0
M  V30 7661 H 715.067 -5.59369 2.16485 0
M  V30 7662 H 716.746 -5.88837 2.68105 0
M  V30 7663 N 716.879 -0.700114 -1.41195 0
M  V30 7664 C 718.125 -0.233351 -2.01453 0
M  V30 7665 C 718.458 1.16548 -1.55339 0
M  V30 7666 O 717.733 1.78756 -0.766575 0
M  V30 7667 C 718.016 -0.2961 -3.58881 0
M  V30 7668 C 717.869 -1.7322 -4.15108 0
M  V30 7669 C 719.188 0.341525 -4.38773 0
M  V30 7670 H 716.307 -0.0862667 -0.731934 0
M  V30 7671 H 718.949 -0.889693 -1.67882 0
M  V30 7672 H 717.099 0.262736 -3.87611 0
M  V30 7673 H 718.771 -2.34523 -3.97236 0
M  V30 7674 H 717.014 -2.2649 -3.69979 0
M  V30 7675 H 717.685 -1.7276 -5.24269 0
M  V30 7676 H 720.161 -0.134461 -4.15883 0
M  V30 7677 H 719.037 0.267098 -5.4825 0
M  V30 7678 H 719.298 1.42289 -4.18577 0
M  V30 7679 N 718.357 1.51182 -0.445186 0
M  V30 7680 C 719.307 2.24804 0.380394 0
M  V30 7681 C 720.291 1.27344 0.983482 0
M  V30 7682 O 721.483 1.52392 0.900322 0
M  V30 7683 C 718.612 3.09922 1.4766 0
M  V30 7684 C 717.698 4.14816 0.882517 0
M  V30 7685 N 718.089 5.05797 0.0183278 0
M  V30 7686 C 716.387 4.30938 1.14927 0
M  V30 7687 C 717.088 5.8084 -0.316152 0
M  V30 7688 N 716.064 5.42759 0.302214 0
M  V30 7689 H 719.866 2.92508 -0.285737 0
M  V30 7690 H 717.38 1.60342 -0.257733 0
M  V30 7691 H 719.377 3.61249 2.08098 0
M  V30 7692 H 718.037 2.43763 2.14498 0
M  V30 7693 H 719.048 5.16725 -0.348679 0
M  V30 7694 H 715.725 3.76005 1.81457 0
M  V30 7695 H 717.115 6.64115 -1.01986 0
M  V30 7696 N 719.835 0.176821 1.56605 0
M  V30 7697 C 721.251 -0.179278 1.5859 0
M  V30 7698 C 721.451 -1.62433 1.19238 0
M  V30 7699 O 720.507 -2.35665 0.906552 0
M  V30 7700 C 721.82 0.106524 3.00511 0
M  V30 7701 C 723.368 0.0451731 3.12967 0
M  V30 7702 C 723.843 0.304038 4.5699 0
M  V30 7703 N 725.334 0.252008 4.62514 0
M  V30 7704 C 726.069 0.426404 5.71812 0
M  V30 7705 N 725.565 0.660155 6.89648 0
M  V30 7706 N 727.358 0.361926 5.60934 0
M  V30 7707 H 719.509 1.12001 1.8047 0
M  V30 7708 H 721.772 0.445679 0.836704 0
M  V30 7709 H 721.478 1.10778 3.33798 0
M  V30 7710 H 721.352 -0.599337 3.72408 0
M  V30 7711 H 723.739 -0.946662 2.79504 0
M  V30 7712 H 723.82 0.78383 2.43495 0
M  V30 7713 H 723.464 1.29311 4.91163 0
M  V30 7714 H 723.394 -0.455294 5.24628 0
M  V30 7715 H 725.885 0.0772102 3.77821 0
M  V30 7716 H 726.198 0.782529 7.68828 0
M  V30 7717 H 724.543 0.696835 6.91498 0
M  V30 7718 H 727.734 0.17986 4.67754 0
M  V30 7719 H 727.907 0.501263 6.46058 0
M  V30 7720 N 721.313 -1.57302 -0.09688 0
M  V30 7721 C 722.59 -1.7701 -0.832272 0
M  V30 7722 C 722.97 -0.758025 -1.97021 0
M  V30 7723 O 722.318 0.213824 -2.27497 0
M  V30 7724 C 722.528 -3.22725 -1.32851 0
M  V30 7725 C 723.876 -3.85856 -1.772 0
M  V30 7726 O 724.9 -3.26464 -1.42478 0
M  V30 7727 O 723.759 -4.90295 -2.41398 0
M  V30 7728 H 720.853 -0.725558 -0.396856 0
M  V30 7729 H 723.399 -1.69516 -0.0789005 0
M  V30 7730 H 722.171 -3.87921 -0.51312 0
M  V30 7731 H 721.794 -3.34845 -2.14394 0
M  V30 7732 N 722.791 0.367657 -1.53252 0
M  V30 7733 C 724.04 1.10782 -1.68554 0
M  V30 7734 C 724.353 1.90523 -0.442765 0
M  V30 7735 O 725.559 2.6729 -0.47629 0
M  V30 7736 C 724.015 2.01863 -2.97959 0
M  V30 7737 C 723.623 1.27443 -4.29491 0
M  V30 7738 C 725.367 2.75883 -3.22628 0
M  V30 7739 C 723.274 2.17414 -5.49987 0
M  V30 7740 H 722.204 0.417272 -0.628013 0
M  V30 7741 H 724.855 0.368971 -1.79752 0
M  V30 7742 H 723.237 2.7947 -2.80558 0
M  V30 7743 H 724.411 0.549138 -4.57516 0
M  V30 7744 H 722.726 0.652935 -4.11249 0
M  V30 7745 H 725.323 3.43421 -4.09837 0
M  V30 7746 H 725.666 3.41138 -2.38601 0
M  V30 7747 H 726.199 2.0536 -3.40693 0
M  V30 7748 H 722.938 1.5674 -6.36485 0
M  V30 7749 H 722.458 2.87799 -5.26243 0
M  V30 7750 H 724.137 2.77019 -5.84696 0
M  V30 7751 N 724.269 1.44576 0.627338 0
M  V30 7752 C 725.216 1.51734 1.73912 0
M  V30 7753 C 726.186 0.364745 1.62046 0
M  V30 7754 O 727.371 0.575503 1.81914 0
M  V30 7755 C 724.511 1.47116 3.12171 0
M  V30 7756 C 723.624 2.72778 3.34986 0
M  V30 7757 C 722.759 2.59968 4.63239 0
M  V30 7758 C 721.798 3.80776 4.79245 0
M  V30 7759 N 720.935 3.66618 5.98778 0
M  V30 7760 H 725.775 2.46722 1.6713 0
M  V30 7761 H 723.312 1.22444 0.815224 0
M  V30 7762 H 725.27 1.42429 3.92135 0
M  V30 7763 H 723.9 0.556928 3.17959 0
M  V30 7764 H 722.952 2.87637 2.48936 0
M  V30 7765 H 724.264 3.62441 3.42692 0
M  V30 7766 H 723.418 2.53135 5.51369 0
M  V30 7767 H 722.157 1.67872 4.57898 0
M  V30 7768 H 721.162 3.87989 3.89544 0
M  V30 7769 H 722.387 4.73913 4.86398 0
M  V30 7770 H 720.333 2.77277 5.9452 0
M  V30 7771 H 720.25 4.499 6.07557 0
M  V30 7772 H 721.518 3.63684 6.89459 0
M  V30 7773 N 725.747 -0.868086 1.31537 0
M  V30 7774 C 726.995 -1.61807 1.21091 0
M  V30 7775 C 727.316 -1.93631 -0.230623 0
M  V30 7776 O 726.586 -1.5846 -1.15183 0
M  V30 7777 H 725.166 -0.599854 0.445178 0
M  V30 7778 H 727.828 -1.03915 1.64887 0
M  V30 7779 H 726.924 -2.56088 1.78396 0
M  V30 7780 N 727.225 -1.14528 -1.08264 0
M  V30 7781 C 728.188 -0.83632 -2.13397 0
M  V30 7782 C 729.188 0.159715 -1.60005 0
M  V30 7783 O 730.378 -0.0688098 -1.74064 0
M  V30 7784 C 727.51 -0.246973 -3.40004 0
M  V30 7785 H 728.703 -1.76808 -2.42237 0
M  V30 7786 H 726.256 -0.951509 -1.24 0
M  V30 7787 H 726.991 0.693436 -3.168 0
M  V30 7788 H 726.776 -0.964412 -3.80055 0
M  V30 7789 H 728.266 -0.0480679 -4.17572 0
M  V30 7790 N 728.703 1.26451 -0.940633 0
M  V30 7791 C 729.651 2.28389 -0.440581 0
M  V30 7792 C 730.645 1.62402 0.481859 0
M  V30 7793 O 731.851 1.76361 0.360132 0
M  V30 7794 H 728.226 0.741716 -0.123938 0
M  V30 7795 H 730.197 2.67967 -1.31288 0
M  V30 7796 C 728.946 3.46576 0.279364 0
M  V30 7797 H 728.269 3.97574 -0.421274 0
M  V30 7798 H 729.709 4.19826 0.59348 0
M  V30 7799 C 728.168 3.01815 1.49697 0
M  V30 7800 O 728.698 3.06607 2.59529 0
M  V30 7801 N 726.904 2.57163 1.35334 0
M  V30 7802 H 726.451 2.53464 0.459743 0
M  V30 7803 H 726.409 2.27578 2.16923 0
M  V30 7804 N 730.181 0.707592 1.40822 0
M  V30 7805 C 731.43 0.240705 2.00259 0
M  V30 7806 C 731.743 -1.17027 1.56729 0
M  V30 7807 O 732.949 -1.73526 2.08809 0
M  V30 7808 C 731.405 0.379432 3.57894 0
M  V30 7809 C 731.013 1.79654 4.104 0
M  V30 7810 C 732.757 -0.0270684 4.24491 0
M  V30 7811 C 730.664 1.88628 5.60512 0
M  V30 7812 H 729.594 0.0862369 0.749052 0
M  V30 7813 H 732.245 0.877528 1.61157 0
M  V30 7814 H 730.627 -0.325842 3.94657 0
M  V30 7815 H 731.801 2.53155 3.85032 0
M  V30 7816 H 730.116 2.15379 3.56372 0
M  V30 7817 H 732.713 0.0193743 5.34696 0
M  V30 7818 H 733.056 -1.06772 4.02375 0
M  V30 7819 H 733.589 0.628361 3.92806 0
M  V30 7820 H 730.328 2.90787 5.87472 0
M  V30 7821 H 729.848 1.19528 5.8777 0
M  V30 7822 H 731.527 1.6547 6.25483 0
M  V30 7823 N 731.66 -1.50943 0.453197 0
M  V30 7824 C 732.59 -2.31005 -0.34044 0
M  V30 7825 C 733.571 -1.37112 -1.00669 0
M  V30 7826 O 734.756 -1.66033 -1.0073 0
M  V30 7827 C 731.886 -3.16358 -1.433 0
M  V30 7828 C 730.84 -4.18658 -0.889363 0
M  V30 7829 C 730.166 -4.92633 -2.07887 0
M  V30 7830 C 731.466 -5.22227 0.0871142 0
M  V30 7831 H 733.16 -2.97601 0.327723 0
M  V30 7832 H 730.706 -1.43119 0.159054 0
M  V30 7833 H 732.659 -3.71155 -1.99555 0
M  V30 7834 H 731.383 -2.47613 -2.12968 0
M  V30 7835 H 730.042 -3.64936 -0.348915 0
M  V30 7836 H 729.69 -4.20376 -2.76211 0
M  V30 7837 H 729.39 -5.61819 -1.72143 0
M  V30 7838 H 730.914 -5.50258 -2.64666 0
M  V30 7839 H 732.328 -5.72001 -0.385656 0
M  V30 7840 H 730.725 -5.99032 0.357926 0
M  V30 7841 H 731.795 -4.74077 1.01879 0
M  V30 7842 N 733.138 -0.185124 -1.56509 0
M  V30 7843 C 734.554 0.170865 -1.58683 0
M  V30 7844 C 734.754 1.61799 -1.20098 0
M  V30 7845 O 733.81 2.35181 -0.919038 0
M  V30 7846 C 735.123 -0.122459 -3.00451 0
M  V30 7847 C 736.671 -0.0617699 -3.12939 0
M  V30 7848 C 737.146 -0.328269 -4.56822 0
M  V30 7849 N 738.637 -0.276533 -4.62374 0
M  V30 7850 C 739.372 -0.456722 -5.71578 0
M  V30 7851 N 738.868 -0.69672 -6.89288 0
M  V30 7852 N 740.661 -0.391669 -5.60734 0
M  V30 7853 H 732.812 -1.12956 -1.79874 0
M  V30 7854 H 735.075 -0.45011 -0.834329 0
M  V30 7855 H 734.781 -1.12546 -3.33206 0
M  V30 7856 H 734.655 0.579578 -3.72721 0
M  V30 7857 H 737.042 0.931826 -2.80002 0
M  V30 7858 H 737.123 -0.796732 -2.43076 0
M  V30 7859 H 736.767 -1.31914 -4.9047 0
M  V30 7860 H 736.697 0.427465 -5.24862 0
M  V30 7861 H 739.188 -0.0972458 -3.77775 0
M  V30 7862 H 739.501 -0.823291 -7.68402 0
M  V30 7863 H 737.846 -0.733497 -6.91119 0
M  V30 7864 H 741.037 -0.204663 -4.67652 0
M  V30 7865 H 741.21 -0.535518 -6.45783 0
M  V30 7866 N 734.616 1.57351 0.0885366 0
M  V30 7867 C 735.893 1.77449 0.822873 0
M  V30 7868 C 736.273 0.768463 1.96616 0
M  V30 7869 O 735.621 -0.201757 2.27608 0
M  V30 7870 C 735.831 3.23425 1.31137 0
M  V30 7871 C 737.179 3.86791 1.75152 0
M  V30 7872 O 738.203 3.27215 1.40745 0
M  V30 7873 O 737.062 4.91568 2.38794 0
M  V30 7874 H 734.156 0.727653 0.393002 0
M  V30 7875 H 736.702 1.69556 0.0699095 0
M  V30 7876 H 735.474 3.88188 0.49254 0
M  V30 7877 H 735.097 3.35977 2.12615 0
M  V30 7878 N 736.094 -0.359525 1.53444 0
M  V30 7879 C 737.319 -1.12644 1.74144 0
M  V30 7880 C 737.744 -1.82082 0.472007 0
M  V30 7881 O 737.102 -1.71962 -0.57436 0
M  V30 7882 C 737.15 -2.12781 2.9113 0
M  V30 7883 O 736.254 -3.19984 2.60162 0
M  V30 7884 H 735.595 -0.326553 0.578152 0
M  V30 7885 H 738.125 -0.414798 2.00351 0
M  V30 7886 H 738.135 -2.56278 3.17467 0
M  V30 7887 H 736.81 -1.61634 3.83207 0
M  V30 7888 H 735.387 -2.81417 2.44661 0
M  V30 7889 N 737.572 -1.44907 -0.619662 0
M  V30 7890 C 738.535 -1.52282 -1.71297 0
M  V30 7891 C 739.535 -0.40359 -1.55653 0
M  V30 7892 O 740.725 -0.666638 -1.6094 0
M  V30 7893 C 737.857 -1.40778 -3.10474 0
M  V30 7894 H 739.05 -2.49683 -1.66128 0
M  V30 7895 H 736.603 -1.32168 -0.834339 0
M  V30 7896 H 737.338 -0.445156 -3.2123 0
M  V30 7897 H 737.123 -2.21947 -3.23237 0
M  V30 7898 H 738.613 -1.48946 -3.90135 0
M  V30 7899 N 739.05 0.861098 -1.31996 0
M  V30 7900 C 740.298 1.61162 -1.21947 0
M  V30 7901 C 740.619 1.93751 0.220351 0
M  V30 7902 O 739.889 1.59069 1.14341 0
M  V30 7903 H 738.469 0.597485 -0.448353 0
M  V30 7904 H 741.131 1.03039 -1.65436 0
M  V30 7905 H 740.227 2.55138 -1.79752 0
M  V30 7906 N 740.528 1.15101 1.07655 0
M  V30 7907 C 741.476 0.840714 2.16875 0
M  V30 7908 C 742.47 -0.184594 1.68391 0
M  V30 7909 O 743.676 -0.0399315 1.79956 0
M  V30 7910 H 740.051 0.254192 0.707736 0
M  V30 7911 H 742.022 1.76959 2.40266 0
M  V30 7912 C 740.771 0.343018 3.46004 0
M  V30 7913 H 740.094 1.12335 3.83694 0
M  V30 7914 H 741.534 0.16453 4.23681 0
M  V30 7915 C 739.993 -0.934881 3.23669 0
M  V30 7916 O 740.523 -2.00706 3.47965 0
M  V30 7917 N 738.729 -0.873167 2.77172 0
M  V30 7918 H 738.276 -0.000479072 2.576 0
M  V30 7919 H 738.234 -1.72873 2.62607 0
M  V30 7920 N 742.006 -1.2595 0.947325 0
M  V30 7921 C 743.252 -1.9375 0.599064 0
M  V30 7922 C 743.585 -1.74088 -0.860632 0
M  V30 7923 O 742.86 -1.08158 -1.61654 0
M  V30 7924 C 743.143 -3.47353 0.949634 0
M  V30 7925 C 742.996 -3.76273 2.46452 0
M  V30 7926 C 744.315 -4.37589 0.469442 0
M  V30 7927 H 741.434 -0.703674 0.219115 0
M  V30 7928 H 744.076 -1.48705 1.18266 0
M  V30 7929 H 742.226 -3.8585 0.453008 0
M  V30 7930 H 743.898 -3.47455 3.03435 0
M  V30 7931 H 742.141 -3.22135 2.90537 0
M  V30 7932 H 742.812 -4.83664 2.66032 0
M  V30 7933 H 745.288 -4.06353 0.89534 0
M  V30 7934 H 744.164 -5.43841 0.7435 0
M  V30 7935 H 744.425 -4.37579 -0.630618 0
M  V30 7936 N 743.484 -0.715051 -1.40445 0
M  V30 7937 C 744.431 -0.0621393 -2.30716 0
M  V30 7938 C 745.401 0.750871 -1.48159 0
M  V30 7939 O 746.586 0.714928 -1.76899 0
M  V30 7940 C 743.726 0.854036 -3.34365 0
M  V30 7941 C 742.839 0.0305565 -4.31989 0
M  V30 7942 C 741.974 0.946162 -5.22706 0
M  V30 7943 C 741.013 0.116741 -6.11989 0
M  V30 7944 N 740.15 0.987194 -6.95125 0
M  V30 7945 H 744.99 -0.83764 -2.85985 0
M  V30 7946 H 742.527 -0.424759 -1.40834 0
M  V30 7947 H 744.485 1.39946 -3.93028 0
M  V30 7948 H 743.115 1.59572 -2.806 0
M  V30 7949 H 742.167 -0.632044 -3.75112 0
M  V30 7950 H 743.479 -0.611615 -4.95036 0
M  V30 7951 H 742.633 1.56014 -5.86297 0
M  V30 7952 H 741.372 1.62216 -4.59932 0
M  V30 7953 H 740.377 -0.510176 -5.47428 0
M  V30 7954 H 741.602 -0.555742 -6.76822 0
M  V30 7955 H 739.548 1.64885 -6.3494 0
M  V30 7956 H 739.465 0.401046 -7.54936 0
M  V30 7957 H 740.733 1.58737 -7.63166 0
M  V30 7958 N 744.962 1.50701 -0.461195 0
M  V30 7959 C 745.892 2.31182 0.328184 0
M  V30 7960 C 746.873 1.37644 0.999408 0
M  V30 7961 O 748.058 1.66565 0.99848 0
M  V30 7962 C 745.188 3.17113 1.41621 0
M  V30 7963 C 744.142 4.19124 0.867148 0
M  V30 7964 C 743.468 4.93728 2.05272 0
M  V30 7965 C 744.768 5.22174 -0.114808 0
M  V30 7966 H 746.462 2.97423 -0.343501 0
M  V30 7967 H 744.008 1.43033 -0.166641 0
M  V30 7968 H 745.961 3.72208 1.97584 0
M  V30 7969 H 744.685 2.48739 2.11652 0
M  V30 7970 H 743.344 3.65116 0.329557 0
M  V30 7971 H 742.992 4.21835 2.73978 0
M  V30 7972 H 742.692 5.62724 1.69161 0
M  V30 7973 H 744.216 5.51654 2.61744 0
M  V30 7974 H 745.63 5.72198 0.355316 0
M  V30 7975 H 744.027 5.98833 -0.389689 0
M  V30 7976 H 745.097 4.7353 -1.04391 0
M  V30 7977 N 746.441 0.193421 1.56409 0
M  V30 7978 C 747.689 -0.444908 1.97142 0
M  V30 7979 C 748.01 -1.62268 1.08139 0
M  V30 7980 O 747.28 -1.95307 0.152326 0
M  V30 7981 H 745.86 -0.16736 0.728011 0
M  V30 7982 H 748.522 0.279763 1.92882 0
M  V30 7983 H 747.618 -0.790159 3.01932 0
M  V30 7984 N 747.919 -1.57396 -0.0801906 0
M  V30 7985 C 749.196 -1.77883 -0.813451 0
M  V30 7986 C 749.576 -0.778879 -1.96206 0
M  V30 7987 O 748.924 0.189683 -2.27711 0
M  V30 7988 C 749.134 -3.24116 -1.2942 0
M  V30 7989 C 750.482 -3.87714 -1.73098 0
M  V30 7990 O 751.506 -3.27956 -1.39007 0
M  V30 7991 O 750.365 -4.92828 -2.36184 0
M  V30 7992 H 747.459 -0.729727 -0.389138 0
M  V30 7993 H 750.005 -1.69591 -0.0609166 0
M  V30 7994 H 748.777 -3.88443 -0.471947 0
M  V30 7995 H 748.4 -3.371 -2.1083 0
M  V30 7996 N 749.397 0.351382 -1.53633 0
M  V30 7997 C 750.644 1.0925 -1.70502 0
M  V30 7998 C 750.972 1.88881 -0.464123 0
M  V30 7999 O 750.227 1.87693 0.554077 0
M  V30 8000 C 750.526 2.06744 -2.91533 0
M  V30 8001 C 750.192 1.43484 -4.27461 0
M  V30 8002 C 748.854 1.2596 -4.64422 0
M  V30 8003 C 751.206 0.978436 -5.11934 0
M  V30 8004 C 748.534 0.614017 -5.83478 0
M  V30 8005 C 750.886 0.346795 -6.31649 0
M  V30 8006 C 749.55 0.15917 -6.6731 0
M  V30 8007 H 748.82 0.399773 -0.623909 0
M  V30 8008 H 751.467 0.372656 -1.87839 0
M  V30 8009 H 749.772 2.85082 -2.68767 0
M  V30 8010 H 751.469 2.64066 -3.01778 0
M  V30 8011 H 748.059 1.5812 -3.98367 0
M  V30 8012 H 752.243 1.1017 -4.83918 0
M  V30 8013 H 747.499 0.457194 -6.09688 0
M  V30 8014 H 751.673 -0.0149864 -6.96398 0
M  V30 8015 H 749.3 -0.343129 -7.59425 0
M  V30 8016 N 750.875 1.45233 0.611969 0
M  V30 8017 C 752.123 1.48727 1.36838 0
M  V30 8018 C 752.444 0.128616 1.94575 0
M  V30 8019 O 751.714 -0.84149 1.76906 0
M  V30 8020 H 750.294 0.547695 0.507976 0
M  V30 8021 H 752.956 1.81156 0.718925 0
M  V30 8022 H 752.052 2.2236 2.19003 0
M  V30 8023 N 752.353 -0.854086 1.3245 0
M  V30 8024 C 753.316 -1.94427 1.21371 0
M  V30 8025 C 754.316 -1.60219 0.136613 0
M  V30 8026 O 755.506 -1.69846 0.387057 0
M  V30 8027 C 752.638 -3.29698 0.866701 0
M  V30 8028 H 753.831 -2.05679 2.18257 0
M  V30 8029 H 751.384 -1.04434 1.1629 0
M  V30 8030 H 752.119 -3.24145 -0.100319 0
M  V30 8031 H 751.904 -3.55903 1.64545 0
M  V30 8032 H 753.394 -4.09599 0.813515 0
M  V30 8033 N 753.831 -1.1567 -1.07043 0
M  V30 8034 C 755.056 -0.957946 -1.83952 0
M  V30 8035 C 755.481 0.488807 -1.81638 0
M  V30 8036 O 754.839 1.34869 -1.21162 0
M  V30 8037 C 754.887 -1.48064 -3.288 0
M  V30 8038 O 753.991 -0.681921 -4.06723 0
M  V30 8039 H 753.332 -0.341453 -0.569479 0
M  V30 8040 H 755.862 -1.53728 -1.35015 0
M  V30 8041 H 755.872 -1.49484 -3.7963 0
M  V30 8042 H 754.547 -2.53388 -3.29799 0
M  V30 8043 H 753.124 -0.737612 -3.65532 0
M  V30 8044 N 755.309 1.25446 -0.953992 0
M  V30 8045 C 756.256 2.25912 -0.472485 0
M  V30 8046 C 757.226 1.59173 0.47469 0
M  V30 8047 O 758.411 1.86812 0.388082 0
M  V30 8048 C 755.551 3.44235 0.244218 0
M  V30 8049 C 754.664 4.25613 -0.740121 0
M  V30 8050 C 753.799 5.312 -0.000922267 0
M  V30 8051 C 752.838 6.04265 -0.976236 0
M  V30 8052 N 751.975 7.01589 -0.267952 0
M  V30 8053 H 756.815 2.66469 -1.3341 0
M  V30 8054 H 754.352 1.31005 -0.669045 0
M  V30 8055 H 756.31 4.11682 0.676314 0
M  V30 8056 H 754.94 3.04554 1.06988 0
M  V30 8057 H 753.992 3.57834 -1.2907 0
M  V30 8058 H 755.304 4.762 -1.48441 0
M  V30 8059 H 754.458 6.04719 0.48984 0
M  V30 8060 H 753.197 4.81484 0.776159 0
M  V30 8061 H 752.202 5.29561 -1.478 0
M  V30 8062 H 753.427 6.5607 -1.75354 0
M  V30 8063 H 751.373 6.54164 0.490403 0
M  V30 8064 H 751.29 7.4999 -0.951344 0
M  V30 8065 H 752.558 7.7924 0.201294 0
M  V30 8066 N 756.787 0.722489 1.40064 0
M  V30 8067 C 758.203 0.396758 1.5459 0
M  V30 8068 C 758.403 -1.09375 1.69232 0
M  V30 8069 O 757.459 -1.87984 1.68578 0
M  V30 8070 C 758.772 1.16885 2.77053 0
M  V30 8071 C 760.32 1.15583 2.90877 0
M  V30 8072 C 760.795 1.91023 4.16262 0
M  V30 8073 N 762.286 1.88126 4.23276 0
M  V30 8074 C 763.021 2.43315 5.19216 0
M  V30 8075 N 762.517 3.07089 6.21022 0
M  V30 8076 N 764.31 2.33418 5.11344 0
M  V30 8077 H 756.461 1.68887 1.28806 0
M  V30 8078 H 758.724 0.714231 0.62336 0
M  V30 8079 H 758.43 2.22301 2.72534 0
M  V30 8080 H 758.304 0.765011 3.69361 0
M  V30 8081 H 760.691 0.10984 2.94896 0
M  V30 8082 H 760.772 1.59895 1.99668 0
M  V30 8083 H 760.416 2.95616 4.13006 0
M  V30 8084 H 760.346 1.44126 5.06493 0
M  V30 8085 H 762.837 1.41654 3.50346 0
M  V30 8086 H 763.15 3.467 6.90666 0
M  V30 8087 H 761.495 3.11175 6.21446 0
M  V30 8088 H 764.686 1.83248 4.30741 0
M  V30 8089 H 764.859 2.7673 5.85939 0
M  V30 8090 N 758.265 -1.50454 0.469181 0
M  V30 8091 C 759.195 -2.31353 -0.31592 0
M  V30 8092 C 760.176 -1.38172 -0.992094 0
M  V30 8093 O 761.361 -1.67093 -0.989633 0
M  V30 8094 C 758.491 -3.1786 -1.39937 0
M  V30 8095 C 757.445 -4.19578 -0.844909 0
M  V30 8096 C 756.771 -4.9481 -2.0265 0
M  V30 8097 C 758.071 -5.22106 0.142499 0
M  V30 8098 H 759.765 -2.97237 0.359269 0
M  V30 8099 H 757.311 -1.42942 0.174224 0
M  V30 8100 H 759.264 -3.7325 -1.95607 0
M  V30 8101 H 757.988 -2.49858 -2.1033 0
M  V30 8102 H 756.647 -3.65285 -0.310189 0
M  V30 8103 H 756.295 -4.23282 -2.71737 0
M  V30 8104 H 755.995 -5.63613 -1.66174 0
M  V30 8105 H 757.519 -5.53035 -2.58815 0
M  V30 8106 H 758.933 -5.72378 -0.324966 0
M  V30 8107 H 757.33 -5.98618 0.421441 0
M  V30 8108 H 758.4 -4.7297 1.06901 0
M  V30 8109 N 759.743 -0.201713 -1.56304 0
M  V30 8110 C 760.675 0.748466 -2.16635 0
M  V30 8111 C 761.688 1.172 -1.12996 0
M  V30 8112 O 762.877 1.10658 -1.40061 0
M  V30 8113 C 759.977 2.02296 -2.719 0
M  V30 8114 C 759.15 1.75818 -4.00508 0
M  V30 8115 C 758.209 2.87779 -4.40533 0
M  V30 8116 O 757.235 2.57101 -5.07826 0
M  V30 8117 N 758.437 4.16287 -4.04581 0
M  V30 8118 H 761.202 0.232505 -2.98797 0
M  V30 8119 H 758.763 -0.0199822 -1.61888 0
M  V30 8120 H 760.755 2.7635 -2.95657 0
M  V30 8121 H 759.325 2.44996 -1.94154 0
M  V30 8122 H 758.545 0.855095 -3.84814 0
M  V30 8123 H 759.833 1.55532 -4.84445 0
M  V30 8124 H 759.231 4.44061 -3.50466 0
M  V30 8125 H 757.788 4.86946 -4.33274 0
M  V30 8126 N 761.222 1.57436 0.0718424 0
M  V30 8127 C 762.45 1.91474 0.783932 0
M  V30 8128 C 762.865 0.797669 1.71122 0
M  V30 8129 O 762.222 -0.228989 1.81058 0
M  V30 8130 C 762.273 3.25259 1.57761 0
M  V30 8131 O 761.994 4.3267 0.687596 0
M  V30 8132 C 763.495 3.7331 2.3907 0
M  V30 8133 H 760.715 0.632901 0.222885 0
M  V30 8134 H 763.259 2.04457 0.0421262 0
M  V30 8135 H 761.414 3.13804 2.27169 0
M  V30 8136 H 761.828 5.09641 1.23962 0
M  V30 8137 H 763.302 4.69551 2.90216 0
M  V30 8138 H 763.779 3.02318 3.18591 0
M  V30 8139 H 764.385 3.8771 1.74818 0
M  V30 8140 N 762.7 -0.34323 1.53817 0
M  V30 8141 C 763.949 -1.08086 1.70295 0
M  V30 8142 C 764.262 -1.89794 0.47302 0
M  V30 8143 O 765.468 -2.66498 0.518754 0
M  V30 8144 C 763.924 -1.97097 3.01133 0
M  V30 8145 C 763.532 -1.20594 4.31464 0
M  V30 8146 C 765.276 -2.70715 3.26976 0
M  V30 8147 C 763.183 -2.08636 5.53376 0
M  V30 8148 H 762.113 -0.407228 0.634572 0
M  V30 8149 H 764.764 -0.340328 1.80316 0
M  V30 8150 H 763.146 -2.74971 2.84969 0
M  V30 8151 H 764.32 -0.476282 4.58332 0
M  V30 8152 H 762.635 -0.587426 4.12236 0
M  V30 8153 H 765.232 -3.36857 4.15248 0
M  V30 8154 H 765.575 -3.37299 2.43998 0
M  V30 8155 H 766.108 -1.99914 3.43917 0
M  V30 8156 H 762.847 -1.46594 6.38898 0
M  V30 8157 H 762.367 -2.7939 5.30755 0
M  V30 8158 H 764.046 -2.67682 5.89029 0
M  V30 8159 N 764.178 -1.45556 -0.604258 0
M  V30 8160 C 765.418 -1.51289 -1.37445 0
M  V30 8161 C 765.782 -0.152112 -1.91397 0
M  V30 8162 O 766.983 -0.0841419 -2.68668 0
M  V30 8163 C 765.254 -2.5646 -2.48924 0
M  V30 8164 S 766.813 -2.81442 -3.36654 0
M  V30 8165 H 763.631 -0.534774 -0.468549 0
M  V30 8166 H 766.233 -1.82657 -0.696902 0
M  V30 8167 H 764.937 -3.53995 -2.07644 0
M  V30 8168 H 764.468 -2.26753 -3.21476 0
M  V30 8169 H 766.483 -2.15074 -4.47166 0
M  V30 8170 N 765.656 0.84705 -1.32902 0
M  V30 8171 C 766.589 1.96038 -1.1681 0
M  V30 8172 C 767.567 1.62468 -0.0656144 0
M  V30 8173 O 768.751 1.87136 -0.226339 0
M  V30 8174 C 765.878 3.29362 -0.789839 0
M  V30 8175 C 764.924 3.81908 -1.89865 0
M  V30 8176 S 765.757 4.04576 -3.50826 0
M  V30 8177 C 766.913 5.40863 -3.14989 0
M  V30 8178 H 767.146 2.09387 -2.11055 0
M  V30 8179 H 764.679 0.999896 -1.1765 0
M  V30 8180 H 766.637 4.06405 -0.578369 0
M  V30 8181 H 765.298 3.13815 0.133878 0
M  V30 8182 H 764.491 4.78357 -1.58716 0
M  V30 8183 H 764.093 3.11733 -2.06636 0
M  V30 8184 H 766.385 6.23393 -2.65306 0
M  V30 8185 H 767.328 5.7698 -4.10488 0
M  V30 8186 H 767.736 5.05228 -2.51804 0
M  V30 8187 N 767.134 1.16236 1.06428 0
M  V30 8188 C 768.359 0.967688 1.83441 0
M  V30 8189 C 768.784 -0.479167 1.81894 0
M  V30 8190 O 768.142 -1.34224 1.21875 0
M  V30 8191 C 768.19 1.49806 3.2801 0
M  V30 8192 O 767.294 0.703481 4.06356 0
M  V30 8193 H 766.635 0.344468 0.56766 0
M  V30 8194 H 769.165 1.54442 1.34197 0
M  V30 8195 H 769.175 1.51495 3.78831 0
M  V30 8196 H 767.85 2.55133 3.2845 0
M  V30 8197 H 766.427 0.756986 3.65136 0
M  V30 8198 N 768.612 -1.24939 0.960631 0
M  V30 8199 C 769.86 -1.92437 0.617441 0
M  V30 8200 C 770.181 -1.75543 -0.849101 0
M  V30 8201 O 769.451 -1.12269 -1.60538 0
M  V30 8202 H 768.031 -0.712192 0.225371 0
M  V30 8203 H 770.693 -1.5198 1.22017 0
M  V30 8204 H 769.789 -3.00247 0.851933 0
M  V30 8205 N 770.09 -0.729906 -1.39679 0
M  V30 8206 C 771.318 -0.285709 -2.04918 0
M  V30 8207 C 771.733 1.07765 -1.55023 0
M  V30 8208 O 771.09 1.67999 -0.712923 0
M  V30 8209 C 771.141 -0.272793 -3.60469 0
M  V30 8210 O 770.862 -1.58233 -4.08527 0
M  V30 8211 C 772.363 0.188199 -4.429 0
M  V30 8212 H 769.583 -0.125758 -0.65911 0
M  V30 8213 H 772.127 -0.992129 -1.78821 0
M  V30 8214 H 770.282 0.384699 -3.85485 0
M  V30 8215 H 770.696 -1.49245 -5.02818 0
M  V30 8216 H 772.17 0.14608 -5.51807 0
M  V30 8217 H 772.647 1.2326 -4.21549 0
M  V30 8218 H 773.253 -0.439541 -4.23023 0
M  V30 8219 N 771.568 1.50203 -0.477153 0
M  V30 8220 C 772.816 2.01959 0.0755889 0
M  V30 8221 C 773.137 1.3608 1.39668 0
M  V30 8222 O 772.407 0.508136 1.89195 0
M  V30 8223 H 770.987 0.74636 0.0309248 0
M  V30 8224 H 773.649 1.84473 -0.628959 0
M  V30 8225 H 772.745 3.11305 0.222683 0
M  V30 8226 N 773.046 0.209999 1.56195 0
M  V30 8227 C 773.979 -0.744546 2.15712 0
M  V30 8228 C 774.957 -1.19917 1.09812 0
M  V30 8229 O 776.141 -1.284 1.38006 0
M  V30 8230 C 773.268 -2.00733 2.72807 0
M  V30 8231 C 772.314 -1.69363 3.91431 0
M  V30 8232 S 773.147 -0.828579 5.29051 0
M  V30 8233 C 774.303 -2.10118 5.89577 0
M  V30 8234 H 774.536 -0.238636 2.96341 0
M  V30 8235 H 772.069 -0.00517877 1.54399 0
M  V30 8236 H 774.027 -2.73246 3.06344 0
M  V30 8237 H 772.688 -2.48436 1.92193 0
M  V30 8238 H 771.881 -2.63157 4.29842 0
M  V30 8239 H 771.483 -1.04921 3.58981 0
M  V30 8240 H 773.775 -3.05231 6.04847 0
M  V30 8241 H 774.718 -1.76116 6.85849 0
M  V30 8242 H 775.126 -2.23644 5.18308 0
M  V30 8243 N 774.524 -1.57472 -0.0634922 0
M  V30 8244 C 775.94 -1.54016 -0.418466 0
M  V30 8245 C 776.14 -0.931376 -1.78683 0
M  V30 8246 O 775.196 -0.537465 -2.46714 0
M  V30 8247 C 776.509 -2.98634 -0.351906 0
M  V30 8248 C 778.057 -3.10012 -0.431494 0
M  V30 8249 C 778.532 -4.56296 -0.394754 0
M  V30 8250 N 780.023 -4.60964 -0.454583 0
M  V30 8251 C 780.758 -5.71643 -0.448501 0
M  V30 8252 N 780.254 -6.91663 -0.396742 0
M  V30 8253 N 782.047 -5.5991 -0.495677 0
M  V30 8254 H 774.198 -1.95409 0.832408 0
M  V30 8255 H 776.461 -0.894769 0.313197 0
M  V30 8256 H 776.167 -3.46766 0.587048 0
M  V30 8257 H 776.041 -3.58955 -1.15893 0
M  V30 8258 H 778.428 -2.61848 -1.36087 0
M  V30 8259 H 778.509 -2.52585 0.404258 0
M  V30 8260 H 778.153 -5.05119 0.530811 0
M  V30 8261 H 778.083 -5.11594 -1.24815 0
M  V30 8262 H 780.574 -3.74598 -0.498496 0
M  V30 8263 H 780.887 -7.71783 -0.396256 0
M  V30 8264 H 779.232 -6.9405 -0.363304 0
M  V30 8265 H 782.423 -4.65046 -0.533864 0
M  V30 8266 H 782.596 -6.46164 -0.487469 0
M  V30 8267 N 776.003 0.335068 -1.53997 0
M  V30 8268 C 777.228 1.09859 -1.75914 0
M  V30 8269 C 777.653 1.81308 -0.500915 0
M  V30 8270 O 777.011 1.72854 0.54693 0
M  V30 8271 C 777.059 2.08122 -2.94478 0
M  V30 8272 O 776.163 3.15805 -2.65219 0
M  V30 8273 H 775.504 0.317313 -0.583274 0
M  V30 8274 H 778.034 0.382872 -2.00986 0
M  V30 8275 H 778.044 2.51195 -3.21504 0
M  V30 8276 H 776.719 1.55517 -3.8573 0
M  V30 8277 H 775.296 2.77489 -2.49107 0
M  V30 8278 N 777.481 1.45874 0.596531 0
M  V30 8279 C 778.727 1.5069 1.35722 0
M  V30 8280 C 779.06 0.152506 1.936 0
M  V30 8281 O 778.335 -0.834411 1.75692 0
M  V30 8282 C 778.618 2.59474 2.4969 0
M  V30 8283 C 778.471 4.04396 1.96937 0
M  V30 8284 C 779.79 2.64451 3.51787 0
M  V30 8285 H 776.909 0.548611 0.492133 0
M  V30 8286 H 779.551 1.77741 0.671428 0
M  V30 8287 H 777.701 2.36539 3.08191 0
M  V30 8288 H 779.373 4.38576 1.43 0
M  V30 8289 H 777.616 4.14529 1.27859 0
M  V30 8290 H 778.287 4.76218 2.79143 0
M  V30 8291 H 780.763 2.85031 3.03145 0
M  V30 8292 H 779.639 3.42411 4.29006 0
M  V30 8293 H 779.9 1.69965 4.08123 0
M  V30 8294 N 778.959 -0.83999 1.33349 0
M  V30 8295 C 780.187 -1.62728 1.27778 0
M  V30 8296 C 780.602 -1.88191 -0.151505 0
M  V30 8297 O 779.959 -1.46128 -1.09329 0
M  V30 8298 C 780.01 -2.97813 2.04913 0
M  V30 8299 O 779.731 -2.73469 3.42266 0
M  V30 8300 C 781.232 -3.92245 2.0654 0
M  V30 8301 H 778.452 -0.506374 0.440257 0
M  V30 8302 H 780.996 -1.04637 1.75703 0
M  V30 8303 H 779.151 -3.52509 1.60674 0
M  V30 8304 H 779.565 -3.59483 3.81932 0
M  V30 8305 H 781.039 -4.84249 2.64966 0
M  V30 8306 H 781.516 -4.26332 1.05537 0
M  V30 8307 H 782.122 -3.43487 2.50793 0
M  V30 8308 N 780.437 -1.16799 -1.0581 0
M  V30 8309 C 781.685 -0.950642 -1.78346 0
M  V30 8310 C 782.006 0.522524 -1.87869 0
M  V30 8311 O 781.276 1.3795 -1.39092 0
M  V30 8312 H 779.856 -0.348736 -0.6606 0
M  V30 8313 H 782.518 -1.47158 -1.27791 0
M  V30 8314 H 781.614 -1.37359 -2.80248 0
M  V30 8315 N 781.915 1.24427 -0.967243 0
M  V30 8316 C 783.143 1.96541 -0.646477 0
M  V30 8317 C 783.558 1.71753 0.783996 0
M  V30 8318 O 782.915 1.00102 1.52597 0
M  V30 8319 C 782.966 3.4983 -0.911098 0
M  V30 8320 O 782.687 3.7377 -2.28534 0
M  V30 8321 C 784.188 4.3916 -0.604458 0
M  V30 8322 H 781.408 0.626129 -0.241255 0
M  V30 8323 H 783.952 1.58268 -1.29505 0
M  V30 8324 H 782.107 3.86168 -0.308741 0
M  V30 8325 H 782.521 4.68154 -2.365 0
M  V30 8326 H 783.995 5.4557 -0.840069 0
M  V30 8327 H 784.472 4.36771 0.461273 0
M  V30 8328 H 785.078 4.08409 -1.1867 0
M  V30 8329 N 783.393 0.737304 1.3929 0
M  V30 8330 C 784.804 0.355966 1.83275 0
M  V30 8331 C 785.155 -1.11295 1.6158 0
M  V30 8332 O 784.28 -1.85871 1.10819 0
M  V30 8333 C 784.875 0.63931 3.32713 0
M  V30 8334 C 783.434 0.31144 3.75109 0
M  V30 8335 C 782.581 0.900765 2.62262 0
M  V30 8336 H 785.532 0.934763 1.28249 0
M  V30 8337 H 785.553 -0.0881293 3.80398 0
M  V30 8338 H 785.065 1.70847 3.48472 0
M  V30 8339 H 783.166 -0.751791 3.64937 0
M  V30 8340 H 783.279 0.795611 4.72448 0
M  V30 8341 H 781.643 0.327239 2.52589 0
M  V30 8342 H 782.426 1.97463 2.80826 0
M  V30 8343 N 784.871 -1.49948 0.485112 0
M  V30 8344 C 786.101 -2.06506 -0.0621921 0
M  V30 8345 C 786.509 -1.34756 -1.32806 0
M  V30 8346 O 785.852 -0.41466 -1.78959 0
M  V30 8347 C 785.914 -3.57243 -0.402182 0
M  V30 8348 C 785.578 -4.50574 0.763671 0
M  V30 8349 C 786.575 -4.93032 1.6497 0
M  V30 8350 C 784.26 -4.9308 0.957973 0
M  V30 8351 C 786.254 -5.76718 2.71432 0
M  V30 8352 C 783.941 -5.76546 2.0258 0
M  V30 8353 C 784.939 -6.18267 2.90232 0
M  V30 8354 O 784.627 -7.00066 3.95174 0
M  V30 8355 H 784.359 -0.675925 0.0100672 0
M  V30 8356 H 786.913 -1.93922 0.677023 0
M  V30 8357 H 785.143 -3.6778 -1.19478 0
M  V30 8358 H 786.832 -3.96107 -0.886219 0
M  V30 8359 H 787.598 -4.60851 1.51134 0
M  V30 8360 H 783.477 -4.60117 0.285144 0
M  V30 8361 H 787.021 -6.09203 3.39878 0
M  V30 8362 H 782.918 -6.0814 2.16417 0
M  V30 8363 H 783.686 -7.18343 3.92333 0
M  V30 8364 N 786.349 -0.21828 -1.56081 0
M  V30 8365 C 787.595 0.408181 -1.99262 0
M  V30 8366 C 787.95 1.57618 -1.10337 0
M  V30 8367 O 787.243 1.90991 -0.15263 0
M  V30 8368 C 787.437 0.894782 -3.46018 0
M  V30 8369 C 787.266 -0.224528 -4.49139 0
M  V30 8370 C 786.036 -0.689843 -5.00569 0
M  V30 8371 C 788.234 -1.04165 -5.03641 0
M  V30 8372 N 786.216 -1.78455 -5.8739 0
M  V30 8373 C 787.587 -1.98529 -5.87355 0
M  V30 8374 C 789.642 -1.08146 -4.86013 0
M  V30 8375 C 788.345 -2.96549 -6.55325 0
M  V30 8376 C 790.371 -2.04982 -5.5474 0
M  V30 8377 C 789.733 -2.98086 -6.38219 0
M  V30 8378 H 785.832 0.116127 -0.77333 0
M  V30 8379 H 788.416 -0.3293 -1.91895 0
M  V30 8380 H 786.587 1.60163 -3.53839 0
M  V30 8381 H 788.319 1.49379 -3.76122 0
M  V30 8382 H 785.074 -0.279021 -4.72777 0
M  V30 8383 H 785.498 -2.33381 -6.35502 0
M  V30 8384 H 790.14 -0.375581 -4.21129 0
M  V30 8385 H 787.858 -3.68101 -7.19394 0
M  V30 8386 H 791.444 -2.08732 -5.43067 0
M  V30 8387 H 790.324 -3.71794 -6.90463 0
M  V30 8388 N 787.827 1.57504 0.0551401 0
M  V30 8389 C 788.76 2.00155 1.09604 0
M  V30 8390 C 789.738 0.881274 1.36647 0
M  V30 8391 O 790.922 1.14498 1.49742 0
M  V30 8392 C 788.049 2.35246 2.43674 0
M  V30 8393 C 787.095 3.57452 2.32659 0
M  V30 8394 S 787.928 5.07639 1.7048 0
M  V30 8395 C 789.084 5.45947 3.06093 0
M  V30 8396 H 789.317 2.88131 0.732635 0
M  V30 8397 H 786.85 1.52122 0.264252 0
M  V30 8398 H 788.808 2.56136 3.20787 0
M  V30 8399 H 787.469 1.47769 2.7717 0
M  V30 8400 H 786.662 3.79576 3.31569 0
M  V30 8401 H 786.264 3.36279 1.63685 0
M  V30 8402 H 788.556 5.45036 4.0242 0
M  V30 8403 H 789.499 6.4656 2.88732 0
M  V30 8404 H 789.907 4.73419 3.07466 0
M  V30 8405 N 789.305 -0.326896 1.54172 0
M  V30 8406 C 790.53 -1.08924 1.76494 0
M  V30 8407 C 790.955 -1.81039 0.510523 0
M  V30 8408 O 790.313 -1.73141 -0.537756 0
M  V30 8409 C 790.361 -2.06558 2.95578 0
M  V30 8410 O 789.465 -3.14394 2.6689 0
M  V30 8411 H 788.806 -0.314216 0.584948 0
M  V30 8412 H 791.336 -0.372207 2.01186 0
M  V30 8413 H 791.346 -2.49487 3.22832 0
M  V30 8414 H 790.021 -1.53469 3.86549 0
M  V30 8415 H 788.598 -2.76164 2.50576 0
M  V30 8416 N 790.784 -1.46188 -0.588786 0
M  V30 8417 C 792.195 -1.45421 -1.17088 0
M  V30 8418 C 792.546 -0.191801 -1.9526 0
M  V30 8419 O 791.671 0.705497 -2.04577 0
M  V30 8420 C 792.266 -2.63467 -2.13004 0
M  V30 8421 C 790.825 -2.6576 -2.6655 0
M  V30 8422 C 789.972 -2.38002 -1.42304 0
M  V30 8423 H 792.923 -1.54156 -0.377052 0
M  V30 8424 H 792.944 -2.38638 -2.96365 0
M  V30 8425 H 792.456 -3.55331 -1.56081 0
M  V30 8426 H 790.557 -1.77952 -3.27359 0
M  V30 8427 H 790.67 -3.65545 -3.09699 0
M  V30 8428 H 789.034 -1.87936 -1.71907 0
M  V30 8429 H 789.817 -3.32035 -0.872209 0
M  V30 8430 N 792.262 0.832906 -1.33792 0
M  V30 8431 C 793.172 1.97514 -1.26592 0
M  V30 8432 C 794.188 1.73114 -0.175391 0
M  V30 8433 O 795.364 1.97387 -0.400062 0
M  V30 8434 C 792.429 3.31625 -1.01121 0
M  V30 8435 C 791.49 3.69101 -2.19233 0
M  V30 8436 C 790.723 4.96813 -1.94968 0
M  V30 8437 O 790.946 5.63208 -0.902955 0
M  V30 8438 O 789.88 5.31932 -2.8166 0
M  V30 8439 H 793.706 2.0653 -2.22664 0
M  V30 8440 H 791.291 0.966826 -1.13898 0
M  V30 8441 H 793.173 4.11968 -0.886571 0
M  V30 8442 H 791.848 3.23599 -0.080822 0
M  V30 8443 H 790.755 2.89243 -2.37253 0
M  V30 8444 H 792.088 3.818 -3.10628 0
M  V30 8445 N 793.74 1.17359 1.05189 0
M  V30 8446 C 794.986 0.963413 1.78455 0
M  V30 8447 C 795.319 -0.506703 1.87473 0
M  V30 8448 O 794.594 -1.37611 1.37453 0
M  V30 8449 C 794.877 1.60519 3.22344 0
M  V30 8450 C 794.73 3.14741 3.21338 0
M  V30 8451 C 796.049 1.3091 4.20179 0
M  V30 8452 H 793.168 0.351412 0.647826 0
M  V30 8453 H 795.81 1.44858 1.22948 0
M  V30 8454 H 793.96 1.19265 3.69741 0
M  V30 8455 H 795.632 3.65053 2.82017 0
M  V30 8456 H 793.875 3.4749 2.59679 0
M  V30 8457 H 794.546 3.54775 4.22894 0
M  V30 8458 H 797.022 1.66635 3.81277 0
M  V30 8459 H 795.898 1.784 5.191 0
M  V30 8460 H 796.159 0.229908 4.41502 0
M  V30 8461 N 795.218 -1.23913 0.973828 0
M  V30 8462 C 796.467 -1.91455 0.63464 0
M  V30 8463 C 796.78 -1.76893 -0.834759 0
M  V30 8464 O 797.986 -2.3918 -1.28473 0
M  V30 8465 C 796.442 -3.43172 1.08447 0
M  V30 8466 C 796.05 -3.66409 2.57776 0
M  V30 8467 C 797.794 -4.1653 0.818721 0
M  V30 8468 C 795.701 -5.11728 2.9646 0
M  V30 8469 H 794.631 -0.716881 0.233661 0
M  V30 8470 H 797.282 -1.40457 1.18085 0
M  V30 8471 H 795.664 -3.93242 0.466524 0
M  V30 8472 H 796.838 -3.26913 3.24753 0
M  V30 8473 H 795.153 -3.06349 2.82027 0
M  V30 8474 H 797.75 -5.23603 1.08367 0
M  V30 8475 H 798.093 -4.15578 -0.245128 0
M  V30 8476 H 798.626 -3.72428 1.39793 0
M  V30 8477 H 795.365 -5.17806 4.01941 0
M  V30 8478 H 794.885 -5.52199 2.34172 0
M  V30 8479 H 796.564 -5.80009 2.86703 0
M  V30 8480 N 796.696 -0.74468 -1.38897 0
M  V30 8481 C 797.921 -0.306119 -2.05128 0
M  V30 8482 C 798.346 1.0541 -1.55789 0
M  V30 8483 O 797.704 1.66993 -0.705909 0
M  V30 8484 C 797.752 -0.328195 -3.59103 0
M  V30 8485 O 796.856 0.680876 -4.06741 0
M  V30 8486 H 796.197 -0.137209 -0.649669 0
M  V30 8487 H 798.727 -1.01331 -1.77745 0
M  V30 8488 H 798.737 -0.175956 -4.0762 0
M  V30 8489 H 797.412 -1.32067 -3.94374 0
M  V30 8490 H 795.989 0.49398 -3.69614 0
M  V30 8491 N 798.174 1.49689 -0.493057 0
M  V30 8492 C 799.422 2.02027 0.0541642 0
M  V30 8493 C 799.743 1.37554 1.38217 0
M  V30 8494 O 799.013 0.528174 1.88646 0
M  V30 8495 H 797.593 0.746646 0.0230069 0
M  V30 8496 H 800.255 1.83795 -0.648489 0
M  V30 8497 H 799.351 3.11523 0.189652 0
M  V30 8498 N 799.652 0.226554 1.55963 0
M  V30 8499 C 800.562 -0.692725 2.24139 0
M  V30 8500 C 801.578 -1.20971 1.25068 0
M  V30 8501 O 802.754 -1.25027 1.57893 0
M  V30 8502 C 799.819 -1.88183 2.91184 0
M  V30 8503 C 798.88 -1.40633 4.05612 0
M  V30 8504 C 798.113 -2.53875 4.6945 0
M  V30 8505 O 798.336 -3.72129 4.32292 0
M  V30 8506 O 797.27 -2.24792 5.58348 0
M  V30 8507 H 801.096 -0.141921 3.03368 0
M  V30 8508 H 798.681 -0.0041049 1.49399 0
M  V30 8509 H 800.563 -2.57617 3.33484 0
M  V30 8510 H 799.238 -2.42064 2.14911 0
M  V30 8511 H 798.145 -0.67986 3.67871 0
M  V30 8512 H 799.478 -0.913838 4.83642 0
M  V30 8513 N 801.13 -1.57531 -0.0467866 0
M  V30 8514 C 802.378 -1.88078 -0.739656 0
M  V30 8515 C 802.699 -0.821936 -1.76831 0
M  V30 8516 O 801.969 0.146582 -1.95351 0
M  V30 8517 H 800.549 -0.694075 -0.276169 0
M  V30 8518 H 803.211 -1.94893 -0.0169391 0
M  V30 8519 H 802.307 -2.86396 -1.24031 0
M  V30 8520 N 802.608 0.318715 -1.54344 0
M  V30 8521 C 803.838 1.07394 -1.76494 0
M  V30 8522 C 804.246 1.82031 -0.515881 0
M  V30 8523 O 803.589 1.7609 0.52325 0
M  V30 8524 C 803.651 2.11401 -2.90775 0
M  V30 8525 C 803.315 1.56118 -4.29507 0
M  V30 8526 C 804.312 1.00043 -5.10184 0
M  V30 8527 C 801.997 1.60215 -4.76063 0
M  V30 8528 C 803.991 0.487993 -6.35529 0
M  V30 8529 C 801.678 1.08584 -6.01376 0
M  V30 8530 C 802.676 0.529714 -6.80943 0
M  V30 8531 O 802.364 0.0211823 -8.03897 0
M  V30 8532 H 802.096 0.325061 -0.592715 0
M  V30 8533 H 804.65 0.36901 -2.02058 0
M  V30 8534 H 802.88 2.85524 -2.60793 0
M  V30 8535 H 804.569 2.72683 -3.00664 0
M  V30 8536 H 805.335 0.961811 -4.75367 0
M  V30 8537 H 801.214 2.02441 -4.14172 0
M  V30 8538 H 804.758 0.0532608 -6.9758 0
M  V30 8539 H 800.655 1.12155 -6.35682 0
M  V30 8540 H 801.423 0.136151 -8.18387 0
M  V30 8541 N 804.086 1.46499 0.581025 0
M  V30 8542 C 805.334 1.51596 1.33653 0
M  V30 8543 C 805.655 0.169859 1.94259 0
M  V30 8544 O 804.925 -0.803776 1.78651 0
M  V30 8545 H 803.505 0.558346 0.496244 0
M  V30 8546 H 806.167 1.8264 0.680338 0
M  V30 8547 H 805.263 2.26956 2.14237 0
M  V30 8548 N 805.565 -0.825799 1.34232 0
M  V30 8549 C 806.981 -1.11848 1.13851 0
M  V30 8550 C 807.181 -2.01405 -0.0619031 0
M  V30 8551 O 806.237 -2.41465 -0.738287 0
M  V30 8552 C 807.55 -1.76797 2.43235 0
M  V30 8553 C 809.098 -1.89304 2.49265 0
M  V30 8554 C 809.573 -2.57669 3.78643 0
M  V30 8555 N 811.064 -2.65171 3.79788 0
M  V30 8556 C 811.799 -3.1879 4.76614 0
M  V30 8557 N 811.295 -3.72995 5.83821 0
M  V30 8558 N 813.088 -3.17164 4.64073 0
M  V30 8559 H 805.239 -0.230049 2.11151 0
M  V30 8560 H 807.502 -0.164609 0.9336 0
M  V30 8561 H 807.208 -1.18455 3.31152 0
M  V30 8562 H 807.082 -2.76693 2.56361 0
M  V30 8563 H 809.469 -2.46796 1.6179 0
M  V30 8564 H 809.55 -0.883191 2.4007 0
M  V30 8565 H 809.194 -2.00833 4.66507 0
M  V30 8566 H 809.124 -3.59152 3.8512 0
M  V30 8567 H 811.615 -2.26746 3.02315 0
M  V30 8568 H 811.928 -4.12151 6.53721 0
M  V30 8569 H 810.273 -3.71246 5.87538 0
M  V30 8570 H 813.464 -2.74082 3.79469 0
M  V30 8571 H 813.637 -3.58647 5.397 0
M  V30 8572 N 807.043 -1.17915 -1.04565 0
M  V30 8573 C 807.99 -0.901605 -2.12461 0
M  V30 8574 C 808.96 0.157011 -1.65356 0
M  V30 8575 O 810.145 0.0184494 -1.90791 0
M  V30 8576 C 807.285 -0.42796 -3.42436 0
M  V30 8577 C 806.398 -1.55142 -4.03181 0
M  V30 8578 C 805.533 -1.03101 -5.21098 0
M  V30 8579 C 804.572 -2.1295 -5.73863 0
M  V30 8580 N 803.709 -1.62339 -6.83074 0
M  V30 8581 H 808.549 -1.82551 -2.3554 0
M  V30 8582 H 806.086 -0.910389 -1.15544 0
M  V30 8583 H 808.044 -0.134859 -4.16982 0
M  V30 8584 H 806.674 0.458977 -3.1952 0
M  V30 8585 H 805.726 -1.96011 -3.26012 0
M  V30 8586 H 807.038 -2.37968 -4.38375 0
M  V30 8587 H 806.192 -0.692132 -6.02739 0
M  V30 8588 H 804.931 -0.17227 -4.87396 0
M  V30 8589 H 803.936 -2.47687 -4.90847 0
M  V30 8590 H 805.161 -2.9925 -6.09611 0
M  V30 8591 H 803.107 -0.787464 -6.51256 0
M  V30 8592 H 803.024 -2.38767 -7.17305 0
M  V30 8593 H 804.292 -1.31363 -7.68351 0
M  V30 8594 N 808.521 1.23394 -0.980386 0
M  V30 8595 C 809.484 2.23092 -0.525619 0
M  V30 8596 C 810.484 1.56129 0.384745 0
M  V30 8597 O 811.674 1.73284 0.178439 0
M  V30 8598 C 808.806 3.40074 0.23712 0
M  V30 8599 H 809.999 2.64839 -1.40714 0
M  V30 8600 H 807.552 1.36227 -0.766275 0
M  V30 8601 H 808.287 3.03783 1.13518 0
M  V30 8602 H 808.072 3.89883 -0.416356 0
M  V30 8603 H 809.562 4.14043 0.543892 0
M  V30 8604 N 809.999 0.752036 1.385 0
M  V30 8605 C 811.276 0.233075 1.94206 0
M  V30 8606 C 811.656 -1.26838 1.68746 0
M  V30 8607 O 811.004 -2.04214 1.02513 0
M  V30 8608 C 811.214 0.58509 3.44061 0
M  V30 8609 C 812.562 0.543871 4.21102 0
M  V30 8610 O 813.586 0.523291 3.52335 0
M  V30 8611 O 812.445 0.553436 5.4369 0
M  V30 8612 H 809.539 0.0483049 0.825588 0
M  V30 8613 H 812.085 0.832053 1.47902 0
M  V30 8614 H 810.857 1.62212 3.56094 0
M  V30 8615 H 810.48 -0.0419738 3.97578 0
M  V30 8616 N 811.477 -1.49425 0.500989 0
M  V30 8617 C 812.723 -2.02753 -0.0436 0
M  V30 8618 C 813.056 -1.37991 -1.36646 0
M  V30 8619 O 812.331 -0.515597 -1.87542 0
M  V30 8620 C 812.614 -3.59565 -0.19616 0
M  V30 8621 C 812.467 -4.34855 1.14982 0
M  V30 8622 C 813.786 -4.30014 -0.936795 0
M  V30 8623 H 810.905 -0.73686 -0.0143711 0
M  V30 8624 H 813.547 -1.78448 0.652397 0
M  V30 8625 H 811.697 -3.80405 -0.788959 0
M  V30 8626 H 813.369 -4.25512 1.7815 0
M  V30 8627 H 811.612 -3.97414 1.73911 0
M  V30 8628 H 812.283 -5.42933 0.996385 0
M  V30 8629 H 814.759 -4.1383 -0.434036 0
M  V30 8630 H 813.635 -5.39483 -1.01238 0
M  V30 8631 H 813.896 -3.95257 -1.9805 0
M  V30 8632 N 812.955 -0.234822 -1.55841 0
M  V30 8633 C 814.201 0.387023 -1.99684 0
M  V30 8634 C 814.556 1.56439 -1.12003 0
M  V30 8635 O 813.849 1.90818 -0.172879 0
M  V30 8636 C 814.043 0.858032 -3.46947 0
M  V30 8637 C 813.872 -0.272152 -4.48876 0
M  V30 8638 C 812.642 -0.742896 -4.99809 0
M  V30 8639 C 814.84 -1.09501 -5.02508 0
M  V30 8640 N 812.822 -1.84675 -5.85464 0
M  V30 8641 C 814.193 -2.04748 -5.85217 0
M  V30 8642 C 816.248 -1.13295 -4.84839 0
M  V30 8643 C 814.951 -3.03483 -6.52143 0
M  V30 8644 C 816.977 -2.10854 -5.52535 0
M  V30 8645 C 816.339 -3.04838 -6.35022 0
M  V30 8646 H 812.438 0.107918 -0.774518 0
M  V30 8647 H 815.022 -0.349635 -1.91535 0
M  V30 8648 H 813.193 1.56401 -3.55518 0
M  V30 8649 H 814.925 1.45381 -3.77686 0
M  V30 8650 H 811.68 -0.32915 -4.72455 0
M  V30 8651 H 812.104 -2.40108 -6.32991 0
M  V30 8652 H 816.746 -0.420226 -4.20706 0
M  V30 8653 H 814.464 -3.7571 -7.15449 0
M  V30 8654 H 818.05 -2.1448 -5.40823 0
M  V30 8655 H 816.93 -3.79097 -6.8648 0
M  V30 8656 N 814.433 1.57553 0.0384317 0
M  V30 8657 C 815.658 1.93485 0.746872 0
M  V30 8658 C 816.083 0.834069 1.68597 0
M  V30 8659 O 815.441 -0.210902 1.80069 0
M  V30 8660 C 815.489 3.28463 1.4881 0
M  V30 8661 O 814.593 3.20051 2.60079 0
M  V30 8662 H 813.934 0.632675 0.201539 0
M  V30 8663 H 816.464 2.046 -0.00329815 0
M  V30 8664 H 816.474 3.63132 1.86009 0
M  V30 8665 H 815.149 4.08147 0.799297 0
M  V30 8666 H 813.726 2.96998 2.25492 0
M  V30 8667 N 815.911 -0.310526 1.54511 0
M  V30 8668 C 816.841 -1.38757 1.878 0
M  V30 8669 C 817.822 -1.53353 0.735991 0
M  V30 8670 O 819.007 -1.67018 0.990887 0
M  V30 8671 C 816.137 -2.75327 2.11689 0
M  V30 8672 C 815.091 -2.75506 3.27537 0
M  V30 8673 C 814.417 -4.15275 3.36824 0
M  V30 8674 C 815.717 -2.38093 4.64875 0
M  V30 8675 H 817.411 -1.11146 2.78005 0
M  V30 8676 H 814.957 -0.533232 1.33763 0
M  V30 8677 H 816.91 -3.50752 2.33562 0
M  V30 8678 H 815.634 -3.04443 1.18245 0
M  V30 8679 H 814.293 -2.02538 3.05572 0
M  V30 8680 H 813.941 -4.41553 2.40915 0
M  V30 8681 H 813.641 -4.16299 4.14692 0
M  V30 8682 H 815.165 -4.92493 3.60947 0
M  V30 8683 H 816.579 -3.03232 4.86542 0
M  V30 8684 H 814.976 -2.50345 5.45387 0
M  V30 8685 H 816.046 -1.33227 4.66239 0
M  V30 8686 N 817.389 -1.46805 -0.573248 0
M  V30 8687 C 818.637 -1.52302 -1.32847 0
M  V30 8688 C 818.958 -0.180159 -1.94166 0
M  V30 8689 O 818.228 0.794291 -1.79075 0
M  V30 8690 H 816.808 -0.56097 -0.493276 0
M  V30 8691 H 819.47 -1.82998 -0.670642 0
M  V30 8692 H 818.566 -2.28089 -2.13031 0
M  V30 8693 N 818.867 0.818669 -1.34668 0
M  V30 8694 C 820.107 1.58862 -1.28617 0
M  V30 8695 C 820.471 1.91483 0.140845 0
M  V30 8696 O 821.672 2.66821 0.325583 0
M  V30 8697 C 819.943 2.85044 -2.15604 0
M  V30 8698 S 821.502 3.75553 -2.26948 0
M  V30 8699 H 818.32 0.544454 -0.457265 0
M  V30 8700 H 820.922 0.966679 -1.69928 0
M  V30 8701 H 819.626 2.59083 -3.18284 0
M  V30 8702 H 819.157 3.52231 -1.75205 0
M  V30 8703 H 821.172 4.74682 -1.44539 0
M  V30 8704 N 820.346 1.18468 1.03938 0
M  V30 8705 C 821.574 1.00576 1.80809 0
M  V30 8706 C 821.989 -0.445786 1.83462 0
M  V30 8707 O 821.346 -1.30964 1.27101 0
M  V30 8708 C 821.397 1.55491 3.26351 0
M  V30 8709 O 821.118 2.94963 3.23926 0
M  V30 8710 C 822.619 1.42236 4.19862 0
M  V30 8711 H 819.839 0.35508 0.56935 0
M  V30 8712 H 822.383 1.57046 1.30984 0
M  V30 8713 H 820.538 1.03195 3.73403 0
M  V30 8714 H 820.952 3.20598 4.15111 0
M  V30 8715 H 822.426 1.85455 5.19914 0
M  V30 8716 H 822.903 0.371267 4.37628 0
M  V30 8717 H 823.509 1.9361 3.78675 0
M  V30 8718 N 821.824 -1.22873 0.986916 0
M  V30 8719 C 823.07 -1.91746 0.660401 0
M  V30 8720 C 823.403 -1.76738 -0.804812 0
M  V30 8721 O 822.678 -1.13246 -1.58131 0
M  V30 8722 C 822.961 -3.44156 1.05966 0
M  V30 8723 C 822.814 -3.68242 2.58298 0
M  V30 8724 C 824.133 -4.35874 0.60842 0
M  V30 8725 H 821.252 -0.696347 0.241391 0
M  V30 8726 H 823.894 -1.44867 1.22937 0
M  V30 8727 H 822.044 -3.84213 0.575534 0
M  V30 8728 H 823.716 -3.37626 3.14335 0
M  V30 8729 H 821.959 -3.12728 3.00638 0
M  V30 8730 H 822.63 -4.74956 2.81285 0
M  V30 8731 H 825.106 -4.03299 1.02417 0
M  V30 8732 H 823.982 -5.41201 0.916142 0
M  V30 8733 H 824.243 -4.39364 -0.491086 0
M  V30 8734 N 823.302 -0.75937 -1.38099 0
M  V30 8735 C 824.548 -0.318584 -2.00282 0
M  V30 8736 C 824.881 1.09854 -1.60143 0
M  V30 8737 O 824.156 1.75344 -0.841702 0
M  V30 8738 C 824.439 -0.448047 -3.57302 0
M  V30 8739 C 824.292 -1.9067 -4.07388 0
M  V30 8740 C 825.611 0.155119 -4.39827 0
M  V30 8741 H 822.73 -0.117233 -0.727616 0
M  V30 8742 H 825.372 -0.960097 -1.63958 0
M  V30 8743 H 823.522 0.0981003 -3.88376 0
M  V30 8744 H 825.194 -2.5116 -3.86932 0
M  V30 8745 H 823.437 -2.41979 -3.6004 0
M  V30 8746 H 824.108 -1.94841 -5.1647 0
M  V30 8747 H 826.584 -0.31073 -4.14938 0
M  V30 8748 H 825.46 0.0343264 -5.48889 0
M  V30 8749 H 825.721 1.24407 -4.24235 0
M  V30 8750 N 824.78 1.49157 -0.508906 0
M  V30 8751 C 825.69 2.33045 0.269656 0
M  V30 8752 C 826.706 1.45143 0.959662 0
M  V30 8753 O 827.882 1.78155 0.939295 0
M  V30 8754 C 824.947 3.20772 1.31554 0
M  V30 8755 C 824.008 4.24531 0.638131 0
M  V30 8756 C 823.241 5.08065 1.63418 0
M  V30 8757 O 823.464 4.93238 2.86483 0
M  V30 8758 O 822.398 5.90117 1.18516 0
M  V30 8759 H 826.224 3.00821 -0.417183 0
M  V30 8760 H 823.809 1.46938 -0.270119 0
M  V30 8761 H 825.691 3.75095 1.92047 0
M  V30 8762 H 824.366 2.55681 1.98516 0
M  V30 8763 H 823.273 3.74099 -0.00674357 0
M  V30 8764 H 824.606 4.92199 0.0108155 0
M  V30 8765 N 826.258 0.243083 1.55714 0
M  V30 8766 C 827.191 -0.698623 2.17243 0
M  V30 8767 C 828.169 -1.1756 1.12331 0
M  V30 8768 O 829.353 -1.25444 1.40699 0
M  V30 8769 C 826.48 -1.94901 2.77004 0
M  V30 8770 C 825.526 -1.61022 3.94936 0
M  V30 8771 S 826.359 -0.716173 5.30689 0
M  V30 8772 C 827.515 -1.97565 5.93901 0
M  V30 8773 H 827.748 -0.175724 2.9678 0
M  V30 8774 H 825.281 0.0275727 1.54375 0
M  V30 8775 H 827.239 -2.66687 3.12071 0
M  V30 8776 H 825.9 -2.44304 1.9742 0
M  V30 8777 H 825.093 -2.5398 4.35328 0
M  V30 8778 H 824.695 -0.972829 3.61126 0
M  V30 8779 H 826.987 -2.92333 6.11186 0
M  V30 8780 H 827.93 -1.61528 6.8943 0
M  V30 8781 H 828.338 -2.126 5.22935 0
M  V30 8782 N 827.736 -1.57571 -0.0300757 0
M  V30 8783 C 828.666 -2.0953 -1.03051 0
M  V30 8784 C 829.647 -0.99761 -1.37774 0
M  V30 8785 O 830.832 -1.27279 -1.46676 0
M  V30 8786 C 827.962 -2.57385 -2.33174 0
M  V30 8787 C 826.916 -3.71409 -2.12696 0
M  V30 8788 C 826.242 -4.05467 -3.4857 0
M  V30 8789 C 827.542 -4.99877 -1.51396 0
M  V30 8790 H 829.236 -2.93367 -0.597999 0
M  V30 8791 H 826.782 -1.41127 -0.286203 0
M  V30 8792 H 828.735 -2.92355 -3.03491 0
M  V30 8793 H 827.459 -1.70629 -2.78484 0
M  V30 8794 H 826.118 -3.36786 -1.44813 0
M  V30 8795 H 825.766 -3.15779 -3.91526 0
M  V30 8796 H 825.466 -4.82269 -3.35694 0
M  V30 8797 H 826.99 -4.4297 -4.2025 0
M  V30 8798 H 828.404 -5.3281 -2.11629 0
M  V30 8799 H 826.801 -5.81283 -1.49098 0
M  V30 8800 H 827.871 -4.82522 -0.479676 0
M  V30 8801 N 829.214 0.302327 -1.54673 0
M  V30 8802 C 830.442 1.05669 -1.77881 0
M  V30 8803 C 830.857 1.80983 -0.537648 0
M  V30 8804 O 830.214 1.7573 0.492467 0
M  V30 8805 C 830.265 2.03828 -2.98557 0
M  V30 8806 O 829.986 1.3157 -4.17877 0
M  V30 8807 C 831.487 2.91314 -3.34143 0
M  V30 8808 H 828.707 0.313436 -0.593295 0
M  V30 8809 H 831.251 0.342003 -2.0162 0
M  V30 8810 H 829.406 2.70801 -2.7703 0
M  V30 8811 H 829.82 1.97481 -4.85903 0
M  V30 8812 H 831.294 3.56042 -4.21827 0
M  V30 8813 H 831.771 3.59544 -2.52239 0
M  V30 8814 H 832.377 2.29874 -3.57824 0
M  V30 8815 N 830.692 1.47107 0.565454 0
M  V30 8816 C 831.602 1.61591 1.70075 0
M  V30 8817 C 832.618 0.498931 1.66693 0
M  V30 8818 O 833.794 0.765372 1.8629 0
M  V30 8819 C 830.859 1.61887 3.06583 0
M  V30 8820 C 829.92 2.84949 3.21096 0
M  V30 8821 C 829.153 2.85221 4.51093 0
M  V30 8822 O 829.376 1.94959 5.36048 0
M  V30 8823 O 828.31 3.76982 4.69221 0
M  V30 8824 H 832.136 2.57638 1.60799 0
M  V30 8825 H 829.721 1.30097 0.73451 0
M  V30 8826 H 831.603 1.64809 3.87835 0
M  V30 8827 H 830.278 0.69005 3.16259 0
M  V30 8828 H 829.185 2.87575 2.39273 0
M  V30 8829 H 830.518 3.77098 3.1632 0
M  V30 8830 N 832.17 -0.811516 1.35101 0
M  V30 8831 C 833.117 -1.92308 1.27617 0
M  V30 8832 C 834.087 -1.6543 0.149091 0
M  V30 8833 O 835.272 -1.8789 0.331974 0
M  V30 8834 C 832.412 -3.28768 1.04908 0
M  V30 8835 C 831.525 -3.67865 2.26493 0
M  V30 8836 C 830.66 -4.9333 1.96974 0
M  V30 8837 C 829.699 -5.25041 3.1464 0
M  V30 8838 N 828.836 -6.41685 2.84929 0
M  V30 8839 H 833.676 -1.98041 2.22674 0
M  V30 8840 H 831.213 -0.968755 1.10696 0
M  V30 8841 H 833.171 -4.07426 0.897749 0
M  V30 8842 H 831.801 -3.22517 0.135151 0
M  V30 8843 H 830.853 -2.84507 2.52507 0
M  V30 8844 H 832.165 -3.87263 3.14371 0
M  V30 8845 H 831.319 -5.79803 1.78643 0
M  V30 8846 H 830.058 -4.75958 1.06374 0
M  V30 8847 H 829.063 -4.3706 3.33554 0
M  V30 8848 H 830.288 -5.44346 4.06035 0
M  V30 8849 H 828.234 -6.25747 1.96918 0
M  V30 8850 H 828.151 -6.6131 3.66341 0
M  V30 8851 H 829.419 -7.31198 2.70128 0
M  V30 8852 N 833.648 -1.19017 -1.03309 0
M  V30 8853 C 835.059 -0.993206 -1.5809 0
M  V30 8854 C 835.41 0.45505 -1.9085 0
M  V30 8855 O 834.535 1.33372 -1.70414 0
M  V30 8856 C 835.13 -1.79661 -2.87241 0
M  V30 8857 C 833.689 -1.64377 -3.38611 0
M  V30 8858 C 832.836 -1.78628 -2.12102 0
M  V30 8859 H 835.787 -1.3345 -0.858879 0
M  V30 8860 H 835.808 -1.29019 -3.57958 0
M  V30 8861 H 835.32 -2.85061 -2.63366 0
M  V30 8862 H 833.421 -0.615447 -3.67482 0
M  V30 8863 H 833.534 -2.44651 -4.11926 0
M  V30 8864 H 831.898 -1.21648 -2.23772 0
M  V30 8865 H 832.681 -2.8548 -1.90673 0
M  V30 8866 N 835.127 1.22348 -0.993418 0
M  V30 8867 C 836.538 1.72893 -0.704616 0
M  V30 8868 C 836.889 1.80095 0.778483 0
M  V30 8869 O 836.014 1.4476 1.60853 0
M  V30 8870 C 836.609 3.14 -1.27237 0
M  V30 8871 C 835.168 3.61949 -1.03294 0
M  V30 8872 C 834.315 2.39816 -1.39225 0
M  V30 8873 H 837.266 1.07688 -1.16572 0
M  V30 8874 H 837.287 3.74886 -0.651212 0
M  V30 8875 H 836.799 3.08727 -2.3518 0
M  V30 8876 H 834.9 3.72588 0.0298329 0
M  V30 8877 H 835.013 4.48051 -1.69668 0
M  V30 8878 H 833.377 2.41448 -0.810849 0
M  V30 8879 H 834.16 2.37203 -2.48172 0
M  V30 8880 N 836.605 0.766683 1.37694 0
M  V30 8881 C 837.851 0.338201 2.00569 0
M  V30 8882 C 838.206 -1.07196 1.59771 0
M  V30 8883 O 837.499 -1.72622 0.831402 0
M  V30 8884 C 837.693 0.413831 3.54996 0
M  V30 8885 C 837.522 1.8298 4.1079 0
M  V30 8886 C 836.292 2.44932 4.41969 0
M  V30 8887 C 838.49 2.78852 4.32141 0
M  V30 8888 N 836.472 3.78353 4.83448 0
M  V30 8889 C 837.843 3.97063 4.76174 0
M  V30 8890 C 839.898 2.76205 4.14265 0
M  V30 8891 C 838.601 5.13003 5.04203 0
M  V30 8892 C 840.627 3.91314 4.43427 0
M  V30 8893 C 839.989 5.08265 4.87694 0
M  V30 8894 H 836.088 0.170693 0.763143 0
M  V30 8895 H 838.672 0.999435 1.67091 0
M  V30 8896 H 836.843 -0.217198 3.87792 0
M  V30 8897 H 838.575 -0.036222 4.04684 0
M  V30 8898 H 835.33 1.9659 4.3087 0
M  V30 8899 H 835.754 4.46937 5.08504 0
M  V30 8900 H 840.396 1.86962 3.79216 0
M  V30 8901 H 838.114 6.0285 5.38142 0
M  V30 8902 H 841.7 3.906 4.31187 0
M  V30 8903 H 840.58 5.95858 5.09827 0
M  V30 8904 N 838.083 -1.48885 0.516809 0
M  V30 8905 C 839.046 -2.27916 -0.242256 0
M  V30 8906 C 840.046 -1.34601 -0.879735 0
M  V30 8907 O 841.236 -1.57616 -0.74182 0
M  V30 8908 C 838.368 -3.13067 -1.34914 0
M  V30 8909 H 839.561 -2.96483 0.451444 0
M  V30 8910 H 837.114 -1.5391 0.272294 0
M  V30 8911 H 837.849 -2.49102 -2.07651 0
M  V30 8912 H 837.634 -3.81695 -0.897313 0
M  V30 8913 H 839.124 -3.72716 -1.88341 0
M  V30 8914 N 839.561 -0.251338 -1.55583 0
M  V30 8915 C 840.471 0.656978 -2.25213 0
M  V30 8916 C 841.487 1.18966 -1.26977 0
M  V30 8917 O 842.663 1.22499 -1.59862 0
M  V30 8918 C 839.728 1.83527 -2.94141 0
M  V30 8919 C 838.789 1.34162 -4.07798 0
M  V30 8920 C 838.022 2.46375 -4.73429 0
M  V30 8921 O 838.245 3.65205 -4.38157 0
M  V30 8922 O 837.179 2.15881 -5.61853 0
M  V30 8923 H 841.005 0.0936395 -3.03556 0
M  V30 8924 H 838.59 -0.0196638 -1.49387 0
M  V30 8925 H 840.472 2.52279 -3.3754 0
M  V30 8926 H 839.147 2.38614 -2.18735 0
M  V30 8927 H 838.054 0.621249 -3.68906 0
M  V30 8928 H 839.387 0.836779 -4.85035 0
M  V30 8929 N 841.039 1.57585 0.0217189 0
M  V30 8930 C 842.269 1.9359 0.721572 0
M  V30 8931 C 842.677 0.850132 1.69025 0
M  V30 8932 O 842.02 -0.181539 1.82801 0
M  V30 8933 C 842.082 3.25445 1.52729 0
M  V30 8934 C 841.746 4.51251 0.722586 0
M  V30 8935 C 842.743 5.19896 0.0196598 0
M  V30 8936 C 840.428 4.97745 0.674959 0
M  V30 8937 C 842.422 6.33319 -0.720114 0
M  V30 8938 C 840.109 6.11062 -0.068555 0
M  V30 8939 C 841.107 6.78704 -0.764845 0
M  V30 8940 O 840.795 7.89852 -1.49627 0
M  V30 8941 H 840.527 0.643409 0.207366 0
M  V30 8942 H 843.081 2.05391 -0.0189346 0
M  V30 8943 H 841.311 3.0999 2.31178 0
M  V30 8944 H 843 3.46721 2.11044 0
M  V30 8945 H 843.766 4.84977 0.0474394 0
M  V30 8946 H 839.645 4.44934 1.20643 0
M  V30 8947 H 843.189 6.86051 -1.26413 0
M  V30 8948 H 839.086 6.45425 -0.0982318 0
M  V30 8949 H 839.854 8.06251 -1.41071 0
M  V30 8950 N 842.517 -0.29412 1.54831 0
M  V30 8951 C 843.427 -1.3854 1.89325 0
M  V30 8952 C 844.443 -1.55127 0.788133 0
M  V30 8953 O 845.619 -1.6966 1.08524 0
M  V30 8954 C 842.684 -2.72809 2.13954 0
M  V30 8955 C 841.745 -2.65148 3.37631 0
M  V30 8956 C 840.978 -3.93014 3.61076 0
M  V30 8957 O 841.201 -4.927 2.87406 0
M  V30 8958 O 840.135 -3.94491 4.54599 0
M  V30 8959 H 843.961 -1.12289 2.82179 0
M  V30 8960 H 841.546 -0.490793 1.41108 0
M  V30 8961 H 843.428 -3.52238 2.31315 0
M  V30 8962 H 842.103 -2.9889 1.24285 0
M  V30 8963 H 841.01 -1.84168 3.25627 0
M  V30 8964 H 842.343 -2.4402 4.27452 0
M  V30 8965 N 843.995 -1.47404 -0.557645 0
M  V30 8966 C 844.958 -1.59411 -1.64684 0
M  V30 8967 C 845.958 -0.469244 -1.53801 0
M  V30 8968 O 847.148 -0.734298 -1.57967 0
M  V30 8969 C 844.28 -1.5382 -3.04224 0
M  V30 8970 H 845.473 -2.56504 -1.55389 0
M  V30 8971 H 843.026 -1.35588 -0.777531 0
M  V30 8972 H 843.761 -0.581 -3.19053 0
M  V30 8973 H 843.546 -2.35456 -3.13533 0
M  V30 8974 H 845.036 -1.65358 -3.83466 0
M  V30 8975 N 845.473 0.80434 -1.35529 0
M  V30 8976 C 846.406 1.92222 -1.22987 0
M  V30 8977 C 847.384 1.62177 -0.117269 0
M  V30 8978 O 848.568 1.86321 -0.285761 0
M  V30 8979 C 845.695 3.26682 -0.894223 0
M  V30 8980 C 844.741 3.75674 -2.01919 0
M  V30 8981 S 845.574 3.93209 -3.6352 0
M  V30 8982 C 846.73 5.30568 -3.32037 0
M  V30 8983 H 846.963 2.02567 -2.1761 0
M  V30 8984 H 844.496 0.961961 -1.20771 0
M  V30 8985 H 846.454 4.04359 -0.707371 0
M  V30 8986 H 845.115 3.14082 0.0339729 0
M  V30 8987 H 844.308 4.73065 -1.73854 0
M  V30 8988 H 843.91 3.05001 -2.16449 0
M  V30 8989 H 846.202 6.14637 -2.85004 0
M  V30 8990 H 847.145 5.63628 -4.28636 0
M  V30 8991 H 847.553 4.96961 -2.6775 0
M  V30 8992 N 846.951 1.19563 1.02676 0
M  V30 8993 C 847.914 0.937182 2.09164 0
M  V30 8994 C 848.914 -0.0831927 1.60585 0
M  V30 8995 O 850.104 0.15178 1.73538 0
M  V30 8996 C 847.236 0.408912 3.38439 0
M  V30 8997 H 848.429 1.88164 2.33526 0
M  V30 8998 H 845.982 1.00959 1.19319 0
M  V30 8999 H 846.717 -0.541497 3.19747 0
M  V30 9000 H 846.502 1.14464 3.7502 0
M  V30 9001 H 847.992 0.247242 4.16867 0
M  V30 9002 N 848.429 -1.21819 0.999893 0
M  V30 9003 C 849.392 -2.22227 0.561044 0
M  V30 9004 C 850.392 -1.56722 -0.359858 0
M  V30 9005 O 851.582 -1.73546 -0.150848 0
M  V30 9006 C 848.714 -3.40409 -0.182987 0
M  V30 9007 H 849.907 -2.62567 1.44909 0
M  V30 9008 H 847.46 -1.34991 0.78785 0
M  V30 9009 H 848.195 -3.05551 -1.08671 0
M  V30 9010 H 847.98 -3.89171 0.47833 0
M  V30 9011 H 849.47 -4.14856 -0.477952 0
M  V30 9012 N 849.908 -0.773975 -1.37286 0
M  V30 9013 C 851.157 -0.335977 -1.98882 0
M  V30 9014 C 851.47 1.09416 -1.62134 0
M  V30 9015 O 852.676 1.63366 -2.1685 0
M  V30 9016 C 851.132 -0.549756 -3.55676 0
M  V30 9017 C 850.74 -1.9903 -4.01361 0
M  V30 9018 C 852.484 -0.175493 -4.24137 0
M  V30 9019 C 850.391 -2.15156 -5.50874 0
M  V30 9020 H 849.321 -0.121877 -0.744085 0
M  V30 9021 H 851.972 -0.953419 -1.56787 0
M  V30 9022 H 850.354 0.137175 -3.95762 0
M  V30 9023 H 851.528 -2.71237 -3.72515 0
M  V30 9024 H 849.843 -2.32137 -3.4569 0
M  V30 9025 H 852.44 -0.274463 -5.33995 0
M  V30 9026 H 852.783 0.874524 -4.07011 0
M  V30 9027 H 853.316 -0.815058 -3.89361 0
M  V30 9028 H 850.055 -3.18485 -5.72929 0
M  V30 9029 H 849.575 -1.47435 -5.81397 0
M  V30 9030 H 851.254 -1.95124 -6.16876 0
M  V30 9031 N 851.386 1.48609 -0.524698 0
M  V30 9032 C 852.633 2.02497 0.0113214 0
M  V30 9033 C 852.961 1.40229 1.34781 0
M  V30 9034 O 852.216 0.53557 1.88229 0
M  V30 9035 C 852.515 3.56906 0.187873 0
M  V30 9036 C 852.181 4.37932 -1.07359 0
M  V30 9037 C 850.843 4.59792 -1.41933 0
M  V30 9038 C 853.195 4.84902 -1.911 0
M  V30 9039 C 850.523 5.25868 -2.60154 0
M  V30 9040 C 852.875 5.52281 -3.08495 0
M  V30 9041 C 851.539 5.7238 -3.4342 0
M  V30 9042 H 850.809 0.740988 0.0041428 0
M  V30 9043 H 853.456 1.78651 -0.689652 0
M  V30 9044 H 851.761 3.79563 0.971572 0
M  V30 9045 H 853.458 3.96218 0.617443 0
M  V30 9046 H 850.048 4.21175 -0.794331 0
M  V30 9047 H 854.232 4.67821 -1.65701 0
M  V30 9048 H 849.488 5.39628 -2.87422 0
M  V30 9049 H 853.662 5.87645 -3.73692 0
M  V30 9050 H 851.289 6.23354 -4.35126 0
M  V30 9051 N 852.864 0.259585 1.55447 0
M  V30 9052 C 853.811 -0.634578 2.21905 0
M  V30 9053 C 854.781 -1.16168 1.18719 0
M  V30 9054 O 855.966 -1.21383 1.4721 0
M  V30 9055 C 853.106 -1.82005 2.93203 0
M  V30 9056 C 852.219 -1.32828 4.11073 0
M  V30 9057 C 851.354 -2.47431 4.70055 0
M  V30 9058 C 850.393 -1.95179 5.80148 0
M  V30 9059 N 849.53 -3.03197 6.33258 0
M  V30 9060 H 854.37 -0.0611886 2.97937 0
M  V30 9061 H 851.907 -0.0184378 1.47088 0
M  V30 9062 H 853.865 -2.51664 3.32748 0
M  V30 9063 H 852.495 -2.36571 2.19622 0
M  V30 9064 H 851.547 -0.525301 3.76756 0
M  V30 9065 H 852.859 -0.905435 4.90513 0
M  V30 9066 H 852.013 -3.25111 5.12238 0
M  V30 9067 H 850.752 -2.93023 3.89857 0
M  V30 9068 H 849.757 -1.15974 5.37429 0
M  V30 9069 H 850.982 -1.50541 6.62204 0
M  V30 9070 H 848.928 -3.48199 5.55961 0
M  V30 9071 H 848.845 -2.65282 7.07928 0
M  V30 9072 H 850.113 -3.80898 6.80101 0
M  V30 9073 N 854.342 -1.57594 -0.0133615 0
M  V30 9074 C 855.591 -1.8916 -0.700103 0
M  V30 9075 C 855.904 -0.860147 -1.75673 0
M  V30 9076 O 857.11 -1.06556 -2.49716 0
M  V30 9077 C 855.566 -3.35742 -1.29635 0
M  V30 9078 C 855.174 -4.47154 -0.275249 0
M  V30 9079 C 856.918 -3.76436 -1.96205 0
M  V30 9080 C 854.825 -5.84805 -0.880726 0
M  V30 9081 H 853.755 -0.705805 -0.265247 0
M  V30 9082 H 856.406 -1.83445 0.044993 0
M  V30 9083 H 854.788 -3.36252 -2.09167 0
M  V30 9084 H 855.962 -4.58139 0.494506 0
M  V30 9085 H 854.277 -4.15394 0.289256 0
M  V30 9086 H 856.874 -4.76606 -2.42386 0
M  V30 9087 H 857.217 -3.09249 -2.78695 0
M  V30 9088 H 857.75 -3.78168 -1.23426 0
M  V30 9089 H 854.489 -6.55431 -0.0949013 0
M  V30 9090 H 854.009 -5.7751 -1.61995 0
M  V30 9091 H 855.688 -6.32038 -1.38338 0
M  V30 9092 N 855.82 0.285905 -1.54985 0
M  V30 9093 C 856.783 1.33625 -1.86218 0
M  V30 9094 C 857.783 1.42971 -0.735936 0
M  V30 9095 O 858.973 1.42345 -1.00417 0
M  V30 9096 C 856.105 2.71926 -2.05595 0
M  V30 9097 H 857.298 1.07167 -2.80099 0
M  V30 9098 H 854.851 0.523335 -1.47278 0
M  V30 9099 H 855.586 3.03583 -1.14053 0
M  V30 9100 H 855.371 2.6653 -2.87583 0
M  V30 9101 H 856.861 3.47841 -2.31077 0
M  V30 9102 N 857.298 1.47698 0.54982 0
M  V30 9103 C 858.526 1.5833 1.33188 0
M  V30 9104 C 858.941 0.236193 1.87317 0
M  V30 9105 O 858.298 -0.77167 1.65383 0
M  V30 9106 C 858.349 2.61438 2.49664 0
M  V30 9107 O 858.07 3.9092 1.97771 0
M  V30 9108 C 859.571 2.82324 3.41772 0
M  V30 9109 H 856.791 0.53443 0.405741 0
M  V30 9110 H 859.335 1.93375 0.665309 0
M  V30 9111 H 857.49 2.29307 3.12245 0
M  V30 9112 H 857.904 4.47323 2.73866 0
M  V30 9113 H 859.378 3.58316 4.19897 0
M  V30 9114 H 859.855 1.90416 3.95776 0
M  V30 9115 H 860.461 3.15682 2.85 0
M  V30 9116 N 858.776 -0.797141 1.35954 0
M  V30 9117 C 859.708 -1.91782 1.25509 0
M  V30 9118 C 860.721 -1.61843 0.176271 0
M  V30 9119 O 861.91 -1.73235 0.430343 0
M  V30 9120 C 859.01 -3.26396 0.912073 0
M  V30 9121 C 858.183 -3.84171 2.0912 0
M  V30 9122 C 857.242 -4.9721 1.72246 0
M  V30 9123 O 856.268 -5.14136 2.44239 0
M  V30 9124 N 857.47 -5.76831 0.651611 0
M  V30 9125 H 860.235 -2.01266 2.22063 0
M  V30 9126 H 857.796 -0.975033 1.29247 0
M  V30 9127 H 859.788 -3.99499 0.646707 0
M  V30 9128 H 858.358 -3.12579 0.0359079 0
M  V30 9129 H 857.578 -3.03148 2.51982 0
M  V30 9130 H 858.866 -4.19503 2.87914 0
M  V30 9131 H 858.264 -5.65675 0.0536678 0
M  V30 9132 H 856.821 -6.50272 0.44605 0
M  V30 9133 N 860.254 -1.20106 -1.0204 0
M  V30 9134 C 861.665 -1.00992 -1.57027 0
M  V30 9135 C 862.016 0.434782 -1.91322 0
M  V30 9136 O 861.141 1.31557 -1.71819 0
M  V30 9137 C 861.736 -1.82697 -2.85319 0
M  V30 9138 C 860.295 -1.67959 -3.36848 0
M  V30 9139 C 859.442 -1.80868 -2.10195 0
M  V30 9140 H 862.393 -1.34354 -0.844676 0
M  V30 9141 H 862.414 -1.32809 -3.5657 0
M  V30 9142 H 861.926 -2.87839 -2.60328 0
M  V30 9143 H 860.027 -0.654389 -3.66809 0
M  V30 9144 H 860.14 -2.49006 -4.09308 0
M  V30 9145 H 858.504 -1.24015 -2.22469 0
M  V30 9146 H 859.287 -2.87486 -1.87635 0
M  V30 9147 N 861.732 1.21287 -1.00634 0
M  V30 9148 C 862.96 1.94385 -0.708678 0
M  V30 9149 C 863.375 1.7416 0.728957 0
M  V30 9150 O 862.732 1.04906 1.49335 0
M  V30 9151 C 862.783 3.46755 -1.02193 0
M  V30 9152 O 862.504 3.6631 -2.40309 0
M  V30 9153 C 864.005 4.37014 -0.743867 0
M  V30 9154 H 861.225 0.618136 -0.261052 0
M  V30 9155 H 863.769 1.54067 -1.34475 0
M  V30 9156 H 861.924 3.8499 -0.431441 0
M  V30 9157 H 862.338 4.60393 -2.51274 0
M  V30 9158 H 863.812 5.42621 -1.01321 0
M  V30 9159 H 864.289 4.38017 0.322084 0
M  V30 9160 H 864.895 4.04426 -1.31603 0
M  V30 9161 N 863.21 0.781244 1.36873 0
M  V30 9162 C 864.158 0.161889 2.32036 0
M  V30 9163 C 865.152 -0.674225 1.55405 0
M  V30 9164 O 866.358 -0.570223 1.70729 0
M  V30 9165 H 862.733 0.0335702 0.75125 0
M  V30 9166 H 864.704 0.980078 2.81846 0
M  V30 9167 C 863.453 -0.695352 3.40676 0
M  V30 9168 H 862.776 -0.0613425 3.99753 0
M  V30 9169 H 864.216 -1.09553 4.09602 0
M  V30 9170 C 862.675 -1.85008 2.81556 0
M  V30 9171 O 863.205 -2.94616 2.73065 0
M  V30 9172 N 861.411 -1.65364 2.38962 0
M  V30 9173 H 860.958 -0.762106 2.46068 0
M  V30 9174 H 860.916 -2.42789 1.99752 0
M  V30 9175 N 864.689 -1.48329 0.532571 0
M  V30 9176 C 866.1 -1.86469 0.0927749 0
M  V30 9177 C 866.451 -1.44186 -1.3306 0
M  V30 9178 O 865.576 -0.833741 -1.99694 0
M  V30 9179 C 866.171 -3.38414 0.161588 0
M  V30 9180 C 864.73 -3.75739 -0.223028 0
M  V30 9181 C 863.877 -2.72377 0.520199 0
M  V30 9182 H 866.828 -1.40197 0.743678 0
M  V30 9183 H 866.849 -3.75314 -0.626059 0
M  V30 9184 H 866.361 -3.69159 1.19765 0
M  V30 9185 H 864.462 -3.50608 -1.26113 0
M  V30 9186 H 864.575 -4.78954 0.118385 0
M  V30 9187 H 862.939 -2.54678 -0.0338425 0
M  V30 9188 H 863.722 -3.05965 1.55694 0
M  V30 9189 N 866.167 -0.267825 -1.55308 0
M  V30 9190 C 867.099 0.65591 -2.19614 0
M  V30 9191 C 868.112 1.12302 -1.17865 0
M  V30 9192 O 869.301 1.04618 -1.44628 0
M  V30 9193 C 866.401 1.90582 -2.80235 0
M  V30 9194 C 865.574 1.58673 -4.07605 0
M  V30 9195 C 864.633 2.68836 -4.52343 0
M  V30 9196 O 863.659 2.35331 -5.18274 0
M  V30 9197 N 864.861 3.98752 -4.21873 0
M  V30 9198 H 867.626 0.105566 -2.99514 0
M  V30 9199 H 865.187 -0.0886263 -1.61657 0
M  V30 9200 H 867.179 2.63561 -3.07112 0
M  V30 9201 H 865.749 2.3654 -2.04371 0
M  V30 9202 H 864.969 0.691113 -3.88094 0
M  V30 9203 H 866.257 1.34845 -4.90606 0
M  V30 9204 H 865.655 4.28797 -3.68985 0
M  V30 9205 H 864.212 4.68131 -4.53537 0
M  V30 9206 N 867.645 1.57599 0.00500368 0
M  V30 9207 C 868.575 2.11143 0.99705 0
M  V30 9208 C 869.556 1.0194 1.3617 0
M  V30 9209 O 870.741 1.29596 1.44632 0
M  V30 9210 C 867.871 2.61062 2.2905 0
M  V30 9211 C 866.825 3.74745 2.0676 0
M  V30 9212 C 866.151 4.10961 3.42075 0
M  V30 9213 C 867.451 5.02222 1.43424 0
M  V30 9214 H 869.145 2.94281 0.551251 0
M  V30 9215 H 866.691 1.41565 0.263715 0
M  V30 9216 H 868.644 2.97146 2.98801 0
M  V30 9217 H 867.368 1.75038 2.75734 0
M  V30 9218 H 866.027 3.39047 1.39436 0
M  V30 9219 H 865.675 3.21968 3.86453 0
M  V30 9220 H 865.375 4.87549 3.27979 0
M  V30 9221 H 866.899 4.49599 4.1315 0
M  V30 9222 H 868.313 5.36109 2.03125 0
M  V30 9223 H 866.71 5.83581 1.39831 0
M  V30 9224 H 867.78 4.83224 0.40285 0
M  V30 9225 N 869.123 -0.277682 1.55134 0
M  V30 9226 C 870.534 -0.849063 1.66276 0
M  V30 9227 C 870.885 -1.87223 0.5867 0
M  V30 9228 O 870.01 -2.14676 -0.272635 0
M  V30 9229 C 870.605 -1.54681 3.01429 0
M  V30 9230 C 869.164 -2.06628 3.14614 0
M  V30 9231 C 868.311 -0.906748 2.62056 0
M  V30 9232 H 871.262 -0.0541357 1.58608 0
M  V30 9233 H 871.283 -2.41356 2.94156 0
M  V30 9234 H 870.795 -0.80189 3.79725 0
M  V30 9235 H 868.896 -2.84095 2.41082 0
M  V30 9236 H 869.009 -2.2848 4.2111 0
M  V30 9237 H 867.373 -1.29882 2.19095 0
M  V30 9238 H 868.156 -0.175414 3.42852 0
M  V30 9239 N 870.601 -1.47988 -0.541979 0
M  V30 9240 C 871.826 -1.59286 -1.32826 0
M  V30 9241 C 872.251 -0.24894 -1.86445 0
M  V30 9242 O 871.609 0.777581 -1.63778 0
M  V30 9243 C 871.657 -2.6334 -2.46343 0
M  V30 9244 O 870.761 -2.19667 -3.49028 0
M  V30 9245 H 870.102 -0.534543 -0.393903 0
M  V30 9246 H 872.632 -1.93885 -0.653427 0
M  V30 9247 H 872.642 -2.84238 -2.92699 0
M  V30 9248 H 871.317 -3.60913 -2.06675 0
M  V30 9249 H 869.894 -2.08932 -3.08872 0
M  V30 9250 N 872.079 0.78992 -1.36375 0
M  V30 9251 C 873.029 1.89227 -1.27189 0
M  V30 9252 C 874.013 1.60067 -0.163498 0
M  V30 9253 O 875.205 1.72507 -0.396262 0
M  V30 9254 C 872.334 3.26431 -1.06292 0
M  V30 9255 C 871.42 3.61602 -2.21596 0
M  V30 9256 N 871.811 3.68086 -3.4691 0
M  V30 9257 C 870.109 3.9166 -2.1335 0
M  V30 9258 C 870.81 3.99481 -4.22835 0
M  V30 9259 N 869.786 4.14438 -3.5177 0
M  V30 9260 H 873.588 1.92465 -2.22113 0
M  V30 9261 H 871.102 0.985414 -1.29087 0
M  V30 9262 H 873.099 4.05267 -0.97798 0
M  V30 9263 H 871.759 3.24468 -0.122676 0
M  V30 9264 H 872.77 3.50743 -3.81051 0
M  V30 9265 H 869.447 3.97626 -1.27279 0
M  V30 9266 H 870.837 4.11425 -5.31205 0
M  V30 9267 N 873.557 1.20646 1.01402 0
M  V30 9268 C 874.806 1.01242 1.7445 0
M  V30 9269 C 875.119 -0.455732 1.90217 0
M  V30 9270 O 876.325 -0.768951 2.60383 0
M  V30 9271 C 874.781 1.76275 3.13776 0
M  V30 9272 C 874.389 3.27201 3.06013 0
M  V30 9273 C 876.133 1.65248 3.91016 0
M  V30 9274 C 874.04 3.9476 4.40362 0
M  V30 9275 H 872.97 0.375202 0.654018 0
M  V30 9276 H 875.621 1.44292 1.13367 0
M  V30 9277 H 874.003 1.26013 3.75415 0
M  V30 9278 H 875.177 3.84695 2.53665 0
M  V30 9279 H 873.492 3.38669 2.42265 0
M  V30 9280 H 876.089 2.13061 4.90417 0
M  V30 9281 H 876.432 0.609128 4.1182 0
M  V30 9282 H 876.965 2.12937 3.3601 0
M  V30 9283 H 873.704 4.99258 4.24761 0
M  V30 9284 H 873.224 3.42054 4.92706 0
M  V30 9285 H 874.903 3.99159 5.09196 0
M  V30 9286 N 875.035 -1.20752 1.01276 0
M  V30 9287 C 876.26 -1.94547 0.718769 0
M  V30 9288 C 876.685 -1.7404 -0.713563 0
M  V30 9289 O 876.043 -1.03221 -1.49047 0
M  V30 9290 C 876.091 -3.44823 1.05497 0
M  V30 9291 O 875.195 -4.12072 0.164516 0
M  V30 9292 H 874.536 -0.607931 0.267051 0
M  V30 9293 H 877.066 -1.53292 1.35509 0
M  V30 9294 H 877.076 -3.95427 1.00507 0
M  V30 9295 H 875.751 -3.59072 2.09858 0
M  V30 9296 H 874.328 -3.71909 0.271615 0
M  V30 9297 N 876.513 -0.788492 -1.36457 0
M  V30 9298 C 877.423 -0.187385 -2.3385 0
M  V30 9299 C 878.439 0.659984 -1.60998 0
M  V30 9300 O 879.615 0.575986 -1.92988 0
M  V30 9301 C 876.68 0.668525 -3.40194 0
M  V30 9302 C 875.741 -0.197234 -4.28847 0
M  V30 9303 C 874.974 0.61792 -5.30111 0
M  V30 9304 O 875.197 1.85396 -5.3943 0
M  V30 9305 O 874.131 0.0183016 -6.01897 0
M  V30 9306 H 877.957 -0.992617 -2.87021 0
M  V30 9307 H 875.542 -0.549934 -1.3891 0
M  V30 9308 H 877.424 1.15663 -4.05216 0
M  V30 9309 H 876.099 1.45166 -2.89324 0
M  V30 9310 H 875.006 -0.73207 -3.66867 0
M  V30 9311 H 876.339 -0.943863 -4.83065 0
M  V30 9312 N 877.991 1.48044 -0.54043 0
M  V30 9313 C 878.941 2.26768 0.236657 0
M  V30 9314 C 879.925 1.33341 0.900505 0
M  V30 9315 O 881.117 1.57809 0.801584 0
M  V30 9316 C 878.246 3.18685 1.27651 0
M  V30 9317 C 877.332 4.19589 0.616923 0
M  V30 9318 N 877.723 5.04889 -0.303377 0
M  V30 9319 C 876.021 4.37375 0.872879 0
M  V30 9320 C 876.722 5.77654 -0.684905 0
M  V30 9321 N 875.698 5.43583 -0.0435728 0
M  V30 9322 H 879.5 2.90098 -0.471183 0
M  V30 9323 H 877.014 1.58378 -0.359183 0
M  V30 9324 H 879.011 3.73752 1.84702 0
M  V30 9325 H 877.671 2.56911 1.98562 0
M  V30 9326 H 878.682 5.13461 -0.676591 0
M  V30 9327 H 875.359 3.86784 1.57177 0
M  V30 9328 H 876.749 6.56285 -1.44015 0
M  V30 9329 N 879.47 0.276058 1.55163 0
M  V30 9330 C 880.718 -0.339782 1.99223 0
M  V30 9331 C 881.039 -1.56307 1.16589 0
M  V30 9332 O 880.309 -1.94225 0.25564 0
M  V30 9333 H 878.889 -0.128534 0.735859 0
M  V30 9334 H 881.551 0.381612 1.91128 0
M  V30 9335 H 880.647 -0.629 3.05696 0
M  V30 9336 N 880.948 -1.576 0.00335426 0
M  V30 9337 C 882.364 -1.55653 -0.352766 0
M  V30 9338 C 882.564 -1.00632 -1.74572 0
M  V30 9339 O 881.62 -0.641621 -2.44212 0
M  V30 9340 C 882.933 -2.99858 -0.224929 0
M  V30 9341 C 884.481 -3.11563 -0.299619 0
M  V30 9342 C 884.956 -4.57559 -0.200868 0
M  V30 9343 N 886.447 -4.62477 -0.258663 0
M  V30 9344 C 887.182 -5.73031 -0.205644 0
M  V30 9345 N 886.678 -6.92723 -0.103027 0
M  V30 9346 N 888.471 -5.61509 -0.257754 0
M  V30 9347 H 880.622 -1.91703 0.914539 0
M  V30 9348 H 882.885 -0.88068 0.350865 0
M  V30 9349 H 882.591 -3.43964 0.733595 0
M  V30 9350 H 882.465 -3.63547 -1.00564 0
M  V30 9351 H 884.852 -2.67384 -1.24859 0
M  V30 9352 H 884.933 -2.50644 0.511025 0
M  V30 9353 H 884.577 -5.02413 0.744572 0
M  V30 9354 H 884.507 -5.16428 -1.03004 0
M  V30 9355 H 886.998 -3.76375 -0.339168 0
M  V30 9356 H 887.311 -7.7277 -0.0685593 0
M  V30 9357 H 885.656 -6.94966 -0.0686069 0
M  V30 9358 H 888.847 -4.66892 -0.336142 0
M  V30 9359 H 889.02 -6.4765 -0.21297 0
M  V30 9360 N 882.426 0.269451 -1.5528 0
M  V30 9361 C 883.703 1.02207 -1.66773 0
M  V30 9362 C 884.083 2.04168 -0.536536 0
M  V30 9363 O 883.431 2.23761 0.462956 0
M  V30 9364 C 883.641 1.67569 -3.0614 0
M  V30 9365 C 884.989 2.18599 -3.64005 0
M  V30 9366 O 886.013 1.7755 -3.08795 0
M  V30 9367 O 884.872 2.93903 -4.60742 0
M  V30 9368 H 881.966 0.474314 -0.677462 0
M  V30 9369 H 884.512 0.265026 -1.67618 0
M  V30 9370 H 883.284 0.937029 -3.79915 0
M  V30 9371 H 882.907 2.49951 -3.09209 0
M  V30 9372 N 883.904 1.48273 0.534124 0
M  V30 9373 C 885.151 1.56079 1.29017 0
M  V30 9374 C 885.479 0.232912 1.931 0
M  V30 9375 O 884.734 -0.77642 1.79639 0
M  V30 9376 C 885.033 2.64468 2.40398 0
M  V30 9377 C 884.699 4.07034 1.93995 0
M  V30 9378 C 883.361 4.45838 1.81058 0
M  V30 9379 C 885.713 4.96395 1.58877 0
M  V30 9380 C 883.041 5.71812 1.31331 0
M  V30 9381 C 885.393 6.22854 1.10614 0
M  V30 9382 C 884.057 6.60518 0.962895 0
M  V30 9383 H 883.327 0.571135 0.472108 0
M  V30 9384 H 885.974 1.81973 0.5965 0
M  V30 9385 H 884.279 2.32419 3.15418 0
M  V30 9386 H 885.976 2.67725 2.98537 0
M  V30 9387 H 882.566 3.76387 2.05015 0
M  V30 9388 H 886.75 4.67096 1.67734 0
M  V30 9389 H 882.006 5.99722 1.18924 0
M  V30 9390 H 886.18 6.91495 0.825095 0
M  V30 9391 H 883.807 7.58019 0.575369 0
M  V30 9392 N 885.382 -0.782676 1.36792 0
M  V30 9393 C 886.312 -1.90973 1.34356 0
M  V30 9394 C 887.293 -1.6875 0.213917 0
M  V30 9395 O 888.478 -1.89766 0.412601 0
M  V30 9396 C 885.608 -3.28097 1.13884 0
M  V30 9397 C 884.562 -3.6486 2.23744 0
M  V30 9398 C 883.888 -5.00406 1.88408 0
M  V30 9399 C 885.188 -3.72742 3.6587 0
M  V30 9400 H 886.882 -1.93268 2.28665 0
M  V30 9401 H 884.428 -0.928447 1.10072 0
M  V30 9402 H 886.381 -4.06569 1.10813 0
M  V30 9403 H 885.105 -3.26206 0.160275 0
M  V30 9404 H 883.764 -2.88689 2.25952 0
M  V30 9405 H 883.412 -4.95044 0.891083 0
M  V30 9406 H 883.112 -5.25973 2.61966 0
M  V30 9407 H 884.636 -5.81291 1.86905 0
M  V30 9408 H 886.05 -4.4139 3.65852 0
M  V30 9409 H 884.447 -4.09798 4.38389 0
M  V30 9410 H 885.517 -2.73676 4.00287 0
M  V30 9411 N 886.86 -1.21182 -1.00761 0
M  V30 9412 C 888.276 -0.968607 -1.26847 0
M  V30 9413 C 888.476 0.346561 -1.98497 0
M  V30 9414 O 887.532 1.07287 -2.28573 0
M  V30 9415 C 888.845 -2.1574 -2.09467 0
M  V30 9416 C 890.393 -2.19937 -2.22703 0
M  V30 9417 C 890.868 -3.38328 -3.08704 0
M  V30 9418 N 892.359 -3.38398 -3.16293 0
M  V30 9419 C 893.094 -4.26653 -3.83086 0
M  V30 9420 N 892.59 -5.25101 -4.5193 0
M  V30 9421 N 894.383 -4.14469 -3.797 0
M  V30 9422 H 886.534 -2.05763 -0.526816 0
M  V30 9423 H 888.797 -0.90087 -0.29519 0
M  V30 9424 H 888.503 -3.11034 -1.64167 0
M  V30 9425 H 888.377 -2.14584 -3.10216 0
M  V30 9426 H 890.764 -1.25201 -2.67224 0
M  V30 9427 H 890.845 -2.25139 -1.21433 0
M  V30 9428 H 890.489 -4.33356 -2.64886 0
M  V30 9429 H 890.419 -3.30364 -4.10082 0
M  V30 9430 H 892.91 -2.67149 -2.67282 0
M  V30 9431 H 893.223 -5.8875 -5.00592 0
M  V30 9432 H 891.568 -5.29029 -4.50726 0
M  V30 9433 H 894.759 -3.3682 -3.25069 0
M  V30 9434 H 894.932 -4.83458 -4.31477 0
M  V30 9435 N 888.338 1.20213 -1.01915 0
M  V30 9436 C 889.754 1.41696 -0.734459 0
M  V30 9437 C 889.954 1.89504 0.684867 0
M  V30 9438 O 889.01 2.06556 1.45227 0
M  V30 9439 C 890.323 2.43644 -1.76233 0
M  V30 9440 C 891.871 2.57406 -1.78076 0
M  V30 9441 C 892.346 3.626 -2.79796 0
M  V30 9442 N 893.837 3.70086 -2.78551 0
M  V30 9443 C 894.572 4.51145 -3.53915 0
M  V30 9444 N 894.068 5.35988 -4.38963 0
M  V30 9445 N 895.861 4.45702 -3.425 0
M  V30 9446 H 888.012 0.874976 -1.93541 0
M  V30 9447 H 890.275 0.446647 -0.836188 0
M  V30 9448 H 889.981 2.15519 -2.77929 0
M  V30 9449 H 889.855 3.42672 -1.57657 0
M  V30 9450 H 892.242 2.8486 -0.770634 0
M  V30 9451 H 892.323 1.58565 -2.00725 0
M  V30 9452 H 891.967 3.35889 -3.80973 0
M  V30 9453 H 891.897 4.61069 -2.54407 0
M  V30 9454 H 894.388 3.09484 -2.1686 0
M  V30 9455 H 894.701 5.94932 -4.9323 0
M  V30 9456 H 893.046 5.35482 -4.4304 0
M  V30 9457 H 896.237 3.78456 -2.75478 0
M  V30 9458 H 896.41 5.08637 -4.01487 0
M  V30 9459 N 889.816 0.795718 1.36037 0
M  V30 9460 C 891.065 0.367575 1.98322 0
M  V30 9461 C 891.378 -1.06823 1.63854 0
M  V30 9462 O 892.584 -1.59895 2.19421 0
M  V30 9463 C 891.04 0.606272 3.54757 0
M  V30 9464 C 890.648 2.0539 3.98144 0
M  V30 9465 C 892.392 0.242947 4.23804 0
M  V30 9466 C 890.299 2.23893 5.47381 0
M  V30 9467 H 889.229 0.133699 0.742052 0
M  V30 9468 H 891.88 0.978242 1.5525 0
M  V30 9469 H 890.262 -0.0741957 3.9593 0
M  V30 9470 H 891.436 2.77129 3.68152 0
M  V30 9471 H 889.751 2.37607 3.41953 0
M  V30 9472 H 892.348 0.359382 5.33491 0
M  V30 9473 H 892.691 -0.809661 4.08351 0
M  V30 9474 H 893.224 0.876899 3.88015 0
M  V30 9475 H 889.963 3.27559 5.6779 0
M  V30 9476 H 889.483 1.56666 5.78978 0
M  V30 9477 H 891.162 2.04914 6.13693 0
M  V30 9478 N 891.294 -1.47756 0.548274 0
M  V30 9479 C 892.541 -2.02489 0.0208955 0
M  V30 9480 C 892.869 -1.42356 -1.32533 0
M  V30 9481 O 892.124 -0.565448 -1.87353 0
M  V30 9482 C 892.423 -3.5716 -0.131069 0
M  V30 9483 C 892.089 -4.36169 1.14313 0
M  V30 9484 C 890.751 -4.57476 1.4923 0
M  V30 9485 C 893.103 -4.81801 1.9879 0
M  V30 9486 C 890.431 -5.21662 2.68487 0
M  V30 9487 C 892.783 -5.47303 3.17242 0
M  V30 9488 C 891.447 -5.66844 3.52483 0
M  V30 9489 H 890.717 -0.740961 0.00764621 0
M  V30 9490 H 893.364 -1.77531 0.717987 0
M  V30 9491 H 891.669 -3.8106 -0.911063 0
M  V30 9492 H 893.366 -3.9715 -0.55433 0
M  V30 9493 H 889.956 -4.19858 0.861235 0
M  V30 9494 H 894.14 -4.65126 1.73123 0
M  V30 9495 H 889.396 -5.34987 2.95971 0
M  V30 9496 H 893.57 -5.81626 3.82994 0
M  V30 9497 H 891.197 -6.16352 4.44988 0
M  V30 9498 N 892.772 -0.284283 -1.55015 0
M  V30 9499 C 894.018 0.330352 -2.00091 0
M  V30 9500 C 894.351 1.54814 -1.17244 0
M  V30 9501 O 893.626 1.92954 -0.244753 0
M  V30 9502 C 893.909 0.703492 -3.53161 0
M  V30 9503 C 893.762 -0.522275 -4.46758 0
M  V30 9504 C 895.081 1.53645 -4.12409 0
M  V30 9505 H 892.2 0.118599 -0.727395 0
M  V30 9506 H 894.842 -0.393054 -1.8589 0
M  V30 9507 H 892.992 1.31983 -3.65394 0
M  V30 9508 H 894.664 -1.16082 -4.46456 0
M  V30 9509 H 892.907 -1.15865 -4.1804 0
M  V30 9510 H 893.578 -0.217295 -5.51572 0
M  V30 9511 H 896.054 1.01583 -4.0351 0
M  V30 9512 H 894.93 1.76633 -5.19704 0
M  V30 9513 H 895.191 2.5204 -3.63219 0
M  V30 9514 N 894.251 1.57596 -0.0117121 0
M  V30 9515 C 895.161 2.12596 0.991964 0
M  V30 9516 C 896.177 1.07399 1.36899 0
M  V30 9517 O 897.353 1.39365 1.45394 0
M  V30 9518 C 894.418 2.62796 2.2614 0
M  V30 9519 C 893.479 3.8264 1.94642 0
M  V30 9520 C 892.712 4.30435 3.15533 0
M  V30 9521 O 892.935 3.77495 4.27614 0
M  V30 9522 O 891.869 5.22469 2.98847 0
M  V30 9523 H 895.695 2.98597 0.554371 0
M  V30 9524 H 893.28 1.47947 0.207839 0
M  V30 9525 H 895.162 2.9523 3.00695 0
M  V30 9526 H 893.837 1.79886 2.69114 0
M  V30 9527 H 892.744 3.5516 1.17526 0
M  V30 9528 H 894.077 4.66658 1.56496 0
M  V30 9529 N 895.729 -0.261212 1.5542 0
M  V30 9530 C 896.692 -1.30645 1.8832 0
M  V30 9531 C 897.692 -1.41782 0.758588 0
M  V30 9532 O 898.882 -1.40729 1.02669 0
M  V30 9533 C 896.014 -2.6862 2.09895 0
M  V30 9534 H 897.207 -1.02698 2.81768 0
M  V30 9535 H 894.76 -0.499838 1.48092 0
M  V30 9536 H 895.495 -3.0173 1.18868 0
M  V30 9537 H 895.28 -2.61921 2.91787 0
M  V30 9538 H 896.77 -3.44121 2.36581 0
M  V30 9539 N 897.207 -1.48554 -0.526253 0
M  V30 9540 C 898.623 -1.34757 -0.855138 0
M  V30 9541 C 898.823 -0.36142 -1.98232 0
M  V30 9542 O 897.879 0.216026 -2.51574 0
M  V30 9543 C 899.192 -2.74877 -1.21915 0
M  V30 9544 C 900.74 -2.83393 -1.32882 0
M  V30 9545 C 901.215 -4.24223 -1.72624 0
M  V30 9546 N 902.706 -4.26913 -1.7972 0
M  V30 9547 C 903.441 -5.32824 -2.11863 0
M  V30 9548 N 902.937 -6.49008 -2.42405 0
M  V30 9549 N 904.73 -5.20221 -2.12901 0
M  V30 9550 H 896.881 -2.11284 0.217422 0
M  V30 9551 H 899.144 -0.947367 0.0346362 0
M  V30 9552 H 898.85 -3.48619 -0.464486 0
M  V30 9553 H 898.724 -3.0864 -2.16844 0
M  V30 9554 H 901.111 -2.09904 -2.07424 0
M  V30 9555 H 901.192 -2.53245 -0.360638 0
M  V30 9556 H 900.836 -4.98229 -0.986411 0
M  V30 9557 H 900.766 -4.51817 -2.70498 0
M  V30 9558 H 903.257 -3.4311 -1.58379 0
M  V30 9559 H 903.57 -7.25561 -2.66048 0
M  V30 9560 H 901.915 -6.52277 -2.39917 0
M  V30 9561 H 905.106 -4.28469 -1.885 0
M  V30 9562 H 905.279 -6.02861 -2.37619 0
M  V30 9563 N 898.685 0.775411 -1.37205 0
M  V30 9564 C 899.617 1.89761 -1.28544 0
M  V30 9565 C 900.63 1.61542 -0.201996 0
M  V30 9566 O 901.819 1.72528 -0.457848 0
M  V30 9567 C 898.919 3.24904 -0.963885 0
M  V30 9568 C 898.092 3.80796 -2.15205 0
M  V30 9569 C 897.151 4.94407 -1.80135 0
M  V30 9570 O 896.177 5.10185 -2.52388 0
M  V30 9571 N 897.379 5.75722 -0.743298 0
M  V30 9572 H 900.144 1.97708 -2.25237 0
M  V30 9573 H 897.705 0.954348 -1.30782 0
M  V30 9574 H 899.697 3.9842 -0.710182 0
M  V30 9575 H 898.267 3.12483 -0.085632 0
M  V30 9576 H 897.487 2.99101 -2.56773 0
M  V30 9577 H 898.775 4.1487 -2.94552 0
M  V30 9578 H 898.173 5.65518 -0.143655 0
M  V30 9579 H 896.73 6.4948 -0.549446 0
M  V30 9580 N 900.163 1.21714 1.00117 0
M  V30 9581 C 901.579 0.97532 1.26332 0
M  V30 9582 C 901.779 -0.336029 1.98678 0
M  V30 9583 O 900.835 -1.06073 2.29139 0
M  V30 9584 C 902.148 2.16848 2.0832 0
M  V30 9585 C 903.696 2.21115 2.21533 0
M  V30 9586 C 904.171 3.3996 3.06906 0
M  V30 9587 N 905.662 3.40071 3.14494 0
M  V30 9588 C 906.397 4.28678 3.80818 0
M  V30 9589 N 905.893 5.2749 4.49139 0
M  V30 9590 N 907.686 4.16476 3.77497 0
M  V30 9591 H 899.837 2.06039 0.515897 0
M  V30 9592 H 902.1 0.902423 0.290408 0
M  V30 9593 H 901.806 3.119 1.62515 0
M  V30 9594 H 901.68 2.16226 3.09073 0
M  V30 9595 H 904.067 1.26616 2.66557 0
M  V30 9596 H 904.148 2.2578 1.20238 0
M  V30 9597 H 903.792 4.34755 2.62585 0
M  V30 9598 H 903.722 3.32534 4.08324 0
M  V30 9599 H 906.213 2.68563 2.65861 0
M  V30 9600 H 906.526 5.91397 4.97463 0
M  V30 9601 H 904.871 5.31412 4.47914 0
M  V30 9602 H 908.062 3.38539 3.23278 0
M  V30 9603 H 908.235 4.85739 4.28908 0
M  V30 9604 N 901.641 -1.19671 1.02551 0
M  V30 9605 C 903.052 -1.70964 0.750208 0
M  V30 9606 C 903.403 -1.82095 -0.730461 0
M  V30 9607 O 902.528 -1.48974 -1.56958 0
M  V30 9608 C 903.123 -3.10516 1.35518 0
M  V30 9609 C 901.682 -3.59083 1.12854 0
M  V30 9610 C 900.829 -2.36041 1.45534 0
M  V30 9611 H 903.78 -1.04559 1.19386 0
M  V30 9612 H 903.801 -3.73028 0.750378 0
M  V30 9613 H 903.313 -3.02383 2.43282 0
M  V30 9614 H 901.414 -3.72536 0.0689627 0
M  V30 9615 H 901.527 -4.43395 1.81488 0
M  V30 9616 H 899.891 -2.39214 0.87458 0
M  V30 9617 H 900.674 -2.3054 2.54374 0
M  V30 9618 N 903.119 -0.802921 -1.35613 0
M  V30 9619 C 904.344 -0.392846 -2.03645 0
M  V30 9620 C 904.769 0.987075 -1.6012 0
M  V30 9621 O 904.127 1.63849 -0.776101 0
M  V30 9622 C 904.175 -0.480208 -3.57388 0
M  V30 9623 O 903.279 0.507751 -4.09262 0
M  V30 9624 H 902.62 -0.16464 -0.643265 0
M  V30 9625 H 905.15 -1.08779 -1.73287 0
M  V30 9626 H 905.16 -0.348683 -4.06507 0
M  V30 9627 H 903.835 -1.48675 -3.88418 0
M  V30 9628 H 902.412 0.336769 -3.71376 0
M  V30 9629 N 904.597 1.47463 -0.556102 0
M  V30 9630 C 905.56 2.28478 0.181743 0
M  V30 9631 C 906.56 1.36886 0.843738 0
M  V30 9632 O 907.75 1.59527 0.69977 0
M  V30 9633 C 904.882 3.16534 1.26566 0
M  V30 9634 H 906.075 2.95182 -0.529892 0
M  V30 9635 H 903.628 1.53134 -0.313005 0
M  V30 9636 H 904.363 2.5452 2.00973 0
M  V30 9637 H 904.148 3.83939 0.795798 0
M  V30 9638 H 905.638 3.77579 1.78393 0
M  V30 9639 N 906.075 0.2925 1.54862 0
M  V30 9640 C 906.985 -0.597036 2.26876 0
M  V30 9641 C 908.001 -1.15558 1.30086 0
M  V30 9642 O 909.177 -1.18217 1.63054 0
M  V30 9643 C 906.242 -1.75664 2.98903 0
M  V30 9644 C 905.303 -1.23303 4.11212 0
M  V30 9645 C 904.536 -2.33736 4.79795 0
M  V30 9646 O 904.759 -3.53459 4.47686 0
M  V30 9647 O 903.693 -2.00908 5.67379 0
M  V30 9648 H 907.519 -0.0131242 3.03697 0
M  V30 9649 H 905.104 0.0592642 1.49282 0
M  V30 9650 H 906.986 -2.43241 3.4411 0
M  V30 9651 H 905.661 -2.32731 2.24984 0
M  V30 9652 H 904.568 -0.523222 3.70423 0
M  V30 9653 H 905.901 -0.707887 4.87083 0
M  V30 9654 N 907.553 -1.57587 0.0200696 0
M  V30 9655 C 908.463 -2.13119 -0.980676 0
M  V30 9656 C 909.479 -1.08124 -1.36328 0
M  V30 9657 O 910.655 -1.40134 -1.44653 0
M  V30 9658 C 907.72 -2.63991 -2.24743 0
M  V30 9659 C 906.781 -3.83667 -1.9261 0
M  V30 9660 C 906.014 -4.32103 -3.13246 0
M  V30 9661 O 906.237 -3.79758 -4.25606 0
M  V30 9662 O 905.171 -5.24047 -2.96072 0
M  V30 9663 H 908.997 -2.98887 -0.538528 0
M  V30 9664 H 906.582 -1.48055 -0.19999 0
M  V30 9665 H 908.464 -2.9682 -2.99125 0
M  V30 9666 H 907.139 -1.81311 -2.68157 0
M  V30 9667 H 906.046 -3.55778 -1.15641 0
M  V30 9668 H 907.379 -4.67482 -1.54019 0
M  V30 9669 N 909.032 0.252966 -1.55557 0
M  V30 9670 C 909.962 1.31691 -1.9282 0
M  V30 9671 C 910.943 1.50516 -0.7924 0
M  V30 9672 O 912.128 1.63225 -1.05219 0
M  V30 9673 C 909.258 2.67281 -2.21762 0
M  V30 9674 C 908.212 2.6316 -3.37536 0
M  V30 9675 C 907.538 4.02488 -3.52005 0
M  V30 9676 C 908.838 2.20675 -4.73392 0
M  V30 9677 H 910.532 1.00751 -2.81939 0
M  V30 9678 H 908.078 0.483219 -1.3565 0
M  V30 9679 H 910.031 3.41842 -2.46419 0
M  V30 9680 H 908.755 2.99845 -1.29463 0
M  V30 9681 H 907.414 1.91057 -3.12878 0
M  V30 9682 H 907.062 4.32307 -2.57137 0
M  V30 9683 H 906.762 4.00621 -4.29857 0
M  V30 9684 H 908.286 4.78758 -3.78977 0
M  V30 9685 H 909.7 2.84965 -4.97461 0
M  V30 9686 H 908.097 2.29931 -5.54303 0
M  V30 9687 H 909.167 1.15831 -4.70862 0
M  V30 9688 N 910.51 1.48831 0.518367 0
M  V30 9689 C 911.44 1.67119 1.63075 0
M  V30 9690 C 912.421 0.519948 1.61958 0
M  V30 9691 O 913.606 0.753824 1.78972 0
M  V30 9692 C 910.736 1.72158 3.01627 0
M  V30 9693 C 909.69 2.86898 3.17606 0
M  V30 9694 C 909.016 2.77035 4.57335 0
M  V30 9695 C 910.316 4.28057 2.99274 0
M  V30 9696 H 912.01 2.60248 1.48025 0
M  V30 9697 H 909.556 1.2524 0.710694 0
M  V30 9698 H 911.509 1.83539 3.7933 0
M  V30 9699 H 910.233 0.756157 3.17726 0
M  V30 9700 H 908.892 2.75091 2.42323 0
M  V30 9701 H 908.54 1.78438 4.70286 0
M  V30 9702 H 908.24 3.54036 4.6897 0
M  V30 9703 H 909.764 2.904 5.37122 0
M  V30 9704 H 911.178 4.40636 3.6676 0
M  V30 9705 H 909.575 5.06145 3.22393 0
M  V30 9706 H 910.645 4.4371 1.95574 0
M  V30 9707 N 911.988 -0.768124 1.37614 0
M  V30 9708 C 913.216 -1.55726 1.36224 0
M  V30 9709 C 913.631 -1.8873 -0.0515357 0
M  V30 9710 O 912.988 -1.51718 -1.0143 0
M  V30 9711 C 913.039 -2.86533 2.20412 0
M  V30 9712 O 912.76 -2.54942 3.56281 0
M  V30 9713 C 914.261 -3.80745 2.27041 0
M  V30 9714 H 911.481 -0.482325 0.46648 0
M  V30 9715 H 914.025 -0.95176 1.81002 0
M  V30 9716 H 912.18 -3.43496 1.79134 0
M  V30 9717 H 912.594 -3.38732 4.00451 0
M  V30 9718 H 914.068 -4.69523 2.90263 0
M  V30 9719 H 914.545 -4.20138 1.27987 0
M  V30 9720 H 915.151 -3.2971 2.68647 0
M  V30 9721 N 913.466 -1.22244 -0.994698 0
M  V30 9722 C 914.416 -0.958244 -2.06886 0
M  V30 9723 C 915.4 0.0904481 -1.60646 0
M  V30 9724 O 916.592 -0.119837 -1.76594 0
M  V30 9725 C 913.721 -0.535944 -3.39091 0
M  V30 9726 C 912.807 -1.61927 -3.9197 0
M  V30 9727 N 913.198 -2.84659 -4.18094 0
M  V30 9728 C 911.496 -1.49053 -4.20356 0
M  V30 9729 C 912.197 -3.54697 -4.61048 0
M  V30 9730 N 911.173 -2.82164 -4.64634 0
M  V30 9731 H 914.975 -1.89056 -2.25022 0
M  V30 9732 H 912.489 -1.1197 -1.17629 0
M  V30 9733 H 914.486 -0.327997 -4.15608 0
M  V30 9734 H 913.146 0.38949 -3.22355 0
M  V30 9735 H 914.157 -3.21104 -4.06341 0
M  V30 9736 H 910.834 -0.631154 -4.12702 0
M  V30 9737 H 912.224 -4.59837 -4.89898 0
M  V30 9738 N 914.944 1.19125 -1.03184 0
M  V30 9739 C 915.894 2.20348 -0.585731 0
M  V30 9740 C 916.878 1.56656 0.367109 0
M  V30 9741 O 918.07 1.76003 0.187598 0
M  V30 9742 C 915.199 3.43249 0.0590006 0
M  V30 9743 C 914.285 4.1408 -0.916457 0
M  V30 9744 N 914.676 4.61051 -2.08005 0
M  V30 9745 C 912.974 4.39809 -0.74054 0
M  V30 9746 C 913.675 5.15477 -2.69552 0
M  V30 9747 N 912.651 5.06456 -1.97493 0
M  V30 9748 H 916.453 2.54346 -1.47259 0
M  V30 9749 H 913.967 1.35232 -0.899225 0
M  V30 9750 H 915.964 4.15013 0.396236 0
M  V30 9751 H 914.624 3.1075 0.941507 0
M  V30 9752 H 915.635 4.55782 -2.45934 0
M  V30 9753 H 912.312 4.17397 0.0926238 0
M  V30 9754 H 913.702 5.62088 -3.68112 0
M  V30 9755 N 916.422 0.810101 1.35185 0
M  V30 9756 C 917.669 0.392117 1.98667 0
M  V30 9757 C 917.997 -1.0416 1.64259 0
M  V30 9758 O 917.252 -1.73795 0.899647 0
M  V30 9759 C 917.551 0.526561 3.535 0
M  V30 9760 C 917.217 1.92411 4.07785 0
M  V30 9761 C 915.879 2.30644 4.22323 0
M  V30 9762 C 918.231 2.83827 4.37141 0
M  V30 9763 C 915.559 3.59655 4.63536 0
M  V30 9764 C 917.911 4.12287 4.79794 0
M  V30 9765 C 916.575 4.50515 4.92536 0
M  V30 9766 H 915.845 0.143486 0.726975 0
M  V30 9767 H 918.492 1.03157 1.61341 0
M  V30 9768 H 916.797 -0.19633 3.91308 0
M  V30 9769 H 918.494 0.183871 4.00578 0
M  V30 9770 H 915.084 1.61707 3.96924 0
M  V30 9771 H 919.268 2.55536 4.25459 0
M  V30 9772 H 914.524 3.89117 4.71591 0
M  V30 9773 H 918.698 4.83221 5.01468 0
M  V30 9774 H 916.325 5.50535 5.24229 0
M  V30 9775 N 917.9 -1.47166 0.563914 0
M  V30 9776 C 918.863 -2.28571 -0.169624 0
M  V30 9777 C 919.863 -1.37331 -0.836467 0
M  V30 9778 O 921.053 -1.59896 -0.6913 0
M  V30 9779 C 918.185 -3.17201 -1.24886 0
M  V30 9780 H 919.378 -2.94896 0.545539 0
M  V30 9781 H 916.931 -1.52966 0.321121 0
M  V30 9782 H 917.666 -2.55582 -1.99621 0
M  V30 9783 H 917.451 -3.84356 -0.775426 0
M  V30 9784 H 918.941 -3.7852 -1.76388 0
M  V30 9785 N 919.378 -0.300708 -1.54705 0
M  V30 9786 C 920.31 0.609179 -2.20956 0
M  V30 9787 C 921.323 1.09776 -1.20221 0
M  V30 9788 O 922.512 1.01527 -1.46815 0
M  V30 9789 C 919.612 1.84595 -2.84214 0
M  V30 9790 C 918.785 1.49991 -4.10879 0
M  V30 9791 C 917.844 2.5918 -4.57943 0
M  V30 9792 O 916.87 2.24285 -5.23149 0
M  V30 9793 N 918.072 3.89714 -4.30236 0
M  V30 9794 H 920.837 0.0420111 -2.99671 0
M  V30 9795 H 918.398 -0.122896 -1.61433 0
M  V30 9796 H 920.39 2.56988 -3.12633 0
M  V30 9797 H 918.96 2.32152 -2.09342 0
M  V30 9798 H 918.18 0.608637 -3.89473 0
M  V30 9799 H 919.468 1.24409 -4.93356 0
M  V30 9800 H 918.866 4.20874 -3.77997 0
M  V30 9801 H 917.423 4.58406 -4.63365 0
M  V30 9802 N 920.856 1.57574 -0.0284266 0
M  V30 9803 C 921.786 2.1321 0.952039 0
M  V30 9804 C 922.767 1.04806 1.33977 0
M  V30 9805 O 923.952 1.32635 1.41851 0
M  V30 9806 C 921.082 2.65862 2.23461 0
M  V30 9807 C 920.036 3.79047 1.98765 0
M  V30 9808 C 919.362 4.18124 3.33281 0
M  V30 9809 C 920.662 5.05151 1.32739 0
M  V30 9810 H 922.356 2.95385 0.488705 0
M  V30 9811 H 919.902 1.42092 0.233628 0
M  V30 9812 H 921.855 3.03417 2.92431 0
M  V30 9813 H 920.579 1.80848 2.71959 0
M  V30 9814 H 919.238 3.41929 1.32213 0
M  V30 9815 H 918.886 3.30092 3.79537 0
M  V30 9816 H 918.586 4.94396 3.17563 0
M  V30 9817 H 920.11 4.58262 4.0352 0
M  V30 9818 H 921.524 5.40297 1.91708 0
M  V30 9819 H 919.921 5.86416 1.27421 0
M  V30 9820 H 920.991 4.83969 0.300261 0
M  V30 9821 N 922.334 -0.244713 1.55689 0
M  V30 9822 C 923.267 -1.32946 1.85474 0
M  V30 9823 C 924.245 -1.46279 0.710021 0
M  V30 9824 O 925.429 -1.62459 0.956004 0
M  V30 9825 C 922.556 -2.7027 2.04137 0
M  V30 9826 C 921.602 -2.74075 3.2678 0
M  V30 9827 S 922.435 -2.30465 4.8337 0
M  V30 9828 C 923.591 -3.69709 5.05041 0
M  V30 9829 H 923.824 -1.07482 2.77191 0
M  V30 9830 H 921.357 -0.445807 1.47824 0
M  V30 9831 H 923.315 -3.4934 2.15574 0
M  V30 9832 H 921.976 -2.9297 1.13259 0
M  V30 9833 H 921.169 -3.74932 3.36812 0
M  V30 9834 H 920.771 -2.03051 3.1408 0
M  V30 9835 H 923.063 -4.65222 4.92518 0
M  V30 9836 H 924.006 -3.6461 6.07014 0
M  V30 9837 H 924.414 -3.62323 4.32877 0
M  V30 9838 N 923.813 -1.49104 -0.510467 0
M  V30 9839 C 925.043 -1.61571 -1.28757 0
M  V30 9840 C 925.451 -0.282638 -1.87077 0
M  V30 9841 O 924.794 0.740749 -1.68103 0
M  V30 9842 C 924.856 -2.61851 -2.46322 0
M  V30 9843 C 924.52 -4.06438 -2.08942 0
M  V30 9844 C 925.517 -4.93532 -1.63469 0
M  V30 9845 C 923.202 -4.52109 -2.18867 0
M  V30 9846 C 925.196 -6.24331 -1.28411 0
M  V30 9847 C 922.883 -5.82924 -1.83421 0
M  V30 9848 C 923.881 -6.68858 -1.38267 0
M  V30 9849 O 923.569 -7.97236 -1.03296 0
M  V30 9850 H 923.301 -0.547082 -0.397086 0
M  V30 9851 H 925.855 -1.95806 -0.620424 0
M  V30 9852 H 924.085 -2.22777 -3.16081 0
M  V30 9853 H 925.774 -2.63947 -3.08362 0
M  V30 9854 H 926.54 -4.59479 -1.55255 0
M  V30 9855 H 922.419 -3.85395 -2.52966 0
M  V30 9856 H 925.963 -6.9136 -0.930946 0
M  V30 9857 H 921.86 -6.16507 -1.91282 0
M  V30 9858 H 922.628 -8.10163 -1.16525 0
M  V30 9859 O 925.33 0.655661 -1.47592 0
M  V30 9860 H 926.021 1.30903 -1.42773 0
M  V30 END ATOM
M  V30 BEGIN BOND
M  V30 END BOND
M  V30 END CTAB
M  END
$$$$
