drugbank_target|Q99735 Microsomal glutathione S-transferase 2 (DB00143)
 OpenBabel12092120083D

  0  0  0     0  0            999 V3000
M  V30 BEGIN CTAB
M  V30 COUNTS 2384 2414 0 0 0
M  V30 BEGIN ATOM
M  V30 1 H -0.908 1.98254 -0.117106 0
M  V30 2 N 0 1.576 0 0
M  V30 3 C 0.933 2.03868 1.02534 0
M  V30 4 C 1.911 0.928543 1.3348 0
M  V30 5 O 3.095 1.19667 1.45644 0
M  V30 6 C 0.222 2.43627 2.35294 0
M  V30 7 C -0.732 3.65373 2.2001 0
M  V30 8 S 0.101 5.13292 1.52614 0
M  V30 9 C 1.257 5.56322 2.86805 0
M  V30 10 H 1.49 2.90518 0.631377 0
M  V30 11 H -0.977 1.52953 0.210867 0
M  V30 12 H 0.981 2.67203 3.11629 0
M  V30 13 H -0.358 1.57376 2.7183 0
M  V30 14 H -1.165 3.90944 3.18086 0
M  V30 15 H -1.563 3.418 1.51819 0
M  V30 16 H 0.729 5.58782 3.83104 0
M  V30 17 H 1.672 6.56266 2.65933 0
M  V30 18 H 2.08 4.83886 2.90714 0
M  V30 19 N 1.4781 -0.272755 1.55222 0
M  V30 20 C 2.4411 -1.32041 1.87344 0
M  V30 21 C 3.4411 -1.42342 0.74803 0
M  V30 22 O 4.6311 -1.41488 1.0162 0
M  V30 23 C 1.7631 -2.70173 2.07893 0
M  V30 24 H 2.9561 -1.04789 2.80997 0
M  V30 25 H 0.5091 -0.51083 1.47717 0
M  V30 26 H 1.2441 -3.02605 1.16622 0
M  V30 27 H 1.0291 -2.64082 2.89833 0
M  V30 28 H 2.5191 -3.45869 2.34017 0
M  V30 29 N 2.9562 -1.48159 -0.537278 0
M  V30 30 C 4.2042 -1.55497 -1.29094 0
M  V30 31 C 4.5252 -0.227454 -1.93669 0
M  V30 32 O 3.7952 0.750386 -1.80959 0
M  V30 33 H 2.3752 -0.572832 -0.47945 0
M  V30 34 H 5.0372 -1.84579 -0.625818 0
M  V30 35 H 4.1332 -2.33216 -2.07405 0
M  V30 36 N 4.4343 0.785586 -1.36625 0
M  V30 37 C 5.3823 1.91978 -1.31329 0
M  V30 38 C 6.3763 1.68162 -0.204416 0
M  V30 39 O 7.5823 1.76122 -0.371645 0
M  V30 40 H 3.9573 0.631087 -0.408942 0
M  V30 41 H 5.9283 1.93562 -2.27104 0
M  V30 42 C 4.6773 3.29055 -1.12329 0
M  V30 43 H 4.0003 3.4795 -1.96903 0
M  V30 44 H 5.4403 4.08756 -1.12671 0
M  V30 45 C 3.8993 3.36461 0.171861 0
M  V30 46 O 4.4293 3.84576 1.16035 0
M  V30 47 N 2.6353 2.89782 0.217846 0
M  V30 48 H 2.1823 2.50819 -0.587183 0
M  V30 49 H 2.1403 2.95119 1.08408 0
M  V30 50 N 5.9124 1.20967 1.01018 0
M  V30 51 C 7.1374 1.0503 1.78839 0
M  V30 52 C 7.5624 -0.395752 1.8389 0
M  V30 53 O 6.9204 -1.28529 1.27867 0
M  V30 54 C 6.9684 1.64602 3.2084 0
M  V30 55 O 6.0724 0.887988 4.02726 0
M  V30 56 H 5.4134 0.369987 0.551367 0
M  V30 57 H 7.9434 1.60399 1.27018 0
M  V30 58 H 7.9534 1.68607 3.71532 0
M  V30 59 H 6.6284 2.69841 3.16479 0
M  V30 60 H 5.2054 0.922648 3.61305 0
M  V30 61 N 7.3905 -1.2043 1.01659 0
M  V30 62 C 8.6395 -1.89118 0.701237 0
M  V30 63 C 8.9525 -1.79705 -0.772358 0
M  V30 64 O 10.1585 -2.43528 -1.20026 0
M  V30 65 C 8.6145 -3.39168 1.20388 0
M  V30 66 C 8.2225 -3.57166 2.70438 0
M  V30 67 C 9.9665 -4.1341 0.963953 0
M  V30 68 C 7.8735 -5.01042 3.14183 0
M  V30 69 H 6.8035 -0.708267 0.2586 0
M  V30 70 H 9.4545 -1.36239 1.22927 0
M  V30 71 H 7.8365 -3.91369 0.603824 0
M  V30 72 H 9.0105 -3.15351 3.35992 0
M  V30 73 H 7.3255 -2.96294 2.92572 0
M  V30 74 H 9.9225 -5.19491 1.26621 0
M  V30 75 H 10.2655 -4.16181 -0.099578 0
M  V30 76 H 10.7985 -3.67309 1.52738 0
M  V30 77 H 7.5375 -5.03426 4.19812 0
M  V30 78 H 7.0575 -5.43668 2.53348 0
M  V30 79 H 8.7365 -5.69623 3.0682 0
M  V30 80 N 8.8686 -0.792821 -1.36206 0
M  V30 81 C 9.7986 -0.207853 -2.32573 0
M  V30 82 C 10.7796 0.659055 -1.56813 0
M  V30 83 O 11.9646 0.592176 -1.84951 0
M  V30 84 C 9.0946 0.655449 -3.41059 0
M  V30 85 C 8.0486 -0.111842 -4.27854 0
M  V30 86 C 7.3746 0.872274 -5.27537 0
M  V30 87 C 8.6746 -1.30299 -5.05786 0
M  V30 88 H 10.3686 -1.01294 -2.81744 0
M  V30 89 H 7.9146 -0.48854 -1.3546 0
M  V30 90 H 9.8676 1.07464 -4.07467 0
M  V30 91 H 8.5916 1.49328 -2.90463 0
M  V30 92 H 7.2506 -0.512053 -3.63006 0
M  V30 93 H 6.8986 1.70523 -4.73214 0
M  V30 94 H 6.5986 0.363291 -5.86476 0
M  V30 95 H 8.1226 1.28996 -5.96818 0
M  V30 96 H 9.5366 -0.959379 -5.65216 0
M  V30 97 H 7.9336 -1.7455 -5.74154 0
M  V30 98 H 9.0036 -2.09663 -4.37229 0
M  V30 99 N 10.3467 1.47872 -0.545128 0
M  V30 100 C 11.2767 2.32661 0.197793 0
M  V30 101 C 12.2577 1.43041 0.920504 0
M  V30 102 O 13.4427 1.71912 0.90333 0
M  V30 103 C 10.5727 3.24569 1.23582 0
M  V30 104 C 9.5267 4.23333 0.630323 0
M  V30 105 C 8.8527 5.0448 1.77211 0
M  V30 106 C 10.1527 5.20704 -0.407974 0
M  V30 107 H 11.8467 2.95024 -0.510045 0
M  V30 108 H 9.3927 1.4187 -0.246731 0
M  V30 109 H 11.3457 3.8272 1.76362 0
M  V30 110 H 10.0697 2.60236 1.97344 0
M  V30 111 H 8.7287 3.6639 0.123922 0
M  V30 112 H 8.3767 4.36561 2.49847 0
M  V30 113 H 8.0767 5.71339 1.37281 0
M  V30 114 H 9.6007 5.65487 2.3034 0
M  V30 115 H 11.0147 5.7329 0.033305 0
M  V30 116 H 9.4117 5.95699 -0.725486 0
M  V30 117 H 10.4817 4.66917 -1.30828 0
M  V30 118 N 11.8248 0.280983 1.55075 0
M  V30 119 C 12.7878 -0.590896 2.21452 0
M  V30 120 C 13.7878 -1.07682 1.19421 0
M  V30 121 O 14.9778 -0.97605 1.44288 0
M  V30 122 C 12.1098 -1.81587 2.88511 0
M  V30 123 H 13.3028 -0.0112554 2.99898 0
M  V30 124 H 10.8558 0.0316438 1.56268 0
M  V30 125 H 11.5908 -2.43587 2.14093 0
M  V30 126 H 11.3758 -1.4753 3.63287 0
M  V30 127 H 12.8658 -2.43575 3.39206 0
M  V30 128 N 13.3029 -1.57598 0.00835791 0
M  V30 129 C 14.2659 -2.07884 -0.965242 0
M  V30 130 C 15.2659 -0.989825 -1.26725 0
M  V30 131 O 16.4559 -1.25218 -1.21104 0
M  V30 132 C 13.5879 -2.52731 -2.28779 0
M  V30 133 H 14.7809 -2.95178 -0.530112 0
M  V30 134 H 12.3339 -1.54458 -0.239283 0
M  V30 135 H 13.0689 -1.68705 -2.76964 0
M  V30 136 H 12.8539 -3.32272 -2.08177 0
M  V30 137 H 14.3439 -2.91933 -2.98605 0
M  V30 138 N 14.781 0.264519 -1.55364 0
M  V30 139 C 16.027 0.99646 -1.76631 0
M  V30 140 C 16.36 1.85632 -0.570478 0
M  V30 141 O 15.635 1.89647 0.43175 0
M  V30 142 C 15.918 1.87187 -3.07625 0
M  V30 143 C 15.771 1.04138 -4.37579 0
M  V30 144 C 17.09 2.85749 -3.34717 0
M  V30 145 H 14.209 0.360841 -0.642622 0
M  V30 146 H 16.851 0.268218 -1.88097 0
M  V30 147 H 15.001 2.49279 -2.9798 0
M  V30 148 H 16.673 0.440517 -4.59192 0
M  V30 149 H 14.916 0.345115 -4.32425 0
M  V30 150 H 15.587 1.68729 -5.2558 0
M  V30 151 H 18.063 2.33793 -3.4421 0
M  V30 152 H 16.939 3.44136 -4.27623 0
M  V30 153 H 17.2 3.61311 -2.54768 0
M  V30 154 N 16.2591 1.48442 0.529413 0
M  V30 155 C 17.4841 1.60406 1.31471 0
M  V30 156 C 17.9091 0.264738 1.86228 0
M  V30 157 O 17.2671 -0.763668 1.64432 0
M  V30 158 C 17.3151 2.65419 2.44101 0
M  V30 159 O 16.4191 2.22618 3.47153 0
M  V30 160 H 15.7601 0.537863 0.389357 0
M  V30 161 H 18.2901 1.94432 0.636965 0
M  V30 162 H 18.3001 2.86709 2.90279 0
M  V30 163 H 16.9751 3.62652 2.03608 0
M  V30 164 H 15.5521 2.11543 3.0709 0
M  V30 165 N 17.7372 -0.778329 1.37039 0
M  V30 166 C 18.9862 -1.53189 1.3121 0
M  V30 167 C 19.2992 -1.95328 -0.103095 0
M  V30 168 O 20.5052 -2.70012 -0.283826 0
M  V30 169 C 18.9612 -2.76591 2.30272 0
M  V30 170 C 18.5692 -2.41577 3.77286 0
M  V30 171 C 20.3132 -3.5455 2.33441 0
M  V30 172 C 18.2202 -3.61441 4.68096 0
M  V30 173 H 17.1502 -0.5751 0.487622 0
M  V30 174 H 19.8012 -0.853101 1.62464 0
M  V30 175 H 18.1832 -3.46326 1.92027 0
M  V30 176 H 19.3572 -1.79668 4.2433 0
M  V30 177 H 17.6722 -1.76806 3.76999 0
M  V30 178 H 20.2692 -4.43628 2.98493 0
M  V30 179 H 20.6122 -3.93936 1.34611 0
M  V30 180 H 21.1452 -2.91805 2.7036 0
M  V30 181 H 17.8842 -3.27142 5.6803 0
M  V30 182 H 17.4042 -4.22478 4.25761 0
M  V30 183 H 19.0832 -4.28335 4.8491 0
M  V30 184 N 19.2153 -1.21501 -1.00376 0
M  V30 185 C 20.1453 -0.999478 -2.11028 0
M  V30 186 C 21.1263 0.0759671 -1.6993 0
M  V30 187 O 22.3113 -0.0841106 -1.94018 0
M  V30 188 C 19.4413 -0.564709 -3.42678 0
M  V30 189 C 18.3953 -1.58486 -3.97576 0
M  V30 190 C 17.7213 -1.00628 -5.25146 0
M  V30 191 C 19.0213 -2.97204 -4.29496 0
M  V30 192 H 20.7153 -1.92495 -2.29317 0
M  V30 193 H 18.2613 -0.92693 -1.102 0
M  V30 194 H 20.2143 -0.401091 -4.19487 0
M  V30 195 H 18.9383 0.396411 -3.24185 0
M  V30 196 H 17.5973 -1.73606 -3.22888 0
M  V30 197 H 17.2453 -0.0368439 -5.02987 0
M  V30 198 H 16.9453 -1.68771 -5.62841 0
M  V30 199 H 18.4693 -0.854015 -6.04598 0
M  V30 200 H 19.8833 -2.8552 -4.97143 0
M  V30 201 H 18.2803 -3.62372 -4.78338 0
M  V30 202 H 19.3503 -3.47956 -3.3772 0
M  V30 203 N 20.6934 1.19889 -1.02296 0
M  V30 204 C 21.9184 1.9393 -0.735237 0
M  V30 205 C 22.3434 1.74639 0.698782 0
M  V30 206 O 21.7014 1.04481 1.48167 0
M  V30 207 C 21.7494 3.43916 -1.08417 0
M  V30 208 O 20.8534 4.11917 -0.199446 0
M  V30 209 H 20.1944 0.605645 -0.272196 0
M  V30 210 H 22.7244 1.52137 -1.36804 0
M  V30 211 H 22.7344 3.9456 -1.03856 0
M  V30 212 H 21.4094 3.5728 -2.12894 0
M  V30 213 H 19.9864 3.71666 -0.303136 0
M  V30 214 N 22.1715 0.800033 1.35784 0
M  V30 215 C 23.1345 0.211565 2.28221 0
M  V30 216 C 24.1345 -0.59728 1.49296 0
M  V30 217 O 25.3245 -0.416721 1.69142 0
M  V30 218 C 22.4565 -0.705846 3.33513 0
M  V30 219 H 23.6495 1.02677 2.81776 0
M  V30 220 H 21.2025 0.570211 1.45528 0
M  V30 221 H 21.9375 -1.54498 2.85133 0
M  V30 222 H 21.7225 -0.127655 3.91892 0
M  V30 223 H 23.2125 -1.11211 4.02519 0
M  V30 224 N 23.6496 -1.47581 0.552962 0
M  V30 225 C 24.8896 -2.04379 0.0296245 0
M  V30 226 C 25.2536 -1.4185 -1.29393 0
M  V30 227 O 26.4546 -1.89669 -1.90471 0
M  V30 228 C 24.7256 -3.57339 -0.0661371 0
M  V30 229 S 26.2846 -4.35511 -0.536213 0
M  V30 230 H 23.1026 -0.710625 0.0230991 0
M  V30 231 H 25.7046 -1.81005 0.738734 0
M  V30 232 H 24.4086 -4.00374 0.901596 0
M  V30 233 H 23.9396 -3.85202 -0.798931 0
M  V30 234 H 25.9546 -4.6253 -1.79668 0
M  V30 235 N 25.1277 -0.289203 -1.54924 0
M  V30 236 C 26.0597 0.625583 -2.20497 0
M  V30 237 C 27.0727 1.10667 -1.19402 0
M  V30 238 O 28.2617 1.02615 -1.46056 0
M  V30 239 C 25.3617 1.86702 -2.82835 0
M  V30 240 C 24.5347 1.5304 -4.09753 0
M  V30 241 C 23.5937 2.62576 -4.56005 0
M  V30 242 O 22.6197 2.28167 -5.21468 0
M  V30 243 N 23.8217 3.92901 -4.27328 0
M  V30 244 H 26.5867 0.0642801 -2.99631 0
M  V30 245 H 24.1477 -0.110896 -1.6152 0
M  V30 246 H 26.1397 2.59304 -3.10715 0
M  V30 247 H 24.7097 2.33702 -2.07611 0
M  V30 248 H 23.9297 0.637564 -3.8901 0
M  V30 249 H 25.2177 1.28072 -4.92418 0
M  V30 250 H 24.6157 4.23671 -3.74859 0
M  V30 251 H 23.1727 4.61837 -4.59946 0
M  V30 252 N 26.6058 1.57591 -0.0167156 0
M  V30 253 C 27.5378 2.06343 0.997753 0
M  V30 254 C 28.5508 0.984469 1.29661 0
M  V30 255 O 29.7398 1.26093 1.26344 0
M  V30 256 C 26.8398 2.46255 2.32834 0
M  V30 257 C 26.0128 3.77083 2.21646 0
M  V30 258 C 25.0718 4.0368 3.37534 0
M  V30 259 O 24.0978 4.7411 3.14973 0
M  V30 260 N 25.2998 3.52881 4.60929 0
M  V30 261 H 28.0648 2.93997 0.581875 0
M  V30 262 H 25.6258 1.61002 0.170316 0
M  V30 263 H 27.6178 2.61149 3.09166 0
M  V30 264 H 26.1878 1.64032 2.66106 0
M  V30 265 H 25.4078 3.72106 1.30119 0
M  V30 266 H 26.6958 4.62822 2.11361 0
M  V30 267 H 26.0938 2.95878 4.82154 0
M  V30 268 H 24.6508 3.73076 5.34469 0
M  V30 269 N 28.0839 -0.256276 1.55502 0
M  V30 270 C 29.3089 -1.00766 1.81276 0
M  V30 271 C 29.7339 -1.78524 0.59252 0
M  V30 272 O 29.0919 -1.75413 -0.45827 0
M  V30 273 C 29.1399 -1.92869 3.04687 0
M  V30 274 O 28.2439 -3.019 2.80945 0
M  V30 275 H 27.5849 -0.287224 0.598664 0
M  V30 276 H 30.1149 -0.280109 2.02674 0
M  V30 277 H 30.1249 -2.34511 3.33869 0
M  V30 278 H 28.7999 -1.35689 3.93143 0
M  V30 279 H 27.3769 -2.64454 2.62904 0
M  V30 280 N 29.562 -1.4872 -0.521534 0
M  V30 281 C 30.792 -1.6061 -1.29954 0
M  V30 282 C 31.2 -0.268728 -1.87282 0
M  V30 283 O 30.543 0.753221 -1.67548 0
M  V30 284 C 30.605 -2.60013 -2.48261 0
M  V30 285 C 30.269 -4.04874 -2.11957 0
M  V30 286 C 31.266 -4.92304 -1.67132 0
M  V30 287 C 28.951 -4.5047 -2.22221 0
M  V30 288 C 30.945 -6.2336 -1.33047 0
M  V30 289 C 28.632 -5.81544 -1.87748 0
M  V30 290 C 29.63 -6.67812 -1.43234 0
M  V30 291 O 29.318 -7.96446 -1.09217 0
M  V30 292 H 29.05 -0.544116 -0.401141 0
M  V30 293 H 31.604 -1.95339 -0.634958 0
M  V30 294 H 29.834 -2.20422 -3.17728 0
M  V30 295 H 31.523 -2.61648 -3.10315 0
M  V30 296 H 32.289 -4.58312 -1.58665 0
M  V30 297 H 28.168 -3.83504 -2.55823 0
M  V30 298 H 31.712 -6.90649 -0.982299 0
M  V30 299 H 27.609 -6.15069 -1.95858 0
M  V30 300 H 28.377 -8.09275 -1.22542 0
M  V30 301 N 31.0401 0.771051 -1.3745 0
M  V30 302 C 32.2871 1.52963 -1.32697 0
M  V30 303 C 32.6151 1.94299 0.0883274 0
M  V30 304 O 31.8701 1.64397 1.0617 0
M  V30 305 C 32.1691 2.80676 -2.2126 0
M  V30 306 C 31.8351 2.58389 -3.69521 0
M  V30 307 C 30.4971 2.52019 -4.09927 0
M  V30 308 C 32.8491 2.38469 -4.63446 0
M  V30 309 C 30.1771 2.23721 -5.42371 0
M  V30 310 C 32.5291 2.11694 -5.96128 0
M  V30 311 C 31.1931 2.03769 -6.35637 0
M  V30 312 H 30.4631 0.559732 -0.485573 0
M  V30 313 H 33.1101 0.888083 -1.69662 0
M  V30 314 H 31.4151 3.49392 -1.77291 0
M  V30 315 H 33.1121 3.38557 -2.14895 0
M  V30 316 H 29.7021 2.6421 -3.37478 0
M  V30 317 H 33.8861 2.4238 -4.33089 0
M  V30 318 H 29.1421 2.16081 -5.71943 0
M  V30 319 H 33.3161 1.9528 -6.6846 0
M  V30 320 H 30.9431 1.81606 -7.38189 0
M  V30 321 N 32.5182 1.22032 0.997298 0
M  V30 322 C 33.4812 0.987909 2.06816 0
M  V30 323 C 34.4812 -0.0440084 1.6074 0
M  V30 324 O 35.6712 0.194053 1.73116 0
M  V30 325 C 32.8032 0.49132 3.37341 0
M  V30 326 H 33.9962 1.93803 2.28868 0
M  V30 327 H 31.5492 1.03838 1.16822 0
M  V30 328 H 32.2842 -0.463364 3.20973 0
M  V30 329 H 32.0692 1.23575 3.72118 0
M  V30 330 H 33.5592 0.348824 4.16141 0
M  V30 331 N 33.9963 -1.19345 1.0293 0
M  V30 332 C 34.9263 -2.2481 0.631105 0
M  V30 333 C 35.9073 -1.66245 -0.360104 0
M  V30 334 O 37.0923 -1.92677 -0.242726 0
M  V30 335 C 34.2223 -3.47295 -0.0184607 0
M  V30 336 C 33.1763 -4.18536 0.895073 0
M  V30 337 C 32.5023 -5.34586 0.110592 0
M  V30 338 C 33.8023 -4.73287 2.209 0
M  V30 339 H 35.4963 -2.58372 1.51275 0
M  V30 340 H 33.0423 -1.24194 0.728818 0
M  V30 341 H 34.9953 -4.20268 -0.308675 0
M  V30 342 H 33.7193 -3.12933 -0.934907 0
M  V30 343 H 32.3783 -3.47446 1.16949 0
M  V30 344 H 32.0263 -4.96469 -0.807902 0
M  V30 345 H 31.7263 -5.83183 0.719087 0
M  V30 346 H 33.2503 -6.10355 -0.172871 0
M  V30 347 H 34.6643 -5.38013 1.98028 0
M  V30 348 H 33.0613 -5.32373 2.76946 0
M  V30 349 H 34.1313 -3.91331 2.86336 0
M  V30 350 N 35.4744 -0.807222 -1.35358 0
M  V30 351 C 36.4064 -0.175717 -2.28525 0
M  V30 352 C 37.4194 0.625354 -1.5031 0
M  V30 353 O 38.6084 0.457611 -1.72535 0
M  V30 354 C 35.7084 0.773471 -3.29956 0
M  V30 355 C 34.8814 0.0186296 -4.37396 0
M  V30 356 C 33.9404 0.886395 -5.18681 0
M  V30 357 O 32.9664 0.337106 -5.68201 0
M  V30 358 N 34.1684 2.20839 -5.36852 0
M  V30 359 H 36.9334 -0.976091 -2.83359 0
M  V30 360 H 34.4944 -0.662737 -1.47714 0
M  V30 361 H 36.4864 1.35824 -3.81227 0
M  V30 362 H 35.0564 1.47465 -2.75632 0
M  V30 363 H 34.2764 -0.747349 -3.87051 0
M  V30 364 H 35.5644 -0.501577 -5.06322 0
M  V30 365 H 34.9624 2.67858 -4.98265 0
M  V30 366 H 33.5194 2.74237 -5.91301 0
M  V30 367 N 36.9525 1.47285 -0.560781 0
M  V30 368 C 38.1985 2.02764 -0.0381184 0
M  V30 369 C 38.5315 1.43384 1.30976 0
M  V30 370 O 37.8065 0.590733 1.85312 0
M  V30 371 C 38.0895 3.60064 0.0511427 0
M  V30 372 C 37.9425 4.2987 -1.32408 0
M  V30 373 C 39.2615 4.33439 0.762795 0
M  V30 374 H 36.3805 0.736841 -0.0153264 0
M  V30 375 H 39.0225 1.75675 -0.723759 0
M  V30 376 H 37.1725 3.83274 0.635065 0
M  V30 377 H 38.8445 4.17989 -1.95148 0
M  V30 378 H 37.0875 3.90085 -1.8978 0
M  V30 379 H 37.7585 5.38478 -1.21431 0
M  V30 380 H 40.2345 4.15243 0.266965 0
M  V30 381 H 39.1105 5.43124 0.794221 0
M  V30 382 H 39.3715 4.02915 1.81966 0
M  V30 383 N 38.4306 0.297415 1.54768 0
M  V30 384 C 39.6786 -0.312295 1.99673 0
M  V30 385 C 39.9996 -1.54686 1.18732 0
M  V30 386 O 39.2696 -1.93854 0.282382 0
M  V30 387 H 37.8496 -0.118381 0.73756 0
M  V30 388 H 40.5116 0.407915 1.90583 0
M  V30 389 H 39.6076 -0.586813 3.06534 0
M  V30 390 N 39.9087 -1.5758 0.0250728 0
M  V30 391 C 40.8557 -2.09973 -0.958129 0
M  V30 392 C 41.8257 -1.00085 -1.3256 0
M  V30 393 O 43.0107 -1.27481 -1.41962 0
M  V30 394 C 40.1507 -2.62812 -2.2366 0
M  V30 395 C 39.2637 -3.86693 -1.92594 0
M  V30 396 C 38.3987 -4.27941 -3.14707 0
M  V30 397 C 37.4377 -5.44591 -2.79442 0
M  V30 398 N 36.5747 -5.81014 -3.94167 0
M  V30 399 H 41.4147 -2.937 -0.504428 0
M  V30 400 H 38.9517 -1.45172 -0.237392 0
M  V30 401 H 40.9097 -2.91536 -2.98434 0
M  V30 402 H 39.5397 -1.81922 -2.66654 0
M  V30 403 H 38.5917 -3.64723 -1.0808 0
M  V30 404 H 39.9037 -4.71547 -1.62619 0
M  V30 405 H 39.0577 -4.58079 -3.97804 0
M  V30 406 H 37.7967 -3.41845 -3.4784 0
M  V30 407 H 36.8017 -5.1415 -1.94755 0
M  V30 408 H 38.0267 -6.32382 -2.47528 0
M  V30 409 H 35.9727 -4.97874 -4.2715 0
M  V30 410 H 35.8897 -6.60498 -3.67801 0
M  V30 411 H 37.1577 -6.15756 -4.7798 0
M  V30 412 N 41.3868 0.248026 -1.55636 0
M  V30 413 C 42.3498 1.29044 -1.89421 0
M  V30 414 C 43.3498 1.41134 -0.770581 0
M  V30 415 O 44.5398 1.39854 -1.03858 0
M  V30 416 C 41.6718 2.66831 -2.12165 0
M  V30 417 H 42.8648 1.00305 -2.82629 0
M  V30 418 H 40.4178 0.487265 -1.48511 0
M  V30 419 H 41.1528 3.00711 -1.21422 0
M  V30 420 H 40.9378 2.59438 -2.93997 0
M  V30 421 H 42.4278 3.42103 -2.3949 0
M  V30 422 N 42.8649 1.48995 0.513639 0
M  V30 423 C 44.2809 1.35478 0.843682 0
M  V30 424 C 44.4809 0.378213 1.97919 0
M  V30 425 O 43.5369 -0.194689 2.51748 0
M  V30 426 C 44.8499 2.75901 1.1958 0
M  V30 427 C 46.3979 2.84509 1.30474 0
M  V30 428 C 46.8729 4.25671 1.69021 0
M  V30 429 N 48.3639 4.28422 1.76094 0
M  V30 430 C 49.0989 5.34601 2.07338 0
M  V30 431 N 48.5949 6.5104 2.36894 0
M  V30 432 N 50.3879 5.22007 2.08483 0
M  V30 433 H 42.5389 2.11092 -0.235328 0
M  V30 434 H 44.8019 0.947039 -0.0426669 0
M  V30 435 H 44.5079 3.49001 0.434913 0
M  V30 436 H 44.3819 3.10467 2.1422 0
M  V30 437 H 46.7689 2.11655 2.05637 0
M  V30 438 H 46.8499 2.53542 0.339155 0
M  V30 439 H 46.4939 4.99048 0.944135 0
M  V30 440 H 46.4239 4.54094 2.66658 0
M  V30 441 H 48.9149 3.44441 1.55464 0
M  V30 442 H 49.2279 7.2779 2.59887 0
M  V30 443 H 47.5729 6.54287 2.34378 0
M  V30 444 H 50.7639 4.30051 1.84861 0
M  V30 445 H 50.9369 6.04854 2.325 0
M  V30 446 N 44.343 -0.763751 1.37857 0
M  V30 447 C 45.273 -1.89103 1.36975 0
M  V30 448 C 46.254 -1.68439 0.237152 0
M  V30 449 O 47.439 -1.8918 0.438713 0
M  V30 450 C 44.569 -3.26496 1.18395 0
M  V30 451 C 43.523 -3.61741 2.28751 0
M  V30 452 C 42.849 -4.97762 1.95286 0
M  V30 453 C 44.149 -3.67665 3.70972 0
M  V30 454 H 45.843 -1.90099 2.31307 0
M  V30 455 H 43.389 -0.91319 1.11341 0
M  V30 456 H 45.342 -4.05003 1.16406 0
M  V30 457 H 44.066 -3.25955 0.205215 0
M  V30 458 H 42.725 -2.85547 2.29909 0
M  V30 459 H 42.373 -4.93769 0.959221 0
M  V30 460 H 42.073 -5.22313 2.69189 0
M  V30 461 H 43.597 -5.7866 1.94898 0
M  V30 462 H 45.011 -4.36307 3.719 0
M  V30 463 H 43.408 -4.03718 4.43995 0
M  V30 464 H 44.478 -2.68134 4.0402 0
M  V30 465 N 45.8211 -1.22559 -0.990812 0
M  V30 466 C 46.7681 -0.997519 -2.0813 0
M  V30 467 C 47.7381 0.0814702 -1.659 0
M  V30 468 O 48.9231 -0.0685424 -1.90677 0
M  V30 469 C 46.0631 -0.583615 -3.40129 0
M  V30 470 C 45.1761 -1.7336 -3.9569 0
M  V30 471 C 44.3111 -1.26748 -5.15857 0
M  V30 472 C 43.3501 -2.38888 -5.63559 0
M  V30 473 N 42.4871 -1.93308 -6.74964 0
M  V30 474 H 47.3271 -1.93099 -2.26973 0
M  V30 475 H 44.8641 -0.962114 -1.11273 0
M  V30 476 H 46.8221 -0.324801 -4.15934 0
M  V30 477 H 45.4521 0.312845 -3.2128 0
M  V30 478 H 44.5041 -2.10669 -3.16738 0
M  V30 479 H 45.8161 -2.57704 -4.27071 0
M  V30 480 H 44.9701 -0.966173 -5.98957 0
M  V30 481 H 43.7091 -0.394272 -4.86104 0
M  V30 482 H 42.7141 -2.69805 -4.79046 0
M  V30 483 H 43.9391 -3.26728 -5.95336 0
M  V30 484 H 41.8851 -1.08352 -6.4699 0
M  V30 485 H 41.8021 -2.71217 -7.05675 0
M  V30 486 H 43.0701 -1.66252 -7.61564 0
M  V30 487 N 47.2992 1.18797 -1.03562 0
M  V30 488 C 48.5292 1.92319 -0.754773 0
M  V30 489 C 48.9372 1.7612 0.691248 0
M  V30 490 O 48.2802 1.08491 1.48241 0
M  V30 491 C 48.3422 3.44284 -1.03484 0
M  V30 492 C 48.0062 3.84258 -2.47376 0
M  V30 493 C 49.0032 3.88459 -3.45537 0
M  V30 494 C 46.6882 4.15701 -2.81954 0
M  V30 495 C 48.6822 4.23545 -4.76328 0
M  V30 496 C 46.3692 4.50458 -4.12954 0
M  V30 497 C 47.3672 4.54356 -5.09951 0
M  V30 498 O 47.0552 4.88305 -6.38603 0
M  V30 499 H 46.7872 0.617527 -0.275021 0
M  V30 500 H 49.3412 1.51683 -1.38497 0
M  V30 501 H 47.5712 3.85135 -0.347513 0
M  V30 502 H 49.2602 3.99049 -0.7426 0
M  V30 503 H 50.0262 3.6431 -3.20162 0
M  V30 504 H 45.9052 4.11847 -2.0713 0
M  V30 505 H 49.4492 4.26502 -5.52035 0
M  V30 506 H 45.3462 4.74067 -4.38099 0
M  V30 507 H 46.1142 5.06227 -6.43177 0
M  V30 508 N 48.7773 0.814389 1.34928 0
M  V30 509 C 49.7243 0.22822 2.29669 0
M  V30 510 C 50.6943 -0.642164 1.53184 0
M  V30 511 O 51.8793 -0.585605 1.81591 0
M  V30 512 C 49.0193 -0.61089 3.3965 0
M  V30 513 C 48.1323 0.280792 4.31086 0
M  V30 514 C 47.2673 -0.567067 5.28165 0
M  V30 515 C 46.3063 0.324531 6.11239 0
M  V30 516 N 45.4433 -0.483756 7.00431 0
M  V30 517 H 50.2833 1.04153 2.79206 0
M  V30 518 H 47.8203 0.525133 1.37407 0
M  V30 519 H 49.7783 -1.11263 4.0209 0
M  V30 520 H 48.4083 -1.38939 2.91369 0
M  V30 521 H 47.4603 0.900688 3.69583 0
M  V30 522 H 48.7723 0.966723 4.89342 0
M  V30 523 H 47.9263 -1.13363 5.96015 0
M  V30 524 H 46.6653 -1.28654 4.70425 0
M  V30 525 H 45.6703 0.903298 5.42329 0
M  V30 526 H 46.8953 1.04198 6.71059 0
M  V30 527 H 44.8413 -1.18706 6.45171 0
M  V30 528 H 44.7583 0.143965 7.55863 0
M  V30 529 H 46.0263 -1.03334 7.7262 0
M  V30 530 N 50.2554 -1.46986 0.568584 0
M  V30 531 C 51.5014 -2.02741 0.0488709 0
M  V30 532 C 51.8344 -1.44077 -1.30214 0
M  V30 533 O 51.1094 -0.600552 -1.84996 0
M  V30 534 C 51.3924 -3.60086 -0.032047 0
M  V30 535 C 51.2454 -4.29162 1.34686 0
M  V30 536 C 52.5644 -4.33838 -0.739798 0
M  V30 537 H 49.6834 -0.736749 0.0192338 0
M  V30 538 H 52.3254 -1.75289 0.733065 0
M  V30 539 H 50.4754 -3.83606 -0.61473 0
M  V30 540 H 52.1474 -4.16948 1.97362 0
M  V30 541 H 50.3904 -3.89073 1.91846 0
M  V30 542 H 51.0614 -5.37826 1.24285 0
M  V30 543 H 53.5374 -4.15378 -0.244939 0
M  V30 544 H 52.4134 -5.43537 -0.765406 0
M  V30 545 H 52.6744 -4.03875 -1.79827 0
M  V30 546 N 51.7335 -0.305618 -1.54608 0
M  V30 547 C 52.9615 0.304775 -2.04643 0
M  V30 548 C 53.3765 1.47167 -1.18268 0
M  V30 549 O 52.7335 1.81296 -0.209328 0
M  V30 550 C 52.7845 0.756564 -3.53495 0
M  V30 551 O 52.5055 -0.36389 -4.36586 0
M  V30 552 C 54.0065 1.43163 -4.19546 0
M  V30 553 H 51.2265 0.0655481 -0.667791 0
M  V30 554 H 53.7705 -0.446592 -1.99564 0
M  V30 555 H 51.9255 1.45794 -3.58919 0
M  V30 556 H 52.3395 -0.0113121 -5.24499 0
M  V30 557 H 53.8135 1.69886 -5.25207 0
M  V30 558 H 54.2905 2.37318 -3.69563 0
M  V30 559 H 54.8965 0.773307 -4.18211 0
M  V30 560 N 53.2116 1.57565 -0.0334293 0
M  V30 561 C 54.6226 1.79746 0.504798 0
M  V30 562 C 54.9736 0.944091 1.71992 0
M  V30 563 O 54.0986 0.155694 2.15839 0
M  V30 564 C 54.6936 3.25997 0.922567 0
M  V30 565 C 53.2526 3.49159 1.40588 0
M  V30 566 C 52.3996 2.74785 0.372633 0
M  V30 567 H 55.3506 1.56565 -0.259436 0
M  V30 568 H 55.3716 3.35945 1.78666 0
M  V30 569 H 54.8836 3.88081 0.0379825 0
M  V30 570 H 52.9846 2.92332 2.31025 0
M  V30 571 H 53.0976 4.57873 1.41028 0
M  V30 572 H 51.4616 2.40391 0.841672 0
M  V30 573 H 52.2446 3.39587 -0.503559 0
M  V30 574 N 54.6897 -0.239769 1.55765 0
M  V30 575 C 56.1007 -0.808263 1.68297 0
M  V30 576 C 56.4517 -1.85736 0.632181 0
M  V30 577 O 55.5767 -2.15277 -0.220204 0
M  V30 578 C 56.1717 -1.47284 3.05111 0
M  V30 579 C 54.7307 -1.98895 3.19559 0
M  V30 580 C 53.8777 -0.842575 2.64189 0
M  V30 581 H 56.8287 -0.0154422 1.58692 0
M  V30 582 H 56.8497 -2.34111 2.99954 0
M  V30 583 H 56.3617 -0.709053 3.81568 0
M  V30 584 H 54.4627 -2.78132 2.47938 0
M  V30 585 H 54.5757 -2.18143 4.26556 0
M  V30 586 H 52.9397 -1.24501 2.22197 0
M  V30 587 H 53.7227 -0.0917552 3.43177 0
M  V30 588 N 56.1678 -1.49265 -0.50573 0
M  V30 589 C 57.1308 -1.65075 -1.59006 0
M  V30 590 C 58.1308 -0.522768 -1.52065 0
M  V30 591 O 59.3208 -0.789117 -1.55302 0
M  V30 592 C 56.4528 -1.64369 -2.98656 0
M  V30 593 H 57.6458 -2.61784 -1.46319 0
M  V30 594 H 55.1988 -1.38226 -0.729616 0
M  V30 595 H 55.9338 -0.692272 -3.16825 0
M  V30 596 H 55.7188 -2.46282 -3.05103 0
M  V30 597 H 57.2088 -1.78674 -3.77446 0
M  V30 598 N 57.6459 0.756429 -1.3826 0
M  V30 599 C 58.8919 1.51772 -1.34511 0
M  V30 600 C 59.2249 1.94089 0.0656691 0
M  V30 601 O 58.4999 1.65221 1.02626 0
M  V30 602 C 58.7829 2.77226 -2.29821 0
M  V30 603 C 58.6359 2.41065 -3.79747 0
M  V30 604 C 59.9549 3.79236 -2.23312 0
M  V30 605 H 57.0739 0.550578 -0.489931 0
M  V30 606 H 59.7159 0.866607 -1.69086 0
M  V30 607 H 57.8659 3.32784 -2.00467 0
M  V30 608 H 59.5379 1.91303 -4.19763 0
M  V30 609 H 57.7809 1.7356 -3.97567 0
M  V30 610 H 58.4519 3.3081 -4.41892 0
M  V30 611 H 60.9279 3.3321 -2.49219 0
M  V30 612 H 59.8039 4.64714 -2.92116 0
M  V30 613 H 60.0649 4.24615 -1.23102 0
M  V30 614 N 59.124 1.23083 0.984299 0
M  V30 615 C 60.352 1.08714 1.76037 0
M  V30 616 C 60.767 -0.361691 1.85303 0
M  V30 617 O 60.124 -1.25034 1.32939 0
M  V30 618 C 60.175 1.70206 3.18923 0
M  V30 619 O 59.896 3.09423 3.10144 0
M  V30 620 C 61.397 1.61227 4.12941 0
M  V30 621 H 58.617 0.380664 0.552572 0
M  V30 622 H 61.161 1.62853 1.23689 0
M  V30 623 H 59.316 1.20109 3.6831 0
M  V30 624 H 59.73 3.39188 4.00065 0
M  V30 625 H 61.204 2.08962 5.10919 0
M  V30 626 H 61.681 0.570375 4.35481 0
M  V30 627 H 62.287 2.10671 3.69456 0
M  V30 628 N 60.6021 -1.18246 1.0419 0
M  V30 629 C 61.8501 -1.87886 0.744543 0
M  V30 630 C 62.1711 -1.8082 -0.730006 0
M  V30 631 O 61.4411 -1.22736 -1.52685 0
M  V30 632 H 60.0211 -0.695556 0.272417 0
M  V30 633 H 62.6831 -1.43494 1.31892 0
M  V30 634 H 61.7791 -2.9389 1.05049 0
M  V30 635 N 62.0802 -0.821533 -1.34494 0
M  V30 636 C 63.3052 -0.420873 -2.03085 0
M  V30 637 C 63.7302 0.964915 -1.61465 0
M  V30 638 O 63.0882 1.62763 -0.798607 0
M  V30 639 C 63.1362 -0.529414 -3.56693 0
M  V30 640 O 62.2402 0.451302 -4.09923 0
M  V30 641 H 61.5812 -0.173489 -0.640935 0
M  V30 642 H 64.1112 -1.11157 -1.71771 0
M  V30 643 H 64.1212 -0.404671 -4.05988 0
M  V30 644 H 62.7962 -1.54014 -3.86332 0
M  V30 645 H 61.3732 0.285558 -3.71805 0
M  V30 646 N 63.5583 1.46682 -0.576371 0
M  V30 647 C 64.9693 1.86112 -0.148091 0
M  V30 648 C 65.3203 1.48073 1.2872 0
M  V30 649 O 64.4453 0.892656 1.97131 0
M  V30 650 C 65.0403 3.37786 -0.261982 0
M  V30 651 C 63.5993 3.76235 0.111384 0
M  V30 652 C 62.7463 2.70713 -0.60083 0
M  V30 653 H 65.6973 1.37927 -0.78497 0
M  V30 654 H 65.7183 3.77007 0.514364 0
M  V30 655 H 65.2303 3.6544 -1.30671 0
M  V30 656 H 63.3313 3.54198 1.15649 0
M  V30 657 H 63.4443 4.78391 -0.26052 0
M  V30 658 H 61.8083 2.54666 -0.0417783 0
M  V30 659 H 62.5913 3.01208 -1.64708 0
M  V30 660 N 65.0364 0.313813 1.54444 0
M  V30 661 C 65.9464 -0.565714 2.27677 0
M  V30 662 C 66.9624 -1.13754 1.31666 0
M  V30 663 O 68.1384 -1.15959 1.64668 0
M  V30 664 C 65.2034 -1.71528 3.01296 0
M  V30 665 C 64.2644 -1.17624 4.12872 0
M  V30 666 C 63.4974 -2.27102 4.8297 0
M  V30 667 O 63.7204 -3.47256 4.52514 0
M  V30 668 O 62.6544 -1.9307 5.70094 0
M  V30 669 H 66.4804 0.0287296 3.03686 0
M  V30 670 H 64.0654 0.0798312 1.49187 0
M  V30 671 H 65.9474 -2.38476 3.4743 0
M  V30 672 H 64.6224 -2.29608 2.2817 0
M  V30 673 H 63.5294 -0.472124 3.71109 0
M  V30 674 H 64.8624 -0.640695 4.88012 0
M  V30 675 N 66.5145 -1.57545 0.0417849 0
M  V30 676 C 67.7615 -1.92317 -0.634082 0
M  V30 677 C 68.0895 -0.919334 -1.71402 0
M  V30 678 O 67.3445 0.0698253 -1.95575 0
M  V30 679 C 67.6435 -3.33794 -1.27735 0
M  V30 680 C 67.3095 -4.49716 -0.326543 0
M  V30 681 C 65.9715 -4.81156 -0.0648814 0
M  V30 682 C 68.3235 -5.20182 0.325623 0
M  V30 683 C 65.6515 -5.80414 0.856539 0
M  V30 684 C 68.0035 -6.20424 1.23518 0
M  V30 685 C 66.6675 -6.50298 1.5056 0
M  V30 686 H 65.9375 -0.703736 -0.232027 0
M  V30 687 H 68.5845 -1.91205 0.106259 0
M  V30 688 H 66.8895 -3.31228 -2.09274 0
M  V30 689 H 68.5865 -3.57975 -1.80707 0
M  V30 690 H 65.1765 -4.25176 -0.540665 0
M  V30 691 H 69.3605 -4.96112 0.136546 0
M  V30 692 H 64.6165 -6.019 1.07363 0
M  V30 693 H 68.7905 -6.74141 1.74664 0
M  V30 694 H 66.4175 -7.27025 2.22123 0
M  V30 695 N 67.9926 0.231505 -1.5589 0
M  V30 696 C 68.9026 1.308 -1.94752 0
M  V30 697 C 69.9186 1.51826 -0.849989 0
M  V30 698 O 71.0946 1.6515 -1.15271 0
M  V30 699 C 68.1596 2.63968 -2.24771 0
M  V30 700 C 67.2206 2.51331 -3.48039 0
M  V30 701 C 66.4536 3.78148 -3.76616 0
M  V30 702 O 66.6766 4.80722 -3.07022 0
M  V30 703 O 65.6106 3.75857 -4.70123 0
M  V30 704 H 69.4366 1.0083 -2.86474 0
M  V30 705 H 67.0216 0.433547 -1.42971 0
M  V30 706 H 68.9036 3.42633 -2.45318 0
M  V30 707 H 67.5786 2.9364 -1.36225 0
M  V30 708 H 66.4856 1.709 -3.32782 0
M  V30 709 H 67.8186 2.26601 -4.36936 0
M  V30 710 N 69.4707 1.49531 0.497807 0
M  V30 711 C 70.8867 1.36365 0.829266 0
M  V30 712 C 71.0867 0.399184 1.97506 0
M  V30 713 O 70.1427 -0.167977 2.51941 0
M  V30 714 C 71.4557 2.77153 1.16647 0
M  V30 715 C 73.0037 2.85877 1.27449 0
M  V30 716 C 73.4787 4.2744 1.64497 0
M  V30 717 N 74.9697 4.30265 1.7154 0
M  V30 718 C 75.7047 5.3677 2.01656 0
M  V30 719 N 75.2007 6.53516 2.29976 0
M  V30 720 N 76.9937 5.24189 2.02934 0
M  V30 721 H 69.1447 2.10831 -0.257703 0
M  V30 722 H 71.4077 0.946534 -0.0527091 0
M  V30 723 H 71.1137 3.49442 0.397872 0
M  V30 724 H 70.9877 3.12722 2.10915 0
M  V30 725 H 73.3747 2.13824 2.0338 0
M  V30 726 H 73.4557 2.53887 0.312244 0
M  V30 727 H 73.0997 5.00021 0.891151 0
M  V30 728 H 73.0297 4.56896 2.61827 0
M  V30 729 H 75.5207 3.4607 1.51802 0
M  V30 730 H 75.8337 7.30506 2.52153 0
M  V30 731 H 74.1787 6.56737 2.27425 0
M  V30 732 H 77.3697 4.31988 1.80289 0
M  V30 733 H 77.5427 6.07286 2.26071 0
M  V30 734 N 70.9488 -0.749086 1.3866 0
M  V30 735 C 72.1948 -1.51056 1.35314 0
M  V30 736 C 72.5278 -1.94121 -0.0553751 0
M  V30 737 O 71.8028 -1.65763 -1.01749 0
M  V30 738 C 72.0858 -2.76003 2.31288 0
M  V30 739 C 71.9388 -2.39047 3.8102 0
M  V30 740 C 73.2578 -3.78046 2.2532 0
M  V30 741 H 70.3768 -0.547972 0.492844 0
M  V30 742 H 73.0188 -0.857628 1.69543 0
M  V30 743 H 71.1688 -3.31716 2.02229 0
M  V30 744 H 72.8408 -1.89074 4.20771 0
M  V30 745 H 71.0838 -1.71449 3.98482 0
M  V30 746 H 71.7548 -3.28462 4.4364 0
M  V30 747 H 74.2308 -3.31884 2.50983 0
M  V30 748 H 73.1068 -4.63159 2.94576 0
M  V30 749 H 73.3678 -4.23957 1.25352 0
M  V30 750 N 72.4269 -1.23603 -0.977757 0
M  V30 751 C 73.6739 -1.06971 -1.71941 0
M  V30 752 C 74.0019 0.393009 -1.90488 0
M  V30 753 O 73.2569 1.30719 -1.4564 0
M  V30 754 C 73.5559 -1.7433 -3.11999 0
M  V30 755 C 73.2219 -3.24252 -3.13323 0
M  V30 756 C 71.8839 -3.65156 -3.13392 0
M  V30 757 C 74.2359 -4.20141 -3.08433 0
M  V30 758 C 71.5639 -5.00403 -3.0629 0
M  V30 759 C 73.9159 -5.55384 -3.02873 0
M  V30 760 C 72.5799 -5.95647 -3.01265 0
M  V30 761 H 71.8499 -0.391433 -0.629175 0
M  V30 762 H 74.4969 -1.53572 -1.14403 0
M  V30 763 H 72.8019 -1.20096 -3.7294 0
M  V30 764 H 74.4989 -1.58936 -3.68158 0
M  V30 765 H 71.0889 -2.91692 -3.14029 0
M  V30 766 H 75.2729 -3.89547 -3.07517 0
M  V30 767 H 70.5289 -5.3081 -3.03399 0
M  V30 768 H 74.7029 -6.29398 -2.98046 0
M  V30 769 H 72.3299 -7.0041 -2.95516 0
M  V30 770 N 73.905 1.17692 -1.04816 0
M  V30 771 C 75.321 1.39863 -0.768794 0
M  V30 772 C 75.521 1.91118 0.638451 0
M  V30 773 O 74.577 2.10036 1.40146 0
M  V30 774 C 75.89 2.39274 -1.82122 0
M  V30 775 C 77.438 2.52987 -1.843 0
M  V30 776 C 77.913 3.55669 -2.88555 0
M  V30 777 N 79.404 3.63183 -2.87493 0
M  V30 778 C 80.139 4.42381 -3.64811 0
M  V30 779 N 79.635 5.25125 -4.51903 0
M  V30 780 N 81.428 4.37217 -3.53267 0
M  V30 781 H 73.579 0.82752 -1.95617 0
M  V30 782 H 75.842 0.426123 -0.846831 0
M  V30 783 H 75.548 2.08678 -2.83102 0
M  V30 784 H 75.422 3.38725 -1.65967 0
M  V30 785 H 77.809 2.82896 -0.839869 0
M  V30 786 H 77.89 1.53623 -2.04532 0
M  V30 787 H 77.534 3.26499 -3.89051 0
M  V30 788 H 77.464 4.54728 -2.65575 0
M  V30 789 H 79.955 3.04103 -2.24343 0
M  V30 790 H 80.268 5.82728 -5.07591 0
M  V30 791 H 78.613 5.24519 -4.55966 0
M  V30 792 H 81.804 3.71626 -2.84625 0
M  V30 793 H 81.977 4.98696 -4.13771 0
M  V30 794 N 75.3831 0.828654 1.34056 0
M  V30 795 C 76.3461 0.259927 2.27721 0
M  V30 796 C 77.3461 -0.565478 1.50529 0
M  V30 797 O 78.5361 -0.38075 1.69988 0
M  V30 798 C 75.6681 -0.634944 3.34935 0
M  V30 799 H 76.8611 1.0863 2.79534 0
M  V30 800 H 74.4141 0.600951 1.44285 0
M  V30 801 H 75.1491 -1.48416 2.88346 0
M  V30 802 H 74.9341 -0.0444999 3.92075 0
M  V30 803 H 76.4241 -1.02648 4.04788 0
M  V30 804 N 76.8612 -1.46375 0.584142 0
M  V30 805 C 77.7932 -2.28443 -0.186119 0
M  V30 806 C 78.8062 -1.38596 -0.854115 0
M  V30 807 O 79.9952 -1.63183 -0.723438 0
M  V30 808 C 77.0952 -3.13671 -1.28311 0
M  V30 809 C 76.2682 -4.31652 -0.706758 0
M  V30 810 C 75.3272 -4.98267 -1.69163 0
M  V30 811 O 74.3532 -5.55815 -1.22712 0
M  V30 812 N 75.5552 -4.95408 -3.02575 0
M  V30 813 H 78.3202 -2.9519 0.517986 0
M  V30 814 H 75.8812 -1.56303 0.42201 0
M  V30 815 H 77.8732 -3.55101 -1.94128 0
M  V30 816 H 76.4432 -2.48989 -1.89005 0
M  V30 817 H 75.6632 -3.93989 0.128908 0
M  V30 818 H 76.9512 -5.07906 -0.301506 0
M  V30 819 H 76.3492 -4.49902 -3.42936 0
M  V30 820 H 74.9062 -5.40774 -3.63877 0
M  V30 821 N 78.3393 -0.321999 -1.54275 0
M  V30 822 C 79.2713 0.578671 -2.21775 0
M  V30 823 C 80.2843 1.08109 -1.21722 0
M  V30 824 O 81.4733 0.994938 -1.482 0
M  V30 825 C 78.5733 1.80661 -2.86731 0
M  V30 826 C 77.7463 1.44314 -4.12907 0
M  V30 827 C 76.8053 2.52845 -4.61472 0
M  V30 828 O 75.8313 2.17054 -5.2619 0
M  V30 829 N 77.0333 3.83748 -4.35566 0
M  V30 830 H 79.7983 0.000709447 -2.997 0
M  V30 831 H 77.3593 -0.145132 -1.61248 0
M  V30 832 H 79.3513 2.52655 -3.16145 0
M  V30 833 H 77.9213 2.29245 -2.12521 0
M  V30 834 H 77.1413 0.554906 -3.90275 0
M  V30 835 H 78.4293 1.17598 -4.95023 0
M  V30 836 H 77.8273 4.15625 -3.83761 0
M  V30 837 H 76.3843 4.51977 -4.69638 0
M  V30 838 N 79.8174 1.5752 -0.0501392 0
M  V30 839 C 80.7654 2.12651 0.942459 0
M  V30 840 C 81.7594 1.05807 1.32292 0
M  V30 841 O 82.9654 1.24217 1.3027 0
M  V30 842 H 79.3404 0.679673 0.321789 0
M  V30 843 H 81.3114 2.94951 0.452356 0
M  V30 844 C 80.0604 2.68565 2.20836 0
M  V30 845 H 79.3834 3.50439 1.92439 0
M  V30 846 H 80.8234 3.10761 2.8845 0
M  V30 847 C 79.2824 1.62291 2.95234 0
M  V30 848 O 79.8124 1.03508 3.88135 0
M  V30 849 N 78.0184 1.33836 2.57946 0
M  V30 850 H 77.5654 1.81826 1.82475 0
M  V30 851 H 77.5234 0.629595 3.08032 0
M  V30 852 N 81.2955 -0.223234 1.56011 0
M  V30 853 C 82.5355 -0.954962 1.8072 0
M  V30 854 C 82.8995 -1.81598 0.623384 0
M  V30 855 O 84.1005 -2.58132 0.749745 0
M  V30 856 C 82.3715 -1.77313 3.10314 0
M  V30 857 S 83.9305 -2.56073 3.56332 0
M  V30 858 H 80.7485 -0.320812 0.634508 0
M  V30 859 H 83.3505 -0.220686 1.9425 0
M  V30 860 H 82.0545 -1.13071 3.94516 0
M  V30 861 H 81.5855 -2.54974 2.99586 0
M  V30 862 H 83.6005 -3.79619 3.19536 0
M  V30 863 N 82.7736 -1.49793 -0.48987 0
M  V30 864 C 84.0196 -1.60078 -1.24511 0
M  V30 865 C 84.3526 -0.291608 -1.91998 0
M  V30 866 O 83.6276 0.705647 -1.81248 0
M  V30 867 C 83.9106 -2.76791 -2.30345 0
M  V30 868 C 83.7636 -4.17535 -1.67286 0
M  V30 869 C 85.0826 -2.89111 -3.31817 0
M  V30 870 H 82.2016 -0.582645 -0.451324 0
M  V30 871 H 84.8436 -1.82117 -0.541612 0
M  V30 872 H 82.9936 -2.5813 -2.90346 0
M  V30 873 H 84.6656 -4.4774 -1.11026 0
M  V30 874 H 82.9086 -4.22665 -0.976577 0
M  V30 875 H 83.5796 -4.95094 -2.44103 0
M  V30 876 H 86.0556 -3.06133 -2.81819 0
M  V30 877 H 84.9316 -3.72433 -4.03219 0
M  V30 878 H 85.1926 -1.9893 -3.94815 0
M  V30 879 N 84.2517 0.741722 -1.39055 0
M  V30 880 C 85.1617 1.88621 -1.39496 0
M  V30 881 C 86.1777 1.71557 -0.290578 0
M  V30 882 O 87.3537 1.94275 -0.530954 0
M  V30 883 C 84.4187 3.24134 -1.23037 0
M  V30 884 C 83.4797 3.5364 -2.43387 0
M  V30 885 C 82.7127 4.82687 -2.27703 0
M  V30 886 O 82.9357 5.55922 -1.27696 0
M  V30 887 O 81.8697 5.1194 -3.16545 0
M  V30 888 H 85.6957 1.91203 -2.35956 0
M  V30 889 H 83.2807 0.888625 -1.20099 0
M  V30 890 H 85.1627 4.0513 -1.15964 0
M  V30 891 H 83.8377 3.22337 -0.296691 0
M  V30 892 H 82.7447 2.72758 -2.56035 0
M  V30 893 H 84.0777 3.60209 -3.35425 0
M  V30 894 N 85.7298 1.2412 0.971189 0
M  V30 895 C 86.9768 1.07881 1.71371 0
M  V30 896 C 87.3048 -0.382901 1.90694 0
M  V30 897 O 86.5598 -1.29945 1.46331 0
M  V30 898 C 86.8588 1.75983 3.11071 0
M  V30 899 C 86.5248 3.25909 3.11599 0
M  V30 900 C 85.1868 3.66813 3.11451 0
M  V30 901 C 87.5388 4.21771 3.062 0
M  V30 902 C 84.8668 5.02021 3.03631 0
M  V30 903 C 87.2188 5.56982 2.99923 0
M  V30 904 C 85.8828 5.97237 2.98102 0
M  V30 905 H 85.1528 0.394764 0.62709 0
M  V30 906 H 87.7998 1.54176 1.13587 0
M  V30 907 H 86.1048 1.22072 3.72298 0
M  V30 908 H 87.8018 1.60887 3.6731 0
M  V30 909 H 84.3918 2.93353 3.12477 0
M  V30 910 H 88.5758 3.91172 3.05447 0
M  V30 911 H 83.8318 5.32411 3.0058 0
M  V30 912 H 88.0058 6.30969 2.94704 0
M  V30 913 H 85.6328 7.01967 2.91798 0
M  V30 914 N 87.2079 -1.17134 1.05439 0
M  V30 915 C 88.4379 -1.91094 0.785274 0
M  V30 916 C 88.8459 -1.77198 -0.663142 0
M  V30 917 O 88.1889 -1.10835 -1.46497 0
M  V30 918 C 88.2509 -3.42594 1.08949 0
M  V30 919 C 87.9149 -3.80274 2.53458 0
M  V30 920 C 88.9119 -3.82912 3.51673 0
M  V30 921 C 86.5969 -4.11162 2.88532 0
M  V30 922 C 88.5909 -4.15913 4.83006 0
M  V30 923 C 86.2779 -4.43831 4.20068 0
M  V30 924 C 87.2759 -4.46185 5.17115 0
M  V30 925 O 86.9639 -4.78083 6.46291 0
M  V30 926 H 86.6959 -0.613073 0.284811 0
M  V30 927 H 89.2499 -1.49461 1.40893 0
M  V30 928 H 87.4799 -3.84534 0.408741 0
M  V30 929 H 89.1689 -3.97817 0.805991 0
M  V30 930 H 89.9349 -3.5917 3.25917 0
M  V30 931 H 85.8139 -4.085 2.13656 0
M  V30 932 H 89.3579 -4.17665 5.5875 0
M  V30 933 H 85.2549 -4.67037 4.45586 0
M  V30 934 H 86.0229 -4.9593 6.51149 0
M  V30 935 N 88.686 -0.835752 -1.33615 0
M  V30 936 C 90.097 -0.487099 -1.80234 0
M  V30 937 C 90.448 0.993627 -1.69179 0
M  V30 938 O 89.573 1.77403 -1.23924 0
M  V30 939 C 90.168 -0.877385 -3.27242 0
M  V30 940 C 88.727 -0.580915 -3.7189 0
M  V30 941 C 87.874 -1.0874 -2.5509 0
M  V30 942 H 90.825 -1.02474 -1.2118 0
M  V30 943 H 90.846 -0.186195 -3.80044 0
M  V30 944 H 90.358 -1.95512 -3.35256 0
M  V30 945 H 88.459 0.486881 -3.69405 0
M  V30 946 H 88.572 -1.13396 -4.65487 0
M  V30 947 H 86.936 -0.508392 -2.49575 0
M  V30 948 H 87.719 -2.17184 -2.65868 0
M  V30 949 N 90.1641 1.46063 -0.591896 0
M  V30 950 C 91.4131 2.01547 -0.0786637 0
M  V30 951 C 91.7261 1.46796 1.29268 0
M  V30 952 O 92.9321 1.94157 1.89777 0
M  V30 953 C 91.3881 3.59787 -0.0900024 0
M  V30 954 C 90.9961 4.23534 -1.46023 0
M  V30 955 C 92.7401 4.22895 0.368806 0
M  V30 956 C 90.6471 5.73881 -1.4288 0
M  V30 957 H 89.5771 0.753564 -0.0256388 0
M  V30 958 H 92.2281 1.677 -0.744905 0
M  V30 959 H 90.6101 3.90752 0.642586 0
M  V30 960 H 91.7841 4.04167 -2.21328 0
M  V30 961 H 90.0991 3.72558 -1.85982 0
M  V30 962 H 92.6961 5.33116 0.411258 0
M  V30 963 H 93.0391 3.9247 1.38827 0
M  V30 964 H 93.5721 3.9659 -0.31001 0
M  V30 965 H 90.3111 6.0898 -2.42536 0
M  V30 966 H 89.8311 5.95486 -0.718095 0
M  V30 967 H 91.5101 6.36776 -1.14565 0
M  V30 968 N 91.6422 0.330177 1.54103 0
M  V30 969 C 92.8892 -0.270405 2.00686 0
M  V30 970 C 93.2172 -1.51621 1.21825 0
M  V30 971 O 92.4722 -1.93536 0.29025 0
M  V30 972 C 92.7712 -0.643134 3.51566 0
M  V30 973 C 92.4372 0.504251 4.48072 0
M  V30 974 C 91.0992 0.819163 4.74176 0
M  V30 975 C 93.4512 1.27465 5.05373 0
M  V30 976 C 90.7792 1.90708 5.5484 0
M  V30 977 C 93.1312 2.35271 5.87223 0
M  V30 978 C 91.7952 2.67336 6.11627 0
M  V30 979 H 91.0652 -0.0989482 0.734364 0
M  V30 980 H 93.7122 0.455324 1.86008 0
M  V30 981 H 92.0172 -1.44938 3.64006 0
M  V30 982 H 93.7142 -1.11949 3.85056 0
M  V30 983 H 90.3042 0.248733 4.27878 0
M  V30 984 H 94.4882 1.04462 4.85182 0
M  V30 985 H 89.7442 2.15991 5.71977 0
M  V30 986 H 93.9182 2.95405 6.30641 0
M  V30 987 H 91.5452 3.51763 6.73919 0
M  V30 988 N 93.1203 -1.57491 0.0584922 0
M  V30 989 C 94.3693 -1.92155 -0.613146 0
M  V30 990 C 94.6823 -0.939334 -1.71569 0
M  V30 991 O 95.8883 -1.17829 -2.44599 0
M  V30 992 C 94.3443 -3.41303 -1.14195 0
M  V30 993 C 93.9523 -4.47944 -0.0711265 0
M  V30 994 C 95.6963 -3.84988 -1.78841 0
M  V30 995 C 93.6033 -5.88212 -0.613225 0
M  V30 996 H 92.5333 -0.717162 -0.232796 0
M  V30 997 H 95.1843 -1.83049 0.12857 0
M  V30 998 H 93.5663 -3.45437 -1.93621 0
M  V30 999 H 94.7403 -4.55408 0.702836 0
M  V30 1000 H 93.0553 -4.13644 0.478313 0
M  V30 1001 H 95.6523 -4.87159 -2.20408 0
M  V30 1002 H 95.9953 -3.21632 -2.64308 0
M  V30 1003 H 96.5283 -3.83401 -1.06059 0
M  V30 1004 H 93.2673 -6.55183 0.203978 0
M  V30 1005 H 92.7873 -5.84294 -1.35501 0
M  V30 1006 H 94.4663 -6.37687 -1.09383 0
M  V30 1007 N 94.5984 0.214957 -1.56127 0
M  V30 1008 C 95.8474 0.936451 -1.78643 0
M  V30 1009 C 96.1604 1.85237 -0.628229 0
M  V30 1010 O 97.3664 2.613 -0.737186 0
M  V30 1011 C 95.8224 1.7154 -3.16389 0
M  V30 1012 C 95.4304 0.845299 -4.39953 0
M  V30 1013 C 97.1744 2.42772 -3.48227 0
M  V30 1014 C 95.0814 1.62198 -5.68723 0
M  V30 1015 H 94.0114 0.353401 -0.666051 0
M  V30 1016 H 96.6624 0.190169 -1.82512 0
M  V30 1017 H 95.0444 2.50484 -3.06715 0
M  V30 1018 H 96.2184 0.0959353 -4.607 0
M  V30 1019 H 94.5334 0.244789 -4.1568 0
M  V30 1020 H 97.1304 3.01394 -4.41663 0
M  V30 1021 H 97.4734 3.15984 -2.71035 0
M  V30 1022 H 98.0064 1.70813 -3.5926 0
M  V30 1023 H 94.7454 0.933011 -6.48826 0
M  V30 1024 H 94.2654 2.34579 -5.52026 0
M  V30 1025 H 95.9444 2.18095 -6.09133 0
M  V30 1026 N 96.0765 1.50051 0.48192 0
M  V30 1027 C 97.3045 1.64237 1.25832 0
M  V30 1028 C 97.7195 0.321336 1.86045 0
M  V30 1029 O 97.0765 -0.695478 1.68729 0
M  V30 1030 C 97.1275 2.72548 2.37487 0
M  V30 1031 O 96.8485 3.99529 1.79745 0
M  V30 1032 C 98.3495 2.9761 3.28547 0
M  V30 1033 H 95.5695 0.55237 0.380957 0
M  V30 1034 H 98.1135 1.96207 0.576467 0
M  V30 1035 H 96.2685 2.43303 3.01467 0
M  V30 1036 H 96.6825 4.59342 2.5319 0
M  V30 1037 H 98.1565 3.77084 4.03127 0
M  V30 1038 H 98.6335 2.0826 3.86684 0
M  V30 1039 H 99.2395 3.28345 2.70314 0
M  V30 1040 N 97.5546 -0.734337 1.39446 0
M  V30 1041 C 98.4846 -1.86155 1.40955 0
M  V30 1042 C 99.4656 -1.67898 0.272827 0
M  V30 1043 O 100.651 -1.88207 0.478743 0
M  V30 1044 C 97.7806 -3.23912 1.25294 0
M  V30 1045 C 96.7346 -3.56808 2.36373 0
M  V30 1046 C 96.0606 -4.93508 2.058 0
M  V30 1047 C 97.3606 -3.59713 3.78687 0
M  V30 1048 H 99.0546 -1.8515 2.35287 0
M  V30 1049 H 96.6006 -0.889367 1.13253 0
M  V30 1050 H 98.5536 -4.02443 1.2497 0
M  V30 1051 H 97.2776 -3.25446 0.274308 0
M  V30 1052 H 95.9366 -2.80606 2.35914 0
M  V30 1053 H 95.5846 -4.91623 1.06374 0
M  V30 1054 H 95.2846 -5.16486 2.80208 0
M  V30 1055 H 96.8086 -5.74396 2.07128 0
M  V30 1056 H 98.2226 -4.2832 3.81071 0
M  V30 1057 H 96.6196 -3.94209 4.52459 0
M  V30 1058 H 97.6896 -2.59504 4.09617 0
M  V30 1059 N 99.0327 -1.24633 -0.964593 0
M  V30 1060 C 100.279 -1.09957 -1.71117 0
M  V30 1061 C 100.634 0.357422 -1.89051 0
M  V30 1062 O 99.9267 1.26029 -1.44317 0
M  V30 1063 C 100.121 -1.7763 -3.10133 0
M  V30 1064 C 99.9497 -3.29759 -3.05759 0
M  V30 1065 C 98.7197 -3.98981 -3.10068 0
M  V30 1066 C 100.918 -4.26305 -2.87695 0
M  V30 1067 N 98.8997 -5.37966 -2.95747 0
M  V30 1068 C 100.271 -5.52308 -2.81702 0
M  V30 1069 C 102.326 -4.16842 -2.72299 0
M  V30 1070 C 101.029 -6.69931 -2.61887 0
M  V30 1071 C 103.055 -5.34147 -2.53853 0
M  V30 1072 C 102.417 -6.59084 -2.48572 0
M  V30 1073 H 98.5157 -0.457003 -0.634564 0
M  V30 1074 H 101.1 -1.57592 -1.14337 0
M  V30 1075 H 99.2707 -1.32504 -3.65099 0
M  V30 1076 H 101.003 -1.55786 -3.73514 0
M  V30 1077 H 97.7577 -3.50169 -3.18871 0
M  V30 1078 H 98.1817 -6.10877 -2.91818 0
M  V30 1079 H 102.824 -3.21007 -2.75163 0
M  V30 1080 H 100.542 -7.65886 -2.57767 0
M  V30 1081 H 104.128 -5.28678 -2.4288 0
M  V30 1082 H 103.008 -7.48324 -2.34481 0
M  V30 1083 N 100.511 1.16574 -1.06058 0
M  V30 1084 C 101.444 2.19798 -0.61352 0
M  V30 1085 C 102.422 1.58509 0.362453 0
M  V30 1086 O 103.606 1.86527 0.271994 0
M  V30 1087 C 100.733 3.3855 0.100915 0
M  V30 1088 C 99.7788 4.18317 -0.831438 0
M  V30 1089 S 100.612 4.82375 -2.32539 0
M  V30 1090 C 101.768 6.04508 -1.62238 0
M  V30 1091 H 102.001 2.5738 -1.48805 0
M  V30 1092 H 99.5338 1.27327 -0.873338 0
M  V30 1093 H 101.492 4.07358 0.506898 0
M  V30 1094 H 100.153 2.99338 0.951604 0
M  V30 1095 H 99.3458 5.03232 -0.278071 0
M  V30 1096 H 98.9478 3.5499 -1.17719 0
M  V30 1097 H 101.24 6.71133 -0.926622 0
M  V30 1098 H 102.183 6.64389 -2.44934 0
M  V30 1099 H 102.591 5.53559 -1.106 0
M  V30 1100 N 101.989 0.842826 1.3317 0
M  V30 1101 C 102.952 0.284065 2.27433 0
M  V30 1102 C 103.952 -0.54948 1.5112 0
M  V30 1103 O 105.142 -0.362699 1.70382 0
M  V30 1104 C 102.274 -0.599384 3.35589 0
M  V30 1105 H 103.467 1.11589 2.78366 0
M  V30 1106 H 101.02 0.616221 1.4364 0
M  V30 1107 H 101.755 -1.45349 2.89904 0
M  V30 1108 H 101.54 -0.00291266 3.921 0
M  V30 1109 H 103.03 -0.983488 4.05854 0
M  V30 1110 N 103.467 -1.45747 0.599634 0
M  V30 1111 C 104.715 -2.01893 0.0915472 0
M  V30 1112 C 105.036 -1.47155 -1.27946 0
M  V30 1113 O 104.306 -0.66273 -1.84349 0
M  V30 1114 H 102.886 -0.746363 0.0308524 0
M  V30 1115 H 105.548 -1.78645 0.779237 0
M  V30 1116 H 104.644 -3.1208 0.0353086 0
M  V30 1117 N 104.945 -0.338344 -1.53925 0
M  V30 1118 C 106.191 0.252842 -2.01822 0
M  V30 1119 C 106.546 1.48612 -1.22197 0
M  V30 1120 O 105.839 1.89238 -0.299892 0
M  V30 1121 C 106.033 0.62448 -3.51902 0
M  V30 1122 C 105.862 -0.571235 -4.46057 0
M  V30 1123 C 104.632 -1.07493 -4.93734 0
M  V30 1124 C 106.83 -1.42807 -4.94076 0
M  V30 1125 N 104.812 -2.23351 -5.71828 0
M  V30 1126 C 106.183 -2.43362 -5.70241 0
M  V30 1127 C 108.238 -1.45412 -4.76193 0
M  V30 1128 C 106.941 -3.46346 -6.30426 0
M  V30 1129 C 108.967 -2.47274 -5.37224 0
M  V30 1130 C 108.329 -3.46555 -6.13253 0
M  V30 1131 H 104.428 0.0559669 -0.779995 0
M  V30 1132 H 107.012 -0.476732 -1.88773 0
M  V30 1133 H 105.183 1.32317 -3.65167 0
M  V30 1134 H 106.915 1.19841 -3.86549 0
M  V30 1135 H 103.67 -0.643848 -4.69203 0
M  V30 1136 H 104.094 -2.81834 -6.15548 0
M  V30 1137 H 108.736 -0.700171 -4.16962 0
M  V30 1138 H 106.454 -4.22638 -6.88769 0
M  V30 1139 H 110.04 -2.50109 -5.25297 0
M  V30 1140 H 108.92 -4.24083 -6.59638 0
M  V30 1141 N 106.423 1.57458 -0.0668435 0
M  V30 1142 C 107.653 1.97337 0.611677 0
M  V30 1143 C 108.061 0.943744 1.63982 0
M  V30 1144 O 107.404 -0.0785584 1.83532 0
M  V30 1145 C 107.466 3.33511 1.34205 0
M  V30 1146 C 107.13 4.54598 0.467941 0
M  V30 1147 C 108.127 5.19186 -0.272439 0
M  V30 1148 C 105.812 5.0075 0.39427 0
M  V30 1149 C 107.806 6.28274 -1.07476 0
M  V30 1150 C 105.493 6.09711 -0.411729 0
M  V30 1151 C 106.491 6.73335 -1.14492 0
M  V30 1152 O 106.179 7.80199 -1.93763 0
M  V30 1153 H 105.911 0.654042 0.170893 0
M  V30 1154 H 108.465 2.04961 -0.134289 0
M  V30 1155 H 106.695 3.22487 2.13398 0
M  V30 1156 H 108.384 3.58029 1.91233 0
M  V30 1157 H 109.15 4.84477 -0.225086 0
M  V30 1158 H 105.029 4.51009 0.954569 0
M  V30 1159 H 108.573 6.77866 -1.64755 0
M  V30 1160 H 104.47 6.43854 -0.460664 0
M  V30 1161 H 105.238 7.97053 -1.86142 0
M  V30 1162 N 107.901 -0.206675 1.56239 0
M  V30 1163 C 109.148 -0.928842 1.79941 0
M  V30 1164 C 109.476 -1.83734 0.638131 0
M  V30 1165 O 108.731 -1.92039 -0.376746 0
M  V30 1166 C 109.03 -1.78675 3.09532 0
M  V30 1167 C 108.696 -1.03022 4.38973 0
M  V30 1168 C 107.358 -0.821302 4.74139 0
M  V30 1169 C 109.71 -0.497081 5.18824 0
M  V30 1170 C 107.038 -0.0675719 5.86661 0
M  V30 1171 C 109.39 0.24338 6.32132 0
M  V30 1172 C 108.054 0.463422 6.65889 0
M  V30 1173 H 107.324 -0.339887 0.658451 0
M  V30 1174 H 109.971 -0.195977 1.90495 0
M  V30 1175 H 108.276 -2.58794 2.94165 0
M  V30 1176 H 109.973 -2.34792 3.25075 0
M  V30 1177 H 106.563 -1.20306 4.11369 0
M  V30 1178 H 110.747 -0.645921 4.92079 0
M  V30 1179 H 106.003 0.112995 6.11296 0
M  V30 1180 H 110.177 0.66393 6.93228 0
M  V30 1181 H 107.804 1.04938 7.52922 0
M  V30 1182 N 109.379 -1.50304 -0.473955 0
M  V30 1183 C 110.327 -1.69482 -1.59307 0
M  V30 1184 C 111.321 -0.560669 -1.59853 0
M  V30 1185 O 112.527 -0.741087 -1.64036 0
M  V30 1186 H 108.902 -0.534892 -0.528578 0
M  V30 1187 H 110.873 -2.63364 -1.40293 0
M  V30 1188 C 109.622 -1.80354 -2.97267 0
M  V30 1189 H 108.945 -2.67012 -2.97564 0
M  V30 1190 H 110.385 -1.97798 -3.75036 0
M  V30 1191 C 108.844 -0.55448 -3.32306 0
M  V30 1192 O 109.374 0.307661 -4.0052 0
M  V30 1193 N 107.58 -0.409354 -2.87702 0
M  V30 1194 H 107.127 -1.11196 -2.32364 0
M  V30 1195 H 107.085 0.425223 -3.11511 0
M  V30 1196 N 110.857 0.726932 -1.39834 0
M  V30 1197 C 111.789 1.85147 -1.35104 0
M  V30 1198 C 112.802 1.60736 -0.258392 0
M  V30 1199 O 113.991 1.70821 -0.517931 0
M  V30 1200 C 111.091 3.21332 -1.07697 0
M  V30 1201 C 110.264 3.73033 -2.28396 0
M  V30 1202 C 109.323 4.87802 -1.97322 0
M  V30 1203 O 108.349 5.01043 -2.70083 0
M  V30 1204 N 109.551 5.72768 -0.944273 0
M  V30 1205 H 112.316 1.89706 -2.32017 0
M  V30 1206 H 109.877 0.908006 -1.3404 0
M  V30 1207 H 111.869 3.95691 -0.849144 0
M  V30 1208 H 110.439 3.11992 -0.194909 0
M  V30 1209 H 109.659 2.89934 -2.6708 0
M  V30 1210 H 110.947 4.0431 -3.08887 0
M  V30 1211 H 110.345 5.64669 -0.341427 0
M  V30 1212 H 108.902 6.4716 -0.776346 0
M  V30 1213 N 112.336 1.25143 0.95797 0
M  V30 1214 C 113.582 1.09855 1.70469 0
M  V30 1215 C 113.915 -0.360187 1.90831 0
M  V30 1216 O 113.19 -1.26568 1.47685 0
M  V30 1217 C 113.473 1.8497 3.08963 0
M  V30 1218 C 113.326 3.38652 2.96032 0
M  V30 1219 C 114.645 1.63016 4.08795 0
M  V30 1220 H 111.764 0.400465 0.618706 0
M  V30 1221 H 114.406 1.53933 1.11376 0
M  V30 1222 H 112.556 1.47505 3.59409 0
M  V30 1223 H 114.228 3.85772 2.52938 0
M  V30 1224 H 112.471 3.66534 2.32025 0
M  V30 1225 H 113.142 3.8642 3.94187 0
M  V30 1226 H 115.618 1.95625 3.67247 0
M  V30 1227 H 114.494 2.18015 5.03747 0
M  V30 1228 H 114.755 0.570692 4.38401 0
M  V30 1229 N 113.814 -1.1601 1.06675 0
M  V30 1230 C 115.061 -1.86633 0.785781 0
M  V30 1231 C 115.389 -1.81929 -0.687896 0
M  V30 1232 O 114.644 -1.23253 -1.52011 0
M  V30 1233 C 114.943 -3.35547 1.23057 0
M  V30 1234 C 114.609 -3.60448 2.70902 0
M  V30 1235 C 113.271 -3.66954 3.11285 0
M  V30 1236 C 115.623 -3.7071 3.66365 0
M  V30 1237 C 112.951 -3.81225 4.45965 0
M  V30 1238 C 115.303 -3.86503 5.00797 0
M  V30 1239 C 113.967 -3.91252 5.40813 0
M  V30 1240 H 113.237 -0.682937 0.287538 0
M  V30 1241 H 115.884 -1.37146 1.33654 0
M  V30 1242 H 114.189 -3.87193 0.59907 0
M  V30 1243 H 115.886 -3.88583 0.990163 0
M  V30 1244 H 112.476 -3.56021 2.38636 0
M  V30 1245 H 116.66 -3.64991 3.36296 0
M  V30 1246 H 111.916 -3.83155 4.76447 0
M  V30 1247 H 116.09 -3.93385 5.74649 0
M  V30 1248 H 113.717 -4.02062 6.45174 0
M  V30 1249 N 115.292 -0.849877 -1.32721 0
M  V30 1250 C 116.255 -0.296122 -2.27279 0
M  V30 1251 C 117.255 0.541458 -1.5141 0
M  V30 1252 O 118.445 0.353658 -1.70572 0
M  V30 1253 C 115.577 0.581579 -3.35902 0
M  V30 1254 H 116.77 -1.13064 -2.77771 0
M  V30 1255 H 114.323 -0.62383 -1.43311 0
M  V30 1256 H 115.058 1.43809 -2.9067 0
M  V30 1257 H 114.843 -0.0178814 -3.92096 0
M  V30 1258 H 116.333 0.961951 -4.0637 0
M  V30 1259 N 116.77 1.45427 -0.607355 0
M  V30 1260 C 117.998 2.06614 -0.108814 0
M  V30 1261 C 118.413 1.45204 1.2067 0
M  V30 1262 O 117.77 0.566132 1.73497 0
M  V30 1263 C 117.821 3.61481 0.0375347 0
M  V30 1264 O 117.542 4.20598 -1.22593 0
M  V30 1265 C 119.043 4.39652 0.567561 0
M  V30 1266 H 116.263 0.66747 -0.0687351 0
M  V30 1267 H 118.807 1.86675 -0.835022 0
M  V30 1268 H 116.962 3.80762 0.714068 0
M  V30 1269 H 117.376 5.1377 -1.05547 0
M  V30 1270 H 118.85 5.48518 0.61905 0
M  V30 1271 H 119.327 4.09417 1.58978 0
M  V30 1272 H 119.933 4.25234 -0.0749202 0
M  V30 1273 N 118.248 0.346503 1.53744 0
M  V30 1274 C 119.488 -0.249413 2.02873 0
M  V30 1275 C 119.852 -1.47532 1.22876 0
M  V30 1276 O 121.053 -2.1456 1.61918 0
M  V30 1277 C 119.324 -0.552909 3.53097 0
M  V30 1278 S 120.883 -1.12521 4.24128 0
M  V30 1279 H 117.701 -0.074042 0.707134 0
M  V30 1280 H 120.303 0.48495 1.8939 0
M  V30 1281 H 119.007 0.347083 4.0893 0
M  V30 1282 H 118.538 -1.31686 3.70705 0
M  V30 1283 H 120.553 -2.41075 4.33702 0
M  V30 1284 N 119.726 -1.57421 0.075193 0
M  V30 1285 C 120.656 -2.15942 -0.888324 0
M  V30 1286 C 121.637 -1.08737 -1.30806 0
M  V30 1287 O 122.822 -1.36787 -1.37851 0
M  V30 1288 C 119.952 -2.72379 -2.1547 0
M  V30 1289 C 118.906 -3.8478 -1.87425 0
M  V30 1290 C 118.232 -4.27834 -3.20721 0
M  V30 1291 C 119.532 -5.08869 -1.17684 0
M  V30 1292 H 121.226 -2.96705 -0.400799 0
M  V30 1293 H 118.772 -1.42723 -0.191342 0
M  V30 1294 H 120.725 -3.11965 -2.83295 0
M  V30 1295 H 119.449 -1.88841 -2.6647 0
M  V30 1296 H 118.108 -3.45703 -1.22004 0
M  V30 1297 H 117.756 -3.41214 -3.6957 0
M  V30 1298 H 117.456 -5.03605 -3.02746 0
M  V30 1299 H 118.98 -4.70039 -3.89738 0
M  V30 1300 H 120.394 -5.4575 -1.75584 0
M  V30 1301 H 118.791 -5.8994 -1.09956 0
M  V30 1302 H 119.861 -4.84648 -0.156453 0
M  V30 1303 N 121.204 0.198386 -1.56346 0
M  V30 1304 C 122.452 0.91747 -1.80075 0
M  V30 1305 C 122.773 1.83929 -0.647692 0
M  V30 1306 O 122.043 1.93029 0.334166 0
M  V30 1307 H 120.623 0.341774 -0.664228 0
M  V30 1308 H 123.285 0.204684 -1.93822 0
M  V30 1309 H 122.381 1.51055 -2.7311 0
M  V30 1310 N 122.682 1.50554 0.465978 0
M  V30 1311 C 123.612 1.72722 1.57128 0
M  V30 1312 C 124.593 0.576294 1.6004 0
M  V30 1313 O 125.778 0.81598 1.76225 0
M  V30 1314 C 122.908 1.82605 2.95419 0
M  V30 1315 C 121.862 2.97835 3.07373 0
M  V30 1316 C 121.188 2.92867 4.47363 0
M  V30 1317 C 122.488 4.38265 2.84114 0
M  V30 1318 H 124.182 2.65267 1.38829 0
M  V30 1319 H 121.728 1.2765 0.666441 0
M  V30 1320 H 123.681 1.96698 3.72677 0
M  V30 1321 H 122.405 0.866858 3.14886 0
M  V30 1322 H 121.064 2.83401 2.3255 0
M  V30 1323 H 120.712 1.94783 4.63755 0
M  V30 1324 H 120.412 3.70227 4.56296 0
M  V30 1325 H 121.936 3.09015 5.26633 0
M  V30 1326 H 123.35 4.53198 3.51118 0
M  V30 1327 H 121.747 5.17115 3.04487 0
M  V30 1328 H 122.817 4.50281 1.7993 0
M  V30 1329 N 124.16 -0.719506 1.40217 0
M  V30 1330 C 125.406 -1.48152 1.38488 0
M  V30 1331 C 125.739 -1.94195 -0.0141867 0
M  V30 1332 O 125.014 -1.67884 -0.982096 0
M  V30 1333 C 125.297 -2.71035 2.37091 0
M  V30 1334 C 125.15 -2.30912 3.86005 0
M  V30 1335 C 126.469 -3.73182 2.33288 0
M  V30 1336 H 123.588 -0.537395 0.504357 0
M  V30 1337 H 126.23 -0.821472 1.71324 0
M  V30 1338 H 124.38 -3.27352 2.0922 0
M  V30 1339 H 126.052 -1.80107 4.24687 0
M  V30 1340 H 124.295 -1.62958 4.02029 0
M  V30 1341 H 124.966 -3.18978 4.50508 0
M  V30 1342 H 127.442 -3.26485 2.57966 0
M  V30 1343 H 126.318 -4.56806 3.04334 0
M  V30 1344 H 126.579 -4.21202 1.34317 0
M  V30 1345 N 125.638 -1.25649 -0.95132 0
M  V30 1346 C 126.868 -1.13179 -1.72841 0
M  V30 1347 C 127.276 0.316827 -1.86528 0
M  V30 1348 O 126.619 1.22948 -1.3649 0
M  V30 1349 C 126.681 -1.71644 -3.15878 0
M  V30 1350 C 126.345 -3.20667 -3.25609 0
M  V30 1351 C 127.342 -4.17616 -3.09666 0
M  V30 1352 C 125.027 -3.6094 -3.49324 0
M  V30 1353 C 127.021 -5.52817 -3.17289 0
M  V30 1354 C 124.708 -4.96278 -3.56584 0
M  V30 1355 C 125.706 -5.92025 -3.40581 0
M  V30 1356 O 125.394 -7.24899 -3.47528 0
M  V30 1357 H 125.126 -0.395389 -0.54831 0
M  V30 1358 H 127.68 -1.66566 -1.20187 0
M  V30 1359 H 125.91 -1.12707 -3.69911 0
M  V30 1360 H 127.599 -1.54225 -3.75459 0
M  V30 1361 H 128.365 -3.87842 -2.91211 0
M  V30 1362 H 124.244 -2.86907 -3.6084 0
M  V30 1363 H 127.788 -6.2753 -3.04716 0
M  V30 1364 H 123.685 -5.25716 -3.74556 0
M  V30 1365 H 124.453 -7.33039 -3.64138 0
M  V30 1366 N 127.117 1.15442 -1.07289 0
M  V30 1367 C 128.366 1.85557 -0.790669 0
M  V30 1368 C 128.679 1.83186 0.685739 0
M  V30 1369 O 129.885 2.48977 1.0827 0
M  V30 1370 C 128.341 3.33038 -1.36433 0
M  V30 1371 C 127.949 3.43856 -2.8717 0
M  V30 1372 C 129.693 4.0834 -1.1601 0
M  V30 1373 C 127.6 4.85482 -3.3773 0
M  V30 1374 H 126.53 0.695122 -0.292098 0
M  V30 1375 H 129.181 1.30219 -1.29287 0
M  V30 1376 H 127.563 3.88043 -0.789864 0
M  V30 1377 H 128.737 2.98961 -3.50655 0
M  V30 1378 H 127.052 2.81998 -3.06376 0
M  V30 1379 H 129.649 5.12859 -1.51262 0
M  V30 1380 H 129.992 4.16182 -0.0991007 0
M  V30 1381 H 130.525 3.59603 -1.70089 0
M  V30 1382 H 127.264 4.82823 -4.43353 0
M  V30 1383 H 126.784 5.30961 -2.78999 0
M  V30 1384 H 128.463 5.54335 -3.33648 0
M  V30 1385 N 128.595 0.856903 1.32268 0
M  V30 1386 C 129.825 0.47475 2.01071 0
M  V30 1387 C 130.233 -0.933746 1.64553 0
M  V30 1388 O 129.576 -1.62114 0.863989 0
M  V30 1389 C 129.638 0.536746 3.55471 0
M  V30 1390 C 129.302 1.90453 4.15423 0
M  V30 1391 C 130.299 2.87029 4.33486 0
M  V30 1392 C 127.984 2.20229 4.51447 0
M  V30 1393 C 129.978 4.11532 4.86744 0
M  V30 1394 C 127.665 3.44984 5.0441 0
M  V30 1395 C 128.663 4.40452 5.22007 0
M  V30 1396 O 128.351 5.62998 5.73837 0
M  V30 1397 H 128.083 0.184778 0.650256 0
M  V30 1398 H 130.637 1.15615 1.69771 0
M  V30 1399 H 128.867 -0.20152 3.86175 0
M  V30 1400 H 130.556 0.169875 4.05544 0
M  V30 1401 H 131.322 2.6533 4.05986 0
M  V30 1402 H 127.201 1.46705 4.37034 0
M  V30 1403 H 130.745 4.86056 5.00395 0
M  V30 1404 H 126.642 3.66532 5.31342 0
M  V30 1405 H 127.41 5.64987 5.92226 0
M  V30 1406 N 130.073 -1.45103 0.615059 0
M  V30 1407 C 131.321 -2.01784 0.112955 0
M  V30 1408 C 131.642 -1.48504 -1.26378 0
M  V30 1409 O 130.912 -0.682245 -1.83636 0
M  V30 1410 H 129.492 -0.745993 0.0387668 0
M  V30 1411 H 132.154 -1.77808 0.798141 0
M  V30 1412 H 131.25 -3.12025 0.0684069 0
M  V30 1413 N 131.551 -0.354651 -1.53558 0
M  V30 1414 C 132.967 -0.00315426 -1.596 0
M  V30 1415 C 133.167 1.47741 -1.37021 0
M  V30 1416 O 132.223 2.23759 -1.16996 0
M  V30 1417 C 133.536 -0.44929 -2.97325 0
M  V30 1418 C 135.084 -0.402578 -3.104 0
M  V30 1419 C 135.559 -0.824355 -4.5052 0
M  V30 1420 N 137.05 -0.778979 -4.56603 0
M  V30 1421 C 137.785 -1.07715 -5.63192 0
M  V30 1422 N 137.281 -1.44405 -6.77583 0
M  V30 1423 N 139.074 -1.00066 -5.53121 0
M  V30 1424 H 131.225 -1.31893 -1.66487 0
M  V30 1425 H 133.488 -0.538388 -0.780284 0
M  V30 1426 H 133.194 -1.48202 -3.1895 0
M  V30 1427 H 133.068 0.169772 -3.76818 0
M  V30 1428 H 135.455 0.621004 -2.88492 0
M  V30 1429 H 135.536 -1.05699 -2.32941 0
M  V30 1430 H 135.18 -1.846 -4.73165 0
M  V30 1431 H 135.11 -0.147304 -5.26394 0
M  V30 1432 H 137.601 -0.508528 -3.74463 0
M  V30 1433 H 137.914 -1.65612 -7.54846 0
M  V30 1434 H 136.259 -1.4826 -6.79002 0
M  V30 1435 H 139.45 -0.713293 -4.62633 0
M  V30 1436 H 139.623 -1.23638 -6.36096 0
M  V30 1437 N 133.029 1.57378 -0.0835403 0
M  V30 1438 C 133.979 2.09916 0.889905 0
M  V30 1439 C 134.963 1.01151 1.25129 0
M  V30 1440 O 136.155 1.27443 1.2283 0
M  V30 1441 C 133.284 2.67379 2.15322 0
M  V30 1442 C 132.37 3.83167 1.81779 0
M  V30 1443 N 132.761 4.91665 1.18739 0
M  V30 1444 C 131.059 3.92685 2.11459 0
M  V30 1445 C 131.76 5.72409 1.0355 0
M  V30 1446 N 130.736 5.21062 1.54906 0
M  V30 1447 H 134.538 2.91188 0.398378 0
M  V30 1448 H 132.052 1.61956 0.120013 0
M  V30 1449 H 134.049 3.0334 2.8599 0
M  V30 1450 H 132.709 1.87558 2.65051 0
M  V30 1451 H 133.72 5.10784 0.855604 0
M  V30 1452 H 130.397 3.23856 2.63483 0
M  V30 1453 H 131.787 6.69699 0.543425 0
M  V30 1454 N 134.507 -0.190092 1.56449 0
M  V30 1455 C 135.437 -1.23816 1.97969 0
M  V30 1456 C 136.418 -1.47201 0.852395 0
M  V30 1457 O 137.603 -1.58854 1.1171 0
M  V30 1458 C 134.733 -2.5813 2.3235 0
M  V30 1459 C 133.687 -2.49348 3.47864 0
M  V30 1460 C 133.013 -3.8798 3.67934 0
M  V30 1461 C 134.313 -2.01424 4.81898 0
M  V30 1462 H 136.007 -0.89311 2.85769 0
M  V30 1463 H 133.553 -0.428177 1.37487 0
M  V30 1464 H 135.506 -3.31637 2.59991 0
M  V30 1465 H 134.23 -2.94386 1.41438 0
M  V30 1466 H 132.889 -1.78297 3.20321 0
M  V30 1467 H 132.537 -4.21597 2.74344 0
M  V30 1468 H 132.237 -3.82978 4.45648 0
M  V30 1469 H 133.761 -4.63101 3.97957 0
M  V30 1470 H 135.175 -2.64693 5.08538 0
M  V30 1471 H 133.572 -2.07413 5.63116 0
M  V30 1472 H 134.642 -0.967677 4.75146 0
M  V30 1473 N 135.985 -1.50799 -0.457987 0
M  V30 1474 C 137.215 -1.65977 -1.23025 0
M  V30 1475 C 137.623 -0.347918 -1.85974 0
M  V30 1476 O 136.966 0.68148 -1.70592 0
M  V30 1477 C 137.028 -2.70309 -2.3701 0
M  V30 1478 C 136.692 -4.135 -1.94594 0
M  V30 1479 C 137.689 -4.98949 -1.46101 0
M  V30 1480 C 135.374 -4.5949 -2.02915 0
M  V30 1481 C 137.368 -6.28442 -1.06489 0
M  V30 1482 C 135.055 -5.88984 -1.62914 0
M  V30 1483 C 136.053 -6.73286 -1.1478 0
M  V30 1484 O 135.741 -8.00362 -0.75339 0
M  V30 1485 H 135.473 -0.56064 -0.377702 0
M  V30 1486 H 138.027 -1.97857 -0.551537 0
M  V30 1487 H 136.257 -2.337 -3.08093 0
M  V30 1488 H 137.946 -2.74574 -2.98938 0
M  V30 1489 H 138.712 -4.6463 -1.39084 0
M  V30 1490 H 134.591 -3.94009 -2.39328 0
M  V30 1491 H 138.135 -6.94194 -0.688488 0
M  V30 1492 H 134.032 -6.22822 -1.69595 0
M  V30 1493 H 134.8 -8.13744 -0.88108 0
M  V30 1494 N 137.463 0.71206 -1.40597 0
M  V30 1495 C 138.71 1.47197 -1.39065 0
M  V30 1496 C 139.038 1.94499 0.00583891 0
M  V30 1497 O 138.293 1.68752 0.99102 0
M  V30 1498 C 138.592 2.71039 -2.32965 0
M  V30 1499 C 138.258 2.42484 -3.80148 0
M  V30 1500 C 136.92 2.34406 -4.20247 0
M  V30 1501 C 139.272 2.18598 -4.73143 0
M  V30 1502 C 136.6 2.00516 -5.51371 0
M  V30 1503 C 138.952 1.8622 -6.0457 0
M  V30 1504 C 137.616 1.76626 -6.43708 0
M  V30 1505 H 136.886 0.538634 -0.508876 0
M  V30 1506 H 139.533 0.815325 -1.73276 0
M  V30 1507 H 137.838 3.41558 -1.91951 0
M  V30 1508 H 139.535 3.29138 -2.29061 0
M  V30 1509 H 136.125 2.49659 -3.4838 0
M  V30 1510 H 140.309 2.23793 -4.42979 0
M  V30 1511 H 135.565 1.91628 -5.80593 0
M  V30 1512 H 139.739 1.66752 -6.76141 0
M  V30 1513 H 137.366 1.50133 -7.45228 0
M  V30 1514 N 138.941 1.26152 0.944643 0
M  V30 1515 C 140.187 1.12665 1.69346 0
M  V30 1516 C 140.542 -0.3273 1.89596 0
M  V30 1517 O 139.835 -1.23717 1.46303 0
M  V30 1518 C 140.029 1.82541 3.07268 0
M  V30 1519 C 139.858 3.34582 3.00475 0
M  V30 1520 C 138.628 4.03863 3.03681 0
M  V30 1521 C 140.826 4.30828 2.80877 0
M  V30 1522 N 138.808 5.42603 2.87151 0
M  V30 1523 C 140.179 5.5672 2.7288 0
M  V30 1524 C 142.234 4.21122 2.65633 0
M  V30 1525 C 140.937 6.74013 2.51196 0
M  V30 1526 C 142.963 5.38118 2.45323 0
M  V30 1527 C 142.325 6.62955 2.38055 0
M  V30 1528 H 138.424 0.467041 0.627214 0
M  V30 1529 H 141.008 1.59391 1.11815 0
M  V30 1530 H 139.179 1.38296 3.62945 0
M  V30 1531 H 140.911 1.61708 3.70989 0
M  V30 1532 H 137.666 3.55198 3.1326 0
M  V30 1533 H 138.09 6.15443 2.82063 0
M  V30 1534 H 142.732 3.25344 2.70021 0
M  V30 1535 H 140.45 7.6989 2.4555 0
M  V30 1536 H 144.036 5.32475 2.34439 0
M  V30 1537 H 142.916 7.51959 2.22546 0
M  V30 1538 N 140.419 -1.14872 1.07899 0
M  V30 1539 C 141.667 -1.85422 0.803941 0
M  V30 1540 C 141.988 -1.83051 -0.67211 0
M  V30 1541 O 141.258 -1.27532 -1.48703 0
M  V30 1542 H 139.838 -0.686537 0.294408 0
M  V30 1543 H 142.5 -1.39226 1.3639 0
M  V30 1544 H 141.596 -2.90399 1.14346 0
M  V30 1545 N 141.898 -0.863906 -1.31812 0
M  V30 1546 C 143.128 -0.485406 -2.00817 0
M  V30 1547 C 143.536 0.925007 -1.65046 0
M  V30 1548 O 142.879 1.61653 -0.872574 0
M  V30 1549 C 142.941 -0.555589 -3.55181 0
M  V30 1550 C 142.605 -1.92654 -4.14407 0
M  V30 1551 C 143.602 -2.89324 -4.31958 0
M  V30 1552 C 141.287 -2.2262 -4.50273 0
M  V30 1553 C 143.281 -4.14108 -4.84555 0
M  V30 1554 C 140.968 -3.47654 -5.02573 0
M  V30 1555 C 141.966 -4.43214 -5.19664 0
M  V30 1556 O 141.654 -5.66033 -5.70843 0
M  V30 1557 H 141.386 -0.188224 -0.649267 0
M  V30 1558 H 143.94 -1.16514 -1.69156 0
M  V30 1559 H 142.17 0.181037 -3.86276 0
M  V30 1560 H 143.859 -0.19138 -4.05449 0
M  V30 1561 H 144.625 -2.6748 -4.04573 0
M  V30 1562 H 140.504 -1.4902 -4.3625 0
M  V30 1563 H 144.048 -4.88703 -4.9781 0
M  V30 1564 H 139.945 -3.69345 -5.29391 0
M  V30 1565 H 140.713 -5.6812 -5.89222 0
M  V30 1566 N 143.376 1.44774 -0.622745 0
M  V30 1567 C 144.601 2.06999 -0.128968 0
M  V30 1568 C 145.026 1.4617 1.1839 0
M  V30 1569 O 144.384 0.560007 1.72434 0
M  V30 1570 C 144.432 3.60595 -0.0188351 0
M  V30 1571 O 143.536 3.99398 1.02739 0
M  V30 1572 H 142.877 0.659047 -0.0809544 0
M  V30 1573 H 145.407 1.85784 -0.85705 0
M  V30 1574 H 145.417 4.07627 0.174476 0
M  V30 1575 H 144.092 4.04252 -0.977384 0
M  V30 1576 H 142.669 3.64011 0.809326 0
M  V30 1577 N 144.854 0.36279 1.53368 0
M  V30 1578 C 145.764 -0.492994 2.29362 0
M  V30 1579 C 146.78 -1.09507 1.35219 0
M  V30 1580 O 147.956 -1.10662 1.68273 0
M  V30 1581 C 145.021 -1.61855 3.066 0
M  V30 1582 C 144.082 -1.04429 4.16405 0
M  V30 1583 C 143.315 -2.11621 4.89951 0
M  V30 1584 O 143.538 -3.32684 4.63333 0
M  V30 1585 O 142.472 -1.74835 5.75948 0
M  V30 1586 H 146.298 0.125331 3.03441 0
M  V30 1587 H 143.883 0.127253 1.48857 0
M  V30 1588 H 145.765 -2.27302 3.54841 0
M  V30 1589 H 144.44 -2.22233 2.3536 0
M  V30 1590 H 143.347 -0.353819 3.72423 0
M  V30 1591 H 144.68 -0.485113 4.89804 0
M  V30 1592 N 146.332 -1.57332 0.0918853 0
M  V30 1593 C 147.295 -2.12708 -0.85369 0
M  V30 1594 C 148.295 -1.05561 -1.213 0
M  V30 1595 O 149.485 -1.31461 -1.14296 0
M  V30 1596 C 146.617 -2.64503 -2.15061 0
M  V30 1597 H 147.81 -2.97573 -0.3729 0
M  V30 1598 H 145.363 -1.55509 -0.157072 0
M  V30 1599 H 146.098 -1.83149 -2.67632 0
M  V30 1600 H 145.883 -3.4284 -1.90272 0
M  V30 1601 H 147.373 -3.07351 -2.82711 0
M  V30 1602 N 147.81 0.181792 -1.56548 0
M  V30 1603 C 148.773 1.20894 -1.94724 0
M  V30 1604 C 149.773 1.37738 -0.829747 0
M  V30 1605 O 150.963 1.35323 -1.09697 0
M  V30 1606 C 148.095 2.57593 -2.23291 0
M  V30 1607 H 149.288 0.882275 -2.86629 0
M  V30 1608 H 146.841 0.423838 -1.50444 0
M  V30 1609 H 147.576 2.95291 -1.34067 0
M  V30 1610 H 147.361 2.46735 -3.04736 0
M  V30 1611 H 148.851 3.31637 -2.53785 0
M  V30 1612 N 149.288 1.51039 0.449983 0
M  V30 1613 C 150.235 1.71439 1.54523 0
M  V30 1614 C 151.205 0.555871 1.56522 0
M  V30 1615 O 152.39 0.788871 1.73728 0
M  V30 1616 C 149.53 1.83384 2.92343 0
M  V30 1617 C 148.643 3.10873 2.9997 0
M  V30 1618 C 147.778 3.13488 4.28834 0
M  V30 1619 C 146.817 4.35343 4.30282 0
M  V30 1620 N 145.954 4.35579 5.5065 0
M  V30 1621 H 150.794 2.64934 1.36433 0
M  V30 1622 H 148.331 1.31312 0.662982 0
M  V30 1623 H 150.289 1.88291 3.72293 0
M  V30 1624 H 148.919 0.933086 3.0902 0
M  V30 1625 H 147.971 3.15336 2.12761 0
M  V30 1626 H 149.283 4.00814 2.96901 0
M  V30 1627 H 148.437 3.17241 5.17149 0
M  V30 1628 H 147.176 2.21414 4.34543 0
M  V30 1629 H 146.181 4.3178 3.40362 0
M  V30 1630 H 147.406 5.28668 4.26248 0
M  V30 1631 H 145.352 3.46369 5.57104 0
M  V30 1632 H 145.269 5.19313 5.49409 0
M  V30 1633 H 146.537 4.43507 6.41032 0
M  V30 1634 N 150.766 -0.704594 1.40972 0
M  V30 1635 C 151.713 -1.81862 1.42109 0
M  V30 1636 C 152.683 -1.63781 0.276593 0
M  V30 1637 O 153.868 -1.84759 0.4763 0
M  V30 1638 C 151.008 -3.19669 1.30022 0
M  V30 1639 C 150.121 -3.49246 2.54267 0
M  V30 1640 C 149.256 -4.76618 2.3454 0
M  V30 1641 C 148.295 -4.99133 3.54306 0
M  V30 1642 N 147.432 -6.17726 3.33706 0
M  V30 1643 H 152.272 -1.80226 2.37324 0
M  V30 1644 H 149.809 -0.880238 1.17857 0
M  V30 1645 H 151.767 -3.99263 1.21018 0
M  V30 1646 H 150.397 -3.20506 0.384192 0
M  V30 1647 H 149.449 -2.64125 2.73756 0
M  V30 1648 H 150.761 -3.61788 3.43381 0
M  V30 1649 H 149.915 -5.64249 2.22952 0
M  V30 1650 H 148.654 -4.66305 1.42867 0
M  V30 1651 H 147.659 -4.09953 3.66359 0
M  V30 1652 H 148.884 -5.11311 4.4692 0
M  V30 1653 H 146.83 -6.08642 2.44725 0
M  V30 1654 H 146.747 -6.30995 4.16391 0
M  V30 1655 H 148.015 -7.08115 3.25873 0
M  V30 1656 N 152.244 -1.26651 -0.937939 0
M  V30 1657 C 153.66 -1.03834 -1.21205 0
M  V30 1658 C 153.86 0.234502 -2.00131 0
M  V30 1659 O 152.916 0.942767 -2.3424 0
M  V30 1660 C 154.229 -2.27167 -1.97017 0
M  V30 1661 C 155.777 -2.32101 -2.09996 0
M  V30 1662 C 156.252 -3.55136 -2.8921 0
M  V30 1663 N 157.743 -3.55632 -2.96783 0
M  V30 1664 C 158.478 -4.475 -3.58512 0
M  V30 1665 N 157.974 -5.4966 -4.21717 0
M  V30 1666 N 159.767 -4.35145 -3.55816 0
M  V30 1667 H 151.918 -2.08398 -0.410391 0
M  V30 1668 H 154.181 -0.916031 -0.244114 0
M  V30 1669 H 153.887 -3.19765 -1.46434 0
M  V30 1670 H 153.761 -2.31672 -2.97671 0
M  V30 1671 H 156.148 -1.40015 -2.59769 0
M  V30 1672 H 156.229 -2.31605 -1.08594 0
M  V30 1673 H 155.873 -4.47553 -2.40123 0
M  V30 1674 H 155.803 -3.5288 -3.90875 0
M  V30 1675 H 158.294 -2.81743 -2.51852 0
M  V30 1676 H 158.607 -6.15943 -4.66727 0
M  V30 1677 H 156.952 -5.53514 -4.20294 0
M  V30 1678 H 160.143 -3.5455 -3.05634 0
M  V30 1679 H 160.316 -5.06934 -4.03636 0
M  V30 1680 N 153.722 1.14298 -1.08507 0
M  V30 1681 C 154.971 1.84708 -0.810305 0
M  V30 1682 C 155.284 1.83903 0.666271 0
M  V30 1683 O 156.49 2.50112 1.05624 0
M  V30 1684 C 154.946 3.31572 -1.39957 0
M  V30 1685 C 154.554 3.40791 -2.90801 0
M  V30 1686 C 156.298 4.07087 -1.20334 0
M  V30 1687 C 154.205 4.81872 -3.4286 0
M  V30 1688 H 153.135 0.691985 -0.299454 0
M  V30 1689 H 155.786 1.28841 -1.30661 0
M  V30 1690 H 154.168 3.87183 -0.830976 0
M  V30 1691 H 155.342 2.95225 -3.53806 0
M  V30 1692 H 153.657 2.78732 -3.0935 0
M  V30 1693 H 156.254 5.11225 -1.56693 0
M  V30 1694 H 156.597 4.16054 -0.143237 0
M  V30 1695 H 157.13 3.57779 -1.73893 0
M  V30 1696 H 153.869 4.78094 -4.48449 0
M  V30 1697 H 153.389 5.27972 -2.84615 0
M  V30 1698 H 155.068 5.50765 -3.39509 0
M  V30 1699 N 155.201 0.870884 1.31352 0
M  V30 1700 C 156.429 0.49677 2.00848 0
M  V30 1701 C 156.844 -0.910998 1.65367 0
M  V30 1702 O 156.201 -1.59696 0.883374 0
M  V30 1703 C 156.252 0.645308 3.55694 0
M  V30 1704 O 155.973 1.99764 3.89905 0
M  V30 1705 C 157.474 0.272326 4.42463 0
M  V30 1706 H 154.694 0.193462 0.642506 0
M  V30 1707 H 157.238 1.1723 1.67563 0
M  V30 1708 H 155.393 0.0173176 3.87396 0
M  V30 1709 H 155.807 2.00607 4.84621 0
M  V30 1710 H 157.281 0.427208 5.50344 0
M  V30 1711 H 157.758 -0.788587 4.32062 0
M  V30 1712 H 158.364 0.876054 4.1618 0
M  V30 1713 N 156.679 -1.44442 0.630414 0
M  V30 1714 C 157.927 -2.01653 0.134351 0
M  V30 1715 C 158.248 -1.49836 -1.24796 0
M  V30 1716 O 157.518 -0.701684 -1.82902 0
M  V30 1717 H 156.098 -0.74554 0.0466769 0
M  V30 1718 H 158.76 -1.76952 0.816955 0
M  V30 1719 H 157.856 -3.11935 0.101498 0
M  V30 1720 N 158.157 -0.370918 -1.53173 0
M  V30 1721 C 159.404 0.217102 -2.01333 0
M  V30 1722 C 159.732 1.48338 -1.25802 0
M  V30 1723 O 158.987 1.92698 -0.34146 0
M  V30 1724 C 159.286 0.549696 -3.53147 0
M  V30 1725 C 158.952 -0.622872 -4.46577 0
M  V30 1726 C 157.614 -0.944595 -4.71838 0
M  V30 1727 C 159.966 -1.40819 -5.01816 0
M  V30 1728 C 157.294 -2.05351 -5.49589 0
M  V30 1729 C 159.646 -2.50757 -5.80778 0
M  V30 1730 C 158.31 -2.83458 -6.04324 0
M  V30 1731 H 157.58 0.0794431 -0.736729 0
M  V30 1732 H 160.227 -0.504481 -1.84736 0
M  V30 1733 H 158.532 1.35237 -3.6772 0
M  V30 1734 H 160.229 1.017 -3.87889 0
M  V30 1735 H 156.819 -0.36209 -4.27068 0
M  V30 1736 H 161.003 -1.17289 -4.82242 0
M  V30 1737 H 156.259 -2.3108 -5.6605 0
M  V30 1738 H 160.433 -3.12022 -6.22588 0
M  V30 1739 H 158.06 -3.69508 -6.64355 0
M  V30 1740 N 159.635 1.57281 -0.100228 0
M  V30 1741 C 161.051 1.57527 0.256416 0
M  V30 1742 C 161.251 1.11173 1.68056 0
M  V30 1743 O 160.307 0.79053 2.39806 0
M  V30 1744 C 161.62 3.00673 0.0401747 0
M  V30 1745 C 163.168 3.12815 0.107528 0
M  V30 1746 C 163.643 4.57929 -0.0807834 0
M  V30 1747 N 165.134 4.63193 -0.0261207 0
M  V30 1748 C 165.869 5.73212 -0.146999 0
M  V30 1749 N 165.365 6.92047 -0.322999 0
M  V30 1750 N 167.158 5.62031 -0.0879044 0
M  V30 1751 H 159.309 1.85718 -1.03065 0
M  V30 1752 H 161.572 0.857446 -0.404339 0
M  V30 1753 H 161.278 3.38804 -0.943649 0
M  V30 1754 H 161.152 3.69042 0.780262 0
M  V30 1755 H 163.539 2.74554 1.08186 0
M  V30 1756 H 163.62 2.47028 -0.664134 0
M  V30 1757 H 163.264 4.96886 -1.05201 0
M  V30 1758 H 163.194 5.21783 0.710635 0
M  V30 1759 H 165.685 3.77748 0.107161 0
M  V30 1760 H 165.998 7.7173 -0.406608 0
M  V30 1761 H 164.343 6.94074 -0.358733 0
M  V30 1762 H 167.534 4.68075 0.048498 0
M  V30 1763 H 167.707 6.47734 -0.185557 0
M  V30 1764 N 161.113 -0.173488 1.56642 0
M  V30 1765 C 162.043 -1.2171 1.99271 0
M  V30 1766 C 163.024 -1.46289 0.867959 0
M  V30 1767 O 164.209 -1.5766 1.13388 0
M  V30 1768 C 161.339 -2.55651 2.35074 0
M  V30 1769 C 160.293 -2.45645 3.50489 0
M  V30 1770 C 159.619 -3.84056 3.72028 0
M  V30 1771 C 160.919 -1.96302 4.84007 0
M  V30 1772 H 162.613 -0.86275 2.867 0
M  V30 1773 H 160.159 -0.413571 1.37933 0
M  V30 1774 H 162.112 -3.2886 2.63494 0
M  V30 1775 H 160.836 -2.92869 1.44552 0
M  V30 1776 H 159.495 -1.7489 3.22194 0
M  V30 1777 H 159.143 -4.18664 2.788 0
M  V30 1778 H 158.843 -3.7823 4.49684 0
M  V30 1779 H 160.367 -4.58854 4.02846 0
M  V30 1780 H 161.781 -2.59284 5.11317 0
M  V30 1781 H 160.178 -2.01429 5.65284 0
M  V30 1782 H 161.248 -0.917226 4.76146 0
M  V30 1783 N 162.591 -1.51276 -0.441967 0
M  V30 1784 C 163.816 -1.67799 -1.21895 0
M  V30 1785 C 164.241 -0.372864 -1.84367 0
M  V30 1786 O 163.599 0.666501 -1.68604 0
M  V30 1787 C 163.647 -2.79199 -2.28211 0
M  V30 1788 O 162.751 -2.42479 -3.33583 0
M  V30 1789 H 162.092 -0.559649 -0.357336 0
M  V30 1790 H 164.622 -1.97815 -0.522522 0
M  V30 1791 H 164.632 -3.03146 -2.73069 0
M  V30 1792 H 163.307 -3.73906 -1.82118 0
M  V30 1793 H 161.884 -2.29087 -2.94234 0
M  V30 1794 N 164.069 0.697108 -1.41344 0
M  V30 1795 C 164.999 1.82353 -1.45841 0
M  V30 1796 C 165.98 1.67115 -0.317247 0
M  V30 1797 O 167.165 1.86871 -0.528474 0
M  V30 1798 C 164.295 3.20476 -1.33838 0
M  V30 1799 C 163.249 3.50415 -2.4575 0
M  V30 1800 C 162.575 4.87878 -2.18813 0
M  V30 1801 C 163.875 3.49546 -3.88091 0
M  V30 1802 H 165.569 1.78846 -2.40113 0
M  V30 1803 H 163.115 0.859028 -1.15571 0
M  V30 1804 H 165.068 3.98988 -1.35596 0
M  V30 1805 H 163.792 3.24604 -0.360498 0
M  V30 1806 H 162.451 2.74253 -2.43271 0
M  V30 1807 H 162.099 4.8863 -1.19371 0
M  V30 1808 H 161.799 5.08875 -2.93803 0
M  V30 1809 H 163.323 5.68702 -2.22284 0
M  V30 1810 H 164.737 4.18066 -3.92293 0
M  V30 1811 H 163.134 3.82075 -4.62751 0
M  V30 1812 H 164.204 2.48552 -4.16353 0
M  V30 1813 N 165.547 1.27147 0.931209 0
M  V30 1814 C 166.795 1.13055 1.6752 0
M  V30 1815 C 167.116 -0.324791 1.92276 0
M  V30 1816 O 166.386 -1.22775 1.52654 0
M  V30 1817 H 164.966 0.415391 0.620854 0
M  V30 1818 H 167.628 1.59623 1.11833 0
M  V30 1819 H 166.724 1.65694 2.64485 0
M  V30 1820 N 167.025 -1.13721 1.09112 0
M  V30 1821 C 168.274 -1.84275 0.82009 0
M  V30 1822 C 168.587 -1.84253 -0.656509 0
M  V30 1823 O 169.793 -2.50668 -1.04296 0
M  V30 1824 C 168.249 -3.30825 1.41714 0
M  V30 1825 C 167.857 -3.39244 2.92605 0
M  V30 1826 C 169.601 -4.06443 1.22492 0
M  V30 1827 C 167.508 -4.80047 3.45411 0
M  V30 1828 H 166.438 -0.690387 0.30312 0
M  V30 1829 H 169.089 -1.28146 1.31343 0
M  V30 1830 H 167.471 -3.86737 0.851498 0
M  V30 1831 H 168.645 -2.93344 3.55367 0
M  V30 1832 H 166.96 -2.77088 3.10823 0
M  V30 1833 H 169.557 -5.10387 1.59402 0
M  V30 1834 H 169.9 -4.15972 0.165299 0
M  V30 1835 H 170.433 -3.56852 1.75788 0
M  V30 1836 H 167.172 -4.75709 4.50978 0
M  V30 1837 H 166.692 -5.26455 2.87411 0
M  V30 1838 H 168.371 -5.48957 3.42425 0
M  V30 1839 N 168.503 -0.877838 -1.30888 0
M  V30 1840 C 169.433 -0.35534 -2.3078 0
M  V30 1841 C 170.414 0.557994 -1.60687 0
M  V30 1842 O 171.599 0.473355 -1.88343 0
M  V30 1843 C 168.729 0.437221 -3.44537 0
M  V30 1844 C 167.683 -0.383715 -4.26276 0
M  V30 1845 C 167.009 0.535014 -5.32017 0
M  V30 1846 C 168.309 -1.62201 -4.96476 0
M  V30 1847 H 170.003 -1.19007 -2.74732 0
M  V30 1848 H 167.549 -0.573698 -1.32078 0
M  V30 1849 H 169.502 0.813334 -4.13477 0
M  V30 1850 H 168.226 1.30553 -2.99372 0
M  V30 1851 H 166.885 -0.741874 -3.59015 0
M  V30 1852 H 166.533 1.40083 -4.831 0
M  V30 1853 H 166.233 -0.0104211 -5.87599 0
M  V30 1854 H 167.757 0.907799 -6.03814 0
M  V30 1855 H 169.171 -1.31689 -5.5797 0
M  V30 1856 H 167.568 -2.10711 -5.61891 0
M  V30 1857 H 168.638 -2.37044 -4.23011 0
M  V30 1858 N 169.982 1.44106 -0.638065 0
M  V30 1859 C 170.945 2.29138 0.0531013 0
M  V30 1860 C 171.945 1.41409 0.765506 0
M  V30 1861 O 173.135 1.63206 0.609046 0
M  V30 1862 C 170.267 3.23144 1.08584 0
M  V30 1863 H 171.46 2.91739 -0.694883 0
M  V30 1864 H 169.013 1.51134 -0.398538 0
M  V30 1865 H 169.748 2.65408 1.86357 0
M  V30 1866 H 169.533 3.87804 0.578852 0
M  V30 1867 H 171.023 3.87004 1.56899 0
M  V30 1868 N 171.46 0.379036 1.52974 0
M  V30 1869 C 172.39 -0.452706 2.29069 0
M  V30 1870 C 173.371 -1.07237 1.32039 0
M  V30 1871 O 174.556 -1.08708 1.60923 0
M  V30 1872 C 171.686 -1.5856 3.08992 0
M  V30 1873 C 170.64 -1.0925 4.13822 0
M  V30 1874 C 169.966 -2.31668 4.81907 0
M  V30 1875 C 171.266 -0.167702 5.22031 0
M  V30 1876 H 172.96 0.182181 2.98845 0
M  V30 1877 H 170.506 0.0890592 1.43724 0
M  V30 1878 H 172.459 -2.1742 3.6098 0
M  V30 1879 H 171.183 -2.24792 2.36931 0
M  V30 1880 H 169.842 -0.526494 3.628 0
M  V30 1881 H 169.49 -2.96386 4.06404 0
M  V30 1882 H 169.19 -1.9934 5.52754 0
M  V30 1883 H 170.714 -2.91189 5.36695 0
M  V30 1884 H 172.128 -0.664186 5.6944 0
M  V30 1885 H 170.525 0.0653265 6.00064 0
M  V30 1886 H 171.595 0.786347 4.78482 0
M  V30 1887 N 172.938 -1.57226 0.108567 0
M  V30 1888 C 173.868 -2.17778 -0.84232 0
M  V30 1889 C 174.849 -1.11487 -1.2847 0
M  V30 1890 O 176.034 -1.39681 -1.34918 0
M  V30 1891 C 173.164 -2.76888 -2.09644 0
M  V30 1892 C 172.118 -3.88669 -1.79221 0
M  V30 1893 C 171.444 -4.34541 -3.11574 0
M  V30 1894 C 172.744 -5.11251 -1.06864 0
M  V30 1895 H 174.438 -2.97489 -0.337774 0
M  V30 1896 H 171.984 -1.43097 -0.161025 0
M  V30 1897 H 173.937 -3.17904 -2.76614 0
M  V30 1898 H 172.661 -1.94451 -2.62405 0
M  V30 1899 H 171.32 -3.48213 -1.14644 0
M  V30 1900 H 170.968 -3.48977 -3.62249 0
M  V30 1901 H 170.668 -5.09914 -2.91996 0
M  V30 1902 H 172.192 -4.782 -3.7968 0
M  V30 1903 H 173.606 -5.49352 -1.63968 0
M  V30 1904 H 172.003 -5.9214 -0.974178 0
M  V30 1905 H 173.073 -4.8487 -0.0536168 0
M  V30 1906 N 174.416 0.165178 -1.56732 0
M  V30 1907 C 175.644 0.896218 -1.86482 0
M  V30 1908 C 176.059 1.75555 -0.694675 0
M  V30 1909 O 175.416 1.79379 0.33607 0
M  V30 1910 C 175.467 1.76792 -3.1532 0
M  V30 1911 O 175.188 0.943239 -4.27825 0
M  V30 1912 C 176.689 2.6081 -3.58459 0
M  V30 1913 H 173.909 0.260064 -0.618553 0
M  V30 1914 H 176.453 0.163428 -2.03846 0
M  V30 1915 H 174.608 2.45398 -2.99764 0
M  V30 1916 H 175.022 1.53998 -5.01383 0
M  V30 1917 H 176.496 3.17579 -4.51495 0
M  V30 1918 H 176.973 3.35977 -2.82872 0
M  V30 1919 H 177.579 1.97526 -3.76648 0
M  V30 1920 N 175.894 1.51508 0.433938 0
M  V30 1921 C 176.824 1.76016 1.53429 0
M  V30 1922 C 177.805 0.610112 1.58782 0
M  V30 1923 O 178.99 0.853177 1.74455 0
M  V30 1924 C 176.12 1.88831 2.9148 0
M  V30 1925 C 175.074 3.04288 3.00987 0
M  V30 1926 C 174.4 3.0229 4.4105 0
M  V30 1927 C 175.7 4.44193 2.74754 0
M  V30 1928 H 177.394 2.68152 1.33171 0
M  V30 1929 H 174.94 1.29035 0.639214 0
M  V30 1930 H 176.893 2.04559 3.6842 0
M  V30 1931 H 175.617 0.933455 3.12976 0
M  V30 1932 H 174.276 2.8827 2.26486 0
M  V30 1933 H 173.924 2.04576 4.59519 0
M  V30 1934 H 173.624 3.79822 4.4834 0
M  V30 1935 H 175.148 3.20116 5.1996 0
M  V30 1936 H 176.562 4.60544 3.41426 0
M  V30 1937 H 174.959 5.23457 2.9345 0
M  V30 1938 H 176.029 4.53996 1.70339 0
M  V30 1939 N 177.372 -0.689602 1.41712 0
M  V30 1940 C 178.302 -1.81577 1.46806 0
M  V30 1941 C 179.283 -1.66945 0.326105 0
M  V30 1942 O 180.468 -1.86588 0.538377 0
M  V30 1943 C 177.598 -3.19762 1.35535 0
M  V30 1944 C 176.552 -3.49107 2.47605 0
M  V30 1945 C 175.878 -4.86711 2.21397 0
M  V30 1946 C 177.178 -3.47483 3.89939 0
M  V30 1947 H 178.872 -1.7757 2.41058 0
M  V30 1948 H 176.418 -0.852887 1.16025 0
M  V30 1949 H 178.371 -3.98263 1.3771 0
M  V30 1950 H 177.095 -3.24409 0.377708 0
M  V30 1951 H 175.754 -2.72959 2.44722 0
M  V30 1952 H 175.402 -4.8799 1.21961 0
M  V30 1953 H 175.102 -5.0731 2.96497 0
M  V30 1954 H 176.626 -5.67515 2.25297 0
M  V30 1955 H 178.04 -4.1598 3.94505 0
M  V30 1956 H 176.437 -3.79615 4.64771 0
M  V30 1957 H 177.507 -2.46341 4.17665 0
M  V30 1958 N 178.85 -1.27639 -0.924453 0
M  V30 1959 C 180.098 -1.13941 -1.66918 0
M  V30 1960 C 180.419 0.314589 -1.92446 0
M  V30 1961 O 179.689 1.21964 -1.53303 0
M  V30 1962 H 178.269 -0.418678 -0.618642 0
M  V30 1963 H 180.931 -1.60213 -1.10985 0
M  V30 1964 H 180.027 -1.67094 -2.63602 0
M  V30 1965 N 180.328 1.1314 -1.09713 0
M  V30 1966 C 181.291 2.16831 -0.742751 0
M  V30 1967 C 182.291 1.59159 0.229129 0
M  V30 1968 O 183.481 1.74199 0.00693237 0
M  V30 1969 C 180.613 3.40756 -0.0989168 0
M  V30 1970 H 181.806 2.49695 -1.66109 0
M  V30 1971 H 179.359 1.2802 -0.896699 0
M  V30 1972 H 180.094 3.13485 0.830514 0
M  V30 1973 H 179.879 3.83888 -0.798265 0
M  V30 1974 H 181.369 4.17386 0.133524 0
M  V30 1975 N 181.806 0.884767 1.30421 0
M  V30 1976 C 182.736 0.367574 2.30589 0
M  V30 1977 C 183.717 -0.549464 1.60981 0
M  V30 1978 O 184.902 -0.46336 1.88591 0
M  V30 1979 C 182.032 -0.418944 3.44764 0
M  V30 1980 C 180.986 0.406316 4.26067 0
M  V30 1981 C 180.312 -0.506793 5.32293 0
M  V30 1982 C 181.612 1.64832 4.95608 0
M  V30 1983 H 183.306 1.20462 2.74097 0
M  V30 1984 H 180.852 0.580695 1.31772 0
M  V30 1985 H 182.805 -0.791395 4.13902 0
M  V30 1986 H 181.529 -1.28964 3.0006 0
M  V30 1987 H 180.188 0.760903 3.58617 0
M  V30 1988 H 179.836 -1.37519 4.83836 0
M  V30 1989 H 179.536 0.0415828 5.87585 0
M  V30 1990 H 181.06 -0.875764 6.04287 0
M  V30 1991 H 182.474 1.34646 5.57264 0
M  V30 1992 H 180.871 2.13688 5.60765 0
M  V30 1993 H 181.941 2.39284 4.21748 0
M  V30 1994 N 183.284 -1.43765 0.645699 0
M  V30 1995 C 184.532 -2.01499 0.155731 0
M  V30 1996 C 184.853 -1.51151 -1.232 0
M  V30 1997 O 184.123 -0.721044 -1.82148 0
M  V30 1998 H 182.703 -0.745003 0.0545817 0
M  V30 1999 H 185.365 -1.76075 0.835677 0
M  V30 2000 H 184.461 -3.1181 0.134577 0
M  V30 2001 N 184.763 -0.387143 -1.52771 0
M  V30 2002 C 186.012 0.19697 -2.00736 0
M  V30 2003 C 186.325 1.48082 -1.27793 0
M  V30 2004 O 187.531 2.14485 -1.66458 0
M  V30 2005 C 185.987 0.401568 -3.57653 0
M  V30 2006 C 185.595 -0.868907 -4.39493 0
M  V30 2007 C 187.339 0.942164 -4.13912 0
M  V30 2008 C 185.246 -0.632705 -5.88006 0
M  V30 2009 H 184.176 0.0773827 -0.750019 0
M  V30 2010 H 186.827 -0.50921 -1.76293 0
M  V30 2011 H 185.209 1.16954 -3.78335 0
M  V30 2012 H 186.383 -1.64133 -4.30577 0
M  V30 2013 H 184.698 -1.33429 -3.94443 0
M  V30 2014 H 187.295 1.13455 -5.22525 0
M  V30 2015 H 187.638 1.9106 -3.69867 0
M  V30 2016 H 188.171 0.233814 -3.97112 0
M  V30 2017 H 184.91 -1.57208 -6.36369 0
M  V30 2018 H 184.43 0.100825 -5.99715 0
M  V30 2019 H 186.109 -0.26642 -6.46451 0
M  V30 2020 N 186.241 1.57166 -0.116904 0
M  V30 2021 C 187.204 2.14039 0.819742 0
M  V30 2022 C 188.204 1.07477 1.19605 0
M  V30 2023 O 189.394 1.33263 1.1219 0
M  V30 2024 C 186.526 2.67891 2.10826 0
M  V30 2025 H 187.719 2.98128 0.325511 0
M  V30 2026 H 185.272 1.55739 0.132312 0
M  V30 2027 H 186.007 1.87384 2.64685 0
M  V30 2028 H 185.792 3.45823 1.84793 0
M  V30 2029 H 187.282 3.11809 2.77785 0
M  V30 2030 N 187.719 -0.156864 1.56817 0
M  V30 2031 C 188.667 -1.21319 1.98455 0
M  V30 2032 C 189.661 -1.45025 0.875444 0
M  V30 2033 O 190.867 -1.45435 1.0606 0
M  V30 2034 H 187.242 -0.408142 0.631605 0
M  V30 2035 H 189.213 -0.835244 2.86472 0
M  V30 2036 C 187.962 -2.54148 2.37285 0
M  V30 2037 H 187.285 -2.36733 3.22176 0
M  V30 2038 H 188.725 -3.26712 2.70251 0
M  V30 2039 C 187.184 -3.13967 1.22173 0
M  V30 2040 O 187.714 -3.98357 0.517149 0
M  V30 2041 N 185.92 -2.7327 0.988536 0
M  V30 2042 H 185.467 -2.04744 1.56326 0
M  V30 2043 H 185.425 -3.13628 0.220209 0
M  V30 2044 N 189.197 -1.51736 -0.425897 0
M  V30 2045 C 190.422 -1.69082 -1.20108 0
M  V30 2046 C 190.847 -0.392398 -1.83962 0
M  V30 2047 O 190.205 0.64858 -1.69302 0
M  V30 2048 C 190.253 -2.81604 -2.25237 0
M  V30 2049 O 189.357 -2.46004 -3.30992 0
M  V30 2050 H 188.698 -0.563408 -0.35138 0
M  V30 2051 H 191.228 -1.98358 -0.501512 0
M  V30 2052 H 191.238 -3.06025 -2.69838 0
M  V30 2053 H 189.913 -3.75817 -1.78142 0
M  V30 2054 H 188.49 -2.32195 -2.91787 0
M  V30 2055 N 190.675 0.682077 -1.42076 0
M  V30 2056 C 191.922 1.44215 -1.42156 0
M  V30 2057 C 192.25 1.94468 -0.0354186 0
M  V30 2058 O 191.505 1.70816 0.955002 0
M  V30 2059 C 191.804 2.66036 -2.38662 0
M  V30 2060 C 191.47 2.34366 -3.85206 0
M  V30 2061 C 190.132 2.25439 -4.25124 0
M  V30 2062 C 192.484 2.08513 -4.77673 0
M  V30 2063 C 189.812 1.88775 -5.55501 0
M  V30 2064 C 192.164 1.73354 -6.08384 0
M  V30 2065 C 190.828 1.62933 -6.47309 0
M  V30 2066 H 190.098 0.527718 -0.520187 0
M  V30 2067 H 192.745 0.778387 -1.74967 0
M  V30 2068 H 191.05 3.3741 -1.99152 0
M  V30 2069 H 192.747 3.24205 -2.35991 0
M  V30 2070 H 189.337 2.42213 -3.53597 0
M  V30 2071 H 193.521 2.14346 -4.47626 0
M  V30 2072 H 188.777 1.7927 -5.84527 0
M  V30 2073 H 192.951 1.52373 -6.79526 0
M  V30 2074 H 190.578 1.34292 -7.48244 0
M  V30 2075 N 192.153 1.28127 0.917671 0
M  V30 2076 C 193.083 1.14248 2.03641 0
M  V30 2077 C 194.064 0.0412748 1.7005 0
M  V30 2078 O 195.249 0.217566 1.92977 0
M  V30 2079 C 192.379 0.799431 3.37974 0
M  V30 2080 C 191.333 1.85497 3.85713 0
M  V30 2081 C 190.659 1.36565 5.16966 0
M  V30 2082 C 191.959 3.26085 4.08002 0
M  V30 2083 H 193.653 2.07835 2.15511 0
M  V30 2084 H 191.199 1.00064 1.03553 0
M  V30 2085 H 193.152 0.689114 4.15727 0
M  V30 2086 H 191.876 -0.172145 3.26146 0
M  V30 2087 H 190.535 1.95437 3.10161 0
M  V30 2088 H 190.183 0.383253 5.01538 0
M  V30 2089 H 189.883 2.07143 5.49878 0
M  V30 2090 H 191.407 1.26848 5.97279 0
M  V30 2091 H 192.821 3.19089 4.76293 0
M  V30 2092 H 191.218 3.94462 4.52238 0
M  V30 2093 H 192.288 3.70394 3.12948 0
M  V30 2094 N 193.631 -1.12557 1.10312 0
M  V30 2095 C 194.908 -1.80363 0.756878 0
M  V30 2096 C 195.288 -1.97067 -0.756824 0
M  V30 2097 O 194.636 -1.54601 -1.68259 0
M  V30 2098 C 194.846 -3.14812 1.50647 0
M  V30 2099 C 196.194 -3.90029 1.67817 0
M  V30 2100 O 197.218 -3.24464 1.46974 0
M  V30 2101 O 196.077 -5.07652 2.02365 0
M  V30 2102 H 193.171 -0.780667 0.272926 0
M  V30 2103 H 195.717 -1.19404 1.20586 0
M  V30 2104 H 194.489 -2.97936 2.53672 0
M  V30 2105 H 194.112 -3.83478 1.05026 0
M  V30 2106 N 195.109 -0.891671 -1.2995 0
M  V30 2107 C 196.019 -0.367691 -2.31701 0
M  V30 2108 C 197.035 0.533486 -1.6562 0
M  V30 2109 O 198.211 0.424997 -1.96865 0
M  V30 2110 C 195.276 0.403406 -3.44345 0
M  V30 2111 C 194.337 -0.528328 -4.26037 0
M  V30 2112 C 193.57 0.206063 -5.33302 0
M  V30 2113 O 193.793 1.43119 -5.52153 0
M  V30 2114 O 192.727 -0.447281 -6.00236 0
M  V30 2115 H 196.553 -1.21163 -2.78484 0
M  V30 2116 H 194.138 -0.655725 -1.34241 0
M  V30 2117 H 196.02 0.839753 -4.12948 0
M  V30 2118 H 194.695 1.22354 -2.99685 0
M  V30 2119 H 193.602 -1.01362 -3.60106 0
M  V30 2120 H 194.935 -1.31465 -4.74318 0
M  V30 2121 N 196.587 1.43421 -0.653314 0
M  V30 2122 C 197.817 2.05864 -0.174238 0
M  V30 2123 C 198.225 1.49052 1.16534 0
M  V30 2124 O 197.568 0.616481 1.73047 0
M  V30 2125 C 197.63 3.59499 -0.00875873 0
M  V30 2126 C 197.294 4.38893 -1.27364 0
M  V30 2127 C 198.291 4.70947 -2.20239 0
M  V30 2128 C 195.976 4.789 -1.51525 0
M  V30 2129 C 197.97 5.41916 -3.35568 0
M  V30 2130 C 195.657 5.49614 -2.67147 0
M  V30 2131 C 196.655 5.81044 -3.58994 0
M  V30 2132 O 196.343 6.50313 -4.72597 0
M  V30 2133 H 196.075 0.670345 -0.0872549 0
M  V30 2134 H 198.629 1.84913 -0.894226 0
M  V30 2135 H 196.859 3.79025 0.7666 0
M  V30 2136 H 198.548 4.0364 0.427687 0
M  V30 2137 H 199.314 4.40558 -2.02815 0
M  V30 2138 H 195.193 4.53843 -0.809158 0
M  V30 2139 H 198.737 5.66365 -4.07279 0
M  V30 2140 H 194.634 5.79419 -2.84505 0
M  V30 2141 H 195.402 6.68795 -4.71864 0
M  V30 2142 N 198.065 0.39524 1.52563 0
M  V30 2143 C 198.995 -0.428384 2.29537 0
M  V30 2144 C 199.976 -1.05831 1.33169 0
M  V30 2145 O 201.161 -1.06995 1.62067 0
M  V30 2146 C 198.291 -1.55274 3.10656 0
M  V30 2147 C 197.245 -1.04855 4.14957 0
M  V30 2148 C 196.571 -2.26543 4.84337 0
M  V30 2149 C 197.871 -0.112324 5.22179 0
M  V30 2150 H 199.565 0.213867 2.98635 0
M  V30 2151 H 197.111 0.104298 1.43622 0
M  V30 2152 H 199.064 -2.1358 3.63265 0
M  V30 2153 H 197.788 -2.22266 2.39302 0
M  V30 2154 H 196.447 -0.487985 3.63338 0
M  V30 2155 H 196.095 -2.92059 4.09525 0
M  V30 2156 H 195.795 -1.93466 5.54837 0
M  V30 2157 H 197.319 -2.85481 5.39753 0
M  V30 2158 H 198.733 -0.603752 5.70112 0
M  V30 2159 H 197.13 0.128968 5.99961 0
M  V30 2160 H 198.2 0.837052 4.77621 0
M  V30 2161 N 199.544 -1.57102 0.125237 0
M  V30 2162 C 200.821 -1.86953 -0.575142 0
M  V30 2163 C 201.201 -1.02749 -1.84407 0
M  V30 2164 O 200.549 -0.108144 -2.28244 0
M  V30 2165 C 200.759 -3.38198 -0.861583 0
M  V30 2166 C 202.107 -4.06937 -1.21192 0
M  V30 2167 O 203.131 -3.43252 -0.951645 0
M  V30 2168 O 201.99 -5.19364 -1.70068 0
M  V30 2169 H 199.084 -0.774147 -0.290906 0
M  V30 2170 H 201.63 -1.68942 0.160211 0
M  V30 2171 H 200.402 -3.91282 0.0373647 0
M  V30 2172 H 200.025 -3.61661 -1.65188 0
M  V30 2173 N 201.022 0.148545 -1.56898 0
M  V30 2174 C 201.952 1.18524 -2.01182 0
M  V30 2175 C 202.933 1.4489 -0.891123 0
M  V30 2176 O 204.118 1.55836 -1.15882 0
M  V30 2177 C 201.248 2.51879 -2.39112 0
M  V30 2178 C 200.202 2.40038 -3.54353 0
M  V30 2179 C 199.528 3.78089 -3.78091 0
M  V30 2180 C 200.828 1.88577 -4.87069 0
M  V30 2181 H 202.522 0.817029 -2.88036 0
M  V30 2182 H 200.068 0.391575 -1.38574 0
M  V30 2183 H 202.021 3.24627 -2.68692 0
M  V30 2184 H 200.745 2.90532 -1.49193 0
M  V30 2185 H 199.404 1.69742 -3.24936 0
M  V30 2186 H 199.052 4.14175 -2.85426 0
M  V30 2187 H 198.752 3.71028 -4.55645 0
M  V30 2188 H 200.276 4.52387 -4.10095 0
M  V30 2189 H 201.69 2.51117 -5.15377 0
M  V30 2190 H 200.087 1.9241 -5.68417 0
M  V30 2191 H 201.157 0.84136 -4.77545 0
M  V30 2192 N 202.5 1.5196 0.417844 0
M  V30 2193 C 203.448 1.75278 1.52907 0
M  V30 2194 C 204.442 0.619611 1.57662 0
M  V30 2195 O 205.648 0.801457 1.61173 0
M  V30 2196 H 202.023 0.554141 0.508362 0
M  V30 2197 H 203.994 2.68389 1.30422 0
M  V30 2198 C 202.743 1.91262 2.90369 0
M  V30 2199 H 202.066 2.77872 2.8745 0
M  V30 2200 H 203.506 2.11581 3.67436 0
M  V30 2201 C 201.965 0.677431 3.30019 0
M  V30 2202 O 202.495 -0.158799 4.01386 0
M  V30 2203 N 200.701 0.515851 2.85985 0
M  V30 2204 H 200.248 1.19744 2.28077 0
M  V30 2205 H 200.206 -0.309315 3.12875 0
M  V30 2206 N 203.978 -0.674533 1.42435 0
M  V30 2207 C 205.227 -1.43034 1.42212 0
M  V30 2208 C 205.54 -1.95555 0.0420788 0
M  V30 2209 O 206.746 -2.71374 -0.0827558 0
M  V30 2210 C 205.202 -2.58748 2.50155 0
M  V30 2211 C 204.81 -2.12925 3.94166 0
M  V30 2212 C 206.554 -3.36257 2.59098 0
M  V30 2213 C 204.461 -3.25723 4.93618 0
M  V30 2214 H 203.391 -0.537345 0.528939 0
M  V30 2215 H 206.042 -0.73024 1.68344 0
M  V30 2216 H 204.424 -3.31128 2.17188 0
M  V30 2217 H 205.598 -1.47697 4.36488 0
M  V30 2218 H 203.913 -1.48354 3.89076 0
M  V30 2219 H 206.51 -4.20264 3.30578 0
M  V30 2220 H 206.853 -3.82866 1.63461 0
M  V30 2221 H 207.386 -2.70947 2.9126 0
M  V30 2222 H 204.125 -2.84105 5.90732 0
M  V30 2223 H 203.645 -3.89732 4.55926 0
M  V30 2224 H 205.324 -3.91186 5.15347 0
M  V30 2225 N 205.456 -1.28612 -0.910864 0
M  V30 2226 C 206.419 -1.12803 -1.9952 0
M  V30 2227 C 207.419 -0.0668264 -1.60661 0
M  V30 2228 O 208.609 -0.312847 -1.71368 0
M  V30 2229 C 205.741 -0.72254 -3.33155 0
M  V30 2230 H 206.934 -2.09109 -2.14973 0
M  V30 2231 H 204.487 -1.11639 -1.09391 0
M  V30 2232 H 205.222 0.241152 -3.23402 0
M  V30 2233 H 205.007 -1.48916 -3.62721 0
M  V30 2234 H 206.497 -0.634666 -4.12749 0
M  V30 2235 N 206.934 1.1197 -1.10907 0
M  V30 2236 C 207.881 2.17846 -0.762345 0
M  V30 2237 C 208.851 1.63995 0.263599 0
M  V30 2238 O 210.036 1.90273 0.141773 0
M  V30 2239 C 207.176 3.44487 -0.205651 0
M  V30 2240 C 206.289 4.12369 -1.28748 0
M  V30 2241 C 205.424 5.26674 -0.691919 0
M  V30 2242 C 204.463 5.86431 -1.75399 0
M  V30 2243 N 203.6 6.92142 -1.17833 0
M  V30 2244 H 208.44 2.46851 -1.6694 0
M  V30 2245 H 205.977 1.21188 -0.833776 0
M  V30 2246 H 207.935 4.16981 0.135037 0
M  V30 2247 H 206.565 3.15884 0.664613 0
M  V30 2248 H 205.617 3.38003 -1.74522 0
M  V30 2249 H 206.929 4.52844 -2.09125 0
M  V30 2250 H 206.083 6.05953 -0.300963 0
M  V30 2251 H 204.822 4.8749 0.143232 0
M  V30 2252 H 203.827 5.05835 -2.15432 0
M  V30 2253 H 205.052 6.27685 -2.59208 0
M  V30 2254 H 202.998 6.54985 -0.364725 0
M  V30 2255 H 202.915 7.31242 -1.91887 0
M  V30 2256 H 204.183 7.75237 -0.81408 0
M  V30 2257 N 208.412 0.89855 1.29475 0
M  V30 2258 C 209.359 0.373819 2.27753 0
M  V30 2259 C 210.329 -0.543444 1.56958 0
M  V30 2260 O 211.514 -0.468934 1.84948 0
M  V30 2261 C 208.654 -0.393648 3.42848 0
M  V30 2262 C 207.767 0.554379 4.28428 0
M  V30 2263 C 206.902 -0.230026 5.30702 0
M  V30 2264 C 205.941 0.712599 6.07938 0
M  V30 2265 N 205.078 -0.0373283 7.0209 0
M  V30 2266 H 209.918 1.21699 2.72017 0
M  V30 2267 H 207.455 0.611456 1.33789 0
M  V30 2268 H 209.413 -0.85466 4.08352 0
M  V30 2269 H 208.043 -1.20128 2.99615 0
M  V30 2270 H 207.095 1.13391 3.63107 0
M  V30 2271 H 208.407 1.27597 4.82204 0
M  V30 2272 H 207.561 -0.752288 6.02018 0
M  V30 2273 H 206.3 -0.984758 4.77654 0
M  V30 2274 H 205.305 1.24637 5.35486 0
M  V30 2275 H 206.53 1.46664 6.63074 0
M  V30 2276 H 204.476 -0.774348 6.51414 0
M  V30 2277 H 204.393 0.624374 7.53417 0
M  V30 2278 H 205.661 -0.539891 7.77628 0
M  V30 2279 N 209.89 -1.43072 0.660911 0
M  V30 2280 C 210.82 -2.33497 -0.0122829 0
M  V30 2281 C 211.801 -1.49903 -0.803925 0
M  V30 2282 O 212.986 -1.78546 -0.763864 0
M  V30 2283 C 210.116 -3.33363 -0.973994 0
M  V30 2284 C 209.07 -4.27003 -0.291928 0
M  V30 2285 C 208.396 -5.16967 -1.36562 0
M  V30 2286 C 209.696 -5.15816 0.820462 0
M  V30 2287 H 211.39 -2.90038 0.742873 0
M  V30 2288 H 208.936 -1.39461 0.358688 0
M  V30 2289 H 210.889 -3.95524 -1.45392 0
M  V30 2290 H 209.613 -2.75095 -1.7604 0
M  V30 2291 H 208.272 -3.66217 0.167623 0
M  V30 2292 H 207.92 -4.55034 -2.14366 0
M  V30 2293 H 207.62 -5.80441 -0.914454 0
M  V30 2294 H 209.144 -5.82003 -1.84675 0
M  V30 2295 H 210.558 -5.71742 0.422366 0
M  V30 2296 H 208.955 -5.8805 1.19656 0
M  V30 2297 H 210.025 -4.55045 1.67518 0
M  V30 2298 N 211.368 -0.403325 -1.52352 0
M  V30 2299 C 212.784 -0.0539281 -1.59509 0
M  V30 2300 C 212.984 1.43307 -1.41652 0
M  V30 2301 O 212.04 2.19924 -1.24056 0
M  V30 2302 C 213.353 -0.543654 -2.95745 0
M  V30 2303 C 214.901 -0.501125 -3.08962 0
M  V30 2304 C 215.376 -0.967267 -4.47669 0
M  V30 2305 N 216.867 -0.923849 -4.53893 0
M  V30 2306 C 217.602 -1.25578 -5.5948 0
M  V30 2307 N 217.098 -1.65889 -6.72646 0
M  V30 2308 N 218.891 -1.17613 -5.49658 0
M  V30 2309 H 211.042 -1.37123 -1.62206 0
M  V30 2310 H 213.305 -0.56294 -0.76276 0
M  V30 2311 H 213.011 -1.58275 -3.14073 0
M  V30 2312 H 212.885 0.0498042 -3.77167 0
M  V30 2313 H 215.272 0.528909 -2.90321 0
M  V30 2314 H 215.353 -1.13056 -2.2946 0
M  V30 2315 H 214.997 -1.9956 -4.67053 0
M  V30 2316 H 214.927 -0.314698 -5.25659 0
M  V30 2317 H 217.418 -0.627403 -3.72655 0
M  V30 2318 H 217.731 -1.89543 -7.49195 0
M  V30 2319 H 216.076 -1.69787 -6.73942 0
M  V30 2320 H 219.267 -0.860115 -4.6013 0
M  V30 2321 H 219.44 -1.43812 -6.3184 0
M  V30 2322 N 212.846 1.57033 -0.133567 0
M  V30 2323 C 214.262 1.58035 0.222944 0
M  V30 2324 C 214.462 1.14713 1.6566 0
M  V30 2325 O 213.518 0.841218 2.38075 0
M  V30 2326 C 214.831 3.00691 -0.0236116 0
M  V30 2327 C 216.379 3.12973 0.0411512 0
M  V30 2328 C 216.854 4.57654 -0.177899 0
M  V30 2329 N 218.345 4.63033 -0.124365 0
M  V30 2330 C 219.08 5.72771 -0.268553 0
M  V30 2331 N 218.576 6.91206 -0.46972 0
M  V30 2332 N 220.369 5.61718 -0.2071 0
M  V30 2333 H 212.52 1.8349 -1.06981 0
M  V30 2334 H 214.783 0.848677 -0.422436 0
M  V30 2335 H 214.489 3.36726 -1.0153 0
M  V30 2336 H 214.363 3.70614 0.701808 0
M  V30 2337 H 216.75 2.76787 1.02338 0
M  V30 2338 H 216.831 2.45564 -0.716383 0
M  V30 2339 H 216.475 4.94542 -1.15717 0
M  V30 2340 H 216.405 5.23173 0.599797 0
M  V30 2341 H 218.896 3.7789 0.027011 0
M  V30 2342 H 219.209 7.70693 -0.570212 0
M  V30 2343 H 217.554 6.93156 -0.505876 0
M  V30 2344 H 220.745 4.68072 -0.0507986 0
M  V30 2345 H 220.918 6.47195 -0.322909 0
M  V30 2346 N 214.325 -0.140222 1.56975 0
M  V30 2347 C 215.257 -1.19818 1.95388 0
M  V30 2348 C 216.27 -1.38816 0.850525 0
M  V30 2349 O 217.459 -1.38267 1.12891 0
M  V30 2350 C 214.559 -2.56189 2.21857 0
M  V30 2351 C 213.732 -2.58077 3.5315 0
M  V30 2352 C 212.791 -3.76037 3.6808 0
M  V30 2353 O 211.817 -3.60598 4.40406 0
M  V30 2354 N 213.019 -4.93763 3.05251 0
M  V30 2355 H 215.784 -0.871609 2.86746 0
M  V30 2356 H 213.345 -0.32972 1.58507 0
M  V30 2357 H 215.337 -3.33623 2.2908 0
M  V30 2358 H 213.907 -2.81111 1.36731 0
M  V30 2359 H 213.127 -1.6651 3.57307 0
M  V30 2360 H 214.415 -2.56377 4.39486 0
M  V30 2361 H 213.813 -5.09209 2.46419 0
M  V30 2362 H 212.37 -5.68949 3.18026 0
M  V30 2363 N 215.803 -1.52179 -0.40978 0
M  V30 2364 C 217.05 -1.66206 -1.15679 0
M  V30 2365 C 217.378 -0.391674 -1.90516 0
M  V30 2366 O 216.633 0.62533 -1.8544 0
M  V30 2367 C 216.932 -2.83428 -2.17723 0
M  V30 2368 C 216.598 -4.21672 -1.59699 0
M  V30 2369 C 215.26 -4.59274 -1.43599 0
M  V30 2370 C 217.612 -5.07825 -1.17317 0
M  V30 2371 C 214.94 -5.80709 -0.836328 0
M  V30 2372 C 217.292 -6.29864 -0.587691 0
M  V30 2373 C 215.956 -6.66216 -0.413818 0
M  V30 2374 H 215.226 -0.608192 -0.423301 0
M  V30 2375 H 217.873 -1.86279 -0.444097 0
M  V30 2376 H 216.178 -2.57687 -2.95135 0
M  V30 2377 H 217.875 -2.91477 -2.75394 0
M  V30 2378 H 214.465 -3.9204 -1.73213 0
M  V30 2379 H 218.649 -4.79359 -1.28565 0
M  V30 2380 H 213.905 -6.07498 -0.689626 0
M  V30 2381 H 218.079 -6.95948 -0.250894 0
M  V30 2382 H 215.706 -7.60182 0.0529471 0
M  V30 2383 O 217.32 0.555659 -1.5164 0
M  V30 2384 H 218.011 1.21079 -1.51194 0
M  V30 END ATOM
M  V30 BEGIN BOND
M  V30 END BOND
M  V30 END CTAB
M  END
$$$$
