drugbank_target|Q99873 Protein arginine N-methyltransferase 1 (DB01752)
 OpenBabel12092120563D

  0  0  0     0  0            999 V3000
M  V30 BEGIN CTAB
M  V30 COUNTS 5779 5846 0 0 0
M  V30 BEGIN ATOM
M  V30 1 H -0.908 1.98254 -0.117106 0
M  V30 2 N 0 1.576 0 0
M  V30 3 C 0.933 2.03868 1.02534 0
M  V30 4 C 1.911 0.928543 1.3348 0
M  V30 5 O 3.095 1.19667 1.45644 0
M  V30 6 C 0.222 2.43627 2.35294 0
M  V30 7 C -0.732 3.65373 2.2001 0
M  V30 8 S 0.101 5.13292 1.52614 0
M  V30 9 C 1.257 5.56322 2.86805 0
M  V30 10 H 1.49 2.90518 0.631377 0
M  V30 11 H -0.977 1.52953 0.210867 0
M  V30 12 H 0.981 2.67203 3.11629 0
M  V30 13 H -0.358 1.57376 2.7183 0
M  V30 14 H -1.165 3.90944 3.18086 0
M  V30 15 H -1.563 3.418 1.51819 0
M  V30 16 H 0.729 5.58782 3.83104 0
M  V30 17 H 1.672 6.56266 2.65933 0
M  V30 18 H 2.08 4.83886 2.90714 0
M  V30 19 N 1.4781 -0.272755 1.55222 0
M  V30 20 C 2.3881 -1.35918 1.91216 0
M  V30 21 C 3.4041 -1.54026 0.809436 0
M  V30 22 O 4.5801 -1.68148 1.10852 0
M  V30 23 C 1.6451 -2.69834 2.17693 0
M  V30 24 C 0.7061 -2.6047 3.41253 0
M  V30 25 C -0.0609 -3.88 3.66458 0
M  V30 26 O 0.1621 -4.88693 2.94169 0
M  V30 27 O -0.9039 -3.88189 4.59992 0
M  V30 28 H 2.9221 -1.0839 2.83699 0
M  V30 29 H 0.5071 -0.471301 1.41771 0
M  V30 30 H 2.3891 -3.49017 2.36147 0
M  V30 31 H 1.0641 -2.97148 1.28392 0
M  V30 32 H -0.0289 -1.79663 3.28134 0
M  V30 33 H 1.3041 -2.38106 4.30774 0
M  V30 34 N 2.9562 -1.48159 -0.537278 0
M  V30 35 C 3.9042 -1.62573 -1.66352 0
M  V30 36 C 4.8982 -0.492366 -1.62087 0
M  V30 37 O 6.1042 -0.670847 -1.67032 0
M  V30 38 H 2.4792 -0.511992 -0.550789 0
M  V30 39 H 4.4502 -2.57176 -1.51337 0
M  V30 40 C 3.1992 -1.67583 -3.04649 0
M  V30 41 H 2.5222 -2.54151 -3.08622 0
M  V30 42 H 3.9622 -1.81713 -3.83088 0
M  V30 43 C 2.4212 -0.413039 -3.34358 0
M  V30 44 O 2.9512 0.477259 -3.98855 0
M  V30 45 N 1.1572 -0.286961 -2.8918 0
M  V30 46 H 0.7042 -1.01241 -2.36871 0
M  V30 47 H 0.6622 0.556963 -3.09427 0
M  V30 48 N 4.4343 0.785586 -1.36625 0
M  V30 49 C 5.6813 1.54362 -1.31067 0
M  V30 50 C 6.0093 1.94195 0.10893 0
M  V30 51 O 5.2643 1.63262 1.07908 0
M  V30 52 C 5.5633 2.83007 -2.1827 0
M  V30 53 C 5.2293 2.62294 -3.6676 0
M  V30 54 C 3.8913 2.56353 -4.0723 0
M  V30 55 C 6.2433 2.43371 -4.6089 0
M  V30 56 C 3.5713 2.29461 -5.39967 0
M  V30 57 C 5.9233 2.18005 -5.93849 0
M  V30 58 C 4.5873 2.105 -6.3344 0
M  V30 59 H 3.8573 0.564851 -0.479609 0
M  V30 60 H 6.5043 0.906028 -1.68711 0
M  V30 61 H 4.8093 3.51253 -1.73576 0
M  V30 62 H 6.5063 3.40817 -2.11292 0
M  V30 63 H 3.0963 2.67774 -3.34656 0
M  V30 64 H 7.2803 2.46959 -4.30494 0
M  V30 65 H 2.5363 2.22135 -5.69619 0
M  V30 66 H 6.7103 2.02359 -6.66351 0
M  V30 67 H 4.3373 1.89425 -7.36222 0
M  V30 68 N 5.9124 1.20967 1.01018 0
M  V30 69 C 7.1584 1.02526 1.74975 0
M  V30 70 C 7.4914 -0.4408 1.89131 0
M  V30 71 O 6.7664 -1.32718 1.42184 0
M  V30 72 C 7.0494 1.71699 3.1653 0
M  V30 73 C 6.9024 3.25791 3.10129 0
M  V30 74 C 8.2214 1.45531 4.15342 0
M  V30 75 H 5.3404 0.373863 0.635134 0
M  V30 76 H 7.9824 1.49071 1.17805 0
M  V30 77 H 6.1324 1.32128 3.65341 0
M  V30 78 H 7.8044 3.74697 2.69072 0
M  V30 79 H 6.0474 3.56363 2.47362 0
M  V30 80 H 6.7184 3.69353 4.10222 0
M  V30 81 H 9.1944 1.79872 3.75213 0
M  V30 82 H 8.0704 1.96453 5.1254 0
M  V30 83 H 8.3314 0.384237 4.40427 0
M  V30 84 N 7.3905 -1.2043 1.01659 0
M  V30 85 C 8.3535 -2.21433 0.591616 0
M  V30 86 C 9.3535 -1.57203 -0.338226 0
M  V30 87 O 10.5435 -1.73737 -0.126918 0
M  V30 88 C 7.6755 -3.40628 -0.136058 0
M  V30 89 H 8.8685 -2.60545 1.48514 0
M  V30 90 H 6.4215 -1.33893 0.806379 0
M  V30 91 H 7.1565 -3.07019 -1.04449 0
M  V30 92 H 6.9415 -3.88475 0.531917 0
M  V30 93 H 8.4315 -4.15475 -0.420735 0
M  V30 94 N 8.8686 -0.792821 -1.36206 0
M  V30 95 C 10.0966 -0.378825 -2.03402 0
M  V30 96 C 10.5116 1.00586 -1.59774 0
M  V30 97 O 9.8686 1.64574 -0.788764 0
M  V30 98 C 9.9196 -0.43683 -3.58851 0
M  V30 99 O 9.6406 -1.76691 -4.00889 0
M  V30 100 C 11.1416 -0.0138943 -4.43298 0
M  V30 101 H 8.3616 -0.155673 -0.652692 0
M  V30 102 H 10.9056 -1.07261 -1.74113 0
M  V30 103 H 9.0606 0.208575 -3.86838 0
M  V30 104 H 9.4746 -1.72011 -4.95492 0
M  V30 105 H 10.9486 -0.105615 -5.51899 0
M  V30 106 H 11.4256 1.03915 -4.2673 0
M  V30 107 H 12.0316 -0.63192 -4.20579 0
M  V30 108 N 10.3467 1.47872 -0.545128 0
M  V30 109 C 11.2767 2.32661 0.197793 0
M  V30 110 C 12.2577 1.43041 0.920504 0
M  V30 111 O 13.4427 1.71912 0.90333 0
M  V30 112 C 10.5727 3.24569 1.23582 0
M  V30 113 C 9.5267 4.23333 0.630323 0
M  V30 114 C 8.8527 5.0448 1.77211 0
M  V30 115 C 10.1527 5.20704 -0.407974 0
M  V30 116 H 11.8467 2.95024 -0.510045 0
M  V30 117 H 9.3927 1.4187 -0.246731 0
M  V30 118 H 11.3457 3.8272 1.76362 0
M  V30 119 H 10.0697 2.60236 1.97344 0
M  V30 120 H 8.7287 3.6639 0.123922 0
M  V30 121 H 8.3767 4.36561 2.49847 0
M  V30 122 H 8.0767 5.71339 1.37281 0
M  V30 123 H 9.6007 5.65487 2.3034 0
M  V30 124 H 11.0147 5.7329 0.033305 0
M  V30 125 H 9.4117 5.95699 -0.725486 0
M  V30 126 H 10.4817 4.66917 -1.30828 0
M  V30 127 N 11.8248 0.280983 1.55075 0
M  V30 128 C 12.7878 -0.590896 2.21452 0
M  V30 129 C 13.7878 -1.07682 1.19421 0
M  V30 130 O 14.9778 -0.97605 1.44288 0
M  V30 131 C 12.1098 -1.81587 2.88511 0
M  V30 132 H 13.3028 -0.0112554 2.99898 0
M  V30 133 H 10.8558 0.0316438 1.56268 0
M  V30 134 H 11.5908 -2.43587 2.14093 0
M  V30 135 H 11.3758 -1.4753 3.63287 0
M  V30 136 H 12.8658 -2.43575 3.39206 0
M  V30 137 N 13.3029 -1.57598 0.00835791 0
M  V30 138 C 14.2509 -2.10078 -0.998508 0
M  V30 139 C 15.2449 -1.02262 -1.35051 0
M  V30 140 O 16.4509 -1.20719 -1.33518 0
M  V30 141 H 12.8259 -0.670903 -0.339696 0
M  V30 142 H 14.7969 -2.93648 -0.530398 0
M  V30 143 C 13.5459 -2.62615 -2.27879 0
M  V30 144 H 12.8689 -3.45213 -2.01662 0
M  V30 145 H 14.3089 -3.03004 -2.96588 0
M  V30 146 C 12.7679 -1.54407 -2.99433 0
M  V30 147 O 13.2979 -0.931812 -3.90743 0
M  V30 148 N 11.5039 -1.2695 -2.61404 0
M  V30 149 H 11.0509 -1.76924 -1.87232 0
M  V30 150 H 11.0089 -0.547704 -3.09593 0
M  V30 151 N 14.781 0.264519 -1.55364 0
M  V30 152 C 16.029 0.993021 -1.76021 0
M  V30 153 C 16.35 1.86511 -0.569099 0
M  V30 154 O 15.62 1.91438 0.415735 0
M  V30 155 H 14.2 0.369639 -0.649135 0
M  V30 156 H 16.862 0.286707 -1.9278 0
M  V30 157 H 15.958 1.62502 -2.66457 0
M  V30 158 N 16.2591 1.48442 0.529413 0
M  V30 159 C 17.1921 1.57577 1.65059 0
M  V30 160 C 18.1701 0.426198 1.56915 0
M  V30 161 O 19.3541 0.637877 1.77379 0
M  V30 162 C 16.4811 1.5043 3.03461 0
M  V30 163 C 15.5271 2.70235 3.29962 0
M  V30 164 S 16.3601 4.32198 3.16172 0
M  V30 165 C 17.5161 4.2765 4.57019 0
M  V30 166 H 17.7491 2.52427 1.5706 0
M  V30 167 H 15.2821 1.36982 0.712417 0
M  V30 168 H 17.2401 1.46992 3.8328 0
M  V30 169 H 15.9011 0.569167 3.089 0
M  V30 170 H 15.0941 2.61374 4.30929 0
M  V30 171 H 14.6961 2.70938 2.57815 0
M  V30 172 H 16.9881 3.97618 5.48549 0
M  V30 173 H 17.9311 5.28797 4.70934 0
M  V30 174 H 18.3391 3.5811 4.36368 0
M  V30 175 N 17.7372 -0.778329 1.37039 0
M  V30 176 C 18.9622 -1.57248 1.35233 0
M  V30 177 C 19.3872 -1.87999 -0.0615568 0
M  V30 178 O 18.7452 -1.48734 -1.03672 0
M  V30 179 C 18.7932 -2.86353 2.19167 0
M  V30 180 O 17.8972 -3.80442 1.59178 0
M  V30 181 H 17.2382 -0.476569 0.462362 0
M  V30 182 H 19.7682 -0.963853 1.80474 0
M  V30 183 H 19.7782 -3.35519 2.32145 0
M  V30 184 H 18.4532 -2.63299 3.21942 0
M  V30 185 H 17.0302 -3.39067 1.55203 0
M  V30 186 N 19.2153 -1.21501 -1.00376 0
M  V30 187 C 20.1453 -0.999478 -2.11028 0
M  V30 188 C 21.1263 0.0759671 -1.6993 0
M  V30 189 O 22.3113 -0.0841106 -1.94018 0
M  V30 190 C 19.4413 -0.564709 -3.42678 0
M  V30 191 C 18.3953 -1.58486 -3.97576 0
M  V30 192 C 17.7213 -1.00628 -5.25146 0
M  V30 193 C 19.0213 -2.97204 -4.29496 0
M  V30 194 H 20.7153 -1.92495 -2.29317 0
M  V30 195 H 18.2613 -0.92693 -1.102 0
M  V30 196 H 20.2143 -0.401091 -4.19487 0
M  V30 197 H 18.9383 0.396411 -3.24185 0
M  V30 198 H 17.5973 -1.73606 -3.22888 0
M  V30 199 H 17.2453 -0.0368439 -5.02987 0
M  V30 200 H 16.9453 -1.68771 -5.62841 0
M  V30 201 H 18.4693 -0.854015 -6.04598 0
M  V30 202 H 19.8833 -2.8552 -4.97143 0
M  V30 203 H 18.2803 -3.62372 -4.78338 0
M  V30 204 H 19.3503 -3.47956 -3.3772 0
M  V30 205 N 20.6934 1.19889 -1.02296 0
M  V30 206 C 21.6254 2.22334 -0.556787 0
M  V30 207 C 22.6384 1.58674 0.364199 0
M  V30 208 O 23.8274 1.77768 0.161533 0
M  V30 209 C 20.9274 3.38257 0.208694 0
M  V30 210 C 20.1004 4.31504 -0.71577 0
M  V30 211 C 19.1594 5.262 0.00325597 0
M  V30 212 O 18.1854 5.65798 -0.621357 0
M  V30 213 N 19.3874 5.66303 1.27599 0
M  V30 214 H 22.1524 2.62957 -1.43784 0
M  V30 215 H 19.7134 1.34495 -0.901261 0
M  V30 216 H 21.7054 3.98616 0.699111 0
M  V30 217 H 20.2754 2.96472 0.991102 0
M  V30 218 H 19.4954 3.69016 -1.38638 0
M  V30 219 H 20.7834 4.9072 -1.34428 0
M  V30 220 H 20.1814 5.36155 1.80429 0
M  V30 221 H 18.7384 6.28942 1.71102 0
M  V30 222 N 22.1715 0.800033 1.35784 0
M  V30 223 C 23.5825 0.439142 1.81462 0
M  V30 224 C 23.9335 -1.03813 1.66485 0
M  V30 225 O 23.0585 -1.80626 1.19177 0
M  V30 226 C 23.6535 0.790314 3.29453 0
M  V30 227 C 22.2125 0.482111 3.733 0
M  V30 228 C 21.3595 1.01938 2.57883 0
M  V30 229 H 24.3105 0.992254 1.23855 0
M  V30 230 H 24.3315 0.0853677 3.80404 0
M  V30 231 H 23.8435 1.86554 3.40322 0
M  V30 232 H 21.9445 -0.584652 3.67984 0
M  V30 233 H 22.0575 1.01015 4.6833 0
M  V30 234 H 20.4215 0.442043 2.50835 0
M  V30 235 H 21.2045 2.10059 2.71533 0
M  V30 236 N 23.6496 -1.47581 0.552962 0
M  V30 237 C 25.0606 -1.86324 0.118463 0
M  V30 238 C 25.4116 -1.46006 -1.3106 0
M  V30 239 O 24.5366 -0.861182 -1.98526 0
M  V30 240 C 25.1316 -3.3816 0.20821 0
M  V30 241 C 23.6906 -3.7601 -0.171226 0
M  V30 242 C 22.8376 -2.71634 0.557686 0
M  V30 243 H 25.7886 -1.39159 0.762928 0
M  V30 244 H 25.8096 -3.76141 -0.574278 0
M  V30 245 H 25.3216 -3.67473 1.24841 0
M  V30 246 H 23.4226 -3.52313 -1.21269 0
M  V30 247 H 23.5356 -4.78745 0.184379 0
M  V30 248 H 21.8996 -2.547 0.00125792 0
M  V30 249 H 22.6826 -3.0379 1.59896 0
M  V30 250 N 25.1277 -0.289203 -1.54924 0
M  V30 251 C 26.0577 0.58549 -2.2604 0
M  V30 252 C 27.0387 1.14753 -1.25562 0
M  V30 253 O 28.2237 1.17906 -1.54311 0
M  V30 254 C 25.3537 1.76305 -2.99222 0
M  V30 255 C 24.3077 1.33191 -4.06748 0
M  V30 256 C 23.6337 2.5937 -4.6758 0
M  V30 257 C 24.9337 0.471775 -5.20165 0
M  V30 258 H 26.6277 -0.00763532 -2.99399 0
M  V30 259 H 24.1737 -0.00511229 -1.43999 0
M  V30 260 H 26.1267 2.38097 -3.47689 0
M  V30 261 H 24.8507 2.38223 -2.23422 0
M  V30 262 H 23.5097 0.737121 -3.59113 0
M  V30 263 H 23.1577 3.19576 -3.88433 0
M  V30 264 H 22.8577 2.31228 -5.40192 0
M  V30 265 H 24.3817 3.21985 -5.18804 0
M  V30 266 H 25.7957 0.995056 -5.64599 0
M  V30 267 H 24.1927 0.284639 -5.99425 0
M  V30 268 H 25.2627 -0.506041 -4.82252 0
M  V30 269 N 26.6058 1.57591 -0.0167156 0
M  V30 270 C 27.5158 2.1291 0.98521 0
M  V30 271 C 28.5318 1.07834 1.36557 0
M  V30 272 O 29.7078 1.39826 1.44951 0
M  V30 273 C 26.7728 2.63512 2.25305 0
M  V30 274 C 25.8338 3.83256 1.93426 0
M  V30 275 C 25.0668 4.31435 3.14165 0
M  V30 276 O 25.2898 3.78851 4.26413 0
M  V30 277 O 24.2238 5.23416 2.97186 0
M  V30 278 H 28.0498 2.98772 0.544888 0
M  V30 279 H 25.6348 1.48012 0.203141 0
M  V30 280 H 27.5168 2.96183 2.99756 0
M  V30 281 H 26.1918 1.8074 2.68542 0
M  V30 282 H 25.0988 3.55531 1.16398 0
M  V30 283 H 26.4318 4.67153 1.55013 0
M  V30 284 N 28.0839 -0.256276 1.55502 0
M  V30 285 C 28.9939 -1.33882 1.92647 0
M  V30 286 C 30.0099 -1.53159 0.825727 0
M  V30 287 O 31.1859 -1.66963 1.12629 0
M  V30 288 C 28.2509 -2.6751 2.20543 0
M  V30 289 C 27.3119 -2.56836 3.43997 0
M  V30 290 C 26.5449 -3.84092 3.70553 0
M  V30 291 O 26.7679 -4.85545 2.99336 0
M  V30 292 O 25.7019 -3.83288 4.64084 0
M  V30 293 H 29.5279 -1.05374 2.84833 0
M  V30 294 H 27.1129 -0.456237 1.42263 0
M  V30 295 H 28.9949 -3.46492 2.39835 0
M  V30 296 H 27.6699 -2.9577 1.31536 0
M  V30 297 H 26.5769 -1.76172 3.30021 0
M  V30 298 H 27.9099 -2.33523 4.33275 0
M  V30 299 N 29.562 -1.4872 -0.521534 0
M  V30 300 C 30.808 -1.574 -1.27879 0
M  V30 301 C 31.141 -0.250817 -1.92573 0
M  V30 302 O 30.416 0.743934 -1.79711 0
M  V30 303 C 30.699 -2.71843 -2.36164 0
M  V30 304 C 30.552 -4.13893 -1.76105 0
M  V30 305 C 31.871 -2.82008 -3.37875 0
M  V30 306 H 28.99 -0.572941 -0.463581 0
M  V30 307 H 31.632 -1.80927 -0.580119 0
M  V30 308 H 29.782 -2.51914 -2.95756 0
M  V30 309 H 31.454 -4.45284 -1.20499 0
M  V30 310 H 29.697 -4.20498 -1.06601 0
M  V30 311 H 30.368 -4.89804 -2.5455 0
M  V30 312 H 32.844 -3.00086 -2.88249 0
M  V30 313 H 31.72 -3.63796 -4.11028 0
M  V30 314 H 31.981 -1.90511 -3.98946 0
M  V30 315 N 31.0401 0.771051 -1.3745 0
M  V30 316 C 32.2651 1.56529 -1.36065 0
M  V30 317 C 32.6901 1.88029 0.0515859 0
M  V30 318 O 32.0481 1.49282 1.02882 0
M  V30 319 C 32.0961 2.85187 -2.20683 0
M  V30 320 O 31.2001 3.79593 -1.61193 0
M  V30 321 H 30.5411 0.47411 -0.464883 0
M  V30 322 H 33.0711 0.954269 -1.80983 0
M  V30 323 H 33.0811 3.34283 -2.33921 0
M  V30 324 H 31.7561 2.61588 -3.23334 0
M  V30 325 H 30.3331 3.38239 -1.56999 0
M  V30 326 N 32.5182 1.22032 0.997298 0
M  V30 327 C 33.7582 1.05375 1.75144 0
M  V30 328 C 34.1222 -0.404696 1.87686 0
M  V30 329 O 35.3232 -0.691998 2.5974 0
M  V30 330 C 33.5942 1.74046 3.12158 0
M  V30 331 S 35.1532 1.72745 4.03366 0
M  V30 332 H 31.9712 0.377449 0.602539 0
M  V30 333 H 34.5732 1.54902 1.19272 0
M  V30 334 H 33.2772 2.79332 3.00669 0
M  V30 335 H 32.8082 1.24731 3.73103 0
M  V30 336 H 34.8232 0.774015 4.90126 0
M  V30 337 N 33.9963 -1.19345 1.0293 0
M  V30 338 C 35.2443 -1.88665 0.724574 0
M  V30 339 C 35.5653 -1.80036 -0.749144 0
M  V30 340 O 34.8353 -1.2111 -1.53978 0
M  V30 341 H 33.4153 -0.698406 0.265025 0
M  V30 342 H 36.0773 -1.44885 1.30362 0
M  V30 343 H 35.1733 -2.94987 1.01926 0
M  V30 344 N 35.4744 -0.807222 -1.35358 0
M  V30 345 C 36.4064 -0.175717 -2.28525 0
M  V30 346 C 37.4194 0.625354 -1.5031 0
M  V30 347 O 38.6084 0.457611 -1.72535 0
M  V30 348 C 35.7084 0.773471 -3.29956 0
M  V30 349 C 34.8814 0.0186296 -4.37396 0
M  V30 350 C 33.9404 0.886395 -5.18681 0
M  V30 351 O 32.9664 0.337106 -5.68201 0
M  V30 352 N 34.1684 2.20839 -5.36852 0
M  V30 353 H 36.9334 -0.976091 -2.83359 0
M  V30 354 H 34.4944 -0.662737 -1.47714 0
M  V30 355 H 36.4864 1.35824 -3.81227 0
M  V30 356 H 35.0564 1.47465 -2.75632 0
M  V30 357 H 34.2764 -0.747349 -3.87051 0
M  V30 358 H 35.5644 -0.501577 -5.06322 0
M  V30 359 H 34.9624 2.67858 -4.98265 0
M  V30 360 H 33.5194 2.74237 -5.91301 0
M  V30 361 N 36.9525 1.47285 -0.560781 0
M  V30 362 C 37.9155 2.28535 0.174488 0
M  V30 363 C 38.9155 1.37153 0.839388 0
M  V30 364 O 40.1055 1.59748 0.694702 0
M  V30 365 C 37.2375 3.16934 1.25561 0
M  V30 366 H 38.4305 2.95012 -0.539262 0
M  V30 367 H 35.9835 1.53034 -0.317865 0
M  V30 368 H 36.7185 2.55157 2.00164 0
M  V30 369 H 36.5035 3.8419 0.783604 0
M  V30 370 H 37.9935 3.78143 1.77193 0
M  V30 371 N 38.4306 0.297415 1.54768 0
M  V30 372 C 39.3406 -0.58983 2.27064 0
M  V30 373 C 40.3566 -1.15144 1.30453 0
M  V30 374 O 41.5326 -1.17699 1.63428 0
M  V30 375 C 38.5976 -1.74714 2.9946 0
M  V30 376 C 37.6586 -1.21997 4.11601 0
M  V30 377 C 36.8916 -2.32212 4.80535 0
M  V30 378 O 37.1146 -3.52036 4.48806 0
M  V30 379 O 36.0486 -1.99106 5.68014 0
M  V30 380 H 39.8746 -0.00348199 3.037 0
M  V30 381 H 37.4596 0.0640035 1.49263 0
M  V30 382 H 39.3416 -2.42147 3.44881 0
M  V30 383 H 38.0166 -2.32016 2.25722 0
M  V30 384 H 36.9236 -0.511458 3.70587 0
M  V30 385 H 38.2566 -0.692419 4.87305 0
M  V30 386 N 39.9087 -1.5758 0.0250728 0
M  V30 387 C 41.1337 -1.96337 -0.668317 0
M  V30 388 C 41.5587 -0.901314 -1.651 0
M  V30 389 O 40.9167 0.138187 -1.80773 0
M  V30 390 C 40.9647 -3.34191 -1.35457 0
M  V30 391 O 40.0687 -3.30269 -2.46974 0
M  V30 392 H 39.4097 -0.640281 -0.175887 0
M  V30 393 H 41.9397 -2.0442 0.0857224 0
M  V30 394 H 41.9497 -3.70331 -1.71228 0
M  V30 395 H 40.6247 -4.11036 -0.634218 0
M  V30 396 H 39.2017 -3.05841 -2.13344 0
M  V30 397 N 41.3868 0.248026 -1.55636 0
M  V30 398 C 42.6118 0.998028 -1.81808 0
M  V30 399 C 43.0368 1.78207 -0.601979 0
M  V30 400 O 42.3948 1.75653 0.448961 0
M  V30 401 C 42.4428 1.9125 -3.05705 0
M  V30 402 O 41.5468 3.00406 -2.82542 0
M  V30 403 H 40.8878 0.284045 -0.600179 0
M  V30 404 H 43.4178 0.269357 -2.02819 0
M  V30 405 H 43.4278 2.32737 -3.35108 0
M  V30 406 H 42.1028 1.33602 -3.93857 0
M  V30 407 H 40.6798 2.63056 -2.64303 0
M  V30 408 N 42.8649 1.48995 0.513639 0
M  V30 409 C 43.7749 1.67443 1.64317 0
M  V30 410 C 44.7909 0.556947 1.64846 0
M  V30 411 O 45.9669 0.830082 1.83498 0
M  V30 412 C 43.0319 1.72515 3.00732 0
M  V30 413 C 42.0929 2.96009 3.1093 0
M  V30 414 C 41.3259 3.00829 4.40837 0
M  V30 415 O 41.5489 2.13594 5.28898 0
M  V30 416 O 40.4829 3.93168 4.55744 0
M  V30 417 H 44.3089 2.63106 1.51687 0
M  V30 418 H 41.8939 1.32588 0.688543 0
M  V30 419 H 43.7759 1.78277 3.81831 0
M  V30 420 H 42.4509 0.800278 3.13651 0
M  V30 421 H 41.3579 2.9577 2.29065 0
M  V30 422 H 42.6909 3.87934 3.02933 0
M  V30 423 N 44.343 -0.763751 1.37857 0
M  V30 424 C 45.29 -1.87726 1.34267 0
M  V30 425 C 46.26 -1.64807 0.206879 0
M  V30 426 O 47.445 -1.86613 0.397508 0
M  V30 427 C 44.585 -3.24896 1.16346 0
M  V30 428 C 43.698 -3.59716 2.39225 0
M  V30 429 C 42.833 -4.86137 2.14114 0
M  V30 430 C 41.872 -5.13711 3.32817 0
M  V30 431 N 41.009 -6.31323 3.07206 0
M  V30 432 H 45.849 -1.90129 2.29466 0
M  V30 433 H 43.386 -0.929433 1.14017 0
M  V30 434 H 45.344 -4.04036 1.03975 0
M  V30 435 H 43.974 -3.21847 0.247909 0
M  V30 436 H 43.026 -2.75498 2.62307 0
M  V30 437 H 44.338 -3.76027 3.27728 0
M  V30 438 H 43.492 -5.73198 1.9882 0
M  V30 439 H 42.231 -4.71945 1.22961 0
M  V30 440 H 41.236 -4.25123 3.48641 0
M  V30 441 H 42.461 -5.29807 4.24832 0
M  V30 442 H 40.407 -6.18474 2.1869 0
M  V30 443 H 40.324 -6.48087 3.89254 0
M  V30 444 H 41.592 -7.213 2.95546 0
M  V30 445 N 45.8211 -1.22559 -0.990812 0
M  V30 446 C 47.2321 -1.04791 -1.54518 0
M  V30 447 C 47.5831 0.387998 -1.92325 0
M  V30 448 O 46.7081 1.27328 -1.74976 0
M  V30 449 C 47.3031 -1.896 -2.80779 0
M  V30 450 C 45.8621 -1.76124 -3.32652 0
M  V30 451 C 45.0091 -1.8594 -2.05722 0
M  V30 452 H 47.9601 -1.36374 -0.811662 0
M  V30 453 H 47.9811 -1.41464 -3.53225 0
M  V30 454 H 47.4931 -2.94101 -2.53231 0
M  V30 455 H 45.5941 -0.743643 -3.65104 0
M  V30 456 H 45.7071 -2.58913 -4.03114 0
M  V30 457 H 44.0711 -1.29403 -2.19379 0
M  V30 458 H 44.8541 -2.91976 -1.80568 0
M  V30 459 N 47.2992 1.18797 -1.03562 0
M  V30 460 C 48.2472 2.24297 -0.615905 0
M  V30 461 C 49.2412 1.65643 0.354808 0
M  V30 462 O 50.4472 1.78618 0.22265 0
M  V30 463 H 46.8222 0.729909 -0.180934 0
M  V30 464 H 48.7932 2.5701 -1.5162 0
M  V30 465 C 47.5422 3.47698 0.0104735 0
M  V30 466 H 46.8652 3.93125 -0.727509 0
M  V30 467 H 48.3052 4.23159 0.266995 0
M  V30 468 C 46.7642 3.12489 1.25905 0
M  V30 469 O 47.2942 3.25761 2.35038 0
M  V30 470 N 45.5002 2.6686 1.15039 0
M  V30 471 H 45.0472 2.56261 0.262328 0
M  V30 472 H 45.0052 2.43674 1.98672 0
M  V30 473 N 48.7773 0.814389 1.34928 0
M  V30 474 C 49.7403 0.235759 2.27984 0
M  V30 475 C 50.7403 -0.581412 1.49921 0
M  V30 476 O 51.9303 -0.398758 1.69575 0
M  V30 477 C 49.0623 -0.670433 3.34242 0
M  V30 478 H 50.2553 1.05659 2.80671 0
M  V30 479 H 47.8083 0.585614 1.44915 0
M  V30 480 H 48.5433 -1.51466 2.86755 0
M  V30 481 H 48.3283 -0.0860822 3.92005 0
M  V30 482 H 49.8183 -1.06935 4.03676 0
M  V30 483 N 50.2554 -1.46986 0.568584 0
M  V30 484 C 51.1654 -2.33942 -0.17555 0
M  V30 485 C 52.1814 -1.48891 -0.90041 0
M  V30 486 O 53.3574 -1.81794 -0.86676 0
M  V30 487 C 50.4224 -3.25811 -1.18524 0
M  V30 488 C 49.4834 -4.26757 -0.466582 0
M  V30 489 C 48.7164 -5.14236 -1.42817 0
M  V30 490 O 48.9394 -5.04379 -2.66379 0
M  V30 491 O 47.8734 -5.94412 -0.946453 0
M  V30 492 H 51.6994 -2.98896 0.538036 0
M  V30 493 H 49.2844 -1.4573 0.329097 0
M  V30 494 H 51.1664 -3.82527 -1.76779 0
M  V30 495 H 49.8414 -2.63471 -1.88055 0
M  V30 496 H 48.7484 -3.73769 0.157451 0
M  V30 497 H 50.0814 -4.91843 0.187485 0
M  V30 498 N 51.7335 -0.305618 -1.54608 0
M  V30 499 C 53.0105 0.355652 -1.92339 0
M  V30 500 C 53.3905 1.71324 -1.23335 0
M  V30 501 O 52.7385 2.25473 -0.370702 0
M  V30 502 C 52.9485 0.46572 -3.45879 0
M  V30 503 C 54.2965 0.734426 -4.182 0
M  V30 504 O 55.3205 0.54935 -3.51938 0
M  V30 505 O 54.1795 1.09024 -5.35515 0
M  V30 506 H 51.2735 0.199666 -0.802535 0
M  V30 507 H 53.8195 -0.354017 -1.65966 0
M  V30 508 H 52.5915 -0.488461 -3.88239 0
M  V30 509 H 52.2145 1.22367 -3.78301 0
M  V30 510 N 53.2116 1.57565 -0.0334293 0
M  V30 511 C 54.1446 2.05997 0.981866 0
M  V30 512 C 55.1226 0.956647 1.3148 0
M  V30 513 O 56.3066 1.22729 1.43073 0
M  V30 514 C 53.4336 2.48564 2.30074 0
M  V30 515 C 52.4796 3.69958 2.12211 0
M  V30 516 S 53.3126 5.16414 1.41692 0
M  V30 517 C 54.4686 5.6228 2.7494 0
M  V30 518 H 54.7016 2.91792 0.569612 0
M  V30 519 H 52.2346 1.53366 0.178376 0
M  V30 520 H 54.1926 2.73753 3.05892 0
M  V30 521 H 52.8536 1.63106 2.68431 0
M  V30 522 H 52.0466 3.97603 3.09722 0
M  V30 523 H 51.6486 3.44943 1.44535 0
M  V30 524 H 53.9406 5.66783 3.71165 0
M  V30 525 H 54.8836 6.61759 2.51953 0
M  V30 526 H 55.2916 4.89944 2.80384 0
M  V30 527 N 54.6897 -0.239769 1.55765 0
M  V30 528 C 55.9177 -0.98417 1.81994 0
M  V30 529 C 56.3327 -1.7867 0.610124 0
M  V30 530 O 55.6897 -1.77571 -0.421271 0
M  V30 531 C 55.7407 -1.91635 3.06526 0
M  V30 532 O 55.4617 -1.14629 4.22838 0
M  V30 533 C 56.9627 -2.77616 3.45607 0
M  V30 534 H 54.1827 -0.28928 0.605441 0
M  V30 535 H 56.7267 -0.260499 2.02834 0
M  V30 536 H 54.8817 -2.5942 2.87715 0
M  V30 537 H 55.2957 -1.77745 4.93464 0
M  V30 538 H 56.7697 -3.38759 4.35828 0
M  V30 539 H 57.2467 -3.4909 2.6652 0
M  V30 540 H 57.8527 -2.15271 3.66795 0
M  V30 541 N 56.1678 -1.49265 -0.50573 0
M  V30 542 C 57.3928 -1.62478 -1.28902 0
M  V30 543 C 57.8178 -0.294332 -1.85783 0
M  V30 544 O 57.1758 0.737412 -1.65626 0
M  V30 545 C 57.2238 -2.69268 -2.39848 0
M  V30 546 O 56.3278 -2.28113 -3.43567 0
M  V30 547 H 55.6688 -0.54399 -0.380751 0
M  V30 548 H 58.1988 -1.95421 -0.605952 0
M  V30 549 H 58.2088 -2.91291 -2.85681 0
M  V30 550 H 56.8838 -3.65846 -1.97812 0
M  V30 551 H 55.4608 -2.16401 -3.03685 0
M  V30 552 N 57.6459 0.756429 -1.3826 0
M  V30 553 C 58.5929 1.87011 -1.35261 0
M  V30 554 C 59.5629 1.64695 -0.215616 0
M  V30 555 O 60.7479 1.864 -0.407399 0
M  V30 556 C 57.8879 3.24275 -1.18068 0
M  V30 557 C 57.0009 3.58442 -2.41129 0
M  V30 558 C 56.1359 4.84994 -2.16689 0
M  V30 559 C 55.1749 5.11939 -3.35537 0
M  V30 560 N 54.3119 6.29685 -3.10549 0
M  V30 561 H 59.1519 1.8891 -2.30472 0
M  V30 562 H 56.6889 0.923373 -1.14509 0
M  V30 563 H 58.6469 4.03479 -1.06116 0
M  V30 564 H 57.2769 3.21711 -0.264973 0
M  V30 565 H 56.3289 2.74103 -2.63764 0
M  V30 566 H 57.6409 3.74283 -3.29717 0
M  V30 567 H 56.7949 5.72135 -2.01857 0
M  V30 568 H 55.5339 4.71286 -1.25462 0
M  V30 569 H 54.5389 4.23268 -3.50891 0
M  V30 570 H 55.7639 5.27546 -4.27635 0
M  V30 571 H 53.7099 6.17306 -2.21967 0
M  V30 572 H 53.6269 6.46014 -3.92686 0
M  V30 573 H 54.8949 7.19722 -2.99367 0
M  V30 574 N 59.124 1.23083 0.984299 0
M  V30 575 C 60.401 0.9689 1.69917 0
M  V30 576 C 60.781 -0.513604 2.04757 0
M  V30 577 O 60.129 -1.48383 1.73767 0
M  V30 578 C 60.339 1.87518 2.94343 0
M  V30 579 C 61.687 2.13636 3.6694 0
M  V30 580 O 62.711 1.85036 3.04368 0
M  V30 581 O 61.57 2.62119 4.79537 0
M  V30 582 H 58.664 0.365095 0.742048 0
M  V30 583 H 61.21 1.34107 1.03987 0
M  V30 584 H 59.982 2.87756 2.65164 0
M  V30 585 H 59.605 1.50514 3.6801 0
M  V30 586 N 60.6021 -1.18246 1.0419 0
M  V30 587 C 61.8321 -1.91916 0.764961 0
M  V30 588 C 62.2401 -1.76485 -0.681898 0
M  V30 589 O 61.5831 -1.09275 -1.47664 0
M  V30 590 C 61.6451 -3.4373 1.05309 0
M  V30 591 C 61.3091 -3.8294 2.4941 0
M  V30 592 C 62.3061 -3.86621 3.47592 0
M  V30 593 C 59.9911 -4.142 2.84155 0
M  V30 594 C 61.9851 -4.21013 4.78568 0
M  V30 595 C 59.6721 -4.48262 4.15337 0
M  V30 596 C 60.6701 -4.51645 5.12353 0
M  V30 597 O 60.3581 -4.84911 6.41183 0
M  V30 598 H 60.0901 -0.61606 0.278292 0
M  V30 599 H 62.6441 -1.50947 1.39299 0
M  V30 600 H 60.8741 -3.84946 0.367933 0
M  V30 601 H 62.5631 -3.9865 0.763752 0
M  V30 602 H 63.3291 -3.62607 3.22089 0
M  V30 603 H 59.2081 -4.10743 2.09311 0
M  V30 604 H 62.7521 -4.23568 5.54289 0
M  V30 605 H 58.6491 -4.71737 4.40607 0
M  V30 606 H 59.4171 -5.02809 6.45852 0
M  V30 607 N 62.0802 -0.821533 -1.34494 0
M  V30 608 C 63.3102 -0.421272 -2.02259 0
M  V30 609 C 63.7182 0.977047 -1.6202 0
M  V30 610 O 63.0612 1.64348 -0.820703 0
M  V30 611 C 63.1232 -0.44231 -3.56769 0
M  V30 612 C 62.7872 -1.79372 -4.20327 0
M  V30 613 C 63.7842 -2.75435 -4.40944 0
M  V30 614 C 61.4692 -2.08182 -4.57127 0
M  V30 615 C 63.4632 -3.98482 -4.97484 0
M  V30 616 C 61.1502 -3.31489 -5.13379 0
M  V30 617 C 62.1482 -4.26457 -5.33501 0
M  V30 618 O 61.8362 -5.47585 -5.88562 0
M  V30 619 H 61.5682 -0.167473 -0.654927 0
M  V30 620 H 64.1222 -1.11073 -1.72777 0
M  V30 621 H 62.3522 0.303836 -3.85505 0
M  V30 622 H 64.0412 -0.0622925 -4.05852 0
M  V30 623 H 64.8072 -2.54473 -4.12878 0
M  V30 624 H 60.6862 -1.35066 -4.4077 0
M  V30 625 H 64.2302 -4.72618 -5.13106 0
M  V30 626 H 60.1272 -3.52316 -5.40873 0
M  V30 627 H 60.8952 -5.49086 -6.06998 0
M  V30 628 N 63.5583 1.46682 -0.576371 0
M  V30 629 C 64.8053 2.02412 -0.0595339 0
M  V30 630 C 65.1333 1.44859 1.29793 0
M  V30 631 O 64.3883 0.601099 1.8624 0
M  V30 632 C 64.6873 3.57345 0.062886 0
M  V30 633 C 64.3533 4.33908 -1.22616 0
M  V30 634 C 63.0153 4.54544 -1.57933 0
M  V30 635 C 65.3673 4.77919 -2.07948 0
M  V30 636 C 62.6953 5.16444 -2.78393 0
M  V30 637 C 65.0473 5.41149 -3.27629 0
M  V30 638 C 63.7113 5.60014 -3.63236 0
M  V30 639 H 62.9813 0.74068 -0.021785 0
M  V30 640 H 65.6283 1.76128 -0.751735 0
M  V30 641 H 63.9333 3.82729 0.838178 0
M  V30 642 H 65.6303 3.98136 0.478439 0
M  V30 643 H 62.2203 4.18138 -0.941202 0
M  V30 644 H 66.4043 4.61738 -1.81967 0
M  V30 645 H 61.6603 5.29242 -3.06126 0
M  V30 646 H 65.8343 5.74211 -3.94023 0
M  V30 647 H 63.4613 6.07748 -4.56669 0
M  V30 648 N 65.0364 0.313813 1.54444 0
M  V30 649 C 66.3134 -0.345447 1.92525 0
M  V30 650 C 66.6934 -1.70667 1.24242 0
M  V30 651 O 66.0414 -2.25273 0.382654 0
M  V30 652 C 66.2514 -0.44737 3.46121 0
M  V30 653 C 67.5994 -0.712238 4.18584 0
M  V30 654 O 68.6234 -0.530678 3.52225 0
M  V30 655 O 67.4824 -1.06183 5.36085 0
M  V30 656 H 64.5764 -0.195407 0.803583 0
M  V30 657 H 67.1224 0.362813 1.65776 0
M  V30 658 H 65.8944 0.509043 3.87975 0
M  V30 659 H 65.5174 -1.20359 3.78945 0
M  V30 660 N 66.5145 -1.57545 0.0417849 0
M  V30 661 C 67.7395 -1.97035 -0.647455 0
M  V30 662 C 68.1645 -0.918775 -1.64135 0
M  V30 663 O 67.5225 0.119006 -1.80909 0
M  V30 664 C 67.5705 -3.35609 -1.31905 0
M  V30 665 O 66.6745 -3.3287 -2.43457 0
M  V30 666 H 66.0155 -0.64211 -0.169086 0
M  V30 667 H 68.5455 -2.04318 0.107399 0
M  V30 668 H 68.5555 -3.72126 -1.67291 0
M  V30 669 H 67.2305 -4.11685 -0.590586 0
M  V30 670 H 65.8075 -3.08087 -2.10088 0
M  V30 671 N 67.9926 0.231505 -1.5589 0
M  V30 672 C 69.2226 0.973092 -1.82248 0
M  V30 673 C 69.6306 1.78845 -0.617328 0
M  V30 674 O 68.9736 1.78752 0.423499 0
M  V30 675 C 69.0356 1.94732 -3.02192 0
M  V30 676 C 68.6996 1.31743 -4.37599 0
M  V30 677 C 69.6966 0.712238 -5.14998 0
M  V30 678 C 67.3816 1.33218 -4.84312 0
M  V30 679 C 69.3756 0.130195 -6.37267 0
M  V30 680 C 67.0626 0.746286 -6.06526 0
M  V30 681 C 68.0606 0.146337 -6.82843 0
M  V30 682 O 67.7486 -0.430465 -8.02747 0
M  V30 683 H 67.4806 0.29125 -0.61004 0
M  V30 684 H 70.0346 0.254915 -2.03812 0
M  V30 685 H 68.2646 2.70422 -2.76422 0
M  V30 686 H 69.9536 2.55362 -3.15508 0
M  V30 687 H 70.7196 0.69324 -4.8002 0
M  V30 688 H 66.5986 1.78854 -4.24891 0
M  V30 689 H 70.1426 -0.33871 -6.96777 0
M  V30 690 H 66.0396 0.762663 -6.40979 0
M  V30 691 H 66.8076 -0.323818 -8.17859 0
M  V30 692 N 69.4707 1.49531 0.497807 0
M  V30 693 C 70.4337 1.65916 1.58128 0
M  V30 694 C 71.4337 0.530825 1.51786 0
M  V30 695 O 72.6237 0.797342 1.54881 0
M  V30 696 C 69.7557 1.65951 2.9778 0
M  V30 697 H 70.9487 2.62556 1.44929 0
M  V30 698 H 68.5017 1.38611 0.722275 0
M  V30 699 H 69.2367 0.709065 3.16453 0
M  V30 700 H 69.0217 2.47897 3.03792 0
M  V30 701 H 70.5117 1.80673 3.76493 0
M  V30 702 N 70.9488 -0.749086 1.3866 0
M  V30 703 C 71.8988 -1.85368 1.32751 0
M  V30 704 C 72.8828 -1.59511 0.210945 0
M  V30 705 O 74.0748 -1.71255 0.447299 0
M  V30 706 C 71.2038 -3.23131 1.15935 0
M  V30 707 C 70.2898 -3.54864 2.32233 0
M  V30 708 N 70.6808 -3.57625 3.57684 0
M  V30 709 C 68.9788 -3.85154 2.24883 0
M  V30 710 C 69.6798 -3.86753 4.34508 0
M  V30 711 N 68.6558 -4.03812 3.63918 0
M  V30 712 H 72.4578 -1.85787 2.27729 0
M  V30 713 H 69.9718 -0.946658 1.31955 0
M  V30 714 H 71.9688 -4.02185 1.09786 0
M  V30 715 H 70.6288 -3.23961 0.218947 0
M  V30 716 H 71.6398 -3.39276 3.91295 0
M  V30 717 H 68.3168 -3.93672 1.39027 0
M  V30 718 H 69.7068 -3.95474 5.43185 0
M  V30 719 N 72.4269 -1.23603 -0.977757 0
M  V30 720 C 73.6739 -1.06971 -1.71941 0
M  V30 721 C 74.0019 0.393009 -1.90488 0
M  V30 722 O 73.2569 1.30719 -1.4564 0
M  V30 723 C 73.5559 -1.7433 -3.11999 0
M  V30 724 C 73.2219 -3.24252 -3.13323 0
M  V30 725 C 71.8839 -3.65156 -3.13392 0
M  V30 726 C 74.2359 -4.20141 -3.08433 0
M  V30 727 C 71.5639 -5.00403 -3.0629 0
M  V30 728 C 73.9159 -5.55384 -3.02873 0
M  V30 729 C 72.5799 -5.95647 -3.01265 0
M  V30 730 H 71.8499 -0.391433 -0.629175 0
M  V30 731 H 74.4969 -1.53572 -1.14403 0
M  V30 732 H 72.8019 -1.20096 -3.7294 0
M  V30 733 H 74.4989 -1.58936 -3.68158 0
M  V30 734 H 71.0889 -2.91692 -3.14029 0
M  V30 735 H 75.2729 -3.89547 -3.07517 0
M  V30 736 H 70.5289 -5.3081 -3.03399 0
M  V30 737 H 74.7029 -6.29398 -2.98046 0
M  V30 738 H 72.3299 -7.0041 -2.95516 0
M  V30 739 N 73.905 1.17692 -1.04816 0
M  V30 740 C 75.153 1.87488 -0.754497 0
M  V30 741 C 75.474 1.81205 0.720407 0
M  V30 742 O 74.744 1.23544 1.52032 0
M  V30 743 H 73.324 0.694101 -0.276102 0
M  V30 744 H 75.986 1.42793 -1.32651 0
M  V30 745 H 75.082 2.93328 -1.06606 0
M  V30 746 N 75.3831 0.828654 1.34056 0
M  V30 747 C 76.6321 0.415828 1.97367 0
M  V30 748 C 76.9451 -1.02796 1.6641 0
M  V30 749 O 78.1511 -1.54497 2.23255 0
M  V30 750 C 76.6071 0.692601 3.53173 0
M  V30 751 C 76.2151 2.15038 3.93017 0
M  V30 752 C 77.9591 0.346222 4.23086 0
M  V30 753 C 75.8661 2.37174 5.41758 0
M  V30 754 H 74.7961 0.151755 0.738571 0
M  V30 755 H 77.4471 1.01581 1.52819 0
M  V30 756 H 75.8291 0.0223764 3.95994 0
M  V30 757 H 77.0031 2.86024 3.61285 0
M  V30 758 H 75.3181 2.45875 3.36057 0
M  V30 759 H 77.9151 0.48937 5.32456 0
M  V30 760 H 78.2581 -0.709842 4.10204 0
M  V30 761 H 78.7911 0.971258 3.85761 0
M  V30 762 H 75.5301 3.41308 5.59633 0
M  V30 763 H 75.0501 1.70738 5.74986 0
M  V30 764 H 76.7291 2.19818 6.08514 0
M  V30 765 N 76.8612 -1.46375 0.584142 0
M  V30 766 C 77.8112 -2.27371 -0.169232 0
M  V30 767 C 78.7952 -1.35955 -0.860523 0
M  V30 768 O 79.9872 -1.60119 -0.754382 0
M  V30 769 C 77.1162 -3.22334 -1.18134 0
M  V30 770 C 76.2022 -4.21235 -0.492088 0
M  V30 771 N 76.5932 -5.03766 0.453129 0
M  V30 772 C 74.8912 -4.39773 -0.742652 0
M  V30 773 C 75.5922 -5.75366 0.85609 0
M  V30 774 N 74.5682 -5.43214 0.204926 0
M  V30 775 H 78.3702 -2.88572 0.557097 0
M  V30 776 H 75.8842 -1.57242 0.406042 0
M  V30 777 H 77.8812 -3.79071 -1.73525 0
M  V30 778 H 76.5412 -2.62693 -1.90847 0
M  V30 779 H 77.5522 -5.11227 0.828723 0
M  V30 780 H 74.2292 -3.91279 -1.45625 0
M  V30 781 H 75.6192 -6.5172 1.63434 0
M  V30 782 N 78.3393 -0.321999 -1.54275 0
M  V30 783 C 79.2493 0.553631 -2.27974 0
M  V30 784 C 80.2653 1.13054 -1.32268 0
M  V30 785 O 81.4413 1.15084 -1.6528 0
M  V30 786 C 78.5063 1.69927 -3.02201 0
M  V30 787 C 77.5673 1.15433 -4.1349 0
M  V30 788 C 76.8003 2.24537 -4.84168 0
M  V30 789 O 77.0233 3.44852 -4.5435 0
M  V30 790 O 75.9573 1.90044 -5.7111 0
M  V30 791 H 79.7833 -0.0448345 -3.03667 0
M  V30 792 H 77.3683 -0.0877418 -1.49142 0
M  V30 793 H 79.2503 2.3663 -3.48689 0
M  V30 794 H 77.9253 2.28395 -2.29385 0
M  V30 795 H 76.8323 0.452436 -3.71354 0
M  V30 796 H 78.1653 0.614805 -4.88345 0
M  V30 797 N 79.8174 1.5752 -0.0501392 0
M  V30 798 C 80.7274 2.14952 0.939827 0
M  V30 799 C 81.7434 1.10706 1.34239 0
M  V30 800 O 82.9194 1.42869 1.41952 0
M  V30 801 C 79.9844 2.68232 2.19665 0
M  V30 802 C 79.0454 3.87272 1.85253 0
M  V30 803 C 78.2784 4.38002 3.04943 0
M  V30 804 O 78.5014 3.87811 4.18281 0
M  V30 805 O 77.4354 5.29602 2.86017 0
M  V30 806 H 81.2614 2.9986 0.481392 0
M  V30 807 H 78.8464 1.4841 0.171699 0
M  V30 808 H 80.7284 3.02475 2.93406 0
M  V30 809 H 79.4034 1.86395 2.64648 0
M  V30 810 H 78.3104 3.5792 1.0883 0
M  V30 811 H 79.6434 4.70336 1.4507 0
M  V30 812 N 81.2955 -0.223234 1.56011 0
M  V30 813 C 82.2285 -1.30377 1.87289 0
M  V30 814 C 83.2065 -1.45286 0.730112 0
M  V30 815 O 84.3905 -1.61126 0.978302 0
M  V30 816 C 81.5175 -2.67431 2.07843 0
M  V30 817 C 80.5635 -2.69546 3.30526 0
M  V30 818 S 81.3965 -2.23781 4.865 0
M  V30 819 C 82.5525 -3.62714 5.10088 0
M  V30 820 H 82.7855 -1.03652 2.78646 0
M  V30 821 H 80.3185 -0.425393 1.48424 0
M  V30 822 H 82.2765 -3.46336 2.20368 0
M  V30 823 H 80.9375 -2.91381 1.17285 0
M  V30 824 H 80.1305 -3.70255 3.41947 0
M  V30 825 H 79.7325 -1.98703 3.16849 0
M  V30 826 H 82.0245 -4.58391 4.98883 0
M  V30 827 H 82.9675 -3.5621 6.11981 0
M  V30 828 H 83.3755 -3.56323 4.37829 0
M  V30 829 N 82.7736 -1.49793 -0.48987 0
M  V30 830 C 83.7036 -1.70201 -1.59856 0
M  V30 831 C 84.6846 -0.55076 -1.60937 0
M  V30 832 O 85.8696 -0.787841 -1.77501 0
M  V30 833 C 82.9996 -1.77882 -2.98287 0
M  V30 834 C 81.9536 -2.92907 -3.12073 0
M  V30 835 C 81.2796 -2.85712 -4.51965 0
M  V30 836 C 82.5796 -4.3369 -2.91051 0
M  V30 837 H 84.2736 -2.63025 -1.43032 0
M  V30 838 H 81.8196 -1.26574 -0.686664 0
M  V30 839 H 83.7726 -1.90744 -3.75759 0
M  V30 840 H 82.4966 -0.816653 -3.16225 0
M  V30 841 H 81.1556 -2.79665 -2.37029 0
M  V30 842 H 80.8036 -1.8738 -4.66795 0
M  V30 843 H 80.5036 -3.62921 -4.62128 0
M  V30 844 H 82.0276 -3.00598 -5.31482 0
M  V30 845 H 83.4416 -4.47555 -3.58284 0
M  V30 846 H 81.8386 -5.12205 -3.12675 0
M  V30 847 H 82.9086 -4.47362 -1.87071 0
M  V30 848 N 84.2517 0.741722 -1.39055 0
M  V30 849 C 85.1987 1.85566 -1.37237 0
M  V30 850 C 86.1687 1.64457 -0.233072 0
M  V30 851 O 87.3537 1.85957 -0.427147 0
M  V30 852 C 84.4937 3.23004 -1.215 0
M  V30 853 C 83.6067 3.55864 -2.44918 0
M  V30 854 C 82.7417 4.82669 -2.21821 0
M  V30 855 C 81.7807 5.08351 -3.40948 0
M  V30 856 N 80.9177 6.26356 -3.17211 0
M  V30 857 H 85.7577 1.86455 -2.32462 0
M  V30 858 H 83.2947 0.911176 -1.15482 0
M  V30 859 H 85.2527 4.02331 -1.10389 0
M  V30 860 H 83.8827 3.21411 -0.29908 0
M  V30 861 H 82.9347 2.7129 -2.66657 0
M  V30 862 H 84.2467 3.70765 -3.33668 0
M  V30 863 H 83.4007 5.69962 -2.07914 0
M  V30 864 H 82.1397 4.69929 -1.30454 0
M  V30 865 H 81.1447 4.19522 -3.55361 0
M  V30 866 H 82.3697 5.22981 -4.33207 0
M  V30 867 H 80.3157 6.14917 -2.28502 0
M  V30 868 H 80.2327 6.41813 -3.99515 0
M  V30 869 H 81.5007 7.16506 -3.06984 0
M  V30 870 N 85.7298 1.2412 0.971189 0
M  V30 871 C 87.0068 0.986867 1.6888 0
M  V30 872 C 87.3868 -0.491857 2.0529 0
M  V30 873 O 86.7348 -1.46531 1.75331 0
M  V30 874 C 86.9448 1.9063 2.92338 0
M  V30 875 C 88.2928 2.17515 3.64654 0
M  V30 876 O 89.3168 1.88254 3.02388 0
M  V30 877 O 88.1758 2.6719 4.7673 0
M  V30 878 H 85.2698 0.372944 0.738134 0
M  V30 879 H 87.8158 1.35203 1.02559 0
M  V30 880 H 86.5878 2.90552 2.62097 0
M  V30 881 H 86.2108 1.54408 3.66393 0
M  V30 882 N 87.2079 -1.17134 1.05439 0
M  V30 883 C 88.1179 -2.24878 0.668365 0
M  V30 884 C 89.1339 -1.71186 -0.311687 0
M  V30 885 O 90.3099 -2.00738 -0.163161 0
M  V30 886 C 87.3749 -3.46662 0.051648 0
M  V30 887 C 86.4359 -4.15429 1.08246 0
M  V30 888 C 85.6689 -5.31399 0.495082 0
M  V30 889 O 85.8919 -5.66153 -0.694743 0
M  V30 890 O 84.8259 -5.89187 1.23056 0
M  V30 891 H 88.6519 -2.60189 1.56637 0
M  V30 892 H 86.2369 -1.24482 0.826104 0
M  V30 893 H 88.1189 -4.20394 -0.290966 0
M  V30 894 H 86.7939 -3.13142 -0.819971 0
M  V30 895 H 85.7009 -3.43704 1.47711 0
M  V30 896 H 87.0339 -4.52982 1.92532 0
M  V30 897 N 88.686 -0.835752 -1.33615 0
M  V30 898 C 89.932 -0.430596 -1.98176 0
M  V30 899 C 90.265 1.00684 -1.66061 0
M  V30 900 O 89.54 1.70339 -0.938877 0
M  V30 901 C 89.823 -0.648065 -3.5422 0
M  V30 902 C 89.676 -2.13255 -3.96033 0
M  V30 903 C 90.995 -0.0922113 -4.40003 0
M  V30 904 H 88.114 -0.157924 -0.719881 0
M  V30 905 H 90.756 -1.05069 -1.58305 0
M  V30 906 H 88.906 -0.120237 -3.88314 0
M  V30 907 H 90.578 -2.725 -3.72211 0
M  V30 908 H 88.821 -2.61823 -3.45878 0
M  V30 909 H 89.492 -2.23547 -5.04708 0
M  V30 910 H 91.968 -0.543343 -4.12537 0
M  V30 911 H 90.844 -0.274083 -5.48215 0
M  V30 912 H 91.105 1.00378 -4.30554 0
M  V30 913 N 90.1641 1.46063 -0.591896 0
M  V30 914 C 91.5801 1.57561 -0.254288 0
M  V30 915 C 91.7801 1.58565 1.24336 0
M  V30 916 O 90.8361 1.50753 2.02558 0
M  V30 917 C 92.1491 2.86549 -0.911611 0
M  V30 918 C 93.6971 3.00197 -0.886059 0
M  V30 919 C 94.1721 4.31933 -1.5231 0
M  V30 920 N 95.6631 4.38654 -1.48786 0
M  V30 921 C 96.3981 5.39222 -1.95006 0
M  V30 922 N 95.8941 6.46414 -2.49241 0
M  V30 923 N 97.6871 5.3048 -1.85868 0
M  V30 924 H 89.8381 1.43655 -1.56451 0
M  V30 925 H 92.1011 0.68583 -0.654478 0
M  V30 926 H 91.8071 2.91651 -1.96551 0
M  V30 927 H 91.6811 3.74794 -0.425368 0
M  V30 928 H 94.0681 2.9467 0.159246 0
M  V30 929 H 94.1491 2.13403 -1.41041 0
M  V30 930 H 93.7931 4.38217 -2.56765 0
M  V30 931 H 93.7231 5.17516 -0.973891 0
M  V30 932 H 96.2141 3.61793 -1.09151 0
M  V30 933 H 96.5271 7.19376 -2.82344 0
M  V30 934 H 94.8721 6.47208 -2.53272 0
M  V30 935 H 98.0631 4.45643 -1.43248 0
M  V30 936 H 98.2361 6.08711 -2.22204 0
M  V30 937 N 91.6422 0.330177 1.54103 0
M  V30 938 C 92.8702 -0.272179 2.05102 0
M  V30 939 C 93.2852 -1.45267 1.20595 0
M  V30 940 O 92.6422 -1.8094 0.238144 0
M  V30 941 C 92.6932 -0.70023 3.54653 0
M  V30 942 O 92.4142 0.433301 4.35952 0
M  V30 943 C 93.9152 -1.3647 4.21771 0
M  V30 944 H 91.1352 -0.0549159 0.668749 0
M  V30 945 H 93.6792 0.478285 1.98828 0
M  V30 946 H 91.8342 -1.40066 3.61193 0
M  V30 947 H 92.2482 0.0947539 5.24414 0
M  V30 948 H 93.7222 -1.61509 5.27843 0
M  V30 949 H 94.1992 -2.31409 3.73292 0
M  V30 950 H 94.8052 -0.706675 4.19388 0
M  V30 951 N 93.1203 -1.57491 0.0584922 0
M  V30 952 C 94.0503 -2.14988 -0.911178 0
M  V30 953 C 95.0313 -1.07343 -1.31952 0
M  V30 954 O 96.2163 -1.35318 -1.39294 0
M  V30 955 C 93.3463 -2.70078 -2.18347 0
M  V30 956 C 92.3003 -3.82771 -1.91495 0
M  V30 957 C 91.6263 -4.24408 -3.25241 0
M  V30 958 C 92.9263 -5.07592 -1.23075 0
M  V30 959 H 94.6203 -2.96263 -0.432246 0
M  V30 960 H 92.1663 -1.42512 -0.206469 0
M  V30 961 H 94.1193 -3.08943 -2.86587 0
M  V30 962 H 92.8433 -1.86005 -2.68458 0
M  V30 963 H 91.5023 -3.44389 -1.25664 0
M  V30 964 H 91.1503 -3.37275 -3.73168 0
M  V30 965 H 90.8503 -5.00366 -3.08071 0
M  V30 966 H 92.3743 -4.65879 -3.94701 0
M  V30 967 H 93.7883 -5.43857 -1.81362 0
M  V30 968 H 92.1853 -5.88741 -1.16207 0
M  V30 969 H 93.2553 -4.84454 -0.207847 0
M  V30 970 N 94.5984 0.214957 -1.56127 0
M  V30 971 C 95.8264 0.955092 -1.83536 0
M  V30 972 C 96.2414 1.77677 -0.638472 0
M  V30 973 O 95.5984 1.78219 0.392968 0
M  V30 974 C 95.6494 1.86734 -3.09536 0
M  V30 975 O 95.3704 1.07887 -4.24608 0
M  V30 976 C 96.8714 2.72082 -3.4998 0
M  V30 977 H 94.0914 0.279611 -0.609966 0
M  V30 978 H 96.6354 0.228197 -2.03223 0
M  V30 979 H 94.7904 2.5481 -2.91806 0
M  V30 980 H 95.2044 1.69872 -4.9623 0
M  V30 981 H 96.6784 3.31782 -4.41163 0
M  V30 982 H 97.1554 3.44806 -2.7204 0
M  V30 983 H 97.7614 2.09409 -3.70173 0
M  V30 984 N 96.0765 1.50051 0.48192 0
M  V30 985 C 97.3065 1.63999 1.2565 0
M  V30 986 C 97.7145 0.318288 1.86504 0
M  V30 987 O 97.0575 -0.708534 1.69486 0
M  V30 988 C 97.1195 2.66504 2.4128 0
M  V30 989 C 96.7835 4.10352 2.01148 0
M  V30 990 C 97.7805 4.96562 1.54021 0
M  V30 991 C 95.4655 4.56203 2.10199 0
M  V30 992 C 97.4595 6.26668 1.16473 0
M  V30 993 C 95.1465 5.86318 1.72264 0
M  V30 994 C 96.1445 6.71375 1.25477 0
M  V30 995 O 95.8325 7.99062 0.880626 0
M  V30 996 H 95.5645 0.55456 0.386574 0
M  V30 997 H 98.1185 1.96954 0.582944 0
M  V30 998 H 96.3485 2.28769 3.11772 0
M  V30 999 H 98.0375 2.69783 3.03268 0
M  V30 1000 H 98.8035 4.62358 1.46458 0
M  V30 1001 H 94.6825 3.90152 2.45566 0
M  V30 1002 H 98.2265 6.93011 0.798841 0
M  V30 1003 H 94.1235 6.20046 1.79482 0
M  V30 1004 H 94.8915 8.12239 1.01043 0
M  V30 1005 N 97.5546 -0.734337 1.39446 0
M  V30 1006 C 98.9706 -1.03997 1.21065 0
M  V30 1007 C 99.1706 -2.01369 0.0727019 0
M  V30 1008 O 98.2266 -2.45856 -0.575426 0
M  V30 1009 C 99.5396 -1.60163 2.54496 0
M  V30 1010 C 101.088 -1.7224 2.61347 0
M  V30 1011 C 101.563 -2.31814 3.95002 0
M  V30 1012 N 103.054 -2.39223 3.96644 0
M  V30 1013 C 103.789 -2.86258 4.96834 0
M  V30 1014 N 103.285 -3.33184 6.07421 0
M  V30 1015 N 105.078 -2.85473 4.84213 0
M  V30 1016 H 97.2286 -0.0885624 2.12215 0
M  V30 1017 H 99.4916 -0.10191 0.942506 0
M  V30 1018 H 99.1976 -0.960811 3.38321 0
M  V30 1019 H 99.0716 -2.5896 2.74262 0
M  V30 1020 H 101.459 -2.35443 1.77906 0
M  V30 1021 H 101.54 -0.720939 2.4543 0
M  V30 1022 H 101.184 -1.69238 4.78875 0
M  V30 1023 H 101.114 -3.32638 4.08239 0
M  V30 1024 H 103.605 -2.06057 3.16779 0
M  V30 1025 H 103.918 -3.67586 6.7978 0
M  V30 1026 H 102.263 -3.31191 6.11013 0
M  V30 1027 H 105.454 -2.48136 3.96921 0
M  V30 1028 H 105.627 -3.21814 5.62441 0
M  V30 1029 N 99.0327 -1.24633 -0.964593 0
M  V30 1030 C 99.9807 -1.03917 -2.08096 0
M  V30 1031 C 100.975 0.0268581 -1.69379 0
M  V30 1032 O 102.181 -0.127952 -1.79545 0
M  V30 1033 H 98.5557 -0.319044 -0.680966 0
M  V30 1034 H 100.527 -1.98581 -2.22729 0
M  V30 1035 C 99.2757 -0.663983 -3.41301 0
M  V30 1036 H 98.5987 -1.47605 -3.71555 0
M  V30 1037 H 100.039 -0.558663 -4.20303 0
M  V30 1038 C 98.4977 0.629169 -3.30973 0
M  V30 1039 O 99.0277 1.67404 -3.65156 0
M  V30 1040 N 97.2337 0.611057 -2.84103 0
M  V30 1041 H 96.7807 -0.239593 -2.56483 0
M  V30 1042 H 96.7387 1.47647 -2.77575 0
M  V30 1043 N 100.511 1.16574 -1.06058 0
M  V30 1044 C 101.736 1.91493 -0.796562 0
M  V30 1045 C 102.161 1.76773 0.642868 0
M  V30 1046 O 101.519 1.09142 1.44768 0
M  V30 1047 C 101.567 3.40293 -1.19303 0
M  V30 1048 O 100.671 4.11074 -0.330394 0
M  V30 1049 H 100.012 0.596678 -0.291326 0
M  V30 1050 H 102.542 1.47708 -1.41575 0
M  V30 1051 H 102.552 3.91057 -1.16356 0
M  V30 1052 H 101.227 3.50326 -2.24153 0
M  V30 1053 H 99.8038 3.70513 -0.421225 0
M  V30 1054 N 101.989 0.842826 1.3317 0
M  V30 1055 C 102.922 0.223862 2.27099 0
M  V30 1056 C 103.9 -0.631311 1.49844 0
M  V30 1057 O 105.084 -0.590708 1.79005 0
M  V30 1058 C 102.211 -0.685313 3.31694 0
M  V30 1059 C 101.257 0.094919 4.26394 0
M  V30 1060 S 102.09 1.45546 5.15341 0
M  V30 1061 C 103.246 0.551685 6.23464 0
M  V30 1062 H 103.479 1.02015 2.79249 0
M  V30 1063 H 101.012 0.639797 1.4052 0
M  V30 1064 H 102.97 -1.20426 3.92438 0
M  V30 1065 H 101.631 -1.4553 2.78352 0
M  V30 1066 H 100.824 -0.597059 5.00451 0
M  V30 1067 H 100.426 0.545054 3.70007 0
M  V30 1068 H 102.718 -0.248877 6.77043 0
M  V30 1069 H 103.661 1.26253 6.96754 0
M  V30 1070 H 104.069 0.131275 5.64347 0
M  V30 1071 N 103.467 -1.45747 0.599634 0
M  V30 1072 C 104.714 -2.02292 0.0917284 0
M  V30 1073 C 105.042 -1.46906 -1.27472 0
M  V30 1074 O 104.297 -0.630652 -1.8526 0
M  V30 1075 C 104.596 -3.57399 -0.00602758 0
M  V30 1076 C 104.262 -4.31902 1.29503 0
M  V30 1077 C 102.924 -4.51974 1.65144 0
M  V30 1078 C 105.276 -4.74551 2.15525 0
M  V30 1079 C 102.604 -5.11949 2.86574 0
M  V30 1080 C 104.956 -5.35868 3.36196 0
M  V30 1081 C 103.62 -5.54165 3.72099 0
M  V30 1082 H 102.89 -0.740239 0.0335658 0
M  V30 1083 H 105.537 -1.7491 0.779661 0
M  V30 1084 H 103.842 -3.84014 -0.777183 0
M  V30 1085 H 105.539 -3.98846 -0.415038 0
M  V30 1086 H 102.129 -4.16588 1.00761 0
M  V30 1087 H 106.313 -4.58784 1.8929 0
M  V30 1088 H 101.569 -5.24305 3.14507 0
M  V30 1089 H 105.743 -5.6787 4.03109 0
M  V30 1090 H 103.37 -6.00406 4.6628 0
M  V30 1091 N 104.945 -0.338344 -1.53925 0
M  V30 1092 C 105.895 0.536712 -2.21593 0
M  V30 1093 C 106.879 1.07015 -1.20153 0
M  V30 1094 O 108.071 1.00471 -1.45721 0
M  V30 1095 C 105.2 1.68977 -2.98834 0
M  V30 1096 C 104.286 1.17052 -4.07627 0
M  V30 1097 N 104.677 0.372085 -5.0443 0
M  V30 1098 C 102.975 1.44789 -4.21844 0
M  V30 1099 C 103.676 0.0909171 -5.81629 0
M  V30 1100 N 102.652 0.681131 -5.39316 0
M  V30 1101 H 106.454 -0.0804298 -2.9379 0
M  V30 1102 H 103.968 -0.144943 -1.61752 0
M  V30 1103 H 105.965 2.32857 -3.45808 0
M  V30 1104 H 104.625 2.31024 -2.28162 0
M  V30 1105 H 105.636 0.0136217 -5.17898 0
M  V30 1106 H 102.313 2.07313 -3.62391 0
M  V30 1107 H 103.703 -0.552817 -6.69622 0
M  V30 1108 N 106.423 1.57458 -0.0668435 0
M  V30 1109 C 107.371 2.13639 0.919851 0
M  V30 1110 C 108.365 1.07204 1.31163 0
M  V30 1111 O 109.571 1.25591 1.28945 0
M  V30 1112 H 105.946 0.683048 0.314562 0
M  V30 1113 H 107.917 2.95415 0.421047 0
M  V30 1114 C 106.666 2.70892 2.17975 0
M  V30 1115 H 105.989 3.5246 1.88711 0
M  V30 1116 H 107.429 3.13803 2.85138 0
M  V30 1117 C 105.888 1.65414 2.93496 0
M  V30 1118 O 106.418 1.07619 3.87015 0
M  V30 1119 N 104.624 1.36564 2.56512 0
M  V30 1120 H 104.171 1.83751 1.80536 0
M  V30 1121 H 104.129 0.66223 3.07347 0
M  V30 1122 N 107.901 -0.206675 1.56239 0
M  V30 1123 C 109.317 -0.557025 1.49564 0
M  V30 1124 C 109.517 -1.86424 0.764735 0
M  V30 1125 O 108.573 -2.50584 0.310491 0
M  V30 1126 C 109.886 -0.622478 2.94186 0
M  V30 1127 C 111.434 -0.712099 3.04792 0
M  V30 1128 C 111.909 -0.808767 4.50803 0
M  V30 1129 N 113.4 -0.8726 4.54907 0
M  V30 1130 C 114.135 -0.967365 5.65181 0
M  V30 1131 N 113.631 -1.02515 6.85173 0
M  V30 1132 N 115.424 -1.00366 5.53067 0
M  V30 1133 H 107.575 0.650943 2.02179 0
M  V30 1134 H 109.838 0.230387 0.919579 0
M  V30 1135 H 109.544 0.268727 3.50672 0
M  V30 1136 H 109.418 -1.4811 3.46905 0
M  V30 1137 H 111.805 -1.59374 2.48363 0
M  V30 1138 H 111.886 0.172489 2.55218 0
M  V30 1139 H 111.53 0.0684754 5.07854 0
M  V30 1140 H 111.46 -1.70899 4.98098 0
M  V30 1141 H 113.951 -0.837657 3.68499 0
M  V30 1142 H 114.264 -1.09765 7.64965 0
M  V30 1143 H 112.609 -0.994026 6.87855 0
M  V30 1144 H 115.8 -0.95527 4.58249 0
M  V30 1145 H 115.973 -1.07405 6.39037 0
M  V30 1146 N 109.379 -1.50304 -0.473955 0
M  V30 1147 C 110.329 -1.65347 -1.56985 0
M  V30 1148 C 111.313 -0.508176 -1.52664 0
M  V30 1149 O 112.505 -0.762446 -1.59737 0
M  V30 1150 C 109.634 -1.74832 -2.95447 0
M  V30 1151 C 108.72 -2.95028 -3.04662 0
M  V30 1152 N 109.111 -4.18747 -2.83698 0
M  V30 1153 C 107.409 -2.93527 -3.35795 0
M  V30 1154 C 108.11 -4.99687 -2.97805 0
M  V30 1155 N 107.086 -4.33585 -3.2788 0
M  V30 1156 H 110.888 -2.58698 -1.39472 0
M  V30 1157 H 108.402 -1.47449 -0.680629 0
M  V30 1158 H 110.399 -1.83712 -3.7424 0
M  V30 1159 H 109.059 -0.826376 -3.14008 0
M  V30 1160 H 110.07 -4.48291 -2.59337 0
M  V30 1161 H 106.747 -2.10821 -3.60362 0
M  V30 1162 H 108.137 -6.08057 -2.85861 0
M  V30 1163 N 110.857 0.726932 -1.39834 0
M  V30 1164 C 111.787 1.85405 -1.41941 0
M  V30 1165 C 112.768 1.67751 -0.281728 0
M  V30 1166 O 113.953 1.8795 -0.488717 0
M  V30 1167 C 111.083 3.23243 -1.2701 0
M  V30 1168 C 110.037 3.55549 -2.38262 0
M  V30 1169 C 109.363 4.9241 -2.08415 0
M  V30 1170 C 110.663 3.577 -3.80589 0
M  V30 1171 H 112.357 1.83899 -2.36266 0
M  V30 1172 H 109.903 0.883349 -1.13723 0
M  V30 1173 H 111.856 4.01775 -1.27103 0
M  V30 1174 H 110.58 3.25296 -0.291564 0
M  V30 1175 H 109.239 2.79351 -2.37399 0
M  V30 1176 H 108.887 4.91052 -1.0898 0
M  V30 1177 H 108.587 5.14992 -2.82943 0
M  V30 1178 H 110.111 5.73289 -2.10171 0
M  V30 1179 H 111.525 4.26293 -3.83337 0
M  V30 1180 H 109.922 3.91804 -4.54543 0
M  V30 1181 H 110.992 2.57328 -4.10987 0
M  V30 1182 N 112.336 1.25143 0.95797 0
M  V30 1183 C 113.583 1.09692 1.70217 0
M  V30 1184 C 113.911 -0.362654 1.91089 0
M  V30 1185 O 113.166 -1.28386 1.47701 0
M  V30 1186 C 113.465 1.79272 3.09187 0
M  V30 1187 C 113.131 3.29196 3.08125 0
M  V30 1188 C 111.793 3.70096 3.07543 0
M  V30 1189 C 114.145 4.24995 3.0171 0
M  V30 1190 C 111.473 5.05213 2.9829 0
M  V30 1191 C 113.825 5.60132 2.93999 0
M  V30 1192 C 112.489 6.00365 2.9175 0
M  V30 1193 H 111.759 0.401393 0.622868 0
M  V30 1194 H 114.406 1.55372 1.11945 0
M  V30 1195 H 112.711 1.26014 3.70982 0
M  V30 1196 H 114.408 1.64773 3.65583 0
M  V30 1197 H 110.998 2.96651 3.09348 0
M  V30 1198 H 115.182 3.9439 3.01281 0
M  V30 1199 H 110.438 5.35569 2.94916 0
M  V30 1200 H 114.612 6.3406 2.87996 0
M  V30 1201 H 112.239 7.05023 2.84336 0
M  V30 1202 N 113.814 -1.1601 1.06675 0
M  V30 1203 C 114.761 -2.20525 0.680967 0
M  V30 1204 C 115.731 -1.62904 -0.324283 0
M  V30 1205 O 116.916 -1.89615 -0.212294 0
M  V30 1206 C 114.056 -3.45013 0.0776551 0
M  V30 1207 C 113.169 -4.16863 1.13355 0
M  V30 1208 C 112.304 -5.2888 0.49597 0
M  V30 1209 C 111.343 -5.92537 1.53513 0
M  V30 1210 N 110.48 -6.96038 0.920631 0
M  V30 1211 H 115.32 -2.52876 1.57663 0
M  V30 1212 H 112.857 -1.24199 0.788223 0
M  V30 1213 H 114.815 -4.16193 -0.289704 0
M  V30 1214 H 113.445 -3.132 -0.781393 0
M  V30 1215 H 112.497 -3.44248 1.61857 0
M  V30 1216 H 113.809 -4.60294 1.92174 0
M  V30 1217 H 112.963 -6.06653 0.0758604 0
M  V30 1218 H 111.702 -4.86622 -0.324062 0
M  V30 1219 H 110.707 -5.13482 1.9651 0
M  V30 1220 H 111.932 -6.36873 2.35733 0
M  V30 1221 H 109.878 -6.55888 0.12138 0
M  V30 1222 H 109.795 -7.3786 1.64616 0
M  V30 1223 H 111.063 -7.77725 0.525795 0
M  V30 1224 N 115.292 -0.849877 -1.32721 0
M  V30 1225 C 116.569 -0.372405 -1.92022 0
M  V30 1226 C 116.949 1.1435 -1.77447 0
M  V30 1227 O 116.297 1.96296 -1.16962 0
M  V30 1228 C 116.507 -0.831482 -3.3895 0
M  V30 1229 C 117.855 -0.845882 -4.16089 0
M  V30 1230 O 118.879 -0.775806 -3.47649 0
M  V30 1231 O 117.738 -0.943753 -5.38289 0
M  V30 1232 H 114.832 -0.107667 -0.819961 0
M  V30 1233 H 117.378 -0.93646 -1.41522 0
M  V30 1234 H 116.15 -1.87448 -3.4348 0
M  V30 1235 H 115.773 -0.24461 -3.96847 0
M  V30 1236 N 116.77 1.45427 -0.607355 0
M  V30 1237 C 117.717 2.3053 0.111625 0
M  V30 1238 C 118.687 1.4209 0.860216 0
M  V30 1239 O 119.872 1.71019 0.845998 0
M  V30 1240 C 117.012 3.26992 1.10319 0
M  V30 1241 C 116.125 4.30535 0.355493 0
M  V30 1242 C 115.26 5.14105 1.33676 0
M  V30 1243 C 114.299 6.09376 0.576862 0
M  V30 1244 N 113.436 6.85727 1.5074 0
M  V30 1245 H 118.276 2.91477 -0.620093 0
M  V30 1246 H 115.813 1.43631 -0.317594 0
M  V30 1247 H 117.771 3.81385 1.6912 0
M  V30 1248 H 116.401 2.67799 1.80232 0
M  V30 1249 H 115.453 3.78805 -0.348023 0
M  V30 1250 H 116.765 4.98235 -0.237423 0
M  V30 1251 H 115.919 5.72897 1.99684 0
M  V30 1252 H 114.658 4.46423 1.9636 0
M  V30 1253 H 113.663 5.49715 -0.0968519 0
M  V30 1254 H 114.888 6.79085 -0.0449341 0
M  V30 1255 H 112.834 6.20735 2.12189 0
M  V30 1256 H 112.751 7.49778 0.967913 0
M  V30 1257 H 114.019 7.4906 2.15706 0
M  V30 1258 N 118.248 0.346503 1.53744 0
M  V30 1259 C 119.494 -0.249473 2.0126 0
M  V30 1260 C 119.827 -1.49965 1.23386 0
M  V30 1261 O 119.102 -1.91811 0.32229 0
M  V30 1262 C 119.385 -0.560643 3.55709 0
M  V30 1263 C 119.238 0.701836 4.44291 0
M  V30 1264 C 120.557 -1.36905 4.18264 0
M  V30 1265 H 117.676 -0.0891987 0.731582 0
M  V30 1266 H 120.318 0.467624 1.84156 0
M  V30 1267 H 118.468 -1.17156 3.70414 0
M  V30 1268 H 120.14 1.33974 4.41417 0
M  V30 1269 H 118.383 1.32612 4.13033 0
M  V30 1270 H 119.054 0.43933 5.50249 0
M  V30 1271 H 121.53 -0.852448 4.07275 0
M  V30 1272 H 120.406 -1.55553 5.26398 0
M  V30 1273 H 120.667 -2.37203 3.73078 0
M  V30 1274 N 119.726 -1.57421 0.075193 0
M  V30 1275 C 120.972 -1.93905 -0.594025 0
M  V30 1276 C 121.305 -0.955701 -1.69056 0
M  V30 1277 O 120.58 0.0145373 -1.94495 0
M  V30 1278 C 120.863 -3.40638 -1.1678 0
M  V30 1279 C 120.716 -4.49733 -0.0776792 0
M  V30 1280 C 122.035 -3.88259 -2.07228 0
M  V30 1281 H 119.154 -0.705105 -0.214466 0
M  V30 1282 H 121.796 -1.8947 0.141854 0
M  V30 1283 H 119.946 -3.44549 -1.79494 0
M  V30 1284 H 121.618 -4.57942 0.555573 0
M  V30 1285 H 119.861 -4.29751 0.591286 0
M  V30 1286 H 120.532 -5.49549 -0.519603 0
M  V30 1287 H 123.008 -3.86376 -1.54445 0
M  V30 1288 H 121.884 -4.91533 -2.44308 0
M  V30 1289 H 122.145 -3.26396 -2.98191 0
M  V30 1290 N 121.204 0.198386 -1.56346 0
M  V30 1291 C 122.134 1.24865 -1.9731 0
M  V30 1292 C 123.115 1.47651 -0.844576 0
M  V30 1293 O 124.3 1.59444 -1.10866 0
M  V30 1294 C 121.43 2.59358 -2.30977 0
M  V30 1295 C 120.384 2.5119 -3.46537 0
M  V30 1296 C 119.71 3.89926 -3.65871 0
M  V30 1297 C 121.01 2.03977 -4.80823 0
M  V30 1298 H 122.704 0.908252 -2.85291 0
M  V30 1299 H 120.25 0.435462 -1.37258 0
M  V30 1300 H 122.203 3.33011 -2.58228 0
M  V30 1301 H 120.927 2.95132 -1.39874 0
M  V30 1302 H 119.586 1.79993 -3.19371 0
M  V30 1303 H 119.234 4.23046 -2.72105 0
M  V30 1304 H 118.934 3.85336 -4.4361 0
M  V30 1305 H 120.458 4.65205 -3.95495 0
M  V30 1306 H 121.872 2.67386 -5.07127 0
M  V30 1307 H 120.269 2.10397 -5.62008 0
M  V30 1308 H 121.339 0.992861 -4.74626 0
M  V30 1309 N 122.682 1.50554 0.465978 0
M  V30 1310 C 123.959 1.5232 1.22712 0
M  V30 1311 C 124.339 0.270807 2.09356 0
M  V30 1312 O 123.687 -0.745541 2.15995 0
M  V30 1313 C 123.897 2.82175 2.05374 0
M  V30 1314 C 125.245 3.33033 2.6339 0
M  V30 1315 O 126.269 2.83531 2.15612 0
M  V30 1316 O 125.128 4.19336 3.50456 0
M  V30 1317 H 122.222 0.611183 0.557122 0
M  V30 1318 H 124.768 1.62847 0.477381 0
M  V30 1319 H 123.54 3.64797 1.41558 0
M  V30 1320 H 123.163 2.74675 2.87471 0
M  V30 1321 N 124.16 -0.719506 1.40217 0
M  V30 1322 C 125.406 -1.48152 1.38488 0
M  V30 1323 C 125.739 -1.94195 -0.0141867 0
M  V30 1324 O 125.014 -1.67884 -0.982096 0
M  V30 1325 C 125.297 -2.71035 2.37091 0
M  V30 1326 C 125.15 -2.30912 3.86005 0
M  V30 1327 C 126.469 -3.73182 2.33288 0
M  V30 1328 H 123.588 -0.537395 0.504357 0
M  V30 1329 H 126.23 -0.821472 1.71324 0
M  V30 1330 H 124.38 -3.27352 2.0922 0
M  V30 1331 H 126.052 -1.80107 4.24687 0
M  V30 1332 H 124.295 -1.62958 4.02029 0
M  V30 1333 H 124.966 -3.18978 4.50508 0
M  V30 1334 H 127.442 -3.26485 2.57966 0
M  V30 1335 H 126.318 -4.56806 3.04334 0
M  V30 1336 H 126.579 -4.21202 1.34317 0
M  V30 1337 N 125.638 -1.25649 -0.95132 0
M  V30 1338 C 126.886 -1.10375 -1.69298 0
M  V30 1339 C 127.207 0.355339 -1.91735 0
M  V30 1340 O 126.477 1.25188 -1.50681 0
M  V30 1341 H 125.057 -0.405461 -0.627384 0
M  V30 1342 H 127.719 -1.57823 -1.14358 0
M  V30 1343 H 126.815 -1.61465 -2.67087 0
M  V30 1344 N 127.117 1.15442 -1.07289 0
M  V30 1345 C 128.342 1.90638 -0.816828 0
M  V30 1346 C 128.767 1.77445 0.624083 0
M  V30 1347 O 128.125 1.10671 1.43602 0
M  V30 1348 C 128.173 3.39008 -1.22906 0
M  V30 1349 O 127.277 4.10701 -0.373975 0
M  V30 1350 H 126.618 0.593555 -0.297638 0
M  V30 1351 H 129.148 1.46198 -1.43134 0
M  V30 1352 H 129.158 3.89801 -1.20497 0
M  V30 1353 H 127.833 3.47929 -2.27856 0
M  V30 1354 H 126.41 3.70046 -0.460499 0
M  V30 1355 N 128.595 0.856903 1.32268 0
M  V30 1356 C 129.843 0.460474 1.96784 0
M  V30 1357 C 130.164 -0.987701 1.68135 0
M  V30 1358 O 129.434 -1.69058 0.989765 0
M  V30 1359 H 128.014 0.167289 0.728027 0
M  V30 1360 H 130.676 1.09383 1.61312 0
M  V30 1361 H 129.772 0.60739 3.06133 0
M  V30 1362 N 130.073 -1.45103 0.615059 0
M  V30 1363 C 131.301 -2.06553 0.11977 0
M  V30 1364 C 131.716 -1.45842 -1.19898 0
M  V30 1365 O 131.073 -0.575325 -1.73194 0
M  V30 1366 C 131.124 -3.61495 -0.018364 0
M  V30 1367 O 130.845 -4.19942 1.24822 0
M  V30 1368 C 132.346 -4.39947 -0.544237 0
M  V30 1369 H 129.566 -0.667096 0.0722739 0
M  V30 1370 H 132.11 -1.8623 0.84491 0
M  V30 1371 H 130.265 -3.81135 -0.693865 0
M  V30 1372 H 130.679 -5.13204 1.0827 0
M  V30 1373 H 132.153 -5.48838 -0.589953 0
M  V30 1374 H 132.63 -4.10255 -1.56805 0
M  V30 1375 H 133.236 -4.25188 0.0974703 0
M  V30 1376 N 131.551 -0.354651 -1.53558 0
M  V30 1377 C 132.799 0.237972 -2.00694 0
M  V30 1378 C 133.12 1.50173 -1.24391 0
M  V30 1379 O 132.39 1.92673 -0.354135 0
M  V30 1380 H 130.97 0.0909256 -0.741446 0
M  V30 1381 H 133.632 -0.478368 -1.88938 0
M  V30 1382 H 132.728 0.47264 -3.085 0
M  V30 1383 N 133.029 1.57378 -0.0835403 0
M  V30 1384 C 134.278 1.93106 0.582498 0
M  V30 1385 C 134.591 0.96651 1.70053 0
M  V30 1386 O 135.797 1.21705 2.42693 0
M  V30 1387 C 134.253 3.43076 1.08751 0
M  V30 1388 C 133.861 4.48 -0.000146404 0
M  V30 1389 C 135.605 3.87785 1.72694 0
M  V30 1390 C 133.512 5.89113 0.519568 0
M  V30 1391 H 132.442 0.720775 0.221358 0
M  V30 1392 H 135.093 1.82821 -0.157675 0
M  V30 1393 H 133.475 3.48474 1.88101 0
M  V30 1394 H 134.649 4.54233 -0.775199 0
M  V30 1395 H 132.964 4.1283 -0.54406 0
M  V30 1396 H 135.561 4.90604 2.1263 0
M  V30 1397 H 135.904 3.25796 2.59158 0
M  V30 1398 H 136.437 3.8504 0.999457 0
M  V30 1399 H 133.176 6.54775 -0.308186 0
M  V30 1400 H 132.696 5.86376 1.26188 0
M  V30 1401 H 134.375 6.39346 0.992237 0
M  V30 1402 N 134.507 -0.190092 1.56449 0
M  V30 1403 C 135.437 -1.23816 1.97969 0
M  V30 1404 C 136.418 -1.47201 0.852395 0
M  V30 1405 O 137.603 -1.58854 1.1171 0
M  V30 1406 C 134.733 -2.5813 2.3235 0
M  V30 1407 C 133.687 -2.49348 3.47864 0
M  V30 1408 C 133.013 -3.8798 3.67934 0
M  V30 1409 C 134.313 -2.01424 4.81898 0
M  V30 1410 H 136.007 -0.89311 2.85769 0
M  V30 1411 H 133.553 -0.428177 1.37487 0
M  V30 1412 H 135.506 -3.31637 2.59991 0
M  V30 1413 H 134.23 -2.94386 1.41438 0
M  V30 1414 H 132.889 -1.78297 3.20321 0
M  V30 1415 H 132.537 -4.21597 2.74344 0
M  V30 1416 H 132.237 -3.82978 4.45648 0
M  V30 1417 H 133.761 -4.63101 3.97957 0
M  V30 1418 H 135.175 -2.64693 5.08538 0
M  V30 1419 H 133.572 -2.07413 5.63116 0
M  V30 1420 H 134.642 -0.967677 4.75146 0
M  V30 1421 N 135.985 -1.50799 -0.457987 0
M  V30 1422 C 137.225 -1.64088 -1.21879 0
M  V30 1423 C 137.589 -0.339848 -1.88968 0
M  V30 1424 O 138.79 -0.348301 -2.66534 0
M  V30 1425 C 137.061 -2.79726 -2.2246 0
M  V30 1426 S 138.62 -3.13225 -3.07303 0
M  V30 1427 H 135.438 -0.578314 -0.41361 0
M  V30 1428 H 138.04 -1.88632 -0.513645 0
M  V30 1429 H 136.744 -3.72722 -1.71775 0
M  V30 1430 H 136.275 -2.57308 -2.97584 0
M  V30 1431 H 138.29 -2.58062 -4.23814 0
M  V30 1432 N 137.463 0.71206 -1.40597 0
M  V30 1433 C 138.396 1.83582 -1.35546 0
M  V30 1434 C 139.374 1.61032 -0.225284 0
M  V30 1435 O 140.558 1.83998 -0.409519 0
M  V30 1436 C 137.685 3.19983 -1.11034 0
M  V30 1437 C 136.731 3.61355 -2.2655 0
M  V30 1438 S 137.564 3.68062 -3.88961 0
M  V30 1439 C 138.72 5.07216 -3.66719 0
M  V30 1440 H 138.953 1.87586 -2.30648 0
M  V30 1441 H 136.486 0.879182 -1.26924 0
M  V30 1442 H 138.444 3.98734 -0.975761 0
M  V30 1443 H 137.105 3.13608 -0.175798 0
M  V30 1444 H 136.298 4.60403 -2.0505 0
M  V30 1445 H 135.9 2.8987 -2.36329 0
M  V30 1446 H 138.192 5.94238 -3.25404 0
M  V30 1447 H 139.135 5.33753 -4.6531 0
M  V30 1448 H 139.543 4.77976 -3.00332 0
M  V30 1449 N 138.941 1.26152 0.944643 0
M  V30 1450 C 140.188 1.11492 1.69044 0
M  V30 1451 C 140.516 -0.342366 1.91463 0
M  V30 1452 O 139.771 -1.26812 1.49054 0
M  V30 1453 C 140.07 1.82541 3.07268 0
M  V30 1454 C 139.736 3.32445 3.04616 0
M  V30 1455 C 138.398 3.73337 3.036 0
M  V30 1456 C 140.75 4.28171 2.97185 0
M  V30 1457 C 138.078 5.08348 2.92915 0
M  V30 1458 C 140.43 5.63218 2.88041 0
M  V30 1459 C 139.094 6.03426 2.85366 0
M  V30 1460 H 138.364 0.407977 0.618576 0
M  V30 1461 H 141.011 1.56551 1.10291 0
M  V30 1462 H 139.316 1.29941 3.69625 0
M  V30 1463 H 141.013 1.68642 3.63815 0
M  V30 1464 H 137.603 2.99915 3.06185 0
M  V30 1465 H 141.787 3.97563 2.97081 0
M  V30 1466 H 137.043 5.38667 2.89219 0
M  V30 1467 H 141.217 6.37078 2.81254 0
M  V30 1468 H 138.844 7.07999 2.76842 0
M  V30 1469 N 140.419 -1.14872 1.07899 0
M  V30 1470 C 141.382 -2.17986 0.708161 0
M  V30 1471 C 142.382 -1.58775 -0.25442 0
M  V30 1472 O 143.572 -1.74166 -0.034645 0
M  V30 1473 C 140.704 -3.40871 0.0446929 0
M  V30 1474 H 141.897 -2.52306 1.62116 0
M  V30 1475 H 139.45 -1.2943 0.876218 0
M  V30 1476 H 140.185 -3.12124 -0.880281 0
M  V30 1477 H 139.97 -3.8511 0.737091 0
M  V30 1478 H 141.46 -4.17121 -0.19991 0
M  V30 1479 N 141.898 -0.863906 -1.31812 0
M  V30 1480 C 142.861 -0.320212 -2.26952 0
M  V30 1481 C 143.861 0.525369 -1.51975 0
M  V30 1482 O 145.051 0.335547 -1.70938 0
M  V30 1483 C 142.183 0.545919 -3.365 0
M  V30 1484 H 143.376 -1.16004 -2.76556 0
M  V30 1485 H 140.929 -0.638995 -1.42641 0
M  V30 1486 H 141.664 1.40718 -2.92179 0
M  V30 1487 H 141.449 -0.0594674 -3.92055 0
M  V30 1488 H 142.939 0.918796 -4.07367 0
M  V30 1489 N 143.376 1.44774 -0.622745 0
M  V30 1490 C 144.323 2.30635 0.0871679 0
M  V30 1491 C 145.293 1.42994 0.845097 0
M  V30 1492 O 146.478 1.71907 0.827812 0
M  V30 1493 C 143.618 3.28144 1.06844 0
M  V30 1494 C 142.731 4.30888 0.309809 0
M  V30 1495 C 141.866 5.15494 1.28215 0
M  V30 1496 C 140.905 6.09953 0.512198 0
M  V30 1497 N 140.042 6.87287 1.43458 0
M  V30 1498 H 144.882 2.90803 -0.650974 0
M  V30 1499 H 142.419 1.43286 -0.33281 0
M  V30 1500 H 144.377 3.83157 1.65066 0
M  V30 1501 H 143.007 2.69695 1.77382 0
M  V30 1502 H 142.059 3.78414 -0.388181 0
M  V30 1503 H 143.371 4.97955 -0.290254 0
M  V30 1504 H 142.525 5.74983 1.93596 0
M  V30 1505 H 141.264 4.48481 1.91614 0
M  V30 1506 H 140.269 5.49581 -0.155151 0
M  V30 1507 H 141.494 6.78999 -0.116958 0
M  V30 1508 H 139.44 6.2295 2.05594 0
M  V30 1509 H 139.357 7.50763 0.888335 0
M  V30 1510 H 140.625 7.51306 2.07749 0
M  V30 1511 N 144.854 0.36279 1.53368 0
M  V30 1512 C 145.817 -0.472679 2.24273 0
M  V30 1513 C 146.817 -1.012 1.24961 0
M  V30 1514 O 148.007 -0.898194 1.49259 0
M  V30 1515 C 145.139 -1.66039 2.97731 0
M  V30 1516 H 146.332 0.14773 2.99536 0
M  V30 1517 H 143.885 0.114434 1.55881 0
M  V30 1518 H 144.62 -2.31896 2.26704 0
M  V30 1519 H 144.405 -1.28066 3.70596 0
M  V30 1520 H 145.895 -2.25252 3.51641 0
M  V30 1521 N 146.332 -1.57332 0.0918853 0
M  V30 1522 C 147.58 -1.93853 -0.571446 0
M  V30 1523 C 147.901 -0.974212 -1.6892 0
M  V30 1524 O 147.171 -0.0257254 -1.95883 0
M  V30 1525 H 145.751 -0.715666 -0.214082 0
M  V30 1526 H 148.413 -1.94287 0.154464 0
M  V30 1527 H 147.509 -2.96191 -0.983729 0
M  V30 1528 N 147.81 0.181792 -1.56548 0
M  V30 1529 C 148.773 1.20894 -1.94724 0
M  V30 1530 C 149.773 1.37738 -0.829747 0
M  V30 1531 O 150.963 1.35323 -1.09697 0
M  V30 1532 C 148.095 2.57593 -2.23291 0
M  V30 1533 H 149.288 0.882275 -2.86629 0
M  V30 1534 H 146.841 0.423838 -1.50444 0
M  V30 1535 H 147.576 2.95291 -1.34067 0
M  V30 1536 H 147.361 2.46735 -3.04736 0
M  V30 1537 H 148.851 3.31637 -2.53785 0
M  V30 1538 N 149.288 1.51039 0.449983 0
M  V30 1539 C 150.704 1.38934 0.785462 0
M  V30 1540 C 150.904 0.461817 1.96136 0
M  V30 1541 O 149.96 -0.0877389 2.52348 0
M  V30 1542 C 151.273 2.80724 1.0777 0
M  V30 1543 C 152.821 2.89787 1.1829 0
M  V30 1544 C 153.296 4.32457 1.50815 0
M  V30 1545 N 154.787 4.35505 1.57764 0
M  V30 1546 C 155.522 5.42914 1.84477 0
M  V30 1547 N 155.018 6.60502 2.09068 0
M  V30 1548 N 156.811 5.3038 1.86155 0
M  V30 1549 H 148.962 2.09904 -0.324647 0
M  V30 1550 H 151.225 0.944378 -0.0827957 0
M  V30 1551 H 150.931 3.50531 0.286498 0
M  V30 1552 H 150.805 3.19273 2.00859 0
M  V30 1553 H 153.192 2.20186 1.96474 0
M  V30 1554 H 153.273 2.54752 0.231314 0
M  V30 1555 H 152.917 5.02603 0.731622 0
M  V30 1556 H 152.847 4.64995 2.47158 0
M  V30 1557 H 155.338 3.50724 1.40715 0
M  V30 1558 H 155.651 7.38158 2.28785 0
M  V30 1559 H 153.996 6.63639 2.06416 0
M  V30 1560 H 157.187 4.37505 1.66454 0
M  V30 1561 H 157.36 6.1417 2.06637 0
M  V30 1562 N 150.766 -0.704594 1.40972 0
M  V30 1563 C 151.713 -1.81862 1.42109 0
M  V30 1564 C 152.683 -1.63781 0.276593 0
M  V30 1565 O 153.868 -1.84759 0.4763 0
M  V30 1566 C 151.008 -3.19669 1.30022 0
M  V30 1567 C 150.121 -3.49246 2.54267 0
M  V30 1568 C 149.256 -4.76618 2.3454 0
M  V30 1569 C 148.295 -4.99133 3.54306 0
M  V30 1570 N 147.432 -6.17726 3.33706 0
M  V30 1571 H 152.272 -1.80226 2.37324 0
M  V30 1572 H 149.809 -0.880238 1.17857 0
M  V30 1573 H 151.767 -3.99263 1.21018 0
M  V30 1574 H 150.397 -3.20506 0.384192 0
M  V30 1575 H 149.449 -2.64125 2.73756 0
M  V30 1576 H 150.761 -3.61788 3.43381 0
M  V30 1577 H 149.915 -5.64249 2.22952 0
M  V30 1578 H 148.654 -4.66305 1.42867 0
M  V30 1579 H 147.659 -4.09953 3.66359 0
M  V30 1580 H 148.884 -5.11311 4.4692 0
M  V30 1581 H 146.83 -6.08642 2.44725 0
M  V30 1582 H 146.747 -6.30995 4.16391 0
M  V30 1583 H 148.015 -7.08115 3.25873 0
M  V30 1584 N 152.244 -1.26651 -0.937939 0
M  V30 1585 C 153.49 -1.12553 -1.687 0
M  V30 1586 C 153.823 0.329782 -1.91379 0
M  V30 1587 O 153.098 1.24202 -1.4968 0
M  V30 1588 C 153.381 -1.89862 -3.05981 0
M  V30 1589 C 153.234 -3.43318 -2.90607 0
M  V30 1590 C 154.553 -1.69499 -4.0615 0
M  V30 1591 H 151.672 -0.410257 -0.612257 0
M  V30 1592 H 154.314 -1.55685 -1.08913 0
M  V30 1593 H 152.464 -1.53204 -3.57017 0
M  V30 1594 H 154.136 -3.89747 -2.46769 0
M  V30 1595 H 152.379 -3.70179 -2.26164 0
M  V30 1596 H 153.05 -3.92642 -3.8799 0
M  V30 1597 H 155.526 -2.01442 -3.64088 0
M  V30 1598 H 154.402 -2.26002 -5.00214 0
M  V30 1599 H 154.663 -0.640365 -4.37438 0
M  V30 1600 N 153.722 1.14298 -1.08507 0
M  V30 1601 C 154.971 1.84708 -0.810305 0
M  V30 1602 C 155.284 1.83903 0.666271 0
M  V30 1603 O 156.49 2.50112 1.05624 0
M  V30 1604 C 154.946 3.31572 -1.39957 0
M  V30 1605 C 154.554 3.40791 -2.90801 0
M  V30 1606 C 156.298 4.07087 -1.20334 0
M  V30 1607 C 154.205 4.81872 -3.4286 0
M  V30 1608 H 153.135 0.691985 -0.299454 0
M  V30 1609 H 155.786 1.28841 -1.30661 0
M  V30 1610 H 154.168 3.87183 -0.830976 0
M  V30 1611 H 155.342 2.95225 -3.53806 0
M  V30 1612 H 153.657 2.78732 -3.0935 0
M  V30 1613 H 156.254 5.11225 -1.56693 0
M  V30 1614 H 156.597 4.16054 -0.143237 0
M  V30 1615 H 157.13 3.57779 -1.73893 0
M  V30 1616 H 153.869 4.78094 -4.48449 0
M  V30 1617 H 153.389 5.27972 -2.84615 0
M  V30 1618 H 155.068 5.50765 -3.39509 0
M  V30 1619 N 155.201 0.870884 1.31352 0
M  V30 1620 C 156.449 0.48132 1.96285 0
M  V30 1621 C 156.77 -0.969813 1.69173 0
M  V30 1622 O 156.04 -1.67998 1.00764 0
M  V30 1623 H 154.62 0.175002 0.726212 0
M  V30 1624 H 157.282 1.11087 1.60143 0
M  V30 1625 H 156.378 0.639825 3.05471 0
M  V30 1626 N 156.679 -1.44442 0.630414 0
M  V30 1627 C 157.928 -2.01267 0.132073 0
M  V30 1628 C 158.241 -1.50172 -1.25331 0
M  V30 1629 O 159.447 -1.9912 -1.84562 0
M  V30 1630 C 157.903 -3.59422 0.185362 0
M  V30 1631 C 157.511 -4.19514 1.57201 0
M  V30 1632 C 159.255 -4.23724 -0.256553 0
M  V30 1633 C 157.162 -5.69891 1.58045 0
M  V30 1634 H 156.092 -0.752619 0.0456092 0
M  V30 1635 H 158.743 -1.65666 0.789106 0
M  V30 1636 H 157.125 -3.92318 -0.538759 0
M  V30 1637 H 158.299 -3.98156 2.31966 0
M  V30 1638 H 156.614 -3.67496 1.95795 0
M  V30 1639 H 159.211 -5.34019 -0.269767 0
M  V30 1640 H 159.554 -3.96013 -1.28372 0
M  V30 1641 H 160.087 -3.95629 0.41505 0
M  V30 1642 H 156.826 -6.02336 2.58597 0
M  V30 1643 H 156.346 -5.93373 0.875725 0
M  V30 1644 H 158.025 -6.33515 1.31408 0
M  V30 1645 N 158.157 -0.370918 -1.53173 0
M  V30 1646 C 159.067 0.480823 -2.2962 0
M  V30 1647 C 160.083 1.08789 -1.35798 0
M  V30 1648 O 161.259 1.09768 -1.68858 0
M  V30 1649 C 158.324 1.60227 -3.07454 0
M  V30 1650 C 157.385 1.0222 -4.16953 0
M  V30 1651 C 156.618 2.0902 -4.91066 0
M  V30 1652 O 156.841 3.30222 -4.65091 0
M  V30 1653 O 155.775 1.71778 -5.76867 0
M  V30 1654 H 159.601 -0.141421 -3.03371 0
M  V30 1655 H 157.186 -0.135146 -1.48787 0
M  V30 1656 H 159.068 2.25417 -3.56041 0
M  V30 1657 H 157.743 2.20982 -2.36535 0
M  V30 1658 H 156.65 0.334064 -3.72605 0
M  V30 1659 H 157.983 0.459131 -4.90054 0
M  V30 1660 N 159.635 1.57281 -0.100228 0
M  V30 1661 C 160.875 1.96419 0.56558 0
M  V30 1662 C 161.239 0.981265 1.65031 0
M  V30 1663 O 162.44 1.26133 2.37369 0
M  V30 1664 C 160.711 3.39996 1.10171 0
M  V30 1665 S 162.27 4.01134 1.77867 0
M  V30 1666 H 159.088 0.68667 0.184406 0
M  V30 1667 H 161.69 1.94662 -0.180851 0
M  V30 1668 H 160.394 4.09296 0.300803 0
M  V30 1669 H 159.925 3.45361 1.88385 0
M  V30 1670 H 161.94 3.90358 3.06326 0
M  V30 1671 N 161.113 -0.173488 1.56642 0
M  V30 1672 C 162.338 -0.910149 1.86363 0
M  V30 1673 C 162.763 -1.75132 0.686318 0
M  V30 1674 O 162.121 -1.77595 -0.364643 0
M  V30 1675 C 162.169 -1.76447 3.14482 0
M  V30 1676 O 161.273 -2.86584 2.96553 0
M  V30 1677 H 160.614 -0.255086 0.613047 0
M  V30 1678 H 163.144 -0.172283 2.03873 0
M  V30 1679 H 163.154 -2.16483 3.45831 0
M  V30 1680 H 161.829 -1.14658 3.99783 0
M  V30 1681 H 160.406 -2.50146 2.76553 0
M  V30 1682 N 162.591 -1.51276 -0.441967 0
M  V30 1683 C 163.816 -1.67799 -1.21895 0
M  V30 1684 C 164.241 -0.372864 -1.84367 0
M  V30 1685 O 163.599 0.666501 -1.68604 0
M  V30 1686 C 163.647 -2.79199 -2.28211 0
M  V30 1687 O 162.751 -2.42479 -3.33583 0
M  V30 1688 H 162.092 -0.559649 -0.357336 0
M  V30 1689 H 164.622 -1.97815 -0.522522 0
M  V30 1690 H 164.632 -3.03146 -2.73069 0
M  V30 1691 H 163.307 -3.73906 -1.82118 0
M  V30 1692 H 161.884 -2.29087 -2.94234 0
M  V30 1693 N 164.069 0.697108 -1.41344 0
M  V30 1694 C 165.318 1.45279 -1.39918 0
M  V30 1695 C 165.631 1.95597 -0.0109624 0
M  V30 1696 O 166.837 2.71208 0.125919 0
M  V30 1697 C 165.293 2.62695 -2.46007 0
M  V30 1698 C 164.901 2.19169 -3.90729 0
M  V30 1699 C 166.645 3.40336 -2.53715 0
M  V30 1700 C 164.552 3.33535 -4.88373 0
M  V30 1701 H 163.482 0.545692 -0.520323 0
M  V30 1702 H 166.133 0.756929 -1.67161 0
M  V30 1703 H 164.515 3.34541 -2.11892 0
M  V30 1704 H 165.689 1.54623 -4.34083 0
M  V30 1705 H 164.004 1.54525 -3.86666 0
M  V30 1706 H 166.601 4.2547 -3.2385 0
M  V30 1707 H 166.944 3.85418 -1.5735 0
M  V30 1708 H 167.477 2.75546 -2.86913 0
M  V30 1709 H 164.216 2.93468 -5.86137 0
M  V30 1710 H 163.736 3.96936 -4.49668 0
M  V30 1711 H 165.415 3.99335 -5.09059 0
M  V30 1712 N 165.547 1.27147 0.931209 0
M  V30 1713 C 166.772 1.16191 1.71797 0
M  V30 1714 C 167.197 -0.278004 1.86034 0
M  V30 1715 O 166.555 -1.20137 1.35782 0
M  V30 1716 C 166.603 1.84673 3.09723 0
M  V30 1717 O 165.707 1.14231 3.96264 0
M  V30 1718 H 165.048 0.404303 0.526721 0
M  V30 1719 H 167.578 1.68152 1.1656 0
M  V30 1720 H 167.588 1.91893 3.60057 0
M  V30 1721 H 166.263 2.89421 2.98677 0
M  V30 1722 H 164.84 1.15056 3.54706 0
M  V30 1723 N 167.025 -1.13721 1.09112 0
M  V30 1724 C 168.302 -1.81155 0.737706 0
M  V30 1725 C 168.682 -1.96253 -0.777683 0
M  V30 1726 O 168.03 -1.52807 -1.69889 0
M  V30 1727 C 168.24 -3.16392 1.47299 0
M  V30 1728 C 169.588 -3.91787 1.63671 0
M  V30 1729 O 170.612 -3.26005 1.43524 0
M  V30 1730 O 169.471 -5.0977 1.96969 0
M  V30 1731 H 166.565 -0.783518 0.26463 0
M  V30 1732 H 169.111 -1.20676 1.19312 0
M  V30 1733 H 167.883 -3.0061 2.50498 0
M  V30 1734 H 167.506 -3.8457 1.00953 0
M  V30 1735 N 168.503 -0.877838 -1.30888 0
M  V30 1736 C 169.733 -0.506678 -2.00291 0
M  V30 1737 C 170.141 0.907449 -1.66018 0
M  V30 1738 O 169.484 1.60719 -0.88967 0
M  V30 1739 C 169.546 -0.59323 -3.54572 0
M  V30 1740 C 169.21 -1.97038 -4.12341 0
M  V30 1741 C 170.207 -2.93889 -4.28865 0
M  V30 1742 C 167.892 -2.27383 -4.47886 0
M  V30 1743 C 169.886 -4.19224 -4.80136 0
M  V30 1744 C 167.573 -3.52965 -4.98857 0
M  V30 1745 C 168.571 -4.48701 -5.14934 0
M  V30 1746 O 168.259 -5.72056 -5.64808 0
M  V30 1747 H 167.991 -0.1951 -0.647234 0
M  V30 1748 H 170.545 -1.18301 -1.6791 0
M  V30 1749 H 168.775 0.140057 -3.86446 0
M  V30 1750 H 170.464 -0.234372 -4.05223 0
M  V30 1751 H 171.23 -2.71756 -4.01714 0
M  V30 1752 H 167.109 -1.53639 -4.34645 0
M  V30 1753 H 170.653 -4.93956 -4.92599 0
M  V30 1754 H 166.55 -3.74939 -5.25443 0
M  V30 1755 H 167.318 -5.74337 -5.83163 0
M  V30 1756 N 169.982 1.44106 -0.638065 0
M  V30 1757 C 170.945 2.29138 0.0531013 0
M  V30 1758 C 171.945 1.41409 0.765506 0
M  V30 1759 O 173.135 1.63206 0.609046 0
M  V30 1760 C 170.267 3.23144 1.08584 0
M  V30 1761 H 171.46 2.91739 -0.694883 0
M  V30 1762 H 169.013 1.51134 -0.398538 0
M  V30 1763 H 169.748 2.65408 1.86357 0
M  V30 1764 H 169.533 3.87804 0.578852 0
M  V30 1765 H 171.023 3.87004 1.56899 0
M  V30 1766 N 171.46 0.379036 1.52974 0
M  V30 1767 C 172.706 -0.206727 2.01744 0
M  V30 1768 C 173.039 -1.47314 1.26539 0
M  V30 1769 O 172.314 -1.91084 0.362903 0
M  V30 1770 C 172.597 -0.485066 3.56818 0
M  V30 1771 C 172.45 0.795919 4.42702 0
M  V30 1772 C 173.769 -1.28003 4.21074 0
M  V30 1773 H 170.888 -0.0736607 0.73331 0
M  V30 1774 H 173.53 0.506581 1.83122 0
M  V30 1775 H 171.68 -1.09272 3.72816 0
M  V30 1776 H 173.352 1.43307 4.38476 0
M  V30 1777 H 171.595 1.41344 4.10127 0
M  V30 1778 H 172.266 0.555947 5.49193 0
M  V30 1779 H 174.742 -0.765867 4.08991 0
M  V30 1780 H 173.618 -1.44352 5.29579 0
M  V30 1781 H 173.879 -2.29236 3.78026 0
M  V30 1782 N 172.938 -1.57226 0.108567 0
M  V30 1783 C 173.885 -2.14756 -0.845481 0
M  V30 1784 C 174.855 -1.06971 -1.27068 0
M  V30 1785 O 176.04 -1.34827 -1.35005 0
M  V30 1786 C 173.18 -2.74298 -2.09415 0
M  V30 1787 C 172.293 -3.96358 -1.71826 0
M  V30 1788 C 171.428 -4.44021 -2.9158 0
M  V30 1789 C 170.467 -5.58637 -2.50181 0
M  V30 1790 N 169.604 -6.01091 -3.62814 0
M  V30 1791 H 174.444 -2.95961 -0.348035 0
M  V30 1792 H 171.981 -1.46226 -0.160106 0
M  V30 1793 H 173.939 -3.06945 -2.82561 0
M  V30 1794 H 172.569 -1.95801 -2.56636 0
M  V30 1795 H 171.621 -3.69939 -0.885947 0
M  V30 1796 H 172.933 -4.79504 -1.37394 0
M  V30 1797 H 172.087 -4.78522 -3.72963 0
M  V30 1798 H 170.826 -3.59803 -3.29231 0
M  V30 1799 H 169.831 -5.23751 -1.67228 0
M  V30 1800 H 171.056 -6.44613 -2.13659 0
M  V30 1801 H 169.002 -5.19817 -4.00158 0
M  V30 1802 H 168.919 -6.79066 -3.32273 0
M  V30 1803 H 170.187 -6.40227 -4.44668 0
M  V30 1804 N 174.416 0.165178 -1.56732 0
M  V30 1805 C 175.665 0.879143 -1.81532 0
M  V30 1806 C 175.978 1.83144 -0.686842 0
M  V30 1807 O 177.184 2.58823 -0.819944 0
M  V30 1808 C 175.64 1.61388 -3.21686 0
M  V30 1809 C 175.248 0.704904 -4.4242 0
M  V30 1810 C 176.992 2.3157 -3.55774 0
M  V30 1811 C 174.899 1.44022 -5.73595 0
M  V30 1812 H 173.829 0.332033 -0.676957 0
M  V30 1813 H 176.48 0.132008 -1.83025 0
M  V30 1814 H 174.862 2.40599 -3.14529 0
M  V30 1815 H 176.036 -0.0506815 -4.60772 0
M  V30 1816 H 174.351 0.112419 -4.16248 0
M  V30 1817 H 176.948 2.8719 -4.51028 0
M  V30 1818 H 177.291 3.07201 -2.8095 0
M  V30 1819 H 177.824 1.59297 -3.64513 0
M  V30 1820 H 174.563 0.72612 -6.51466 0
M  V30 1821 H 174.083 2.16898 -5.5921 0
M  V30 1822 H 175.762 1.98606 -6.15764 0
M  V30 1823 N 175.894 1.51508 0.433938 0
M  V30 1824 C 177.14 1.64588 1.18484 0
M  V30 1825 C 177.473 0.362666 1.90784 0
M  V30 1826 O 176.748 -0.637892 1.83742 0
M  V30 1827 C 177.031 2.85149 2.19913 0
M  V30 1828 C 176.884 4.23456 1.51674 0
M  V30 1829 C 178.203 3.01227 3.20858 0
M  V30 1830 H 175.322 0.598994 0.429389 0
M  V30 1831 H 177.964 1.84002 0.473647 0
M  V30 1832 H 176.114 2.68729 2.80566 0
M  V30 1833 H 177.786 4.51552 0.943322 0
M  V30 1834 H 176.029 4.25998 0.819035 0
M  V30 1835 H 176.7 5.03812 2.2556 0
M  V30 1836 H 179.176 3.16382 2.70263 0
M  V30 1837 H 178.052 3.87141 3.89118 0
M  V30 1838 H 178.313 2.13447 3.8716 0
M  V30 1839 N 177.372 -0.689602 1.41712 0
M  V30 1840 C 178.319 -1.80345 1.44029 0
M  V30 1841 C 179.289 -1.63478 0.293948 0
M  V30 1842 O 180.474 -1.84244 0.495869 0
M  V30 1843 C 177.614 -3.18272 1.33405 0
M  V30 1844 C 176.727 -3.46529 2.57956 0
M  V30 1845 C 175.862 -4.74103 2.39582 0
M  V30 1846 C 174.901 -4.95347 3.5958 0
M  V30 1847 N 174.038 -6.14151 3.40239 0
M  V30 1848 H 178.878 -1.77698 2.39222 0
M  V30 1849 H 176.415 -0.867688 1.18784 0
M  V30 1850 H 178.373 -3.97956 1.25246 0
M  V30 1851 H 177.003 -3.2008 0.418164 0
M  V30 1852 H 176.055 -2.61207 2.76542 0
M  V30 1853 H 177.367 -3.58126 3.47199 0
M  V30 1854 H 176.521 -5.61853 2.28924 0
M  V30 1855 H 175.26 -4.64763 1.47805 0
M  V30 1856 H 174.265 -4.06044 3.70686 0
M  V30 1857 H 175.49 -5.06542 4.52318 0
M  V30 1858 H 173.436 -6.06013 2.51167 0
M  V30 1859 H 173.353 -6.26543 4.23061 0
M  V30 1860 H 174.621 -7.04619 3.33365 0
M  V30 1861 N 178.85 -1.27639 -0.924453 0
M  V30 1862 C 179.813 -1.10681 -2.00705 0
M  V30 1863 C 180.813 -0.0497823 -1.60723 0
M  V30 1864 O 182.003 -0.294654 -1.7169 0
M  V30 1865 C 179.135 -0.687164 -3.33902 0
M  V30 1866 H 180.328 -2.06817 -2.17179 0
M  V30 1867 H 177.881 -1.10473 -1.10569 0
M  V30 1868 H 178.616 0.275439 -3.23128 0
M  V30 1869 H 178.401 -1.45061 -3.6428 0
M  V30 1870 H 179.891 -0.590853 -4.13399 0
M  V30 1871 N 180.328 1.1314 -1.09713 0
M  V30 1872 C 181.276 2.20717 -0.733934 0
M  V30 1873 C 182.27 1.6729 0.266506 0
M  V30 1874 O 183.476 1.79547 0.127656 0
M  V30 1875 H 179.851 0.719292 -0.21937 0
M  V30 1876 H 181.822 2.48611 -1.6503 0
M  V30 1877 C 180.571 3.47265 -0.173849 0
M  V30 1878 H 179.894 3.88716 -0.934873 0
M  V30 1879 H 181.334 4.23979 0.0423126 0
M  V30 1880 C 179.793 3.18724 1.09164 0
M  V30 1881 O 180.323 3.37762 2.17439 0
M  V30 1882 N 178.529 2.72583 1.00732 0
M  V30 1883 H 178.076 2.57291 0.126121 0
M  V30 1884 H 178.034 2.53862 1.85476 0
M  V30 1885 N 181.806 0.884767 1.30421 0
M  V30 1886 C 182.753 0.349642 2.28136 0
M  V30 1887 C 183.723 -0.560061 1.56373 0
M  V30 1888 O 184.908 -0.488524 1.8444 0
M  V30 1889 C 182.048 -0.42999 3.42411 0
M  V30 1890 C 181.161 0.508907 4.28992 0
M  V30 1891 C 180.296 -0.286301 5.30428 0
M  V30 1892 C 179.335 0.648079 6.08659 0
M  V30 1893 N 178.472 -0.111792 7.02011 0
M  V30 1894 H 183.312 1.18807 2.73293 0
M  V30 1895 H 180.849 0.597231 1.3443 0
M  V30 1896 H 182.807 -0.897923 4.07423 0
M  V30 1897 H 181.437 -1.23299 2.98324 0
M  V30 1898 H 180.489 1.09533 3.64289 0
M  V30 1899 H 181.801 1.22475 4.8353 0
M  V30 1900 H 180.955 -0.816098 6.01186 0
M  V30 1901 H 179.694 -1.03536 4.76583 0
M  V30 1902 H 178.699 1.18951 5.36778 0
M  V30 1903 H 179.924 1.39623 6.64592 0
M  V30 1904 H 177.87 -0.843395 6.50556 0
M  V30 1905 H 177.787 0.544429 7.54037 0
M  V30 1906 H 179.055 -0.622339 7.77012 0
M  V30 1907 N 183.284 -1.43765 0.645699 0
M  V30 1908 C 184.214 -2.33471 -0.0370477 0
M  V30 1909 C 185.195 -1.49042 -0.819779 0
M  V30 1910 O 186.38 -1.77726 -0.782758 0
M  V30 1911 C 183.51 -3.32311 -1.0093 0
M  V30 1912 C 182.464 -4.2667 -0.337201 0
M  V30 1913 C 181.79 -5.1549 -1.42037 0
M  V30 1914 C 183.09 -5.16657 0.765706 0
M  V30 1915 H 184.784 -2.90809 0.712069 0
M  V30 1916 H 182.33 -1.39834 0.343876 0
M  V30 1917 H 184.283 -3.9396 -1.49578 0
M  V30 1918 H 183.007 -2.73213 -1.78948 0
M  V30 1919 H 181.666 -3.66374 0.128771 0
M  V30 1920 H 181.314 -4.52735 -2.1918 0
M  V30 1921 H 181.014 -5.79438 -0.975966 0
M  V30 1922 H 182.538 -5.80012 -1.90838 0
M  V30 1923 H 183.952 -5.72158 0.361702 0
M  V30 1924 H 182.349 -5.89286 1.13413 0
M  V30 1925 H 183.419 -4.56796 1.62683 0
M  V30 1926 N 184.763 -0.387143 -1.52771 0
M  V30 1927 C 186.04 0.253197 -1.93954 0
M  V30 1928 C 186.42 1.64545 -1.32243 0
M  V30 1929 O 185.768 2.23191 -0.489699 0
M  V30 1930 C 185.978 0.281722 -3.47861 0
M  V30 1931 C 187.326 0.511715 -4.21505 0
M  V30 1932 O 188.35 0.362023 -3.54356 0
M  V30 1933 O 187.209 0.804847 -5.40541 0
M  V30 1934 H 184.303 0.156845 -0.811991 0
M  V30 1935 H 186.849 -0.441494 -1.63856 0
M  V30 1936 H 185.621 -0.693571 -3.85104 0
M  V30 1937 H 185.244 1.02142 -3.84256 0
M  V30 1938 N 186.241 1.57166 -0.116904 0
M  V30 1939 C 187.191 2.11756 0.845178 0
M  V30 1940 C 188.175 1.03783 1.22955 0
M  V30 1941 O 189.367 1.3002 1.20099 0
M  V30 1942 C 186.496 2.71886 2.09602 0
M  V30 1943 C 185.582 3.86937 1.7361 0
M  V30 1944 N 185.973 4.94073 1.08284 0
M  V30 1945 C 184.271 3.97082 2.03082 0
M  V30 1946 C 184.972 5.74477 0.913855 0
M  V30 1947 N 183.948 5.2423 1.43818 0
M  V30 1948 H 187.75 2.91967 0.336523 0
M  V30 1949 H 185.264 1.62174 0.0856332 0
M  V30 1950 H 187.261 3.09338 2.79492 0
M  V30 1951 H 185.921 1.93138 2.61013 0
M  V30 1952 H 186.932 5.12483 0.747067 0
M  V30 1953 H 183.609 3.29372 2.56554 0
M  V30 1954 H 184.999 6.70701 0.40125 0
M  V30 1955 N 187.719 -0.156864 1.56817 0
M  V30 1956 C 188.965 -0.872416 1.83076 0
M  V30 1957 C 189.298 -1.81261 0.697001 0
M  V30 1958 O 188.573 -1.92171 -0.30008 0
M  V30 1959 C 188.856 -1.65551 3.19789 0
M  V30 1960 C 188.709 -0.737467 4.43713 0
M  V30 1961 C 190.028 -2.62012 3.53606 0
M  V30 1962 H 187.147 -0.315715 0.665953 0
M  V30 1963 H 189.789 -0.138004 1.89498 0
M  V30 1964 H 187.939 -2.28159 3.14445 0
M  V30 1965 H 189.611 -0.123143 4.61136 0
M  V30 1966 H 187.854 -0.0464067 4.33775 0
M  V30 1967 H 188.525 -1.32122 5.35955 0
M  V30 1968 H 191.001 -2.09525 3.59497 0
M  V30 1969 H 189.877 -3.13861 4.50314 0
M  V30 1970 H 190.138 -3.42902 2.79053 0
M  V30 1971 N 189.197 -1.51736 -0.425897 0
M  V30 1972 C 190.443 -1.65214 -1.1761 0
M  V30 1973 C 190.776 -0.372778 -1.90589 0
M  V30 1974 O 190.051 0.628139 -1.84078 0
M  V30 1975 C 190.334 -2.86312 -2.18398 0
M  V30 1976 C 190.187 -4.24254 -1.49426 0
M  V30 1977 C 191.506 -3.02925 -3.19256 0
M  V30 1978 H 188.625 -0.601263 -0.426206 0
M  V30 1979 H 191.267 -1.8425 -0.463882 0
M  V30 1980 H 189.417 -2.70213 -2.79137 0
M  V30 1981 H 191.089 -4.52046 -0.919362 0
M  V30 1982 H 189.332 -4.26426 -0.796432 0
M  V30 1983 H 190.003 -5.05001 -2.22885 0
M  V30 1984 H 192.479 -3.1781 -2.68581 0
M  V30 1985 H 191.355 -3.89199 -3.8706 0
M  V30 1986 H 191.616 -2.15497 -3.86023 0
M  V30 1987 N 190.675 0.682077 -1.42076 0
M  V30 1988 C 191.903 1.47057 -1.4554 0
M  V30 1989 C 192.318 1.8869 -0.0645779 0
M  V30 1990 O 191.675 1.57666 0.919115 0
M  V30 1991 C 191.726 2.72442 -2.37609 0
M  V30 1992 O 191.447 2.32559 -3.71279 0
M  V30 1993 C 192.948 3.66069 -2.50017 0
M  V30 1994 H 190.168 0.452737 -0.495248 0
M  V30 1995 H 192.712 0.838695 -1.8651 0
M  V30 1996 H 190.867 3.31835 -1.9991 0
M  V30 1997 H 191.281 3.13475 -4.20516 0
M  V30 1998 H 192.755 4.50792 -3.18576 0
M  V30 1999 H 193.232 4.11476 -1.53572 0
M  V30 2000 H 193.838 3.12572 -2.88407 0
M  V30 2001 N 192.153 1.28127 0.917671 0
M  V30 2002 C 193.402 1.14432 1.66097 0
M  V30 2003 C 193.715 -0.307247 1.93172 0
M  V30 2004 O 194.921 -0.565259 2.65551 0
M  V30 2005 C 193.377 2.00015 2.99202 0
M  V30 2006 C 192.985 3.49889 2.79789 0
M  V30 2007 C 194.729 1.94996 3.77064 0
M  V30 2008 C 192.636 4.27636 4.08511 0
M  V30 2009 H 191.566 0.424662 0.62304 0
M  V30 2010 H 194.217 1.52628 1.01868 0
M  V30 2011 H 192.599 1.54672 3.64544 0
M  V30 2012 H 193.773 4.03162 2.23152 0
M  V30 2013 H 192.088 3.56392 2.15345 0
M  V30 2014 H 194.685 2.50354 4.72469 0
M  V30 2015 H 195.028 0.925819 4.05875 0
M  V30 2016 H 195.561 2.38287 3.18534 0
M  V30 2017 H 192.3 5.30615 3.84874 0
M  V30 2018 H 191.82 3.79137 4.64774 0
M  V30 2019 H 193.499 4.37346 4.76799 0
M  V30 2020 N 193.631 -1.12557 1.10312 0
M  V30 2021 C 194.88 -1.83395 0.839588 0
M  V30 2022 C 195.193 -1.84939 -0.636929 0
M  V30 2023 O 196.399 -2.51761 -1.01631 0
M  V30 2024 C 194.855 -3.29303 1.45215 0
M  V30 2025 C 194.463 -3.36122 2.96186 0
M  V30 2026 C 196.207 -4.05121 1.26796 0
M  V30 2027 C 194.114 -4.76357 3.50483 0
M  V30 2028 H 193.044 -0.687133 0.310425 0
M  V30 2029 H 195.695 -1.26746 1.32694 0
M  V30 2030 H 194.077 -3.85812 0.892469 0
M  V30 2031 H 195.251 -2.89559 3.58458 0
M  V30 2032 H 193.566 -2.73776 3.13745 0
M  V30 2033 H 196.163 -5.08668 1.64806 0
M  V30 2034 H 196.506 -4.15773 0.209409 0
M  V30 2035 H 197.039 -3.54967 1.79563 0
M  V30 2036 H 193.778 -4.70899 4.55998 0
M  V30 2037 H 193.298 -5.23377 2.92978 0
M  V30 2038 H 194.977 -5.45294 3.48228 0
M  V30 2039 N 195.109 -0.891671 -1.2995 0
M  V30 2040 C 196.056 -0.361736 -2.27948 0
M  V30 2041 C 197.026 0.551761 -1.56668 0
M  V30 2042 O 198.211 0.478736 -1.84696 0
M  V30 2043 C 195.351 0.411825 -3.42634 0
M  V30 2044 C 194.464 -0.531651 -4.28716 0
M  V30 2045 C 193.599 0.258167 -5.30572 0
M  V30 2046 C 192.638 -0.680349 -6.08307 0
M  V30 2047 N 191.775 0.0745613 -7.0206 0
M  V30 2048 H 196.615 -1.20254 -2.72659 0
M  V30 2049 H 194.152 -0.604352 -1.34112 0
M  V30 2050 H 196.11 0.876304 -4.07893 0
M  V30 2051 H 194.74 1.21715 -2.98974 0
M  V30 2052 H 193.792 -1.11463 -3.63703 0
M  V30 2053 H 195.104 -1.25038 -4.82874 0
M  V30 2054 H 194.258 0.784204 -6.0161 0
M  V30 2055 H 192.997 1.01008 -4.77126 0
M  V30 2056 H 192.002 -1.21796 -5.3614 0
M  V30 2057 H 193.227 -1.43145 -6.63842 0
M  V30 2058 H 191.173 0.808883 -6.50994 0
M  V30 2059 H 191.09 -0.584409 -7.53738 0
M  V30 2060 H 192.358 0.581123 -7.77331 0
M  V30 2061 N 196.587 1.43421 -0.653314 0
M  V30 2062 C 197.835 2.01414 -0.166415 0
M  V30 2063 C 198.156 1.51803 1.22397 0
M  V30 2064 O 197.426 0.730693 1.81763 0
M  V30 2065 H 196.006 0.744703 -0.0585319 0
M  V30 2066 H 198.668 1.75629 -0.845003 0
M  V30 2067 H 197.764 3.11734 -0.151111 0
M  V30 2068 N 198.065 0.39524 1.52563 0
M  V30 2069 C 199.012 -0.437036 2.26624 0
M  V30 2070 C 199.982 -1.05281 1.28472 0
M  V30 2071 O 201.167 -1.07971 1.57311 0
M  V30 2072 C 198.307 -1.55524 3.08069 0
M  V30 2073 C 197.42 -0.961745 4.21158 0
M  V30 2074 C 196.555 -2.05149 4.89987 0
M  V30 2075 C 195.594 -1.4342 5.95061 0
M  V30 2076 N 194.731 -2.46351 6.57462 0
M  V30 2077 H 199.571 0.200976 2.97322 0
M  V30 2078 H 197.108 0.110944 1.46681 0
M  V30 2079 H 199.066 -2.21437 3.53584 0
M  V30 2080 H 197.696 -2.16348 2.3957 0
M  V30 2081 H 196.748 -0.192048 3.79915 0
M  V30 2082 H 198.06 -0.470701 4.96574 0
M  V30 2083 H 197.214 -2.78819 5.38837 0
M  V30 2084 H 195.953 -2.57615 4.14109 0
M  V30 2085 H 194.958 -0.682774 5.45544 0
M  V30 2086 H 196.183 -0.917416 6.72875 0
M  V30 2087 H 194.129 -2.97975 5.8442 0
M  V30 2088 H 194.046 -2.02019 7.28508 0
M  V30 2089 H 195.314 -3.19633 7.10954 0
M  V30 2090 N 199.544 -1.57102 0.125237 0
M  V30 2091 C 200.79 -1.95697 -0.532035 0
M  V30 2092 C 201.123 -1.009 -1.6593 0
M  V30 2093 O 200.398 -0.047347 -1.94442 0
M  V30 2094 C 200.681 -3.44181 -1.05884 0
M  V30 2095 C 200.534 -4.49752 0.0654392 0
M  V30 2096 C 201.853 -3.94655 -1.9477 0
M  V30 2097 H 198.972 -0.711571 -0.191925 0
M  V30 2098 H 201.614 -1.88923 0.20206 0
M  V30 2099 H 199.764 -3.50085 -1.68442 0
M  V30 2100 H 201.436 -4.55943 0.700982 0
M  V30 2101 H 199.679 -4.27653 0.727709 0
M  V30 2102 H 200.35 -5.50924 -0.344505 0
M  V30 2103 H 202.826 -3.91094 -1.42074 0
M  V30 2104 H 201.702 -4.99057 -2.28546 0
M  V30 2105 H 201.963 -3.35718 -2.87656 0
M  V30 2106 N 201.022 0.148545 -1.56898 0
M  V30 2107 C 201.932 1.20293 -2.01412 0
M  V30 2108 C 202.948 1.47107 -0.929273 0
M  V30 2109 O 204.124 1.58807 -1.23863 0
M  V30 2110 C 201.189 2.51682 -2.38447 0
M  V30 2111 C 200.25 2.32529 -3.60872 0
M  V30 2112 C 199.483 3.57653 -3.96132 0
M  V30 2113 O 199.706 4.63771 -3.32073 0
M  V30 2114 O 198.64 3.50408 -4.89385 0
M  V30 2115 H 202.466 0.855025 -2.91416 0
M  V30 2116 H 200.051 0.357151 -1.45068 0
M  V30 2117 H 201.933 3.29147 -2.63135 0
M  V30 2118 H 200.608 2.86006 -1.51599 0
M  V30 2119 H 199.515 1.53019 -3.41373 0
M  V30 2120 H 200.848 2.03121 -4.48333 0
M  V30 2121 N 202.5 1.5196 0.417844 0
M  V30 2122 C 203.41 1.77554 1.53336 0
M  V30 2123 C 204.426 0.660655 1.6097 0
M  V30 2124 O 205.602 0.945099 1.77848 0
M  V30 2125 C 202.667 1.91291 2.89152 0
M  V30 2126 C 201.728 3.15183 2.91475 0
M  V30 2127 C 200.961 3.28256 4.20813 0
M  V30 2128 O 201.184 2.46798 5.14244 0
M  V30 2129 O 200.118 4.21356 4.29817 0
M  V30 2130 H 203.944 2.7222 1.34647 0
M  V30 2131 H 201.529 1.36698 0.602828 0
M  V30 2132 H 203.411 2.02199 3.69721 0
M  V30 2133 H 202.086 0.998129 3.07927 0
M  V30 2134 H 200.993 3.09739 2.09791 0
M  V30 2135 H 202.326 4.06414 2.77648 0
M  V30 2136 N 203.978 -0.674533 1.42435 0
M  V30 2137 C 205.224 -1.43671 1.43131 0
M  V30 2138 C 205.557 -1.94142 0.0476021 0
M  V30 2139 O 204.832 -1.70924 -0.928188 0
M  V30 2140 C 205.115 -2.63355 2.45594 0
M  V30 2141 C 204.968 -2.18514 3.93156 0
M  V30 2142 C 206.287 -3.65571 2.45043 0
M  V30 2143 H 203.406 -0.521077 0.521198 0
M  V30 2144 H 206.048 -0.766551 1.7385 0
M  V30 2145 H 204.198 -3.2053 2.19528 0
M  V30 2146 H 205.87 -1.66504 4.30202 0
M  V30 2147 H 204.113 -1.50086 4.07009 0
M  V30 2148 H 204.784 -3.04484 4.60428 0
M  V30 2149 H 207.26 -3.18113 2.68223 0
M  V30 2150 H 206.136 -4.46893 3.18713 0
M  V30 2151 H 206.397 -4.16716 1.47649 0
M  V30 2152 N 205.456 -1.28612 -0.910864 0
M  V30 2153 C 206.366 -1.14643 -2.0468 0
M  V30 2154 C 207.382 -0.0723121 -1.7385 0
M  V30 2155 O 208.558 -0.282178 -1.99413 0
M  V30 2156 C 205.623 -0.812561 -3.37044 0
M  V30 2157 C 204.684 -1.96935 -3.81465 0
M  V30 2158 C 203.917 -1.65131 -5.07511 0
M  V30 2159 O 204.14 -0.567013 -5.67575 0
M  V30 2160 O 203.074 -2.49585 -5.47714 0
M  V30 2161 H 206.9 -2.1001 -2.19384 0
M  V30 2162 H 204.485 -1.07958 -1.03274 0
M  V30 2163 H 206.367 -0.640441 -4.16505 0
M  V30 2164 H 205.042 0.111426 -3.23508 0
M  V30 2165 H 203.949 -2.19664 -3.02818 0
M  V30 2166 H 205.282 -2.87414 -3.99567 0
M  V30 2167 N 206.934 1.1197 -1.10907 0
M  V30 2168 C 207.864 2.19928 -0.784473 0
M  V30 2169 C 208.845 1.6833 0.244726 0
M  V30 2170 O 210.03 1.93892 0.109418 0
M  V30 2171 C 207.16 3.46597 -0.220827 0
M  V30 2172 C 206.114 4.11376 -1.18127 0
M  V30 2173 C 205.44 5.32554 -0.478594 0
M  V30 2174 C 206.74 4.56945 -2.52979 0
M  V30 2175 H 208.434 2.47337 -1.68715 0
M  V30 2176 H 205.98 1.18879 -0.812642 0
M  V30 2177 H 207.933 4.21396 0.0184278 0
M  V30 2178 H 206.657 3.1863 0.717113 0
M  V30 2179 H 205.316 3.38564 -1.40606 0
M  V30 2180 H 204.964 5.00856 0.463976 0
M  V30 2181 H 204.664 5.76844 -1.11912 0
M  V30 2182 H 206.188 6.10096 -0.248 0
M  V30 2183 H 207.602 5.23093 -2.3462 0
M  V30 2184 H 205.999 5.1203 -3.12962 0
M  V30 2185 H 207.069 3.70676 -3.12614 0
M  V30 2186 N 208.412 0.89855 1.29475 0
M  V30 2187 C 209.823 0.572537 1.77705 0
M  V30 2188 C 210.174 -0.911778 1.73727 0
M  V30 2189 O 209.299 -1.71288 1.32247 0
M  V30 2190 C 209.894 1.03252 3.22683 0
M  V30 2191 C 208.453 0.757687 3.68695 0
M  V30 2192 C 207.6 1.20787 2.49612 0
M  V30 2193 H 210.551 1.08139 1.16153 0
M  V30 2194 H 210.572 0.367307 3.78723 0
M  V30 2195 H 210.084 2.11285 3.25546 0
M  V30 2196 H 208.185 -0.310079 3.71308 0
M  V30 2197 H 208.298 1.35476 4.59547 0
M  V30 2198 H 206.662 0.626888 2.46865 0
M  V30 2199 H 207.445 2.29622 2.55203 0
M  V30 2200 N 209.89 -1.43072 0.660911 0
M  V30 2201 C 211.136 -2.0202 0.177708 0
M  V30 2202 C 211.469 -1.52066 -1.20787 0
M  V30 2203 O 210.744 -0.716987 -1.80802 0
M  V30 2204 C 211.027 -3.59561 0.197019 0
M  V30 2205 C 210.88 -4.19727 1.61706 0
M  V30 2206 C 212.199 -4.37664 -0.462396 0
M  V30 2207 H 209.318 -0.734034 0.0660494 0
M  V30 2208 H 211.96 -1.70272 0.843058 0
M  V30 2209 H 210.11 -3.86739 -0.369527 0
M  V30 2210 H 211.782 -4.03553 2.23479 0
M  V30 2211 H 210.025 -3.76084 2.16201 0
M  V30 2212 H 210.696 -5.28834 1.58237 0
M  V30 2213 H 213.172 -4.16095 0.0197215 0
M  V30 2214 H 212.048 -5.47305 -0.418188 0
M  V30 2215 H 212.309 -4.14493 -1.53778 0
M  V30 2216 N 211.368 -0.403325 -1.52352 0
M  V30 2217 C 212.278 0.432009 -2.30588 0
M  V30 2218 C 213.294 1.05884 -1.38075 0
M  V30 2219 O 214.47 1.06161 -1.71148 0
M  V30 2220 C 211.535 1.53669 -3.10784 0
M  V30 2221 C 210.596 0.933525 -4.19027 0
M  V30 2222 C 209.829 1.98557 -4.9539 0
M  V30 2223 O 210.052 3.20283 -4.71991 0
M  V30 2224 O 208.986 1.59504 -5.80381 0
M  V30 2225 H 212.812 -0.205739 -3.03002 0
M  V30 2226 H 210.397 -0.166675 -1.48467 0
M  V30 2227 H 212.279 2.17814 -3.60742 0
M  V30 2228 H 210.954 2.15915 -2.41169 0
M  V30 2229 H 209.861 0.254954 -3.7323 0
M  V30 2230 H 211.194 0.35508 -4.90918 0
M  V30 2231 N 212.846 1.57033 -0.133567 0
M  V30 2232 C 213.793 2.16074 0.811208 0
M  V30 2233 C 214.763 1.08979 1.2535 0
M  V30 2234 O 215.948 1.36958 1.32843 0
M  V30 2235 C 213.088 2.77595 2.05024 0
M  V30 2236 C 212.201 3.99042 1.65498 0
M  V30 2237 C 211.336 4.48603 2.84479 0
M  V30 2238 C 210.375 5.62547 2.41262 0
M  V30 2239 N 209.512 6.06787 3.53206 0
M  V30 2240 H 214.352 2.96477 0.300906 0
M  V30 2241 H 211.889 1.46462 0.136822 0
M  V30 2242 H 213.847 3.11402 2.77642 0
M  V30 2243 H 212.477 1.99859 2.53488 0
M  V30 2244 H 211.529 3.71302 0.826981 0
M  V30 2245 H 212.841 4.81629 1.29748 0
M  V30 2246 H 211.995 4.84395 3.65303 0
M  V30 2247 H 210.734 3.64995 3.23465 0
M  V30 2248 H 209.739 5.26345 1.58874 0
M  V30 2249 H 210.964 6.47931 2.03377 0
M  V30 2250 H 208.91 5.26117 3.91838 0
M  V30 2251 H 208.827 6.84266 3.21427 0
M  V30 2252 H 210.095 6.4722 4.34427 0
M  V30 2253 N 214.325 -0.140222 1.56975 0
M  V30 2254 C 215.571 -0.852949 1.83991 0
M  V30 2255 C 215.904 -1.80512 0.716187 0
M  V30 2256 O 215.179 -1.92479 -0.279681 0
M  V30 2257 C 215.462 -1.6215 3.21527 0
M  V30 2258 C 215.315 -0.690363 4.4447 0
M  V30 2259 C 216.634 -2.58247 3.56366 0
M  V30 2260 H 213.753 -0.308634 0.669264 0
M  V30 2261 H 216.395 -0.117898 1.89634 0
M  V30 2262 H 214.545 -2.24812 3.16847 0
M  V30 2263 H 216.217 -0.0742264 4.6124 0
M  V30 2264 H 214.46 -0.000396433 4.338 0
M  V30 2265 H 215.131 -1.2643 5.37326 0
M  V30 2266 H 217.607 -2.05701 3.61699 0
M  V30 2267 H 216.483 -3.09067 4.53617 0
M  V30 2268 H 216.744 -3.39923 2.82674 0
M  V30 2269 N 215.803 -1.52179 -0.40978 0
M  V30 2270 C 217.08 -1.56769 -1.16974 0
M  V30 2271 C 217.46 -0.348322 -2.08206 0
M  V30 2272 O 216.808 0.664862 -2.18613 0
M  V30 2273 C 217.018 -2.89603 -1.9476 0
M  V30 2274 C 218.366 -3.42579 -2.50849 0
M  V30 2275 O 219.39 -2.91338 -2.04941 0
M  V30 2276 O 218.249 -4.32054 -3.34652 0
M  V30 2277 H 215.343 -0.631439 -0.534054 0
M  V30 2278 H 217.889 -1.64507 -0.416613 0
M  V30 2279 H 216.661 -3.698 -1.27921 0
M  V30 2280 H 216.284 -2.85155 -2.77079 0
M  V30 2281 N 217.281 0.66697 -1.42791 0
M  V30 2282 C 218.53 1.42278 -1.42968 0
M  V30 2283 C 218.843 1.9553 -0.0524489 0
M  V30 2284 O 220.049 2.71414 0.068363 0
M  V30 2285 C 218.505 2.57418 -2.51524 0
M  V30 2286 C 218.113 2.10832 -3.9529 0
M  V30 2287 C 219.857 3.34878 -2.60877 0
M  V30 2288 C 217.764 3.23101 -4.95338 0
M  V30 2289 H 216.694 0.534533 -0.531781 0
M  V30 2290 H 219.345 0.721302 -1.68729 0
M  V30 2291 H 217.727 3.29971 -2.18941 0
M  V30 2292 H 218.901 1.4538 -4.37266 0
M  V30 2293 H 217.216 1.46289 -3.89857 0
M  V30 2294 H 219.813 4.18505 -3.32802 0
M  V30 2295 H 220.156 3.81993 -1.6549 0
M  V30 2296 H 220.689 2.69398 -2.92693 0
M  V30 2297 H 217.428 2.80969 -5.9223 0
M  V30 2298 H 216.948 3.87309 -4.57987 0
M  V30 2299 H 218.627 3.88447 -5.17415 0
M  V30 2300 N 218.759 1.29093 0.90403 0
M  V30 2301 C 220.008 1.16187 1.64874 0
M  V30 2302 C 220.321 -0.286742 1.93487 0
M  V30 2303 O 221.527 -0.537062 2.66135 0
M  V30 2304 C 219.983 2.03177 2.97064 0
M  V30 2305 C 219.591 3.52836 2.76062 0
M  V30 2306 C 221.335 1.98984 3.74974 0
M  V30 2307 C 219.242 4.31945 4.03952 0
M  V30 2308 H 218.172 0.431246 0.618501 0
M  V30 2309 H 220.823 1.53699 1.00243 0
M  V30 2310 H 219.205 1.5853 3.62883 0
M  V30 2311 H 220.379 4.05507 2.18863 0
M  V30 2312 H 218.694 3.58656 2.11553 0
M  V30 2313 H 221.291 2.55351 4.69787 0
M  V30 2314 H 221.634 0.968815 4.0487 0
M  V30 2315 H 222.167 2.41652 3.15989 0
M  V30 2316 H 218.906 5.34667 3.79225 0
M  V30 2317 H 218.426 3.84045 4.60727 0
M  V30 2318 H 220.105 4.42379 4.72133 0
M  V30 2319 N 220.237 -1.11381 1.11499 0
M  V30 2320 C 221.486 -1.82494 0.858993 0
M  V30 2321 C 221.799 -1.85605 -0.617278 0
M  V30 2322 O 223.005 -2.52824 -0.989552 0
M  V30 2323 C 221.461 -3.27745 1.48699 0
M  V30 2324 C 221.069 -3.32961 2.99735 0
M  V30 2325 C 222.813 -4.03754 1.31085 0
M  V30 2326 C 220.72 -4.72612 3.55516 0
M  V30 2327 H 219.65 -0.683802 0.317696 0
M  V30 2328 H 222.301 -1.25331 1.34031 0
M  V30 2329 H 220.683 -3.84844 0.933339 0
M  V30 2330 H 221.857 -2.85741 3.61509 0
M  V30 2331 H 220.172 -2.70433 3.16631 0
M  V30 2332 H 222.769 -5.06891 1.70192 0
M  V30 2333 H 223.112 -4.15527 0.253496 0
M  V30 2334 H 223.645 -3.53043 1.83318 0
M  V30 2335 H 220.384 -4.66036 4.60967 0
M  V30 2336 H 219.904 -5.2024 2.98513 0
M  V30 2337 H 221.583 -5.4157 3.53992 0
M  V30 2338 N 221.715 -0.905404 -1.28997 0
M  V30 2339 C 222.94 -0.549175 -1.99997 0
M  V30 2340 C 223.365 0.860276 -1.67275 0
M  V30 2341 O 222.723 1.57355 -0.900502 0
M  V30 2342 C 222.771 -0.755185 -3.52604 0
M  V30 2343 O 221.875 0.189692 -4.11964 0
M  V30 2344 H 221.216 -0.213899 -0.628604 0
M  V30 2345 H 223.746 -1.21856 -1.64354 0
M  V30 2346 H 223.756 -0.662045 -4.02593 0
M  V30 2347 H 222.431 -1.78271 -3.75755 0
M  V30 2348 H 221.008 0.0485257 -3.72868 0
M  V30 2349 N 223.193 1.4272 -0.668489 0
M  V30 2350 C 224.103 2.34596 0.0139753 0
M  V30 2351 C 225.119 1.5474 0.795703 0
M  V30 2352 O 226.295 1.87334 0.739466 0
M  V30 2353 C 223.36 3.33202 0.957982 0
M  V30 2354 C 222.421 4.28957 0.17149 0
M  V30 2355 C 221.654 5.22853 1.07053 0
M  V30 2356 O 221.877 5.21531 2.31001 0
M  V30 2357 O 220.811 5.9952 0.534727 0
M  V30 2358 H 224.637 2.9448 -0.742661 0
M  V30 2359 H 222.222 1.43117 -0.428705 0
M  V30 2360 H 224.104 3.93796 1.50008 0
M  V30 2361 H 222.779 2.758 1.69458 0
M  V30 2362 H 221.686 3.71796 -0.414558 0
M  V30 2363 H 223.019 4.89383 -0.52586 0
M  V30 2364 N 224.671 0.411399 1.52136 0
M  V30 2365 C 225.917 -0.156262 2.02799 0
M  V30 2366 C 226.272 -1.42613 1.29149 0
M  V30 2367 O 225.565 -1.87592 0.389839 0
M  V30 2368 C 225.759 -0.455872 3.54481 0
M  V30 2369 C 225.588 0.783404 4.42824 0
M  V30 2370 C 224.358 1.30928 4.88043 0
M  V30 2371 C 226.556 1.66217 4.86699 0
M  V30 2372 N 224.538 2.5038 5.6052 0
M  V30 2373 C 225.909 2.70292 5.5798 0
M  V30 2374 C 227.964 1.67966 4.68713 0
M  V30 2375 C 226.667 3.7603 6.13184 0
M  V30 2376 C 228.693 2.72624 5.24815 0
M  V30 2377 C 228.055 3.7542 5.9602 0
M  V30 2378 H 224.154 -0.0186886 0.781777 0
M  V30 2379 H 226.738 0.566255 1.86284 0
M  V30 2380 H 224.909 -1.14743 3.71064 0
M  V30 2381 H 226.641 -1.01261 3.91827 0
M  V30 2382 H 223.396 0.866977 4.65597 0
M  V30 2383 H 223.82 3.10881 6.014 0
M  V30 2384 H 228.462 0.898312 4.13147 0
M  V30 2385 H 226.18 4.55019 6.6782 0
M  V30 2386 H 229.766 2.74887 5.12765 0
M  V30 2387 H 228.646 4.55073 6.38654 0
M  V30 2388 N 226.149 -1.5696 0.141893 0
M  V30 2389 C 227.082 -2.12271 -0.837627 0
M  V30 2390 C 228.06 -1.04495 -1.24578 0
M  V30 2391 O 229.244 -1.32293 -1.34278 0
M  V30 2392 C 226.371 -2.63822 -2.12404 0
M  V30 2393 C 225.417 -3.83698 -1.86221 0
M  V30 2394 S 226.25 -5.24948 -1.05781 0
M  V30 2395 C 227.406 -5.79884 -2.35552 0
M  V30 2396 H 227.639 -2.95023 -0.367249 0
M  V30 2397 H 225.172 -1.54231 -0.0723014 0
M  V30 2398 H 227.13 -2.94175 -2.86307 0
M  V30 2399 H 225.791 -1.8121 -2.56557 0
M  V30 2400 H 224.984 -4.17995 -2.81596 0
M  V30 2401 H 224.586 -3.5408 -1.20429 0
M  V30 2402 H 226.878 -5.91005 -3.31239 0
M  V30 2403 H 227.821 -6.77544 -2.05767 0
M  V30 2404 H 228.229 -5.08095 -2.45967 0
M  V30 2405 N 227.627 0.131896 -1.57047 0
M  V30 2406 C 228.875 0.840269 -1.83804 0
M  V30 2407 C 229.196 1.81017 -0.72512 0
M  V30 2408 O 228.466 1.94272 0.251995 0
M  V30 2409 H 227.046 0.313294 -0.678127 0
M  V30 2410 H 229.708 0.122294 -1.94516 0
M  V30 2411 H 228.804 1.39335 -2.79271 0
M  V30 2412 N 229.106 1.52395 0.401703 0
M  V30 2413 C 230.336 1.70429 1.1678 0
M  V30 2414 C 230.744 0.416702 1.84554 0
M  V30 2415 O 230.087 -0.617697 1.73003 0
M  V30 2416 C 230.149 2.78919 2.26814 0
M  V30 2417 C 229.813 4.20437 1.79113 0
M  V30 2418 C 230.81 5.04028 1.27482 0
M  V30 2419 C 228.495 4.66704 1.85722 0
M  V30 2420 C 230.489 6.31961 0.830913 0
M  V30 2421 C 228.176 5.94625 1.40942 0
M  V30 2422 C 229.174 6.77082 0.897128 0
M  V30 2423 O 228.862 8.02607 0.455822 0
M  V30 2424 H 228.594 0.574272 0.356634 0
M  V30 2425 H 231.148 1.99767 0.477724 0
M  V30 2426 H 229.378 2.44973 2.99207 0
M  V30 2427 H 231.067 2.8548 2.88541 0
M  V30 2428 H 231.833 4.69471 1.21744 0
M  V30 2429 H 227.712 4.0262 2.24539 0
M  V30 2430 H 231.256 6.96271 0.430368 0
M  V30 2431 H 227.153 6.28688 1.46362 0
M  V30 2432 H 227.921 8.16453 0.578457 0
M  V30 2433 N 230.584 -0.659388 1.43143 0
M  V30 2434 C 231.824 -1.43121 1.45931 0
M  V30 2435 C 232.188 -1.91838 0.0789298 0
M  V30 2436 O 233.389 -2.68794 -0.018491 0
M  V30 2437 C 231.66 -2.58534 2.46769 0
M  V30 2438 S 233.219 -3.47154 2.68384 0
M  V30 2439 H 230.037 -0.488624 0.516496 0
M  V30 2440 H 232.639 -0.766128 1.79863 0
M  V30 2441 H 231.343 -2.21007 3.45809 0
M  V30 2442 H 230.874 -3.29898 2.14315 0
M  V30 2443 H 232.889 -4.55051 1.97845 0
M  V30 2444 N 232.062 -1.29571 -0.897171 0
M  V30 2445 C 232.992 -1.17473 -2.01798 0
M  V30 2446 C 233.973 -0.068323 -1.69963 0
M  V30 2447 O 235.158 -0.248239 -1.92607 0
M  V30 2448 C 232.288 -0.853099 -3.36659 0
M  V30 2449 C 231.242 -1.9161 -3.82713 0
M  V30 2450 C 230.568 -1.44773 -5.14728 0
M  V30 2451 C 231.868 -3.32535 -4.02763 0
M  V30 2452 H 233.562 -2.11237 -2.12177 0
M  V30 2453 H 231.108 -1.01699 -1.01948 0
M  V30 2454 H 233.061 -0.755165 -4.14578 0
M  V30 2455 H 231.785 0.120236 -3.26379 0
M  V30 2456 H 230.444 -2.00346 -3.07013 0
M  V30 2457 H 230.092 -0.462995 -5.00865 0
M  V30 2458 H 229.792 -2.15865 -5.46513 0
M  V30 2459 H 231.316 -1.36334 -5.95185 0
M  V30 2460 H 232.73 -3.26626 -4.71156 0
M  V30 2461 H 231.127 -4.01607 -4.45905 0
M  V30 2462 H 232.197 -3.75326 -3.07016 0
M  V30 2463 N 233.54 1.10788 -1.12088 0
M  V30 2464 C 234.787 1.82671 -0.873931 0
M  V30 2465 C 235.115 1.85004 0.600311 0
M  V30 2466 O 234.37 1.30365 1.45957 0
M  V30 2467 C 234.669 3.29294 -1.38926 0
M  V30 2468 C 234.335 3.47113 -2.87791 0
M  V30 2469 C 232.997 3.51684 -3.28439 0
M  V30 2470 C 235.349 3.52808 -3.83635 0
M  V30 2471 C 232.677 3.59513 -4.63646 0
M  V30 2472 C 235.029 3.62169 -5.18668 0
M  V30 2473 C 233.693 3.65003 -5.58864 0
M  V30 2474 H 232.963 0.668441 -0.319794 0
M  V30 2475 H 235.61 1.30613 -1.40045 0
M  V30 2476 H 233.915 3.83894 -0.783122 0
M  V30 2477 H 235.612 3.83416 -1.17443 0
M  V30 2478 H 232.202 3.4423 -2.5535 0
M  V30 2479 H 236.386 3.4853 -3.53328 0
M  V30 2480 H 231.642 3.59987 -4.94185 0
M  V30 2481 H 235.816 3.6552 -5.92763 0
M  V30 2482 H 233.443 3.70822 -6.63623 0
M  V30 2483 N 235.018 0.912232 1.28515 0
M  V30 2484 C 236.248 0.559604 1.98877 0
M  V30 2485 C 236.656 -0.863113 1.68366 0
M  V30 2486 O 235.999 -1.58304 0.931969 0
M  V30 2487 C 236.061 0.68703 3.52874 0
M  V30 2488 C 235.725 2.07901 4.06972 0
M  V30 2489 C 236.722 3.05157 4.20922 0
M  V30 2490 C 234.407 2.39178 4.417 0
M  V30 2491 C 236.401 4.31806 4.68852 0
M  V30 2492 C 234.088 3.66068 4.89324 0
M  V30 2493 C 235.086 4.62195 5.02856 0
M  V30 2494 O 234.774 5.86829 5.49442 0
M  V30 2495 H 234.506 0.212191 0.641834 0
M  V30 2496 H 237.06 1.22712 1.64715 0
M  V30 2497 H 235.29 -0.0375486 3.86682 0
M  V30 2498 H 236.979 0.341727 4.04459 0
M  V30 2499 H 237.745 2.82311 3.94367 0
M  V30 2500 H 233.624 1.65109 4.30418 0
M  V30 2501 H 237.168 5.06842 4.79329 0
M  V30 2502 H 233.065 3.88739 5.15318 0
M  V30 2503 H 233.833 5.89597 5.6773 0
M  V30 2504 N 236.496 -1.42363 0.676048 0
M  V30 2505 C 237.406 -2.346 -0.00153389 0
M  V30 2506 C 238.422 -1.5516 -0.787485 0
M  V30 2507 O 239.598 -1.87723 -0.729521 0
M  V30 2508 C 236.663 -3.33705 -0.940298 0
M  V30 2509 C 235.724 -4.29042 -0.148739 0
M  V30 2510 C 234.957 -5.23413 -1.04279 0
M  V30 2511 O 235.18 -5.22749 -2.28232 0
M  V30 2512 O 234.114 -5.99795 -0.502925 0
M  V30 2513 H 237.94 -2.94082 0.758268 0
M  V30 2514 H 235.525 -1.42888 0.436289 0
M  V30 2515 H 237.407 -3.94586 -1.47917 0
M  V30 2516 H 236.082 -2.76695 -1.67993 0
M  V30 2517 H 234.989 -3.71571 0.43427 0
M  V30 2518 H 236.322 -4.89097 0.551805 0
M  V30 2519 N 237.974 -0.419461 -1.51915 0
M  V30 2520 C 239.199 0.154572 -2.06823 0
M  V30 2521 C 239.624 1.3722 -1.28656 0
M  V30 2522 O 238.982 1.78461 -0.319583 0
M  V30 2523 C 239.03 0.473172 -3.57482 0
M  V30 2524 O 238.134 1.56255 -3.81652 0
M  V30 2525 H 237.475 0.0096924 -0.663929 0
M  V30 2526 H 240.005 -0.595642 -1.95738 0
M  V30 2527 H 240.015 0.728825 -4.01438 0
M  V30 2528 H 238.69 -0.416873 -4.13805 0
M  V30 2529 H 237.267 1.29825 -3.49571 0
M  V30 2530 N 239.452 1.56882 -0.150215 0
M  V30 2531 C 240.385 2.12712 0.826358 0
M  V30 2532 C 241.363 1.05154 1.24022 0
M  V30 2533 O 242.547 1.33004 1.33575 0
M  V30 2534 C 239.674 2.64945 2.11002 0
M  V30 2535 C 238.72 3.8468 1.84183 0
M  V30 2536 S 239.553 5.25502 1.02995 0
M  V30 2537 C 240.709 5.81125 2.32474 0
M  V30 2538 H 240.942 2.95214 0.351598 0
M  V30 2539 H 238.475 1.54267 0.0641211 0
M  V30 2540 H 240.433 2.95689 2.84742 0
M  V30 2541 H 239.094 1.82568 2.55593 0
M  V30 2542 H 238.287 4.19482 2.79375 0
M  V30 2543 H 237.889 3.54714 1.1855 0
M  V30 2544 H 240.181 5.92753 3.281 0
M  V30 2545 H 241.124 6.78625 2.02171 0
M  V30 2546 H 241.532 5.09392 2.43269 0
M  V30 2547 N 240.93 -0.123565 1.57115 0
M  V30 2548 C 241.86 -1.15309 2.03042 0
M  V30 2549 C 242.841 -1.43454 0.914061 0
M  V30 2550 O 244.026 -1.53973 1.18347 0
M  V30 2551 C 241.156 -2.48043 2.43089 0
M  V30 2552 C 240.11 -2.3437 3.58127 0
M  V30 2553 C 239.436 -3.72026 3.84059 0
M  V30 2554 C 240.736 -1.80804 4.90007 0
M  V30 2555 H 242.43 -0.771102 2.893 0
M  V30 2556 H 239.976 -0.369479 1.39179 0
M  V30 2557 H 241.929 -3.20311 2.73823 0
M  V30 2558 H 240.653 -2.88122 1.53796 0
M  V30 2559 H 239.312 -1.64551 3.27595 0
M  V30 2560 H 238.96 -4.09582 2.91979 0
M  V30 2561 H 238.66 -3.63732 4.6149 0
M  V30 2562 H 240.184 -4.45806 4.1724 0
M  V30 2563 H 241.598 -2.42886 5.19307 0
M  V30 2564 H 239.995 -1.83343 5.71407 0
M  V30 2565 H 241.065 -0.76528 4.78823 0
M  V30 2566 N 242.408 -1.52605 -0.393616 0
M  V30 2567 C 243.356 -1.77688 -1.50099 0
M  V30 2568 C 244.35 -0.644615 -1.56656 0
M  V30 2569 O 245.556 -0.826997 -1.59877 0
M  V30 2570 H 241.931 -0.562159 -0.499481 0
M  V30 2571 H 243.902 -2.7043 -1.26135 0
M  V30 2572 C 242.651 -1.95858 -2.87289 0
M  V30 2573 H 241.974 -2.8241 -2.82992 0
M  V30 2574 H 243.414 -2.174 -3.64024 0
M  V30 2575 C 241.873 -0.729848 -3.28899 0
M  V30 2576 O 242.403 0.0949217 -4.01588 0
M  V30 2577 N 240.609 -0.561283 -2.85128 0
M  V30 2578 H 240.156 -1.23357 -2.26143 0
M  V30 2579 H 240.114 0.2595 -3.13327 0
M  V30 2580 N 243.887 0.651787 -1.4349 0
M  V30 2581 C 245.115 1.43937 -1.48626 0
M  V30 2582 C 245.53 1.8851 -0.104587 0
M  V30 2583 O 244.887 1.5958 0.885464 0
M  V30 2584 C 244.938 2.6734 -2.43334 0
M  V30 2585 O 244.659 2.24631 -3.76128 0
M  V30 2586 C 246.16 3.60683 -2.57726 0
M  V30 2587 H 243.38 0.44213 -0.504739 0
M  V30 2588 H 245.924 0.798944 -1.88248 0
M  V30 2589 H 244.079 3.2752 -2.06904 0
M  V30 2590 H 244.493 3.04485 -4.2707 0
M  V30 2591 H 245.967 4.43933 -3.28067 0
M  V30 2592 H 246.444 4.08126 -1.62265 0
M  V30 2593 H 247.05 3.06384 -2.94973 0
M  V30 2594 N 245.365 1.30045 0.890287 0
M  V30 2595 C 246.611 1.18737 1.64406 0
M  V30 2596 C 246.944 -0.258525 1.92472 0
M  V30 2597 O 246.219 -1.18562 1.54186 0
M  V30 2598 C 246.502 2.01087 2.98724 0
M  V30 2599 C 246.355 3.53867 2.77665 0
M  V30 2600 C 247.674 1.84457 3.9958 0
M  V30 2601 H 244.793 0.432698 0.596608 0
M  V30 2602 H 247.435 1.5962 1.0306 0
M  V30 2603 H 245.585 1.66349 3.51084 0
M  V30 2604 H 247.257 3.98637 2.32133 0
M  V30 2605 H 245.5 3.78318 2.12269 0
M  V30 2606 H 246.171 4.06772 3.7315 0
M  V30 2607 H 248.647 2.14817 3.56361 0
M  V30 2608 H 247.523 2.44411 4.91482 0
M  V30 2609 H 247.784 0.802276 4.3476 0
M  V30 2610 N 246.843 -1.10192 1.12674 0
M  V30 2611 C 247.773 -2.18652 0.819362 0
M  V30 2612 C 248.754 -1.68698 -0.217915 0
M  V30 2613 O 249.939 -1.94041 -0.0785581 0
M  V30 2614 C 247.069 -3.46202 0.27594 0
M  V30 2615 C 246.023 -4.09444 1.24656 0
M  V30 2616 C 245.349 -5.31725 0.563258 0
M  V30 2617 C 246.649 -4.52863 2.60217 0
M  V30 2618 H 248.343 -2.44622 1.72628 0
M  V30 2619 H 245.889 -1.17571 0.831451 0
M  V30 2620 H 247.842 -4.21372 0.0486149 0
M  V30 2621 H 246.566 -3.1973 -0.666331 0
M  V30 2622 H 245.225 -3.36284 1.45974 0
M  V30 2623 H 244.873 -5.0153 -0.384235 0
M  V30 2624 H 244.573 -5.74991 1.21075 0
M  V30 2625 H 246.097 -6.09624 0.34503 0
M  V30 2626 H 247.511 -5.19294 2.42913 0
M  V30 2627 H 245.908 -5.06986 3.21068 0
M  V30 2628 H 246.978 -3.65656 3.18471 0
M  V30 2629 N 248.321 -0.919034 -1.28029 0
M  V30 2630 C 249.551 -0.570143 -1.98577 0
M  V30 2631 C 249.959 0.854172 -1.68821 0
M  V30 2632 O 249.302 1.57807 -0.940351 0
M  V30 2633 C 249.364 -0.705734 -3.52505 0
M  V30 2634 C 249.028 -2.10057 -4.05863 0
M  V30 2635 C 250.025 -3.07385 -4.19298 0
M  V30 2636 C 247.71 -2.41517 -4.40426 0
M  V30 2637 C 249.704 -4.34287 -4.66555 0
M  V30 2638 C 247.391 -3.68657 -4.87376 0
M  V30 2639 C 248.389 -4.64856 -5.00398 0
M  V30 2640 O 248.077 -5.89735 -5.46322 0
M  V30 2641 H 247.809 -0.215592 -0.6407 0
M  V30 2642 H 250.363 -1.23583 -1.64062 0
M  V30 2643 H 248.593 0.0170414 -3.86696 0
M  V30 2644 H 250.282 -0.363172 -4.04272 0
M  V30 2645 H 251.048 -2.84398 -3.92865 0
M  V30 2646 H 246.927 -1.67389 -4.29537 0
M  V30 2647 H 250.471 -5.09377 -4.76635 0
M  V30 2648 H 246.368 -3.91466 -5.13249 0
M  V30 2649 H 247.136 -5.92599 -5.64596 0
M  V30 2650 N 249.799 1.42003 -0.683588 0
M  V30 2651 C 250.762 2.29191 -0.0198243 0
M  V30 2652 C 251.762 1.43773 0.72013 0
M  V30 2653 O 252.952 1.65061 0.556815 0
M  V30 2654 C 250.084 3.26435 0.982487 0
M  V30 2655 H 251.277 2.8938 -0.787345 0
M  V30 2656 H 248.83 1.49789 -0.446418 0
M  V30 2657 H 249.565 2.71203 1.77819 0
M  V30 2658 H 249.35 3.89449 0.455182 0
M  V30 2659 H 250.84 3.918 1.44508 0
M  V30 2660 N 251.277 0.427512 1.51691 0
M  V30 2661 C 252.693 0.0792977 1.59403 0
M  V30 2662 C 252.893 -1.41035 1.43914 0
M  V30 2663 O 251.949 -2.17922 1.27539 0
M  V30 2664 C 253.262 0.590636 2.94842 0
M  V30 2665 C 254.81 0.550215 3.08126 0
M  V30 2666 C 255.285 1.03836 4.46074 0
M  V30 2667 N 256.776 0.995943 4.52366 0
M  V30 2668 C 257.511 1.34463 5.57411 0
M  V30 2669 N 257.007 1.76569 6.69922 0
M  V30 2670 N 258.8 1.26343 5.47717 0
M  V30 2671 H 250.951 1.39687 1.60004 0
M  V30 2672 H 253.214 0.575003 0.753708 0
M  V30 2673 H 252.92 1.63251 3.11516 0
M  V30 2674 H 252.794 0.0102061 3.77199 0
M  V30 2675 H 255.181 -0.482654 2.91126 0
M  V30 2676 H 255.262 1.16693 2.27632 0
M  V30 2677 H 254.906 2.06965 4.63819 0
M  V30 2678 H 254.836 0.398286 5.25092 0
M  V30 2679 H 257.327 0.68661 3.7161 0
M  V30 2680 H 257.64 2.01438 7.46085 0
M  V30 2681 H 255.985 1.80488 6.71155 0
M  V30 2682 H 259.176 0.933209 4.58703 0
M  V30 2683 H 259.349 1.53846 6.29472 0
M  V30 2684 N 252.755 -1.56801 0.158532 0
M  V30 2685 C 254.032 -1.88131 -0.535357 0
M  V30 2686 C 254.412 -1.06638 -1.82186 0
M  V30 2687 O 253.76 -0.156533 -2.27963 0
M  V30 2688 C 253.97 -3.39949 -0.789653 0
M  V30 2689 C 255.318 -4.09416 -1.12533 0
M  V30 2690 O 256.342 -3.45194 -0.878622 0
M  V30 2691 O 255.201 -5.22855 -1.59014 0
M  V30 2692 H 252.295 -0.780143 -0.27442 0
M  V30 2693 H 254.841 -1.68564 0.19601 0
M  V30 2694 H 253.613 -3.91115 0.120353 0
M  V30 2695 H 253.236 -3.65084 -1.57479 0
M  V30 2696 N 254.233 0.115231 -1.57178 0
M  V30 2697 C 255.18 1.14115 -2.00615 0
M  V30 2698 C 256.15 1.40939 -0.878941 0
M  V30 2699 O 257.335 1.52741 -1.14345 0
M  V30 2700 C 254.475 2.46156 -2.4187 0
M  V30 2701 C 253.588 2.26236 -3.68024 0
M  V30 2702 C 252.723 3.51534 -3.98243 0
M  V30 2703 C 251.762 3.26787 -5.17568 0
M  V30 2704 N 250.899 4.44298 -5.43639 0
M  V30 2705 H 255.739 0.763743 -2.88047 0
M  V30 2706 H 253.276 0.365615 -1.42484 0
M  V30 2707 H 255.234 3.23189 -2.63827 0
M  V30 2708 H 253.864 2.81783 -1.57475 0
M  V30 2709 H 252.916 1.40102 -3.5366 0
M  V30 2710 H 254.228 2.03929 -4.55208 0
M  V30 2711 H 253.382 4.36984 -4.20868 0
M  V30 2712 H 252.121 3.76876 -3.09541 0
M  V30 2713 H 251.126 2.39729 -4.94783 0
M  V30 2714 H 252.351 3.02812 -6.0785 0
M  V30 2715 H 250.297 4.69754 -4.57895 0
M  V30 2716 H 250.214 4.25109 -6.25154 0
M  V30 2717 H 251.482 5.3087 -5.70786 0
M  V30 2718 N 255.711 1.52812 0.385517 0
M  V30 2719 C 256.957 1.69225 1.12847 0
M  V30 2720 C 257.312 0.42864 1.87564 0
M  V30 2721 O 256.605 -0.57779 1.8268 0
M  V30 2722 C 256.799 2.86856 2.13187 0
M  V30 2723 C 256.628 4.24535 1.48325 0
M  V30 2724 C 255.398 4.89701 1.24585 0
M  V30 2725 C 257.596 5.05794 0.931501 0
M  V30 2726 N 255.578 6.11353 0.558644 0
M  V30 2727 C 256.949 6.1888 0.372552 0
M  V30 2728 C 259.004 4.90963 0.828248 0
M  V30 2729 C 257.707 7.18757 -0.279556 0
M  V30 2730 C 259.733 5.91095 0.189956 0
M  V30 2731 C 259.095 7.03489 -0.358207 0
M  V30 2732 H 255.194 0.67268 0.39878 0
M  V30 2733 H 257.778 1.9017 0.417528 0
M  V30 2734 H 255.949 2.67484 2.81614 0
M  V30 2735 H 257.681 2.92188 2.80014 0
M  V30 2736 H 254.436 4.48485 1.52178 0
M  V30 2737 H 254.86 6.76606 0.230983 0
M  V30 2738 H 259.502 4.04274 1.23784 0
M  V30 2739 H 257.22 8.05052 -0.701152 0
M  V30 2740 H 260.806 5.81694 0.111264 0
M  V30 2741 H 259.686 7.79642 -0.844314 0
M  V30 2742 N 257.189 -0.644168 1.43834 0
M  V30 2743 C 258.119 -1.76814 1.52509 0
M  V30 2744 C 259.1 -1.65823 0.379052 0
M  V30 2745 O 260.285 -1.84781 0.597466 0
M  V30 2746 C 257.415 -3.15288 1.4564 0
M  V30 2747 C 256.369 -3.41053 2.58586 0
M  V30 2748 C 255.695 -4.79421 2.36769 0
M  V30 2749 C 256.995 -3.34902 4.00797 0
M  V30 2750 H 258.689 -1.69812 2.46586 0
M  V30 2751 H 256.235 -0.815542 1.1868 0
M  V30 2752 H 258.188 -3.93681 1.50311 0
M  V30 2753 H 256.912 -3.23043 0.480725 0
M  V30 2754 H 255.571 -2.65035 2.53282 0
M  V30 2755 H 255.219 -4.83863 1.37424 0
M  V30 2756 H 254.919 -4.9762 3.12487 0
M  V30 2757 H 256.443 -5.6006 2.43238 0
M  V30 2758 H 257.857 -4.03218 4.07539 0
M  V30 2759 H 256.254 -3.64637 4.76613 0
M  V30 2760 H 257.324 -2.32928 4.25291 0
M  V30 2761 N 258.668 -1.30515 -0.883378 0
M  V30 2762 C 259.631 -1.1701 -1.97082 0
M  V30 2763 C 260.631 -0.10089 -1.60483 0
M  V30 2764 O 261.821 -0.349127 -1.70666 0
M  V30 2765 C 258.953 -0.793045 -3.31547 0
M  V30 2766 H 260.146 -2.13622 -2.10489 0
M  V30 2767 H 257.699 -1.13935 -1.06998 0
M  V30 2768 H 258.434 0.172499 -3.23841 0
M  V30 2769 H 258.219 -1.56576 -3.5948 0
M  V30 2770 H 259.709 -0.722073 -4.1131 0
M  V30 2771 N 260.146 1.09593 -1.13257 0
M  V30 2772 C 261.557 1.63229 -0.906274 0
M  V30 2773 C 261.908 1.8811 0.557578 0
M  V30 2774 O 261.033 1.62953 1.42391 0
M  V30 2775 C 261.628 2.96535 -1.63867 0
M  V30 2776 C 260.187 3.47003 -1.45828 0
M  V30 2777 C 259.334 2.2145 -1.66898 0
M  V30 2778 H 262.285 0.92978 -1.28611 0
M  V30 2779 H 262.306 3.64411 -1.09476 0
M  V30 2780 H 261.818 2.78394 -2.70404 0
M  V30 2781 H 259.919 3.70272 -0.415848 0
M  V30 2782 H 260.032 4.24551 -2.2202 0
M  V30 2783 H 258.396 2.30022 -1.09371 0
M  V30 2784 H 259.179 2.0583 -2.74752 0
M  V30 2785 N 261.624 0.925811 1.2754 0
M  V30 2786 C 262.901 0.483726 1.89524 0
M  V30 2787 C 263.281 -1.03809 1.83812 0
M  V30 2788 O 262.629 -1.89143 1.28207 0
M  V30 2789 C 262.839 1.02769 3.33526 0
M  V30 2790 C 264.187 1.08703 4.10449 0
M  V30 2791 O 265.211 0.977175 3.42534 0
M  V30 2792 O 264.07 1.25599 5.31871 0
M  V30 2793 H 261.164 0.15529 0.812289 0
M  V30 2794 H 263.71 1.01738 1.35822 0
M  V30 2795 H 262.482 2.07155 3.31967 0
M  V30 2796 H 262.105 0.475567 3.94746 0
M  V30 2797 N 263.102 -1.41638 0.69111 0
M  V30 2798 C 264.35 -2.00902 0.219758 0
M  V30 2799 C 264.671 -1.54994 -1.18329 0
M  V30 2800 O 263.941 -0.778628 -1.79762 0
M  V30 2801 H 262.521 -0.74289 0.0782558 0
M  V30 2802 H 265.183 -1.73327 0.891271 0
M  V30 2803 H 264.279 -3.11224 0.233708 0
M  V30 2804 N 264.58 -0.43555 -1.51462 0
M  V30 2805 C 265.51 0.367376 -2.30592 0
M  V30 2806 C 266.491 1.02263 -1.35928 0
M  V30 2807 O 267.676 1.02661 -1.64847 0
M  V30 2808 C 264.806 1.46983 -3.14664 0
M  V30 2809 C 263.76 0.938161 -4.17591 0
M  V30 2810 C 263.086 2.13622 -4.90173 0
M  V30 2811 C 264.386 -0.0261621 -5.22293 0
M  V30 2812 H 266.08 -0.292969 -2.97963 0
M  V30 2813 H 263.626 -0.14234 -1.43295 0
M  V30 2814 H 265.579 2.03873 -3.688 0
M  V30 2815 H 264.303 2.15843 -2.4511 0
M  V30 2816 H 262.962 0.391481 -3.64504 0
M  V30 2817 H 262.61 2.81098 -4.17124 0
M  V30 2818 H 262.31 1.78688 -5.59772 0
M  V30 2819 H 263.834 2.7107 -5.47132 0
M  V30 2820 H 265.248 0.452384 -5.71512 0
M  V30 2821 H 263.645 -0.287992 -5.99409 0
M  V30 2822 H 264.715 -0.963391 -4.75233 0
M  V30 2823 N 266.058 1.56714 -0.166846 0
M  V30 2824 C 267.307 1.95922 0.479318 0
M  V30 2825 C 267.62 1.05529 1.6469 0
M  V30 2826 O 268.826 1.34399 2.35901 0
M  V30 2827 C 267.282 3.48359 0.90412 0
M  V30 2828 C 266.89 4.47369 -0.237621 0
M  V30 2829 C 268.634 3.96394 1.51896 0
M  V30 2830 C 266.541 5.91039 0.206561 0
M  V30 2831 H 265.471 0.731495 0.18284 0
M  V30 2832 H 268.122 1.81728 -0.254363 0
M  V30 2833 H 266.504 3.57955 1.69365 0
M  V30 2834 H 267.678 4.49485 -1.01489 0
M  V30 2835 H 265.993 4.09366 -0.762128 0
M  V30 2836 H 268.59 5.01186 1.86325 0
M  V30 2837 H 268.933 3.39075 2.41524 0
M  V30 2838 H 269.466 3.89796 0.79395 0
M  V30 2839 H 266.205 6.52221 -0.654834 0
M  V30 2840 H 265.725 5.9224 0.949282 0
M  V30 2841 H 267.404 6.43707 0.651939 0
M  V30 2842 N 267.536 -0.106894 1.57237 0
M  V30 2843 C 268.783 -0.812526 1.85484 0
M  V30 2844 C 269.111 -1.79304 0.753687 0
M  V30 2845 O 268.366 -1.94047 -0.253853 0
M  V30 2846 C 268.665 -1.58628 3.20268 0
M  V30 2847 C 268.331 -0.748967 4.44636 0
M  V30 2848 C 266.993 -0.518104 4.78403 0
M  V30 2849 C 269.345 -0.166122 5.20935 0
M  V30 2850 C 266.673 0.305659 5.85903 0
M  V30 2851 C 269.025 0.644899 6.29304 0
M  V30 2852 C 267.689 0.885965 6.61594 0
M  V30 2853 H 266.959 -0.297324 0.678734 0
M  V30 2854 H 269.606 -0.0744332 1.91355 0
M  V30 2855 H 267.911 -2.39562 3.10028 0
M  V30 2856 H 269.608 -2.13643 3.39349 0
M  V30 2857 H 266.198 -0.939006 4.18187 0
M  V30 2858 H 270.382 -0.33167 4.95191 0
M  V30 2859 H 265.638 0.501528 6.0934 0
M  V30 2860 H 269.812 1.10345 6.87602 0
M  V30 2861 H 267.439 1.52609 7.44725 0
M  V30 2862 N 269.014 -1.53014 -0.377408 0
M  V30 2863 C 270.425 -1.60438 -0.954798 0
M  V30 2864 C 270.776 -0.464418 -1.90624 0
M  V30 2865 O 269.901 0.41087 -2.12464 0
M  V30 2866 C 270.496 -2.90797 -1.73847 0
M  V30 2867 C 269.055 -3.00595 -2.26538 0
M  V30 2868 C 268.202 -2.55645 -1.07429 0
M  V30 2869 H 271.153 -1.57926 -0.156575 0
M  V30 2870 H 271.174 -2.77935 -2.5987 0
M  V30 2871 H 270.686 -3.73746 -1.04574 0
M  V30 2872 H 268.787 -2.22208 -2.99089 0
M  V30 2873 H 268.9 -4.05456 -2.5523 0
M  V30 2874 H 267.264 -2.10239 -1.43777 0
M  V30 2875 H 268.047 -3.41 -0.396728 0
M  V30 2876 N 270.492 0.636531 -1.44174 0
M  V30 2877 C 271.769 1.39463 -1.37148 0
M  V30 2878 C 272.149 2.11082 -0.027507 0
M  V30 2879 O 271.497 2.05954 0.989716 0
M  V30 2880 C 271.707 2.36552 -2.56601 0
M  V30 2881 C 273.055 3.00048 -3.00427 0
M  V30 2882 O 274.079 2.46878 -2.56767 0
M  V30 2883 O 272.938 3.96488 -3.76111 0
M  V30 2884 H 270.032 0.623903 -0.542839 0
M  V30 2885 H 272.578 0.662039 -1.56253 0
M  V30 2886 H 271.35 1.82692 -3.46034 0
M  V30 2887 H 270.973 3.17236 -2.39681 0
M  V30 2888 N 271.97 1.30982 0.876444 0
M  V30 2889 C 273.386 1.09498 1.16113 0
M  V30 2890 C 273.586 -0.13875 2.01022 0
M  V30 2891 O 272.642 -0.829935 2.38471 0
M  V30 2892 C 273.955 2.36308 1.85954 0
M  V30 2893 C 275.503 2.41856 1.98683 0
M  V30 2894 C 275.978 3.6853 2.71937 0
M  V30 2895 N 277.469 3.69387 2.79477 0
M  V30 2896 C 278.204 4.64096 3.36753 0
M  V30 2897 N 277.7 5.69155 3.95012 0
M  V30 2898 N 279.493 4.51626 3.3465 0
M  V30 2899 H 271.644 2.10118 0.310494 0
M  V30 2900 H 273.907 0.926634 0.200131 0
M  V30 2901 H 273.613 3.26388 1.31011 0
M  V30 2902 H 273.487 2.4561 2.86278 0
M  V30 2903 H 275.874 1.52249 2.52793 0
M  V30 2904 H 275.955 2.36523 0.9742 0
M  V30 2905 H 275.599 4.58499 2.18496 0
M  V30 2906 H 275.529 3.71127 3.73593 0
M  V30 2907 H 278.02 2.93438 2.38123 0
M  V30 2908 H 278.333 6.3751 4.36808 0
M  V30 2909 H 276.678 5.72937 3.93406 0
M  V30 2910 H 279.869 3.68728 2.8837 0
M  V30 2911 H 280.042 5.25614 3.7899 0
M  V30 2912 N 273.449 -1.08991 1.13837 0
M  V30 2913 C 274.412 -2.13925 0.822715 0
M  V30 2914 C 275.412 -1.599 -0.1699 0
M  V30 2915 O 276.602 -1.74104 0.0577251 0
M  V30 2916 C 273.734 -3.40155 0.225318 0
M  V30 2917 H 274.927 -2.43358 1.75262 0
M  V30 2918 H 272.48 -1.24603 0.943594 0
M  V30 2919 H 273.215 -3.16352 -0.713594 0
M  V30 2920 H 273 -3.80661 0.940193 0
M  V30 2921 H 274.49 -4.17594 0.0214784 0
M  V30 2922 N 274.927 -0.932562 -1.27047 0
M  V30 2923 C 276.155 -0.592031 -1.98249 0
M  V30 2924 C 276.57 0.831062 -1.69525 0
M  V30 2925 O 275.927 1.55299 -0.958561 0
M  V30 2926 C 275.978 -0.814279 -3.5221 0
M  V30 2927 O 275.699 -2.18139 -3.7993 0
M  V30 2928 C 277.2 -0.483121 -4.4066 0
M  V30 2929 H 274.42 -0.223896 -0.632544 0
M  V30 2930 H 276.964 -1.25091 -1.61779 0
M  V30 2931 H 275.119 -0.20213 -3.86872 0
M  V30 2932 H 275.533 -2.235 -4.74498 0
M  V30 2933 H 277.007 -0.689298 -5.47679 0
M  V30 2934 H 277.484 0.581546 -4.35333 0
M  V30 2935 H 278.09 -1.07362 -4.11526 0
M  V30 2936 N 276.405 1.4127 -0.698611 0
M  V30 2937 C 277.335 2.33447 -0.049629 0
M  V30 2938 C 278.316 1.51982 0.763898 0
M  V30 2939 O 279.501 1.80509 0.716257 0
M  V30 2940 C 276.631 3.35828 0.885267 0
M  V30 2941 C 275.585 4.27627 0.178613 0
M  V30 2942 C 274.911 5.20406 1.22807 0
M  V30 2943 C 276.211 5.13459 -0.956933 0
M  V30 2944 H 277.905 2.87966 -0.81951 0
M  V30 2945 H 275.451 1.38461 -0.395538 0
M  V30 2946 H 277.404 3.9924 1.34854 0
M  V30 2947 H 276.128 2.79666 1.68685 0
M  V30 2948 H 274.787 3.65643 -0.26466 0
M  V30 2949 H 274.435 4.60558 2.02226 0
M  V30 2950 H 274.135 5.82661 0.760239 0
M  V30 2951 H 275.659 5.86695 1.69179 0
M  V30 2952 H 277.073 5.70421 -0.573805 0
M  V30 2953 H 275.47 5.8467 -1.35205 0
M  V30 2954 H 276.54 4.50443 -1.79524 0
M  V30 2955 N 277.883 0.443576 1.51229 0
M  V30 2956 C 279.113 -0.119117 2.06256 0
M  V30 2957 C 279.521 -1.36471 1.31043 0
M  V30 2958 O 278.864 -1.80034 0.365151 0
M  V30 2959 C 278.926 -0.500546 3.55998 0
M  V30 2960 C 278.59 0.639125 4.52509 0
M  V30 2961 C 279.587 1.51311 4.97394 0
M  V30 2962 C 277.272 0.821632 4.95535 0
M  V30 2963 C 279.266 2.55425 5.83984 0
M  V30 2964 C 276.953 1.86603 5.81913 0
M  V30 2965 C 277.951 2.73072 6.26036 0
M  V30 2966 O 277.639 3.75718 7.10698 0
M  V30 2967 H 277.371 -0.00857665 0.675946 0
M  V30 2968 H 279.925 0.623288 1.95715 0
M  V30 2969 H 278.155 -1.29575 3.64345 0
M  V30 2970 H 279.844 -0.995116 3.93513 0
M  V30 2971 H 280.61 1.38367 4.64844 0
M  V30 2972 H 276.489 0.158149 4.60729 0
M  V30 2973 H 280.033 3.22949 6.18344 0
M  V30 2974 H 275.93 1.99564 6.13876 0
M  V30 2975 H 276.698 3.72374 7.2889 0
M  V30 2976 N 279.361 -1.56624 0.175154 0
M  V30 2977 C 280.607 -1.9729 -0.469506 0
M  V30 2978 C 280.94 -1.06128 -1.62636 0
M  V30 2979 O 280.215 -0.109183 -1.94193 0
M  V30 2980 C 280.498 -3.47375 -0.948804 0
M  V30 2981 C 280.351 -4.49317 0.208491 0
M  V30 2982 C 281.67 -4.00652 -1.82116 0
M  V30 2983 H 278.789 -0.717317 -0.16919 0
M  V30 2984 H 281.431 -1.88184 0.262062 0
M  V30 2985 H 279.581 -3.55267 -1.57219 0
M  V30 2986 H 281.253 -4.53482 0.845682 0
M  V30 2987 H 279.496 -4.25121 0.863395 0
M  V30 2988 H 280.167 -5.51741 -0.169059 0
M  V30 2989 H 282.643 -3.95416 -1.2956 0
M  V30 2990 H 281.519 -5.06075 -2.12554 0
M  V30 2991 H 281.78 -3.44699 -2.7683 0
M  V30 2992 N 280.839 0.0985539 -1.57292 0
M  V30 2993 C 282.067 0.816318 -1.90115 0
M  V30 2994 C 282.482 1.72451 -0.768509 0
M  V30 2995 O 281.839 1.80643 0.259687 0
M  V30 2996 C 281.89 1.63259 -3.22535 0
M  V30 2997 O 281.611 0.760934 -4.31441 0
M  V30 2998 C 283.112 2.45372 -3.69199 0
M  V30 2999 H 280.332 0.233595 -0.629027 0
M  V30 3000 H 282.876 0.0768229 -2.04356 0
M  V30 3001 H 281.031 2.32463 -3.09903 0
M  V30 3002 H 281.445 1.32595 -5.07463 0
M  V30 3003 H 282.919 2.98144 -4.64558 0
M  V30 3004 H 283.396 3.23677 -2.96867 0
M  V30 3005 H 284.002 1.81373 -3.84687 0
M  V30 3006 N 282.317 1.53212 0.369288 0
M  V30 3007 C 283.28 1.7872 1.43498 0
M  V30 3008 C 284.28 0.657554 1.46741 0
M  V30 3009 O 285.47 0.925736 1.47566 0
M  V30 3010 C 282.602 1.90591 2.82645 0
M  V30 3011 H 283.795 2.73894 1.22156 0
M  V30 3012 H 281.348 1.44233 0.602203 0
M  V30 3013 H 282.083 0.974709 3.09306 0
M  V30 3014 H 281.868 2.72751 2.8169 0
M  V30 3015 H 283.358 2.11931 3.59826 0
M  V30 3016 N 283.795 -0.628877 1.44509 0
M  V30 3017 C 285.044 -1.38437 1.4669 0
M  V30 3018 C 285.357 -1.95322 0.104272 0
M  V30 3019 O 286.563 -2.715 0.00362163 0
M  V30 3020 C 285.019 -2.50659 2.5826 0
M  V30 3021 C 284.627 -2.00277 4.0074 0
M  V30 3022 C 286.371 -3.27844 2.69664 0
M  V30 3023 C 284.278 -3.09854 5.0373 0
M  V30 3024 H 283.208 -0.520245 0.545766 0
M  V30 3025 H 285.859 -0.676313 1.70582 0
M  V30 3026 H 284.241 -3.2405 2.27612 0
M  V30 3027 H 285.415 -1.33736 4.40966 0
M  V30 3028 H 283.73 -1.35901 3.93599 0
M  V30 3029 H 286.327 -4.09534 3.43781 0
M  V30 3030 H 286.67 -3.77471 1.75559 0
M  V30 3031 H 287.203 -2.61543 2.99733 0
M  V30 3032 H 283.942 -2.65168 5.99472 0
M  V30 3033 H 283.462 -3.7503 4.68095 0
M  V30 3034 H 285.141 -3.74592 5.27532 0
M  V30 3035 N 285.273 -1.31445 -0.869486 0
M  V30 3036 C 286.183 -1.21097 -2.0093 0
M  V30 3037 C 287.199 -0.127584 -1.73532 0
M  V30 3038 O 288.375 -0.345477 -1.98415 0
M  V30 3039 C 285.44 -0.919378 -3.34288 0
M  V30 3040 C 284.501 -2.08971 -3.75006 0
M  V30 3041 C 283.734 -1.81194 -5.02001 0
M  V30 3042 O 283.957 -0.747296 -5.65484 0
M  V30 3043 O 282.891 -2.66883 -5.39497 0
M  V30 3044 H 286.717 -2.16883 -2.12592 0
M  V30 3045 H 284.302 -1.11189 -0.997868 0
M  V30 3046 H 286.184 -0.772625 -4.14257 0
M  V30 3047 H 284.859 0.00844772 -3.23699 0
M  V30 3048 H 283.766 -2.29187 -2.95676 0
M  V30 3049 H 285.099 -2.9998 -3.90221 0
M  V30 3050 N 286.751 1.08385 -1.14413 0
M  V30 3051 C 288.028 1.77429 -0.823297 0
M  V30 3052 C 288.408 1.9974 0.683163 0
M  V30 3053 O 287.756 1.60739 1.62405 0
M  V30 3054 C 287.966 3.09004 -1.62227 0
M  V30 3055 C 289.314 3.83532 -1.82177 0
M  V30 3056 O 290.338 3.18786 -1.58915 0
M  V30 3057 O 289.197 4.99792 -2.21067 0
M  V30 3058 H 286.291 0.769999 -0.301712 0
M  V30 3059 H 288.837 1.14846 -1.24934 0
M  V30 3060 H 287.609 2.88316 -2.64555 0
M  V30 3061 H 287.232 3.79316 -1.19187 0
M  V30 3062 N 288.23 0.939286 1.26551 0
M  V30 3063 C 289.646 0.641304 1.46149 0
M  V30 3064 C 289.846 -0.805964 1.84679 0
M  V30 3065 O 288.902 -1.58278 1.96734 0
M  V30 3066 C 290.215 1.6011 2.54529 0
M  V30 3067 C 291.763 1.6106 2.68382 0
M  V30 3068 C 292.238 2.55765 3.79932 0
M  V30 3069 N 293.729 2.5404 3.87322 0
M  V30 3070 C 294.464 3.24004 4.73085 0
M  V30 3071 N 293.96 4.03388 5.63249 0
M  V30 3072 N 295.753 3.12965 4.66914 0
M  V30 3073 H 287.904 1.87478 0.998285 0
M  V30 3074 H 290.167 0.805559 0.499779 0
M  V30 3075 H 289.873 2.63412 2.33039 0
M  V30 3076 H 289.747 1.35171 3.52149 0
M  V30 3077 H 292.134 0.584835 2.89247 0
M  V30 3078 H 292.215 1.90053 1.71212 0
M  V30 3079 H 291.859 3.58458 3.5982 0
M  V30 3080 H 291.789 2.24063 4.76554 0
M  V30 3081 H 294.28 1.96396 3.22858 0
M  V30 3082 H 294.593 4.5373 6.25579 0
M  V30 3083 H 292.938 4.07489 5.63008 0
M  V30 3084 H 296.129 2.50432 3.95476 0
M  V30 3085 H 296.302 3.67759 5.33533 0
M  V30 3086 N 289.708 -1.40897 0.706093 0
M  V30 3087 C 290.64 -2.29199 0.00815776 0
M  V30 3088 C 291.653 -1.45336 -0.733582 0
M  V30 3089 O 292.842 -1.68727 -0.582537 0
M  V30 3090 C 289.942 -3.23417 -1.01265 0
M  V30 3091 C 289.115 -4.36089 -0.338387 0
M  V30 3092 C 288.174 -5.10811 -1.26326 0
M  V30 3093 O 287.2 -5.64215 -0.751651 0
M  V30 3094 N 288.402 -5.19269 -2.595 0
M  V30 3095 H 291.167 -2.89738 0.766297 0
M  V30 3096 H 288.728 -1.52164 0.55296 0
M  V30 3097 H 290.72 -3.70276 -1.63334 0
M  V30 3098 H 289.29 -2.64112 -1.67223 0
M  V30 3099 H 288.51 -3.91479 0.462352 0
M  V30 3100 H 289.798 -5.08634 0.130031 0
M  V30 3101 H 289.196 -4.77347 -3.03573 0
M  V30 3102 H 287.753 -5.69667 -3.16737 0
M  V30 3103 N 291.186 -0.45159 -1.50991 0
M  V30 3104 C 292.416 0.108177 -2.06317 0
M  V30 3105 C 292.824 1.35774 -1.31765 0
M  V30 3106 O 292.167 1.79838 -0.374694 0
M  V30 3107 C 292.229 0.481659 -3.56259 0
M  V30 3108 C 291.893 -0.663114 -4.52163 0
M  V30 3109 C 292.89 -1.53947 -4.96585 0
M  V30 3110 C 290.575 -0.8479 -4.95092 0
M  V30 3111 C 292.569 -2.58518 -5.82621 0
M  V30 3112 C 290.256 -1.89686 -5.80915 0
M  V30 3113 C 291.254 -2.76388 -6.24579 0
M  V30 3114 O 290.942 -3.79482 -7.08695 0
M  V30 3115 H 290.674 0.00499183 -0.675982 0
M  V30 3116 H 293.228 -0.633659 -1.95381 0
M  V30 3117 H 291.458 1.27641 -3.65027 0
M  V30 3118 H 293.147 0.974233 -3.94035 0
M  V30 3119 H 293.913 -1.4083 -4.64103 0
M  V30 3120 H 289.792 -0.18258 -4.60638 0
M  V30 3121 H 293.336 -3.26224 -6.16623 0
M  V30 3122 H 289.233 -2.02817 -6.12809 0
M  V30 3123 H 290.001 -3.76234 -7.26905 0
M  V30 3124 N 292.664 1.56529 -0.183458 0
M  V30 3125 C 293.611 2.18546 0.742055 0
M  V30 3126 C 294.581 1.12912 1.2182 0
M  V30 3127 O 295.766 1.41115 1.28418 0
M  V30 3128 C 292.906 2.83977 1.96089 0
M  V30 3129 C 292.019 4.04105 1.52719 0
M  V30 3130 C 291.154 4.57427 2.70063 0
M  V30 3131 C 290.193 5.69938 2.23243 0
M  V30 3132 N 289.33 6.17717 3.33722 0
M  V30 3133 H 294.17 2.97284 0.206432 0
M  V30 3134 H 291.707 1.46823 0.0901571 0
M  V30 3135 H 293.665 3.20077 2.67594 0
M  V30 3136 H 292.295 2.07822 2.47002 0
M  V30 3137 H 291.347 3.73745 0.708436 0
M  V30 3138 H 292.659 4.85513 1.1436 0
M  V30 3139 H 291.813 4.95772 3.49708 0
M  V30 3140 H 290.552 3.75101 3.11689 0
M  V30 3141 H 289.557 5.31133 1.42048 0
M  V30 3142 H 290.782 6.54073 1.82661 0
M  V30 3143 H 288.728 5.38317 3.74902 0
M  V30 3144 H 288.645 6.94146 2.99495 0
M  V30 3145 H 289.913 6.60713 4.13616 0
M  V30 3146 N 294.142 -0.090211 1.57342 0
M  V30 3147 C 295.419 -0.824761 1.77361 0
M  V30 3148 C 295.799 -1.96698 0.76637 0
M  V30 3149 O 295.147 -2.27586 -0.204179 0
M  V30 3150 C 295.357 -1.31481 3.23286 0
M  V30 3151 C 296.705 -1.75563 3.86604 0
M  V30 3152 O 297.729 -1.41093 3.27065 0
M  V30 3153 O 296.588 -2.39317 4.91314 0
M  V30 3154 H 293.682 -0.393776 0.727234 0
M  V30 3155 H 296.228 -0.0717138 1.69548 0
M  V30 3156 H 295 -0.496671 3.88135 0
M  V30 3157 H 294.623 -2.12973 3.35751 0
M  V30 3158 N 295.62 -1.53406 -0.361157 0
M  V30 3159 C 296.85 -1.73465 -1.1222 0
M  V30 3160 C 297.258 -0.465486 -1.83384 0
M  V30 3161 O 296.601 0.571611 -1.7458 0
M  V30 3162 C 296.663 -2.84834 -2.19339 0
M  V30 3163 C 296.327 -4.25038 -1.67903 0
M  V30 3164 C 297.324 -5.07231 -1.14074 0
M  V30 3165 C 295.009 -4.71464 -1.73282 0
M  V30 3166 C 297.003 -6.33942 -0.663068 0
M  V30 3167 C 294.69 -5.98153 -1.25127 0
M  V30 3168 C 295.688 -6.79223 -0.717296 0
M  V30 3169 O 295.376 -8.03533 -0.242865 0
M  V30 3170 H 295.108 -0.583526 -0.341283 0
M  V30 3171 H 297.662 -2.00964 -0.424591 0
M  V30 3172 H 295.892 -2.5282 -2.92607 0
M  V30 3173 H 297.581 -2.9303 -2.80871 0
M  V30 3174 H 298.347 -4.72534 -1.09254 0
M  V30 3175 H 294.226 -4.08432 -2.13786 0
M  V30 3176 H 297.77 -6.97167 -0.245612 0
M  V30 3177 H 293.667 -6.32347 -1.29642 0
M  V30 3178 H 294.435 -8.177 -0.361786 0
M  V30 3179 N 297.098 0.621204 -1.44841 0
M  V30 3180 C 298.045 1.73267 -1.5247 0
M  V30 3181 C 299.015 1.6189 -0.371611 0
M  V30 3182 O 300.2 1.81668 -0.58321 0
M  V30 3183 C 297.34 3.11545 -1.48438 0
M  V30 3184 C 296.453 3.33827 -2.74196 0
M  V30 3185 C 295.588 4.62133 -2.61929 0
M  V30 3186 C 294.627 4.77627 -3.82804 0
M  V30 3187 N 293.764 5.97219 -3.69153 0
M  V30 3188 H 298.604 1.66082 -2.47428 0
M  V30 3189 H 296.141 0.810026 -1.22788 0
M  V30 3190 H 298.099 3.91528 -1.4409 0
M  V30 3191 H 296.729 3.1772 -0.570402 0
M  V30 3192 H 295.781 2.47715 -2.88689 0
M  V30 3193 H 297.093 3.41153 -3.6389 0
M  V30 3194 H 296.247 5.50291 -2.5547 0
M  V30 3195 H 294.986 4.57182 -1.69811 0
M  V30 3196 H 293.991 3.87896 -3.89637 0
M  V30 3197 H 295.216 4.84385 -4.75971 0
M  V30 3198 H 293.162 5.93339 -2.79794 0
M  V30 3199 H 293.079 6.05644 -4.52472 0
M  V30 3200 H 294.347 6.87912 -3.66603 0
M  V30 3201 N 298.576 1.31904 0.862503 0
M  V30 3202 C 299.825 1.21373 1.61094 0
M  V30 3203 C 300.138 -0.22504 1.94301 0
M  V30 3204 O 301.344 -0.452121 2.67709 0
M  V30 3205 C 299.8 2.12525 2.9045 0
M  V30 3206 C 299.408 3.61441 2.64697 0
M  V30 3207 C 301.152 2.10813 3.68454 0
M  V30 3208 C 299.059 4.44578 3.90006 0
M  V30 3209 H 297.989 0.450705 0.604468 0
M  V30 3210 H 300.64 1.56811 0.953027 0
M  V30 3211 H 299.022 1.69994 3.57656 0
M  V30 3212 H 300.196 4.12264 2.05851 0
M  V30 3213 H 298.511 3.65205 2.00036 0
M  V30 3214 H 301.108 2.70167 4.61426 0
M  V30 3215 H 301.451 1.09713 4.01583 0
M  V30 3216 H 301.984 2.51583 3.08141 0
M  V30 3217 H 298.723 5.46461 3.62023 0
M  V30 3218 H 298.243 3.98508 4.48276 0
M  V30 3219 H 299.922 4.57176 4.5782 0
M  V30 3220 N 300.054 -1.07777 1.14986 0
M  V30 3221 C 301.004 -2.13082 0.811181 0
M  V30 3222 C 301.988 -1.59619 -0.202597 0
M  V30 3223 O 303.18 -1.77 -0.00398275 0
M  V30 3224 C 300.309 -3.42009 0.297439 0
M  V30 3225 C 299.395 -4.02337 1.34112 0
M  V30 3226 N 299.786 -4.36982 2.54716 0
M  V30 3227 C 298.084 -4.29752 1.19285 0
M  V30 3228 C 298.785 -4.84729 3.21578 0
M  V30 3229 N 297.761 -4.83233 2.48972 0
M  V30 3230 H 301.563 -2.37696 1.72853 0
M  V30 3231 H 299.077 -1.25173 1.03468 0
M  V30 3232 H 301.074 -4.16884 0.0364777 0
M  V30 3233 H 299.734 -3.18841 -0.614022 0
M  V30 3234 H 300.745 -4.27807 2.91894 0
M  V30 3235 H 297.422 -4.16106 0.340926 0
M  V30 3236 H 298.812 -5.20863 4.24442 0
M  V30 3237 N 301.532 -0.945985 -1.26051 0
M  V30 3238 C 302.778 -0.606539 -1.94146 0
M  V30 3239 C 303.133 0.84586 -1.72809 0
M  V30 3240 O 302.426 1.59781 -1.05738 0
M  V30 3241 C 302.62 -0.890475 -3.46129 0
M  V30 3242 C 302.449 -2.36892 -3.82246 0
M  V30 3243 C 301.219 -3.02494 -4.04753 0
M  V30 3244 C 303.417 -3.34772 -3.90425 0
M  V30 3245 N 301.399 -4.40302 -4.27794 0
M  V30 3246 C 302.77 -4.57855 -4.18054 0
M  V30 3247 C 304.825 -3.2973 -3.73072 0
M  V30 3248 C 303.528 -5.76522 -4.30134 0
M  V30 3249 C 305.554 -4.47727 -3.86386 0
M  V30 3250 C 304.916 -5.69593 -4.14419 0
M  V30 3251 H 301.015 -0.272407 -0.73302 0
M  V30 3252 H 303.599 -1.21638 -1.52027 0
M  V30 3253 H 301.77 -0.309638 -3.87164 0
M  V30 3254 H 303.502 -0.51181 -4.01451 0
M  V30 3255 H 300.257 -2.53095 -4.003 0
M  V30 3256 H 300.681 -5.11646 -4.43337 0
M  V30 3257 H 305.323 -2.36565 -3.50424 0
M  V30 3258 H 303.041 -6.70136 -4.51601 0
M  V30 3259 H 306.627 -4.45363 -3.74356 0
M  V30 3260 H 305.507 -6.59375 -4.24493 0
M  V30 3261 N 303.011 1.40521 -0.713556 0
M  V30 3262 C 304.257 2.01714 -0.261382 0
M  V30 3263 C 304.612 1.55562 1.13217 0
M  V30 3264 O 303.905 0.764893 1.7567 0
M  V30 3265 C 304.099 3.56317 -0.278 0
M  V30 3266 C 303.928 4.17476 -1.67163 0
M  V30 3267 C 302.698 4.50998 -2.2788 0
M  V30 3268 C 304.896 4.42472 -2.6215 0
M  V30 3269 N 302.878 4.9754 -3.5962 0
M  V30 3270 C 304.249 4.90985 -3.78594 0
M  V30 3271 C 306.304 4.24508 -2.60188 0
M  V30 3272 C 305.007 5.2342 -4.9338 0
M  V30 3273 C 307.033 4.58043 -3.741 0
M  V30 3274 C 306.395 5.06743 -4.89276 0
M  V30 3275 H 302.494 0.769104 -0.141434 0
M  V30 3276 H 305.078 1.70785 -0.934915 0
M  V30 3277 H 303.249 3.8668 0.36509 0
M  V30 3278 H 304.981 4.0425 0.190695 0
M  V30 3279 H 301.736 4.38062 -1.79997 0
M  V30 3280 H 302.16 5.25196 -4.27198 0
M  V30 3281 H 306.802 3.86078 -1.72348 0
M  V30 3282 H 304.52 5.60765 -5.81866 0
M  V30 3283 H 308.106 4.45785 -3.73854 0
M  V30 3284 H 306.986 5.32204 -5.75959 0
M  V30 3285 N 304.489 0.459591 1.5075 0
M  V30 3286 C 305.399 -0.34613 2.32033 0
M  V30 3287 C 306.415 -1.00686 1.41909 0
M  V30 3288 O 307.591 -0.997361 1.7497 0
M  V30 3289 C 304.656 -1.42029 3.16273 0
M  V30 3290 C 303.717 -0.777362 4.22203 0
M  V30 3291 C 302.95 -1.80034 5.02418 0
M  V30 3292 O 303.173 -3.02544 4.83553 0
M  V30 3293 O 302.107 -1.37853 5.85901 0
M  V30 3294 H 305.933 0.318054 3.0203 0
M  V30 3295 H 303.518 0.221663 1.47746 0
M  V30 3296 H 305.4 -2.04275 3.68578 0
M  V30 3297 H 304.075 -2.06815 2.49016 0
M  V30 3298 H 302.982 -0.116256 3.73919 0
M  V30 3299 H 304.315 -0.172634 4.91897 0
M  V30 3300 N 305.967 -1.56429 0.191757 0
M  V30 3301 C 306.915 -2.20273 -0.747174 0
M  V30 3302 C 307.909 -1.17288 -1.22229 0
M  V30 3303 O 309.115 -1.35441 -1.18557 0
M  V30 3304 H 305.49 -0.705885 -0.259289 0
M  V30 3305 H 307.461 -2.97826 -0.184963 0
M  V30 3306 C 306.21 -2.87356 -1.95759 0
M  V30 3307 H 305.533 -3.66341 -1.60106 0
M  V30 3308 H 306.973 -3.3547 -2.59299 0
M  V30 3309 C 305.432 -1.88213 -2.79423 0
M  V30 3310 O 305.962 -1.38033 -3.7724 0
M  V30 3311 N 304.168 -1.56516 -2.44849 0
M  V30 3312 H 303.715 -1.97516 -1.65364 0
M  V30 3313 H 303.673 -0.904369 -3.01112 0
M  V30 3314 N 307.445 0.0818655 -1.57387 0
M  V30 3315 C 308.691 0.784074 -1.8703 0
M  V30 3316 C 309.024 1.77729 -0.782689 0
M  V30 3317 O 308.299 1.93384 0.208051 0
M  V30 3318 C 308.582 1.50105 -3.27323 0
M  V30 3319 C 308.435 0.524925 -4.46727 0
M  V30 3320 C 309.754 2.44843 -3.65705 0
M  V30 3321 H 306.873 0.283582 -0.680257 0
M  V30 3322 H 309.515 0.0474352 -1.89941 0
M  V30 3323 H 307.665 2.12897 -3.24972 0
M  V30 3324 H 309.337 -0.0970111 -4.61198 0
M  V30 3325 H 307.58 -0.160606 -4.33503 0
M  V30 3326 H 308.251 1.064 -5.41648 0
M  V30 3327 H 310.727 1.92135 -3.69085 0
M  V30 3328 H 309.603 2.92018 -4.64776 0
M  V30 3329 H 309.864 3.29197 -2.95096 0
M  V30 3330 N 308.923 1.53595 0.353017 0
M  V30 3331 C 310.153 1.74058 1.11299 0
M  V30 3332 C 310.561 0.475205 1.83135 0
M  V30 3333 O 309.904 -0.562344 1.74881 0
M  V30 3334 C 309.966 2.85994 2.17825 0
M  V30 3335 C 309.63 4.25923 1.65647 0
M  V30 3336 C 310.627 5.07829 1.11383 0
M  V30 3337 C 308.312 4.72377 1.7078 0
M  V30 3338 C 310.306 6.34285 0.629439 0
M  V30 3339 C 307.993 5.98808 1.21953 0
M  V30 3340 C 308.991 6.79594 0.681265 0
M  V30 3341 O 308.679 8.03651 0.200248 0
M  V30 3342 H 308.411 0.585327 0.338183 0
M  V30 3343 H 310.965 2.01186 0.413927 0
M  V30 3344 H 309.195 2.54368 2.91262 0
M  V30 3345 H 310.884 2.94515 2.79313 0
M  V30 3346 H 311.65 4.73107 1.06746 0
M  V30 3347 H 307.529 4.0956 2.11617 0
M  V30 3348 H 311.073 6.97288 0.208636 0
M  V30 3349 H 306.97 6.33026 1.26287 0
M  V30 3350 H 307.738 8.1788 0.318416 0
M  V30 3351 N 310.401 -0.613514 1.45168 0
M  V30 3352 C 311.649 -1.36997 1.48581 0
M  V30 3353 C 311.97 -1.94589 0.126545 0
M  V30 3354 O 311.24 -1.76816 -0.843372 0
M  V30 3355 H 309.82 -0.508558 0.547154 0
M  V30 3356 H 312.482 -0.720853 1.81079 0
M  V30 3357 H 311.578 -2.1924 2.22127 0
M  V30 3358 N 311.879 -1.3236 -0.855495 0
M  V30 3359 C 313.126 -1.22872 -1.60962 0
M  V30 3360 C 313.454 0.209658 -1.93367 0
M  V30 3361 O 312.709 1.16243 -1.57436 0
M  V30 3362 C 313.008 -2.03275 -2.93963 0
M  V30 3363 C 312.674 -3.5264 -2.80991 0
M  V30 3364 C 311.336 -3.93364 -2.7716 0
M  V30 3365 C 313.688 -4.47626 -2.66983 0
M  V30 3366 C 311.016 -5.27319 -2.572 0
M  V30 3367 C 313.368 -5.81723 -2.48558 0
M  V30 3368 C 312.032 -6.2165 -2.4312 0
M  V30 3369 H 311.302 -0.44962 -0.589001 0
M  V30 3370 H 313.949 -1.63777 -0.992442 0
M  V30 3371 H 312.254 -1.55095 -3.59795 0
M  V30 3372 H 313.951 -1.93303 -3.51333 0
M  V30 3373 H 310.541 -3.20295 -2.84797 0
M  V30 3374 H 314.725 -4.17084 -2.68988 0
M  V30 3375 H 309.981 -5.57311 -2.51424 0
M  V30 3376 H 314.155 -6.5494 -2.36699 0
M  V30 3377 H 311.782 -7.25388 -2.27412 0
M  V30 3378 N 313.357 1.07166 -1.15556 0
M  V30 3379 C 314.634 1.76546 -0.842069 0
M  V30 3380 C 315.014 2.00453 0.661939 0
M  V30 3381 O 314.362 1.62452 1.60691 0
M  V30 3382 C 314.572 3.07266 -1.65495 0
M  V30 3383 C 315.92 3.81578 -1.86234 0
M  V30 3384 O 316.944 3.17083 -1.62287 0
M  V30 3385 O 315.803 4.97419 -2.26355 0
M  V30 3386 H 312.897 0.766756 -0.309862 0
M  V30 3387 H 315.443 1.13514 -1.26145 0
M  V30 3388 H 314.215 2.85494 -2.67598 0
M  V30 3389 H 313.838 3.7803 -1.23203 0
M  V30 3390 N 314.835 0.952656 1.25548 0
M  V30 3391 C 315.768 0.415525 2.24385 0
M  V30 3392 C 316.746 -0.502046 1.54655 0
M  V30 3393 O 317.93 -0.436875 1.83368 0
M  V30 3394 C 315.057 -0.401734 3.36309 0
M  V30 3395 C 314.103 0.455949 4.24056 0
M  V30 3396 S 314.936 1.88698 5.01152 0
M  V30 3397 C 316.092 1.07809 6.16545 0
M  V30 3398 H 316.325 1.25315 2.69599 0
M  V30 3399 H 313.858 0.756587 1.34592 0
M  V30 3400 H 315.816 -0.867329 4.01233 0
M  V30 3401 H 314.477 -1.21416 2.89684 0
M  V30 3402 H 313.67 -0.170776 5.03711 0
M  V30 3403 H 313.272 0.856675 3.64056 0
M  V30 3404 H 315.564 0.325816 6.76716 0
M  V30 3405 H 316.507 1.84849 6.83547 0
M  V30 3406 H 316.915 0.60909 5.61204 0
M  V30 3407 N 316.313 -1.40141 0.720998 0
M  V30 3408 C 317.538 -2.05618 0.271258 0
M  V30 3409 C 317.963 -1.53978 -1.08039 0
M  V30 3410 O 317.321 -0.677463 -1.68167 0
M  V30 3411 C 317.369 -3.59609 0.267197 0
M  V30 3412 O 316.473 -4.05526 -0.749814 0
M  V30 3413 H 315.814 -0.651904 0.126162 0
M  V30 3414 H 318.344 -1.79439 0.982997 0
M  V30 3415 H 318.354 -4.0786 0.106744 0
M  V30 3416 H 317.029 -3.96559 1.25354 0
M  V30 3417 H 315.606 -3.68722 -0.556644 0
M  V30 3418 N 317.792 -0.46758 -1.50504 0
M  V30 3419 C 319.032 0.0874114 -2.04213 0
M  V30 3420 C 319.396 1.37301 -1.34211 0
M  V30 3421 O 320.597 2.01015 -1.78456 0
M  V30 3422 C 318.868 0.270571 -3.56374 0
M  V30 3423 S 320.427 0.784623 -4.31728 0
M  V30 3424 H 317.245 0.0176153 -0.710782 0
M  V30 3425 H 319.847 -0.633915 -1.84937 0
M  V30 3426 H 318.551 -0.670942 -4.04878 0
M  V30 3427 H 318.082 1.01811 -3.79997 0
M  V30 3428 H 320.097 2.05849 -4.51487 0
M  V30 3429 N 319.27 1.56325 -0.20005 0
M  V30 3430 C 320.519 1.96895 0.437652 0
M  V30 3431 C 320.832 1.08999 1.62415 0
M  V30 3432 O 322.038 1.39372 2.32997 0
M  V30 3433 C 320.494 3.50198 0.830025 0
M  V30 3434 C 320.102 4.46765 -0.332461 0
M  V30 3435 C 321.846 3.99526 1.43453 0
M  V30 3436 C 319.753 5.91344 0.0811468 0
M  V30 3437 H 318.683 0.735209 0.167282 0
M  V30 3438 H 321.334 1.81148 -0.292853 0
M  V30 3439 H 319.716 3.61467 1.61734 0
M  V30 3440 H 320.89 4.47231 -1.11 0
M  V30 3441 H 319.205 4.07657 -0.848789 0
M  V30 3442 H 321.802 5.05025 1.75652 0
M  V30 3443 H 322.145 3.44122 2.34277 0
M  V30 3444 H 322.678 3.91393 0.71109 0
M  V30 3445 H 319.417 6.50685 -0.793033 0
M  V30 3446 H 318.937 5.94121 0.823445 0
M  V30 3447 H 320.616 6.44945 0.515252 0
M  V30 3448 N 320.748 -0.0735177 1.57428 0
M  V30 3449 C 321.695 -1.08756 2.0357 0
M  V30 3450 C 322.665 -1.38559 0.916 0
M  V30 3451 O 323.85 -1.49656 1.18354 0
M  V30 3452 C 320.99 -2.39657 2.48311 0
M  V30 3453 C 320.103 -2.16399 3.73892 0
M  V30 3454 C 319.238 -3.40852 4.07423 0
M  V30 3455 C 318.277 -3.1295 5.2605 0
M  V30 3456 N 317.414 -4.29729 5.55228 0
M  V30 3457 H 322.254 -0.687104 2.8997 0
M  V30 3458 H 319.791 -0.327709 1.43403 0
M  V30 3459 H 321.749 -3.16081 2.72303 0
M  V30 3460 H 320.379 -2.77508 1.64891 0
M  V30 3461 H 319.431 -1.30676 3.57251 0
M  V30 3462 H 320.743 -1.91788 4.60455 0
M  V30 3463 H 319.897 -4.25671 4.32306 0
M  V30 3464 H 318.636 -3.68537 3.19425 0
M  V30 3465 H 317.641 -2.26526 5.00965 0
M  V30 3466 H 318.866 -2.86589 6.15665 0
M  V30 3467 H 316.812 -4.57448 4.70188 0
M  V30 3468 H 316.729 -4.08385 6.36206 0
M  V30 3469 H 317.997 -5.1555 5.84661 0
M  V30 3470 N 322.226 -1.5378 -0.344866 0
M  V30 3471 C 323.503 -1.61589 -1.10219 0
M  V30 3472 C 323.883 -0.436316 -2.06542 0
M  V30 3473 O 323.231 0.571543 -2.21237 0
M  V30 3474 C 323.441 -2.97602 -1.82301 0
M  V30 3475 C 324.789 -3.5291 -2.36093 0
M  V30 3476 O 325.813 -2.99768 -1.924 0
M  V30 3477 O 324.672 -4.45859 -3.16026 0
M  V30 3478 H 321.766 -0.653522 -0.506792 0
M  V30 3479 H 324.312 -1.66126 -0.346465 0
M  V30 3480 H 323.084 -3.74893 -1.12121 0
M  V30 3481 H 322.707 -2.9665 -2.64735 0
M  V30 3482 N 323.704 0.605807 -1.45491 0
M  V30 3483 C 324.95 1.36679 -1.49823 0
M  V30 3484 C 325.283 1.93693 -0.140175 0
M  V30 3485 O 324.558 1.75158 0.845581 0
M  V30 3486 C 324.841 2.51337 -2.57879 0
M  V30 3487 C 324.694 1.99508 -4.03134 0
M  V30 3488 C 326.013 3.53463 -2.62205 0
M  V30 3489 H 323.132 0.495617 -0.545466 0
M  V30 3490 H 325.774 0.682732 -1.7731 0
M  V30 3491 H 323.924 3.09691 -2.34571 0
M  V30 3492 H 325.596 1.45789 -4.37656 0
M  V30 3493 H 323.839 1.30496 -4.13707 0
M  V30 3494 H 324.51 2.82169 -4.74431 0
M  V30 3495 H 326.986 3.04953 -2.83095 0
M  V30 3496 H 325.862 4.31178 -3.39672 0
M  V30 3497 H 326.123 4.09197 -1.67363 0
M  V30 3498 N 325.182 1.32811 0.848464 0
M  V30 3499 C 326.145 1.22194 1.9391 0
M  V30 3500 C 327.145 0.143404 1.60159 0
M  V30 3501 O 328.335 0.394253 1.6968 0
M  V30 3502 C 325.467 0.88067 3.29328 0
M  V30 3503 H 326.66 2.19127 2.04752 0
M  V30 3504 H 324.213 1.16731 1.0394 0
M  V30 3505 H 324.948 -0.0865776 3.24184 0
M  V30 3506 H 324.733 1.66052 3.55203 0
M  V30 3507 H 326.223 0.830871 4.09251 0
M  V30 3508 N 326.66 -1.06551 1.16123 0
M  V30 3509 C 327.909 -1.78687 0.935622 0
M  V30 3510 C 328.222 -1.88056 -0.538001 0
M  V30 3511 O 329.428 -2.56794 -0.88143 0
M  V30 3512 C 327.884 -3.21143 1.62466 0
M  V30 3513 C 327.492 -3.19949 3.13587 0
M  V30 3514 C 329.236 -3.9783 1.48092 0
M  V30 3515 C 327.143 -4.57108 3.75241 0
M  V30 3516 H 326.073 -0.669712 0.346412 0
M  V30 3517 H 328.724 -1.19534 1.39226 0
M  V30 3518 H 327.106 -3.80539 1.09572 0
M  V30 3519 H 328.28 -2.70151 3.73303 0
M  V30 3520 H 326.595 -2.5676 3.27816 0
M  V30 3521 H 329.192 -4.99217 1.91538 0
M  V30 3522 H 329.535 -4.14078 0.429507 0
M  V30 3523 H 330.068 -3.4495 1.98127 0
M  V30 3524 H 326.807 -4.46065 4.80319 0
M  V30 3525 H 326.327 -5.07111 3.20309 0
M  V30 3526 H 328.006 -5.26069 3.76644 0
M  V30 3527 N 328.138 -0.959301 -1.25041 0
M  V30 3528 C 329.085 -0.482057 -2.2571 0
M  V30 3529 C 330.055 0.467939 -1.59372 0
M  V30 3530 O 331.24 0.380159 -1.86974 0
M  V30 3531 C 328.38 0.229623 -3.44335 0
M  V30 3532 C 327.493 -0.758156 -4.25295 0
M  V30 3533 C 326.628 -0.0234403 -5.31195 0
M  V30 3534 C 325.667 -1.00184 -6.03846 0
M  V30 3535 N 324.804 -0.29769 -7.01469 0
M  V30 3536 H 329.644 -1.34538 -2.65901 0
M  V30 3537 H 327.181 -0.674592 -1.3072 0
M  V30 3538 H 329.139 0.658856 -4.11965 0
M  V30 3539 H 327.769 1.05696 -3.05005 0
M  V30 3540 H 326.821 -1.30586 -3.57284 0
M  V30 3541 H 328.133 -1.50458 -4.75567 0
M  V30 3542 H 327.287 0.464201 -6.04922 0
M  V30 3543 H 326.026 0.755741 -4.81809 0
M  V30 3544 H 325.031 -1.50044 -5.2893 0
M  V30 3545 H 326.256 -1.78133 -6.55321 0
M  V30 3546 H 324.202 0.462668 -6.54366 0
M  V30 3547 H 324.119 -0.983128 -7.4958 0
M  V30 3548 H 325.387 0.16826 -7.79318 0
M  V30 3549 N 329.616 1.39756 -0.72842 0
M  V30 3550 C 330.526 2.34444 -0.0855374 0
M  V30 3551 C 331.542 1.57976 0.729356 0
M  V30 3552 O 332.718 1.90301 0.659346 0
M  V30 3553 C 329.783 3.36965 0.815798 0
M  V30 3554 C 328.844 4.29299 -0.0105996 0
M  V30 3555 C 328.077 5.26923 0.84781 0
M  V30 3556 O 328.3 5.30859 2.08673 0
M  V30 3557 O 327.234 6.01249 0.279969 0
M  V30 3558 H 331.06 2.91065 -0.866892 0
M  V30 3559 H 328.645 1.4117 -0.48902 0
M  V30 3560 H 330.527 3.99804 1.33171 0
M  V30 3561 H 329.202 2.82739 1.57608 0
M  V30 3562 H 328.109 3.69703 -0.571877 0
M  V30 3563 H 329.442 4.86712 -0.73295 0
M  V30 3564 N 331.094 0.475555 1.50254 0
M  V30 3565 C 332.505 0.0215174 1.86688 0
M  V30 3566 C 332.856 -1.38467 1.39001 0
M  V30 3567 O 331.981 -2.02732 0.756894 0
M  V30 3568 C 332.576 0.0322715 3.38785 0
M  V30 3569 C 331.135 -0.366314 3.74613 0
M  V30 3570 C 330.282 0.415832 2.74164 0
M  V30 3571 H 333.233 0.689612 1.42934 0
M  V30 3572 H 333.254 -0.76889 3.7265 0
M  V30 3573 H 332.766 1.05584 3.73462 0
M  V30 3574 H 330.867 -1.39406 3.45538 0
M  V30 3575 H 330.98 -0.064555 4.79057 0
M  V30 3576 H 329.344 -0.131048 2.54363 0
M  V30 3577 H 330.127 1.43899 3.11686 0
M  V30 3578 N 332.573 -1.56217 0.208337 0
M  V30 3579 C 333.503 -2.22694 -0.702116 0
M  V30 3580 C 334.484 -1.19432 -1.2112 0
M  V30 3581 O 335.669 -1.47978 -1.25762 0
M  V30 3582 C 332.799 -2.8966 -1.9161 0
M  V30 3583 C 331.753 -3.9928 -1.5414 0
M  V30 3584 C 331.079 -4.53476 -2.83308 0
M  V30 3585 C 332.379 -5.17012 -0.741339 0
M  V30 3586 H 334.073 -2.99034 -0.147898 0
M  V30 3587 H 331.619 -1.43831 -0.0696951 0
M  V30 3588 H 333.572 -3.34852 -2.55836 0
M  V30 3589 H 332.296 -2.10746 -2.49507 0
M  V30 3590 H 330.955 -3.54799 -0.922668 0
M  V30 3591 H 330.603 -3.71308 -3.39322 0
M  V30 3592 H 330.303 -5.27451 -2.58976 0
M  V30 3593 H 331.827 -5.01378 -3.485 0
M  V30 3594 H 333.241 -5.58667 -1.28699 0
M  V30 3595 H 331.638 -5.97137 -0.595627 0
M  V30 3596 H 332.708 -4.8423 0.254851 0
M  V30 3597 N 334.051 0.0651679 -1.57465 0
M  V30 3598 C 335.297 0.764193 -1.87851 0
M  V30 3599 C 335.63 1.76889 -0.801495 0
M  V30 3600 O 334.905 1.93594 0.187528 0
M  V30 3601 C 335.188 1.46625 -3.28897 0
M  V30 3602 C 335.041 0.477515 -4.47258 0
M  V30 3603 C 336.36 2.4095 -3.68281 0
M  V30 3604 H 333.479 0.276351 -0.683227 0
M  V30 3605 H 336.121 0.0272868 -1.8998 0
M  V30 3606 H 334.271 2.09438 -3.27212 0
M  V30 3607 H 335.943 -0.145922 -4.61069 0
M  V30 3608 H 334.186 -0.206576 -4.33308 0
M  V30 3609 H 334.857 1.0065 -5.42746 0
M  V30 3610 H 337.333 1.88209 -3.71102 0
M  V30 3611 H 336.209 2.87072 -4.67847 0
M  V30 3612 H 336.47 3.26049 -2.98571 0
M  V30 3613 N 335.529 1.53961 0.336706 0
M  V30 3614 C 336.806 1.62171 1.09361 0
M  V30 3615 C 337.186 0.447263 2.06307 0
M  V30 3616 O 336.534 -0.559802 2.21537 0
M  V30 3617 C 336.744 2.98565 1.80721 0
M  V30 3618 C 338.092 3.54157 2.34218 0
M  V30 3619 O 339.116 3.00784 1.90807 0
M  V30 3620 O 337.975 4.47528 3.13657 0
M  V30 3621 H 335.069 0.6562 0.503319 0
M  V30 3622 H 337.615 1.66307 0.33765 0
M  V30 3623 H 336.387 3.75482 1.10132 0
M  V30 3624 H 336.01 2.9805 2.63158 0
M  V30 3625 N 337.007 -0.598083 1.45811 0
M  V30 3626 C 338.253 -1.35882 1.50545 0
M  V30 3627 C 338.586 -1.93616 0.150445 0
M  V30 3628 O 337.861 -1.75604 -0.83628 0
M  V30 3629 C 338.144 -2.49966 2.59208 0
M  V30 3630 C 337.997 -1.97367 4.04186 0
M  V30 3631 C 339.316 -3.52068 2.64076 0
M  V30 3632 H 336.435 -0.492717 0.548087 0
M  V30 3633 H 339.077 -0.673319 1.77669 0
M  V30 3634 H 337.227 -3.08443 2.3621 0
M  V30 3635 H 338.899 -1.43466 4.38423 0
M  V30 3636 H 337.142 -1.283 4.14393 0
M  V30 3637 H 337.813 -2.79649 4.75921 0
M  V30 3638 H 340.289 -3.03448 2.84708 0
M  V30 3639 H 339.165 -4.2937 3.41954 0
M  V30 3640 H 339.426 -4.08304 1.69531 0
M  V30 3641 N 338.485 -1.33259 -0.841409 0
M  V30 3642 C 339.731 -1.24757 -1.59886 0
M  V30 3643 C 340.064 0.186913 -1.93298 0
M  V30 3644 O 339.339 1.12757 -1.5848 0
M  V30 3645 C 339.622 -2.12036 -2.91055 0
M  V30 3646 C 339.475 -3.63929 -2.6434 0
M  V30 3647 C 340.794 -1.9916 -3.92458 0
M  V30 3648 H 337.913 -0.454542 -0.580138 0
M  V30 3649 H 340.555 -1.63335 -0.970647 0
M  V30 3650 H 338.705 -1.79265 -3.44669 0
M  V30 3651 H 340.377 -4.06978 -2.17178 0
M  V30 3652 H 338.62 -3.85935 -1.98082 0
M  V30 3653 H 339.291 -4.20341 -3.57796 0
M  V30 3654 H 341.767 -2.27895 -3.48143 0
M  V30 3655 H 340.643 -2.62484 -4.82072 0
M  V30 3656 H 340.904 -0.963082 -4.31482 0
M  V30 3657 N 339.963 1.05934 -1.16686 0
M  V30 3658 C 341.24 1.75643 -0.860747 0
M  V30 3659 C 341.62 2.01144 0.640641 0
M  V30 3660 O 340.968 1.64147 1.58959 0
M  V30 3661 C 341.178 3.05493 -1.68745 0
M  V30 3662 C 342.526 3.79581 -1.90271 0
M  V30 3663 O 343.55 3.15344 -1.65641 0
M  V30 3664 O 342.409 4.9499 -2.31618 0
M  V30 3665 H 339.503 0.763426 -0.317977 0
M  V30 3666 H 342.049 1.1217 -1.27342 0
M  V30 3667 H 340.821 2.8264 -2.70611 0
M  V30 3668 H 340.444 3.76702 -1.27206 0
M  V30 3669 N 341.441 0.965919 1.2453 0
M  V30 3670 C 342.852 0.665929 1.7442 0
M  V30 3671 C 343.203 -0.818407 1.78316 0
M  V30 3672 O 342.328 -1.64037 1.41141 0
M  V30 3673 C 342.923 1.20211 3.16757 0
M  V30 3674 C 341.482 0.952059 3.6416 0
M  V30 3675 C 340.629 1.33848 2.42858 0
M  V30 3676 H 343.58 1.14144 1.10258 0
M  V30 3677 H 343.601 0.567544 3.76244 0
M  V30 3678 H 343.113 2.28244 3.13889 0
M  V30 3679 H 341.214 -0.112821 3.72429 0
M  V30 3680 H 341.327 1.59645 4.51719 0
M  V30 3681 H 339.691 0.756864 2.43195 0
M  V30 3682 H 340.474 2.42827 2.42673 0
M  V30 3683 N 342.919 -1.39368 0.735821 0
M  V30 3684 C 343.866 -2.30599 0.0963825 0
M  V30 3685 C 344.836 -1.49257 -0.728794 0
M  V30 3686 O 346.021 -1.77941 -0.688588 0
M  V30 3687 C 343.161 -3.35596 -0.804305 0
M  V30 3688 C 342.274 -4.31987 0.0335761 0
M  V30 3689 C 341.409 -5.24053 -0.868461 0
M  V30 3690 C 340.448 -6.12095 -0.0258776 0
M  V30 3691 N 339.585 -6.96514 -0.883893 0
M  V30 3692 H 344.425 -2.8471 0.880002 0
M  V30 3693 H 341.962 -1.40188 0.445619 0
M  V30 3694 H 343.92 -3.95062 -1.34096 0
M  V30 3695 H 342.55 -2.82938 -1.55389 0
M  V30 3696 H 341.602 -3.74133 0.68766 0
M  V30 3697 H 342.914 -4.94074 0.685036 0
M  V30 3698 H 342.068 -5.88549 -1.47293 0
M  V30 3699 H 340.807 -4.62289 -1.5537 0
M  V30 3700 H 339.812 -5.4661 0.591386 0
M  V30 3701 H 341.037 -6.75923 0.656156 0
M  V30 3702 H 338.983 -6.37318 -1.55441 0
M  V30 3703 H 338.9 -7.55448 -0.288931 0
M  V30 3704 H 340.168 -7.65439 -1.4739 0
M  V30 3705 N 344.397 -0.483516 -1.5 0
M  V30 3706 C 345.329 0.340634 -2.26655 0
M  V30 3707 C 346.342 0.946152 -1.32483 0
M  V30 3708 O 347.531 0.832453 -1.579 0
M  V30 3709 C 344.631 1.4929 -3.04246 0
M  V30 3710 C 343.804 0.997903 -4.25865 0
M  V30 3711 C 342.863 2.02569 -4.85646 0
M  V30 3712 O 341.889 1.60128 -5.46212 0
M  V30 3713 N 343.091 3.3548 -4.73744 0
M  V30 3714 H 345.856 -0.316577 -2.98023 0
M  V30 3715 H 343.417 -0.315024 -1.58806 0
M  V30 3716 H 345.409 2.17766 -3.41116 0
M  V30 3717 H 343.979 2.05458 -2.35597 0
M  V30 3718 H 343.199 0.138617 -3.93956 0
M  V30 3719 H 344.487 0.645305 -5.04691 0
M  V30 3720 H 343.885 3.72661 -4.25605 0
M  V30 3721 H 342.442 3.99718 -5.14848 0
M  V30 3722 N 345.875 1.56104 -0.216619 0
M  V30 3723 C 346.805 2.23063 0.690296 0
M  V30 3724 C 347.786 1.20072 1.20485 0
M  V30 3725 O 348.971 1.48643 1.24976 0
M  V30 3726 C 346.101 2.90672 1.90072 0
M  V30 3727 C 345.055 4.00092 1.5202 0
M  V30 3728 C 344.381 4.54972 2.80899 0
M  V30 3729 C 345.681 5.17398 0.71391 0
M  V30 3730 H 347.375 2.99109 0.132038 0
M  V30 3731 H 344.921 1.43866 0.0620664 0
M  V30 3732 H 346.874 3.36204 2.54057 0
M  V30 3733 H 345.598 2.12066 2.48386 0
M  V30 3734 H 344.257 3.55283 0.903839 0
M  V30 3735 H 343.905 3.73102 3.37348 0
M  V30 3736 H 343.605 5.28817 2.56176 0
M  V30 3737 H 345.129 5.0322 3.45836 0
M  V30 3738 H 346.543 5.59342 1.25735 0
M  V30 3739 H 344.94 5.97444 0.563951 0
M  V30 3740 H 346.01 4.84088 -0.280527 0
M  V30 3741 N 347.353 -0.0568162 1.57498 0
M  V30 3742 C 348.599 -0.75422 1.88253 0
M  V30 3743 C 348.932 -1.76461 0.810865 0
M  V30 3744 O 348.207 -1.93691 -0.177259 0
M  V30 3745 C 348.49 -1.44878 3.2967 0
M  V30 3746 C 348.343 -0.453789 4.47505 0
M  V30 3747 C 349.662 -2.38994 3.69554 0
M  V30 3748 H 346.781 -0.272724 0.684683 0
M  V30 3749 H 349.423 -0.0172113 1.89992 0
M  V30 3750 H 347.573 -2.077 3.28318 0
M  V30 3751 H 349.245 0.170371 4.60985 0
M  V30 3752 H 347.488 0.229552 4.33192 0
M  V30 3753 H 348.159 -0.977699 5.43273 0
M  V30 3754 H 350.635 -1.86239 3.72095 0
M  V30 3755 H 349.511 -2.84587 4.69363 0
M  V30 3756 H 349.772 -3.24461 3.00296 0
M  V30 3757 N 348.832 -1.54138 -0.328536 0
M  V30 3758 C 350.06 -1.76062 -1.08673 0
M  V30 3759 C 350.475 -0.506852 -1.81869 0
M  V30 3760 O 349.832 0.522223 -1.74869 0
M  V30 3761 C 349.883 -2.95054 -2.08866 0
M  V30 3762 O 349.604 -4.15583 -1.38644 0
M  V30 3763 C 351.105 -3.2915 -2.96943 0
M  V30 3764 H 348.325 -0.587889 -0.323461 0
M  V30 3765 H 350.869 -2.0101 -0.376175 0
M  V30 3766 H 349.024 -2.72394 -2.75464 0
M  V30 3767 H 349.438 -4.82481 -2.05699 0
M  V30 3768 H 350.912 -4.15723 -3.63151 0
M  V30 3769 H 351.389 -2.461 -3.63774 0
M  V30 3770 H 351.995 -3.53871 -2.35914 0
M  V30 3771 N 350.31 0.590341 -1.46126 0
M  V30 3772 C 351.258 1.72105 -1.5647 0
M  V30 3773 C 352.252 1.63756 -0.433612 0
M  V30 3774 O 353.458 1.69342 -0.610194 0
M  V30 3775 H 349.833 0.568889 -0.491802 0
M  V30 3776 H 351.804 1.6051 -2.51553 0
M  V30 3777 C 350.553 3.10493 -1.56491 0
M  V30 3778 H 349.876 3.17583 -2.4286 0
M  V30 3779 H 351.316 3.8939 -1.67785 0
M  V30 3780 C 349.775 3.3563 -0.292231 0
M  V30 3781 O 350.305 3.96875 0.620739 0
M  V30 3782 N 348.511 2.90026 -0.182523 0
M  V30 3783 H 348.058 2.40367 -0.926356 0
M  V30 3784 H 348.016 3.07218 0.668152 0
M  V30 3785 N 351.788 1.33704 0.83433 0
M  V30 3786 C 352.751 1.24244 1.92603 0
M  V30 3787 C 353.751 0.160383 1.59998 0
M  V30 3788 O 354.941 0.412228 1.69252 0
M  V30 3789 C 352.073 0.91555 3.28376 0
M  V30 3790 H 353.266 2.21287 2.02416 0
M  V30 3791 H 350.819 1.17827 1.02696 0
M  V30 3792 H 351.554 -0.0521886 3.24258 0
M  V30 3793 H 351.339 1.69811 3.53422 0
M  V30 3794 H 352.829 0.874231 4.08347 0
M  V30 3795 N 353.266 -1.05314 1.17247 0
M  V30 3796 C 354.506 -1.79869 0.970898 0
M  V30 3797 C 354.87 -1.85594 -0.491808 0
M  V30 3798 O 356.071 -2.56229 -0.812409 0
M  V30 3799 C 354.342 -3.19937 1.59295 0
M  V30 3800 S 355.901 -4.10986 1.53741 0
M  V30 3801 H 352.719 -0.61949 0.348931 0
M  V30 3802 H 355.321 -1.26368 1.49169 0
M  V30 3803 H 354.025 -3.13372 2.65003 0
M  V30 3804 H 353.556 -3.78515 1.07191 0
M  V30 3805 H 355.571 -4.93203 0.544537 0
M  V30 3806 N 354.744 -0.972509 -1.24016 0
M  V30 3807 C 355.674 -0.525548 -2.27509 0
M  V30 3808 C 356.655 0.437262 -1.64384 0
M  V30 3809 O 357.84 0.332343 -1.91335 0
M  V30 3810 C 354.97 0.180448 -3.46831 0
M  V30 3811 C 353.924 -0.698859 -4.22256 0
M  V30 3812 C 353.25 0.138903 -5.3452 0
M  V30 3813 C 354.55 -1.98582 -4.83076 0
M  V30 3814 H 356.244 -1.39058 -2.65148 0
M  V30 3815 H 353.79 -0.67009 -1.27459 0
M  V30 3816 H 355.743 0.504387 -4.18371 0
M  V30 3817 H 354.467 1.07987 -3.08231 0
M  V30 3818 H 353.126 -1.00614 -3.52523 0
M  V30 3819 H 352.774 1.03862 -4.9216 0
M  V30 3820 H 352.474 -0.446259 -5.85903 0
M  V30 3821 H 353.998 0.457404 -6.08884 0
M  V30 3822 H 355.412 -1.72715 -5.46665 0
M  V30 3823 H 353.809 -2.5181 -5.44713 0
M  V30 3824 H 354.879 -2.67769 -4.04262 0
M  V30 3825 N 356.222 1.38976 -0.743202 0
M  V30 3826 C 357.471 1.99581 -0.291592 0
M  V30 3827 C 357.784 1.59656 1.13001 0
M  V30 3828 O 358.99 2.13157 1.68156 0
M  V30 3829 C 357.446 3.56813 -0.470391 0
M  V30 3830 C 357.054 4.05695 -1.90041 0
M  V30 3831 C 358.798 4.24423 -0.0809709 0
M  V30 3832 C 356.705 5.5553 -2.02832 0
M  V30 3833 H 355.635 0.746615 -0.105272 0
M  V30 3834 H 358.286 1.58872 -0.918258 0
M  V30 3835 H 356.668 3.95359 0.225299 0
M  V30 3836 H 357.842 3.78464 -2.62872 0
M  V30 3837 H 356.157 3.50775 -2.24379 0
M  V30 3838 H 358.754 5.34474 -0.155445 0
M  V30 3839 H 359.097 4.04962 0.96497 0
M  V30 3840 H 359.63 3.9108 -0.728124 0
M  V30 3841 H 356.369 5.79881 -3.05643 0
M  V30 3842 H 355.889 5.84537 -1.34448 0
M  V30 3843 H 357.568 6.21069 -1.81335 0
M  V30 3844 N 357.7 0.491464 1.49741 0
M  V30 3845 C 358.647 -0.292027 2.28945 0
M  V30 3846 C 359.617 -0.968973 1.34908 0
M  V30 3847 O 360.802 -0.97748 1.6386 0
M  V30 3848 C 357.942 -1.35617 3.17336 0
M  V30 3849 C 357.055 -0.691957 4.26422 0
M  V30 3850 C 356.19 -1.73572 5.02042 0
M  V30 3851 C 355.229 -1.05286 6.02977 0
M  V30 3852 N 354.366 -2.0404 6.71798 0
M  V30 3853 H 359.206 0.389654 2.95442 0
M  V30 3854 H 356.743 0.204003 1.45679 0
M  V30 3855 H 358.701 -1.98502 3.66951 0
M  V30 3856 H 357.331 -2.00674 2.52844 0
M  V30 3857 H 356.383 0.0499523 3.80367 0
M  V30 3858 H 357.695 -0.153946 4.98562 0
M  V30 3859 H 356.849 -2.43987 5.55478 0
M  V30 3860 H 355.588 -2.30757 4.29654 0
M  V30 3861 H 354.593 -0.334446 5.48782 0
M  V30 3862 H 355.818 -0.487636 6.77347 0
M  V30 3863 H 353.764 -2.60205 6.02187 0
M  V30 3864 H 353.681 -1.55279 7.39881 0
M  V30 3865 H 354.949 -2.73772 7.29842 0
M  V30 3866 N 359.178 -1.55987 0.224894 0
M  V30 3867 C 360.088 -2.24066 -0.69511 0
M  V30 3868 C 361.104 -1.24939 -1.21104 0
M  V30 3869 O 362.28 -1.5776 -1.25195 0
M  V30 3870 C 359.345 -2.90983 -1.88493 0
M  V30 3871 C 358.406 -4.05462 -1.41064 0
M  V30 3872 C 357.639 -4.69179 -2.54375 0
M  V30 3873 O 357.862 -4.31895 -3.72589 0
M  V30 3874 O 356.796 -5.58108 -2.25386 0
M  V30 3875 H 360.622 -3.03353 -0.145149 0
M  V30 3876 H 358.207 -1.49399 -0.00569476 0
M  V30 3877 H 360.089 -3.33209 -2.57972 0
M  V30 3878 H 358.764 -2.14653 -2.42293 0
M  V30 3879 H 357.671 -3.67798 -0.683774 0
M  V30 3880 H 359.004 -4.83545 -0.918985 0
M  V30 3881 N 360.656 0.0484629 -1.57525 0
M  V30 3882 C 361.902 0.744226 -1.88651 0
M  V30 3883 C 362.235 1.76029 -0.820212 0
M  V30 3884 O 361.51 1.93782 0.166985 0
M  V30 3885 C 361.793 1.43128 -3.30434 0
M  V30 3886 C 361.646 0.43005 -4.47739 0
M  V30 3887 C 362.965 2.37031 -3.70816 0
M  V30 3888 H 360.084 0.269089 -0.68612 0
M  V30 3889 H 362.726 0.00713532 -1.89999 0
M  V30 3890 H 360.876 2.05956 -3.29415 0
M  V30 3891 H 362.548 -0.194816 -4.60888 0
M  V30 3892 H 360.791 -0.252522 -4.33064 0
M  V30 3893 H 361.462 0.948874 -5.43783 0
M  V30 3894 H 363.938 1.84263 -3.73077 0
M  V30 3895 H 362.814 2.82094 -4.70865 0
M  V30 3896 H 363.075 3.22864 -3.02012 0
M  V30 3897 N 362.134 1.5431 0.320358 0
M  V30 3898 C 363.411 1.63322 1.07635 0
M  V30 3899 C 363.791 0.46912 2.05821 0
M  V30 3900 O 363.139 -0.536274 2.22118 0
M  V30 3901 C 363.349 3.00465 1.77544 0
M  V30 3902 C 364.697 3.56621 2.30449 0
M  V30 3903 O 365.721 3.02791 1.87606 0
M  V30 3904 O 364.58 4.5083 3.08892 0
M  V30 3905 H 361.674 0.661502 0.496331 0
M  V30 3906 H 364.22 1.66656 0.319992 0
M  V30 3907 H 362.992 3.76629 1.06143 0
M  V30 3908 H 362.615 3.00824 2.59982 0
M  V30 3909 N 363.613 -0.582584 1.46437 0
M  V30 3910 C 364.862 -1.337 1.5102 0
M  V30 3911 C 365.175 -1.94891 0.166359 0
M  V30 3912 O 366.381 -2.71351 0.0899954 0
M  V30 3913 C 364.837 -2.42315 2.66104 0
M  V30 3914 C 364.445 -1.87427 4.06909 0
M  V30 3915 C 366.189 -3.19099 2.79958 0
M  V30 3916 C 364.096 -2.93672 5.13333 0
M  V30 3917 H 363.026 -0.502619 0.562041 0
M  V30 3918 H 365.677 -0.621701 1.72647 0
M  V30 3919 H 364.059 -3.16645 2.37807 0
M  V30 3920 H 365.233 -1.19639 4.44998 0
M  V30 3921 H 363.548 -1.2331 3.97723 0
M  V30 3922 H 366.145 -3.9839 3.56636 0
M  V30 3923 H 366.488 -3.71695 1.87479 0
M  V30 3924 H 367.021 -2.51875 3.07902 0
M  V30 3925 H 363.76 -2.45962 6.07604 0
M  V30 3926 H 363.28 -3.59948 4.79789 0
M  V30 3927 H 364.959 -3.5762 5.39182 0
M  V30 3928 N 365.091 -1.34144 -0.827227 0
M  V30 3929 C 366.321 -1.29138 -1.61267 0
M  V30 3930 C 366.729 0.137597 -1.88699 0
M  V30 3931 O 366.072 1.09379 -1.47587 0
M  V30 3932 C 366.134 -2.0097 -2.9808 0
M  V30 3933 C 365.798 -3.50242 -2.93563 0
M  V30 3934 C 366.795 -4.4523 -2.68452 0
M  V30 3935 C 364.48 -3.92592 -3.13331 0
M  V30 3936 C 366.474 -5.80542 -2.63154 0
M  V30 3937 C 364.161 -5.28005 -3.07658 0
M  V30 3938 C 365.159 -6.21792 -2.82602 0
M  V30 3939 O 364.847 -7.54723 -2.76853 0
M  V30 3940 H 364.579 -0.445851 -0.508127 0
M  V30 3941 H 367.133 -1.77263 -1.03763 0
M  V30 3942 H 365.363 -1.47451 -3.57484 0
M  V30 3943 H 367.052 -1.89309 -3.5905 0
M  V30 3944 H 367.818 -4.13832 -2.52919 0
M  V30 3945 H 363.697 -3.19994 -3.31851 0
M  V30 3946 H 367.241 -6.53717 -2.43516 0
M  V30 3947 H 363.138 -5.59023 -3.22743 0
M  V30 3948 H 363.906 -7.64409 -2.92611 0
M  V30 3949 N 366.569 1.04691 -1.17803 0
M  V30 3950 C 367.797 1.81446 -0.99423 0
M  V30 3951 C 368.212 1.83174 0.457459 0
M  V30 3952 O 367.569 1.26265 1.31771 0
M  V30 3953 C 367.62 3.27334 -1.5341 0
M  V30 3954 O 367.341 3.25798 -2.92895 0
M  V30 3955 C 368.842 4.20759 -1.39559 0
M  V30 3956 H 366.062 0.571599 -0.351447 0
M  V30 3957 H 368.606 1.31982 -1.56208 0
M  V30 3958 H 366.761 3.74052 -1.00815 0
M  V30 3959 H 367.175 4.17144 -3.17949 0
M  V30 3960 H 368.649 5.21084 -1.82141 0
M  V30 3961 H 369.126 4.37856 -0.343394 0
M  V30 3962 H 369.732 3.79901 -1.91195 0
M  V30 3963 N 368.047 0.979072 1.23499 0
M  V30 3964 C 369.293 0.648178 1.92163 0
M  V30 3965 C 369.626 -0.816049 1.76222 0
M  V30 3966 O 368.901 -1.58849 1.12237 0
M  V30 3967 C 369.184 1.03773 3.44824 0
M  V30 3968 C 369.037 2.55948 3.69879 0
M  V30 3969 C 370.356 0.580653 4.36253 0
M  V30 3970 H 367.475 0.236952 0.69787 0
M  V30 3971 H 370.117 1.22012 1.45647 0
M  V30 3972 H 368.267 0.551058 3.84572 0
M  V30 3973 H 369.939 3.12179 3.3962 0
M  V30 3974 H 368.182 2.98641 3.14636 0
M  V30 3975 H 368.853 2.78255 4.76737 0
M  V30 3976 H 371.329 0.998465 4.03943 0
M  V30 3977 H 370.205 0.881663 5.41773 0
M  V30 3978 H 370.466 -0.519052 4.39042 0
M  V30 3979 N 369.525 -1.3858 0.750561 0
M  V30 3980 C 370.472 -2.30483 0.120835 0
M  V30 3981 C 371.442 -1.50022 -0.712923 0
M  V30 3982 O 372.627 -1.78662 -0.669676 0
M  V30 3983 C 369.767 -3.36431 -0.768666 0
M  V30 3984 C 368.88 -4.31927 0.0793922 0
M  V30 3985 C 368.015 -5.24944 -0.81283 0
M  V30 3986 C 367.054 -6.12088 0.0390447 0
M  V30 3987 N 366.191 -6.97412 -0.809969 0
M  V30 3988 H 371.031 -2.83761 0.91015 0
M  V30 3989 H 368.568 -1.39707 0.460463 0
M  V30 3990 H 370.526 -3.96462 -1.29898 0
M  V30 3991 H 369.156 -2.8457 -1.5238 0
M  V30 3992 H 368.208 -3.73382 0.727303 0
M  V30 3993 H 369.52 -4.93319 0.737401 0
M  V30 3994 H 368.674 -5.90078 -1.41042 0
M  V30 3995 H 367.413 -4.63911 -1.50458 0
M  V30 3996 H 366.418 -5.45952 0.649328 0
M  V30 3997 H 367.643 -6.75189 0.727809 0
M  V30 3998 H 365.589 -6.38931 -1.48672 0
M  V30 3999 H 365.506 -7.55712 -0.208789 0
M  V30 4000 H 366.774 -7.66959 -1.39263 0
M  V30 4001 N 371.003 -0.499398 -1.49478 0
M  V30 4002 C 372.249 0.0457576 -2.02748 0
M  V30 4003 C 372.582 1.36793 -1.37846 0
M  V30 4004 O 371.857 1.87596 -0.513601 0
M  V30 4005 C 372.14 0.199986 -3.59544 0
M  V30 4006 C 371.993 -1.1452 -4.34977 0
M  V30 4007 C 373.312 0.94137 -4.29914 0
M  V30 4008 H 370.431 0.0151552 -0.736844 0
M  V30 4009 H 373.073 -0.650498 -1.78518 0
M  V30 4010 H 371.223 0.793007 -3.8032 0
M  V30 4011 H 372.895 -1.77697 -4.25701 0
M  V30 4012 H 371.138 -1.73488 -3.97598 0
M  V30 4013 H 371.809 -0.990607 -5.43039 0
M  V30 4014 H 374.285 0.43844 -4.13784 0
M  V30 4015 H 373.161 1.01812 -5.39375 0
M  V30 4016 H 373.422 1.98471 -3.95046 0
M  V30 4017 N 372.481 1.55866 -0.233164 0
M  V30 4018 C 373.391 2.24431 0.683217 0
M  V30 4019 C 374.407 1.2558 1.2044 0
M  V30 4020 O 375.583 1.58422 1.24356 0
M  V30 4021 C 372.648 2.91979 1.86947 0
M  V30 4022 C 371.709 4.06204 1.38912 0
M  V30 4023 C 370.942 4.70522 2.51883 0
M  V30 4024 O 371.165 4.33865 3.70293 0
M  V30 4025 O 370.099 5.59296 2.22423 0
M  V30 4026 H 373.925 3.03426 0.129059 0
M  V30 4027 H 371.51 1.494 -0.0022283 0
M  V30 4028 H 373.392 3.34573 2.56201 0
M  V30 4029 H 372.067 2.15935 2.41151 0
M  V30 4030 H 370.974 3.68155 0.664259 0
M  V30 4031 H 372.307 4.84025 0.893328 0
M  V30 4032 N 373.959 -0.0401083 1.57549 0
M  V30 4033 C 375.236 -0.767917 1.79896 0
M  V30 4034 C 375.616 -1.9416 0.82856 0
M  V30 4035 O 374.964 -2.2812 -0.131671 0
M  V30 4036 C 375.174 -1.2113 3.27305 0
M  V30 4037 C 376.522 -1.63175 3.91994 0
M  V30 4038 O 377.546 -1.30616 3.31388 0
M  V30 4039 O 376.405 -2.23565 4.98679 0
M  V30 4040 H 373.499 -0.370441 0.739393 0
M  V30 4041 H 376.045 -0.017737 1.69691 0
M  V30 4042 H 374.817 -0.372937 3.89519 0
M  V30 4043 H 374.44 -2.02183 3.42356 0
M  V30 4044 N 375.437 -1.54477 -0.31217 0
M  V30 4045 C 376.367 -1.87652 -1.38957 0
M  V30 4046 C 377.348 -0.734358 -1.53431 0
M  V30 4047 O 378.533 -0.98911 -1.67123 0
M  V30 4048 C 375.663 -2.11396 -2.75552 0
M  V30 4049 C 374.617 -3.27243 -2.75855 0
M  V30 4050 C 373.943 -3.36382 -4.15633 0
M  V30 4051 C 375.243 -4.64622 -2.38587 0
M  V30 4052 H 376.937 -2.77887 -1.11442 0
M  V30 4053 H 374.483 -1.33707 -0.534655 0
M  V30 4054 H 376.436 -2.33189 -3.51 0
M  V30 4055 H 375.16 -1.17921 -3.04569 0
M  V30 4056 H 373.819 -3.05356 -2.02863 0
M  V30 4057 H 373.467 -2.40445 -4.41809 0
M  V30 4058 H 373.167 -4.14249 -4.1674 0
M  V30 4059 H 374.691 -3.60422 -4.92877 0
M  V30 4060 H 376.105 -4.86219 -3.03749 0
M  V30 4061 H 374.502 -5.45121 -2.50925 0
M  V30 4062 H 375.572 -4.66097 -1.33723 0
M  V30 4063 N 376.915 0.57481 -1.46744 0
M  V30 4064 C 378.143 1.35856 -1.56047 0
M  V30 4065 C 378.558 1.87691 -0.204365 0
M  V30 4066 O 377.915 1.64049 0.79963 0
M  V30 4067 C 377.966 2.54066 -2.57163 0
M  V30 4068 O 377.687 2.04377 -3.87507 0
M  V30 4069 C 379.188 3.46514 -2.76483 0
M  V30 4070 H 376.408 0.414754 -0.527466 0
M  V30 4071 H 378.952 0.698035 -1.92218 0
M  V30 4072 H 377.107 3.16092 -2.23974 0
M  V30 4073 H 377.521 2.81419 -4.4261 0
M  V30 4074 H 378.995 4.25919 -3.51137 0
M  V30 4075 H 379.472 3.98951 -1.83671 0
M  V30 4076 H 380.078 2.90318 -3.10799 0
M  V30 4077 N 378.394 1.34581 0.820102 0
M  V30 4078 C 379.641 1.27096 1.57648 0
M  V30 4079 C 379.969 -0.158317 1.93855 0
M  V30 4080 O 379.224 -1.12028 1.60463 0
M  V30 4081 C 379.523 2.10997 2.8847 0
M  V30 4082 C 379.189 3.59966 2.71543 0
M  V30 4083 C 377.851 4.00575 2.66634 0
M  V30 4084 C 380.203 4.54548 2.55021 0
M  V30 4085 C 377.531 5.33953 2.43128 0
M  V30 4086 C 379.883 5.88109 2.33047 0
M  V30 4087 C 378.547 6.27878 2.26552 0
M  V30 4088 H 377.817 0.465078 0.576874 0
M  V30 4089 H 380.464 1.6635 0.948671 0
M  V30 4090 H 378.769 1.6458 3.55557 0
M  V30 4091 H 380.466 2.0255 3.46084 0
M  V30 4092 H 377.056 3.27733 2.76205 0
M  V30 4093 H 381.24 4.24069 2.57835 0
M  V30 4094 H 376.496 5.63781 2.3656 0
M  V30 4095 H 380.67 6.60985 2.19251 0
M  V30 4096 H 378.297 7.31162 2.081 0
M  V30 4097 N 379.872 -1.04064 1.18357 0
M  V30 4098 C 381.1 -1.80916 1.00384 0
M  V30 4099 C 381.515 -1.83414 -0.447738 0
M  V30 4100 O 380.872 -1.26962 -1.31099 0
M  V30 4101 C 380.923 -3.26516 1.55144 0
M  V30 4102 O 380.644 -3.2424 2.94618 0
M  V30 4103 C 382.145 -4.20013 1.41789 0
M  V30 4104 H 379.365 -0.569728 0.354474 0
M  V30 4105 H 381.909 -1.31151 1.56906 0
M  V30 4106 H 380.064 -3.73512 1.02798 0
M  V30 4107 H 380.478 -4.15452 3.20156 0
M  V30 4108 H 381.952 -5.20111 1.84901 0
M  V30 4109 H 382.429 -4.37667 0.36661 0
M  V30 4110 H 383.035 -3.78881 1.93207 0
M  V30 4111 N 381.35 -0.985608 -1.22978 0
M  V30 4112 C 382.575 -0.675254 -1.961 0
M  V30 4113 C 383 0.752154 -1.72407 0
M  V30 4114 O 382.358 1.5131 -0.998751 0
M  V30 4115 C 382.406 -0.977899 -3.47087 0
M  V30 4116 O 381.51 -0.072685 -4.12336 0
M  V30 4117 H 380.851 -0.253443 -0.613728 0
M  V30 4118 H 383.381 -1.32061 -1.56272 0
M  V30 4119 H 383.391 -0.916739 -3.97567 0
M  V30 4120 H 382.066 -2.01807 -3.63657 0
M  V30 4121 H 380.643 -0.188703 -3.72422 0
M  V30 4122 N 382.828 1.3818 -0.7579 0
M  V30 4123 C 384.239 1.82726 -0.383134 0
M  V30 4124 C 384.59 1.63214 1.08884 0
M  V30 4125 O 383.715 1.13566 1.84205 0
M  V30 4126 C 384.31 3.31728 -0.688631 0
M  V30 4127 C 382.869 3.74606 -0.367091 0
M  V30 4128 C 382.016 2.60896 -0.939599 0
M  V30 4129 H 384.967 1.26847 -0.953699 0
M  V30 4130 H 384.988 3.80487 0.0316492 0
M  V30 4131 H 384.5 3.45898 -1.76001 0
M  V30 4132 H 382.601 3.66013 0.697532 0
M  V30 4133 H 382.714 4.71215 -0.865658 0
M  V30 4134 H 381.078 2.52075 -0.3647 0
M  V30 4135 H 381.861 2.77864 -2.0161 0
M  V30 4136 N 384.306 0.507319 1.49211 0
M  V30 4137 C 385.553 -0.0349529 2.0247 0
M  V30 4138 C 385.881 -1.36409 1.38647 0
M  V30 4139 O 385.136 -1.88841 0.513566 0
M  V30 4140 C 385.435 -0.229513 3.56662 0
M  V30 4141 C 385.101 1.02241 4.39156 0
M  V30 4142 C 383.763 1.36557 4.61417 0
M  V30 4143 C 386.115 1.85428 4.871 0
M  V30 4144 C 383.443 2.53999 5.28868 0
M  V30 4145 C 385.795 3.02028 5.55843 0
M  V30 4146 C 384.459 3.36717 5.76349 0
M  V30 4147 H 383.729 -0.0127902 0.74089 0
M  V30 4148 H 386.376 0.668756 1.79443 0
M  V30 4149 H 384.681 -1.0158 3.78403 0
M  V30 4150 H 386.378 -0.663641 3.9547 0
M  V30 4151 H 382.968 0.745124 4.22073 0
M  V30 4152 H 387.152 1.6023 4.69723 0
M  V30 4153 H 382.408 2.81105 5.42946 0
M  V30 4154 H 386.582 3.66808 5.91967 0
M  V30 4155 H 384.209 4.27821 6.28389 0
M  V30 4156 N 385.784 -1.5574 0.241426 0
M  V30 4157 C 387.024 -2.00714 -0.38644 0
M  V30 4158 C 387.388 -1.12586 -1.55526 0
M  V30 4159 O 388.589 -1.46992 -2.25048 0
M  V30 4160 C 386.86 -3.48534 -0.791128 0
M  V30 4161 S 388.419 -4.15519 -1.41029 0
M  V30 4162 H 385.237 -0.700484 -0.121834 0
M  V30 4163 H 387.839 -1.92243 0.355377 0
M  V30 4164 H 386.543 -4.10342 0.0689225 0
M  V30 4165 H 386.074 -3.6092 -1.56526 0
M  V30 4166 H 388.089 -4.16352 -2.69936 0
M  V30 4167 N 387.262 0.0317525 -1.57568 0
M  V30 4168 C 388.192 1.03274 -2.0942 0
M  V30 4169 C 389.173 1.3788 -0.996143 0
M  V30 4170 O 390.358 1.46811 -1.27122 0
M  V30 4171 C 387.488 2.33448 -2.57137 0
M  V30 4172 C 386.442 2.13091 -3.71182 0
M  V30 4173 C 385.768 3.49001 -4.05095 0
M  V30 4174 C 387.068 1.51928 -4.99715 0
M  V30 4175 H 388.762 0.60112 -2.93303 0
M  V30 4176 H 386.308 0.287705 -1.41097 0
M  V30 4177 H 388.261 3.03802 -2.92032 0
M  V30 4178 H 386.985 2.78665 -1.70333 0
M  V30 4179 H 385.644 1.45171 -3.36632 0
M  V30 4180 H 385.292 3.91862 -3.15362 0
M  V30 4181 H 384.992 3.36207 -4.81911 0
M  V30 4182 H 386.516 4.20721 -4.42522 0
M  V30 4183 H 387.93 2.12196 -5.32584 0
M  V30 4184 H 386.327 1.49716 -5.81124 0
M  V30 4185 H 387.397 0.484811 -4.8247 0
M  V30 4186 N 388.74 1.54641 0.303973 0
M  V30 4187 C 389.672 1.81754 1.39636 0
M  V30 4188 C 390.685 0.70035 1.46966 0
M  V30 4189 O 391.874 0.97778 1.49338 0
M  V30 4190 C 388.974 1.93785 2.7803 0
M  V30 4191 C 388.147 3.24156 2.93669 0
M  V30 4192 C 387.206 3.26641 4.12544 0
M  V30 4193 O 386.232 4.00187 4.04771 0
M  V30 4194 N 387.434 2.5182 5.23036 0
M  V30 4195 H 390.199 2.76031 1.16734 0
M  V30 4196 H 387.76 1.54178 0.494033 0
M  V30 4197 H 389.752 1.92852 3.55795 0
M  V30 4198 H 388.322 1.06515 2.93893 0
M  V30 4199 H 387.542 3.37887 2.03042 0
M  V30 4200 H 388.83 4.10195 3.01027 0
M  V30 4201 H 388.228 1.91692 5.32232 0
M  V30 4202 H 386.785 2.56644 5.99147 0
M  V30 4203 N 390.218 -0.567019 1.47046 0
M  V30 4204 C 391.464 -1.32658 1.53394 0
M  V30 4205 C 391.797 -1.93254 0.19148 0
M  V30 4206 O 391.072 -1.77338 -0.798844 0
M  V30 4207 C 391.355 -2.44412 2.64452 0
M  V30 4208 C 391.208 -1.88749 4.08282 0
M  V30 4209 C 392.527 -3.46387 2.71485 0
M  V30 4210 H 389.646 -0.48098 0.558415 0
M  V30 4211 H 392.288 -0.635481 1.79058 0
M  V30 4212 H 390.438 -3.03363 2.427 0
M  V30 4213 H 392.11 -1.34134 4.41368 0
M  V30 4214 H 390.353 -1.19481 4.17021 0
M  V30 4215 H 391.024 -2.69491 4.81745 0
M  V30 4216 H 393.5 -2.9734 2.91081 0
M  V30 4217 H 392.376 -4.2202 3.50985 0
M  V30 4218 H 392.637 -4.04616 1.78153 0
M  V30 4219 N 391.696 -1.35014 -0.812953 0
M  V30 4220 C 392.643 -1.27412 -1.92444 0
M  V30 4221 C 393.613 -0.14733 -1.65445 0
M  V30 4222 O 394.798 -0.329974 -1.87925 0
M  V30 4223 C 391.938 -1.04558 -3.28879 0
M  V30 4224 C 391.051 -2.26101 -3.68106 0
M  V30 4225 C 390.186 -1.96449 -4.9354 0
M  V30 4226 C 389.225 -3.14081 -5.25376 0
M  V30 4227 N 388.362 -2.84246 -6.41988 0
M  V30 4228 H 393.202 -2.22463 -1.98278 0
M  V30 4229 H 390.739 -1.10593 -0.969933 0
M  V30 4230 H 392.697 -0.893413 -4.07522 0
M  V30 4231 H 391.327 -0.131719 -3.22531 0
M  V30 4232 H 390.379 -2.52204 -2.84775 0
M  V30 4233 H 391.691 -3.13959 -3.87597 0
M  V30 4234 H 390.845 -1.78026 -5.79993 0
M  V30 4235 H 389.584 -1.05867 -4.76071 0
M  V30 4236 H 388.589 -3.33089 -4.37415 0
M  V30 4237 H 389.814 -4.05455 -5.44778 0
M  V30 4238 H 387.76 -1.96252 -6.25956 0
M  V30 4239 H 387.677 -3.65637 -6.61699 0
M  V30 4240 H 388.945 -2.6935 -7.31485 0
M  V30 4241 N 393.175 1.03435 -1.18907 0
M  V30 4242 C 394.591 1.28973 -0.940111 0
M  V30 4243 C 394.791 1.97676 0.390691 0
M  V30 4244 O 393.847 2.26127 1.12352 0
M  V30 4245 C 395.16 2.14221 -2.11021 0
M  V30 4246 C 396.708 2.27547 -2.14922 0
M  V30 4247 C 397.183 3.16164 -3.31367 0
M  V30 4248 N 398.674 3.23752 -3.31269 0
M  V30 4249 C 399.409 3.92495 -4.18014 0
M  V30 4250 N 398.905 4.63515 -5.14904 0
M  V30 4251 N 400.698 3.88838 -4.05908 0
M  V30 4252 H 392.849 0.57252 -2.04538 0
M  V30 4253 H 395.112 0.315184 -0.894071 0
M  V30 4254 H 394.818 1.71054 -3.073 0
M  V30 4255 H 394.692 3.14919 -2.0762 0
M  V30 4256 H 397.079 2.69947 -1.19217 0
M  V30 4257 H 397.16 1.26418 -2.22378 0
M  V30 4258 H 396.804 2.74474 -4.27348 0
M  V30 4259 H 396.734 4.17339 -3.21148 0
M  V30 4260 H 399.225 2.73167 -2.61129 0
M  V30 4261 H 399.538 5.13583 -5.77453 0
M  V30 4262 H 397.883 4.62398 -5.18857 0
M  V30 4263 H 401.074 3.32491 -3.29495 0
M  V30 4264 H 401.247 4.4214 -4.73726 0
M  V30 4265 N 394.653 0.992116 1.22453 0
M  V30 4266 C 395.601 0.534644 2.26372 0
M  V30 4267 C 396.595 -0.414293 1.64256 0
M  V30 4268 O 397.801 -0.286899 1.77699 0
M  V30 4269 H 394.176 0.154502 0.735957 0
M  V30 4270 H 396.147 1.42256 2.62309 0
M  V30 4271 C 394.896 -0.135815 3.47435 0
M  V30 4272 H 394.219 0.585311 3.95492 0
M  V30 4273 H 395.659 -0.419374 4.21921 0
M  V30 4274 C 394.118 -1.37089 3.07747 0
M  V30 4275 O 394.648 -2.46629 3.17076 0
M  V30 4276 N 392.854 -1.24585 2.62539 0
M  V30 4277 H 392.401 -0.354542 2.55149 0
M  V30 4278 H 392.359 -2.07327 2.36353 0
M  V30 4279 N 396.131 -1.37776 0.765217 0
M  V30 4280 C 397.408 -1.93975 0.251596 0
M  V30 4281 C 397.788 -1.69949 -1.25222 0
M  V30 4282 O 397.136 -1.04457 -2.03226 0
M  V30 4283 C 397.346 -3.43487 0.617895 0
M  V30 4284 C 398.694 -4.20564 0.584029 0
M  V30 4285 O 399.718 -3.5182 0.556888 0
M  V30 4286 O 398.577 -5.43138 0.605291 0
M  V30 4287 H 395.671 -0.82509 0.0561806 0
M  V30 4288 H 398.217 -1.47101 0.846128 0
M  V30 4289 H 396.989 -3.5453 1.65602 0
M  V30 4290 H 396.612 -3.976 -0.00403411 0
M  V30 4291 N 397.609 -0.515225 -1.4894 0
M  V30 4292 C 398.839 0.0205735 -2.0659 0
M  V30 4293 C 399.247 1.30064 -1.37405 0
M  V30 4294 O 398.59 1.78087 -0.450632 0
M  V30 4295 C 398.652 0.330124 -3.57981 0
M  V30 4296 C 398.316 -0.854295 -4.48944 0
M  V30 4297 C 399.313 -1.7487 -4.89609 0
M  V30 4298 C 396.998 -1.05712 -4.9105 0
M  V30 4299 C 398.992 -2.82996 -5.71132 0
M  V30 4300 C 396.679 -2.14154 -5.72347 0
M  V30 4301 C 397.677 -3.0263 -6.12294 0
M  V30 4302 O 397.365 -4.09198 -6.91962 0
M  V30 4303 H 397.097 -0.0236833 -0.675585 0
M  V30 4304 H 399.651 -0.715956 -1.92518 0
M  V30 4305 H 397.881 1.12044 -3.70112 0
M  V30 4306 H 399.57 0.806233 -3.97812 0
M  V30 4307 H 400.336 -1.60388 -4.57712 0
M  V30 4308 H 396.215 -0.377788 -4.59449 0
M  V30 4309 H 399.759 -3.52083 -6.02232 0
M  V30 4310 H 395.656 -2.28626 -6.03656 0
M  V30 4311 H 396.424 -4.06726 -7.10293 0
M  V30 4312 N 399.087 1.5561 -0.249682 0
M  V30 4313 C 400.333 1.99306 0.374841 0
M  V30 4314 C 400.666 1.13767 1.57387 0
M  V30 4315 O 399.941 0.201711 1.93451 0
M  V30 4316 C 400.224 3.51507 0.781986 0
M  V30 4317 C 400.077 4.4781 -0.422629 0
M  V30 4318 C 401.396 4.08884 1.62793 0
M  V30 4319 H 398.515 0.724572 0.134773 0
M  V30 4320 H 401.157 1.86719 -0.351549 0
M  V30 4321 H 399.307 3.62363 1.4009 0
M  V30 4322 H 400.979 4.48931 -1.06108 0
M  V30 4323 H 399.222 4.20518 -1.06524 0
M  V30 4324 H 399.893 5.51919 -0.0943766 0
M  V30 4325 H 402.369 4.01147 1.10547 0
M  V30 4326 H 401.245 5.1564 1.88166 0
M  V30 4327 H 401.506 3.57515 2.60068 0
M  V30 4328 N 400.565 -0.0233959 1.57583 0
M  V30 4329 C 401.515 -1.03023 2.03397 0
M  V30 4330 C 402.499 -1.31701 0.924315 0
M  V30 4331 O 403.691 -1.31191 1.18819 0
M  V30 4332 C 400.82 -2.32961 2.52159 0
M  V30 4333 C 399.906 -2.07349 3.69956 0
M  V30 4334 N 400.297 -1.51814 4.82479 0
M  V30 4335 C 398.595 -2.37606 3.77438 0
M  V30 4336 C 399.296 -1.42136 5.64068 0
M  V30 4337 N 398.272 -1.89891 5.09355 0
M  V30 4338 H 402.074 -0.594962 2.87815 0
M  V30 4339 H 399.588 -0.229586 1.60769 0
M  V30 4340 H 401.585 -3.05906 2.83244 0
M  V30 4341 H 400.245 -2.77162 1.69149 0
M  V30 4342 H 401.256 -1.20008 5.03804 0
M  V30 4343 H 397.933 -2.84842 3.05239 0
M  V30 4344 H 399.323 -0.996405 6.64471 0
M  V30 4345 N 402.043 -1.548 -0.295768 0
M  V30 4346 C 403.006 -1.85363 -1.34808 0
M  V30 4347 C 404.006 -0.726817 -1.43436 0
M  V30 4348 O 405.196 -0.995088 -1.42981 0
M  V30 4349 C 402.328 -2.03859 -2.73229 0
M  V30 4350 H 403.521 -2.7941 -1.08949 0
M  V30 4351 H 401.074 -1.46942 -0.532702 0
M  V30 4352 H 401.809 -1.12117 -3.04303 0
M  V30 4353 H 401.594 -2.8588 -2.68356 0
M  V30 4354 H 403.084 -2.28857 -3.49305 0
M  V30 4355 N 403.521 0.559213 -1.47345 0
M  V30 4356 C 404.451 1.67622 -1.62558 0
M  V30 4357 C 405.432 1.63331 -0.475087 0
M  V30 4358 O 406.617 1.80983 -0.704182 0
M  V30 4359 C 403.747 3.0626 -1.63774 0
M  V30 4360 C 402.701 3.25397 -2.7803 0
M  V30 4361 C 402.027 4.64801 -2.64318 0
M  V30 4362 C 403.327 3.10965 -4.19641 0
M  V30 4363 H 405.021 1.55146 -2.56067 0
M  V30 4364 H 402.567 0.744961 -1.23233 0
M  V30 4365 H 404.52 3.84247 -1.73008 0
M  V30 4366 H 403.244 3.1969 -0.66825 0
M  V30 4367 H 401.903 2.49817 -2.68304 0
M  V30 4368 H 401.551 4.75028 -1.65401 0
M  V30 4369 H 401.251 4.78555 -3.40968 0
M  V30 4370 H 402.775 5.44926 -2.75478 0
M  V30 4371 H 404.189 3.78772 -4.30354 0
M  V30 4372 H 402.586 3.36229 -4.97062 0
M  V30 4373 H 403.656 2.07736 -4.38148 0
M  V30 4374 N 404.999 1.35443 0.805782 0
M  V30 4375 C 406.245 1.28952 1.56522 0
M  V30 4376 C 406.578 -0.135597 1.93726 0
M  V30 4377 O 405.853 -1.08516 1.61414 0
M  V30 4378 C 406.136 2.19678 2.85331 0
M  V30 4379 C 405.989 3.7081 2.54598 0
M  V30 4380 C 407.308 2.09495 3.8704 0
M  V30 4381 H 404.427 0.469764 0.567883 0
M  V30 4382 H 407.069 1.65851 0.927001 0
M  V30 4383 H 405.219 1.8834 3.39795 0
M  V30 4384 H 406.891 4.12593 2.06312 0
M  V30 4385 H 405.134 3.91051 1.8778 0
M  V30 4386 H 405.805 4.29679 3.46525 0
M  V30 4387 H 408.281 2.37045 3.41978 0
M  V30 4388 H 407.157 2.75173 4.74943 0
M  V30 4389 H 407.418 1.07714 4.28777 0
M  V30 4390 N 406.477 -1.02803 1.19454 0
M  V30 4391 C 407.44 -2.09264 0.934955 0
M  V30 4392 C 408.44 -1.60576 -0.0849015 0
M  V30 4393 O 409.63 -1.73554 0.149933 0
M  V30 4394 C 406.762 -3.38482 0.40531 0
M  V30 4395 H 407.955 -2.33726 1.87916 0
M  V30 4396 H 405.508 -1.19426 1.00832 0
M  V30 4397 H 406.243 -3.19689 -0.544899 0
M  V30 4398 H 406.028 -3.75142 1.14065 0
M  V30 4399 H 407.518 -4.16894 0.242806 0
M  V30 4400 N 407.956 -0.998596 -1.21925 0
M  V30 4401 C 409.186 -0.695276 -1.94549 0
M  V30 4402 C 409.594 0.745079 -1.73911 0
M  V30 4403 O 408.937 1.51507 -1.03881 0
M  V30 4404 C 408.999 -0.928485 -3.47303 0
M  V30 4405 C 408.663 -2.35443 -3.91683 0
M  V30 4406 C 409.66 -3.33428 -3.98901 0
M  V30 4407 C 407.345 -2.69038 -4.24174 0
M  V30 4408 C 409.339 -4.63079 -4.37992 0
M  V30 4409 C 407.026 -3.98906 -4.62944 0
M  V30 4410 C 408.024 -4.95738 -4.69822 0
M  V30 4411 O 407.712 -6.23285 -5.07711 0
M  V30 4412 H 407.444 -0.255902 -0.625692 0
M  V30 4413 H 409.998 -1.33767 -1.5587 0
M  V30 4414 H 408.228 -0.228917 -3.86022 0
M  V30 4415 H 409.917 -0.619539 -4.01144 0
M  V30 4416 H 410.683 -3.08807 -3.73983 0
M  V30 4417 H 406.562 -1.94367 -4.18022 0
M  V30 4418 H 410.106 -5.38658 -4.43275 0
M  V30 4419 H 406.003 -4.23314 -4.87314 0
M  V30 4420 H 406.771 -6.27306 -5.25766 0
M  V30 4421 N 409.434 1.37368 -0.772513 0
M  V30 4422 C 410.681 1.99673 -0.337182 0
M  V30 4423 C 411.009 1.61324 1.0865 0
M  V30 4424 O 410.264 0.851377 1.7621 0
M  V30 4425 C 410.563 3.54817 -0.428876 0
M  V30 4426 C 410.229 4.12936 -1.81092 0
M  V30 4427 C 408.891 4.28523 -2.1891 0
M  V30 4428 C 411.243 4.44801 -2.71664 0
M  V30 4429 C 408.571 4.73277 -3.46735 0
M  V30 4430 C 410.923 4.90981 -3.98899 0
M  V30 4431 C 409.587 5.04773 -4.36761 0
M  V30 4432 H 408.857 0.730656 -0.123384 0
M  V30 4433 H 411.504 1.64124 -0.986686 0
M  V30 4434 H 409.809 3.90618 0.304167 0
M  V30 4435 H 411.506 4.00933 -0.0733334 0
M  V30 4436 H 408.096 4.01233 -1.50699 0
M  V30 4437 H 412.28 4.32344 -2.43706 0
M  V30 4438 H 407.536 4.82142 -3.75964 0
M  V30 4439 H 411.71 5.14603 -4.69208 0
M  V30 4440 H 409.337 5.39211 -5.35868 0
M  V30 4441 N 410.912 0.523116 1.48665 0
M  V30 4442 C 411.86 -0.256859 2.31177 0
M  V30 4443 C 412.854 -0.94199 1.40794 0
M  V30 4444 O 414.06 -0.867157 1.57735 0
M  V30 4445 H 410.435 -0.1017 0.745091 0
M  V30 4446 H 412.406 0.458739 2.94853 0
M  V30 4447 C 411.155 -1.29503 3.22683 0
M  V30 4448 H 410.478 -0.777248 3.92172 0
M  V30 4449 H 411.918 -1.81233 3.83315 0
M  V30 4450 C 410.377 -2.32501 2.43813 0
M  V30 4451 O 410.907 -3.3881 2.15803 0
M  V30 4452 N 409.113 -2.05538 2.05432 0
M  V30 4453 H 408.66 -1.19104 2.28412 0
M  V30 4454 H 408.618 -2.74676 1.52973 0
M  V30 4455 N 412.39 -1.55475 0.257931 0
M  V30 4456 C 413.639 -1.98383 -0.364275 0
M  V30 4457 C 413.952 -1.14952 -1.58258 0
M  V30 4458 O 415.158 -1.47924 -2.27664 0
M  V30 4459 C 413.614 -3.53037 -0.699479 0
M  V30 4460 C 413.222 -4.45223 0.498046 0
M  V30 4461 C 414.966 -4.04575 -1.28526 0
M  V30 4462 C 412.873 -5.91238 0.138383 0
M  V30 4463 H 411.803 -0.740911 -0.13988 0
M  V30 4464 H 414.454 -1.79936 0.359883 0
M  V30 4465 H 412.836 -3.6722 -1.48207 0
M  V30 4466 H 414.01 -4.42803 1.27522 0
M  V30 4467 H 412.325 -4.04226 0.999503 0
M  V30 4468 H 414.922 -5.11196 -1.56788 0
M  V30 4469 H 415.265 -3.5258 -2.21344 0
M  V30 4470 H 415.798 -3.93762 -0.565337 0
M  V30 4471 H 412.537 -6.47294 1.03398 0
M  V30 4472 H 412.057 -5.96768 -0.602374 0
M  V30 4473 H 413.736 -6.46413 -0.27553 0
M  V30 4474 N 413.868 0.0150385 -1.57593 0
M  V30 4475 C 414.778 1.02791 -2.10882 0
M  V30 4476 C 415.794 1.38702 -1.0506 0
M  V30 4477 O 416.97 1.47739 -1.36877 0
M  V30 4478 C 414.035 2.30568 -2.58919 0
M  V30 4479 C 413.096 2.01108 -3.79281 0
M  V30 4480 C 412.329 3.22794 -4.25018 0
M  V30 4481 O 412.552 4.33959 -3.70183 0
M  V30 4482 O 411.486 3.07672 -5.17322 0
M  V30 4483 H 415.312 0.604973 -2.97613 0
M  V30 4484 H 412.897 0.23292 -1.47573 0
M  V30 4485 H 414.779 3.05662 -2.90084 0
M  V30 4486 H 413.454 2.72129 -1.75293 0
M  V30 4487 H 412.361 1.23537 -3.53114 0
M  V30 4488 H 413.694 1.64394 -4.63935 0
M  V30 4489 N 415.346 1.54954 0.287554 0
M  V30 4490 C 416.593 1.74873 1.02106 0
M  V30 4491 C 416.921 0.541829 1.86801 0
M  V30 4492 O 416.176 -0.475992 1.89823 0
M  V30 4493 C 416.475 2.99833 1.94512 0
M  V30 4494 C 416.141 4.33029 1.25686 0
M  V30 4495 C 414.803 4.69233 1.06649 0
M  V30 4496 C 417.155 5.15542 0.765913 0
M  V30 4497 C 414.483 5.85518 0.372222 0
M  V30 4498 C 416.835 6.32542 0.0853101 0
M  V30 4499 C 415.499 6.67398 -0.1169 0
M  V30 4500 H 414.769 0.639906 0.373632 0
M  V30 4501 H 417.416 1.89219 0.294665 0
M  V30 4502 H 415.721 2.80325 2.73725 0
M  V30 4503 H 417.418 3.1244 2.51361 0
M  V30 4504 H 414.008 4.04564 1.41512 0
M  V30 4505 H 418.192 4.88059 0.90066 0
M  V30 4506 H 413.448 6.11057 0.204695 0
M  V30 4507 H 417.622 6.95741 -0.302936 0
M  V30 4508 H 415.249 7.57357 -0.656859 0
M  V30 4509 N 416.824 -0.551391 1.4764 0
M  V30 4510 C 418.052 -1.33357 1.58189 0
M  V30 4511 C 418.467 -1.87342 0.234199 0
M  V30 4512 O 417.824 -1.65301 -0.77343 0
M  V30 4513 C 417.875 -2.49942 2.61173 0
M  V30 4514 O 417.596 -1.98187 3.90709 0
M  V30 4515 C 419.097 -3.42072 2.8196 0
M  V30 4516 H 416.317 -0.40631 0.533998 0
M  V30 4517 H 418.861 -0.667367 1.93304 0
M  V30 4518 H 417.016 -3.12489 2.28975 0
M  V30 4519 H 417.43 -2.74342 4.47031 0
M  V30 4520 H 418.904 -4.20278 3.57869 0
M  V30 4521 H 419.381 -3.95978 1.89995 0
M  V30 4522 H 419.987 -2.85336 3.15378 0
M  V30 4523 N 418.302 -1.35869 -0.798587 0
M  V30 4524 C 419.718 -1.16082 -1.09532 0
M  V30 4525 C 419.918 0.0213124 -2.01489 0
M  V30 4526 O 418.974 0.689488 -2.42904 0
M  V30 4527 C 420.287 -2.46748 -1.7186 0
M  V30 4528 C 421.835 -2.53028 -1.84244 0
M  V30 4529 C 422.31 -3.83758 -2.49988 0
M  V30 4530 N 423.801 -3.85053 -2.57465 0
M  V30 4531 C 424.536 -4.8294 -3.09122 0
M  V30 4532 N 424.032 -5.91217 -3.61157 0
M  V30 4533 N 425.825 -4.70369 -3.0775 0
M  V30 4534 H 417.976 -2.11571 -0.187461 0
M  V30 4535 H 420.239 -0.936726 -0.145765 0
M  V30 4536 H 419.945 -3.33471 -1.11759 0
M  V30 4537 H 419.819 -2.61883 -2.71472 0
M  V30 4538 H 422.206 -1.66729 -2.43486 0
M  V30 4539 H 422.287 -2.418 -0.834643 0
M  V30 4540 H 421.931 -4.70459 -1.91393 0
M  V30 4541 H 421.861 -3.92278 -3.5132 0
M  V30 4542 H 424.352 -3.06822 -2.20609 0
M  V30 4543 H 424.665 -6.61892 -3.98896 0
M  V30 4544 H 423.01 -5.94899 -3.59333 0
M  V30 4545 H 426.201 -3.84914 -2.66381 0
M  V30 4546 H 426.374 -5.46816 -3.47701 0
M  V30 4547 N 419.78 1.02168 -1.19998 0
M  V30 4548 C 421.02 1.77232 -1.01825 0
M  V30 4549 C 421.384 1.86833 0.442428 0
M  V30 4550 O 422.585 2.58293 0.744189 0
M  V30 4551 C 420.856 3.15601 -1.67722 0
M  V30 4552 S 422.415 4.06765 -1.64584 0
M  V30 4553 H 419.233 0.610021 -0.365233 0
M  V30 4554 H 421.835 1.22368 -1.52467 0
M  V30 4555 H 420.539 3.06235 -2.73218 0
M  V30 4556 H 420.07 3.7554 -1.17189 0
M  V30 4557 H 422.085 4.91586 -0.67511 0
M  V30 4558 N 421.258 1.00505 1.21394 0
M  V30 4559 C 422.208 0.536503 2.21598 0
M  V30 4560 C 423.192 -0.401914 1.55799 0
M  V30 4561 O 424.384 -0.226757 1.75541 0
M  V30 4562 C 421.513 -0.135446 3.43033 0
M  V30 4563 C 420.599 0.823992 4.16018 0
M  V30 4564 N 420.99 1.97683 4.6557 0
M  V30 4565 C 419.288 0.642387 4.4135 0
M  V30 4566 C 419.989 2.58003 5.21354 0
M  V30 4567 N 418.965 1.86162 5.1073 0
M  V30 4568 H 422.767 1.41557 2.57563 0
M  V30 4569 H 420.281 0.868878 1.37202 0
M  V30 4570 H 422.278 -0.488584 4.14027 0
M  V30 4571 H 420.938 -1.01049 3.08576 0
M  V30 4572 H 421.949 2.3572 4.61147 0
M  V30 4573 H 418.626 -0.185578 4.17087 0
M  V30 4574 H 420.016 3.555 5.70149 0
M  V30 4575 N 422.737 -1.36956 0.779787 0
M  V30 4576 C 423.684 -2.30175 0.169697 0
M  V30 4577 C 424.654 -1.51501 -0.68094 0
M  V30 4578 O 425.839 -1.80042 -0.631629 0
M  V30 4579 C 422.979 -3.37985 -0.697131 0
M  V30 4580 C 422.092 -4.31661 0.170992 0
M  V30 4581 C 421.227 -5.2655 -0.701298 0
M  V30 4582 C 420.266 -6.11867 0.168869 0
M  V30 4583 N 419.403 -6.98973 -0.661855 0
M  V30 4584 H 424.243 -2.81767 0.970135 0
M  V30 4585 H 421.78 -1.38699 0.489994 0
M  V30 4586 H 423.738 -3.99128 -1.2146 0
M  V30 4587 H 422.368 -2.87739 -1.46309 0
M  V30 4588 H 421.42 -3.71756 0.80634 0
M  V30 4589 H 422.732 -4.91644 0.841875 0
M  V30 4590 H 421.886 -5.92937 -1.28494 0
M  V30 4591 H 420.625 -4.66998 -1.40584 0
M  V30 4592 H 419.63 -5.44452 0.764986 0
M  V30 4593 H 420.855 -6.73493 0.870863 0
M  V30 4594 H 418.801 -6.41941 -1.35086 0
M  V30 4595 H 418.718 -7.55984 -0.0484447 0
M  V30 4596 H 419.986 -7.6974 -1.22963 0
M  V30 4597 N 424.215 -0.530993 -1.48385 0
M  V30 4598 C 425.631 -0.188919 -1.58478 0
M  V30 4599 C 425.831 1.30786 -1.53288 0
M  V30 4600 O 424.887 2.08619 -1.42248 0
M  V30 4601 C 426.2 -0.792343 -2.90073 0
M  V30 4602 C 427.748 -0.76117 -3.03604 0
M  V30 4603 C 428.223 -1.34319 -4.37861 0
M  V30 4604 N 429.714 -1.3052 -4.44431 0
M  V30 4605 C 430.449 -1.72543 -5.46824 0
M  V30 4606 N 429.945 -2.22299 -6.56167 0
M  V30 4607 N 431.738 -1.63773 -5.37712 0
M  V30 4608 H 423.889 -1.50377 -1.50002 0
M  V30 4609 H 426.152 -0.625559 -0.712306 0
M  V30 4610 H 425.858 -1.84323 -2.99529 0
M  V30 4611 H 425.732 -0.270026 -3.76232 0
M  V30 4612 H 428.119 0.280957 -2.93759 0
M  V30 4613 H 428.2 -1.32097 -2.19053 0
M  V30 4614 H 427.844 -2.38425 -4.4846 0
M  V30 4615 H 427.774 -0.759064 -5.21101 0
M  V30 4616 H 430.265 -0.940973 -3.65997 0
M  V30 4617 H 430.578 -2.52356 -7.30436 0
M  V30 4618 H 428.923 -2.26293 -6.57127 0
M  V30 4619 H 432.114 -1.24698 -4.51185 0
M  V30 4620 H 432.287 -1.96844 -6.17379 0
M  V30 4621 N 425.693 1.55336 -0.266172 0
M  V30 4622 C 426.921 2.03801 0.356756 0
M  V30 4623 C 427.336 1.14485 1.50129 0
M  V30 4624 O 426.693 0.163121 1.8177 0
M  V30 4625 C 426.744 3.51455 0.846281 0
M  V30 4626 O 426.465 4.37371 -0.252663 0
M  V30 4627 C 427.966 4.15767 1.53794 0
M  V30 4628 H 425.186 0.665906 0.0825218 0
M  V30 4629 H 427.73 2.00636 -0.39566 0
M  V30 4630 H 425.885 3.55092 1.54881 0
M  V30 4631 H 426.299 5.24358 0.122173 0
M  V30 4632 H 427.773 5.20714 1.83198 0
M  V30 4633 H 428.25 3.63404 2.46646 0
M  V30 4634 H 428.856 4.16107 0.879488 0
M  V30 4635 N 427.171 -0.0066808 1.57599 0
M  V30 4636 C 428.419 -0.691552 1.899 0
M  V30 4637 C 428.74 -1.74682 0.866672 0
M  V30 4638 O 428.01 -1.95661 -0.0968189 0
M  V30 4639 H 426.59 -0.258416 0.700878 0
M  V30 4640 H 429.252 0.0326655 1.94873 0
M  V30 4641 H 428.348 -1.16702 2.8946 0
M  V30 4642 N 428.649 -1.55105 -0.279332 0
M  V30 4643 C 429.896 -1.75412 -1.01177 0
M  V30 4644 C 430.224 -0.551728 -1.86511 0
M  V30 4645 O 429.479 0.465919 -1.90073 0
M  V30 4646 C 429.778 -3.0086 -1.92919 0
M  V30 4647 C 429.444 -4.33689 -1.23387 0
M  V30 4648 C 428.106 -4.69792 -1.04159 0
M  V30 4649 C 430.458 -5.15941 -0.738562 0
M  V30 4650 C 427.786 -5.85707 -0.341166 0
M  V30 4651 C 430.138 -6.32579 -0.0517636 0
M  V30 4652 C 428.802 -6.67326 0.152292 0
M  V30 4653 H 428.072 -0.641879 -0.370233 0
M  V30 4654 H 430.719 -1.89373 -0.284627 0
M  V30 4655 H 429.024 -2.81773 -2.72234 0
M  V30 4656 H 430.721 -3.13768 -2.49701 0
M  V30 4657 H 427.311 -4.05309 -1.39364 0
M  V30 4658 H 431.495 -4.8853 -0.874764 0
M  V30 4659 H 426.751 -6.11157 -0.172287 0
M  V30 4660 H 430.925 -6.9557 0.339828 0
M  V30 4661 H 428.552 -7.56998 0.697014 0
M  V30 4662 N 430.127 0.543554 -1.4793 0
M  V30 4663 C 431.352 1.32995 -1.59145 0
M  V30 4664 C 431.777 1.86472 -0.246956 0
M  V30 4665 O 431.135 1.63696 0.779324 0
M  V30 4666 C 431.183 2.46623 -2.63077 0
M  V30 4667 O 430.287 3.49261 -2.19295 0
M  V30 4668 H 429.628 0.394472 -0.534124 0
M  V30 4669 H 432.158 0.655489 -1.93816 0
M  V30 4670 H 432.168 2.93001 -2.83926 0
M  V30 4671 H 430.843 2.07059 -3.60693 0
M  V30 4672 H 429.42 3.09094 -2.08603 0
M  V30 4673 N 431.605 1.3629 0.791371 0
M  V30 4674 C 432.833 1.33562 1.58016 0
M  V30 4675 C 433.248 -0.0835616 1.88615 0
M  V30 4676 O 432.605 -1.0399 1.49974 0
M  V30 4677 C 432.656 2.15517 2.90232 0
M  V30 4678 O 432.377 3.51902 2.60953 0
M  V30 4679 C 433.878 2.20546 3.84544 0
M  V30 4680 H 431.098 0.458226 0.490173 0
M  V30 4681 H 433.642 1.79361 0.982345 0
M  V30 4682 H 431.797 1.73278 3.46487 0
M  V30 4683 H 432.211 3.94644 3.4548 0
M  V30 4684 H 433.685 2.82252 4.74382 0
M  V30 4685 H 434.162 1.20838 4.2225 0
M  V30 4686 H 434.768 2.63013 3.34222 0
M  V30 4687 N 433.083 -1.0153 1.20538 0
M  V30 4688 C 434.308 -1.79283 1.04271 0
M  V30 4689 C 434.733 -1.8372 -0.403544 0
M  V30 4690 O 434.091 -1.27321 -1.2907 0
M  V30 4691 C 434.139 -3.21535 1.63241 0
M  V30 4692 O 433.243 -4.03099 0.870908 0
M  V30 4693 H 432.584 -0.55293 0.367647 0
M  V30 4694 H 435.114 -1.27696 1.59859 0
M  V30 4695 H 435.124 -3.72243 1.6703 0
M  V30 4696 H 433.799 -3.1762 2.68497 0
M  V30 4697 H 432.376 -3.61693 0.907323 0
M  V30 4698 N 434.561 -1.01147 -1.20859 0
M  V30 4699 C 435.972 -0.730205 -1.71828 0
M  V30 4700 C 436.323 0.751662 -1.8123 0
M  V30 4701 O 435.448 1.58686 -1.47132 0
M  V30 4702 C 436.043 -1.31885 -3.12077 0
M  V30 4703 C 434.602 -1.08656 -3.60376 0
M  V30 4704 C 433.749 -1.42769 -2.37723 0
M  V30 4705 H 436.7 -1.18158 -1.05945 0
M  V30 4706 H 436.721 -0.706793 -3.73878 0
M  V30 4707 H 436.233 -2.39737 -3.05201 0
M  V30 4708 H 434.334 -0.0254814 -3.72591 0
M  V30 4709 H 434.447 -1.76301 -4.45483 0
M  V30 4710 H 432.811 -0.846603 -2.40218 0
M  V30 4711 H 433.594 -2.51666 -2.33493 0
M  V30 4712 N 436.039 1.36541 -0.78704 0
M  V30 4713 C 436.949 2.3387 -0.184896 0
M  V30 4714 C 437.965 1.60927 0.661697 0
M  V30 4715 O 439.141 1.92927 0.57804 0
M  V30 4716 C 436.206 3.40122 0.672145 0
M  V30 4717 C 435.267 4.28867 -0.19267 0
M  V30 4718 C 434.5 5.30045 0.623561 0
M  V30 4719 O 434.723 5.39232 1.8597 0
M  V30 4720 O 433.657 6.01895 0.0247068 0
M  V30 4721 H 437.483 2.87126 -0.989562 0
M  V30 4722 H 435.068 1.38969 -0.548455 0
M  V30 4723 H 436.95 4.05093 1.16094 0
M  V30 4724 H 435.625 2.89169 1.45474 0
M  V30 4725 H 434.532 3.66945 -0.728166 0
M  V30 4726 H 435.865 4.83165 -0.938722 0
M  V30 4727 N 437.518 0.538854 1.48102 0
M  V30 4728 C 438.743 0.0102694 2.07397 0
M  V30 4729 C 439.168 -1.26562 1.39153 0
M  V30 4730 O 438.526 -1.75357 0.460387 0
M  V30 4731 C 438.574 -0.187602 3.60112 0
M  V30 4732 O 437.678 -1.25432 3.92862 0
M  V30 4733 H 437.019 0.0430975 0.6626 0
M  V30 4734 H 439.549 0.749301 1.90385 0
M  V30 4735 H 439.559 -0.407517 4.0596 0
M  V30 4736 H 438.234 0.744386 4.09184 0
M  V30 4737 H 436.811 -1.01636 3.58782 0
M  V30 4738 N 438.996 -1.55193 0.274407 0
M  V30 4739 C 440.407 -1.85358 -0.223488 0
M  V30 4740 C 440.758 -1.19642 -1.555 0
M  V30 4741 O 439.883 -0.484498 -2.10907 0
M  V30 4742 C 440.478 -3.36282 -0.412285 0
M  V30 4743 C 439.037 -3.66574 -0.854413 0
M  V30 4744 C 438.184 -2.7725 0.0527056 0
M  V30 4745 H 441.135 -1.50743 0.496215 0
M  V30 4746 H 441.156 -3.59349 -1.25094 0
M  V30 4747 H 440.668 -3.84083 0.556965 0
M  V30 4748 H 438.769 -3.24273 -1.83516 0
M  V30 4749 H 438.882 -4.74073 -0.692226 0
M  V30 4750 H 437.246 -2.50447 -0.463484 0
M  V30 4751 H 438.029 -3.27865 1.01783 0
M  V30 4752 N 440.474 -0.00167713 -1.576 0
M  V30 4753 C 441.704 0.692754 -1.94639 0
M  V30 4754 C 442.112 1.67744 -0.87513 0
M  V30 4755 O 441.455 1.8305 0.154382 0
M  V30 4756 C 441.517 1.47881 -3.27676 0
M  V30 4757 C 441.181 0.655518 -4.52274 0
M  V30 4758 C 442.178 -0.0575214 -5.19868 0
M  V30 4759 C 439.863 0.600994 -4.98692 0
M  V30 4760 C 441.857 -0.814052 -6.3218 0
M  V30 4761 C 439.544 -0.15926 -6.10892 0
M  V30 4762 C 440.542 -0.865515 -6.77494 0
M  V30 4763 O 440.23 -1.61336 -7.87544 0
M  V30 4764 H 439.962 0.197792 -0.646417 0
M  V30 4765 H 442.516 -0.049423 -2.05341 0
M  V30 4766 H 440.746 2.2655 -3.13388 0
M  V30 4767 H 442.435 2.05874 -3.49816 0
M  V30 4768 H 443.201 -0.0245611 -4.84994 0
M  V30 4769 H 439.08 1.14025 -4.46676 0
M  V30 4770 H 442.624 -1.36584 -6.84098 0
M  V30 4771 H 438.521 -0.194035 -6.45208 0
M  V30 4772 H 439.289 -1.53025 -8.04068 0
M  V30 4773 N 441.952 1.55251 0.271103 0
M  V30 4774 C 443.18 1.79974 1.02064 0
M  V30 4775 C 443.595 0.574003 1.79863 0
M  V30 4776 O 442.952 -0.456962 1.76686 0
M  V30 4777 C 443.003 3.02603 1.97772 0
M  V30 4778 O 442.724 4.20443 1.23124 0
M  V30 4779 C 444.225 3.39944 2.84522 0
M  V30 4780 H 441.445 0.599489 0.301419 0
M  V30 4781 H 443.989 2.02268 0.301313 0
M  V30 4782 H 442.144 2.8243 2.65165 0
M  V30 4783 H 442.558 4.89783 1.87651 0
M  V30 4784 H 444.032 4.28915 3.47471 0
M  V30 4785 H 444.509 2.59432 3.54389 0
M  V30 4786 H 445.115 3.62383 2.22618 0
M  V30 4787 N 443.43 -0.535701 1.48216 0
M  V30 4788 C 444.38 -1.63688 1.58714 0
M  V30 4789 C 445.364 -1.54635 0.444615 0
M  V30 4790 O 446.556 -1.62753 0.695742 0
M  V30 4791 C 443.685 -3.02423 1.62466 0
M  V30 4792 C 442.771 -3.16601 2.82178 0
M  V30 4793 N 443.162 -3.00771 4.06658 0
M  V30 4794 C 441.46 -3.47645 2.79391 0
M  V30 4795 C 442.161 -3.18213 4.86945 0
M  V30 4796 N 441.137 -3.45528 4.19656 0
M  V30 4797 H 444.939 -1.5005 2.5271 0
M  V30 4798 H 442.453 -0.741018 1.44508 0
M  V30 4799 H 444.45 -3.81517 1.6808 0
M  V30 4800 H 443.11 -3.17157 0.695826 0
M  V30 4801 H 444.121 -2.77652 4.37184 0
M  V30 4802 H 440.798 -3.68771 1.95739 0
M  V30 4803 H 442.188 -3.1076 5.95716 0
M  V30 4804 N 444.908 -1.36708 -0.784132 0
M  V30 4805 C 446.154 -1.32433 -1.54379 0
M  V30 4806 C 446.509 0.0941816 -1.92169 0
M  V30 4807 O 445.802 1.04997 -1.60269 0
M  V30 4808 C 445.996 -2.18571 -2.82774 0
M  V30 4809 C 445.825 -3.68656 -2.57533 0
M  V30 4810 C 444.595 -4.37813 -2.52286 0
M  V30 4811 C 446.793 -4.61802 -2.2637 0
M  V30 4812 N 444.775 -5.7351 -2.18997 0
M  V30 4813 C 446.146 -5.85785 -2.03115 0
M  V30 4814 C 448.201 -4.50313 -2.12421 0
M  V30 4815 C 446.904 -6.99569 -1.67321 0
M  V30 4816 C 448.93 -5.63969 -1.78026 0
M  V30 4817 C 448.292 -6.86994 -1.55622 0
M  V30 4818 H 444.391 -0.539886 -0.565727 0
M  V30 4819 H 446.975 -1.71812 -0.915908 0
M  V30 4820 H 445.146 -1.81429 -3.43421 0
M  V30 4821 H 446.878 -2.05646 -3.48557 0
M  V30 4822 H 443.633 -3.90674 -2.67714 0
M  V30 4823 H 444.057 -6.45189 -2.05084 0
M  V30 4824 H 448.699 -3.55781 -2.28429 0
M  V30 4825 H 446.417 -7.94047 -1.5005 0
M  V30 4826 H 450.003 -5.57044 -1.67909 0
M  V30 4827 H 448.883 -7.7345 -1.294 0
M  V30 4828 N 446.386 1.0089 -1.21074 0
M  V30 4829 C 447.333 2.09588 -0.966512 0
M  V30 4830 C 448.303 1.65761 0.106089 0
M  V30 4831 O 449.488 1.90758 -0.0402287 0
M  V30 4832 C 446.628 3.40958 -0.533058 0
M  V30 4833 C 445.741 3.9822 -1.67467 0
M  V30 4834 C 444.876 5.17682 -1.19076 0
M  V30 4835 C 443.915 5.67043 -2.30496 0
M  V30 4836 N 443.052 6.77759 -1.83267 0
M  V30 4837 H 447.892 2.29815 -1.89708 0
M  V30 4838 H 445.429 1.12689 -0.945489 0
M  V30 4839 H 447.387 4.1637 -0.263019 0
M  V30 4840 H 446.017 3.20781 0.360505 0
M  V30 4841 H 445.069 3.1983 -2.05944 0
M  V30 4842 H 446.381 4.3085 -2.51336 0
M  V30 4843 H 445.535 6.00326 -0.877151 0
M  V30 4844 H 444.274 4.86635 -0.322066 0
M  V30 4845 H 443.279 4.82999 -2.62664 0
M  V30 4846 H 444.504 6.00121 -3.17855 0
M  V30 4847 H 442.45 6.48527 -0.987356 0
M  V30 4848 H 442.367 7.09624 -2.60711 0
M  V30 4849 H 443.635 7.63949 -1.54928 0
M  V30 4850 N 447.864 1.01787 1.20321 0
M  V30 4851 C 448.796 0.547357 2.22568 0
M  V30 4852 C 449.809 -0.370922 1.58518 0
M  V30 4853 O 450.998 -0.169067 1.77698 0
M  V30 4854 C 448.098 -0.223031 3.38165 0
M  V30 4855 C 447.271 0.697472 4.31803 0
M  V30 4856 C 446.33 -0.025562 5.26194 0
M  V30 4857 O 445.356 0.597367 5.66057 0
M  V30 4858 N 446.558 -1.29999 5.65757 0
M  V30 4859 H 449.323 1.42668 2.63564 0
M  V30 4860 H 446.884 0.895552 1.34876 0
M  V30 4861 H 448.876 -0.716002 3.98316 0
M  V30 4862 H 447.446 -1.00366 2.9605 0
M  V30 4863 H 446.666 1.37073 3.69601 0
M  V30 4864 H 447.954 1.32347 4.91286 0
M  V30 4865 H 447.352 -1.827 5.35385 0
M  V30 4866 H 445.909 -1.73766 6.28211 0
M  V30 4867 N 449.342 -1.36122 0.79427 0
M  V30 4868 C 450.57 -2.03362 0.380989 0
M  V30 4869 C 450.985 -1.59881 -1.00416 0
M  V30 4870 O 450.342 -0.790515 -1.6449 0
M  V30 4871 C 450.393 -3.58804 0.440649 0
M  V30 4872 O 450.114 -4.007 1.77118 0
M  V30 4873 C 451.615 -4.43296 0.0186117 0
M  V30 4874 H 448.835 -0.652526 0.156367 0
M  V30 4875 H 451.379 -1.73998 1.07447 0
M  V30 4876 H 449.534 -3.8686 -0.204458 0
M  V30 4877 H 449.948 -4.95309 1.72538 0
M  V30 4878 H 451.422 -5.51887 0.111488 0
M  V30 4879 H 451.899 -4.2684 -1.03461 0
M  V30 4880 H 452.505 -4.20512 0.636395 0
M  V30 4881 N 450.82 -0.546701 -1.47814 0
M  V30 4882 C 452.066 -0.0187684 -2.02791 0
M  V30 4883 C 452.399 1.32338 -1.42128 0
M  V30 4884 O 451.674 1.85867 -0.573023 0
M  V30 4885 C 451.957 0.0854985 -3.59998 0
M  V30 4886 C 451.81 -1.283 -4.31114 0
M  V30 4887 C 453.129 0.80412 -4.32691 0
M  V30 4888 H 450.248 -0.0082946 -0.736953 0
M  V30 4889 H 452.89 -0.706962 -1.76358 0
M  V30 4890 H 451.04 0.671609 -3.82651 0
M  V30 4891 H 452.712 -1.91151 -4.19832 0
M  V30 4892 H 450.955 -1.86049 -3.91878 0
M  V30 4893 H 451.626 -1.16287 -5.39612 0
M  V30 4894 H 454.102 0.306576 -4.14969 0
M  V30 4895 H 452.978 0.846011 -5.42341 0
M  V30 4896 H 453.239 1.85802 -4.01161 0
M  V30 4897 N 452.299 1.55045 -0.282633 0
M  V30 4898 C 453.546 1.9976 0.33199 0
M  V30 4899 C 453.874 1.17105 1.55295 0
M  V30 4900 O 453.129 0.230599 1.94337 0
M  V30 4901 C 453.428 3.49422 0.750938 0
M  V30 4902 C 453.094 4.4941 -0.366228 0
M  V30 4903 C 451.756 4.76471 -0.672964 0
M  V30 4904 C 454.108 5.09054 -1.11864 0
M  V30 4905 C 451.436 5.60442 -1.73556 0
M  V30 4906 C 453.788 5.9418 -2.17102 0
M  V30 4907 C 452.452 6.19558 -2.48402 0
M  V30 4908 H 451.722 0.730974 0.121484 0
M  V30 4909 H 454.369 1.8732 -0.39791 0
M  V30 4910 H 452.674 3.59377 1.56063 0
M  V30 4911 H 454.371 3.81432 1.23736 0
M  V30 4912 H 450.961 4.2844 -0.117041 0
M  V30 4913 H 455.145 4.88165 -0.894925 0
M  V30 4914 H 450.401 5.78349 -1.983 0
M  V30 4915 H 454.575 6.39427 -2.75873 0
M  V30 4916 H 452.202 6.84417 -3.30874 0
M  V30 4917 N 453.777 0.010035 1.57597 0
M  V30 4918 C 455.007 -0.682422 1.95004 0
M  V30 4919 C 455.415 -1.67278 0.884014 0
M  V30 4920 O 454.758 -1.83129 -0.144672 0
M  V30 4921 C 454.82 -1.46141 3.28456 0
M  V30 4922 C 454.484 -0.631523 4.52615 0
M  V30 4923 C 455.481 0.0850905 5.1983 0
M  V30 4924 C 453.166 -0.574539 4.99003 0
M  V30 4925 C 455.16 0.847566 6.3174 0
M  V30 4926 C 452.847 0.191655 6.10799 0
M  V30 4927 C 453.845 0.901432 6.77025 0
M  V30 4928 O 453.533 1.65511 7.86677 0
M  V30 4929 H 453.265 -0.194361 0.647456 0
M  V30 4930 H 455.819 0.060312 2.05311 0
M  V30 4931 H 454.049 -2.24885 3.14585 0
M  V30 4932 H 455.738 -2.04016 3.50902 0
M  V30 4933 H 456.504 0.0502812 4.84974 0
M  V30 4934 H 452.383 -1.11654 4.47274 0
M  V30 4935 H 455.927 1.4021 6.83364 0
M  V30 4936 H 451.824 0.228249 6.45096 0
M  V30 4937 H 452.592 1.57287 8.03245 0
M  V30 4938 N 455.255 -1.55392 -0.262866 0
M  V30 4939 C 456.188 -1.8391 -1.35101 0
M  V30 4940 C 457.166 -0.692901 -1.47097 0
M  V30 4941 O 458.35 -0.936979 -1.63563 0
M  V30 4942 C 455.477 -2.00969 -2.72634 0
M  V30 4943 C 454.523 -3.23559 -2.7787 0
M  V30 4944 S 455.356 -4.80647 -2.3609 0
M  V30 4945 C 456.512 -5.00692 -3.75578 0
M  V30 4946 H 456.745 -2.75918 -1.1071 0
M  V30 4947 H 454.278 -1.47294 -0.463029 0
M  V30 4948 H 456.236 -2.11482 -3.51832 0
M  V30 4949 H 454.897 -1.09832 -2.94272 0
M  V30 4950 H 454.09 -3.32413 -3.78837 0
M  V30 4951 H 453.692 -3.11689 -2.06702 0
M  V30 4952 H 455.984 -4.87055 -4.70939 0
M  V30 4953 H 456.927 -6.02717 -3.71669 0
M  V30 4954 H 457.335 -4.28619 -3.6735 0
M  V30 4955 N 456.733 0.527833 -1.48498 0
M  V30 4956 C 457.643 1.65907 -1.65867 0
M  V30 4957 C 458.659 1.6537 -0.541192 0
M  V30 4958 O 459.835 1.84282 -0.812534 0
M  V30 4959 C 456.9 3.02364 -1.69637 0
M  V30 4960 C 455.961 3.1374 -2.93028 0
M  V30 4961 C 455.194 4.43688 -2.96609 0
M  V30 4962 O 455.417 5.30913 -2.08538 0
M  V30 4963 O 454.351 4.59475 -3.88802 0
M  V30 4964 H 458.177 1.5419 -2.61647 0
M  V30 4965 H 455.762 0.701163 -1.31924 0
M  V30 4966 H 457.644 3.83515 -1.74625 0
M  V30 4967 H 456.319 3.14401 -0.770312 0
M  V30 4968 H 455.226 2.31877 -2.93571 0
M  V30 4969 H 456.559 3.06621 -3.85026 0
M  V30 4970 N 458.211 1.37122 0.776871 0
M  V30 4971 C 459.488 1.22586 1.52421 0
M  V30 4972 C 459.868 -0.182726 2.10308 0
M  V30 4973 O 459.216 -1.18979 1.9508 0
M  V30 4974 C 459.426 2.31782 2.60918 0
M  V30 4975 C 460.774 2.69071 3.2846 0
M  V30 4976 O 461.798 2.3092 2.71209 0
M  V30 4977 O 460.657 3.3478 4.31954 0
M  V30 4978 H 457.751 0.478045 0.674835 0
M  V30 4979 H 460.297 1.48888 0.814275 0
M  V30 4980 H 459.069 3.26131 2.16227 0
M  V30 4981 H 458.692 2.06916 3.39517 0
M  V30 4982 N 459.689 -1.00246 1.21608 0
M  V30 4983 C 460.919 -1.77373 1.05935 0
M  V30 4984 C 461.327 -1.85059 -0.393686 0
M  V30 4985 O 460.67 -1.31289 -1.28487 0
M  V30 4986 C 460.732 -3.22705 1.58435 0
M  V30 4987 C 460.396 -3.38591 3.06929 0
M  V30 4988 C 461.393 -3.2667 4.04454 0
M  V30 4989 C 459.078 -3.6395 3.46187 0
M  V30 4990 C 461.072 -3.39877 5.39224 0
M  V30 4991 C 458.759 -3.768 4.81108 0
M  V30 4992 C 459.757 -3.6477 5.77436 0
M  V30 4993 O 459.445 -3.77206 7.09909 0
M  V30 4994 H 459.177 -0.56419 0.372378 0
M  V30 4995 H 461.731 -1.26971 1.61454 0
M  V30 4996 H 459.961 -3.74255 0.973147 0
M  V30 4997 H 461.65 -3.81515 1.38568 0
M  V30 4998 H 462.416 -3.06999 3.75468 0
M  V30 4999 H 458.295 -3.72395 2.71741 0
M  V30 5000 H 461.839 -3.30404 6.14393 0
M  V30 5001 H 457.736 -3.95975 5.09779 0
M  V30 5002 H 458.504 -3.94138 7.17355 0
M  V30 5003 N 461.167 -1.02423 -1.1978 0
M  V30 5004 C 462.097 -0.62157 -2.25075 0
M  V30 5005 C 463.078 0.367148 -1.6609 0
M  V30 5006 O 464.263 0.250892 -1.92573 0
M  V30 5007 C 461.393 0.0331826 -3.47284 0
M  V30 5008 C 460.347 -0.877323 -4.18912 0
M  V30 5009 C 459.673 -0.0879296 -5.34628 0
M  V30 5010 C 460.973 -2.18892 -4.74219 0
M  V30 5011 H 462.667 -1.50179 -2.59011 0
M  V30 5012 H 460.213 -0.723547 -1.24502 0
M  V30 5013 H 462.166 0.326488 -4.20133 0
M  V30 5014 H 460.89 0.948164 -3.12534 0
M  V30 5015 H 459.549 -1.15475 -3.47938 0
M  V30 5016 H 459.197 0.828941 -4.96123 0
M  V30 5017 H 458.897 -0.694359 -5.83483 0
M  V30 5018 H 460.421 0.198743 -6.10276 0
M  V30 5019 H 461.835 -1.95746 -5.38847 0
M  V30 5020 H 460.232 -2.74686 -5.33542 0
M  V30 5021 H 461.302 -2.84674 -3.92541 0
M  V30 5022 N 462.645 1.35699 -0.801477 0
M  V30 5023 C 463.873 2.03157 -0.391768 0
M  V30 5024 C 464.288 1.60412 0.995668 0
M  V30 5025 O 463.645 0.799228 1.64069 0
M  V30 5026 C 463.696 3.58566 -0.459671 0
M  V30 5027 O 463.417 3.99756 -1.7924 0
M  V30 5028 C 464.918 4.4328 -0.0421205 0
M  V30 5029 H 462.138 0.651688 -0.159825 0
M  V30 5030 H 464.682 1.73426 -1.08368 0
M  V30 5031 H 462.837 3.86963 0.183939 0
M  V30 5032 H 463.251 4.94387 -1.75162 0
M  V30 5033 H 464.725 5.51821 -0.140754 0
M  V30 5034 H 465.202 4.27383 1.01196 0
M  V30 5035 H 465.808 4.20168 -0.658687 0
M  V30 5036 N 464.123 0.554532 1.47522 0
M  V30 5037 C 465.369 0.0295227 2.02779 0
M  V30 5038 C 465.702 -1.31582 1.42828 0
M  V30 5039 O 464.977 -1.85561 0.582872 0
M  V30 5040 C 465.26 -0.0664057 3.60039 0
M  V30 5041 C 465.113 1.30585 4.30427 0
M  V30 5042 C 466.432 -0.781162 4.33112 0
M  V30 5043 H 463.551 0.0122027 0.736899 0
M  V30 5044 H 466.193 0.716305 1.7598 0
M  V30 5045 H 464.343 -0.651307 3.83002 0
M  V30 5046 H 466.015 1.93374 4.18813 0
M  V30 5047 H 464.258 1.88125 3.90886 0
M  V30 5048 H 464.929 1.19147 5.38988 0
M  V30 5049 H 467.405 -0.284565 4.15126 0
M  V30 5050 H 466.281 -0.817237 5.42782 0
M  V30 5051 H 466.542 -1.83672 4.0214 0
M  V30 5052 N 465.601 -1.54893 0.290851 0
M  V30 5053 C 466.548 -2.23138 -0.58974 0
M  V30 5054 C 467.518 -1.21036 -1.13752 0
M  V30 5055 O 468.703 -1.49626 -1.18392 0
M  V30 5056 C 465.843 -2.96811 -1.76061 0
M  V30 5057 C 464.956 -4.13665 -1.24519 0
M  V30 5058 C 464.091 -4.74944 -2.3791 0
M  V30 5059 C 463.13 -5.83963 -1.83451 0
M  V30 5060 N 462.267 -6.39239 -2.90376 0
M  V30 5061 H 467.107 -2.98 -0.00114915 0
M  V30 5062 H 464.644 -1.47096 0.0112006 0
M  V30 5063 H 466.602 -3.37751 -2.44909 0
M  V30 5064 H 465.232 -2.24344 -2.32098 0
M  V30 5065 H 464.284 -3.77737 -0.449288 0
M  V30 5066 H 465.596 -4.92238 -0.806424 0
M  V30 5067 H 464.75 -5.18684 -3.14724 0
M  V30 5068 H 463.489 -3.95682 -2.85109 0
M  V30 5069 H 462.494 -5.39657 -1.05122 0
M  V30 5070 H 463.719 -6.65103 -1.37169 0
M  V30 5071 H 461.665 -5.62864 -3.36927 0
M  V30 5072 H 461.582 -7.13129 -2.50965 0
M  V30 5073 H 462.85 -6.87637 -3.67118 0
M  V30 5074 N 467.08 -0.0183926 -1.57589 0
M  V30 5075 C 468.308 0.673046 -1.95647 0
M  V30 5076 C 468.723 1.66275 -0.894312 0
M  V30 5077 O 468.08 1.82072 0.124975 0
M  V30 5078 C 468.131 1.38884 -3.33756 0
M  V30 5079 O 467.852 0.438806 -4.35897 0
M  V30 5080 C 469.353 2.1731 -3.86383 0
M  V30 5081 H 466.573 0.186292 -0.644621 0
M  V30 5082 H 469.117 -0.0749748 -2.04363 0
M  V30 5083 H 467.272 2.08835 -3.26293 0
M  V30 5084 H 467.686 0.945869 -5.15901 0
M  V30 5085 H 469.16 2.62863 -4.85394 0
M  V30 5086 H 469.637 3.00764 -3.20059 0
M  V30 5087 H 470.243 1.52339 -3.97081 0
M  V30 5088 N 468.558 1.5553 0.254621 0
M  V30 5089 C 469.806 1.7665 0.981793 0
M  V30 5090 C 470.127 0.580963 1.86145 0
M  V30 5091 O 469.397 -0.403537 1.91699 0
M  V30 5092 H 467.977 0.651475 0.365498 0
M  V30 5093 H 470.639 1.92958 0.274426 0
M  V30 5094 H 469.735 2.67486 1.60802 0
M  V30 5095 N 470.036 -0.519951 1.48776 0
M  V30 5096 C 470.946 -1.65025 1.66745 0
M  V30 5097 C 471.962 -1.6508 0.549954 0
M  V30 5098 O 473.138 -1.83848 0.822295 0
M  V30 5099 C 470.203 -3.0146 1.71238 0
M  V30 5100 C 469.264 -3.12182 2.94688 0
M  V30 5101 C 468.497 -4.42109 2.98958 0
M  V30 5102 O 468.72 -5.29799 2.1135 0
M  V30 5103 O 467.654 -4.57406 3.91233 0
M  V30 5104 H 471.48 -1.52801 2.62461 0
M  V30 5105 H 469.065 -0.694157 1.32294 0
M  V30 5106 H 470.947 -3.82584 1.76657 0
M  V30 5107 H 469.622 -3.13988 0.786975 0
M  V30 5108 H 468.529 -2.30316 2.94797 0
M  V30 5109 H 469.862 -3.04574 3.86646 0
M  V30 5110 N 471.514 -1.37532 -0.769588 0
M  V30 5111 C 472.424 -1.35668 -1.91393 0
M  V30 5112 C 473.44 -0.255954 -1.72107 0
M  V30 5113 O 474.616 -0.491704 -1.95305 0
M  V30 5114 C 471.681 -1.16481 -3.26547 0
M  V30 5115 C 470.742 -2.36212 -3.58472 0
M  V30 5116 C 469.975 -2.17932 -4.87177 0
M  V30 5117 O 470.198 -1.1647 -5.58382 0
M  V30 5118 O 469.132 -3.06167 -5.18214 0
M  V30 5119 H 472.958 -2.32055 -1.95918 0
M  V30 5120 H 470.543 -1.18284 -0.912641 0
M  V30 5121 H 472.425 -1.07778 -4.07384 0
M  V30 5122 H 471.1 -0.231687 -3.2287 0
M  V30 5123 H 470.007 -2.50488 -2.77861 0
M  V30 5124 H 471.34 -3.281 -3.66894 0
M  V30 5125 N 472.992 0.995999 -1.22138 0
M  V30 5126 C 474.241 1.72928 -1.03821 0
M  V30 5127 C 474.554 1.90872 0.427444 0
M  V30 5128 O 475.76 2.61496 0.730212 0
M  V30 5129 C 474.216 3.11124 -1.80913 0
M  V30 5130 C 473.824 3.01122 -3.31707 0
M  V30 5131 C 475.568 3.8852 -1.71035 0
M  V30 5132 C 473.475 4.34453 -4.01253 0
M  V30 5133 H 472.405 0.648376 -0.384869 0
M  V30 5134 H 475.056 1.11213 -1.45959 0
M  V30 5135 H 473.438 3.73503 -1.31573 0
M  V30 5136 H 474.612 2.47926 -3.88419 0
M  V30 5137 H 472.927 2.3721 -3.42228 0
M  V30 5138 H 475.524 4.872 -2.20318 0
M  V30 5139 H 475.867 4.1087 -0.670196 0
M  V30 5140 H 476.4 3.32812 -2.17902 0
M  V30 5141 H 473.139 4.17303 -5.05508 0
M  V30 5142 H 472.659 4.87574 -3.49331 0
M  V30 5143 H 474.338 5.03215 -4.06674 0
M  V30 5144 N 474.47 1.03057 1.19235 0
M  V30 5145 C 475.717 0.728019 1.88961 0
M  V30 5146 C 476.045 -0.743515 1.79728 0
M  V30 5147 O 475.3 -1.55729 1.1852 0
M  V30 5148 C 475.599 1.1268 3.39172 0
M  V30 5149 C 475.265 2.5969 3.68608 0
M  V30 5150 C 473.927 2.99854 3.76352 0
M  V30 5151 C 476.279 3.54793 3.81801 0
M  V30 5152 C 473.607 4.34031 3.94758 0
M  V30 5153 C 475.959 4.88675 4.0172 0
M  V30 5154 C 474.623 5.28526 4.07697 0
M  V30 5155 H 473.893 0.266401 0.691456 0
M  V30 5156 H 476.54 1.29373 1.41191 0
M  V30 5157 H 474.845 0.479722 3.88852 0
M  V30 5158 H 476.542 0.870203 3.91444 0
M  V30 5159 H 473.132 2.27575 3.63191 0
M  V30 5160 H 477.316 3.24914 3.7516 0
M  V30 5161 H 472.572 4.6444 3.97625 0
M  V30 5162 H 476.746 5.6228 4.1087 0
M  V30 5163 H 474.373 6.32506 4.21712 0
M  V30 5164 N 475.948 -1.35272 0.808662 0
M  V30 5165 C 477.196 -1.98316 0.389233 0
M  V30 5166 C 477.517 -1.64465 -1.04767 0
M  V30 5167 O 476.787 -0.928175 -1.72516 0
M  V30 5168 H 475.367 -0.733585 0.140935 0
M  V30 5169 H 478.029 -1.6515 1.03496 0
M  V30 5170 H 477.125 -3.08123 0.496631 0
M  V30 5171 N 477.426 -0.562348 -1.47226 0
M  V30 5172 C 478.654 -0.0452275 -2.06851 0
M  V30 5173 C 479.069 1.25078 -1.41424 0
M  V30 5174 O 478.426 1.75156 -0.512513 0
M  V30 5175 C 478.477 0.148674 -3.61194 0
M  V30 5176 O 478.198 -1.09602 -4.24169 0
M  V30 5177 C 479.699 0.702488 -4.37699 0
M  V30 5178 H 476.919 -0.0481775 -0.669268 0
M  V30 5179 H 479.463 -0.777223 -1.89155 0
M  V30 5180 H 477.618 0.830817 -3.78386 0
M  V30 5181 H 478.032 -0.896982 -5.16773 0
M  V30 5182 H 479.506 0.78743 -5.46355 0
M  V30 5183 H 479.983 1.71493 -4.04335 0
M  V30 5184 H 480.589 0.0558772 -4.25263 0
M  V30 5185 N 478.904 1.54736 -0.299062 0
M  V30 5186 C 480.153 1.99279 0.311549 0
M  V30 5187 C 480.466 1.19107 1.55154 0
M  V30 5188 O 481.672 1.53908 2.23662 0
M  V30 5189 C 480.128 3.54768 0.605632 0
M  V30 5190 C 479.736 4.43746 -0.615914 0
M  V30 5191 C 481.48 4.07841 1.17754 0
M  V30 5192 C 479.387 5.90663 -0.29509 0
M  V30 5193 H 478.317 0.744359 0.120187 0
M  V30 5194 H 480.968 1.78919 -0.407464 0
M  V30 5195 H 479.35 3.71021 1.38419 0
M  V30 5196 H 480.524 4.39267 -1.39218 0
M  V30 5197 H 478.839 4.01434 -1.10633 0
M  V30 5198 H 481.436 5.15174 1.43179 0
M  V30 5199 H 481.779 3.58324 2.11918 0
M  V30 5200 H 482.312 3.95123 0.460739 0
M  V30 5201 H 479.051 6.44325 -1.20524 0
M  V30 5202 H 478.571 5.98155 0.44394 0
M  V30 5203 H 480.25 6.46916 0.104048 0
M  V30 5204 N 480.382 0.0267497 1.57577 0
M  V30 5205 C 481.63 -0.651116 1.91324 0
M  V30 5206 C 481.951 -1.72804 0.90353 0
M  V30 5207 O 481.221 -1.95822 -0.0552946 0
M  V30 5208 H 479.801 -0.243491 0.706202 0
M  V30 5209 H 482.463 0.0739935 1.94759 0
M  V30 5210 H 481.559 -1.10536 2.9187 0
M  V30 5211 N 481.861 -1.55662 -0.24637 0
M  V30 5212 C 482.794 -1.85332 -1.33143 0
M  V30 5213 C 483.772 -0.708464 -1.46354 0
M  V30 5214 O 484.956 -0.954274 -1.6256 0
M  V30 5215 C 482.083 -2.0385 -2.70487 0
M  V30 5216 C 481.129 -3.26488 -2.74423 0
M  V30 5217 S 481.962 -4.83124 -2.30979 0
M  V30 5218 C 483.118 -5.04647 -3.70246 0
M  V30 5219 H 483.351 -2.77077 -1.07777 0
M  V30 5220 H 480.884 -1.47776 -0.44738 0
M  V30 5221 H 482.842 -2.15202 -3.49569 0
M  V30 5222 H 481.503 -1.12947 -2.9309 0
M  V30 5223 H 480.696 -3.36413 -3.7529 0
M  V30 5224 H 480.298 -3.13864 -2.03385 0
M  V30 5225 H 482.59 -4.92023 -4.65746 0
M  V30 5226 H 483.533 -6.06625 -3.65255 0
M  V30 5227 H 483.941 -4.32491 -3.62784 0
M  V30 5228 N 483.339 0.512053 -1.4905 0
M  V30 5229 C 484.755 0.84224 -1.35567 0
M  V30 5230 C 484.955 1.97878 -0.380319 0
M  V30 5231 O 484.011 2.51769 0.19201 0
M  V30 5232 C 485.324 1.19286 -2.76028 0
M  V30 5233 C 486.872 1.30171 -2.84648 0
M  V30 5234 C 487.347 1.68568 -4.25851 0
M  V30 5235 N 488.838 1.75638 -4.28609 0
M  V30 5236 C 489.573 2.06769 -5.34821 0
M  V30 5237 N 489.069 2.36201 -6.51292 0
M  V30 5238 N 490.862 2.07927 -5.22229 0
M  V30 5239 H 483.013 -0.237574 -2.11067 0
M  V30 5240 H 485.276 -0.0436747 -0.946993 0
M  V30 5241 H 484.982 0.431199 -3.49047 0
M  V30 5242 H 484.856 2.13889 -3.10695 0
M  V30 5243 H 487.243 2.05411 -2.11873 0
M  V30 5244 H 487.324 0.336457 -2.53578 0
M  V30 5245 H 486.968 0.938824 -4.99148 0
M  V30 5246 H 486.898 2.66174 -4.54377 0
M  V30 5247 H 489.389 1.55097 -3.44606 0
M  V30 5248 H 489.702 2.59112 -7.28066 0
M  V30 5249 H 488.047 2.33681 -6.54536 0
M  V30 5250 H 491.238 1.84403 -4.30248 0
M  V30 5251 H 491.411 2.31856 -6.05101 0
M  V30 5252 N 484.817 1.37938 0.762283 0
M  V30 5253 C 486.228 1.30094 1.33912 0
M  V30 5254 C 486.579 -0.0472026 1.96143 0
M  V30 5255 O 485.704 -0.94917 1.94473 0
M  V30 5256 C 486.299 2.35592 2.43478 0
M  V30 5257 C 484.858 2.31353 2.96905 0
M  V30 5258 C 484.005 2.18919 1.70205 0
M  V30 5259 H 486.956 1.48423 0.561816 0
M  V30 5260 H 486.977 2.00806 3.23199 0
M  V30 5261 H 486.489 3.33701 1.98155 0
M  V30 5262 H 484.59 1.36799 3.46579 0
M  V30 5263 H 484.703 3.25147 3.51875 0
M  V30 5264 H 483.067 1.65624 1.93496 0
M  V30 5265 H 483.85 3.18956 1.26973 0
M  V30 5266 N 486.295 -0.989507 1.22664 0
M  V30 5267 C 487.243 -2.10148 0.997035 0
M  V30 5268 C 488.237 -1.6929 -0.0609783 0
M  V30 5269 O 489.443 -1.79766 0.0917523 0
M  V30 5270 H 485.818 -0.687256 0.305259 0
M  V30 5271 H 487.789 -2.26685 1.94053 0
M  V30 5272 C 486.538 -3.4257 0.595085 0
M  V30 5273 H 485.861 -3.74453 1.40089 0
M  V30 5274 H 487.301 -4.21344 0.473869 0
M  V30 5275 C 485.76 -3.29638 -0.695725 0
M  V30 5276 O 486.29 -3.61709 -1.74727 0
M  V30 5277 N 484.496 -2.82814 -0.668173 0
M  V30 5278 H 484.043 -2.56914 0.18787 0
M  V30 5279 H 484.001 -2.74544 -1.5321 0
M  V30 5280 N 487.773 -1.03688 -1.18687 0
M  V30 5281 C 488.736 -0.629115 -2.20397 0
M  V30 5282 C 489.736 0.311495 -1.57754 0
M  V30 5283 O 490.926 0.0974107 -1.73927 0
M  V30 5284 C 488.058 0.0782231 -3.4081 0
M  V30 5285 H 489.251 -1.52915 -2.57987 0
M  V30 5286 H 486.804 -0.828988 -1.32505 0
M  V30 5287 H 487.539 0.992233 -3.08748 0
M  V30 5288 H 487.324 -0.597776 -3.87517 0
M  V30 5289 H 488.814 0.350156 -4.16129 0
M  V30 5290 N 489.251 1.34841 -0.815825 0
M  V30 5291 C 490.198 2.29644 -0.230664 0
M  V30 5292 C 491.168 1.53253 0.640533 0
M  V30 5293 O 492.353 1.81653 0.583672 0
M  V30 5294 C 489.493 3.39715 0.607275 0
M  V30 5295 C 488.606 4.31056 -0.28538 0
M  V30 5296 C 487.741 5.28225 0.561446 0
M  V30 5297 C 486.78 6.11204 -0.331035 0
M  V30 5298 N 485.917 7.00483 0.476302 0
M  V30 5299 H 490.757 2.79095 -1.0445 0
M  V30 5300 H 488.294 1.37351 -0.526595 0
M  V30 5301 H 490.252 4.02208 1.10835 0
M  V30 5302 H 488.882 2.91517 1.38629 0
M  V30 5303 H 487.934 3.69487 -0.904621 0
M  V30 5304 H 489.246 4.89239 -0.97193 0
M  V30 5305 H 488.4 5.96135 1.12728 0
M  V30 5306 H 487.139 4.70562 1.28153 0
M  V30 5307 H 486.144 5.42232 -0.909069 0
M  V30 5308 H 487.369 6.70947 -1.04912 0
M  V30 5309 H 485.315 6.45296 1.18019 0
M  V30 5310 H 485.232 7.55847 -0.152008 0
M  V30 5311 H 486.5 7.7273 1.02512 0
M  V30 5312 N 490.729 0.570148 1.46925 0
M  V30 5313 C 491.677 -0.183181 2.31878 0
M  V30 5314 C 492.671 -0.896721 1.43719 0
M  V30 5315 O 493.877 -0.816536 1.60414 0
M  V30 5316 H 490.252 -0.077944 0.74795 0
M  V30 5317 H 492.223 0.552312 2.93244 0
M  V30 5318 C 490.972 -1.19172 3.2664 0
M  V30 5319 H 490.295 -0.652088 3.94446 0
M  V30 5320 H 491.735 -1.68946 3.88887 0
M  V30 5321 C 490.194 -2.24627 2.51086 0
M  V30 5322 O 490.724 -3.31773 2.26472 0
M  V30 5323 N 488.93 -1.98898 2.11867 0
M  V30 5324 H 488.477 -1.11777 2.32086 0
M  V30 5325 H 488.435 -2.6967 1.61634 0
M  V30 5326 N 492.207 -1.54576 0.307264 0
M  V30 5327 C 493.155 -2.25208 -0.581723 0
M  V30 5328 C 494.149 -1.26031 -1.13192 0
M  V30 5329 O 495.355 -1.43862 -1.08184 0
M  V30 5330 H 491.73 -0.723173 -0.206214 0
M  V30 5331 H 493.701 -2.98378 0.0364663 0
M  V30 5332 C 492.45 -3.01086 -1.73904 0
M  V30 5333 H 491.773 -3.77208 -1.32491 0
M  V30 5334 H 493.213 -3.5378 -2.33701 0
M  V30 5335 C 491.672 -2.08422 -2.64692 0
M  V30 5336 O 492.202 -1.65636 -3.65961 0
M  V30 5337 N 490.408 -1.74247 -2.32564 0
M  V30 5338 H 489.955 -2.09238 -1.50257 0
M  V30 5339 H 489.913 -1.12524 -2.93574 0
M  V30 5340 N 493.685 -0.035106 -1.57561 0
M  V30 5341 C 495.101 0.321334 -1.56332 0
M  V30 5342 C 495.301 1.72509 -1.04129 0
M  V30 5343 O 494.357 2.4287 -0.690694 0
M  V30 5344 C 495.67 0.164469 -3.0025 0
M  V30 5345 C 497.218 0.236786 -3.12103 0
M  V30 5346 C 497.693 0.10864 -4.57871 0
M  V30 5347 N 499.184 0.165433 -4.62904 0
M  V30 5348 C 499.919 0.0901506 -5.73329 0
M  V30 5349 N 499.415 -0.0365606 -6.9279 0
M  V30 5350 N 501.208 0.144572 -5.61914 0
M  V30 5351 H 493.359 -0.952976 -1.89821 0
M  V30 5352 H 495.622 -0.368537 -0.873432 0
M  V30 5353 H 495.328 -0.802746 -3.42416 0
M  V30 5354 H 495.202 0.932194 -3.655 0
M  V30 5355 H 497.589 1.19446 -2.69845 0
M  V30 5356 H 497.67 -0.561419 -2.49563 0
M  V30 5357 H 497.314 -0.845644 -5.00811 0
M  V30 5358 H 497.244 0.925786 -5.18398 0
M  V30 5359 H 499.735 0.263269 -3.76982 0
M  V30 5360 H 500.048 -0.0871487 -7.72751 0
M  V30 5361 H 498.393 -0.0714256 -6.94963 0
M  V30 5362 H 501.584 0.242006 -4.67474 0
M  V30 5363 H 501.757 0.0824413 -6.47948 0
M  V30 5364 N 495.163 1.55791 0.238111 0
M  V30 5365 C 496.44 1.68798 0.98826 0
M  V30 5366 C 496.82 0.577562 2.03045 0
M  V30 5367 O 496.168 -0.41778 2.24648 0
M  V30 5368 C 496.378 3.09454 1.61367 0
M  V30 5369 C 497.726 3.68335 2.11221 0
M  V30 5370 O 498.75 3.1231 1.71292 0
M  V30 5371 O 497.609 4.6657 2.84561 0
M  V30 5372 H 494.703 0.686881 0.460568 0
M  V30 5373 H 497.249 1.68118 0.231202 0
M  V30 5374 H 496.021 3.81726 0.860295 0
M  V30 5375 H 495.644 3.14182 2.4367 0
M  V30 5376 N 496.642 -0.504142 1.49319 0
M  V30 5377 C 497.572 -1.61473 1.68667 0
M  V30 5378 C 498.553 -1.61455 0.535378 0
M  V30 5379 O 499.738 -1.78245 0.770868 0
M  V30 5380 C 496.868 -2.99971 1.75028 0
M  V30 5381 C 495.822 -3.14854 2.89916 0
M  V30 5382 C 495.148 -4.54671 2.81387 0
M  V30 5383 C 496.448 -2.95176 4.30893 0
M  V30 5384 H 498.142 -1.45535 2.61648 0
M  V30 5385 H 495.688 -0.698711 1.25913 0
M  V30 5386 H 497.641 -3.77562 1.8715 0
M  V30 5387 H 496.365 -3.1699 0.786441 0
M  V30 5388 H 495.024 -2.39687 2.77391 0
M  V30 5389 H 494.672 -4.68562 1.82917 0
M  V30 5390 H 494.372 -4.6557 3.58494 0
M  V30 5391 H 495.896 -5.34327 2.95512 0
M  V30 5392 H 497.31 -3.62538 4.44116 0
M  V30 5393 H 495.707 -3.17549 5.09198 0
M  V30 5394 H 496.777 -1.91332 4.45556 0
M  V30 5395 N 498.12 -1.38341 -0.754957 0
M  V30 5396 C 499.397 -1.24995 -1.50451 0
M  V30 5397 C 499.777 0.149244 -2.10572 0
M  V30 5398 O 499.125 1.15861 -1.96948 0
M  V30 5399 C 499.335 -2.35904 -2.57197 0
M  V30 5400 C 500.683 -2.74262 -3.24138 0
M  V30 5401 O 501.707 -2.35205 -2.67501 0
M  V30 5402 O 500.566 -3.4161 -4.26574 0
M  V30 5403 H 497.66 -0.48872 -0.667144 0
M  V30 5404 H 500.206 -1.50165 -0.790486 0
M  V30 5405 H 498.978 -3.2953 -2.11011 0
M  V30 5406 H 498.601 -2.12291 -3.36182 0
M  V30 5407 N 499.598 0.982988 -1.23187 0
M  V30 5408 C 500.845 1.72392 -1.06241 0
M  V30 5409 C 501.173 1.9032 0.40108 0
M  V30 5410 O 500.428 1.45084 1.31336 0
M  V30 5411 C 500.727 3.12736 -1.73006 0
M  V30 5412 C 500.393 3.14695 -3.22921 0
M  V30 5413 C 499.055 3.14937 -3.63824 0
M  V30 5414 C 501.407 3.10211 -4.1883 0
M  V30 5415 C 498.735 3.08408 -4.99101 0
M  V30 5416 C 501.087 3.05224 -5.54095 0
M  V30 5417 C 499.751 3.03787 -5.94365 0
M  V30 5418 H 499.021 0.630829 -0.388762 0
M  V30 5419 H 501.668 1.15053 -1.53085 0
M  V30 5420 H 499.973 3.73446 -1.18514 0
M  V30 5421 H 501.67 3.68828 -1.57374 0
M  V30 5422 H 498.26 3.15262 -2.90358 0
M  V30 5423 H 502.444 3.09166 -3.8824 0
M  V30 5424 H 497.7 3.05646 -5.29519 0
M  V30 5425 H 501.874 3.00712 -6.28128 0
M  V30 5426 H 499.501 2.98483 -6.99151 0
M  V30 5427 N 501.076 1.04316 1.18135 0
M  V30 5428 C 502.304 0.768117 1.92113 0
M  V30 5429 C 502.719 -0.675057 1.76319 0
M  V30 5430 O 502.076 -1.46038 1.09449 0
M  V30 5431 C 502.127 1.12808 3.43448 0
M  V30 5432 O 501.848 2.5146 3.58747 0
M  V30 5433 C 503.349 0.8779 4.3452 0
M  V30 5434 H 500.569 0.279937 0.609817 0
M  V30 5435 H 503.113 1.39149 1.49859 0
M  V30 5436 H 501.268 0.549623 3.83481 0
M  V30 5437 H 501.682 2.65313 4.52448 0
M  V30 5438 H 503.156 1.17959 5.39249 0
M  V30 5439 H 503.633 -0.187239 4.38801 0
M  V30 5440 H 504.239 1.43977 4.00188 0
M  V30 5441 N 502.554 -1.34406 0.822964 0
M  V30 5442 C 503.803 -1.97542 0.407458 0
M  V30 5443 C 504.116 -1.65973 -1.035 0
M  V30 5444 O 505.322 -2.22598 -1.55442 0
M  V30 5445 C 503.778 -3.53463 0.677623 0
M  V30 5446 C 503.386 -3.93925 2.1337 0
M  V30 5447 C 505.13 -4.23229 0.328284 0
M  V30 5448 C 503.037 -5.42759 2.34876 0
M  V30 5449 H 501.967 -0.739207 0.148623 0
M  V30 5450 H 504.618 -1.53248 1.00932 0
M  V30 5451 H 503 -3.96 0.00558965 0
M  V30 5452 H 504.174 -3.62494 2.8449 0
M  V30 5453 H 502.489 -3.37097 2.44448 0
M  V30 5454 H 505.086 -5.32659 0.466794 0
M  V30 5455 H 505.429 -4.09899 -0.727224 0
M  V30 5456 H 505.962 -3.86169 0.954896 0
M  V30 5457 H 502.701 -5.61075 3.38932 0
M  V30 5458 H 502.221 -5.75704 1.68299 0
M  V30 5459 H 503.9 -6.0944 2.17236 0
M  V30 5460 N 504.032 -0.577932 -1.46621 0
M  V30 5461 C 505.309 0.00495287 -1.95599 0
M  V30 5462 C 505.689 1.46428 -1.5206 0
M  V30 5463 O 505.037 2.1517 -0.769046 0
M  V30 5464 C 505.247 -0.162114 -3.48623 0
M  V30 5465 C 506.595 -0.0274623 -4.24591 0
M  V30 5466 O 507.619 -0.0907067 -3.56084 0
M  V30 5467 O 506.478 0.1122 -5.46385 0
M  V30 5468 H 503.572 0.0525057 -0.825332 0
M  V30 5469 H 506.118 -0.645914 -1.56927 0
M  V30 5470 H 504.89 -1.17679 -3.73185 0
M  V30 5471 H 504.513 0.525407 -3.94113 0
M  V30 5472 N 505.51 1.54411 -0.315457 0
M  V30 5473 C 506.44 2.27002 0.547039 0
M  V30 5474 C 507.421 1.27492 1.12605 0
M  V30 5475 O 508.606 1.5629 1.15269 0
M  V30 5476 C 505.736 3.02171 1.71201 0
M  V30 5477 C 504.69 4.0895 1.26268 0
M  V30 5478 C 504.016 4.71915 2.51396 0
M  V30 5479 C 505.316 5.20891 0.383419 0
M  V30 5480 H 507.01 2.99343 -0.0584517 0
M  V30 5481 H 504.556 1.4397 -0.0295527 0
M  V30 5482 H 506.509 3.51681 2.32161 0
M  V30 5483 H 505.233 2.27433 2.34397 0
M  V30 5484 H 503.892 3.60312 0.676062 0
M  V30 5485 H 503.54 3.93801 3.12937 0
M  V30 5486 H 503.24 5.44039 2.22026 0
M  V30 5487 H 504.764 5.24195 3.13133 0
M  V30 5488 H 506.178 5.66206 0.899082 0
M  V30 5489 H 504.575 5.99821 0.182857 0
M  V30 5490 H 505.645 4.81324 -0.587821 0
M  V30 5491 N 506.988 0.0434614 1.5754 0
M  V30 5492 C 508.265 -0.671479 1.83713 0
M  V30 5493 C 508.645 -1.89495 0.930315 0
M  V30 5494 O 507.993 -2.28498 -0.0105639 0
M  V30 5495 C 508.203 -1.0361 3.33266 0
M  V30 5496 C 509.551 -1.42167 4.00092 0
M  V30 5497 O 510.575 -1.12866 3.37846 0
M  V30 5498 O 509.434 -1.96817 5.09829 0
M  V30 5499 H 506.528 -0.330726 0.75799 0
M  V30 5500 H 509.074 0.0722373 1.69546 0
M  V30 5501 H 507.846 -0.165938 3.90948 0
M  V30 5502 H 507.469 -1.83751 3.52592 0
M  V30 5503 N 508.466 -1.55915 -0.229846 0
M  V30 5504 C 509.713 -1.78542 -0.955452 0
M  V30 5505 C 510.041 -0.610785 -1.84661 0
M  V30 5506 O 509.296 0.405213 -1.91459 0
M  V30 5507 C 509.595 -3.06845 -1.8325 0
M  V30 5508 C 509.261 -4.37395 -1.09528 0
M  V30 5509 C 507.923 -4.72868 -0.891598 0
M  V30 5510 C 510.275 -5.18029 -0.574046 0
M  V30 5511 C 507.603 -5.86496 -0.154655 0
M  V30 5512 C 509.955 -6.32423 0.149513 0
M  V30 5513 C 508.619 -6.66504 0.364519 0
M  V30 5514 H 507.889 -0.653333 -0.349625 0
M  V30 5515 H 510.536 -1.90183 -0.224235 0
M  V30 5516 H 508.841 -2.90291 -2.63132 0
M  V30 5517 H 510.538 -3.21553 -2.39592 0
M  V30 5518 H 507.128 -4.09538 -1.26399 0
M  V30 5519 H 511.312 -4.91066 -0.718899 0
M  V30 5520 H 506.568 -6.11396 0.0222356 0
M  V30 5521 H 510.742 -6.94137 0.560947 0
M  V30 5522 H 508.369 -7.54397 0.937495 0
M  V30 5523 N 509.944 0.496216 -1.49584 0
M  V30 5524 C 510.891 1.59722 -1.66606 0
M  V30 5525 C 511.861 1.58158 -0.507477 0
M  V30 5526 O 513.046 1.76072 -0.735076 0
M  V30 5527 C 510.186 2.97844 -1.74308 0
M  V30 5528 C 509.299 3.09388 -3.01502 0
M  V30 5529 C 508.434 4.38271 -3.00153 0
M  V30 5530 C 507.473 4.43466 -4.21906 0
M  V30 5531 N 506.61 5.63784 -4.1844 0
M  V30 5532 H 511.45 1.44515 -2.60613 0
M  V30 5533 H 508.987 0.703048 -1.29212 0
M  V30 5534 H 510.945 3.77907 -1.76754 0
M  V30 5535 H 509.575 3.11743 -0.837619 0
M  V30 5536 H 508.627 2.22357 -3.08645 0
M  V30 5537 H 509.939 3.09085 -3.91494 0
M  V30 5538 H 509.093 5.2666 -3.01188 0
M  V30 5539 H 507.832 4.41146 -2.07947 0
M  V30 5540 H 506.837 3.53478 -4.21109 0
M  V30 5541 H 508.062 4.42303 -5.1531 0
M  V30 5542 H 506.008 5.67491 -3.29074 0
M  V30 5543 H 505.925 5.65118 -5.02173 0
M  V30 5544 H 507.193 6.54367 -4.23585 0
M  V30 5545 N 511.423 1.38739 0.74761 0
M  V30 5546 C 512.671 1.35007 1.50391 0
M  V30 5547 C 512.992 -0.0574274 1.94915 0
M  V30 5548 O 512.262 -1.00628 1.6808 0
M  V30 5549 H 510.842 0.496784 0.557866 0
M  V30 5550 H 513.504 1.73479 0.888319 0
M  V30 5551 H 512.6 2.00474 2.392 0
M  V30 5552 N 512.901 -0.976442 1.23707 0
M  V30 5553 C 513.833 -2.07212 0.979574 0
M  V30 5554 C 514.846 -1.6273 -0.0478528 0
M  V30 5555 O 516.035 -1.77506 0.18815 0
M  V30 5556 C 513.135 -3.35835 0.45479 0
M  V30 5557 C 512.308 -4.09268 1.54331 0
M  V30 5558 C 511.367 -5.16166 1.02271 0
M  V30 5559 O 510.393 -5.42827 1.71254 0
M  V30 5560 N 511.595 -5.80313 -0.147419 0
M  V30 5561 H 514.36 -2.29878 1.92292 0
M  V30 5562 H 511.921 -1.14343 1.14618 0
M  V30 5563 H 513.913 -4.04597 0.0914631 0
M  V30 5564 H 512.483 -3.10106 -0.394068 0
M  V30 5565 H 511.703 -3.34906 2.07923 0
M  V30 5566 H 512.991 -4.55095 2.27522 0
M  V30 5567 H 512.389 -5.61043 -0.724353 0
M  V30 5568 H 510.946 -6.50231 -0.451972 0
M  V30 5569 N 514.379 -1.04941 -1.1758 0
M  V30 5570 C 515.309 -0.669172 -2.23706 0
M  V30 5571 C 516.29 0.331835 -1.66832 0
M  V30 5572 O 517.475 0.209988 -1.93061 0
M  V30 5573 C 514.605 -0.0404889 -3.47276 0
M  V30 5574 C 513.559 -0.965983 -4.16957 0
M  V30 5575 C 512.885 -0.201312 -5.34321 0
M  V30 5576 C 514.185 -2.28902 -4.69469 0
M  V30 5577 H 515.879 -1.55639 -2.55767 0
M  V30 5578 H 513.425 -0.749793 -1.22939 0
M  V30 5579 H 515.378 0.237298 -4.20731 0
M  V30 5580 H 514.102 0.881658 -3.14475 0
M  V30 5581 H 512.761 -1.22829 -3.45411 0
M  V30 5582 H 512.409 0.723519 -4.97769 0
M  V30 5583 H 512.109 -0.817968 -5.81879 0
M  V30 5584 H 513.633 0.0692499 -6.10561 0
M  V30 5585 H 515.047 -2.07132 -5.34574 0
M  V30 5586 H 513.444 -2.85942 -5.27596 0
M  V30 5587 H 514.514 -2.92937 -3.86414 0
M  V30 5588 N 515.857 1.33968 -0.830081 0
M  V30 5589 C 517.097 1.99879 -0.427521 0
M  V30 5590 C 517.461 1.64355 0.992546 0
M  V30 5591 O 518.662 2.23164 1.49837 0
M  V30 5592 C 516.933 3.51771 -0.631815 0
M  V30 5593 S 518.492 4.37608 -0.323168 0
M  V30 5594 H 515.31 0.692485 -0.161202 0
M  V30 5595 H 517.912 1.63129 -1.07745 0
M  V30 5596 H 516.616 3.75113 -1.66488 0
M  V30 5597 H 516.147 3.93386 0.0325936 0
M  V30 5598 H 518.162 4.88683 0.860432 0
M  V30 5599 N 517.335 0.585699 1.46312 0
M  V30 5600 C 518.245 -0.148236 2.34131 0
M  V30 5601 C 519.261 -0.882972 1.49932 0
M  V30 5602 O 520.437 -0.845484 1.82794 0
M  V30 5603 C 517.502 -1.14714 3.27172 0
M  V30 5604 C 516.563 -0.416746 4.27272 0
M  V30 5605 C 515.796 -1.36806 5.15868 0
M  V30 5606 O 516.019 -2.60475 5.07454 0
M  V30 5607 O 514.953 -0.877018 5.95476 0
M  V30 5608 H 518.779 0.572882 2.98248 0
M  V30 5609 H 516.364 0.346082 1.45336 0
M  V30 5610 H 518.246 -1.72303 3.84564 0
M  V30 5611 H 516.921 -1.84967 2.65648 0
M  V30 5612 H 515.828 0.201061 3.73559 0
M  V30 5613 H 517.161 0.244872 4.9159 0
M  V30 5614 N 518.813 -1.54241 0.323641 0
M  V30 5615 C 519.743 -2.27289 -0.534993 0
M  V30 5616 C 520.724 -1.28087 -1.11927 0
M  V30 5617 O 521.909 -1.56899 -1.14439 0
M  V30 5618 C 519.039 -3.03075 -1.69596 0
M  V30 5619 C 517.993 -4.09614 -1.24098 0
M  V30 5620 C 517.319 -4.73242 -2.4889 0
M  V30 5621 C 518.619 -5.21087 -0.355789 0
M  V30 5622 H 520.313 -2.99308 0.0743257 0
M  V30 5623 H 517.859 -1.43952 0.0371874 0
M  V30 5624 H 519.812 -3.52907 -2.30293 0
M  V30 5625 H 518.536 -2.28673 -2.33187 0
M  V30 5626 H 517.195 -3.60666 -0.656945 0
M  V30 5627 H 516.843 -3.95455 -3.10845 0
M  V30 5628 H 516.543 -5.45209 -2.19138 0
M  V30 5629 H 518.067 -5.25848 -3.10348 0
M  V30 5630 H 519.481 -5.66675 -0.869042 0
M  V30 5631 H 517.878 -5.9991 -0.151045 0
M  V30 5632 H 518.948 -4.81005 0.613339 0
M  V30 5633 N 520.291 -0.0518155 -1.57515 0
M  V30 5634 C 521.516 0.634896 -1.97443 0
M  V30 5635 C 521.941 1.63546 -0.929207 0
M  V30 5636 O 521.299 1.80981 0.107484 0
M  V30 5637 C 521.347 1.29765 -3.36442 0
M  V30 5638 O 520.451 2.41333 -3.34413 0
M  V30 5639 H 519.792 0.164994 -0.643174 0
M  V30 5640 H 522.322 -0.120407 -2.04245 0
M  V30 5641 H 522.332 1.64918 -3.73184 0
M  V30 5642 H 521.007 0.564361 -4.12053 0
M  V30 5643 H 519.584 2.08122 -3.09418 0
M  V30 5644 N 521.769 1.56035 0.221574 0
M  V30 5645 C 523.009 1.80822 0.953038 0
M  V30 5646 C 523.373 0.625316 1.81532 0
M  V30 5647 O 524.574 0.752491 2.58052 0
M  V30 5648 C 522.845 3.10503 1.76983 0
M  V30 5649 S 524.404 3.56604 2.55693 0
M  V30 5650 H 521.222 0.634849 0.320137 0
M  V30 5651 H 523.824 1.94274 0.218619 0
M  V30 5652 H 522.528 3.94636 1.12651 0
M  V30 5653 H 522.059 2.99858 2.54655 0
M  V30 5654 H 524.074 3.1994 3.79279 0
M  V30 5655 N 523.247 -0.488276 1.49845 0
M  V30 5656 C 524.472 -1.26997 1.63971 0
M  V30 5657 C 524.897 -1.85427 0.315994 0
M  V30 5658 O 524.255 -1.66475 -0.718032 0
M  V30 5659 C 524.303 -2.36689 2.72049 0
M  V30 5660 O 523.407 -3.40882 2.32107 0
M  V30 5661 H 522.748 -0.374376 0.548396 0
M  V30 5662 H 525.278 -0.583104 1.96115 0
M  V30 5663 H 525.288 -2.82262 2.94605 0
M  V30 5664 H 523.963 -1.93529 3.68129 0
M  V30 5665 H 522.54 -3.01139 2.19931 0
M  V30 5666 N 524.725 -1.39134 -0.740242 0
M  V30 5667 C 525.953 -1.39334 -1.5295 0
M  V30 5668 C 526.368 0.0135008 -1.88795 0
M  V30 5669 O 525.725 0.983524 -1.5373 0
M  V30 5670 C 525.776 -2.2614 -2.82034 0
M  V30 5671 O 525.497 -3.61345 -2.47712 0
M  V30 5672 C 526.998 -2.34666 -3.76094 0
M  V30 5673 H 524.218 -0.476103 -0.472828 0
M  V30 5674 H 526.762 -1.82883 -0.9151 0
M  V30 5675 H 524.917 -1.86018 -3.39818 0
M  V30 5676 H 525.331 -4.07194 -3.30595 0
M  V30 5677 H 526.805 -2.99663 -4.63579 0
M  V30 5678 H 527.282 -1.36426 -4.17474 0
M  V30 5679 H 527.888 -2.75236 -3.2423 0
M  V30 5680 N 526.204 0.969867 -1.24223 0
M  V30 5681 C 527.481 1.68774 -0.988664 0
M  V30 5682 C 527.861 2.05342 0.489673 0
M  V30 5683 O 527.209 1.75486 1.46345 0
M  V30 5684 C 527.419 2.92135 -1.90941 0
M  V30 5685 C 528.767 3.64422 -2.17903 0
M  V30 5686 O 529.791 3.02188 -1.88576 0
M  V30 5687 O 528.65 4.76446 -2.67697 0
M  V30 5688 H 525.744 0.737736 -0.37373 0
M  V30 5689 H 528.29 1.02415 -1.35312 0
M  V30 5690 H 527.062 2.61788 -2.90831 0
M  V30 5691 H 526.685 3.66228 -1.54798 0
M  V30 5692 N 527.682 1.05563 1.17022 0
M  V30 5693 C 528.912 0.787307 1.91011 0
M  V30 5694 C 529.32 -0.661256 1.77268 0
M  V30 5695 O 528.663 -1.46379 1.10991 0
M  V30 5696 C 528.725 1.09313 3.42478 0
M  V30 5697 C 528.389 2.53863 3.80004 0
M  V30 5698 C 529.386 3.52081 3.82538 0
M  V30 5699 C 527.071 2.88969 4.10855 0
M  V30 5700 C 529.065 4.83449 4.15399 0
M  V30 5701 C 526.752 4.2054 4.43384 0
M  V30 5702 C 527.75 5.17589 4.45635 0
M  V30 5703 O 527.438 6.46799 4.77395 0
M  V30 5704 H 527.17 0.285463 0.61277 0
M  V30 5705 H 529.724 1.41051 1.49311 0
M  V30 5706 H 527.954 0.412833 3.8449 0
M  V30 5707 H 529.643 0.810224 3.97731 0
M  V30 5708 H 530.409 3.26299 3.58823 0
M  V30 5709 H 526.288 2.1409 4.08272 0
M  V30 5710 H 529.832 5.59194 4.1707 0
M  V30 5711 H 525.729 4.46083 4.66563 0
M  V30 5712 H 526.497 6.51677 4.95237 0
M  V30 5713 N 529.16 -1.33526 0.837174 0
M  V30 5714 C 530.576 -1.50727 0.524743 0
M  V30 5715 C 530.776 -1.77792 -0.948279 0
M  V30 5716 O 529.832 -1.83719 -1.73216 0
M  V30 5717 C 531.145 -2.66299 1.39661 0
M  V30 5718 C 532.693 -2.80183 1.39521 0
M  V30 5719 C 533.168 -3.98815 2.25189 0
M  V30 5720 N 534.659 -4.06047 2.2289 0
M  V30 5721 C 535.394 -4.97032 2.85915 0
M  V30 5722 N 534.89 -5.93143 3.57985 0
M  V30 5723 N 536.683 -4.90015 2.75394 0
M  V30 5724 H 528.834 -1.1422 1.79074 0
M  V30 5725 H 531.097 -0.561399 0.763894 0
M  V30 5726 H 530.803 -2.52974 2.4433 0
M  V30 5727 H 530.677 -3.61663 1.07145 0
M  V30 5728 H 533.064 -2.92942 0.356253 0
M  V30 5729 H 533.145 -1.85586 1.76044 0
M  V30 5730 H 532.789 -3.86817 3.29143 0
M  V30 5731 H 532.719 -4.92654 1.86009 0
M  V30 5732 H 535.21 -3.37262 1.70478 0
M  V30 5733 H 535.523 -6.59227 4.03286 0
M  V30 5734 H 533.868 -5.93223 3.62093 0
M  V30 5735 H 537.059 -4.13894 2.18654 0
M  V30 5736 H 537.232 -5.60724 3.24796 0
M  V30 5737 N 530.638 -0.59345 -1.46 0
M  V30 5738 C 531.571 0.182196 -2.27472 0
M  V30 5739 C 532.549 0.886901 -1.36282 0
M  V30 5740 O 533.733 0.898627 -1.65701 0
M  V30 5741 C 530.86 1.26236 -3.14296 0
M  V30 5742 C 529.906 0.662331 -4.21326 0
M  V30 5743 S 530.739 -0.519017 -5.32979 0
M  V30 5744 C 531.895 0.562086 -6.23371 0
M  V30 5745 H 532.128 -0.509056 -2.92909 0
M  V30 5746 H 529.661 -0.380607 -1.49635 0
M  V30 5747 H 531.619 1.88075 -3.64881 0
M  V30 5748 H 530.28 1.92562 -2.48151 0
M  V30 5749 H 529.473 1.47461 -4.81945 0
M  V30 5750 H 529.075 0.119381 -3.73809 0
M  V30 5751 H 531.367 1.44494 -6.61912 0
M  V30 5752 H 532.31 -0.00760776 -7.081 0
M  V30 5753 H 532.718 0.871061 -5.57739 0
M  V30 5754 N 532.116 1.54067 -0.331816 0
M  V30 5755 C 533.532 1.59587 0.0205388 0
M  V30 5756 C 533.732 1.34813 1.49759 0
M  V30 5757 O 532.788 1.13661 2.25471 0
M  V30 5758 C 534.101 2.97959 -0.405103 0
M  V30 5759 C 535.649 3.10964 -0.356454 0
M  V30 5760 C 536.124 4.51694 -0.757384 0
M  V30 5761 N 537.615 4.57709 -0.71111 0
M  V30 5762 C 538.35 5.64729 -0.993427 0
M  V30 5763 N 537.846 6.79652 -1.3433 0
M  V30 5764 N 539.639 5.54546 -0.918442 0
M  V30 5765 H 531.79 1.68426 -1.29407 0
M  V30 5766 H 534.053 0.78819 -0.526745 0
M  V30 5767 H 533.759 3.21115 -1.43451 0
M  V30 5768 H 533.633 3.76524 0.225692 0
M  V30 5769 H 536.02 2.87538 0.663763 0
M  V30 5770 H 536.101 2.34484 -1.02229 0
M  V30 5771 H 535.745 4.75853 -1.77555 0
M  V30 5772 H 535.675 5.26555 -0.0691444 0
M  V30 5773 H 538.166 3.75176 -0.452883 0
M  V30 5774 H 538.479 7.57221 -1.54388 0
M  V30 5775 H 536.824 6.81128 -1.38164 0
M  V30 5776 H 540.015 4.63641 -0.644536 0
M  V30 5777 H 540.188 6.37861 -1.14181 0
M  V30 5778 O 533.633 0.19963 1.60261 0
M  V30 5779 H 534.324 -0.384961 1.89836 0
M  V30 END ATOM
M  V30 BEGIN BOND
M  V30 END BOND
M  V30 END CTAB
M  END
$$$$
