drugbank_target|Q99814 Endothelial PAS domain-containing protein 1 (DB15463)
 OpenBabel12092121203D

  0  0  0     0  0            999 V3000
M  V30 BEGIN CTAB
M  V30 COUNTS 13357 13525 0 0 0
M  V30 BEGIN ATOM
M  V30 1 H -0.908 1.98254 -0.117106 0
M  V30 2 N 0 1.576 0 0
M  V30 3 C 0.933 2.03868 1.02534 0
M  V30 4 C 1.911 0.928543 1.3348 0
M  V30 5 O 3.095 1.19667 1.45644 0
M  V30 6 C 0.222 2.43627 2.35294 0
M  V30 7 C -0.732 3.65373 2.2001 0
M  V30 8 S 0.101 5.13292 1.52614 0
M  V30 9 C 1.257 5.56322 2.86805 0
M  V30 10 H 1.49 2.90518 0.631377 0
M  V30 11 H -0.977 1.52953 0.210867 0
M  V30 12 H 0.981 2.67203 3.11629 0
M  V30 13 H -0.358 1.57376 2.7183 0
M  V30 14 H -1.165 3.90944 3.18086 0
M  V30 15 H -1.563 3.418 1.51819 0
M  V30 16 H 0.729 5.58782 3.83104 0
M  V30 17 H 1.672 6.56266 2.65933 0
M  V30 18 H 2.08 4.83886 2.90714 0
M  V30 19 N 1.4781 -0.272755 1.55222 0
M  V30 20 C 2.7061 -1.02255 1.79865 0
M  V30 21 C 3.1211 -1.79924 0.572088 0
M  V30 22 O 2.4781 -1.76638 -0.458842 0
M  V30 23 C 2.5291 -1.98094 3.02392 0
M  V30 24 O 2.2501 -1.23572 4.20311 0
M  V30 25 C 3.7511 -2.84884 3.39641 0
M  V30 26 H 0.9711 -0.302057 0.599168 0
M  V30 27 H 3.5151 -0.303465 2.02236 0
M  V30 28 H 1.6701 -2.65465 2.82147 0
M  V30 29 H 2.0841 -1.88172 4.89583 0
M  V30 30 H 3.5581 -3.47927 4.28545 0
M  V30 31 H 4.0351 -3.54665 2.59055 0
M  V30 32 H 4.6411 -2.23003 3.62146 0
M  V30 33 N 2.9562 -1.48159 -0.537278 0
M  V30 34 C 3.9192 -1.61665 -1.62472 0
M  V30 35 C 4.9192 -0.490395 -1.5314 0
M  V30 36 O 6.1092 -0.755998 -1.5694 0
M  V30 37 C 3.2412 -1.57997 -3.02076 0
M  V30 38 H 4.4342 -2.58621 -1.51839 0
M  V30 39 H 1.9872 -1.36647 -0.758771 0
M  V30 40 H 2.7222 -0.624913 -3.18222 0
M  V30 41 H 2.5072 -2.39755 -3.10258 0
M  V30 42 H 3.9972 -1.70627 -3.81151 0
M  V30 43 N 4.4343 0.785586 -1.36625 0
M  V30 44 C 5.7113 1.53198 -1.21613 0
M  V30 45 C 6.0913 2.10187 0.196113 0
M  V30 46 O 5.4393 1.94318 1.20219 0
M  V30 47 C 5.6493 2.62388 -2.30116 0
M  V30 48 C 6.9973 3.30167 -2.66974 0
M  V30 49 O 8.0213 2.72674 -2.29188 0
M  V30 50 O 6.8803 4.34077 -3.32023 0
M  V30 51 H 3.9743 0.677865 -0.473738 0
M  V30 52 H 6.5203 0.823739 -1.48367 0
M  V30 53 H 5.2923 2.18299 -3.24748 0
M  V30 54 H 4.9153 3.40827 -2.0475 0
M  V30 55 N 5.9124 1.20967 1.01018 0
M  V30 56 C 6.8594 0.964281 2.09691 0
M  V30 57 C 7.8294 -0.107853 1.65749 0
M  V30 58 O 9.0144 0.0381987 1.90762 0
M  V30 59 C 6.1544 0.52943 3.41015 0
M  V30 60 C 5.2674 1.67043 3.98398 0
M  V30 61 C 4.4024 1.18525 5.17808 0
M  V30 62 C 3.4414 2.29892 5.67288 0
M  V30 63 N 2.5784 1.82546 6.77954 0
M  V30 64 H 7.4184 1.89463 2.30017 0
M  V30 65 H 4.9554 0.944289 1.1279 0
M  V30 66 H 6.9134 0.258588 4.16398 0
M  V30 67 H 5.5434 -0.363919 3.20742 0
M  V30 68 H 4.5954 2.05603 3.20049 0
M  V30 69 H 5.9074 2.50877 4.31117 0
M  V30 70 H 5.0614 0.870762 6.00419 0
M  V30 71 H 3.8004 0.316887 4.86669 0
M  V30 72 H 2.8054 2.6215 4.83278 0
M  V30 73 H 4.0304 3.17216 6.00459 0
M  V30 74 H 1.9764 0.980454 6.48632 0
M  V30 75 H 1.8934 2.59956 7.09901 0
M  V30 76 H 3.1614 1.54115 7.64113 0
M  V30 77 N 7.3905 -1.2043 1.01659 0
M  V30 78 C 8.3005 -2.2689 0.596484 0
M  V30 79 C 9.3165 -1.70107 -0.36599 0
M  V30 80 O 10.4925 -2.00117 -0.226942 0
M  V30 81 C 7.5575 -3.4665 -0.0586659 0
M  V30 82 C 6.6185 -4.18662 0.949751 0
M  V30 83 C 5.8515 -5.32705 0.32577 0
M  V30 84 O 6.0745 -5.63656 -0.874509 0
M  V30 85 O 5.0085 -5.92803 1.04249 0
M  V30 86 H 8.8345 -2.65041 1.4828 0
M  V30 87 H 6.4195 -1.27048 0.786082 0
M  V30 88 H 8.3015 -4.19256 -0.424564 0
M  V30 89 H 6.9765 -3.10375 -0.91918 0
M  V30 90 H 5.8835 -3.48229 1.36702 0
M  V30 91 H 7.2165 -4.58878 1.78023 0
M  V30 92 N 8.8686 -0.792821 -1.36206 0
M  V30 93 C 9.8156 -0.191653 -2.30003 0
M  V30 94 C 10.7856 0.666453 -1.52143 0
M  V30 95 O 11.9706 0.61442 -1.80636 0
M  V30 96 C 9.1106 0.664848 -3.38635 0
M  V30 97 C 8.2236 -0.212175 -4.31479 0
M  V30 98 C 7.3586 0.651022 -5.27196 0
M  V30 99 C 6.3976 -0.227247 -6.11678 0
M  V30 100 N 5.5346 0.595127 -6.99573 0
M  V30 101 H 10.3746 -0.996978 -2.80828 0
M  V30 102 H 7.9116 -0.503206 -1.38225 0
M  V30 103 H 9.8696 1.17645 -4.00269 0
M  V30 104 H 8.4996 1.43557 -2.89122 0
M  V30 105 H 7.5516 -0.841777 -3.70969 0
M  V30 106 H 8.8636 -0.888751 -4.90818 0
M  V30 107 H 8.0176 1.2283 -5.94136 0
M  V30 108 H 6.7566 1.36121 -4.68319 0
M  V30 109 H 5.7616 -0.816904 -5.43697 0
M  V30 110 H 6.9866 -0.93509 -6.72631 0
M  V30 111 H 4.9326 1.28955 -6.432 0
M  V30 112 H 4.8496 -0.0236952 -7.55996 0
M  V30 113 H 6.1176 1.15613 -7.70879 0
M  V30 114 N 10.3467 1.47872 -0.545128 0
M  V30 115 C 11.2937 2.29849 0.2093 0
M  V30 116 C 12.2637 1.38313 0.919707 0
M  V30 117 O 13.4487 1.67277 0.917772 0
M  V30 118 C 10.5887 3.22019 1.24088 0
M  V30 119 C 9.7017 4.2864 0.537778 0
M  V30 120 C 8.8367 5.07973 1.5536 0
M  V30 121 C 7.8757 6.06381 0.8348 0
M  V30 122 N 7.0127 6.78717 1.79688 0
M  V30 123 H 11.8527 2.93845 -0.49591 0
M  V30 124 H 9.3897 1.44848 -0.256389 0
M  V30 125 H 11.3477 3.73868 1.85144 0
M  V30 126 H 9.9777 2.59914 1.91428 0
M  V30 127 H 9.0297 3.7994 -0.187046 0
M  V30 128 H 10.3417 4.98793 -0.0258907 0
M  V30 129 H 9.4957 5.63912 2.23803 0
M  V30 130 H 8.2347 4.37693 2.15118 0
M  V30 131 H 7.2397 5.49631 0.136388 0
M  V30 132 H 8.4647 6.78665 0.24313 0
M  V30 133 H 6.4107 6.11177 2.38326 0
M  V30 134 H 6.3277 7.44998 1.28505 0
M  V30 135 H 7.5957 7.39237 2.47282 0
M  V30 136 N 11.8248 0.280983 1.55075 0
M  V30 137 C 13.2408 -0.0729964 1.59433 0
M  V30 138 C 13.4408 -1.5411 1.29817 0
M  V30 139 O 12.4968 -2.29086 1.06187 0
M  V30 140 C 13.8098 0.306921 2.9913 0
M  V30 141 C 15.3578 0.254023 3.11968 0
M  V30 142 C 15.8328 0.608467 4.5394 0
M  V30 143 N 17.3238 0.560241 4.59799 0
M  V30 144 C 18.0588 0.80722 5.6769 0
M  V30 145 N 17.5548 1.11912 6.83701 0
M  V30 146 N 19.3478 0.735623 5.57266 0
M  V30 147 H 11.4988 1.238 1.7259 0
M  V30 148 H 13.7618 0.500547 0.805082 0
M  V30 149 H 13.4678 1.32816 3.25657 0
M  V30 150 H 13.3418 -0.349363 3.75579 0
M  V30 151 H 15.7288 -0.75794 2.852 0
M  V30 152 H 15.8098 0.944649 2.37718 0
M  V30 153 H 15.4538 1.61814 4.81434 0
M  V30 154 H 15.3838 -0.104013 5.26497 0
M  V30 155 H 17.8748 0.329288 3.76463 0
M  V30 156 H 18.1878 1.29409 7.61888 0
M  V30 157 H 16.5328 1.15695 6.85303 0
M  V30 158 H 19.7238 0.491752 4.6551 0
M  V30 159 H 19.8968 0.931482 6.4127 0
M  V30 160 N 13.3029 -1.57598 0.00835791 0
M  V30 161 C 14.5279 -1.95617 -0.689103 0
M  V30 162 C 14.9529 -0.883753 -1.66046 0
M  V30 163 O 14.3109 0.157352 -1.80616 0
M  V30 164 C 14.3589 -3.32736 -1.38994 0
M  V30 165 O 13.4629 -3.27631 -2.50463 0
M  V30 166 H 12.8039 -0.638379 -0.182668 0
M  V30 167 H 15.3339 -2.045 0.064036 0
M  V30 168 H 15.3439 -3.68494 -1.75147 0
M  V30 169 H 14.0189 -4.1034 -0.677778 0
M  V30 170 H 12.5959 -3.03561 -2.16576 0
M  V30 171 N 14.781 0.264519 -1.55364 0
M  V30 172 C 16.006 1.01726 -1.80739 0
M  V30 173 C 16.431 1.78836 -0.583044 0
M  V30 174 O 15.789 1.75167 0.467566 0
M  V30 175 C 15.837 1.94482 -3.03659 0
M  V30 176 O 14.941 3.03386 -2.7934 0
M  V30 177 H 14.282 0.290395 -0.597132 0
M  V30 178 H 16.812 0.290854 -2.02522 0
M  V30 179 H 16.822 2.36278 -3.32621 0
M  V30 180 H 15.497 1.37772 -3.92418 0
M  V30 181 H 14.074 2.65844 -2.61498 0
M  V30 182 N 16.2591 1.48442 0.529413 0
M  V30 183 C 17.4841 1.60406 1.31471 0
M  V30 184 C 17.9091 0.264738 1.86228 0
M  V30 185 O 17.2671 -0.763668 1.64432 0
M  V30 186 C 17.3151 2.65419 2.44101 0
M  V30 187 O 16.4191 2.22618 3.47153 0
M  V30 188 H 15.7601 0.537863 0.389357 0
M  V30 189 H 18.2901 1.94432 0.636965 0
M  V30 190 H 18.3001 2.86709 2.90279 0
M  V30 191 H 16.9751 3.62652 2.03608 0
M  V30 192 H 15.5521 2.11543 3.0709 0
M  V30 193 N 17.7372 -0.778329 1.37039 0
M  V30 194 C 18.6472 -1.92253 1.34446 0
M  V30 195 C 19.6632 -1.72267 0.244991 0
M  V30 196 O 20.8392 -1.95615 0.479258 0
M  V30 197 C 17.9042 -3.27282 1.144 0
M  V30 198 C 16.9652 -3.59969 2.33925 0
M  V30 199 C 16.1982 -4.88555 2.14825 0
M  V30 200 O 16.4212 -5.59113 1.12912 0
M  V30 201 O 15.3552 -5.20153 3.02861 0
M  V30 202 H 19.1812 -1.97392 2.30803 0
M  V30 203 H 16.7662 -0.920154 1.17701 0
M  V30 204 H 18.6482 -4.08062 1.05182 0
M  V30 205 H 17.3232 -3.23011 0.211124 0
M  V30 206 H 16.2302 -2.7945 2.48714 0
M  V30 207 H 17.5632 -3.68976 3.25757 0
M  V30 208 N 19.2153 -1.21501 -1.00376 0
M  V30 209 C 20.6313 -0.972629 -1.26539 0
M  V30 210 C 20.8313 0.340257 -1.98606 0
M  V30 211 O 19.8873 1.06561 -2.28913 0
M  V30 212 C 21.2003 -2.16404 -2.08781 0
M  V30 213 C 22.7483 -2.20643 -2.22004 0
M  V30 214 C 23.2233 -3.39306 -3.07629 0
M  V30 215 N 24.7143 -3.39401 -3.15217 0
M  V30 216 C 25.4493 -4.27867 -3.81729 0
M  V30 217 N 24.9453 -5.26533 -4.5026 0
M  V30 218 N 26.7383 -4.15672 -3.78382 0
M  V30 219 H 18.8893 -2.05929 -0.520281 0
M  V30 220 H 21.1523 -0.901803 -0.292328 0
M  V30 221 H 20.8583 -3.11554 -1.63178 0
M  V30 222 H 20.7323 -2.15567 -3.09533 0
M  V30 223 H 23.1193 -1.26048 -2.66825 0
M  V30 224 H 23.2003 -2.25523 -1.20718 0
M  V30 225 H 22.8443 -4.34195 -2.63509 0
M  V30 226 H 22.7743 -3.31665 -4.09031 0
M  V30 227 H 25.2653 -2.67997 -2.66432 0
M  V30 228 H 25.5783 -5.90337 -4.98721 0
M  V30 229 H 23.9233 -5.30457 -4.49044 0
M  V30 230 H 27.1143 -3.3785 -3.23998 0
M  V30 231 H 27.2873 -4.84825 -4.2994 0
M  V30 232 N 20.6934 1.19889 -1.02296 0
M  V30 233 C 22.1094 1.41462 -0.738954 0
M  V30 234 C 22.3094 1.89721 0.678846 0
M  V30 235 O 21.3654 2.07016 1.4457 0
M  V30 236 C 22.6784 2.43083 -1.77005 0
M  V30 237 C 24.2264 2.5684 -1.78892 0
M  V30 238 C 24.7014 3.61709 -2.80945 0
M  V30 239 N 26.1924 3.69199 -2.79725 0
M  V30 240 C 26.9274 4.50019 -3.55345 0
M  V30 241 N 26.4234 5.34592 -4.40662 0
M  V30 242 N 28.2164 4.44612 -3.43914 0
M  V30 243 H 20.3674 0.868827 -1.93817 0
M  V30 244 H 22.6304 0.44399 -0.837602 0
M  V30 245 H 22.3364 2.14636 -2.78612 0
M  V30 246 H 22.2104 3.4217 -1.58744 0
M  V30 247 H 24.5974 2.84614 -0.779674 0
M  V30 248 H 24.6784 1.57927 -2.01228 0
M  V30 249 H 24.3224 3.34678 -3.82038 0
M  V30 250 H 24.2524 4.60259 -2.5587 0
M  V30 251 H 26.7434 3.08794 -2.17842 0
M  V30 252 H 27.0564 5.93363 -4.95116 0
M  V30 253 H 25.4014 5.34073 -4.44737 0
M  V30 254 H 28.5924 3.7758 -2.76679 0
M  V30 255 H 28.7654 5.0736 -4.031 0
M  V30 256 N 22.1715 0.800033 1.35784 0
M  V30 257 C 23.1185 0.203848 2.29898 0
M  V30 258 C 24.0885 -0.658375 1.52495 0
M  V30 259 O 25.2735 -0.604832 1.8096 0
M  V30 260 C 22.4135 -0.64688 3.38983 0
M  V30 261 C 21.5265 0.235054 4.3136 0
M  V30 262 C 20.6615 -0.623054 5.27533 0
M  V30 263 C 19.7005 0.259682 6.11549 0
M  V30 264 N 18.8375 -0.558019 6.99879 0
M  V30 265 H 23.6775 1.01186 2.80295 0
M  V30 266 H 21.2145 0.51053 1.37957 0
M  V30 267 H 23.1725 -1.15521 4.00887 0
M  V30 268 H 21.8025 -1.42021 2.89879 0
M  V30 269 H 20.8545 0.861438 3.70518 0
M  V30 270 H 22.1665 0.914768 4.9034 0
M  V30 271 H 21.3205 -1.19678 5.94779 0
M  V30 272 H 20.0595 -1.33636 4.69034 0
M  V30 273 H 19.0645 0.845726 5.43256 0
M  V30 274 H 20.2895 0.970748 6.72126 0
M  V30 275 H 18.2355 -1.25542 6.43875 0
M  V30 276 H 18.1525 0.0637872 7.55973 0
M  V30 277 H 19.4205 -1.11523 7.71481 0
M  V30 278 N 23.6496 -1.47581 0.552962 0
M  V30 279 C 24.5596 -2.33743 -0.200353 0
M  V30 280 C 25.5756 -1.47928 -0.916151 0
M  V30 281 O 26.7516 -1.80865 -0.885993 0
M  V30 282 C 23.8166 -3.24536 -1.21973 0
M  V30 283 C 22.8776 -4.26238 -0.511819 0
M  V30 284 C 22.1106 -5.12693 -1.48263 0
M  V30 285 O 22.3336 -5.01525 -2.71714 0
M  V30 286 O 21.2676 -5.93375 -1.00945 0
M  V30 287 H 25.0936 -2.9945 0.506304 0
M  V30 288 H 22.6786 -1.46071 0.313622 0
M  V30 289 H 24.5606 -3.80631 -1.80827 0
M  V30 290 H 23.2356 -2.61462 -1.90839 0
M  V30 291 H 22.1426 -3.73914 0.117799 0
M  V30 292 H 23.4756 -4.92014 0.135308 0
M  V30 293 N 25.1277 -0.289203 -1.54924 0
M  V30 294 C 26.0747 0.592115 -2.23075 0
M  V30 295 C 27.0447 1.13881 -1.20915 0
M  V30 296 O 28.2297 1.18551 -1.495 0
M  V30 297 C 25.3697 1.76376 -2.96623 0
M  V30 298 C 24.4827 1.24959 -4.13533 0
M  V30 299 C 23.6177 2.38416 -4.74691 0
M  V30 300 C 22.6567 1.84072 -5.83767 0
M  V30 301 N 21.7937 2.91057 -6.38929 0
M  V30 302 H 26.6337 0.00432038 -2.98 0
M  V30 303 H 24.1707 -0.00963529 -1.47097 0
M  V30 304 H 26.1287 2.45268 -3.3749 0
M  V30 305 H 24.7587 2.32337 -2.24097 0
M  V30 306 H 23.8107 0.453307 -3.77689 0
M  V30 307 H 25.1227 0.811662 -4.92152 0
M  V30 308 H 24.2767 3.15276 -5.18349 0
M  V30 309 H 23.0157 2.8553 -3.95378 0
M  V30 310 H 22.0207 1.05697 -5.39545 0
M  V30 311 H 23.2457 1.37877 -6.64956 0
M  V30 312 H 21.1917 3.37526 -5.62505 0
M  V30 313 H 21.1087 2.51724 -7.12861 0
M  V30 314 H 22.3767 3.6785 -6.87246 0
M  V30 315 N 26.6058 1.57591 -0.0167156 0
M  V30 316 C 27.8308 1.9598 0.67872 0
M  V30 317 C 28.2558 0.892546 1.65575 0
M  V30 318 O 27.6138 -0.147772 1.80697 0
M  V30 319 C 27.6618 3.33468 1.37227 0
M  V30 320 O 26.7658 3.28954 2.48722 0
M  V30 321 H 26.1068 0.639339 0.17928 0
M  V30 322 H 28.6368 2.04463 -0.0748802 0
M  V30 323 H 28.6468 3.69417 1.7319 0
M  V30 324 H 27.3218 4.10694 0.656007 0
M  V30 325 H 25.8988 3.04705 2.14963 0
M  V30 326 N 28.0839 -0.256276 1.55502 0
M  V30 327 C 29.4999 -0.604325 1.47716 0
M  V30 328 C 29.6999 -1.88763 0.705039 0
M  V30 329 O 28.7559 -2.51445 0.230613 0
M  V30 330 C 30.0689 -0.715756 2.92057 0
M  V30 331 C 31.6169 -0.808706 3.02372 0
M  V30 332 C 32.0919 -0.951777 4.48001 0
M  V30 333 N 33.5829 -1.01688 4.519 0
M  V30 334 C 34.3179 -1.14668 5.61817 0
M  V30 335 N 33.8139 -1.24261 6.81565 0
M  V30 336 N 35.6069 -1.1791 5.49594 0
M  V30 337 H 27.7579 0.586291 2.04148 0
M  V30 338 H 30.0209 0.201015 0.926443 0
M  V30 339 H 29.7269 0.157027 3.51349 0
M  V30 340 H 29.6009 -1.59071 3.42018 0
M  V30 341 H 31.9879 -1.67195 2.43166 0
M  V30 342 H 32.0689 0.0912063 2.55637 0
M  V30 343 H 31.7129 -0.0931291 5.07815 0
M  V30 344 H 31.6429 -1.86659 4.92408 0
M  V30 345 H 34.1339 -0.954468 3.65648 0
M  V30 346 H 34.4469 -1.34046 7.61086 0
M  V30 347 H 32.7919 -1.21236 6.84344 0
M  V30 348 H 35.9829 -1.10057 4.54978 0
M  V30 349 H 36.1559 -1.27681 6.35296 0
M  V30 350 N 29.562 -1.4872 -0.521534 0
M  V30 351 C 30.839 -1.4766 -1.2828 0
M  V30 352 C 31.219 -0.19292 -2.10217 0
M  V30 353 O 30.567 0.825193 -2.13079 0
M  V30 354 C 30.777 -2.74358 -2.15705 0
M  V30 355 C 32.125 -3.23028 -2.75569 0
M  V30 356 O 33.149 -2.75333 -2.25987 0
M  V30 357 O 32.008 -4.0604 -3.65778 0
M  V30 358 H 29.102 -0.590085 -0.579421 0
M  V30 359 H 31.648 -1.60963 -0.537492 0
M  V30 360 H 30.42 -3.59292 -1.54999 0
M  V30 361 H 30.043 -2.63816 -2.97467 0
M  V30 362 N 31.0401 0.771051 -1.3745 0
M  V30 363 C 32.0031 1.86598 -1.33093 0
M  V30 364 C 33.0031 1.59076 -0.234845 0
M  V30 365 O 34.1931 1.67145 -0.490732 0
M  V30 366 C 31.3251 3.23747 -1.06773 0
M  V30 367 H 32.5181 1.91873 -2.30488 0
M  V30 368 H 30.0711 0.970876 -1.2249 0
M  V30 369 H 30.8061 3.24148 -0.099129 0
M  V30 370 H 30.5911 3.45115 -1.86112 0
M  V30 371 H 32.0811 4.03824 -1.06377 0
M  V30 372 N 32.5182 1.22032 0.997298 0
M  V30 373 C 33.4812 0.987909 2.06816 0
M  V30 374 C 34.4812 -0.0440084 1.6074 0
M  V30 375 O 35.6712 0.194053 1.73116 0
M  V30 376 C 32.8032 0.49132 3.37341 0
M  V30 377 H 33.9962 1.93803 2.28868 0
M  V30 378 H 31.5492 1.03838 1.16822 0
M  V30 379 H 32.2842 -0.463364 3.20973 0
M  V30 380 H 32.0692 1.23575 3.72118 0
M  V30 381 H 33.5592 0.348824 4.16141 0
M  V30 382 N 33.9963 -1.19345 1.0293 0
M  V30 383 C 35.4123 -1.41069 0.746446 0
M  V30 384 C 35.6123 -1.90078 -0.668776 0
M  V30 385 O 34.6683 -2.0778 -1.4347 0
M  V30 386 C 35.9813 -2.42141 1.78292 0
M  V30 387 C 37.5293 -2.55887 1.80252 0
M  V30 388 C 38.0043 -3.60214 2.8286 0
M  V30 389 N 39.4953 -3.67711 2.81679 0
M  V30 390 C 40.2303 -4.48128 3.57727 0
M  V30 391 N 39.7263 -5.32248 4.43491 0
M  V30 392 N 41.5193 -4.42782 3.46267 0
M  V30 393 H 33.6703 -0.858536 1.94275 0
M  V30 394 H 35.9333 -0.439541 0.839945 0
M  V30 395 H 35.6393 -2.13155 2.79746 0
M  V30 396 H 35.5133 -3.41323 1.60557 0
M  V30 397 H 37.9003 -2.84196 0.794757 0
M  V30 398 H 37.9813 -1.56858 2.02062 0
M  V30 399 H 37.6253 -3.32647 3.83807 0
M  V30 400 H 37.5553 -4.58895 2.58307 0
M  V30 401 H 40.0463 -3.07634 2.19476 0
M  V30 402 H 40.3593 -5.90729 4.98256 0
M  V30 403 H 38.7043 -5.31707 4.47564 0
M  V30 404 H 41.8953 -3.76107 2.78677 0
M  V30 405 H 42.0683 -5.05215 4.05785 0
M  V30 406 N 35.4744 -0.807222 -1.35358 0
M  V30 407 C 36.7144 -0.393534 -2.00576 0
M  V30 408 C 37.0784 1.0203 -1.62647 0
M  V30 409 O 38.2794 1.53603 -2.20589 0
M  V30 410 C 36.5504 -0.572017 -3.52793 0
M  V30 411 S 38.1094 -0.248845 -4.38094 0
M  V30 412 H 34.9274 -0.149425 -0.695121 0
M  V30 413 H 37.5294 -1.04961 -1.64935 0
M  V30 414 H 36.2334 -1.60097 -3.77885 0
M  V30 415 H 35.7644 0.099359 -3.93275 0
M  V30 416 H 37.7794 0.943253 -4.87152 0
M  V30 417 N 36.9525 1.47285 -0.560781 0
M  V30 418 C 38.3685 1.58065 -0.22081 0
M  V30 419 C 38.5685 1.55892 1.27671 0
M  V30 420 O 37.6245 1.46422 2.0571 0
M  V30 421 C 38.9375 2.88418 -0.850625 0
M  V30 422 C 40.4855 3.02009 -0.822184 0
M  V30 423 C 40.9605 4.35066 -1.43113 0
M  V30 424 N 42.4515 4.41711 -1.39448 0
M  V30 425 C 43.1865 5.43237 -1.83525 0
M  V30 426 N 42.6825 6.51555 -2.35474 0
M  V30 427 N 44.4755 5.34304 -1.74574 0
M  V30 428 H 36.6265 1.46941 -1.53369 0
M  V30 429 H 38.8895 0.699558 -0.639783 0
M  V30 430 H 38.5955 2.95755 -1.9032 0
M  V30 431 H 38.4695 3.75612 -0.345773 0
M  V30 432 H 40.8565 2.94266 0.221714 0
M  V30 433 H 40.9375 2.16347 -1.36483 0
M  V30 434 H 40.5815 4.43565 -2.47412 0
M  V30 435 H 40.5115 5.19465 -0.863899 0
M  V30 436 H 43.0025 3.64027 -1.01452 0
M  V30 437 H 43.3155 7.25203 -2.67021 0
M  V30 438 H 41.6605 6.52435 -2.39487 0
M  V30 439 H 44.8515 4.48581 -1.33763 0
M  V30 440 H 45.0245 6.13288 -2.09242 0
M  V30 441 N 38.4306 0.297415 1.54768 0
M  V30 442 C 39.8466 -0.0560823 1.59501 0
M  V30 443 C 40.0466 -1.52725 1.31444 0
M  V30 444 O 39.1026 -2.27947 1.08611 0
M  V30 445 C 40.4156 0.338631 2.98787 0
M  V30 446 C 41.9636 0.287097 3.11681 0
M  V30 447 C 42.4386 0.656579 4.53269 0
M  V30 448 N 43.9296 0.608977 4.59179 0
M  V30 449 C 44.6646 0.867385 5.66802 0
M  V30 450 N 44.1606 1.19157 6.82476 0
M  V30 451 N 45.9536 0.794687 5.56454 0
M  V30 452 H 38.1046 1.25624 1.71267 0
M  V30 453 H 40.3676 0.509057 0.799728 0
M  V30 454 H 40.0736 1.36263 3.2423 0
M  V30 455 H 39.9476 -0.309508 3.75928 0
M  V30 456 H 42.3346 -0.727649 2.85988 0
M  V30 457 H 42.4156 0.969809 2.36703 0
M  V30 458 H 42.0596 1.66912 4.7969 0
M  V30 459 H 41.9896 -0.0481649 5.26578 0
M  V30 460 H 44.4806 0.369198 3.76092 0
M  V30 461 H 44.7936 1.37482 7.60473 0
M  V30 462 H 43.1386 1.22958 6.84037 0
M  V30 463 H 46.3296 0.541098 4.64962 0
M  V30 464 H 46.5026 0.999445 6.40246 0
M  V30 465 N 39.9087 -1.5758 0.0250728 0
M  V30 466 C 41.1337 -1.96337 -0.668317 0
M  V30 467 C 41.5587 -0.901314 -1.651 0
M  V30 468 O 40.9167 0.138187 -1.80773 0
M  V30 469 C 40.9647 -3.34191 -1.35457 0
M  V30 470 O 40.0687 -3.30269 -2.46974 0
M  V30 471 H 39.4097 -0.640281 -0.175887 0
M  V30 472 H 41.9397 -2.0442 0.0857224 0
M  V30 473 H 41.9497 -3.70331 -1.71228 0
M  V30 474 H 40.6247 -4.11036 -0.634218 0
M  V30 475 H 39.2017 -3.05841 -2.13344 0
M  V30 476 N 41.3868 0.248026 -1.55636 0
M  V30 477 C 42.3338 1.30707 -1.90222 0
M  V30 478 C 43.3038 1.47881 -0.756332 0
M  V30 479 O 44.4888 1.61883 -1.00988 0
M  V30 480 C 41.6288 2.65769 -2.20138 0
M  V30 481 C 40.7418 2.56612 -3.47526 0
M  V30 482 C 39.8768 3.8402 -3.67017 0
M  V30 483 C 38.9158 3.69476 -4.8801 0
M  V30 484 N 38.0528 4.88774 -5.04029 0
M  V30 485 H 42.8928 1.00512 -2.80538 0
M  V30 486 H 40.4298 0.485055 -1.38873 0
M  V30 487 H 42.3878 3.44386 -2.35487 0
M  V30 488 H 41.0178 2.94115 -1.33027 0
M  V30 489 H 40.0698 1.69571 -3.40514 0
M  V30 490 H 41.3818 2.41774 -4.36287 0
M  V30 491 H 40.5358 4.7108 -3.8232 0
M  V30 492 H 39.2748 4.01754 -2.76487 0
M  V30 493 H 38.2798 2.80799 -4.72686 0
M  V30 494 H 39.5048 3.53238 -5.8 0
M  V30 495 H 37.4508 5.0687 -4.16435 0
M  V30 496 H 37.3678 4.76562 -5.86877 0
M  V30 497 H 38.6358 5.77335 -5.23741 0
M  V30 498 N 42.8649 1.48995 0.513639 0
M  V30 499 C 43.7749 1.67443 1.64317 0
M  V30 500 C 44.7909 0.556947 1.64846 0
M  V30 501 O 45.9669 0.830082 1.83498 0
M  V30 502 C 43.0319 1.72515 3.00732 0
M  V30 503 C 42.0929 2.96009 3.1093 0
M  V30 504 C 41.3259 3.00829 4.40837 0
M  V30 505 O 41.5489 2.13594 5.28898 0
M  V30 506 O 40.4829 3.93168 4.55744 0
M  V30 507 H 44.3089 2.63106 1.51687 0
M  V30 508 H 41.8939 1.32588 0.688543 0
M  V30 509 H 43.7759 1.78277 3.81831 0
M  V30 510 H 42.4509 0.800278 3.13651 0
M  V30 511 H 41.3579 2.9577 2.29065 0
M  V30 512 H 42.6909 3.87934 3.02933 0
M  V30 513 N 44.343 -0.763751 1.37857 0
M  V30 514 C 45.571 -1.55293 1.36718 0
M  V30 515 C 45.986 -1.88745 -0.0455434 0
M  V30 516 O 45.343 -1.52039 -1.00947 0
M  V30 517 C 45.394 -2.85831 2.2132 0
M  V30 518 O 45.115 -2.5381 3.57089 0
M  V30 519 C 46.616 -3.80023 2.28249 0
M  V30 520 H 43.836 -0.480841 0.468009 0
M  V30 521 H 46.38 -0.946009 1.81303 0
M  V30 522 H 44.535 -3.42926 1.80223 0
M  V30 523 H 44.949 -3.37459 4.01524 0
M  V30 524 H 46.423 -4.68599 2.91752 0
M  V30 525 H 46.9 -4.1973 1.2932 0
M  V30 526 H 47.506 -3.28855 2.69693 0
M  V30 527 N 45.8211 -1.22559 -0.990812 0
M  V30 528 C 46.7311 -1.01394 -2.11557 0
M  V30 529 C 47.7471 0.0383962 -1.73958 0
M  V30 530 O 48.9231 -0.154787 -2.00804 0
M  V30 531 C 45.9881 -0.596569 -3.41529 0
M  V30 532 C 45.0491 -1.72276 -3.93217 0
M  V30 533 C 44.2821 -1.32521 -5.16985 0
M  V30 534 O 44.5051 -0.204909 -5.70032 0
M  V30 535 O 43.4391 -2.14247 -5.62478 0
M  V30 536 H 47.2651 -1.95633 -2.32296 0
M  V30 537 H 44.8501 -1.01172 -1.0993 0
M  V30 538 H 46.7321 -0.374263 -4.19735 0
M  V30 539 H 45.4071 0.316939 -3.22145 0
M  V30 540 H 44.3141 -1.99961 -3.16174 0
M  V30 541 H 45.6471 -2.61421 -4.17037 0
M  V30 542 N 47.2992 1.18797 -1.03562 0
M  V30 543 C 48.5452 1.8893 -0.737113 0
M  V30 544 C 48.8782 1.79837 0.732956 0
M  V30 545 O 48.1532 1.19525 1.5344 0
M  V30 546 C 48.4362 3.39607 -1.19745 0
M  V30 547 C 48.2892 3.57537 -2.72924 0
M  V30 548 C 49.6082 4.33069 -0.783526 0
M  V30 549 H 46.7272 0.686057 -0.269249 0
M  V30 550 H 49.3692 1.39797 -1.28673 0
M  V30 551 H 47.5192 3.81583 -0.729855 0
M  V30 552 H 49.1912 3.24688 -3.27682 0
M  V30 553 H 47.4342 3.00363 -3.12993 0
M  V30 554 H 48.1052 4.63238 -3.00191 0
M  V30 555 H 50.5812 3.98846 -1.18581 0
M  V30 556 H 49.4572 5.3707 -1.13343 0
M  V30 557 H 49.7182 4.40986 0.313681 0
M  V30 558 N 48.7773 0.814389 1.34928 0
M  V30 559 C 50.0243 0.398423 1.98542 0
M  V30 560 C 50.3523 -1.03638 1.64589 0
M  V30 561 O 49.6073 -1.73509 0.90516 0
M  V30 562 C 49.9063 0.537781 3.53331 0
M  V30 563 C 49.5723 1.93704 4.07172 0
M  V30 564 C 48.2343 2.31984 4.21589 0
M  V30 565 C 50.5863 2.85213 4.36237 0
M  V30 566 C 47.9143 3.61125 4.62391 0
M  V30 567 C 50.2663 4.13809 4.78482 0
M  V30 568 C 48.9303 4.52077 4.91104 0
M  V30 569 H 48.2003 0.145793 0.726516 0
M  V30 570 H 50.8473 1.03669 1.61012 0
M  V30 571 H 49.1523 -0.183906 3.91368 0
M  V30 572 H 50.8493 0.196588 4.00518 0
M  V30 573 H 47.4393 1.62966 3.96409 0
M  V30 574 H 51.6233 2.56885 4.24645 0
M  V30 575 H 46.8793 3.90612 4.70353 0
M  V30 576 H 51.0533 4.84811 4.99932 0
M  V30 577 H 48.6803 5.52196 5.22478 0
M  V30 578 N 50.2554 -1.46986 0.568584 0
M  V30 579 C 51.4854 -2.0653 0.0539173 0
M  V30 580 C 51.8934 -1.42004 -1.25026 0
M  V30 581 O 51.2364 -0.514541 -1.76347 0
M  V30 582 C 51.2984 -3.58938 -0.200854 0
M  V30 583 C 50.9624 -4.45572 1.01559 0
M  V30 584 C 51.9594 -4.82986 1.92407 0
M  V30 585 C 49.6444 -4.8692 1.23346 0
M  V30 586 C 51.6384 -5.60559 3.03402 0
M  V30 587 C 49.3254 -5.64255 2.34649 0
M  V30 588 C 50.3234 -6.00986 3.24507 0
M  V30 589 O 50.0114 -6.76761 4.33878 0
M  V30 590 H 49.7434 -0.674292 0.0480234 0
M  V30 591 H 52.2974 -1.89812 0.784896 0
M  V30 592 H 50.5274 -3.73911 -0.986279 0
M  V30 593 H 52.2164 -4.0046 -0.662294 0
M  V30 594 H 52.9824 -4.51633 1.76785 0
M  V30 595 H 48.8614 -4.57789 0.543178 0
M  V30 596 H 52.4054 -5.89147 3.73565 0
M  V30 597 H 48.3024 -5.95021 2.5024 0
M  V30 598 H 49.0704 -6.95168 4.32068 0
M  V30 599 N 51.7335 -0.305618 -1.54608 0
M  V30 600 C 52.6435 0.57778 -2.27374 0
M  V30 601 C 53.6595 1.14451 -1.31061 0
M  V30 602 O 54.8355 1.16831 -1.6405 0
M  V30 603 C 51.9005 1.73123 -3.00382 0
M  V30 604 C 50.9615 1.19812 -4.12242 0
M  V30 605 C 50.1945 2.2966 -4.81759 0
M  V30 606 O 50.4175 3.49651 -4.50666 0
M  V30 607 O 49.3515 1.96091 -5.69062 0
M  V30 608 H 53.1775 -0.012624 -3.03697 0
M  V30 609 H 50.7625 -0.0719184 -1.49227 0
M  V30 610 H 52.6445 2.40315 -3.4616 0
M  V30 611 H 51.3195 2.30815 -2.26949 0
M  V30 612 H 50.2265 0.491798 -3.70853 0
M  V30 613 H 51.5595 0.666566 -4.87666 0
M  V30 614 N 53.2116 1.57565 -0.0334293 0
M  V30 615 C 54.1416 2.13511 0.945265 0
M  V30 616 C 55.1226 1.05231 1.33643 0
M  V30 617 O 56.3076 1.33084 1.41429 0
M  V30 618 C 53.4376 2.6657 2.22616 0
M  V30 619 C 52.3916 3.79676 1.97561 0
M  V30 620 C 51.7176 4.1918 3.31952 0
M  V30 621 C 53.0176 5.0557 1.31135 0
M  V30 622 H 54.7116 2.95538 0.479325 0
M  V30 623 H 52.2576 1.42166 0.229115 0
M  V30 624 H 54.2106 3.04344 2.91466 0
M  V30 625 H 52.9346 1.8171 2.71384 0
M  V30 626 H 51.5936 3.42347 1.31127 0
M  V30 627 H 51.2416 3.31296 3.78487 0
M  V30 628 H 50.9416 4.95402 3.15992 0
M  V30 629 H 52.4656 4.59541 4.02063 0
M  V30 630 H 53.8796 5.40903 1.89992 0
M  V30 631 H 52.2766 5.86818 1.25559 0
M  V30 632 H 53.3466 4.84062 0.284894 0
M  V30 633 N 54.6897 -0.239769 1.55765 0
M  V30 634 C 55.6527 -1.28038 1.90103 0
M  V30 635 C 56.6527 -1.40723 0.778055 0
M  V30 636 O 57.8427 -1.39301 1.04599 0
M  V30 637 C 54.9747 -2.65702 2.13577 0
M  V30 638 H 56.1677 -0.988048 2.83157 0
M  V30 639 H 53.7207 -0.479382 1.48767 0
M  V30 640 H 54.4557 -3.00063 1.23015 0
M  V30 641 H 54.2407 -2.57875 2.95369 0
M  V30 642 H 55.7307 -3.40828 2.41301 0
M  V30 643 N 56.1678 -1.49265 -0.50573 0
M  V30 644 C 57.1178 -1.6198 -1.60457 0
M  V30 645 C 58.1018 -0.47568 -1.53708 0
M  V30 646 O 59.2938 -0.728392 -1.61318 0
M  V30 647 C 56.4228 -1.68526 -2.99089 0
M  V30 648 C 55.5088 -2.885 -3.10852 0
M  V30 649 N 55.8998 -4.12635 -2.92517 0
M  V30 650 C 54.1978 -2.86338 -3.41945 0
M  V30 651 C 54.8988 -4.93258 -3.08337 0
M  V30 652 N 53.8748 -4.26533 -3.37003 0
M  V30 653 H 57.6768 -2.55681 -1.44928 0
M  V30 654 H 55.1908 -1.45972 -0.711752 0
M  V30 655 H 57.1878 -1.75732 -3.78053 0
M  V30 656 H 55.8478 -0.759584 -3.1569 0
M  V30 657 H 56.8588 -4.42689 -2.68787 0
M  V30 658 H 53.5358 -2.03129 -3.64753 0
M  V30 659 H 54.9258 -6.01856 -2.98695 0
M  V30 660 N 57.6459 0.756429 -1.3826 0
M  V30 661 C 58.5559 1.9009 -1.37488 0
M  V30 662 C 59.5719 1.71855 -0.272366 0
M  V30 663 O 60.7479 1.94827 -0.510318 0
M  V30 664 C 57.8129 3.25421 -1.19592 0
M  V30 665 C 56.8739 3.56202 -2.39622 0
M  V30 666 C 56.1069 4.85075 -2.2257 0
M  V30 667 O 56.3299 5.57246 -1.21793 0
M  V30 668 O 55.2639 5.15269 -3.11098 0
M  V30 669 H 59.0899 1.93695 -2.33914 0
M  V30 670 H 56.6749 0.901313 -1.1915 0
M  V30 671 H 58.5569 4.06337 -1.11661 0
M  V30 672 H 57.2319 3.22634 -0.262486 0
M  V30 673 H 56.1389 2.75458 -2.53128 0
M  V30 674 H 57.4719 3.63747 -3.31586 0
M  V30 675 N 59.124 1.23083 0.984299 0
M  V30 676 C 60.054 1.03292 2.09411 0
M  V30 677 C 61.035 -0.048923 1.7003 0
M  V30 678 O 62.22 0.114967 1.93859 0
M  V30 679 C 59.35 0.619155 3.41736 0
M  V30 680 C 58.304 1.64791 3.95004 0
M  V30 681 C 57.63 1.0897 5.23478 0
M  V30 682 C 58.93 3.03999 4.24714 0
M  V30 683 H 60.624 1.96119 2.26225 0
M  V30 684 H 58.17 0.944344 1.08711 0
M  V30 685 H 60.123 0.467777 4.18796 0
M  V30 686 H 58.847 -0.344786 3.24775 0
M  V30 687 H 57.506 1.78721 3.20085 0
M  V30 688 H 57.154 0.11686 5.02864 0
M  V30 689 H 56.854 1.77704 5.60085 0
M  V30 690 H 58.378 0.950093 6.03163 0
M  V30 691 H 59.792 2.93393 4.92538 0
M  V30 692 H 58.189 3.69936 4.72512 0
M  V30 693 H 59.259 3.53285 3.32142 0
M  V30 694 N 60.6021 -1.18246 1.0419 0
M  V30 695 C 62.0131 -1.69914 0.773698 0
M  V30 696 C 62.3641 -1.83085 -0.705297 0
M  V30 697 O 61.4891 -1.51123 -1.5489 0
M  V30 698 C 62.0841 -3.08619 1.39784 0
M  V30 699 C 60.6431 -3.57494 1.17792 0
M  V30 700 C 59.7901 -2.34013 1.48773 0
M  V30 701 H 62.7411 -1.02904 1.20816 0
M  V30 702 H 62.7621 -3.71958 0.801714 0
M  V30 703 H 62.2741 -2.99001 2.47426 0
M  V30 704 H 60.3751 -3.72406 0.120295 0
M  V30 705 H 60.4881 -4.40852 1.87581 0
M  V30 706 H 58.8521 -2.37986 0.907463 0
M  V30 707 H 59.6351 -2.27013 2.57527 0
M  V30 708 N 62.0802 -0.821533 -1.34494 0
M  V30 709 C 63.0102 -0.257138 -2.3208 0
M  V30 710 C 63.9912 0.625645 -1.58176 0
M  V30 711 O 65.1762 0.552811 -1.86166 0
M  V30 712 C 62.3062 0.582958 -3.42372 0
M  V30 713 C 61.2602 -0.202571 -4.2752 0
M  V30 714 C 60.5862 0.760179 -5.29269 0
M  V30 715 C 61.8862 -1.40998 -5.02908 0
M  V30 716 H 63.5802 -1.07247 -2.79532 0
M  V30 717 H 61.1262 -0.517163 -1.34393 0
M  V30 718 H 63.0792 0.987972 -4.09655 0
M  V30 719 H 61.8032 1.43133 -2.93565 0
M  V30 720 H 60.4622 -0.588936 -3.61838 0
M  V30 721 H 60.1102 1.60447 -4.76724 0
M  V30 722 H 59.8102 0.238809 -5.87115 0
M  V30 723 H 61.3342 1.16308 -5.9942 0
M  V30 724 H 62.7482 -1.07905 -5.63054 0
M  V30 725 H 61.1452 -1.86689 -5.70322 0
M  V30 726 H 62.2152 -2.1889 -4.32684 0
M  V30 727 N 63.5583 1.46682 -0.576371 0
M  V30 728 C 64.9693 1.86112 -0.148091 0
M  V30 729 C 65.3203 1.48073 1.2872 0
M  V30 730 O 64.4453 0.892656 1.97131 0
M  V30 731 C 65.0403 3.37786 -0.261982 0
M  V30 732 C 63.5993 3.76235 0.111384 0
M  V30 733 C 62.7463 2.70713 -0.60083 0
M  V30 734 H 65.6973 1.37927 -0.78497 0
M  V30 735 H 65.7183 3.77007 0.514364 0
M  V30 736 H 65.2303 3.6544 -1.30671 0
M  V30 737 H 63.3313 3.54198 1.15649 0
M  V30 738 H 63.4443 4.78391 -0.26052 0
M  V30 739 H 61.8083 2.54666 -0.0417783 0
M  V30 740 H 62.5913 3.01208 -1.64708 0
M  V30 741 N 65.0364 0.313813 1.54444 0
M  V30 742 C 65.9864 -0.571898 2.20711 0
M  V30 743 C 66.9704 -1.08913 1.18435 0
M  V30 744 O 68.1624 -1.02777 1.44104 0
M  V30 745 C 65.2914 -1.7371 2.96108 0
M  V30 746 C 64.3774 -1.23522 4.05713 0
M  V30 747 N 64.7684 -0.452288 5.03774 0
M  V30 748 C 63.0664 -1.51482 4.19487 0
M  V30 749 C 63.7674 -0.183438 5.81411 0
M  V30 750 N 62.7434 -0.766845 5.38164 0
M  V30 751 H 66.5454 0.0336802 2.93881 0
M  V30 752 H 64.0594 0.119192 1.61962 0
M  V30 753 H 66.0564 -2.38329 3.4206 0
M  V30 754 H 64.7164 -2.34625 2.24458 0
M  V30 755 H 65.7274 -0.0960131 5.17811 0
M  V30 756 H 62.4044 -2.13053 3.59047 0
M  V30 757 H 63.7944 0.446216 6.70417 0
M  V30 758 N 66.5145 -1.57545 0.0417849 0
M  V30 759 C 67.7395 -1.97035 -0.647455 0
M  V30 760 C 68.1645 -0.918775 -1.64135 0
M  V30 761 O 67.5225 0.119006 -1.80909 0
M  V30 762 C 67.5705 -3.35609 -1.31905 0
M  V30 763 O 66.6745 -3.3287 -2.43457 0
M  V30 764 H 66.0155 -0.64211 -0.169086 0
M  V30 765 H 68.5455 -2.04318 0.107399 0
M  V30 766 H 68.5555 -3.72126 -1.67291 0
M  V30 767 H 67.2305 -4.11685 -0.590586 0
M  V30 768 H 65.8075 -3.08087 -2.10088 0
M  V30 769 N 67.9926 0.231505 -1.5589 0
M  V30 770 C 69.2386 0.95877 -1.78705 0
M  V30 771 C 69.5716 1.8438 -0.609725 0
M  V30 772 O 68.8466 1.90521 0.391426 0
M  V30 773 C 69.1296 1.8062 -3.11526 0
M  V30 774 C 68.9826 0.948328 -4.39689 0
M  V30 775 C 70.3016 2.78585 -3.40703 0
M  V30 776 H 67.4206 0.347129 -0.650131 0
M  V30 777 H 70.0626 0.228259 -1.88624 0
M  V30 778 H 68.2126 2.42902 -3.03201 0
M  V30 779 H 69.8846 0.343016 -4.60023 0
M  V30 780 H 68.1276 0.253314 -4.3306 0
M  V30 781 H 68.7986 1.57543 -5.29041 0
M  V30 782 H 71.2746 2.26439 -3.49091 0
M  V30 783 H 70.1506 3.34988 -4.34826 0
M  V30 784 H 70.4116 3.55825 -2.62375 0
M  V30 785 N 69.4707 1.49531 0.497807 0
M  V30 786 C 70.6957 1.63159 1.28039 0
M  V30 787 C 71.1207 0.30418 1.85624 0
M  V30 788 O 70.4787 -0.728618 1.66015 0
M  V30 789 C 70.5267 2.70537 2.38416 0
M  V30 790 O 69.6307 2.29931 3.42353 0
M  V30 791 H 68.9717 0.546001 0.377861 0
M  V30 792 H 71.5017 1.9574 0.59558 0
M  V30 793 H 71.5117 2.92802 2.84132 0
M  V30 794 H 70.1867 3.6689 1.95869 0
M  V30 795 H 68.7637 2.18009 3.02533 0
M  V30 796 N 70.9488 -0.749086 1.3866 0
M  V30 797 C 72.1738 -1.54344 1.38538 0
M  V30 798 C 72.5988 -1.88088 -0.0216655 0
M  V30 799 O 71.9568 -1.50899 -1.00494 0
M  V30 800 C 72.0048 -2.8164 2.25192 0
M  V30 801 O 71.1088 -3.7698 1.67212 0
M  V30 802 H 70.4498 -0.466654 0.472367 0
M  V30 803 H 72.9798 -0.925355 1.82478 0
M  V30 804 H 72.9898 -3.30519 2.3921 0
M  V30 805 H 71.6648 -2.56411 3.27454 0
M  V30 806 H 70.2418 -3.35699 1.6236 0
M  V30 807 N 72.4269 -1.23603 -0.977757 0
M  V30 808 C 73.3769 -0.986664 -2.05545 0
M  V30 809 C 74.3609 0.0683009 -1.60755 0
M  V30 810 O 75.5529 -0.144162 -1.76412 0
M  V30 811 C 72.6819 -0.582623 -3.3832 0
M  V30 812 C 71.7679 -1.67313 -3.89701 0
M  V30 813 N 72.1589 -2.90394 -4.14132 0
M  V30 814 C 70.4569 -1.54832 -4.18262 0
M  V30 815 C 71.1579 -3.61017 -4.56116 0
M  V30 816 N 70.1339 -2.8854 -4.60701 0
M  V30 817 H 73.9359 -1.92139 -2.22396 0
M  V30 818 H 71.4499 -1.1358 -1.16074 0
M  V30 819 H 73.4469 -0.38524 -4.15116 0
M  V30 820 H 72.1069 0.34503 -3.22862 0
M  V30 821 H 73.1179 -3.26673 -4.01877 0
M  V30 822 H 69.7949 -0.687969 -4.11793 0
M  V30 823 H 71.1849 -4.66544 -4.83514 0
M  V30 824 N 73.905 1.17692 -1.04816 0
M  V30 825 C 74.835 2.23777 -0.666791 0
M  V30 826 C 75.816 1.66796 0.33361 0
M  V30 827 O 77.001 1.93039 0.212042 0
M  V30 828 C 74.131 3.47281 -0.0367933 0
M  V30 829 C 73.085 4.17059 -0.961546 0
M  V30 830 C 72.411 5.34342 -0.195626 0
M  V30 831 C 73.711 4.69713 -2.28402 0
M  V30 832 H 75.405 2.55933 -1.55367 0
M  V30 833 H 72.951 1.23019 -0.748484 0
M  V30 834 H 74.904 4.20706 0.241775 0
M  V30 835 H 73.628 3.14381 0.885004 0
M  V30 836 H 72.287 3.45541 -1.22462 0
M  V30 837 H 71.935 4.97692 0.728816 0
M  V30 838 H 71.635 5.81966 -0.811775 0
M  V30 839 H 73.159 6.10553 0.0757473 0
M  V30 840 H 74.573 5.34794 -2.06563 0
M  V30 841 H 72.97 5.279 -2.8538 0
M  V30 842 H 74.04 3.86726 -2.92525 0
M  V30 843 N 75.3831 0.828654 1.34056 0
M  V30 844 C 76.6601 0.341809 1.9259 0
M  V30 845 C 77.0401 -1.17158 1.75605 0
M  V30 846 O 76.3881 -1.98132 1.13824 0
M  V30 847 C 76.5981 0.777453 3.4023 0
M  V30 848 C 77.9461 0.779579 4.17382 0
M  V30 849 O 78.9701 0.7204 3.48839 0
M  V30 850 O 77.8291 0.857996 5.39723 0
M  V30 851 H 74.9231 0.0946085 0.821571 0
M  V30 852 H 77.4691 0.913827 1.42994 0
M  V30 853 H 76.2411 1.8196 3.46419 0
M  V30 854 H 75.8641 0.181444 3.97186 0
M  V30 855 N 76.8612 -1.46375 0.584142 0
M  V30 856 C 77.8082 -2.30323 -0.148286 0
M  V30 857 C 78.7782 -1.40703 -0.882713 0
M  V30 858 O 79.9632 -1.69651 -0.873099 0
M  V30 859 C 77.1032 -3.25196 -1.15507 0
M  V30 860 C 76.2162 -4.29915 -0.423943 0
M  V30 861 C 75.3512 -5.11914 -1.41838 0
M  V30 862 C 74.3902 -6.08381 -0.673736 0
M  V30 863 N 73.5272 -6.83242 -1.6163 0
M  V30 864 H 78.3672 -2.92427 0.573644 0
M  V30 865 H 75.9042 -1.44118 0.294703 0
M  V30 866 H 77.8622 -3.78646 -1.75166 0
M  V30 867 H 76.4922 -2.64898 -1.8447 0
M  V30 868 H 75.5442 -3.7931 0.287714 0
M  V30 869 H 76.8562 -4.98549 0.158128 0
M  V30 870 H 76.0102 -5.69648 -2.08773 0
M  V30 871 H 74.7492 -4.43243 -2.03438 0
M  V30 872 H 73.7542 -5.49799 0.00938483 0
M  V30 873 H 74.9792 -6.79071 -0.0631082 0
M  V30 874 H 72.9252 -6.1728 -2.22038 0
M  V30 875 H 72.8422 -7.48144 -1.08707 0
M  V30 876 H 74.1102 -7.45534 -2.27596 0
M  V30 877 N 78.3393 -0.321999 -1.54275 0
M  V30 878 C 79.3023 0.531975 -2.22941 0
M  V30 879 C 80.3023 1.04478 -1.22234 0
M  V30 880 O 81.4923 0.937452 -1.46825 0
M  V30 881 C 78.6243 1.73874 -2.93224 0
M  V30 882 H 79.8173 -0.0682612 -2.99822 0
M  V30 883 H 77.3703 -0.0730644 -1.56129 0
M  V30 884 H 78.1053 2.37825 -2.20476 0
M  V30 885 H 77.8903 1.37847 -3.6707 0
M  V30 886 H 79.3803 2.34496 -3.45545 0
M  V30 887 N 79.8174 1.5752 -0.0501392 0
M  V30 888 C 81.0424 1.97376 0.636997 0
M  V30 889 C 81.4674 0.927466 1.63645 0
M  V30 890 O 80.8254 -0.10941 1.8097 0
M  V30 891 C 80.8734 3.36304 1.30123 0
M  V30 892 O 79.9774 3.34156 2.41689 0
M  V30 893 H 79.3184 0.642998 0.165679 0
M  V30 894 H 81.8484 2.04258 -0.118233 0
M  V30 895 H 81.8584 3.73008 1.65315 0
M  V30 896 H 80.5334 4.11993 0.568746 0
M  V30 897 H 79.1104 3.09196 2.08451 0
M  V30 898 N 81.2955 -0.223234 1.56011 0
M  V30 899 C 82.5445 -0.945912 1.78144 0
M  V30 900 C 82.8575 -1.85567 0.618396 0
M  V30 901 O 84.0635 -2.61688 0.723318 0
M  V30 902 C 82.5195 -1.73216 3.15475 0
M  V30 903 C 82.1275 -0.868619 4.39499 0
M  V30 904 C 83.8715 -2.44615 3.46935 0
M  V30 905 C 81.7785 -1.65212 5.67855 0
M  V30 906 H 80.7085 -0.356929 0.664167 0
M  V30 907 H 83.3595 -0.199845 1.82409 0
M  V30 908 H 81.7415 -2.52107 3.05382 0
M  V30 909 H 82.9155 -0.120366 4.60643 0
M  V30 910 H 81.2305 -0.26683 4.15544 0
M  V30 911 H 83.8275 -3.03732 4.40058 0
M  V30 912 H 84.1705 -3.17417 2.69355 0
M  V30 913 H 84.7035 -1.72715 3.58349 0
M  V30 914 H 81.4425 -0.967407 6.48322 0
M  V30 915 H 80.9625 -2.37503 5.50774 0
M  V30 916 H 82.6415 -2.21322 6.07968 0
M  V30 917 N 82.7736 -1.49793 -0.48987 0
M  V30 918 C 83.7066 -1.61898 -1.60823 0
M  V30 919 C 84.6846 -0.467651 -1.5573 0
M  V30 920 O 85.8686 -0.684682 -1.75626 0
M  V30 921 C 82.9956 -1.58422 -2.99366 0
M  V30 922 C 82.0416 -2.78889 -3.22682 0
M  V30 923 S 82.8746 -4.40429 -3.04602 0
M  V30 924 C 84.0306 -4.39617 -4.4552 0
M  V30 925 H 84.2636 -2.56502 -1.50312 0
M  V30 926 H 81.7966 -1.38822 -0.675849 0
M  V30 927 H 83.7546 -1.57103 -3.79248 0
M  V30 928 H 82.4156 -0.650866 -3.07283 0
M  V30 929 H 81.6086 -2.72708 -4.23847 0
M  V30 930 H 81.2106 -2.77678 -2.50541 0
M  V30 931 H 83.5026 -4.12022 -5.37814 0
M  V30 932 H 84.4456 -5.41097 -4.56749 0
M  V30 933 H 84.8536 -3.69554 -4.2672 0
M  V30 934 N 84.2517 0.741722 -1.39055 0
M  V30 935 C 85.6677 1.04638 -1.20512 0
M  V30 936 C 85.8677 2.01405 -0.0620218 0
M  V30 937 O 84.9237 2.45547 0.588457 0
M  V30 938 C 86.2367 1.6151 -2.53643 0
M  V30 939 C 87.7847 1.73623 -2.6043 0
M  V30 940 C 88.2597 2.33906 -3.93767 0
M  V30 941 N 89.7507 2.41323 -3.9537 0
M  V30 942 C 90.4857 2.88888 -4.95309 0
M  V30 943 N 89.9817 3.36401 -6.05645 0
M  V30 944 N 91.7747 2.88037 -4.82692 0
M  V30 945 H 83.9257 0.0998155 -2.12165 0
M  V30 946 H 86.1887 0.106907 -0.941953 0
M  V30 947 H 85.8947 0.978739 -3.37807 0
M  V30 948 H 85.7687 2.60411 -2.72885 0
M  V30 949 H 88.1557 2.36384 -1.76655 0
M  V30 950 H 88.2367 0.733945 -2.45045 0
M  V30 951 H 87.8807 1.71776 -4.7797 0
M  V30 952 H 87.8107 3.34799 -4.06469 0
M  V30 953 H 90.3017 2.07734 -3.15682 0
M  V30 954 H 90.6147 3.71186 -6.77821 0
M  V30 955 H 88.9597 3.34427 -6.09248 0
M  V30 956 H 92.1507 2.50237 -3.95599 0
M  V30 957 H 92.3237 3.24792 -5.60726 0
M  V30 958 N 85.7298 1.2412 0.971189 0
M  V30 959 C 86.6598 1.05508 2.08304 0
M  V30 960 C 87.6408 -0.0308864 1.70072 0
M  V30 961 O 88.8258 0.135521 1.93727 0
M  V30 962 C 85.9558 0.655365 3.4106 0
M  V30 963 C 84.9098 1.68971 3.93234 0
M  V30 964 C 84.2358 1.14516 5.22293 0
M  V30 965 C 85.5358 3.08487 4.21465 0
M  V30 966 H 87.2298 1.98507 2.24132 0
M  V30 967 H 84.7758 0.955821 1.07704 0
M  V30 968 H 86.7288 0.51217 4.18276 0
M  V30 969 H 85.4528 -0.31032 3.25122 0
M  V30 970 H 84.1118 1.82106 3.18171 0
M  V30 971 H 83.7598 0.170189 5.02712 0
M  V30 972 H 83.4598 1.83635 5.58168 0
M  V30 973 H 84.9838 1.01401 6.02121 0
M  V30 974 H 86.3978 2.98601 4.89398 0
M  V30 975 H 84.7948 3.74926 4.68562 0
M  V30 976 H 85.8648 3.56787 3.28376 0
M  V30 977 N 87.2079 -1.17134 1.05439 0
M  V30 978 C 88.1709 -2.19439 0.661764 0
M  V30 979 C 89.1709 -1.58199 -0.288042 0
M  V30 980 O 90.3609 -1.74053 -0.0715803 0
M  V30 981 C 87.4929 -3.40889 -0.0276209 0
M  V30 982 H 88.6859 -2.55688 1.56728 0
M  V30 983 H 86.2389 -1.31259 0.848567 0
M  V30 984 H 86.9739 -3.10187 -0.94629 0
M  V30 985 H 86.7589 -3.86586 0.655238 0
M  V30 986 H 88.2489 -4.16603 -0.288342 0
M  V30 987 N 88.686 -0.835752 -1.33615 0
M  V30 988 C 89.935 -0.426289 -1.97144 0
M  V30 989 C 90.248 1.01912 -1.66953 0
M  V30 990 O 91.454 1.53311 -2.24072 0
M  V30 991 C 89.91 -0.711321 -3.52801 0
M  V30 992 C 89.518 -2.1712 -3.91871 0
M  V30 993 C 91.262 -0.368654 -4.22896 0
M  V30 994 C 89.169 -2.40044 -5.40493 0
M  V30 995 H 88.099 -0.15567 -0.737755 0
M  V30 996 H 90.75 -1.0239 -1.52278 0
M  V30 997 H 89.132 -0.0433766 -3.95976 0
M  V30 998 H 90.306 -2.87936 -3.59763 0
M  V30 999 H 88.621 -2.47654 -3.34749 0
M  V30 1000 H 91.218 -0.517601 -5.32189 0
M  V30 1001 H 91.561 0.688078 -4.10574 0
M  V30 1002 H 92.094 -0.991702 -3.8524 0
M  V30 1003 H 88.833 -3.44271 -5.57815 0
M  V30 1004 H 88.353 -1.73785 -5.74072 0
M  V30 1005 H 90.032 -2.23042 -6.0734 0
M  V30 1006 N 90.1641 1.46063 -0.591896 0
M  V30 1007 C 91.3891 2.07226 -0.0850314 0
M  V30 1008 C 91.8141 1.43625 1.21463 0
M  V30 1009 O 91.1721 0.523305 1.73583 0
M  V30 1010 C 91.2201 3.60554 0.0576567 0
M  V30 1011 O 90.3241 3.97128 1.11188 0
M  V30 1012 H 89.6651 0.660615 -0.0669568 0
M  V30 1013 H 92.1951 1.8756 -0.81745 0
M  V30 1014 H 92.2051 4.07165 0.2609 0
M  V30 1015 H 90.8801 4.06235 -0.891416 0
M  V30 1016 H 89.4571 3.62213 0.886356 0
M  V30 1017 N 91.6422 0.330177 1.54103 0
M  V30 1018 C 92.8892 -0.270405 2.00686 0
M  V30 1019 C 93.2172 -1.51621 1.21825 0
M  V30 1020 O 92.4722 -1.93536 0.29025 0
M  V30 1021 C 92.7712 -0.643134 3.51566 0
M  V30 1022 C 92.4372 0.504251 4.48072 0
M  V30 1023 C 91.0992 0.819163 4.74176 0
M  V30 1024 C 93.4512 1.27465 5.05373 0
M  V30 1025 C 90.7792 1.90708 5.5484 0
M  V30 1026 C 93.1312 2.35271 5.87223 0
M  V30 1027 C 91.7952 2.67336 6.11627 0
M  V30 1028 H 91.0652 -0.0989482 0.734364 0
M  V30 1029 H 93.7122 0.455324 1.86008 0
M  V30 1030 H 92.0172 -1.44938 3.64006 0
M  V30 1031 H 93.7142 -1.11949 3.85056 0
M  V30 1032 H 90.3042 0.248733 4.27878 0
M  V30 1033 H 94.4882 1.04462 4.85182 0
M  V30 1034 H 89.7442 2.15991 5.71977 0
M  V30 1035 H 93.9182 2.95405 6.30641 0
M  V30 1036 H 91.5452 3.51763 6.73919 0
M  V30 1037 N 93.1203 -1.57491 0.0584922 0
M  V30 1038 C 94.0503 -2.14988 -0.911178 0
M  V30 1039 C 95.0313 -1.07343 -1.31952 0
M  V30 1040 O 96.2163 -1.35318 -1.39294 0
M  V30 1041 C 93.3463 -2.70078 -2.18347 0
M  V30 1042 C 92.3003 -3.82771 -1.91495 0
M  V30 1043 C 91.6263 -4.24408 -3.25241 0
M  V30 1044 C 92.9263 -5.07592 -1.23075 0
M  V30 1045 H 94.6203 -2.96263 -0.432246 0
M  V30 1046 H 92.1663 -1.42512 -0.206469 0
M  V30 1047 H 94.1193 -3.08943 -2.86587 0
M  V30 1048 H 92.8433 -1.86005 -2.68458 0
M  V30 1049 H 91.5023 -3.44389 -1.25664 0
M  V30 1050 H 91.1503 -3.37275 -3.73168 0
M  V30 1051 H 90.8503 -5.00366 -3.08071 0
M  V30 1052 H 92.3743 -4.65879 -3.94701 0
M  V30 1053 H 93.7883 -5.43857 -1.81362 0
M  V30 1054 H 92.1853 -5.88741 -1.16207 0
M  V30 1055 H 93.2553 -4.84454 -0.207847 0
M  V30 1056 N 94.5984 0.214957 -1.56127 0
M  V30 1057 C 96.0144 0.564948 -1.49267 0
M  V30 1058 C 96.2144 1.86827 -0.754838 0
M  V30 1059 O 95.2704 2.50745 -0.297198 0
M  V30 1060 C 96.5834 0.638071 -2.93852 0
M  V30 1061 C 98.1314 0.728253 -3.0441 0
M  V30 1062 C 98.6064 0.832663 -4.50367 0
M  V30 1063 N 100.097 0.896712 -4.54437 0
M  V30 1064 C 100.832 0.997324 -5.6466 0
M  V30 1065 N 100.328 1.06147 -6.8462 0
M  V30 1066 N 102.121 1.03297 -5.52527 0
M  V30 1067 H 94.2724 -0.640211 -2.02522 0
M  V30 1068 H 96.5354 -0.225507 -0.920788 0
M  V30 1069 H 96.2414 -0.250126 -3.50809 0
M  V30 1070 H 96.1154 1.49947 -3.46115 0
M  V30 1071 H 98.5024 1.60689 -2.47514 0
M  V30 1072 H 98.5834 -0.158952 -2.55306 0
M  V30 1073 H 98.2274 -0.0415417 -5.07883 0
M  V30 1074 H 98.1574 1.73538 -4.97184 0
M  V30 1075 H 100.648 0.857188 -3.6805 0
M  V30 1076 H 100.961 1.1382 -7.64372 0
M  V30 1077 H 99.3064 1.03049 -6.87318 0
M  V30 1078 H 102.497 0.979558 -4.57736 0
M  V30 1079 H 102.67 1.10793 -6.38458 0
M  V30 1080 N 96.0765 1.50051 0.48192 0
M  V30 1081 C 97.3045 1.64237 1.25832 0
M  V30 1082 C 97.7195 0.321336 1.86045 0
M  V30 1083 O 97.0765 -0.695478 1.68729 0
M  V30 1084 C 97.1275 2.72548 2.37487 0
M  V30 1085 O 96.8485 3.99529 1.79745 0
M  V30 1086 C 98.3495 2.9761 3.28547 0
M  V30 1087 H 95.5695 0.55237 0.380957 0
M  V30 1088 H 98.1135 1.96207 0.576467 0
M  V30 1089 H 96.2685 2.43303 3.01467 0
M  V30 1090 H 96.6825 4.59342 2.5319 0
M  V30 1091 H 98.1565 3.77084 4.03127 0
M  V30 1092 H 98.6335 2.0826 3.86684 0
M  V30 1093 H 99.2395 3.28345 2.70314 0
M  V30 1094 N 97.5546 -0.734337 1.39446 0
M  V30 1095 C 98.5046 -1.83949 1.34709 0
M  V30 1096 C 99.4886 -1.59279 0.227851 0
M  V30 1097 O 100.681 -1.70771 0.465438 0
M  V30 1098 C 97.8096 -3.21884 1.19356 0
M  V30 1099 C 96.8956 -3.52381 2.35984 0
M  V30 1100 N 97.2866 -3.53811 3.61457 0
M  V30 1101 C 95.5846 -3.82747 2.28956 0
M  V30 1102 C 96.2856 -3.82122 4.38586 0
M  V30 1103 N 95.2616 -3.9993 3.68181 0
M  V30 1104 H 99.0636 -1.83361 2.29687 0
M  V30 1105 H 96.5776 -0.932609 1.32952 0
M  V30 1106 H 98.5746 -4.00998 1.14046 0
M  V30 1107 H 97.2346 -3.23711 0.253295 0
M  V30 1108 H 98.2456 -3.35107 3.94872 0
M  V30 1109 H 94.9226 -3.92175 1.43194 0
M  V30 1110 H 96.3126 -3.89691 5.47349 0
M  V30 1111 N 99.0327 -1.24633 -0.964593 0
M  V30 1112 C 99.9797 -1.04144 -2.05968 0
M  V30 1113 C 100.95 0.046262 -1.66036 0
M  V30 1114 O 102.135 -0.108972 -1.90489 0
M  V30 1115 C 99.2747 -0.65563 -3.38815 0
M  V30 1116 C 98.3877 -1.81714 -3.91923 0
M  V30 1117 C 97.5227 -1.37662 -5.13052 0
M  V30 1118 C 96.5617 -2.50788 -5.58365 0
M  V30 1119 N 95.6987 -2.07582 -6.70712 0
M  V30 1120 H 100.539 -1.9787 -2.22827 0
M  V30 1121 H 98.0757 -0.9855 -1.09208 0
M  V30 1122 H 100.034 -0.412954 -4.15151 0
M  V30 1123 H 98.6637 0.244627 -3.21872 0
M  V30 1124 H 97.7157 -2.1734 -3.12198 0
M  V30 1125 H 99.0277 -2.66705 -4.21509 0
M  V30 1126 H 98.1817 -1.093 -5.96773 0
M  V30 1127 H 96.9207 -0.497293 -4.85158 0
M  V30 1128 H 95.9257 -2.79906 -4.73215 0
M  V30 1129 H 97.1507 -3.39283 -5.88272 0
M  V30 1130 H 95.0967 -1.22051 -6.44546 0
M  V30 1131 H 95.0137 -2.86125 -6.99763 0
M  V30 1132 H 96.2817 -1.82369 -7.57867 0
M  V30 1133 N 100.511 1.16574 -1.06058 0
M  V30 1134 C 101.441 2.23057 -0.690488 0
M  V30 1135 C 102.422 1.67141 0.315901 0
M  V30 1136 O 103.607 1.93253 0.191556 0
M  V30 1137 C 100.737 3.47222 -0.073625 0
M  V30 1138 C 99.6908 4.16016 -1.00573 0
M  V30 1139 C 99.0168 5.34104 -0.252289 0
M  V30 1140 C 100.317 4.67264 -2.33371 0
M  V30 1141 H 102.011 2.54271 -1.58072 0
M  V30 1142 H 99.5568 1.22218 -0.76149 0
M  V30 1143 H 101.51 4.20939 0.19714 0
M  V30 1144 H 100.234 3.15302 0.85161 0
M  V30 1145 H 98.8928 3.44223 -1.2612 0
M  V30 1146 H 98.5408 4.98437 0.675988 0
M  V30 1147 H 98.2408 5.81072 -0.873455 0
M  V30 1148 H 99.7648 6.10599 0.0109857 0
M  V30 1149 H 101.179 5.32573 -2.12223 0
M  V30 1150 H 99.5758 5.24843 -2.90963 0
M  V30 1151 H 100.646 3.83602 -2.96611 0
M  V30 1152 N 101.989 0.842826 1.3317 0
M  V30 1153 C 102.919 0.294028 2.31641 0
M  V30 1154 C 103.9 -0.600401 1.59151 0
M  V30 1155 O 105.085 -0.523124 1.87022 0
M  V30 1156 C 102.215 -0.528416 3.43257 0
M  V30 1157 C 101.169 0.27056 4.27144 0
M  V30 1158 C 100.495 -0.675881 5.30411 0
M  V30 1159 C 101.795 1.48981 5.00602 0
M  V30 1160 H 103.489 1.11681 2.77791 0
M  V30 1161 H 101.035 0.538478 1.33553 0
M  V30 1162 H 102.988 -0.922674 4.11175 0
M  V30 1163 H 101.712 -1.38445 2.95805 0
M  V30 1164 H 100.371 0.646427 3.60856 0
M  V30 1165 H 100.019 -1.52842 4.79216 0
M  V30 1166 H 99.7189 -0.145374 5.8742 0
M  V30 1167 H 101.243 -1.06757 6.01195 0
M  V30 1168 H 102.657 1.16849 5.61266 0
M  V30 1169 H 101.054 1.95739 5.6728 0
M  V30 1170 H 102.124 2.25746 4.29147 0
M  V30 1171 N 103.467 -1.45747 0.599634 0
M  V30 1172 C 104.692 -2.07178 0.0960198 0
M  V30 1173 C 105.117 -1.44268 -1.207 0
M  V30 1174 O 104.475 -0.532503 -1.73303 0
M  V30 1175 C 104.523 -3.60579 -0.0385348 0
M  V30 1176 O 103.627 -3.97713 -1.0908 0
M  V30 1177 H 102.968 -0.660251 0.0704593 0
M  V30 1178 H 105.498 -1.87124 0.827385 0
M  V30 1179 H 105.508 -4.07298 -0.239304 0
M  V30 1180 H 104.183 -4.05756 0.912947 0
M  V30 1181 H 102.76 -3.62678 -0.867135 0
M  V30 1182 N 104.945 -0.338344 -1.53925 0
M  V30 1183 C 106.17 0.263987 -2.05713 0
M  V30 1184 C 106.595 1.43847 -1.21201 0
M  V30 1185 O 105.953 1.79904 -0.224535 0
M  V30 1186 C 106.001 0.662 -3.54471 0
M  V30 1187 O 105.105 1.76265 -3.72833 0
M  V30 1188 H 104.446 0.0448722 -0.662482 0
M  V30 1189 H 106.976 -0.491048 -1.9862 0
M  V30 1190 H 106.986 0.940594 -3.9701 0
M  V30 1191 H 105.661 -0.196937 -4.15433 0
M  V30 1192 H 104.238 1.48173 -3.42198 0
M  V30 1193 N 106.423 1.57458 -0.0668435 0
M  V30 1194 C 107.669 1.93587 0.6043 0
M  V30 1195 C 108.002 0.946722 1.69561 0
M  V30 1196 O 107.277 -0.0248516 1.94484 0
M  V30 1197 C 107.56 3.40014 1.18585 0
M  V30 1198 C 107.413 4.49685 0.101529 0
M  V30 1199 C 108.732 3.87154 2.09284 0
M  V30 1200 H 105.851 0.703958 0.218202 0
M  V30 1201 H 108.493 1.89542 -0.131804 0
M  V30 1202 H 106.643 3.43592 1.81319 0
M  V30 1203 H 108.315 4.5823 -0.531279 0
M  V30 1204 H 106.558 4.30059 -0.568487 0
M  V30 1205 H 107.229 5.49266 0.54874 0
M  V30 1206 H 109.705 3.85551 1.56491 0
M  V30 1207 H 108.581 4.90231 2.46911 0
M  V30 1208 H 108.842 3.2481 2.99918 0
M  V30 1209 N 107.901 -0.206675 1.56239 0
M  V30 1210 C 109.141 -0.93574 1.81723 0
M  V30 1211 C 109.505 -1.80927 0.642609 0
M  V30 1212 O 110.706 -2.57323 0.777081 0
M  V30 1213 C 108.977 -1.74012 3.12177 0
M  V30 1214 S 110.536 -2.52279 3.59028 0
M  V30 1215 H 107.354 -0.314065 0.637875 0
M  V30 1216 H 109.956 -0.200071 1.94474 0
M  V30 1217 H 108.66 -1.0888 3.95693 0
M  V30 1218 H 108.191 -2.51782 3.02274 0
M  V30 1219 H 110.206 -3.76209 3.23545 0
M  V30 1220 N 109.379 -1.50304 -0.473955 0
M  V30 1221 C 110.604 -1.65175 -1.25427 0
M  V30 1222 C 111.029 -0.333673 -1.85117 0
M  V30 1223 O 110.387 0.702114 -1.67153 0
M  V30 1224 C 110.435 -2.74295 -2.34082 0
M  V30 1225 O 109.539 -2.35349 -3.38651 0
M  V30 1226 H 108.88 -0.551944 -0.369126 0
M  V30 1227 H 111.41 -1.96662 -0.564364 0
M  V30 1228 H 111.42 -2.97285 -2.79438 0
M  V30 1229 H 110.095 -3.69959 -1.90008 0
M  V30 1230 H 108.672 -2.22794 -2.99027 0
M  V30 1231 N 110.857 0.726932 -1.39834 0
M  V30 1232 C 111.767 1.87131 -1.41489 0
M  V30 1233 C 112.783 1.71239 -0.308757 0
M  V30 1234 O 113.959 1.93701 -0.551529 0
M  V30 1235 C 111.024 3.22811 -1.26468 0
M  V30 1236 C 110.085 3.51039 -2.47124 0
M  V30 1237 C 109.318 4.80245 -2.3281 0
M  V30 1238 O 109.541 5.54537 -1.33585 0
M  V30 1239 O 108.475 5.08554 -3.21957 0
M  V30 1240 H 112.301 1.8869 -2.3797 0
M  V30 1241 H 109.886 0.875837 -1.21035 0
M  V30 1242 H 111.768 4.03877 -1.20255 0
M  V30 1243 H 110.443 3.22005 -0.330862 0
M  V30 1244 H 109.35 2.70027 -2.58914 0
M  V30 1245 H 110.683 3.56632 -3.39227 0
M  V30 1246 N 112.336 1.25143 0.95797 0
M  V30 1247 C 113.284 1.05019 2.07542 0
M  V30 1248 C 114.278 -0.0178751 1.69391 0
M  V30 1249 O 115.484 0.137472 1.79474 0
M  V30 1250 H 111.859 0.32265 0.679265 0
M  V30 1251 H 113.83 1.99759 2.21673 0
M  V30 1252 C 112.579 0.682074 3.40944 0
M  V30 1253 H 111.902 1.49573 3.70767 0
M  V30 1254 H 113.342 0.580945 4.20001 0
M  V30 1255 C 111.801 -0.611608 3.31302 0
M  V30 1256 O 112.331 -1.65465 3.66038 0
M  V30 1257 N 110.537 -0.595982 2.84423 0
M  V30 1258 H 110.084 0.253192 2.56353 0
M  V30 1259 H 110.042 -1.46173 2.78354 0
M  V30 1260 N 113.814 -1.1601 1.06675 0
M  V30 1261 C 114.724 -2.24156 0.692179 0
M  V30 1262 C 115.74 -1.71507 -0.293513 0
M  V30 1263 O 116.916 -2.009 -0.141861 0
M  V30 1264 C 113.981 -3.46587 0.0884131 0
M  V30 1265 C 113.042 -4.14257 1.12646 0
M  V30 1266 C 112.275 -5.30844 0.551416 0
M  V30 1267 O 112.498 -5.66858 -0.634656 0
M  V30 1268 O 111.432 -5.87848 1.29298 0
M  V30 1269 H 115.258 -2.58513 1.59388 0
M  V30 1270 H 112.843 -1.23599 0.83926 0
M  V30 1271 H 114.725 -4.20679 -0.246361 0
M  V30 1272 H 113.4 -3.13994 -0.786712 0
M  V30 1273 H 112.307 -3.42118 1.51348 0
M  V30 1274 H 113.64 -4.50914 1.97325 0
M  V30 1275 N 115.292 -0.849877 -1.32721 0
M  V30 1276 C 116.517 -0.463856 -2.02146 0
M  V30 1277 C 116.942 0.930449 -1.63476 0
M  V30 1278 O 116.3 1.61033 -0.832952 0
M  V30 1279 C 116.348 -0.604955 -3.55489 0
M  V30 1280 O 115.452 0.36425 -4.10788 0
M  V30 1281 H 114.793 -0.187046 -0.637111 0
M  V30 1282 H 117.323 -1.14775 -1.69375 0
M  V30 1283 H 117.333 -0.490696 -4.05038 0
M  V30 1284 H 116.008 -1.62174 -3.82978 0
M  V30 1285 H 114.585 0.206628 -3.72327 0
M  V30 1286 N 116.77 1.45427 -0.607355 0
M  V30 1287 C 117.68 2.34325 0.113463 0
M  V30 1288 C 118.696 1.51226 0.860617 0
M  V30 1289 O 119.872 1.84029 0.818255 0
M  V30 1290 C 116.937 3.28839 1.09844 0
M  V30 1291 C 115.998 4.27844 0.353271 0
M  V30 1292 C 115.231 5.17842 1.29133 0
M  V30 1293 O 115.454 5.11264 2.52913 0
M  V30 1294 O 114.388 5.96713 0.788523 0
M  V30 1295 H 118.214 2.97364 -0.617094 0
M  V30 1296 H 115.799 1.44807 -0.367619 0
M  V30 1297 H 117.681 3.8708 1.66575 0
M  V30 1298 H 116.356 2.68365 1.81003 0
M  V30 1299 H 115.263 3.7322 -0.256494 0
M  V30 1300 H 116.596 4.91173 -0.317822 0
M  V30 1301 N 118.248 0.346503 1.53744 0
M  V30 1302 C 119.211 -0.496439 2.23759 0
M  V30 1303 C 120.211 -1.0252 1.2388 0
M  V30 1304 O 121.401 -0.913974 1.48297 0
M  V30 1305 C 118.533 -1.69187 2.95954 0
M  V30 1306 H 119.726 0.115952 2.99676 0
M  V30 1307 H 117.279 0.0978939 1.55993 0
M  V30 1308 H 118.014 -2.34288 2.24231 0
M  V30 1309 H 117.799 -1.31989 3.69217 0
M  V30 1310 H 119.289 -2.28969 3.49232 0
M  V30 1311 N 119.726 -1.57421 0.075193 0
M  V30 1312 C 120.636 -2.1642 -0.905511 0
M  V30 1313 C 121.652 -1.12828 -1.32461 0
M  V30 1314 O 122.828 -1.45109 -1.39661 0
M  V30 1315 C 119.893 -2.71693 -2.15369 0
M  V30 1316 C 118.954 -3.90171 -1.79068 0
M  V30 1317 C 118.187 -4.42798 -2.97936 0
M  V30 1318 O 118.41 -3.94416 -4.12058 0
M  V30 1319 O 117.344 -5.34085 -2.77555 0
M  V30 1320 H 121.17 -3.00588 -0.433626 0
M  V30 1321 H 118.755 -1.48664 -0.148067 0
M  V30 1322 H 120.637 -3.07104 -2.88557 0
M  V30 1323 H 119.312 -1.90582 -2.61649 0
M  V30 1324 H 118.219 -3.59606 -1.03122 0
M  V30 1325 H 119.552 -4.72584 -1.37569 0
M  V30 1326 N 121.204 0.198386 -1.56346 0
M  V30 1327 C 122.167 1.22952 -1.93431 0
M  V30 1328 C 123.167 1.38611 -0.815092 0
M  V30 1329 O 124.357 1.36479 -1.08255 0
M  V30 1330 C 121.489 2.59946 -2.20546 0
M  V30 1331 H 122.682 0.912626 -2.85677 0
M  V30 1332 H 120.235 0.43977 -1.49986 0
M  V30 1333 H 120.97 2.96696 -1.30927 0
M  V30 1334 H 120.755 2.49953 -3.02102 0
M  V30 1335 H 122.245 3.3431 -2.50253 0
M  V30 1336 N 122.682 1.50554 0.465978 0
M  V30 1337 C 123.959 1.5232 1.22712 0
M  V30 1338 C 124.339 0.270807 2.09356 0
M  V30 1339 O 123.687 -0.745541 2.15995 0
M  V30 1340 C 123.897 2.82175 2.05374 0
M  V30 1341 C 125.245 3.33033 2.6339 0
M  V30 1342 O 126.269 2.83531 2.15612 0
M  V30 1343 O 125.128 4.19336 3.50456 0
M  V30 1344 H 122.222 0.611183 0.557122 0
M  V30 1345 H 124.768 1.62847 0.477381 0
M  V30 1346 H 123.54 3.64797 1.41558 0
M  V30 1347 H 123.163 2.74675 2.87471 0
M  V30 1348 N 124.16 -0.719506 1.40217 0
M  V30 1349 C 125.092 -1.84428 1.36084 0
M  V30 1350 C 126.105 -1.60597 0.266913 0
M  V30 1351 O 127.294 -1.70544 0.526983 0
M  V30 1352 C 124.394 -3.20757 1.094 0
M  V30 1353 C 123.567 -3.71817 2.30372 0
M  V30 1354 C 122.626 -4.86748 1.99907 0
M  V30 1355 O 121.652 -4.99603 2.72737 0
M  V30 1356 N 122.854 -5.7226 0.974635 0
M  V30 1357 H 125.619 -1.88473 2.33019 0
M  V30 1358 H 123.18 -0.900885 1.3452 0
M  V30 1359 H 125.172 -3.95235 0.870116 0
M  V30 1360 H 123.742 -3.11884 0.211452 0
M  V30 1361 H 122.962 -2.88514 2.68614 0
M  V30 1362 H 124.25 -4.02666 3.11026 0
M  V30 1363 H 123.648 -5.6448 0.371368 0
M  V30 1364 H 122.205 -6.46739 0.810656 0
M  V30 1365 N 125.638 -1.25649 -0.95132 0
M  V30 1366 C 126.57 -1.02112 -2.05197 0
M  V30 1367 C 127.583 0.0150571 -1.62793 0
M  V30 1368 O 128.772 -0.223874 -1.77091 0
M  V30 1369 C 125.872 -0.522361 -3.3485 0
M  V30 1370 C 125.045 -1.62546 -4.06076 0
M  V30 1371 C 124.104 -1.12649 -5.14001 0
M  V30 1372 O 123.13 -1.82156 -5.39266 0
M  V30 1373 N 124.332 0.03047 -5.80492 0
M  V30 1374 H 127.097 -1.96885 -2.25957 0
M  V30 1375 H 124.658 -1.16899 -1.1201 0
M  V30 1376 H 126.65 -0.172961 -4.0433 0
M  V30 1377 H 125.22 0.33151 -3.10837 0
M  V30 1378 H 124.44 -2.14628 -3.30649 0
M  V30 1379 H 125.728 -2.36644 -4.50419 0
M  V30 1380 H 125.126 0.611169 -5.62389 0
M  V30 1381 H 123.683 0.320875 -6.5101 0
M  V30 1382 N 127.117 1.15442 -1.07289 0
M  V30 1383 C 128.05 2.19135 -0.636798 0
M  V30 1384 C 129.028 1.58884 0.34562 0
M  V30 1385 O 130.212 1.86805 0.252195 0
M  V30 1386 C 127.339 3.38638 0.0650014 0
M  V30 1387 C 126.385 4.17412 -0.87576 0
M  V30 1388 S 127.218 4.79882 -2.37642 0
M  V30 1389 C 128.374 6.02753 -1.6864 0
M  V30 1390 H 128.607 2.55787 -1.51526 0
M  V30 1391 H 126.14 1.26394 -0.886793 0
M  V30 1392 H 128.098 4.07873 0.463664 0
M  V30 1393 H 126.759 3.00331 0.919801 0
M  V30 1394 H 125.952 5.02909 -0.33143 0
M  V30 1395 H 125.554 3.53722 -1.21478 0
M  V30 1396 H 127.846 6.70113 -0.997753 0
M  V30 1397 H 128.789 6.61754 -2.51967 0
M  V30 1398 H 129.197 5.52355 -1.16465 0
M  V30 1399 N 128.595 0.856903 1.32268 0
M  V30 1400 C 129.872 0.382583 1.91822 0
M  V30 1401 C 130.252 -1.13407 1.78051 0
M  V30 1402 O 129.6 -1.95673 1.18001 0
M  V30 1403 C 129.81 0.849446 3.38505 0
M  V30 1404 C 131.158 0.867936 4.15634 0
M  V30 1405 O 132.182 0.794232 3.47232 0
M  V30 1406 O 131.041 0.972286 5.37781 0
M  V30 1407 H 128.135 0.112014 0.819379 0
M  V30 1408 H 130.681 0.943952 1.41024 0
M  V30 1409 H 129.453 1.89267 3.42482 0
M  V30 1410 H 129.076 0.265652 3.96712 0
M  V30 1411 N 130.073 -1.45103 0.615059 0
M  V30 1412 C 131.021 -2.32331 -0.111791 0
M  V30 1413 C 132.015 -1.46409 -0.852102 0
M  V30 1414 O 133.221 -1.62849 -0.766821 0
M  V30 1415 H 129.596 -0.749993 -0.0549072 0
M  V30 1416 H 131.567 -2.91407 0.642225 0
M  V30 1417 C 130.316 -3.3015 -1.09071 0
M  V30 1418 H 129.639 -3.96265 -0.530485 0
M  V30 1419 H 131.079 -3.93898 -1.56908 0
M  V30 1420 C 129.538 -2.57875 -2.168 0
M  V30 1421 O 130.068 -2.36567 -3.24652 0
M  V30 1422 N 128.274 -2.17884 -1.92289 0
M  V30 1423 H 127.821 -2.35413 -1.04587 0
M  V30 1424 H 127.779 -1.6985 -2.64572 0
M  V30 1425 N 131.551 -0.354651 -1.53558 0
M  V30 1426 C 132.481 0.489091 -2.2832 0
M  V30 1427 C 133.462 1.09324 -1.30316 0
M  V30 1428 O 134.647 1.11255 -1.59173 0
M  V30 1429 C 131.777 1.63456 -3.0643 0
M  V30 1430 C 130.731 1.1582 -4.12031 0
M  V30 1431 C 130.057 2.39305 -4.7816 0
M  V30 1432 C 131.357 0.250731 -5.21698 0
M  V30 1433 H 133.051 -0.134614 -2.99097 0
M  V30 1434 H 130.597 -0.0661826 -1.43848 0
M  V30 1435 H 132.55 2.23136 -3.57475 0
M  V30 1436 H 131.274 2.28533 -2.33325 0
M  V30 1437 H 129.933 0.584146 -3.61916 0
M  V30 1438 H 129.581 3.02814 -4.01637 0
M  V30 1439 H 129.281 2.08109 -5.49513 0
M  V30 1440 H 130.805 2.99691 -5.31994 0
M  V30 1441 H 132.219 0.754695 -5.68311 0
M  V30 1442 H 130.616 0.0301468 -6.00092 0
M  V30 1443 H 131.686 -0.710125 -4.79672 0
M  V30 1444 N 133.029 1.57378 -0.0835403 0
M  V30 1445 C 134.259 1.97975 0.590713 0
M  V30 1446 C 134.667 0.961083 1.62972 0
M  V30 1447 O 134.01 -0.0590879 1.83605 0
M  V30 1448 C 134.072 3.34915 1.3066 0
M  V30 1449 C 133.736 4.55069 0.419698 0
M  V30 1450 C 134.733 5.18868 -0.32749 0
M  V30 1451 C 132.418 5.0114 0.341137 0
M  V30 1452 C 134.412 6.27098 -1.14134 0
M  V30 1453 C 132.099 6.0924 -0.476374 0
M  V30 1454 C 133.097 6.72083 -1.21627 0
M  V30 1455 O 132.785 7.781 -2.02028 0
M  V30 1456 H 132.517 0.655818 0.163947 0
M  V30 1457 H 135.071 2.04807 -0.156021 0
M  V30 1458 H 133.301 3.24733 2.09966 0
M  V30 1459 H 134.99 3.60037 1.87424 0
M  V30 1460 H 135.756 4.84211 -0.276459 0
M  V30 1461 H 131.635 4.51996 0.90668 0
M  V30 1462 H 135.179 6.7608 -1.71935 0
M  V30 1463 H 131.076 6.43329 -0.528927 0
M  V30 1464 H 131.844 7.95034 -1.94586 0
M  V30 1465 N 134.507 -0.190092 1.56449 0
M  V30 1466 C 135.437 -1.23816 1.97969 0
M  V30 1467 C 136.418 -1.47201 0.852395 0
M  V30 1468 O 137.603 -1.58854 1.1171 0
M  V30 1469 C 134.733 -2.5813 2.3235 0
M  V30 1470 C 133.687 -2.49348 3.47864 0
M  V30 1471 C 133.013 -3.8798 3.67934 0
M  V30 1472 C 134.313 -2.01424 4.81898 0
M  V30 1473 H 136.007 -0.89311 2.85769 0
M  V30 1474 H 133.553 -0.428177 1.37487 0
M  V30 1475 H 135.506 -3.31637 2.59991 0
M  V30 1476 H 134.23 -2.94386 1.41438 0
M  V30 1477 H 132.889 -1.78297 3.20321 0
M  V30 1478 H 132.537 -4.21597 2.74344 0
M  V30 1479 H 132.237 -3.82978 4.45648 0
M  V30 1480 H 133.761 -4.63101 3.97957 0
M  V30 1481 H 135.175 -2.64693 5.08538 0
M  V30 1482 H 133.572 -2.07413 5.63116 0
M  V30 1483 H 134.642 -0.967677 4.75146 0
M  V30 1484 N 135.985 -1.50799 -0.457987 0
M  V30 1485 C 136.932 -1.70617 -1.5543 0
M  V30 1486 C 137.902 -0.547562 -1.56815 0
M  V30 1487 O 139.087 -0.779647 -1.74144 0
M  V30 1488 C 136.227 -1.81831 -2.93311 0
M  V30 1489 C 135.34 -3.09278 -3.01615 0
M  V30 1490 C 134.475 -3.11209 -4.30491 0
M  V30 1491 C 133.514 -4.33055 -4.32585 0
M  V30 1492 N 132.651 -4.32652 -5.52952 0
M  V30 1493 H 137.491 -2.64207 -1.37836 0
M  V30 1494 H 135.028 -1.30959 -0.669937 0
M  V30 1495 H 136.986 -1.86314 -3.73287 0
M  V30 1496 H 135.616 -0.916685 -3.0951 0
M  V30 1497 H 134.668 -3.14203 -2.1443 0
M  V30 1498 H 135.98 -3.99233 -2.99022 0
M  V30 1499 H 135.134 -3.14494 -5.18824 0
M  V30 1500 H 133.873 -2.19106 -4.35711 0
M  V30 1501 H 132.878 -4.29969 -3.42647 0
M  V30 1502 H 134.103 -5.264 -4.29046 0
M  V30 1503 H 132.049 -3.43409 -5.58933 0
M  V30 1504 H 131.966 -5.16392 -5.52155 0
M  V30 1505 H 133.234 -4.40101 -6.43375 0
M  V30 1506 N 137.463 0.71206 -1.40597 0
M  V30 1507 C 138.426 1.80785 -1.40888 0
M  V30 1508 C 139.426 1.57937 -0.302103 0
M  V30 1509 O 140.616 1.64913 -0.561182 0
M  V30 1510 C 137.748 3.18927 -1.20409 0
M  V30 1511 H 138.941 1.81924 -2.38419 0
M  V30 1512 H 136.494 0.91805 -1.26497 0
M  V30 1513 H 137.229 3.23436 -0.236522 0
M  V30 1514 H 137.014 3.36911 -2.00582 0
M  V30 1515 H 138.504 3.98949 -1.23408 0
M  V30 1516 N 138.941 1.26152 0.944643 0
M  V30 1517 C 139.871 1.09902 2.06019 0
M  V30 1518 C 140.852 0.00519538 1.70099 0
M  V30 1519 O 142.037 0.176583 1.93396 0
M  V30 1520 C 139.167 0.727562 3.39594 0
M  V30 1521 C 138.121 1.77274 3.89561 0
M  V30 1522 C 137.447 1.25569 5.19747 0
M  V30 1523 C 138.747 3.17357 4.14827 0
M  V30 1524 H 140.441 2.03217 2.19871 0
M  V30 1525 H 137.987 0.978452 1.05652 0
M  V30 1526 H 139.94 0.600777 4.17095 0
M  V30 1527 H 138.664 -0.241287 3.25707 0
M  V30 1528 H 137.323 1.88814 3.14237 0
M  V30 1529 H 136.971 0.276783 5.02238 0
M  V30 1530 H 136.671 1.95433 5.54148 0
M  V30 1531 H 138.195 1.1415 5.99835 0
M  V30 1532 H 139.609 3.08914 4.82954 0
M  V30 1533 H 138.006 3.84781 4.60504 0
M  V30 1534 H 139.076 3.63673 3.20734 0
M  V30 1535 N 140.419 -1.14872 1.07899 0
M  V30 1536 C 141.329 -2.2341 0.715915 0
M  V30 1537 C 142.345 -1.71808 -0.275306 0
M  V30 1538 O 143.521 -2.01039 -0.120545 0
M  V30 1539 C 140.586 -3.46474 0.125168 0
M  V30 1540 C 139.647 -4.13039 1.17034 0
M  V30 1541 C 138.88 -5.30229 0.607688 0
M  V30 1542 O 139.103 -5.675 -0.574497 0
M  V30 1543 O 138.037 -5.86444 1.35526 0
M  V30 1544 H 141.863 -2.56808 1.62121 0
M  V30 1545 H 139.448 -1.22702 0.852322 0
M  V30 1546 H 141.33 -4.20917 -0.201729 0
M  V30 1547 H 140.005 -3.14811 -0.753364 0
M  V30 1548 H 138.912 -3.40493 1.54968 0
M  V30 1549 H 140.245 -4.48796 2.02097 0
M  V30 1550 N 141.898 -0.863906 -1.31812 0
M  V30 1551 C 143.146 -0.470904 -1.96537 0
M  V30 1552 C 143.467 0.978771 -1.68657 0
M  V30 1553 O 142.737 1.6853 -0.998717 0
M  V30 1554 H 141.317 -0.171148 -0.72713 0
M  V30 1555 H 143.979 -1.10236 -1.60729 0
M  V30 1556 H 143.075 -0.623616 -3.05806 0
M  V30 1557 N 143.376 1.44774 -0.622745 0
M  V30 1558 C 144.623 2.02121 -0.1239 0
M  V30 1559 C 144.951 1.48915 1.25118 0
M  V30 1560 O 144.206 0.660045 1.84233 0
M  V30 1561 C 144.505 3.57364 -0.0508323 0
M  V30 1562 C 144.171 4.29787 -1.36358 0
M  V30 1563 C 142.833 4.4929 -1.72314 0
M  V30 1564 C 145.185 4.71062 -2.23048 0
M  V30 1565 C 142.513 5.07325 -2.94682 0
M  V30 1566 C 144.865 5.30452 -3.44679 0
M  V30 1567 C 143.529 5.48175 -3.80868 0
M  V30 1568 H 142.799 0.739612 -0.0453381 0
M  V30 1569 H 145.446 1.73648 -0.807389 0
M  V30 1570 H 143.751 3.85202 0.715991 0
M  V30 1571 H 145.448 3.99456 0.351533 0
M  V30 1572 H 142.038 4.14932 -1.07375 0
M  V30 1573 H 146.222 4.55715 -1.96565 0
M  V30 1574 H 141.478 5.19235 -3.22809 0
M  V30 1575 H 145.652 5.61385 -4.12092 0
M  V30 1576 H 143.279 5.92912 -4.75773 0
M  V30 1577 N 144.854 0.36279 1.53368 0
M  V30 1578 C 146.103 -0.22888 2.00397 0
M  V30 1579 C 146.416 -1.50096 1.25421 0
M  V30 1580 O 147.622 -2.17106 1.63025 0
M  V30 1581 C 146.078 -0.458417 3.56969 0
M  V30 1582 C 145.686 0.798877 4.4082 0
M  V30 1583 C 147.43 -1.00789 4.12361 0
M  V30 1584 C 145.337 0.539078 5.88938 0
M  V30 1585 H 144.267 -0.089305 0.748693 0
M  V30 1586 H 146.918 0.481099 1.77081 0
M  V30 1587 H 145.3 -1.22959 3.76427 0
M  V30 1588 H 146.474 1.57262 4.33134 0
M  V30 1589 H 144.789 1.27137 3.96516 0
M  V30 1590 H 147.386 -1.21754 5.20653 0
M  V30 1591 H 147.729 -1.9692 3.66781 0
M  V30 1592 H 148.262 -0.296961 3.9669 0
M  V30 1593 H 145.001 1.47064 6.3879 0
M  V30 1594 H 144.521 -0.196222 5.99479 0
M  V30 1595 H 146.2 0.163542 6.46793 0
M  V30 1596 N 146.332 -1.57332 0.0918853 0
M  V30 1597 C 147.295 -2.12708 -0.85369 0
M  V30 1598 C 148.295 -1.05561 -1.213 0
M  V30 1599 O 149.485 -1.31461 -1.14296 0
M  V30 1600 C 146.617 -2.64503 -2.15061 0
M  V30 1601 H 147.81 -2.97573 -0.3729 0
M  V30 1602 H 145.363 -1.55509 -0.157072 0
M  V30 1603 H 146.098 -1.83149 -2.67632 0
M  V30 1604 H 145.883 -3.4284 -1.90272 0
M  V30 1605 H 147.373 -3.07351 -2.82711 0
M  V30 1606 N 147.81 0.181792 -1.56548 0
M  V30 1607 C 149.056 0.901431 -1.81665 0
M  V30 1608 C 149.389 1.82347 -0.668075 0
M  V30 1609 O 148.664 1.91669 0.330615 0
M  V30 1610 C 148.947 1.70618 -3.17115 0
M  V30 1611 C 148.8 0.807964 -4.42484 0
M  V30 1612 C 150.119 2.67605 -3.49393 0
M  V30 1613 H 147.238 0.32627 -0.660846 0
M  V30 1614 H 149.88 0.168134 -1.89255 0
M  V30 1615 H 148.03 2.33133 -3.10775 0
M  V30 1616 H 149.702 0.19649 -4.60881 0
M  V30 1617 H 147.945 0.115411 -4.33646 0
M  V30 1618 H 148.616 1.40632 -5.33785 0
M  V30 1619 H 151.092 2.15218 -3.56118 0
M  V30 1620 H 149.968 3.20985 -4.45264 0
M  V30 1621 H 150.229 3.47298 -2.73563 0
M  V30 1622 N 149.288 1.51039 0.449983 0
M  V30 1623 C 150.534 1.63322 1.20223 0
M  V30 1624 C 150.867 0.34241 1.91158 0
M  V30 1625 O 150.142 -0.657344 1.83055 0
M  V30 1626 C 150.425 2.82801 2.22925 0
M  V30 1627 C 150.278 4.21823 1.56157 0
M  V30 1628 C 151.597 2.97807 3.24035 0
M  V30 1629 H 148.716 0.594407 0.435718 0
M  V30 1630 H 151.358 1.83489 0.493136 0
M  V30 1631 H 149.508 2.65738 2.834 0
M  V30 1632 H 151.18 4.50526 0.991162 0
M  V30 1633 H 149.423 4.25105 0.864172 0
M  V30 1634 H 150.094 5.01391 2.30891 0
M  V30 1635 H 152.57 3.13497 2.73603 0
M  V30 1636 H 151.446 3.82992 3.93202 0
M  V30 1637 H 151.707 2.09328 3.89402 0
M  V30 1638 N 150.766 -0.704594 1.40972 0
M  V30 1639 C 151.994 -1.49354 1.43182 0
M  V30 1640 C 152.409 -1.88768 0.0345508 0
M  V30 1641 O 151.766 -1.56184 -0.944081 0
M  V30 1642 C 151.817 -2.76187 2.33244 0
M  V30 1643 O 151.538 -2.38436 3.67532 0
M  V30 1644 C 153.039 -3.7 2.44162 0
M  V30 1645 H 150.259 -0.460559 0.487982 0
M  V30 1646 H 152.803 -0.868261 1.85153 0
M  V30 1647 H 150.958 -3.34974 1.94606 0
M  V30 1648 H 151.372 -3.20126 4.15475 0
M  V30 1649 H 152.846 -4.55803 3.11364 0
M  V30 1650 H 153.323 -4.13867 1.47006 0
M  V30 1651 H 153.929 -3.17121 2.83398 0
M  V30 1652 N 152.244 -1.26651 -0.937939 0
M  V30 1653 C 153.176 -1.04283 -2.04102 0
M  V30 1654 C 154.189 -0.00221014 -1.628 0
M  V30 1655 O 155.378 -0.242645 -1.76843 0
M  V30 1656 C 152.478 -0.557846 -3.34277 0
M  V30 1657 C 151.651 -1.66843 -4.04329 0
M  V30 1658 C 150.71 -1.18095 -5.12777 0
M  V30 1659 O 149.736 -1.87865 -5.37304 0
M  V30 1660 N 150.938 -0.0311006 -5.80492 0
M  V30 1661 H 153.703 -1.9927 -2.23856 0
M  V30 1662 H 151.264 -1.1808 -1.10764 0
M  V30 1663 H 153.256 -0.215836 -4.04124 0
M  V30 1664 H 151.826 0.298523 -3.11171 0
M  V30 1665 H 151.046 -2.18123 -3.28353 0
M  V30 1666 H 152.334 -2.41408 -4.47883 0
M  V30 1667 H 151.732 0.551486 -5.63005 0
M  V30 1668 H 150.289 0.251809 -6.51313 0
M  V30 1669 N 153.722 1.14298 -1.08507 0
M  V30 1670 C 154.999 1.81544 -0.728088 0
M  V30 1671 C 155.379 1.95838 0.78808 0
M  V30 1672 O 154.727 1.51904 1.70697 0
M  V30 1673 C 154.937 3.17169 -1.45619 0
M  V30 1674 C 156.285 3.9265 -1.61591 0
M  V30 1675 O 157.309 3.26762 -1.41793 0
M  V30 1676 O 156.168 5.10807 -1.94263 0
M  V30 1677 H 153.262 0.78491 -0.260471 0
M  V30 1678 H 155.808 1.21307 -1.18671 0
M  V30 1679 H 154.58 3.01934 -2.489 0
M  V30 1680 H 154.203 3.851 -0.989124 0
M  V30 1681 N 155.201 0.870884 1.31352 0
M  V30 1682 C 156.449 0.48132 1.96285 0
M  V30 1683 C 156.77 -0.969813 1.69173 0
M  V30 1684 O 156.04 -1.67998 1.00764 0
M  V30 1685 H 154.62 0.175002 0.726212 0
M  V30 1686 H 157.282 1.11087 1.60143 0
M  V30 1687 H 156.378 0.639825 3.05471 0
M  V30 1688 N 156.679 -1.44442 0.630414 0
M  V30 1689 C 157.956 -1.9549 0.0655657 0
M  V30 1690 C 158.336 -1.5724 -1.40851 0
M  V30 1691 O 157.684 -0.846116 -2.12257 0
M  V30 1692 C 157.894 -3.47812 0.287691 0
M  V30 1693 C 159.242 -4.24216 0.180513 0
M  V30 1694 O 160.266 -3.55526 0.219019 0
M  V30 1695 O 159.125 -5.46434 0.0848493 0
M  V30 1696 H 156.219 -0.826688 -0.0227177 0
M  V30 1697 H 158.765 -1.54496 0.702068 0
M  V30 1698 H 157.537 -3.687 1.31056 0
M  V30 1699 H 157.16 -3.95751 -0.382984 0
M  V30 1700 N 158.157 -0.370918 -1.53173 0
M  V30 1701 C 159.09 0.516727 -2.22273 0
M  V30 1702 C 160.068 1.07877 -1.21661 0
M  V30 1703 O 161.252 1.13389 -1.50583 0
M  V30 1704 C 158.379 1.71346 -2.92161 0
M  V30 1705 C 157.425 1.27838 -4.0689 0
M  V30 1706 S 158.258 0.275217 -5.34792 0
M  V30 1707 C 159.414 1.47816 -6.08195 0
M  V30 1708 H 159.647 -0.0701054 -2.97217 0
M  V30 1709 H 157.18 -0.155038 -1.5362 0
M  V30 1710 H 159.138 2.39988 -3.3304 0
M  V30 1711 H 157.799 2.27156 -2.16931 0
M  V30 1712 H 156.992 2.17141 -4.54825 0
M  V30 1713 H 156.594 0.671105 -3.6793 0
M  V30 1714 H 158.886 2.40831 -6.33251 0
M  V30 1715 H 159.829 1.04008 -7.0042 0
M  V30 1716 H 160.237 1.68663 -5.38714 0
M  V30 1717 N 159.635 1.57281 -0.100228 0
M  V30 1718 C 160.884 1.93713 0.561984 0
M  V30 1719 C 161.197 0.984492 1.69018 0
M  V30 1720 O 162.403 1.24273 2.41389 0
M  V30 1721 C 160.859 3.4421 1.05106 0
M  V30 1722 C 160.467 4.47975 -0.0476628 0
M  V30 1723 C 162.211 3.89595 1.68571 0
M  V30 1724 C 160.118 5.89631 0.457055 0
M  V30 1725 H 159.048 0.723082 0.2137 0
M  V30 1726 H 161.699 1.82644 -0.177057 0
M  V30 1727 H 160.081 3.50449 1.84395 0
M  V30 1728 H 161.255 4.53385 -0.823333 0
M  V30 1729 H 159.57 4.1223 -0.587816 0
M  V30 1730 H 162.167 4.92832 2.07414 0
M  V30 1731 H 162.51 3.28526 2.55688 0
M  V30 1732 H 163.043 3.86078 0.958562 0
M  V30 1733 H 159.782 6.54411 -0.377616 0
M  V30 1734 H 159.302 5.87681 1.19962 0
M  V30 1735 H 160.981 6.40363 0.92437 0
M  V30 1736 N 161.113 -0.173488 1.56642 0
M  V30 1737 C 162.36 -0.890465 1.81871 0
M  V30 1738 C 162.688 -1.82339 0.67696 0
M  V30 1739 O 161.943 -1.92795 -0.335926 0
M  V30 1740 C 162.242 -1.72069 3.13252 0
M  V30 1741 C 161.908 -0.936878 4.41059 0
M  V30 1742 C 160.57 -0.720545 4.75775 0
M  V30 1743 C 162.922 -0.386919 5.19762 0
M  V30 1744 C 160.25 0.0568829 5.86672 0
M  V30 1745 C 162.602 0.37741 6.31473 0
M  V30 1746 C 161.266 0.604563 6.64757 0
M  V30 1747 H 160.536 -0.325844 0.665512 0
M  V30 1748 H 163.183 -0.155527 1.90867 0
M  V30 1749 H 161.488 -2.52496 2.99588 0
M  V30 1750 H 163.185 -2.27844 3.29982 0
M  V30 1751 H 159.775 -1.11553 4.13828 0
M  V30 1752 H 163.959 -0.541398 4.93338 0
M  V30 1753 H 159.215 0.242635 6.10918 0
M  V30 1754 H 163.389 0.810825 6.91664 0
M  V30 1755 H 161.016 1.20885 7.50527 0
M  V30 1756 N 162.591 -1.51276 -0.441967 0
M  V30 1757 C 163.521 -1.752 -1.54361 0
M  V30 1758 C 164.502 -0.601682 -1.59103 0
M  V30 1759 O 165.687 -0.843913 -1.74905 0
M  V30 1760 C 162.817 -1.87282 -2.92477 0
M  V30 1761 C 161.771 -3.02687 -3.02596 0
M  V30 1762 C 161.097 -2.99947 -4.42647 0
M  V30 1763 C 162.397 -4.4273 -2.77106 0
M  V30 1764 H 164.091 -2.67442 -1.34592 0
M  V30 1765 H 161.637 -1.28694 -0.646048 0
M  V30 1766 H 163.59 -2.02602 -3.695 0
M  V30 1767 H 162.314 -0.916844 -3.13467 0
M  V30 1768 H 160.973 -2.87065 -2.28012 0
M  V30 1769 H 160.621 -2.02136 -4.60597 0
M  V30 1770 H 160.321 -3.77439 -4.50348 0
M  V30 1771 H 161.845 -3.17354 -5.2165 0
M  V30 1772 H 163.259 -4.58727 -3.43864 0
M  V30 1773 H 161.656 -5.21893 -2.96222 0
M  V30 1774 H 162.726 -4.53087 -1.72744 0
M  V30 1775 N 164.069 0.697108 -1.41344 0
M  V30 1776 C 165.294 1.49096 -1.44171 0
M  V30 1777 C 165.719 1.88038 -0.0481568 0
M  V30 1778 O 165.077 1.54525 0.948243 0
M  V30 1779 C 165.125 2.73088 -2.3549 0
M  V30 1780 O 164.229 3.70514 -1.81088 0
M  V30 1781 H 163.57 0.448801 -0.489361 0
M  V30 1782 H 166.1 0.856992 -1.85787 0
M  V30 1783 H 166.11 3.21413 -2.51312 0
M  V30 1784 H 164.785 2.44081 -3.36745 0
M  V30 1785 H 163.362 3.29441 -1.74708 0
M  V30 1786 N 165.547 1.27147 0.931209 0
M  V30 1787 C 166.457 1.11372 2.06478 0
M  V30 1788 C 167.473 0.044645 1.73943 0
M  V30 1789 O 168.649 0.250417 1.99837 0
M  V30 1790 C 165.714 0.758838 3.38294 0
M  V30 1791 C 164.775 1.90841 3.84549 0
M  V30 1792 C 164.008 1.57036 5.10074 0
M  V30 1793 O 164.231 0.476645 5.68405 0
M  V30 1794 O 163.165 2.40839 5.51616 0
M  V30 1795 H 166.991 2.06493 2.22698 0
M  V30 1796 H 164.576 1.06301 1.04978 0
M  V30 1797 H 166.458 0.574098 4.17471 0
M  V30 1798 H 165.133 -0.162879 3.2329 0
M  V30 1799 H 164.04 2.14819 3.06274 0
M  V30 1800 H 165.373 2.81021 4.04089 0
M  V30 1801 N 167.025 -1.13721 1.09112 0
M  V30 1802 C 167.973 -2.21103 0.722219 0
M  V30 1803 C 168.967 -1.67147 -0.275374 0
M  V30 1804 O 170.173 -1.79477 -0.137176 0
M  V30 1805 H 166.548 -0.720445 0.215553 0
M  V30 1806 H 168.519 -2.49483 1.63709 0
M  V30 1807 C 167.268 -3.47352 0.15543 0
M  V30 1808 H 166.591 -3.89206 0.914246 0
M  V30 1809 H 168.031 -4.2395 -0.0647967 0
M  V30 1810 C 166.49 -3.1814 -1.10852 0
M  V30 1811 O 167.02 -3.36604 -2.19227 0
M  V30 1812 N 165.226 -2.72045 -1.02176 0
M  V30 1813 H 164.773 -2.57221 -0.139764 0
M  V30 1814 H 164.731 -2.52875 -1.8682 0
M  V30 1815 N 168.503 -0.877838 -1.30888 0
M  V30 1816 C 169.752 -0.488793 -1.95688 0
M  V30 1817 C 170.065 0.965485 -1.70111 0
M  V30 1818 O 171.271 1.46104 -2.28836 0
M  V30 1819 C 169.727 -0.823201 -3.50359 0
M  V30 1820 C 169.335 -2.29477 -3.84765 0
M  V30 1821 C 171.079 -0.503009 -4.21509 0
M  V30 1822 C 168.986 -2.57118 -5.32583 0
M  V30 1823 H 167.916 -0.179062 -0.732429 0
M  V30 1824 H 170.567 -1.07183 -1.48943 0
M  V30 1825 H 168.949 -0.169331 -3.95638 0
M  V30 1826 H 170.123 -2.99236 -3.5042 0
M  V30 1827 H 168.438 -2.58178 -3.267 0
M  V30 1828 H 171.035 -0.68665 -5.30273 0
M  V30 1829 H 171.378 0.557109 -4.12555 0
M  V30 1830 H 171.911 -1.11376 -3.8189 0
M  V30 1831 H 168.65 -3.61843 -5.4658 0
M  V30 1832 H 168.17 -1.91961 -5.68253 0
M  V30 1833 H 169.849 -2.42251 -5.99936 0
M  V30 1834 N 169.982 1.44106 -0.638065 0
M  V30 1835 C 171.207 2.0685 -0.150916 0
M  V30 1836 C 171.632 1.47417 1.16833 0
M  V30 1837 O 170.99 0.578264 1.71831 0
M  V30 1838 C 171.038 3.60555 -0.05708 0
M  V30 1839 O 170.142 4.00465 0.984972 0
M  V30 1840 H 169.483 0.658151 -0.0879399 0
M  V30 1841 H 172.013 1.84865 -0.876707 0
M  V30 1842 H 172.023 4.07789 0.131232 0
M  V30 1843 H 170.698 4.03193 -1.02021 0
M  V30 1844 H 169.275 3.64849 0.770672 0
M  V30 1845 N 171.46 0.379036 1.52974 0
M  V30 1846 C 172.407 -0.461048 2.26148 0
M  V30 1847 C 173.377 -1.06637 1.27349 0
M  V30 1848 O 174.562 -1.09633 1.56157 0
M  V30 1849 C 171.702 -1.58782 3.06402 0
M  V30 1850 C 170.815 -1.00636 4.20115 0
M  V30 1851 C 169.95 -2.10334 4.87784 0
M  V30 1852 C 168.989 -1.49724 5.93506 0
M  V30 1853 N 168.126 -2.5331 6.54812 0
M  V30 1854 H 172.966 0.169429 2.97518 0
M  V30 1855 H 170.503 0.0953806 1.4679 0
M  V30 1856 H 172.461 -2.25174 3.51215 0
M  V30 1857 H 171.091 -2.18876 2.37261 0
M  V30 1858 H 170.143 -0.232332 3.7969 0
M  V30 1859 H 171.455 -0.523343 4.96047 0
M  V30 1860 H 170.609 -2.84519 5.35849 0
M  V30 1861 H 169.348 -2.61992 4.11353 0
M  V30 1862 H 168.353 -0.740598 5.44789 0
M  V30 1863 H 169.578 -0.988732 6.71864 0
M  V30 1864 H 167.524 -3.04156 5.81227 0
M  V30 1865 H 167.441 -2.09734 7.26325 0
M  V30 1866 H 168.709 -3.27155 7.07524 0
M  V30 1867 N 172.938 -1.57226 0.108567 0
M  V30 1868 C 174.185 -1.94833 -0.551943 0
M  V30 1869 C 174.513 -0.991204 -1.67348 0
M  V30 1870 O 173.768 -0.0131878 -1.95696 0
M  V30 1871 C 174.067 -3.38911 -1.13463 0
M  V30 1872 C 173.733 -4.50696 -0.135509 0
M  V30 1873 C 172.395 -4.80998 0.139252 0
M  V30 1874 C 174.747 -5.18333 0.545957 0
M  V30 1875 C 172.075 -5.76259 1.10194 0
M  V30 1876 C 174.427 -6.14627 1.49721 0
M  V30 1877 C 173.091 -6.43327 1.78006 0
M  V30 1878 H 172.361 -0.712944 -0.20197 0
M  V30 1879 H 175.008 -1.90582 0.18726 0
M  V30 1880 H 173.313 -3.39805 -1.95037 0
M  V30 1881 H 175.01 -3.65317 -1.65362 0
M  V30 1882 H 171.6 -4.27087 -0.359846 0
M  V30 1883 H 175.784 -4.95087 0.346842 0
M  V30 1884 H 171.04 -5.96804 1.32795 0
M  V30 1885 H 175.214 -6.66126 2.03099 0
M  V30 1886 H 172.841 -7.1695 2.52759 0
M  V30 1887 N 174.416 0.165178 -1.56732 0
M  V30 1888 C 175.349 1.23336 -1.91998 0
M  V30 1889 C 176.327 1.42476 -0.783531 0
M  V30 1890 O 177.511 1.57384 -1.03743 0
M  V30 1891 C 174.638 2.59533 -2.17625 0
M  V30 1892 C 173.684 2.57093 -3.40302 0
M  V30 1893 S 174.517 2.05571 -4.9447 0
M  V30 1894 C 175.673 3.43532 -5.23198 0
M  V30 1895 H 175.906 0.932387 -2.82301 0
M  V30 1896 H 173.439 0.370013 -1.49901 0
M  V30 1897 H 175.397 3.37918 -2.3307 0
M  V30 1898 H 174.058 2.86827 -1.28019 0
M  V30 1899 H 173.251 3.57308 -3.55453 0
M  V30 1900 H 172.853 1.86806 -3.24005 0
M  V30 1901 H 175.145 4.39559 -5.15552 0
M  V30 1902 H 176.088 3.33251 -6.2478 0
M  V30 1903 H 176.496 3.39828 -4.50752 0
M  V30 1904 N 175.894 1.51508 0.433938 0
M  V30 1905 C 177.142 1.6402 1.18075 0
M  V30 1906 C 177.463 0.360328 1.91642 0
M  V30 1907 O 176.733 -0.623945 1.85698 0
M  V30 1908 H 175.313 0.6045 0.43885 0
M  V30 1909 H 177.975 1.88452 0.497178 0
M  V30 1910 H 177.071 2.46949 1.90847 0
M  V30 1911 N 177.372 -0.689602 1.41712 0
M  V30 1912 C 178.302 -1.81577 1.46806 0
M  V30 1913 C 179.283 -1.66945 0.326105 0
M  V30 1914 O 180.468 -1.86588 0.538377 0
M  V30 1915 C 177.598 -3.19762 1.35535 0
M  V30 1916 C 176.552 -3.49107 2.47605 0
M  V30 1917 C 175.878 -4.86711 2.21397 0
M  V30 1918 C 177.178 -3.47483 3.89939 0
M  V30 1919 H 178.872 -1.7757 2.41058 0
M  V30 1920 H 176.418 -0.852887 1.16025 0
M  V30 1921 H 178.371 -3.98263 1.3771 0
M  V30 1922 H 177.095 -3.24409 0.377708 0
M  V30 1923 H 175.754 -2.72959 2.44722 0
M  V30 1924 H 175.402 -4.8799 1.21961 0
M  V30 1925 H 175.102 -5.0731 2.96497 0
M  V30 1926 H 176.626 -5.67515 2.25297 0
M  V30 1927 H 178.04 -4.1598 3.94505 0
M  V30 1928 H 176.437 -3.79615 4.64771 0
M  V30 1929 H 177.507 -2.46341 4.17665 0
M  V30 1930 N 178.85 -1.27639 -0.924453 0
M  V30 1931 C 180.078 -1.16989 -1.70649 0
M  V30 1932 C 180.493 0.272869 -1.86818 0
M  V30 1933 O 179.85 1.18549 -1.38753 0
M  V30 1934 C 179.901 -1.85229 -3.10439 0
M  V30 1935 O 179.622 -3.23868 -2.95028 0
M  V30 1936 C 181.123 -1.80746 -4.04779 0
M  V30 1937 H 178.343 -0.406595 -0.53378 0
M  V30 1938 H 180.887 -1.68569 -1.15778 0
M  V30 1939 H 179.042 -1.37545 -3.6216 0
M  V30 1940 H 179.456 -3.57889 -3.83426 0
M  V30 1941 H 180.93 -2.33101 -5.00368 0
M  V30 1942 H 181.407 -0.777499 -4.32263 0
M  V30 1943 H 182.013 -2.28059 -3.58984 0
M  V30 1944 N 180.328 1.1314 -1.09713 0
M  V30 1945 C 181.26 2.18343 -0.697056 0
M  V30 1946 C 182.273 1.60669 0.262551 0
M  V30 1947 O 183.462 1.78435 0.0481527 0
M  V30 1948 C 180.562 3.38899 -0.00684728 0
M  V30 1949 C 179.735 4.26078 -0.988741 0
M  V30 1950 C 178.794 5.25155 -0.331394 0
M  V30 1951 O 177.82 5.60701 -0.979926 0
M  V30 1952 N 179.022 5.73271 0.913261 0
M  V30 1953 H 181.787 2.5328 -1.60216 0
M  V30 1954 H 179.348 1.28491 -0.984971 0
M  V30 1955 H 181.34 4.02255 0.444191 0
M  V30 1956 H 179.91 3.02175 0.800551 0
M  V30 1957 H 179.13 3.59453 -1.61826 0
M  V30 1958 H 180.418 4.81178 -1.65364 0
M  V30 1959 H 179.816 5.46544 1.45966 0
M  V30 1960 H 178.373 6.3855 1.30757 0
M  V30 1961 N 181.806 0.884767 1.30421 0
M  V30 1962 C 183.052 0.503851 1.96441 0
M  V30 1963 C 183.385 -0.944518 1.69684 0
M  V30 1964 O 182.66 -1.66737 1.00145 0
M  V30 1965 C 182.943 0.779085 3.51571 0
M  V30 1966 C 182.796 2.27807 3.87846 0
M  V30 1967 C 184.115 0.255452 4.39358 0
M  V30 1968 H 181.234 0.184533 0.713524 0
M  V30 1969 H 183.876 1.10872 1.54297 0
M  V30 1970 H 182.026 0.264274 3.876 0
M  V30 1971 H 183.698 2.86127 3.61841 0
M  V30 1972 H 181.941 2.74479 3.35922 0
M  V30 1973 H 182.612 2.42125 4.96064 0
M  V30 1974 H 185.088 0.696079 4.10236 0
M  V30 1975 H 183.964 0.477361 5.4682 0
M  V30 1976 H 184.225 -0.843293 4.33983 0
M  V30 1977 N 183.284 -1.43765 0.645699 0
M  V30 1978 C 184.194 -2.34544 -0.0512957 0
M  V30 1979 C 185.21 -1.53455 -0.82022 0
M  V30 1980 O 186.386 -1.86133 -0.769176 0
M  V30 1981 C 183.451 -3.31636 -1.01087 0
M  V30 1982 C 182.512 -4.2863 -0.239712 0
M  V30 1983 C 181.745 -5.21084 -1.15358 0
M  V30 1984 O 181.968 -5.1779 -2.39269 0
M  V30 1985 O 180.902 -5.98593 -0.630038 0
M  V30 1986 H 184.728 -2.95624 0.695718 0
M  V30 1987 H 182.313 -1.43781 0.405882 0
M  V30 1988 H 184.195 -3.9136 -1.56254 0
M  V30 1989 H 182.87 -2.73069 -1.73824 0
M  V30 1990 H 181.777 -3.72408 0.355356 0
M  V30 1991 H 183.11 -4.90157 0.447936 0
M  V30 1992 N 184.763 -0.387143 -1.52771 0
M  V30 1993 C 185.693 0.440551 -2.29306 0
M  V30 1994 C 186.674 1.06535 -1.32606 0
M  V30 1995 O 187.859 1.07853 -1.61497 0
M  V30 1996 C 184.989 1.56919 -3.09829 0
M  V30 1997 C 183.943 1.07054 -4.14395 0
M  V30 1998 C 183.269 2.29109 -4.83129 0
M  V30 1999 C 184.569 0.140015 -5.22112 0
M  V30 2000 H 186.263 -0.198026 -2.98744 0
M  V30 2001 H 183.809 -0.09668 -1.43675 0
M  V30 2002 H 185.762 2.15503 -3.62128 0
M  V30 2003 H 184.486 2.23532 -2.3812 0
M  V30 2004 H 183.145 0.507247 -3.63074 0
M  V30 2005 H 182.793 2.94227 -4.0797 0
M  V30 2006 H 182.493 1.96406 -5.53804 0
M  V30 2007 H 184.017 2.88339 -5.38231 0
M  V30 2008 H 185.431 0.633978 -5.69784 0
M  V30 2009 H 183.828 -0.0971485 -6.00021 0
M  V30 2010 H 184.898 -0.811711 -4.78058 0
M  V30 2011 N 186.241 1.57166 -0.116904 0
M  V30 2012 C 187.469 1.99473 0.549383 0
M  V30 2013 C 187.884 0.996541 1.60357 0
M  V30 2014 O 187.241 -0.0108731 1.82497 0
M  V30 2015 C 187.292 3.41788 1.17741 0
M  V30 2016 O 187.013 4.37788 0.165362 0
M  V30 2017 C 188.514 3.99216 1.92722 0
M  V30 2018 H 185.734 0.655009 0.145616 0
M  V30 2019 H 188.278 2.03494 -0.202625 0
M  V30 2020 H 186.433 3.38713 1.88021 0
M  V30 2021 H 186.847 5.20806 0.621403 0
M  V30 2022 H 188.321 5.00882 2.31995 0
M  V30 2023 H 188.798 3.3824 2.80161 0
M  V30 2024 H 189.404 4.0583 1.27209 0
M  V30 2025 N 187.719 -0.156864 1.56817 0
M  V30 2026 C 188.967 -0.869404 1.82444 0
M  V30 2027 C 189.288 -1.82147 0.69623 0
M  V30 2028 O 188.558 -1.93847 -0.28287 0
M  V30 2029 H 187.138 -0.324043 0.673056 0
M  V30 2030 H 189.8 -0.153224 1.94297 0
M  V30 2031 H 188.896 -1.43761 2.77019 0
M  V30 2032 N 189.197 -1.51736 -0.425897 0
M  V30 2033 C 190.147 -1.70258 -1.51645 0
M  V30 2034 C 191.131 -0.556488 -1.5097 0
M  V30 2035 O 192.323 -0.812879 -1.5723 0
M  V30 2036 C 189.452 -1.84143 -2.89735 0
M  V30 2037 C 188.538 -3.04572 -2.95122 0
M  V30 2038 N 188.929 -4.2756 -2.70233 0
M  V30 2039 C 187.227 -3.04061 -3.26286 0
M  V30 2040 C 187.928 -5.08908 -2.81757 0
M  V30 2041 N 186.904 -4.43797 -3.13919 0
M  V30 2042 H 190.706 -2.63004 -1.31172 0
M  V30 2043 H 188.22 -1.4954 -0.633375 0
M  V30 2044 H 190.217 -1.95525 -3.68206 0
M  V30 2045 H 188.877 -0.925857 -3.1122 0
M  V30 2046 H 189.888 -4.56315 -2.44943 0
M  V30 2047 H 186.565 -2.22179 -3.53473 0
M  V30 2048 H 187.955 -6.16843 -2.66372 0
M  V30 2049 N 190.675 0.682077 -1.42076 0
M  V30 2050 C 191.9 1.47558 -1.45744 0
M  V30 2051 C 192.325 1.87977 -0.0680981 0
M  V30 2052 O 191.683 1.55522 0.9318 0
M  V30 2053 C 191.731 2.70575 -2.38373 0
M  V30 2054 O 190.835 3.68573 -1.85007 0
M  V30 2055 H 190.176 0.443585 -0.494093 0
M  V30 2056 H 192.706 0.837238 -1.86686 0
M  V30 2057 H 192.716 3.18729 -2.54707 0
M  V30 2058 H 191.391 2.40495 -3.39315 0
M  V30 2059 H 189.968 3.2757 -1.78192 0
M  V30 2060 N 192.153 1.28127 0.917671 0
M  V30 2061 C 193.402 1.14432 1.66097 0
M  V30 2062 C 193.715 -0.307247 1.93172 0
M  V30 2063 O 194.921 -0.565259 2.65551 0
M  V30 2064 C 193.377 2.00015 2.99202 0
M  V30 2065 C 192.985 3.49889 2.79789 0
M  V30 2066 C 194.729 1.94996 3.77064 0
M  V30 2067 C 192.636 4.27636 4.08511 0
M  V30 2068 H 191.566 0.424662 0.62304 0
M  V30 2069 H 194.217 1.52628 1.01868 0
M  V30 2070 H 192.599 1.54672 3.64544 0
M  V30 2071 H 193.773 4.03162 2.23152 0
M  V30 2072 H 192.088 3.56392 2.15345 0
M  V30 2073 H 194.685 2.50354 4.72469 0
M  V30 2074 H 195.028 0.925819 4.05875 0
M  V30 2075 H 195.561 2.38287 3.18534 0
M  V30 2076 H 192.3 5.30615 3.84874 0
M  V30 2077 H 191.82 3.79137 4.64774 0
M  V30 2078 H 193.499 4.37346 4.76799 0
M  V30 2079 N 193.631 -1.12557 1.10312 0
M  V30 2080 C 194.878 -1.84038 0.844759 0
M  V30 2081 C 195.206 -1.84026 -0.629668 0
M  V30 2082 O 194.461 -1.28026 -1.48013 0
M  V30 2083 C 194.76 -3.31462 1.33669 0
M  V30 2084 C 194.426 -3.51647 2.82232 0
M  V30 2085 C 193.088 -3.56864 3.22802 0
M  V30 2086 C 195.44 -3.58867 3.77974 0
M  V30 2087 C 192.768 -3.66844 4.57867 0
M  V30 2088 C 195.12 -3.70375 5.1284 0
M  V30 2089 C 193.784 -3.73848 5.52986 0
M  V30 2090 H 193.054 -0.673444 0.309119 0
M  V30 2091 H 195.701 -1.32824 1.37949 0
M  V30 2092 H 194.006 -3.85091 0.721949 0
M  V30 2093 H 195.703 -3.85236 1.11329 0
M  V30 2094 H 192.293 -3.48249 2.49842 0
M  V30 2095 H 196.477 -3.54107 3.47738 0
M  V30 2096 H 191.733 -3.67804 4.88396 0
M  V30 2097 H 195.907 -3.74904 5.86873 0
M  V30 2098 H 193.534 -3.81333 6.57639 0
M  V30 2099 N 195.109 -0.891671 -1.2995 0
M  V30 2100 C 196.386 -0.433307 -1.9074 0
M  V30 2101 C 196.766 1.08646 -1.80995 0
M  V30 2102 O 196.114 1.92476 -1.23147 0
M  V30 2103 C 196.324 -0.938895 -3.36134 0
M  V30 2104 C 197.672 -0.977829 -4.13187 0
M  V30 2105 O 198.696 -0.886015 -3.45005 0
M  V30 2106 O 197.555 -1.11453 -5.35015 0
M  V30 2107 H 194.649 -0.133699 -0.816121 0
M  V30 2108 H 197.195 -0.981011 -1.38471 0
M  V30 2109 H 195.967 -1.98281 -3.37343 0
M  V30 2110 H 195.59 -0.37074 -3.95868 0
M  V30 2111 N 196.587 1.43421 -0.653314 0
M  V30 2112 C 197.834 2.01812 -0.166745 0
M  V30 2113 C 198.162 1.51535 1.21931 0
M  V30 2114 O 197.417 0.698975 1.82792 0
M  V30 2115 C 197.716 3.57176 -0.126623 0
M  V30 2116 C 197.382 4.26798 -1.45444 0
M  V30 2117 C 196.044 4.45534 -1.81805 0
M  V30 2118 C 198.396 4.66225 -2.32989 0
M  V30 2119 C 195.724 5.00961 -3.05377 0
M  V30 2120 C 198.076 5.23021 -3.55853 0
M  V30 2121 C 196.74 5.39973 -3.9241 0
M  V30 2122 H 196.01 0.738484 -0.0610162 0
M  V30 2123 H 198.657 1.71896 -0.84404 0
M  V30 2124 H 196.962 3.86634 0.634123 0
M  V30 2125 H 198.659 4.00112 0.266723 0
M  V30 2126 H 195.249 4.12561 -1.16153 0
M  V30 2127 H 199.433 4.51443 -2.06187 0
M  V30 2128 H 194.689 5.12271 -3.3375 0
M  V30 2129 H 198.863 5.52518 -4.23907 0
M  V30 2130 H 196.49 5.82687 -4.88242 0
M  V30 2131 N 198.065 0.39524 1.52563 0
M  V30 2132 C 199.293 -0.184943 2.06072 0
M  V30 2133 C 199.708 -1.40021 1.26647 0
M  V30 2134 O 199.065 -1.79767 0.314672 0
M  V30 2135 C 199.116 -0.549179 3.57304 0
M  V30 2136 O 198.837 0.617813 4.33722 0
M  V30 2137 C 200.338 -1.18459 4.2718 0
M  V30 2138 H 197.558 -0.0265025 0.670476 0
M  V30 2139 H 200.102 0.562184 1.96621 0
M  V30 2140 H 198.257 -1.2462 3.66809 0
M  V30 2141 H 198.671 0.317091 5.23541 0
M  V30 2142 H 200.145 -1.38976 5.34219 0
M  V30 2143 H 200.622 -2.15368 3.82771 0
M  V30 2144 H 201.228 -0.528163 4.22008 0
M  V30 2145 N 199.544 -1.57102 0.125237 0
M  V30 2146 C 200.494 -2.12202 -0.833936 0
M  V30 2147 C 201.478 -1.04433 -1.22403 0
M  V30 2148 O 202.67 -1.30655 -1.19408 0
M  V30 2149 C 199.799 -2.72994 -2.08157 0
M  V30 2150 C 198.885 -3.87852 -1.71556 0
M  V30 2151 N 199.276 -4.9464 -1.05662 0
M  V30 2152 C 197.574 -3.98153 -2.00973 0
M  V30 2153 C 198.275 -5.74953 -0.883376 0
M  V30 2154 N 197.251 -5.24985 -1.41036 0
M  V30 2155 H 201.053 -2.92141 -0.321035 0
M  V30 2156 H 198.567 -1.62217 -0.0770315 0
M  V30 2157 H 200.564 -3.10816 -2.77847 0
M  V30 2158 H 199.224 -1.9452 -2.59985 0
M  V30 2159 H 200.235 -5.12872 -0.719878 0
M  V30 2160 H 196.912 -3.30728 -2.54804 0
M  V30 2161 H 198.302 -6.70904 -0.365675 0
M  V30 2162 N 201.022 0.148545 -1.56898 0
M  V30 2163 C 202.433 0.708766 -1.72723 0
M  V30 2164 C 202.784 1.81734 -0.739395 0
M  V30 2165 O 201.909 2.16194 0.0943169 0
M  V30 2166 C 202.504 1.29245 -3.13179 0
M  V30 2167 C 201.063 1.79925 -3.30611 0
M  V30 2168 C 200.21 0.687111 -2.68652 0
M  V30 2169 H 203.161 -0.0771063 -1.58513 0
M  V30 2170 H 203.182 2.16224 -3.13093 0
M  V30 2171 H 202.694 0.485382 -3.85053 0
M  V30 2172 H 200.795 2.63203 -2.63732 0
M  V30 2173 H 200.908 1.92903 -4.38549 0
M  V30 2174 H 199.272 1.11335 -2.29078 0
M  V30 2175 H 200.055 -0.108483 -3.43129 0
M  V30 2176 N 202.5 1.5196 0.417844 0
M  V30 2177 C 203.74 1.67262 1.17486 0
M  V30 2178 C 204.104 0.38983 1.88001 0
M  V30 2179 O 205.305 0.418845 2.65517 0
M  V30 2180 C 203.576 2.85526 2.14965 0
M  V30 2181 S 205.135 3.21263 2.98891 0
M  V30 2182 H 201.953 0.589077 0.398132 0
M  V30 2183 H 204.555 1.89927 0.463452 0
M  V30 2184 H 203.259 3.77145 1.61833 0
M  V30 2185 H 202.79 2.65107 2.90657 0
M  V30 2186 H 204.805 2.69208 4.16823 0
M  V30 2187 N 203.978 -0.674533 1.42435 0
M  V30 2188 C 205.255 -1.4305 1.33402 0
M  V30 2189 C 205.635 -2.11081 -0.0284674 0
M  V30 2190 O 204.983 -2.03257 -1.04397 0
M  V30 2191 C 205.193 -2.43272 2.50239 0
M  V30 2192 C 206.541 -3.07907 2.92367 0
M  V30 2193 O 207.565 -2.53599 2.50132 0
M  V30 2194 O 206.424 -4.0632 3.65467 0
M  V30 2195 H 203.518 -0.638076 0.526106 0
M  V30 2196 H 206.064 -0.703235 1.54443 0
M  V30 2197 H 204.836 -1.91803 3.41068 0
M  V30 2198 H 204.459 -3.23479 2.31186 0
M  V30 2199 N 205.456 -1.28612 -0.910864 0
M  V30 2200 C 206.406 -1.09423 -2.00026 0
M  V30 2201 C 207.39 -0.0170079 -1.60891 0
M  V30 2202 O 208.582 -0.237472 -1.754 0
M  V30 2203 C 205.711 -0.76114 -3.34756 0
M  V30 2204 C 204.797 -1.87735 -3.80285 0
M  V30 2205 N 205.188 -3.11938 -3.98156 0
M  V30 2206 C 203.486 -1.76786 -4.09467 0
M  V30 2207 C 204.187 -3.84687 -4.36338 0
M  V30 2208 N 203.163 -3.12555 -4.44759 0
M  V30 2209 H 206.965 -2.03658 -2.11898 0
M  V30 2210 H 204.479 -1.19573 -1.09891 0
M  V30 2211 H 206.476 -0.604743 -4.12491 0
M  V30 2212 H 205.136 0.173403 -3.24237 0
M  V30 2213 H 206.147 -3.47516 -3.83996 0
M  V30 2214 H 202.824 -0.905284 -4.07567 0
M  V30 2215 H 204.214 -4.91518 -4.58104 0
M  V30 2216 N 206.934 1.1197 -1.10907 0
M  V30 2217 C 207.844 2.21433 -0.774896 0
M  V30 2218 C 208.86 1.72478 0.229657 0
M  V30 2219 O 210.036 2.01288 0.0672008 0
M  V30 2220 C 207.101 3.4602 -0.216986 0
M  V30 2221 C 206.162 4.09791 -1.27944 0
M  V30 2222 C 205.395 5.28431 -0.748055 0
M  V30 2223 O 205.618 5.68823 0.423833 0
M  V30 2224 O 204.552 5.82644 -1.51027 0
M  V30 2225 H 208.378 2.5242 -1.68873 0
M  V30 2226 H 205.963 1.20399 -0.884555 0
M  V30 2227 H 207.845 4.21304 0.090059 0
M  V30 2228 H 206.52 3.16698 0.669633 0
M  V30 2229 H 205.427 3.36265 -1.63941 0
M  V30 2230 H 206.76 4.4328 -2.13925 0
M  V30 2231 N 208.412 0.89855 1.29475 0
M  V30 2232 C 209.322 0.379974 2.31502 0
M  V30 2233 C 210.338 -0.524695 1.659 0
M  V30 2234 O 211.514 -0.414551 1.97087 0
M  V30 2235 C 208.579 -0.385138 3.44554 0
M  V30 2236 C 207.64 0.550914 4.2575 0
M  V30 2237 C 206.873 -0.177778 5.33404 0
M  V30 2238 O 207.096 -1.40189 5.52904 0
M  V30 2239 O 206.03 0.479106 5.9999 0
M  V30 2240 H 209.856 1.22639 2.77837 0
M  V30 2241 H 207.441 0.662834 1.33891 0
M  V30 2242 H 209.323 -0.817841 4.13388 0
M  V30 2243 H 207.998 -1.20763 3.0033 0
M  V30 2244 H 206.905 1.03271 3.59564 0
M  V30 2245 H 208.238 1.33979 4.73614 0
M  V30 2246 N 209.89 -1.43072 0.660911 0
M  V30 2247 C 211.139 -2.00942 0.174735 0
M  V30 2248 C 211.452 -1.52797 -1.22117 0
M  V30 2249 O 212.658 -2.02991 -1.80297 0
M  V30 2250 C 211.114 -3.58948 0.261559 0
M  V30 2251 C 210.722 -4.16085 1.66064 0
M  V30 2252 C 212.466 -4.24173 -0.166617 0
M  V30 2253 C 210.373 -5.6641 1.70098 0
M  V30 2254 H 209.303 -0.751483 0.0615631 0
M  V30 2255 H 211.954 -1.63955 0.824069 0
M  V30 2256 H 210.336 -3.93372 -0.455421 0
M  V30 2257 H 211.51 -3.93147 2.40359 0
M  V30 2258 H 209.825 -3.6326 2.03546 0
M  V30 2259 H 212.422 -5.34471 -0.156433 0
M  V30 2260 H 212.765 -3.98647 -1.19943 0
M  V30 2261 H 213.298 -3.94659 0.498875 0
M  V30 2262 H 210.037 -5.96715 2.71315 0
M  V30 2263 H 209.557 -5.91382 1.00139 0
M  V30 2264 H 211.236 -6.30585 1.44816 0
M  V30 2265 N 211.368 -0.403325 -1.52352 0
M  V30 2266 C 212.784 -0.0539281 -1.59509 0
M  V30 2267 C 212.984 1.43307 -1.41652 0
M  V30 2268 O 212.04 2.19924 -1.24056 0
M  V30 2269 C 213.353 -0.543654 -2.95745 0
M  V30 2270 C 214.901 -0.501125 -3.08962 0
M  V30 2271 C 215.376 -0.967267 -4.47669 0
M  V30 2272 N 216.867 -0.923849 -4.53893 0
M  V30 2273 C 217.602 -1.25578 -5.5948 0
M  V30 2274 N 217.098 -1.65889 -6.72646 0
M  V30 2275 N 218.891 -1.17613 -5.49658 0
M  V30 2276 H 211.042 -1.37123 -1.62206 0
M  V30 2277 H 213.305 -0.56294 -0.76276 0
M  V30 2278 H 213.011 -1.58275 -3.14073 0
M  V30 2279 H 212.885 0.0498042 -3.77167 0
M  V30 2280 H 215.272 0.528909 -2.90321 0
M  V30 2281 H 215.353 -1.13056 -2.2946 0
M  V30 2282 H 214.997 -1.9956 -4.67053 0
M  V30 2283 H 214.927 -0.314698 -5.25659 0
M  V30 2284 H 217.418 -0.627403 -3.72655 0
M  V30 2285 H 217.731 -1.89543 -7.49195 0
M  V30 2286 H 216.076 -1.69787 -6.73942 0
M  V30 2287 H 219.267 -0.860115 -4.6013 0
M  V30 2288 H 219.44 -1.43812 -6.3184 0
M  V30 2289 N 212.846 1.57033 -0.133567 0
M  V30 2290 C 213.756 2.19632 0.824564 0
M  V30 2291 C 214.772 1.17666 1.28182 0
M  V30 2292 O 215.948 1.50193 1.3418 0
M  V30 2293 C 213.013 2.79499 2.05137 0
M  V30 2294 C 212.074 3.96548 1.64464 0
M  V30 2295 C 211.307 4.5355 2.81297 0
M  V30 2296 O 211.53 4.09438 3.97136 0
M  V30 2297 O 210.464 5.44018 2.57542 0
M  V30 2298 H 214.29 3.01991 0.321766 0
M  V30 2299 H 211.875 1.49112 0.0927889 0
M  V30 2300 H 213.757 3.17602 2.7696 0
M  V30 2301 H 212.432 2.00162 2.54395 0
M  V30 2302 H 211.339 3.63186 0.897048 0
M  V30 2303 H 212.672 4.77364 1.19934 0
M  V30 2304 N 214.325 -0.140222 1.56975 0
M  V30 2305 C 215.273 -1.19207 1.99731 0
M  V30 2306 C 216.267 -1.44089 0.890777 0
M  V30 2307 O 217.473 -1.44301 1.07597 0
M  V30 2308 H 213.848 -0.40142 0.635898 0
M  V30 2309 H 215.819 -0.804813 2.87342 0
M  V30 2310 C 214.568 -2.51617 2.39967 0
M  V30 2311 H 213.891 -2.33303 3.24669 0
M  V30 2312 H 215.331 -3.23827 2.73701 0
M  V30 2313 C 213.79 -3.12654 1.25496 0
M  V30 2314 O 214.32 -3.97786 0.559371 0
M  V30 2315 N 212.526 -2.72206 1.01746 0
M  V30 2316 H 212.073 -2.03074 1.58489 0
M  V30 2317 H 212.031 -3.13377 0.253461 0
M  V30 2318 N 215.803 -1.52179 -0.40978 0
M  V30 2319 C 216.733 -1.78435 -1.5061 0
M  V30 2320 C 217.714 -0.635295 -1.57791 0
M  V30 2321 O 218.899 -0.880823 -1.73076 0
M  V30 2322 C 216.029 -1.93444 -2.88439 0
M  V30 2323 C 214.983 -3.09038 -2.96108 0
M  V30 2324 C 214.309 -3.09268 -4.36185 0
M  V30 2325 C 215.609 -4.48508 -2.67652 0
M  V30 2326 H 217.303 -2.70237 -1.28889 0
M  V30 2327 H 214.849 -1.30036 -0.618605 0
M  V30 2328 H 216.802 -2.10394 -3.65119 0
M  V30 2329 H 215.526 -0.983129 -3.11452 0
M  V30 2330 H 214.185 -2.91837 -2.21872 0
M  V30 2331 H 213.833 -2.11861 -4.56206 0
M  V30 2332 H 213.533 -3.86907 -4.42241 0
M  V30 2333 H 215.057 -3.28348 -5.14801 0
M  V30 2334 H 216.471 -4.65918 -3.34056 0
M  V30 2335 H 214.868 -5.28059 -2.85085 0
M  V30 2336 H 215.938 -4.56649 -1.63095 0
M  V30 2337 N 217.281 0.66697 -1.42791 0
M  V30 2338 C 218.506 1.46004 -1.47301 0
M  V30 2339 C 218.931 1.87894 -0.0880317 0
M  V30 2340 O 218.289 1.56502 0.915253 0
M  V30 2341 C 218.337 2.68031 -2.41229 0
M  V30 2342 O 217.441 3.6659 -1.88906 0
M  V30 2343 H 216.782 0.43832 -0.49877 0
M  V30 2344 H 219.312 0.817391 -1.87563 0
M  V30 2345 H 219.322 3.1601 -2.58073 0
M  V30 2346 H 217.997 2.36883 -3.41847 0
M  V30 2347 H 216.574 3.25661 -1.81656 0
M  V30 2348 N 218.759 1.29093 0.90403 0
M  V30 2349 C 219.689 1.16401 2.02418 0
M  V30 2350 C 220.67 0.0593085 1.69997 0
M  V30 2351 O 221.855 0.238021 1.92736 0
M  V30 2352 C 218.985 0.835233 3.37107 0
M  V30 2353 C 217.939 1.89578 3.83724 0
M  V30 2354 C 217.265 1.42041 5.15489 0
M  V30 2355 C 218.565 3.30394 4.04521 0
M  V30 2356 H 220.259 2.10109 2.13295 0
M  V30 2357 H 217.805 1.01157 1.02486 0
M  V30 2358 H 219.758 0.733169 4.14973 0
M  V30 2359 H 218.482 -0.137543 3.2631 0
M  V30 2360 H 217.141 1.98715 3.08071 0
M  V30 2361 H 216.789 0.436426 5.01103 0
M  V30 2362 H 216.489 2.12964 5.4765 0
M  V30 2363 H 218.013 1.33176 5.959 0
M  V30 2364 H 219.427 3.24123 4.72882 0
M  V30 2365 H 217.824 3.99237 4.48029 0
M  V30 2366 H 218.894 3.73692 3.09002 0
M  V30 2367 N 220.237 -1.11381 1.11499 0
M  V30 2368 C 221.184 -2.17439 0.773887 0
M  V30 2369 C 222.154 -1.64132 -0.254899 0
M  V30 2370 O 223.339 -1.90345 -0.13168 0
M  V30 2371 C 220.479 -3.44373 0.223917 0
M  V30 2372 C 219.592 -4.1168 1.30934 0
M  V30 2373 C 218.727 -5.263 0.71984 0
M  V30 2374 C 217.766 -5.85493 1.78507 0
M  V30 2375 N 216.903 -6.91507 1.21502 0
M  V30 2376 H 221.743 -2.45962 1.68246 0
M  V30 2377 H 219.28 -1.20744 0.840191 0
M  V30 2378 H 221.238 -4.17047 -0.112921 0
M  V30 2379 H 219.868 -3.16232 -0.647851 0
M  V30 2380 H 218.92 -3.37073 1.76312 0
M  V30 2381 H 220.232 -4.51729 2.11524 0
M  V30 2382 H 219.386 -6.05785 0.333094 0
M  V30 2383 H 218.125 -4.87559 -0.117377 0
M  V30 2384 H 217.13 -5.04686 2.18111 0
M  V30 2385 H 218.355 -6.26301 2.62533 0
M  V30 2386 H 216.301 -6.54783 0.399455 0
M  V30 2387 H 216.218 -7.30214 1.95763 0
M  V30 2388 H 217.486 -7.74795 0.855181 0
M  V30 2389 N 221.715 -0.905404 -1.28997 0
M  V30 2390 C 222.663 -0.377431 -2.29517 0
M  V30 2391 C 223.657 0.526461 -1.61012 0
M  V30 2392 O 224.863 0.40863 -1.753 0
M  V30 2393 H 221.238 -0.103437 -0.744852 0
M  V30 2394 H 223.209 -1.23848 -2.71485 0
M  V30 2395 C 221.958 0.374833 -3.45674 0
M  V30 2396 H 221.281 -0.311474 -3.98585 0
M  V30 2397 H 222.721 0.70903 -4.1803 0
M  V30 2398 C 221.18 1.57963 -2.97572 0
M  V30 2399 O 221.71 2.67886 -2.99333 0
M  V30 2400 N 219.916 1.42375 -2.53333 0
M  V30 2401 H 219.463 0.529466 -2.521 0
M  V30 2402 H 219.421 2.23117 -2.21509 0
M  V30 2403 N 223.193 1.4272 -0.668489 0
M  V30 2404 C 224.441 2.01226 -0.187769 0
M  V30 2405 C 224.762 1.53092 1.2078 0
M  V30 2406 O 224.032 0.74993 1.80977 0
M  V30 2407 H 222.612 0.744041 -0.0664272 0
M  V30 2408 H 225.274 1.74723 -0.863583 0
M  V30 2409 H 224.37 3.11556 -0.184166 0
M  V30 2410 N 224.671 0.411399 1.52136 0
M  V30 2411 C 225.896 -0.165538 2.06738 0
M  V30 2412 C 226.321 -1.379 1.27926 0
M  V30 2413 O 225.679 -1.78628 0.310114 0
M  V30 2414 C 225.727 -0.492124 3.57226 0
M  V30 2415 O 224.831 -1.58276 3.80818 0
M  V30 2416 H 224.172 -0.0132132 0.663869 0
M  V30 2417 H 226.702 0.585253 1.96051 0
M  V30 2418 H 226.712 -0.750104 4.01045 0
M  V30 2419 H 225.387 0.394922 4.14021 0
M  V30 2420 H 223.964 -1.31677 3.48877 0
M  V30 2421 N 226.149 -1.5696 0.141893 0
M  V30 2422 C 227.397 -1.95573 -0.509484 0
M  V30 2423 C 227.718 -1.02746 -1.65736 0
M  V30 2424 O 226.988 -0.0880311 -1.95702 0
M  V30 2425 H 225.568 -0.722115 -0.191205 0
M  V30 2426 H 228.23 -1.93697 0.216196 0
M  V30 2427 H 227.326 -2.99171 -0.889 0
M  V30 2428 N 227.627 0.131896 -1.57047 0
M  V30 2429 C 228.874 0.841932 -1.84168 0
M  V30 2430 C 229.202 1.8048 -0.725066 0
M  V30 2431 O 228.457 1.93618 0.284692 0
M  V30 2432 C 228.756 1.63703 -3.17704 0
M  V30 2433 C 228.422 0.81961 -4.43388 0
M  V30 2434 C 227.084 0.594148 -4.77518 0
M  V30 2435 C 229.436 0.248977 -5.20605 0
M  V30 2436 C 226.764 -0.212409 -5.86315 0
M  V30 2437 C 229.116 -0.544701 -6.30251 0
M  V30 2438 C 227.78 -0.780599 -6.6292 0
M  V30 2439 H 227.05 0.308085 -0.673917 0
M  V30 2440 H 229.697 0.104867 -1.91213 0
M  V30 2441 H 228.002 2.44464 -3.06177 0
M  V30 2442 H 229.699 2.19015 -3.35907 0
M  V30 2443 H 226.289 1.00542 -4.16641 0
M  V30 2444 H 230.473 0.410408 -4.946 0
M  V30 2445 H 225.729 -0.404524 -6.1006 0
M  V30 2446 H 229.903 -0.993922 -6.89271 0
M  V30 2447 H 227.53 -1.40742 -7.47058 0
M  V30 2448 N 229.106 1.52395 0.401703 0
M  V30 2449 C 230.354 1.66488 1.14569 0
M  V30 2450 C 230.675 0.400897 1.90835 0
M  V30 2451 O 229.945 -0.584415 1.8698 0
M  V30 2452 H 228.525 0.613672 0.425929 0
M  V30 2453 H 231.187 1.89464 0.457093 0
M  V30 2454 H 230.283 2.50942 1.85566 0
M  V30 2455 N 230.584 -0.659388 1.43143 0
M  V30 2456 C 231.531 -1.77249 1.47822 0
M  V30 2457 C 232.501 -1.62818 0.328558 0
M  V30 2458 O 233.686 -1.83151 0.534838 0
M  V30 2459 C 230.826 -3.15371 1.40126 0
M  V30 2460 C 229.939 -3.4098 2.65249 0
M  V30 2461 C 229.074 -4.68915 2.49584 0
M  V30 2462 C 228.113 -4.87608 3.70006 0
M  V30 2463 N 227.25 -6.06796 3.53189 0
M  V30 2464 H 232.09 -1.72584 2.42938 0
M  V30 2465 H 229.627 -0.842297 1.20598 0
M  V30 2466 H 231.585 -3.9521 1.33659 0
M  V30 2467 H 230.215 -3.19121 0.485964 0
M  V30 2468 H 229.267 -2.55282 2.8202 0
M  V30 2469 H 230.579 -3.50681 3.54717 0
M  V30 2470 H 229.733 -5.56871 2.4079 0
M  V30 2471 H 228.472 -4.61524 1.5763 0
M  V30 2472 H 227.477 -3.9809 3.79215 0
M  V30 2473 H 228.702 -4.96834 4.62961 0
M  V30 2474 H 226.648 -6.00549 2.63965 0
M  V30 2475 H 226.565 -6.17428 4.36255 0
M  V30 2476 H 227.833 -6.9739 3.48236 0
M  V30 2477 N 232.062 -1.29571 -0.897171 0
M  V30 2478 C 233.009 -1.14916 -2.00158 0
M  V30 2479 C 233.979 -0.0418149 -1.66047 0
M  V30 2480 O 235.164 -0.209793 -1.89643 0
M  V30 2481 C 232.304 -0.834307 -3.34863 0
M  V30 2482 C 231.417 -2.02234 -3.8174 0
M  V30 2483 C 230.552 -1.64664 -5.05034 0
M  V30 2484 C 229.591 -2.80033 -5.44286 0
M  V30 2485 N 228.728 -2.42843 -6.58765 0
M  V30 2486 H 233.568 -2.09403 -2.12025 0
M  V30 2487 H 231.105 -1.042 -1.0383 0
M  V30 2488 H 233.063 -0.632436 -4.12379 0
M  V30 2489 H 231.693 0.0736656 -3.22716 0
M  V30 2490 H 230.745 -2.33583 -3.00238 0
M  V30 2491 H 232.057 -2.88673 -4.06779 0
M  V30 2492 H 231.211 -1.4078 -5.9014 0
M  V30 2493 H 229.95 -0.753766 -4.8184 0
M  V30 2494 H 228.955 -3.04596 -4.57713 0
M  V30 2495 H 230.18 -3.69989 -5.6946 0
M  V30 2496 H 228.126 -1.56046 -6.3717 0
M  V30 2497 H 228.043 -3.22815 -6.83613 0
M  V30 2498 H 229.311 -2.22285 -7.47134 0
M  V30 2499 N 233.54 1.10788 -1.12088 0
M  V30 2500 C 234.765 1.87002 -0.896949 0
M  V30 2501 C 235.19 1.79933 0.548261 0
M  V30 2502 O 234.548 1.16662 1.38779 0
M  V30 2503 C 234.596 3.3349 -1.37174 0
M  V30 2504 O 233.7 4.08745 -0.547831 0
M  V30 2505 H 233.041 0.580397 -0.322545 0
M  V30 2506 H 235.571 1.39996 -1.49206 0
M  V30 2507 H 235.581 3.84339 -1.36922 0
M  V30 2508 H 234.256 3.37951 -2.42408 0
M  V30 2509 H 232.833 3.6776 -0.617034 0
M  V30 2510 N 235.018 0.912232 1.28515 0
M  V30 2511 C 235.965 0.397954 2.27343 0
M  V30 2512 C 236.935 -0.526766 1.57526 0
M  V30 2513 O 238.12 -0.449292 1.85435 0
M  V30 2514 C 235.26 -0.357263 3.43246 0
M  V30 2515 C 234.373 0.599788 4.27816 0
M  V30 2516 C 233.508 -0.173725 5.30916 0
M  V30 2517 C 232.547 0.777039 6.07148 0
M  V30 2518 N 231.684 0.0371398 7.0209 0
M  V30 2519 H 236.524 1.24577 2.70711 0
M  V30 2520 H 234.061 0.625612 1.33133 0
M  V30 2521 H 236.019 -0.8113 4.09236 0
M  V30 2522 H 234.649 -1.16943 3.00872 0
M  V30 2523 H 233.701 1.17235 3.61884 0
M  V30 2524 H 235.013 1.32704 4.80823 0
M  V30 2525 H 234.167 -0.688394 6.02782 0
M  V30 2526 H 232.906 -0.934041 4.78672 0
M  V30 2527 H 231.911 1.3031 5.34134 0
M  V30 2528 H 233.136 1.53689 6.61481 0
M  V30 2529 H 231.082 -0.705213 6.52198 0
M  V30 2530 H 230.999 0.704249 7.52713 0
M  V30 2531 H 232.267 -0.457383 7.78157 0
M  V30 2532 N 236.496 -1.42363 0.676048 0
M  V30 2533 C 237.773 -1.95183 0.127726 0
M  V30 2534 C 238.153 -1.61641 -1.35777 0
M  V30 2535 O 237.501 -0.913216 -2.09458 0
M  V30 2536 C 237.711 -3.46721 0.398199 0
M  V30 2537 C 239.059 -4.23427 0.315383 0
M  V30 2538 O 240.083 -3.54649 0.332016 0
M  V30 2539 O 238.942 -5.45888 0.25865 0
M  V30 2540 H 236.036 -0.826992 0.00359427 0
M  V30 2541 H 238.582 -1.52184 0.750864 0
M  V30 2542 H 237.354 -3.64344 1.4272 0
M  V30 2543 H 236.977 -3.96769 -0.256885 0
M  V30 2544 N 237.974 -0.419461 -1.51915 0
M  V30 2545 C 238.907 0.445751 -2.23804 0
M  V30 2546 C 239.885 1.03951 -1.25031 0
M  V30 2547 O 241.069 1.08541 -1.54114 0
M  V30 2548 C 238.196 1.61964 -2.97465 0
M  V30 2549 C 237.242 1.14828 -4.10751 0
M  V30 2550 S 238.075 0.104938 -5.35397 0
M  V30 2551 C 239.231 1.28391 -6.1259 0
M  V30 2552 H 239.464 -0.164627 -2.96844 0
M  V30 2553 H 236.997 -0.203833 -1.53049 0
M  V30 2554 H 238.955 2.29271 -3.40507 0
M  V30 2555 H 237.616 2.20139 -2.24048 0
M  V30 2556 H 236.809 2.02561 -4.61503 0
M  V30 2557 H 236.411 0.553712 -3.69878 0
M  V30 2558 H 238.703 2.20563 -6.40592 0
M  V30 2559 H 239.646 0.816724 -7.03374 0
M  V30 2560 H 240.054 1.51439 -5.43807 0
M  V30 2561 N 239.452 1.56882 -0.150215 0
M  V30 2562 C 240.677 2.01027 0.510184 0
M  V30 2563 C 241.102 1.02966 1.57415 0
M  V30 2564 O 240.46 0.00590158 1.81299 0
M  V30 2565 C 240.508 3.43899 1.08472 0
M  V30 2566 O 239.612 3.4885 2.19948 0
M  V30 2567 H 238.953 0.652233 0.124451 0
M  V30 2568 H 241.483 2.03093 -0.247894 0
M  V30 2569 H 241.493 3.82766 1.41259 0
M  V30 2570 H 240.168 4.14776 0.305582 0
M  V30 2571 H 238.745 3.21827 1.88366 0
M  V30 2572 N 240.93 -0.123565 1.57115 0
M  V30 2573 C 242.158 -0.846461 1.88793 0
M  V30 2574 C 242.573 -1.73652 0.740976 0
M  V30 2575 O 241.93 -1.80207 -0.288393 0
M  V30 2576 C 241.981 -1.6837 3.19897 0
M  V30 2577 O 241.702 -0.829477 4.30176 0
M  V30 2578 C 243.203 -2.51214 3.65248 0
M  V30 2579 H 240.423 -0.243573 0.625231 0
M  V30 2580 H 242.967 -0.109324 2.04208 0
M  V30 2581 H 241.122 -2.37364 3.06165 0
M  V30 2582 H 241.536 -1.40651 5.0529 0
M  V30 2583 H 243.01 -3.05497 4.59756 0
M  V30 2584 H 243.487 -3.28359 2.9168 0
M  V30 2585 H 244.093 -1.8747 3.81752 0
M  V30 2586 N 242.408 -1.52605 -0.393616 0
M  V30 2587 C 243.318 -1.79971 -1.50492 0
M  V30 2588 C 244.334 -0.686181 -1.59899 0
M  V30 2589 O 245.51 -0.973274 -1.76322 0
M  V30 2590 C 242.575 -1.95867 -2.86072 0
M  V30 2591 C 241.636 -3.19781 -2.86424 0
M  V30 2592 C 240.869 -3.34909 -4.15538 0
M  V30 2593 O 241.092 -2.54948 -5.10253 0
M  V30 2594 O 240.026 -4.28141 -4.23059 0
M  V30 2595 H 243.852 -2.74328 -1.30299 0
M  V30 2596 H 241.437 -1.3764 -0.581005 0
M  V30 2597 H 243.319 -2.08056 -3.66457 0
M  V30 2598 H 241.994 -1.04699 -3.063 0
M  V30 2599 H 240.901 -3.13038 -2.04837 0
M  V30 2600 H 242.234 -4.1078 -2.71147 0
M  V30 2601 N 243.887 0.651787 -1.4349 0
M  V30 2602 C 245.303 0.96762 -1.26922 0
M  V30 2603 C 245.503 2.00602 -0.189982 0
M  V30 2604 O 244.559 2.48793 0.431107 0
M  V30 2605 C 245.872 1.45052 -2.63401 0
M  V30 2606 C 247.42 1.5671 -2.70945 0
M  V30 2607 C 247.895 2.0839 -4.07845 0
M  V30 2608 N 249.386 2.1569 -4.09917 0
M  V30 2609 C 250.121 2.56804 -5.12679 0
M  V30 2610 N 249.617 2.97203 -6.25813 0
M  V30 2611 N 251.41 2.56756 -5.00033 0
M  V30 2612 H 243.561 -0.0353158 -2.12371 0
M  V30 2613 H 245.824 0.0467858 -0.946845 0
M  V30 2614 H 245.53 0.761926 -3.43348 0
M  V30 2615 H 245.404 2.42529 -2.88894 0
M  V30 2616 H 247.791 2.2467 -1.9133 0
M  V30 2617 H 247.872 0.57662 -2.49216 0
M  V30 2618 H 247.516 1.41031 -4.87927 0
M  V30 2619 H 247.446 3.08271 -4.26938 0
M  V30 2620 H 249.937 1.87237 -3.28254 0
M  V30 2621 H 250.25 3.27328 -7.00055 0
M  V30 2622 H 248.595 2.95004 -6.29283 0
M  V30 2623 H 251.786 2.24572 -4.10713 0
M  V30 2624 H 251.959 2.88475 -5.80247 0
M  V30 2625 N 245.365 1.30045 0.890287 0
M  V30 2626 C 246.642 1.09227 1.62262 0
M  V30 2627 C 247.022 -0.360305 2.08002 0
M  V30 2628 O 246.37 -1.35084 1.84295 0
M  V30 2629 C 246.58 2.08835 2.79623 0
M  V30 2630 C 247.928 2.40266 3.50082 0
M  V30 2631 O 248.952 2.07104 2.89804 0
M  V30 2632 O 247.811 2.96967 4.58773 0
M  V30 2633 H 244.905 0.419132 0.712922 0
M  V30 2634 H 247.451 1.41451 0.937529 0
M  V30 2635 H 246.223 3.06633 2.43089 0
M  V30 2636 H 245.846 1.77397 3.55832 0
M  V30 2637 N 246.843 -1.10192 1.12674 0
M  V30 2638 C 248.09 -1.82205 0.883606 0
M  V30 2639 C 248.418 -1.8532 -0.590492 0
M  V30 2640 O 247.673 -1.31137 -1.45264 0
M  V30 2641 C 247.972 -3.28552 1.4067 0
M  V30 2642 C 247.638 -3.45582 2.89627 0
M  V30 2643 C 246.3 -3.49937 3.30299 0
M  V30 2644 C 248.652 -3.50768 3.85501 0
M  V30 2645 C 245.98 -3.57049 4.65546 0
M  V30 2646 C 248.332 -3.59414 5.20581 0
M  V30 2647 C 246.996 -3.62034 5.60792 0
M  V30 2648 H 246.266 -0.666735 0.323334 0
M  V30 2649 H 248.913 -1.29868 1.40736 0
M  V30 2650 H 247.218 -3.83473 0.80347 0
M  V30 2651 H 248.915 -3.82788 1.19475 0
M  V30 2652 H 245.505 -3.42871 2.57172 0
M  V30 2653 H 249.689 -3.46651 3.55171 0
M  V30 2654 H 244.945 -3.57361 4.96088 0
M  V30 2655 H 249.119 -3.62371 5.94693 0
M  V30 2656 H 246.746 -3.67298 6.6558 0
M  V30 2657 N 248.321 -0.919034 -1.28029 0
M  V30 2658 C 249.568 -0.554934 -1.94748 0
M  V30 2659 C 249.896 0.90231 -1.72304 0
M  V30 2660 O 249.151 1.65767 -1.04018 0
M  V30 2661 C 249.45 -0.816855 -3.4794 0
M  V30 2662 C 249.116 -2.25448 -3.90492 0
M  V30 2663 C 247.778 -2.64752 -4.01821 0
M  V30 2664 C 250.13 -3.18977 -4.12193 0
M  V30 2665 C 247.458 -3.96727 -4.32232 0
M  V30 2666 C 249.81 -4.50523 -4.44086 0
M  V30 2667 C 248.474 -4.89673 -4.53626 0
M  V30 2668 H 247.744 -0.203065 -0.712633 0
M  V30 2669 H 250.391 -1.16136 -1.52265 0
M  V30 2670 H 248.696 -0.127677 -3.91592 0
M  V30 2671 H 250.393 -0.514238 -3.97689 0
M  V30 2672 H 246.983 -1.93952 -3.82205 0
M  V30 2673 H 251.167 -2.89817 -4.02889 0
M  V30 2674 H 246.423 -4.26754 -4.37825 0
M  V30 2675 H 250.597 -5.23005 -4.59825 0
M  V30 2676 H 248.224 -5.91969 -4.76946 0
M  V30 2677 N 249.799 1.42003 -0.683588 0
M  V30 2678 C 250.732 2.28166 0.039592 0
M  V30 2679 C 251.71 1.41562 0.799942 0
M  V30 2680 O 252.894 1.70997 0.793248 0
M  V30 2681 C 250.021 3.21575 1.06335 0
M  V30 2682 C 249.067 4.24643 0.397562 0
M  V30 2683 S 249.9 5.2869 -0.851296 0
M  V30 2684 C 251.056 6.25666 0.171166 0
M  V30 2685 H 251.289 2.89153 -0.691229 0
M  V30 2686 H 248.822 1.46962 -0.473435 0
M  V30 2687 H 250.78 3.75928 1.6489 0
M  V30 2688 H 249.441 2.59707 1.76667 0
M  V30 2689 H 248.634 4.90223 1.17035 0
M  V30 2690 H 248.236 3.73824 -0.114611 0
M  V30 2691 H 250.528 6.69653 1.02819 0
M  V30 2692 H 251.471 7.06666 -0.450397 0
M  V30 2693 H 251.879 5.62095 0.520578 0
M  V30 2694 N 251.277 0.427512 1.51691 0
M  V30 2695 C 252.693 0.0792977 1.59403 0
M  V30 2696 C 252.893 -1.41035 1.43914 0
M  V30 2697 O 251.949 -2.17922 1.27539 0
M  V30 2698 C 253.262 0.590636 2.94842 0
M  V30 2699 C 254.81 0.550215 3.08126 0
M  V30 2700 C 255.285 1.03836 4.46074 0
M  V30 2701 N 256.776 0.995943 4.52366 0
M  V30 2702 C 257.511 1.34463 5.57411 0
M  V30 2703 N 257.007 1.76569 6.69922 0
M  V30 2704 N 258.8 1.26343 5.47717 0
M  V30 2705 H 250.951 1.39687 1.60004 0
M  V30 2706 H 253.214 0.575003 0.753708 0
M  V30 2707 H 252.92 1.63251 3.11516 0
M  V30 2708 H 252.794 0.0102061 3.77199 0
M  V30 2709 H 255.181 -0.482654 2.91126 0
M  V30 2710 H 255.262 1.16693 2.27632 0
M  V30 2711 H 254.906 2.06965 4.63819 0
M  V30 2712 H 254.836 0.398286 5.25092 0
M  V30 2713 H 257.327 0.68661 3.7161 0
M  V30 2714 H 257.64 2.01438 7.46085 0
M  V30 2715 H 255.985 1.80488 6.71155 0
M  V30 2716 H 259.176 0.933209 4.58703 0
M  V30 2717 H 259.349 1.53846 6.29472 0
M  V30 2718 N 252.755 -1.56801 0.158532 0
M  V30 2719 C 253.688 -2.13148 -0.815065 0
M  V30 2720 C 254.666 -1.0581 -1.23462 0
M  V30 2721 O 255.85 -1.3371 -1.32868 0
M  V30 2722 C 252.977 -2.6606 -2.09594 0
M  V30 2723 C 252.023 -3.85651 -1.82141 0
M  V30 2724 S 252.856 -5.26041 -1.00207 0
M  V30 2725 C 254.012 -5.8235 -2.29389 0
M  V30 2726 H 254.245 -2.95396 -0.335937 0
M  V30 2727 H 251.778 -1.54299 -0.0559391 0
M  V30 2728 H 253.736 -2.97195 -2.8317 0
M  V30 2729 H 252.397 -1.83921 -2.54621 0
M  V30 2730 H 251.59 -4.20958 -2.77147 0
M  V30 2731 H 251.192 -3.55338 -1.16667 0
M  V30 2732 H 253.484 -5.94485 -3.24952 0
M  V30 2733 H 254.427 -6.79688 -1.9857 0
M  V30 2734 H 254.835 -5.10675 -2.40564 0
M  V30 2735 N 254.233 0.115231 -1.57178 0
M  V30 2736 C 255.18 1.14115 -2.00615 0
M  V30 2737 C 256.15 1.40939 -0.878941 0
M  V30 2738 O 257.335 1.52741 -1.14345 0
M  V30 2739 C 254.475 2.46156 -2.4187 0
M  V30 2740 C 253.588 2.26236 -3.68024 0
M  V30 2741 C 252.723 3.51534 -3.98243 0
M  V30 2742 C 251.762 3.26787 -5.17568 0
M  V30 2743 N 250.899 4.44298 -5.43639 0
M  V30 2744 H 255.739 0.763743 -2.88047 0
M  V30 2745 H 253.276 0.365615 -1.42484 0
M  V30 2746 H 255.234 3.23189 -2.63827 0
M  V30 2747 H 253.864 2.81783 -1.57475 0
M  V30 2748 H 252.916 1.40102 -3.5366 0
M  V30 2749 H 254.228 2.03929 -4.55208 0
M  V30 2750 H 253.382 4.36984 -4.20868 0
M  V30 2751 H 252.121 3.76876 -3.09541 0
M  V30 2752 H 251.126 2.39729 -4.94783 0
M  V30 2753 H 252.351 3.02812 -6.0785 0
M  V30 2754 H 250.297 4.69754 -4.57895 0
M  V30 2755 H 250.214 4.25109 -6.25154 0
M  V30 2756 H 251.482 5.3087 -5.70786 0
M  V30 2757 N 255.711 1.52812 0.385517 0
M  V30 2758 C 256.951 1.69716 1.13911 0
M  V30 2759 C 257.315 0.42962 1.87132 0
M  V30 2760 O 258.516 0.475071 2.64569 0
M  V30 2761 C 256.787 2.90021 2.0886 0
M  V30 2762 S 258.346 3.27531 2.92009 0
M  V30 2763 H 255.164 0.59739 0.385547 0
M  V30 2764 H 257.766 1.90868 0.423061 0
M  V30 2765 H 256.47 3.80493 1.53797 0
M  V30 2766 H 256.001 2.71213 2.84969 0
M  V30 2767 H 258.016 2.77989 4.11019 0
M  V30 2768 N 257.189 -0.644168 1.43834 0
M  V30 2769 C 258.417 -1.43147 1.49387 0
M  V30 2770 C 258.832 -1.88452 0.114583 0
M  V30 2771 O 258.189 -1.60047 -0.876989 0
M  V30 2772 C 258.24 -2.66046 2.44748 0
M  V30 2773 O 257.961 -2.22633 3.77314 0
M  V30 2774 C 259.462 -3.59311 2.59635 0
M  V30 2775 H 256.682 -0.439447 0.507077 0
M  V30 2776 H 259.226 -0.78895 1.88669 0
M  V30 2777 H 257.381 -3.26418 2.08638 0
M  V30 2778 H 257.795 -3.02216 4.28679 0
M  V30 2779 H 259.269 -4.42187 3.30416 0
M  V30 2780 H 259.746 -4.07259 1.64427 0
M  V30 2781 H 260.352 -3.04816 2.96593 0
M  V30 2782 N 258.668 -1.30515 -0.883378 0
M  V30 2783 C 259.914 -1.19607 -1.63774 0
M  V30 2784 C 260.247 0.248314 -1.92606 0
M  V30 2785 O 259.522 1.17742 -1.54813 0
M  V30 2786 C 259.805 -2.02669 -2.97653 0
M  V30 2787 C 259.658 -3.55335 -2.75784 0
M  V30 2788 C 260.977 -1.86573 -3.98596 0
M  V30 2789 H 258.096 -0.435856 -0.594305 0
M  V30 2790 H 260.738 -1.60165 -1.02212 0
M  V30 2791 H 258.888 -1.68208 -3.50197 0
M  V30 2792 H 260.56 -3.99863 -2.30016 0
M  V30 2793 H 258.803 -3.79438 -2.1026 0
M  V30 2794 H 259.474 -4.08745 -3.70988 0
M  V30 2795 H 261.95 -2.16703 -3.55217 0
M  V30 2796 H 260.826 -2.47014 -4.90179 0
M  V30 2797 H 261.087 -0.825321 -4.34328 0
M  V30 2798 N 260.146 1.09593 -1.13257 0
M  V30 2799 C 261.374 1.855 -0.916378 0
M  V30 2800 C 261.789 1.81069 0.534738 0
M  V30 2801 O 261.146 1.20562 1.37007 0
M  V30 2802 C 261.197 3.33546 -1.39388 0
M  V30 2803 O 260.918 3.37927 -2.78813 0
M  V30 2804 C 262.419 4.26299 -1.21588 0
M  V30 2805 H 259.639 0.585991 -0.326887 0
M  V30 2806 H 262.183 1.38488 -1.5047 0
M  V30 2807 H 260.338 3.77992 -0.848597 0
M  V30 2808 H 260.752 4.30254 -2.9997 0
M  V30 2809 H 262.226 5.28341 -1.59876 0
M  V30 2810 H 262.703 4.38918 -0.157376 0
M  V30 2811 H 263.309 3.87668 -1.7491 0
M  V30 2812 N 261.624 0.925811 1.2754 0
M  V30 2813 C 262.572 0.413897 2.28888 0
M  V30 2814 C 263.566 -0.500779 1.61829 0
M  V30 2815 O 264.772 -0.38069 1.75928 0
M  V30 2816 H 261.147 0.115274 0.743112 0
M  V30 2817 H 263.118 1.28151 2.69481 0
M  V30 2818 C 261.867 -0.319792 3.46226 0
M  V30 2819 H 261.19 0.374846 3.98039 0
M  V30 2820 H 262.63 -0.642435 4.19105 0
M  V30 2821 C 261.089 -1.53209 3.00048 0
M  V30 2822 O 261.619 -2.6309 3.03557 0
M  V30 2823 N 259.825 -1.38326 2.55566 0
M  V30 2824 H 259.372 -0.489292 2.5291 0
M  V30 2825 H 259.33 -2.19564 2.25031 0
M  V30 2826 N 263.102 -1.41638 0.69111 0
M  V30 2827 C 264.518 -1.55435 0.362224 0
M  V30 2828 C 264.718 -1.66754 -1.13117 0
M  V30 2829 O 263.774 -1.64348 -1.91692 0
M  V30 2830 C 265.087 -2.79588 1.10684 0
M  V30 2831 C 266.635 -2.9338 1.09075 0
M  V30 2832 C 267.11 -4.20414 1.81703 0
M  V30 2833 N 268.601 -4.27362 1.7865 0
M  V30 2834 C 269.336 -5.24507 2.31689 0
M  V30 2835 N 268.832 -6.27708 2.93179 0
M  V30 2836 N 270.625 -5.16416 2.2197 0
M  V30 2837 H 262.776 -1.32536 1.65976 0
M  V30 2838 H 265.039 -0.639115 0.700168 0
M  V30 2839 H 264.745 -2.77419 2.16175 0
M  V30 2840 H 264.619 -3.70973 0.682545 0
M  V30 2841 H 267.006 -2.95067 0.0441238 0
M  V30 2842 H 267.087 -2.0318 1.55407 0
M  V30 2843 H 266.731 -4.19488 2.86343 0
M  V30 2844 H 266.661 -5.09578 1.32808 0
M  V30 2845 H 269.152 -3.53415 1.33815 0
M  V30 2846 H 269.465 -6.98217 3.31229 0
M  V30 2847 H 267.81 -6.28223 2.97255 0
M  V30 2848 H 271.001 -4.34716 1.73607 0
M  V30 2849 H 271.174 -5.91958 2.63609 0
M  V30 2850 N 264.58 -0.43555 -1.51462 0
M  V30 2851 C 265.828 0.131254 -2.01673 0
M  V30 2852 C 266.149 1.43368 -1.32177 0
M  V30 2853 O 265.419 1.90524 -0.455769 0
M  V30 2854 H 263.999 0.0514954 -0.745223 0
M  V30 2855 H 266.661 -0.577847 -1.86137 0
M  V30 2856 H 265.757 0.308446 -3.10572 0
M  V30 2857 N 266.058 1.56714 -0.166846 0
M  V30 2858 C 267.474 1.58473 0.189372 0
M  V30 2859 C 267.674 1.18201 1.63189 0
M  V30 2860 O 266.73 0.891528 2.36237 0
M  V30 2861 C 268.043 3.00573 -0.0873872 0
M  V30 2862 C 269.591 3.1299 -0.0252443 0
M  V30 2863 C 270.066 4.57174 -0.274934 0
M  V30 2864 N 271.557 4.62665 -0.222553 0
M  V30 2865 C 272.292 5.72072 -0.389985 0
M  V30 2866 N 271.788 6.90054 -0.616229 0
M  V30 2867 N 273.581 5.61153 -0.326202 0
M  V30 2868 H 265.732 1.8118 -1.10849 0
M  V30 2869 H 267.995 0.839525 -0.440342 0
M  V30 2870 H 267.701 3.34497 -1.0865 0
M  V30 2871 H 267.575 3.72019 0.623037 0
M  V30 2872 H 269.962 2.78895 0.96444 0
M  V30 2873 H 270.043 2.43989 -0.768309 0
M  V30 2874 H 269.687 4.91976 -1.26181 0
M  V30 2875 H 269.617 5.24328 0.48869 0
M  V30 2876 H 272.108 3.77863 -0.0531512 0
M  V30 2877 H 272.421 7.69311 -0.733559 0
M  V30 2878 H 270.766 6.91927 -0.652791 0
M  V30 2879 H 273.957 4.67859 -0.150072 0
M  V30 2880 H 274.13 6.46364 -0.460116 0
M  V30 2881 N 267.536 -0.106894 1.57237 0
M  V30 2882 C 268.764 -0.826389 1.8968 0
M  V30 2883 C 269.179 -1.72856 0.759353 0
M  V30 2884 O 268.536 -1.80503 -0.269263 0
M  V30 2885 C 268.587 -1.64967 3.21665 0
M  V30 2886 O 268.308 -0.783804 4.31031 0
M  V30 2887 C 269.809 -2.47326 3.67892 0
M  V30 2888 H 267.029 -0.236927 0.627779 0
M  V30 2889 H 269.573 -0.0876593 2.04312 0
M  V30 2890 H 267.728 -2.34103 3.08666 0
M  V30 2891 H 268.142 -1.35284 5.06753 0
M  V30 2892 H 269.616 -3.00604 4.6297 0
M  V30 2893 H 270.093 -3.25247 2.95146 0
M  V30 2894 H 270.699 -1.83411 3.83719 0
M  V30 2895 N 269.014 -1.53014 -0.377408 0
M  V30 2896 C 270.26 -1.68872 -1.12294 0
M  V30 2897 C 270.593 -0.433224 -1.89306 0
M  V30 2898 O 269.868 0.569258 -1.85983 0
M  V30 2899 C 270.151 -2.93115 -2.09179 0
M  V30 2900 C 270.004 -4.28794 -1.35853 0
M  V30 2901 C 271.323 -3.12928 -3.09458 0
M  V30 2902 H 268.442 -0.614518 -0.406862 0
M  V30 2903 H 271.084 -1.85633 -0.40503 0
M  V30 2904 H 269.234 -2.78956 -2.70399 0
M  V30 2905 H 270.906 -4.54742 -0.775082 0
M  V30 2906 H 269.149 -4.28744 -0.660364 0
M  V30 2907 H 269.82 -5.11837 -2.06706 0
M  V30 2908 H 272.296 -3.26194 -2.58334 0
M  V30 2909 H 271.172 -4.01316 -3.74482 0
M  V30 2910 H 271.433 -2.27669 -3.78971 0
M  V30 2911 N 270.492 0.636531 -1.44174 0
M  V30 2912 C 271.44 1.76995 -1.50915 0
M  V30 2913 C 272.434 1.65053 -0.381295 0
M  V30 2914 O 273.64 1.71197 -0.55601 0
M  V30 2915 H 270.015 0.584247 -0.473455 0
M  V30 2916 H 271.986 1.68432 -2.4632 0
M  V30 2917 C 270.735 3.15314 -1.46534 0
M  V30 2918 H 270.058 3.25149 -2.32633 0
M  V30 2919 H 271.498 3.9453 -1.55312 0
M  V30 2920 C 269.957 3.3639 -0.185305 0
M  V30 2921 O 270.487 3.94699 0.746688 0
M  V30 2922 N 268.693 2.9046 -0.0901606 0
M  V30 2923 H 268.24 2.43193 -0.849416 0
M  V30 2924 H 268.198 3.04937 0.765553 0
M  V30 2925 N 271.97 1.30982 0.876444 0
M  V30 2926 C 272.9 1.20668 1.99903 0
M  V30 2927 C 273.881 0.095354 1.69833 0
M  V30 2928 O 275.066 0.27885 1.92188 0
M  V30 2929 C 272.196 0.90655 3.3526 0
M  V30 2930 C 271.15 1.97675 3.79617 0
M  V30 2931 C 270.476 1.52943 5.1236 0
M  V30 2932 C 271.776 3.389 3.97422 0
M  V30 2933 H 273.47 2.14586 2.0879 0
M  V30 2934 H 271.016 1.03308 1.00317 0
M  V30 2935 H 272.969 0.821025 4.13324 0
M  V30 2936 H 271.693 -0.0682969 3.26529 0
M  V30 2937 H 270.352 2.05205 3.03787 0
M  V30 2938 H 270 0.54262 5.00065 0
M  V30 2939 H 269.7 2.24532 5.43009 0
M  V30 2940 H 271.224 1.45786 5.92941 0
M  V30 2941 H 272.638 3.34081 4.659 0
M  V30 2942 H 271.035 4.0865 4.3946 0
M  V30 2943 H 272.105 3.80163 3.01006 0
M  V30 2944 N 273.449 -1.08991 1.13837 0
M  V30 2945 C 274.396 -2.15748 0.819835 0
M  V30 2946 C 275.366 -1.64636 -0.220026 0
M  V30 2947 O 276.551 -1.90582 -0.0912757 0
M  V30 2948 C 273.691 -3.4382 0.296913 0
M  V30 2949 C 272.804 -4.0881 1.39636 0
M  V30 2950 C 271.939 -5.24655 0.831314 0
M  V30 2951 C 270.978 -5.81575 1.90886 0
M  V30 2952 N 270.115 -6.88774 1.36142 0
M  V30 2953 H 274.955 -2.42338 1.73426 0
M  V30 2954 H 272.492 -1.18935 0.865613 0
M  V30 2955 H 274.45 -4.17193 -0.0244339 0
M  V30 2956 H 273.08 -3.17535 -0.580628 0
M  V30 2957 H 272.132 -3.33258 1.83422 0
M  V30 2958 H 273.444 -4.47141 2.21058 0
M  V30 2959 H 272.598 -6.04942 0.461515 0
M  V30 2960 H 271.337 -4.87698 -0.013932 0
M  V30 2961 H 270.342 -4.99946 2.28767 0
M  V30 2962 H 271.567 -6.20592 2.75758 0
M  V30 2963 H 269.513 -6.53788 0.538254 0
M  V30 2964 H 269.43 -7.25898 2.11208 0
M  V30 2965 H 270.698 -7.72806 1.01933 0
M  V30 2966 N 274.927 -0.932562 -1.27047 0
M  V30 2967 C 276.152 -0.591474 -1.98787 0
M  V30 2968 C 276.577 0.824601 -1.69062 0
M  V30 2969 O 275.935 1.5541 -0.933677 0
M  V30 2970 C 275.983 -0.829808 -3.50922 0
M  V30 2971 O 275.087 0.102266 -4.12273 0
M  V30 2972 H 274.428 -0.227185 -0.623926 0
M  V30 2973 H 276.958 -1.25314 -1.61733 0
M  V30 2974 H 276.968 -0.747292 -4.01098 0
M  V30 2975 H 275.643 -1.86201 -3.7189 0
M  V30 2976 H 274.22 -0.0305761 -3.72887 0
M  V30 2977 N 276.405 1.4127 -0.698611 0
M  V30 2978 C 277.368 2.29158 -0.044132 0
M  V30 2979 C 278.368 1.44529 0.704841 0
M  V30 2980 O 279.558 1.65643 0.539276 0
M  V30 2981 C 276.69 3.27459 0.947809 0
M  V30 2982 H 277.883 2.88529 -0.817994 0
M  V30 2983 H 275.436 1.49307 -0.46228 0
M  V30 2984 H 276.171 2.73073 1.74933 0
M  V30 2985 H 275.956 3.8991 0.41385 0
M  V30 2986 H 277.446 3.93311 1.40344 0
M  V30 2987 N 277.883 0.443576 1.51229 0
M  V30 2988 C 279.111 -0.11929 2.06556 0
M  V30 2989 C 279.526 -1.35921 1.31038 0
M  V30 2990 O 278.883 -1.78675 0.371704 0
M  V30 2991 C 278.934 -0.435228 3.5887 0
M  V30 2992 O 278.655 0.755486 4.31537 0
M  V30 2993 C 280.156 -1.04808 4.30732 0
M  V30 2994 H 277.376 -0.0051584 0.67098 0
M  V30 2995 H 279.92 0.624453 1.94733 0
M  V30 2996 H 278.075 -1.12887 3.70588 0
M  V30 2997 H 278.489 0.483491 5.22267 0
M  V30 2998 H 279.963 -1.2191 5.3837 0
M  V30 2999 H 280.44 -2.03081 3.89429 0
M  V30 3000 H 281.046 -0.393637 4.23474 0
M  V30 3001 N 279.361 -1.56624 0.175154 0
M  V30 3002 C 280.607 -1.98061 -0.462976 0
M  V30 3003 C 280.962 -1.05949 -1.60601 0
M  V30 3004 O 280.255 -0.0999027 -1.91339 0
M  V30 3005 C 280.449 -3.43419 -0.989864 0
M  V30 3006 C 280.278 -4.49587 0.100583 0
M  V30 3007 C 279.048 -5.02281 0.551539 0
M  V30 3008 C 281.246 -5.06322 0.902369 0
M  V30 3009 N 279.228 -5.92088 1.62189 0
M  V30 3010 C 280.599 -5.92607 1.82256 0
M  V30 3011 C 282.654 -4.88811 0.947019 0
M  V30 3012 C 281.357 -6.63254 2.78364 0
M  V30 3013 C 283.383 -5.60182 1.89606 0
M  V30 3014 C 282.745 -6.46197 2.80372 0
M  V30 3015 H 278.844 -0.769833 -0.137409 0
M  V30 3016 H 281.428 -1.9273 0.276256 0
M  V30 3017 H 279.599 -3.49288 -1.6986 0
M  V30 3018 H 281.331 -3.7186 -1.59694 0
M  V30 3019 H 278.086 -4.73367 0.148537 0
M  V30 3020 H 278.51 -6.41696 2.15767 0
M  V30 3021 H 283.152 -4.22004 0.259304 0
M  V30 3022 H 280.87 -7.29271 3.48122 0
M  V30 3023 H 284.456 -5.48617 1.93676 0
M  V30 3024 H 283.336 -7.00453 3.52612 0
M  V30 3025 N 280.839 0.0985539 -1.57292 0
M  V30 3026 C 281.786 1.11981 -2.01814 0
M  V30 3027 C 282.756 1.39999 -0.89384 0
M  V30 3028 O 283.941 1.5152 -1.15958 0
M  V30 3029 C 281.081 2.43577 -2.44467 0
M  V30 3030 C 280.194 2.2232 -3.70402 0
M  V30 3031 C 279.329 3.4729 -4.01949 0
M  V30 3032 C 278.368 3.2128 -5.21005 0
M  V30 3033 N 277.505 4.38507 -5.48321 0
M  V30 3034 H 282.345 0.733149 -2.88841 0
M  V30 3035 H 279.882 0.350482 -1.42864 0
M  V30 3036 H 281.84 3.20373 -2.6724 0
M  V30 3037 H 280.47 2.80097 -1.60455 0
M  V30 3038 H 279.522 1.36343 -3.55126 0
M  V30 3039 H 280.834 1.99089 -4.57345 0
M  V30 3040 H 279.988 4.32495 -4.25479 0
M  V30 3041 H 278.727 3.73572 -3.13521 0
M  V30 3042 H 277.732 2.34468 -4.97298 0
M  V30 3043 H 278.957 2.96348 -6.11028 0
M  V30 3044 H 276.903 4.64871 -4.62851 0
M  V30 3045 H 276.82 4.18455 -6.29628 0
M  V30 3046 H 278.088 5.24787 -5.76385 0
M  V30 3047 N 282.317 1.53212 0.369288 0
M  V30 3048 C 283.563 1.69466 1.11397 0
M  V30 3049 C 283.896 0.443257 1.89074 0
M  V30 3050 O 283.171 -0.559386 1.86282 0
M  V30 3051 C 283.454 2.9422 2.07621 0
M  V30 3052 C 283.307 4.29508 1.33577 0
M  V30 3053 C 284.626 3.14565 3.07794 0
M  V30 3054 H 281.745 0.616667 0.403597 0
M  V30 3055 H 284.387 1.85845 0.395179 0
M  V30 3056 H 282.537 2.80387 2.68916 0
M  V30 3057 H 284.209 4.55147 0.750955 0
M  V30 3058 H 282.452 4.29088 0.637618 0
M  V30 3059 H 283.123 5.12926 2.03989 0
M  V30 3060 H 285.599 3.2756 2.56601 0
M  V30 3061 H 284.475 4.03297 3.72348 0
M  V30 3062 H 284.736 2.29675 3.77759 0
M  V30 3063 N 283.795 -0.628877 1.44509 0
M  V30 3064 C 284.725 -1.75187 1.54376 0
M  V30 3065 C 285.706 -1.65411 0.396618 0
M  V30 3066 O 286.891 -1.84137 0.617031 0
M  V30 3067 C 284.021 -3.13725 1.48976 0
M  V30 3068 C 282.975 -3.38291 2.62189 0
M  V30 3069 C 282.301 -4.76883 2.41841 0
M  V30 3070 C 283.601 -3.30632 4.04326 0
M  V30 3071 H 285.295 -1.67187 2.48373 0
M  V30 3072 H 282.841 -0.802909 1.19538 0
M  V30 3073 H 284.794 -3.92064 1.54478 0
M  V30 3074 H 283.518 -3.22515 0.514961 0
M  V30 3075 H 282.177 -2.62334 2.56079 0
M  V30 3076 H 281.825 -4.82378 1.42548 0
M  V30 3077 H 281.525 -4.94278 3.17747 0
M  V30 3078 H 283.049 -5.57449 2.49165 0
M  V30 3079 H 284.463 -3.98873 4.11793 0
M  V30 3080 H 282.86 -3.59561 4.80454 0
M  V30 3081 H 283.93 -2.28404 4.27738 0
M  V30 3082 N 285.273 -1.31445 -0.869486 0
M  V30 3083 C 286.223 -1.15731 -1.96444 0
M  V30 3084 C 287.207 -0.0681855 -1.60755 0
M  V30 3085 O 288.399 -0.293154 -1.74555 0
M  V30 3086 C 285.528 -0.867255 -3.32165 0
M  V30 3087 C 284.614 -1.99738 -3.74119 0
M  V30 3088 N 285.005 -3.24447 -3.88031 0
M  V30 3089 C 283.303 -1.89723 -4.03635 0
M  V30 3090 C 284.004 -3.98374 -4.23879 0
M  V30 3091 N 282.98 -3.26547 -4.3459 0
M  V30 3092 H 286.782 -2.10296 -2.05312 0
M  V30 3093 H 284.296 -1.23009 -1.06031 0
M  V30 3094 H 286.293 -0.735668 -4.10358 0
M  V30 3095 H 284.953 0.0701614 -3.24624 0
M  V30 3096 H 285.964 -3.59557 -3.72746 0
M  V30 3097 H 282.641 -1.03449 -4.04481 0
M  V30 3098 H 284.031 -5.05844 -4.42235 0
M  V30 3099 N 286.751 1.08385 -1.14413 0
M  V30 3100 C 287.991 1.8238 -0.922868 0
M  V30 3101 C 288.355 1.84225 0.540842 0
M  V30 3102 O 289.556 2.53985 0.880058 0
M  V30 3103 C 287.827 3.24048 -1.50757 0
M  V30 3104 S 289.386 4.14917 -1.4279 0
M  V30 3105 H 286.204 0.628524 -0.332384 0
M  V30 3106 H 288.806 1.30278 -1.45766 0
M  V30 3107 H 287.51 3.20288 -2.56601 0
M  V30 3108 H 287.041 3.81224 -0.971178 0
M  V30 3109 H 289.056 4.94473 -0.413582 0
M  V30 3110 N 288.23 0.939286 1.26551 0
M  V30 3111 C 289.458 0.602536 1.97932 0
M  V30 3112 C 289.873 -0.82206 1.69964 0
M  V30 3113 O 289.23 -1.54789 0.966784 0
M  V30 3114 C 289.281 0.832946 3.51773 0
M  V30 3115 O 289.002 2.20151 3.78768 0
M  V30 3116 C 290.503 0.506483 4.40397 0
M  V30 3117 H 287.723 0.227248 0.631347 0
M  V30 3118 H 290.267 1.25948 1.61113 0
M  V30 3119 H 288.422 0.222644 3.8676 0
M  V30 3120 H 288.836 2.26013 4.73306 0
M  V30 3121 H 290.31 0.718333 5.47306 0
M  V30 3122 H 290.787 -0.558451 4.35635 0
M  V30 3123 H 291.393 1.09543 4.10951 0
M  V30 3124 N 289.708 -1.40897 0.706093 0
M  V30 3125 C 290.956 -2.00657 0.241054 0
M  V30 3126 C 291.277 -1.56241 -1.16678 0
M  V30 3127 O 290.547 -0.79765 -1.78926 0
M  V30 3128 H 289.127 -0.742018 0.0861308 0
M  V30 3129 H 291.789 -1.72372 0.909604 0
M  V30 3130 H 290.885 -3.10958 0.266705 0
M  V30 3131 N 291.186 -0.45159 -1.50991 0
M  V30 3132 C 292.118 0.388634 -2.25881 0
M  V30 3133 C 293.131 0.974041 -1.30446 0
M  V30 3134 O 294.32 0.865758 -1.56099 0
M  V30 3135 C 291.42 1.5571 -3.01011 0
M  V30 3136 C 290.593 1.08801 -4.23652 0
M  V30 3137 C 289.652 2.12825 -4.8124 0
M  V30 3138 O 288.678 1.71678 -5.42693 0
M  V30 3139 N 289.88 3.45453 -4.66522 0
M  V30 3140 H 292.645 -0.25329 -2.98628 0
M  V30 3141 H 290.206 -0.281268 -1.59438 0
M  V30 3142 H 292.198 2.24952 -3.3642 0
M  V30 3143 H 290.768 2.10409 -2.31186 0
M  V30 3144 H 289.988 0.22215 -3.93574 0
M  V30 3145 H 291.276 0.752213 -5.03209 0
M  V30 3146 H 290.674 3.81605 -4.17605 0
M  V30 3147 H 289.231 4.10549 -5.06254 0
M  V30 3148 N 292.664 1.56529 -0.183458 0
M  V30 3149 C 293.91 1.97537 0.459036 0
M  V30 3150 C 294.243 1.06989 1.62071 0
M  V30 3151 O 293.518 0.11948 1.94133 0
M  V30 3152 C 293.801 3.47874 0.930368 0
M  V30 3153 C 293.654 4.492 -0.232317 0
M  V30 3154 C 294.973 4.01612 1.79989 0
M  V30 3155 H 292.092 0.718204 0.165383 0
M  V30 3156 H 294.734 1.88042 -0.272038 0
M  V30 3157 H 292.884 3.56095 1.55333 0
M  V30 3158 H 294.556 4.53027 -0.86972 0
M  V30 3159 H 292.799 4.24657 -0.885928 0
M  V30 3160 H 293.47 5.51823 0.139796 0
M  V30 3161 H 295.946 3.96097 1.27461 0
M  V30 3162 H 294.822 5.07195 2.09867 0
M  V30 3163 H 295.083 3.46163 2.74998 0
M  V30 3164 N 294.142 -0.090211 1.57342 0
M  V30 3165 C 295.089 -1.10909 2.02405 0
M  V30 3166 C 296.059 -1.39523 0.901252 0
M  V30 3167 O 297.244 -1.50903 1.1676 0
M  V30 3168 C 294.384 -2.42277 2.45755 0
M  V30 3169 C 293.497 -2.20352 3.71576 0
M  V30 3170 C 292.632 -3.45154 4.03785 0
M  V30 3171 C 291.671 -3.18512 5.22701 0
M  V30 3172 N 290.808 -4.35593 5.50639 0
M  V30 3173 H 295.648 -0.71782 2.89225 0
M  V30 3174 H 293.185 -0.342901 1.43048 0
M  V30 3175 H 295.143 -3.18951 2.68935 0
M  V30 3176 H 293.773 -2.79242 1.61938 0
M  V30 3177 H 292.825 -1.34458 3.55844 0
M  V30 3178 H 294.137 -1.96661 4.58395 0
M  V30 3179 H 293.291 -4.30233 4.27767 0
M  V30 3180 H 292.03 -3.71904 3.15498 0
M  V30 3181 H 291.035 -2.31827 4.98534 0
M  V30 3182 H 292.26 -2.93103 6.12591 0
M  V30 3183 H 290.206 -4.6241 4.6531 0
M  V30 3184 H 290.123 -4.1511 6.31838 0
M  V30 3185 H 291.391 -5.21723 5.7916 0
M  V30 3186 N 295.62 -1.53406 -0.361157 0
M  V30 3187 C 296.866 -1.70054 -1.10496 0
M  V30 3188 C 297.199 -0.453278 -1.88836 0
M  V30 3189 O 296.474 0.5495 -1.86576 0
M  V30 3190 C 296.757 -2.95317 -2.06058 0
M  V30 3191 C 296.61 -4.3021 -1.31298 0
M  V30 3192 C 297.929 -3.16193 -3.06121 0
M  V30 3193 H 295.048 -0.618799 -0.400321 0
M  V30 3194 H 297.69 -1.86052 -0.385318 0
M  V30 3195 H 295.84 -2.81809 -2.67425 0
M  V30 3196 H 297.512 -4.55538 -0.726807 0
M  V30 3197 H 295.755 -4.29421 -0.614853 0
M  V30 3198 H 296.426 -5.14 -2.01265 0
M  V30 3199 H 298.902 -3.28916 -2.5486 0
M  V30 3200 H 297.778 -4.05266 -3.70204 0
M  V30 3201 H 298.039 -2.31676 -3.76535 0
M  V30 3202 N 297.098 0.621204 -1.44841 0
M  V30 3203 C 298.328 1.40548 -1.51426 0
M  V30 3204 C 298.736 1.88673 -0.141083 0
M  V30 3205 O 298.079 1.62053 0.865128 0
M  V30 3206 C 298.141 2.65325 -2.42576 0
M  V30 3207 C 297.805 2.3893 -3.89566 0
M  V30 3208 C 298.802 2.00138 -4.79834 0
M  V30 3209 C 296.487 2.52263 -4.3436 0
M  V30 3210 C 298.481 1.75021 -6.129 0
M  V30 3211 C 296.168 2.2676 -5.67471 0
M  V30 3212 C 297.166 1.88199 -6.56559 0
M  V30 3213 O 296.854 1.62986 -7.87204 0
M  V30 3214 H 296.586 0.437122 -0.515655 0
M  V30 3215 H 299.14 0.765987 -1.90583 0
M  V30 3216 H 297.37 3.31947 -1.98364 0
M  V30 3217 H 299.059 3.27347 -2.39998 0
M  V30 3218 H 299.825 1.89386 -4.46495 0
M  V30 3219 H 295.704 2.81246 -3.65269 0
M  V30 3220 H 299.248 1.44848 -6.82396 0
M  V30 3221 H 295.145 2.37125 -6.00368 0
M  V30 3222 H 295.913 1.7715 -7.991 0
M  V30 3223 N 298.576 1.31904 0.862503 0
M  V30 3224 C 299.524 1.20125 1.9918 0
M  V30 3225 C 300.518 0.107824 1.69056 0
M  V30 3226 O 301.724 0.270223 1.7796 0
M  V30 3227 H 298.099 0.372148 0.65346 0
M  V30 3228 H 300.07 2.15652 2.06244 0
M  V30 3229 C 298.819 0.933099 3.34946 0
M  V30 3230 H 298.142 1.76664 3.5865 0
M  V30 3231 H 299.582 0.890892 4.14535 0
M  V30 3232 C 298.041 -0.364172 3.34926 0
M  V30 3233 O 298.571 -1.37858 3.77304 0
M  V30 3234 N 296.777 -0.383362 2.8806 0
M  V30 3235 H 296.324 0.442651 2.53768 0
M  V30 3236 H 296.282 -1.25123 2.8843 0
M  V30 3237 N 300.054 -1.07777 1.14986 0
M  V30 3238 C 301.002 -2.16964 0.838406 0
M  V30 3239 C 301.996 -1.68372 -0.186386 0
M  V30 3240 O 303.202 -1.79951 -0.0418465 0
M  V30 3241 H 299.577 -0.708006 0.253439 0
M  V30 3242 H 301.548 -2.40454 1.76704 0
M  V30 3243 C 300.297 -3.4604 0.339335 0
M  V30 3244 H 299.62 -3.83813 1.11927 0
M  V30 3245 H 301.06 -4.23698 0.160021 0
M  V30 3246 C 299.519 -3.23569 -0.938325 0
M  V30 3247 O 300.049 -3.47752 -2.01077 0
M  V30 3248 N 298.255 -2.77079 -0.876117 0
M  V30 3249 H 297.802 -2.576 -0.00322037 0
M  V30 3250 H 297.76 -2.62422 -1.73153 0
M  V30 3251 N 301.532 -0.945985 -1.26051 0
M  V30 3252 C 302.772 -0.603665 -1.95282 0
M  V30 3253 C 303.136 0.842377 -1.72534 0
M  V30 3254 O 304.337 1.29387 -2.35611 0
M  V30 3255 C 302.608 -0.942292 -3.44754 0
M  V30 3256 S 304.167 -0.711242 -4.32997 0
M  V30 3257 H 300.985 -0.222176 -0.675395 0
M  V30 3258 H 303.587 -1.21832 -1.52896 0
M  V30 3259 H 302.291 -1.99203 -3.58812 0
M  V30 3260 H 301.822 -0.317546 -3.92116 0
M  V30 3261 H 303.837 0.422221 -4.944 0
M  V30 3262 N 303.011 1.40521 -0.713556 0
M  V30 3263 C 304.422 1.83853 -0.324807 0
M  V30 3264 C 304.773 1.59667 1.14021 0
M  V30 3265 O 303.898 1.07649 1.87725 0
M  V30 3266 C 304.493 3.33751 -0.582746 0
M  V30 3267 C 303.052 3.75584 -0.247727 0
M  V30 3268 C 302.199 2.63753 -0.856121 0
M  V30 3269 H 305.15 1.29817 -0.91286 0
M  V30 3270 H 305.171 3.80194 0.152682 0
M  V30 3271 H 304.683 3.51322 -1.64908 0
M  V30 3272 H 302.784 3.63608 0.813624 0
M  V30 3273 H 302.897 4.7373 -0.715307 0
M  V30 3274 H 301.261 2.53108 -0.28432 0
M  V30 3275 H 302.044 2.84137 -1.92668 0
M  V30 3276 N 304.489 0.459591 1.5075 0
M  V30 3277 C 305.9 0.00171547 1.867 0
M  V30 3278 C 306.251 -1.39934 1.37525 0
M  V30 3279 O 305.376 -2.03523 0.735349 0
M  V30 3280 C 305.971 -0.00366298 3.388 0
M  V30 3281 C 304.53 -0.406026 3.74204 0
M  V30 3282 C 303.677 0.38673 2.7459 0
M  V30 3283 H 306.628 0.674413 1.43657 0
M  V30 3284 H 306.649 -0.808371 3.71814 0
M  V30 3285 H 306.161 1.01617 3.74561 0
M  V30 3286 H 304.262 -1.43063 3.4404 0
M  V30 3287 H 304.375 -0.115362 4.78961 0
M  V30 3288 H 302.739 -0.158019 2.54209 0
M  V30 3289 H 303.522 1.40585 3.13194 0
M  V30 3290 N 305.967 -1.56429 0.191757 0
M  V30 3291 C 306.917 -2.15548 -0.743184 0
M  V30 3292 C 307.901 -1.09531 -1.17863 0
M  V30 3293 O 309.093 -1.35602 -1.13759 0
M  V30 3294 C 306.222 -2.81577 -1.96391 0
M  V30 3295 C 305.308 -3.9478 -1.54951 0
M  V30 3296 N 305.699 -4.98677 -0.845876 0
M  V30 3297 C 303.997 -4.06319 -1.83905 0
M  V30 3298 C 304.698 -5.78183 -0.638724 0
M  V30 3299 N 303.674 -5.30495 -1.18643 0
M  V30 3300 H 307.476 -2.9324 -0.196839 0
M  V30 3301 H 304.99 -1.62398 -0.0081603 0
M  V30 3302 H 306.987 -3.22321 -2.64415 0
M  V30 3303 H 305.647 -2.05371 -2.51501 0
M  V30 3304 H 306.658 -5.15464 -0.501704 0
M  V30 3305 H 303.335 -3.41238 -2.40548 0
M  V30 3306 H 304.725 -6.71851 -0.0807929 0
M  V30 3307 N 307.445 0.0818655 -1.57387 0
M  V30 3308 C 308.393 1.11712 -2.04018 0
M  V30 3309 C 309.387 1.40683 -0.94364 0
M  V30 3310 O 310.593 1.40209 -1.12878 0
M  V30 3311 H 306.968 0.377542 -0.650358 0
M  V30 3312 H 308.939 0.697614 -2.90131 0
M  V30 3313 C 307.688 2.42537 -2.49141 0
M  V30 3314 H 307.011 2.21092 -3.33104 0
M  V30 3315 H 308.451 3.13446 -2.85531 0
M  V30 3316 C 306.91 3.0778 -1.37014 0
M  V30 3317 O 307.44 3.95436 -0.706621 0
M  V30 3318 N 305.646 2.68242 -1.11779 0
M  V30 3319 H 305.193 1.97052 -1.65917 0
M  V30 3320 H 305.151 3.1222 -0.369594 0
M  V30 3321 N 308.923 1.53595 0.353017 0
M  V30 3322 C 310.148 1.7462 1.11904 0
M  V30 3323 C 310.573 0.479721 1.8188 0
M  V30 3324 O 309.931 -0.567066 1.72204 0
M  V30 3325 C 309.979 2.92029 2.11545 0
M  V30 3326 O 309.083 2.61516 3.18878 0
M  V30 3327 H 308.424 0.579531 0.324099 0
M  V30 3328 H 310.954 2.00525 0.406301 0
M  V30 3329 H 310.964 3.18551 2.5493 0
M  V30 3330 H 309.639 3.83888 1.60008 0
M  V30 3331 H 308.216 2.45852 2.80377 0
M  V30 3332 N 310.401 -0.613514 1.45168 0
M  V30 3333 C 311.331 -1.7354 1.56225 0
M  V30 3334 C 312.312 -1.64981 0.41414 0
M  V30 3335 O 313.497 -1.83472 0.636526 0
M  V30 3336 C 310.627 -3.12128 1.52295 0
M  V30 3337 C 309.581 -3.35491 2.65762 0
M  V30 3338 C 308.907 -4.74291 2.46885 0
M  V30 3339 C 310.207 -3.26325 4.0781 0
M  V30 3340 H 311.901 -1.64543 2.50132 0
M  V30 3341 H 309.447 -0.790185 1.20383 0
M  V30 3342 H 311.4 -3.90404 1.58628 0
M  V30 3343 H 310.124 -3.2195 0.549139 0
M  V30 3344 H 308.783 -2.59603 2.58847 0
M  V30 3345 H 308.431 -4.80839 1.47657 0
M  V30 3346 H 308.131 -4.9088 3.22972 0
M  V30 3347 H 309.655 -5.54775 2.55063 0
M  V30 3348 H 311.069 -3.94483 4.16 0
M  V30 3349 H 309.466 -3.54445 4.8424 0
M  V30 3350 H 310.536 -2.23855 4.30136 0
M  V30 3351 N 311.879 -1.3236 -0.855495 0
M  V30 3352 C 313.119 -1.24187 -1.62348 0
M  V30 3353 C 313.483 0.193597 -1.91021 0
M  V30 3354 O 314.684 0.39904 -2.65822 0
M  V30 3355 C 312.955 -2.07661 -2.90881 0
M  V30 3356 S 314.514 -2.16505 -3.81669 0
M  V30 3357 H 311.332 -0.442076 -0.556857 0
M  V30 3358 H 313.934 -1.67198 -1.01317 0
M  V30 3359 H 312.638 -3.11018 -2.67761 0
M  V30 3360 H 312.169 -1.65425 -3.56929 0
M  V30 3361 H 314.184 -1.31394 -4.78487 0
M  V30 3362 N 313.357 1.07166 -1.15556 0
M  V30 3363 C 314.605 1.79443 -0.929764 0
M  V30 3364 C 314.926 1.87246 0.544414 0
M  V30 3365 O 314.196 1.37473 1.39564 0
M  V30 3366 H 312.776 0.664625 -0.341003 0
M  V30 3367 H 315.438 1.29499 -1.45657 0
M  V30 3368 H 314.534 2.81832 -1.34079 0
M  V30 3369 N 314.835 0.952656 1.25548 0
M  V30 3370 C 316.065 0.622592 1.96996 0
M  V30 3371 C 316.473 -0.809112 1.71026 0
M  V30 3372 O 315.816 -1.55258 0.981861 0
M  V30 3373 C 315.878 0.798946 3.5051 0
M  V30 3374 C 315.542 2.20744 4.00151 0
M  V30 3375 C 316.539 3.18394 4.11001 0
M  V30 3376 C 314.224 2.5311 4.33867 0
M  V30 3377 C 316.218 4.46504 4.54877 0
M  V30 3378 C 313.905 3.8145 4.7743 0
M  V30 3379 C 314.903 4.77959 4.87897 0
M  V30 3380 O 314.591 6.04012 5.30494 0
M  V30 3381 H 314.323 0.232503 0.634758 0
M  V30 3382 H 316.877 1.2789 1.60728 0
M  V30 3383 H 315.107 0.0854903 3.86605 0
M  V30 3384 H 316.796 0.47023 4.03167 0
M  V30 3385 H 317.562 2.94715 3.85186 0
M  V30 3386 H 313.441 1.78719 4.24948 0
M  V30 3387 H 316.985 5.21835 4.62962 0
M  V30 3388 H 312.882 4.04936 5.0269 0
M  V30 3389 H 313.65 6.0736 5.48685 0
M  V30 3390 N 316.313 -1.40141 0.720998 0
M  V30 3391 C 317.26 -2.30688 0.071919 0
M  V30 3392 C 318.23 -1.48476 -0.744584 0
M  V30 3393 O 319.415 -1.77201 -0.707423 0
M  V30 3394 C 316.555 -3.34724 -0.839855 0
M  V30 3395 C 315.668 -4.31998 -0.0122438 0
M  V30 3396 C 314.803 -5.23102 -0.923995 0
M  V30 3397 C 313.842 -6.12033 -0.0907969 0
M  V30 3398 N 312.979 -6.95537 -0.957718 0
M  V30 3399 H 317.819 -2.85628 0.849755 0
M  V30 3400 H 315.356 -1.40653 0.430726 0
M  V30 3401 H 317.314 -3.93618 -1.38279 0
M  V30 3402 H 315.944 -2.81274 -1.58381 0
M  V30 3403 H 314.996 -3.74841 0.64794 0
M  V30 3404 H 316.308 -4.94772 0.632595 0
M  V30 3405 H 315.462 -5.86953 -1.53527 0
M  V30 3406 H 314.201 -4.60615 -1.60264 0
M  V30 3407 H 313.206 -5.47207 0.533377 0
M  V30 3408 H 314.431 -6.76581 0.584428 0
M  V30 3409 H 312.377 -6.35633 -1.62192 0
M  V30 3410 H 312.294 -7.55099 -0.36904 0
M  V30 3411 H 313.562 -7.63832 -1.555 0
M  V30 3412 N 317.792 -0.46758 -1.50504 0
M  V30 3413 C 318.702 0.33382 -2.32213 0
M  V30 3414 C 319.718 0.999323 -1.42441 0
M  V30 3415 O 320.894 0.988068 -1.75497 0
M  V30 3416 C 317.959 1.4035 -3.17022 0
M  V30 3417 C 317.02 0.754961 -4.2261 0
M  V30 3418 C 316.253 1.77367 -5.03365 0
M  V30 3419 O 316.476 2.99976 -4.8515 0
M  V30 3420 O 315.41 1.34744 -5.86624 0
M  V30 3421 H 319.236 -0.334067 -3.01857 0
M  V30 3422 H 316.821 -0.229496 -1.47627 0
M  V30 3423 H 318.703 2.02318 -3.69656 0
M  V30 3424 H 317.378 2.05492 -2.5011 0
M  V30 3425 H 316.285 0.0964244 -3.73976 0
M  V30 3426 H 317.618 0.146545 -4.91982 0
M  V30 3427 N 319.27 1.56325 -0.20005 0
M  V30 3428 C 320.681 1.8408 0.31167 0
M  V30 3429 C 321.032 1.12087 1.61031 0
M  V30 3430 O 320.157 0.38332 2.12978 0
M  V30 3431 C 320.752 3.33932 0.57226 0
M  V30 3432 C 319.311 3.6208 1.02834 0
M  V30 3433 C 318.458 2.77186 0.079634 0
M  V30 3434 H 321.409 1.52939 -0.423729 0
M  V30 3435 H 321.43 3.52971 1.42096 0
M  V30 3436 H 320.942 3.86303 -0.37308 0
M  V30 3437 H 319.043 3.15147 1.98778 0
M  V30 3438 H 319.156 4.7023 0.917624 0
M  V30 3439 H 317.52 2.47951 0.582448 0
M  V30 3440 H 318.303 3.32347 -0.860238 0
M  V30 3441 N 320.748 -0.0735177 1.57428 0
M  V30 3442 C 321.678 -1.0879 2.06608 0
M  V30 3443 C 322.659 -1.40473 0.959237 0
M  V30 3444 O 323.844 -1.5013 1.23185 0
M  V30 3445 C 320.974 -2.40183 2.50857 0
M  V30 3446 C 319.928 -2.22858 3.65402 0
M  V30 3447 C 319.254 -3.59619 3.957 0
M  V30 3448 C 320.554 -1.65123 4.95511 0
M  V30 3449 H 322.248 -0.678673 2.91607 0
M  V30 3450 H 319.794 -0.325013 1.40284 0
M  V30 3451 H 321.747 -3.11437 2.83874 0
M  V30 3452 H 320.471 -2.83083 1.62885 0
M  V30 3453 H 319.13 -1.54045 3.32664 0
M  V30 3454 H 318.778 -4.00086 3.04861 0
M  V30 3455 H 318.478 -3.48866 4.72828 0
M  V30 3456 H 320.002 -4.32306 4.31212 0
M  V30 3457 H 321.416 -2.26241 5.26771 0
M  V30 3458 H 319.813 -1.65071 5.7695 0
M  V30 3459 H 320.883 -0.612559 4.81015 0
M  V30 3460 N 322.226 -1.5378 -0.344866 0
M  V30 3461 C 323.156 -1.84662 -1.42906 0
M  V30 3462 C 324.137 -0.701648 -1.54955 0
M  V30 3463 O 325.322 -0.953438 -1.69184 0
M  V30 3464 C 322.452 -2.05503 -2.79974 0
M  V30 3465 C 321.406 -3.21318 -2.82734 0
M  V30 3466 C 320.732 -3.2749 -4.22675 0
M  V30 3467 C 322.032 -4.59456 -2.48389 0
M  V30 3468 H 323.726 -2.75461 -1.17311 0
M  V30 3469 H 321.272 -1.32542 -0.562896 0
M  V30 3470 H 323.225 -2.25691 -3.55867 0
M  V30 3471 H 321.949 -1.11434 -3.07002 0
M  V30 3472 H 320.608 -3.00984 -2.09294 0
M  V30 3473 H 320.256 -2.31019 -4.4681 0
M  V30 3474 H 319.956 -4.05316 -4.25433 0
M  V30 3475 H 321.48 -3.49887 -5.00412 0
M  V30 3476 H 322.894 -4.79667 -3.13995 0
M  V30 3477 H 321.291 -5.39675 -2.62432 0
M  V30 3478 H 322.361 -4.63155 -1.4358 0
M  V30 3479 N 323.704 0.605807 -1.45491 0
M  V30 3480 C 324.929 1.39625 -1.53361 0
M  V30 3481 C 325.354 1.87351 -0.167645 0
M  V30 3482 O 324.712 1.60243 0.848051 0
M  V30 3483 C 324.76 2.57559 -2.5238 0
M  V30 3484 O 323.864 3.58248 -2.04285 0
M  V30 3485 H 323.205 0.416771 -0.516912 0
M  V30 3486 H 325.735 0.737103 -1.90861 0
M  V30 3487 H 325.745 3.0478 -2.71244 0
M  V30 3488 H 324.42 2.22171 -3.51586 0
M  V30 3489 H 322.997 3.17664 -1.95305 0
M  V30 3490 N 325.182 1.32811 0.848464 0
M  V30 3491 C 326.422 1.25046 1.61687 0
M  V30 3492 C 326.786 -0.183464 1.91121 0
M  V30 3493 O 327.987 -0.384937 2.66029 0
M  V30 3494 C 326.258 2.09201 2.89775 0
M  V30 3495 S 327.817 2.18526 3.80515 0
M  V30 3496 H 324.635 0.445023 0.554505 0
M  V30 3497 H 327.237 1.67733 1.00429 0
M  V30 3498 H 325.941 3.12433 2.66108 0
M  V30 3499 H 325.472 1.67315 3.56047 0
M  V30 3500 H 327.487 1.3393 4.77784 0
M  V30 3501 N 326.66 -1.06551 1.16123 0
M  V30 3502 C 327.59 -2.15935 0.88851 0
M  V30 3503 C 328.571 -1.69306 -0.164135 0
M  V30 3504 O 329.756 -1.94193 -0.0167857 0
M  V30 3505 C 326.886 -3.45149 0.385942 0
M  V30 3506 C 325.84 -4.05271 1.3762 0
M  V30 3507 C 325.166 -5.29664 0.732137 0
M  V30 3508 C 326.466 -4.44355 2.74493 0
M  V30 3509 H 328.16 -2.39006 1.80323 0
M  V30 3510 H 325.706 -1.14866 0.868435 0
M  V30 3511 H 327.659 -4.21004 0.182647 0
M  V30 3512 H 326.383 -3.21689 -0.564274 0
M  V30 3513 H 325.042 -3.3147 1.56599 0
M  V30 3514 H 324.69 -5.02499 -0.224483 0
M  V30 3515 H 324.39 -5.70848 1.39307 0
M  V30 3516 H 325.914 -6.08218 0.538802 0
M  V30 3517 H 327.328 -5.11303 2.59311 0
M  V30 3518 H 325.725 -4.96515 3.37035 0
M  V30 3519 H 326.795 -3.55339 3.29943 0
M  V30 3520 N 328.138 -0.959301 -1.25041 0
M  V30 3521 C 329.387 -0.612254 -1.92183 0
M  V30 3522 C 329.7 0.855347 -1.75907 0
M  V30 3523 O 330.906 1.31256 -2.37664 0
M  V30 3524 C 329.362 -1.04435 -3.44414 0
M  V30 3525 C 328.97 -2.53482 -3.69393 0
M  V30 3526 C 330.714 -0.770055 -4.17457 0
M  V30 3527 C 328.621 -2.90468 -5.15153 0
M  V30 3528 H 327.551 -0.225279 -0.719559 0
M  V30 3529 H 330.202 -1.16438 -1.41825 0
M  V30 3530 H 328.584 -0.4206 -3.9376 0
M  V30 3531 H 329.758 -3.20916 -3.30681 0
M  V30 3532 H 328.073 -2.78432 -3.0962 0
M  V30 3533 H 330.67 -1.02249 -5.24832 0
M  V30 3534 H 331.013 0.293611 -4.15263 0
M  V30 3535 H 331.546 -1.35437 -3.74034 0
M  V30 3536 H 328.285 -3.95871 -5.22462 0
M  V30 3537 H 327.805 -2.27711 -5.54894 0
M  V30 3538 H 329.484 -2.79914 -5.83315 0
M  V30 3539 N 329.616 1.39756 -0.72842 0
M  V30 3540 C 330.865 1.99879 -0.270407 0
M  V30 3541 C 331.178 1.58449 1.14688 0
M  V30 3542 O 332.384 2.11362 1.70407 0
M  V30 3543 C 330.84 3.57292 -0.43252 0
M  V30 3544 C 330.448 4.07688 -1.85727 0
M  V30 3545 C 332.192 4.24485 -0.0359507 0
M  V30 3546 C 330.099 5.5765 -1.96928 0
M  V30 3547 H 329.029 0.747689 -0.0973472 0
M  V30 3548 H 331.68 1.59837 -0.901355 0
M  V30 3549 H 330.062 3.95097 0.267219 0
M  V30 3550 H 331.236 3.81231 -2.58843 0
M  V30 3551 H 329.551 3.53135 -2.20646 0
M  V30 3552 H 332.148 5.34609 -0.0987484 0
M  V30 3553 H 332.491 4.03915 1.00787 0
M  V30 3554 H 333.024 3.9183 -0.686604 0
M  V30 3555 H 329.763 5.8309 -2.99476 0
M  V30 3556 H 329.283 5.8593 -1.28241 0
M  V30 3557 H 330.962 6.22957 -1.74737 0
M  V30 3558 N 331.094 0.475555 1.50254 0
M  V30 3559 C 332.027 -0.362381 2.25304 0
M  V30 3560 C 333.005 -0.992393 1.28803 0
M  V30 3561 O 334.189 -1.02746 1.58036 0
M  V30 3562 C 331.316 -1.50813 3.03271 0
M  V30 3563 C 330.362 -0.995044 4.1473 0
M  V30 3564 S 331.195 0.0938436 5.35418 0
M  V30 3565 C 332.351 -1.05567 6.16933 0
M  V30 3566 H 332.584 0.274686 2.96028 0
M  V30 3567 H 330.117 0.260495 1.52187 0
M  V30 3568 H 332.075 -2.16476 3.48781 0
M  V30 3569 H 330.736 -2.11672 2.32064 0
M  V30 3570 H 329.929 -1.85293 4.68703 0
M  V30 3571 H 329.531 -0.416052 3.71679 0
M  V30 3572 H 331.823 -1.96636 6.48337 0
M  V30 3573 H 332.766 -0.555109 7.05921 0
M  V30 3574 H 333.174 -1.31151 5.49053 0
M  V30 3575 N 332.573 -1.56217 0.208337 0
M  V30 3576 C 333.813 -1.99849 -0.428927 0
M  V30 3577 C 334.177 -1.09262 -1.57879 0
M  V30 3578 O 335.378 -1.42185 -2.28116 0
M  V30 3579 C 333.649 -3.46777 -0.864879 0
M  V30 3580 S 335.208 -4.12434 -1.49811 0
M  V30 3581 H 332.026 -0.697742 -0.136665 0
M  V30 3582 H 334.628 -1.92953 0.314519 0
M  V30 3583 H 333.332 -4.10396 -0.0181326 0
M  V30 3584 H 332.863 -3.57518 -1.64147 0
M  V30 3585 H 334.878 -4.10532 -2.78707 0
M  V30 3586 N 334.051 0.0651679 -1.57465 0
M  V30 3587 C 334.961 1.09448 -2.07505 0
M  V30 3588 C 335.977 1.41974 -1.00595 0
M  V30 3589 O 337.153 1.52018 -1.32107 0
M  V30 3590 C 334.218 2.38689 -2.51453 0
M  V30 3591 C 333.279 2.13073 -3.72691 0
M  V30 3592 C 332.512 3.36152 -4.14533 0
M  V30 3593 O 332.735 4.45517 -3.56189 0
M  V30 3594 O 331.669 3.23974 -5.07272 0
M  V30 3595 H 335.495 0.69935 -2.95538 0
M  V30 3596 H 333.08 0.279752 -1.46757 0
M  V30 3597 H 334.962 3.14736 -2.80212 0
M  V30 3598 H 333.637 2.77568 -1.66546 0
M  V30 3599 H 332.544 1.34709 -3.49005 0
M  V30 3600 H 333.877 1.79071 -4.5847 0
M  V30 3601 N 335.529 1.53961 0.336706 0
M  V30 3602 C 336.94 1.62914 0.911925 0
M  V30 3603 C 337.291 0.514795 1.89326 0
M  V30 3604 O 336.416 -0.354395 2.13478 0
M  V30 3605 C 337.011 2.95304 1.66076 0
M  V30 3606 C 335.57 3.06496 2.18489 0
M  V30 3607 C 334.717 2.58403 1.00613 0
M  V30 3608 H 337.668 1.58285 0.114649 0
M  V30 3609 H 337.689 2.84727 2.5241 0
M  V30 3610 H 337.201 3.76387 0.946276 0
M  V30 3611 H 335.302 2.3006 2.93092 0
M  V30 3612 H 335.415 4.1208 2.44391 0
M  V30 3613 H 333.779 2.13977 1.38152 0
M  V30 3614 H 334.562 3.41932 0.306179 0
M  V30 3615 N 337.007 -0.598083 1.45811 0
M  V30 3616 C 338.256 -1.35295 1.49594 0
M  V30 3617 C 338.569 -1.95057 0.145679 0
M  V30 3618 O 339.775 -2.71431 0.0612099 0
M  V30 3619 C 338.231 -2.45124 2.63519 0
M  V30 3620 C 337.839 -1.91732 4.04899 0
M  V30 3621 C 339.583 -3.2205 2.76558 0
M  V30 3622 C 337.49 -2.991 5.1019 0
M  V30 3623 H 336.42 -0.508552 0.556679 0
M  V30 3624 H 339.071 -0.639977 1.71978 0
M  V30 3625 H 337.453 -3.19149 2.34435 0
M  V30 3626 H 338.627 -1.24352 4.43704 0
M  V30 3627 H 336.942 -1.27522 3.96393 0
M  V30 3628 H 339.539 -4.0215 3.52391 0
M  V30 3629 H 339.882 -3.73663 1.83526 0
M  V30 3630 H 340.415 -2.55127 3.05213 0
M  V30 3631 H 337.154 -2.52393 6.04961 0
M  V30 3632 H 336.674 -3.65017 4.75944 0
M  V30 3633 H 338.353 -3.63318 5.35359 0
M  V30 3634 N 338.485 -1.33259 -0.841409 0
M  V30 3635 C 339.417 -1.19136 -1.95804 0
M  V30 3636 C 340.43 -0.122965 -1.62335 0
M  V30 3637 O 341.619 -0.373154 -1.74556 0
M  V30 3638 C 338.719 -0.804268 -3.29218 0
M  V30 3639 C 337.892 -1.96376 -3.90839 0
M  V30 3640 C 336.951 -1.55806 -5.02604 0
M  V30 3641 O 335.977 -2.27203 -5.21888 0
M  V30 3642 N 337.179 -0.461609 -5.78662 0
M  V30 3643 H 339.944 -2.15326 -2.08458 0
M  V30 3644 H 337.505 -1.25971 -1.017 0
M  V30 3645 H 339.497 -0.51501 -4.0141 0
M  V30 3646 H 338.067 0.0668809 -3.12528 0
M  V30 3647 H 337.287 -2.41879 -3.11269 0
M  V30 3648 H 338.575 -2.73966 -4.28742 0
M  V30 3649 H 337.973 0.132343 -5.65545 0
M  V30 3650 H 336.53 -0.232013 -6.51387 0
M  V30 3651 N 339.963 1.05934 -1.16686 0
M  V30 3652 C 340.913 2.11764 -0.844978 0
M  V30 3653 C 341.897 1.59922 0.177178 0
M  V30 3654 O 343.089 1.76983 -0.0241768 0
M  V30 3655 C 340.218 3.41493 -0.351812 0
M  V30 3656 C 339.304 4.00152 -1.40496 0
M  V30 3657 N 339.695 4.32874 -2.61636 0
M  V30 3658 C 337.993 4.278 -1.26106 0
M  V30 3659 C 338.694 4.79552 -3.29249 0
M  V30 3660 N 337.67 4.79211 -2.56628 0
M  V30 3661 H 341.472 2.34916 -1.76612 0
M  V30 3662 H 338.986 1.23511 -1.05446 0
M  V30 3663 H 340.983 4.16773 -0.102796 0
M  V30 3664 H 339.643 3.19778 0.56322 0
M  V30 3665 H 340.654 4.23109 -2.98663 0
M  V30 3666 H 337.331 4.15511 -0.407081 0
M  V30 3667 H 338.721 5.14045 -4.32675 0
M  V30 3668 N 341.441 0.965919 1.2453 0
M  V30 3669 C 342.852 0.665929 1.7442 0
M  V30 3670 C 343.203 -0.818407 1.78316 0
M  V30 3671 O 342.328 -1.64037 1.41141 0
M  V30 3672 C 342.923 1.20211 3.16757 0
M  V30 3673 C 341.482 0.952059 3.6416 0
M  V30 3674 C 340.629 1.33848 2.42858 0
M  V30 3675 H 343.58 1.14144 1.10258 0
M  V30 3676 H 343.601 0.567544 3.76244 0
M  V30 3677 H 343.113 2.28244 3.13889 0
M  V30 3678 H 341.214 -0.112821 3.72429 0
M  V30 3679 H 341.327 1.59645 4.51719 0
M  V30 3680 H 339.691 0.756864 2.43195 0
M  V30 3681 H 340.474 2.42827 2.42673 0
M  V30 3682 N 342.919 -1.39368 0.735821 0
M  V30 3683 C 344.144 -2.05319 0.293052 0
M  V30 3684 C 344.569 -1.55115 -1.064 0
M  V30 3685 O 343.927 -0.695261 -1.67439 0
M  V30 3686 C 343.975 -3.59305 0.305323 0
M  V30 3687 O 343.079 -4.06299 -0.706761 0
M  V30 3688 H 342.42 -0.650529 0.13307 0
M  V30 3689 H 344.95 -1.78386 1.00197 0
M  V30 3690 H 344.96 -4.07724 0.149997 0
M  V30 3691 H 343.635 -3.95207 1.29553 0
M  V30 3692 H 342.212 -3.69292 -0.517504 0
M  V30 3693 N 344.397 -0.483516 -1.5 0
M  V30 3694 C 345.347 0.32306 -2.257 0
M  V30 3695 C 346.331 0.950755 -1.29805 0
M  V30 3696 O 347.523 0.861247 -1.54634 0
M  V30 3697 C 344.652 1.39724 -3.13579 0
M  V30 3698 C 343.738 0.776663 -4.16928 0
M  V30 3699 N 344.129 -0.1104 -5.0568 0
M  V30 3700 C 342.427 1.03922 -4.33724 0
M  V30 3701 C 343.128 -0.46387 -5.79848 0
M  V30 3702 N 342.104 0.163987 -5.43353 0
M  V30 3703 H 345.906 -0.360086 -2.91686 0
M  V30 3704 H 343.42 -0.298456 -1.59634 0
M  V30 3705 H 345.417 1.98837 -3.66428 0
M  V30 3706 H 344.077 2.08225 -2.49143 0
M  V30 3707 H 345.088 -0.480069 -5.1567 0
M  V30 3708 H 341.765 1.71829 -3.80501 0
M  V30 3709 H 343.155 -1.18854 -6.61304 0
M  V30 3710 N 345.875 1.56104 -0.216619 0
M  V30 3711 C 346.808 2.16026 0.735395 0
M  V30 3712 C 347.786 1.1032 1.1945 0
M  V30 3713 O 348.97 1.38549 1.27814 0
M  V30 3714 C 346.097 2.73656 1.99575 0
M  V30 3715 C 345.143 3.92146 1.67702 0
M  V30 3716 S 345.976 5.29397 0.806145 0
M  V30 3717 C 347.132 5.90463 2.07617 0
M  V30 3718 H 347.365 2.96439 0.226072 0
M  V30 3719 H 344.898 1.544 -0.00136639 0
M  V30 3720 H 346.856 3.075 2.71945 0
M  V30 3721 H 345.517 1.93245 2.47619 0
M  V30 3722 H 344.71 4.30954 2.61332 0
M  V30 3723 H 344.312 3.59423 1.03398 0
M  V30 3724 H 346.604 6.06136 3.02664 0
M  V30 3725 H 347.547 6.86589 1.73207 0
M  V30 3726 H 347.955 5.19252 2.21445 0
M  V30 3727 N 347.353 -0.0568162 1.57498 0
M  V30 3728 C 348.63 -0.786954 1.79071 0
M  V30 3729 C 349.01 -1.95028 0.80792 0
M  V30 3730 O 348.358 -2.27968 -0.155858 0
M  V30 3731 C 348.568 -1.24594 3.26002 0
M  V30 3732 C 349.916 -1.67323 3.90241 0
M  V30 3733 O 350.94 -1.34124 3.29984 0
M  V30 3734 O 349.799 -2.28842 4.9628 0
M  V30 3735 H 346.893 -0.378262 0.735423 0
M  V30 3736 H 349.439 -0.035734 1.69662 0
M  V30 3737 H 348.211 -0.41423 3.89101 0
M  V30 3738 H 347.834 -2.05803 3.40192 0
M  V30 3739 N 348.832 -1.54138 -0.328536 0
M  V30 3740 C 350.081 -1.71318 -1.06456 0
M  V30 3741 C 350.394 -0.491109 -1.89334 0
M  V30 3742 O 351.6 -0.54416 -2.65991 0
M  V30 3743 C 350.056 -3.03 -1.94214 0
M  V30 3744 C 349.664 -4.32595 -1.16471 0
M  V30 3745 C 351.408 -3.29544 -2.67583 0
M  V30 3746 C 349.315 -5.55341 -2.03347 0
M  V30 3747 H 348.245 -0.638429 -0.401155 0
M  V30 3748 H 350.896 -1.80633 -0.323106 0
M  V30 3749 H 349.278 -2.87579 -2.72239 0
M  V30 3750 H 350.452 -4.58766 -0.432525 0
M  V30 3751 H 348.767 -4.12777 -0.548063 0
M  V30 3752 H 351.364 -4.18444 -3.3288 0
M  V30 3753 H 351.707 -2.47206 -3.34955 0
M  V30 3754 H 352.24 -3.45809 -1.96623 0
M  V30 3755 H 348.979 -6.40268 -1.40491 0
M  V30 3756 H 348.499 -5.33397 -2.74313 0
M  V30 3757 H 350.178 -5.91557 -2.62049 0
M  V30 3758 N 350.31 0.590341 -1.46126 0
M  V30 3759 C 351.721 1.17243 -1.45296 0
M  V30 3760 C 352.072 1.95281 -0.189723 0
M  V30 3761 O 351.197 2.04502 0.707674 0
M  V30 3762 C 351.792 2.13284 -2.6324 0
M  V30 3763 C 350.351 2.66832 -2.65476 0
M  V30 3764 C 349.498 1.42557 -2.3785 0
M  V30 3765 H 352.449 0.378692 -1.54116 0
M  V30 3766 H 352.47 2.96619 -2.38323 0
M  V30 3767 H 351.982 1.56459 -3.55165 0
M  V30 3768 H 350.083 3.27548 -1.77603 0
M  V30 3769 H 350.196 3.10088 -3.65215 0
M  V30 3770 H 348.56 1.72107 -1.87753 0
M  V30 3771 H 349.343 0.875741 -3.31942 0
M  V30 3772 N 351.788 1.33704 0.83433 0
M  V30 3773 C 352.718 1.26967 1.95963 0
M  V30 3774 C 353.699 0.149337 1.69443 0
M  V30 3775 O 354.884 0.339852 1.91203 0
M  V30 3776 C 352.014 1.01275 3.32206 0
M  V30 3777 C 350.968 2.09652 3.73136 0
M  V30 3778 C 350.294 1.69166 5.07235 0
M  V30 3779 C 351.594 3.51372 3.86439 0
M  V30 3780 H 353.288 2.2112 2.01857 0
M  V30 3781 H 350.834 1.06447 0.969793 0
M  V30 3782 H 352.787 0.952106 4.10503 0
M  V30 3783 H 351.511 0.0356203 3.26581 0
M  V30 3784 H 350.17 2.14766 2.97104 0
M  V30 3785 H 349.818 0.701437 4.98085 0
M  V30 3786 H 349.518 2.41694 5.35591 0
M  V30 3787 H 351.042 1.64576 5.88003 0
M  V30 3788 H 352.456 3.48734 4.55036 0
M  V30 3789 H 350.853 4.22425 4.26236 0
M  V30 3790 H 351.923 3.89546 2.88759 0
M  V30 3791 N 353.266 -1.05314 1.17247 0
M  V30 3792 C 354.543 -1.75184 0.87005 0
M  V30 3793 C 354.923 -2.01481 -0.629965 0
M  V30 3794 O 354.271 -1.64988 -1.58086 0
M  V30 3795 C 354.481 -3.04594 1.70363 0
M  V30 3796 C 355.829 -3.78567 1.92281 0
M  V30 3797 O 356.853 -3.14461 1.67311 0
M  V30 3798 O 355.712 -4.93755 2.3424 0
M  V30 3799 H 352.806 -0.761729 0.322021 0
M  V30 3800 H 355.352 -1.11493 1.27935 0
M  V30 3801 H 354.124 -2.81201 2.72106 0
M  V30 3802 H 353.747 -3.76022 1.29202 0
M  V30 3803 N 354.744 -0.972509 -1.24016 0
M  V30 3804 C 355.969 -0.654417 -1.96805 0
M  V30 3805 C 356.394 0.770398 -1.716 0
M  V30 3806 O 355.752 1.52361 -0.982647 0
M  V30 3807 C 355.8 -0.941031 -3.48105 0
M  V30 3808 O 354.904 -0.0289472 -4.1239 0
M  V30 3809 H 354.245 -0.24692 -0.616382 0
M  V30 3810 H 356.775 -1.30396 -1.57664 0
M  V30 3811 H 356.785 -0.87452 -3.98517 0
M  V30 3812 H 355.46 -1.97939 -3.65777 0
M  V30 3813 H 354.037 -0.149192 -3.72601 0
M  V30 3814 N 356.222 1.38976 -0.743202 0
M  V30 3815 C 357.169 2.30544 -0.10861 0
M  V30 3816 C 358.139 1.49642 0.720869 0
M  V30 3817 O 359.324 1.78304 0.679142 0
M  V30 3818 C 356.464 3.36018 0.786496 0
M  V30 3819 C 355.577 4.31963 -0.0564849 0
M  V30 3820 C 354.712 5.24506 0.840657 0
M  V30 3821 C 353.751 6.121 -0.00658363 0
M  V30 3822 N 352.888 6.96973 0.846943 0
M  V30 3823 H 357.728 2.8424 -0.895088 0
M  V30 3824 H 355.265 1.3995 -0.453048 0
M  V30 3825 H 357.223 3.95768 1.31999 0
M  V30 3826 H 355.853 2.83758 1.53887 0
M  V30 3827 H 354.905 3.73763 -0.707492 0
M  V30 3828 H 356.217 4.93703 -0.711229 0
M  V30 3829 H 355.371 5.89322 1.4417 0
M  V30 3830 H 354.11 4.63107 1.52916 0
M  V30 3831 H 353.115 5.46289 -0.620366 0
M  V30 3832 H 354.34 6.75565 -0.691992 0
M  V30 3833 H 352.286 6.38133 1.52059 0
M  V30 3834 H 352.203 7.5559 0.248864 0
M  V30 3835 H 353.471 7.6621 1.43328 0
M  V30 3836 N 357.7 0.491464 1.49741 0
M  V30 3837 C 358.928 -0.0535151 2.06831 0
M  V30 3838 C 359.343 -1.31683 1.35296 0
M  V30 3839 O 358.7 -1.77402 0.42836 0
M  V30 3840 C 358.751 -0.320835 3.60073 0
M  V30 3841 O 358.472 0.892394 4.28915 0
M  V30 3842 C 359.973 -0.910519 4.33848 0
M  V30 3843 H 357.193 0.0161909 0.670805 0
M  V30 3844 H 359.737 0.68609 1.92647 0
M  V30 3845 H 357.892 -1.0104 3.73991 0
M  V30 3846 H 358.306 0.649401 5.20464 0
M  V30 3847 H 359.78 -1.04721 5.41976 0
M  V30 3848 H 360.257 -1.90589 3.95692 0
M  V30 3849 H 360.863 -0.258712 4.24512 0
M  V30 3850 N 359.178 -1.55987 0.224894 0
M  V30 3851 C 360.425 -1.9839 -0.4059 0
M  V30 3852 C 360.753 -1.11261 -1.59535 0
M  V30 3853 O 360.008 -0.158314 -1.95059 0
M  V30 3854 C 360.307 -3.46394 -0.880106 0
M  V30 3855 C 359.973 -4.5046 0.19918 0
M  V30 3856 C 358.635 -4.7864 0.495661 0
M  V30 3857 C 360.987 -5.12855 0.928939 0
M  V30 3858 C 358.315 -5.66497 1.52636 0
M  V30 3859 C 360.667 -6.01828 1.949 0
M  V30 3860 C 359.331 -6.28351 2.25236 0
M  V30 3861 H 358.601 -0.725961 -0.148529 0
M  V30 3862 H 361.248 -1.88668 0.328113 0
M  V30 3863 H 359.553 -3.53337 -1.69294 0
M  V30 3864 H 361.25 -3.76577 -1.37808 0
M  V30 3865 H 357.84 -4.28579 -0.0420526 0
M  V30 3866 H 362.024 -4.9115 0.713129 0
M  V30 3867 H 357.28 -5.8531 1.76698 0
M  V30 3868 H 361.454 -6.49225 2.51951 0
M  V30 3869 H 359.081 -6.96226 3.05244 0
M  V30 3870 N 360.656 0.0484629 -1.57525 0
M  V30 3871 C 361.586 1.0549 -2.08313 0
M  V30 3872 C 362.567 1.38929 -0.981463 0
M  V30 3873 O 363.752 1.48151 -1.25558 0
M  V30 3874 C 360.882 2.36162 -2.54646 0
M  V30 3875 C 359.836 2.17016 -3.68901 0
M  V30 3876 C 359.162 3.53278 -4.01371 0
M  V30 3877 C 360.462 1.57219 -4.98076 0
M  V30 3878 H 362.156 0.632195 -2.92649 0
M  V30 3879 H 359.702 0.302654 -1.40784 0
M  V30 3880 H 361.655 3.06882 -2.88793 0
M  V30 3881 H 360.379 2.80456 -1.67368 0
M  V30 3882 H 359.038 1.48733 -3.35073 0
M  V30 3883 H 358.686 3.95185 -3.11188 0
M  V30 3884 H 358.386 3.41299 -4.78318 0
M  V30 3885 H 359.91 4.25391 -4.38035 0
M  V30 3886 H 361.324 2.17832 -5.30304 0
M  V30 3887 H 359.721 1.55871 -5.79503 0
M  V30 3888 H 360.791 0.535956 -4.81929 0
M  V30 3889 N 362.134 1.5431 0.320358 0
M  V30 3890 C 363.359 1.76954 1.08175 0
M  V30 3891 C 363.784 0.518193 1.80821 0
M  V30 3892 O 363.142 -0.530411 1.73368 0
M  V30 3893 C 363.19 2.96451 2.05303 0
M  V30 3894 O 362.294 2.68221 3.13259 0
M  V30 3895 H 361.635 0.586275 0.311733 0
M  V30 3896 H 364.165 2.01342 0.363676 0
M  V30 3897 H 364.175 3.23887 2.48116 0
M  V30 3898 H 362.85 3.87196 1.51829 0
M  V30 3899 H 361.427 2.51744 2.75099 0
M  V30 3900 N 363.613 -0.582584 1.46437 0
M  V30 3901 C 365.029 -0.905962 1.31394 0
M  V30 3902 C 365.229 -1.99468 0.285476 0
M  V30 3903 O 364.285 -2.50566 -0.311914 0
M  V30 3904 C 365.598 -1.3232 2.70022 0
M  V30 3905 C 367.146 -1.43604 2.78113 0
M  V30 3906 C 367.621 -1.88694 4.17323 0
M  V30 3907 N 369.112 -1.95887 4.19741 0
M  V30 3908 C 369.847 -2.32051 5.24347 0
M  V30 3909 N 369.343 -2.67006 6.39281 0
M  V30 3910 N 371.136 -2.32606 5.11713 0
M  V30 3911 H 363.287 0.1366 2.1196 0
M  V30 3912 H 365.55 -0.00155736 0.947999 0
M  V30 3913 H 365.256 -0.597242 3.46592 0
M  V30 3914 H 365.13 -2.28469 3.00136 0
M  V30 3915 H 367.517 -2.15286 2.01832 0
M  V30 3916 H 367.598 -0.457059 2.51684 0
M  V30 3917 H 367.242 -1.1759 4.941 0
M  V30 3918 H 367.172 -2.8755 4.4116 0
M  V30 3919 H 369.663 -1.71362 3.36814 0
M  V30 3920 H 369.976 -2.93554 7.14875 0
M  V30 3921 H 368.321 -2.64644 6.42642 0
M  V30 3922 H 371.512 -2.04721 4.2096 0
M  V30 3923 H 371.685 -2.60462 5.93349 0
M  V30 3924 N 365.091 -1.34144 -0.827227 0
M  V30 3925 C 366.041 -1.21923 -1.92663 0
M  V30 3926 C 367.025 -0.119294 -1.60457 0
M  V30 3927 O 368.217 -0.348539 -1.73534 0
M  V30 3928 C 365.346 -0.972492 -3.29238 0
M  V30 3929 C 364.432 -2.1154 -3.67576 0
M  V30 3930 N 364.823 -3.36627 -3.77512 0
M  V30 3931 C 363.121 -2.02468 -3.97395 0
M  V30 3932 C 363.822 -4.11658 -4.1099 0
M  V30 3933 N 362.798 -3.40207 -4.23981 0
M  V30 3934 H 366.6 -2.16721 -1.98517 0
M  V30 3935 H 364.114 -1.2632 -1.02064 0
M  V30 3936 H 366.111 -0.865847 -4.0781 0
M  V30 3937 H 364.771 -0.0331509 -3.24683 0
M  V30 3938 H 365.782 -3.71234 -3.61118 0
M  V30 3939 H 362.459 -1.16265 -4.00985 0
M  V30 3940 H 363.849 -5.19657 -4.25918 0
M  V30 3941 N 366.569 1.04691 -1.17803 0
M  V30 3942 C 367.794 1.81984 -0.994813 0
M  V30 3943 C 368.219 1.82586 0.452112 0
M  V30 3944 O 367.577 1.23854 1.324 0
M  V30 3945 C 367.625 3.2575 -1.54659 0
M  V30 3946 O 366.729 4.05267 -0.763728 0
M  V30 3947 H 366.07 0.562483 -0.352857 0
M  V30 3948 H 368.6 1.3189 -1.56417 0
M  V30 3949 H 368.61 3.76541 -1.57102 0
M  V30 3950 H 367.285 3.24627 -2.59981 0
M  V30 3951 H 365.862 3.63972 -0.811108 0
M  V30 3952 N 368.047 0.979072 1.23499 0
M  V30 3953 C 368.98 0.463027 2.23453 0
M  V30 3954 C 369.958 -0.469128 1.55685 0
M  V30 3955 O 371.142 -0.397882 1.84253 0
M  V30 3956 C 368.269 -0.330308 3.37086 0
M  V30 3957 C 367.315 0.545795 4.22993 0
M  V30 3958 S 368.148 1.99285 4.97037 0
M  V30 3959 C 369.304 1.20862 6.1412 0
M  V30 3960 H 369.537 1.31005 2.6688 0
M  V30 3961 H 367.07 0.784965 1.32957 0
M  V30 3962 H 369.028 -0.782027 4.02982 0
M  V30 3963 H 367.689 -1.15244 2.92194 0
M  V30 3964 H 366.882 -0.0638928 5.03959 0
M  V30 3965 H 366.484 0.933705 3.62157 0
M  V30 3966 H 368.776 0.469284 6.75873 0
M  V30 3967 H 369.719 1.99307 6.79472 0
M  V30 3968 H 370.127 0.727992 5.59786 0
M  V30 3969 N 369.525 -1.3858 0.750561 0
M  V30 3970 C 370.802 -1.94231 0.231009 0
M  V30 3971 C 371.182 -1.68611 -1.27018 0
M  V30 3972 O 370.53 -1.02296 -2.04323 0
M  V30 3973 C 370.74 -3.44123 0.581428 0
M  V30 3974 C 372.088 -4.2116 0.539389 0
M  V30 3975 O 373.112 -3.52391 0.519541 0
M  V30 3976 O 371.971 -5.43749 0.54765 0
M  V30 3977 H 369.065 -0.825639 0.0474263 0
M  V30 3978 H 371.611 -1.4799 0.830478 0
M  V30 3979 H 370.383 -3.56267 1.61833 0
M  V30 3980 H 370.006 -3.97573 -0.0462047 0
M  V30 3981 N 371.003 -0.499398 -1.49478 0
M  V30 3982 C 371.936 0.326491 -2.25852 0
M  V30 3983 C 372.914 0.971776 -1.30366 0
M  V30 3984 O 374.098 1.00219 -1.59651 0
M  V30 3985 C 371.225 1.45969 -3.05632 0
M  V30 3986 C 370.271 0.928938 -4.16261 0
M  V30 3987 S 371.104 -0.179012 -5.35201 0
M  V30 3988 C 372.26 0.957389 -6.18534 0
M  V30 3989 H 372.493 -0.321746 -2.95554 0
M  V30 3990 H 370.026 -0.284674 -1.51753 0
M  V30 3991 H 371.984 2.109 -3.52181 0
M  V30 3992 H 370.645 2.07953 -2.35402 0
M  V30 3993 H 369.838 1.77813 -4.71592 0
M  V30 3994 H 369.44 0.356869 -3.72293 0
M  V30 3995 H 371.732 1.86296 -6.51383 0
M  V30 3996 H 372.675 0.442733 -7.06715 0
M  V30 3997 H 373.083 1.224 -5.5107 0
M  V30 3998 N 372.481 1.55866 -0.233164 0
M  V30 3999 C 373.428 2.20796 0.67215 0
M  V30 4000 C 374.398 1.16731 1.18166 0
M  V30 4001 O 375.583 1.45129 1.23864 0
M  V30 4002 C 372.723 2.90072 1.86955 0
M  V30 4003 C 371.836 4.08759 1.39786 0
M  V30 4004 C 370.971 4.65787 2.55374 0
M  V30 4005 C 370.01 5.76752 2.04998 0
M  V30 4006 N 369.147 6.28021 3.13901 0
M  V30 4007 H 373.987 2.9779 0.111749 0
M  V30 4008 H 371.524 1.47036 0.0434007 0
M  V30 4009 H 373.482 3.28428 2.57276 0
M  V30 4010 H 372.112 2.15575 2.40265 0
M  V30 4011 H 371.164 3.7581 0.589173 0
M  V30 4012 H 372.476 4.88906 0.98856 0
M  V30 4013 H 371.63 5.06646 3.33758 0
M  V30 4014 H 370.369 3.84828 2.99598 0
M  V30 4015 H 369.374 5.35383 1.25079 0
M  V30 4016 H 370.599 6.59553 1.61759 0
M  V30 4017 H 368.545 5.49971 3.57586 0
M  V30 4018 H 368.462 7.03323 2.7726 0
M  V30 4019 H 369.73 6.73538 3.92386 0
M  V30 4020 N 373.959 -0.0401083 1.57549 0
M  V30 4021 C 375.206 -0.733125 1.88763 0
M  V30 4022 C 375.534 -1.75946 0.829058 0
M  V30 4023 O 374.789 -1.94949 -0.171323 0
M  V30 4024 C 375.088 -1.44902 3.26708 0
M  V30 4025 C 374.754 -0.559707 4.47413 0
M  V30 4026 C 373.416 -0.314731 4.8017 0
M  V30 4027 C 375.768 0.0549743 5.21171 0
M  V30 4028 C 373.096 0.553886 5.8408 0
M  V30 4029 C 375.448 0.911229 6.26003 0
M  V30 4030 C 374.112 1.16577 6.57241 0
M  V30 4031 H 373.382 -0.268269 0.690733 0
M  V30 4032 H 376.029 0.00679408 1.91499 0
M  V30 4033 H 374.334 -2.26197 3.1991 0
M  V30 4034 H 376.031 -1.99058 3.48105 0
M  V30 4035 H 372.621 -0.760793 4.21794 0
M  V30 4036 H 376.805 -0.121344 4.96152 0
M  V30 4037 H 372.061 0.759518 6.06664 0
M  V30 4038 H 376.235 1.3941 6.82303 0
M  V30 4039 H 373.862 1.84058 7.37582 0
M  V30 4040 N 375.437 -1.54477 -0.31217 0
M  V30 4041 C 376.665 -1.77205 -1.068 0
M  V30 4042 C 377.08 -0.526114 -1.81321 0
M  V30 4043 O 376.437 0.503647 -1.75413 0
M  V30 4044 C 376.488 -2.97253 -2.05725 0
M  V30 4045 O 376.209 -4.1703 -1.34228 0
M  V30 4046 C 377.71 -3.32281 -2.93435 0
M  V30 4047 H 374.93 -0.591287 -0.317208 0
M  V30 4048 H 377.474 -2.01398 -0.354834 0
M  V30 4049 H 375.629 -2.753 -2.72559 0
M  V30 4050 H 376.043 -4.84636 -2.00571 0
M  V30 4051 H 377.517 -4.19551 -3.58721 0
M  V30 4052 H 377.994 -2.49945 -3.61143 0
M  V30 4053 H 378.6 -3.56353 -2.32147 0
M  V30 4054 N 376.915 0.57481 -1.46744 0
M  V30 4055 C 378.145 1.35659 -1.55821 0
M  V30 4056 C 378.553 1.88129 -0.201036 0
M  V30 4057 O 377.896 1.64723 0.813134 0
M  V30 4058 C 377.958 2.57473 -2.50894 0
M  V30 4059 C 377.622 2.26415 -3.9697 0
M  V30 4060 C 378.619 1.84771 -4.85958 0
M  V30 4061 C 376.304 2.38316 -4.42166 0
M  V30 4062 C 378.298 1.55434 -6.18158 0
M  V30 4063 C 375.985 2.08591 -5.74398 0
M  V30 4064 C 376.983 1.67216 -6.62214 0
M  V30 4065 O 376.671 1.37859 -7.91991 0
M  V30 4066 H 376.403 0.420496 -0.529301 0
M  V30 4067 H 378.957 0.704967 -1.92923 0
M  V30 4068 H 377.187 3.25468 -2.08824 0
M  V30 4069 H 378.876 3.19546 -2.50291 0
M  V30 4070 H 379.642 1.75085 -4.52295 0
M  V30 4071 H 375.521 2.69483 -3.74032 0
M  V30 4072 H 379.065 1.23065 -6.86659 0
M  V30 4073 H 374.962 2.17905 -6.07608 0
M  V30 4074 H 375.73 1.51638 -8.04331 0
M  V30 4075 N 378.394 1.34581 0.820102 0
M  V30 4076 C 379.634 1.28448 1.58998 0
M  V30 4077 C 379.998 -0.142883 1.91468 0
M  V30 4078 O 381.199 -0.328422 2.66786 0
M  V30 4079 C 379.47 2.153 2.85273 0
M  V30 4080 S 381.029 2.26548 3.75794 0
M  V30 4081 H 377.847 0.456685 0.54494 0
M  V30 4082 H 380.449 1.69825 0.968487 0
M  V30 4083 H 379.153 3.18008 2.59421 0
M  V30 4084 H 378.684 1.7483 3.52417 0
M  V30 4085 H 380.699 1.44034 4.74835 0
M  V30 4086 N 379.872 -1.04064 1.18357 0
M  V30 4087 C 381.149 -1.74252 0.888581 0
M  V30 4088 C 381.529 -2.02138 -0.60856 0
M  V30 4089 O 380.877 -1.66656 -1.56327 0
M  V30 4090 C 381.087 -3.0277 1.73584 0
M  V30 4091 C 382.435 -3.76506 1.96286 0
M  V30 4092 O 383.459 -3.12668 1.70637 0
M  V30 4093 O 382.318 -4.91243 2.39464 0
M  V30 4094 H 379.412 -0.758271 0.330082 0
M  V30 4095 H 381.958 -1.1013 1.2911 0
M  V30 4096 H 380.73 -2.78299 2.75073 0
M  V30 4097 H 380.353 -3.74631 1.33183 0
M  V30 4098 N 381.35 -0.985608 -1.22978 0
M  V30 4099 C 382.627 -0.573599 -1.87001 0
M  V30 4100 C 383.007 0.949213 -1.88555 0
M  V30 4101 O 382.355 1.82811 -1.37086 0
M  V30 4102 C 382.565 -1.18564 -3.28243 0
M  V30 4103 C 383.913 -1.28163 -4.04796 0
M  V30 4104 O 384.937 -1.13949 -3.37482 0
M  V30 4105 O 383.796 -1.50832 -5.25273 0
M  V30 4106 H 380.89 -0.193868 -0.803955 0
M  V30 4107 H 383.436 -1.08102 -1.30813 0
M  V30 4108 H 382.208 -2.22758 -3.21706 0
M  V30 4109 H 381.831 -0.663363 -3.92027 0
M  V30 4110 N 382.828 1.3818 -0.7579 0
M  V30 4111 C 384.244 1.5353 -0.435972 0
M  V30 4112 C 384.444 1.71961 1.05032 0
M  V30 4113 O 383.5 1.73307 1.83633 0
M  V30 4114 C 384.813 2.73989 -1.23898 0
M  V30 4115 C 386.361 2.87841 -1.22949 0
M  V30 4116 C 386.836 4.11266 -2.01554 0
M  V30 4117 N 388.327 4.18352 -1.98837 0
M  V30 4118 C 389.062 5.12856 -2.5645 0
M  V30 4119 N 388.558 6.13005 -3.22794 0
M  V30 4120 N 390.351 5.05238 -2.46356 0
M  V30 4121 H 382.502 1.24467 -1.7211 0
M  V30 4122 H 384.765 0.604982 -0.729864 0
M  V30 4123 H 384.471 2.66789 -2.29165 0
M  V30 4124 H 384.345 3.67294 -0.858764 0
M  V30 4125 H 386.732 2.9452 -0.184854 0
M  V30 4126 H 386.813 1.95534 -1.64924 0
M  V30 4127 H 386.457 4.05349 -3.06031 0
M  V30 4128 H 386.387 5.02661 -1.5697 0
M  V30 4129 H 388.878 3.46628 -1.50524 0
M  V30 4130 H 389.191 6.81619 -3.64165 0
M  V30 4131 H 387.536 6.13325 -3.2689 0
M  V30 4132 H 390.727 4.25938 -1.9415 0
M  V30 4133 H 390.9 5.78707 -2.91552 0
M  V30 4134 N 384.306 0.507319 1.49211 0
M  V30 4135 C 385.555 -0.0368315 2.01666 0
M  V30 4136 C 385.868 -1.37459 1.39156 0
M  V30 4137 O 387.074 -2.00579 1.82976 0
M  V30 4138 C 385.53 -0.116089 3.59713 0
M  V30 4139 C 385.138 1.2154 4.31198 0
M  V30 4140 C 386.882 -0.610268 4.2009 0
M  V30 4141 C 384.789 1.09796 5.81119 0
M  V30 4142 H 383.719 -0.0175376 0.753796 0
M  V30 4143 H 386.37 0.647691 1.71689 0
M  V30 4144 H 384.752 -0.8652 3.86433 0
M  V30 4145 H 385.926 1.9783 4.16173 0
M  V30 4146 H 384.241 1.64352 3.82593 0
M  V30 4147 H 386.838 -0.715742 5.29888 0
M  V30 4148 H 387.181 -1.61064 3.8388 0
M  V30 4149 H 387.714 0.0824916 3.97714 0
M  V30 4150 H 384.453 2.0728 6.21864 0
M  V30 4151 H 383.973 0.376058 5.9862 0
M  V30 4152 H 385.652 0.779281 6.4229 0
M  V30 4153 N 385.784 -1.5574 0.241426 0
M  V30 4154 C 387.012 -2.03208 -0.389134 0
M  V30 4155 C 387.427 -1.12082 -1.51931 0
M  V30 4156 O 386.784 -0.134183 -1.82006 0
M  V30 4157 C 386.835 -3.50064 -0.902087 0
M  V30 4158 O 386.556 -4.37717 0.18305 0
M  V30 4159 C 388.057 -4.13268 -1.60389 0
M  V30 4160 H 385.277 -0.664509 -0.0931053 0
M  V30 4161 H 387.821 -2.0124 0.36369 0
M  V30 4162 H 385.976 -3.52583 -1.60511 0
M  V30 4163 H 386.39 -5.24097 -0.205579 0
M  V30 4164 H 387.864 -5.17733 -1.91458 0
M  V30 4165 H 388.341 -3.59434 -2.52397 0
M  V30 4166 H 388.947 -4.14655 -0.945576 0
M  V30 4167 N 387.262 0.0317525 -1.57568 0
M  V30 4168 C 388.172 1.05021 -2.0978 0
M  V30 4169 C 389.188 1.39809 -1.03583 0
M  V30 4170 O 390.364 1.49182 -1.35302 0
M  V30 4171 C 387.429 2.33301 -2.56459 0
M  V30 4172 C 386.49 2.0512 -3.77127 0
M  V30 4173 C 385.723 3.27283 -4.2157 0
M  V30 4174 O 385.946 4.37861 -3.65559 0
M  V30 4175 O 384.88 3.13141 -5.14029 0
M  V30 4176 H 388.706 0.636505 -2.96955 0
M  V30 4177 H 386.291 0.248559 -1.47318 0
M  V30 4178 H 388.173 3.08722 -2.86825 0
M  V30 4179 H 386.848 2.73973 -1.72397 0
M  V30 4180 H 385.755 1.27276 -3.51784 0
M  V30 4181 H 387.088 1.69305 -4.62165 0
M  V30 4182 N 388.74 1.54641 0.303973 0
M  V30 4183 C 389.67 1.88386 1.3796 0
M  V30 4184 C 390.651 0.742485 1.5304 0
M  V30 4185 O 391.836 0.997959 1.66597 0
M  V30 4186 C 388.966 2.12854 2.74427 0
M  V30 4187 C 387.92 3.28702 2.74115 0
M  V30 4188 C 387.246 3.38582 4.13844 0
M  V30 4189 C 388.546 4.65881 2.3612 0
M  V30 4190 H 390.24 2.78474 1.09966 0
M  V30 4191 H 387.786 1.33988 0.527556 0
M  V30 4192 H 389.739 2.35047 3.49758 0
M  V30 4193 H 388.463 1.19535 3.03939 0
M  V30 4194 H 387.122 3.06428 2.0124 0
M  V30 4195 H 386.77 2.42784 4.40528 0
M  V30 4196 H 386.47 4.16453 4.14537 0
M  V30 4197 H 387.994 3.63031 4.90959 0
M  V30 4198 H 389.408 4.87823 3.01167 0
M  V30 4199 H 387.805 5.46444 2.48031 0
M  V30 4200 H 388.875 4.66799 1.3125 0
M  V30 4201 N 390.218 -0.567019 1.47046 0
M  V30 4202 C 391.467 -1.32091 1.5243 0
M  V30 4203 C 391.78 -1.94704 0.187021 0
M  V30 4204 O 392.986 -2.7124 0.118771 0
M  V30 4205 C 391.442 -2.39479 2.68659 0
M  V30 4206 C 391.05 -1.831 4.08874 0
M  V30 4207 C 392.794 -3.16111 2.83327 0
M  V30 4208 C 390.701 -2.8821 5.16419 0
M  V30 4209 H 389.631 -0.496629 0.56734 0
M  V30 4210 H 392.282 -0.603354 1.73297 0
M  V30 4211 H 390.664 -3.14105 2.41152 0
M  V30 4212 H 391.838 -1.14913 4.46242 0
M  V30 4213 H 390.153 -1.19085 3.99008 0
M  V30 4214 H 392.75 -3.94585 3.60842 0
M  V30 4215 H 393.093 -3.69686 1.91411 0
M  V30 4216 H 393.626 -2.48595 3.10556 0
M  V30 4217 H 390.365 -2.39504 6.10179 0
M  V30 4218 H 389.885 -3.54839 4.8358 0
M  V30 4219 H 391.564 -3.51881 5.42945 0
M  V30 4220 N 391.696 -1.35014 -0.812953 0
M  V30 4221 C 392.944 -1.27678 -1.56661 0
M  V30 4222 C 393.265 0.150359 -1.94419 0
M  V30 4223 O 392.535 1.08532 -1.63088 0
M  V30 4224 H 391.115 -0.469602 -0.580933 0
M  V30 4225 H 393.777 -1.69043 -0.970076 0
M  V30 4226 H 392.873 -1.88833 -2.48492 0
M  V30 4227 N 393.175 1.03435 -1.18907 0
M  V30 4228 C 394.405 1.8012 -1.01195 0
M  V30 4229 C 394.813 1.8395 0.442613 0
M  V30 4230 O 394.156 1.27836 1.31923 0
M  V30 4231 C 394.218 3.26792 -1.49823 0
M  V30 4232 C 393.882 3.46609 -2.97844 0
M  V30 4233 C 394.879 3.37278 -3.95651 0
M  V30 4234 C 392.564 3.73001 -3.36416 0
M  V30 4235 C 394.558 3.54054 -5.30023 0
M  V30 4236 C 392.245 3.89423 -4.70949 0
M  V30 4237 C 393.243 3.79951 -5.67562 0
M  V30 4238 O 392.931 3.95895 -6.99659 0
M  V30 4239 H 392.663 0.573865 -0.357289 0
M  V30 4240 H 395.217 1.31207 -1.58031 0
M  V30 4241 H 393.447 3.76703 -0.873578 0
M  V30 4242 H 395.136 3.85055 -1.28404 0
M  V30 4243 H 395.902 3.16846 -3.67197 0
M  V30 4244 H 391.781 3.79469 -2.61772 0
M  V30 4245 H 395.325 3.46577 -6.05417 0
M  V30 4246 H 391.222 4.09351 -4.99101 0
M  V30 4247 H 391.99 4.13019 -7.06653 0
M  V30 4248 N 394.653 0.992116 1.22453 0
M  V30 4249 C 395.603 0.512969 2.22155 0
M  V30 4250 C 396.587 -0.418416 1.55364 0
M  V30 4251 O 397.779 -0.245363 1.75291 0
M  V30 4252 C 394.908 -0.171822 3.4287 0
M  V30 4253 C 393.994 0.779822 4.16869 0
M  V30 4254 N 394.385 1.92734 4.6764 0
M  V30 4255 C 392.683 0.59554 4.42006 0
M  V30 4256 C 393.384 2.52458 5.24061 0
M  V30 4257 N 392.36 1.80735 5.12675 0
M  V30 4258 H 396.162 1.38817 2.5905 0
M  V30 4259 H 393.676 0.854277 1.38115 0
M  V30 4260 H 395.673 -0.532469 4.13486 0
M  V30 4261 H 394.333 -1.04317 3.07487 0
M  V30 4262 H 395.344 2.30816 4.63621 0
M  V30 4263 H 392.021 -0.229805 4.16867 0
M  V30 4264 H 393.411 3.49433 5.73887 0
M  V30 4265 N 396.131 -1.37776 0.765217 0
M  V30 4266 C 397.542 -1.82521 0.392819 0
M  V30 4267 C 397.893 -1.63789 -1.08017 0
M  V30 4268 O 397.018 -1.14542 -1.83601 0
M  V30 4269 C 397.613 -3.31358 0.706214 0
M  V30 4270 C 396.172 -3.74406 0.386952 0
M  V30 4271 C 395.319 -2.60394 0.953422 0
M  V30 4272 H 398.27 -1.2634 0.960412 0
M  V30 4273 H 398.291 -3.80498 -0.0114706 0
M  V30 4274 H 397.803 -3.44959 1.77833 0
M  V30 4275 H 395.904 -3.66377 -0.678112 0
M  V30 4276 H 396.017 -4.70749 0.890636 0
M  V30 4277 H 394.381 -2.51878 0.378064 0
M  V30 4278 H 395.164 -2.76791 2.03081 0
M  V30 4279 N 397.609 -0.515225 -1.4894 0
M  V30 4280 C 398.519 0.259774 -2.33157 0
M  V30 4281 C 399.535 0.953501 -1.45548 0
M  V30 4282 O 400.711 0.931735 -1.78552 0
M  V30 4283 C 397.776 1.30193 -3.21326 0
M  V30 4284 C 396.837 0.620129 -4.24797 0
M  V30 4285 C 396.07 1.61263 -5.08753 0
M  V30 4286 O 396.293 2.84389 -4.94448 0
M  V30 4287 O 395.227 1.16013 -5.90614 0
M  V30 4288 H 399.053 -0.429932 -3.00641 0
M  V30 4289 H 396.638 -0.276346 -1.46822 0
M  V30 4290 H 398.52 1.90455 -3.75905 0
M  V30 4291 H 397.195 1.97431 -2.56521 0
M  V30 4292 H 396.102 -0.0226019 -3.74093 0
M  V30 4293 H 397.435 -0.0100493 -4.92199 0
M  V30 4294 N 399.087 1.5561 -0.249682 0
M  V30 4295 C 399.997 2.25143 0.659375 0
M  V30 4296 C 401.013 1.2685 1.19101 0
M  V30 4297 O 402.189 1.59732 1.22669 0
M  V30 4298 C 399.254 2.93945 1.8384 0
M  V30 4299 C 398.315 4.07655 1.34596 0
M  V30 4300 C 397.548 4.73167 2.46878 0
M  V30 4301 O 397.771 4.37768 3.65671 0
M  V30 4302 O 396.705 5.61623 2.16478 0
M  V30 4303 H 400.531 3.03545 0.0968698 0
M  V30 4304 H 398.116 1.49389 -0.018074 0
M  V30 4305 H 399.998 3.37271 2.52638 0
M  V30 4306 H 398.673 2.18481 2.38847 0
M  V30 4307 H 397.58 3.68839 0.625174 0
M  V30 4308 H 398.913 4.84946 0.841941 0
M  V30 4309 N 400.565 -0.0233959 1.57583 0
M  V30 4310 C 401.495 -1.02162 2.09965 0
M  V30 4311 C 402.476 -1.3735 1.00344 0
M  V30 4312 O 403.661 -1.46135 1.27899 0
M  V30 4313 C 400.791 -2.32081 2.58371 0
M  V30 4314 C 399.745 -2.1112 3.72307 0
M  V30 4315 C 399.071 -3.46848 4.06941 0
M  V30 4316 C 400.371 -1.49276 5.00514 0
M  V30 4317 H 402.065 -0.585557 2.93618 0
M  V30 4318 H 399.611 -0.280218 1.41247 0
M  V30 4319 H 401.564 -3.02249 2.93639 0
M  V30 4320 H 400.288 -2.77758 1.71808 0
M  V30 4321 H 398.947 -1.43384 3.37397 0
M  V30 4322 H 398.595 -3.90184 3.17436 0
M  V30 4323 H 398.295 -3.33646 4.83688 0
M  V30 4324 H 399.819 -4.18369 4.44747 0
M  V30 4325 H 401.233 -2.09368 5.33702 0
M  V30 4326 H 399.63 -1.46632 5.8191 0
M  V30 4327 H 400.7 -0.459217 4.82721 0
M  V30 4328 N 402.043 -1.548 -0.295768 0
M  V30 4329 C 402.973 -1.89115 -1.36959 0
M  V30 4330 C 403.954 -0.75059 -1.52644 0
M  V30 4331 O 405.139 -1.00678 -1.66065 0
M  V30 4332 C 402.269 -2.14307 -2.73295 0
M  V30 4333 C 401.223 -3.30151 -2.72368 0
M  V30 4334 C 400.549 -3.40772 -4.12042 0
M  V30 4335 C 401.849 -4.67126 -2.33646 0
M  V30 4336 H 403.543 -2.79053 -1.08488 0
M  V30 4337 H 401.089 -1.34266 -0.520443 0
M  V30 4338 H 403.042 -2.36898 -3.48507 0
M  V30 4339 H 401.766 -1.21145 -3.03301 0
M  V30 4340 H 400.425 -3.0749 -1.99613 0
M  V30 4341 H 400.073 -2.45117 -4.39234 0
M  V30 4342 H 399.773 -4.18645 -4.12322 0
M  V30 4343 H 401.297 -3.6563 -4.89027 0
M  V30 4344 H 402.711 -4.89414 -2.98575 0
M  V30 4345 H 401.108 -5.47751 -2.45129 0
M  V30 4346 H 402.178 -4.67489 -1.28772 0
M  V30 4347 N 403.521 0.559213 -1.47345 0
M  V30 4348 C 404.769 1.31388 -1.53563 0
M  V30 4349 C 405.09 1.93985 -0.198678 0
M  V30 4350 O 404.36 1.79825 0.777167 0
M  V30 4351 H 402.94 0.487901 -0.565652 0
M  V30 4352 H 405.602 0.65315 -1.8363 0
M  V30 4353 H 404.698 2.10844 -2.30111 0
M  V30 4354 N 404.999 1.35443 0.805782 0
M  V30 4355 C 406.415 1.15499 1.10146 0
M  V30 4356 C 406.615 -0.0319975 2.01475 0
M  V30 4357 O 405.671 -0.70236 2.42535 0
M  V30 4358 C 406.984 2.45833 1.73166 0
M  V30 4359 C 408.532 2.52047 1.85583 0
M  V30 4360 C 409.007 3.82427 2.52019 0
M  V30 4361 N 410.498 3.83682 2.59504 0
M  V30 4362 C 411.233 4.81294 3.11679 0
M  V30 4363 N 410.729 5.89294 3.64287 0
M  V30 4364 N 412.522 4.6873 3.1024 0
M  V30 4365 H 404.673 2.11469 0.198678 0
M  V30 4366 H 406.936 0.93594 0.150731 0
M  V30 4367 H 406.642 3.32874 1.13526 0
M  V30 4368 H 406.516 2.6044 2.72857 0
M  V30 4369 H 408.903 1.65435 2.44367 0
M  V30 4370 H 408.984 2.41354 0.847455 0
M  V30 4371 H 408.628 4.69437 1.93885 0
M  V30 4372 H 408.558 3.90409 3.53395 0
M  V30 4373 H 411.049 3.05648 2.22234 0
M  V30 4374 H 411.362 6.59768 4.02401 0
M  V30 4375 H 409.707 5.92985 3.62483 0
M  V30 4376 H 412.898 3.83496 2.68419 0
M  V30 4377 H 413.071 5.44965 3.50596 0
M  V30 4378 N 406.477 -1.02803 1.19454 0
M  V30 4379 C 407.702 -1.80378 1.02364 0
M  V30 4380 C 408.127 -1.83282 -0.423007 0
M  V30 4381 O 407.485 -1.25945 -1.30413 0
M  V30 4382 C 407.533 -3.23248 1.59821 0
M  V30 4383 O 406.637 -4.04 0.828105 0
M  V30 4384 H 405.978 -0.556799 0.361761 0
M  V30 4385 H 408.508 -1.29385 1.58495 0
M  V30 4386 H 408.518 -3.73994 1.63073 0
M  V30 4387 H 407.193 -3.2045 2.65113 0
M  V30 4388 H 405.77 -3.62635 0.86891 0
M  V30 4389 N 407.956 -0.998596 -1.21925 0
M  V30 4390 C 408.919 -0.558679 -2.22287 0
M  V30 4391 C 409.919 0.361525 -1.56683 0
M  V30 4392 O 411.109 0.152695 -1.73529 0
M  V30 4393 C 408.241 0.18661 -3.40389 0
M  V30 4394 H 409.434 -1.4463 -2.62721 0
M  V30 4395 H 406.987 -0.786413 -1.35075 0
M  V30 4396 H 407.722 1.08996 -3.05435 0
M  V30 4397 H 407.507 -0.474188 -3.89222 0
M  V30 4398 H 408.997 0.482367 -4.14805 0
M  V30 4399 N 409.434 1.37368 -0.772513 0
M  V30 4400 C 410.664 2.03647 -0.348082 0
M  V30 4401 C 411.072 1.58392 1.03482 0
M  V30 4402 O 410.415 0.760921 1.672 0
M  V30 4403 C 410.477 3.58131 -0.313404 0
M  V30 4404 C 410.141 4.2652 -1.64102 0
M  V30 4405 C 411.138 4.50587 -2.5936 0
M  V30 4406 C 408.823 4.64335 -1.91567 0
M  V30 4407 C 410.817 5.11526 -3.80289 0
M  V30 4408 C 408.504 5.24996 -3.12766 0
M  V30 4409 C 409.502 5.48529 -4.06946 0
M  V30 4410 O 409.19 6.07921 -5.26011 0
M  V30 4411 H 408.922 0.660538 -0.143753 0
M  V30 4412 H 411.476 1.76669 -1.04772 0
M  V30 4413 H 409.706 3.84159 0.442617 0
M  V30 4414 H 411.395 4.05813 0.0840613 0
M  V30 4415 H 412.161 4.21784 -2.39423 0
M  V30 4416 H 408.04 4.45353 -1.19088 0
M  V30 4417 H 411.584 5.29811 -4.53813 0
M  V30 4418 H 407.481 5.53223 -3.32588 0
M  V30 4419 H 408.249 6.26398 -5.26847 0
M  V30 4420 N 410.912 0.523116 1.48665 0
M  V30 4421 C 411.822 -0.247406 2.33292 0
M  V30 4422 C 412.838 -0.945769 1.46052 0
M  V30 4423 O 414.014 -0.922253 1.79043 0
M  V30 4424 C 411.079 -1.28487 3.22012 0
M  V30 4425 C 410.14 -0.597592 4.2512 0
M  V30 4426 C 409.373 -1.58563 5.09601 0
M  V30 4427 O 409.596 -2.81763 4.95949 0
M  V30 4428 O 408.53 -1.12879 5.91221 0
M  V30 4429 H 412.356 0.445869 3.00409 0
M  V30 4430 H 409.941 0.284128 1.46673 0
M  V30 4431 H 411.823 -1.88459 3.7691 0
M  V30 4432 H 410.498 -1.96068 2.57564 0
M  V30 4433 H 409.405 0.0424407 3.74076 0
M  V30 4434 H 410.738 0.0361517 4.92187 0
M  V30 4435 N 412.39 -1.55475 0.257931 0
M  V30 4436 C 413.637 -1.99207 -0.363728 0
M  V30 4437 C 413.965 -1.1462 -1.57139 0
M  V30 4438 O 413.22 -0.199653 -1.94679 0
M  V30 4439 C 413.519 -3.48183 -0.806433 0
M  V30 4440 C 413.185 -4.49936 0.294684 0
M  V30 4441 C 411.847 -4.77481 0.597076 0
M  V30 4442 C 414.199 -5.10769 1.03751 0
M  V30 4443 C 411.527 -5.63132 1.64618 0
M  V30 4444 C 413.879 -5.97558 2.07622 0
M  V30 4445 C 412.543 -6.23432 2.38514 0
M  V30 4446 H 411.813 -0.728949 -0.133097 0
M  V30 4447 H 414.46 -1.8793 0.368059 0
M  V30 4448 H 412.765 -3.56848 -1.61761 0
M  V30 4449 H 414.462 -3.79415 -1.29789 0
M  V30 4450 H 411.052 -4.28572 0.0488649 0
M  V30 4451 H 415.236 -4.89527 0.817149 0
M  V30 4452 H 410.492 -5.8143 1.89074 0
M  V30 4453 H 414.666 -6.43735 2.65666 0
M  V30 4454 H 412.293 -6.89594 3.19943 0
M  V30 4455 N 413.868 0.0150385 -1.57593 0
M  V30 4456 C 415.098 0.713359 -1.93894 0
M  V30 4457 C 415.506 1.68663 -0.857289 0
M  V30 4458 O 414.849 1.82876 0.173788 0
M  V30 4459 C 414.911 1.51348 -3.26089 0
M  V30 4460 C 414.575 0.703451 -4.51554 0
M  V30 4461 C 415.572 -0.00237924 -5.199 0
M  V30 4462 C 413.257 0.653854 -4.98026 0
M  V30 4463 C 415.251 -0.746955 -6.33008 0
M  V30 4464 C 412.938 -0.0944578 -6.11027 0
M  V30 4465 C 413.936 -0.793609 -6.78374 0
M  V30 4466 O 413.624 -1.52974 -7.89211 0
M  V30 4467 H 413.356 0.204637 -0.644282 0
M  V30 4468 H 415.91 -0.0276411 -2.05381 0
M  V30 4469 H 414.14 2.29862 -3.10967 0
M  V30 4470 H 415.829 2.09572 -3.47612 0
M  V30 4471 H 416.595 0.0268803 -4.84993 0
M  V30 4472 H 412.474 1.18756 -4.45441 0
M  V30 4473 H 416.018 -1.2932 -6.85509 0
M  V30 4474 H 411.915 -0.125591 -6.45378 0
M  V30 4475 H 412.683 -1.44488 -8.05646 0
M  V30 4476 N 415.346 1.54954 0.287554 0
M  V30 4477 C 416.296 1.8322 1.357 0
M  V30 4478 C 417.28 0.690152 1.45347 0
M  V30 4479 O 418.472 0.951137 1.49273 0
M  V30 4480 C 415.601 2.09481 2.71979 0
M  V30 4481 C 414.687 3.29906 2.66502 0
M  V30 4482 N 415.078 4.50154 2.30641 0
M  V30 4483 C 413.376 3.32203 2.97585 0
M  V30 4484 C 414.077 5.32209 2.34794 0
M  V30 4485 N 413.053 4.70258 2.72688 0
M  V30 4486 H 416.855 2.73746 1.0696 0
M  V30 4487 H 414.369 1.54635 0.496167 0
M  V30 4488 H 416.366 2.27882 3.49107 0
M  V30 4489 H 415.026 1.2023 3.0162 0
M  V30 4490 H 416.037 4.76515 2.02865 0
M  V30 4491 H 412.714 2.53101 3.32034 0
M  V30 4492 H 414.104 6.38321 2.09753 0
M  V30 4493 N 416.824 -0.551391 1.4764 0
M  V30 4494 C 417.787 -1.64007 1.60107 0
M  V30 4495 C 418.787 -1.53601 0.47576 0
M  V30 4496 O 419.977 -1.57655 0.740988 0
M  V30 4497 C 417.109 -3.03569 1.55108 0
M  V30 4498 H 418.302 -1.543 2.57161 0
M  V30 4499 H 415.855 -0.771776 1.35917 0
M  V30 4500 H 416.59 -3.18804 0.594519 0
M  V30 4501 H 416.375 -3.12532 2.36783 0
M  V30 4502 H 417.865 -3.82762 1.66982 0
M  V30 4503 N 418.302 -1.35869 -0.798587 0
M  V30 4504 C 419.232 -1.32118 -1.92528 0
M  V30 4505 C 420.213 -0.194209 -1.68988 0
M  V30 4506 O 421.398 -0.390426 -1.90235 0
M  V30 4507 C 418.528 -1.10047 -3.29404 0
M  V30 4508 C 417.482 -2.19471 -3.67446 0
M  V30 4509 C 416.808 -1.82555 -5.02571 0
M  V30 4510 C 418.108 -3.61495 -3.76987 0
M  V30 4511 H 419.802 -2.26394 -1.95924 0
M  V30 4512 H 417.348 -1.08981 -0.94123 0
M  V30 4513 H 419.301 -1.06061 -4.07835 0
M  V30 4514 H 418.025 -0.122195 -3.26371 0
M  V30 4515 H 416.684 -2.22568 -2.91306 0
M  V30 4516 H 416.332 -0.833249 -4.9605 0
M  V30 4517 H 416.032 -2.5581 -5.28995 0
M  V30 4518 H 417.556 -1.80108 -5.83432 0
M  V30 4519 H 418.97 -3.60676 -4.4563 0
M  V30 4520 H 417.367 -4.33577 -4.14887 0
M  V30 4521 H 418.437 -3.97065 -2.78329 0
M  V30 4522 N 419.78 1.02168 -1.19998 0
M  V30 4523 C 421.057 1.72816 -0.916191 0
M  V30 4524 C 421.437 2.03081 0.576325 0
M  V30 4525 O 420.785 1.69122 1.53656 0
M  V30 4526 C 420.995 2.9997 -1.78378 0
M  V30 4527 C 422.343 3.73336 -2.02251 0
M  V30 4528 O 423.367 3.09914 -1.75589 0
M  V30 4529 O 422.226 4.87371 -2.47249 0
M  V30 4530 H 419.32 0.752924 -0.342103 0
M  V30 4531 H 421.866 1.08062 -1.30846 0
M  V30 4532 H 420.638 2.73888 -2.79466 0
M  V30 4533 H 420.261 3.72464 -1.39126 0
M  V30 4534 N 421.258 1.00505 1.21394 0
M  V30 4535 C 422.483 0.706367 1.95001 0
M  V30 4536 C 422.908 -0.72463 1.73582 0
M  V30 4537 O 422.266 -1.49702 1.0227 0
M  V30 4538 C 422.314 1.03299 3.45487 0
M  V30 4539 O 421.418 0.138275 4.12168 0
M  V30 4540 H 420.759 0.263175 0.609619 0
M  V30 4541 H 423.289 1.34531 1.54151 0
M  V30 4542 H 423.299 0.979872 3.96059 0
M  V30 4543 H 421.974 2.07567 3.60401 0
M  V30 4544 H 420.551 0.247928 3.72075 0
M  V30 4545 N 422.737 -1.36956 0.779787 0
M  V30 4546 C 423.647 -2.33965 0.172491 0
M  V30 4547 C 424.663 -1.60574 -0.670222 0
M  V30 4548 O 425.839 -1.92617 -0.588263 0
M  V30 4549 C 422.904 -3.39761 -0.690173 0
M  V30 4550 C 421.965 -4.28964 0.169924 0
M  V30 4551 C 421.198 -5.29707 -0.651662 0
M  V30 4552 O 421.421 -5.38238 -1.88827 0
M  V30 4553 O 420.355 -6.01873 -0.0566264 0
M  V30 4554 H 424.181 -2.87647 0.974321 0
M  V30 4555 H 421.766 -1.39258 0.541078 0
M  V30 4556 H 423.648 -4.04471 -1.1824 0
M  V30 4557 H 422.323 -2.88394 -1.47006 0
M  V30 4558 H 421.23 -3.67326 0.708696 0
M  V30 4559 H 422.563 -4.83656 0.913085 0
M  V30 4560 N 424.215 -0.530993 -1.48385 0
M  V30 4561 C 425.163 0.244595 -2.3131 0
M  V30 4562 C 426.157 0.93451 -1.41291 0
M  V30 4563 O 427.363 0.85878 -1.58193 0
M  V30 4564 H 423.738 0.0977472 -0.74562 0
M  V30 4565 H 425.709 -0.474369 -2.94605 0
M  V30 4566 C 424.458 1.2779 -3.23365 0
M  V30 4567 H 423.781 0.756439 -3.92579 0
M  V30 4568 H 425.221 1.79198 -3.84271 0
M  V30 4569 C 423.68 2.31205 -2.45042 0
M  V30 4570 O 424.21 3.37661 -2.17596 0
M  V30 4571 N 422.416 2.04446 -2.0652 0
M  V30 4572 H 421.963 1.17891 -2.2904 0
M  V30 4573 H 421.921 2.73861 -1.54427 0
M  V30 4574 N 425.693 1.55336 -0.266172 0
M  V30 4575 C 426.626 2.18256 0.666296 0
M  V30 4576 C 427.604 1.14064 1.1588 0
M  V30 4577 O 428.788 1.42546 1.23341 0
M  V30 4578 C 425.915 2.79867 1.90768 0
M  V30 4579 C 424.961 3.97283 1.55141 0
M  V30 4580 S 425.794 5.31694 0.637313 0
M  V30 4581 C 426.95 5.96769 1.88727 0
M  V30 4582 H 427.183 2.97008 0.131647 0
M  V30 4583 H 424.716 1.54317 -0.0504869 0
M  V30 4584 H 426.674 3.15996 2.62025 0
M  V30 4585 H 425.335 2.01025 2.41346 0
M  V30 4586 H 424.528 4.3905 2.4749 0
M  V30 4587 H 424.13 3.6253 0.919113 0
M  V30 4588 H 426.422 6.15458 2.83227 0
M  V30 4589 H 427.365 6.91752 1.51276 0
M  V30 4590 H 427.773 5.26034 2.04814 0
M  V30 4591 N 427.171 -0.0066808 1.57599 0
M  V30 4592 C 428.399 -0.704087 1.94551 0
M  V30 4593 C 428.814 -1.67677 0.867746 0
M  V30 4594 O 428.171 -1.8185 -0.153925 0
M  V30 4595 C 428.222 -1.44177 3.31505 0
M  V30 4596 O 427.943 -0.508097 4.35144 0
M  V30 4597 C 429.444 -2.23429 3.82876 0
M  V30 4598 H 426.664 -0.196523 0.641576 0
M  V30 4599 H 429.208 0.042453 2.04456 0
M  V30 4600 H 427.363 -2.13999 3.22929 0
M  V30 4601 H 427.777 -1.02782 5.14331 0
M  V30 4602 H 429.251 -2.70552 4.8115 0
M  V30 4603 H 429.728 -3.05818 3.15233 0
M  V30 4604 H 430.334 -1.58636 3.94607 0
M  V30 4605 N 428.649 -1.55105 -0.279332 0
M  V30 4606 C 429.596 -1.8755 -1.34513 0
M  V30 4607 C 430.566 -0.726384 -1.49375 0
M  V30 4608 O 431.751 -0.977063 -1.63884 0
M  V30 4609 C 428.891 -2.14738 -2.70151 0
M  V30 4610 C 428.004 -3.42285 -2.63562 0
M  V30 4611 C 427.139 -3.59206 -3.91337 0
M  V30 4612 C 426.178 -4.80467 -3.79233 0
M  V30 4613 N 425.315 -4.94079 -4.98829 0
M  V30 4614 H 430.155 -2.78456 -1.06143 0
M  V30 4615 H 427.692 -1.37867 -0.512936 0
M  V30 4616 H 429.65 -2.28501 -3.49061 0
M  V30 4617 H 428.28 -1.27075 -2.96735 0
M  V30 4618 H 427.332 -3.37029 -1.76397 0
M  V30 4619 H 428.644 -4.31328 -2.50515 0
M  V30 4620 H 427.798 -3.72751 -4.78687 0
M  V30 4621 H 426.537 -2.68337 -4.07243 0
M  V30 4622 H 425.542 -4.66932 -2.90266 0
M  V30 4623 H 426.767 -5.72765 -3.64852 0
M  V30 4624 H 424.713 -4.06139 -5.15158 0
M  V30 4625 H 424.63 -5.77156 -4.8829 0
M  V30 4626 H 425.898 -5.12003 -5.8777 0
M  V30 4627 N 430.127 0.543554 -1.4793 0
M  V30 4628 C 431.352 1.32995 -1.59145 0
M  V30 4629 C 431.777 1.86472 -0.246956 0
M  V30 4630 O 431.135 1.63696 0.779324 0
M  V30 4631 C 431.183 2.46623 -2.63077 0
M  V30 4632 O 430.287 3.49261 -2.19295 0
M  V30 4633 H 429.628 0.394472 -0.534124 0
M  V30 4634 H 432.158 0.655489 -1.93816 0
M  V30 4635 H 432.168 2.93001 -2.83926 0
M  V30 4636 H 430.843 2.07059 -3.60693 0
M  V30 4637 H 429.42 3.09094 -2.08603 0
M  V30 4638 N 431.605 1.3629 0.791371 0
M  V30 4639 C 432.555 1.26988 1.89362 0
M  V30 4640 C 433.539 0.161795 1.60084 0
M  V30 4641 O 434.731 0.394426 1.72549 0
M  V30 4642 C 431.86 1.05944 3.26544 0
M  V30 4643 C 430.946 2.21211 3.61838 0
M  V30 4644 N 431.337 3.46518 3.68455 0
M  V30 4645 C 429.635 2.12933 3.91887 0
M  V30 4646 C 430.336 4.2241 3.99931 0
M  V30 4647 N 429.312 3.51329 4.14812 0
M  V30 4648 H 433.114 2.21908 1.92702 0
M  V30 4649 H 430.628 1.28982 0.986787 0
M  V30 4650 H 432.625 0.973666 4.05371 0
M  V30 4651 H 431.285 0.119223 3.24481 0
M  V30 4652 H 432.296 3.80677 3.51148 0
M  V30 4653 H 428.973 1.26855 3.97761 0
M  V30 4654 H 430.363 5.30767 4.1199 0
M  V30 4655 N 433.083 -1.0153 1.20538 0
M  V30 4656 C 434.015 -2.10224 0.913155 0
M  V30 4657 C 435.028 -1.62495 -0.0995998 0
M  V30 4658 O 436.217 -1.78014 0.131582 0
M  V30 4659 C 433.317 -3.37111 0.347717 0
M  V30 4660 C 432.49 -4.13971 1.41233 0
M  V30 4661 C 431.549 -5.19158 0.857976 0
M  V30 4662 O 430.575 -5.48 1.53897 0
M  V30 4663 N 431.777 -5.7955 -0.331966 0
M  V30 4664 H 434.542 -2.35879 1.84881 0
M  V30 4665 H 432.103 -1.17931 1.10923 0
M  V30 4666 H 434.095 -4.04683 -0.0373026 0
M  V30 4667 H 432.665 -3.08696 -0.492527 0
M  V30 4668 H 431.885 -3.41351 1.97163 0
M  V30 4669 H 433.173 -4.62103 2.12928 0
M  V30 4670 H 432.571 -5.58455 -0.902478 0
M  V30 4671 H 431.128 -6.48464 -0.65861 0
M  V30 4672 N 434.561 -1.01147 -1.20859 0
M  V30 4673 C 435.509 -0.57059 -2.25493 0
M  V30 4674 C 436.503 0.388109 -1.64894 0
M  V30 4675 O 437.709 0.258592 -1.78133 0
M  V30 4676 H 434.084 -0.166191 -0.733406 0
M  V30 4677 H 436.055 -1.46411 -2.60012 0
M  V30 4678 C 434.804 0.0805241 -3.47607 0
M  V30 4679 H 434.127 -0.648156 -3.94511 0
M  V30 4680 H 435.567 0.352197 -4.22535 0
M  V30 4681 C 434.026 1.32175 -3.09889 0
M  V30 4682 O 434.556 2.41553 -3.20959 0
M  V30 4683 N 432.762 1.20392 -2.64488 0
M  V30 4684 H 432.309 0.313905 -2.5568 0
M  V30 4685 H 432.267 2.03541 -2.39621 0
M  V30 4686 N 436.039 1.36541 -0.78704 0
M  V30 4687 C 436.969 2.32659 -0.197992 0
M  V30 4688 C 437.95 1.56533 0.665697 0
M  V30 4689 O 439.135 1.84698 0.60001 0
M  V30 4690 C 436.265 3.40778 0.669901 0
M  V30 4691 C 435.219 4.27897 -0.0937039 0
M  V30 4692 C 434.545 5.27163 0.894629 0
M  V30 4693 C 435.845 5.06334 -1.28154 0
M  V30 4694 H 437.539 2.82171 -1.00099 0
M  V30 4695 H 435.085 1.35665 -0.482793 0
M  V30 4696 H 437.038 4.07008 1.09191 0
M  V30 4697 H 435.762 2.89827 1.50558 0
M  V30 4698 H 434.421 3.6322 -0.49666 0
M  V30 4699 H 434.069 4.72486 1.72527 0
M  V30 4700 H 433.769 5.86317 0.388149 0
M  V30 4701 H 435.293 5.96266 1.31525 0
M  V30 4702 H 436.707 5.65617 -0.93541 0
M  V30 4703 H 435.104 5.74888 -1.72115 0
M  V30 4704 H 436.174 4.38114 -2.07807 0
M  V30 4705 N 437.518 0.538854 1.48102 0
M  V30 4706 C 438.758 0.0101209 2.04397 0
M  V30 4707 C 439.122 -1.30741 1.40609 0
M  V30 4708 O 440.323 -1.92272 1.87843 0
M  V30 4709 C 438.594 -0.100232 3.57259 0
M  V30 4710 S 440.153 -0.577746 4.3498 0
M  V30 4711 H 436.971 0.0163171 0.710813 0
M  V30 4712 H 439.573 0.721429 1.81702 0
M  V30 4713 H 438.277 0.863351 4.01216 0
M  V30 4714 H 437.808 -0.835651 3.84422 0
M  V30 4715 H 439.823 -1.84073 4.60794 0
M  V30 4716 N 438.996 -1.55193 0.274407 0
M  V30 4717 C 440.224 -2.03987 -0.345943 0
M  V30 4718 C 440.639 -1.15279 -1.4952 0
M  V30 4719 O 439.996 -0.172759 -1.8168 0
M  V30 4720 C 440.047 -3.51898 -0.827631 0
M  V30 4721 O 439.768 -4.37231 0.275855 0
M  V30 4722 C 441.269 -4.16577 -1.51587 0
M  V30 4723 H 438.489 -0.666335 -0.0789892 0
M  V30 4724 H 441.033 -2.00423 0.406294 0
M  V30 4725 H 439.188 -3.55909 -1.52996 0
M  V30 4726 H 439.602 -5.24415 -0.0943638 0
M  V30 4727 H 441.076 -5.21678 -1.80433 0
M  V30 4728 H 441.553 -3.64707 -2.44716 0
M  V30 4729 H 442.159 -4.16568 -0.857409 0
M  V30 4730 N 440.474 -0.00167713 -1.576 0
M  V30 4731 C 441.421 0.989195 -2.08527 0
M  V30 4732 C 442.391 1.34031 -0.981065 0
M  V30 4733 O 443.576 1.43839 -1.2536 0
M  V30 4734 C 440.716 2.27537 -2.59463 0
M  V30 4735 C 439.829 1.98314 -3.83791 0
M  V30 4736 C 438.964 3.21025 -4.23222 0
M  V30 4737 C 438.003 2.87495 -5.40382 0
M  V30 4738 N 437.14 4.02749 -5.75098 0
M  V30 4739 H 441.98 0.547973 -2.92919 0
M  V30 4740 H 439.517 0.258917 -1.44803 0
M  V30 4741 H 441.475 3.02729 -2.87073 0
M  V30 4742 H 440.105 2.69325 -1.77943 0
M  V30 4743 H 439.157 1.13482 -3.63078 0
M  V30 4744 H 440.469 1.69601 -4.69081 0
M  V30 4745 H 439.623 4.04561 -4.52123 0
M  V30 4746 H 438.362 3.52877 -3.36644 0
M  V30 4747 H 437.367 2.02367 -5.11202 0
M  V30 4748 H 438.592 2.56889 -6.28637 0
M  V30 4749 H 436.538 4.34494 -4.91478 0
M  V30 4750 H 436.455 3.77566 -6.54966 0
M  V30 4751 H 437.723 4.87068 -6.08592 0
M  V30 4752 N 441.952 1.55251 0.271103 0
M  V30 4753 C 443.2 1.75599 1.00047 0
M  V30 4754 C 443.521 0.561188 1.8675 0
M  V30 4755 O 442.791 -0.423846 1.9126 0
M  V30 4756 H 441.371 0.647562 0.372387 0
M  V30 4757 H 444.033 1.92656 0.294876 0
M  V30 4758 H 443.129 2.65766 1.6363 0
M  V30 4759 N 443.43 -0.535701 1.48216 0
M  V30 4760 C 444.362 -1.65662 1.58394 0
M  V30 4761 C 445.375 -1.5591 0.468607 0
M  V30 4762 O 446.564 -1.62475 0.7392 0
M  V30 4763 C 443.664 -3.04276 1.4923 0
M  V30 4764 C 442.837 -3.39567 2.75705 0
M  V30 4765 C 441.896 -4.57436 2.60075 0
M  V30 4766 O 440.922 -4.60942 3.33948 0
M  V30 4767 N 442.124 -5.55259 1.69315 0
M  V30 4768 H 444.889 -1.5737 2.55058 0
M  V30 4769 H 442.45 -0.722845 1.44867 0
M  V30 4770 H 444.442 -3.80994 1.36477 0
M  V30 4771 H 443.012 -3.06677 0.605632 0
M  V30 4772 H 442.232 -2.52083 3.03064 0
M  V30 4773 H 443.52 -3.59929 3.59623 0
M  V30 4774 H 442.918 -5.552 1.08489 0
M  V30 4775 H 441.475 -6.31218 1.62504 0
M  V30 4776 N 444.908 -1.36708 -0.784132 0
M  V30 4777 C 446.154 -1.31426 -1.54451 0
M  V30 4778 C 446.487 0.10476 -1.93917 0
M  V30 4779 O 445.762 1.05934 -1.6312 0
M  V30 4780 C 446.045 -2.24189 -2.818 0
M  V30 4781 C 445.898 -3.74813 -2.48667 0
M  V30 4782 C 447.217 -2.15626 -3.83658 0
M  V30 4783 H 444.336 -0.478739 -0.560337 0
M  V30 4784 H 446.978 -1.67305 -0.900498 0
M  V30 4785 H 445.128 -1.93722 -3.36755 0
M  V30 4786 H 446.8 -4.15823 -1.99722 0
M  V30 4787 H 445.043 -3.93989 -1.81535 0
M  V30 4788 H 445.714 -4.35138 -3.39646 0
M  V30 4789 H 448.19 -2.42456 -3.38163 0
M  V30 4790 H 447.066 -2.82694 -4.70506 0
M  V30 4791 H 447.327 -1.14522 -4.27009 0
M  V30 4792 N 446.386 1.0089 -1.21074 0
M  V30 4793 C 447.632 1.74866 -1.02712 0
M  V30 4794 C 447.965 1.89178 0.438787 0
M  V30 4795 O 447.24 1.42325 1.32567 0
M  V30 4796 C 447.523 3.16347 -1.72036 0
M  V30 4797 C 447.376 3.09782 -3.26121 0
M  V30 4798 C 448.695 4.15187 -1.45973 0
M  V30 4799 H 445.814 0.634736 -0.374539 0
M  V30 4800 H 448.456 1.17646 -1.49196 0
M  V30 4801 H 446.606 3.65201 -1.32517 0
M  V30 4802 H 448.278 2.68673 -3.74983 0
M  V30 4803 H 446.521 2.46982 -3.56626 0
M  V30 4804 H 447.192 4.09829 -3.6979 0
M  V30 4805 H 449.668 3.75022 -1.80272 0
M  V30 4806 H 448.544 5.12331 -1.96999 0
M  V30 4807 H 448.805 4.40386 -0.388924 0
M  V30 4808 N 447.864 1.01787 1.20321 0
M  V30 4809 C 449.089 0.727009 1.9424 0
M  V30 4810 C 449.514 -0.706179 1.74341 0
M  V30 4811 O 448.872 -1.48609 1.03852 0
M  V30 4812 C 448.92 1.06958 3.44372 0
M  V30 4813 O 448.024 0.181983 4.11998 0
M  V30 4814 H 447.365 0.269626 0.606793 0
M  V30 4815 H 449.895 1.36158 1.52716 0
M  V30 4816 H 449.905 1.02182 3.94997 0
M  V30 4817 H 448.58 2.11378 3.58179 0
M  V30 4818 H 447.157 0.287378 3.71791 0
M  V30 4819 N 449.342 -1.36122 0.79427 0
M  V30 4820 C 450.59 -1.98718 0.368177 0
M  V30 4821 C 450.911 -1.63345 -1.06506 0
M  V30 4822 O 450.181 -0.909825 -1.73491 0
M  V30 4823 H 448.761 -0.735038 0.133146 0
M  V30 4824 H 451.423 -1.66239 1.01739 0
M  V30 4825 H 450.519 -3.08633 0.463923 0
M  V30 4826 N 450.82 -0.546701 -1.47814 0
M  V30 4827 C 451.752 0.244196 -2.27895 0
M  V30 4828 C 452.765 0.88911 -1.36377 0
M  V30 4829 O 453.954 0.764733 -1.61289 0
M  V30 4830 C 451.054 1.36252 -3.10304 0
M  V30 4831 C 450.227 0.816382 -4.29714 0
M  V30 4832 C 449.286 1.81789 -4.93801 0
M  V30 4833 O 448.312 1.36818 -5.52512 0
M  V30 4834 N 449.514 3.15085 -4.87547 0
M  V30 4835 H 452.279 -0.442694 -2.96412 0
M  V30 4836 H 449.84 -0.382095 -1.57327 0
M  V30 4837 H 451.832 2.03102 -3.50045 0
M  V30 4838 H 450.402 1.95281 -2.44099 0
M  V30 4839 H 449.622 -0.0285981 -3.9419 0
M  V30 4840 H 450.91 0.430668 -5.06974 0
M  V30 4841 H 450.308 3.54275 -4.41028 0
M  V30 4842 H 448.865 3.77522 -5.31339 0
M  V30 4843 N 452.299 1.55045 -0.282633 0
M  V30 4844 C 453.529 2.03872 0.334635 0
M  V30 4845 C 453.937 1.16018 1.49454 0
M  V30 4846 O 453.28 0.174449 1.8287 0
M  V30 4847 C 453.342 3.48791 0.870905 0
M  V30 4848 C 453.006 4.56715 -0.161338 0
M  V30 4849 C 454.003 5.10513 -0.983466 0
M  V30 4850 C 451.688 5.01417 -0.297745 0
M  V30 4851 C 453.682 6.07538 -1.92811 0
M  V30 4852 C 451.369 5.98265 -1.24586 0
M  V30 4853 C 452.367 6.51208 -2.05954 0
M  V30 4854 O 452.055 7.46162 -2.99162 0
M  V30 4855 H 451.787 0.671324 0.0793742 0
M  V30 4856 H 454.341 2.01169 -0.41473 0
M  V30 4857 H 452.571 3.48758 1.67047 0
M  V30 4858 H 454.26 3.80916 1.40207 0
M  V30 4859 H 455.026 4.76785 -0.888856 0
M  V30 4860 H 450.905 4.59849 0.325604 0
M  V30 4861 H 454.449 6.48787 -2.56363 0
M  V30 4862 H 450.346 6.31412 -1.34126 0
M  V30 4863 H 451.114 7.63903 -2.93929 0
M  V30 4864 N 453.777 0.010035 1.57597 0
M  V30 4865 C 455.193 -0.346164 1.55801 0
M  V30 4866 C 455.393 -1.74144 1.01371 0
M  V30 4867 O 454.449 -2.43938 0.651968 0
M  V30 4868 C 455.762 -0.212216 2.9995 0
M  V30 4869 C 457.31 -0.286409 3.11687 0
M  V30 4870 C 457.785 -0.18147 4.5764 0
M  V30 4871 N 459.276 -0.239056 4.62583 0
M  V30 4872 C 460.011 -0.181351 5.73113 0
M  V30 4873 N 459.507 -0.073661 6.92761 0
M  V30 4874 N 461.3 -0.233949 5.61613 0
M  V30 4875 H 453.451 0.922657 1.91313 0
M  V30 4876 H 455.714 0.354595 0.879185 0
M  V30 4877 H 455.42 0.748169 3.4365 0
M  V30 4878 H 455.294 -0.990224 3.6397 0
M  V30 4879 H 457.681 -1.23724 2.67911 0
M  V30 4880 H 457.762 0.521645 2.50425 0
M  V30 4881 H 457.406 0.765863 5.02093 0
M  V30 4882 H 457.336 -1.00814 5.1686 0
M  V30 4883 H 459.827 -0.32321 3.76515 0
M  V30 4884 H 460.14 -0.0358003 7.72792 0
M  V30 4885 H 458.485 -0.0391461 6.94989 0
M  V30 4886 H 461.676 -0.316347 4.6703 0
M  V30 4887 H 461.849 -0.185514 6.47734 0
M  V30 4888 N 455.255 -1.55392 -0.262866 0
M  V30 4889 C 456.188 -1.8391 -1.35101 0
M  V30 4890 C 457.166 -0.692901 -1.47097 0
M  V30 4891 O 458.35 -0.936979 -1.63563 0
M  V30 4892 C 455.477 -2.00969 -2.72634 0
M  V30 4893 C 454.523 -3.23559 -2.7787 0
M  V30 4894 S 455.356 -4.80647 -2.3609 0
M  V30 4895 C 456.512 -5.00692 -3.75578 0
M  V30 4896 H 456.745 -2.75918 -1.1071 0
M  V30 4897 H 454.278 -1.47294 -0.463029 0
M  V30 4898 H 456.236 -2.11482 -3.51832 0
M  V30 4899 H 454.897 -1.09832 -2.94272 0
M  V30 4900 H 454.09 -3.32413 -3.78837 0
M  V30 4901 H 453.692 -3.11689 -2.06702 0
M  V30 4902 H 455.984 -4.87055 -4.70939 0
M  V30 4903 H 456.927 -6.02717 -3.71669 0
M  V30 4904 H 457.335 -4.28619 -3.6735 0
M  V30 4905 N 456.733 0.527833 -1.48498 0
M  V30 4906 C 457.663 1.64136 -1.66077 0
M  V30 4907 C 458.644 1.62286 -0.509625 0
M  V30 4908 O 459.829 1.79449 -0.742413 0
M  V30 4909 C 456.959 3.02717 -1.70234 0
M  V30 4910 C 455.913 3.19426 -2.8487 0
M  V30 4911 C 455.239 4.5909 -2.74118 0
M  V30 4912 C 456.539 3.01993 -4.26142 0
M  V30 4913 H 458.233 1.4968 -2.593 0
M  V30 4914 H 455.779 0.718654 -1.24785 0
M  V30 4915 H 457.732 3.80491 -1.8112 0
M  V30 4916 H 456.456 3.18201 -0.735911 0
M  V30 4917 H 455.115 2.4407 -2.73542 0
M  V30 4918 H 454.763 4.71413 -1.7544 0
M  V30 4919 H 454.463 4.71214 -3.51042 0
M  V30 4920 H 455.987 5.3896 -2.86974 0
M  V30 4921 H 457.401 3.69558 -4.38292 0
M  V30 4922 H 455.798 3.2561 -5.04082 0
M  V30 4923 H 456.868 1.98396 -4.42456 0
M  V30 4924 N 458.211 1.37122 0.776871 0
M  V30 4925 C 459.174 1.32301 1.8716 0
M  V30 4926 C 460.174 0.228099 1.59174 0
M  V30 4927 O 461.364 0.483642 1.67352 0
M  V30 4928 C 458.496 1.054 3.24197 0
M  V30 4929 H 459.689 2.29673 1.92848 0
M  V30 4930 H 457.242 1.22077 0.97606 0
M  V30 4931 H 457.977 0.0853872 3.24188 0
M  V30 4932 H 457.762 1.84648 3.45901 0
M  V30 4933 H 459.252 1.04664 4.04271 0
M  V30 4934 N 459.689 -1.00246 1.21608 0
M  V30 4935 C 460.636 -2.09073 0.977613 0
M  V30 4936 C 461.606 -1.65815 -0.097297 0
M  V30 4937 O 462.791 -1.90734 0.0503445 0
M  V30 4938 C 459.931 -3.40671 0.551133 0
M  V30 4939 C 459.044 -3.97326 1.69576 0
M  V30 4940 C 458.179 -5.17043 1.2182 0
M  V30 4941 C 457.218 -5.65813 2.335 0
M  V30 4942 N 456.355 -6.76778 1.86859 0
M  V30 4943 H 461.195 -2.28806 1.90924 0
M  V30 4944 H 458.732 -1.12186 0.951452 0
M  V30 4945 H 460.69 -4.16225 0.285097 0
M  V30 4946 H 459.32 -3.20967 -0.343489 0
M  V30 4947 H 458.372 -3.18734 2.07637 0
M  V30 4948 H 459.684 -4.29511 2.53617 0
M  V30 4949 H 458.838 -5.99852 0.908975 0
M  V30 4950 H 457.577 -4.86458 0.347869 0
M  V30 4951 H 456.582 -4.81599 2.65222 0
M  V30 4952 H 457.807 -5.98427 3.21033 0
M  V30 4953 H 455.753 -6.47994 1.02174 0
M  V30 4954 H 455.67 -7.08231 2.64471 0
M  V30 4955 H 456.938 -7.63116 1.58978 0
M  V30 4956 N 461.167 -1.02423 -1.1978 0
M  V30 4957 C 462.117 -0.571689 -2.20716 0
M  V30 4958 C 463.101 0.377077 -1.56419 0
M  V30 4959 O 464.293 0.198801 -1.7588 0
M  V30 4960 C 461.422 0.0808555 -3.43205 0
M  V30 4961 C 460.508 -0.890073 -4.14655 0
M  V30 4962 N 460.899 -2.05065 -4.62366 0
M  V30 4963 C 459.197 -0.71252 -4.40272 0
M  V30 4964 C 459.898 -2.66264 -5.17183 0
M  V30 4965 N 458.874 -1.94264 -5.07703 0
M  V30 4966 H 462.676 -1.45636 -2.55279 0
M  V30 4967 H 460.19 -0.890596 -1.35802 0
M  V30 4968 H 462.187 0.422654 -4.14752 0
M  V30 4969 H 460.847 0.961274 -3.10144 0
M  V30 4970 H 461.858 -2.43026 -4.57339 0
M  V30 4971 H 458.535 0.119199 -4.1733 0
M  V30 4972 H 459.925 -3.64526 -5.64421 0
M  V30 4973 N 462.645 1.35699 -0.801477 0
M  V30 4974 C 463.893 1.9852 -0.37871 0
M  V30 4975 C 464.214 1.63907 1.05638 0
M  V30 4976 O 463.484 0.919013 1.73006 0
M  V30 4977 H 462.064 0.734322 -0.137042 0
M  V30 4978 H 464.726 1.65697 -1.02619 0
M  V30 4979 H 463.822 3.08382 -0.480284 0
M  V30 4980 N 464.123 0.554532 1.47522 0
M  V30 4981 C 465.371 0.0294208 2.02079 0
M  V30 4982 C 465.692 -1.32411 1.43151 0
M  V30 4983 O 464.962 -1.863 0.605728 0
M  V30 4984 H 463.542 0.00788672 0.746958 0
M  V30 4985 H 466.204 0.723934 1.80956 0
M  V30 4986 H 465.3 -0.0606745 3.12041 0
M  V30 4987 N 465.601 -1.54893 0.290851 0
M  V30 4988 C 466.831 -2.04047 -0.323818 0
M  V30 4989 C 467.239 -1.16809 -1.48837 0
M  V30 4990 O 466.582 -0.184145 -1.82775 0
M  V30 4991 C 466.644 -3.49248 -0.852395 0
M  V30 4992 C 466.308 -4.56623 0.185557 0
M  V30 4993 C 467.305 -5.09985 1.01053 0
M  V30 4994 C 464.99 -5.01252 0.324332 0
M  V30 4995 C 466.984 -6.06507 1.96031 0
M  V30 4996 C 464.671 -5.97596 1.27757 0
M  V30 4997 C 465.669 -6.50107 2.09405 0
M  V30 4998 O 465.357 -7.44565 3.03114 0
M  V30 4999 H 465.089 -0.671735 -0.0758129 0
M  V30 5000 H 467.643 -2.00947 0.425393 0
M  V30 5001 H 465.873 -3.49639 -1.65195 0
M  V30 5002 H 467.562 -3.81654 -1.38185 0
M  V30 5003 H 468.328 -4.76307 0.914129 0
M  V30 5004 H 464.207 -4.60015 -0.301213 0
M  V30 5005 H 467.751 -6.47418 2.598 0
M  V30 5006 H 463.648 -6.30691 1.37473 0
M  V30 5007 H 464.416 -7.62334 2.97976 0
M  V30 5008 N 467.08 -0.0183926 -1.57589 0
M  V30 5009 C 468.326 0.663543 -1.91638 0
M  V30 5010 C 468.659 1.72392 -0.894134 0
M  V30 5011 O 467.934 1.94316 0.0846449 0
M  V30 5012 C 468.217 1.28984 -3.36207 0
M  V30 5013 C 468.07 0.239761 -4.49161 0
M  V30 5014 C 469.389 2.2109 -3.80536 0
M  V30 5015 H 466.508 0.239746 -0.696915 0
M  V30 5016 H 469.15 -0.073456 -1.89858 0
M  V30 5017 H 467.3 1.91799 -3.37854 0
M  V30 5018 H 468.972 -0.390119 -4.59647 0
M  V30 5019 H 467.215 -0.435972 -4.31604 0
M  V30 5020 H 467.886 0.717383 -5.47319 0
M  V30 5021 H 470.362 1.68273 -3.80557 0
M  V30 5022 H 469.238 2.61869 -4.82406 0
M  V30 5023 H 469.499 3.09764 -3.15434 0
M  V30 5024 N 468.558 1.5553 0.254621 0
M  V30 5025 C 469.804 1.7818 0.980989 0
M  V30 5026 C 470.159 0.586059 1.83257 0
M  V30 5027 O 469.452 -0.420889 1.8692 0
M  V30 5028 C 469.646 3.03891 1.88109 0
M  V30 5029 C 469.475 4.35578 1.11812 0
M  V30 5030 C 468.245 4.98497 0.826343 0
M  V30 5031 C 470.443 5.11869 0.499486 0
M  V30 5032 N 468.425 6.13888 0.0385095 0
M  V30 5033 C 469.796 6.1981 -0.153292 0
M  V30 5034 C 471.851 4.96216 0.409175 0
M  V30 5035 C 470.554 7.13801 -0.8877 0
M  V30 5036 C 472.58 5.90578 -0.311683 0
M  V30 5037 C 471.942 6.97922 -0.953129 0
M  V30 5038 H 468.041 0.704057 0.340335 0
M  V30 5039 H 470.625 1.93025 0.254855 0
M  V30 5040 H 468.796 2.90389 2.57932 0
M  V30 5041 H 470.528 3.14869 2.54244 0
M  V30 5042 H 467.283 4.59769 1.13621 0
M  V30 5043 H 467.707 6.76129 -0.343275 0
M  V30 5044 H 472.349 4.1331 0.890765 0
M  V30 5045 H 470.067 7.96214 -1.38092 0
M  V30 5046 H 473.653 5.80544 -0.382125 0
M  V30 5047 H 472.533 7.69681 -1.50203 0
M  V30 5048 N 470.036 -0.519951 1.48776 0
M  V30 5049 C 470.966 -1.63253 1.66945 0
M  V30 5050 C 471.947 -1.62014 0.518224 0
M  V30 5051 O 473.132 -1.79053 0.751919 0
M  V30 5052 C 470.262 -3.0181 1.71836 0
M  V30 5053 C 469.216 -3.17911 2.8656 0
M  V30 5054 C 468.542 -4.5763 2.76548 0
M  V30 5055 C 469.842 -2.99729 4.27738 0
M  V30 5056 H 471.536 -1.48302 2.6009 0
M  V30 5057 H 469.082 -0.712026 1.25165 0
M  V30 5058 H 471.035 -3.79525 1.83135 0
M  V30 5059 H 469.759 -3.17806 0.752775 0
M  V30 5060 H 468.418 -2.42616 2.74833 0
M  V30 5061 H 468.066 -4.70476 1.77937 0
M  V30 5062 H 467.766 -4.69346 3.53536 0
M  V30 5063 H 469.29 -5.37431 2.89828 0
M  V30 5064 H 470.704 -3.67228 4.40246 0
M  V30 5065 H 469.101 -3.22932 5.05801 0
M  V30 5066 H 470.171 -1.96047 4.43502 0
M  V30 5067 N 471.514 -1.37532 -0.769588 0
M  V30 5068 C 472.424 -1.35668 -1.91393 0
M  V30 5069 C 473.44 -0.255954 -1.72107 0
M  V30 5070 O 474.616 -0.491704 -1.95305 0
M  V30 5071 C 471.681 -1.16481 -3.26547 0
M  V30 5072 C 470.742 -2.36212 -3.58472 0
M  V30 5073 C 469.975 -2.17932 -4.87177 0
M  V30 5074 O 470.198 -1.1647 -5.58382 0
M  V30 5075 O 469.132 -3.06167 -5.18214 0
M  V30 5076 H 472.958 -2.32055 -1.95918 0
M  V30 5077 H 470.543 -1.18284 -0.912641 0
M  V30 5078 H 472.425 -1.07778 -4.07384 0
M  V30 5079 H 471.1 -0.231687 -3.2287 0
M  V30 5080 H 470.007 -2.50488 -2.77861 0
M  V30 5081 H 471.34 -3.281 -3.66894 0
M  V30 5082 N 472.992 0.995999 -1.22138 0
M  V30 5083 C 474.22 1.77066 -1.07029 0
M  V30 5084 C 474.635 1.8495 0.379357 0
M  V30 5085 O 473.992 1.3174 1.26297 0
M  V30 5086 C 474.043 3.20533 -1.67155 0
M  V30 5087 O 473.764 3.13082 -3.06449 0
M  V30 5088 C 475.265 4.14461 -1.5728 0
M  V30 5089 H 472.485 0.556179 -0.375374 0
M  V30 5090 H 475.029 1.25238 -1.61666 0
M  V30 5091 H 473.184 3.6944 -1.16589 0
M  V30 5092 H 473.598 4.03283 -3.35355 0
M  V30 5093 H 475.072 5.1289 -2.04078 0
M  V30 5094 H 475.549 4.36005 -0.528795 0
M  V30 5095 H 476.155 3.71449 -2.07136 0
M  V30 5096 N 474.47 1.03057 1.19235 0
M  V30 5097 C 475.402 0.570932 2.21975 0
M  V30 5098 C 476.415 -0.354088 1.58903 0
M  V30 5099 O 477.604 -0.150211 1.77867 0
M  V30 5100 C 474.704 -0.187152 3.38383 0
M  V30 5101 C 473.877 0.743231 4.31039 0
M  V30 5102 C 472.936 0.0302493 5.26191 0
M  V30 5103 O 471.962 0.657371 5.65391 0
M  V30 5104 N 473.164 -1.23991 5.67104 0
M  V30 5105 H 475.929 1.45456 2.62036 0
M  V30 5106 H 473.49 0.909807 1.33918 0
M  V30 5107 H 475.482 -0.673715 3.99053 0
M  V30 5108 H 474.052 -0.972205 2.97098 0
M  V30 5109 H 473.272 1.40985 3.68126 0
M  V30 5110 H 474.56 1.3755 4.89854 0
M  V30 5111 H 473.958 -1.77011 5.37293 0
M  V30 5112 H 472.515 -1.67093 6.30018 0
M  V30 5113 N 475.948 -1.35272 0.808662 0
M  V30 5114 C 477.196 -1.98316 0.389233 0
M  V30 5115 C 477.517 -1.64465 -1.04767 0
M  V30 5116 O 476.787 -0.928175 -1.72516 0
M  V30 5117 H 475.367 -0.733585 0.140935 0
M  V30 5118 H 478.029 -1.6515 1.03496 0
M  V30 5119 H 477.125 -3.08123 0.496631 0
M  V30 5120 N 477.426 -0.562348 -1.47226 0
M  V30 5121 C 478.654 -0.0452275 -2.06851 0
M  V30 5122 C 479.069 1.25078 -1.41424 0
M  V30 5123 O 478.426 1.75156 -0.512513 0
M  V30 5124 C 478.477 0.148674 -3.61194 0
M  V30 5125 O 478.198 -1.09602 -4.24169 0
M  V30 5126 C 479.699 0.702488 -4.37699 0
M  V30 5127 H 476.919 -0.0481775 -0.669268 0
M  V30 5128 H 479.463 -0.777223 -1.89155 0
M  V30 5129 H 477.618 0.830817 -3.78386 0
M  V30 5130 H 478.032 -0.896982 -5.16773 0
M  V30 5131 H 479.506 0.78743 -5.46355 0
M  V30 5132 H 479.983 1.71493 -4.04335 0
M  V30 5133 H 480.589 0.0558772 -4.25263 0
M  V30 5134 N 478.904 1.54736 -0.299062 0
M  V30 5135 C 480.15 2.00397 0.311244 0
M  V30 5136 C 480.483 1.18716 1.53688 0
M  V30 5137 O 479.758 0.263154 1.92712 0
M  V30 5138 C 480.041 3.53817 0.669761 0
M  V30 5139 C 479.894 4.46239 -0.564882 0
M  V30 5140 C 481.213 4.13856 1.49702 0
M  V30 5141 H 478.332 0.728493 0.111653 0
M  V30 5142 H 480.974 1.85506 -0.410774 0
M  V30 5143 H 479.124 3.66637 1.28491 0
M  V30 5144 H 480.796 4.45328 -1.20337 0
M  V30 5145 H 479.039 4.16916 -1.19849 0
M  V30 5146 H 479.71 5.5134 -0.269918 0
M  V30 5147 H 482.186 4.04461 0.977284 0
M  V30 5148 H 481.062 5.21365 1.71666 0
M  V30 5149 H 481.323 3.65608 2.48563 0
M  V30 5150 N 480.382 0.0267497 1.57577 0
M  V30 5151 C 481.631 -0.651736 1.9088 0
M  V30 5152 C 481.944 -1.73427 0.904576 0
M  V30 5153 O 483.15 -2.46923 1.12877 0
M  V30 5154 C 481.606 -1.21048 3.38933 0
M  V30 5155 C 481.214 -0.161362 4.47709 0
M  V30 5156 C 482.958 -1.86562 3.81307 0
M  V30 5157 C 480.865 -0.731611 5.86857 0
M  V30 5158 H 479.795 -0.247198 0.712326 0
M  V30 5159 H 482.446 0.0916641 1.83271 0
M  V30 5160 H 480.828 -2.00542 3.41466 0
M  V30 5161 H 482.002 0.61094 4.56732 0
M  V30 5162 H 480.317 0.394877 4.14523 0
M  V30 5163 H 482.914 -2.30178 4.8262 0
M  V30 5164 H 483.257 -2.70735 3.16241 0
M  V30 5165 H 483.79 -1.13762 3.81186 0
M  V30 5166 H 480.529 0.0719329 6.55461 0
M  V30 5167 H 480.049 -1.47245 5.81445 0
M  V30 5168 H 481.728 -1.22208 6.35354 0
M  V30 5169 N 481.861 -1.55662 -0.24637 0
M  V30 5170 C 483.091 -1.81312 -0.990438 0
M  V30 5171 C 483.499 -0.600234 -1.79426 0
M  V30 5172 O 482.842 0.440537 -1.78339 0
M  V30 5173 C 482.904 -3.0032 -1.97607 0
M  V30 5174 C 482.568 -4.36322 -1.35912 0
M  V30 5175 C 483.565 -5.14295 -0.761348 0
M  V30 5176 C 481.25 -4.83019 -1.37833 0
M  V30 5177 C 483.244 -6.37114 -0.190998 0
M  V30 5178 C 480.931 -6.05786 -0.804128 0
M  V30 5179 C 481.929 -6.82672 -0.211489 0
M  V30 5180 O 481.617 -8.03121 0.353845 0
M  V30 5181 H 481.349 -0.607233 -0.297058 0
M  V30 5182 H 483.903 -2.0356 -0.274351 0
M  V30 5183 H 482.133 -2.73829 -2.73047 0
M  V30 5184 H 483.822 -3.13057 -2.58361 0
M  V30 5185 H 484.588 -4.79337 -0.739013 0
M  V30 5186 H 480.467 -4.23165 -1.829 0
M  V30 5187 H 484.011 -6.97069 0.272206 0
M  V30 5188 H 479.908 -6.40222 -0.823792 0
M  V30 5189 H 480.676 -8.18131 0.245761 0
M  V30 5190 N 483.339 0.512053 -1.4905 0
M  V30 5191 C 484.287 1.63568 -1.65373 0
M  V30 5192 C 485.281 1.61228 -0.519806 0
M  V30 5193 O 486.487 1.65869 -0.699101 0
M  V30 5194 H 482.862 0.542019 -0.521267 0
M  V30 5195 H 484.833 1.4695 -2.59708 0
M  V30 5196 C 483.582 3.01761 -1.7273 0
M  V30 5197 H 482.905 3.04263 -2.59353 0
M  V30 5198 H 484.345 3.79948 -1.8819 0
M  V30 5199 C 482.804 3.33609 -0.46973 0
M  V30 5200 O 483.334 3.99607 0.409492 0
M  V30 5201 N 481.54 2.88651 -0.336003 0
M  V30 5202 H 481.087 2.35119 -1.05247 0
M  V30 5203 H 481.045 3.10328 0.504363 0
M  V30 5204 N 484.817 1.37938 0.762283 0
M  V30 5205 C 486.228 1.30094 1.33912 0
M  V30 5206 C 486.579 -0.0472026 1.96143 0
M  V30 5207 O 485.704 -0.94917 1.94473 0
M  V30 5208 C 486.299 2.35592 2.43478 0
M  V30 5209 C 484.858 2.31353 2.96905 0
M  V30 5210 C 484.005 2.18919 1.70205 0
M  V30 5211 H 486.956 1.48423 0.561816 0
M  V30 5212 H 486.977 2.00806 3.23199 0
M  V30 5213 H 486.489 3.33701 1.98155 0
M  V30 5214 H 484.59 1.36799 3.46579 0
M  V30 5215 H 484.703 3.25147 3.51875 0
M  V30 5216 H 483.067 1.65624 1.93496 0
M  V30 5217 H 483.85 3.18956 1.26973 0
M  V30 5218 N 486.295 -0.989507 1.22664 0
M  V30 5219 C 487.711 -1.25395 0.987331 0
M  V30 5220 C 487.911 -1.9899 -0.317056 0
M  V30 5221 O 486.967 -2.30141 -1.03882 0
M  V30 5222 C 488.28 -2.06242 2.18826 0
M  V30 5223 C 489.828 -2.19413 2.23219 0
M  V30 5224 C 490.303 -3.03648 3.42873 0
M  V30 5225 N 491.794 -3.11234 3.43056 0
M  V30 5226 C 492.529 -3.7671 4.32293 0
M  V30 5227 N 492.025 -4.44085 5.31752 0
M  V30 5228 N 493.818 -3.73505 4.2006 0
M  V30 5229 H 485.969 -0.496212 2.06522 0
M  V30 5230 H 488.232 -0.281784 0.905153 0
M  V30 5231 H 487.938 -1.59531 3.13437 0
M  V30 5232 H 487.812 -3.06996 2.19165 0
M  V30 5233 H 490.199 -2.65336 1.29154 0
M  V30 5234 H 490.28 -1.18078 2.26917 0
M  V30 5235 H 489.924 -2.58424 4.37241 0
M  V30 5236 H 489.854 -4.05132 3.36416 0
M  V30 5237 H 492.345 -2.63287 2.71088 0
M  V30 5238 H 492.658 -4.91797 5.96117 0
M  V30 5239 H 491.003 -4.42822 5.35662 0
M  V30 5240 H 494.194 -3.20033 3.41609 0
M  V30 5241 H 494.367 -4.24253 4.8981 0
M  V30 5242 N 487.773 -1.03688 -1.18687 0
M  V30 5243 C 488.721 -0.618292 -2.24232 0
M  V30 5244 C 489.715 0.353045 -1.6568 0
M  V30 5245 O 490.921 0.220749 -1.78641 0
M  V30 5246 H 487.296 -0.181711 -0.729716 0
M  V30 5247 H 489.267 -1.51893 -2.56848 0
M  V30 5248 C 488.016 0.00677342 -3.47699 0
M  V30 5249 H 487.339 -0.731692 -3.93047 0
M  V30 5250 H 488.779 0.262492 -4.23187 0
M  V30 5251 C 487.238 1.25572 -3.12623 0
M  V30 5252 O 487.768 2.34691 -3.26011 0
M  V30 5253 N 485.974 1.14755 -2.66982 0
M  V30 5254 H 485.521 0.259601 -2.56289 0
M  V30 5255 H 485.479 1.98412 -2.43885 0
M  V30 5256 N 489.251 1.34841 -0.815825 0
M  V30 5257 C 490.181 2.32187 -0.247298 0
M  V30 5258 C 491.162 1.5791 0.632344 0
M  V30 5259 O 492.347 1.8593 0.560698 0
M  V30 5260 C 489.477 3.42122 0.597466 0
M  V30 5261 C 488.431 4.27602 -0.184446 0
M  V30 5262 C 487.757 5.28942 0.782609 0
M  V30 5263 C 489.057 5.03502 -1.38865 0
M  V30 5264 H 490.751 2.79985 -1.06061 0
M  V30 5265 H 488.297 1.34611 -0.511461 0
M  V30 5266 H 490.25 4.09232 1.00533 0
M  V30 5267 H 488.974 2.92956 1.44376 0
M  V30 5268 H 487.633 3.62085 -0.573592 0
M  V30 5269 H 487.281 4.7604 1.62466 0
M  V30 5270 H 486.981 5.87008 0.263695 0
M  V30 5271 H 488.505 5.98922 1.18848 0
M  V30 5272 H 489.919 5.63506 -1.05518 0
M  V30 5273 H 488.316 5.71108 -1.8427 0
M  V30 5274 H 489.386 4.33608 -2.17054 0
M  V30 5275 N 490.729 0.570148 1.46925 0
M  V30 5276 C 491.661 -0.207909 2.28255 0
M  V30 5277 C 492.674 -0.867301 1.37774 0
M  V30 5278 O 493.863 -0.738976 1.62485 0
M  V30 5279 C 490.963 -1.31298 3.12433 0
M  V30 5280 C 490.136 -0.747915 4.30958 0
M  V30 5281 C 489.195 -1.7391 4.9663 0
M  V30 5282 O 488.221 -1.2801 5.54619 0
M  V30 5283 N 489.423 -3.07288 4.92498 0
M  V30 5284 H 492.188 0.489794 2.95671 0
M  V30 5285 H 489.749 0.407076 1.56699 0
M  V30 5286 H 491.741 -1.97507 3.53232 0
M  V30 5287 H 490.311 -1.91373 2.47175 0
M  V30 5288 H 489.531 0.0913066 3.94094 0
M  V30 5289 H 490.819 -0.349958 5.07595 0
M  V30 5290 H 490.217 -3.47213 4.46609 0
M  V30 5291 H 488.774 -3.69021 5.37277 0
M  V30 5292 N 492.207 -1.54576 0.307264 0
M  V30 5293 C 493.618 -1.8579 -0.184121 0
M  V30 5294 C 493.969 -1.22914 -1.52927 0
M  V30 5295 O 493.094 -0.529126 -2.09831 0
M  V30 5296 C 493.689 -3.37081 -0.340862 0
M  V30 5297 C 492.248 -3.68304 -0.776465 0
M  V30 5298 C 491.395 -2.77076 0.111503 0
M  V30 5299 H 494.346 -1.49656 0.528078 0
M  V30 5300 H 494.367 -3.61922 -1.17443 0
M  V30 5301 H 493.879 -3.82815 0.638309 0
M  V30 5302 H 491.98 -3.28092 -1.76596 0
M  V30 5303 H 492.093 -4.75434 -0.591512 0
M  V30 5304 H 490.457 -2.51374 -0.410256 0
M  V30 5305 H 491.24 -3.25632 1.08714 0
M  V30 5306 N 493.685 -0.035106 -1.57561 0
M  V30 5307 C 494.617 0.973604 -2.07494 0
M  V30 5308 C 495.63 1.28504 -0.999534 0
M  V30 5309 O 496.819 1.24864 -1.27559 0
M  V30 5310 C 493.919 2.29945 -2.48955 0
M  V30 5311 C 493.092 2.1723 -3.79644 0
M  V30 5312 C 492.151 3.328 -4.07592 0
M  V30 5313 O 491.177 3.09418 -4.77754 0
M  V30 5314 N 492.379 4.56779 -3.58236 0
M  V30 5315 H 495.144 0.547525 -2.94656 0
M  V30 5316 H 492.705 0.151515 -1.61189 0
M  V30 5317 H 494.697 3.06097 -2.64739 0
M  V30 5318 H 493.267 2.64173 -1.67126 0
M  V30 5319 H 492.487 1.25768 -3.73599 0
M  V30 5320 H 493.775 2.05945 -4.65257 0
M  V30 5321 H 493.173 4.78668 -3.01485 0
M  V30 5322 H 491.73 5.30079 -3.79288 0
M  V30 5323 N 495.163 1.55791 0.238111 0
M  V30 5324 C 496.403 1.79801 0.972163 0
M  V30 5325 C 496.767 0.606027 1.82185 0
M  V30 5326 O 497.968 0.725079 2.58836 0
M  V30 5327 C 496.239 3.08608 1.80266 0
M  V30 5328 S 497.798 3.53872 2.59461 0
M  V30 5329 H 494.616 0.631418 0.326852 0
M  V30 5330 H 497.218 1.94031 0.239212 0
M  V30 5331 H 495.922 3.93419 1.1683 0
M  V30 5332 H 495.453 2.9714 2.57821 0
M  V30 5333 H 497.468 3.15899 3.82651 0
M  V30 5334 N 496.642 -0.504142 1.49319 0
M  V30 5335 C 497.891 -1.25507 1.57895 0
M  V30 5336 C 498.204 -1.93735 0.269433 0
M  V30 5337 O 499.41 -2.70492 0.233706 0
M  V30 5338 C 497.866 -2.27869 2.78574 0
M  V30 5339 C 497.474 -1.65594 4.16272 0
M  V30 5340 C 499.218 -3.0381 2.96479 0
M  V30 5341 C 497.125 -2.66048 5.28178 0
M  V30 5342 H 496.055 -0.47212 0.587894 0
M  V30 5343 H 498.706 -0.52931 1.757 0
M  V30 5344 H 497.088 -3.03594 2.54257 0
M  V30 5345 H 498.262 -0.958826 4.50714 0
M  V30 5346 H 496.577 -1.02055 4.037 0
M  V30 5347 H 499.174 -3.78925 3.77253 0
M  V30 5348 H 499.517 -3.61235 2.06918 0
M  V30 5349 H 500.05 -2.352 3.20821 0
M  V30 5350 H 496.789 -2.13408 6.19788 0
M  V30 5351 H 496.309 -3.34009 4.98195 0
M  V30 5352 H 497.988 -3.28536 5.57381 0
M  V30 5353 N 498.12 -1.38341 -0.754957 0
M  V30 5354 C 499.053 -1.29837 -1.87663 0
M  V30 5355 C 500.031 -0.175659 -1.61648 0
M  V30 5356 O 501.215 -0.352745 -1.8517 0
M  V30 5357 C 498.342 -1.01141 -3.23246 0
M  V30 5358 C 497.388 -2.15331 -3.6815 0
M  V30 5359 S 498.221 -3.77459 -3.79849 0
M  V30 5360 C 499.377 -3.50948 -5.18253 0
M  V30 5361 H 499.61 -2.24771 -1.9459 0
M  V30 5362 H 497.143 -1.24161 -0.917796 0
M  V30 5363 H 499.101 -0.852687 -4.01546 0
M  V30 5364 H 497.762 -0.0792784 -3.14 0
M  V30 5365 H 496.955 -1.90795 -4.6649 0
M  V30 5366 H 496.557 -2.27304 -2.97 0
M  V30 5367 H 498.849 -3.06977 -6.03963 0
M  V30 5368 H 499.792 -4.48677 -5.47809 0
M  V30 5369 H 500.2 -2.85492 -4.86985 0
M  V30 5370 N 499.598 0.982988 -1.23187 0
M  V30 5371 C 500.838 1.73903 -1.07412 0
M  V30 5372 C 501.202 1.88146 0.382764 0
M  V30 5373 O 502.403 2.6053 0.661638 0
M  V30 5374 C 500.674 3.10105 -1.77678 0
M  V30 5375 S 502.233 4.01323 -1.77441 0
M  V30 5376 H 499.051 0.598093 -0.384456 0
M  V30 5377 H 501.653 1.17456 -1.56283 0
M  V30 5378 H 500.357 2.97388 -2.82822 0
M  V30 5379 H 499.888 3.71622 -1.29077 0
M  V30 5380 H 501.903 4.89189 -0.831162 0
M  V30 5381 N 501.076 1.04316 1.18135 0
M  V30 5382 C 502.322 0.749128 1.88457 0
M  V30 5383 C 502.655 -0.72149 1.803 0
M  V30 5384 O 501.93 -1.52676 1.205 0
M  V30 5385 C 502.213 1.21905 3.38838 0
M  V30 5386 C 502.066 2.75195 3.55792 0
M  V30 5387 C 503.385 0.811085 4.32561 0
M  V30 5388 H 500.504 0.273611 0.684329 0
M  V30 5389 H 503.146 1.29561 1.38975 0
M  V30 5390 H 501.296 0.754137 3.8111 0
M  V30 5391 H 502.968 3.29743 3.22595 0
M  V30 5392 H 501.211 3.14899 2.98364 0
M  V30 5393 H 501.882 3.03135 4.61317 0
M  V30 5394 H 504.358 1.21118 3.98082 0
M  V30 5395 H 503.234 1.16761 5.36338 0
M  V30 5396 H 503.495 -0.285596 4.41177 0
M  V30 5397 N 502.554 -1.34406 0.822964 0
M  V30 5398 C 503.502 -2.31428 0.233165 0
M  V30 5399 C 504.496 -1.57404 -0.626118 0
M  V30 5400 O 505.702 -1.72402 -0.517453 0
M  V30 5401 H 502.077 -0.749863 0.0566557 0
M  V30 5402 H 504.048 -2.78699 1.06628 0
M  V30 5403 C 502.797 -3.42653 -0.590264 0
M  V30 5404 H 502.12 -3.99753 0.0616129 0
M  V30 5405 H 503.56 -4.12778 -0.969054 0
M  V30 5406 C 502.019 -2.87112 -1.76262 0
M  V30 5407 O 502.549 -2.81995 -2.8608 0
M  V30 5408 N 500.755 -2.43934 -1.57938 0
M  V30 5409 H 500.302 -2.48296 -0.686078 0
M  V30 5410 H 500.26 -2.07123 -2.36532 0
M  V30 5411 N 504.032 -0.577932 -1.46621 0
M  V30 5412 C 505.262 -0.0670668 -2.06491 0
M  V30 5413 C 505.67 1.24119 -1.42798 0
M  V30 5414 O 505.013 1.76016 -0.525759 0
M  V30 5415 C 505.075 0.177995 -3.59059 0
M  V30 5416 C 504.739 -1.04394 -4.44917 0
M  V30 5417 C 505.736 -1.95479 -4.81751 0
M  V30 5418 C 503.421 -1.26444 -4.86125 0
M  V30 5419 C 505.415 -3.06965 -5.58615 0
M  V30 5420 C 503.102 -2.38237 -5.62749 0
M  V30 5421 C 504.1 -3.28327 -5.98908 0
M  V30 5422 O 503.788 -4.38179 -6.73984 0
M  V30 5423 H 503.52 -0.0523159 -0.673973 0
M  V30 5424 H 506.074 -0.796966 -1.89308 0
M  V30 5425 H 504.304 0.962451 -3.74531 0
M  V30 5426 H 505.993 0.636782 -4.00874 0
M  V30 5427 H 506.759 -1.79657 -4.50498 0
M  V30 5428 H 502.638 -0.572316 -4.57434 0
M  V30 5429 H 506.182 -3.77309 -5.86757 0
M  V30 5430 H 502.079 -2.54023 -5.93416 0
M  V30 5431 H 502.847 -4.36486 -6.92403 0
M  V30 5432 N 505.51 1.54411 -0.315457 0
M  V30 5433 C 506.756 2.00716 0.289972 0
M  V30 5434 C 507.089 1.2034 1.5242 0
M  V30 5435 O 506.364 0.283579 1.92422 0
M  V30 5436 C 506.647 3.54507 0.632196 0
M  V30 5437 C 506.5 4.45615 -0.61218 0
M  V30 5438 C 507.819 4.15421 1.45305 0
M  V30 5439 H 504.938 0.729637 0.10392 0
M  V30 5440 H 507.58 1.8506 -0.430427 0
M  V30 5441 H 505.73 3.67979 1.24595 0
M  V30 5442 H 507.402 4.44026 -1.25053 0
M  V30 5443 H 505.645 4.15621 -1.24264 0
M  V30 5444 H 506.316 5.51022 -0.328379 0
M  V30 5445 H 508.792 4.05474 0.934331 0
M  V30 5446 H 507.668 5.23157 1.66127 0
M  V30 5447 H 507.929 3.68223 2.44671 0
M  V30 5448 N 506.988 0.0434614 1.5754 0
M  V30 5449 C 507.918 -0.931651 2.14109 0
M  V30 5450 C 508.899 -1.32971 1.06079 0
M  V30 5451 O 510.084 -1.40579 1.33982 0
M  V30 5452 C 507.214 -2.20914 2.67982 0
M  V30 5453 C 506.168 -1.95139 3.80926 0
M  V30 5454 C 505.494 -3.29276 4.21285 0
M  V30 5455 C 506.794 -1.27913 5.06395 0
M  V30 5456 H 508.488 -0.460497 2.95837 0
M  V30 5457 H 506.034 -0.220058 1.42309 0
M  V30 5458 H 507.987 -2.89522 3.06194 0
M  V30 5459 H 506.711 -2.70221 1.83434 0
M  V30 5460 H 505.37 -1.28945 3.43175 0
M  V30 5461 H 505.018 -3.76369 3.33699 0
M  V30 5462 H 504.718 -3.12831 4.97404 0
M  V30 5463 H 506.242 -3.99129 4.62091 0
M  V30 5464 H 507.656 -1.86544 5.42102 0
M  V30 5465 H 506.053 -1.2182 5.87605 0
M  V30 5466 H 507.123 -0.254066 4.84234 0
M  V30 5467 N 508.466 -1.55915 -0.229846 0
M  V30 5468 C 509.691 -1.8296 -0.976743 0
M  V30 5469 C 510.116 -0.622735 -1.77493 0
M  V30 5470 O 509.474 0.428431 -1.76165 0
M  V30 5471 C 509.522 -3.07916 -1.8767 0
M  V30 5472 O 508.626 -2.86028 -2.97088 0
M  V30 5473 H 507.967 -0.603453 -0.277021 0
M  V30 5474 H 510.497 -2.0312 -0.245669 0
M  V30 5475 H 510.507 -3.37802 -2.2881 0
M  V30 5476 H 509.182 -3.95389 -1.28996 0
M  V30 5477 H 507.759 -2.67355 -2.59954 0
M  V30 5478 N 509.944 0.496216 -1.49584 0
M  V30 5479 C 510.854 1.62352 -1.69349 0
M  V30 5480 C 511.87 1.64184 -0.576147 0
M  V30 5481 O 513.046 1.82517 -0.85144 0
M  V30 5482 C 510.111 2.98698 -1.76013 0
M  V30 5483 C 509.172 3.07454 -2.99617 0
M  V30 5484 C 508.405 4.37296 -3.05953 0
M  V30 5485 O 508.628 5.2637 -2.19752 0
M  V30 5486 O 507.562 4.51124 -3.9846 0
M  V30 5487 H 511.388 1.48606 -2.64859 0
M  V30 5488 H 508.973 0.673022 -1.33382 0
M  V30 5489 H 510.855 3.79725 -1.82721 0
M  V30 5490 H 509.53 3.12696 -0.836828 0
M  V30 5491 H 508.437 2.25597 -2.98424 0
M  V30 5492 H 509.77 2.98385 -3.91443 0
M  V30 5493 N 511.423 1.38739 0.74761 0
M  V30 5494 C 512.672 1.3459 1.50228 0
M  V30 5495 C 512.985 -0.0595592 1.95509 0
M  V30 5496 O 514.191 -0.22361 2.70578 0
M  V30 5497 C 512.647 2.36377 2.71393 0
M  V30 5498 C 512.255 3.82573 2.33113 0
M  V30 5499 C 513.999 2.41281 3.49262 0
M  V30 5500 C 511.906 4.76032 3.50924 0
M  V30 5501 H 510.836 0.500312 0.564096 0
M  V30 5502 H 513.487 1.64324 0.8167 0
M  V30 5503 H 511.869 1.99694 3.41962 0
M  V30 5504 H 513.043 4.28227 1.70171 0
M  V30 5505 H 511.358 3.80844 1.68365 0
M  V30 5506 H 513.955 3.08301 4.36869 0
M  V30 5507 H 514.298 1.43353 3.9084 0
M  V30 5508 H 514.831 2.76793 2.85711 0
M  V30 5509 H 511.57 5.75177 3.14408 0
M  V30 5510 H 511.09 4.35066 4.12889 0
M  V30 5511 H 512.769 4.94331 4.17427 0
M  V30 5512 N 512.901 -0.976442 1.23707 0
M  V30 5513 C 513.811 -2.10359 1.03856 0
M  V30 5514 C 514.827 -1.73991 -0.0180919 0
M  V30 5515 O 516.003 -2.0061 0.178211 0
M  V30 5516 C 513.068 -3.40809 0.636387 0
M  V30 5517 C 512.129 -3.91179 1.76854 0
M  V30 5518 C 511.362 -5.15404 1.38546 0
M  V30 5519 O 511.585 -5.69754 0.27142 0
M  V30 5520 O 510.519 -5.5994 2.20797 0
M  V30 5521 H 514.345 -2.29997 1.98331 0
M  V30 5522 H 511.93 -1.08742 1.02448 0
M  V30 5523 H 513.812 -4.19269 0.423223 0
M  V30 5524 H 512.487 -3.22493 -0.279322 0
M  V30 5525 H 511.394 -3.13819 2.03638 0
M  V30 5526 H 512.727 -4.13958 2.6627 0
M  V30 5527 N 514.379 -1.04941 -1.1758 0
M  V30 5528 C 515.326 -0.648155 -2.21512 0
M  V30 5529 C 516.296 0.348431 -1.62404 0
M  V30 5530 O 517.481 0.240419 -1.89279 0
M  V30 5531 C 514.621 -0.0264291 -3.4509 0
M  V30 5532 C 513.734 -1.07154 -4.185 0
M  V30 5533 C 512.869 -0.417403 -5.29558 0
M  V30 5534 C 511.908 -1.447 -5.94751 0
M  V30 5535 N 511.045 -0.817203 -6.97328 0
M  V30 5536 H 515.885 -1.53891 -2.55189 0
M  V30 5537 H 513.422 -0.769699 -1.25356 0
M  V30 5538 H 515.38 0.351456 -4.15717 0
M  V30 5539 H 514.01 0.827802 -3.12005 0
M  V30 5540 H 513.062 -1.56728 -3.46613 0
M  V30 5541 H 514.374 -1.8532 -4.63096 0
M  V30 5542 H 513.528 0.0142061 -6.06698 0
M  V30 5543 H 512.267 0.396265 -4.86087 0
M  V30 5544 H 511.272 -1.88865 -5.16343 0
M  V30 5545 H 512.497 -2.26252 -6.40302 0
M  V30 5546 H 510.443 -0.0239995 -6.55996 0
M  V30 5547 H 510.36 -1.53644 -7.40223 0
M  V30 5548 H 511.628 -0.410283 -7.7842 0
M  V30 5549 N 515.857 1.33968 -0.830081 0
M  V30 5550 C 516.805 2.31301 -0.245435 0
M  V30 5551 C 517.799 1.57734 0.617762 0
M  V30 5552 O 519.005 1.72674 0.508303 0
M  V30 5553 H 515.38 0.749552 -0.0606316 0
M  V30 5554 H 517.351 2.78129 -1.08105 0
M  V30 5555 C 516.1 3.42961 0.572084 0
M  V30 5556 H 515.423 3.99714 -0.0828118 0
M  V30 5557 H 516.863 4.13286 0.94715 0
M  V30 5558 C 515.322 2.88043 1.74737 0
M  V30 5559 O 515.852 2.83508 2.8458 0
M  V30 5560 N 514.058 2.44768 1.56642 0
M  V30 5561 H 513.605 2.48656 0.672901 0
M  V30 5562 H 513.563 2.08375 2.3543 0
M  V30 5563 N 517.335 0.585699 1.46312 0
M  V30 5564 C 518.612 0.00542031 1.95599 0
M  V30 5565 C 518.992 -1.45619 1.52834 0
M  V30 5566 O 518.34 -2.14759 0.780446 0
M  V30 5567 C 518.55 0.180601 3.48532 0
M  V30 5568 C 519.898 0.049979 4.24571 0
M  V30 5569 O 520.922 0.109589 3.56031 0
M  V30 5570 O 519.781 -0.0832226 5.46437 0
M  V30 5571 H 516.875 -0.0481281 0.825598 0
M  V30 5572 H 519.421 0.654227 1.56582 0
M  V30 5573 H 518.193 1.19657 3.72556 0
M  V30 5574 H 517.816 -0.504498 3.94386 0
M  V30 5575 N 518.813 -1.54241 0.323641 0
M  V30 5576 C 520.059 -2.00867 -0.279323 0
M  V30 5577 C 520.392 -1.21146 -1.5178 0
M  V30 5578 O 519.667 -0.29378 -1.92269 0
M  V30 5579 C 519.95 -3.54837 -0.613387 0
M  V30 5580 C 519.803 -4.45284 0.635803 0
M  V30 5581 C 521.122 -4.16186 -1.43099 0
M  V30 5582 H 518.241 -0.730177 -0.100049 0
M  V30 5583 H 520.883 -1.84829 0.440235 0
M  V30 5584 H 519.033 -3.68634 -1.22641 0
M  V30 5585 H 520.705 -4.43357 1.27406 0
M  V30 5586 H 518.948 -4.14956 1.26466 0
M  V30 5587 H 519.619 -5.5084 0.357597 0
M  V30 5588 H 522.095 -4.05964 -0.912814 0
M  V30 5589 H 520.971 -5.24031 -1.6335 0
M  V30 5590 H 521.232 -3.69516 -2.42715 0
M  V30 5591 N 520.291 -0.0518155 -1.57515 0
M  V30 5592 C 521.537 0.622745 -1.93002 0
M  V30 5593 C 521.87 1.70456 -0.930499 0
M  V30 5594 O 521.145 1.94452 0.0434086 0
M  V30 5595 C 521.428 1.21824 -3.38867 0
M  V30 5596 C 521.281 0.144434 -4.49568 0
M  V30 5597 C 522.6 2.12968 -3.8514 0
M  V30 5598 H 519.719 0.22491 -0.701844 0
M  V30 5599 H 522.361 -0.113711 -1.89659 0
M  V30 5600 H 520.511 1.8459 -3.41846 0
M  V30 5601 H 522.183 -0.48753 -4.58717 0
M  V30 5602 H 520.426 -0.527424 -4.30582 0
M  V30 5603 H 521.097 0.601127 -5.48717 0
M  V30 5604 H 523.573 1.60163 -3.8404 0
M  V30 5605 H 522.449 2.51578 -4.87852 0
M  V30 5606 H 522.71 3.03004 -3.21934 0
M  V30 5607 N 521.769 1.56035 0.221574 0
M  V30 5608 C 523.016 1.79047 0.94597 0
M  V30 5609 C 523.344 0.62057 1.84334 0
M  V30 5610 O 522.599 -0.395053 1.91671 0
M  V30 5611 C 522.898 3.07813 1.8162 0
M  V30 5612 C 522.564 4.3797 1.07206 0
M  V30 5613 C 521.226 4.73334 0.866508 0
M  V30 5614 C 523.578 5.18326 0.546565 0
M  V30 5615 C 520.906 5.8657 0.123549 0
M  V30 5616 C 523.258 6.32335 -0.18305 0
M  V30 5617 C 521.922 6.66301 -0.399861 0
M  V30 5618 H 521.192 0.655178 0.346155 0
M  V30 5619 H 523.839 1.90299 0.214146 0
M  V30 5620 H 522.144 2.91682 2.61589 0
M  V30 5621 H 523.841 3.2282 2.37884 0
M  V30 5622 H 520.431 4.10202 1.24226 0
M  V30 5623 H 524.615 4.9144 0.692847 0
M  V30 5624 H 519.871 6.11376 -0.0546591 0
M  V30 5625 H 524.045 6.9383 -0.59775 0
M  V30 5626 H 521.672 7.53889 -0.977489 0
M  V30 5627 N 523.247 -0.488276 1.49845 0
M  V30 5628 C 524.472 -1.26997 1.63971 0
M  V30 5629 C 524.897 -1.85427 0.315994 0
M  V30 5630 O 524.255 -1.66475 -0.718032 0
M  V30 5631 C 524.303 -2.36689 2.72049 0
M  V30 5632 O 523.407 -3.40882 2.32107 0
M  V30 5633 H 522.748 -0.374376 0.548396 0
M  V30 5634 H 525.278 -0.583104 1.96115 0
M  V30 5635 H 525.288 -2.82262 2.94605 0
M  V30 5636 H 523.963 -1.93529 3.68129 0
M  V30 5637 H 522.54 -3.01139 2.19931 0
M  V30 5638 N 524.725 -1.39134 -0.740242 0
M  V30 5639 C 525.658 -1.3182 -1.86276 0
M  V30 5640 C 526.636 -0.192794 -1.61453 0
M  V30 5641 O 527.82 -0.372365 -1.84786 0
M  V30 5642 C 524.947 -1.04564 -3.22155 0
M  V30 5643 C 523.993 -2.19224 -3.65846 0
M  V30 5644 S 524.826 -3.81466 -3.75824 0
M  V30 5645 C 525.982 -3.56425 -5.14502 0
M  V30 5646 H 526.215 -2.26822 -1.92195 0
M  V30 5647 H 523.748 -1.25127 -0.904576 0
M  V30 5648 H 525.706 -0.895228 -4.00619 0
M  V30 5649 H 524.367 -0.112578 -3.13898 0
M  V30 5650 H 523.56 -1.95732 -4.6444 0
M  V30 5651 H 523.162 -2.30441 -2.94572 0
M  V30 5652 H 525.454 -3.13366 -6.00673 0
M  V30 5653 H 526.397 -4.54462 -5.43019 0
M  V30 5654 H 526.805 -2.90641 -4.8393 0
M  V30 5655 N 526.204 0.969867 -1.24223 0
M  V30 5656 C 527.481 1.68774 -0.988664 0
M  V30 5657 C 527.861 2.05342 0.489673 0
M  V30 5658 O 527.209 1.75486 1.46345 0
M  V30 5659 C 527.419 2.92135 -1.90941 0
M  V30 5660 C 528.767 3.64422 -2.17903 0
M  V30 5661 O 529.791 3.02188 -1.88576 0
M  V30 5662 O 528.65 4.76446 -2.67697 0
M  V30 5663 H 525.744 0.737736 -0.37373 0
M  V30 5664 H 528.29 1.02415 -1.35312 0
M  V30 5665 H 527.062 2.61788 -2.90831 0
M  V30 5666 H 526.685 3.66228 -1.54798 0
M  V30 5667 N 527.682 1.05563 1.17022 0
M  V30 5668 C 528.614 0.617888 2.20714 0
M  V30 5669 C 529.627 -0.320303 1.59618 0
M  V30 5670 O 530.816 -0.112449 1.78145 0
M  V30 5671 C 527.916 -0.115333 3.38704 0
M  V30 5672 C 527.089 0.834493 4.29366 0
M  V30 5673 C 526.148 0.141855 5.26009 0
M  V30 5674 O 525.174 0.777151 5.6387 0
M  V30 5675 N 526.376 -1.11934 5.69606 0
M  V30 5676 H 529.141 1.50981 2.58892 0
M  V30 5677 H 526.702 0.938008 1.31958 0
M  V30 5678 H 528.694 -0.588918 4.00392 0
M  V30 5679 H 527.264 -0.908967 2.99093 0
M  V30 5680 H 526.484 1.48762 3.65053 0
M  V30 5681 H 527.772 1.4791 4.86827 0
M  V30 5682 H 527.17 -1.65574 5.40927 0
M  V30 5683 H 525.727 -1.53692 6.33421 0
M  V30 5684 N 529.16 -1.33526 0.837174 0
M  V30 5685 C 530.388 -2.02047 0.445494 0
M  V30 5686 C 530.803 -1.62995 -0.952788 0
M  V30 5687 O 530.16 -0.842447 -1.61892 0
M  V30 5688 C 530.211 -3.57221 0.554577 0
M  V30 5689 O 529.932 -3.94863 1.89776 0
M  V30 5690 C 531.433 -4.43012 0.159634 0
M  V30 5691 H 528.653 -0.647221 0.177048 0
M  V30 5692 H 531.197 -1.70492 1.12928 0
M  V30 5693 H 529.352 -3.87315 -0.0812781 0
M  V30 5694 H 529.766 -4.89569 1.88208 0
M  V30 5695 H 531.24 -5.51253 0.28701 0
M  V30 5696 H 531.717 -4.29916 -0.898289 0
M  V30 5697 H 532.323 -4.18274 0.769855 0
M  V30 5698 N 530.638 -0.59345 -1.46 0
M  V30 5699 C 531.548 0.135817 -2.34207 0
M  V30 5700 C 532.564 0.875008 -1.50398 0
M  V30 5701 O 533.74 0.835778 -1.83239 0
M  V30 5702 C 530.805 1.12977 -3.27776 0
M  V30 5703 C 529.866 0.394081 -4.27487 0
M  V30 5704 C 529.099 1.34068 -5.16586 0
M  V30 5705 O 529.322 2.5778 -5.08828 0
M  V30 5706 O 528.256 0.845426 -5.95933 0
M  V30 5707 H 532.082 -0.588691 -2.9794 0
M  V30 5708 H 529.667 -0.353784 -1.45151 0
M  V30 5709 H 531.549 1.70261 -3.85473 0
M  V30 5710 H 530.224 1.83556 -2.66625 0
M  V30 5711 H 529.131 -0.220869 -3.73447 0
M  V30 5712 H 530.464 -0.270939 -4.91454 0
M  V30 5713 N 532.116 1.54067 -0.331816 0
M  V30 5714 C 533.341 2.05599 0.272705 0
M  V30 5715 C 533.766 1.2059 1.44359 0
M  V30 5716 O 533.124 0.216907 1.79998 0
M  V30 5717 C 533.172 3.54188 0.677021 0
M  V30 5718 O 532.276 3.72082 1.77844 0
M  V30 5719 H 531.617 0.662286 0.0476801 0
M  V30 5720 H 534.147 1.98826 -0.482624 0
M  V30 5721 H 534.157 3.96608 0.957415 0
M  V30 5722 H 532.832 4.15513 -0.179325 0
M  V30 5723 H 531.409 3.41566 1.49622 0
M  V30 5724 N 533.594 0.0601682 1.57485 0
M  V30 5725 C 534.524 -0.90889 2.15085 0
M  V30 5726 C 535.505 -1.31838 1.07484 0
M  V30 5727 O 536.69 -1.3915 1.35466 0
M  V30 5728 C 533.82 -2.18059 2.7031 0
M  V30 5729 C 532.774 -1.91088 3.82974 0
M  V30 5730 C 532.1 -3.24789 4.24754 0
M  V30 5731 C 533.4 -1.22535 5.07723 0
M  V30 5732 H 535.094 -0.429093 2.96309 0
M  V30 5733 H 532.64 -0.204952 1.42534 0
M  V30 5734 H 534.593 -2.86258 3.09248 0
M  V30 5735 H 533.317 -2.6826 1.8629 0
M  V30 5736 H 531.976 -1.25297 3.44523 0
M  V30 5737 H 531.624 -3.72809 3.37672 0
M  V30 5738 H 531.324 -3.07538 5.00694 0
M  V30 5739 H 532.848 -3.94205 4.66299 0
M  V30 5740 H 534.262 -1.80783 5.4405 0
M  V30 5741 H 532.659 -1.1558 5.88864 0
M  V30 5742 H 533.729 -0.202692 4.84476 0
M  V30 5743 N 535.072 -1.5615 -0.213296 0
M  V30 5744 C 536.319 -1.79546 -0.936462 0
M  V30 5745 C 536.647 -0.630337 -1.84003 0
M  V30 5746 O 535.902 0.384883 -1.91878 0
M  V30 5747 C 536.201 -3.08772 -1.79985 0
M  V30 5748 C 535.867 -4.38532 -1.04882 0
M  V30 5749 C 534.529 -4.73787 -0.841393 0
M  V30 5750 C 536.881 -5.18609 -0.51907 0
M  V30 5751 C 534.209 -5.86627 -0.0924403 0
M  V30 5752 C 536.561 -6.32229 0.216581 0
M  V30 5753 C 535.225 -6.6608 0.435191 0
M  V30 5754 H 534.495 -0.657004 -0.342676 0
M  V30 5755 H 537.142 -1.9041 -0.204051 0
M  V30 5756 H 535.447 -2.93065 -2.60038 0
M  V30 5757 H 537.144 -3.24077 -2.36168 0
M  V30 5758 H 533.734 -4.10855 -1.22048 0
M  V30 5759 H 537.918 -4.91801 -0.666775 0
M  V30 5760 H 533.174 -6.11338 0.087081 0
M  V30 5761 H 537.348 -6.93503 0.634538 0
M  V30 5762 H 534.975 -7.5336 1.01746 0
M  V30 5763 N 536.55 0.480323 -1.50102 0
M  V30 5764 C 537.497 1.57946 -1.6829 0
M  V30 5765 C 538.467 1.57611 -0.524223 0
M  V30 5766 O 539.652 1.75282 -0.753709 0
M  V30 5767 C 536.792 2.95978 -1.77457 0
M  V30 5768 C 535.905 3.06173 -3.04766 0
M  V30 5769 C 535.04 4.35063 -3.04784 0
M  V30 5770 C 534.079 4.38966 -4.26586 0
M  V30 5771 N 533.216 5.59314 -4.24396 0
M  V30 5772 H 538.056 1.41743 -2.62131 0
M  V30 5773 H 535.593 0.689304 -1.2995 0
M  V30 5774 H 537.551 3.76011 -1.80752 0
M  V30 5775 H 536.181 3.10837 -0.870637 0
M  V30 5776 H 535.233 2.19071 -3.10986 0
M  V30 5777 H 536.545 3.04916 -3.9475 0
M  V30 5778 H 535.699 5.23436 -3.06757 0
M  V30 5779 H 534.438 4.38915 -2.12614 0
M  V30 5780 H 533.443 3.48992 -4.24835 0
M  V30 5781 H 534.668 4.36813 -5.19972 0
M  V30 5782 H 532.614 5.63969 -3.35074 0
M  V30 5783 H 532.531 5.5976 -5.08138 0
M  V30 5784 H 533.799 6.49837 -4.30502 0
M  V30 5785 N 538.028 1.39524 0.732853 0
M  V30 5786 C 539.439 1.32905 1.31122 0
M  V30 5787 C 539.79 -0.00558708 1.96199 0
M  V30 5788 O 538.915 -0.907706 1.96443 0
M  V30 5789 C 539.51 2.40704 2.38426 0
M  V30 5790 C 538.069 2.37599 2.91931 0
M  V30 5791 C 537.216 2.2248 1.65523 0
M  V30 5792 H 540.167 1.49581 0.530207 0
M  V30 5793 H 540.188 2.07616 3.18867 0
M  V30 5794 H 539.7 3.37829 1.91033 0
M  V30 5795 H 537.801 1.44119 3.43599 0
M  V30 5796 H 537.914 3.32538 3.44899 0
M  V30 5797 H 536.278 1.69691 1.8994 0
M  V30 5798 H 537.061 3.21577 1.20178 0
M  V30 5799 N 539.506 -0.963266 1.24736 0
M  V30 5800 C 540.456 -2.0438 1.01058 0
M  V30 5801 C 541.44 -1.60824 -0.0495354 0
M  V30 5802 O 542.632 -1.76232 0.164741 0
M  V30 5803 C 539.761 -3.37617 0.622067 0
M  V30 5804 C 538.847 -3.87722 1.7185 0
M  V30 5805 N 539.238 -4.10715 2.95207 0
M  V30 5806 C 537.536 -4.16426 1.59703 0
M  V30 5807 C 538.237 -4.51872 3.66315 0
M  V30 5808 N 537.213 -4.57302 2.93897 0
M  V30 5809 H 541.015 -2.20138 1.94721 0
M  V30 5810 H 538.529 -1.14741 1.14927 0
M  V30 5811 H 540.526 -4.14638 0.43366 0
M  V30 5812 H 539.186 -3.23242 -0.307327 0
M  V30 5813 H 540.197 -3.98037 3.31341 0
M  V30 5814 H 536.874 -4.10962 0.73598 0
M  V30 5815 H 538.264 -4.78037 4.72155 0
M  V30 5816 N 540.985 -1.06182 -1.16461 0
M  V30 5817 C 541.915 -0.692861 -2.22984 0
M  V30 5818 C 542.896 0.314122 -1.67174 0
M  V30 5819 O 544.081 0.189499 -1.93273 0
M  V30 5820 C 541.211 -0.07732 -3.47214 0
M  V30 5821 C 540.165 -1.01015 -4.15909 0
M  V30 5822 C 539.491 -0.257973 -5.34077 0
M  V30 5823 C 540.791 -2.33868 -4.67015 0
M  V30 5824 H 542.485 -1.58343 -2.54102 0
M  V30 5825 H 540.031 -0.76279 -1.22137 0
M  V30 5826 H 541.984 0.19266 -4.20959 0
M  V30 5827 H 540.708 0.848254 -3.15392 0
M  V30 5828 H 539.367 -1.26486 -3.44088 0
M  V30 5829 H 539.015 0.670684 -4.98509 0
M  V30 5830 H 538.715 -0.879638 -5.80979 0
M  V30 5831 H 540.239 0.00448788 -6.106 0
M  V30 5832 H 541.653 -2.1279 -5.32347 0
M  V30 5833 H 540.05 -2.91522 -5.24533 0
M  V30 5834 H 541.12 -2.97019 -3.83286 0
M  V30 5835 N 542.463 1.3308 -0.844243 0
M  V30 5836 C 543.396 2.27075 -0.226279 0
M  V30 5837 C 544.374 1.49911 0.629716 0
M  V30 5838 O 545.558 1.79068 0.588803 0
M  V30 5839 C 542.685 3.31767 0.681782 0
M  V30 5840 C 541.731 4.26384 -0.0994565 0
M  V30 5841 S 542.564 5.15186 -1.46094 0
M  V30 5842 C 543.72 6.23405 -0.558319 0
M  V30 5843 H 543.953 2.79141 -1.02312 0
M  V30 5844 H 541.486 1.40452 -0.641292 0
M  V30 5845 H 543.444 3.92566 1.20008 0
M  V30 5846 H 542.105 2.78507 1.45234 0
M  V30 5847 H 541.298 5.00514 0.591733 0
M  V30 5848 H 540.9 3.69949 -0.548991 0
M  V30 5849 H 543.192 6.77069 0.241672 0
M  V30 5850 H 544.135 6.96619 -1.26995 0
M  V30 5851 H 544.543 5.64333 -0.13728 0
M  V30 5852 N 543.941 0.601185 1.45683 0
M  V30 5853 C 544.904 -0.111398 2.28929 0
M  V30 5854 C 545.904 -0.801246 1.39416 0
M  V30 5855 O 547.094 -0.650383 1.61603 0
M  V30 5856 C 544.226 -1.16773 3.20276 0
M  V30 5857 H 545.419 0.620412 2.93413 0
M  V30 5858 H 542.972 0.359946 1.52099 0
M  V30 5859 H 543.707 -1.93051 2.60579 0
M  V30 5860 H 543.492 -0.677358 3.86205 0
M  V30 5861 H 544.982 -1.66698 3.82886 0
M  V30 5862 N 545.419 -1.53889 0.339982 0
M  V30 5863 C 546.352 -2.21187 -0.561405 0
M  V30 5864 C 547.33 -1.19463 -1.10306 0
M  V30 5865 O 548.514 -1.48268 -1.164 0
M  V30 5866 C 545.641 -2.8865 -1.77198 0
M  V30 5867 C 544.687 -4.04232 -1.3601 0
M  V30 5868 S 545.52 -5.34129 -0.382909 0
M  V30 5869 C 546.676 -6.05094 -1.60039 0
M  V30 5870 H 546.909 -2.97298 0.0102092 0
M  V30 5871 H 544.442 -1.53901 0.124056 0
M  V30 5872 H 546.4 -3.28138 -2.4665 0
M  V30 5873 H 545.061 -2.12311 -2.3148 0
M  V30 5874 H 544.254 -4.50358 -2.2626 0
M  V30 5875 H 543.856 -3.66503 -0.745098 0
M  V30 5876 H 546.148 -6.2827 -2.53541 0
M  V30 5877 H 547.091 -6.98182 -1.18099 0
M  V30 5878 H 547.499 -5.35207 -1.79483 0
M  V30 5879 N 546.897 -0.0685191 -1.57451 0
M  V30 5880 C 547.845 0.917577 -2.13736 0
M  V30 5881 C 548.839 1.31049 -1.07344 0
M  V30 5882 O 550.045 1.28811 -1.25728 0
M  V30 5883 H 546.42 0.313835 -0.683382 0
M  V30 5884 H 548.391 0.417903 -2.95459 0
M  V30 5885 C 547.14 2.17686 -2.71123 0
M  V30 5886 H 546.463 1.88336 -3.52661 0
M  V30 5887 H 547.903 2.84803 -3.14107 0
M  V30 5888 C 546.362 2.9332 -1.65726 0
M  V30 5889 O 546.892 3.86901 -1.08031 0
M  V30 5890 N 545.098 2.56367 -1.36837 0
M  V30 5891 H 544.645 1.80341 -1.83943 0
M  V30 5892 H 544.603 3.07276 -0.665501 0
M  V30 5893 N 548.375 1.56261 0.205012 0
M  V30 5894 C 549.6 1.84491 0.947512 0
M  V30 5895 C 550.025 0.650894 1.76479 0
M  V30 5896 O 549.383 -0.40035 1.76824 0
M  V30 5897 C 549.431 3.10863 1.82747 0
M  V30 5898 O 548.535 2.90719 2.925 0
M  V30 5899 H 547.876 0.607783 0.267386 0
M  V30 5900 H 550.406 2.03485 0.213323 0
M  V30 5901 H 550.416 3.41399 2.23407 0
M  V30 5902 H 549.091 3.97392 1.2269 0
M  V30 5903 H 547.668 2.71457 2.55667 0
M  V30 5904 N 549.853 -0.472356 1.50355 0
M  V30 5905 C 551.102 -1.2213 1.60522 0
M  V30 5906 C 551.415 -1.9312 0.310466 0
M  V30 5907 O 552.621 -2.69936 0.291029 0
M  V30 5908 C 551.077 -2.21909 2.83345 0
M  V30 5909 C 550.685 -1.56727 4.19691 0
M  V30 5910 C 552.429 -2.97453 3.02856 0
M  V30 5911 C 550.336 -2.54785 5.33703 0
M  V30 5912 H 549.266 -0.459543 0.597776 0
M  V30 5913 H 551.917 -0.491922 1.76783 0
M  V30 5914 H 550.299 -2.98133 2.60639 0
M  V30 5915 H 551.473 -0.863007 4.52646 0
M  V30 5916 H 549.788 -0.934685 4.05774 0
M  V30 5917 H 552.385 -3.70838 3.85205 0
M  V30 5918 H 552.728 -3.56764 2.14534 0
M  V30 5919 H 553.261 -2.28342 3.25737 0
M  V30 5920 H 550 -2.00214 6.24175 0
M  V30 5921 H 549.52 -3.23367 5.05167 0
M  V30 5922 H 551.199 -3.16639 5.64224 0
M  V30 5923 N 551.331 -1.39911 -0.725443 0
M  V30 5924 C 552.578 -1.37654 -1.48518 0
M  V30 5925 C 552.906 0.0243982 -1.94485 0
M  V30 5926 O 552.161 1.00708 -1.67799 0
M  V30 5927 C 552.46 -2.30368 -2.7325 0
M  V30 5928 C 552.126 -3.77817 -2.461 0
M  V30 5929 C 550.788 -4.17991 -2.38405 0
M  V30 5930 C 553.14 -4.71036 -2.23103 0
M  V30 5931 C 550.468 -5.49433 -2.05768 0
M  V30 5932 C 552.82 -6.02766 -1.9198 0
M  V30 5933 C 551.484 -6.41993 -1.82761 0
M  V30 5934 H 550.754 -0.503713 -0.543465 0
M  V30 5935 H 553.401 -1.7249 -0.831822 0
M  V30 5936 H 551.706 -1.88683 -3.43375 0
M  V30 5937 H 553.403 -2.2591 -3.31309 0
M  V30 5938 H 549.993 -3.45982 -2.52972 0
M  V30 5939 H 554.177 -4.40823 -2.2801 0
M  V30 5940 H 549.433 -5.78738 -1.9716 0
M  V30 5941 H 553.607 -6.74519 -1.73197 0
M  V30 5942 H 551.234 -7.43761 -1.57237 0
M  V30 5943 N 552.809 0.956637 -1.25245 0
M  V30 5944 C 554.086 1.67716 -1.00651 0
M  V30 5945 C 554.466 2.0585 0.467866 0
M  V30 5946 O 553.814 1.77029 1.44475 0
M  V30 5947 C 554.024 2.90093 -1.94028 0
M  V30 5948 C 555.372 3.6209 -2.21756 0
M  V30 5949 O 556.396 3.00171 -1.9177 0
M  V30 5950 O 555.255 4.7358 -2.72735 0
M  V30 5951 H 552.349 0.733731 -0.381533 0
M  V30 5952 H 554.895 1.00974 -1.3639 0
M  V30 5953 H 553.667 2.58689 -2.93591 0
M  V30 5954 H 553.29 3.64566 -1.58674 0
M  V30 5955 N 554.287 1.06798 1.15896 0
M  V30 5956 C 555.512 0.808739 1.90982 0
M  V30 5957 C 555.937 -0.6316 1.77179 0
M  V30 5958 O 555.295 -1.4407 1.10061 0
M  V30 5959 C 555.343 1.21468 3.39526 0
M  V30 5960 O 554.447 0.356562 4.10856 0
M  V30 5961 H 553.788 0.29512 0.594811 0
M  V30 5962 H 556.318 1.42513 1.46804 0
M  V30 5963 H 556.328 1.18844 3.90308 0
M  V30 5964 H 555.003 2.26379 3.48891 0
M  V30 5965 H 553.58 0.444808 3.70238 0
M  V30 5966 N 555.766 -1.3263 0.851289 0
M  V30 5967 C 556.991 -2.02097 0.466006 0
M  V30 5968 C 557.416 -1.63574 -0.928709 0
M  V30 5969 O 556.774 -0.834665 -1.60944 0
M  V30 5970 C 556.822 -3.55425 0.608737 0
M  V30 5971 O 555.926 -4.10827 -0.359878 0
M  V30 5972 H 555.267 -0.636911 0.187724 0
M  V30 5973 H 557.797 -1.69253 1.14955 0
M  V30 5974 H 557.807 -4.04986 0.495006 0
M  V30 5975 H 556.482 -3.82806 1.62581 0
M  V30 5976 H 555.059 -3.72349 -0.202666 0
M  V30 5977 N 557.244 -0.608902 -1.45362 0
M  V30 5978 C 558.492 -0.104401 -2.0183 0
M  V30 5979 C 558.813 1.27007 -1.47967 0
M  V30 5980 O 558.083 1.83924 -0.674455 0
M  V30 5981 H 556.663 -0.0356042 -0.746151 0
M  V30 5982 H 559.325 -0.790596 -1.78145 0
M  V30 5983 H 558.421 -0.0551793 -3.12051 0
M  V30 5984 N 558.722 1.53707 -0.348139 0
M  V30 5985 C 559.669 2.25173 0.506518 0
M  V30 5986 C 560.639 1.25174 1.09182 0
M  V30 5987 O 561.824 1.53917 1.12757 0
M  V30 5988 C 558.964 3.03141 1.64923 0
M  V30 5989 C 558.077 4.18002 1.0908 0
M  V30 5990 C 557.212 4.83447 2.20119 0
M  V30 5991 C 556.251 5.90369 1.61651 0
M  V30 5992 N 555.388 6.49575 2.66451 0
M  V30 5993 H 560.228 2.97799 -0.109452 0
M  V30 5994 H 557.765 1.46953 -0.0657866 0
M  V30 5995 H 559.723 3.46607 2.32205 0
M  V30 5996 H 558.353 2.32803 2.23612 0
M  V30 5997 H 557.405 3.79145 0.308783 0
M  V30 5998 H 558.717 4.94892 0.623178 0
M  V30 5999 H 557.871 5.30008 2.95257 0
M  V30 6000 H 556.61 4.05991 2.70227 0
M  V30 6001 H 555.615 5.43186 0.850209 0
M  V30 6002 H 556.84 6.69735 1.1239 0
M  V30 6003 H 554.786 5.74981 3.15805 0
M  V30 6004 H 554.703 7.21952 2.24325 0
M  V30 6005 H 555.971 7.00789 3.41344 0
M  V30 6006 N 560.2 0.0768682 1.57412 0
M  V30 6007 C 561.448 -0.589918 1.93299 0
M  V30 6008 C 561.769 -1.69842 0.958049 0
M  V30 6009 O 561.039 -1.95899 0.00703261 0
M  V30 6010 H 559.619 -0.220901 0.713591 0
M  V30 6011 H 562.281 0.135917 1.94425 0
M  V30 6012 H 561.377 -1.01195 2.95239 0
M  V30 6013 N 561.678 -1.56367 -0.196722 0
M  V30 6014 C 562.641 -1.93561 -1.22746 0
M  V30 6015 C 563.641 -0.816566 -1.38524 0
M  V30 6016 O 564.831 -1.084 -1.36363 0
M  V30 6017 C 561.963 -2.20823 -2.59712 0
M  V30 6018 H 563.156 -2.85774 -0.909586 0
M  V30 6019 H 560.709 -1.50032 -0.438174 0
M  V30 6020 H 561.444 -1.31243 -2.96557 0
M  V30 6021 H 561.229 -3.02368 -2.49632 0
M  V30 6022 H 562.719 -2.50608 -3.34044 0
M  V30 6023 N 563.156 0.464375 -1.50603 0
M  V30 6024 C 564.402 1.21776 -1.62168 0
M  V30 6025 C 564.735 1.91476 -0.324154 0
M  V30 6026 O 564.01 1.8242 0.674782 0
M  V30 6027 C 564.293 2.25614 -2.80661 0
M  V30 6028 C 564.146 1.60175 -4.20314 0
M  V30 6029 C 565.465 3.26862 -2.94702 0
M  V30 6030 H 562.584 0.44137 -0.590222 0
M  V30 6031 H 565.226 0.510623 -1.8301 0
M  V30 6032 H 563.376 2.85923 -2.63021 0
M  V30 6033 H 565.048 1.03411 -4.4956 0
M  V30 6034 H 563.291 0.904697 -4.24261 0
M  V30 6035 H 563.962 2.35665 -4.99165 0
M  V30 6036 H 566.438 2.76582 -3.10872 0
M  V30 6037 H 565.314 3.96839 -3.79223 0
M  V30 6038 H 565.575 3.91382 -2.05603 0
M  V30 6039 N 564.634 1.40294 0.718013 0
M  V30 6040 C 565.859 1.41941 1.5122 0
M  V30 6041 C 566.284 0.0202371 1.88089 0
M  V30 6042 O 565.642 -0.971078 1.53101 0
M  V30 6043 C 565.69 2.3141 2.76554 0
M  V30 6044 O 564.794 1.75567 3.73162 0
M  V30 6045 H 564.135 0.482644 0.456016 0
M  V30 6046 H 566.665 1.84494 0.884478 0
M  V30 6047 H 566.675 2.46513 3.25108 0
M  V30 6048 H 565.35 3.33085 2.49053 0
M  V30 6049 H 563.927 1.69798 3.31999 0
M  V30 6050 N 566.112 -0.949982 1.2575 0
M  V30 6051 C 567.022 -2.08109 1.08295 0
M  V30 6052 C 568.038 -1.7399 0.0188181 0
M  V30 6053 O 569.214 -2.00187 0.220724 0
M  V30 6054 C 566.279 -3.39383 0.708534 0
M  V30 6055 C 565.34 -3.8734 1.85111 0
M  V30 6056 C 564.573 -5.12349 1.49447 0
M  V30 6057 O 564.796 -5.6905 0.392212 0
M  V30 6058 O 563.73 -5.5513 2.32624 0
M  V30 6059 H 567.556 -2.25738 2.03165 0
M  V30 6060 H 565.141 -1.06545 1.04731 0
M  V30 6061 H 567.023 -4.18277 0.512061 0
M  V30 6062 H 565.698 -3.23013 -0.210854 0
M  V30 6063 H 564.605 -3.09429 2.10248 0
M  V30 6064 H 565.938 -4.08216 2.74991 0
M  V30 6065 N 567.59 -1.07411 -1.15328 0
M  V30 6066 C 568.537 -0.694995 -2.20087 0
M  V30 6067 C 569.507 0.313904 -1.63107 0
M  V30 6068 O 570.692 0.200216 -1.89747 0
M  V30 6069 C 567.832 -0.0996218 -3.44956 0
M  V30 6070 C 566.945 -1.16007 -4.16133 0
M  V30 6071 C 566.08 -0.529636 -5.28553 0
M  V30 6072 C 565.119 -1.57283 -5.91548 0
M  V30 6073 N 564.256 -0.964932 -6.95438 0
M  V30 6074 H 569.096 -1.5927 -2.51867 0
M  V30 6075 H 566.633 -0.796115 -1.23695 0
M  V30 6076 H 568.591 0.263197 -4.16369 0
M  V30 6077 H 567.221 0.761435 -3.13691 0
M  V30 6078 H 566.273 -1.64045 -3.4321 0
M  V30 6079 H 567.585 -1.95101 -4.59061 0
M  V30 6080 H 566.739 -0.114487 -6.06592 0
M  V30 6081 H 565.478 0.29307 -4.86819 0
M  V30 6082 H 564.483 -1.99775 -5.12221 0
M  V30 6083 H 565.708 -2.39783 -6.35359 0
M  V30 6084 H 563.654 -0.16314 -6.55797 0
M  V30 6085 H 563.571 -1.69311 -7.36797 0
M  V30 6086 H 564.839 -0.575305 -7.77374 0
M  V30 6087 N 569.068 1.32177 -0.85831 0
M  V30 6088 C 570.293 2.01847 -0.476718 0
M  V30 6089 C 570.718 1.64065 0.920021 0
M  V30 6090 O 570.076 0.843189 1.60499 0
M  V30 6091 C 570.124 3.55097 -0.627578 0
M  V30 6092 O 569.228 4.11012 0.338086 0
M  V30 6093 H 568.569 0.635907 -0.191099 0
M  V30 6094 H 571.099 1.68641 -1.15851 0
M  V30 6095 H 571.109 4.04718 -0.516476 0
M  V30 6096 H 569.784 3.81938 -1.64609 0
M  V30 6097 H 568.361 3.72451 0.182917 0
M  V30 6098 N 570.547 0.616602 1.45037 0
M  V30 6099 C 571.495 -0.109318 2.32343 0
M  V30 6100 C 572.489 -0.850543 1.465 0
M  V30 6101 O 573.695 -0.765088 1.62931 0
M  V30 6102 H 570.07 -0.0541091 0.750051 0
M  V30 6103 H 572.041 0.645326 2.91338 0
M  V30 6104 C 570.79 -1.0872 3.30266 0
M  V30 6105 H 570.113 -0.526267 3.96321 0
M  V30 6106 H 571.553 -1.56489 3.94065 0
M  V30 6107 C 570.012 -2.16525 2.58105 0
M  V30 6108 O 570.542 -3.244 2.36913 0
M  V30 6109 N 568.748 -1.92057 2.18088 0
M  V30 6110 H 568.295 -1.04337 2.35524 0
M  V30 6111 H 568.253 -2.64391 1.70131 0
M  V30 6112 N 572.025 -1.5352 0.356285 0
M  V30 6113 C 573.272 -2.01117 -0.236303 0
M  V30 6114 C 573.6 -1.24381 -1.49531 0
M  V30 6115 O 572.855 -0.323057 -1.93015 0
M  V30 6116 C 573.154 -3.52607 -0.583369 0
M  V30 6117 C 572.82 -4.47151 0.58023 0
M  V30 6118 C 571.482 -4.72718 0.899528 0
M  V30 6119 C 573.834 -5.03137 1.36024 0
M  V30 6120 C 571.162 -5.51523 2.00098 0
M  V30 6121 C 573.514 -5.83145 2.45204 0
M  V30 6122 C 572.178 -6.07001 2.77679 0
M  V30 6123 H 571.448 -0.735938 -0.0864695 0
M  V30 6124 H 574.095 -1.85209 0.48683 0
M  V30 6125 H 572.4 -3.66413 -1.38739 0
M  V30 6126 H 574.097 -3.86901 -1.05397 0
M  V30 6127 H 570.687 -4.27394 0.321322 0
M  V30 6128 H 574.871 -4.83339 1.12682 0
M  V30 6129 H 570.127 -5.68229 2.25668 0
M  V30 6130 H 574.301 -6.25537 3.06067 0
M  V30 6131 H 571.928 -6.67851 3.63151 0
M  V30 6132 N 573.503 -0.0852151 -1.57369 0
M  V30 6133 C 574.433 0.874556 -2.16503 0
M  V30 6134 C 575.414 1.30111 -1.09568 0
M  V30 6135 O 576.599 1.36977 -1.37662 0
M  V30 6136 C 573.729 2.13731 -2.73745 0
M  V30 6137 C 572.683 1.84971 -3.85966 0
M  V30 6138 C 572.009 3.17991 -4.29867 0
M  V30 6139 C 573.309 1.14442 -5.09608 0
M  V30 6140 H 575.003 0.381899 -2.96954 0
M  V30 6141 H 572.549 0.18225 -1.42842 0
M  V30 6142 H 574.502 2.81302 -3.13763 0
M  V30 6143 H 573.226 2.65263 -1.90534 0
M  V30 6144 H 571.885 1.19801 -3.46473 0
M  V30 6145 H 571.533 3.6739 -3.4356 0
M  V30 6146 H 571.233 2.99534 -5.05523 0
M  V30 6147 H 572.757 3.86737 -4.72511 0
M  V30 6148 H 574.171 1.72105 -5.46857 0
M  V30 6149 H 572.568 1.06197 -5.90629 0
M  V30 6150 H 573.638 0.12559 -4.84737 0
M  V30 6151 N 574.981 1.5647 0.188427 0
M  V30 6152 C 576.228 1.81013 0.907779 0
M  V30 6153 C 576.556 0.65953 1.82977 0
M  V30 6154 O 575.811 -0.354308 1.92466 0
M  V30 6155 C 576.11 3.11596 1.7505 0
M  V30 6156 C 575.776 4.40145 0.978922 0
M  V30 6157 C 574.438 4.75066 0.765912 0
M  V30 6158 C 576.79 5.19369 0.436498 0
M  V30 6159 C 574.118 5.867 -0.00089868 0
M  V30 6160 C 576.47 6.31805 -0.317136 0
M  V30 6161 C 575.134 6.65303 -0.541103 0
M  V30 6162 H 574.404 0.662373 0.33218 0
M  V30 6163 H 577.051 1.9071 0.173732 0
M  V30 6164 H 575.356 2.97165 2.55343 0
M  V30 6165 H 577.053 3.27793 2.30983 0
M  V30 6166 H 573.643 4.12745 1.15497 0
M  V30 6167 H 577.827 4.92799 0.588449 0
M  V30 6168 H 573.083 6.11122 -0.184329 0
M  V30 6169 H 577.257 6.92406 -0.744788 0
M  V30 6170 H 574.884 7.51646 -1.13718 0
M  V30 6171 N 576.459 -0.456382 1.50847 0
M  V30 6172 C 577.687 -1.23026 1.66349 0
M  V30 6173 C 578.102 -1.85473 0.352868 0
M  V30 6174 O 577.459 -1.69885 -0.666739 0
M  V30 6175 C 577.51 -2.32827 2.76539 0
M  V30 6176 O 577.231 -1.72938 4.02522 0
M  V30 6177 C 578.732 -3.23448 3.03144 0
M  V30 6178 H 575.952 -0.371527 0.558756 0
M  V30 6179 H 578.496 -0.543082 1.97157 0
M  V30 6180 H 576.651 -2.97294 2.48384 0
M  V30 6181 H 577.065 -2.45357 4.63573 0
M  V30 6182 H 578.539 -3.96669 3.83872 0
M  V30 6183 H 579.016 -3.83094 2.14793 0
M  V30 6184 H 579.622 -2.64702 3.32886 0
M  V30 6185 N 577.937 -1.40673 -0.710563 0
M  V30 6186 C 578.884 -1.41336 -1.82463 0
M  V30 6187 C 579.854 -0.269648 -1.63897 0
M  V30 6188 O 581.039 -0.468463 -1.8496 0
M  V30 6189 C 578.179 -1.28665 -3.20218 0
M  V30 6190 C 577.292 -2.52784 -3.5032 0
M  V30 6191 C 576.427 -2.32517 -4.77608 0
M  V30 6192 C 575.466 -3.52187 -5.0063 0
M  V30 6193 N 574.603 -3.31084 -6.19135 0
M  V30 6194 H 579.443 -2.36558 -1.8123 0
M  V30 6195 H 576.98 -1.17483 -0.885226 0
M  V30 6196 H 578.938 -1.19324 -3.99772 0
M  V30 6197 H 577.568 -0.370602 -3.20666 0
M  V30 6198 H 576.62 -2.72634 -2.65283 0
M  V30 6199 H 577.932 -3.41845 -3.63241 0
M  V30 6200 H 577.086 -2.20558 -5.65189 0
M  V30 6201 H 575.825 -1.40889 -4.66906 0
M  V30 6202 H 574.83 -3.64617 -4.11502 0
M  V30 6203 H 576.055 -4.44749 -5.13201 0
M  V30 6204 H 574.001 -2.42143 -6.09674 0
M  V30 6205 H 573.918 -4.13713 -6.32754 0
M  V30 6206 H 575.186 -3.22868 -7.0949 0
M  V30 6207 N 579.415 0.9433 -1.26252 0
M  V30 6208 C 580.345 2.05902 -1.10122 0
M  V30 6209 C 581.326 1.70099 -0.00700552 0
M  V30 6210 O 582.511 1.93377 -0.178641 0
M  V30 6211 C 579.641 3.39516 -0.731175 0
M  V30 6212 C 578.595 3.89372 -1.77688 0
M  V30 6213 C 577.921 5.19613 -1.26122 0
M  V30 6214 C 579.221 4.14489 -3.17799 0
M  V30 6215 H 580.915 2.19655 -2.03451 0
M  V30 6216 H 578.461 1.05548 -0.979576 0
M  V30 6217 H 580.414 4.17031 -0.605215 0
M  V30 6218 H 579.138 3.25733 0.23782 0
M  V30 6219 H 577.797 3.14036 -1.89148 0
M  V30 6220 H 577.445 5.02208 -0.282128 0
M  V30 6221 H 577.145 5.53939 -1.96023 0
M  V30 6222 H 578.669 5.99713 -1.14789 0
M  V30 6223 H 580.083 4.82625 -3.09428 0
M  V30 6224 H 578.48 4.60094 -3.85271 0
M  V30 6225 H 579.55 3.20347 -3.64014 0
M  V30 6226 N 580.893 1.08022 1.14757 0
M  V30 6227 C 581.84 0.706657 2.19716 0
M  V30 6228 C 582.81 -0.30525 1.63271 0
M  V30 6229 O 583.995 -0.19015 1.8985 0
M  V30 6230 C 581.135 0.117914 3.44898 0
M  V30 6231 C 580.248 1.18212 4.15512 0
M  V30 6232 C 579.383 0.557659 5.28265 0
M  V30 6233 C 578.422 1.60418 5.90705 0
M  V30 6234 N 577.559 1.0018 6.94916 0
M  V30 6235 H 582.399 1.60603 2.51019 0
M  V30 6236 H 579.936 0.802664 1.23271 0
M  V30 6237 H 581.894 -0.241112 4.16503 0
M  V30 6238 H 580.524 -0.744788 3.1409 0
M  V30 6239 H 579.576 1.65863 3.42335 0
M  V30 6240 H 580.888 1.97533 4.5802 0
M  V30 6241 H 580.042 0.146654 6.06523 0
M  V30 6242 H 578.781 -0.267249 4.86967 0
M  V30 6243 H 577.786 2.02489 5.11154 0
M  V30 6244 H 579.011 2.43149 6.34078 0
M  V30 6245 H 576.957 0.197917 6.55701 0
M  V30 6246 H 576.874 1.73216 7.35889 0
M  V30 6247 H 578.142 0.616523 7.77058 0
M  V30 6248 N 582.371 -1.3172 0.865308 0
M  V30 6249 C 583.281 -2.32394 0.320935 0
M  V30 6250 C 584.297 -1.64511 -0.566746 0
M  V30 6251 O 585.473 -1.95969 -0.464575 0
M  V30 6252 C 582.538 -3.43462 -0.472701 0
M  V30 6253 C 581.599 -4.27015 0.442385 0
M  V30 6254 C 580.832 -5.32779 -0.313469 0
M  V30 6255 O 581.055 -5.49158 -1.54214 0
M  V30 6256 O 579.989 -6.01015 0.326257 0
M  V30 6257 H 583.815 -2.80868 1.15528 0
M  V30 6258 H 581.4 -1.35535 0.628545 0
M  V30 6259 H 583.282 -4.11172 -0.922781 0
M  V30 6260 H 581.957 -2.97159 -1.28367 0
M  V30 6261 H 580.864 -3.62075 0.940866 0
M  V30 6262 H 582.197 -4.76871 1.21882 0
M  V30 6263 N 583.85 -0.624285 -1.44708 0
M  V30 6264 C 584.76 0.0861083 -2.34442 0
M  V30 6265 C 585.776 0.84291 -1.5222 0
M  V30 6266 O 586.952 0.796723 -1.84971 0
M  V30 6267 C 584.017 1.05999 -3.30099 0
M  V30 6268 C 583.077 0.303316 -4.28227 0
M  V30 6269 C 582.311 1.23081 -5.19314 0
M  V30 6270 O 582.534 2.46929 -5.14181 0
M  V30 6271 O 581.468 0.71883 -5.97592 0
M  V30 6272 H 585.293 -0.651756 -2.96624 0
M  V30 6273 H 582.879 -0.384493 -1.44368 0
M  V30 6274 H 584.76 1.62046 -3.88997 0
M  V30 6275 H 583.436 1.77859 -2.70459 0
M  V30 6276 H 582.343 -0.300033 -3.72895 0
M  V30 6277 H 583.676 -0.375123 -4.90768 0
M  V30 6278 N 585.328 1.53329 -0.364422 0
M  V30 6279 C 586.739 1.86345 0.115039 0
M  V30 6280 C 587.09 1.28505 1.4826 0
M  V30 6281 O 586.215 0.606639 2.07723 0
M  V30 6282 C 586.81 3.38114 0.215522 0
M  V30 6283 C 585.369 3.70932 0.639237 0
M  V30 6284 C 584.516 2.76471 -0.214261 0
M  V30 6285 H 587.467 1.47593 -0.583258 0
M  V30 6286 H 587.488 3.66031 1.0393 0
M  V30 6287 H 587 3.80182 -0.779948 0
M  V30 6288 H 585.101 3.3442 1.64298 0
M  V30 6289 H 585.214 4.77302 0.41465 0
M  V30 6290 H 583.578 2.52724 0.316678 0
M  V30 6291 H 584.361 3.21373 -1.20725 0
M  V30 6292 N 586.806 0.0935595 1.57322 0
M  V30 6293 C 587.716 -0.880192 2.17462 0
M  V30 6294 C 588.732 -1.31135 1.14366 0
M  V30 6295 O 589.908 -1.37958 1.46729 0
M  V30 6296 C 586.973 -2.12184 2.74188 0
M  V30 6297 C 586.034 -1.74503 3.92234 0
M  V30 6298 C 585.267 -2.92748 4.46245 0
M  V30 6299 O 585.49 -4.07427 3.99198 0
M  V30 6300 O 584.424 -2.71303 5.37288 0
M  V30 6301 H 588.25 -0.398516 3.01074 0
M  V30 6302 H 585.835 -0.130707 1.48827 0
M  V30 6303 H 587.717 -2.84953 3.10451 0
M  V30 6304 H 586.392 -2.59407 1.93623 0
M  V30 6305 H 585.299 -0.989186 3.60785 0
M  V30 6306 H 586.632 -1.32044 4.74157 0
M  V30 6307 N 588.284 -1.56567 -0.180126 0
M  V30 6308 C 589.194 -1.98947 -1.24327 0
M  V30 6309 C 590.21 -0.899446 -1.4895 0
M  V30 6310 O 591.386 -1.20639 -1.61271 0
M  V30 6311 C 588.451 -2.33328 -2.56435 0
M  V30 6312 C 587.512 -3.56114 -2.39752 0
M  V30 6313 C 586.745 -3.88845 -3.65561 0
M  V30 6314 O 586.968 -3.22662 -4.70368 0
M  V30 6315 O 585.902 -4.82226 -3.60197 0
M  V30 6316 H 589.728 -2.89634 -0.913565 0
M  V30 6317 H 587.313 -1.44319 -0.386306 0
M  V30 6318 H 589.195 -2.5645 -3.34382 0
M  V30 6319 H 587.87 -1.45806 -2.89002 0
M  V30 6320 H 586.777 -3.38221 -1.59866 0
M  V30 6321 H 588.11 -4.4415 -2.12113 0
M  V30 6322 N 589.762 0.448376 -1.51087 0
M  V30 6323 C 590.692 1.55102 -1.74544 0
M  V30 6324 C 591.673 1.59357 -0.594932 0
M  V30 6325 O 592.858 1.75261 -0.836491 0
M  V30 6326 C 589.988 2.93268 -1.86041 0
M  V30 6327 C 588.942 3.03877 -3.01402 0
M  V30 6328 C 588.268 4.43914 -2.98068 0
M  V30 6329 C 589.568 2.7898 -4.41551 0
M  V30 6330 H 591.262 1.35724 -2.66869 0
M  V30 6331 H 588.808 0.651498 -1.28419 0
M  V30 6332 H 590.761 3.70356 -2.01034 0
M  V30 6333 H 589.485 3.13853 -0.903548 0
M  V30 6334 H 588.144 2.29227 -2.86096 0
M  V30 6335 H 587.792 4.6145 -2.00182 0
M  V30 6336 H 587.492 4.51944 -3.75527 0
M  V30 6337 H 589.016 5.22991 -3.1514 0
M  V30 6338 H 590.43 3.45805 -4.57265 0
M  V30 6339 H 588.827 2.98431 -5.20633 0
M  V30 6340 H 589.897 1.74663 -4.5235 0
M  V30 6341 N 591.24 1.41047 0.703093 0
M  V30 6342 C 592.203 1.42036 1.79884 0
M  V30 6343 C 593.203 0.312153 1.57741 0
M  V30 6344 O 594.393 0.571672 1.64553 0
M  V30 6345 C 591.525 1.22437 3.18154 0
M  V30 6346 H 592.718 2.39572 1.80403 0
M  V30 6347 H 590.271 1.27079 0.909977 0
M  V30 6348 H 591.006 0.257112 3.23279 0
M  V30 6349 H 590.791 2.02723 3.35627 0
M  V30 6350 H 592.281 1.25946 3.98155 0
M  V30 6351 N 592.718 -0.936591 1.26751 0
M  V30 6352 C 593.65 -2.03991 1.045 0
M  V30 6353 C 594.663 -1.628 0.00394261 0
M  V30 6354 O 595.852 -1.76817 0.244526 0
M  V30 6355 C 592.952 -3.34218 0.561403 0
M  V30 6356 C 592.125 -4.04151 1.67274 0
M  V30 6357 C 591.184 -5.12651 1.1864 0
M  V30 6358 O 590.21 -5.37104 1.88437 0
M  V30 6359 N 591.412 -5.80488 0.037278 0
M  V30 6360 H 594.177 -2.23644 1.99508 0
M  V30 6361 H 591.738 -1.10638 1.18198 0
M  V30 6362 H 593.73 -4.04101 0.220136 0
M  V30 6363 H 592.3 -3.11203 -0.295211 0
M  V30 6364 H 591.52 -3.28121 2.18472 0
M  V30 6365 H 592.808 -4.47626 2.41885 0
M  V30 6366 H 592.206 -5.63064 -0.545494 0
M  V30 6367 H 590.763 -6.5134 -0.244877 0
M  V30 6368 N 594.196 -1.08629 -1.14182 0
M  V30 6369 C 595.126 -0.740003 -2.21464 0
M  V30 6370 C 596.107 0.278591 -1.67803 0
M  V30 6371 O 597.292 0.148461 -1.93632 0
M  V30 6372 C 594.422 -0.150952 -3.46972 0
M  V30 6373 C 593.376 -1.09815 -4.13672 0
M  V30 6374 C 592.702 -0.3712 -5.3341 0
M  V30 6375 C 594.002 -2.43722 -4.61949 0
M  V30 6376 H 595.696 -1.63697 -2.50686 0
M  V30 6377 H 593.242 -0.788526 -1.20492 0
M  V30 6378 H 595.195 0.103325 -4.21273 0
M  V30 6379 H 593.919 0.781164 -3.1712 0
M  V30 6380 H 592.578 -1.33756 -3.41328 0
M  V30 6381 H 592.226 0.564792 -4.99819 0
M  V30 6382 H 591.926 -1.00267 -5.78982 0
M  V30 6383 H 593.45 -0.12503 -6.10472 0
M  V30 6384 H 594.864 -2.24034 -5.27714 0
M  V30 6385 H 593.261 -3.02582 -5.18232 0
M  V30 6386 H 594.331 -3.05082 -3.76899 0
M  V30 6387 N 595.674 1.31259 -0.872281 0
M  V30 6388 C 596.637 2.26744 -0.334656 0
M  V30 6389 C 597.637 1.52307 0.515681 0
M  V30 6390 O 598.827 1.71148 0.324656 0
M  V30 6391 C 595.959 3.36841 0.524482 0
M  V30 6392 H 597.152 2.75812 -1.17762 0
M  V30 6393 H 594.705 1.42232 -0.648064 0
M  V30 6394 H 595.44 2.93069 1.38855 0
M  V30 6395 H 595.225 3.92009 -0.0844299 0
M  V30 6396 H 596.715 4.07944 0.892838 0
M  V30 6397 N 597.152 0.631951 1.44375 0
M  V30 6398 C 598.563 0.219036 1.85411 0
M  V30 6399 C 598.914 -1.22974 1.52879 0
M  V30 6400 O 598.039 -1.93579 0.967266 0
M  V30 6401 C 598.634 0.39075 3.36539 0
M  V30 6402 C 597.193 0.0323351 3.76386 0
M  V30 6403 C 596.34 0.703744 2.68221 0
M  V30 6404 H 599.291 0.837056 1.3483 0
M  V30 6405 H 599.312 -0.370056 3.78696 0
M  V30 6406 H 598.824 1.44527 3.60185 0
M  V30 6407 H 596.925 -1.02042 3.58355 0
M  V30 6408 H 597.038 0.442969 4.77048 0
M  V30 6409 H 595.402 0.138974 2.54321 0
M  V30 6410 H 596.185 1.76088 2.947 0
M  V30 6411 N 598.631 -1.53133 0.372548 0
M  V30 6412 C 599.859 -2.05774 -0.215515 0
M  V30 6413 C 600.274 -1.24555 -1.41886 0
M  V30 6414 O 599.631 -0.287951 -1.80214 0
M  V30 6415 C 599.682 -3.5645 -0.602161 0
M  V30 6416 O 599.403 -4.34591 0.553359 0
M  V30 6417 C 600.904 -4.25374 -1.24787 0
M  V30 6418 H 598.124 -0.670009 -0.0364529 0
M  V30 6419 H 600.668 -1.97434 0.532934 0
M  V30 6420 H 598.823 -3.64918 -1.30052 0
M  V30 6421 H 599.237 -5.23954 0.239336 0
M  V30 6422 H 600.711 -5.32097 -1.46891 0
M  V30 6423 H 601.188 -3.79531 -2.21026 0
M  V30 6424 H 601.794 -4.21177 -0.590752 0
M  V30 6425 N 600.109 -0.101901 -1.5727 0
M  V30 6426 C 601.52 0.426173 -1.81771 0
M  V30 6427 C 601.871 1.67725 -1.01797 0
M  V30 6428 O 600.996 2.14958 -0.249386 0
M  V30 6429 C 601.591 0.779962 -3.297 0
M  V30 6430 C 600.15 1.25275 -3.54941 0
M  V30 6431 C 599.297 0.252814 -2.76145 0
M  V30 6432 H 602.248 -0.32726 -1.55289 0
M  V30 6433 H 602.269 1.63891 -3.43395 0
M  V30 6434 H 601.781 -0.130778 -3.8788 0
M  V30 6435 H 599.882 2.18097 -3.021 0
M  V30 6436 H 599.995 1.20988 -4.63572 0
M  V30 6437 H 598.359 0.736362 -2.43823 0
M  V30 6438 H 599.142 -0.650724 -3.37076 0
M  V30 6439 N 601.587 1.56661 0.17182 0
M  V30 6440 C 602.835 1.81606 0.886774 0
M  V30 6441 C 603.156 0.678818 1.82803 0
M  V30 6442 O 602.426 -0.301354 1.93568 0
M  V30 6443 H 601.006 0.669934 0.330451 0
M  V30 6444 H 603.668 1.94142 0.171757 0
M  V30 6445 H 602.764 2.75634 1.46398 0
M  V30 6446 N 603.065 -0.440357 1.51323 0
M  V30 6447 C 604.342 -1.20109 1.5438 0
M  V30 6448 C 604.722 -2.08866 0.306303 0
M  V30 6449 O 604.07 -2.1723 -0.708773 0
M  V30 6450 C 604.28 -2.00555 2.8562 0
M  V30 6451 C 605.628 -2.577 3.37455 0
M  V30 6452 O 606.652 -2.10769 2.8715 0
M  V30 6453 O 605.511 -3.43289 4.25224 0
M  V30 6454 H 602.605 -0.546668 0.620551 0
M  V30 6455 H 605.151 -0.449672 1.63634 0
M  V30 6456 H 603.923 -1.35346 3.67147 0
M  V30 6457 H 603.546 -2.82768 2.79514 0
M  V30 6458 N 604.543 -1.41418 -0.695603 0
M  V30 6459 C 605.506 -1.42988 -1.79129 0
M  V30 6460 C 606.506 -0.320514 -1.57573 0
M  V30 6461 O 607.696 -0.58039 -1.64247 0
M  V30 6462 C 604.828 -1.24122 -3.175 0
M  V30 6463 H 606.021 -2.40526 -1.7913 0
M  V30 6464 H 603.574 -1.2756 -0.903225 0
M  V30 6465 H 604.309 -0.274253 -3.23138 0
M  V30 6466 H 604.094 -2.045 -3.34547 0
M  V30 6467 H 605.584 -1.28056 -3.97481 0
M  V30 6468 N 606.021 0.929856 -1.27246 0
M  V30 6469 C 607.27 1.67182 -1.12842 0
M  V30 6470 C 607.583 1.9287 0.325666 0
M  V30 6471 O 608.789 2.64999 0.590572 0
M  V30 6472 C 607.245 3.01097 -1.97151 0
M  V30 6473 C 606.853 2.83115 -3.47203 0
M  V30 6474 C 608.597 3.78907 -1.91389 0
M  V30 6475 C 606.504 4.12573 -4.23719 0
M  V30 6476 H 605.434 0.627064 -0.418697 0
M  V30 6477 H 608.085 1.0332 -1.51649 0
M  V30 6478 H 606.467 3.66004 -1.51186 0
M  V30 6479 H 607.641 2.26989 -4.01015 0
M  V30 6480 H 605.956 2.18736 -3.54321 0
M  V30 6481 H 608.553 4.74837 -2.45834 0
M  V30 6482 H 608.896 4.0674 -0.887047 0
M  V30 6483 H 609.429 3.20794 -2.35237 0
M  V30 6484 H 606.168 3.8992 -5.26918 0
M  V30 6485 H 605.688 4.68371 -3.74685 0
M  V30 6486 H 607.367 4.8095 -4.32777 0
M  V30 6487 N 607.499 1.09233 1.13605 0
M  V30 6488 C 608.748 0.82205 1.84188 0
M  V30 6489 C 609.061 -0.654548 1.84323 0
M  V30 6490 O 610.267 -1.04029 2.50779 0
M  V30 6491 C 608.723 1.42066 3.30674 0
M  V30 6492 C 608.331 2.92965 3.38933 0
M  V30 6493 C 610.075 1.22924 4.06313 0
M  V30 6494 C 607.982 3.45922 4.79679 0
M  V30 6495 H 606.912 0.303854 0.690064 0
M  V30 6496 H 609.563 1.31479 1.28006 0
M  V30 6497 H 607.945 0.855613 3.86646 0
M  V30 6498 H 609.119 3.55679 2.92966 0
M  V30 6499 H 607.434 3.11118 2.76757 0
M  V30 6500 H 610.031 1.59945 5.10217 0
M  V30 6501 H 610.374 0.169726 4.15954 0
M  V30 6502 H 610.907 1.76168 3.56665 0
M  V30 6503 H 607.646 4.51484 4.75229 0
M  V30 6504 H 607.166 2.87971 5.26149 0
M  V30 6505 H 608.845 3.43009 5.48592 0
M  V30 6506 N 608.977 -1.30795 0.87923 0
M  V30 6507 C 610.202 -2.01063 0.508769 0
M  V30 6508 C 610.627 -1.65508 -0.893803 0
M  V30 6509 O 609.985 -0.868616 -1.59138 0
M  V30 6510 C 610.033 -3.54054 0.683991 0
M  V30 6511 O 609.137 -4.11498 -0.272654 0
M  V30 6512 H 608.478 -0.632786 0.201191 0
M  V30 6513 H 611.008 -1.66776 1.18519 0
M  V30 6514 H 611.018 -4.03845 0.580798 0
M  V30 6515 H 609.693 -3.79271 1.70665 0
M  V30 6516 H 608.27 -3.72695 -0.12364 0
M  V30 6517 N 610.455 -0.639598 -1.44038 0
M  V30 6518 C 611.385 0.0469443 -2.33453 0
M  V30 6519 C 612.366 0.82609 -1.48694 0
M  V30 6520 O 613.551 0.790285 -1.77393 0
M  V30 6521 C 610.681 1.02338 -3.3188 0
M  V30 6522 C 609.635 0.355284 -4.26523 0
M  V30 6523 C 608.961 1.44221 -5.14883 0
M  V30 6524 C 610.261 -0.743798 -5.16977 0
M  V30 6525 H 611.955 -0.699735 -2.91108 0
M  V30 6526 H 609.501 -0.337946 -1.39978 0
M  V30 6527 H 611.454 1.51247 -3.93322 0
M  V30 6528 H 610.178 1.80105 -2.72451 0
M  V30 6529 H 608.837 -0.113239 -3.66425 0
M  V30 6530 H 608.485 2.21097 -4.51802 0
M  V30 6531 H 608.185 1.00052 -5.79019 0
M  V30 6532 H 609.709 1.93295 -5.79197 0
M  V30 6533 H 611.123 -0.337444 -5.72306 0
M  V30 6534 H 609.52 -1.10914 -5.89761 0
M  V30 6535 H 610.59 -1.60745 -4.57481 0
M  V30 6536 N 611.933 1.52934 -0.380664 0
M  V30 6537 C 613.21 1.93845 0.261417 0
M  V30 6538 C 613.59 1.31544 1.65104 0
M  V30 6539 O 612.938 0.480234 2.23397 0
M  V30 6540 C 613.148 3.47739 0.296466 0
M  V30 6541 C 614.496 4.21284 0.529578 0
M  V30 6542 O 615.52 3.54199 0.377041 0
M  V30 6543 O 614.379 5.40195 0.827753 0
M  V30 6544 H 611.473 0.811318 0.160285 0
M  V30 6545 H 614.019 1.64042 -0.434544 0
M  V30 6546 H 612.791 3.85395 -0.67724 0
M  V30 6547 H 612.414 3.8382 1.0377 0
M  V30 6548 N 613.412 0.11024 1.57214 0
M  V30 6549 C 614.659 -0.54987 1.94891 0
M  V30 6550 C 614.987 -1.67243 0.992984 0
M  V30 6551 O 614.242 -1.95694 0.0152703 0
M  V30 6552 C 614.541 -1.13102 3.39032 0
M  V30 6553 C 614.207 -0.130713 4.5071 0
M  V30 6554 C 612.869 0.14437 4.80983 0
M  V30 6555 C 615.221 0.551472 5.18274 0
M  V30 6556 C 612.549 1.10807 5.76141 0
M  V30 6557 C 614.901 1.50375 6.14467 0
M  V30 6558 C 613.565 1.78691 6.43138 0
M  V30 6559 H 612.835 -0.201212 0.713158 0
M  V30 6560 H 615.482 0.189288 1.90562 0
M  V30 6561 H 613.787 -1.94675 3.40013 0
M  V30 6562 H 615.484 -1.64973 3.65493 0
M  V30 6563 H 612.074 -0.355301 4.27125 0
M  V30 6564 H 616.258 0.35211 4.95049 0
M  V30 6565 H 611.514 1.3343 5.96663 0
M  V30 6566 H 615.688 2.03808 6.65909 0
M  V30 6567 H 613.315 2.53522 7.1668 0
M  V30 6568 N 614.89 -1.56749 -0.16351 0
M  V30 6569 C 616.138 -1.82074 -0.87713 0
M  V30 6570 C 616.459 -0.688503 -1.82441 0
M  V30 6571 O 615.729 0.291085 -1.93725 0
M  V30 6572 H 614.309 -0.671677 -0.326893 0
M  V30 6573 H 616.971 -1.9423 -0.161459 0
M  V30 6574 H 616.067 -2.76407 -1.44934 0
M  V30 6575 N 616.368 0.432326 -1.51554 0
M  V30 6576 C 617.316 1.54572 -1.73811 0
M  V30 6577 C 618.31 1.58246 -0.604539 0
M  V30 6578 O 619.516 1.6193 -0.786041 0
M  V30 6579 H 615.891 0.513626 -0.549265 0
M  V30 6580 H 617.862 1.32977 -2.67132 0
M  V30 6581 C 616.611 2.92181 -1.88483 0
M  V30 6582 H 615.934 2.90088 -2.75116 0
M  V30 6583 H 617.374 3.69439 -2.08065 0
M  V30 6584 C 615.833 3.3065 -0.645909 0
M  V30 6585 O 616.363 4.01216 0.197093 0
M  V30 6586 N 614.569 2.86464 -0.488538 0
M  V30 6587 H 614.116 2.29209 -1.17562 0
M  V30 6588 H 614.074 3.12565 0.339156 0
M  V30 6589 N 617.846 1.41785 0.688094 0
M  V30 6590 C 618.778 1.40159 1.81351 0
M  V30 6591 C 619.791 0.30262 1.59963 0
M  V30 6592 O 620.98 0.564841 1.69327 0
M  V30 6593 C 618.08 1.16517 3.1824 0
M  V30 6594 C 617.253 2.38597 3.66593 0
M  V30 6595 C 616.312 2.10699 4.82174 0
M  V30 6596 O 615.338 2.83798 4.93404 0
M  V30 6597 N 616.54 1.10187 5.69947 0
M  V30 6598 H 619.305 2.3716 1.83236 0
M  V30 6599 H 616.866 1.36494 0.870697 0
M  V30 6600 H 618.858 0.957941 3.93199 0
M  V30 6601 H 617.428 0.280873 3.11336 0
M  V30 6602 H 616.648 2.74974 2.82459 0
M  V30 6603 H 617.936 3.19919 3.95638 0
M  V30 6604 H 617.334 0.497016 5.63512 0
M  V30 6605 H 615.891 0.954518 6.44773 0
M  V30 6606 N 619.324 -0.923095 1.27737 0
M  V30 6607 C 620.272 -2.04567 1.10703 0
M  V30 6608 C 621.266 -1.69375 0.0288445 0
M  V30 6609 O 622.472 -1.79027 0.186913 0
M  V30 6610 H 618.847 -0.670109 0.34126 0
M  V30 6611 H 620.818 -2.1608 2.05796 0
M  V30 6612 C 619.567 -3.38934 0.775837 0
M  V30 6613 H 618.89 -3.66501 1.59741 0
M  V30 6614 H 620.33 -4.18239 0.696548 0
M  V30 6615 C 618.789 -3.32863 -0.520012 0
M  V30 6616 O 619.319 -3.70462 -1.55308 0
M  V30 6617 N 617.525 -2.85958 -0.51732 0
M  V30 6618 H 617.072 -2.55557 0.32379 0
M  V30 6619 H 617.03 -2.82279 -1.38441 0
M  V30 6620 N 620.802 -1.09834 -1.13024 0
M  V30 6621 C 622.049 -0.83695 -1.84395 0
M  V30 6622 C 622.377 0.637463 -1.83757 0
M  V30 6623 O 621.632 1.48554 -1.27398 0
M  V30 6624 C 621.931 -1.32263 -3.32026 0
M  V30 6625 C 621.597 -2.80739 -3.52841 0
M  V30 6626 C 620.259 -3.21286 -3.5823 0
M  V30 6627 C 622.611 -3.76449 -3.60466 0
M  V30 6628 C 619.939 -4.56308 -3.68781 0
M  V30 6629 C 622.291 -5.11266 -3.72546 0
M  V30 6630 C 620.955 -5.51397 -3.76189 0
M  V30 6631 H 620.225 -0.306262 -0.674748 0
M  V30 6632 H 622.872 -1.37385 -1.33408 0
M  V30 6633 H 621.177 -0.705618 -3.85394 0
M  V30 6634 H 622.874 -1.09695 -3.85705 0
M  V30 6635 H 619.464 -2.48363 -3.49305 0
M  V30 6636 H 623.648 -3.46234 -3.55578 0
M  V30 6637 H 618.904 -4.86832 -3.69871 0
M  V30 6638 H 623.078 -5.85279 -3.77388 0
M  V30 6639 H 620.705 -6.56017 -3.84117 0
M  V30 6640 N 622.28 1.30327 -0.886154 0
M  V30 6641 C 623.19 2.31854 -0.357866 0
M  V30 6642 C 624.206 1.65392 0.540502 0
M  V30 6643 O 625.382 1.96683 0.433339 0
M  V30 6644 C 622.447 3.44171 0.417999 0
M  V30 6645 C 621.508 4.26257 -0.510263 0
M  V30 6646 C 620.741 5.3321 0.228669 0
M  V30 6647 O 620.964 5.51542 1.45458 0
M  V30 6648 O 619.898 6.0042 -0.421832 0
M  V30 6649 H 623.724 2.78995 -1.19982 0
M  V30 6650 H 621.309 1.34518 -0.650028 0
M  V30 6651 H 623.191 4.12588 0.857251 0
M  V30 6652 H 621.866 2.99164 1.23623 0
M  V30 6653 H 620.773 3.60533 -0.99835 0
M  V30 6654 H 622.106 4.74871 -1.29454 0
M  V30 6655 N 623.758 0.647228 1.43697 0
M  V30 6656 C 624.668 -0.0487997 2.34549 0
M  V30 6657 C 625.684 -0.818586 1.53542 0
M  V30 6658 O 626.86 -0.767195 1.86215 0
M  V30 6659 C 623.925 -1.00734 3.31743 0
M  V30 6660 C 622.986 -0.23515 4.28655 0
M  V30 6661 C 622.219 -1.14803 5.21206 0
M  V30 6662 O 622.442 -2.38717 5.18045 0
M  V30 6663 O 621.376 -0.623667 5.9866 0
M  V30 6664 H 625.202 0.698863 2.9555 0
M  V30 6665 H 622.787 0.407412 1.43738 0
M  V30 6666 H 624.669 -1.55837 3.91526 0
M  V30 6667 H 623.344 -1.73534 2.73254 0
M  V30 6668 H 622.251 0.359319 3.7237 0
M  V30 6669 H 623.584 0.453152 4.9011 0
M  V30 6670 N 625.236 -1.5273 0.388769 0
M  V30 6671 C 626.461 -2.0647 -0.19621 0
M  V30 6672 C 626.886 -1.25865 -1.39784 0
M  V30 6673 O 626.244 -0.283562 -1.79069 0
M  V30 6674 C 626.292 -3.56456 -0.5451 0
M  V30 6675 O 625.396 -3.78426 -1.63912 0
M  V30 6676 H 624.737 -0.663599 -0.023067 0
M  V30 6677 H 627.267 -1.96898 0.556084 0
M  V30 6678 H 627.277 -3.99888 -0.809557 0
M  V30 6679 H 625.952 -4.14561 0.333417 0
M  V30 6680 H 624.529 -3.46884 -1.36842 0
M  V30 6681 N 626.714 -0.118576 -1.57153 0
M  V30 6682 C 627.939 0.550582 -1.99958 0
M  V30 6683 C 628.364 1.59458 -0.997736 0
M  V30 6684 O 627.722 1.81274 0.0306269 0
M  V30 6685 C 627.77 1.15379 -3.41643 0
M  V30 6686 O 626.874 2.26932 -3.44348 0
M  V30 6687 H 626.215 0.137567 -0.649593 0
M  V30 6688 H 628.745 -0.206926 -2.03551 0
M  V30 6689 H 628.755 1.48942 -3.79843 0
M  V30 6690 H 627.43 0.389087 -4.14076 0
M  V30 6691 H 626.007 1.94812 -3.17967 0
M  V30 6692 N 628.193 1.56834 0.155195 0
M  V30 6693 C 629.156 1.96748 1.17571 0
M  V30 6694 C 630.156 0.853006 1.3631 0
M  V30 6695 O 631.346 1.11978 1.33441 0
M  V30 6696 C 628.478 2.27631 2.53765 0
M  V30 6697 H 629.671 2.88085 0.833498 0
M  V30 6698 H 627.224 1.51141 0.398242 0
M  V30 6699 H 627.959 1.39059 2.92973 0
M  V30 6700 H 627.744 3.0888 2.41527 0
M  V30 6701 H 629.234 2.59377 3.27282 0
M  V30 6702 N 629.671 -0.424282 1.51781 0
M  V30 6703 C 630.901 -1.19297 1.68677 0
M  V30 6704 C 631.309 -1.85152 0.389258 0
M  V30 6705 O 630.652 -1.72067 -0.643311 0
M  V30 6706 C 630.714 -2.30929 2.75521 0
M  V30 6707 C 630.378 -1.85335 4.17732 0
M  V30 6708 C 631.375 -1.34951 5.0208 0
M  V30 6709 C 629.06 -1.92629 4.63896 0
M  V30 6710 C 631.054 -0.924636 6.30658 0
M  V30 6711 C 628.741 -1.49754 5.92467 0
M  V30 6712 C 629.739 -0.997543 6.75676 0
M  V30 6713 O 629.427 -0.57492 8.01842 0
M  V30 6714 H 629.159 -0.36512 0.568914 0
M  V30 6715 H 631.713 -0.507327 1.99036 0
M  V30 6716 H 629.943 -3.02811 2.40505 0
M  V30 6717 H 631.632 -2.92748 2.81165 0
M  V30 6718 H 632.398 -1.287 4.67612 0
M  V30 6719 H 628.277 -2.30491 3.99243 0
M  V30 6720 H 631.821 -0.533682 6.95556 0
M  V30 6721 H 627.718 -1.55679 6.26446 0
M  V30 6722 H 628.486 -0.699597 8.15505 0
M  V30 6723 N 631.149 -1.42148 -0.680565 0
M  V30 6724 C 632.397 -1.42029 -1.43779 0
M  V30 6725 C 632.718 -0.0356347 -1.94967 0
M  V30 6726 O 631.988 0.924936 -1.7269 0
M  V30 6727 H 630.568 -0.522835 -0.533529 0
M  V30 6728 H 633.23 -1.7752 -0.804538 0
M  V30 6729 H 632.326 -2.11658 -2.29363 0
M  V30 6730 N 632.627 0.916307 -1.28225 0
M  V30 6731 C 633.574 2.01841 -1.11932 0
M  V30 6732 C 634.544 1.66091 -0.0171604 0
M  V30 6733 O 635.729 1.89934 -0.181617 0
M  V30 6734 C 632.869 3.36065 -0.784504 0
M  V30 6735 C 631.982 3.847 -1.96544 0
M  V30 6736 C 631.117 5.07423 -1.57149 0
M  V30 6737 C 630.156 5.48384 -2.71922 0
M  V30 6738 N 629.293 6.62298 -2.33037 0
M  V30 6739 H 634.133 2.1511 -2.06232 0
M  V30 6740 H 631.67 1.05366 -1.02647 0
M  V30 6741 H 633.628 4.13272 -0.571148 0
M  V30 6742 H 632.258 3.22571 0.121565 0
M  V30 6743 H 631.31 3.03673 -2.291 0
M  V30 6744 H 632.622 4.1102 -2.82603 0
M  V30 6745 H 631.776 5.92165 -1.32004 0
M  V30 6746 H 630.515 4.82906 -0.682153 0
M  V30 6747 H 629.52 4.62184 -2.97768 0
M  V30 6748 H 630.745 5.7489 -3.61494 0
M  V30 6749 H 628.691 6.39416 -1.4657 0
M  V30 6750 H 628.608 6.8833 -3.12631 0
M  V30 6751 H 629.876 7.50352 -2.11169 0
M  V30 6752 N 634.105 1.10431 1.1244 0
M  V30 6753 C 635.068 0.756542 2.16354 0
M  V30 6754 C 636.068 -0.21899 1.59302 0
M  V30 6755 O 637.258 0.00415969 1.742 0
M  V30 6756 C 634.39 0.120612 3.40687 0
M  V30 6757 H 635.583 1.67696 2.48632 0
M  V30 6758 H 633.136 0.904832 1.27446 0
M  V30 6759 H 633.871 -0.810536 3.14008 0
M  V30 6760 H 633.656 0.822693 3.83372 0
M  V30 6761 H 635.146 -0.106945 4.17463 0
M  V30 6762 N 635.583 -1.29855 0.893053 0
M  V30 6763 C 636.832 -1.95104 0.511597 0
M  V30 6764 C 637.145 -1.71226 -0.945567 0
M  V30 6765 O 638.351 -2.30525 -1.43424 0
M  V30 6766 C 636.807 -3.49374 0.864034 0
M  V30 6767 C 636.415 -3.82061 2.33952 0
M  V30 6768 C 638.159 -4.20894 0.552167 0
M  V30 6769 C 636.066 -5.29546 2.63316 0
M  V30 6770 H 634.996 -0.73029 0.187597 0
M  V30 6771 H 637.647 -1.47682 1.08914 0
M  V30 6772 H 636.029 -3.95413 0.215493 0
M  V30 6773 H 637.203 -3.46904 3.03305 0
M  V30 6774 H 635.518 -3.23665 2.61973 0
M  V30 6775 H 638.115 -5.29435 0.748489 0
M  V30 6776 H 638.458 -4.13178 -0.508924 0
M  V30 6777 H 638.991 -3.80564 1.15825 0
M  V30 6778 H 635.73 -5.4232 3.68197 0
M  V30 6779 H 635.25 -5.65974 1.9858 0
M  V30 6780 H 636.929 -5.97068 2.49236 0
M  V30 6781 N 637.061 -0.65484 -1.43351 0
M  V30 6782 C 637.991 0.0221809 -2.33489 0
M  V30 6783 C 638.972 0.810272 -1.49561 0
M  V30 6784 O 640.157 0.771426 -1.78221 0
M  V30 6785 C 637.287 0.988117 -3.32947 0
M  V30 6786 C 636.241 0.310026 -4.26876 0
M  V30 6787 C 635.567 1.38752 -5.16384 0
M  V30 6788 C 636.867 -0.798589 -5.16159 0
M  V30 6789 H 638.561 -0.730571 -2.9035 0
M  V30 6790 H 636.107 -0.352773 -1.39612 0
M  V30 6791 H 638.06 1.47067 -3.94904 0
M  V30 6792 H 636.784 1.77205 -2.74346 0
M  V30 6793 H 635.443 -0.152097 -3.66284 0
M  V30 6794 H 635.091 2.16293 -4.54121 0
M  V30 6795 H 634.791 0.939051 -5.80048 0
M  V30 6796 H 636.315 1.87141 -5.81215 0
M  V30 6797 H 637.729 -0.398126 -5.71916 0
M  V30 6798 H 636.126 -1.17163 -5.88552 0
M  V30 6799 H 637.196 -1.65588 -4.55751 0
M  V30 6800 N 638.539 1.52521 -0.396863 0
M  V30 6801 C 639.95 1.86547 0.0754868 0
M  V30 6802 C 640.301 1.31621 1.45501 0
M  V30 6803 O 639.426 0.650563 2.0639 0
M  V30 6804 C 640.021 3.38495 0.143754 0
M  V30 6805 C 638.58 3.72205 0.560413 0
M  V30 6806 C 637.727 2.75954 -0.272856 0
M  V30 6807 H 640.678 1.46323 -0.614434 0
M  V30 6808 H 640.699 3.68153 0.961425 0
M  V30 6809 H 640.211 3.78442 -0.860415 0
M  V30 6810 H 638.312 3.3783 1.57167 0
M  V30 6811 H 638.425 4.78074 0.313314 0
M  V30 6812 H 636.789 2.53339 0.263 0
M  V30 6813 H 637.572 3.1874 -1.27515 0
M  V30 6814 N 640.017 0.126909 1.57088 0
M  V30 6815 C 641.428 -0.397201 1.82426 0
M  V30 6816 C 641.779 -1.66084 1.04453 0
M  V30 6817 O 640.904 -2.14534 0.283552 0
M  V30 6818 C 641.499 -0.727411 3.30899 0
M  V30 6819 C 640.058 -1.19612 3.56889 0
M  V30 6820 C 639.205 -0.20885 2.76512 0
M  V30 6821 H 642.156 0.351924 1.54749 0
M  V30 6822 H 642.177 -1.58407 3.45959 0
M  V30 6823 H 641.689 0.19247 3.87622 0
M  V30 6824 H 639.79 -2.13263 3.05532 0
M  V30 6825 H 639.903 -1.13598 4.65438 0
M  V30 6826 H 638.267 -0.697479 2.44964 0
M  V30 6827 H 639.05 0.704267 3.35998 0
M  V30 6828 N 641.495 -1.56914 -0.146875 0
M  V30 6829 C 642.72 -1.87881 -0.878386 0
M  V30 6830 C 643.145 -0.715945 -1.73942 0
M  V30 6831 O 642.503 0.334447 -1.78189 0
M  V30 6832 C 642.551 -3.17431 -1.71084 0
M  V30 6833 O 641.655 -3.01374 -2.81509 0
M  V30 6834 H 640.996 -0.617289 -0.244644 0
M  V30 6835 H 643.526 -2.04136 -0.137654 0
M  V30 6836 H 643.536 -3.49455 -2.10582 0
M  V30 6837 H 642.211 -4.01671 -1.07856 0
M  V30 6838 H 640.788 -2.80758 -2.45416 0
M  V30 6839 N 642.974 0.416227 -1.52004 0
M  V30 6840 C 643.906 1.52552 -1.71058 0
M  V30 6841 C 644.919 1.51693 -0.59102 0
M  V30 6842 O 646.108 1.56087 -0.865973 0
M  V30 6843 C 643.208 2.91455 -1.72937 0
M  V30 6844 C 642.381 3.16584 -3.01816 0
M  V30 6845 C 641.44 4.35322 -2.95603 0
M  V30 6846 O 640.466 4.32947 -3.6952 0
M  V30 6847 N 641.668 5.40049 -2.12903 0
M  V30 6848 H 644.433 1.36604 -2.66757 0
M  V30 6849 H 641.994 0.60544 -1.50153 0
M  V30 6850 H 643.986 3.68944 -1.66321 0
M  V30 6851 H 642.556 3.00895 -0.847418 0
M  V30 6852 H 641.776 2.27203 -3.22137 0
M  V30 6853 H 643.064 3.30213 -3.87088 0
M  V30 6854 H 642.462 5.44823 -1.52265 0
M  V30 6855 H 641.019 6.16308 -2.1215 0
M  V30 6856 N 644.452 1.42507 0.673017 0
M  V30 6857 C 645.863 1.38347 1.25367 0
M  V30 6858 C 646.214 0.0776327 1.96046 0
M  V30 6859 O 645.339 -0.823571 2.00116 0
M  V30 6860 C 645.934 2.506 2.28002 0
M  V30 6861 C 644.493 2.49767 2.81591 0
M  V30 6862 C 643.64 2.293 1.55938 0
M  V30 6863 H 646.591 1.51695 0.466288 0
M  V30 6864 H 646.612 2.20953 3.09774 0
M  V30 6865 H 646.124 3.45627 1.76532 0
M  V30 6866 H 644.225 1.58563 3.37177 0
M  V30 6867 H 644.338 3.46867 3.30485 0
M  V30 6868 H 642.702 1.77594 1.82572 0
M  V30 6869 H 643.485 3.26385 1.06431 0
M  V30 6870 N 645.93 -0.909495 1.28709 0
M  V30 6871 C 647.176 -1.66175 1.17293 0
M  V30 6872 C 647.531 -1.90426 -0.274891 0
M  V30 6873 O 646.824 -1.49659 -1.19635 0
M  V30 6874 C 647.018 -3.02117 1.90945 0
M  V30 6875 C 646.847 -2.91134 3.42741 0
M  V30 6876 C 645.617 -2.92429 4.12085 0
M  V30 6877 C 647.815 -2.68889 4.3841 0
M  V30 6878 N 645.797 -2.72078 5.50315 0
M  V30 6879 C 647.168 -2.57423 5.64033 0
M  V30 6880 C 649.223 -2.53919 4.28287 0
M  V30 6881 C 647.926 -2.32513 6.80683 0
M  V30 6882 C 649.952 -2.3039 5.44678 0
M  V30 6883 C 649.314 -2.19682 6.69268 0
M  V30 6884 H 645.413 -0.614095 0.48416 0
M  V30 6885 H 647.997 -1.07377 1.62414 0
M  V30 6886 H 646.168 -3.58993 1.48252 0
M  V30 6887 H 647.9 -3.66388 1.71878 0
M  V30 6888 H 644.655 -3.03345 3.63701 0
M  V30 6889 H 645.079 -2.64983 6.22987 0
M  V30 6890 H 649.721 -2.60946 3.32666 0
M  V30 6891 H 647.439 -2.24225 7.76369 0
M  V30 6892 H 651.025 -2.19665 5.38738 0
M  V30 6893 H 649.905 -2.01725 7.5781 0
M  V30 6894 N 647.408 -1.11026 -1.11852 0
M  V30 6895 C 648.371 -0.768006 -2.1595 0
M  V30 6896 C 649.371 0.210538 -1.59416 0
M  V30 6897 O 650.561 -0.0133978 -1.74195 0
M  V30 6898 C 647.693 -0.138678 -3.40618 0
M  V30 6899 H 648.886 -1.69012 -2.4774 0
M  V30 6900 H 646.439 -0.911578 -1.26964 0
M  V30 6901 H 647.174 0.793872 -3.14433 0
M  V30 6902 H 646.959 -0.843012 -3.8293 0
M  V30 6903 H 648.449 0.0848039 -4.17514 0
M  V30 6904 N 648.886 1.2938 -0.899927 0
M  V30 6905 C 650.114 1.99691 -0.541386 0
M  V30 6906 C 650.529 1.67355 0.873936 0
M  V30 6907 O 649.886 0.918728 1.57688 0
M  V30 6908 C 649.937 3.54168 -0.72438 0
M  V30 6909 O 649.658 3.85359 -2.08399 0
M  V30 6910 C 651.159 4.41746 -0.370819 0
M  V30 6911 H 648.379 0.638037 -0.207726 0
M  V30 6912 H 650.923 1.6491 -1.20934 0
M  V30 6913 H 649.078 3.87261 -0.103607 0
M  V30 6914 H 649.492 4.80032 -2.11352 0
M  V30 6915 H 650.966 5.49256 -0.549693 0
M  V30 6916 H 651.443 4.33712 0.692148 0
M  V30 6917 H 652.049 4.14125 -0.968543 0
M  V30 6918 N 650.364 0.662433 1.43002 0
M  V30 6919 C 651.274 -0.0239199 2.34588 0
M  V30 6920 C 652.29 -0.802255 1.54402 0
M  V30 6921 O 653.466 -0.747401 1.87018 0
M  V30 6922 C 650.531 -0.972098 3.32793 0
M  V30 6923 C 649.592 -0.189673 4.28881 0
M  V30 6924 C 648.825 -1.09269 5.22395 0
M  V30 6925 O 649.048 -2.33209 5.20547 0
M  V30 6926 O 647.982 -0.560136 5.99288 0
M  V30 6927 H 651.808 0.730171 2.94792 0
M  V30 6928 H 649.393 0.422635 1.43297 0
M  V30 6929 H 651.275 -1.51676 3.93157 0
M  V30 6930 H 649.95 -1.70626 2.75079 0
M  V30 6931 H 648.857 0.398794 3.71968 0
M  V30 6932 H 650.19 0.50511 4.89601 0
M  V30 6933 N 651.842 -1.52309 0.404946 0
M  V30 6934 C 652.772 -2.29805 -0.41376 0
M  V30 6935 C 653.753 -1.3384 -1.0498 0
M  V30 6936 O 654.938 -1.62745 -1.05961 0
M  V30 6937 C 652.068 -3.11639 -1.53292 0
M  V30 6938 C 651.022 -4.15616 -1.02211 0
M  V30 6939 C 650.348 -4.8577 -2.23455 0
M  V30 6940 C 651.648 -5.2224 -0.0790725 0
M  V30 6941 H 653.342 -2.98493 0.232878 0
M  V30 6942 H 650.888 -1.43552 0.113441 0
M  V30 6943 H 652.841 -3.64618 -2.11262 0
M  V30 6944 H 651.565 -2.40712 -2.20738 0
M  V30 6945 H 650.224 -3.63641 -0.46484 0
M  V30 6946 H 649.872 -4.11376 -2.89445 0
M  V30 6947 H 649.572 -5.56058 -1.89929 0
M  V30 6948 H 651.096 -5.4156 -2.82038 0
M  V30 6949 H 652.51 -5.70485 -0.567438 0
M  V30 6950 H 650.907 -5.99867 0.167167 0
M  V30 6951 H 651.977 -4.77078 0.867447 0
M  V30 6952 N 653.32 -0.135238 -1.57019 0
M  V30 6953 C 654.736 0.221262 -1.58059 0
M  V30 6954 C 654.936 1.65538 -1.14889 0
M  V30 6955 O 653.992 2.37985 -0.843751 0
M  V30 6956 C 655.305 -0.0268114 -3.00688 0
M  V30 6957 C 656.853 0.0378206 -3.12977 0
M  V30 6958 C 657.328 -0.182769 -4.57635 0
M  V30 6959 N 658.819 -0.129292 -4.6302 0
M  V30 6960 C 659.554 -0.274648 -5.72742 0
M  V30 6961 N 659.05 -0.477075 -6.91155 0
M  V30 6962 N 660.843 -0.213077 -5.61696 0
M  V30 6963 H 652.994 -1.07177 -1.83376 0
M  V30 6964 H 655.257 -0.423338 -0.848227 0
M  V30 6965 H 654.963 -1.01889 -3.36618 0
M  V30 6966 H 654.837 0.697863 -3.70688 0
M  V30 6967 H 657.224 1.02043 -2.76896 0
M  V30 6968 H 657.305 -0.718996 -2.45487 0
M  V30 6969 H 656.949 -1.16243 -4.94419 0
M  V30 6970 H 656.879 0.59423 -5.23237 0
M  V30 6971 H 659.37 0.0229896 -3.77893 0
M  V30 6972 H 659.683 -0.578413 -7.70632 0
M  V30 6973 H 658.028 -0.513252 -6.93102 0
M  V30 6974 H 661.219 -0.0557796 -4.68067 0
M  V30 6975 H 661.392 -0.329796 -6.4716 0
M  V30 6976 N 654.798 1.5699 0.138552 0
M  V30 6977 C 656.023 1.88344 0.86841 0
M  V30 6978 C 656.448 0.725159 1.7356 0
M  V30 6979 O 655.806 -0.324992 1.78363 0
M  V30 6980 C 655.854 3.18334 1.69398 0
M  V30 6981 O 654.958 3.02863 2.79907 0
M  V30 6982 H 654.299 0.618577 0.241367 0
M  V30 6983 H 656.829 2.04207 0.126826 0
M  V30 6984 H 656.839 3.50567 2.08726 0
M  V30 6985 H 655.514 4.02238 1.05725 0
M  V30 6986 H 654.091 2.82056 2.43924 0
M  V30 6987 N 656.276 -0.40816 1.52223 0
M  V30 6988 C 657.226 -1.49648 1.72016 0
M  V30 6989 C 658.21 -1.50311 0.574069 0
M  V30 6990 O 659.402 -1.56271 0.831173 0
M  V30 6991 C 656.531 -2.87566 1.87512 0
M  V30 6992 C 655.617 -2.91547 3.07995 0
M  V30 6993 N 656.008 -2.65225 4.30685 0
M  V30 6994 C 654.306 -3.22715 3.07849 0
M  V30 6995 C 655.007 -2.75799 5.12162 0
M  V30 6996 N 653.983 -3.08719 4.4743 0
M  V30 6997 H 657.785 -1.28093 2.64517 0
M  V30 6998 H 655.299 -0.61588 1.50269 0
M  V30 6999 H 657.296 -3.65899 1.99809 0
M  V30 7000 H 655.956 -3.10118 0.962114 0
M  V30 7001 H 656.967 -2.39601 4.59142 0
M  V30 7002 H 653.644 -3.50856 2.26289 0
M  V30 7003 H 655.034 -2.59155 6.1991 0
M  V30 7004 N 657.755 -1.42862 -0.66545 0
M  V30 7005 C 658.98 -1.47456 -1.45848 0
M  V30 7006 C 659.405 -0.0900312 -1.87884 0
M  V30 7007 O 658.763 0.913587 -1.56599 0
M  V30 7008 C 658.811 -2.41514 -2.67774 0
M  V30 7009 O 657.915 -1.89296 -3.66389 0
M  V30 7010 H 657.256 -0.499236 -0.437789 0
M  V30 7011 H 659.786 -1.8765 -0.815394 0
M  V30 7012 H 659.796 -2.58409 -3.15735 0
M  V30 7013 H 658.471 -3.42099 -2.36519 0
M  V30 7014 H 657.048 -1.82003 -3.25468 0
M  V30 7015 N 659.233 0.902656 -1.29189 0
M  V30 7016 C 660.461 1.68639 -1.19869 0
M  V30 7017 C 660.876 1.87254 0.241121 0
M  V30 7018 O 660.233 1.40745 1.16177 0
M  V30 7019 C 660.284 3.07251 -1.90471 0
M  V30 7020 O 660.005 2.89488 -3.28829 0
M  V30 7021 C 661.506 4.01653 -1.8759 0
M  V30 7022 H 658.726 0.526802 -0.415596 0
M  V30 7023 H 661.27 1.12901 -1.7051 0
M  V30 7024 H 659.425 3.59774 -1.43672 0
M  V30 7025 H 659.839 3.77296 -3.64346 0
M  V30 7026 H 661.313 4.96339 -2.4156 0
M  V30 7027 H 661.79 4.30881 -0.850756 0
M  V30 7028 H 662.396 3.55061 -2.34119 0
M  V30 7029 N 660.711 1.11618 1.11262 0
M  V30 7030 C 661.643 0.734015 2.17129 0
M  V30 7031 C 662.656 -0.235243 1.61091 0
M  V30 7032 O 663.845 -0.0178597 1.78491 0
M  V30 7033 C 660.945 0.0643682 3.38839 0
M  V30 7034 C 660.118 1.06092 4.24339 0
M  V30 7035 C 659.177 0.420482 5.24517 0
M  V30 7036 O 658.203 1.07495 5.58957 0
M  V30 7037 N 659.405 -0.815828 5.74739 0
M  V30 7038 H 662.17 1.64492 2.50524 0
M  V30 7039 H 659.731 1.00664 1.26801 0
M  V30 7040 H 661.723 -0.375851 4.02951 0
M  V30 7041 H 660.293 -0.749147 3.03491 0
M  V30 7042 H 659.513 1.67903 3.56654 0
M  V30 7043 H 660.801 1.73507 4.78302 0
M  V30 7044 H 660.199 -1.36668 5.48943 0
M  V30 7045 H 658.756 -1.199 6.40677 0
M  V30 7046 N 662.189 -1.289 0.906776 0
M  V30 7047 C 663.414 -1.99939 0.551303 0
M  V30 7048 C 663.839 -1.67366 -0.858496 0
M  V30 7049 O 663.197 -0.902176 -1.57259 0
M  V30 7050 C 663.245 -3.52523 0.758937 0
M  V30 7051 O 662.349 -4.11983 -0.185308 0
M  V30 7052 H 661.69 -0.628376 0.214568 0
M  V30 7053 H 664.22 -1.64225 1.2203 0
M  V30 7054 H 664.23 -4.02522 0.666329 0
M  V30 7055 H 662.905 -3.75566 1.78671 0
M  V30 7056 H 661.482 -3.72873 -0.0445577 0
M  V30 7057 N 663.667 -0.670007 -1.42649 0
M  V30 7058 C 664.577 0.0114788 -2.34597 0
M  V30 7059 C 665.593 0.794055 -1.54825 0
M  V30 7060 O 666.769 0.737472 -1.87412 0
M  V30 7061 C 663.834 0.954436 -3.33304 0
M  V30 7062 C 662.895 0.166925 -4.28975 0
M  V30 7063 C 662.128 1.06497 -5.22967 0
M  V30 7064 O 662.351 2.30446 -5.21777 0
M  V30 7065 O 661.285 0.528347 -5.99577 0
M  V30 7066 H 665.111 -0.745794 -2.944 0
M  V30 7067 H 662.696 -0.430228 -1.43071 0
M  V30 7068 H 664.578 1.49589 -3.93956 0
M  V30 7069 H 663.253 1.69164 -2.7598 0
M  V30 7070 H 662.16 -0.418515 -3.71752 0
M  V30 7071 H 663.493 -0.531067 -4.89327 0
M  V30 7072 N 665.145 1.52092 -0.413018 0
M  V30 7073 C 666.108 2.25706 0.398687 0
M  V30 7074 C 667.108 1.28221 0.970368 0
M  V30 7075 O 668.298 1.52131 0.848635 0
M  V30 7076 C 665.43 3.03029 1.5616 0
M  V30 7077 H 666.623 2.98888 -0.246131 0
M  V30 7078 H 664.176 1.5542 -0.165622 0
M  V30 7079 H 664.911 2.34205 2.24317 0
M  V30 7080 H 664.696 3.74606 1.15812 0
M  V30 7081 H 666.186 3.58857 2.13569 0
M  V30 7082 N 666.623 0.143563 1.56945 0
M  V30 7083 C 667.871 -0.507402 1.95627 0
M  V30 7084 C 668.192 -1.65626 1.02922 0
M  V30 7085 O 667.462 -1.95693 0.0901136 0
M  V30 7086 H 666.042 -0.190436 0.722318 0
M  V30 7087 H 668.704 0.218257 1.93674 0
M  V30 7088 H 667.8 -0.885816 2.99265 0
M  V30 7089 N 668.101 -1.57061 -0.130224 0
M  V30 7090 C 669.326 -1.88802 -0.858409 0
M  V30 7091 C 669.751 -0.734353 -1.73173 0
M  V30 7092 O 669.109 0.315529 -1.78533 0
M  V30 7093 C 669.157 -3.19228 -1.67708 0
M  V30 7094 O 668.261 -3.04343 -2.78297 0
M  V30 7095 H 667.602 -0.619849 -0.238083 0
M  V30 7096 H 670.132 -2.04271 -0.115995 0
M  V30 7097 H 670.142 -3.51669 -2.06864 0
M  V30 7098 H 668.817 -4.02793 -1.0359 0
M  V30 7099 H 667.394 -2.83346 -2.42425 0
M  V30 7100 N 669.579 0.400081 -1.52437 0
M  V30 7101 C 670.509 1.4947 -1.7939 0
M  V30 7102 C 671.49 1.57383 -0.645329 0
M  V30 7103 O 672.675 1.72511 -0.891826 0
M  V30 7104 C 669.805 2.87201 -1.95276 0
M  V30 7105 C 668.759 2.94134 -3.10917 0
M  V30 7106 C 668.085 4.34207 -3.1204 0
M  V30 7107 C 669.385 2.64791 -4.50203 0
M  V30 7108 H 671.079 1.27165 -2.71052 0
M  V30 7109 H 668.625 0.610312 -1.30427 0
M  V30 7110 H 670.578 3.63772 -2.12715 0
M  V30 7111 H 669.302 3.10819 -1.00294 0
M  V30 7112 H 667.961 2.20009 -2.93243 0
M  V30 7113 H 667.609 4.54848 -2.14761 0
M  V30 7114 H 667.309 4.39768 -3.89715 0
M  V30 7115 H 668.833 5.127 -3.31619 0
M  V30 7116 H 670.247 3.31083 -4.68035 0
M  V30 7117 H 668.644 2.81717 -5.29864 0
M  V30 7118 H 669.714 1.60184 -4.57678 0
M  V30 7119 N 671.057 1.43213 0.657864 0
M  V30 7120 C 672.468 1.39669 1.23893 0
M  V30 7121 C 672.819 0.0984217 1.95953 0
M  V30 7122 O 671.944 -0.8023 2.00978 0
M  V30 7123 C 672.539 2.53004 2.25332 0
M  V30 7124 C 671.098 2.5274 2.78926 0
M  V30 7125 C 670.245 2.30941 1.53497 0
M  V30 7126 H 673.196 1.52181 0.450172 0
M  V30 7127 H 673.217 2.24226 3.07413 0
M  V30 7128 H 672.729 3.4748 1.72856 0
M  V30 7129 H 670.83 1.6213 3.35477 0
M  V30 7130 H 670.943 3.50352 3.26787 0
M  V30 7131 H 669.307 1.7952 1.80678 0
M  V30 7132 H 670.09 3.27496 1.02963 0
M  V30 7133 N 672.536 -0.895792 1.29666 0
M  V30 7134 C 673.499 -1.98189 1.15124 0
M  V30 7135 C 674.499 -1.60572 0.0855717 0
M  V30 7136 O 675.689 -1.70991 0.332826 0
M  V30 7137 C 672.821 -3.32289 0.761372 0
M  V30 7138 H 674.014 -2.12518 2.11603 0
M  V30 7139 H 671.567 -1.0808 1.12908 0
M  V30 7140 H 672.302 -3.23662 -0.203393 0
M  V30 7141 H 672.087 -3.60958 1.53139 0
M  V30 7142 H 673.577 -4.1198 0.682792 0
M  V30 7143 N 674.014 -1.12206 -1.10668 0
M  V30 7144 C 675.261 -0.875875 -1.82578 0
M  V30 7145 C 675.589 0.598342 -1.85068 0
M  V30 7146 O 674.844 1.45818 -1.3052 0
M  V30 7147 C 675.143 -1.39276 -3.29146 0
M  V30 7148 C 674.809 -2.8816 -3.46806 0
M  V30 7149 C 673.471 -3.28813 -3.51334 0
M  V30 7150 C 675.823 -3.8401 -3.52399 0
M  V30 7151 C 673.151 -4.64028 -3.59019 0
M  V30 7152 C 675.503 -5.19053 -3.61617 0
M  V30 7153 C 674.167 -5.59252 -3.64408 0
M  V30 7154 H 673.437 -0.320505 -0.6681 0
M  V30 7155 H 676.084 -1.40184 -1.30464 0
M  V30 7156 H 674.389 -0.787207 -3.8381 0
M  V30 7157 H 676.086 -1.17851 -3.83291 0
M  V30 7158 H 672.676 -2.55716 -3.43958 0
M  V30 7159 H 676.86 -3.53698 -3.48154 0
M  V30 7160 H 672.116 -4.94568 -3.59461 0
M  V30 7161 H 676.29 -5.93152 -3.64889 0
M  V30 7162 H 673.917 -6.64017 -3.70116 0
M  V30 7163 N 675.492 1.28418 -0.913599 0
M  V30 7164 C 676.72 1.99106 -0.562536 0
M  V30 7165 C 677.135 1.68273 0.856137 0
M  V30 7166 O 676.492 0.935401 1.56705 0
M  V30 7167 C 676.543 3.5338 -0.761903 0
M  V30 7168 O 676.264 3.83127 -2.12475 0
M  V30 7169 C 677.765 4.41328 -0.417651 0
M  V30 7170 H 674.985 0.635798 -0.214481 0
M  V30 7171 H 677.529 1.63618 -1.22676 0
M  V30 7172 H 675.684 3.8713 -0.144676 0
M  V30 7173 H 676.098 4.77763 -2.16431 0
M  V30 7174 H 677.572 5.48642 -0.607919 0
M  V30 7175 H 678.049 4.34422 0.646108 0
M  V30 7176 H 678.655 4.13074 -1.01241 0
M  V30 7177 N 676.97 0.677563 1.42291 0
M  V30 7178 C 678.216 0.201272 2.01799 0
M  V30 7179 C 678.549 -1.19004 1.53465 0
M  V30 7180 O 677.824 -1.79953 0.738039 0
M  V30 7181 C 678.107 0.238968 3.59306 0
M  V30 7182 C 677.96 1.66594 4.17812 0
M  V30 7183 C 679.279 -0.411287 4.38174 0
M  V30 7184 H 676.398 0.0746114 0.733214 0
M  V30 7185 H 679.04 0.862872 1.69276 0
M  V30 7186 H 677.19 -0.324368 3.87144 0
M  V30 7187 H 678.862 2.28173 4.00917 0
M  V30 7188 H 677.105 2.20576 3.73536 0
M  V30 7189 H 677.776 1.64398 5.26951 0
M  V30 7190 H 680.252 0.0682804 4.16044 0
M  V30 7191 H 679.128 -0.354286 5.47755 0
M  V30 7192 H 679.389 -1.4893 4.1626 0
M  V30 7193 N 678.448 -1.51871 0.421078 0
M  V30 7194 C 679.859 -1.86644 -0.0457991 0
M  V30 7195 C 680.21 -1.33919 -1.43388 0
M  V30 7196 O 679.335 -0.683316 -2.05328 0
M  V30 7197 C 679.93 -3.38681 -0.0898844 0
M  V30 7198 C 678.489 -3.73049 -0.501127 0
M  V30 7199 C 677.636 -2.75485 0.316723 0
M  V30 7200 H 680.587 -1.45327 0.637635 0
M  V30 7201 H 680.608 -3.69636 -0.902734 0
M  V30 7202 H 680.12 -3.77025 0.920513 0
M  V30 7203 H 678.221 -3.40288 -1.51773 0
M  V30 7204 H 678.334 -4.78512 -0.237217 0
M  V30 7205 H 676.698 -2.53725 -0.222663 0
M  V30 7206 H 677.481 -3.16671 1.32569 0
M  V30 7207 N 679.926 -0.151884 -1.56866 0
M  V30 7208 C 680.858 0.817008 -2.14144 0
M  V30 7209 C 681.871 1.20735 -1.0921 0
M  V30 7210 O 683.06 1.15058 -1.36469 0
M  V30 7211 C 680.16 2.10844 -2.65326 0
M  V30 7212 C 679.333 1.88471 -3.94712 0
M  V30 7213 C 678.392 3.01649 -4.31155 0
M  V30 7214 O 677.418 2.73127 -4.9939 0
M  V30 7215 N 678.62 4.28947 -3.91132 0
M  V30 7216 H 681.385 0.327448 -2.97906 0
M  V30 7217 H 678.946 0.0315313 -1.61869 0
M  V30 7218 H 680.938 2.85616 -2.86715 0
M  V30 7219 H 679.508 2.51049 -1.86262 0
M  V30 7220 H 678.728 0.977088 -3.81899 0
M  V30 7221 H 680.016 1.70866 -4.79252 0
M  V30 7222 H 679.414 4.54986 -3.36161 0
M  V30 7223 H 677.971 5.00484 -4.17563 0
M  V30 7224 N 681.404 1.57128 0.121893 0
M  V30 7225 C 682.367 1.99197 1.13372 0
M  V30 7226 C 683.367 0.881728 1.3447 0
M  V30 7227 O 684.557 1.14783 1.31036 0
M  V30 7228 C 681.689 2.32963 2.4888 0
M  V30 7229 H 682.882 2.89788 0.772204 0
M  V30 7230 H 680.435 1.51952 0.366093 0
M  V30 7231 H 681.17 1.45243 2.89957 0
M  V30 7232 H 680.955 3.13934 2.34921 0
M  V30 7233 H 682.445 2.66261 3.21706 0
M  V30 7234 N 682.882 -0.391992 1.52647 0
M  V30 7235 C 683.845 -1.46135 1.7657 0
M  V30 7236 C 684.845 -1.47701 0.635698 0
M  V30 7237 O 686.035 -1.48924 0.903728 0
M  V30 7238 C 683.167 -2.85443 1.86374 0
M  V30 7239 H 684.36 -1.26208 2.72051 0
M  V30 7240 H 681.913 -0.623549 1.43323 0
M  V30 7241 H 682.648 -3.10718 0.928685 0
M  V30 7242 H 682.433 -2.85708 2.68539 0
M  V30 7243 H 683.923 -3.62933 2.06566 0
M  V30 7244 N 684.36 -1.4356 -0.65026 0
M  V30 7245 C 685.323 -1.48615 -1.74489 0
M  V30 7246 C 686.323 -0.370483 -1.56474 0
M  V30 7247 O 687.513 -0.632351 -1.62317 0
M  V30 7248 C 684.645 -1.34161 -3.13391 0
M  V30 7249 H 685.838 -2.46103 -1.71387 0
M  V30 7250 H 683.391 -1.30369 -0.862186 0
M  V30 7251 H 684.126 -0.376918 -3.22102 0
M  V30 7252 H 683.911 -2.1504 -3.27872 0
M  V30 7253 H 685.401 -1.40637 -3.93206 0
M  V30 7254 N 685.838 0.888903 -1.30139 0
M  V30 7255 C 687.249 1.45578 -1.16893 0
M  V30 7256 C 687.6 1.94825 0.231866 0
M  V30 7257 O 686.725 1.84661 1.12824 0
M  V30 7258 C 687.32 2.646 -2.11595 0
M  V30 7259 C 685.879 3.17389 -2.02339 0
M  V30 7260 C 685.026 1.90081 -2.01902 0
M  V30 7261 H 687.977 0.69921 -1.42467 0
M  V30 7262 H 687.998 3.40687 -1.69449 0
M  V30 7263 H 687.51 2.28726 -3.13538 0
M  V30 7264 H 685.611 3.5793 -1.03523 0
M  V30 7265 H 685.724 3.80955 -2.90534 0
M  V30 7266 H 684.088 2.08246 -1.46648 0
M  V30 7267 H 684.871 1.5647 -3.05568 0
M  V30 7268 N 687.317 1.12792 1.10072 0
M  V30 7269 C 688.565 0.883796 1.81751 0
M  V30 7270 C 688.886 -0.591891 1.858 0
M  V30 7271 O 688.156 -1.43017 1.33876 0
M  V30 7272 H 686.736 0.323978 0.673088 0
M  V30 7273 H 689.398 1.42314 1.33164 0
M  V30 7274 H 688.494 1.26863 2.85153 0
M  V30 7275 N 688.795 -1.27931 0.920396 0
M  V30 7276 C 690.02 -1.99343 0.572478 0
M  V30 7277 C 690.445 -1.68267 -0.840696 0
M  V30 7278 O 689.803 -0.918805 -1.56294 0
M  V30 7279 C 689.851 -3.51698 0.796284 0
M  V30 7280 O 688.955 -4.12157 -0.141602 0
M  V30 7281 H 688.296 -0.626065 0.221221 0
M  V30 7282 H 690.826 -1.62921 1.23765 0
M  V30 7283 H 690.836 -4.01793 0.708984 0
M  V30 7284 H 689.511 -3.73649 1.82644 0
M  V30 7285 H 688.088 -3.729 -0.005007 0
M  V30 7286 N 690.273 -0.685099 -1.4193 0
M  V30 7287 C 691.501 -0.220372 -2.05723 0
M  V30 7288 C 691.916 1.12642 -1.51516 0
M  V30 7289 O 691.273 1.70182 -0.659114 0
M  V30 7290 C 691.324 -0.157974 -3.61155 0
M  V30 7291 O 691.045 -1.45156 -4.13354 0
M  V30 7292 C 692.546 0.329009 -4.42077 0
M  V30 7293 H 689.766 -0.104725 -0.662777 0
M  V30 7294 H 692.31 -0.934736 -1.81887 0
M  V30 7295 H 690.465 0.507144 -3.84066 0
M  V30 7296 H 690.879 -1.33172 -5.07312 0
M  V30 7297 H 692.353 0.321559 -5.51063 0
M  V30 7298 H 692.83 1.36608 -4.17414 0
M  V30 7299 H 693.436 -0.304737 -4.24207 0
M  V30 7300 N 691.751 1.51645 -0.429126 0
M  V30 7301 C 692.979 2.06433 0.138994 0
M  V30 7302 C 693.394 1.29735 1.37165 0
M  V30 7303 O 692.751 0.354638 1.79021 0
M  V30 7304 C 692.802 3.58439 0.469452 0
M  V30 7305 O 692.523 4.32238 -0.714273 0
M  V30 7306 C 694.024 4.29712 1.08914 0
M  V30 7307 H 691.244 0.6709 0.0115608 0
M  V30 7308 H 693.788 1.9532 -0.605843 0
M  V30 7309 H 691.943 3.69494 1.16419 0
M  V30 7310 H 692.357 5.22704 -0.433633 0
M  V30 7311 H 693.831 5.37182 1.27042 0
M  V30 7312 H 694.308 3.87473 2.06788 0
M  V30 7313 H 694.914 4.2308 0.434028 0
M  V30 7314 N 693.229 0.160201 1.56784 0
M  V30 7315 C 694.64 -0.358417 1.83227 0
M  V30 7316 C 694.991 -1.63831 1.07952 0
M  V30 7317 O 694.116 -2.13885 0.328995 0
M  V30 7318 C 694.711 -0.657058 3.32368 0
M  V30 7319 C 693.27 -1.12015 3.59346 0
M  V30 7320 C 692.417 -0.15015 2.76893 0
M  V30 7321 H 695.368 0.384669 1.53967 0
M  V30 7322 H 695.389 -1.51033 3.49241 0
M  V30 7323 H 694.901 0.274647 3.87127 0
M  V30 7324 H 693.002 -2.06734 3.09987 0
M  V30 7325 H 693.115 -1.037 4.67743 0
M  V30 7326 H 691.479 -0.645361 2.46388 0
M  V30 7327 H 692.262 0.775379 3.34429 0
M  V30 7328 N 694.707 -1.5719 -0.113559 0
M  V30 7329 C 695.932 -1.89702 -0.838336 0
M  V30 7330 C 696.357 -0.752679 -1.72384 0
M  V30 7331 O 695.715 0.296575 -1.78858 0
M  V30 7332 C 695.763 -3.20989 -1.64312 0
M  V30 7333 O 694.867 -3.07278 -2.75053 0
M  V30 7334 H 694.208 -0.622339 -0.231496 0
M  V30 7335 H 696.738 -2.04382 -0.0943228 0
M  V30 7336 H 696.748 -3.53843 -2.03123 0
M  V30 7337 H 695.423 -4.03869 -0.993119 0
M  V30 7338 H 694 -2.85901 -2.39406 0
M  V30 7339 N 696.185 0.383891 -1.52853 0
M  V30 7340 C 697.148 1.45197 -1.77343 0
M  V30 7341 C 698.148 1.47362 -0.643522 0
M  V30 7342 O 699.338 1.48443 -0.911613 0
M  V30 7343 C 696.47 2.8445 -1.87885 0
M  V30 7344 H 697.663 1.24764 -2.72716 0
M  V30 7345 H 695.216 0.615939 -1.43652 0
M  V30 7346 H 695.951 3.10222 -0.94515 0
M  V30 7347 H 695.736 2.8428 -2.70051 0
M  V30 7348 H 697.226 3.61832 -2.08488 0
M  V30 7349 N 697.663 1.43903 0.642637 0
M  V30 7350 C 698.891 1.4954 1.42988 0
M  V30 7351 C 699.306 0.116588 1.8844 0
M  V30 7352 O 698.663 -0.875285 1.60141 0
M  V30 7353 C 698.714 2.45031 2.65785 0
M  V30 7354 O 698.435 3.77551 2.22232 0
M  V30 7355 C 699.936 2.60017 3.59035 0
M  V30 7356 H 697.156 0.507544 0.438907 0
M  V30 7357 H 699.7 1.88752 0.786942 0
M  V30 7358 H 697.855 2.08985 3.26196 0
M  V30 7359 H 698.269 4.29001 3.01759 0
M  V30 7360 H 699.743 3.30887 4.41835 0
M  V30 7361 H 700.22 1.64861 4.07084 0
M  V30 7362 H 700.826 2.96918 3.045 0
M  V30 7363 N 699.141 -0.881989 1.30609 0
M  V30 7364 C 700.366 -1.67236 1.22665 0
M  V30 7365 C 700.791 -1.8696 -0.206777 0
M  V30 7366 O 700.149 -1.4027 -1.14865 0
M  V30 7367 C 700.197 -3.02446 1.96363 0
M  V30 7368 O 699.301 -3.91614 1.29276 0
M  V30 7369 H 698.642 -0.510902 0.424117 0
M  V30 7370 H 701.172 -1.10055 1.72479 0
M  V30 7371 H 701.182 -3.52468 2.055 0
M  V30 7372 H 699.857 -2.8741 3.00613 0
M  V30 7373 H 698.434 -3.50055 1.28514 0
M  V30 7374 N 700.619 -1.13374 -1.09472 0
M  V30 7375 C 701.844 -0.918711 -1.85942 0
M  V30 7376 C 702.269 0.527225 -1.8056 0
M  V30 7377 O 701.627 1.37408 -1.18274 0
M  V30 7378 C 701.675 -1.41056 -3.31867 0
M  V30 7379 O 700.779 -0.595496 -4.08078 0
M  V30 7380 H 700.12 -0.329297 -0.576593 0
M  V30 7381 H 702.65 -1.50829 -1.38245 0
M  V30 7382 H 702.66 -1.41398 -3.82715 0
M  V30 7383 H 701.335 -2.46335 -3.35099 0
M  V30 7384 H 699.912 -0.659911 -3.67014 0
M  V30 7385 N 702.098 1.27442 -0.927168 0
M  V30 7386 C 703.323 1.99036 -0.583042 0
M  V30 7387 C 703.748 1.68711 0.83176 0
M  V30 7388 O 703.106 0.927081 1.55804 0
M  V30 7389 C 703.154 3.51271 -0.814925 0
M  V30 7390 O 702.258 4.12226 0.119742 0
M  V30 7391 H 701.599 0.624883 -0.224538 0
M  V30 7392 H 704.129 1.62263 -1.24628 0
M  V30 7393 H 704.139 4.01411 -0.730282 0
M  V30 7394 H 702.814 3.72676 -1.84623 0
M  V30 7395 H 701.391 3.72897 -0.0147688 0
M  V30 7396 N 703.576 0.692616 1.41565 0
M  V30 7397 C 704.801 0.229776 2.06123 0
M  V30 7398 C 705.226 -1.11119 1.5177 0
M  V30 7399 O 704.584 -1.69498 0.643444 0
M  V30 7400 C 704.632 0.19469 3.60074 0
M  V30 7401 O 703.736 -0.831366 4.03933 0
M  V30 7402 H 703.077 0.113002 0.654314 0
M  V30 7403 H 705.607 0.946645 1.81383 0
M  V30 7404 H 705.617 0.0245487 4.07993 0
M  V30 7405 H 704.292 1.17339 3.99004 0
M  V30 7406 H 702.869 -0.630819 3.67526 0
M  V30 7407 N 705.054 -1.51416 0.437162 0
M  V30 7408 C 706.279 -2.0699 -0.130424 0
M  V30 7409 C 706.704 -1.30249 -1.35709 0
M  V30 7410 O 706.062 -0.340388 -1.78076 0
M  V30 7411 C 706.11 -3.5801 -0.43142 0
M  V30 7412 O 705.214 -3.8345 -1.5179 0
M  V30 7413 H 704.555 -0.663997 -0.00194339 0
M  V30 7414 H 707.085 -1.95029 0.618445 0
M  V30 7415 H 707.095 -4.02261 -0.681926 0
M  V30 7416 H 705.77 -4.13291 0.465137 0
M  V30 7417 H 704.347 -3.51062 -1.25737 0
M  V30 7418 N 706.532 -0.168513 -1.56696 0
M  V30 7419 C 707.772 0.479648 -1.98693 0
M  V30 7420 C 708.136 1.60609 -1.05209 0
M  V30 7421 O 709.337 2.3166 -1.36334 0
M  V30 7422 C 707.608 0.952852 -3.44464 0
M  V30 7423 S 709.167 1.60259 -4.08488 0
M  V30 7424 H 705.985 0.154377 -0.694038 0
M  V30 7425 H 708.587 -0.265312 -1.93691 0
M  V30 7426 H 707.291 0.12257 -4.10217 0
M  V30 7427 H 706.822 1.73192 -3.53225 0
M  V30 7428 H 708.837 2.89065 -4.03307 0
M  V30 7429 N 708.01 1.57248 0.105221 0
M  V30 7430 C 709.235 1.90143 0.828264 0
M  V30 7431 C 709.66 0.761811 1.71983 0
M  V30 7432 O 709.018 -0.287086 1.79013 0
M  V30 7433 C 709.066 3.21856 1.62608 0
M  V30 7434 O 708.17 3.08732 2.7342 0
M  V30 7435 H 707.511 0.623558 0.228192 0
M  V30 7436 H 710.041 2.0443 0.0834826 0
M  V30 7437 H 710.051 3.54916 2.01243 0
M  V30 7438 H 708.726 4.0439 0.971687 0
M  V30 7439 H 707.303 2.87167 2.37886 0
M  V30 7440 N 709.488 -0.375779 1.53054 0
M  V30 7441 C 710.716 -1.14036 1.72637 0
M  V30 7442 C 711.131 -1.83342 0.450687 0
M  V30 7443 O 710.488 -1.7318 -0.575749 0
M  V30 7444 C 710.539 -2.17841 2.88492 0
M  V30 7445 O 710.26 -1.51358 4.11123 0
M  V30 7446 C 711.761 -3.06924 3.19863 0
M  V30 7447 H 708.981 -0.341386 0.577665 0
M  V30 7448 H 711.525 -0.437809 1.99759 0
M  V30 7449 H 709.68 -2.8371 2.63794 0
M  V30 7450 H 710.094 -2.20439 4.75928 0
M  V30 7451 H 711.568 -3.75763 4.04359 0
M  V30 7452 H 712.045 -3.71169 2.34798 0
M  V30 7453 H 712.651 -2.46684 3.46449 0
M  V30 7454 N 710.966 -1.44241 -0.634997 0
M  V30 7455 C 712.377 -1.41622 -1.21655 0
M  V30 7456 C 712.728 -0.129584 -1.95772 0
M  V30 7457 O 711.853 0.770225 -2.02229 0
M  V30 7458 C 712.448 -2.56557 -2.21278 0
M  V30 7459 C 711.007 -2.57145 -2.7487 0
M  V30 7460 C 710.154 -2.33354 -1.49804 0
M  V30 7461 H 713.105 -1.52878 -0.425905 0
M  V30 7462 H 713.126 -2.29089 -3.03807 0
M  V30 7463 H 712.638 -3.50186 -1.67306 0
M  V30 7464 H 710.739 -1.67447 -3.32855 0
M  V30 7465 H 710.852 -3.55507 -3.21172 0
M  V30 7466 H 709.216 -1.82372 -1.77799 0
M  V30 7467 H 709.999 -3.29092 -0.977402 0
M  V30 7468 N 712.444 0.87505 -1.31075 0
M  V30 7469 C 713.392 2.00317 -1.18219 0
M  V30 7470 C 714.386 1.69152 -0.0916872 0
M  V30 7471 O 715.592 1.7821 -0.253229 0
M  V30 7472 H 711.967 0.656981 -0.365895 0
M  V30 7473 H 713.938 2.08293 -2.13674 0
M  V30 7474 C 712.687 3.35821 -0.901095 0
M  V30 7475 H 712.01 3.6032 -1.73233 0
M  V30 7476 H 713.45 4.15366 -0.851295 0
M  V30 7477 C 711.909 3.34563 0.396114 0
M  V30 7478 O 712.439 3.75971 1.41452 0
M  V30 7479 N 710.645 2.87681 0.410832 0
M  V30 7480 H 710.192 2.54179 -0.418415 0
M  V30 7481 H 710.15 2.87223 1.27869 0
M  V30 7482 N 713.922 1.13953 1.08869 0
M  V30 7483 C 715.147 0.928559 1.85452 0
M  V30 7484 C 715.572 -0.517642 1.80837 0
M  V30 7485 O 714.93 -1.36779 1.19001 0
M  V30 7486 C 714.978 1.42814 3.31114 0
M  V30 7487 O 714.082 0.617129 4.07756 0
M  V30 7488 H 713.423 0.33235 0.574839 0
M  V30 7489 H 715.953 1.5156 1.37443 0
M  V30 7490 H 715.963 1.43425 3.8196 0
M  V30 7491 H 714.638 2.48109 3.33788 0
M  V30 7492 H 713.215 0.679365 3.66659 0
M  V30 7493 N 715.4 -1.26948 0.933913 0
M  V30 7494 C 716.811 -1.76058 0.621324 0
M  V30 7495 C 717.162 -1.76175 -0.863522 0
M  V30 7496 O 716.287 -1.36921 -1.67576 0
M  V30 7497 C 716.882 -3.19713 1.12111 0
M  V30 7498 C 715.441 -3.66465 0.859074 0
M  V30 7499 C 714.588 -2.46186 1.27624 0
M  V30 7500 H 717.539 -1.13127 1.11301 0
M  V30 7501 H 717.56 -3.77566 0.471608 0
M  V30 7502 H 717.072 -3.19596 2.20182 0
M  V30 7503 H 715.173 -3.72021 -0.207566 0
M  V30 7504 H 715.286 -4.55636 1.48098 0
M  V30 7505 H 713.65 -2.45042 0.694727 0
M  V30 7506 H 714.433 -2.48774 2.36572 0
M  V30 7507 N 716.879 -0.700114 -1.41195 0
M  V30 7508 C 717.789 -0.0382854 -2.34569 0
M  V30 7509 C 718.805 0.761036 -1.56474 0
M  V30 7510 O 719.981 0.697553 -1.88934 0
M  V30 7511 C 717.046 0.883522 -3.35253 0
M  V30 7512 C 716.107 0.0758957 -4.29233 0
M  V30 7513 C 715.34 0.9538 -5.25108 0
M  V30 7514 O 715.563 2.19326 -5.26547 0
M  V30 7515 O 714.497 0.401049 -6.00562 0
M  V30 7516 H 718.323 -0.808073 -2.92752 0
M  V30 7517 H 715.908 -0.460479 -1.42127 0
M  V30 7518 H 717.79 1.41199 -3.9704 0
M  V30 7519 H 716.465 1.63272 -2.79506 0
M  V30 7520 H 715.372 -0.497274 -3.7078 0
M  V30 7521 H 716.705 -0.634741 -4.8809 0
M  V30 7522 N 718.357 1.51182 -0.445186 0
M  V30 7523 C 719.634 1.9478 0.178965 0
M  V30 7524 C 720.014 1.38428 1.59376 0
M  V30 7525 O 719.362 0.574552 2.21159 0
M  V30 7526 C 719.572 3.48683 0.148711 0
M  V30 7527 C 720.92 4.23152 0.35042 0
M  V30 7528 O 721.944 3.55479 0.226474 0
M  V30 7529 O 720.803 5.4322 0.597893 0
M  V30 7530 H 717.897 0.817387 0.12573 0
M  V30 7531 H 720.443 1.62051 -0.503729 0
M  V30 7532 H 719.215 3.82176 -0.84009 0
M  V30 7533 H 718.838 3.87875 0.873979 0
M  V30 7534 N 719.835 0.176821 1.56605 0
M  V30 7535 C 721.065 -0.472142 2.01133 0
M  V30 7536 C 721.473 -1.56979 1.05614 0
M  V30 7537 O 720.816 -1.83632 0.0500137 0
M  V30 7538 C 720.878 -1.10547 3.42081 0
M  V30 7539 C 720.542 -0.148806 4.56758 0
M  V30 7540 C 721.539 0.634939 5.16008 0
M  V30 7541 C 719.224 -0.0430325 5.02282 0
M  V30 7542 C 721.218 1.5116 6.19217 0
M  V30 7543 C 718.905 0.83721 6.05338 0
M  V30 7544 C 719.903 1.61311 6.63677 0
M  V30 7545 O 719.591 2.47863 7.64735 0
M  V30 7546 H 719.323 -0.124725 0.664394 0
M  V30 7547 H 721.877 0.277329 2.03519 0
M  V30 7548 H 720.107 -1.90318 3.36625 0
M  V30 7549 H 721.796 -1.6572 3.70529 0
M  V30 7550 H 722.562 0.563424 4.81716 0
M  V30 7551 H 718.441 -0.636753 4.56581 0
M  V30 7552 H 721.985 2.11767 6.64681 0
M  V30 7553 H 717.882 0.909908 6.39055 0
M  V30 7554 H 718.65 2.4144 7.8208 0
M  V30 7555 N 721.313 -1.57302 -0.09688 0
M  V30 7556 C 722.543 -1.89926 -0.813114 0
M  V30 7557 C 722.951 -0.76852 -1.72888 0
M  V30 7558 O 722.294 0.268549 -1.81726 0
M  V30 7559 C 722.356 -3.17787 -1.68082 0
M  V30 7560 C 722.02 -4.4729 -0.937061 0
M  V30 7561 C 723.017 -5.1921 -0.267687 0
M  V30 7562 C 720.702 -4.93957 -0.911671 0
M  V30 7563 C 722.696 -6.36034 0.417129 0
M  V30 7564 C 720.383 -6.10693 -0.223068 0
M  V30 7565 C 721.381 -6.8158 0.440155 0
M  V30 7566 O 721.069 -7.96092 1.11772 0
M  V30 7567 H 720.801 -0.632783 -0.237828 0
M  V30 7568 H 723.355 -2.05248 -0.0790818 0
M  V30 7569 H 721.585 -2.98607 -2.45705 0
M  V30 7570 H 723.274 -3.36257 -2.27346 0
M  V30 7571 H 724.04 -4.84198 -0.278774 0
M  V30 7572 H 719.919 -4.38671 -1.41734 0
M  V30 7573 H 723.463 -6.91301 0.93537 0
M  V30 7574 H 719.36 -6.45159 -0.209821 0
M  V30 7575 H 720.128 -8.12064 1.02443 0
M  V30 7576 N 722.791 0.367657 -1.53252 0
M  V30 7577 C 724.019 1.13119 -1.73239 0
M  V30 7578 C 724.434 1.831 -0.460404 0
M  V30 7579 O 723.791 1.73483 0.566557 0
M  V30 7580 C 723.842 2.16308 -2.89643 0
M  V30 7581 O 723.563 1.49175 -4.1192 0
M  V30 7582 C 725.064 3.05224 -3.21486 0
M  V30 7583 H 722.284 0.338318 -0.579467 0
M  V30 7584 H 724.828 0.42721 -1.99988 0
M  V30 7585 H 722.983 2.82307 -2.65295 0
M  V30 7586 H 723.397 2.17912 -4.7709 0
M  V30 7587 H 724.871 3.73613 -4.06346 0
M  V30 7588 H 725.348 3.69919 -2.36763 0
M  V30 7589 H 725.954 2.44843 -3.47753 0
M  V30 7590 N 724.269 1.44576 0.627338 0
M  V30 7591 C 725.494 1.51271 1.41887 0
M  V30 7592 C 725.919 0.139814 1.8758 0
M  V30 7593 O 725.277 -0.871746 1.58966 0
M  V30 7594 C 725.325 2.48529 2.61277 0
M  V30 7595 O 724.429 1.98944 3.61241 0
M  V30 7596 H 723.77 0.510668 0.424399 0
M  V30 7597 H 726.3 1.89746 0.765356 0
M  V30 7598 H 726.31 2.66689 3.08773 0
M  V30 7599 H 724.985 3.48249 2.27366 0
M  V30 7600 H 723.562 1.90568 3.20528 0
M  V30 7601 N 725.747 -0.868086 1.31537 0
M  V30 7602 C 726.677 -1.99131 1.21939 0
M  V30 7603 C 727.658 -1.69768 0.106166 0
M  V30 7604 O 728.843 -1.92006 0.291081 0
M  V30 7605 C 725.973 -3.34676 0.927879 0
M  V30 7606 C 724.927 -3.7835 2.00088 0
M  V30 7607 C 724.253 -5.11375 1.56203 0
M  V30 7608 C 725.553 -3.95256 3.41424 0
M  V30 7609 H 727.247 -2.07419 2.15911 0
M  V30 7610 H 724.793 -0.996569 1.03945 0
M  V30 7611 H 726.746 -4.12793 0.847327 0
M  V30 7612 H 725.47 -3.26565 -0.0475042 0
M  V30 7613 H 724.129 -3.02474 2.07135 0
M  V30 7614 H 723.777 -4.99709 0.57445 0
M  V30 7615 H 723.477 -5.41568 2.27985 0
M  V30 7616 H 725.001 -5.92001 1.49558 0
M  V30 7617 H 726.415 -4.63764 3.3704 0
M  V30 7618 H 724.812 -4.36849 4.1144 0
M  V30 7619 H 725.882 -2.98579 3.82072 0
M  V30 7620 N 727.225 -1.14528 -1.08264 0
M  V30 7621 C 728.502 -0.825185 -1.77342 0
M  V30 7622 C 728.882 0.681037 -1.99813 0
M  V30 7623 O 728.23 1.62234 -1.60912 0
M  V30 7624 C 728.44 -1.62556 -3.08831 0
M  V30 7625 C 729.788 -1.82585 -3.83338 0
M  V30 7626 O 730.812 -1.59254 -3.18617 0
M  V30 7627 O 729.671 -2.21598 -4.99556 0
M  V30 7628 H 726.765 -0.302531 -0.769678 0
M  V30 7629 H 729.311 -1.25056 -1.14713 0
M  V30 7630 H 728.083 -2.64862 -2.88035 0
M  V30 7631 H 727.706 -1.1959 -3.79189 0
M  V30 7632 N 728.703 1.26451 -0.940633 0
M  V30 7633 C 729.651 2.28389 -0.440581 0
M  V30 7634 C 730.645 1.62402 0.481859 0
M  V30 7635 O 731.851 1.76361 0.360132 0
M  V30 7636 H 728.226 0.741716 -0.123938 0
M  V30 7637 H 730.197 2.67967 -1.31288 0
M  V30 7638 C 728.946 3.46576 0.279364 0
M  V30 7639 H 728.269 3.97574 -0.421274 0
M  V30 7640 H 729.709 4.19826 0.59348 0
M  V30 7641 C 728.168 3.01815 1.49697 0
M  V30 7642 O 728.698 3.06607 2.59529 0
M  V30 7643 N 726.904 2.57163 1.35334 0
M  V30 7644 H 726.451 2.53464 0.459743 0
M  V30 7645 H 726.409 2.27578 2.16923 0
M  V30 7646 N 730.181 0.707592 1.40822 0
M  V30 7647 C 731.458 0.171172 1.9485 0
M  V30 7648 C 731.838 -1.32143 1.64625 0
M  V30 7649 O 731.186 -2.07372 0.959647 0
M  V30 7650 C 731.396 0.475334 3.45748 0
M  V30 7651 C 732.744 0.409625 4.22619 0
M  V30 7652 O 733.768 0.410934 3.53822 0
M  V30 7653 O 732.627 0.380185 5.45176 0
M  V30 7654 H 729.721 0.022015 0.826707 0
M  V30 7655 H 732.267 0.784577 1.50474 0
M  V30 7656 H 731.039 1.50801 3.61075 0
M  V30 7657 H 730.662 -0.168439 3.97243 0
M  V30 7658 N 731.66 -1.50943 0.453197 0
M  V30 7659 C 732.59 -2.31005 -0.34044 0
M  V30 7660 C 733.571 -1.37112 -1.00669 0
M  V30 7661 O 734.756 -1.66033 -1.0073 0
M  V30 7662 C 731.886 -3.16358 -1.433 0
M  V30 7663 C 730.84 -4.18658 -0.889363 0
M  V30 7664 C 730.166 -4.92633 -2.07887 0
M  V30 7665 C 731.466 -5.22227 0.0871142 0
M  V30 7666 H 733.16 -2.97601 0.327723 0
M  V30 7667 H 730.706 -1.43119 0.159054 0
M  V30 7668 H 732.659 -3.71155 -1.99555 0
M  V30 7669 H 731.383 -2.47613 -2.12968 0
M  V30 7670 H 730.042 -3.64936 -0.348915 0
M  V30 7671 H 729.69 -4.20376 -2.76211 0
M  V30 7672 H 729.39 -5.61819 -1.72143 0
M  V30 7673 H 730.914 -5.50258 -2.64666 0
M  V30 7674 H 732.328 -5.72001 -0.385656 0
M  V30 7675 H 730.725 -5.99032 0.357926 0
M  V30 7676 H 731.795 -4.74077 1.01879 0
M  V30 7677 N 733.138 -0.185124 -1.56509 0
M  V30 7678 C 734.085 0.739729 -2.18624 0
M  V30 7679 C 735.055 1.217 -1.13042 0
M  V30 7680 O 736.24 1.28268 -1.41251 0
M  V30 7681 C 733.38 1.95787 -2.84186 0
M  V30 7682 C 732.493 1.52289 -4.04267 0
M  V30 7683 C 731.628 2.69576 -4.57714 0
M  V30 7684 C 730.667 2.22636 -5.70175 0
M  V30 7685 N 729.804 3.33065 -6.18071 0
M  V30 7686 H 734.644 0.203269 -2.97306 0
M  V30 7687 H 732.181 0.0885946 -1.46833 0
M  V30 7688 H 734.139 2.67253 -3.20361 0
M  V30 7689 H 732.769 2.4678 -2.08085 0
M  V30 7690 H 731.821 0.704458 -3.7382 0
M  V30 7691 H 733.133 1.13843 -4.85635 0
M  V30 7692 H 732.287 3.4918 -4.96143 0
M  V30 7693 H 731.026 3.1129 -3.75433 0
M  V30 7694 H 730.031 1.41483 -5.31284 0
M  V30 7695 H 731.256 1.81964 -6.54267 0
M  V30 7696 H 729.202 3.74328 -5.38715 0
M  V30 7697 H 729.119 2.98756 -6.94464 0
M  V30 7698 H 730.387 4.12912 -6.61153 0
M  V30 7699 N 734.616 1.57351 0.0885366 0
M  V30 7700 C 735.865 1.85604 0.789556 0
M  V30 7701 C 736.178 0.775352 1.79576 0
M  V30 7702 O 737.384 0.945206 2.54515 0
M  V30 7703 C 735.84 3.29175 1.45506 0
M  V30 7704 C 735.448 4.45331 0.488278 0
M  V30 7705 C 737.192 3.66646 2.13942 0
M  V30 7706 C 735.099 5.79937 1.15874 0
M  V30 7707 H 734.029 0.692346 0.298619 0
M  V30 7708 H 736.68 1.83451 0.0425821 0
M  V30 7709 H 735.062 3.25889 2.24972 0
M  V30 7710 H 736.236 4.59977 -0.275359 0
M  V30 7711 H 734.551 4.16301 -0.0907363 0
M  V30 7712 H 737.148 4.64498 2.6485 0
M  V30 7713 H 737.491 2.956 2.93132 0
M  V30 7714 H 738.024 3.71848 1.41328 0
M  V30 7715 H 734.763 6.54232 0.407508 0
M  V30 7716 H 734.283 5.69123 1.89364 0
M  V30 7717 H 735.962 6.24718 1.68336 0
M  V30 7718 N 736.094 -0.359525 1.53444 0
M  V30 7719 C 737.004 -1.46445 1.83278 0
M  V30 7720 C 738.02 -1.5833 0.721629 0
M  V30 7721 O 739.196 -1.7411 1.01231 0
M  V30 7722 C 736.261 -2.81638 2.02191 0
M  V30 7723 C 735.322 -2.7923 3.26082 0
M  V30 7724 C 734.555 -4.07974 3.44082 0
M  V30 7725 O 734.778 -5.04447 2.66251 0
M  V30 7726 O 733.712 -4.13417 4.37458 0
M  V30 7727 H 737.538 -1.24156 2.77162 0
M  V30 7728 H 735.123 -0.550201 1.389 0
M  V30 7729 H 737.005 -3.61732 2.16167 0
M  V30 7730 H 735.68 -3.03892 1.11496 0
M  V30 7731 H 734.587 -1.97813 3.17523 0
M  V30 7732 H 735.92 -2.6193 4.16718 0
M  V30 7733 N 737.572 -1.44907 -0.619662 0
M  V30 7734 C 738.818 -1.48512 -1.38102 0
M  V30 7735 C 739.151 -0.121686 -1.93818 0
M  V30 7736 O 738.426 0.862256 -1.74343 0
M  V30 7737 C 738.709 -2.55469 -2.53787 0
M  V30 7738 C 738.562 -4.01212 -2.03345 0
M  V30 7739 C 739.881 -2.58821 -3.55949 0
M  V30 7740 H 737 -0.540712 -0.500799 0
M  V30 7741 H 739.642 -1.7665 -0.69962 0
M  V30 7742 H 737.792 -2.31606 -3.11915 0
M  V30 7743 H 739.464 -4.36245 -1.49959 0
M  V30 7744 H 737.707 -4.12443 -1.34438 0
M  V30 7745 H 738.378 -4.71717 -2.86683 0
M  V30 7746 H 740.854 -2.80172 -3.07641 0
M  V30 7747 H 739.73 -3.35542 -4.34399 0
M  V30 7748 H 739.991 -1.63451 -4.10775 0
M  V30 7749 N 739.05 0.861098 -1.31996 0
M  V30 7750 C 740.299 1.60965 -1.21545 0
M  V30 7751 C 740.612 1.94325 0.222972 0
M  V30 7752 O 741.818 2.67757 0.449272 0
M  V30 7753 C 740.274 2.90223 -2.12834 0
M  V30 7754 C 739.882 2.64313 -3.61722 0
M  V30 7755 C 741.626 3.68229 -2.11205 0
M  V30 7756 C 739.533 3.89532 -4.44993 0
M  V30 7757 H 738.463 0.603988 -0.451348 0
M  V30 7758 H 741.114 0.951358 -1.56912 0
M  V30 7759 H 739.496 3.57475 -1.70375 0
M  V30 7760 H 740.67 2.05413 -4.12483 0
M  V30 7761 H 738.985 1.99647 -3.65418 0
M  V30 7762 H 741.582 4.61138 -2.70658 0
M  V30 7763 H 741.925 4.01466 -1.1014 0
M  V30 7764 H 742.458 3.07873 -2.51911 0
M  V30 7765 H 739.197 3.61441 -5.46846 0
M  V30 7766 H 738.717 4.47851 -3.98985 0
M  V30 7767 H 740.396 4.57334 -4.57663 0
M  V30 7768 N 740.528 1.15101 1.07655 0
M  V30 7769 C 741.438 0.858869 2.18313 0
M  V30 7770 C 742.454 -0.163641 1.73229 0
M  V30 7771 O 743.63 0.00969541 2.01398 0
M  V30 7772 C 740.695 0.34893 3.4494 0
M  V30 7773 C 739.756 1.43495 4.04608 0
M  V30 7774 C 738.989 0.949253 5.2519 0
M  V30 7775 O 739.212 -0.20636 5.70027 0
M  V30 7776 O 738.146 1.73161 5.76454 0
M  V30 7777 H 741.972 1.78386 2.45788 0
M  V30 7778 H 739.557 0.929876 1.16934 0
M  V30 7779 H 741.439 0.070851 4.2134 0
M  V30 7780 H 740.114 -0.548237 3.19024 0
M  V30 7781 H 739.021 1.7666 3.29761 0
M  V30 7782 H 740.354 2.30692 4.3479 0
M  V30 7783 N 742.006 -1.2595 0.947325 0
M  V30 7784 C 742.953 -2.26159 0.460497 0
M  V30 7785 C 743.923 -1.58919 -0.483125 0
M  V30 7786 O 745.108 -1.86603 -0.397983 0
M  V30 7787 C 742.248 -3.441 -0.26247 0
M  V30 7788 C 741.361 -4.25999 0.717539 0
M  V30 7789 C 740.496 -5.31193 -0.0272486 0
M  V30 7790 C 739.535 -6.04774 0.944177 0
M  V30 7791 N 738.672 -7.01721 0.230741 0
M  V30 7792 H 743.512 -2.67173 1.31995 0
M  V30 7793 H 741.049 -1.31358 0.662088 0
M  V30 7794 H 743.007 -4.11317 -0.698137 0
M  V30 7795 H 741.637 -3.03983 -1.08602 0
M  V30 7796 H 740.689 -3.58513 1.27171 0
M  V30 7797 H 742.001 -4.76981 1.45913 0
M  V30 7798 H 741.155 -6.04451 -0.521903 0
M  V30 7799 H 739.894 -4.81066 -0.801682 0
M  V30 7800 H 738.899 -5.30338 1.4499 0
M  V30 7801 H 740.124 -6.56991 1.71872 0
M  V30 7802 H 738.07 -6.53895 -0.525088 0
M  V30 7803 H 737.987 -7.50484 0.911556 0
M  V30 7804 H 739.255 -7.79122 -0.242616 0
M  V30 7805 N 743.484 -0.715051 -1.40445 0
M  V30 7806 C 744.414 -0.0768699 -2.33373 0
M  V30 7807 C 745.395 0.746109 -1.52863 0
M  V30 7808 O 746.58 0.695142 -1.81332 0
M  V30 7809 C 743.71 0.846014 -3.36838 0
M  V30 7810 C 742.664 0.128694 -4.27806 0
M  V30 7811 C 741.99 1.16726 -5.21804 0
M  V30 7812 C 743.29 -1.01679 -5.12307 0
M  V30 7813 H 744.984 -0.853061 -2.8699 0
M  V30 7814 H 742.53 -0.41167 -1.3799 0
M  V30 7815 H 744.483 1.30185 -4.00786 0
M  V30 7816 H 743.207 1.6541 -2.81615 0
M  V30 7817 H 741.866 -0.307314 -3.6531 0
M  V30 7818 H 741.514 1.96838 -4.62887 0
M  V30 7819 H 741.214 0.692188 -5.83509 0
M  V30 7820 H 742.738 1.62321 -5.88629 0
M  V30 7821 H 744.152 -0.640337 -5.69713 0
M  V30 7822 H 742.549 -1.4202 -5.83053 0
M  V30 7823 H 743.619 -1.84769 -4.48317 0
M  V30 7824 N 744.962 1.50701 -0.461195 0
M  V30 7825 C 746.209 2.02267 0.0971971 0
M  V30 7826 C 746.537 1.34387 1.40608 0
M  V30 7827 O 745.792 0.455254 1.90331 0
M  V30 7828 C 746.091 3.55788 0.33908 0
M  V30 7829 C 745.757 4.42092 -0.886885 0
M  V30 7830 C 744.419 4.65398 -1.22304 0
M  V30 7831 C 746.771 4.92571 -1.70361 0
M  V30 7832 C 744.099 5.36429 -2.37616 0
M  V30 7833 C 746.451 5.64868 -2.84793 0
M  V30 7834 C 745.115 5.86431 -3.18834 0
M  V30 7835 H 744.385 0.740146 0.0355669 0
M  V30 7836 H 747.032 1.81415 -0.61326 0
M  V30 7837 H 745.337 3.751 1.13168 0
M  V30 7838 H 747.034 3.93243 0.784937 0
M  V30 7839 H 743.624 4.24165 -0.614981 0
M  V30 7840 H 747.808 4.74428 -1.4571 0
M  V30 7841 H 743.064 5.51333 -2.64276 0
M  V30 7842 H 747.238 6.02966 -3.48432 0
M  V30 7843 H 744.865 6.41248 -4.08296 0
M  V30 7844 N 746.441 0.193421 1.56409 0
M  V30 7845 C 747.404 -0.714371 2.17783 0
M  V30 7846 C 748.404 -1.1422 1.13183 0
M  V30 7847 O 749.594 -1.05557 1.38576 0
M  V30 7848 C 746.726 -1.97509 2.77855 0
M  V30 7849 H 747.919 -0.179714 2.99361 0
M  V30 7850 H 745.472 -0.0561944 1.56199 0
M  V30 7851 H 746.207 -2.5523 2.0007 0
M  V30 7852 H 745.992 -1.67706 3.54425 0
M  V30 7853 H 747.482 -2.62246 3.24987 0
M  V30 7854 N 747.919 -1.57396 -0.0801906 0
M  V30 7855 C 748.852 -1.98386 -1.12774 0
M  V30 7856 C 749.83 -0.859423 -1.38031 0
M  V30 7857 O 751.014 -1.12101 -1.51544 0
M  V30 7858 C 748.141 -2.3134 -2.47386 0
M  V30 7859 C 747.187 -3.53706 -2.38316 0
M  V30 7860 S 748.02 -5.04862 -1.78534 0
M  V30 7861 C 749.176 -5.41008 -3.1474 0
M  V30 7862 H 749.409 -2.86929 -0.778382 0
M  V30 7863 H 746.942 -1.51682 -0.28842 0
M  V30 7864 H 748.9 -2.51 -3.24822 0
M  V30 7865 H 747.561 -1.4334 -2.79486 0
M  V30 7866 H 746.754 -3.74253 -3.37566 0
M  V30 7867 H 746.356 -3.33632 -1.69014 0
M  V30 7868 H 748.648 -5.38565 -4.1104 0
M  V30 7869 H 749.591 -6.41885 -2.98981 0
M  V30 7870 H 749.999 -4.68467 -3.14958 0
M  V30 7871 N 749.397 0.351382 -1.53633 0
M  V30 7872 C 750.674 1.10903 -1.6112 0
M  V30 7873 C 751.054 2.06725 -0.427556 0
M  V30 7874 O 750.402 2.20992 0.580916 0
M  V30 7875 C 750.612 1.83561 -2.96827 0
M  V30 7876 C 751.96 2.37587 -3.51906 0
M  V30 7877 O 752.984 1.93669 -2.9895 0
M  V30 7878 O 751.843 3.17913 -4.44515 0
M  V30 7879 H 748.937 0.509558 -0.651368 0
M  V30 7880 H 751.483 0.353504 -1.65977 0
M  V30 7881 H 750.255 1.1371 -3.74414 0
M  V30 7882 H 749.878 2.6599 -2.95525 0
M  V30 7883 N 750.875 1.45233 0.611969 0
M  V30 7884 C 752.103 1.52539 1.39784 0
M  V30 7885 C 752.518 0.156533 1.8815 0
M  V30 7886 O 751.875 -0.84112 1.61961 0
M  V30 7887 C 751.926 2.50614 2.60528 0
M  V30 7888 O 751.647 3.8218 2.14173 0
M  V30 7889 C 753.148 2.67574 3.53439 0
M  V30 7890 H 750.368 0.51674 0.428043 0
M  V30 7891 H 752.912 1.90379 0.746727 0
M  V30 7892 H 751.067 2.15858 3.2169 0
M  V30 7893 H 751.481 4.35305 2.92592 0
M  V30 7894 H 752.955 3.40184 4.34717 0
M  V30 7895 H 753.432 1.73458 4.03496 0
M  V30 7896 H 754.038 3.0331 2.98133 0
M  V30 7897 N 752.353 -0.854086 1.3245 0
M  V30 7898 C 753.263 -1.99503 1.23434 0
M  V30 7899 C 754.279 -1.73371 0.147828 0
M  V30 7900 O 755.455 -1.97998 0.368609 0
M  V30 7901 C 752.52 -3.33192 0.958328 0
M  V30 7902 C 751.581 -3.72542 2.13333 0
M  V30 7903 C 750.814 -4.99852 1.8704 0
M  V30 7904 O 751.037 -5.64573 0.813239 0
M  V30 7905 O 749.971 -5.36345 2.73161 0
M  V30 7906 H 753.797 -2.10046 2.1935 0
M  V30 7907 H 751.382 -0.984823 1.12346 0
M  V30 7908 H 753.264 -4.13327 0.820918 0
M  V30 7909 H 751.939 -3.23687 0.0293299 0
M  V30 7910 H 750.846 -2.92981 2.32622 0
M  V30 7911 H 752.179 -3.86694 3.04514 0
M  V30 7912 N 753.831 -1.1567 -1.07043 0
M  V30 7913 C 754.794 -0.858906 -2.12498 0
M  V30 7914 C 755.794 0.142735 -1.60165 0
M  V30 7915 O 756.984 -0.0872678 -1.73981 0
M  V30 7916 C 754.116 -0.283021 -3.39723 0
M  V30 7917 H 755.309 -1.79368 -2.40348 0
M  V30 7918 H 752.862 -0.964608 -1.22984 0
M  V30 7919 H 753.597 0.659796 -3.17517 0
M  V30 7920 H 753.382 -1.00467 -3.7901 0
M  V30 7921 H 754.872 -0.0923543 -4.17498 0
M  V30 7922 N 755.309 1.25446 -0.953992 0
M  V30 7923 C 756.256 2.25912 -0.472485 0
M  V30 7924 C 757.226 1.59173 0.47469 0
M  V30 7925 O 758.411 1.86812 0.388082 0
M  V30 7926 C 755.551 3.44235 0.244218 0
M  V30 7927 C 754.664 4.25613 -0.740121 0
M  V30 7928 C 753.799 5.312 -0.000922267 0
M  V30 7929 C 752.838 6.04265 -0.976236 0
M  V30 7930 N 751.975 7.01589 -0.267952 0
M  V30 7931 H 756.815 2.66469 -1.3341 0
M  V30 7932 H 754.352 1.31005 -0.669045 0
M  V30 7933 H 756.31 4.11682 0.676314 0
M  V30 7934 H 754.94 3.04554 1.06988 0
M  V30 7935 H 753.992 3.57834 -1.2907 0
M  V30 7936 H 755.304 4.762 -1.48441 0
M  V30 7937 H 754.458 6.04719 0.48984 0
M  V30 7938 H 753.197 4.81484 0.776159 0
M  V30 7939 H 752.202 5.29561 -1.478 0
M  V30 7940 H 753.427 6.5607 -1.75354 0
M  V30 7941 H 751.373 6.54164 0.490403 0
M  V30 7942 H 751.29 7.4999 -0.951344 0
M  V30 7943 H 752.558 7.7924 0.201294 0
M  V30 7944 N 756.787 0.722489 1.40064 0
M  V30 7945 C 758.064 0.191829 1.94657 0
M  V30 7946 C 758.444 -1.30389 1.66018 0
M  V30 7947 O 757.792 -2.06342 0.981588 0
M  V30 7948 C 758.002 0.511978 3.45224 0
M  V30 7949 C 759.35 0.454426 4.22161 0
M  V30 7950 O 760.374 0.448438 3.53366 0
M  V30 7951 O 759.233 0.437986 5.44742 0
M  V30 7952 H 756.327 0.0307821 0.826427 0
M  V30 7953 H 758.873 0.800493 1.49634 0
M  V30 7954 H 757.645 1.54622 3.59455 0
M  V30 7955 H 757.268 -0.126296 3.97399 0
M  V30 7956 N 758.265 -1.50454 0.469181 0
M  V30 7957 C 759.197 -2.26319 -0.362247 0
M  V30 7958 C 760.21 -1.31574 -0.958751 0
M  V30 7959 O 761.399 -1.57099 -0.847482 0
M  V30 7960 C 758.499 -3.02808 -1.52187 0
M  V30 7961 C 757.672 -4.24893 -1.03849 0
M  V30 7962 C 756.731 -4.83691 -2.07194 0
M  V30 7963 O 755.757 -5.44659 -1.65333 0
M  V30 7964 N 756.959 -4.70522 -3.39985 0
M  V30 7965 H 759.724 -2.98312 0.288124 0
M  V30 7966 H 757.285 -1.59099 0.299856 0
M  V30 7967 H 759.277 -3.39023 -2.21011 0
M  V30 7968 H 757.847 -2.33625 -2.07697 0
M  V30 7969 H 757.067 -3.93806 -0.176203 0
M  V30 7970 H 758.355 -5.04053 -0.693435 0
M  V30 7971 H 757.753 -4.2203 -3.76706 0
M  V30 7972 H 756.31 -5.11011 -4.04612 0
M  V30 7973 N 759.743 -0.201713 -1.56304 0
M  V30 7974 C 760.983 0.437395 -1.99665 0
M  V30 7975 C 761.347 1.58341 -1.08592 0
M  V30 7976 O 762.548 2.28716 -1.41217 0
M  V30 7977 C 760.819 0.879572 -3.46408 0
M  V30 7978 S 762.378 1.51558 -4.11795 0
M  V30 7979 H 759.196 0.139621 -0.697156 0
M  V30 7980 H 761.798 -0.306337 -1.93085 0
M  V30 7981 H 760.502 0.0355295 -4.10385 0
M  V30 7982 H 760.033 1.65661 -3.56819 0
M  V30 7983 H 762.048 2.80445 -4.09347 0
M  V30 7984 N 761.222 1.57436 0.0718424 0
M  V30 7985 C 762.447 1.91858 0.787745 0
M  V30 7986 C 762.872 0.798119 1.70328 0
M  V30 7987 O 762.23 -0.24905 1.79581 0
M  V30 7988 C 762.278 3.25232 1.55744 0
M  V30 7989 O 761.382 3.14462 2.6681 0
M  V30 7990 H 760.723 0.628258 0.214914 0
M  V30 7991 H 763.253 2.04561 0.0401012 0
M  V30 7992 H 763.263 3.59105 1.9367 0
M  V30 7993 H 761.938 4.0636 0.885691 0
M  V30 7994 H 760.515 2.92148 2.31741 0
M  V30 7995 N 762.7 -0.34323 1.53817 0
M  V30 7996 C 763.928 -1.10348 1.75017 0
M  V30 7997 C 764.343 -1.82345 0.489475 0
M  V30 7998 O 763.7 -1.74362 -0.538886 0
M  V30 7999 C 763.751 -2.11672 2.93048 0
M  V30 8000 O 763.472 -1.42603 4.14241 0
M  V30 8001 C 764.973 -3.0007 3.26301 0
M  V30 8002 H 762.193 -0.329056 0.584776 0
M  V30 8003 H 764.737 -0.395339 2.00642 0
M  V30 8004 H 762.892 -2.78051 2.69753 0
M  V30 8005 H 763.306 -2.10294 4.80496 0
M  V30 8006 H 764.78 -3.67101 4.12239 0
M  V30 8007 H 765.257 -3.66105 2.42618 0
M  V30 8008 H 765.863 -2.3928 3.51604 0
M  V30 8009 N 764.178 -1.45556 -0.604258 0
M  V30 8010 C 765.11 -1.50494 -1.72871 0
M  V30 8011 C 766.123 -0.395368 -1.57926 0
M  V30 8012 O 767.312 -0.662603 -1.65746 0
M  V30 8013 C 764.412 -1.34874 -3.10906 0
M  V30 8014 C 763.585 -2.59564 -3.52058 0
M  V30 8015 C 762.644 -2.38453 -4.6907 0
M  V30 8016 O 761.67 -3.12082 -4.76018 0
M  V30 8017 N 762.872 -1.43229 -5.62553 0
M  V30 8018 H 765.637 -2.4744 -1.69097 0
M  V30 8019 H 763.198 -1.41338 -0.789636 0
M  V30 8020 H 765.19 -1.18556 -3.86945 0
M  V30 8021 H 763.76 -0.461913 -3.09168 0
M  V30 8022 H 762.98 -2.90974 -2.65946 0
M  V30 8023 H 764.268 -3.42441 -3.76313 0
M  V30 8024 H 763.666 -0.824714 -5.59656 0
M  V30 8025 H 762.223 -1.32882 -6.38111 0
M  V30 8026 N 765.656 0.84705 -1.32902 0
M  V30 8027 C 766.884 1.63403 -1.26913 0
M  V30 8028 C 767.299 1.88108 0.161483 0
M  V30 8029 O 766.656 1.45546 1.10103 0
M  V30 8030 C 766.707 2.98896 -2.03331 0
M  V30 8031 O 766.428 2.75281 -3.40811 0
M  V30 8032 C 767.929 3.93335 -2.04457 0
M  V30 8033 H 765.149 0.508701 -0.437566 0
M  V30 8034 H 767.693 1.05567 -1.75145 0
M  V30 8035 H 765.848 3.53356 -1.58802 0
M  V30 8036 H 766.262 3.61504 -3.8002 0
M  V30 8037 H 767.736 4.85647 -2.62394 0
M  V30 8038 H 768.213 4.26885 -1.03274 0
M  V30 8039 H 768.819 3.44812 -2.48967 0
M  V30 8040 N 767.134 1.16236 1.06428 0
M  V30 8041 C 768.411 0.853294 1.76006 0
M  V30 8042 C 768.791 -0.649162 2.00871 0
M  V30 8043 O 768.139 -1.59653 1.63472 0
M  V30 8044 C 768.349 1.67448 3.06206 0
M  V30 8045 C 769.697 1.8866 3.80385 0
M  V30 8046 O 770.721 1.64303 3.16043 0
M  V30 8047 O 769.58 2.29518 4.95968 0
M  V30 8048 H 766.674 0.314737 0.764767 0
M  V30 8049 H 769.22 1.26865 1.12709 0
M  V30 8050 H 767.992 2.69411 2.83784 0
M  V30 8051 H 767.615 1.25608 3.77238 0
M  V30 8052 N 768.612 -1.24939 0.960631 0
M  V30 8053 C 769.859 -1.92818 0.618663 0
M  V30 8054 C 770.187 -1.75177 -0.845173 0
M  V30 8055 O 769.442 -1.09412 -1.62258 0
M  V30 8056 C 769.741 -3.45066 0.930809 0
M  V30 8057 C 769.407 -3.82869 2.38164 0
M  V30 8058 C 768.069 -3.92899 2.7782 0
M  V30 8059 C 770.421 -4.01483 3.32356 0
M  V30 8060 C 767.749 -4.18955 4.10723 0
M  V30 8061 C 770.101 -4.29033 4.6488 0
M  V30 8062 C 768.765 -4.37282 5.04322 0
M  V30 8063 H 768.035 -0.705571 0.226385 0
M  V30 8064 H 770.682 -1.48365 1.21079 0
M  V30 8065 H 768.987 -3.9096 0.256355 0
M  V30 8066 H 770.684 -3.95783 0.644712 0
M  V30 8067 H 767.274 -3.75622 2.06413 0
M  V30 8068 H 771.458 -3.93143 3.02907 0
M  V30 8069 H 766.714 -4.23558 4.40918 0
M  V30 8070 H 770.888 -4.42381 5.3784 0
M  V30 8071 H 768.515 -4.57225 6.0733 0
M  V30 8072 N 770.09 -0.729906 -1.39679 0
M  V30 8073 C 771.038 -0.0756589 -2.32477 0
M  V30 8074 C 772.032 0.731438 -1.52795 0
M  V30 8075 O 773.238 0.633195 -1.68495 0
M  V30 8076 H 769.613 -0.00566492 -0.751979 0
M  V30 8077 H 771.584 -0.874797 -2.85289 0
M  V30 8078 C 770.333 0.821313 -3.37861 0
M  V30 8079 H 769.656 0.209666 -3.9925 0
M  V30 8080 H 771.096 1.24679 -4.05254 0
M  V30 8081 C 769.555 1.9533 -2.74495 0
M  V30 8082 O 770.085 3.04548 -2.61942 0
M  V30 8083 N 768.291 1.74119 -2.3266 0
M  V30 8084 H 767.838 0.852908 -2.4307 0
M  V30 8085 H 767.796 2.50036 -1.90603 0
M  V30 8086 N 771.568 1.50203 -0.477153 0
M  V30 8087 C 772.478 2.32421 0.319027 0
M  V30 8088 C 773.494 1.43075 0.990233 0
M  V30 8089 O 774.67 1.76123 0.976873 0
M  V30 8090 C 771.735 3.17909 1.38328 0
M  V30 8091 C 770.796 4.23082 0.728036 0
M  V30 8092 C 770.029 5.04484 1.74158 0
M  V30 8093 O 770.252 4.8705 2.96881 0
M  V30 8094 O 769.186 5.8747 1.31006 0
M  V30 8095 H 773.012 3.01638 -0.353281 0
M  V30 8096 H 770.597 1.47478 -0.238891 0
M  V30 8097 H 772.479 3.70937 1.9996 0
M  V30 8098 H 771.154 2.51413 2.03895 0
M  V30 8099 H 770.061 3.7403 0.07261 0
M  V30 8100 H 771.394 4.92065 0.115216 0
M  V30 8101 N 773.046 0.209999 1.56195 0
M  V30 8102 C 773.976 -0.699746 2.22769 0
M  V30 8103 C 774.957 -1.20993 1.1956 0
M  V30 8104 O 776.142 -1.25605 1.48112 0
M  V30 8105 C 773.272 -1.91302 2.89863 0
M  V30 8106 C 772.226 -1.53715 3.99444 0
M  V30 8107 C 771.552 -2.82826 4.53777 0
M  V30 8108 C 772.852 -0.735836 5.17091 0
M  V30 8109 H 774.546 -0.144716 2.9905 0
M  V30 8110 H 772.092 -0.0681645 1.43839 0
M  V30 8111 H 774.045 -2.5548 3.35124 0
M  V30 8112 H 772.769 -2.49283 2.11011 0
M  V30 8113 H 771.428 -0.918892 3.54897 0
M  V30 8114 H 771.076 -3.38927 3.71669 0
M  V30 8115 H 770.776 -2.58415 5.27727 0
M  V30 8116 H 772.3 -3.47966 5.01749 0
M  V30 8117 H 773.714 -1.28105 5.58804 0
M  V30 8118 H 772.111 -0.589272 5.972 0
M  V30 8119 H 773.181 0.260004 4.84202 0
M  V30 8120 N 774.524 -1.57472 -0.0634922 0
M  V30 8121 C 775.801 -1.78736 -0.794538 0
M  V30 8122 C 776.181 -0.799645 -1.95369 0
M  V30 8123 O 775.529 0.165521 -2.279 0
M  V30 8124 C 775.739 -3.25471 -1.25975 0
M  V30 8125 C 777.087 -3.89528 -1.68976 0
M  V30 8126 O 778.111 -3.29412 -1.35521 0
M  V30 8127 O 776.97 -4.95305 -2.30944 0
M  V30 8128 H 774.064 -0.733813 -0.381376 0
M  V30 8129 H 776.61 -1.69646 -0.0429258 0
M  V30 8130 H 775.382 -3.88922 -0.430721 0
M  V30 8131 H 775.005 -3.39317 -2.07243 0
M  V30 8132 N 776.003 0.335068 -1.53997 0
M  V30 8133 C 776.933 1.41727 -1.85568 0
M  V30 8134 C 777.914 1.54505 -0.7115 0
M  V30 8135 O 779.099 1.68573 -0.964191 0
M  V30 8136 C 776.229 2.7866 -2.07282 0
M  V30 8137 C 775.183 2.80682 -3.23112 0
M  V30 8138 C 774.509 4.20581 -3.30175 0
M  V30 8139 C 775.809 2.45458 -4.61029 0
M  V30 8140 H 777.503 1.15555 -2.76202 0
M  V30 8141 H 775.049 0.554445 -1.32898 0
M  V30 8142 H 777.002 3.54423 -2.27952 0
M  V30 8143 H 775.726 3.06286 -1.13387 0
M  V30 8144 H 774.385 2.07373 -3.02311 0
M  V30 8145 H 774.033 4.4533 -2.33859 0
M  V30 8146 H 773.733 4.22843 -4.08016 0
M  V30 8147 H 775.257 4.98174 -3.53066 0
M  V30 8148 H 776.671 3.10934 -4.81656 0
M  V30 8149 H 775.068 2.5899 -5.41336 0
M  V30 8150 H 776.138 1.40628 -4.6406 0
M  V30 8151 N 777.481 1.45874 0.596531 0
M  V30 8152 C 778.391 1.57947 1.73464 0
M  V30 8153 C 779.407 0.463461 1.67714 0
M  V30 8154 O 780.583 0.725685 1.87872 0
M  V30 8155 C 777.648 1.55348 3.09948 0
M  V30 8156 C 776.709 2.78074 3.27068 0
M  V30 8157 C 775.942 2.75589 4.57041 0
M  V30 8158 O 776.165 1.83545 5.40063 0
M  V30 8159 O 775.099 3.66945 4.77111 0
M  V30 8160 H 778.925 2.54169 1.66228 0
M  V30 8161 H 776.51 1.2851 0.76194 0
M  V30 8162 H 778.392 1.56545 3.91244 0
M  V30 8163 H 777.067 0.622811 3.17652 0
M  V30 8164 H 775.974 2.82435 2.45319 0
M  V30 8165 H 777.307 3.70303 3.24248 0
M  V30 8166 N 778.959 -0.83999 1.33349 0
M  V30 8167 C 780.187 -1.62728 1.27778 0
M  V30 8168 C 780.602 -1.88191 -0.151505 0
M  V30 8169 O 779.959 -1.46128 -1.09329 0
M  V30 8170 C 780.01 -2.97813 2.04913 0
M  V30 8171 O 779.731 -2.73469 3.42266 0
M  V30 8172 C 781.232 -3.92245 2.0654 0
M  V30 8173 H 778.452 -0.506374 0.440257 0
M  V30 8174 H 780.996 -1.04637 1.75703 0
M  V30 8175 H 779.151 -3.52509 1.60674 0
M  V30 8176 H 779.565 -3.59483 3.81932 0
M  V30 8177 H 781.039 -4.84249 2.64966 0
M  V30 8178 H 781.516 -4.26332 1.05537 0
M  V30 8179 H 782.122 -3.43487 2.50793 0
M  V30 8180 N 780.437 -1.16799 -1.0581 0
M  V30 8181 C 781.367 -0.902241 -2.15364 0
M  V30 8182 C 782.348 0.153351 -1.69407 0
M  V30 8183 O 783.533 0.00442032 -1.94199 0
M  V30 8184 C 780.663 -0.407911 -3.44896 0
M  V30 8185 C 779.617 -1.40197 -4.04387 0
M  V30 8186 C 778.943 -0.765848 -5.29187 0
M  V30 8187 C 780.243 -2.77316 -4.42598 0
M  V30 8188 H 781.937 -1.81841 -2.37853 0
M  V30 8189 H 779.483 -0.875731 -1.14311 0
M  V30 8190 H 781.436 -0.20945 -4.20879 0
M  V30 8191 H 780.16 0.54378 -3.22041 0
M  V30 8192 H 778.819 -1.58707 -3.30466 0
M  V30 8193 H 778.467 0.192482 -5.02632 0
M  V30 8194 H 778.167 -1.42939 -5.69949 0
M  V30 8195 H 779.691 -0.577519 -6.07863 0
M  V30 8196 H 781.105 -2.62561 -5.09642 0
M  V30 8197 H 779.502 -3.4019 -4.94359 0
M  V30 8198 H 780.572 -3.32199 -3.53231 0
M  V30 8199 N 781.915 1.24427 -0.967243 0
M  V30 8200 C 782.878 2.23637 -0.501927 0
M  V30 8201 C 783.878 1.55712 0.401283 0
M  V30 8202 O 785.068 1.73085 0.196808 0
M  V30 8203 C 782.2 3.39804 0.273176 0
M  V30 8204 H 783.393 2.66317 -1.37897 0
M  V30 8205 H 780.946 1.37033 -0.751783 0
M  V30 8206 H 781.681 3.02562 1.16733 0
M  V30 8207 H 781.466 3.90303 -0.37498 0
M  V30 8208 H 782.956 4.13443 0.587776 0
M  V30 8209 N 783.393 0.737304 1.3929 0
M  V30 8210 C 784.804 0.355966 1.83275 0
M  V30 8211 C 785.155 -1.11295 1.6158 0
M  V30 8212 O 784.28 -1.85871 1.10819 0
M  V30 8213 C 784.875 0.63931 3.32713 0
M  V30 8214 C 783.434 0.31144 3.75109 0
M  V30 8215 C 782.581 0.900765 2.62262 0
M  V30 8216 H 785.532 0.934763 1.28249 0
M  V30 8217 H 785.553 -0.0881293 3.80398 0
M  V30 8218 H 785.065 1.70847 3.48472 0
M  V30 8219 H 783.166 -0.751791 3.64937 0
M  V30 8220 H 783.279 0.795611 4.72448 0
M  V30 8221 H 781.643 0.327239 2.52589 0
M  V30 8222 H 782.426 1.97463 2.80826 0
M  V30 8223 N 784.871 -1.49948 0.485112 0
M  V30 8224 C 786.101 -2.06506 -0.0621921 0
M  V30 8225 C 786.509 -1.34756 -1.32806 0
M  V30 8226 O 785.852 -0.41466 -1.78959 0
M  V30 8227 C 785.914 -3.57243 -0.402182 0
M  V30 8228 C 785.578 -4.50574 0.763671 0
M  V30 8229 C 786.575 -4.93032 1.6497 0
M  V30 8230 C 784.26 -4.9308 0.957973 0
M  V30 8231 C 786.254 -5.76718 2.71432 0
M  V30 8232 C 783.941 -5.76546 2.0258 0
M  V30 8233 C 784.939 -6.18267 2.90232 0
M  V30 8234 O 784.627 -7.00066 3.95174 0
M  V30 8235 H 784.359 -0.675925 0.0100672 0
M  V30 8236 H 786.913 -1.93922 0.677023 0
M  V30 8237 H 785.143 -3.6778 -1.19478 0
M  V30 8238 H 786.832 -3.96107 -0.886219 0
M  V30 8239 H 787.598 -4.60851 1.51134 0
M  V30 8240 H 783.477 -4.60117 0.285144 0
M  V30 8241 H 787.021 -6.09203 3.39878 0
M  V30 8242 H 782.918 -6.0814 2.16417 0
M  V30 8243 H 783.686 -7.18343 3.92333 0
M  V30 8244 N 786.349 -0.21828 -1.56081 0
M  V30 8245 C 787.598 0.414644 -1.97392 0
M  V30 8246 C 787.911 1.61132 -1.10887 0
M  V30 8247 O 789.117 2.31355 -1.42082 0
M  V30 8248 C 787.573 0.789099 -3.51143 0
M  V30 8249 C 787.181 -0.384578 -4.46346 0
M  V30 8250 C 788.925 1.38781 -4.01173 0
M  V30 8251 C 786.832 0.0121288 -5.91399 0
M  V30 8252 H 785.762 0.158691 -0.737111 0
M  V30 8253 H 788.413 -0.313974 -1.80794 0
M  V30 8254 H 786.795 1.57505 -3.6333 0
M  V30 8255 H 787.969 -1.16212 -4.45905 0
M  V30 8256 H 786.284 -0.896306 -4.06639 0
M  V30 8257 H 788.881 1.69746 -5.07041 0
M  V30 8258 H 789.224 2.30245 -3.46833 0
M  V30 8259 H 789.757 0.665364 -3.92196 0
M  V30 8260 H 786.496 -0.868917 -6.49715 0
M  V30 8261 H 786.016 0.754053 -5.95041 0
M  V30 8262 H 787.695 0.439949 -6.45502 0
M  V30 8263 N 787.827 1.57504 0.0551401 0
M  V30 8264 C 789.238 1.76626 0.604979 0
M  V30 8265 C 789.589 0.845978 1.77024 0
M  V30 8266 O 788.714 0.0341936 2.16373 0
M  V30 8267 C 789.309 3.203 1.10425 0
M  V30 8268 C 787.868 3.4071 1.59981 0
M  V30 8269 C 787.015 2.72258 0.526414 0
M  V30 8270 H 789.966 1.57775 -0.171072 0
M  V30 8271 H 789.987 3.25377 1.97256 0
M  V30 8272 H 789.499 3.87255 0.255939 0
M  V30 8273 H 787.6 2.78892 2.47083 0
M  V30 8274 H 787.713 4.49227 1.66528 0
M  V30 8275 H 786.077 2.35283 0.97539 0
M  V30 8276 H 786.86 3.41879 -0.311991 0
M  V30 8277 N 789.305 -0.326896 1.54172 0
M  V30 8278 C 790.238 -1.42591 1.78166 0
M  V30 8279 C 791.216 -1.49837 0.631484 0
M  V30 8280 O 792.4 -1.67298 0.868544 0
M  V30 8281 C 789.527 -2.8071 1.89524 0
M  V30 8282 C 788.573 -2.91012 3.11792 0
M  V30 8283 S 789.406 -2.55763 4.70474 0
M  V30 8284 C 790.562 -3.9596 4.84733 0
M  V30 8285 H 790.795 -1.22024 2.71104 0
M  V30 8286 H 788.328 -0.523539 1.45253 0
M  V30 8287 H 790.286 -3.60276 1.96753 0
M  V30 8288 H 788.947 -2.98562 0.975696 0
M  V30 8289 H 788.14 -3.92258 3.16464 0
M  V30 8290 H 787.742 -2.19414 3.02876 0
M  V30 8291 H 790.034 -4.90676 4.67166 0
M  V30 8292 H 790.977 -3.96273 5.86833 0
M  V30 8293 H 791.385 -3.8476 4.13062 0
M  V30 8294 N 790.784 -1.46188 -0.588786 0
M  V30 8295 C 792.061 -1.41659 -1.34878 0
M  V30 8296 C 792.441 -0.0968913 -2.10878 0
M  V30 8297 O 791.789 0.921468 -2.09096 0
M  V30 8298 C 791.999 -2.6424 -2.27988 0
M  V30 8299 C 793.347 -3.1013 -2.90008 0
M  V30 8300 O 794.371 -2.64745 -2.38303 0
M  V30 8301 O 793.23 -3.88944 -3.83908 0
M  V30 8302 H 790.324 -0.563058 -0.605718 0
M  V30 8303 H 792.87 -1.58346 -0.610309 0
M  V30 8304 H 791.642 -3.51853 -1.71217 0
M  V30 8305 H 791.265 -2.49982 -3.09184 0
M  V30 8306 N 792.262 0.832906 -1.33792 0
M  V30 8307 C 793.51 1.58539 -1.25338 0
M  V30 8308 C 793.831 1.94175 0.179204 0
M  V30 8309 O 793.101 1.61458 1.10941 0
M  V30 8310 H 791.681 0.58784 -0.460926 0
M  V30 8311 H 794.343 0.995064 -1.67584 0
M  V30 8312 H 793.439 2.51268 -1.85123 0
M  V30 8313 N 793.74 1.17359 1.05189 0
M  V30 8314 C 794.65 0.904984 2.16442 0
M  V30 8315 C 795.666 -0.12686 1.73537 0
M  V30 8316 O 796.842 0.0524127 2.01332 0
M  V30 8317 C 793.907 0.422019 3.44122 0
M  V30 8318 C 792.968 1.52045 4.01473 0
M  V30 8319 C 792.201 1.06044 5.23059 0
M  V30 8320 O 792.424 -0.0854023 5.70336 0
M  V30 8321 O 791.358 1.85349 5.72651 0
M  V30 8322 H 795.184 1.8356 2.41949 0
M  V30 8323 H 792.769 0.95447 1.14936 0
M  V30 8324 H 794.651 0.160208 4.21095 0
M  V30 8325 H 793.326 -0.480444 3.20115 0
M  V30 8326 H 792.233 1.83615 3.25939 0
M  V30 8327 H 793.566 2.39863 4.29798 0
M  V30 8328 N 795.218 -1.23913 0.973828 0
M  V30 8329 C 796.495 -1.87539 0.555729 0
M  V30 8330 C 796.875 -1.87641 -0.967162 0
M  V30 8331 O 796.223 -1.35335 -1.84111 0
M  V30 8332 C 796.433 -3.29359 1.15427 0
M  V30 8333 C 797.781 -4.06 1.24294 0
M  V30 8334 O 798.805 -3.38554 1.10723 0
M  V30 8335 O 797.664 -5.26689 1.45813 0
M  V30 8336 H 794.758 -0.805769 0.186188 0
M  V30 8337 H 797.304 -1.31838 1.06849 0
M  V30 8338 H 796.076 -3.23817 2.19678 0
M  V30 8339 H 795.699 -3.92642 0.625925 0
M  V30 8340 N 796.696 -0.74468 -1.38897 0
M  V30 8341 C 797.943 -0.296884 -2.00312 0
M  V30 8342 C 798.271 1.11878 -1.59102 0
M  V30 8343 O 797.526 1.7789 -0.815702 0
M  V30 8344 C 797.825 -0.357302 -3.55609 0
M  V30 8345 C 797.491 -1.72736 -4.16501 0
M  V30 8346 C 796.153 -2.10232 -4.32846 0
M  V30 8347 C 798.505 -2.62647 -4.50184 0
M  V30 8348 C 795.833 -3.3713 -4.80167 0
M  V30 8349 C 798.185 -3.88926 -4.98918 0
M  V30 8350 C 796.849 -4.26503 -5.1347 0
M  V30 8351 H 796.119 -0.108638 -0.732993 0
M  V30 8352 H 798.766 -0.953419 -1.66079 0
M  V30 8353 H 797.071 0.382805 -3.89925 0
M  V30 8354 H 798.768 0.0074596 -4.00999 0
M  V30 8355 H 795.358 -1.42585 -4.04187 0
M  V30 8356 H 799.542 -2.34945 -4.37166 0
M  V30 8357 H 794.798 -3.66174 -4.89619 0
M  V30 8358 H 798.972 -4.58745 -5.23952 0
M  V30 8359 H 796.599 -5.24896 -5.49898 0
M  V30 8360 N 798.174 1.49689 -0.493057 0
M  V30 8361 C 799.106 2.26867 0.326195 0
M  V30 8362 C 800.119 1.33083 0.937697 0
M  V30 8363 O 801.308 1.58427 0.822382 0
M  V30 8364 C 798.408 3.0519 1.4735 0
M  V30 8365 C 797.581 4.26491 0.970767 0
M  V30 8366 C 796.64 4.86926 1.99473 0
M  V30 8367 O 795.666 5.47221 1.56647 0
M  V30 8368 N 796.868 4.75871 3.32456 0
M  V30 8369 H 799.633 2.97816 -0.335547 0
M  V30 8370 H 797.194 1.58602 -0.325129 0
M  V30 8371 H 799.186 3.42496 2.15589 0
M  V30 8372 H 797.756 2.369 2.03954 0
M  V30 8373 H 796.976 3.94036 0.113529 0
M  V30 8374 H 798.264 5.05092 0.613156 0
M  V30 8375 H 797.662 4.2797 3.69944 0
M  V30 8376 H 796.219 5.17383 3.96431 0
M  V30 8377 N 799.652 0.226554 1.55963 0
M  V30 8378 C 800.582 -0.676079 2.23498 0
M  V30 8379 C 801.563 -1.19718 1.20837 0
M  V30 8380 O 802.748 -1.24027 1.49436 0
M  V30 8381 C 799.878 -1.88217 2.91876 0
M  V30 8382 C 798.832 -1.4947 4.01052 0
M  V30 8383 C 798.158 -2.77997 4.56751 0
M  V30 8384 C 799.458 -0.680951 5.17842 0
M  V30 8385 H 801.152 -0.112989 2.99187 0
M  V30 8386 H 798.698 -0.0529046 1.43903 0
M  V30 8387 H 800.651 -2.51911 3.37815 0
M  V30 8388 H 799.375 -2.47031 2.13643 0
M  V30 8389 H 798.034 -0.881199 3.55852 0
M  V30 8390 H 797.682 -3.34966 3.75243 0
M  V30 8391 H 797.382 -2.52803 5.30438 0
M  V30 8392 H 798.906 -3.42625 5.05411 0
M  V30 8393 H 800.32 -1.22171 5.60131 0
M  V30 8394 H 798.717 -0.525898 5.97791 0
M  V30 8395 H 799.787 0.311346 4.83899 0
M  V30 8396 N 801.13 -1.57531 -0.0467866 0
M  V30 8397 C 802.355 -1.93087 -0.757123 0
M  V30 8398 C 802.78 -0.825116 -1.69037 0
M  V30 8399 O 802.138 0.220449 -1.79955 0
M  V30 8400 C 802.186 -3.27669 -1.5055 0
M  V30 8401 O 801.29 -3.18667 -2.61773 0
M  V30 8402 H 800.631 -0.631597 -0.204892 0
M  V30 8403 H 803.161 -2.04599 -0.00755232 0
M  V30 8404 H 803.171 -3.6214 -1.87932 0
M  V30 8405 H 801.846 -4.07717 -0.820931 0
M  V30 8406 H 800.423 -2.95798 -2.27064 0
M  V30 8407 N 802.608 0.318715 -1.54344 0
M  V30 8408 C 804.019 0.89285 -1.63967 0
M  V30 8409 C 804.37 1.88712 -0.536855 0
M  V30 8410 O 803.495 2.13877 0.329457 0
M  V30 8411 C 804.09 1.62618 -2.97222 0
M  V30 8412 C 802.649 2.14897 -3.09025 0
M  V30 8413 C 801.796 0.975909 -2.5956 0
M  V30 8414 H 804.747 0.0961687 -1.58408 0
M  V30 8415 H 804.768 2.4907 -2.87653 0
M  V30 8416 H 804.28 0.902286 -3.77466 0
M  V30 8417 H 802.381 2.90387 -2.33465 0
M  V30 8418 H 802.494 2.39565 -4.14904 0
M  V30 8419 H 800.858 1.35646 -2.15574 0
M  V30 8420 H 801.641 0.266253 -3.42266 0
M  V30 8421 N 804.086 1.46499 0.581025 0
M  V30 8422 C 805.335 1.51162 1.3354 0
M  V30 8423 C 805.648 0.168433 1.94873 0
M  V30 8424 O 806.854 0.092883 2.71341 0
M  V30 8425 C 805.31 2.66362 2.42032 0
M  V30 8426 C 804.918 4.07109 1.86994 0
M  V30 8427 C 806.662 2.80297 3.188 0
M  V30 8428 C 804.569 5.13645 2.93125 0
M  V30 8429 H 803.499 0.562576 0.502021 0
M  V30 8430 H 806.15 1.72713 0.619863 0
M  V30 8431 H 804.532 2.38143 3.16392 0
M  V30 8432 H 805.706 4.45125 1.19166 0
M  V30 8433 H 804.021 3.97854 1.22887 0
M  V30 8434 H 806.618 3.5706 3.9801 0
M  V30 8435 H 806.961 1.87875 3.71495 0
M  V30 8436 H 807.494 3.0817 2.51547 0
M  V30 8437 H 804.233 6.07866 2.45315 0
M  V30 8438 H 803.753 4.80172 3.59437 0
M  V30 8439 H 805.432 5.39562 3.57046 0
M  V30 8440 N 805.565 -0.825799 1.34232 0
M  V30 8441 C 806.805 -1.59541 1.27773 0
M  V30 8442 C 807.169 -1.91405 -0.150998 0
M  V30 8443 O 808.37 -2.66644 -0.339728 0
M  V30 8444 C 806.641 -2.86183 2.14089 0
M  V30 8445 S 808.2 -3.76751 2.24953 0
M  V30 8446 H 805.018 -0.546871 0.454371 0
M  V30 8447 H 807.62 -0.975677 1.69413 0
M  V30 8448 H 806.324 -2.60767 3.16905 0
M  V30 8449 H 805.855 -3.53155 1.73335 0
M  V30 8450 H 807.87 -4.75442 1.4202 0
M  V30 8451 N 807.043 -1.17915 -1.04565 0
M  V30 8452 C 808.454 -0.976383 -1.59134 0
M  V30 8453 C 808.805 0.475267 -1.90357 0
M  V30 8454 O 807.93 1.35172 -1.6899 0
M  V30 8455 C 808.525 -1.76604 -2.89131 0
M  V30 8456 C 807.084 -1.60777 -3.40335 0
M  V30 8457 C 806.231 -1.76369 -2.13985 0
M  V30 8458 H 809.182 -1.32532 -0.872985 0
M  V30 8459 H 809.203 -1.25215 -3.59307 0
M  V30 8460 H 808.715 -2.82252 -2.66375 0
M  V30 8461 H 806.816 -0.576436 -3.68114 0
M  V30 8462 H 806.929 -2.40268 -4.14497 0
M  V30 8463 H 805.293 -1.19268 -2.25049 0
M  V30 8464 H 806.076 -2.83441 -1.9369 0
M  V30 8465 N 808.521 1.23394 -0.980386 0
M  V30 8466 C 809.431 2.28561 -0.528864 0
M  V30 8467 C 810.447 1.68946 0.416329 0
M  V30 8468 O 811.623 1.99355 0.286251 0
M  V30 8469 C 808.688 3.46323 0.16155 0
M  V30 8470 C 807.749 4.21297 -0.825044 0
M  V30 8471 C 806.982 5.33437 -0.167483 0
M  V30 8472 O 807.205 5.60812 1.04146 0
M  V30 8473 O 806.139 5.95637 -0.866047 0
M  V30 8474 H 809.965 2.69326 -1.40346 0
M  V30 8475 H 807.55 1.29325 -0.748019 0
M  V30 8476 H 809.432 4.17811 0.548841 0
M  V30 8477 H 808.107 3.0751 1.01092 0
M  V30 8478 H 807.014 3.52134 -1.26303 0
M  V30 8479 H 808.347 4.6396 -1.64322 0
M  V30 8480 N 809.999 0.752036 1.385 0
M  V30 8481 C 810.909 0.125318 2.34265 0
M  V30 8482 C 811.925 -0.702437 1.59191 0
M  V30 8483 O 813.101 -0.626951 1.91393 0
M  V30 8484 C 810.166 -0.758486 3.38301 0
M  V30 8485 C 809.227 0.0834636 4.29219 0
M  V30 8486 C 808.46 -0.758252 5.28286 0
M  V30 8487 O 808.683 -1.99632 5.34325 0
M  V30 8488 O 807.617 -0.177878 6.01637 0
M  V30 8489 H 811.443 0.91617 2.89551 0
M  V30 8490 H 809.028 0.512911 1.4032 0
M  V30 8491 H 810.91 -1.26365 4.02007 0
M  V30 8492 H 809.585 -1.52786 2.85374 0
M  V30 8493 H 808.492 0.634545 3.68679 0
M  V30 8494 H 809.825 0.815455 4.85398 0
M  V30 8495 N 811.477 -1.49425 0.500989 0
M  V30 8496 C 812.893 -1.58826 0.156951 0
M  V30 8497 C 813.093 -1.50622 -1.33848 0
M  V30 8498 O 812.149 -1.38016 -2.11442 0
M  V30 8499 C 813.462 -2.91611 0.73374 0
M  V30 8500 C 815.01 -3.05076 0.699846 0
M  V30 8501 C 815.485 -4.40479 1.2547 0
M  V30 8502 N 816.976 -4.4697 1.2154 0
M  V30 8503 C 817.711 -5.50189 1.6149 0
M  V30 8504 N 817.207 -6.60512 2.09034 0
M  V30 8505 N 819 -5.40903 1.52907 0
M  V30 8506 H 811.151 -1.53001 1.47324 0
M  V30 8507 H 813.414 -0.724765 0.61108 0
M  V30 8508 H 813.12 -3.03182 1.78251 0
M  V30 8509 H 812.994 -3.767 0.19417 0
M  V30 8510 H 815.381 -2.93134 -0.340085 0
M  V30 8511 H 815.462 -2.2167 1.27656 0
M  V30 8512 H 815.106 -4.53172 2.29341 0
M  V30 8513 H 815.036 -5.22524 0.653921 0
M  V30 8514 H 817.527 -3.67819 0.867043 0
M  V30 8515 H 817.84 -7.35372 2.37588 0
M  V30 8516 H 816.185 -6.61553 2.13008 0
M  V30 8517 H 819.376 -4.53606 1.15583 0
M  V30 8518 H 819.549 -6.21219 1.84365 0
M  V30 8519 N 812.955 -0.234822 -1.55841 0
M  V30 8520 C 813.885 0.664217 -2.23854 0
M  V30 8521 C 814.866 1.19076 -1.2147 0
M  V30 8522 O 816.051 1.23232 -1.50091 0
M  V30 8523 C 813.181 1.86666 -2.9287 0
M  V30 8524 C 812.135 1.47341 -4.01839 0
M  V30 8525 C 811.461 2.75571 -4.58219 0
M  V30 8526 C 812.761 0.653479 -5.18196 0
M  V30 8527 H 814.455 0.0971213 -2.99242 0
M  V30 8528 H 812.001 0.0452724 -1.43929 0
M  V30 8529 H 813.954 2.50116 -3.39146 0
M  V30 8530 H 812.678 2.45894 -2.1495 0
M  V30 8531 H 811.337 0.862314 -3.56314 0
M  V30 8532 H 810.985 3.32971 -3.77014 0
M  V30 8533 H 810.685 2.49987 -5.31771 0
M  V30 8534 H 812.209 3.39939 -5.07221 0
M  V30 8535 H 813.623 1.19198 -5.60771 0
M  V30 8536 H 812.02 0.494188 -5.98062 0
M  V30 8537 H 813.09 -0.337004 -4.83728 0
M  V30 8538 N 814.433 1.57553 0.0384317 0
M  V30 8539 C 815.363 2.0898 1.04161 0
M  V30 8540 C 816.344 0.99029 1.38301 0
M  V30 8541 O 817.529 1.26499 1.47349 0
M  V30 8542 C 814.659 2.56145 2.34536 0
M  V30 8543 C 813.613 3.70275 2.14663 0
M  V30 8544 C 812.939 4.03612 3.50715 0
M  V30 8545 C 814.239 4.99067 1.54045 0
M  V30 8546 H 815.933 2.93046 0.613548 0
M  V30 8547 H 813.479 1.40973 0.293684 0
M  V30 8548 H 815.432 2.90741 3.05037 0
M  V30 8549 H 814.156 1.6915 2.79385 0
M  V30 8550 H 812.815 3.36013 1.46597 0
M  V30 8551 H 812.463 3.13698 3.93195 0
M  V30 8552 H 812.163 4.80482 3.38247 0
M  V30 8553 H 813.687 4.40735 4.22593 0
M  V30 8554 H 815.101 5.3168 2.14451 0
M  V30 8555 H 813.498 5.80484 1.52178 0
M  V30 8556 H 814.568 4.8226 0.505259 0
M  V30 8557 N 815.911 -0.310526 1.54511 0
M  V30 8558 C 816.874 -1.3657 1.84068 0
M  V30 8559 C 817.874 -1.44123 0.713097 0
M  V30 8560 O 819.064 -1.43924 0.981399 0
M  V30 8561 C 816.196 -2.75162 2.01243 0
M  V30 8562 H 817.389 -1.1161 2.78358 0
M  V30 8563 H 814.942 -0.546699 1.46427 0
M  V30 8564 H 815.677 -3.05359 1.09208 0
M  V30 8565 H 815.462 -2.71071 2.83307 0
M  V30 8566 H 816.952 -3.51473 2.25514 0
M  V30 8567 N 817.389 -1.46805 -0.573248 0
M  V30 8568 C 818.299 -1.60687 -1.70929 0
M  V30 8569 C 819.315 -0.490084 -1.66956 0
M  V30 8570 O 820.491 -0.755482 -1.86693 0
M  V30 8571 C 817.556 -1.60259 -3.07438 0
M  V30 8572 C 816.617 -2.83242 -3.22603 0
M  V30 8573 C 815.85 -2.82825 -4.52599 0
M  V30 8574 O 816.073 -1.92113 -5.37074 0
M  V30 8575 O 815.007 -3.74489 -4.71213 0
M  V30 8576 H 818.833 -2.56782 -1.62163 0
M  V30 8577 H 816.418 -1.29706 -0.741399 0
M  V30 8578 H 818.3 -1.6275 -3.88704 0
M  V30 8579 H 816.975 -0.673268 -3.16621 0
M  V30 8580 H 815.882 -2.86302 -2.40794 0
M  V30 8581 H 817.215 -3.75415 -3.18315 0
M  V30 8582 N 818.867 0.818669 -1.34668 0
M  V30 8583 C 819.815 1.95123 -1.26609 0
M  V30 8584 C 820.809 1.68611 -0.163348 0
M  V30 8585 O 822.015 1.76975 -0.328586 0
M  V30 8586 H 818.39 0.640871 -0.393431 0
M  V30 8587 H 820.361 1.99043 -2.22316 0
M  V30 8588 C 819.11 3.31697 -1.04272 0
M  V30 8589 H 818.433 3.52648 -1.8836 0
M  V30 8590 H 819.873 4.11382 -1.0267 0
M  V30 8591 C 818.332 3.35942 0.253858 0
M  V30 8592 O 818.862 3.81632 1.25378 0
M  V30 8593 N 817.068 2.89165 0.288447 0
M  V30 8594 H 816.615 2.52176 -0.525845 0
M  V30 8595 H 816.573 2.92387 1.15572 0
M  V30 8596 N 820.346 1.18468 1.03938 0
M  V30 8597 C 821.757 0.984808 1.58614 0
M  V30 8598 C 822.108 -0.465165 1.90606 0
M  V30 8599 O 821.233 -1.34274 1.69704 0
M  V30 8600 C 821.828 1.78135 2.8819 0
M  V30 8601 C 820.387 1.62579 3.39478 0
M  V30 8602 C 819.534 1.77501 2.13046 0
M  V30 8603 H 822.485 1.32993 0.865944 0
M  V30 8604 H 822.506 1.27119 3.58638 0
M  V30 8605 H 822.018 2.83661 2.64874 0
M  V30 8606 H 820.119 0.59595 3.67803 0
M  V30 8607 H 820.232 2.42463 4.13217 0
M  V30 8608 H 818.596 1.2046 2.24414 0
M  V30 8609 H 819.379 2.84464 1.92185 0
M  V30 8610 N 821.824 -1.22873 0.986916 0
M  V30 8611 C 822.756 -2.23889 0.490537 0
M  V30 8612 C 823.769 -1.57523 -0.411144 0
M  V30 8613 O 824.958 -1.7721 -0.214236 0
M  V30 8614 C 822.058 -3.37488 -0.30902 0
M  V30 8615 C 821.231 -4.33438 0.587354 0
M  V30 8616 C 820.29 -5.25958 -0.159467 0
M  V30 8617 O 819.316 -5.67394 0.453115 0
M  V30 8618 N 820.518 -5.62265 -1.44355 0
M  V30 8619 H 823.283 -2.67109 1.35914 0
M  V30 8620 H 820.844 -1.37111 0.860937 0
M  V30 8621 H 822.836 -3.96365 -0.817139 0
M  V30 8622 H 821.406 -2.934 -1.07868 0
M  V30 8623 H 820.626 -3.72969 1.27622 0
M  V30 8624 H 821.914 -4.94495 1.19801 0
M  V30 8625 H 821.312 -5.30562 -1.96266 0
M  V30 8626 H 819.869 -6.23585 -1.89698 0
M  V30 8627 N 823.302 -0.75937 -1.38099 0
M  V30 8628 C 824.527 -0.327859 -2.04792 0
M  V30 8629 C 824.952 1.03752 -1.56899 0
M  V30 8630 O 824.31 1.66235 -0.723581 0
M  V30 8631 C 824.358 -0.366264 -3.58735 0
M  V30 8632 O 823.462 0.637697 -4.0744 0
M  V30 8633 H 822.803 -0.144092 -0.648177 0
M  V30 8634 H 825.333 -1.03211 -1.7666 0
M  V30 8635 H 825.343 -0.219179 -4.07411 0
M  V30 8636 H 824.018 -1.36243 -3.92951 0
M  V30 8637 H 822.595 0.454749 -3.70117 0
M  V30 8638 N 824.78 1.49157 -0.508906 0
M  V30 8639 C 826.008 2.06879 0.0293734 0
M  V30 8640 C 826.423 1.36823 1.30095 0
M  V30 8641 O 825.78 0.449034 1.7689 0
M  V30 8642 C 825.831 3.60423 0.278791 0
M  V30 8643 O 825.552 4.27844 -0.942389 0
M  V30 8644 C 827.053 4.34881 0.859825 0
M  V30 8645 H 824.273 0.67057 -0.0240184 0
M  V30 8646 H 826.817 1.91834 -0.708526 0
M  V30 8647 H 824.972 3.75145 0.966689 0
M  V30 8648 H 825.386 5.19671 -0.710097 0
M  V30 8649 H 826.86 5.43161 0.983884 0
M  V30 8650 H 827.337 3.9789 1.85958 0
M  V30 8651 H 827.943 4.24785 0.209152 0
M  V30 8652 N 826.258 0.243083 1.55714 0
M  V30 8653 C 827.669 -0.260788 1.8487 0
M  V30 8654 C 828.02 -1.57879 1.16485 0
M  V30 8655 O 827.145 -2.1184 0.441908 0
M  V30 8656 C 827.74 -0.479954 3.35383 0
M  V30 8657 C 826.299 -0.928096 3.64778 0
M  V30 8658 C 825.446 -0.00316416 2.773 0
M  V30 8659 H 828.397 0.465743 1.51712 0
M  V30 8660 H 828.418 -1.32308 3.56756 0
M  V30 8661 H 827.93 0.479468 3.85127 0
M  V30 8662 H 826.031 -1.90012 3.20509 0
M  V30 8663 H 826.144 -0.7876 4.72582 0
M  V30 8664 H 824.508 -0.513849 2.49463 0
M  V30 8665 H 825.291 0.951562 3.29849 0
M  V30 8666 N 827.736 -1.57571 -0.0300757 0
M  V30 8667 C 828.668 -2.0329 -1.05857 0
M  V30 8668 C 829.681 -0.945543 -1.32527 0
M  V30 8669 O 830.87 -1.22287 -1.30032 0
M  V30 8670 C 827.97 -2.39234 -2.40042 0
M  V30 8671 C 827.143 -3.70337 -2.32743 0
M  V30 8672 C 826.202 -3.93482 -3.49369 0
M  V30 8673 O 825.228 -4.64551 -3.28909 0
M  V30 8674 N 826.43 -3.39042 -4.71201 0
M  V30 8675 H 829.195 -2.9214 -0.668897 0
M  V30 8676 H 826.756 -1.60425 -0.218038 0
M  V30 8677 H 828.748 -2.51856 -3.16782 0
M  V30 8678 H 827.318 -1.5606 -2.70858 0
M  V30 8679 H 826.538 -3.68079 -1.41109 0
M  V30 8680 H 827.826 -4.56343 -2.25007 0
M  V30 8681 H 827.224 -2.81434 -4.90725 0
M  V30 8682 H 825.781 -3.57045 -5.45309 0
M  V30 8683 N 829.214 0.302327 -1.54673 0
M  V30 8684 C 830.164 1.37443 -1.81916 0
M  V30 8685 C 831.148 1.45999 -0.676251 0
M  V30 8686 O 832.34 1.50174 -0.93685 0
M  V30 8687 C 829.469 2.73966 -2.06876 0
M  V30 8688 C 828.555 2.69637 -3.27348 0
M  V30 8689 N 828.946 2.34926 -4.47933 0
M  V30 8690 C 827.244 3.00742 -3.29348 0
M  V30 8691 C 827.945 2.39862 -5.29944 0
M  V30 8692 N 826.921 2.77163 -4.67634 0
M  V30 8693 H 830.723 1.09567 -2.72713 0
M  V30 8694 H 828.237 0.5109 -1.54154 0
M  V30 8695 H 830.234 3.51265 -2.2454 0
M  V30 8696 H 828.894 3.02754 -1.17346 0
M  V30 8697 H 829.905 2.07403 -4.74557 0
M  V30 8698 H 826.582 3.34434 -2.49921 0
M  V30 8699 H 827.972 2.15835 -6.3629 0
M  V30 8700 N 830.692 1.47107 0.565454 0
M  V30 8701 C 831.932 1.5488 1.33385 0
M  V30 8702 C 832.296 0.202804 1.90926 0
M  V30 8703 O 833.497 0.155345 2.68351 0
M  V30 8704 C 831.768 2.62969 2.42037 0
M  V30 8705 S 833.327 2.90269 3.29074 0
M  V30 8706 H 830.145 0.547008 0.454206 0
M  V30 8707 H 832.747 1.8444 0.648228 0
M  V30 8708 H 831.451 3.59376 1.98185 0
M  V30 8709 H 830.982 2.35197 3.15351 0
M  V30 8710 H 832.997 2.26854 4.41307 0
M  V30 8711 N 832.17 -0.811516 1.35101 0
M  V30 8712 C 833.417 -1.56835 1.28098 0
M  V30 8713 C 833.745 -1.93951 -0.14597 0
M  V30 8714 O 833 -1.61173 -1.11004 0
M  V30 8715 C 833.299 -2.87121 2.1283 0
M  V30 8716 C 832.965 -2.69245 3.61688 0
M  V30 8717 C 831.627 -2.64078 4.02264 0
M  V30 8718 C 833.979 -2.52122 4.56162 0
M  V30 8719 C 831.307 -2.39724 5.3549 0
M  V30 8720 C 833.659 -2.29298 5.89581 0
M  V30 8721 C 832.323 -2.2255 6.29307 0
M  V30 8722 H 831.593 -0.5739 0.468742 0
M  V30 8723 H 834.24 -0.93806 1.66951 0
M  V30 8724 H 832.545 -3.54502 1.66841 0
M  V30 8725 H 834.242 -3.44788 2.0475 0
M  V30 8726 H 830.832 -2.74112 3.29485 0
M  V30 8727 H 835.016 -2.5513 4.25702 0
M  V30 8728 H 830.272 -2.32965 5.65276 0
M  V30 8729 H 834.446 -2.15038 6.62368 0
M  V30 8730 H 832.073 -2.0344 7.32473 0
M  V30 8731 N 833.648 -1.19017 -1.03309 0
M  V30 8732 C 834.873 -1.01598 -1.80811 0
M  V30 8733 C 835.298 0.430773 -1.83101 0
M  V30 8734 O 834.656 1.30946 -1.25391 0
M  V30 8735 C 834.704 -1.5845 -3.23923 0
M  V30 8736 O 833.808 -0.810972 -4.04348 0
M  V30 8737 H 833.149 -0.359398 -0.558327 0
M  V30 8738 H 835.679 -1.57945 -1.30055 0
M  V30 8739 H 835.689 -1.61486 -3.74682 0
M  V30 8740 H 834.364 -2.63752 -3.21571 0
M  V30 8741 H 832.941 -0.85353 -3.63 0
M  V30 8742 N 835.127 1.22348 -0.993418 0
M  V30 8743 C 836.09 2.22522 -0.549251 0
M  V30 8744 C 837.09 1.56529 0.368164 0
M  V30 8745 O 838.28 1.73463 0.16005 0
M  V30 8746 C 835.412 3.40307 0.201037 0
M  V30 8747 H 836.605 2.63332 -1.43515 0
M  V30 8748 H 834.158 1.35407 -0.78068 0
M  V30 8749 H 834.893 3.0497 1.10289 0
M  V30 8750 H 834.678 3.8942 -0.457685 0
M  V30 8751 H 836.168 4.14597 0.499946 0
M  V30 8752 N 836.605 0.766683 1.37694 0
M  V30 8753 C 837.538 0.0959288 2.27998 0
M  V30 8754 C 838.516 -0.714493 1.46061 0
M  V30 8755 O 839.7 -0.690337 1.75404 0
M  V30 8756 C 836.827 -0.87057 3.27321 0
M  V30 8757 C 835.873 -0.144771 4.26254 0
M  V30 8758 S 836.706 1.16365 5.22704 0
M  V30 8759 C 837.862 0.200564 6.25579 0
M  V30 8760 H 838.095 0.861666 2.84539 0
M  V30 8761 H 835.628 0.559845 1.43893 0
M  V30 8762 H 837.586 -1.42282 3.85053 0
M  V30 8763 H 836.247 -1.60938 2.69737 0
M  V30 8764 H 835.44 -0.877259 4.96307 0
M  V30 8765 H 835.042 0.33633 3.72485 0
M  V30 8766 H 837.334 -0.628833 6.74575 0
M  V30 8767 H 838.277 0.869117 7.02746 0
M  V30 8768 H 838.685 -0.185972 5.64194 0
M  V30 8769 N 838.083 -1.48885 0.516809 0
M  V30 8770 C 839.311 -2.06892 -0.0184017 0
M  V30 8771 C 839.726 -1.37511 -1.29368 0
M  V30 8772 O 839.083 -0.458409 -1.76649 0
M  V30 8773 C 839.134 -3.60566 -0.259673 0
M  V30 8774 O 838.855 -4.27338 0.965065 0
M  V30 8775 C 840.356 -4.35331 -0.836751 0
M  V30 8776 H 837.576 -0.670433 0.0275743 0
M  V30 8777 H 840.12 -1.91455 0.718689 0
M  V30 8778 H 838.275 -3.75653 -0.94678 0
M  V30 8779 H 838.689 -5.19287 0.737647 0
M  V30 8780 H 840.163 -5.43675 -0.955065 0
M  V30 8781 H 840.64 -3.9887 -1.83845 0
M  V30 8782 H 841.246 -4.2489 -0.186622 0
M  V30 8783 N 839.561 -0.251338 -1.55583 0
M  V30 8784 C 840.509 0.662534 -2.22965 0
M  V30 8785 C 841.503 1.17662 -1.21869 0
M  V30 8786 O 842.709 1.133 -1.39868 0
M  V30 8787 H 839.084 0.232151 -0.715269 0
M  V30 8788 H 841.055 0.0711252 -2.98315 0
M  V30 8789 C 839.804 1.84646 -2.94621 0
M  V30 8790 H 839.127 1.46003 -3.72187 0
M  V30 8791 H 840.567 2.46303 -3.45124 0
M  V30 8792 C 839.026 2.72034 -1.98744 0
M  V30 8793 O 839.556 3.71695 -1.52335 0
M  V30 8794 N 837.762 2.38695 -1.6575 0
M  V30 8795 H 837.309 1.57702 -2.03685 0
M  V30 8796 H 837.267 2.9744 -1.01867 0
M  V30 8797 N 841.039 1.57585 0.0217189 0
M  V30 8798 C 842.288 1.88786 0.710125 0
M  V30 8799 C 842.601 0.850819 1.76126 0
M  V30 8800 O 843.807 1.0523 2.50277 0
M  V30 8801 C 842.263 3.3505 1.31413 0
M  V30 8802 C 841.871 4.47001 0.298959 0
M  V30 8803 C 843.615 3.7539 1.98199 0
M  V30 8804 C 841.522 5.8433 0.911727 0
M  V30 8805 H 840.452 0.704388 0.268986 0
M  V30 8806 H 843.103 1.83466 -0.0352638 0
M  V30 8807 H 841.485 3.35138 2.10947 0
M  V30 8808 H 842.659 4.58395 -0.470203 0
M  V30 8809 H 840.974 4.15542 -0.267222 0
M  V30 8810 H 843.571 4.75314 2.4491 0
M  V30 8811 H 843.914 3.07766 2.80331 0
M  V30 8812 H 844.447 3.77508 1.2543 0
M  V30 8813 H 841.186 6.55372 0.129659 0
M  V30 8814 H 840.706 5.76643 1.65056 0
M  V30 8815 H 842.385 6.31295 1.41688 0
M  V30 8816 N 842.517 -0.29412 1.54831 0
M  V30 8817 C 843.764 -1.02846 1.74439 0
M  V30 8818 C 844.092 -1.87029 0.533905 0
M  V30 8819 O 843.347 -1.8962 -0.484035 0
M  V30 8820 C 843.646 -1.95782 2.99006 0
M  V30 8821 C 843.312 -1.2752 4.32492 0
M  V30 8822 C 841.974 -1.08637 4.68777 0
M  V30 8823 C 844.326 -0.787761 5.15212 0
M  V30 8824 C 841.654 -0.39704 5.85355 0
M  V30 8825 C 844.006 -0.112123 6.32501 0
M  V30 8826 C 842.67 0.0886071 6.67441 0
M  V30 8827 H 841.94 -0.376341 0.638317 0
M  V30 8828 H 844.587 -0.302684 1.89093 0
M  V30 8829 H 842.892 -2.74911 2.79162 0
M  V30 8830 H 844.589 -2.52684 3.11371 0
M  V30 8831 H 841.179 -1.43226 4.03961 0
M  V30 8832 H 845.363 -0.921341 4.87673 0
M  V30 8833 H 840.619 -0.230597 6.10965 0
M  V30 8834 H 844.793 0.27344 6.95863 0
M  V30 8835 H 842.42 0.624748 7.57628 0
M  V30 8836 N 843.995 -1.47404 -0.557645 0
M  V30 8837 C 844.927 -1.55917 -1.67995 0
M  V30 8838 C 845.94 -0.445411 -1.56588 0
M  V30 8839 O 847.129 -0.714999 -1.63554 0
M  V30 8840 C 844.229 -1.44697 -3.06457 0
M  V30 8841 C 843.402 -2.70633 -3.43622 0
M  V30 8842 C 842.461 -2.53256 -4.61246 0
M  V30 8843 O 841.487 -3.27068 -4.65849 0
M  V30 8844 N 842.689 -1.61053 -5.57711 0
M  V30 8845 H 845.454 -2.52694 -1.61139 0
M  V30 8846 H 843.015 -1.43778 -0.744271 0
M  V30 8847 H 845.007 -1.30806 -3.82978 0
M  V30 8848 H 843.577 -0.560039 -3.07542 0
M  V30 8849 H 842.797 -2.99288 -2.56555 0
M  V30 8850 H 844.085 -3.5424 -3.65228 0
M  V30 8851 H 843.483 -1.00235 -5.56749 0
M  V30 8852 H 842.04 -1.53115 -6.33561 0
M  V30 8853 N 845.473 0.80434 -1.35529 0
M  V30 8854 C 846.884 1.37849 -1.25915 0
M  V30 8855 C 847.235 1.95905 0.107495 0
M  V30 8856 O 846.36 1.91462 1.00852 0
M  V30 8857 C 846.955 2.50608 -2.27994 0
M  V30 8858 C 845.514 3.03879 -2.22114 0
M  V30 8859 C 844.661 1.76856 -2.13582 0
M  V30 8860 H 847.612 0.607192 -1.46625 0
M  V30 8861 H 847.633 3.29221 -1.90772 0
M  V30 8862 H 847.145 2.08323 -3.27449 0
M  V30 8863 H 845.246 3.50622 -1.26077 0
M  V30 8864 H 845.359 3.61707 -3.14173 0
M  V30 8865 H 843.723 1.98498 -1.59595 0
M  V30 8866 H 844.506 1.36721 -3.14901 0
M  V30 8867 N 846.951 1.19563 1.02676 0
M  V30 8868 C 847.881 0.959024 2.12897 0
M  V30 8869 C 848.862 -0.108382 1.69754 0
M  V30 8870 O 850.047 0.0470698 1.94143 0
M  V30 8871 C 847.177 0.499211 3.43693 0
M  V30 8872 C 846.131 1.5087 4.00528 0
M  V30 8873 C 845.457 0.905884 5.2697 0
M  V30 8874 C 846.757 2.88954 4.3509 0
M  V30 8875 H 848.451 1.88084 2.32948 0
M  V30 8876 H 845.997 0.905731 1.11949 0
M  V30 8877 H 847.95 0.320965 4.20176 0
M  V30 8878 H 846.674 -0.458205 3.2337 0
M  V30 8879 H 845.333 1.67413 3.26142 0
M  V30 8880 H 844.981 -0.0591506 5.02965 0
M  V30 8881 H 844.681 1.58 5.65959 0
M  V30 8882 H 846.205 0.73848 6.06118 0
M  V30 8883 H 847.619 2.75981 5.02501 0
M  V30 8884 H 846.016 3.53177 4.85166 0
M  V30 8885 H 847.086 3.41447 3.44299 0
M  V30 8886 N 848.429 -1.21819 0.999893 0
M  V30 8887 C 849.392 -2.22227 0.561044 0
M  V30 8888 C 850.392 -1.56722 -0.359858 0
M  V30 8889 O 851.582 -1.73546 -0.150848 0
M  V30 8890 C 848.714 -3.40409 -0.182987 0
M  V30 8891 H 849.907 -2.62567 1.44909 0
M  V30 8892 H 847.46 -1.34991 0.78785 0
M  V30 8893 H 848.195 -3.05551 -1.08671 0
M  V30 8894 H 847.98 -3.89171 0.47833 0
M  V30 8895 H 849.47 -4.14856 -0.477952 0
M  V30 8896 N 849.908 -0.773975 -1.37286 0
M  V30 8897 C 851.319 -0.404433 -1.82267 0
M  V30 8898 C 851.67 1.06971 -1.64474 0
M  V30 8899 O 850.795 1.82867 -1.15708 0
M  V30 8900 C 851.39 -0.727298 -3.30902 0
M  V30 8901 C 849.949 -0.410784 -3.74152 0
M  V30 8902 C 849.096 -0.969983 -2.59782 0
M  V30 8903 H 852.047 -0.968437 -1.25726 0
M  V30 8904 H 852.068 -0.0127575 -3.80498 0
M  V30 8905 H 851.58 -1.80026 -3.4382 0
M  V30 8906 H 849.681 0.65477 -3.66802 0
M  V30 8907 H 849.794 -0.920592 -4.70172 0
M  V30 8908 H 848.158 -0.394094 -2.51633 0
M  V30 8909 H 848.941 -2.04839 -2.75492 0
M  V30 8910 N 851.386 1.48609 -0.524698 0
M  V30 8911 C 852.632 2.02797 0.0113382 0
M  V30 8912 C 852.965 1.40147 1.34433 0
M  V30 8913 O 852.24 0.545368 1.86698 0
M  V30 8914 C 852.523 3.59832 0.138931 0
M  V30 8915 C 852.376 4.32971 -1.21886 0
M  V30 8916 C 853.695 4.3145 0.868265 0
M  V30 8917 H 850.814 0.736995 0.00264645 0
M  V30 8918 H 853.456 1.77388 -0.680704 0
M  V30 8919 H 851.606 3.81612 0.72834 0
M  V30 8920 H 853.278 4.22624 -1.84897 0
M  V30 8921 H 851.521 3.94597 -1.80211 0
M  V30 8922 H 852.192 5.41279 -1.08263 0
M  V30 8923 H 854.668 4.14468 0.368145 0
M  V30 8924 H 853.544 5.41025 0.926428 0
M  V30 8925 H 853.805 3.98358 1.91737 0
M  V30 8926 N 852.864 0.259585 1.55447 0
M  V30 8927 C 853.827 -0.621359 2.20617 0
M  V30 8928 C 854.827 -1.09317 1.17925 0
M  V30 8929 O 856.017 -0.995842 1.42929 0
M  V30 8930 C 853.149 -1.85546 2.85982 0
M  V30 8931 H 854.342 -0.0525833 2.99854 0
M  V30 8932 H 851.895 0.0101055 1.56297 0
M  V30 8933 H 852.63 -2.46515 2.10715 0
M  V30 8934 H 852.415 -1.52523 3.61219 0
M  V30 8935 H 853.905 -2.48227 3.35817 0
M  V30 8936 N 854.342 -1.57594 -0.0133615 0
M  V30 8937 C 855.753 -1.78168 -0.557937 0
M  V30 8938 C 856.104 -0.892616 -1.74719 0
M  V30 8939 O 855.229 -0.0915491 -2.16206 0
M  V30 8940 C 855.824 -3.23115 -1.01894 0
M  V30 8941 C 854.383 -3.44831 -1.50892 0
M  V30 8942 C 853.53 -2.73558 -0.454044 0
M  V30 8943 H 856.481 -1.57266 0.212843 0
M  V30 8944 H 856.502 -3.30493 -1.8856 0
M  V30 8945 H 856.014 -3.87798 -0.153175 0
M  V30 8946 H 854.115 -2.85345 -2.39602 0
M  V30 8947 H 854.228 -4.53485 -1.54559 0
M  V30 8948 H 852.592 -2.37787 -0.912666 0
M  V30 8949 H 853.375 -3.40932 0.402524 0
M  V30 8950 N 855.82 0.285905 -1.54985 0
M  V30 8951 C 856.77 1.35505 -1.83364 0
M  V30 8952 C 857.754 1.45273 -0.691698 0
M  V30 8953 O 858.946 1.49172 -0.952725 0
M  V30 8954 C 856.075 2.71756 -2.0977 0
M  V30 8955 C 855.161 2.6615 -3.30189 0
M  V30 8956 N 855.552 2.30161 -4.50399 0
M  V30 8957 C 853.85 2.97232 -3.3252 0
M  V30 8958 C 854.551 2.34228 -5.32459 0
M  V30 8959 N 853.527 2.72187 -4.70548 0
M  V30 8960 H 857.329 1.06668 -2.7386 0
M  V30 8961 H 854.843 0.494521 -1.54688 0
M  V30 8962 H 856.84 3.48864 -2.28253 0
M  V30 8963 H 855.5 3.01492 -1.20551 0
M  V30 8964 H 856.511 2.02358 -4.7673 0
M  V30 8965 H 853.188 3.31764 -2.53454 0
M  V30 8966 H 854.578 2.09074 -6.38543 0
M  V30 8967 N 857.298 1.47698 0.54982 0
M  V30 8968 C 858.523 1.58579 1.33669 0
M  V30 8969 C 858.948 0.239049 1.86575 0
M  V30 8970 O 858.306 -0.786256 1.63364 0
M  V30 8971 C 858.354 2.62029 2.47736 0
M  V30 8972 O 857.458 2.17813 3.50188 0
M  V30 8973 H 856.799 0.532447 0.396732 0
M  V30 8974 H 859.329 1.93536 0.6637 0
M  V30 8975 H 859.339 2.82682 2.94202 0
M  V30 8976 H 858.014 3.59812 2.08586 0
M  V30 8977 H 856.591 2.07291 3.09976 0
M  V30 8978 N 858.776 -0.797141 1.35954 0
M  V30 8979 C 860.187 -1.37179 1.26644 0
M  V30 8980 C 860.538 -1.9596 -0.0971046 0
M  V30 8981 O 859.663 -1.91994 -0.998355 0
M  V30 8982 C 860.258 -2.49395 2.2932 0
M  V30 8983 C 858.817 -3.02697 2.23722 0
M  V30 8984 C 857.964 -1.75721 2.14517 0
M  V30 8985 H 860.915 -0.599407 1.46945 0
M  V30 8986 H 860.936 -3.28204 1.92515 0
M  V30 8987 H 860.448 -2.06584 3.2855 0
M  V30 8988 H 858.549 -3.49948 1.27934 0
M  V30 8989 H 858.662 -3.60036 3.16087 0
M  V30 8990 H 857.026 -1.97649 1.60646 0
M  V30 8991 H 857.809 -1.35049 3.15621 0
M  V30 8992 N 860.254 -1.20106 -1.0204 0
M  V30 8993 C 861.501 -1.00889 -1.75578 0
M  V30 8994 C 861.829 0.459415 -1.88996 0
M  V30 8995 O 861.084 1.35735 -1.40977 0
M  V30 8996 C 861.383 -1.63308 -3.17908 0
M  V30 8997 C 861.049 -3.13091 -3.24476 0
M  V30 8998 C 859.711 -3.53968 -3.25976 0
M  V30 8999 C 862.063 -4.09093 -3.22944 0
M  V30 9000 C 859.391 -4.89381 -3.2361 0
M  V30 9001 C 861.743 -5.44447 -3.22119 0
M  V30 9002 C 860.407 -5.84742 -3.2192 0
M  V30 9003 H 859.677 -0.36918 -0.642485 0
M  V30 9004 H 862.324 -1.49475 -1.19706 0
M  V30 9005 H 860.629 -1.06974 -3.76914 0
M  V30 9006 H 862.326 -1.45958 -3.73493 0
M  V30 9007 H 858.916 -2.80526 -3.24042 0
M  V30 9008 H 863.1 -3.78549 -3.20958 0
M  V30 9009 H 858.356 -5.1987 -3.21785 0
M  V30 9010 H 862.53 -6.18584 -3.19885 0
M  V30 9011 H 860.157 -6.89642 -3.19841 0
M  V30 9012 N 861.732 1.21287 -1.00634 0
M  V30 9013 C 862.662 2.25973 -0.588089 0
M  V30 9014 C 863.643 1.65527 0.391764 0
M  V30 9015 O 864.828 1.92179 0.279452 0
M  V30 9016 C 861.958 3.47197 0.0847336 0
M  V30 9017 C 860.912 4.20168 -0.815039 0
M  V30 9018 C 860.238 5.34699 -0.00855393 0
M  V30 9019 C 861.538 4.77416 -2.11828 0
M  V30 9020 H 863.232 2.61212 -1.46317 0
M  V30 9021 H 860.778 1.25563 -0.704985 0
M  V30 9022 H 862.731 4.19602 0.388821 0
M  V30 9023 H 861.455 3.11092 0.994456 0
M  V30 9024 H 860.114 3.49614 -1.10297 0
M  V30 9025 H 859.762 4.94837 0.902499 0
M  V30 9026 H 859.462 5.84449 -0.607664 0
M  V30 9027 H 860.986 6.09914 0.289317 0
M  V30 9028 H 862.4 5.41694 -1.87725 0
M  V30 9029 H 860.797 5.37561 -2.66736 0
M  V30 9030 H 861.867 3.96724 -2.78816 0
M  V30 9031 N 863.21 0.781244 1.36873 0
M  V30 9032 C 864.14 0.188128 2.32741 0
M  V30 9033 C 865.121 -0.672326 1.56249 0
M  V30 9034 O 866.306 -0.607835 1.84442 0
M  V30 9035 C 863.436 -0.684341 3.40491 0
M  V30 9036 C 862.39 0.0755641 4.27933 0
M  V30 9037 C 861.716 -0.916968 5.26779 0
M  V30 9038 C 863.016 1.26006 5.06873 0
M  V30 9039 H 864.71 0.989016 2.82593 0
M  V30 9040 H 862.256 0.477038 1.35869 0
M  V30 9041 H 864.209 -1.10915 4.06541 0
M  V30 9042 H 862.933 -1.51785 2.89187 0
M  V30 9043 H 861.592 0.481258 3.63427 0
M  V30 9044 H 861.24 -1.74528 4.71751 0
M  V30 9045 H 860.94 -0.413 5.86147 0
M  V30 9046 H 862.464 -1.34052 5.95703 0
M  V30 9047 H 863.878 0.911425 5.66009 0
M  V30 9048 H 862.275 1.69676 5.75613 0
M  V30 9049 H 863.345 2.05948 4.38991 0
M  V30 9050 N 864.689 -1.48329 0.532571 0
M  V30 9051 C 865.966 -1.95492 -0.0650985 0
M  V30 9052 C 866.346 -1.47485 -1.51034 0
M  V30 9053 O 865.694 -0.702516 -2.17433 0
M  V30 9054 C 865.904 -3.48957 0.0548341 0
M  V30 9055 C 867.252 -4.24475 -0.103115 0
M  V30 9056 O 868.276 -3.56195 -0.0188343 0
M  V30 9057 O 867.135 -5.45781 -0.280164 0
M  V30 9058 H 864.229 -0.823327 -0.0778603 0
M  V30 9059 H 866.775 -1.58839 0.597353 0
M  V30 9060 H 865.547 -3.76628 1.06148 0
M  V30 9061 H 865.17 -3.92311 -0.64635 0
M  V30 9062 N 866.167 -0.267825 -1.55308 0
M  V30 9063 C 867.114 0.6228 -2.22238 0
M  V30 9064 C 868.084 1.15536 -1.19334 0
M  V30 9065 O 869.269 1.206 -1.47852 0
M  V30 9066 C 866.409 1.80447 -2.94164 0
M  V30 9067 C 865.522 1.30646 -4.11771 0
M  V30 9068 C 864.657 2.44935 -4.7136 0
M  V30 9069 C 863.696 1.92099 -5.81175 0
M  V30 9070 N 862.833 2.99834 -6.34857 0
M  V30 9071 H 867.673 0.0453874 -2.97965 0
M  V30 9072 H 865.21 0.0106371 -1.47096 0
M  V30 9073 H 867.168 2.49896 -3.34078 0
M  V30 9074 H 865.798 2.35403 -2.20874 0
M  V30 9075 H 864.85 0.505314 -3.77029 0
M  V30 9076 H 866.162 0.879409 -4.90987 0
M  V30 9077 H 865.316 3.2239 -5.13955 0
M  V30 9078 H 864.055 2.90951 -3.91406 0
M  V30 9079 H 863.06 1.13122 -5.38037 0
M  V30 9080 H 864.285 1.47027 -6.62993 0
M  V30 9081 H 862.231 3.45246 -5.578 0
M  V30 9082 H 862.148 2.61524 -7.09324 0
M  V30 9083 H 863.416 3.77286 -6.82111 0
M  V30 9084 N 867.645 1.57599 0.00500368 0
M  V30 9085 C 868.892 1.90349 0.690895 0
M  V30 9086 C 869.22 0.868045 1.74055 0
M  V30 9087 O 868.475 -0.127855 1.95282 0
M  V30 9088 C 868.774 3.29855 1.37588 0
M  V30 9089 C 868.44 4.48548 0.459906 0
M  V30 9090 C 867.102 4.80752 0.207693 0
M  V30 9091 C 869.454 5.20919 -0.171054 0
M  V30 9092 C 866.782 5.82701 -0.683855 0
M  V30 9093 C 869.134 6.23818 -1.05045 0
M  V30 9094 C 867.798 6.54481 -1.31189 0
M  V30 9095 H 867.068 0.696538 0.252816 0
M  V30 9096 H 869.715 1.91436 -0.0494495 0
M  V30 9097 H 868.02 3.24869 2.19015 0
M  V30 9098 H 869.717 3.52452 1.91255 0
M  V30 9099 H 866.307 4.23384 0.666648 0
M  V30 9100 H 870.491 4.96299 0.0107942 0
M  V30 9101 H 865.747 6.04822 -0.894467 0
M  V30 9102 H 869.921 6.79029 -1.54574 0
M  V30 9103 H 867.548 7.33299 -2.00442 0
M  V30 9104 N 869.123 -0.277682 1.55134 0
M  V30 9105 C 870.055 -1.36531 1.84098 0
M  V30 9106 C 871.068 -1.45756 0.725194 0
M  V30 9107 O 872.257 -1.47656 1.00299 0
M  V30 9108 C 869.357 -2.74701 1.98476 0
M  V30 9109 C 868.53 -2.88125 3.29094 0
M  V30 9110 C 867.589 -4.0694 3.33596 0
M  V30 9111 O 866.615 -3.9792 4.06999 0
M  V30 9112 N 867.817 -5.18687 2.60661 0
M  V30 9113 H 870.582 -1.12032 2.77973 0
M  V30 9114 H 868.143 -0.467793 1.54995 0
M  V30 9115 H 870.135 -3.52471 1.98863 0
M  V30 9116 H 868.705 -2.92043 1.11488 0
M  V30 9117 H 867.925 -1.97277 3.41285 0
M  V30 9118 H 869.213 -2.94021 4.15246 0
M  V30 9119 H 868.611 -5.28901 2.00699 0
M  V30 9120 H 867.168 -5.94705 2.66776 0
M  V30 9121 N 870.601 -1.47988 -0.541979 0
M  V30 9122 C 871.533 -1.5769 -1.66332 0
M  V30 9123 C 872.546 -0.461994 -1.56107 0
M  V30 9124 O 873.735 -0.732306 -1.62787 0
M  V30 9125 C 870.835 -1.47939 -3.04905 0
M  V30 9126 C 870.008 -2.74263 -3.40733 0
M  V30 9127 C 869.067 -2.58133 -4.58534 0
M  V30 9128 O 868.093 -3.31991 -4.62354 0
M  V30 9129 N 869.295 -1.6696 -5.55972 0
M  V30 9130 H 872.06 -2.54389 -1.5845 0
M  V30 9131 H 869.621 -1.4456 -0.728979 0
M  V30 9132 H 871.613 -1.34861 -3.81569 0
M  V30 9133 H 870.183 -0.592626 -3.06931 0
M  V30 9134 H 869.403 -3.01992 -2.53366 0
M  V30 9135 H 870.691 -3.58094 -3.6145 0
M  V30 9136 H 870.089 -1.06134 -5.55655 0
M  V30 9137 H 868.646 -1.59826 -6.31901 0
M  V30 9138 N 872.079 0.78992 -1.36375 0
M  V30 9139 C 873.011 1.91113 -1.26524 0
M  V30 9140 C 874.024 1.61747 -0.184851 0
M  V30 9141 O 875.213 1.73004 -0.439524 0
M  V30 9142 C 872.313 3.25908 -0.92937 0
M  V30 9143 C 871.486 3.83057 -2.11154 0
M  V30 9144 C 870.545 4.96289 -1.74881 0
M  V30 9145 O 869.571 5.12834 -2.46962 0
M  V30 9146 N 870.773 5.76478 -0.682193 0
M  V30 9147 H 873.538 2.00085 -2.23128 0
M  V30 9148 H 871.099 0.968165 -1.29762 0
M  V30 9149 H 873.091 3.99151 -0.667884 0
M  V30 9150 H 871.661 3.12556 -0.0524843 0
M  V30 9151 H 870.881 3.01808 -2.53586 0
M  V30 9152 H 872.169 4.1797 -2.90135 0
M  V30 9153 H 871.567 5.65638 -0.0836661 0
M  V30 9154 H 870.124 6.50026 -0.480529 0
M  V30 9155 N 873.557 1.20646 1.01402 0
M  V30 9156 C 874.487 0.98155 2.11867 0
M  V30 9157 C 875.468 -0.0903712 1.6986 0
M  V30 9158 O 876.653 0.0676586 1.94082 0
M  V30 9159 C 873.783 0.535636 3.43145 0
M  V30 9160 C 872.737 1.55109 3.98905 0
M  V30 9161 C 872.063 0.961725 5.2598 0
M  V30 9162 C 873.363 2.93552 4.32001 0
M  V30 9163 H 875.057 1.90544 2.3094 0
M  V30 9164 H 872.603 0.917554 1.10982 0
M  V30 9165 H 874.556 0.365512 4.19812 0
M  V30 9166 H 873.28 -0.423882 3.23838 0
M  V30 9167 H 871.939 1.70862 3.24348 0
M  V30 9168 H 871.587 -0.00580108 5.03 0
M  V30 9169 H 871.287 1.63993 5.64252 0
M  V30 9170 H 872.811 0.802726 6.053 0
M  V30 9171 H 874.225 2.81295 4.99546 0
M  V30 9172 H 872.622 3.58303 4.81393 0
M  V30 9173 H 873.692 3.4508 3.40658 0
M  V30 9174 N 875.035 -1.20752 1.01276 0
M  V30 9175 C 875.945 -2.27079 0.589277 0
M  V30 9176 C 876.961 -1.6999 -0.371389 0
M  V30 9177 O 878.137 -2.00044 -0.233294 0
M  V30 9178 C 875.202 -3.4663 -0.0696715 0
M  V30 9179 C 874.263 -4.18962 0.936454 0
M  V30 9180 C 873.496 -5.32806 0.308856 0
M  V30 9181 O 873.719 -5.63376 -0.8924 0
M  V30 9182 O 872.653 -5.93131 1.02367 0
M  V30 9183 H 876.479 -2.6551 1.47438 0
M  V30 9184 H 874.064 -1.27297 0.782045 0
M  V30 9185 H 875.946 -4.19119 -0.437873 0
M  V30 9186 H 874.621 -3.10082 -0.929029 0
M  V30 9187 H 873.528 -3.48661 1.35595 0
M  V30 9188 H 874.861 -4.59441 1.76565 0
M  V30 9189 N 876.513 -0.788492 -1.36457 0
M  V30 9190 C 877.738 -0.371224 -2.04051 0
M  V30 9191 C 878.163 1.004 -1.59064 0
M  V30 9192 O 877.521 1.64663 -0.758679 0
M  V30 9193 C 877.569 -0.442275 -3.57877 0
M  V30 9194 O 876.673 0.55113 -4.08701 0
M  V30 9195 H 876.014 -0.157808 -0.644975 0
M  V30 9196 H 878.544 -1.06935 -1.74431 0
M  V30 9197 H 878.554 -0.305548 -4.06854 0
M  V30 9198 H 877.229 -1.44547 -3.89973 0
M  V30 9199 H 875.806 0.37614 -3.70998 0
M  V30 9200 N 877.991 1.48044 -0.54043 0
M  V30 9201 C 878.938 2.29781 0.216597 0
M  V30 9202 C 879.908 1.38021 0.924094 0
M  V30 9203 O 881.093 1.66985 0.923078 0
M  V30 9204 C 878.233 3.21623 1.2511 0
M  V30 9205 C 877.346 4.28467 0.551384 0
M  V30 9206 C 876.481 5.07477 1.56972 0
M  V30 9207 C 875.52 6.06113 0.854048 0
M  V30 9208 N 874.657 6.78143 1.81842 0
M  V30 9209 H 879.497 2.94001 -0.486578 0
M  V30 9210 H 877.034 1.44929 -0.251789 0
M  V30 9211 H 878.992 3.73279 1.8633 0
M  V30 9212 H 877.622 2.59305 1.92252 0
M  V30 9213 H 876.674 3.79997 -0.174982 0
M  V30 9214 H 877.986 4.98799 -0.0100542 0
M  V30 9215 H 877.14 5.63199 2.25592 0
M  V30 9216 H 875.879 4.37008 2.16507 0
M  V30 9217 H 874.884 5.49585 0.153838 0
M  V30 9218 H 876.109 6.78584 0.264675 0
M  V30 9219 H 874.055 6.10417 2.40265 0
M  V30 9220 H 873.972 7.44587 1.3087 0
M  V30 9221 H 875.24 7.38448 2.49628 0
M  V30 9222 N 879.47 0.276058 1.55163 0
M  V30 9223 C 880.417 -0.611006 2.22565 0
M  V30 9224 C 881.387 -1.14902 1.19945 0
M  V30 9225 O 882.572 -1.19815 1.48489 0
M  V30 9226 C 879.712 -1.78885 2.95117 0
M  V30 9227 C 878.825 -1.2846 4.12458 0
M  V30 9228 C 877.96 -2.42432 4.72652 0
M  V30 9229 C 876.999 -1.89015 5.82185 0
M  V30 9230 N 876.136 -2.96463 6.36439 0
M  V30 9231 H 880.976 -0.0295849 2.97985 0
M  V30 9232 H 878.513 -0.00283607 1.471 0
M  V30 9233 H 880.471 -2.48121 3.35398 0
M  V30 9234 H 879.101 -2.34229 2.22119 0
M  V30 9235 H 878.153 -0.485312 3.77292 0
M  V30 9236 H 879.465 -0.853358 4.91446 0
M  V30 9237 H 878.619 -3.19659 5.15658 0
M  V30 9238 H 877.358 -2.88872 3.92943 0
M  V30 9239 H 876.363 -1.10267 5.38629 0
M  V30 9240 H 877.588 -1.43509 6.63763 0
M  V30 9241 H 875.534 -3.42283 5.59623 0
M  V30 9242 H 875.451 -2.57759 7.10701 0
M  V30 9243 H 876.719 -3.73663 6.84103 0
M  V30 9244 N 880.948 -1.576 0.00335426 0
M  V30 9245 C 882.176 -1.94996 -0.691685 0
M  V30 9246 C 882.591 -0.878405 -1.67121 0
M  V30 9247 O 881.948 0.142343 -1.81944 0
M  V30 9248 C 881.999 -3.32416 -1.42063 0
M  V30 9249 O 881.72 -4.35458 -0.48038 0
M  V30 9250 C 883.221 -3.84291 -2.20987 0
M  V30 9251 H 880.441 -0.642814 -0.192434 0
M  V30 9252 H 882.985 -2.04425 0.0554706 0
M  V30 9253 H 881.14 -3.24285 -2.11939 0
M  V30 9254 H 881.554 -5.14975 -0.995054 0
M  V30 9255 H 883.028 -4.82863 -2.67483 0
M  V30 9256 H 883.505 -3.17174 -3.03805 0
M  V30 9257 H 884.111 -3.95609 -1.56121 0
M  V30 9258 N 882.426 0.269451 -1.5528 0
M  V30 9259 C 883.336 1.35511 -1.91505 0
M  V30 9260 C 884.352 1.53854 -0.812712 0
M  V30 9261 O 885.528 1.67912 -1.1121 0
M  V30 9262 C 882.593 2.6937 -2.18267 0
M  V30 9263 C 881.654 2.59743 -3.41807 0
M  V30 9264 C 880.887 3.87219 -3.67283 0
M  V30 9265 O 881.11 4.88066 -2.95208 0
M  V30 9266 O 880.044 3.87209 -4.60818 0
M  V30 9267 H 883.87 1.07785 -2.8393 0
M  V30 9268 H 881.455 0.468282 -1.41871 0
M  V30 9269 H 883.337 3.48513 -2.36889 0
M  V30 9270 H 882.012 2.96874 -1.29024 0
M  V30 9271 H 880.919 1.78964 -3.28516 0
M  V30 9272 H 882.252 2.37188 -4.3128 0
M  V30 9273 N 883.904 1.48273 0.534124 0
M  V30 9274 C 885.315 1.49667 1.1161 0
M  V30 9275 C 885.666 0.264139 1.94414 0
M  V30 9276 O 884.791 -0.629084 2.07054 0
M  V30 9277 C 885.386 2.71191 2.03079 0
M  V30 9278 C 883.945 2.7547 2.56502 0
M  V30 9279 C 883.092 2.43119 1.33373 0
M  V30 9280 H 886.043 1.55449 0.319578 0
M  V30 9281 H 886.064 2.49473 2.87304 0
M  V30 9282 H 885.576 3.60879 1.42785 0
M  V30 9283 H 883.677 1.89979 3.20529 0
M  V30 9284 H 883.79 3.76787 2.95919 0
M  V30 9285 H 882.154 1.94187 1.64813 0
M  V30 9286 H 882.937 3.35044 0.748375 0
M  V30 9287 N 885.382 -0.782676 1.36792 0
M  V30 9288 C 886.292 -1.92679 1.33835 0
M  V30 9289 C 887.308 -1.72344 0.23952 0
M  V30 9290 O 888.484 -1.95766 0.473045 0
M  V30 9291 C 885.549 -3.27644 1.1336 0
M  V30 9292 C 884.61 -3.6071 2.32781 0
M  V30 9293 C 883.843 -4.89234 2.13273 0
M  V30 9294 O 884.066 -5.59468 1.11136 0
M  V30 9295 O 883 -5.21112 3.01208 0
M  V30 9296 H 886.826 -1.98124 2.30175 0
M  V30 9297 H 884.411 -0.923887 1.17408 0
M  V30 9298 H 886.293 -4.08394 1.03886 0
M  V30 9299 H 884.968 -3.23076 0.200868 0
M  V30 9300 H 883.875 -2.80238 2.47825 0
M  V30 9301 H 885.208 -3.70008 3.24584 0
M  V30 9302 N 886.86 -1.21182 -1.00761 0
M  V30 9303 C 887.81 -0.936247 -2.0789 0
M  V30 9304 C 888.794 0.107482 -1.60541 0
M  V30 9305 O 889.986 -0.1011 -1.76711 0
M  V30 9306 C 887.115 -0.499949 -3.3964 0
M  V30 9307 C 886.201 -1.5776 -3.93666 0
M  V30 9308 N 886.592 -2.80208 -4.2109 0
M  V30 9309 C 884.89 -1.44586 -4.21913 0
M  V30 9310 C 885.591 -3.49787 -4.64784 0
M  V30 9311 N 884.567 -2.7722 -4.676 0
M  V30 9312 H 888.369 -1.86659 -2.27015 0
M  V30 9313 H 885.883 -1.10716 -1.1881 0
M  V30 9314 H 887.88 -0.283897 -4.15932 0
M  V30 9315 H 886.54 0.423659 -3.21924 0
M  V30 9316 H 887.551 -3.16776 -4.09724 0
M  V30 9317 H 884.228 -0.587346 -4.13348 0
M  V30 9318 H 885.618 -4.54615 -4.94747 0
M  V30 9319 N 888.338 1.20213 -1.01915 0
M  V30 9320 C 889.754 1.41696 -0.734459 0
M  V30 9321 C 889.954 1.89504 0.684867 0
M  V30 9322 O 889.01 2.06556 1.45227 0
M  V30 9323 C 890.323 2.43644 -1.76233 0
M  V30 9324 C 891.871 2.57406 -1.78076 0
M  V30 9325 C 892.346 3.626 -2.79796 0
M  V30 9326 N 893.837 3.70086 -2.78551 0
M  V30 9327 C 894.572 4.51145 -3.53915 0
M  V30 9328 N 894.068 5.35988 -4.38963 0
M  V30 9329 N 895.861 4.45702 -3.425 0
M  V30 9330 H 888.012 0.874976 -1.93541 0
M  V30 9331 H 890.275 0.446647 -0.836188 0
M  V30 9332 H 889.981 2.15519 -2.77929 0
M  V30 9333 H 889.855 3.42672 -1.57657 0
M  V30 9334 H 892.242 2.8486 -0.770634 0
M  V30 9335 H 892.323 1.58565 -2.00725 0
M  V30 9336 H 891.967 3.35889 -3.80973 0
M  V30 9337 H 891.897 4.61069 -2.54407 0
M  V30 9338 H 894.388 3.09484 -2.1686 0
M  V30 9339 H 894.701 5.94932 -4.9323 0
M  V30 9340 H 893.046 5.35482 -4.4304 0
M  V30 9341 H 896.237 3.78456 -2.75478 0
M  V30 9342 H 896.41 5.08637 -4.01487 0
M  V30 9343 N 889.816 0.795718 1.36037 0
M  V30 9344 C 891.227 0.433379 1.816 0
M  V30 9345 C 891.578 -1.04341 1.66155 0
M  V30 9346 O 890.703 -1.81004 1.18603 0
M  V30 9347 C 891.298 0.77985 3.29703 0
M  V30 9348 C 889.857 0.470256 3.73451 0
M  V30 9349 C 889.004 1.01119 2.58206 0
M  V30 9350 H 891.955 0.988317 1.24169 0
M  V30 9351 H 891.976 0.0732898 3.80429 0
M  V30 9352 H 891.488 1.85473 3.40913 0
M  V30 9353 H 889.589 -0.596332 3.67797 0
M  V30 9354 H 889.702 0.995276 4.68648 0
M  V30 9355 H 888.066 0.434077 2.50974 0
M  V30 9356 H 888.849 2.09196 2.72198 0
M  V30 9357 N 891.294 -1.47756 0.548274 0
M  V30 9358 C 892.227 -2.26804 -0.252059 0
M  V30 9359 C 893.205 -1.3349 -0.928389 0
M  V30 9360 O 894.389 -1.6286 -0.949156 0
M  V30 9361 C 891.516 -3.10266 -1.35841 0
M  V30 9362 C 890.562 -4.1909 -0.791578 0
M  V30 9363 S 891.395 -5.34323 0.354878 0
M  V30 9364 C 892.551 -6.21348 -0.753511 0
M  V30 9365 H 892.784 -2.94336 0.418744 0
M  V30 9366 H 890.317 -1.50735 0.334413 0
M  V30 9367 H 892.275 -3.58925 -1.99207 0
M  V30 9368 H 890.936 -2.42112 -2.00101 0
M  V30 9369 H 890.129 -4.77183 -1.62212 0
M  V30 9370 H 889.731 -3.73266 -0.234274 0
M  V30 9371 H 892.023 -6.57156 -1.6478 0
M  V30 9372 H 892.966 -7.07788 -0.210141 0
M  V30 9373 H 893.374 -5.54797 -1.04216 0
M  V30 9374 N 892.772 -0.284283 -1.55015 0
M  V30 9375 C 893.997 0.335799 -2.04664 0
M  V30 9376 C 894.422 1.47999 -1.16094 0
M  V30 9377 O 893.78 1.8058 -0.161454 0
M  V30 9378 C 893.828 0.785615 -3.51938 0
M  V30 9379 O 892.932 1.89202 -3.66437 0
M  V30 9380 H 892.273 0.0680233 -0.660506 0
M  V30 9381 H 894.803 -0.421255 -2.00216 0
M  V30 9382 H 894.813 1.07892 -3.93476 0
M  V30 9383 H 893.488 -0.0514675 -4.15868 0
M  V30 9384 H 892.065 1.60055 -3.36804 0
M  V30 9385 N 894.251 1.57596 -0.0117121 0
M  V30 9386 C 895.476 1.95764 0.684938 0
M  V30 9387 C 895.901 0.887285 1.65858 0
M  V30 9388 O 895.259 -0.153508 1.80649 0
M  V30 9389 C 895.307 3.33031 1.38285 0
M  V30 9390 O 894.411 3.28163 2.49765 0
M  V30 9391 H 893.752 0.638767 0.181309 0
M  V30 9392 H 896.282 2.04486 -0.0683883 0
M  V30 9393 H 896.292 3.68866 1.74362 0
M  V30 9394 H 894.967 4.10483 0.669043 0
M  V30 9395 H 893.544 3.04021 2.15929 0
M  V30 9396 N 895.729 -0.261212 1.5542 0
M  V30 9397 C 896.978 -0.989072 1.75785 0
M  V30 9398 C 897.291 -1.8702 0.572961 0
M  V30 9399 O 898.497 -2.63374 0.659289 0
M  V30 9400 C 896.953 -1.80857 3.11157 0
M  V30 9401 C 896.561 -0.975535 4.3725 0
M  V30 9402 C 898.305 -2.53003 3.40866 0
M  V30 9403 C 896.212 -1.7901 5.63657 0
M  V30 9404 H 895.142 -0.373019 0.655266 0
M  V30 9405 H 897.793 -0.244267 1.81867 0
M  V30 9406 H 896.175 -2.59479 2.99144 0
M  V30 9407 H 897.349 -0.232661 4.60212 0
M  V30 9408 H 895.664 -0.368083 4.1477 0
M  V30 9409 H 898.261 -3.14372 4.32521 0
M  V30 9410 H 898.604 -3.23891 2.61535 0
M  V30 9411 H 899.137 -1.81403 3.54031 0
M  V30 9412 H 895.876 -1.12522 6.4577 0
M  V30 9413 H 895.396 -2.50863 5.44819 0
M  V30 9414 H 897.075 -2.36082 6.0239 0
M  V30 9415 N 897.207 -1.48554 -0.526253 0
M  V30 9416 C 898.454 -1.56761 -1.28188 0
M  V30 9417 C 898.782 -0.24315 -1.92974 0
M  V30 9418 O 898.037 0.766883 -1.80048 0
M  V30 9419 C 898.336 -2.65739 -2.38993 0
M  V30 9420 C 898.002 -4.08057 -1.91834 0
M  V30 9421 C 896.664 -4.46792 -1.78691 0
M  V30 9422 C 899.016 -4.9723 -1.56242 0
M  V30 9423 C 896.344 -5.72501 -1.28296 0
M  V30 9424 C 898.696 -6.23432 -1.07309 0
M  V30 9425 C 897.36 -6.6102 -0.927853 0
M  V30 9426 H 896.63 -0.573631 -0.469072 0
M  V30 9427 H 899.277 -1.82287 -0.586842 0
M  V30 9428 H 897.582 -2.34088 -3.14181 0
M  V30 9429 H 899.279 -2.69304 -2.97113 0
M  V30 9430 H 895.869 -3.77469 -2.03016 0
M  V30 9431 H 900.053 -4.67979 -1.65255 0
M  V30 9432 H 895.309 -6.00345 -1.15742 0
M  V30 9433 H 899.483 -6.91923 -0.788412 0
M  V30 9434 H 897.11 -7.58314 -0.535162 0
M  V30 9435 N 898.685 0.775411 -1.37205 0
M  V30 9436 C 899.932 1.53384 -1.32211 0
M  V30 9437 C 900.26 1.9427 0.0944958 0
M  V30 9438 O 899.515 1.64059 1.06692 0
M  V30 9439 C 899.814 2.81377 -2.20367 0
M  V30 9440 C 899.48 2.59561 -3.68699 0
M  V30 9441 C 898.142 2.53319 -4.09124 0
M  V30 9442 C 900.494 2.39939 -4.62686 0
M  V30 9443 C 897.822 2.25442 -5.41658 0
M  V30 9444 C 900.174 2.13586 -5.95453 0
M  V30 9445 C 898.838 2.05786 -6.34987 0
M  V30 9446 H 898.108 0.561271 -0.483793 0
M  V30 9447 H 900.755 0.893466 -1.6938 0
M  V30 9448 H 899.06 3.49954 -1.76181 0
M  V30 9449 H 900.757 3.39238 -2.13819 0
M  V30 9450 H 897.347 2.6528 -3.36637 0
M  V30 9451 H 901.531 2.43753 -4.32317 0
M  V30 9452 H 896.787 2.17896 -5.71254 0
M  V30 9453 H 900.961 1.97401 -6.67837 0
M  V30 9454 H 898.588 1.83948 -7.37609 0
M  V30 9455 N 900.163 1.21714 1.00117 0
M  V30 9456 C 901.44 0.945391 1.71236 0
M  V30 9457 C 901.82 -0.541772 2.0403 0
M  V30 9458 O 901.168 -1.50763 1.71705 0
M  V30 9459 C 901.378 1.83444 2.96899 0
M  V30 9460 C 902.726 2.08558 3.69849 0
M  V30 9461 O 903.75 1.80824 3.06889 0
M  V30 9462 O 902.609 2.55485 4.83104 0
M  V30 9463 H 899.703 0.354834 0.747009 0
M  V30 9464 H 902.249 1.32661 1.05825 0
M  V30 9465 H 901.021 2.84075 2.69105 0
M  V30 9466 H 900.644 1.45428 3.70049 0
M  V30 9467 N 901.641 -1.19671 1.02551 0
M  V30 9468 C 902.604 -2.20987 0.608055 0
M  V30 9469 C 903.604 -1.5745 -0.326534 0
M  V30 9470 O 904.794 -1.73827 -0.114003 0
M  V30 9471 C 901.926 -3.4072 -0.11074 0
M  V30 9472 H 903.119 -2.59434 1.50446 0
M  V30 9473 H 900.672 -1.3329 0.816307 0
M  V30 9474 H 901.407 -3.07787 -1.02165 0
M  V30 9475 H 901.192 -3.88069 0.560772 0
M  V30 9476 H 902.682 -4.15776 -0.389848 0
M  V30 9477 N 903.119 -0.802921 -1.35613 0
M  V30 9478 C 904.367 -0.380822 -1.9848 0
M  V30 9479 C 904.688 1.05464 -1.6402 0
M  V30 9480 O 903.958 1.72908 -0.920854 0
M  V30 9481 H 902.538 -0.137824 -0.734176 0
M  V30 9482 H 905.2 -1.02795 -1.65587 0
M  V30 9483 H 904.296 -0.483565 -3.08331 0
M  V30 9484 N 904.597 1.47463 -0.556102 0
M  V30 9485 C 905.822 2.07371 -0.0344729 0
M  V30 9486 C 906.247 1.40621 1.2493 0
M  V30 9487 O 905.605 0.48082 1.74808 0
M  V30 9488 C 905.653 3.60306 0.145563 0
M  V30 9489 O 904.757 3.94299 1.20839 0
M  V30 9490 H 904.098 0.662052 -0.0508274 0
M  V30 9491 H 906.628 1.89498 -0.771469 0
M  V30 9492 H 906.638 4.06408 0.360112 0
M  V30 9493 H 905.313 4.08288 -0.792089 0
M  V30 9494 H 903.89 3.59944 0.97442 0
M  V30 9495 N 906.075 0.2925 1.54862 0
M  V30 9496 C 907.022 -0.587365 2.23201 0
M  V30 9497 C 907.992 -1.13623 1.21157 0
M  V30 9498 O 909.177 -1.18233 1.49752 0
M  V30 9499 C 906.317 -1.75745 2.96998 0
M  V30 9500 C 905.43 -1.24078 4.13798 0
M  V30 9501 C 904.565 -2.37405 4.75197 0
M  V30 9502 C 903.604 -1.82829 5.84157 0
M  V30 9503 N 902.741 -2.89696 6.39547 0
M  V30 9504 H 907.581 0.00202207 2.98 0
M  V30 9505 H 905.118 0.012766 1.47094 0
M  V30 9506 H 907.076 -2.44549 3.38011 0
M  V30 9507 H 905.706 -2.3186 2.24591 0
M  V30 9508 H 904.758 -0.445268 3.77785 0
M  V30 9509 H 906.07 -0.801186 4.92324 0
M  V30 9510 H 905.224 -3.14172 5.19019 0
M  V30 9511 H 903.963 -2.84688 3.95985 0
M  V30 9512 H 902.968 -1.04548 5.39768 0
M  V30 9513 H 904.193 -1.36461 6.65248 0
M  V30 9514 H 902.139 -3.36328 5.63222 0
M  V30 9515 H 902.056 -2.50206 7.13395 0
M  V30 9516 H 903.324 -3.66386 6.88027 0
M  V30 9517 N 907.553 -1.57587 0.0200696 0
M  V30 9518 C 908.516 -2.08595 -0.949767 0
M  V30 9519 C 909.516 -0.999215 -1.25985 0
M  V30 9520 O 910.706 -1.26115 -1.2017 0
M  V30 9521 C 907.838 -2.54424 -2.26895 0
M  V30 9522 H 909.031 -2.95563 -0.508161 0
M  V30 9523 H 906.584 -1.54631 -0.227798 0
M  V30 9524 H 907.319 -1.70758 -2.75703 0
M  V30 9525 H 907.104 -3.3381 -2.05702 0
M  V30 9526 H 908.594 -2.94144 -2.96427 0
M  V30 9527 N 909.032 0.252966 -1.55557 0
M  V30 9528 C 910.257 1.0038 -1.8149 0
M  V30 9529 C 910.682 1.78397 -0.596318 0
M  V30 9530 O 910.04 1.7551 0.454535 0
M  V30 9531 C 910.088 1.9222 -3.05096 0
M  V30 9532 O 909.192 3.01302 -2.81587 0
M  V30 9533 H 908.533 0.285949 -0.599274 0
M  V30 9534 H 911.063 0.275795 -2.02733 0
M  V30 9535 H 911.073 2.338 -3.34368 0
M  V30 9536 H 909.748 1.34852 -3.93431 0
M  V30 9537 H 908.325 2.63894 -2.63466 0
M  V30 9538 N 910.51 1.48831 0.518367 0
M  V30 9539 C 911.44 1.67119 1.63075 0
M  V30 9540 C 912.421 0.519948 1.61958 0
M  V30 9541 O 913.606 0.753824 1.78972 0
M  V30 9542 C 910.736 1.72158 3.01627 0
M  V30 9543 C 909.69 2.86898 3.17606 0
M  V30 9544 C 909.016 2.77035 4.57335 0
M  V30 9545 C 910.316 4.28057 2.99274 0
M  V30 9546 H 912.01 2.60248 1.48025 0
M  V30 9547 H 909.556 1.2524 0.710694 0
M  V30 9548 H 911.509 1.83539 3.7933 0
M  V30 9549 H 910.233 0.756157 3.17726 0
M  V30 9550 H 908.892 2.75091 2.42323 0
M  V30 9551 H 908.54 1.78438 4.70286 0
M  V30 9552 H 908.24 3.54036 4.6897 0
M  V30 9553 H 909.764 2.904 5.37122 0
M  V30 9554 H 911.178 4.40636 3.6676 0
M  V30 9555 H 909.575 5.06145 3.22393 0
M  V30 9556 H 910.645 4.4371 1.95574 0
M  V30 9557 N 911.988 -0.768124 1.37614 0
M  V30 9558 C 913.399 -1.34462 1.29525 0
M  V30 9559 C 913.75 -1.96121 -0.0555168 0
M  V30 9560 O 912.875 -1.94069 -0.957406 0
M  V30 9561 C 913.47 -2.44475 2.34558 0
M  V30 9562 C 912.029 -2.97883 2.30093 0
M  V30 9563 C 911.176 -1.71131 2.18196 0
M  V30 9564 H 914.127 -0.568103 1.48183 0
M  V30 9565 H 914.148 -3.24047 1.99434 0
M  V30 9566 H 913.66 -1.99568 3.32858 0
M  V30 9567 H 911.761 -3.47156 1.35328 0
M  V30 9568 H 911.874 -3.53251 3.23652 0
M  V30 9569 H 910.238 -1.94197 1.64802 0
M  V30 9570 H 911.021 -1.28323 3.18415 0
M  V30 9571 N 913.466 -1.22244 -0.994698 0
M  V30 9572 C 914.877 -1.043 -1.5485 0
M  V30 9573 C 915.228 0.394102 -1.92201 0
M  V30 9574 O 914.353 1.27883 -1.74571 0
M  V30 9575 C 914.948 -1.88708 -2.8138 0
M  V30 9576 C 913.507 -1.75067 -3.3321 0
M  V30 9577 C 912.654 -1.85286 -2.06312 0
M  V30 9578 H 915.605 -1.36115 -0.815988 0
M  V30 9579 H 915.626 -1.40342 -3.53673 0
M  V30 9580 H 915.138 -2.93296 -2.54164 0
M  V30 9581 H 913.239 -0.732047 -3.65338 0
M  V30 9582 H 913.352 -2.57632 -4.03934 0
M  V30 9583 H 911.716 -1.28706 -2.19788 0
M  V30 9584 H 912.499 -2.91401 -1.81494 0
M  V30 9585 N 914.944 1.19125 -1.03184 0
M  V30 9586 C 916.184 1.90582 -0.738785 0
M  V30 9587 C 916.548 1.78004 0.719627 0
M  V30 9588 O 917.749 2.44084 1.12589 0
M  V30 9589 C 916.02 3.37319 -1.18114 0
M  V30 9590 S 917.579 4.26962 -1.01238 0
M  V30 9591 H 914.397 0.6582 -0.268875 0
M  V30 9592 H 916.999 1.43999 -1.32229 0
M  V30 9593 H 915.703 3.43999 -2.23814 0
M  V30 9594 H 915.234 3.88935 -0.591051 0
M  V30 9595 H 917.249 4.96143 0.0753558 0
M  V30 9596 N 916.422 0.810101 1.35185 0
M  V30 9597 C 917.662 0.397802 2.00492 0
M  V30 9598 C 918.026 -1.01684 1.62863 0
M  V30 9599 O 919.227 -1.53133 2.20916 0
M  V30 9600 C 917.498 0.579524 3.5267 0
M  V30 9601 S 919.057 0.258169 4.3804 0
M  V30 9602 H 915.875 0.150904 0.694801 0
M  V30 9603 H 918.477 1.05312 1.64711 0
M  V30 9604 H 917.181 1.60901 3.77543 0
M  V30 9605 H 916.712 -0.0909886 3.93295 0
M  V30 9606 H 918.727 -0.932882 4.87352 0
M  V30 9607 N 917.9 -1.47166 0.563914 0
M  V30 9608 C 919.148 -2.02056 0.0422873 0
M  V30 9609 C 919.469 -1.43992 -1.31497 0
M  V30 9610 O 918.739 -0.617578 -1.85911 0
M  V30 9611 H 917.319 -0.746893 0.0126427 0
M  V30 9612 H 919.981 -1.80492 0.735441 0
M  V30 9613 H 919.077 -3.12073 -0.0408044 0
M  V30 9614 N 919.378 -0.300708 -1.54705 0
M  V30 9615 C 920.31 0.609179 -2.20956 0
M  V30 9616 C 921.323 1.09776 -1.20221 0
M  V30 9617 O 922.512 1.01527 -1.46815 0
M  V30 9618 C 919.612 1.84595 -2.84214 0
M  V30 9619 C 918.785 1.49991 -4.10879 0
M  V30 9620 C 917.844 2.5918 -4.57943 0
M  V30 9621 O 916.87 2.24285 -5.23149 0
M  V30 9622 N 918.072 3.89714 -4.30236 0
M  V30 9623 H 920.837 0.0420111 -2.99671 0
M  V30 9624 H 918.398 -0.122896 -1.61433 0
M  V30 9625 H 920.39 2.56988 -3.12633 0
M  V30 9626 H 918.96 2.32152 -2.09342 0
M  V30 9627 H 918.18 0.608637 -3.89473 0
M  V30 9628 H 919.468 1.24409 -4.93356 0
M  V30 9629 H 918.866 4.20874 -3.77997 0
M  V30 9630 H 917.423 4.58406 -4.63365 0
M  V30 9631 N 920.856 1.57574 -0.0284266 0
M  V30 9632 C 921.819 2.09096 0.938691 0
M  V30 9633 C 922.819 1.00588 1.25454 0
M  V30 9634 O 924.009 1.2675 1.19499 0
M  V30 9635 C 921.141 2.55624 2.25542 0
M  V30 9636 H 922.334 2.95829 0.49248 0
M  V30 9637 H 919.887 1.5475 0.219594 0
M  V30 9638 H 920.622 1.72218 2.74793 0
M  V30 9639 H 920.407 3.34896 2.03929 0
M  V30 9640 H 921.897 2.95712 2.94863 0
M  V30 9641 N 922.334 -0.244713 1.55689 0
M  V30 9642 C 923.559 -0.994157 1.8202 0
M  V30 9643 C 923.984 -1.78079 0.60577 0
M  V30 9644 O 923.342 -1.75748 -0.445221 0
M  V30 9645 C 923.39 -1.90599 3.06111 0
M  V30 9646 O 922.494 -2.99804 2.8318 0
M  V30 9647 H 921.835 -0.282767 0.600782 0
M  V30 9648 H 924.365 -0.26504 2.02876 0
M  V30 9649 H 924.375 -2.32023 3.35603 0
M  V30 9650 H 923.05 -1.32763 3.9414 0
M  V30 9651 H 921.627 -2.62493 2.64862 0
M  V30 9652 N 923.813 -1.49104 -0.510467 0
M  V30 9653 C 925.041 -1.61806 -1.28944 0
M  V30 9654 C 925.456 -0.285774 -1.86625 0
M  V30 9655 O 924.813 0.727551 -1.67371 0
M  V30 9656 C 924.864 -2.67966 -2.42645 0
M  V30 9657 O 924.585 -3.96026 -1.87337 0
M  V30 9658 C 926.086 -2.91286 -3.34166 0
M  V30 9659 H 923.306 -0.544999 -0.391429 0
M  V30 9660 H 925.85 -1.95071 -0.613805 0
M  V30 9661 H 924.005 -2.37505 -3.06056 0
M  V30 9662 H 924.419 -4.54427 -2.61909 0
M  V30 9663 H 925.893 -3.69323 -4.1025 0
M  V30 9664 H 926.37 -2.00842 -3.90588 0
M  V30 9665 H 926.976 -3.23127 -2.76531 0
M  V30 9666 N 925.291 0.760815 -1.38019 0
M  V30 9667 C 926.702 1.33773 -1.30237 0
M  V30 9668 C 927.053 1.96148 0.0451153 0
M  V30 9669 O 926.178 1.94574 0.9471 0
M  V30 9670 C 926.773 2.43227 -2.35851 0
M  V30 9671 C 925.332 2.96659 -2.31669 0
M  V30 9672 C 924.479 1.69972 -2.191 0
M  V30 9673 H 927.43 0.560237 -1.48482 0
M  V30 9674 H 927.451 3.22985 -2.01149 0
M  V30 9675 H 926.963 1.978 -3.33911 0
M  V30 9676 H 925.064 3.46433 -1.37167 0
M  V30 9677 H 925.177 3.51529 -3.25521 0
M  V30 9678 H 923.541 1.9332 -1.65829 0
M  V30 9679 H 924.324 1.26633 -3.19091 0
M  V30 9680 N 926.769 1.22769 0.988202 0
M  V30 9681 C 927.699 1.02627 2.09738 0
M  V30 9682 C 928.68 -0.0543211 1.70013 0
M  V30 9683 O 929.865 0.108811 1.93895 0
M  V30 9684 C 926.995 0.608302 3.41931 0
M  V30 9685 C 925.949 1.63536 3.95525 0
M  V30 9686 C 925.275 1.07308 5.23822 0
M  V30 9687 C 926.575 3.02649 4.25677 0
M  V30 9688 H 928.269 1.954 2.26847 0
M  V30 9689 H 925.815 0.940888 1.09011 0
M  V30 9690 H 927.768 0.454478 4.18942 0
M  V30 9691 H 926.492 -0.355095 3.24664 0
M  V30 9692 H 925.151 1.77704 3.20651 0
M  V30 9693 H 924.799 0.100894 5.02899 0
M  V30 9694 H 924.499 1.75925 5.60646 0
M  V30 9695 H 926.023 0.930938 6.03462 0
M  V30 9696 H 927.437 2.91828 4.93467 0
M  V30 9697 H 925.834 3.68434 4.73684 0
M  V30 9698 H 926.904 3.52228 3.33262 0
M  V30 9699 N 928.247 -1.18576 1.03814 0
M  V30 9700 C 929.472 -1.92978 0.759873 0
M  V30 9701 C 929.897 -1.75514 -0.676486 0
M  V30 9702 O 929.255 -1.06359 -1.46824 0
M  V30 9703 C 929.303 -3.42507 1.12788 0
M  V30 9704 O 928.407 -4.1163 0.251886 0
M  V30 9705 H 927.748 -0.602129 0.279886 0
M  V30 9706 H 930.278 -1.50383 1.3873 0
M  V30 9707 H 930.288 -3.93206 1.08872 0
M  V30 9708 H 928.963 -3.5454 2.17427 0
M  V30 9709 H 927.54 -3.7125 0.350441 0
M  V30 9710 N 929.725 -0.817259 -1.34754 0
M  V30 9711 C 930.95 -0.414423 -2.03217 0
M  V30 9712 C 931.375 0.970037 -1.61158 0
M  V30 9713 O 930.733 1.63016 -0.793436 0
M  V30 9714 C 930.781 -0.518087 -3.56859 0
M  V30 9715 O 929.885 0.464314 -4.09778 0
M  V30 9716 H 929.226 -0.171454 -0.641482 0
M  V30 9717 H 931.756 -1.10611 -1.72123 0
M  V30 9718 H 931.766 -0.391779 -4.06115 0
M  V30 9719 H 930.441 -1.52786 -3.86819 0
M  V30 9720 H 929.018 0.297361 -3.71712 0
M  V30 9721 N 931.203 1.46865 -0.571711 0
M  V30 9722 C 932.136 2.27176 0.215944 0
M  V30 9723 C 933.114 1.34951 0.907035 0
M  V30 9724 O 934.298 1.64349 0.923127 0
M  V30 9725 C 931.425 3.12388 1.30888 0
M  V30 9726 C 930.471 4.20296 0.724804 0
M  V30 9727 S 931.304 5.33691 -0.439839 0
M  V30 9728 C 932.46 6.22468 0.654564 0
M  V30 9729 H 932.693 2.93633 -0.465518 0
M  V30 9730 H 930.226 1.50184 -0.358351 0
M  V30 9731 H 932.184 3.62049 1.93471 0
M  V30 9732 H 930.845 2.45265 1.96224 0
M  V30 9733 H 930.038 4.79703 1.54599 0
M  V30 9734 H 929.64 3.73591 0.174861 0
M  V30 9735 H 931.932 6.59694 1.54304 0
M  V30 9736 H 932.875 7.08033 0.0975111 0
M  V30 9737 H 933.283 5.56384 0.953762 0
M  V30 9738 N 932.681 0.308908 1.54543 0
M  V30 9739 C 933.929 -0.297447 1.99899 0
M  V30 9740 C 934.25 -1.53799 1.19878 0
M  V30 9741 O 933.52 -1.93639 0.29678 0
M  V30 9742 H 932.1 -0.112897 0.738419 0
M  V30 9743 H 934.762 0.422067 1.90275 0
M  V30 9744 H 933.858 -0.564016 3.06961 0
M  V30 9745 N 934.159 -1.57557 0.0367827 0
M  V30 9746 C 935.407 -1.91735 -0.63892 0
M  V30 9747 C 935.728 -0.914515 -1.72226 0
M  V30 9748 O 934.998 0.0428248 -1.95853 0
M  V30 9749 H 933.578 -0.707738 -0.23899 0
M  V30 9750 H 936.24 -1.94708 0.0863931 0
M  V30 9751 H 935.336 -2.92568 -1.08676 0
M  V30 9752 N 935.637 0.236453 -1.55816 0
M  V30 9753 C 937.053 0.585465 -1.48474 0
M  V30 9754 C 937.253 1.8785 -0.72902 0
M  V30 9755 O 936.309 2.51131 -0.262614 0
M  V30 9756 C 937.622 0.678506 -2.92945 0
M  V30 9757 C 939.17 0.770135 -3.03378 0
M  V30 9758 C 939.645 0.894649 -4.49177 0
M  V30 9759 N 941.136 0.959253 -4.53158 0
M  V30 9760 C 941.871 1.07505 -5.63232 0
M  V30 9761 N 941.367 1.15572 -6.83092 0
M  V30 9762 N 943.16 1.10902 -5.51051 0
M  V30 9763 H 935.311 -0.612241 -2.03385 0
M  V30 9764 H 937.574 -0.212796 -0.923808 0
M  V30 9765 H 937.28 -0.201757 -3.51121 0
M  V30 9766 H 937.154 1.54703 -3.44016 0
M  V30 9767 H 939.541 1.64085 -2.45276 0
M  V30 9768 H 939.622 -0.123753 -2.555 0
M  V30 9769 H 939.266 0.0284537 -5.07892 0
M  V30 9770 H 939.196 1.80373 -4.94745 0
M  V30 9771 H 941.687 0.907827 -3.66834 0
M  V30 9772 H 942 1.24343 -7.62731 0
M  V30 9773 H 940.345 1.12511 -6.85833 0
M  V30 9774 H 943.536 1.04255 -4.56343 0
M  V30 9775 H 943.709 1.19581 -6.36871 0
M  V30 9776 N 937.115 1.49373 0.502552 0
M  V30 9777 C 938.34 1.62752 1.28556 0
M  V30 9778 C 938.765 0.298285 1.8572 0
M  V30 9779 O 938.123 -0.733885 1.65782 0
M  V30 9780 C 938.171 2.69778 2.39274 0
M  V30 9781 O 937.275 2.28843 3.43081 0
M  V30 9782 H 936.616 0.544799 0.379592 0
M  V30 9783 H 939.146 1.9555 0.601792 0
M  V30 9784 H 939.156 2.91899 2.8506 0
M  V30 9785 H 937.831 3.66266 1.97033 0
M  V30 9786 H 936.408 2.17047 3.03224 0
M  V30 9787 N 938.594 -0.753485 1.38421 0
M  V30 9788 C 939.542 -1.8886 1.35774 0
M  V30 9789 C 940.536 -1.67639 0.243608 0
M  V30 9790 O 941.742 -1.75206 0.412649 0
M  V30 9791 H 938.117 -0.62137 0.42356 0
M  V30 9792 H 940.088 -1.88209 2.3156 0
M  V30 9793 C 938.837 -3.26344 1.19979 0
M  V30 9794 H 938.16 -3.43259 2.04971 0
M  V30 9795 H 939.6 -4.06015 1.22181 0
M  V30 9796 C 938.059 -3.36771 -0.0932867 0
M  V30 9797 O 938.589 -3.8718 -1.07027 0
M  V30 9798 N 936.795 -2.90212 -0.150154 0
M  V30 9799 H 936.342 -2.4938 0.645562 0
M  V30 9800 H 936.3 -2.97569 -1.0149 0
M  V30 9801 N 940.072 -1.23292 -0.981677 0
M  V30 9802 C 941.3 -1.09088 -1.75805 0
M  V30 9803 C 941.715 0.357746 -1.8538 0
M  V30 9804 O 941.072 1.24751 -1.33205 0
M  V30 9805 C 941.123 -1.70885 -3.1856 0
M  V30 9806 O 940.844 -3.10082 -3.09484 0
M  V30 9807 C 942.345 -1.62106 -4.12597 0
M  V30 9808 H 939.565 -0.38184 -0.55176 0
M  V30 9809 H 942.109 -1.63116 -1.23342 0
M  V30 9810 H 940.264 -1.20893 -3.68054 0
M  V30 9811 H 940.678 -3.40039 -3.99342 0
M  V30 9812 H 942.152 -2.10049 -5.10474 0
M  V30 9813 H 942.629 -0.579642 -4.35358 0
M  V30 9814 H 943.235 -2.11457 -3.69007 0
M  V30 9815 N 941.55 1.18024 -1.04442 0
M  V30 9816 C 942.482 2.21294 -0.596799 0
M  V30 9817 C 943.495 1.59305 0.33552 0
M  V30 9818 O 944.684 1.7803 0.129443 0
M  V30 9819 C 941.784 3.38578 0.147648 0
M  V30 9820 C 940.957 4.30143 -0.793484 0
M  V30 9821 C 940.016 5.2612 -0.0916561 0
M  V30 9822 O 939.042 5.64586 -0.72331 0
M  V30 9823 N 940.244 5.68512 1.17364 0
M  V30 9824 H 943.009 2.6032 -1.48504 0
M  V30 9825 H 940.57 1.32847 -0.925374 0
M  V30 9826 H 942.562 3.99812 0.627098 0
M  V30 9827 H 941.132 2.98212 0.937466 0
M  V30 9828 H 940.352 3.66456 -1.45272 0
M  V30 9829 H 941.64 4.88216 -1.43258 0
M  V30 9830 H 941.038 5.39322 1.70729 0
M  V30 9831 H 939.595 6.31925 1.5973 0
M  V30 9832 N 943.028 0.824394 1.34319 0
M  V30 9833 C 944.274 0.422964 1.98954 0
M  V30 9834 C 944.629 -1.00323 1.64174 0
M  V30 9835 O 943.922 -1.6894 0.903869 0
M  V30 9836 C 944.116 0.564024 3.52921 0
M  V30 9837 C 943.945 2.00238 4.0266 0
M  V30 9838 C 942.715 2.63457 4.31183 0
M  V30 9839 C 944.913 2.9693 4.19925 0
M  V30 9840 N 942.895 3.98518 4.66966 0
M  V30 9841 C 944.266 4.16901 4.58904 0
M  V30 9842 C 946.321 2.93527 4.02177 0
M  V30 9843 C 945.024 5.33926 4.81991 0
M  V30 9844 C 947.05 4.09769 4.26431 0
M  V30 9845 C 946.412 5.28493 4.65698 0
M  V30 9846 H 942.511 0.202907 0.755217 0
M  V30 9847 H 945.095 1.0694 1.62702 0
M  V30 9848 H 943.266 -0.0525268 3.88364 0
M  V30 9849 H 944.998 0.135451 4.04473 0
M  V30 9850 H 941.753 2.14688 4.22145 0
M  V30 9851 H 942.177 4.68103 4.8909 0
M  V30 9852 H 946.819 2.02878 3.70945 0
M  V30 9853 H 944.537 6.25132 5.12089 0
M  V30 9854 H 948.123 4.08537 4.14233 0
M  V30 9855 H 947.003 6.16945 4.84096 0
M  V30 9856 N 944.506 -1.46559 0.579492 0
M  V30 9857 C 945.917 -1.8608 0.152052 0
M  V30 9858 C 946.268 -1.48346 -1.28405 0
M  V30 9859 O 945.393 -0.89685 -1.9694 0
M  V30 9860 C 945.988 -3.37729 0.269171 0
M  V30 9861 C 944.547 -3.76258 -0.103376 0
M  V30 9862 C 943.694 -2.70584 0.60659 0
M  V30 9863 H 946.645 -1.3776 0.787904 0
M  V30 9864 H 946.666 -3.77116 -0.506339 0
M  V30 9865 H 946.178 -3.65162 1.31448 0
M  V30 9866 H 944.279 -3.54443 -1.14895 0
M  V30 9867 H 944.392 -4.78335 0.270701 0
M  V30 9868 H 942.756 -2.54656 0.0471984 0
M  V30 9869 H 943.539 -3.00856 1.65349 0
M  V30 9870 N 945.984 -0.3171 -1.54377 0
M  V30 9871 C 947.395 0.172287 -1.85903 0
M  V30 9872 C 947.746 1.52141 -1.23885 0
M  V30 9873 O 946.871 2.0949 -0.542476 0
M  V30 9874 C 947.466 0.319392 -3.37291 0
M  V30 9875 C 946.025 0.752998 -3.68791 0
M  V30 9876 C 945.172 -0.129143 -2.76999 0
M  V30 9877 H 948.123 -0.537597 -1.49317 0
M  V30 9878 H 948.144 1.15137 -3.62662 0
M  V30 9879 H 947.656 -0.662671 -3.82401 0
M  V30 9880 H 945.757 1.74504 -3.2921 0
M  V30 9881 H 945.87 0.561228 -4.75801 0
M  V30 9882 H 944.234 0.394242 -2.5163 0
M  V30 9883 H 945.017 -1.10785 -3.24933 0
M  V30 9884 N 947.462 1.57535 -0.0451378 0
M  V30 9885 C 948.739 1.83785 0.669523 0
M  V30 9886 C 949.119 0.932331 1.89396 0
M  V30 9887 O 948.467 -0.00813229 2.28499 0
M  V30 9888 C 948.677 3.33376 1.03255 0
M  V30 9889 C 950.025 4.00243 1.41741 0
M  V30 9890 O 951.049 3.37965 1.12507 0
M  V30 9891 O 949.908 5.10038 1.96275 0
M  V30 9892 H 947.002 0.758342 0.329919 0
M  V30 9893 H 949.548 1.69538 -0.0740415 0
M  V30 9894 H 948.32 3.90965 0.161777 0
M  V30 9895 H 947.943 3.52787 1.83376 0
M  V30 9896 N 948.94 -0.228186 1.55939 0
M  V30 9897 C 950.351 -0.795734 1.68893 0
M  V30 9898 C 950.702 -1.85261 0.645967 0
M  V30 9899 O 949.827 -2.15434 -0.2042 0
M  V30 9900 C 950.422 -1.45013 3.06197 0
M  V30 9901 C 948.981 -1.96514 3.21028 0
M  V30 9902 C 948.128 -0.822918 2.64808 0
M  V30 9903 H 951.079 -0.0036485 1.587 0
M  V30 9904 H 951.1 -2.31875 3.01685 0
M  V30 9905 H 950.612 -0.680678 3.82084 0
M  V30 9906 H 948.713 -2.76282 2.49998 0
M  V30 9907 H 948.826 -2.14967 4.28166 0
M  V30 9908 H 947.19 -1.22846 2.23116 0
M  V30 9909 H 947.973 -0.0662493 3.43236 0
M  V30 9910 N 950.418 -1.49637 -0.494624 0
M  V30 9911 C 951.829 -1.52573 -1.07603 0
M  V30 9912 C 952.18 -0.315591 -1.93645 0
M  V30 9913 O 951.305 0.573966 -2.08649 0
M  V30 9914 C 951.9 -2.7648 -1.95817 0
M  V30 9915 C 950.459 -2.82173 -2.49109 0
M  V30 9916 C 949.606 -2.4657 -1.2688 0
M  V30 9917 H 952.557 -1.56242 -0.278251 0
M  V30 9918 H 952.578 -2.57003 -2.80588 0
M  V30 9919 H 952.09 -3.64538 -1.33167 0
M  V30 9920 H 950.191 -1.9841 -3.15379 0
M  V30 9921 H 950.304 -3.84501 -2.85825 0
M  V30 9922 H 948.668 -1.98489 -1.59607 0
M  V30 9923 H 949.451 -3.3691 -0.659281 0
M  V30 9924 N 951.896 0.746133 -1.38819 0
M  V30 9925 C 952.826 1.87344 -1.39372 0
M  V30 9926 C 953.807 1.68123 -0.258583 0
M  V30 9927 O 954.992 1.88606 -0.462769 0
M  V30 9928 C 952.122 3.24962 -1.22543 0
M  V30 9929 C 951.076 3.58799 -2.33339 0
M  V30 9930 C 950.402 4.95235 -2.01609 0
M  V30 9931 C 951.702 3.62911 -3.75624 0
M  V30 9932 H 953.396 1.87138 -2.33709 0
M  V30 9933 H 950.942 0.898937 -1.12495 0
M  V30 9934 H 952.895 4.03488 -1.21554 0
M  V30 9935 H 951.619 3.25667 -0.246707 0
M  V30 9936 H 950.278 2.82596 -2.33527 0
M  V30 9937 H 949.926 4.92508 -1.02202 0
M  V30 9938 H 949.626 5.18843 -2.75819 0
M  V30 9939 H 951.15 5.76131 -2.02251 0
M  V30 9940 H 952.564 4.31535 -3.77426 0
M  V30 9941 H 950.961 3.98031 -4.491 0
M  V30 9942 H 952.031 2.62967 -4.07402 0
M  V30 9943 N 953.375 1.23811 0.975125 0
M  V30 9944 C 954.325 0.991036 2.05335 0
M  V30 9945 C 955.309 -0.0648793 1.60769 0
M  V30 9946 O 956.501 0.147917 1.76381 0
M  V30 9947 C 953.63 0.589822 3.38195 0
M  V30 9948 C 952.716 1.68142 3.89344 0
M  V30 9949 N 953.107 2.91274 4.13513 0
M  V30 9950 C 951.405 1.55722 4.17931 0
M  V30 9951 C 952.106 3.61987 4.55347 0
M  V30 9952 N 951.082 2.8952 4.60086 0
M  V30 9953 H 954.884 1.92612 2.21986 0
M  V30 9954 H 952.398 1.13827 1.15832 0
M  V30 9955 H 954.395 0.394075 4.15033 0
M  V30 9956 H 953.055 -0.338157 3.22934 0
M  V30 9957 H 954.066 3.27528 4.01181 0
M  V30 9958 H 950.743 0.696732 4.11645 0
M  V30 9959 H 952.133 4.67572 4.8252 0
M  V30 9960 N 954.853 -1.17469 1.05066 0
M  V30 9961 C 956.1 -1.87698 0.759987 0
M  V30 9962 C 956.428 -1.80964 -0.712902 0
M  V30 9963 O 955.683 -1.21146 -1.53695 0
M  V30 9964 C 955.982 -3.37211 1.18421 0
M  V30 9965 C 955.648 -3.64148 2.65909 0
M  V30 9966 C 954.31 -3.71209 3.06199 0
M  V30 9967 C 956.662 -3.75724 3.61222 0
M  V30 9968 C 953.99 -3.87334 4.40669 0
M  V30 9969 C 956.342 -3.93368 4.95424 0
M  V30 9970 C 955.006 -3.98667 5.3537 0
M  V30 9971 H 954.276 -0.686835 0.278099 0
M  V30 9972 H 956.923 -1.38975 1.31751 0
M  V30 9973 H 955.228 -3.87982 0.545654 0
M  V30 9974 H 956.925 -3.89911 0.936518 0
M  V30 9975 H 953.515 -3.59276 2.33707 0
M  V30 9976 H 957.699 -3.69591 3.31235 0
M  V30 9977 H 952.955 -3.89685 4.71122 0
M  V30 9978 H 957.129 -4.01267 5.69173 0
M  V30 9979 H 954.756 -4.10915 6.39572 0
M  V30 9980 N 956.331 -0.831506 -1.3388 0
M  V30 9981 C 957.579 -0.422837 -1.97627 0
M  V30 9982 C 957.9 1.01961 -1.6622 0
M  V30 9983 O 957.17 1.70916 -0.957323 0
M  V30 9984 H 955.75 -0.153365 -0.731087 0
M  V30 9985 H 958.412 -1.06284 -1.6337 0
M  V30 9986 H 957.508 -0.548858 -3.07236 0
M  V30 9987 N 957.809 1.4625 -0.587256 0
M  V30 9988 C 959.22 1.85997 -0.161918 0
M  V30 9989 C 959.571 1.49025 1.27616 0
M  V30 9990 O 958.696 0.907282 1.96462 0
M  V30 9991 C 959.291 3.37582 -0.287077 0
M  V30 9992 C 957.85 3.76308 0.0834211 0
M  V30 9993 C 956.997 2.70259 -0.620932 0
M  V30 9994 H 959.948 1.3734 -0.795199 0
M  V30 9995 H 959.969 3.77379 0.486333 0
M  V30 9996 H 959.481 3.64459 -1.33383 0
M  V30 9997 H 957.582 3.55047 1.13013 0
M  V30 9998 H 957.695 4.78184 -0.296064 0
M  V30 9999 H 956.059 2.54628 -0.0607027 0
M  V30 10000 H 956.842 2.99975 -1.66942 0
M  V30 10001 N 959.287 0.325282 1.54207 0
M  V30 10002 C 960.515 -0.27869 2.05014 0
M  V30 10003 C 960.93 -1.45649 1.20133 0
M  V30 10004 O 960.287 -1.81014 0.232398 0
M  V30 10005 C 960.338 -0.711486 3.54429 0
M  V30 10006 O 960.059 0.419458 4.36087 0
M  V30 10007 C 961.56 -1.37809 4.21336 0
M  V30 10008 H 958.78 -0.0570388 0.668571 0
M  V30 10009 H 961.324 0.47197 1.98979 0
M  V30 10010 H 959.479 -1.41212 3.60746 0
M  V30 10011 H 959.893 0.0781037 5.24442 0
M  V30 10012 H 961.367 -1.63184 5.27328 0
M  V30 10013 H 961.844 -2.32593 3.72555 0
M  V30 10014 H 962.45 -0.719987 4.19161 0
M  V30 10015 N 960.765 -1.57509 0.0534917 0
M  V30 10016 C 961.712 -2.11667 -0.920101 0
M  V30 10017 C 962.682 -1.0246 -1.30733 0
M  V30 10018 O 963.867 -1.30021 -1.39639 0
M  V30 10019 C 961.007 -2.66803 -2.18883 0
M  V30 10020 C 960.12 -3.90104 -1.85588 0
M  V30 10021 C 959.255 -4.33547 -3.06937 0
M  V30 10022 C 958.294 -5.49542 -2.69573 0
M  V30 10023 N 957.431 -5.88029 -3.83623 0
M  V30 10024 H 962.271 -2.94562 -0.451371 0
M  V30 10025 H 959.808 -1.45576 -0.211168 0
M  V30 10026 H 961.766 -2.96871 -2.93127 0
M  V30 10027 H 960.396 -1.86702 -2.63329 0
M  V30 10028 H 959.448 -3.66613 -1.01484 0
M  V30 10029 H 960.76 -4.74404 -1.54087 0
M  V30 10030 H 959.914 -4.6518 -3.89477 0
M  V30 10031 H 958.653 -3.48064 -3.41618 0
M  V30 10032 H 957.658 -5.17579 -1.8545 0
M  V30 10033 H 958.883 -6.36743 -2.36082 0
M  V30 10034 H 956.829 -5.05498 -4.181 0
M  V30 10035 H 956.746 -6.67025 -3.55828 0
M  V30 10036 H 958.014 -6.24277 -4.66796 0
M  V30 10037 N 962.243 0.219913 -1.56058 0
M  V30 10038 C 963.489 0.941055 -1.80321 0
M  V30 10039 C 963.844 1.81906 -0.626735 0
M  V30 10040 O 963.137 1.87811 0.379147 0
M  V30 10041 C 963.331 1.81293 -3.08006 0
M  V30 10042 C 963.16 1.02082 -4.37961 0
M  V30 10043 C 961.93 0.715096 -5.00214 0
M  V30 10044 C 964.128 0.385342 -5.12854 0
M  V30 10045 N 962.11 -0.098246 -6.13821 0
M  V30 10046 C 963.481 -0.291319 -6.19315 0
M  V30 10047 C 965.536 0.29854 -4.97004 0
M  V30 10048 C 964.239 -1.04648 -7.11647 0
M  V30 10049 C 966.265 -0.443159 -5.89737 0
M  V30 10050 C 965.627 -1.10836 -6.95625 0
M  V30 10051 H 961.726 0.324568 -0.711463 0
M  V30 10052 H 964.31 0.211795 -1.93545 0
M  V30 10053 H 962.481 2.51399 -2.96063 0
M  V30 10054 H 964.213 2.47167 -3.20454 0
M  V30 10055 H 960.968 1.03352 -4.62185 0
M  V30 10056 H 961.392 -0.4938 -6.75197 0
M  V30 10057 H 966.034 0.798478 -4.15192 0
M  V30 10058 H 963.752 -1.55793 -7.9294 0
M  V30 10059 H 967.338 -0.511348 -5.79549 0
M  V30 10060 H 966.218 -1.6731 -7.66144 0
M  V30 10061 N 963.721 1.49897 0.486681 0
M  V30 10062 C 964.684 1.67086 1.56891 0
M  V30 10063 C 965.684 0.54209 1.51387 0
M  V30 10064 O 966.874 0.80883 1.54284 0
M  V30 10065 C 964.006 1.68159 2.96539 0
M  V30 10066 H 965.199 2.63626 1.42974 0
M  V30 10067 H 962.752 1.39143 0.711954 0
M  V30 10068 H 963.487 0.732562 3.15918 0
M  V30 10069 H 963.272 2.50147 3.01942 0
M  V30 10070 H 964.762 1.83466 3.7514 0
M  V30 10071 N 965.199 -0.738761 1.39212 0
M  V30 10072 C 966.445 -1.50046 1.36433 0
M  V30 10073 C 966.778 -1.94157 -0.0409474 0
M  V30 10074 O 966.053 -1.66515 -1.00514 0
M  V30 10075 C 966.336 -2.74277 2.33333 0
M  V30 10076 C 966.189 -2.36209 3.82786 0
M  V30 10077 C 967.508 -3.76361 2.28123 0
M  V30 10078 H 964.627 -0.544294 0.496903 0
M  V30 10079 H 967.269 -0.845005 1.70175 0
M  V30 10080 H 965.419 -3.30204 2.04689 0
M  V30 10081 H 967.091 -1.85942 4.22165 0
M  V30 10082 H 965.334 -1.68483 3.99745 0
M  V30 10083 H 966.005 -3.25156 4.46069 0
M  V30 10084 H 968.481 -3.30009 2.53443 0
M  V30 10085 H 967.357 -4.60957 2.9801 0
M  V30 10086 H 967.618 -4.23013 1.28499 0
M  V30 10087 N 966.677 -1.24326 -0.968545 0
M  V30 10088 C 967.925 -1.08032 -1.70803 0
M  V30 10089 C 968.246 0.381728 -1.91227 0
M  V30 10090 O 967.516 1.27253 -1.48942 0
M  V30 10091 H 966.096 -0.396777 -0.632912 0
M  V30 10092 H 968.758 -1.56232 -1.16523 0
M  V30 10093 H 967.854 -1.57769 -2.69287 0
M  V30 10094 N 968.156 1.1691 -1.05688 0
M  V30 10095 C 969.433 1.83266 -0.683601 0
M  V30 10096 C 969.813 1.93858 0.835602 0
M  V30 10097 O 969.161 1.47696 1.7435 0
M  V30 10098 C 969.371 3.20625 -1.37842 0
M  V30 10099 C 970.719 3.96473 -1.51967 0
M  V30 10100 O 971.743 3.30122 -1.33783 0
M  V30 10101 O 970.602 5.15393 -1.81749 0
M  V30 10102 H 967.696 0.791028 -0.241254 0
M  V30 10103 H 970.242 1.24165 -1.15677 0
M  V30 10104 H 969.014 3.07914 -2.41463 0
M  V30 10105 H 968.637 3.87398 -0.894921 0
M  V30 10106 N 969.634 0.838594 1.33437 0
M  V30 10107 C 970.566 0.229006 2.28053 0
M  V30 10108 C 971.579 -0.590103 1.51729 0
M  V30 10109 O 972.768 -0.417218 1.73556 0
M  V30 10110 C 969.868 -0.696251 3.31671 0
M  V30 10111 C 969.041 0.0834606 4.3732 0
M  V30 10112 C 968.1 -0.765097 5.20608 0
M  V30 10113 O 967.126 -0.2044 5.68833 0
M  V30 10114 N 968.328 -2.08249 5.4186 0
M  V30 10115 H 971.093 1.04196 2.81004 0
M  V30 10116 H 968.654 0.697031 1.46127 0
M  V30 10117 H 970.646 -1.26889 3.84293 0
M  V30 10118 H 969.216 -1.40992 2.78998 0
M  V30 10119 H 968.436 0.837481 3.85201 0
M  V30 10120 H 969.724 0.619613 5.05013 0
M  V30 10121 H 969.122 -2.56156 5.04381 0
M  V30 10122 H 967.679 -2.60362 5.97541 0
M  V30 10123 N 971.112 -1.45937 0.595003 0
M  V30 10124 C 972.528 -1.57507 0.257641 0
M  V30 10125 C 972.728 -1.58829 -1.23998 0
M  V30 10126 O 971.784 -1.51183 -2.02237 0
M  V30 10127 C 973.097 -2.86354 0.917708 0
M  V30 10128 C 974.645 -3.00007 0.892446 0
M  V30 10129 C 975.12 -4.31607 1.53229 0
M  V30 10130 N 976.611 -4.38336 1.49719 0
M  V30 10131 C 977.346 -5.38805 1.96154 0
M  V30 10132 N 976.842 -6.45882 2.50617 0
M  V30 10133 N 978.635 -5.30084 1.86997 0
M  V30 10134 H 970.786 -1.43322 1.56756 0
M  V30 10135 H 973.049 -0.684436 0.655936 0
M  V30 10136 H 972.755 -2.91233 1.97171 0
M  V30 10137 H 972.629 -3.74703 0.433344 0
M  V30 10138 H 975.016 -2.94703 -0.152975 0
M  V30 10139 H 975.097 -2.13103 1.41495 0
M  V30 10140 H 974.741 -4.3767 2.57697 0
M  V30 10141 H 974.671 -5.17308 0.984903 0
M  V30 10142 H 977.162 -3.6156 1.09921 0
M  V30 10143 H 977.475 -7.18774 2.83874 0
M  V30 10144 H 975.82 -6.46668 2.54649 0
M  V30 10145 H 979.011 -4.45337 1.44196 0
M  V30 10146 H 979.184 -6.08237 2.23499 0
M  V30 10147 N 972.59 -0.333456 -1.54032 0
M  V30 10148 C 973.818 0.267813 -2.05159 0
M  V30 10149 C 974.233 1.4501 -1.20903 0
M  V30 10150 O 973.59 1.80888 -0.241994 0
M  V30 10151 C 973.641 0.69268 -3.54802 0
M  V30 10152 O 973.362 -0.442579 -4.35859 0
M  V30 10153 C 974.863 1.35572 -4.2206 0
M  V30 10154 H 972.083 0.0534924 -0.668864 0
M  V30 10155 H 974.627 -0.482515 -1.98726 0
M  V30 10156 H 972.782 1.39297 -3.6149 0
M  V30 10157 H 973.196 -0.105915 -5.24393 0
M  V30 10158 H 974.67 1.60385 -5.28186 0
M  V30 10159 H 975.147 2.30614 -3.73783 0
M  V30 10160 H 975.753 0.697748 -4.19537 0
M  V30 10161 N 974.068 1.57479 -0.061844 0
M  V30 10162 C 974.978 2.15645 0.923826 0
M  V30 10163 C 975.994 1.117 1.33413 0
M  V30 10164 O 977.17 1.4392 1.40887 0
M  V30 10165 C 974.235 2.69857 2.17665 0
M  V30 10166 C 973.296 3.88638 1.8237 0
M  V30 10167 C 972.529 4.40256 3.01679 0
M  V30 10168 O 972.752 3.90908 4.15388 0
M  V30 10169 O 971.686 5.31713 2.82073 0
M  V30 10170 H 975.512 3.0021 0.459094 0
M  V30 10171 H 973.097 1.48534 0.160665 0
M  V30 10172 H 974.979 3.04647 2.9115 0
M  V30 10173 H 973.654 1.88357 2.63255 0
M  V30 10174 H 972.561 3.58719 1.06167 0
M  V30 10175 H 973.894 4.71401 1.4157 0
M  V30 10176 N 975.546 -0.211634 1.56173 0
M  V30 10177 C 976.793 -0.93455 1.79645 0
M  V30 10178 C 977.121 -1.83936 0.632294 0
M  V30 10179 O 976.376 -1.91919 -0.382841 0
M  V30 10180 C 976.675 -1.79657 3.08963 0
M  V30 10181 C 976.341 -1.04415 4.38644 0
M  V30 10182 C 975.003 -0.836351 4.73876 0
M  V30 10183 C 977.355 -0.51355 5.18664 0
M  V30 10184 C 974.683 -0.0861976 5.86637 0
M  V30 10185 C 977.035 0.223309 6.32206 0
M  V30 10186 C 975.699 0.442279 6.66033 0
M  V30 10187 H 974.969 -0.341976 0.657368 0
M  V30 10188 H 977.616 -0.202024 1.90431 0
M  V30 10189 H 975.921 -2.59726 2.93342 0
M  V30 10190 H 977.618 -2.35823 3.24328 0
M  V30 10191 H 974.208 -1.21611 4.10985 0
M  V30 10192 H 978.392 -0.661541 4.91871 0
M  V30 10193 H 973.648 0.0935866 6.11328 0
M  V30 10194 H 977.822 0.641917 6.93435 0
M  V30 10195 H 975.449 1.02547 7.53252 0
M  V30 10196 N 977.024 -1.50153 -0.478725 0
M  V30 10197 C 977.954 -1.71384 -1.58587 0
M  V30 10198 C 978.935 -0.562705 -1.60523 0
M  V30 10199 O 980.12 -0.80101 -1.76911 0
M  V30 10200 C 977.25 -1.80094 -2.96957 0
M  V30 10201 C 976.204 -2.95218 -3.09888 0
M  V30 10202 C 975.53 -2.89063 -4.49829 0
M  V30 10203 C 976.83 -4.35841 -2.8782 0
M  V30 10204 H 978.524 -2.64081 -1.41073 0
M  V30 10205 H 976.07 -1.27081 -0.677239 0
M  V30 10206 H 978.023 -1.93531 -3.74331 0
M  V30 10207 H 976.747 -0.840131 -3.1561 0
M  V30 10208 H 975.406 -2.81419 -2.34944 0
M  V30 10209 H 975.054 -1.90844 -4.6539 0
M  V30 10210 H 974.754 -3.66345 -4.59418 0
M  V30 10211 H 976.278 -3.04539 -5.29234 0
M  V30 10212 H 977.692 -4.50205 -3.54948 0
M  V30 10213 H 976.089 -5.14515 -3.0886 0
M  V30 10214 H 977.159 -4.48739 -1.83742 0
M  V30 10215 N 978.502 0.731368 -1.39602 0
M  V30 10216 C 979.75 1.48805 -1.36753 0
M  V30 10217 C 980.071 1.94969 0.034676 0
M  V30 10218 O 979.341 1.69243 0.986591 0
M  V30 10219 H 977.921 0.55203 -0.503261 0
M  V30 10220 H 980.583 0.868013 -1.74504 0
M  V30 10221 H 979.679 2.36844 -2.03252 0
M  V30 10222 N 979.98 1.24838 0.961938 0
M  V30 10223 C 980.943 1.04674 2.03902 0
M  V30 10224 C 981.943 0.00204674 1.608 0
M  V30 10225 O 983.133 0.243555 1.72489 0
M  V30 10226 C 980.265 0.587736 3.35795 0
M  V30 10227 H 981.458 2.00278 2.23223 0
M  V30 10228 H 979.011 1.07142 1.138 0
M  V30 10229 H 979.746 -0.371244 3.22168 0
M  V30 10230 H 979.531 1.34182 3.68426 0
M  V30 10231 H 981.021 0.467867 4.14971 0
M  V30 10232 N 981.458 -1.16348 1.06306 0
M  V30 10233 C 982.421 -2.18941 0.678053 0
M  V30 10234 C 983.421 -1.58409 -0.276277 0
M  V30 10235 O 984.611 -1.74101 -0.0586435 0
M  V30 10236 C 981.743 -3.409 -0.00228684 0
M  V30 10237 H 982.936 -2.54516 1.58624 0
M  V30 10238 H 980.489 -1.30625 0.858298 0
M  V30 10239 H 981.224 -3.10881 -0.923212 0
M  V30 10240 H 981.009 -3.86089 0.683949 0
M  V30 10241 H 982.499 -4.16806 -0.257374 0
M  V30 10242 N 982.937 -0.845659 -1.3299 0
M  V30 10243 C 984.348 -0.50048 -1.79867 0
M  V30 10244 C 984.699 0.981027 -1.69913 0
M  V30 10245 O 983.824 1.76477 -1.25239 0
M  V30 10246 C 984.419 -0.901679 -3.26581 0
M  V30 10247 C 982.978 -0.608536 -3.71448 0
M  V30 10248 C 982.125 -1.10632 -2.54275 0
M  V30 10249 H 985.076 -1.03372 -1.20416 0
M  V30 10250 H 985.097 -0.214433 -3.79895 0
M  V30 10251 H 984.609 -1.97998 -3.33794 0
M  V30 10252 H 982.71 0.459416 -3.69757 0
M  V30 10253 H 982.823 -1.16853 -4.64631 0
M  V30 10254 H 981.187 -0.526925 -2.4919 0
M  V30 10255 H 981.97 -2.19154 -2.64247 0
M  V30 10256 N 984.415 1.45619 -0.602734 0
M  V30 10257 C 985.345 2.33258 0.106342 0
M  V30 10258 C 986.326 1.46543 0.863664 0
M  V30 10259 O 987.511 1.75324 0.835175 0
M  V30 10260 C 984.641 3.29168 1.10751 0
M  V30 10261 C 983.595 4.25481 0.463717 0
M  V30 10262 C 982.921 5.11046 1.57278 0
M  V30 10263 C 984.221 5.18702 -0.61199 0
M  V30 10264 H 985.915 2.92795 -0.625423 0
M  V30 10265 H 983.461 1.40793 -0.302213 0
M  V30 10266 H 985.414 3.89346 1.61208 0
M  V30 10267 H 984.138 2.6778 1.8698 0
M  V30 10268 H 982.797 3.66595 -0.0199496 0
M  V30 10269 H 982.445 4.46029 2.32524 0
M  V30 10270 H 982.145 5.76286 1.14755 0
M  V30 10271 H 983.669 5.74091 2.07972 0
M  V30 10272 H 985.083 5.72979 -0.191686 0
M  V30 10273 H 983.48 5.92393 -0.958686 0
M  V30 10274 H 984.55 4.61424 -1.4905 0
M  V30 10275 N 985.893 0.34162 1.53853 0
M  V30 10276 C 987.141 -0.254979 2.00485 0
M  V30 10277 C 987.462 -1.51222 1.23114 0
M  V30 10278 O 986.732 -1.92966 0.337787 0
M  V30 10279 H 985.312 -0.0972084 0.740648 0
M  V30 10280 H 987.974 0.462332 1.89337 0
M  V30 10281 H 987.07 -0.498778 3.08089 0
M  V30 10282 N 987.371 -1.57444 0.0701946 0
M  V30 10283 C 988.782 -1.80875 -0.462709 0
M  V30 10284 C 989.133 -0.983975 -1.69742 0
M  V30 10285 O 988.258 -0.206027 -2.15417 0
M  V30 10286 C 988.853 -3.28062 -0.84623 0
M  V30 10287 C 987.412 -3.52345 -1.32401 0
M  V30 10288 C 986.559 -2.7558 -0.308399 0
M  V30 10289 H 989.51 -1.55917 0.295907 0
M  V30 10290 H 989.531 -3.40023 -1.70776 0
M  V30 10291 H 989.043 -3.88064 0.0526033 0
M  V30 10292 H 987.144 -2.97645 -2.24139 0
M  V30 10293 H 987.257 -4.6104 -1.30304 0
M  V30 10294 H 985.621 -2.4229 -0.785337 0
M  V30 10295 H 986.404 -3.38319 0.582679 0
M  V30 10296 N 988.849 0.203349 -1.56283 0
M  V30 10297 C 990.26 0.768764 -1.70138 0
M  V30 10298 C 990.611 1.8421 -0.675358 0
M  V30 10299 O 989.736 2.15732 0.1699 0
M  V30 10300 C 990.331 1.40123 -3.08466 0
M  V30 10301 C 988.89 1.91382 -3.24114 0
M  V30 10302 C 988.037 0.780685 -2.66084 0
M  V30 10303 H 990.988 -0.0215997 -1.58685 0
M  V30 10304 H 991.009 2.27046 -3.05336 0
M  V30 10305 H 990.521 0.619805 -3.83119 0
M  V30 10306 H 988.622 2.7227 -2.54362 0
M  V30 10307 H 988.735 2.08128 -4.31531 0
M  V30 10308 H 987.099 1.19281 -2.25042 0
M  V30 10309 H 987.882 0.0116351 -3.43298 0
M  V30 10310 N 990.327 1.50405 0.470755 0
M  V30 10311 C 991.573 1.6165 1.22462 0
M  V30 10312 C 991.906 0.316034 1.91611 0
M  V30 10313 O 991.181 -0.682509 1.82132 0
M  V30 10314 C 991.464 2.79702 2.26801 0
M  V30 10315 C 991.317 4.19631 1.61955 0
M  V30 10316 C 992.636 2.93313 3.28109 0
M  V30 10317 H 989.755 0.588345 0.443868 0
M  V30 10318 H 992.397 1.82792 0.518376 0
M  V30 10319 H 990.547 2.61807 2.87036 0
M  V30 10320 H 992.219 4.49117 1.05316 0
M  V30 10321 H 990.462 4.23874 0.922674 0
M  V30 10322 H 991.133 4.98162 2.37779 0
M  V30 10323 H 993.609 3.09697 2.77897 0
M  V30 10324 H 992.485 3.77537 3.98443 0
M  V30 10325 H 992.746 2.03942 3.9225 0
M  V30 10326 N 991.805 -0.723954 1.39988 0
M  V30 10327 C 993.03 -1.5182 1.41299 0
M  V30 10328 C 993.455 -1.88096 0.0122636 0
M  V30 10329 O 992.813 -1.52687 -0.977559 0
M  V30 10330 C 992.861 -2.77532 2.30235 0
M  V30 10331 O 991.965 -3.73903 1.73984 0
M  V30 10332 H 991.306 -0.458058 0.480707 0
M  V30 10333 H 993.836 -0.892291 1.84118 0
M  V30 10334 H 993.846 -3.2615 2.45132 0
M  V30 10335 H 992.521 -2.50462 3.32026 0
M  V30 10336 H 991.098 -3.32715 1.68389 0
M  V30 10337 N 993.283 -1.25346 -0.955304 0
M  V30 10338 C 994.694 -1.09173 -1.51453 0
M  V30 10339 C 995.045 0.332755 -1.93358 0
M  V30 10340 O 994.17 1.22264 -1.78551 0
M  V30 10341 C 994.765 -1.97564 -2.75234 0
M  V30 10342 C 993.324 -1.85579 -3.27471 0
M  V30 10343 C 992.471 -1.91755 -2.00313 0
M  V30 10344 H 995.422 -1.38642 -0.772271 0
M  V30 10345 H 995.443 -1.51523 -3.49029 0
M  V30 10346 H 994.955 -3.01233 -2.44704 0
M  V30 10347 H 993.056 -0.847906 -3.62824 0
M  V30 10348 H 993.169 -2.70353 -3.95533 0
M  V30 10349 H 991.533 -1.35633 -2.15582 0
M  V30 10350 H 992.316 -2.97028 -1.72132 0
M  V30 10351 N 994.761 1.15782 -1.06922 0
M  V30 10352 C 996.172 1.68062 -0.813144 0
M  V30 10353 C 996.523 1.84681 0.662374 0
M  V30 10354 O 995.648 1.54696 1.51321 0
M  V30 10355 C 996.243 3.05273 -1.46949 0
M  V30 10356 C 994.802 3.54647 -1.26104 0
M  V30 10357 C 993.949 2.30477 -1.54194 0
M  V30 10358 H 996.9 1.00056 -1.23185 0
M  V30 10359 H 996.921 3.69986 -0.888308 0
M  V30 10360 H 996.433 2.93145 -2.54337 0
M  V30 10361 H 994.534 3.72024 -0.20718 0
M  V30 10362 H 994.647 4.36354 -1.97819 0
M  V30 10363 H 993.011 2.35803 -0.96276 0
M  V30 10364 H 993.794 2.2094 -2.62755 0
M  V30 10365 N 996.239 0.8527 1.3254 0
M  V30 10366 C 997.189 0.267711 2.26423 0
M  V30 10367 C 998.173 -0.585305 1.49877 0
M  V30 10368 O 999.365 -0.435008 1.71571 0
M  V30 10369 C 996.494 -0.544605 3.38953 0
M  V30 10370 C 995.58 0.32069 4.22886 0
M  V30 10371 N 995.971 1.40601 4.85865 0
M  V30 10372 C 994.269 0.110101 4.45864 0
M  V30 10373 C 994.97 1.93819 5.48461 0
M  V30 10374 N 993.946 1.23764 5.29324 0
M  V30 10375 H 997.748 1.09747 2.7264 0
M  V30 10376 H 995.262 0.698607 1.46606 0
M  V30 10377 H 997.259 -0.98009 4.05216 0
M  V30 10378 H 995.919 -1.37218 2.94281 0
M  V30 10379 H 996.93 1.78894 4.86022 0
M  V30 10380 H 993.607 -0.682917 4.11877 0
M  V30 10381 H 994.997 2.84783 6.08562 0
M  V30 10382 N 997.718 -1.45297 0.610449 0
M  V30 10383 C 998.964 -2.02518 0.106917 0
M  V30 10384 C 999.297 -1.47747 -1.26034 0
M  V30 10385 O 998.572 -0.65329 -1.832 0
M  V30 10386 C 998.855 -3.6003 0.0710975 0
M  V30 10387 C 998.708 -4.25128 1.46922 0
M  V30 10388 C 1000.03 -4.35778 -0.61524 0
M  V30 10389 H 997.146 -0.735896 0.040327 0
M  V30 10390 H 999.788 -1.73117 0.782968 0
M  V30 10391 H 997.938 -3.85209 -0.504611 0
M  V30 10392 H 999.61 -4.11125 2.09223 0
M  V30 10393 H 997.853 -3.83418 2.02911 0
M  V30 10394 H 998.524 -5.34046 1.39637 0
M  V30 10395 H 1001 -4.1591 -0.125871 0
M  V30 10396 H 999.876 -5.45506 -0.609419 0
M  V30 10397 H 1000.14 -4.08859 -1.68186 0
M  V30 10398 N 999.196 -0.349774 -1.5367 0
M  V30 10399 C 1000.42 0.248692 -2.05904 0
M  V30 10400 C 1000.85 1.42942 -1.22267 0
M  V30 10401 O 1000.2 1.79732 -0.237899 0
M  V30 10402 C 1000.25 0.635639 -3.54953 0
M  V30 10403 O 999.356 1.7349 -3.74132 0
M  V30 10404 H 998.697 0.0399477 -0.662797 0
M  V30 10405 H 1001.23 -0.505795 -1.9825 0
M  V30 10406 H 1001.24 0.911064 -3.97698 0
M  V30 10407 H 999.912 -0.227805 -4.15276 0
M  V30 10408 H 998.489 1.45626 -3.43289 0
M  V30 10409 N 1000.67 1.57404 -0.0785433 0
M  V30 10410 C 1001.9 1.98074 0.597862 0
M  V30 10411 C 1002.32 0.95714 1.6274 0
M  V30 10412 O 1001.67 -0.0553728 1.82416 0
M  V30 10413 C 1001.72 3.38815 1.26041 0
M  V30 10414 O 1001.45 4.37254 0.27207 0
M  V30 10415 C 1002.95 3.94397 2.024 0
M  V30 10416 H 1000.17 0.651263 0.161546 0
M  V30 10417 H 1002.71 2.03927 -0.152941 0
M  V30 10418 H 1000.87 3.34028 1.96225 0
M  V30 10419 H 1001.28 5.19136 0.74822 0
M  V30 10420 H 1002.75 4.95075 2.4414 0
M  V30 10421 H 1003.23 3.31308 2.88326 0
M  V30 10422 H 1003.84 4.02607 1.37068 0
M  V30 10423 N 1002.15 -0.195058 1.56388 0
M  V30 10424 C 1003.4 -0.915444 1.80626 0
M  V30 10425 C 1003.73 -1.83255 0.651768 0
M  V30 10426 O 1002.98 -1.92314 -0.362464 0
M  V30 10427 C 1003.28 -1.7637 3.10851 0
M  V30 10428 C 1002.95 -0.997572 4.39726 0
M  V30 10429 C 1001.61 -0.786043 4.74737 0
M  V30 10430 C 1003.96 -0.45851 5.19179 0
M  V30 10431 C 1001.29 -0.023972 5.86695 0
M  V30 10432 C 1003.64 0.29035 6.31933 0
M  V30 10433 C 1002.3 0.512895 6.65527 0
M  V30 10434 H 1001.57 -0.334985 0.660959 0
M  V30 10435 H 1004.22 -0.181815 1.90635 0
M  V30 10436 H 1002.53 -2.566 2.9608 0
M  V30 10437 H 1004.22 -2.3237 3.26811 0
M  V30 10438 H 1000.81 -1.17245 4.12252 0
M  V30 10439 H 1005 -0.609334 4.92545 0
M  V30 10440 H 1000.25 0.158421 6.11195 0
M  V30 10441 H 1004.43 0.715429 6.92715 0
M  V30 10442 H 1002.05 1.10531 7.52122 0
M  V30 10443 N 1003.63 -1.50653 -0.462772 0
M  V30 10444 C 1004.58 -1.70122 -1.55971 0
M  V30 10445 C 1005.55 -0.542581 -1.56988 0
M  V30 10446 O 1006.73 -0.774114 -1.74391 0
M  V30 10447 C 1003.87 -1.80899 -2.93887 0
M  V30 10448 C 1002.98 -3.08318 -3.02595 0
M  V30 10449 C 1002.12 -3.09841 -4.31477 0
M  V30 10450 C 1001.16 -4.3168 -4.33957 0
M  V30 10451 N 1000.3 -4.30894 -5.54323 0
M  V30 10452 H 1005.14 -2.63768 -1.38674 0
M  V30 10453 H 1002.67 -1.30746 -0.674091 0
M  V30 10454 H 1004.63 -1.85128 -3.73876 0
M  V30 10455 H 1003.26 -0.906854 -3.098 0
M  V30 10456 H 1002.31 -3.13521 -2.15427 0
M  V30 10457 H 1003.62 -3.98282 -3.00288 0
M  V30 10458 H 1002.78 -3.12845 -5.1982 0
M  V30 10459 H 1001.52 -2.17722 -4.36404 0
M  V30 10460 H 1000.52 -4.28879 -3.4401 0
M  V30 10461 H 1001.75 -5.25035 -4.30715 0
M  V30 10462 H 999.694 -3.41633 -5.6002 0
M  V30 10463 H 999.611 -5.14636 -5.53792 0
M  V30 10464 H 1000.88 -4.38056 -6.44769 0
M  V30 10465 N 1005.11 0.71652 -1.4037 0
M  V30 10466 C 1006.34 1.50563 -1.4191 0
M  V30 10467 C 1006.75 1.88791 -0.0185456 0
M  V30 10468 O 1006.11 1.55378 0.957289 0
M  V30 10469 C 1006.16 2.78155 -2.30894 0
M  V30 10470 O 1005.88 2.41543 -3.65497 0
M  V30 10471 C 1007.38 3.72057 -2.41016 0
M  V30 10472 H 1004.6 0.464679 -0.48406 0
M  V30 10473 H 1007.15 0.883927 -1.8441 0
M  V30 10474 H 1005.3 3.36611 -1.91759 0
M  V30 10475 H 1005.71 3.23636 -4.12747 0
M  V30 10476 H 1007.19 4.58426 -3.07489 0
M  V30 10477 H 1007.67 4.15098 -1.43492 0
M  V30 10478 H 1008.27 3.19512 -2.80699 0
M  V30 10479 N 1006.59 1.25851 0.948643 0
M  V30 10480 C 1008 1.02802 1.22081 0
M  V30 10481 C 1008.2 -0.251461 1.99925 0
M  V30 10482 O 1007.26 -0.962592 2.33432 0
M  V30 10483 C 1008.57 2.25489 1.98936 0
M  V30 10484 C 1010.12 2.30312 2.11956 0
M  V30 10485 C 1010.59 3.52671 2.92211 0
M  V30 10486 N 1012.09 3.53103 2.99787 0
M  V30 10487 C 1012.82 4.44445 3.62294 0
M  V30 10488 N 1012.32 5.46065 4.26362 0
M  V30 10489 N 1014.11 4.32113 3.59493 0
M  V30 10490 H 1006.26 2.08042 0.428044 0
M  V30 10491 H 1008.52 0.913928 0.251872 0
M  V30 10492 H 1008.23 3.18513 1.4914 0
M  V30 10493 H 1008.1 2.2914 2.99624 0
M  V30 10494 H 1010.49 1.37808 2.60946 0
M  V30 10495 H 1010.57 2.30676 1.10554 0
M  V30 10496 H 1010.22 4.45501 2.43909 0
M  V30 10497 H 1010.15 3.49554 3.93853 0
M  V30 10498 H 1012.64 2.79597 2.54232 0
M  V30 10499 H 1012.95 6.11964 4.71932 0
M  V30 10500 H 1011.29 5.49931 4.24972 0
M  V30 10501 H 1014.49 3.51946 3.08629 0
M  V30 10502 H 1014.66 5.03493 4.0792 0
M  V30 10503 N 1008.06 -1.15214 1.07534 0
M  V30 10504 C 1009.29 -1.90463 0.820883 0
M  V30 10505 C 1009.71 -1.77578 -0.620305 0
M  V30 10506 O 1009.07 -1.10976 -1.43366 0
M  V30 10507 C 1009.12 -3.38746 1.23627 0
M  V30 10508 O 1008.22 -4.1062 0.382715 0
M  V30 10509 H 1007.57 -0.59292 0.298901 0
M  V30 10510 H 1010.1 -1.45893 1.43445 0
M  V30 10511 H 1010.11 -3.89543 1.21327 0
M  V30 10512 H 1008.78 -3.47443 2.28596 0
M  V30 10513 H 1007.36 -3.69947 0.468374 0
M  V30 10514 N 1009.54 -0.859717 -1.32086 0
M  V30 10515 C 1010.51 -0.313005 -2.27053 0
M  V30 10516 C 1011.51 0.530191 -1.51808 0
M  V30 10517 O 1012.7 0.340972 -1.7083 0
M  V30 10518 C 1009.83 0.5566 -3.36325 0
M  V30 10519 H 1011.02 -1.15125 -2.76923 0
M  V30 10520 H 1008.57 -0.634463 -1.42843 0
M  V30 10521 H 1009.31 1.41645 -2.91731 0
M  V30 10522 H 1009.09 -0.0470197 -3.92072 0
M  V30 10523 H 1010.58 0.931725 -4.07073 0
M  V30 10524 N 1011.02 1.44971 -0.618145 0
M  V30 10525 C 1011.97 2.30606 0.09449 0
M  V30 10526 C 1012.94 1.42725 0.849633 0
M  V30 10527 O 1014.12 1.71643 0.833266 0
M  V30 10528 C 1011.26 3.27803 1.07886 0
M  V30 10529 C 1010.38 4.30787 0.323488 0
M  V30 10530 C 1009.51 5.15085 1.29851 0
M  V30 10531 C 1008.55 6.09788 0.531561 0
M  V30 10532 N 1007.69 6.86829 1.4564 0
M  V30 10533 H 1012.53 2.91008 -0.641738 0
M  V30 10534 H 1010.06 1.43391 -0.328259 0
M  V30 10535 H 1012.02 3.82631 1.66281 0
M  V30 10536 H 1010.65 2.69131 1.78237 0
M  V30 10537 H 1009.7 3.78536 -0.376164 0
M  V30 10538 H 1011.02 4.98044 -0.274443 0
M  V30 10539 H 1010.17 5.74365 1.95421 0
M  V30 10540 H 1008.91 4.4787 1.93037 0
M  V30 10541 H 1007.91 5.49628 -0.137702 0
M  V30 10542 H 1009.14 6.79033 -0.0953993 0
M  V30 10543 H 1007.08 6.22295 2.07571 0
M  V30 10544 H 1007 7.50477 0.912167 0
M  V30 10545 H 1008.27 7.50642 2.10134 0
M  V30 10546 N 1012.5 0.357919 1.53482 0
M  V30 10547 C 1013.75 -0.2337 2.00744 0
M  V30 10548 C 1014.07 -1.49908 1.2471 0
M  V30 10549 O 1013.34 -1.92597 0.358235 0
M  V30 10550 H 1011.92 -0.0893474 0.741637 0
M  V30 10551 H 1014.58 0.482388 1.88836 0
M  V30 10552 H 1013.68 -0.466073 3.086 0
M  V30 10553 N 1013.98 -1.5736 0.0868897 0
M  V30 10554 C 1015.22 -1.94054 -0.578741 0
M  V30 10555 C 1015.55 -0.968047 -1.68698 0
M  V30 10556 O 1014.81 0.0137824 -1.95695 0
M  V30 10557 C 1015.11 -3.37316 -1.18123 0
M  V30 10558 C 1014.77 -4.50467 -0.197607 0
M  V30 10559 C 1013.43 -4.81145 0.072952 0
M  V30 10560 C 1015.79 -5.19036 0.474473 0
M  V30 10561 C 1013.11 -5.77723 1.02242 0
M  V30 10562 C 1015.47 -6.16632 1.41236 0
M  V30 10563 C 1014.13 -6.45719 1.69124 0
M  V30 10564 H 1013.4 -0.710093 -0.211776 0
M  V30 10565 H 1016.05 -1.90822 0.160978 0
M  V30 10566 H 1014.35 -3.37085 -1.99701 0
M  V30 10567 H 1016.05 -3.63003 -1.7038 0
M  V30 10568 H 1012.64 -4.2655 -0.418669 0
M  V30 10569 H 1016.82 -4.95518 0.278581 0
M  V30 10570 H 1012.08 -5.98578 1.24557 0
M  V30 10571 H 1016.25 -6.68862 1.939 0
M  V30 10572 H 1013.88 -7.20365 2.42855 0
M  V30 10573 N 1015.45 0.186762 -1.56489 0
M  V30 10574 C 1016.7 0.904063 -1.80752 0
M  V30 10575 C 1017.02 1.83443 -0.661343 0
M  V30 10576 O 1016.29 1.93272 0.319811 0
M  V30 10577 H 1014.87 0.336828 -0.66675 0
M  V30 10578 H 1017.54 0.190275 -1.93969 0
M  V30 10579 H 1016.63 1.49021 -2.74225 0
M  V30 10580 N 1016.93 1.50896 0.454776 0
M  V30 10581 C 1017.9 1.70377 1.53312 0
M  V30 10582 C 1018.9 0.57408 1.50203 0
M  V30 10583 O 1020.09 0.841374 1.52534 0
M  V30 10584 C 1017.22 1.74411 2.92905 0
M  V30 10585 H 1018.41 2.66599 1.37349 0
M  V30 10586 H 1015.96 1.40622 0.68228 0
M  V30 10587 H 1016.7 0.799408 3.14293 0
M  V30 10588 H 1016.48 2.56496 2.96568 0
M  V30 10589 H 1017.97 1.91382 3.71164 0
M  V30 10590 N 1018.41 -0.709066 1.40748 0
M  V30 10591 C 1019.83 -1.01797 1.22921 0
M  V30 10592 C 1020.03 -2.01205 0.109011 0
M  V30 10593 O 1019.08 -2.46854 -0.530987 0
M  V30 10594 C 1020.4 -1.55546 2.57344 0
M  V30 10595 C 1021.94 -1.67498 2.64412 0
M  V30 10596 C 1022.42 -2.24652 3.99119 0
M  V30 10597 N 1023.91 -2.3203 4.00895 0
M  V30 10598 C 1024.64 -2.7725 5.01917 0
M  V30 10599 N 1024.14 -3.22174 6.13332 0
M  V30 10600 N 1025.93 -2.76692 4.89283 0
M  V30 10601 H 1018.08 -0.0502704 2.12341 0
M  V30 10602 H 1020.35 -0.0848933 0.944191 0
M  V30 10603 H 1020.05 -0.899631 3.39999 0
M  V30 10604 H 1019.93 -2.53971 2.78888 0
M  V30 10605 H 1022.31 -2.32196 1.82123 0
M  V30 10606 H 1022.4 -0.676553 2.46691 0
M  V30 10607 H 1022.04 -1.60573 4.81849 0
M  V30 10608 H 1021.97 -3.25221 4.14173 0
M  V30 10609 H 1024.46 -2.00309 3.20444 0
M  V30 10610 H 1024.77 -3.55265 6.86299 0
M  V30 10611 H 1023.12 -3.20116 6.16888 0
M  V30 10612 H 1026.31 -2.40936 4.01332 0
M  V30 10613 H 1026.48 -3.11617 5.68154 0
M  V30 10614 N 1019.89 -1.26353 -0.941956 0
M  V30 10615 C 1021.14 -1.1163 -1.68473 0
M  V30 10616 C 1021.46 0.34108 -1.91994 0
M  V30 10617 O 1020.73 1.24065 -1.51607 0
M  V30 10618 H 1019.31 -0.410113 -0.624353 0
M  V30 10619 H 1021.97 -1.58669 -1.13182 0
M  V30 10620 H 1021.07 -1.63445 -2.6588 0
M  V30 10621 N 1021.37 1.14642 -1.08144 0
M  V30 10622 C 1022.78 1.6719 -0.830923 0
M  V30 10623 C 1023.13 1.85373 0.642749 0
M  V30 10624 O 1022.25 1.56293 1.49671 0
M  V30 10625 C 1022.85 3.03697 -1.50179 0
M  V30 10626 C 1021.41 3.5329 -1.29858 0
M  V30 10627 C 1020.56 2.28828 -1.5663 0
M  V30 10628 H 1023.51 0.987441 -1.24239 0
M  V30 10629 H 1023.53 3.69023 -0.9275 0
M  V30 10630 H 1023.04 2.90431 -2.57432 0
M  V30 10631 H 1021.14 3.71783 -0.246626 0
M  V30 10632 H 1021.25 4.34231 -2.02436 0
M  V30 10633 H 1019.62 2.34769 -0.987716 0
M  V30 10634 H 1020.4 2.18141 -2.65084 0
M  V30 10635 N 1022.85 0.866709 1.31628 0
M  V30 10636 C 1024.12 0.396828 1.91532 0
M  V30 10637 C 1024.5 -1.12081 1.78889 0
M  V30 10638 O 1023.85 -1.94791 1.19452 0
M  V30 10639 C 1024.06 0.874578 3.37864 0
M  V30 10640 C 1025.41 0.8988 4.14978 0
M  V30 10641 O 1026.43 0.820014 3.46633 0
M  V30 10642 O 1025.29 1.01223 5.37044 0
M  V30 10643 H 1022.39 0.1181 0.818524 0
M  V30 10644 H 1024.93 0.954407 1.40318 0
M  V30 10645 H 1023.7 1.91807 3.41066 0
M  V30 10646 H 1023.33 0.295126 3.96503 0
M  V30 10647 N 1024.32 -1.44642 0.625825 0
M  V30 10648 C 1025.57 -2.02393 0.128391 0
M  V30 10649 C 1025.9 -1.49075 -1.2446 0
M  V30 10650 O 1025.18 -0.672684 -1.82497 0
M  V30 10651 C 1025.46 -3.59934 0.109279 0
M  V30 10652 C 1025.31 -4.23546 1.51423 0
M  V30 10653 C 1026.63 -4.36406 -0.568985 0
M  V30 10654 H 1023.75 -0.735427 0.0481299 0
M  V30 10655 H 1026.39 -1.72277 0.801286 0
M  V30 10656 H 1024.54 -3.85722 -0.463726 0
M  V30 10657 H 1026.22 -4.08882 2.13572 0
M  V30 10658 H 1024.46 -3.81245 2.06966 0
M  V30 10659 H 1025.13 -5.32535 1.45294 0
M  V30 10660 H 1027.61 -4.1602 -0.0817516 0
M  V30 10661 H 1026.48 -5.46122 -0.551527 0
M  V30 10662 H 1026.74 -4.1062 -1.6384 0
M  V30 10663 N 1025.8 -0.366053 -1.5329 0
M  V30 10664 C 1026.73 0.47211 -2.28677 0
M  V30 10665 C 1027.71 1.08353 -1.31125 0
M  V30 10666 O 1028.9 1.10069 -1.59995 0
M  V30 10667 C 1026.03 1.61174 -3.07637 0
M  V30 10668 C 1024.98 1.12755 -4.12881 0
M  V30 10669 C 1024.31 2.35745 -4.79925 0
M  V30 10670 C 1025.61 0.211954 -5.2187 0
M  V30 10671 H 1027.3 -0.156838 -2.98989 0
M  V30 10672 H 1024.85 -0.0768709 -1.43795 0
M  V30 10673 H 1026.8 2.20473 -3.59123 0
M  V30 10674 H 1025.52 2.26793 -2.35016 0
M  V30 10675 H 1024.18 0.557234 -3.6234 0
M  V30 10676 H 1023.83 2.99821 -4.03877 0
M  V30 10677 H 1023.53 2.04019 -5.51044 0
M  V30 10678 H 1025.06 2.95729 -5.34207 0
M  V30 10679 H 1026.47 0.71244 -5.68856 0
M  V30 10680 H 1024.87 -0.0144501 -6.00098 0
M  V30 10681 H 1025.94 -0.745753 -4.79131 0
M  V30 10682 N 1027.28 1.57312 -0.0952337 0
M  V30 10683 C 1028.5 1.99119 0.580206 0
M  V30 10684 C 1028.93 0.973955 1.60922 0
M  V30 10685 O 1028.29 -0.0575338 1.81209 0
M  V30 10686 C 1028.34 3.39893 1.20438 0
M  V30 10687 O 1027.44 3.40941 2.32019 0
M  V30 10688 H 1026.78 0.64748 0.147195 0
M  V30 10689 H 1029.31 2.03836 -0.176686 0
M  V30 10690 H 1029.32 3.7759 1.54564 0
M  V30 10691 H 1028 4.13453 0.450514 0
M  V30 10692 H 1026.57 3.1504 1.9951 0
M  V30 10693 N 1028.76 -0.17846 1.56586 0
M  V30 10694 C 1030.17 -0.741599 1.71339 0
M  V30 10695 C 1030.52 -1.83112 0.704579 0
M  V30 10696 O 1029.64 -2.15975 -0.135557 0
M  V30 10697 C 1030.24 -1.35198 3.10656 0
M  V30 10698 C 1028.8 -1.86202 3.27118 0
M  V30 10699 C 1027.95 -0.738255 2.67292 0
M  V30 10700 H 1030.9 0.0468424 1.58631 0
M  V30 10701 H 1030.92 -2.2216 3.0891 0
M  V30 10702 H 1030.43 -0.558776 3.84056 0
M  V30 10703 H 1028.53 -2.68188 2.58661 0
M  V30 10704 H 1028.64 -2.01237 4.34788 0
M  V30 10705 H 1027.01 -1.15686 2.26912 0
M  V30 10706 H 1027.79 0.0429821 3.43273 0
M  V30 10707 N 1030.24 -1.51135 -0.446768 0
M  V30 10708 C 1031.2 -1.71187 -1.52406 0
M  V30 10709 C 1032.2 -0.582037 -1.49897 0
M  V30 10710 O 1033.39 -0.849452 -1.52085 0
M  V30 10711 C 1030.52 -1.75962 -2.91976 0
M  V30 10712 H 1031.71 -2.67324 -1.35934 0
M  V30 10713 H 1029.27 -1.40982 -0.674813 0
M  V30 10714 H 1030 -0.816065 -3.13864 0
M  V30 10715 H 1029.79 -2.58065 -2.95203 0
M  V30 10716 H 1031.28 -1.93347 -3.70144 0
M  V30 10717 N 1031.71 0.701592 -1.41122 0
M  V30 10718 C 1032.65 1.8257 -1.36907 0
M  V30 10719 C 1033.62 1.6086 -0.237245 0
M  V30 10720 O 1034.81 1.83688 -0.423182 0
M  V30 10721 C 1031.94 3.19149 -1.13408 0
M  V30 10722 C 1030.98 3.59661 -2.29229 0
M  V30 10723 S 1031.81 3.65161 -3.91685 0
M  V30 10724 C 1032.97 5.04477 -3.70478 0
M  V30 10725 H 1033.2 1.85867 -2.32036 0
M  V30 10726 H 1030.74 0.869726 -1.27574 0
M  V30 10727 H 1032.69 3.97998 -1.00537 0
M  V30 10728 H 1031.36 3.13468 -0.199099 0
M  V30 10729 H 1030.55 4.58866 -2.08466 0
M  V30 10730 H 1030.15 2.88105 -2.38477 0
M  V30 10731 H 1032.44 5.91803 -3.29811 0
M  V30 10732 H 1033.39 5.3028 -4.69264 0
M  V30 10733 H 1033.79 4.75731 -3.03876 0
M  V30 10734 N 1033.19 1.2685 0.935242 0
M  V30 10735 C 1034.44 1.12912 1.6846 0
M  V30 10736 C 1034.77 -0.325708 1.91449 0
M  V30 10737 O 1034.05 -1.23884 1.49944 0
M  V30 10738 C 1034.33 1.90513 3.05576 0
M  V30 10739 C 1034.18 3.43936 2.89876 0
M  V30 10740 C 1035.5 1.70363 4.05789 0
M  V30 10741 H 1032.62 0.411559 0.611382 0
M  V30 10742 H 1035.26 1.55917 1.08582 0
M  V30 10743 H 1033.41 1.53963 3.5669 0
M  V30 10744 H 1035.08 3.90272 2.45939 0
M  V30 10745 H 1033.33 3.70659 2.25376 0
M  V30 10746 H 1034 3.93467 3.87153 0
M  V30 10747 H 1036.47 2.02217 3.63659 0
M  V30 10748 H 1035.35 2.27066 4.99732 0
M  V30 10749 H 1035.61 0.649674 4.373 0
M  V30 10750 N 1034.67 -1.14067 1.0875 0
M  V30 10751 C 1035.63 -2.17453 0.724341 0
M  V30 10752 C 1036.63 -1.58959 -0.242614 0
M  V30 10753 O 1037.82 -1.74186 -0.0217008 0
M  V30 10754 C 1034.96 -3.40828 0.0700236 0
M  V30 10755 H 1036.15 -2.51094 1.63987 0
M  V30 10756 H 1033.7 -1.28775 0.885813 0
M  V30 10757 H 1034.44 -3.1277 -0.857061 0
M  V30 10758 H 1034.22 -3.84551 0.76569 0
M  V30 10759 H 1035.71 -4.17258 -0.168905 0
M  V30 10760 N 1036.15 -0.873678 -1.31166 0
M  V30 10761 C 1037.08 -0.348011 -2.30892 0
M  V30 10762 C 1038.06 0.563092 -1.60509 0
M  V30 10763 O 1039.24 0.479332 -1.88192 0
M  V30 10764 C 1036.37 0.448158 -3.44396 0
M  V30 10765 C 1035.33 -0.370179 -4.26396 0
M  V30 10766 C 1034.65 0.551903 -5.31844 0
M  V30 10767 C 1035.95 -1.60624 -4.96988 0
M  V30 10768 H 1037.65 -1.18134 -2.75109 0
M  V30 10769 H 1035.19 -0.569502 -1.3226 0
M  V30 10770 H 1037.15 0.826458 -4.13216 0
M  V30 10771 H 1035.87 1.31503 -2.98956 0
M  V30 10772 H 1034.53 -0.730472 -3.59249 0
M  V30 10773 H 1034.18 1.41616 -4.82653 0
M  V30 10774 H 1033.88 0.00823478 -5.87599 0
M  V30 10775 H 1035.4 0.926965 -6.03523 0
M  V30 10776 H 1036.82 -1.29917 -5.58386 0
M  V30 10777 H 1035.21 -2.08926 -5.62557 0
M  V30 10778 H 1036.28 -2.357 -4.23761 0
M  V30 10779 N 1037.63 1.44308 -0.633487 0
M  V30 10780 C 1038.85 2.06897 -0.144347 0
M  V30 10781 C 1039.28 1.47045 1.173 0
M  V30 10782 O 1038.63 0.572806 1.72013 0
M  V30 10783 C 1038.68 3.60571 -0.0456324 0
M  V30 10784 O 1037.79 4.0015 0.997682 0
M  V30 10785 H 1037.13 0.658427 -0.0858499 0
M  V30 10786 H 1039.66 1.85142 -0.870833 0
M  V30 10787 H 1039.67 4.07745 0.144178 0
M  V30 10788 H 1038.34 4.03515 -1.0074 0
M  V30 10789 H 1036.92 3.64603 0.782252 0
M  V30 10790 N 1039.1 0.374177 1.53094 0
M  V30 10791 C 1040.05 -0.48326 2.27524 0
M  V30 10792 C 1041.05 -1.07606 1.30833 0
M  V30 10793 O 1042.25 -1.01827 1.48429 0
M  V30 10794 H 1038.63 -0.174578 0.731455 0
M  V30 10795 H 1040.6 0.166156 2.97937 0
M  V30 10796 C 1039.35 -1.6065 3.08362 0
M  V30 10797 H 1038.67 -1.15966 3.82612 0
M  V30 10798 H 1040.11 -2.18099 3.63606 0
M  V30 10799 C 1038.57 -2.55381 2.19732 0
M  V30 10800 O 1039.1 -3.58414 1.8139 0
M  V30 10801 N 1037.31 -2.24769 1.84194 0
M  V30 10802 H 1036.85 -1.41018 2.15573 0
M  V30 10803 H 1036.81 -2.88404 1.25181 0
M  V30 10804 N 1040.58 -1.57259 0.103575 0
M  V30 10805 C 1041.53 -2.14487 -0.852295 0
M  V30 10806 C 1042.5 -1.06567 -1.27407 0
M  V30 10807 O 1043.68 -1.34398 -1.35432 0
M  V30 10808 C 1040.82 -2.73632 -2.10284 0
M  V30 10809 C 1039.94 -3.95811 -1.73083 0
M  V30 10810 C 1039.07 -4.43093 -2.92988 0
M  V30 10811 C 1038.11 -5.5784 -2.51953 0
M  V30 10812 N 1037.25 -5.99936 -3.64721 0
M  V30 10813 H 1042.09 -2.95849 -0.35743 0
M  V30 10814 H 1039.63 -1.46175 -0.164748 0
M  V30 10815 H 1041.58 -3.06046 -2.83534 0
M  V30 10816 H 1040.21 -1.94985 -2.57256 0
M  V30 10817 H 1039.27 -3.69656 -0.897688 0
M  V30 10818 H 1040.58 -4.79066 -1.38916 0
M  V30 10819 H 1039.73 -4.77335 -3.74481 0
M  V30 10820 H 1038.47 -3.58756 -3.30372 0
M  V30 10821 H 1037.48 -5.23217 -1.6889 0
M  V30 10822 H 1038.7 -6.43932 -2.15705 0
M  V30 10823 H 1036.65 -5.18543 -4.01807 0
M  V30 10824 H 1036.56 -6.78008 -3.34427 0
M  V30 10825 H 1037.83 -6.38812 -4.46699 0
M  V30 10826 N 1042.06 0.170153 -1.56679 0
M  V30 10827 C 1042.99 1.21285 -1.9953 0
M  V30 10828 C 1043.97 1.46104 -0.871071 0
M  V30 10829 O 1045.16 1.57419 -1.13724 0
M  V30 10830 C 1042.29 2.5515 -2.35618 0
M  V30 10831 C 1041.24 2.44898 -3.51011 0
M  V30 10832 C 1040.57 3.83263 -3.72845 0
M  V30 10833 C 1041.87 1.95271 -4.84424 0
M  V30 10834 H 1043.56 0.856646 -2.86883 0
M  V30 10835 H 1041.11 0.410634 -1.38021 0
M  V30 10836 H 1043.06 3.28299 -2.64193 0
M  V30 10837 H 1041.78 2.92561 -1.45175 0
M  V30 10838 H 1040.44 1.74203 -3.22566 0
M  V30 10839 H 1040.09 4.18069 -2.79691 0
M  V30 10840 H 1039.79 3.77272 -4.50488 0
M  V30 10841 H 1041.31 4.57996 -4.03822 0
M  V30 10842 H 1042.73 2.58195 -5.11867 0
M  V30 10843 H 1041.13 2.00225 -5.65712 0
M  V30 10844 H 1042.2 0.90709 -4.7634 0
M  V30 10845 N 1043.54 1.5137 0.438746 0
M  V30 10846 C 1044.49 1.72582 1.53245 0
M  V30 10847 C 1045.46 0.567488 1.56105 0
M  V30 10848 O 1046.64 0.80176 1.73137 0
M  V30 10849 C 1043.78 1.85551 2.90972 0
M  V30 10850 C 1042.89 3.13094 2.97652 0
M  V30 10851 C 1042.03 3.16666 4.26493 0
M  V30 10852 C 1041.07 4.38529 4.27035 0
M  V30 10853 N 1040.2 4.39659 5.47398 0
M  V30 10854 H 1045.04 2.65941 1.3446 0
M  V30 10855 H 1042.58 1.31801 0.653206 0
M  V30 10856 H 1044.54 1.91053 3.70884 0
M  V30 10857 H 1043.17 0.956025 3.08318 0
M  V30 10858 H 1042.22 3.16909 2.10412 0
M  V30 10859 H 1043.53 4.03009 2.93914 0
M  V30 10860 H 1042.69 3.21075 5.14777 0
M  V30 10861 H 1041.43 2.24637 4.32885 0
M  V30 10862 H 1040.43 4.34297 3.37144 0
M  V30 10863 H 1041.66 5.31821 4.22307 0
M  V30 10864 H 1039.6 3.50499 5.54514 0
M  V30 10865 H 1039.52 5.23382 5.45534 0
M  V30 10866 H 1040.79 4.48259 6.37718 0
M  V30 10867 N 1045.02 -0.694098 1.41492 0
M  V30 10868 C 1045.95 -1.82042 1.46229 0
M  V30 10869 C 1046.93 -1.67047 0.320803 0
M  V30 10870 O 1048.11 -1.86758 0.53245 0
M  V30 10871 C 1045.24 -3.2019 1.34519 0
M  V30 10872 C 1044.2 -3.49892 2.46495 0
M  V30 10873 C 1043.52 -4.87411 2.1985 0
M  V30 10874 C 1044.82 -3.4872 3.88834 0
M  V30 10875 H 1046.52 -1.78335 2.40493 0
M  V30 10876 H 1044.06 -0.856566 1.15754 0
M  V30 10877 H 1046.02 -3.98699 1.36445 0
M  V30 10878 H 1044.74 -3.24527 0.367406 0
M  V30 10879 H 1043.4 -2.73734 2.43854 0
M  V30 10880 H 1043.05 -4.88375 1.20411 0
M  V30 10881 H 1042.75 -5.08248 2.94885 0
M  V30 10882 H 1044.27 -5.68228 2.23494 0
M  V30 10883 H 1045.68 -4.1723 3.93182 0
M  V30 10884 H 1044.08 -3.81089 4.63564 0
M  V30 10885 H 1045.15 -2.47665 4.16881 0
M  V30 10886 N 1046.49 -1.27344 -0.928501 0
M  V30 10887 C 1047.44 -1.10001 -2.029 0
M  V30 10888 C 1048.41 -0.00131084 -1.661 0
M  V30 10889 O 1049.6 -0.163485 -1.90098 0
M  V30 10890 C 1046.74 -0.7524 -3.36798 0
M  V30 10891 C 1045.85 -1.92865 -3.86558 0
M  V30 10892 C 1044.98 -1.52299 -5.08899 0
M  V30 10893 C 1044.02 -2.66677 -5.50953 0
M  V30 10894 N 1043.16 -2.26706 -6.64491 0
M  V30 10895 H 1048 -2.0417 -2.17068 0
M  V30 10896 H 1045.54 -1.01637 -1.0634 0
M  V30 10897 H 1047.5 -0.531687 -4.13798 0
M  V30 10898 H 1046.13 0.15234 -3.2244 0
M  V30 10899 H 1045.18 -2.26192 -3.05845 0
M  V30 10900 H 1046.49 -2.78668 -4.13698 0
M  V30 10901 H 1045.64 -1.26348 -5.93398 0
M  V30 10902 H 1044.38 -0.636042 -4.83535 0
M  V30 10903 H 1043.39 -2.93344 -4.65004 0
M  V30 10904 H 1044.61 -3.55992 -5.78313 0
M  V30 10905 H 1042.56 -1.40462 -6.40786 0
M  V30 10906 H 1042.48 -3.06049 -6.91281 0
M  V30 10907 H 1043.74 -2.04 -7.52333 0
M  V30 10908 N 1047.97 1.13488 -1.09353 0
M  V30 10909 C 1049.39 1.36739 -0.823086 0
M  V30 10910 C 1049.59 1.93476 0.562963 0
M  V30 10911 O 1048.64 2.15374 1.31796 0
M  V30 10912 C 1049.96 2.31943 -1.91371 0
M  V30 10913 C 1051.51 2.4556 -1.94085 0
M  V30 10914 C 1051.98 3.44072 -3.02289 0
M  V30 10915 N 1053.47 3.51622 -3.01524 0
M  V30 10916 C 1054.21 4.27724 -3.8189 0
M  V30 10917 N 1053.7 5.06987 -4.72161 0
M  V30 10918 N 1055.5 4.23018 -3.70152 0
M  V30 10919 H 1047.65 0.75012 -1.98713 0
M  V30 10920 H 1049.91 0.392564 -0.862901 0
M  V30 10921 H 1049.62 1.97408 -2.91072 0
M  V30 10922 H 1049.49 3.31952 -1.79131 0
M  V30 10923 H 1051.88 2.79382 -0.950234 0
M  V30 10924 H 1051.96 1.45479 -2.10403 0
M  V30 10925 H 1051.6 3.10981 -4.01564 0
M  V30 10926 H 1051.53 4.43956 -2.83214 0
M  V30 10927 H 1054.02 2.95066 -2.36103 0
M  V30 10928 H 1054.34 5.6236 -5.30067 0
M  V30 10929 H 1052.68 5.06222 -4.76197 0
M  V30 10930 H 1055.87 3.60171 -2.98989 0
M  V30 10931 H 1056.04 4.82075 -4.33022 0
M  V30 10932 N 1049.45 0.880621 1.30701 0
M  V30 10933 C 1050.38 0.301443 2.27209 0
M  V30 10934 C 1051.4 -0.541533 1.53529 0
M  V30 10935 O 1052.59 -0.361791 1.74795 0
M  V30 10936 C 1049.69 -0.59038 3.33718 0
M  V30 10937 C 1048.86 0.222549 4.36833 0
M  V30 10938 C 1047.92 -0.599083 5.22779 0
M  V30 10939 O 1046.94 -0.0233267 5.69195 0
M  V30 10940 N 1048.15 -1.90904 5.48211 0
M  V30 10941 H 1050.91 1.13083 2.77547 0
M  V30 10942 H 1048.47 0.743168 1.43835 0
M  V30 10943 H 1050.46 -1.14599 3.88135 0
M  V30 10944 H 1049.03 -1.32044 2.83343 0
M  V30 10945 H 1048.25 0.959606 3.82342 0
M  V30 10946 H 1049.54 0.779965 5.02786 0
M  V30 10947 H 1048.94 -2.3998 5.12275 0
M  V30 10948 H 1047.5 -2.4122 6.05521 0
M  V30 10949 N 1050.93 -1.4397 0.641131 0
M  V30 10950 C 1051.86 -2.33458 -0.04446 0
M  V30 10951 C 1052.84 -1.48781 -0.824507 0
M  V30 10952 O 1054.03 -1.77477 -0.788397 0
M  V30 10953 C 1051.16 -3.31989 -1.01984 0
M  V30 10954 C 1050.11 -4.2656 -0.350745 0
M  V30 10955 C 1049.44 -5.15036 -1.43673 0
M  V30 10956 C 1050.74 -5.16897 0.749299 0
M  V30 10957 H 1052.43 -2.91034 0.702832 0
M  V30 10958 H 1049.98 -1.39942 0.339435 0
M  V30 10959 H 1051.93 -3.93483 -1.50828 0
M  V30 10960 H 1050.65 -2.72643 -1.79815 0
M  V30 10961 H 1049.31 -3.66413 0.117139 0
M  V30 10962 H 1048.96 -4.52037 -2.20617 0
M  V30 10963 H 1048.66 -5.79125 -0.994358 0
M  V30 10964 H 1050.18 -5.79403 -1.92678 0
M  V30 10965 H 1051.6 -5.7227 0.343534 0
M  V30 10966 H 1049.99 -5.89643 1.11541 0
M  V30 10967 H 1051.06 -4.5731 1.61232 0
M  V30 10968 N 1052.41 -0.382291 -1.52893 0
M  V30 10969 C 1053.32 0.463745 -2.29971 0
M  V30 10970 C 1054.33 1.07777 -1.36602 0
M  V30 10971 O 1055.51 1.0851 -1.69669 0
M  V30 10972 C 1052.57 1.57938 -3.08637 0
M  V30 10973 C 1051.64 0.991182 -4.17701 0
M  V30 10974 C 1050.87 2.05365 -4.92606 0
M  V30 10975 O 1051.09 3.26757 -4.67532 0
M  V30 10976 O 1050.03 1.67487 -5.78128 0
M  V30 10977 H 1053.85 -0.163962 -3.03257 0
M  V30 10978 H 1051.44 -0.146199 -1.48683 0
M  V30 10979 H 1053.32 2.22765 -3.57706 0
M  V30 10980 H 1051.99 2.19218 -2.3817 0
M  V30 10981 H 1050.9 0.306364 -3.72843 0
M  V30 10982 H 1052.23 0.422699 -4.90382 0
M  V30 10983 N 1053.89 1.57202 -0.111913 0
M  V30 10984 C 1055.12 1.99008 0.554907 0
M  V30 10985 C 1055.52 0.990323 1.61212 0
M  V30 10986 O 1054.87 -0.0259612 1.83682 0
M  V30 10987 C 1054.93 3.37218 1.24598 0
M  V30 10988 C 1054.59 4.55752 0.337549 0
M  V30 10989 C 1055.59 5.18192 -0.421026 0
M  V30 10990 C 1053.27 5.01674 0.25069 0
M  V30 10991 C 1055.27 6.24938 -1.25426 0
M  V30 10992 C 1052.96 6.08282 -0.586186 0
M  V30 10993 C 1053.95 6.6978 -1.3373 0
M  V30 10994 O 1053.64 7.7433 -2.16029 0
M  V30 10995 H 1053.37 0.658669 0.152091 0
M  V30 10996 H 1055.93 2.04492 -0.192937 0
M  V30 10997 H 1054.16 3.28467 2.04074 0
M  V30 10998 H 1055.85 3.63359 1.809 0
M  V30 10999 H 1056.61 4.83634 -0.363752 0
M  V30 11000 H 1052.49 4.53558 0.825005 0
M  V30 11001 H 1056.04 6.72869 -1.84102 0
M  V30 11002 H 1051.93 6.42271 -0.64488 0
M  V30 11003 H 1052.7 7.91395 -2.08894 0
M  V30 11004 N 1055.36 -0.161842 1.56767 0
M  V30 11005 C 1056.27 -1.21996 2.00385 0
M  V30 11006 C 1057.29 -1.4789 0.916768 0
M  V30 11007 O 1058.47 -1.59852 1.22513 0
M  V30 11008 C 1055.53 -2.53695 2.36305 0
M  V30 11009 C 1054.59 -2.3558 3.58888 0
M  V30 11010 C 1053.82 -3.60998 3.93085 0
M  V30 11011 O 1054.05 -4.6657 3.28129 0
M  V30 11012 O 1052.98 -3.54544 4.86397 0
M  V30 11013 H 1056.81 -0.879701 2.9068 0
M  V30 11014 H 1054.39 -0.369437 1.4476 0
M  V30 11015 H 1056.27 -3.31366 2.60335 0
M  V30 11016 H 1054.95 -2.87281 1.49169 0
M  V30 11017 H 1053.86 -1.55908 3.40064 0
M  V30 11018 H 1055.19 -2.06915 4.46595 0
M  V30 11019 N 1056.84 -1.516 -0.430713 0
M  V30 11020 C 1057.75 -1.76247 -1.54836 0
M  V30 11021 C 1058.77 -0.646985 -1.61524 0
M  V30 11022 O 1059.94 -0.929987 -1.78643 0
M  V30 11023 C 1057.01 -1.88833 -2.90763 0
M  V30 11024 C 1056.07 -3.12701 -2.94137 0
M  V30 11025 C 1055.3 -3.24676 -4.23581 0
M  V30 11026 O 1055.53 -2.42429 -5.16318 0
M  V30 11027 O 1054.46 -4.17697 -4.33374 0
M  V30 11028 H 1058.29 -2.71069 -1.3695 0
M  V30 11029 H 1055.87 -1.36182 -0.614396 0
M  V30 11030 H 1057.75 -1.99057 -3.71422 0
M  V30 11031 H 1056.43 -0.971987 -3.08762 0
M  V30 11032 H 1055.33 -3.0795 -2.1241 0
M  V30 11033 H 1056.67 -4.04045 -2.81084 0
M  V30 11034 N 1058.32 0.686584 -1.41858 0
M  V30 11035 C 1059.25 1.81202 -1.40352 0
M  V30 11036 C 1060.26 1.5993 -0.304322 0
M  V30 11037 O 1061.45 1.69267 -0.566643 0
M  V30 11038 C 1058.55 3.18116 -1.16856 0
M  V30 11039 C 1057.73 3.66339 -2.38987 0
M  V30 11040 C 1056.79 4.8195 -2.11212 0
M  V30 11041 O 1055.81 4.93102 -2.84323 0
M  V30 11042 N 1057.01 5.69829 -1.10793 0
M  V30 11043 H 1059.78 1.82983 -2.37355 0
M  V30 11044 H 1057.34 0.869244 -1.36586 0
M  V30 11045 H 1059.33 3.93097 -0.962125 0
M  V30 11046 H 1057.9 3.11306 -0.284186 0
M  V30 11047 H 1057.12 2.82166 -2.75274 0
M  V30 11048 H 1058.41 3.95297 -3.2034 0
M  V30 11049 H 1057.81 5.63459 -0.503012 0
M  V30 11050 H 1056.36 6.44671 -0.961379 0
M  V30 11051 N 1059.8 1.27835 0.921735 0
M  V30 11052 C 1060.76 1.11108 2.00469 0
M  V30 11053 C 1061.76 0.053203 1.60712 0
M  V30 11054 O 1062.95 0.298308 1.71627 0
M  V30 11055 C 1060.08 0.694269 3.33755 0
M  V30 11056 H 1061.28 2.07279 2.16738 0
M  V30 11057 H 1058.83 1.10708 1.10333 0
M  V30 11058 H 1059.56 -0.268561 3.23186 0
M  V30 11059 H 1059.35 1.45836 3.6397 0
M  V30 11060 H 1060.84 0.59965 4.13272 0
M  V30 11061 N 1061.28 -1.12907 1.09954 0
M  V30 11062 C 1062.52 -1.84306 0.838912 0
M  V30 11063 C 1062.85 -1.83825 -0.635508 0
M  V30 11064 O 1062.11 -1.27556 -1.48418 0
M  V30 11065 C 1062.4 -3.31885 1.32616 0
M  V30 11066 C 1062.07 -3.52542 2.81114 0
M  V30 11067 C 1060.73 -3.57888 3.21667 0
M  V30 11068 C 1063.08 -3.60065 3.76833 0
M  V30 11069 C 1060.41 -3.68296 4.567 0
M  V30 11070 C 1062.76 -3.72001 5.11662 0
M  V30 11071 C 1061.43 -3.75602 5.51797 0
M  V30 11072 H 1060.7 -0.674422 0.30698 0
M  V30 11073 H 1063.35 -1.33261 1.37527 0
M  V30 11074 H 1061.65 -3.85318 0.709719 0
M  V30 11075 H 1063.35 -3.85588 1.10105 0
M  V30 11076 H 1059.94 -3.4904 2.48735 0
M  V30 11077 H 1064.12 -3.55209 3.46612 0
M  V30 11078 H 1059.38 -3.69352 4.87226 0
M  V30 11079 H 1063.55 -3.76765 5.8568 0
M  V30 11080 H 1061.18 -3.83419 6.56425 0
M  V30 11081 N 1062.75 -0.88754 -1.30232 0
M  V30 11082 C 1063.69 -0.313488 -2.27046 0
M  V30 11083 C 1064.7 0.533383 -1.53814 0
M  V30 11084 O 1065.89 0.352516 -1.74984 0
M  V30 11085 C 1062.99 0.572674 -3.34026 0
M  V30 11086 C 1062.16 -0.245712 -4.36709 0
M  V30 11087 C 1061.22 0.57135 -5.23089 0
M  V30 11088 O 1060.25 -0.00685948 -5.692 0
M  V30 11089 N 1061.45 1.87994 -5.49216 0
M  V30 11090 H 1064.21 -1.14553 -2.76943 0
M  V30 11091 H 1061.77 -0.750785 -1.43439 0
M  V30 11092 H 1063.77 1.12539 -3.88738 0
M  V30 11093 H 1062.34 1.3054 -2.84039 0
M  V30 11094 H 1061.56 -0.979869 -3.81827 0
M  V30 11095 H 1062.84 -0.806618 -5.02366 0
M  V30 11096 H 1062.24 2.3726 -5.13541 0
M  V30 11097 H 1060.8 2.38005 -6.06792 0
M  V30 11098 N 1064.23 1.43628 -0.648757 0
M  V30 11099 C 1065.51 1.95391 -0.0904551 0
M  V30 11100 C 1065.89 1.59021 1.38837 0
M  V30 11101 O 1065.24 0.873078 2.11163 0
M  V30 11102 C 1065.45 3.47418 -0.33196 0
M  V30 11103 C 1066.8 4.23952 -0.234521 0
M  V30 11104 O 1067.82 3.55218 -0.264276 0
M  V30 11105 O 1066.68 5.46282 -0.154428 0
M  V30 11106 H 1063.77 0.82691 0.0121884 0
M  V30 11107 H 1066.32 1.5359 -0.721685 0
M  V30 11108 H 1065.09 3.67001 -1.35741 0
M  V30 11109 H 1064.71 3.96207 0.332556 0
M  V30 11110 N 1065.71 0.390394 1.52688 0
M  V30 11111 C 1066.64 -0.43567 2.294 0
M  V30 11112 C 1067.62 -1.06253 1.32832 0
M  V30 11113 O 1068.81 -1.07509 1.61726 0
M  V30 11114 C 1065.94 -1.56259 3.10162 0
M  V30 11115 C 1064.89 -1.06172 4.14622 0
M  V30 11116 C 1064.22 -2.2808 4.83615 0
M  V30 11117 C 1065.52 -0.128902 5.22141 0
M  V30 11118 H 1067.21 0.204384 2.98702 0
M  V30 11119 H 1064.76 0.0997377 1.43654 0
M  V30 11120 H 1066.71 -2.14732 3.62585 0
M  V30 11121 H 1065.43 -2.23025 2.38595 0
M  V30 11122 H 1064.09 -0.499518 3.63181 0
M  V30 11123 H 1063.74 -2.93358 4.08595 0
M  V30 11124 H 1063.44 -1.95227 5.5422 0
M  V30 11125 H 1064.96 -2.87193 5.38844 0
M  V30 11126 H 1066.38 -0.621849 5.69917 0
M  V30 11127 H 1064.78 0.109919 5.99999 0
M  V30 11128 H 1065.85 0.821884 4.77884 0
M  V30 11129 N 1067.19 -1.57141 0.120249 0
M  V30 11130 C 1068.41 -2.00017 -0.548454 0
M  V30 11131 C 1068.84 -0.999433 -1.59352 0
M  V30 11132 O 1068.2 0.0286978 -1.81277 0
M  V30 11133 C 1068.24 -3.41766 -1.15015 0
M  V30 11134 O 1067.35 -3.44589 -2.26566 0
M  V30 11135 H 1066.69 -0.649739 -0.136875 0
M  V30 11136 H 1069.22 -2.03529 0.209092 0
M  V30 11137 H 1069.23 -3.80001 -1.48537 0
M  V30 11138 H 1067.9 -4.14117 -0.384681 0
M  V30 11139 H 1066.48 -3.18174 -1.94473 0
M  V30 11140 N 1068.67 0.153526 -1.5685 0
M  V30 11141 C 1069.91 0.865519 -1.82629 0
M  V30 11142 C 1070.24 1.81999 -0.700105 0
M  V30 11143 O 1069.51 1.93907 0.278744 0
M  V30 11144 H 1068.09 0.32261 -0.673745 0
M  V30 11145 H 1070.75 0.149088 -1.94329 0
M  V30 11146 H 1069.84 1.43171 -2.77324 0
M  V30 11147 N 1070.14 1.51827 0.422667 0
M  V30 11148 C 1071.39 1.64893 1.16853 0
M  V30 11149 C 1071.71 0.37456 1.91369 0
M  V30 11150 O 1070.98 -0.610128 1.86157 0
M  V30 11151 H 1069.56 0.607744 0.434345 0
M  V30 11152 H 1072.23 1.88816 0.483159 0
M  V30 11153 H 1071.32 2.48361 1.89006 0
M  V30 11154 N 1071.62 -0.679052 1.4222 0
M  V30 11155 C 1072.9 -1.43473 1.32947 0
M  V30 11156 C 1073.28 -2.11071 -0.0351689 0
M  V30 11157 O 1072.63 -2.02925 -1.05042 0
M  V30 11158 C 1072.84 -2.44065 2.49466 0
M  V30 11159 C 1074.19 -3.08834 2.91387 0
M  V30 11160 O 1075.21 -2.54392 2.49325 0
M  V30 11161 O 1074.07 -4.07478 3.64175 0
M  V30 11162 H 1071.16 -0.639743 0.524078 0
M  V30 11163 H 1073.71 -0.708134 1.54219 0
M  V30 11164 H 1072.48 -1.92884 3.40457 0
M  V30 11165 H 1072.1 -3.24212 2.30158 0
M  V30 11166 N 1073.1 -1.28322 -0.914942 0
M  V30 11167 C 1074.51 -1.13937 -1.47903 0
M  V30 11168 C 1074.86 0.271072 -1.94318 0
M  V30 11169 O 1073.99 1.16522 -1.8235 0
M  V30 11170 C 1074.58 -2.06221 -2.68809 0
M  V30 11171 C 1073.14 -1.95903 -3.21402 0
M  V30 11172 C 1072.29 -1.98031 -1.94111 0
M  V30 11173 H 1075.24 -1.41029 -0.727772 0
M  V30 11174 H 1075.26 -1.6255 -3.44031 0
M  V30 11175 H 1074.77 -3.08866 -2.34997 0
M  V30 11176 H 1072.87 -0.962907 -3.59943 0
M  V30 11177 H 1072.99 -2.82799 -3.86732 0
M  V30 11178 H 1071.35 -1.42423 -2.11158 0
M  V30 11179 H 1072.13 -3.02354 -1.62595 0
M  V30 11180 N 1074.58 1.12322 -1.10551 0
M  V30 11181 C 1075.99 1.6539 -0.8662 0
M  V30 11182 C 1076.34 1.86695 0.603284 0
M  V30 11183 O 1075.47 1.59432 1.46323 0
M  V30 11184 C 1076.06 3.00443 -1.56587 0
M  V30 11185 C 1074.62 3.50456 -1.37323 0
M  V30 11186 C 1073.77 2.25454 -1.61449 0
M  V30 11187 H 1076.72 0.960866 -1.26305 0
M  V30 11188 H 1076.74 3.66972 -1.00557 0
M  V30 11189 H 1076.25 2.84905 -2.63535 0
M  V30 11190 H 1074.35 3.71176 -0.325431 0
M  V30 11191 H 1074.46 4.29839 -2.11601 0
M  V30 11192 H 1072.83 2.32621 -1.03729 0
M  V30 11193 H 1073.61 2.12469 -2.69651 0
M  V30 11194 N 1076.06 0.894434 1.2976 0
M  V30 11195 C 1077.3 0.516646 1.95385 0
M  V30 11196 C 1077.63 -0.939141 1.70895 0
M  V30 11197 O 1076.9 -1.66153 1.03778 0
M  V30 11198 H 1075.48 0.188072 0.722937 0
M  V30 11199 H 1078.14 1.13958 1.58113 0
M  V30 11200 H 1077.23 0.694819 3.04267 0
M  V30 11201 N 1077.53 -1.43282 0.656365 0
M  V30 11202 C 1078.78 -2.01378 0.170702 0
M  V30 11203 C 1079.1 -1.52063 -1.22073 0
M  V30 11204 O 1078.37 -0.73456 -1.81607 0
M  V30 11205 H 1076.95 -0.744577 0.0601168 0
M  V30 11206 H 1079.62 -1.75449 0.848739 0
M  V30 11207 H 1078.71 -3.11701 0.157745 0
M  V30 11208 N 1079.01 -0.398486 -1.52479 0
M  V30 11209 C 1080.24 0.183059 -2.06591 0
M  V30 11210 C 1080.66 1.3898 -1.26753 0
M  V30 11211 O 1080.02 1.78885 -0.294959 0
M  V30 11212 C 1080.07 0.522392 -3.56796 0
M  V30 11213 O 1079.17 1.61499 -3.79462 0
M  V30 11214 H 1078.51 0.0188411 -0.663733 0
M  V30 11215 H 1081.04 -0.56861 -1.9654 0
M  V30 11216 H 1081.05 0.784078 -4.00395 0
M  V30 11217 H 1079.73 -0.359807 -4.14341 0
M  V30 11218 H 1078.31 1.3463 -3.47749 0
M  V30 11219 N 1080.49 1.57075 -0.12858 0
M  V30 11220 C 1081.72 1.99876 0.534544 0
M  V30 11221 C 1082.13 1.00843 1.59612 0
M  V30 11222 O 1081.49 0.00268947 1.825 0
M  V30 11223 C 1081.54 3.42654 1.15198 0
M  V30 11224 O 1081.26 4.37899 0.132823 0
M  V30 11225 C 1082.76 4.00637 1.8975 0
M  V30 11226 H 1079.98 0.656073 0.140744 0
M  V30 11227 H 1082.53 2.03337 -0.217742 0
M  V30 11228 H 1080.68 3.40101 1.85499 0
M  V30 11229 H 1081.1 5.21253 0.582682 0
M  V30 11230 H 1082.57 5.02592 2.28266 0
M  V30 11231 H 1083.05 3.40313 2.7764 0
M  V30 11232 H 1083.65 4.06764 1.2419 0
M  V30 11233 N 1081.97 -0.145205 1.5693 0
M  V30 11234 C 1083.19 -0.876386 1.87974 0
M  V30 11235 C 1083.62 -1.73866 0.717795 0
M  V30 11236 O 1082.98 -1.78224 -0.332551 0
M  V30 11237 C 1083.03 -1.70746 3.17613 0
M  V30 11238 O 1082.13 -2.81188 3.01674 0
M  V30 11239 H 1081.47 -0.243987 0.617549 0
M  V30 11240 H 1084 -0.135482 2.04151 0
M  V30 11241 H 1084.01 -2.1021 3.49679 0
M  V30 11242 H 1082.69 -1.07429 4.01786 0
M  V30 11243 H 1081.26 -2.45117 2.81019 0
M  V30 11244 N 1083.45 -1.52049 -0.414609 0
M  V30 11245 C 1084.4 -1.7138 -1.50376 0
M  V30 11246 C 1085.38 -0.567692 -1.50553 0
M  V30 11247 O 1086.57 -0.824541 -1.56622 0
M  V30 11248 C 1083.7 -1.86291 -2.88358 0
M  V30 11249 C 1082.79 -3.06757 -2.9285 0
M  V30 11250 N 1083.18 -4.29557 -2.67048 0
M  V30 11251 C 1081.48 -3.06478 -3.24018 0
M  V30 11252 C 1082.18 -5.10988 -2.77968 0
M  V30 11253 N 1081.15 -4.46117 -3.10613 0
M  V30 11254 H 1084.96 -2.63972 -1.29213 0
M  V30 11255 H 1082.47 -1.50006 -0.622244 0
M  V30 11256 H 1084.47 -1.98256 -3.66743 0
M  V30 11257 H 1083.13 -0.948959 -3.10524 0
M  V30 11258 H 1084.14 -4.58122 -2.41546 0
M  V30 11259 H 1080.82 -2.24799 -3.51812 0
M  V30 11260 H 1082.21 -6.18806 -2.6178 0
M  V30 11261 N 1084.93 0.6715 -1.42579 0
M  V30 11262 C 1085.86 1.79693 -1.49107 0
M  V30 11263 C 1086.84 1.66516 -0.347338 0
M  V30 11264 O 1088.02 1.85887 -0.562094 0
M  V30 11265 C 1085.15 3.1801 -1.39596 0
M  V30 11266 C 1084.11 3.45926 -2.5203 0
M  V30 11267 C 1083.43 4.83852 -2.27577 0
M  V30 11268 C 1084.73 3.4249 -3.94333 0
M  V30 11269 H 1086.43 1.74486 -2.433 0
M  V30 11270 H 1083.97 0.838042 -1.17102 0
M  V30 11271 H 1085.92 3.96478 -1.42771 0
M  V30 11272 H 1084.65 3.23901 -0.418989 0
M  V30 11273 H 1083.31 2.6982 -2.48178 0
M  V30 11274 H 1082.96 4.86398 -1.28165 0
M  V30 11275 H 1082.66 5.03493 -3.02934 0
M  V30 11276 H 1084.18 5.646 -2.32506 0
M  V30 11277 H 1085.59 4.10922 -3.9977 0
M  V30 11278 H 1083.99 3.73666 -4.69568 0
M  V30 11279 H 1085.06 2.41002 -4.20768 0
M  V30 11280 N 1086.4 1.28806 0.908124 0
M  V30 11281 C 1087.34 1.07538 2.01273 0
M  V30 11282 C 1088.31 -0.0102454 1.62597 0
M  V30 11283 O 1089.5 0.138797 1.87988 0
M  V30 11284 C 1086.63 0.635337 3.32688 0
M  V30 11285 C 1085.67 1.71843 3.90349 0
M  V30 11286 S 1086.5 3.31571 4.20501 0
M  V30 11287 C 1087.66 2.89416 5.54968 0
M  V30 11288 H 1087.89 2.01058 2.19005 0
M  V30 11289 H 1085.43 1.12857 1.05369 0
M  V30 11290 H 1087.38 0.388159 4.08661 0
M  V30 11291 H 1086.05 -0.280122 3.12848 0
M  V30 11292 H 1085.24 1.36228 4.8524 0
M  V30 11293 H 1084.84 1.91869 3.21033 0
M  V30 11294 H 1087.13 2.35936 6.35091 0
M  V30 11295 H 1088.08 3.83126 5.955 0
M  V30 11296 H 1088.48 2.27962 5.16424 0
M  V30 11297 N 1087.88 -1.11734 1.11145 0
M  V30 11298 C 1089.13 -1.83874 0.86959 0
M  V30 11299 C 1089.48 -1.82859 -0.598363 0
M  V30 11300 O 1088.78 -1.26849 -1.43596 0
M  V30 11301 C 1088.97 -3.3046 1.36129 0
M  V30 11302 C 1088.8 -3.45752 2.87551 0
M  V30 11303 C 1087.57 -3.58956 3.55638 0
M  V30 11304 C 1089.77 -3.40296 3.85621 0
M  V30 11305 N 1087.75 -3.62688 4.95309 0
M  V30 11306 C 1089.12 -3.50611 5.11343 0
M  V30 11307 C 1091.17 -3.23808 3.78223 0
M  V30 11308 C 1089.88 -3.46138 6.3054 0
M  V30 11309 C 1091.9 -3.20651 4.96927 0
M  V30 11310 C 1091.27 -3.31534 6.21502 0
M  V30 11311 H 1087.36 -0.688226 0.371306 0
M  V30 11312 H 1089.95 -1.33715 1.41522 0
M  V30 11313 H 1088.12 -3.79144 0.842885 0
M  V30 11314 H 1089.85 -3.90493 1.0629 0
M  V30 11315 H 1086.61 -3.61387 3.06098 0
M  V30 11316 H 1087.03 -3.68199 5.68118 0
M  V30 11317 H 1091.67 -3.14282 2.8282 0
M  V30 11318 H 1089.39 -3.54433 7.26225 0
M  V30 11319 H 1092.98 -3.09064 4.9292 0
M  V30 11320 H 1091.86 -3.29076 7.11814 0
M  V30 11321 N 1089.36 -0.901303 -1.29284 0
M  V30 11322 C 1090.31 -0.378666 -2.27672 0
M  V30 11323 C 1091.28 0.540102 -1.57074 0
M  V30 11324 O 1092.46 0.464997 -1.85047 0
M  V30 11325 C 1089.6 0.38635 -3.42931 0
M  V30 11326 C 1088.71 -0.563496 -4.28309 0
M  V30 11327 C 1087.85 0.218731 -5.30749 0
M  V30 11328 C 1086.89 -0.725536 -6.07785 0
M  V30 11329 N 1086.03 0.0223854 -7.02096 0
M  V30 11330 H 1090.87 -1.22277 -2.71758 0
M  V30 11331 H 1088.4 -0.614302 -1.33659 0
M  V30 11332 H 1090.36 0.845967 -4.08533 0
M  V30 11333 H 1088.99 1.1949 -2.9987 0
M  V30 11334 H 1088.04 -1.14163 -3.62865 0
M  V30 11335 H 1089.35 -1.28623 -4.81931 0
M  V30 11336 H 1088.51 0.739473 -6.02177 0
M  V30 11337 H 1087.25 0.97459 -4.77863 0
M  V30 11338 H 1086.25 -1.25776 -5.3522 0
M  V30 11339 H 1087.48 -1.48075 -6.6276 0
M  V30 11340 H 1085.42 0.760482 -6.51577 0
M  V30 11341 H 1085.34 -0.640408 -7.53283 0
M  V30 11342 H 1086.61 0.523339 -7.77741 0
M  V30 11343 N 1090.84 1.42931 -0.663954 0
M  V30 11344 C 1092.25 1.56098 -0.332496 0
M  V30 11345 C 1092.45 1.64564 1.16279 0
M  V30 11346 O 1091.51 1.6066 1.94794 0
M  V30 11347 C 1092.82 2.81649 -1.05329 0
M  V30 11348 C 1094.37 2.95408 -1.03457 0
M  V30 11349 C 1094.85 4.23805 -1.73647 0
M  V30 11350 N 1096.34 4.30693 -1.70462 0
M  V30 11351 C 1097.07 5.28833 -2.21637 0
M  V30 11352 N 1096.57 6.33189 -2.81147 0
M  V30 11353 N 1098.36 5.20558 -2.12075 0
M  V30 11354 H 1090.51 1.3568 -1.63416 0
M  V30 11355 H 1092.77 0.652361 -0.687844 0
M  V30 11356 H 1092.48 2.81494 -2.10842 0
M  V30 11357 H 1092.35 3.72208 -0.611626 0
M  V30 11358 H 1094.74 2.95097 0.0121936 0
M  V30 11359 H 1094.82 2.06109 -1.51502 0
M  V30 11360 H 1094.47 4.24876 -2.78285 0
M  V30 11361 H 1094.4 5.12019 -1.2306 0
M  V30 11362 H 1096.89 3.55904 -1.27046 0
M  V30 11363 H 1097.2 7.04411 -3.17844 0
M  V30 11364 H 1095.55 6.33781 -2.85212 0
M  V30 11365 H 1098.74 4.3795 -1.6528 0
M  V30 11366 H 1098.91 5.96881 -2.52264 0
M  V30 11367 N 1092.32 0.406567 1.52266 0
M  V30 11368 C 1093.25 -0.464709 2.23418 0
M  V30 11369 C 1094.23 -1.05008 1.24146 0
M  V30 11370 O 1095.41 -1.09843 1.53188 0
M  V30 11371 C 1092.54 -1.64481 2.96081 0
M  V30 11372 C 1091.58 -1.18307 4.09763 0
M  V30 11373 S 1092.42 -0.150326 5.35289 0
M  V30 11374 C 1093.57 -1.3358 6.11479 0
M  V30 11375 H 1093.81 0.139455 2.96973 0
M  V30 11376 H 1091.34 0.19085 1.53216 0
M  V30 11377 H 1093.3 -2.3215 3.38551 0
M  V30 11378 H 1091.96 -2.22031 2.22174 0
M  V30 11379 H 1091.15 -2.06466 4.59769 0
M  V30 11380 H 1090.75 -0.58505 3.69396 0
M  V30 11381 H 1093.04 -2.25986 6.38699 0
M  V30 11382 H 1093.99 -0.876328 7.02656 0
M  V30 11383 H 1094.4 -1.56044 5.42504 0
M  V30 11384 N 1093.79 -1.57004 0.136909 0
M  V30 11385 C 1094.74 -2.16246 -0.806607 0
M  V30 11386 C 1095.71 -1.09246 -1.25118 0
M  V30 11387 O 1096.9 -1.3724 -1.32551 0
M  V30 11388 C 1094.04 -2.78031 -2.04433 0
M  V30 11389 C 1093.15 -3.99393 -1.64649 0
M  V30 11390 C 1092.28 -4.49208 -2.83524 0
M  V30 11391 C 1091.32 -5.63059 -2.40064 0
M  V30 11392 N 1090.46 -6.07537 -3.51913 0
M  V30 11393 H 1095.3 -2.9654 -0.294596 0
M  V30 11394 H 1092.84 -1.46491 -0.133705 0
M  V30 11395 H 1094.8 -3.11992 -2.76978 0
M  V30 11396 H 1093.43 -2.00398 -2.53062 0
M  V30 11397 H 1092.48 -3.71477 -0.819077 0
M  V30 11398 H 1093.79 -4.81904 -1.28723 0
M  V30 11399 H 1092.94 -4.85171 -3.64271 0
M  V30 11400 H 1091.68 -3.65683 -3.22688 0
M  V30 11401 H 1090.69 -5.26682 -1.57754 0
M  V30 11402 H 1091.91 -6.48362 -2.01997 0
M  V30 11403 H 1089.86 -5.2695 -3.90717 0
M  V30 11404 H 1089.78 -6.84949 -3.1997 0
M  V30 11405 H 1091.04 -6.48143 -4.33048 0
M  V30 11406 N 1095.27 0.136881 -1.57004 0
M  V30 11407 C 1096.22 1.18782 -1.99984 0
M  V30 11408 C 1097.21 1.43899 -0.893841 0
M  V30 11409 O 1098.42 1.44072 -1.07904 0
M  V30 11410 H 1094.8 0.400065 -0.636751 0
M  V30 11411 H 1096.77 0.798696 -2.87512 0
M  V30 11412 C 1095.52 2.51105 -2.40502 0
M  V30 11413 H 1094.84 2.32611 -3.25165 0
M  V30 11414 H 1096.28 3.23244 -2.74389 0
M  V30 11415 C 1094.74 3.12386 -1.26161 0
M  V30 11416 O 1095.27 3.97666 -0.567836 0
M  V30 11417 N 1093.47 2.71989 -1.02326 0
M  V30 11418 H 1093.02 2.02736 -1.58921 0
M  V30 11419 H 1092.98 3.13322 -0.26013 0
M  V30 11420 N 1096.75 1.52266 0.40654 0
M  V30 11421 C 1097.68 1.78755 1.50229 0
M  V30 11422 C 1098.66 0.638652 1.57655 0
M  V30 11423 O 1099.85 0.884505 1.72888 0
M  V30 11424 C 1096.98 1.94057 2.88026 0
M  V30 11425 C 1095.93 3.09667 2.95449 0
M  V30 11426 C 1095.26 3.10196 4.35526 0
M  V30 11427 C 1096.56 4.49077 2.66697 0
M  V30 11428 H 1098.25 2.70511 1.28313 0
M  V30 11429 H 1095.8 1.30167 0.615836 0
M  V30 11430 H 1097.75 2.11171 3.64671 0
M  V30 11431 H 1096.47 0.989755 3.11242 0
M  V30 11432 H 1095.13 2.92308 2.2125 0
M  V30 11433 H 1094.78 2.12831 4.55754 0
M  V30 11434 H 1094.48 3.87847 4.41416 0
M  V30 11435 H 1096 3.29443 5.14101 0
M  V30 11436 H 1097.42 4.66628 3.33064 0
M  V30 11437 H 1095.82 5.28665 2.8396 0
M  V30 11438 H 1096.89 4.56995 1.62122 0
M  V30 11439 N 1098.23 -0.663929 1.42933 0
M  V30 11440 C 1099.64 -0.978346 1.26097 0
M  V30 11441 C 1099.84 -2.00756 0.172968 0
M  V30 11442 O 1098.9 -2.48418 -0.452184 0
M  V30 11443 C 1100.21 -1.4728 2.62162 0
M  V30 11444 C 1101.76 -1.59001 2.69606 0
M  V30 11445 C 1102.24 -2.1184 4.06064 0
M  V30 11446 N 1103.73 -2.19158 4.08074 0
M  V30 11447 C 1104.46 -2.61141 5.10483 0
M  V30 11448 N 1103.96 -3.02498 6.23271 0
M  V30 11449 N 1105.75 -2.60986 4.97838 0
M  V30 11450 H 1097.9 0.0173096 2.12393 0
M  V30 11451 H 1100.17 -0.0548116 0.946414 0
M  V30 11452 H 1099.87 -0.791008 3.42689 0
M  V30 11453 H 1099.75 -2.4497 2.86827 0
M  V30 11454 H 1102.13 -2.26284 1.89418 0
M  V30 11455 H 1102.21 -0.597728 2.48718 0
M  V30 11456 H 1101.86 -1.45162 4.86714 0
M  V30 11457 H 1101.79 -3.1188 4.2431 0
M  V30 11458 H 1104.28 -1.90013 3.26655 0
M  V30 11459 H 1104.59 -3.33251 6.97254 0
M  V30 11460 H 1102.94 -3.00328 6.2676 0
M  V30 11461 H 1106.13 -2.28046 4.08794 0
M  V30 11462 H 1106.3 -2.93384 5.7778 0
M  V30 11463 N 1099.71 -1.29285 -0.901281 0
M  V30 11464 C 1100.95 -1.16934 -1.64836 0
M  V30 11465 C 1101.28 0.279826 -1.92982 0
M  V30 11466 O 1100.55 1.19179 -1.55478 0
M  V30 11467 H 1099.13 -0.429768 -0.61099 0
M  V30 11468 H 1101.79 -1.62189 -1.08077 0
M  V30 11469 H 1100.88 -1.71821 -2.60545 0
M  V30 11470 N 1101.18 1.11143 -1.11736 0
M  V30 11471 C 1102.43 1.82586 -0.866412 0
M  V30 11472 C 1102.75 1.85227 0.609593 0
M  V30 11473 O 1102.02 1.32505 1.44288 0
M  V30 11474 H 1100.6 0.676149 -0.31754 0
M  V30 11475 H 1103.27 1.34516 -1.41037 0
M  V30 11476 H 1102.36 2.8635 -1.24136 0
M  V30 11477 N 1102.66 0.908147 1.28804 0
M  V30 11478 C 1103.89 0.553431 1.9988 0
M  V30 11479 C 1104.31 -0.856714 1.67458 0
M  V30 11480 O 1103.67 -1.57163 0.903849 0
M  V30 11481 C 1103.72 0.762688 3.52442 0
M  V30 11482 O 1102.82 -0.180924 4.12003 0
M  V30 11483 H 1102.16 0.215237 0.628147 0
M  V30 11484 H 1104.69 1.22205 1.64095 0
M  V30 11485 H 1104.7 0.670612 4.02451 0
M  V30 11486 H 1103.38 1.79071 3.75375 0
M  V30 11487 H 1101.96 -0.0405897 3.72878 0
M  V30 11488 N 1104.14 -1.42577 0.671525 0
M  V30 11489 C 1105.38 -2.03455 0.196271 0
M  V30 11490 C 1105.74 -1.51934 -1.17389 0
M  V30 11491 O 1106.95 -2.04577 -1.74361 0
M  V30 11492 C 1105.22 -3.56687 0.225624 0
M  V30 11493 S 1106.78 -4.38434 -0.179107 0
M  V30 11494 H 1103.59 -0.706371 0.0809995 0
M  V30 11495 H 1106.2 -1.74375 0.883948 0
M  V30 11496 H 1104.9 -3.91684 1.22524 0
M  V30 11497 H 1104.43 -3.90436 -0.481994 0
M  V30 11498 H 1106.45 -4.75646 -1.41332 0
M  V30 11499 N 1105.62 -0.414636 -1.52048 0
M  V30 11500 C 1107.03 0.0537107 -1.86623 0
M  V30 11501 C 1107.38 1.43955 -1.3331 0
M  V30 11502 O 1106.51 2.05616 -0.674606 0
M  V30 11503 C 1107.1 0.104241 -3.3864 0
M  V30 11504 C 1105.66 0.516936 -3.72833 0
M  V30 11505 C 1104.81 -0.305042 -2.75617 0
M  V30 11506 H 1107.76 -0.631469 -1.45596 0
M  V30 11507 H 1107.78 0.918395 -3.6925 0
M  V30 11508 H 1107.29 -0.904523 -3.77412 0
M  V30 11509 H 1105.39 1.53214 -3.39641 0
M  V30 11510 H 1105.5 0.2575 -4.78408 0
M  V30 11511 H 1103.87 0.233416 -2.53628 0
M  V30 11512 H 1104.65 -1.31226 -3.1723 0
M  V30 11513 N 1107.1 1.56929 -0.145233 0
M  V30 11514 C 1108.03 2.19685 0.791263 0
M  V30 11515 C 1109.01 1.14455 1.25833 0
M  V30 11516 O 1110.19 1.42791 1.31622 0
M  V30 11517 C 1107.32 2.81705 2.03124 0
M  V30 11518 C 1106.28 3.92746 1.70101 0
M  V30 11519 C 1105.6 4.41694 3.01347 0
M  V30 11520 C 1106.9 5.13606 0.949025 0
M  V30 11521 H 1108.6 2.98196 0.26825 0
M  V30 11522 H 1106.14 1.43434 0.127584 0
M  V30 11523 H 1108.1 3.24273 2.69119 0
M  V30 11524 H 1106.82 2.00523 2.57795 0
M  V30 11525 H 1105.48 3.50794 1.06486 0
M  V30 11526 H 1105.13 3.57336 3.54006 0
M  V30 11527 H 1104.83 5.1659 2.80016 0
M  V30 11528 H 1106.35 4.86931 3.68416 0
M  V30 11529 H 1107.76 5.53029 1.51102 0
M  V30 11530 H 1106.16 5.94252 0.835711 0
M  V30 11531 H 1107.23 4.84863 -0.0595631 0
M  V30 11532 N 1108.58 -0.128553 1.57075 0
M  V30 11533 C 1109.51 -1.18822 1.94825 0
M  V30 11534 C 1110.49 -1.40609 0.816571 0
M  V30 11535 O 1111.67 -1.5492 1.07388 0
M  V30 11536 C 1108.8 -2.54383 2.23623 0
M  V30 11537 C 1107.84 -2.4908 3.4621 0
M  V30 11538 S 1108.68 -1.93974 4.99133 0
M  V30 11539 C 1109.83 -3.31228 5.31074 0
M  V30 11540 H 1110.07 -0.866246 2.844 0
M  V30 11541 H 1107.6 -0.334927 1.50724 0
M  V30 11542 H 1109.56 -3.32386 2.40893 0
M  V30 11543 H 1108.22 -2.83761 1.34678 0
M  V30 11544 H 1107.41 -3.48915 3.63695 0
M  V30 11545 H 1107.01 -1.79193 3.28277 0
M  V30 11546 H 1109.3 -4.27407 5.25671 0
M  V30 11547 H 1110.25 -3.18578 6.32387 0
M  V30 11548 H 1110.66 -3.29215 4.5856 0
M  V30 11549 N 1110.05 -1.5248 -0.398459 0
M  V30 11550 C 1111.46 -1.59107 -0.976817 0
M  V30 11551 C 1111.82 -0.438104 -1.91246 0
M  V30 11552 O 1110.94 0.440111 -2.11877 0
M  V30 11553 C 1111.54 -2.88373 -1.77838 0
M  V30 11554 C 1110.09 -2.97445 -2.30659 0
M  V30 11555 C 1109.24 -2.5414 -1.10942 0
M  V30 11556 H 1112.19 -1.57695 -0.178324 0
M  V30 11557 H 1112.21 -2.74327 -2.63676 0
M  V30 11558 H 1111.73 -3.72269 -1.09714 0
M  V30 11559 H 1109.83 -2.18066 -3.02123 0
M  V30 11560 H 1109.94 -4.019 -2.60794 0
M  V30 11561 H 1108.3 -2.08237 -1.46661 0
M  V30 11562 H 1109.09 -3.40421 -0.443684 0
M  V30 11563 N 1111.53 0.65634 -1.43283 0
M  V30 11564 C 1112.81 1.41339 -1.35213 0
M  V30 11565 C 1113.19 2.111 0.00158494 0
M  V30 11566 O 1112.54 2.0457 1.018 0
M  V30 11567 C 1112.75 2.40066 -2.53317 0
M  V30 11568 C 1114.09 3.04159 -2.96264 0
M  V30 11569 O 1115.12 2.50393 -2.53341 0
M  V30 11570 O 1113.98 4.01633 -3.70612 0
M  V30 11571 H 1111.07 0.631325 -0.534189 0
M  V30 11572 H 1113.62 0.68351 -1.55326 0
M  V30 11573 H 1112.39 1.87444 -3.43483 0
M  V30 11574 H 1112.01 3.20509 -2.35287 0
M  V30 11575 N 1113.01 1.29761 0.894412 0
M  V30 11576 C 1113.96 1.15341 1.99912 0
M  V30 11577 C 1114.93 0.0453488 1.66038 0
M  V30 11578 O 1116.11 0.213829 1.89598 0
M  V30 11579 C 1113.25 0.841432 3.34685 0
M  V30 11580 C 1112.36 2.03046 3.81309 0
M  V30 11581 C 1111.5 1.65739 5.04682 0
M  V30 11582 C 1110.54 2.81191 5.43689 0
M  V30 11583 N 1109.68 2.44244 6.58247 0
M  V30 11584 H 1114.52 2.09854 2.11578 0
M  V30 11585 H 1112.05 1.04421 1.03608 0
M  V30 11586 H 1114.01 0.641211 4.12243 0
M  V30 11587 H 1112.64 -0.066797 3.22731 0
M  V30 11588 H 1111.69 2.34222 2.9974 0
M  V30 11589 H 1113 2.89538 4.06164 0
M  V30 11590 H 1112.16 1.42036 5.8984 0
M  V30 11591 H 1110.9 0.764019 4.81678 0
M  V30 11592 H 1109.9 3.0557 4.57064 0
M  V30 11593 H 1111.13 3.712 5.68672 0
M  V30 11594 H 1109.07 1.57402 6.36837 0
M  V30 11595 H 1108.99 3.24269 6.82924 0
M  V30 11596 H 1110.26 2.23875 7.46659 0
M  V30 11597 N 1114.49 -1.10549 1.12324 0
M  V30 11598 C 1115.9 -1.63991 0.892402 0
M  V30 11599 C 1116.25 -1.87631 -0.573506 0
M  V30 11600 O 1115.37 -1.6174 -1.43768 0
M  V30 11601 C 1115.97 -2.97914 1.61347 0
M  V30 11602 C 1114.53 -3.48227 1.42881 0
M  V30 11603 C 1113.68 -2.22857 1.65015 0
M  V30 11604 H 1116.63 -0.94065 1.27818 0
M  V30 11605 H 1116.65 -3.65326 1.06382 0
M  V30 11606 H 1116.16 -2.80677 2.68034 0
M  V30 11607 H 1114.26 -3.70611 0.384441 0
M  V30 11608 H 1114.37 -4.26419 2.18413 0
M  V30 11609 H 1112.74 -2.30941 1.07417 0
M  V30 11610 H 1113.52 -2.08152 2.72997 0
M  V30 11611 N 1115.97 -0.914965 -1.28321 0
M  V30 11612 C 1116.9 -0.421292 -2.29668 0
M  V30 11613 C 1117.88 0.511743 -1.6222 0
M  V30 11614 O 1119.06 0.419218 -1.89621 0
M  V30 11615 C 1116.19 0.338364 -3.45648 0
M  V30 11616 C 1115.15 -0.505646 -4.25003 0
M  V30 11617 C 1114.47 0.382421 -5.33331 0
M  V30 11618 C 1115.77 -1.76354 -4.91626 0
M  V30 11619 H 1117.47 -1.26826 -2.71211 0
M  V30 11620 H 1115.01 -0.611291 -1.30381 0
M  V30 11621 H 1116.96 0.694578 -4.15636 0
M  V30 11622 H 1115.69 1.21925 -3.02988 0
M  V30 11623 H 1114.35 -0.844395 -3.56743 0
M  V30 11624 H 1114 1.26189 -4.86914 0
M  V30 11625 H 1113.7 -0.17871 -5.87328 0
M  V30 11626 H 1115.22 0.73449 -6.06166 0
M  V30 11627 H 1116.63 -1.47616 -5.5397 0
M  V30 11628 H 1115.03 -2.26717 -5.55625 0
M  V30 11629 H 1116.1 -2.49063 -4.16048 0
M  V30 11630 N 1117.44 1.42219 -0.679077 0
M  V30 11631 C 1118.67 2.06333 -0.210097 0
M  V30 11632 C 1119.09 1.50703 1.12562 0
M  V30 11633 O 1118.45 0.627241 1.70104 0
M  V30 11634 C 1118.5 3.60243 -0.160322 0
M  V30 11635 O 1117.6 4.03122 0.869872 0
M  V30 11636 H 1116.94 0.655362 -0.106754 0
M  V30 11637 H 1119.47 1.82278 -0.929294 0
M  V30 11638 H 1119.48 4.07997 0.014384 0
M  V30 11639 H 1118.16 4.00106 -1.13526 0
M  V30 11640 H 1116.74 3.66907 0.66586 0
M  V30 11641 N 1118.92 0.422693 1.51826 0
M  V30 11642 C 1119.88 -0.384307 2.25955 0
M  V30 11643 C 1120.88 -0.962184 1.28836 0
M  V30 11644 O 1122.07 -0.838931 1.52668 0
M  V30 11645 C 1119.21 -1.54228 3.04018 0
M  V30 11646 H 1120.4 0.265157 2.98726 0
M  V30 11647 H 1117.95 0.175515 1.55311 0
M  V30 11648 H 1118.69 -2.22822 2.35629 0
M  V30 11649 H 1118.47 -1.13425 3.75336 0
M  V30 11650 H 1119.96 -2.1128 3.60209 0
M  V30 11651 N 1120.4 -1.5685 0.153553 0
M  V30 11652 C 1121.35 -2.18385 -0.800667 0
M  V30 11653 C 1122.34 -1.14272 -1.25053 0
M  V30 11654 O 1123.55 -1.32509 -1.21825 0
M  V30 11655 H 1119.92 -0.699352 -0.276425 0
M  V30 11656 H 1121.89 -2.97287 -0.257535 0
M  V30 11657 C 1120.64 -2.82497 -2.02708 0
M  V30 11658 H 1119.97 -3.62328 -1.68992 0
M  V30 11659 H 1121.41 -3.29047 -2.67403 0
M  V30 11660 C 1119.86 -1.81343 -2.8393 0
M  V30 11661 O 1120.39 -1.28793 -3.80493 0
M  V30 11662 N 1118.6 -1.50499 -2.48593 0
M  V30 11663 H 1118.15 -1.93425 -1.70131 0
M  V30 11664 H 1118.11 -0.830672 -3.03228 0
M  V30 11665 N 1121.88 0.120221 -1.57141 0
M  V30 11666 C 1123.12 0.829449 -1.85062 0
M  V30 11667 C 1123.46 1.79585 -0.739116 0
M  V30 11668 O 1122.73 1.92819 0.255147 0
M  V30 11669 C 1123.01 1.58042 -3.23566 0
M  V30 11670 C 1122.87 0.633706 -4.45314 0
M  V30 11671 C 1124.19 2.53688 -3.59625 0
M  V30 11672 H 1121.31 0.300086 -0.67314 0
M  V30 11673 H 1123.95 0.0937393 -1.89769 0
M  V30 11674 H 1122.1 2.20758 -3.19684 0
M  V30 11675 H 1123.77 0.0154836 -4.61297 0
M  V30 11676 H 1122.01 -0.054846 -4.33765 0
M  V30 11677 H 1122.68 1.19577 -5.38893 0
M  V30 11678 H 1125.16 2.01078 -3.6429 0
M  V30 11679 H 1124.04 3.03265 -4.57516 0
M  V30 11680 H 1124.3 3.36296 -2.8698 0
M  V30 11681 N 1123.36 1.52689 0.390367 0
M  V30 11682 C 1124.77 1.59623 0.968366 0
M  V30 11683 C 1125.12 0.44824 1.91011 0
M  V30 11684 O 1124.24 -0.428868 2.12108 0
M  V30 11685 C 1124.84 2.89312 1.76306 0
M  V30 11686 C 1123.4 2.98664 2.29079 0
M  V30 11687 C 1122.54 2.54725 1.09593 0
M  V30 11688 H 1125.5 1.57787 0.169959 0
M  V30 11689 H 1125.52 2.75721 2.62217 0
M  V30 11690 H 1125.03 3.72846 1.07738 0
M  V30 11691 H 1123.13 2.19665 3.00962 0
M  V30 11692 H 1123.24 4.03277 2.58659 0
M  V30 11693 H 1121.61 2.09012 1.45554 0
M  V30 11694 H 1122.39 3.40651 0.425625 0
M  V30 11695 N 1124.83 -0.648732 1.43629 0
M  V30 11696 C 1125.78 -1.78269 1.49409 0
M  V30 11697 C 1126.78 -1.6537 0.367288 0
M  V30 11698 O 1127.98 -1.71663 0.541476 0
M  V30 11699 H 1124.36 -0.58824 0.468484 0
M  V30 11700 H 1126.33 -1.70514 2.44883 0
M  V30 11701 C 1125.08 -3.16545 1.43856 0
M  V30 11702 H 1124.4 -3.2711 2.29868 0
M  V30 11703 H 1125.84 -3.95833 1.51961 0
M  V30 11704 C 1124.3 -3.36535 0.156779 0
M  V30 11705 O 1124.83 -3.94052 -0.780124 0
M  V30 11706 N 1123.04 -2.90526 0.0655319 0
M  V30 11707 H 1122.58 -2.43904 0.828768 0
M  V30 11708 H 1122.54 -3.04277 -0.791379 0
M  V30 11709 N 1126.31 -1.30234 -0.887518 0
M  V30 11710 C 1127.59 -1.09572 -1.62029 0
M  V30 11711 C 1127.97 0.355877 -2.08079 0
M  V30 11712 O 1127.32 1.34692 -1.84582 0
M  V30 11713 C 1127.53 -2.0943 -2.79177 0
M  V30 11714 C 1128.88 -2.4101 -3.4957 0
M  V30 11715 O 1129.9 -2.0772 -2.89363 0
M  V30 11716 O 1128.76 -2.97943 -4.5814 0
M  V30 11717 H 1125.85 -0.420648 -0.712028 0
M  V30 11718 H 1128.4 -1.41651 -0.934517 0
M  V30 11719 H 1127.17 -3.07149 -2.42436 0
M  V30 11720 H 1126.79 -1.78154 -3.55453 0
M  V30 11721 N 1127.79 1.09952 -1.12909 0
M  V30 11722 C 1128.74 2.16436 -0.801514 0
M  V30 11723 C 1129.71 1.64444 0.233976 0
M  V30 11724 O 1130.89 1.90497 0.10743 0
M  V30 11725 C 1128.03 3.4406 -0.267753 0
M  V30 11726 C 1127.15 4.09979 -1.36165 0
M  V30 11727 C 1126.28 5.25341 -0.786803 0
M  V30 11728 C 1125.32 5.83172 -1.85948 0
M  V30 11729 N 1124.46 6.89904 -1.30298 0
M  V30 11730 H 1129.3 2.43799 -1.71365 0
M  V30 11731 H 1126.83 1.19665 -0.855499 0
M  V30 11732 H 1128.79 4.17157 0.0598031 0
M  V30 11733 H 1127.42 3.17031 0.607528 0
M  V30 11734 H 1126.47 3.34801 -1.8059 0
M  V30 11735 H 1127.79 4.48999 -2.17259 0
M  V30 11736 H 1126.94 6.05312 -0.410211 0
M  V30 11737 H 1125.68 4.87669 0.055279 0
M  V30 11738 H 1124.68 5.01867 -2.24521 0
M  V30 11739 H 1125.91 6.22907 -2.70487 0
M  V30 11740 H 1123.85 6.54221 -0.482806 0
M  V30 11741 H 1123.77 7.27662 -2.05046 0
M  V30 11742 H 1125.04 7.73643 -0.953779 0
M  V30 11743 N 1129.27 0.921757 1.27833 0
M  V30 11744 C 1130.52 0.559078 1.94629 0
M  V30 11745 C 1130.84 -0.898641 1.72495 0
M  V30 11746 O 1130.1 -1.65546 1.0437 0
M  V30 11747 C 1130.4 0.824259 3.47765 0
M  V30 11748 C 1130.06 2.26278 3.90011 0
M  V30 11749 C 1128.73 2.65607 4.01256 0
M  V30 11750 C 1131.08 3.19853 4.11513 0
M  V30 11751 C 1128.41 3.97646 4.31387 0
M  V30 11752 C 1130.76 4.51467 4.43126 0
M  V30 11753 C 1129.42 4.90637 4.52583 0
M  V30 11754 H 1128.69 0.204581 0.712199 0
M  V30 11755 H 1131.34 1.1646 1.52018 0
M  V30 11756 H 1129.64 0.136011 3.91564 0
M  V30 11757 H 1131.34 0.522701 3.97579 0
M  V30 11758 H 1127.93 1.94765 3.81791 0
M  V30 11759 H 1132.11 2.90674 4.02271 0
M  V30 11760 H 1127.37 4.27685 4.36916 0
M  V30 11761 H 1131.54 5.23982 4.58711 0
M  V30 11762 H 1129.17 5.92982 4.75685 0
M  V30 11763 N 1130.75 -1.41857 0.686609 0
M  V30 11764 C 1131.97 -2.05699 0.222561 0
M  V30 11765 C 1132.39 -1.51636 -1.12481 0
M  V30 11766 O 1131.75 -0.660925 -1.70112 0
M  V30 11767 C 1131.8 -3.61138 0.161818 0
M  V30 11768 O 1131.52 -4.13199 1.45596 0
M  V30 11769 C 1133.02 -4.42112 -0.324304 0
M  V30 11770 H 1130.24 -0.662665 0.10543 0
M  V30 11771 H 1132.78 -1.81788 0.936671 0
M  V30 11772 H 1130.94 -3.8412 -0.503056 0
M  V30 11773 H 1131.35 -5.0717 1.33712 0
M  V30 11774 H 1132.83 -5.51097 -0.315694 0
M  V30 11775 H 1133.3 -4.1756 -1.36164 0
M  V30 11776 H 1133.91 -4.24174 0.309251 0
M  V30 11777 N 1132.22 -0.430739 -1.51599 0
M  V30 11778 C 1133.16 0.419726 -2.25324 0
M  V30 11779 C 1134.17 0.991925 -1.29092 0
M  V30 11780 O 1135.36 0.887188 -1.54891 0
M  V30 11781 C 1132.46 1.59844 -2.98836 0
M  V30 11782 C 1131.63 1.14629 -4.22112 0
M  V30 11783 C 1130.69 2.19437 -4.78261 0
M  V30 11784 O 1129.72 1.79141 -5.40275 0
M  V30 11785 N 1130.92 3.51849 -4.61717 0
M  V30 11786 H 1133.68 -0.212112 -2.98948 0
M  V30 11787 H 1131.24 -0.259269 -1.59811 0
M  V30 11788 H 1133.24 2.29567 -3.33288 0
M  V30 11789 H 1131.81 2.13575 -2.28264 0
M  V30 11790 H 1131.03 0.276367 -3.9323 0
M  V30 11791 H 1132.31 0.821488 -5.02124 0
M  V30 11792 H 1131.71 3.87324 -4.12306 0
M  V30 11793 H 1130.27 4.17486 -5.00548 0
M  V30 11794 N 1133.7 1.56767 -0.161869 0
M  V30 11795 C 1134.65 2.18807 0.789074 0
M  V30 11796 C 1135.64 1.14934 1.24445 0
M  V30 11797 O 1136.85 1.33154 1.2112 0
M  V30 11798 H 1133.23 0.700808 0.272713 0
M  V30 11799 H 1135.2 2.97419 0.241766 0
M  V30 11800 C 1133.95 2.83568 2.01207 0
M  V30 11801 H 1133.27 3.63219 1.67068 0
M  V30 11802 H 1134.71 3.3046 2.65654 0
M  V30 11803 C 1133.17 1.82846 2.82964 0
M  V30 11804 O 1133.7 1.30809 3.79805 0
M  V30 11805 N 1131.9 1.51815 2.47791 0
M  V30 11806 H 1131.45 1.94325 1.69103 0
M  V30 11807 H 1131.41 0.846742 3.02783 0
M  V30 11808 N 1135.18 -0.111886 1.57202 0
M  V30 11809 C 1136.59 -0.668261 1.74331 0
M  V30 11810 C 1136.94 -1.79959 0.781609 0
M  V30 11811 O 1136.07 -2.16356 -0.043833 0
M  V30 11812 C 1136.66 -1.219 3.1611 0
M  V30 11813 C 1135.22 -1.7216 3.34721 0
M  V30 11814 C 1134.37 -0.624223 2.70183 0
M  V30 11815 H 1137.32 0.114081 1.58289 0
M  V30 11816 H 1137.34 -2.08858 3.18054 0
M  V30 11817 H 1136.85 -0.395381 3.86081 0
M  V30 11818 H 1134.95 -2.56976 2.69803 0
M  V30 11819 H 1135.07 -1.82615 4.42932 0
M  V30 11820 H 1133.43 -1.05958 2.31614 0
M  V30 11821 H 1134.21 0.188537 3.42782 0
M  V30 11822 N 1136.66 -1.52894 -0.382264 0
M  V30 11823 C 1137.59 -1.7291 -1.48921 0
M  V30 11824 C 1138.57 -0.577056 -1.52016 0
M  V30 11825 O 1139.75 -0.807667 -1.7032 0
M  V30 11826 C 1136.88 -1.79281 -2.87361 0
M  V30 11827 C 1135.93 -3.01099 -3.02063 0
M  V30 11828 S 1136.76 -4.60947 -2.72558 0
M  V30 11829 C 1137.92 -4.70144 -4.13178 0
M  V30 11830 H 1138.15 -2.66529 -1.31718 0
M  V30 11831 H 1135.68 -1.43271 -0.575563 0
M  V30 11832 H 1137.64 -1.83637 -3.67134 0
M  V30 11833 H 1136.3 -0.867428 -3.01885 0
M  V30 11834 H 1135.49 -3.02117 -4.03412 0
M  V30 11835 H 1135.1 -2.94769 -2.3019 0
M  V30 11836 H 1137.39 -4.49173 -5.07198 0
M  V30 11837 H 1138.33 -5.72166 -4.17172 0
M  V30 11838 H 1138.74 -3.98923 -3.99401 0
M  V30 11839 N 1138.14 0.641106 -1.43971 0
M  V30 11840 C 1139.55 0.958161 -1.27638 0
M  V30 11841 C 1139.75 2.00456 -0.204885 0
M  V30 11842 O 1138.81 2.49106 0.412606 0
M  V30 11843 C 1140.12 1.43091 -2.64472 0
M  V30 11844 C 1141.67 1.54692 -2.72102 0
M  V30 11845 C 1142.15 2.05353 -4.09382 0
M  V30 11846 N 1143.64 2.12638 -4.11509 0
M  V30 11847 C 1144.37 2.52987 -5.14573 0
M  V30 11848 N 1143.87 2.92544 -6.28005 0
M  V30 11849 N 1145.66 2.53033 -5.01927 0
M  V30 11850 H 1137.81 -0.0510973 -2.12339 0
M  V30 11851 H 1140.07 0.039748 -0.947166 0
M  V30 11852 H 1139.78 0.736389 -3.43904 0
M  V30 11853 H 1139.65 2.40375 -2.90688 0
M  V30 11854 H 1142.04 2.23242 -1.92994 0
M  V30 11855 H 1142.12 0.558083 -2.49638 0
M  V30 11856 H 1141.77 1.37401 -4.88962 0
M  V30 11857 H 1141.7 3.0509 -4.29218 0
M  V30 11858 H 1144.19 1.84792 -3.29636 0
M  V30 11859 H 1144.5 3.22116 -7.02468 0
M  V30 11860 H 1142.85 2.90319 -6.31458 0
M  V30 11861 H 1146.04 2.21514 -4.1237 0
M  V30 11862 H 1146.21 2.84155 -5.82375 0
M  V30 11863 N 1139.62 1.30703 0.880598 0
M  V30 11864 C 1140.86 1.19541 1.62955 0
M  V30 11865 C 1141.18 -0.249089 1.93403 0
M  V30 11866 O 1140.45 -1.1669 1.57354 0
M  V30 11867 H 1139.03 0.439434 0.604075 0
M  V30 11868 H 1141.7 1.63888 1.05483 0
M  V30 11869 H 1140.79 1.75945 2.57779 0
M  V30 11870 N 1141.09 -1.09351 1.1349 0
M  V30 11871 C 1142.02 -2.18037 0.835588 0
M  V30 11872 C 1143 -1.68856 -0.205373 0
M  V30 11873 O 1144.19 -1.94094 -0.0641357 0
M  V30 11874 C 1141.32 -3.45987 0.301661 0
M  V30 11875 C 1140.27 -4.08507 1.27696 0
M  V30 11876 C 1139.6 -5.31292 0.602758 0
M  V30 11877 C 1140.9 -4.50916 2.63575 0
M  V30 11878 H 1142.59 -2.43332 1.74441 0
M  V30 11879 H 1140.14 -1.1695 0.840166 0
M  V30 11880 H 1142.09 -4.21324 0.079928 0
M  V30 11881 H 1140.82 -3.20217 -0.642552 0
M  V30 11882 H 1139.48 -3.3519 1.4847 0
M  V30 11883 H 1139.12 -5.01802 -0.346953 0
M  V30 11884 H 1138.82 -5.74075 1.25345 0
M  V30 11885 H 1140.35 -6.09351 0.390325 0
M  V30 11886 H 1141.76 -5.17474 2.46765 0
M  V30 11887 H 1140.16 -5.04586 3.24827 0
M  V30 11888 H 1141.23 -3.63279 3.2118 0
M  V30 11889 N 1142.57 -0.928524 -1.27343 0
M  V30 11890 C 1143.82 -0.568267 -1.93946 0
M  V30 11891 C 1144.14 0.893501 -1.73325 0
M  V30 11892 O 1143.41 1.63344 -1.08147 0
M  V30 11893 H 1141.99 -0.207173 -0.717696 0
M  V30 11894 H 1144.65 -1.1811 -1.55036 0
M  V30 11895 H 1143.75 -0.775246 -3.02318 0
M  V30 11896 N 1144.05 1.41491 -0.694123 0
M  V30 11897 C 1145 2.28 -0.00474478 0
M  V30 11898 C 1145.98 1.42125 0.754281 0
M  V30 11899 O 1147.18 1.65408 0.630012 0
M  V30 11900 C 1144.3 3.30408 0.931953 0
M  V30 11901 C 1143.39 4.23762 0.169251 0
M  V30 11902 N 1143.78 4.9884 -0.836181 0
M  V30 11903 C 1142.08 4.44158 0.40494 0
M  V30 11904 C 1142.78 5.67157 -1.2926 0
M  V30 11905 N 1141.76 5.40066 -0.6188 0
M  V30 11906 H 1145.56 2.8348 -0.775652 0
M  V30 11907 H 1143.07 1.53686 -0.524834 0
M  V30 11908 H 1145.07 3.91206 1.44097 0
M  V30 11909 H 1143.73 2.76489 1.70247 0
M  V30 11910 H 1144.74 5.03413 -1.21637 0
M  V30 11911 H 1141.42 4.0125 1.15346 0
M  V30 11912 H 1142.81 6.3735 -2.12684 0
M  V30 11913 N 1145.53 0.438773 1.51369 0
M  V30 11914 C 1146.94 -0.0240139 1.86685 0
M  V30 11915 C 1147.29 -1.41816 1.35583 0
M  V30 11916 O 1146.41 -2.04517 0.707232 0
M  V30 11917 C 1147.01 -0.0503527 3.38763 0
M  V30 11918 C 1145.57 -0.457556 3.73609 0
M  V30 11919 C 1144.72 0.348852 2.75097 0
M  V30 11920 H 1147.67 0.654552 1.44573 0
M  V30 11921 H 1147.69 -0.859534 3.70665 0
M  V30 11922 H 1147.2 0.964451 3.75925 0
M  V30 11923 H 1145.3 -1.47791 3.42036 0
M  V30 11924 H 1145.41 -0.181357 4.78757 0
M  V30 11925 H 1143.78 -0.193037 2.53967 0
M  V30 11926 H 1144.56 1.36256 3.15102 0
M  V30 11927 N 1147.01 -1.56678 0.170181 0
M  V30 11928 C 1147.94 -2.20916 -0.756213 0
M  V30 11929 C 1148.92 -1.16442 -1.23997 0
M  V30 11930 O 1150.1 -1.44867 -1.29333 0
M  V30 11931 C 1147.23 -2.84901 -1.98617 0
M  V30 11932 C 1146.19 -3.95403 -1.63831 0
M  V30 11933 C 1145.51 -4.46432 -2.94282 0
M  V30 11934 C 1146.81 -5.15051 -0.867195 0
M  V30 11935 H 1148.51 -2.98585 -0.220776 0
M  V30 11936 H 1146.05 -1.43619 -0.104748 0
M  V30 11937 H 1148 -3.28514 -2.63926 0
M  V30 11938 H 1146.73 -2.04598 -2.54572 0
M  V30 11939 H 1145.39 -3.52444 -1.00891 0
M  V30 11940 H 1145.04 -3.62923 -3.48276 0
M  V30 11941 H 1144.74 -5.20979 -2.71762 0
M  V30 11942 H 1146.26 -4.92731 -3.60622 0
M  V30 11943 H 1147.67 -5.55363 -1.42285 0
M  V30 11944 H 1146.07 -5.95507 -0.741065 0
M  V30 11945 H 1147.14 -4.84707 0.136693 0
M  V30 11946 N 1148.48 0.103547 -1.57259 0
M  V30 11947 C 1149.9 0.457527 -1.52901 0
M  V30 11948 C 1150.1 1.80995 -0.8856 0
M  V30 11949 O 1149.16 2.48001 -0.474504 0
M  V30 11950 C 1150.47 0.427793 -2.97641 0
M  V30 11951 C 1152.02 0.51025 -3.08813 0
M  V30 11952 C 1152.49 0.51075 -4.55143 0
M  V30 11953 N 1153.98 0.571748 -4.59658 0
M  V30 11954 C 1154.72 0.593836 -5.70317 0
M  V30 11955 N 1154.21 0.572638 -6.90429 0
M  V30 11956 N 1156.01 0.638011 -5.58467 0
M  V30 11957 H 1148.16 -0.782408 -1.97464 0
M  V30 11958 H 1150.42 -0.290324 -0.90245 0
M  V30 11959 H 1150.13 -0.498608 -3.48148 0
M  V30 11960 H 1150 1.24991 -3.55889 0
M  V30 11961 H 1152.39 1.42707 -2.583 0
M  V30 11962 H 1152.47 -0.339846 -2.53532 0
M  V30 11963 H 1152.11 -0.40209 -5.06306 0
M  V30 11964 H 1152.04 1.37794 -5.08252 0
M  V30 11965 H 1154.53 0.593668 -3.73208 0
M  V30 11966 H 1154.85 0.592542 -7.70525 0
M  V30 11967 H 1153.19 0.539818 -6.929 0
M  V30 11968 H 1156.38 0.652042 -4.63536 0
M  V30 11969 H 1156.56 0.651756 -6.44714 0
M  V30 11970 N 1149.96 1.53094 0.37415 0
M  V30 11971 C 1150.91 1.75307 1.45779 0
M  V30 11972 C 1151.9 0.607409 1.48994 0
M  V30 11973 O 1153.09 0.865777 1.5438 0
M  V30 11974 C 1150.22 1.93871 2.83318 0
M  V30 11975 C 1149.3 3.14413 2.84614 0
M  V30 11976 N 1149.69 4.36486 2.55565 0
M  V30 11977 C 1147.99 3.14961 3.15778 0
M  V30 11978 C 1148.69 5.18178 2.64322 0
M  V30 11979 N 1147.67 4.54196 2.98675 0
M  V30 11980 H 1151.47 2.67305 1.22169 0
M  V30 11981 H 1148.98 1.51603 0.582254 0
M  V30 11982 H 1150.98 2.0791 3.61357 0
M  V30 11983 H 1149.64 1.03096 3.07898 0
M  V30 11984 H 1150.65 4.64366 2.29314 0
M  V30 11985 H 1147.33 2.34048 3.45728 0
M  V30 11986 H 1148.72 6.25529 2.45282 0
M  V30 11987 N 1151.44 -0.633461 1.44309 0
M  V30 11988 C 1152.37 -1.75676 1.53819 0
M  V30 11989 C 1153.35 -1.65537 0.391365 0
M  V30 11990 O 1154.54 -1.84332 0.611181 0
M  V30 11991 C 1151.67 -3.14197 1.47979 0
M  V30 11992 C 1150.62 -3.39122 2.61113 0
M  V30 11993 C 1149.95 -4.77648 2.40325 0
M  V30 11994 C 1151.25 -3.31914 4.03274 0
M  V30 11995 H 1152.94 -1.67974 2.47841 0
M  V30 11996 H 1150.49 -0.8067 1.19283 0
M  V30 11997 H 1152.44 -3.92553 1.53233 0
M  V30 11998 H 1151.16 -3.22677 0.504718 0
M  V30 11999 H 1149.82 -2.63145 2.55245 0
M  V30 12000 H 1149.47 -4.82829 1.41016 0
M  V30 12001 H 1149.17 -4.95284 3.16177 0
M  V30 12002 H 1150.69 -5.58237 2.47394 0
M  V30 12003 H 1152.11 -4.00178 4.10524 0
M  V30 12004 H 1150.5 -3.61085 4.7931 0
M  V30 12005 H 1151.57 -2.29761 4.2701 0
M  V30 12006 N 1152.92 -1.31168 -0.873655 0
M  V30 12007 C 1154.33 -1.18584 -1.44203 0
M  V30 12008 C 1154.68 0.209114 -1.95082 0
M  V30 12009 O 1153.81 1.10662 -1.85965 0
M  V30 12010 C 1154.4 -2.14668 -2.62112 0
M  V30 12011 C 1152.96 -2.06029 -3.15006 0
M  V30 12012 C 1152.11 -2.04106 -1.87712 0
M  V30 12013 H 1155.06 -1.43273 -0.682536 0
M  V30 12014 H 1155.08 -1.73413 -3.38686 0
M  V30 12015 H 1154.59 -3.16186 -2.25051 0
M  V30 12016 H 1152.69 -1.07693 -3.56697 0
M  V30 12017 H 1152.8 -2.9496 -3.77539 0
M  V30 12018 H 1151.17 -1.49069 -2.0652 0
M  V30 12019 H 1151.95 -3.07373 -1.52894 0
M  V30 12020 N 1154.4 1.08748 -1.14068 0
M  V30 12021 C 1155.33 2.17591 -0.84714 0
M  V30 12022 C 1156.31 1.68962 0.196415 0
M  V30 12023 O 1157.49 1.94125 0.0538415 0
M  V30 12024 C 1154.62 3.45823 -0.320005 0
M  V30 12025 C 1153.58 4.07824 -1.2986 0
M  V30 12026 C 1152.9 5.30965 -0.630925 0
M  V30 12027 C 1154.2 4.49512 -2.65963 0
M  V30 12028 H 1155.9 2.42404 -1.75729 0
M  V30 12029 H 1153.44 1.16502 -0.846356 0
M  V30 12030 H 1155.4 4.21276 -0.102271 0
M  V30 12031 H 1154.12 3.20553 0.625561 0
M  V30 12032 H 1152.78 3.34398 -1.50245 0
M  V30 12033 H 1152.43 5.01979 0.320337 0
M  V30 12034 H 1152.13 5.73402 -1.28388 0
M  V30 12035 H 1153.65 6.09136 -0.422635 0
M  V30 12036 H 1155.06 5.16159 -2.49506 0
M  V30 12037 H 1153.46 5.02857 -3.27498 0
M  V30 12038 H 1154.53 3.6157 -3.23102 0
M  V30 12039 N 1155.87 0.935264 1.26849 0
M  V30 12040 C 1157.29 0.623198 1.75992 0
M  V30 12041 C 1157.64 -0.861647 1.76267 0
M  V30 12042 O 1156.76 -1.6743 1.37099 0
M  V30 12043 C 1157.36 1.12451 3.19594 0
M  V30 12044 C 1155.92 0.862974 3.66374 0
M  V30 12045 C 1155.06 1.27886 2.4605 0
M  V30 12046 H 1158.01 1.11422 1.13008 0
M  V30 12047 H 1158.03 0.475626 3.77516 0
M  V30 12048 H 1157.55 2.20522 3.19361 0
M  V30 12049 H 1155.65 -0.203606 3.72043 0
M  V30 12050 H 1155.76 1.48582 4.55478 0
M  V30 12051 H 1154.12 0.697335 2.44968 0
M  V30 12052 H 1154.91 2.36837 2.48522 0
M  V30 12053 N 1157.35 -1.41121 0.701616 0
M  V30 12054 C 1158.28 -2.292 0.000880842 0
M  V30 12055 C 1159.3 -1.45102 -0.738192 0
M  V30 12056 O 1160.49 -1.68541 -0.587891 0
M  V30 12057 C 1157.59 -3.23094 -1.02292 0
M  V30 12058 C 1156.76 -4.35979 -0.352231 0
M  V30 12059 C 1155.82 -5.10408 -1.27947 0
M  V30 12060 O 1154.84 -5.63974 -0.769561 0
M  V30 12061 N 1156.05 -5.18442 -2.61147 0
M  V30 12062 H 1158.81 -2.8998 0.757094 0
M  V30 12063 H 1156.37 -1.52339 0.548126 0
M  V30 12064 H 1158.36 -3.69755 -1.64509 0
M  V30 12065 H 1156.93 -2.6358 -1.68061 0
M  V30 12066 H 1156.15 -3.91624 0.44992 0
M  V30 12067 H 1157.44 -5.08673 0.113882 0
M  V30 12068 H 1156.84 -4.76381 -3.05087 0
M  V30 12069 H 1155.4 -5.68659 -3.18544 0
M  V30 12070 N 1158.83 -0.446794 -1.51134 0
M  V30 12071 C 1160.24 0.0141132 -1.86695 0
M  V30 12072 C 1160.59 1.41095 -1.36333 0
M  V30 12073 O 1159.72 2.04139 -0.718068 0
M  V30 12074 C 1160.31 0.0323866 -3.38785 0
M  V30 12075 C 1158.87 0.437737 -3.73846 0
M  V30 12076 C 1158.02 -0.363436 -2.74908 0
M  V30 12077 H 1160.97 -0.66221 -1.44224 0
M  V30 12078 H 1160.99 0.839865 -3.71115 0
M  V30 12079 H 1160.5 -0.984374 -3.75409 0
M  V30 12080 H 1158.6 1.45975 -3.42815 0
M  V30 12081 H 1158.72 0.155964 -4.78846 0
M  V30 12082 H 1157.08 0.179566 -2.54066 0
M  V30 12083 H 1157.86 -1.37925 -3.14375 0
M  V30 12084 N 1160.31 1.56586 -0.178487 0
M  V30 12085 C 1161.72 1.83633 0.337009 0
M  V30 12086 C 1162.07 1.09857 1.6256 0
M  V30 12087 O 1161.2 0.353933 2.13486 0
M  V30 12088 C 1161.79 3.33112 0.618225 0
M  V30 12089 C 1160.35 3.60629 1.07814 0
M  V30 12090 C 1159.5 2.7705 0.117825 0
M  V30 12091 H 1162.45 1.53508 -0.402612 0
M  V30 12092 H 1162.47 3.5098 1.46947 0
M  V30 12093 H 1161.98 3.8678 -0.319808 0
M  V30 12094 H 1160.08 3.12378 2.03103 0
M  V30 12095 H 1160.19 4.68921 0.982339 0
M  V30 12096 H 1158.56 2.47125 0.616563 0
M  V30 12097 H 1159.34 3.33501 -0.814356 0
M  V30 12098 N 1161.79 -0.095206 1.57312 0
M  V30 12099 C 1163.01 -0.81614 1.90667 0
M  V30 12100 C 1163.44 -1.71494 0.772746 0
M  V30 12101 O 1162.79 -1.79192 -0.275682 0
M  V30 12102 C 1162.84 -1.60555 3.22885 0
M  V30 12103 O 1161.95 -2.71448 3.10467 0
M  V30 12104 H 1161.29 -0.224217 0.624998 0
M  V30 12105 H 1163.82 -0.070464 2.04479 0
M  V30 12106 H 1163.83 -1.98979 3.5619 0
M  V30 12107 H 1162.5 -0.945918 4.05 0
M  V30 12108 H 1161.08 -2.36053 2.88675 0
M  V30 12109 N 1163.26 -1.53291 -0.366026 0
M  V30 12110 C 1164.23 -1.79025 -1.43117 0
M  V30 12111 C 1165.23 -0.660676 -1.46601 0
M  V30 12112 O 1166.42 -0.928875 -1.47369 0
M  V30 12113 C 1163.55 -1.91192 -2.82238 0
M  V30 12114 H 1164.74 -2.74154 -1.21572 0
M  V30 12115 H 1162.3 -1.44361 -0.599132 0
M  V30 12116 H 1163.03 -0.98129 -3.09097 0
M  V30 12117 H 1162.82 -2.7335 -2.81109 0
M  V30 12118 H 1164.31 -2.12696 -3.59375 0
M  V30 12119 N 1164.74 0.6258 -1.44643 0
M  V30 12120 C 1165.99 1.38125 -1.46984 0
M  V30 12121 C 1166.3 1.95299 -0.108429 0
M  V30 12122 O 1167.51 2.71498 -0.00940005 0
M  V30 12123 C 1165.97 2.50108 -2.58793 0
M  V30 12124 C 1165.57 1.99424 -4.01166 0
M  V30 12125 C 1167.32 3.27269 -2.70361 0
M  V30 12126 C 1165.23 3.08781 -5.04389 0
M  V30 12127 H 1164.16 0.519083 -0.546872 0
M  V30 12128 H 1166.81 0.67268 -1.70726 0
M  V30 12129 H 1165.19 3.23565 -2.28302 0
M  V30 12130 H 1166.36 1.32797 -4.4125 0
M  V30 12131 H 1164.68 1.35063 -3.93887 0
M  V30 12132 H 1167.27 4.08802 -3.44652 0
M  V30 12133 H 1167.62 3.77097 -1.76362 0
M  V30 12134 H 1168.15 2.60905 -3.00289 0
M  V30 12135 H 1164.89 2.63891 -6.00035 0
M  V30 12136 H 1164.41 3.74033 -4.68892 0
M  V30 12137 H 1166.09 3.73469 -5.28328 0
M  V30 12138 N 1166.22 1.31629 0.866686 0
M  V30 12139 C 1167.45 1.24609 1.65793 0
M  V30 12140 C 1167.87 -0.184944 1.87189 0
M  V30 12141 O 1167.23 -1.1322 1.41601 0
M  V30 12142 C 1167.28 1.9988 3.00134 0
M  V30 12143 O 1166.38 1.33838 3.90079 0
M  V30 12144 H 1165.72 0.430051 0.505917 0
M  V30 12145 H 1168.25 1.73752 1.08035 0
M  V30 12146 H 1168.26 2.09599 3.50046 0
M  V30 12147 H 1166.94 3.03947 2.83882 0
M  V30 12148 H 1165.51 1.3259 3.48532 0
M  V30 12149 N 1167.7 -1.08142 1.14644 0
M  V30 12150 C 1169.11 -1.62061 0.926986 0
M  V30 12151 C 1169.46 -1.88805 -0.533578 0
M  V30 12152 O 1168.59 -1.64753 -1.40305 0
M  V30 12153 C 1169.18 -2.94425 1.67629 0
M  V30 12154 C 1167.74 -3.45118 1.50235 0
M  V30 12155 C 1166.89 -2.19307 1.69705 0
M  V30 12156 H 1169.84 -0.913326 1.29785 0
M  V30 12157 H 1169.86 -3.62987 1.14107 0
M  V30 12158 H 1169.37 -2.74928 2.73927 0
M  V30 12159 H 1167.47 -3.69713 0.462967 0
M  V30 12160 H 1167.59 -4.2169 2.27408 0
M  V30 12161 H 1165.95 -2.28611 1.12291 0
M  V30 12162 H 1166.73 -2.02315 2.77351 0
M  V30 12163 N 1169.18 -0.941978 -1.26351 0
M  V30 12164 C 1170.43 -0.588806 -1.93333 0
M  V30 12165 C 1170.75 0.875067 -1.74263 0
M  V30 12166 O 1170.02 1.62187 -1.09873 0
M  V30 12167 H 1168.6 -0.214774 -0.715459 0
M  V30 12168 H 1171.26 -1.19747 -1.53774 0
M  V30 12169 H 1170.35 -0.807267 -3.01479 0
M  V30 12170 N 1170.66 1.40747 -0.709091 0
M  V30 12171 C 1171.57 2.3454 -0.0532205 0
M  V30 12172 C 1172.58 1.56956 0.751057 0
M  V30 12173 O 1173.76 1.89375 0.685509 0
M  V30 12174 C 1170.82 3.35809 0.862157 0
M  V30 12175 C 1169.88 4.29273 0.0485632 0
M  V30 12176 C 1169.12 5.25705 0.920345 0
M  V30 12177 O 1169.34 5.27933 2.15969 0
M  V30 12178 O 1168.27 6.00806 0.3628 0
M  V30 12179 H 1172.1 2.92232 -0.826698 0
M  V30 12180 H 1169.68 1.4183 -0.469519 0
M  V30 12181 H 1171.57 3.97931 1.38668 0
M  V30 12182 H 1170.24 2.8054 1.61489 0
M  V30 12183 H 1169.15 3.70456 -0.520873 0
M  V30 12184 H 1170.48 4.87676 -0.665807 0
M  V30 12185 N 1172.13 0.454803 1.50895 0
M  V30 12186 C 1173.08 -0.361974 2.29766 0
M  V30 12187 C 1174.08 -1.00519 1.36353 0
M  V30 12188 O 1175.28 -0.938159 1.53618 0
M  V30 12189 H 1171.66 -0.135559 0.739681 0
M  V30 12190 H 1173.63 0.323853 2.96637 0
M  V30 12191 C 1172.38 -1.44078 3.16444 0
M  V30 12192 H 1171.7 -0.955212 3.88221 0
M  V30 12193 H 1173.14 -1.98518 3.74655 0
M  V30 12194 C 1171.6 -2.43374 2.32961 0
M  V30 12195 O 1172.13 -3.48295 2.00133 0
M  V30 12196 N 1170.33 -2.14689 1.95849 0
M  V30 12197 H 1169.88 -1.29392 2.22745 0
M  V30 12198 H 1169.84 -2.81363 1.40292 0
M  V30 12199 N 1173.61 -1.56489 0.186789 0
M  V30 12200 C 1174.84 -2.02163 -0.463126 0
M  V30 12201 C 1175.26 -1.06612 -1.54969 0
M  V30 12202 O 1174.62 -0.0482139 -1.81236 0
M  V30 12203 C 1174.67 -3.46337 -1.00416 0
M  V30 12204 O 1173.77 -3.53889 -2.11747 0
M  V30 12205 H 1173.11 -0.65496 -0.109194 0
M  V30 12206 H 1175.64 -2.02459 0.295227 0
M  V30 12207 H 1175.65 -3.85959 -1.32287 0
M  V30 12208 H 1174.33 -4.15376 -0.208693 0
M  V30 12209 H 1172.9 -3.26136 -1.80803 0
M  V30 12210 N 1175.09 0.086862 -1.5736 0
M  V30 12211 C 1176.04 1.10478 -2.02641 0
M  V30 12212 C 1177.01 1.39331 -0.904219 0
M  V30 12213 O 1178.19 1.50654 -1.17081 0
M  V30 12214 C 1175.33 2.41754 -2.4627 0
M  V30 12215 C 1174.44 2.19561 -3.72044 0
M  V30 12216 C 1173.58 3.44294 -4.04519 0
M  V30 12217 C 1172.62 3.17399 -5.23378 0
M  V30 12218 N 1171.76 4.3442 -5.51564 0
M  V30 12219 H 1176.6 0.711663 -2.89378 0
M  V30 12220 H 1174.13 0.339856 -1.4312 0
M  V30 12221 H 1176.09 3.18378 -2.69613 0
M  V30 12222 H 1174.72 2.78896 -1.62532 0
M  V30 12223 H 1173.77 1.337 -3.5613 0
M  V30 12224 H 1175.08 1.95685 -4.58812 0
M  V30 12225 H 1174.24 4.29321 -4.28682 0
M  V30 12226 H 1172.98 3.71232 -3.16289 0
M  V30 12227 H 1171.98 2.30765 -4.99026 0
M  V30 12228 H 1173.21 2.91799 -6.13213 0
M  V30 12229 H 1171.15 4.61418 -4.66293 0
M  V30 12230 H 1171.07 4.13764 -6.3272 0
M  V30 12231 H 1172.34 5.20489 -5.80269 0
M  V30 12232 N 1176.57 1.53483 0.357892 0
M  V30 12233 C 1177.79 1.74264 1.12458 0
M  V30 12234 C 1178.22 0.473944 1.82031 0
M  V30 12235 O 1177.58 -0.57253 1.72023 0
M  V30 12236 C 1177.62 2.91356 2.12471 0
M  V30 12237 O 1176.73 2.60502 3.19707 0
M  V30 12238 H 1176.07 0.578499 0.325937 0
M  V30 12239 H 1178.6 2.00395 0.412666 0
M  V30 12240 H 1178.61 3.1774 2.5594 0
M  V30 12241 H 1177.28 3.83378 1.61226 0
M  V30 12242 H 1175.86 2.44961 2.81156 0
M  V30 12243 N 1178.05 -0.61812 1.44973 0
M  V30 12244 C 1179.46 -0.937734 1.29146 0
M  V30 12245 C 1179.66 -2.00104 0.236749 0
M  V30 12246 O 1178.72 -2.49731 -0.372923 0
M  V30 12247 C 1180.03 -1.38865 2.66715 0
M  V30 12248 C 1181.58 -1.50343 2.74529 0
M  V30 12249 C 1182.05 -1.98814 4.12598 0
M  V30 12250 N 1183.54 -2.06064 4.14839 0
M  V30 12251 C 1184.28 -2.44768 5.18533 0
M  V30 12252 N 1183.78 -2.82516 6.32579 0
M  V30 12253 N 1185.57 -2.45016 5.05889 0
M  V30 12254 H 1177.72 0.084872 2.1223 0
M  V30 12255 H 1179.98 -0.0246744 0.947679 0
M  V30 12256 H 1179.69 -0.681583 3.45032 0
M  V30 12257 H 1179.56 -2.3572 2.94475 0
M  V30 12258 H 1181.95 -2.20144 1.96522 0
M  V30 12259 H 1182.03 -0.518297 2.50494 0
M  V30 12260 H 1181.67 -1.29604 4.91086 0
M  V30 12261 H 1181.6 -2.98223 4.34017 0
M  V30 12262 H 1184.1 -1.79525 3.32535 0
M  V30 12263 H 1184.41 -3.109 7.07504 0
M  V30 12264 H 1182.75 -2.80237 6.35997 0
M  V30 12265 H 1185.94 -2.14925 4.15842 0
M  V30 12266 H 1186.12 -2.74854 5.86821 0
M  V30 12267 N 1179.52 -1.32087 -0.859693 0
M  V30 12268 C 1180.77 -1.2236 -1.61351 0
M  V30 12269 C 1181.1 0.215796 -1.93299 0
M  V30 12270 O 1180.35 1.16742 -1.57066 0
M  V30 12271 C 1180.65 -2.0234 -2.94607 0
M  V30 12272 C 1180.32 -3.51746 -2.82109 0
M  V30 12273 C 1178.98 -3.92482 -2.78408 0
M  V30 12274 C 1181.33 -4.46776 -2.68403 0
M  V30 12275 C 1178.66 -5.265 -2.58873 0
M  V30 12276 C 1181.01 -5.80931 -2.50404 0
M  V30 12277 C 1179.68 -6.20875 -2.45092 0
M  V30 12278 H 1178.95 -0.447748 -0.590426 0
M  V30 12279 H 1181.59 -1.63461 -0.997637 0
M  V30 12280 H 1179.9 -1.53952 -3.60286 0
M  V30 12281 H 1181.6 -1.92187 -3.51945 0
M  V30 12282 H 1178.19 -3.19389 -2.85812 0
M  V30 12283 H 1182.37 -4.16228 -2.70311 0
M  V30 12284 H 1177.63 -5.5651 -2.53192 0
M  V30 12285 H 1181.8 -6.54185 -2.38777 0
M  V30 12286 H 1179.43 -7.24662 -2.29714 0
M  V30 12287 N 1181 1.07532 -1.15215 0
M  V30 12288 C 1182.41 1.61567 -0.935568 0
M  V30 12289 C 1182.76 1.89085 0.523557 0
M  V30 12290 O 1181.89 1.65495 1.39429 0
M  V30 12291 C 1182.48 2.93531 -1.69189 0
M  V30 12292 C 1181.04 3.44316 -1.52063 0
M  V30 12293 C 1180.19 2.18404 -1.70866 0
M  V30 12294 H 1183.14 0.906431 -1.30267 0
M  V30 12295 H 1183.16 3.62377 -1.16031 0
M  V30 12296 H 1182.67 2.73471 -2.75381 0
M  V30 12297 H 1180.77 3.69462 -0.482567 0
M  V30 12298 H 1180.89 4.20478 -2.29642 0
M  V30 12299 H 1179.25 2.28012 -1.13502 0
M  V30 12300 H 1180.03 2.00841 -2.7842 0
M  V30 12301 N 1182.48 0.948665 1.2585 0
M  V30 12302 C 1183.89 0.641829 1.75321 0
M  V30 12303 C 1184.24 -0.842903 1.77171 0
M  V30 12304 O 1183.37 -1.65967 1.38867 0
M  V30 12305 C 1183.96 1.15835 3.18383 0
M  V30 12306 C 1182.52 0.901784 3.65438 0
M  V30 12307 C 1181.67 1.30489 2.44679 0
M  V30 12308 H 1184.62 1.12614 1.1182 0
M  V30 12309 H 1184.64 0.515639 3.7699 0
M  V30 12310 H 1184.15 2.23897 3.17004 0
M  V30 12311 H 1182.25 -0.164135 3.72238 0
M  V30 12312 H 1182.37 1.53405 4.53876 0
M  V30 12313 H 1180.73 0.723278 2.44215 0
M  V30 12314 H 1181.51 2.3946 2.45996 0
M  V30 12315 N 1183.96 -1.40369 0.716545 0
M  V30 12316 C 1184.89 -2.29186 0.0251905 0
M  V30 12317 C 1185.9 -1.45877 -0.722761 0
M  V30 12318 O 1187.09 -1.69155 -0.569982 0
M  V30 12319 C 1184.19 -3.24161 -0.988589 0
M  V30 12320 C 1183.37 -4.36329 -0.30597 0
M  V30 12321 C 1182.42 -5.11736 -1.22527 0
M  V30 12322 O 1181.45 -5.64758 -0.7097 0
M  V30 12323 N 1182.65 -5.21183 -2.55634 0
M  V30 12324 H 1185.42 -2.8916 0.787808 0
M  V30 12325 H 1182.98 -1.51749 0.564253 0
M  V30 12326 H 1184.97 -3.71479 -1.60578 0
M  V30 12327 H 1183.54 -2.65347 -1.65256 0
M  V30 12328 H 1182.76 -3.91125 0.491432 0
M  V30 12329 H 1184.05 -5.08523 0.167827 0
M  V30 12330 H 1183.45 -4.7959 -3.00017 0
M  V30 12331 H 1182 -5.72005 -3.12495 0
M  V30 12332 N 1185.44 -0.462799 -1.50652 0
M  V30 12333 C 1186.68 0.0938945 -2.04184 0
M  V30 12334 C 1187.04 1.37726 -1.33774 0
M  V30 12335 O 1188.24 2.01581 -1.77817 0
M  V30 12336 C 1186.51 0.281884 -3.56287 0
M  V30 12337 S 1188.07 0.798326 -4.31477 0
M  V30 12338 H 1184.89 0.0198719 -0.710722 0
M  V30 12339 H 1187.49 -0.62804 -1.85138 0
M  V30 12340 H 1186.2 -0.658084 -4.05089 0
M  V30 12341 H 1185.73 1.03017 -3.79672 0
M  V30 12342 H 1187.74 2.07281 -4.50832 0
M  V30 12343 N 1186.91 1.56388 -0.195085 0
M  V30 12344 C 1188.14 2.0167 0.448637 0
M  V30 12345 C 1188.55 1.07439 1.55736 0
M  V30 12346 O 1187.9 0.071441 1.83561 0
M  V30 12347 C 1187.96 3.43348 1.06547 0
M  V30 12348 C 1187.62 4.569 0.0954901 0
M  V30 12349 C 1188.62 5.15232 -0.695116 0
M  V30 12350 C 1186.3 5.02298 -0.0155889 0
M  V30 12351 C 1188.3 6.1741 -1.58377 0
M  V30 12352 C 1185.98 6.0432 -0.907799 0
M  V30 12353 C 1186.98 6.6175 -1.69045 0
M  V30 12354 O 1186.67 7.6179 -2.56771 0
M  V30 12355 H 1186.4 0.665805 0.116962 0
M  V30 12356 H 1188.96 2.03182 -0.301062 0
M  V30 12357 H 1187.19 3.38823 1.86376 0
M  V30 12358 H 1188.88 3.72438 1.61385 0
M  V30 12359 H 1189.64 4.81026 -0.619604 0
M  V30 12360 H 1185.52 4.57293 0.583424 0
M  V30 12361 H 1189.06 6.62164 -2.1951 0
M  V30 12362 H 1184.96 6.37949 -0.984427 0
M  V30 12363 H 1185.73 7.79209 -2.50551 0
M  V30 12364 N 1188.39 -0.0785156 1.57404 0
M  V30 12365 C 1189.36 -1.07835 2.02248 0
M  V30 12366 C 1190.36 -1.31987 0.918475 0
M  V30 12367 O 1191.55 -1.27821 1.18353 0
M  V30 12368 C 1188.68 -2.42361 2.39737 0
M  V30 12369 H 1189.87 -0.691995 2.91807 0
M  V30 12370 H 1187.42 -0.32405 1.52904 0
M  V30 12371 H 1188.16 -2.85841 1.53183 0
M  V30 12372 H 1187.94 -2.26174 3.20293 0
M  V30 12373 H 1189.43 -3.14241 2.75031 0
M  V30 12374 N 1189.87 -1.5367 -0.349747 0
M  V30 12375 C 1191.1 -1.74547 -1.11089 0
M  V30 12376 C 1191.51 -0.481741 -1.82551 0
M  V30 12377 O 1190.87 0.546272 -1.74132 0
M  V30 12378 C 1190.92 -2.92148 -2.12913 0
M  V30 12379 O 1190.64 -4.13633 -1.44358 0
M  V30 12380 C 1192.14 -3.25027 -3.01451 0
M  V30 12381 H 1189.36 -0.583376 -0.331532 0
M  V30 12382 H 1191.91 -2.00473 -0.403841 0
M  V30 12383 H 1190.06 -2.68572 -2.79192 0
M  V30 12384 H 1190.48 -4.79601 -2.12329 0
M  V30 12385 H 1191.95 -4.10679 -3.68845 0
M  V30 12386 H 1192.43 -2.41064 -3.67131 0
M  V30 12387 H 1193.03 -3.50586 -2.40768 0
M  V30 12388 N 1191.35 0.610423 -1.45298 0
M  V30 12389 C 1192.28 1.73507 -1.4976 0
M  V30 12390 C 1193.29 1.58092 -0.38867 0
M  V30 12391 O 1194.48 1.66026 -0.655571 0
M  V30 12392 C 1191.58 3.11475 -1.33554 0
M  V30 12393 C 1190.76 3.53156 -2.5807 0
M  V30 12394 C 1189.81 4.70076 -2.36463 0
M  V30 12395 O 1188.84 4.77337 -3.10061 0
M  V30 12396 N 1190.04 5.63155 -1.40843 0
M  V30 12397 H 1192.81 1.70144 -2.46721 0
M  V30 12398 H 1190.37 0.79562 -1.41002 0
M  V30 12399 H 1192.36 3.87444 -1.16914 0
M  V30 12400 H 1190.93 3.09361 -0.448803 0
M  V30 12401 H 1190.15 2.67178 -2.89844 0
M  V30 12402 H 1191.44 3.77761 -3.40843 0
M  V30 12403 H 1190.84 5.60001 -0.800982 0
M  V30 12404 H 1189.39 6.38669 -1.30175 0
M  V30 12405 N 1192.83 1.32541 0.852676 0
M  V30 12406 C 1194.06 1.26037 1.63702 0
M  V30 12407 C 1194.46 -0.173583 1.88402 0
M  V30 12408 O 1193.81 -1.12175 1.45473 0
M  V30 12409 C 1193.87 1.95245 3.01861 0
M  V30 12410 C 1193.53 3.44576 3.00193 0
M  V30 12411 C 1194.53 4.40026 2.76899 0
M  V30 12412 C 1192.22 3.86541 3.20766 0
M  V30 12413 C 1194.21 5.75414 2.74185 0
M  V30 12414 C 1191.9 5.22038 3.17678 0
M  V30 12415 C 1192.89 6.16286 2.94416 0
M  V30 12416 O 1192.58 7.49303 2.91206 0
M  V30 12417 H 1192.31 0.436073 0.516543 0
M  V30 12418 H 1194.87 1.75251 1.07127 0
M  V30 12419 H 1193.1 1.40603 3.60233 0
M  V30 12420 H 1194.79 1.82423 3.62597 0
M  V30 12421 H 1195.55 4.0893 2.6077 0
M  V30 12422 H 1191.43 3.13603 3.37897 0
M  V30 12423 H 1194.98 6.4895 2.55947 0
M  V30 12424 H 1190.87 5.52762 3.33353 0
M  V30 12425 H 1191.64 7.58686 3.07146 0
M  V30 12426 N 1194.3 -1.0692 1.15784 0
M  V30 12427 C 1195.24 -2.14168 0.816375 0
M  V30 12428 C 1196.25 -1.61872 -0.17357 0
M  V30 12429 O 1197.44 -1.78429 0.0502973 0
M  V30 12430 C 1194.54 -3.38346 0.193682 0
M  V30 12431 C 1193.71 -4.19979 1.22215 0
M  V30 12432 C 1192.77 -5.2253 0.620424 0
M  V30 12433 O 1191.8 -5.54446 1.28757 0
M  V30 12434 N 1193 -5.77434 -0.595811 0
M  V30 12435 H 1195.76 -2.44062 1.73937 0
M  V30 12436 H 1193.32 -1.22865 1.05431 0
M  V30 12437 H 1195.32 -4.04092 -0.22174 0
M  V30 12438 H 1193.89 -3.06129 -0.632735 0
M  V30 12439 H 1193.11 -3.49984 1.81397 0
M  V30 12440 H 1194.39 -4.71329 1.91641 0
M  V30 12441 H 1193.79 -5.5376 -1.15611 0
M  V30 12442 H 1192.35 -6.44788 -0.953529 0
M  V30 12443 N 1195.78 -0.955326 -1.25345 0
M  V30 12444 C 1197.06 -0.527828 -1.88344 0
M  V30 12445 C 1197.44 0.994911 -1.86185 0
M  V30 12446 O 1196.79 1.86099 -1.32587 0
M  V30 12447 C 1197 -1.10525 -3.31037 0
M  V30 12448 C 1198.35 -1.18253 -4.07801 0
M  V30 12449 O 1199.37 -1.05685 -3.4016 0
M  V30 12450 O 1198.23 -1.37978 -5.28795 0
M  V30 12451 H 1195.32 -0.174206 -0.808444 0
M  V30 12452 H 1197.87 -1.0488 -1.3341 0
M  V30 12453 H 1196.64 -2.14847 -3.27042 0
M  V30 12454 H 1196.26 -0.567568 -3.93528 0
M  V30 12455 N 1197.26 1.39987 -0.723979 0
M  V30 12456 C 1198.49 2.0474 -0.276618 0
M  V30 12457 C 1198.9 1.54675 1.0896 0
M  V30 12458 O 1198.24 0.701956 1.69759 0
M  V30 12459 C 1198.3 3.59009 -0.187912 0
M  V30 12460 C 1197.97 4.32 -1.49079 0
M  V30 12461 C 1198.97 4.59385 -2.43436 0
M  V30 12462 C 1196.65 4.70753 -1.75204 0
M  V30 12463 C 1198.64 5.24519 -3.62159 0
M  V30 12464 C 1196.33 5.35617 -2.94206 0
M  V30 12465 C 1197.33 5.62431 -3.87506 0
M  V30 12466 O 1197.02 6.25952 -5.0442 0
M  V30 12467 H 1196.75 0.665164 -0.120554 0
M  V30 12468 H 1199.3 1.80226 -0.98527 0
M  V30 12469 H 1197.53 3.82375 0.576753 0
M  V30 12470 H 1199.22 4.0527 0.225993 0
M  V30 12471 H 1199.99 4.29902 -2.24519 0
M  V30 12472 H 1195.87 4.49247 -1.03433 0
M  V30 12473 H 1199.41 5.45364 -4.34999 0
M  V30 12474 H 1195.31 5.64521 -3.13029 0
M  V30 12475 H 1196.08 6.44448 -5.04608 0
M  V30 12476 N 1198.74 0.470782 1.50404 0
M  V30 12477 C 1199.96 -0.084284 2.07229 0
M  V30 12478 C 1200.39 -1.32774 1.33239 0
M  V30 12479 O 1199.75 -1.77274 0.379971 0
M  V30 12480 C 1199.8 -0.351565 3.58882 0
M  V30 12481 O 1198.9 -1.43211 3.86736 0
M  V30 12482 H 1198.24 0.0128479 0.663876 0
M  V30 12483 H 1200.77 0.661735 1.93603 0
M  V30 12484 H 1200.78 -0.592151 4.0368 0
M  V30 12485 H 1199.46 0.557084 4.12152 0
M  V30 12486 H 1198.03 -1.17886 3.53776 0
M  V30 12487 N 1200.22 -1.56282 0.203376 0
M  V30 12488 C 1201.15 -2.2247 -0.709183 0
M  V30 12489 C 1202.13 -1.19046 -1.21499 0
M  V30 12490 O 1203.31 -1.47578 -1.26231 0
M  V30 12491 C 1200.44 -2.8905 -1.92529 0
M  V30 12492 C 1199.4 -3.98789 -1.55407 0
M  V30 12493 C 1198.72 -4.52574 -2.84747 0
M  V30 12494 C 1200.02 -5.16774 -0.75775 0
M  V30 12495 H 1201.72 -2.98986 -0.157392 0
M  V30 12496 H 1199.26 -1.43808 -0.0742613 0
M  V30 12497 H 1201.22 -3.34038 -2.56898 0
M  V30 12498 H 1199.94 -2.09952 -2.50175 0
M  V30 12499 H 1198.6 -3.54504 -0.933928 0
M  V30 12500 H 1198.25 -3.70229 -3.40499 0
M  V30 12501 H 1197.95 -5.26627 -2.6065 0
M  V30 12502 H 1199.47 -5.00269 -3.5009 0
M  V30 12503 H 1200.89 -5.58256 -1.30472 0
M  V30 12504 H 1199.28 -5.96945 -0.614583 0
M  V30 12505 H 1200.35 -4.84308 0.239476 0
M  V30 12506 N 1201.7 0.070167 -1.57444 0
M  V30 12507 C 1202.92 0.785703 -1.91941 0
M  V30 12508 C 1203.35 1.70243 -0.799932 0
M  V30 12509 O 1202.7 1.79608 0.247139 0
M  V30 12510 C 1202.75 1.55398 -3.25398 0
M  V30 12511 O 1201.86 2.66475 -3.14746 0
M  V30 12512 H 1201.2 0.214245 -0.628486 0
M  V30 12513 H 1203.73 0.0379243 -2.04565 0
M  V30 12514 H 1203.74 1.93287 -3.5931 0
M  V30 12515 H 1202.41 0.881366 -4.06454 0
M  V30 12516 H 1200.99 2.3143 -2.92394 0
M  V30 12517 N 1203.17 1.53854 0.341593 0
M  V30 12518 C 1204.4 1.75447 1.10604 0
M  V30 12519 C 1204.82 0.493225 1.81518 0
M  V30 12520 O 1204.18 -0.554253 1.7262 0
M  V30 12521 C 1204.23 2.93593 2.09369 0
M  V30 12522 O 1203.33 2.63878 3.16926 0
M  V30 12523 H 1202.67 0.581923 0.319783 0
M  V30 12524 H 1205.2 2.00822 0.391388 0
M  V30 12525 H 1205.21 3.20437 2.52556 0
M  V30 12526 H 1203.89 3.85067 1.57151 0
M  V30 12527 H 1202.47 2.47929 2.78542 0
M  V30 12528 N 1204.65 -0.602709 1.4562 0
M  V30 12529 C 1205.61 -1.69508 1.54271 0
M  V30 12530 C 1206.61 -1.55171 0.421727 0
M  V30 12531 O 1207.8 -1.60151 0.685375 0
M  V30 12532 C 1204.94 -3.0881 1.44392 0
M  V30 12533 H 1206.13 -1.63203 2.51605 0
M  V30 12534 H 1203.68 -0.818857 1.33133 0
M  V30 12535 H 1204.42 -3.20689 0.482614 0
M  V30 12536 H 1204.2 -3.20625 2.25704 0
M  V30 12537 H 1205.69 -3.8837 1.53488 0
M  V30 12538 N 1206.13 -1.32992 -0.845635 0
M  V30 12539 C 1207.08 -1.19256 -1.94325 0
M  V30 12540 C 1208.06 -0.0971701 -1.60606 0
M  V30 12541 O 1209.26 -0.324591 -1.73998 0
M  V30 12542 C 1206.38 -0.927027 -3.30547 0
M  V30 12543 C 1205.47 -2.06454 -3.70456 0
M  V30 12544 N 1205.86 -3.31393 -3.82116 0
M  V30 12545 C 1204.16 -1.96972 -4.00147 0
M  V30 12546 C 1204.86 -4.05955 -4.16624 0
M  V30 12547 N 1203.84 -3.34332 -4.28629 0
M  V30 12548 H 1207.64 -2.13965 -2.01485 0
M  V30 12549 H 1205.15 -1.24901 -1.03795 0
M  V30 12550 H 1207.15 -0.809565 -4.08964 0
M  V30 12551 H 1205.81 0.011597 -3.24698 0
M  V30 12552 H 1206.82 -3.66222 -3.662 0
M  V30 12553 H 1203.5 -1.10728 -4.02549 0
M  V30 12554 H 1204.89 -5.13738 -4.33039 0
M  V30 12555 N 1207.61 1.06304 -1.1635 0
M  V30 12556 C 1208.55 2.13776 -0.869965 0
M  V30 12557 C 1209.52 1.65105 0.181541 0
M  V30 12558 O 1210.71 1.90743 0.0467705 0
M  V30 12559 C 1207.85 3.43034 -0.377077 0
M  V30 12560 C 1206.96 4.0544 -1.4914 0
M  V30 12561 C 1206.1 5.22572 -0.953538 0
M  V30 12562 C 1205.14 5.76961 -2.04407 0
M  V30 12563 N 1204.27 6.85409 -1.52181 0
M  V30 12564 H 1209.11 2.38224 -1.79034 0
M  V30 12565 H 1206.65 1.16882 -0.893136 0
M  V30 12566 H 1208.61 4.17136 -0.0729426 0
M  V30 12567 H 1207.24 3.18804 0.506359 0
M  V30 12568 H 1206.29 3.28886 -1.9115 0
M  V30 12569 H 1207.6 4.41859 -2.31434 0
M  V30 12570 H 1206.76 6.037 -0.602579 0
M  V30 12571 H 1205.5 4.87598 -0.099897 0
M  V30 12572 H 1204.5 4.9447 -2.40373 0
M  V30 12573 H 1205.73 6.13987 -2.90167 0
M  V30 12574 H 1203.67 6.52354 -0.690697 0
M  V30 12575 H 1203.59 7.2077 -2.28092 0
M  V30 12576 H 1204.86 7.70217 -1.19942 0
M  V30 12577 N 1209.09 0.96196 1.24836 0
M  V30 12578 C 1210.33 0.621634 1.93038 0
M  V30 12579 C 1210.66 -0.840257 1.75081 0
M  V30 12580 O 1209.94 -1.60381 1.10038 0
M  V30 12581 C 1210.22 0.990107 3.46221 0
M  V30 12582 C 1210.08 2.50827 3.73371 0
M  V30 12583 C 1211.39 0.520478 4.37011 0
M  V30 12584 H 1208.51 0.227312 0.701069 0
M  V30 12585 H 1211.16 1.19993 1.47315 0
M  V30 12586 H 1209.31 0.498008 3.85295 0
M  V30 12587 H 1210.98 3.07469 3.4389 0
M  V30 12588 H 1209.22 2.94277 3.18722 0
M  V30 12589 H 1209.89 2.71659 4.80526 0
M  V30 12590 H 1212.37 0.942703 4.05281 0
M  V30 12591 H 1211.24 0.806918 5.42937 0
M  V30 12592 H 1211.5 -0.579507 4.38285 0
M  V30 12593 N 1210.56 -1.39601 0.731392 0
M  V30 12594 C 1211.79 -2.05411 0.286532 0
M  V30 12595 C 1212.21 -1.54777 -1.06892 0
M  V30 12596 O 1211.57 -0.689942 -1.67659 0
M  V30 12597 C 1211.62 -3.594 0.293914 0
M  V30 12598 O 1210.72 -4.06072 -0.719657 0
M  V30 12599 H 1210.06 -0.650949 0.131004 0
M  V30 12600 H 1212.59 -1.78703 0.996305 0
M  V30 12601 H 1212.6 -4.0777 0.137052 0
M  V30 12602 H 1211.28 -3.95617 1.28298 0
M  V30 12603 H 1209.86 -3.69125 -0.529226 0
M  V30 12604 N 1212.04 -0.478751 -1.50152 0
M  V30 12605 C 1213.29 0.0734397 -2.01967 0
M  V30 12606 C 1213.61 1.39523 -1.36229 0
M  V30 12607 O 1212.88 1.89141 -0.510149 0
M  V30 12608 H 1211.46 0.0301305 -0.746392 0
M  V30 12609 H 1214.12 -0.630921 -1.84406 0
M  V30 12610 H 1213.22 0.21937 -3.11328 0
M  V30 12611 N 1213.52 1.56172 -0.211661 0
M  V30 12612 C 1214.45 2.15791 0.74225 0
M  V30 12613 C 1215.43 1.0994 1.198 0
M  V30 12614 O 1216.62 1.38143 1.28253 0
M  V30 12615 C 1213.74 2.73021 2.00443 0
M  V30 12616 C 1212.79 3.91611 1.68946 0
M  V30 12617 S 1213.62 5.29139 0.822949 0
M  V30 12618 C 1214.78 5.898 2.09491 0
M  V30 12619 H 1215.01 2.96366 0.235482 0
M  V30 12620 H 1212.54 1.544 0.0035357 0
M  V30 12621 H 1214.5 3.06635 2.7292 0
M  V30 12622 H 1213.16 1.92457 2.48232 0
M  V30 12623 H 1212.36 4.30122 2.62699 0
M  V30 12624 H 1211.96 3.59093 1.04539 0
M  V30 12625 H 1214.25 6.05172 3.04587 0
M  V30 12626 H 1215.19 6.86036 1.75386 0
M  V30 12627 H 1215.6 5.18546 2.23093 0
M  V30 12628 N 1215 -0.0618163 1.57479 0
M  V30 12629 C 1215.96 -1.05684 2.0338 0
M  V30 12630 C 1216.96 -1.31006 0.932423 0
M  V30 12631 O 1218.15 -1.26559 1.19702 0
M  V30 12632 C 1215.28 -2.39805 2.42294 0
M  V30 12633 H 1216.48 -0.661006 2.92525 0
M  V30 12634 H 1214.03 -0.307814 1.53239 0
M  V30 12635 H 1214.76 -2.84201 1.56207 0
M  V30 12636 H 1214.55 -2.22764 3.22674 0
M  V30 12637 H 1216.04 -3.11307 2.78349 0
M  V30 12638 N 1216.48 -1.54033 -0.333429 0
M  V30 12639 C 1217.7 -1.76031 -1.09672 0
M  V30 12640 C 1218.13 -0.502844 -1.81254 0
M  V30 12641 O 1217.48 0.54509 -1.72912 0
M  V30 12642 C 1217.53 -2.947 -2.07809 0
M  V30 12643 O 1216.64 -2.65555 -3.15522 0
M  V30 12644 H 1215.98 -0.583611 -0.316692 0
M  V30 12645 H 1218.51 -2.01026 -0.380732 0
M  V30 12646 H 1218.52 -3.21771 -2.50853 0
M  V30 12647 H 1217.19 -3.85895 -1.55106 0
M  V30 12648 H 1215.77 -2.49403 -2.77223 0
M  V30 12649 N 1217.95 0.594978 -1.45938 0
M  V30 12650 C 1219.37 0.917069 -1.30622 0
M  V30 12651 C 1219.57 1.99702 -0.268554 0
M  V30 12652 O 1218.63 2.50293 0.333146 0
M  V30 12653 C 1219.94 1.34604 -2.68891 0
M  V30 12654 C 1221.49 1.45957 -2.76886 0
M  V30 12655 C 1221.96 1.92225 -4.15708 0
M  V30 12656 N 1223.45 1.99439 -4.18065 0
M  V30 12657 C 1224.19 2.36488 -5.22361 0
M  V30 12658 N 1223.68 2.72416 -6.36994 0
M  V30 12659 N 1225.48 2.36936 -5.09723 0
M  V30 12660 H 1217.63 -0.118625 -2.12068 0
M  V30 12661 H 1219.89 0.00959453 -0.947951 0
M  V30 12662 H 1219.6 0.626605 -3.46073 0
M  V30 12663 H 1219.47 2.31006 -2.98188 0
M  V30 12664 H 1221.86 2.16989 -1.99999 0
M  V30 12665 H 1221.94 0.47838 -2.51287 0
M  V30 12666 H 1221.58 1.21775 -4.93085 0
M  V30 12667 H 1221.51 2.9128 -4.38707 0
M  V30 12668 H 1224 1.74212 -3.35349 0
M  V30 12669 H 1224.32 2.99604 -7.1236 0
M  V30 12670 H 1222.66 2.70083 -6.40375 0
M  V30 12671 H 1225.85 2.08282 -4.19209 0
M  V30 12672 H 1226.03 2.65483 -5.9112 0
M  V30 12673 N 1219.43 1.33438 0.838571 0
M  V30 12674 C 1220.36 1.26344 1.96365 0
M  V30 12675 C 1221.34 0.143956 1.6949 0
M  V30 12676 O 1222.53 0.333779 1.9131 0
M  V30 12677 C 1219.66 1.0022 3.32526 0
M  V30 12678 C 1218.61 2.08466 3.73799 0
M  V30 12679 C 1217.94 1.67555 5.07769 0
M  V30 12680 C 1219.24 3.50144 3.87552 0
M  V30 12681 H 1220.93 2.20478 2.02558 0
M  V30 12682 H 1218.48 1.06139 0.973168 0
M  V30 12683 H 1220.43 0.939068 4.10803 0
M  V30 12684 H 1219.16 0.0252514 3.2659 0
M  V30 12685 H 1217.81 2.13822 2.97785 0
M  V30 12686 H 1217.46 0.685619 4.98305 0
M  V30 12687 H 1217.16 2.39993 5.36356 0
M  V30 12688 H 1218.69 1.62708 5.88522 0
M  V30 12689 H 1220.1 3.47287 4.56141 0
M  V30 12690 H 1218.5 4.21069 4.27575 0
M  V30 12691 H 1219.57 3.88628 2.89994 0
M  V30 12692 N 1220.91 -1.05686 1.16912 0
M  V30 12693 C 1221.84 -2.15268 0.904532 0
M  V30 12694 C 1222.82 -1.69424 -0.151548 0
M  V30 12695 O 1224.01 -1.942 -0.00235371 0
M  V30 12696 C 1221.14 -3.44853 0.411581 0
M  V30 12697 C 1220.09 -4.04237 1.40628 0
M  V30 12698 C 1219.42 -5.29105 0.771479 0
M  V30 12699 C 1220.72 -4.42303 2.77787 0
M  V30 12700 H 1222.41 -2.37659 1.82094 0
M  V30 12701 H 1219.96 -1.14217 0.876947 0
M  V30 12702 H 1221.91 -4.20857 0.213929 0
M  V30 12703 H 1220.63 -3.22099 -0.540352 0
M  V30 12704 H 1219.29 -3.30297 1.59058 0
M  V30 12705 H 1218.94 -5.02652 -0.187133 0
M  V30 12706 H 1218.64 -5.69797 1.43545 0
M  V30 12707 H 1220.16 -6.07801 0.583988 0
M  V30 12708 H 1221.58 -5.09362 2.63103 0
M  V30 12709 H 1219.98 -4.93997 3.40716 0
M  V30 12710 H 1221.05 -3.52877 3.32575 0
M  V30 12711 N 1222.39 -0.968567 -1.24324 0
M  V30 12712 C 1223.64 -0.629682 -1.9204 0
M  V30 12713 C 1223.96 0.837906 -1.7608 0
M  V30 12714 O 1223.23 1.5982 -1.13289 0
M  V30 12715 H 1221.81 -0.229901 -0.710742 0
M  V30 12716 H 1224.47 -1.22982 -1.512 0
M  V30 12717 H 1223.57 -0.871034 -2.99699 0
M  V30 12718 N 1223.87 1.39211 -0.738786 0
M  V30 12719 C 1225.28 1.83237 -0.357916 0
M  V30 12720 C 1225.63 1.61698 1.11123 0
M  V30 12721 O 1224.75 1.11017 1.85753 0
M  V30 12722 C 1225.35 3.32645 -0.64285 0
M  V30 12723 C 1223.91 3.75076 -0.315432 0
M  V30 12724 C 1223.05 2.62166 -0.903556 0
M  V30 12725 H 1226.01 1.2815 -0.936127 0
M  V30 12726 H 1226.03 3.80407 0.0840812 0
M  V30 12727 H 1225.54 3.4829 -1.71218 0
M  V30 12728 H 1223.64 3.65017 0.747907 0
M  V30 12729 H 1223.75 4.72363 -0.800638 0
M  V30 12730 H 1222.12 2.52554 -0.329927 0
M  V30 12731 H 1222.9 2.80616 -1.97761 0
M  V30 12732 N 1225.34 0.486708 1.49896 0
M  V30 12733 C 1226.57 -0.0622999 2.07306 0
M  V30 12734 C 1226.99 -1.31353 1.3464 0
M  V30 12735 O 1226.35 -1.76861 0.398752 0
M  V30 12736 C 1226.4 -0.313481 3.59235 0
M  V30 12737 O 1225.5 -1.39101 3.88233 0
M  V30 12738 H 1224.85 0.0198885 0.663702 0
M  V30 12739 H 1227.38 0.682232 1.92891 0
M  V30 12740 H 1227.39 -0.549302 4.04285 0
M  V30 12741 H 1226.06 0.600767 4.11538 0
M  V30 12742 H 1224.64 -1.14127 3.55006 0
M  V30 12743 N 1226.82 -1.56058 0.219941 0
M  V30 12744 C 1228.07 -1.9826 -0.412197 0
M  V30 12745 C 1228.4 -1.10754 -1.59887 0
M  V30 12746 O 1227.65 -0.15212 -1.95108 0
M  V30 12747 C 1227.95 -3.46113 -0.8911 0
M  V30 12748 C 1227.62 -4.50521 0.184877 0
M  V30 12749 C 1226.28 -4.78795 0.480462 0
M  V30 12750 C 1228.63 -5.13147 0.912652 0
M  V30 12751 C 1225.96 -5.66979 1.50837 0
M  V30 12752 C 1228.31 -6.02444 1.92988 0
M  V30 12753 C 1226.98 -6.29063 2.2324 0
M  V30 12754 H 1226.25 -0.725486 -0.150834 0
M  V30 12755 H 1228.89 -1.88771 0.322122 0
M  V30 12756 H 1227.2 -3.52797 -1.70415 0
M  V30 12757 H 1228.9 -3.76137 -1.39003 0
M  V30 12758 H 1225.49 -4.28564 -0.0556594 0
M  V30 12759 H 1229.67 -4.91374 0.697532 0
M  V30 12760 H 1224.93 -5.85868 1.74839 0
M  V30 12761 H 1229.1 -6.50022 2.49889 0
M  V30 12762 H 1226.73 -6.97191 3.03032 0
M  V30 12763 N 1228.3 0.053464 -1.57509 0
M  V30 12764 C 1229.21 1.07902 -2.08313 0
M  V30 12765 C 1230.23 1.41223 -1.01647 0
M  V30 12766 O 1231.4 1.51032 -1.33233 0
M  V30 12767 C 1228.47 2.36813 -2.5322 0
M  V30 12768 C 1227.53 2.10297 -3.74264 0
M  V30 12769 C 1226.76 3.33062 -4.1702 0
M  V30 12770 O 1226.99 4.42857 -3.59491 0
M  V30 12771 O 1225.92 3.20195 -5.09665 0
M  V30 12772 H 1229.75 0.677368 -2.9605 0
M  V30 12773 H 1227.33 0.268838 -1.46961 0
M  V30 12774 H 1229.21 3.12645 -2.82544 0
M  V30 12775 H 1227.89 2.76323 -1.68605 0
M  V30 12776 H 1226.79 1.32111 -3.49996 0
M  V30 12777 H 1228.13 1.75658 -4.59788 0
M  V30 12778 N 1229.78 1.54207 0.325255 0
M  V30 12779 C 1231 1.7661 1.08736 0
M  V30 12780 C 1231.43 0.512449 1.80985 0
M  V30 12781 O 1230.79 -0.535913 1.73198 0
M  V30 12782 C 1230.84 2.95797 2.06243 0
M  V30 12783 O 1229.94 2.67225 3.14109 0
M  V30 12784 H 1229.28 0.585282 0.313593 0
M  V30 12785 H 1231.81 2.01225 0.370066 0
M  V30 12786 H 1231.82 3.23097 2.49143 0
M  V30 12787 H 1230.5 3.86712 1.53058 0
M  V30 12788 H 1229.07 2.50869 2.75897 0
M  V30 12789 N 1231.26 -0.58723 1.46251 0
M  V30 12790 C 1232.49 -1.36976 1.54665 0
M  V30 12791 C 1232.9 -1.88293 0.185079 0
M  V30 12792 O 1232.24 -1.64028 -0.82707 0
M  V30 12793 C 1232.3 -2.59591 2.48702 0
M  V30 12794 C 1231.96 -2.29773 3.95036 0
M  V30 12795 C 1232.96 -1.88885 4.84374 0
M  V30 12796 C 1230.65 -2.42057 4.40129 0
M  V30 12797 C 1232.64 -1.60669 6.16818 0
M  V30 12798 C 1230.33 -2.13454 5.72609 0
M  V30 12799 C 1231.33 -1.72824 6.60773 0
M  V30 12800 O 1231.01 -1.44569 7.90794 0
M  V30 12801 H 1230.75 -0.424968 0.525717 0
M  V30 12802 H 1233.3 -0.721298 1.92319 0
M  V30 12803 H 1231.53 -3.27226 2.06058 0
M  V30 12804 H 1233.22 -3.21656 2.47573 0
M  V30 12805 H 1233.98 -1.78913 4.50794 0
M  V30 12806 H 1229.86 -2.72644 3.71734 0
M  V30 12807 H 1233.41 -1.28882 6.85591 0
M  V30 12808 H 1229.3 -2.23048 6.05739 0
M  V30 12809 H 1230.07 -1.58452 8.03016 0
M  V30 12810 N 1232.74 -1.33881 -0.831482 0
M  V30 12811 C 1233.67 -1.27384 -1.95693 0
M  V30 12812 C 1234.65 -0.152943 -1.69411 0
M  V30 12813 O 1235.83 -0.34392 -1.9113 0
M  V30 12814 C 1232.96 -1.01982 -3.31989 0
M  V30 12815 C 1231.92 -2.10445 -3.72689 0
M  V30 12816 C 1231.24 -1.70245 -5.06873 0
M  V30 12817 C 1232.54 -3.52194 -3.8569 0
M  V30 12818 H 1234.24 -2.21549 -2.01386 0
M  V30 12819 H 1231.78 -1.06653 -0.967526 0
M  V30 12820 H 1233.73 -0.960841 -4.103 0
M  V30 12821 H 1232.46 -0.0425709 -3.26572 0
M  V30 12822 H 1231.12 -2.15398 -2.96647 0
M  V30 12823 H 1230.77 -0.712036 -4.97935 0
M  V30 12824 H 1230.47 -2.42834 -5.35075 0
M  V30 12825 H 1231.99 -1.65827 -5.87651 0
M  V30 12826 H 1233.4 -3.49701 -4.54293 0
M  V30 12827 H 1231.8 -4.23331 -4.25336 0
M  V30 12828 H 1232.87 -3.9016 -2.87929 0
M  V30 12829 N 1234.21 1.05064 -1.1747 0
M  V30 12830 C 1235.14 2.14786 -0.915936 0
M  V30 12831 C 1236.12 1.69502 0.142561 0
M  V30 12832 O 1237.31 1.94198 -0.00794522 0
M  V30 12833 C 1234.44 3.44629 -0.429864 0
M  V30 12834 C 1233.39 4.03486 -1.42769 0
M  V30 12835 C 1232.72 5.28689 -0.799528 0
M  V30 12836 C 1234.02 4.40823 -2.80129 0
M  V30 12837 H 1235.71 2.3669 -1.83352 0
M  V30 12838 H 1233.26 1.13751 -0.882992 0
M  V30 12839 H 1235.21 4.20737 -0.236245 0
M  V30 12840 H 1233.94 3.22381 0.523263 0
M  V30 12841 H 1232.6 3.29449 -1.60808 0
M  V30 12842 H 1232.24 5.02744 0.160474 0
M  V30 12843 H 1231.94 5.69028 -1.46565 0
M  V30 12844 H 1233.47 6.07483 -0.616212 0
M  V30 12845 H 1234.88 5.07959 -2.65801 0
M  V30 12846 H 1233.28 4.92183 -3.43331 0
M  V30 12847 H 1234.35 3.51108 -3.34441 0
M  V30 12848 N 1235.69 0.975146 1.23809 0
M  V30 12849 C 1237.1 0.678873 1.7392 0
M  V30 12850 C 1237.45 -0.805133 1.78919 0
M  V30 12851 O 1236.58 -1.62984 1.42356 0
M  V30 12852 C 1237.17 1.22562 3.15854 0
M  V30 12853 C 1235.73 0.979096 3.63443 0
M  V30 12854 C 1234.88 1.35649 2.41857 0
M  V30 12855 H 1237.83 1.14961 1.09406 0
M  V30 12856 H 1237.85 0.595489 3.75811 0
M  V30 12857 H 1237.36 2.30571 3.12184 0
M  V30 12858 H 1235.46 -0.0851407 3.72503 0
M  V30 12859 H 1235.58 1.62998 4.5052 0
M  V30 12860 H 1233.94 0.774916 2.42626 0
M  V30 12861 H 1234.72 2.44624 2.40861 0
M  V30 12862 N 1237.17 -1.38817 0.746158 0
M  V30 12863 C 1238.08 -2.34316 0.115386 0
M  V30 12864 C 1239.1 -1.58892 -0.709179 0
M  V30 12865 O 1240.27 -1.91126 -0.635059 0
M  V30 12866 C 1237.34 -3.37977 -0.772821 0
M  V30 12867 C 1236.4 -4.2925 0.0652679 0
M  V30 12868 C 1235.63 -5.2796 -0.78064 0
M  V30 12869 O 1235.85 -5.33474 -2.01896 0
M  V30 12870 O 1234.79 -6.01556 -0.20338 0
M  V30 12871 H 1238.61 -2.89937 0.903887 0
M  V30 12872 H 1236.2 -1.40536 0.506958 0
M  V30 12873 H 1238.08 -4.01468 -1.28068 0
M  V30 12874 H 1236.76 -2.84723 -1.53994 0
M  V30 12875 H 1235.66 -3.68945 0.61891 0
M  V30 12876 H 1237 -4.85739 0.794871 0
M  V30 12877 N 1238.65 -0.49465 -1.49636 0
M  V30 12878 C 1239.58 0.276606 -2.31856 0
M  V30 12879 C 1240.56 0.968499 -1.39836 0
M  V30 12880 O 1241.74 0.96113 -1.68748 0
M  V30 12881 C 1238.87 1.34522 -3.20189 0
M  V30 12882 C 1237.83 0.773571 -4.20951 0
M  V30 12883 C 1237.15 1.94223 -4.98178 0
M  V30 12884 C 1238.45 -0.231096 -5.21788 0
M  V30 12885 H 1240.15 -0.409668 -2.96584 0
M  V30 12886 H 1237.69 -0.198461 -1.42626 0
M  V30 12887 H 1239.65 1.89244 -3.76517 0
M  V30 12888 H 1238.37 2.06059 -2.53392 0
M  V30 12889 H 1237.03 0.248144 -3.65759 0
M  V30 12890 H 1236.68 2.64514 -4.27834 0
M  V30 12891 H 1236.38 1.56584 -5.66353 0
M  V30 12892 H 1237.9 2.49391 -5.57348 0
M  V30 12893 H 1239.32 0.227768 -5.72847 0
M  V30 12894 H 1237.71 -0.522984 -5.97817 0
M  V30 12895 H 1238.78 -1.14914 -4.71087 0
M  V30 12896 N 1240.13 1.55939 -0.228214 0
M  V30 12897 C 1241.35 2.0287 0.406348 0
M  V30 12898 C 1241.77 1.1079 1.52876 0
M  V30 12899 O 1241.13 0.118747 1.82113 0
M  V30 12900 C 1241.18 3.49286 0.931734 0
M  V30 12901 O 1240.9 4.37857 -0.145933 0
M  V30 12902 C 1242.4 4.11893 1.63887 0
M  V30 12903 H 1239.62 0.663696 0.0987358 0
M  V30 12904 H 1242.16 2.01541 -0.346616 0
M  V30 12905 H 1240.32 3.5121 1.63494 0
M  V30 12906 H 1240.73 5.23904 0.250005 0
M  V30 12907 H 1242.21 5.16091 1.95841 0
M  V30 12908 H 1242.68 3.57281 2.55435 0
M  V30 12909 H 1243.29 4.13839 0.980697 0
M  V30 12910 N 1241.6 -0.0451101 1.57535 0
M  V30 12911 C 1243.02 -0.400463 1.54494 0
M  V30 12912 C 1243.22 -1.77584 0.952166 0
M  V30 12913 O 1242.28 -2.46069 0.566221 0
M  V30 12914 C 1243.59 -0.31703 2.99024 0
M  V30 12915 C 1245.14 -0.395284 3.10494 0
M  V30 12916 C 1245.61 -0.341475 4.56725 0
M  V30 12917 N 1247.1 -0.400755 4.61463 0
M  V30 12918 C 1247.84 -0.381757 5.72128 0
M  V30 12919 N 1247.33 -0.315995 6.92079 0
M  V30 12920 N 1249.13 -0.4303 5.60451 0
M  V30 12921 H 1241.28 0.855156 1.94424 0
M  V30 12922 H 1243.54 0.323618 0.891053 0
M  V30 12923 H 1243.25 0.627477 3.46057 0
M  V30 12924 H 1243.12 -1.11696 3.60283 0
M  V30 12925 H 1245.51 -1.33022 2.63418 0
M  V30 12926 H 1245.59 0.433709 2.52096 0
M  V30 12927 H 1245.23 0.589725 5.04465 0
M  V30 12928 H 1245.16 -1.18836 5.13016 0
M  V30 12929 H 1247.65 -0.454745 3.75154 0
M  V30 12930 H 1247.97 -0.306158 7.72193 0
M  V30 12931 H 1246.31 -0.282281 6.94427 0
M  V30 12932 H 1249.5 -0.479555 4.65637 0
M  V30 12933 H 1249.68 -0.412025 6.46689 0
M  V30 12934 N 1243.08 -1.54377 -0.317073 0
M  V30 12935 C 1244.31 -1.76608 -1.07206 0
M  V30 12936 C 1244.72 -0.517818 -1.81976 0
M  V30 12937 O 1244.06 0.521375 -1.76146 0
M  V30 12938 C 1244.13 -2.91 -2.11091 0
M  V30 12939 C 1243.79 -4.29673 -1.55661 0
M  V30 12940 C 1244.79 -5.1029 -0.994999 0
M  V30 12941 C 1242.47 -4.76234 -1.59708 0
M  V30 12942 C 1244.47 -6.35581 -0.48123 0
M  V30 12943 C 1242.15 -6.01491 -1.07944 0
M  V30 12944 C 1243.15 -6.80999 -0.522467 0
M  V30 12945 O 1242.84 -8.03899 -0.0126274 0
M  V30 12946 H 1242.57 -0.593061 -0.32443 0
M  V30 12947 H 1245.12 -2.02097 -0.366859 0
M  V30 12948 H 1243.35 -2.61097 -2.85246 0
M  V30 12949 H 1245.04 -3.00954 -2.72363 0
M  V30 12950 H 1245.81 -4.7547 -0.956752 0
M  V30 12951 H 1241.69 -4.14387 -2.02 0
M  V30 12952 H 1245.23 -6.97585 -0.0458374 0
M  V30 12953 H 1241.13 -6.35801 -1.11478 0
M  V30 12954 H 1241.9 -8.18401 -0.127442 0
M  V30 12955 N 1244.56 0.579466 -1.4656 0
M  V30 12956 C 1245.84 1.33973 -1.42515 0
M  V30 12957 C 1246.22 2.10812 -0.110317 0
M  V30 12958 O 1245.57 2.09679 0.908135 0
M  V30 12959 C 1245.78 2.26301 -2.65686 0
M  V30 12960 C 1247.12 2.88027 -3.1197 0
M  V30 12961 O 1248.15 2.36612 -2.66257 0
M  V30 12962 O 1247.01 3.81423 -3.9138 0
M  V30 12963 H 1244.1 0.602121 -0.566903 0
M  V30 12964 H 1246.65 0.600214 -1.58731 0
M  V30 12965 H 1245.42 1.68973 -3.52936 0
M  V30 12966 H 1245.04 3.07586 -2.51945 0
M  V30 12967 N 1246.04 1.3432 0.824371 0
M  V30 12968 C 1247.28 1.27942 1.59405 0
M  V30 12969 C 1247.64 -0.148961 1.91421 0
M  V30 12970 O 1248.84 -0.336891 2.6668 0
M  V30 12971 C 1247.11 2.14393 2.85955 0
M  V30 12972 S 1248.67 2.25354 3.76512 0
M  V30 12973 H 1245.49 0.454953 0.546387 0
M  V30 12974 H 1248.09 1.69517 0.973873 0
M  V30 12975 H 1246.8 3.17182 2.60429 0
M  V30 12976 H 1246.33 1.7371 3.52971 0
M  V30 12977 H 1248.34 1.42526 4.7529 0
M  V30 12978 N 1247.52 -1.0444 1.18026 0
M  V30 12979 C 1248.43 -2.15862 0.918747 0
M  V30 12980 C 1249.44 -1.73614 -0.115808 0
M  V30 12981 O 1250.62 -2.01294 0.0652312 0
M  V30 12982 C 1247.68 -3.43846 0.443922 0
M  V30 12983 C 1246.74 -4.00497 1.54599 0
M  V30 12984 C 1245.98 -5.22373 1.09372 0
M  V30 12985 O 1246.2 -5.70379 -0.049085 0
M  V30 12986 O 1245.13 -5.71459 1.88992 0
M  V30 12987 H 1248.96 -2.40776 1.85097 0
M  V30 12988 H 1246.55 -1.14326 0.961769 0
M  V30 12989 H 1248.43 -4.20985 0.187017 0
M  V30 12990 H 1247.1 -3.20414 -0.460051 0
M  V30 12991 H 1246.01 -3.24764 1.85686 0
M  V30 12992 H 1247.34 -4.28262 2.42595 0
M  V30 12993 N 1248.99 -0.981699 -1.2329 0
M  V30 12994 C 1250.24 -0.652266 -1.92024 0
M  V30 12995 C 1250.57 0.812297 -1.76396 0
M  V30 12996 O 1249.85 1.5861 -1.12575 0
M  V30 12997 C 1250.13 -1.04506 -3.44602 0
M  V30 12998 C 1249.98 -2.56735 -3.69333 0
M  V30 12999 C 1251.3 -0.589937 -4.36128 0
M  V30 13000 H 1248.42 -0.238437 -0.697364 0
M  V30 13001 H 1251.06 -1.22322 -1.45387 0
M  V30 13002 H 1249.21 -0.559242 -3.84454 0
M  V30 13003 H 1250.89 -3.12901 -3.38955 0
M  V30 13004 H 1249.13 -2.9931 -3.14 0
M  V30 13005 H 1249.8 -2.79269 -4.76144 0
M  V30 13006 H 1252.28 -1.00706 -4.0373 0
M  V30 13007 H 1251.15 -0.893192 -5.41584 0
M  V30 13008 H 1251.41 0.509707 -4.39152 0
M  V30 13009 N 1250.47 1.3842 -0.753509 0
M  V30 13010 C 1251.42 2.32315 -0.115107 0
M  V30 13011 C 1252.41 1.54015 0.705398 0
M  V30 13012 O 1253.62 1.69546 0.604505 0
M  V30 13013 H 1250 0.751774 -0.0184276 0
M  V30 13014 H 1251.97 2.83763 -0.923094 0
M  V30 13015 C 1250.72 3.39206 0.763849 0
M  V30 13016 H 1250.04 3.99548 0.14187 0
M  V30 13017 H 1251.48 4.07312 1.17783 0
M  V30 13018 C 1249.94 2.77771 1.90643 0
M  V30 13019 O 1250.47 2.67073 3.00058 0
M  V30 13020 N 1248.67 2.35582 1.70145 0
M  V30 13021 H 1248.22 2.44483 0.811528 0
M  V30 13022 H 1248.18 1.9482 2.46764 0
M  V30 13023 N 1251.95 0.502579 1.49372 0
M  V30 13024 C 1253.2 -0.0414423 2.02758 0
M  V30 13025 C 1253.53 -1.36499 1.38136 0
M  V30 13026 O 1252.8 -1.87487 0.517593 0
M  V30 13027 C 1253.09 -0.192333 3.59586 0
M  V30 13028 C 1252.94 1.15445 4.34733 0
M  V30 13029 C 1254.26 -0.932218 4.30114 0
M  V30 13030 H 1251.38 -0.0135869 0.736875 0
M  V30 13031 H 1254.02 0.654296 1.78379 0
M  V30 13032 H 1252.17 -0.78491 3.80488 0
M  V30 13033 H 1253.84 1.78603 4.25322 0
M  V30 13034 H 1252.09 1.74333 3.97228 0
M  V30 13035 H 1252.76 1.00216 5.42827 0
M  V30 13036 H 1255.23 -0.429632 4.13876 0
M  V30 13037 H 1254.11 -1.00664 5.39591 0
M  V30 13038 H 1254.37 -1.9763 3.95468 0
M  V30 13039 N 1253.43 -1.55816 0.23648 0
M  V30 13040 C 1254.84 -1.84757 -0.268622 0
M  V30 13041 C 1255.19 -1.15815 -1.58371 0
M  V30 13042 O 1254.32 -0.432923 -2.12025 0
M  V30 13043 C 1254.91 -3.35177 -0.494167 0
M  V30 13044 C 1253.47 -3.64382 -0.943551 0
M  V30 13045 C 1252.62 -2.77296 -0.0149191 0
M  V30 13046 H 1255.57 -1.51908 0.459308 0
M  V30 13047 H 1255.59 -3.56192 -1.3382 0
M  V30 13048 H 1255.1 -3.85327 0.463138 0
M  V30 13049 H 1253.2 -3.19701 -1.91369 0
M  V30 13050 H 1253.31 -4.72244 -0.807626 0
M  V30 13051 H 1251.68 -2.49243 -0.524419 0
M  V30 13052 H 1252.46 -3.30249 0.937571 0
M  V30 13053 N 1254.91 0.036755 -1.57557 0
M  V30 13054 C 1256.15 0.730186 -1.89199 0
M  V30 13055 C 1256.49 1.75414 -0.833271 0
M  V30 13056 O 1255.76 1.93901 0.152579 0
M  V30 13057 C 1256.04 1.40669 -3.31488 0
M  V30 13058 C 1255.9 0.396764 -4.48047 0
M  V30 13059 C 1257.22 2.34268 -3.72567 0
M  V30 13060 H 1254.33 0.263983 -0.6881 0
M  V30 13061 H 1256.98 -0.0069847 -1.89999 0
M  V30 13062 H 1255.13 2.03502 -3.30937 0
M  V30 13063 H 1256.8 -0.229062 -4.60731 0
M  V30 13064 H 1255.04 -0.284698 -4.32865 0
M  V30 13065 H 1255.71 0.908436 -5.44474 0
M  V30 13066 H 1258.19 1.81485 -3.74436 0
M  V30 13067 H 1257.06 2.78587 -4.72949 0
M  V30 13068 H 1257.33 3.20611 -3.04403 0
M  V30 13069 N 1256.39 1.54543 0.308881 0
M  V30 13070 C 1257.32 1.87947 1.38557 0
M  V30 13071 C 1258.3 0.737622 1.53275 0
M  V30 13072 O 1259.48 0.992664 1.66913 0
M  V30 13073 C 1256.61 2.11982 2.75102 0
M  V30 13074 C 1255.57 3.2783 2.75158 0
M  V30 13075 C 1254.89 3.37266 4.14917 0
M  V30 13076 C 1256.19 4.65129 2.37598 0
M  V30 13077 H 1257.89 2.78123 1.1085 0
M  V30 13078 H 1255.43 1.3382 0.531808 0
M  V30 13079 H 1257.38 2.33935 3.50503 0
M  V30 13080 H 1256.11 1.18569 3.04317 0
M  V30 13081 H 1254.77 3.05787 2.02212 0
M  V30 13082 H 1254.42 2.41384 4.41296 0
M  V30 13083 H 1254.12 4.15135 4.15857 0
M  V30 13084 H 1255.64 3.61471 4.92109 0
M  V30 13085 H 1257.05 4.86865 3.02714 0
M  V30 13086 H 1255.45 5.45653 2.49765 0
M  V30 13087 H 1256.52 4.6638 1.32731 0
M  V30 13088 N 1257.86 -0.571685 1.46866 0
M  V30 13089 C 1259.11 -1.32685 1.52444 0
M  V30 13090 C 1259.43 -1.94147 0.182225 0
M  V30 13091 O 1258.7 -1.79159 -0.792385 0
M  V30 13092 H 1257.28 -0.492679 0.561495 0
M  V30 13093 H 1259.94 -0.668694 1.8307 0
M  V30 13094 H 1259.04 -2.12788 2.28315 0
M  V30 13095 N 1259.34 -1.34755 -0.817236 0
M  V30 13096 C 1260.57 -1.30676 -1.61054 0
M  V30 13097 C 1260.99 0.115343 -1.87746 0
M  V30 13098 O 1260.35 1.07887 -1.45705 0
M  V30 13099 C 1260.4 -2.10881 -2.92509 0
M  V30 13100 O 1259.5 -1.48223 -3.84842 0
M  V30 13101 H 1258.84 -0.448531 -0.489608 0
M  V30 13102 H 1261.37 -1.77642 -1.01512 0
M  V30 13103 H 1261.38 -2.22446 -3.42026 0
M  V30 13104 H 1260.06 -3.14274 -2.72406 0
M  V30 13105 H 1258.63 -1.45434 -3.4337 0
M  V30 13106 N 1260.82 1.03812 -1.18578 0
M  V30 13107 C 1262.04 1.8124 -1.00831 0
M  V30 13108 C 1262.47 1.82917 0.43853 0
M  V30 13109 O 1261.83 1.24835 1.31476 0
M  V30 13110 C 1261.88 3.24592 -1.57075 0
M  V30 13111 O 1260.98 4.04688 -0.793824 0
M  V30 13112 H 1260.32 0.559846 -0.357028 0
M  V30 13113 H 1262.85 1.30724 -1.57393 0
M  V30 13114 H 1262.86 3.75363 -1.59896 0
M  V30 13115 H 1261.54 3.22686 -2.62387 0
M  V30 13116 H 1260.11 3.63359 -0.838134 0
M  V30 13117 N 1262.3 0.988223 1.22768 0
M  V30 13118 C 1263.53 0.679743 1.95415 0
M  V30 13119 C 1263.94 -0.754731 1.73059 0
M  V30 13120 O 1263.3 -1.50876 1.02678 0
M  V30 13121 C 1263.35 0.970344 3.48234 0
M  V30 13122 O 1263.07 2.34845 3.69837 0
M  V30 13123 C 1264.57 0.67891 4.3807 0
M  V30 13124 H 1261.79 0.251847 0.621944 0
M  V30 13125 H 1264.33 1.32173 1.56047 0
M  V30 13126 H 1262.49 0.374241 3.85588 0
M  V30 13127 H 1262.9 2.44412 4.64072 0
M  V30 13128 H 1264.38 0.932549 5.44066 0
M  V30 13129 H 1264.85 -0.387073 4.37491 0
M  V30 13130 H 1265.46 1.25585 4.06335 0
M  V30 13131 N 1263.78 -1.38018 0.760839 0
M  V30 13132 C 1264.71 -2.32995 0.153557 0
M  V30 13133 C 1265.69 -1.55234 -0.695448 0
M  V30 13134 O 1266.87 -1.8352 -0.635148 0
M  V30 13135 C 1264 -3.39437 -0.734811 0
M  V30 13136 C 1262.96 -4.27998 0.0120287 0
M  V30 13137 C 1262.28 -5.25359 -0.995067 0
M  V30 13138 C 1263.58 -5.08687 1.18468 0
M  V30 13139 H 1265.28 -2.8403 0.946956 0
M  V30 13140 H 1262.82 -1.36562 0.456816 0
M  V30 13141 H 1264.77 -4.0485 -1.16938 0
M  V30 13142 H 1263.5 -2.86901 -1.56061 0
M  V30 13143 H 1262.16 -3.64102 0.427254 0
M  V30 13144 H 1261.81 -4.69108 -1.81512 0
M  V30 13145 H 1261.51 -5.85469 -0.499969 0
M  V30 13146 H 1263.03 -5.93648 -1.4288 0
M  V30 13147 H 1264.44 -5.67299 0.8273 0
M  V30 13148 H 1262.84 -5.78068 1.61112 0
M  V30 13149 H 1263.91 -4.42 1.99409 0
M  V30 13150 N 1265.25 -0.510493 -1.49103 0
M  V30 13151 C 1266.18 0.251999 -2.32136 0
M  V30 13152 C 1267.16 0.953613 -1.40855 0
M  V30 13153 O 1268.35 0.943178 -1.69758 0
M  V30 13154 C 1265.48 1.31118 -3.21598 0
M  V30 13155 C 1264.43 0.72888 -4.21748 0
M  V30 13156 C 1263.76 1.88928 -5.0021 0
M  V30 13157 C 1265.06 -0.286425 -5.21514 0
M  V30 13158 H 1266.75 -0.441102 -2.96133 0
M  V30 13159 H 1264.3 -0.213577 -1.42407 0
M  V30 13160 H 1266.25 1.8524 -3.78503 0
M  V30 13161 H 1264.98 2.0336 -2.55563 0
M  V30 13162 H 1263.64 0.209336 -3.66002 0
M  V30 13163 H 1263.28 2.59961 -4.30615 0
M  V30 13164 H 1262.98 1.50568 -5.67981 0
M  V30 13165 H 1264.51 2.43465 -5.59962 0
M  V30 13166 H 1265.92 0.166997 -5.73057 0
M  V30 13167 H 1264.32 -0.586361 -5.97228 0
M  V30 13168 H 1265.39 -1.19904 -4.69842 0
M  V30 13169 N 1266.73 1.55688 -0.24474 0
M  V30 13170 C 1267.66 2.18616 0.68844 0
M  V30 13171 C 1268.68 1.16185 1.14039 0
M  V30 13172 O 1269.87 1.43059 1.06754 0
M  V30 13173 C 1266.97 2.77375 1.94721 0
M  V30 13174 C 1266.14 4.05204 1.64706 0
M  V30 13175 C 1265.2 4.48302 2.75521 0
M  V30 13176 O 1264.22 5.14723 2.42999 0
M  V30 13177 N 1265.43 4.15907 4.04971 0
M  V30 13178 H 1268.19 2.99324 0.150018 0
M  V30 13179 H 1265.75 1.61771 -0.0646183 0
M  V30 13180 H 1267.74 3.03165 2.68091 0
M  V30 13181 H 1266.31 2.00837 2.39548 0
M  V30 13182 H 1265.53 3.87026 0.74865 0
M  V30 13183 H 1266.82 4.8855 1.42114 0
M  V30 13184 H 1266.22 3.62579 4.34227 0
M  V30 13185 H 1264.78 4.46538 4.74813 0
M  V30 13186 N 1268.21 -0.0283989 1.57574 0
M  V30 13187 C 1269.46 -0.717656 1.88929 0
M  V30 13188 C 1269.78 -1.7586 0.842517 0
M  V30 13189 O 1269.05 -1.95509 -0.123774 0
M  V30 13190 H 1267.63 -0.268051 0.69725 0
M  V30 13191 H 1270.29 0.00580691 1.94899 0
M  V30 13192 H 1269.39 -1.2068 2.87824 0
M  V30 13193 N 1269.69 -1.54705 -0.300681 0
M  V30 13194 C 1270.94 -1.73658 -1.0338 0
M  V30 13195 C 1271.26 -0.525447 -1.87787 0
M  V30 13196 O 1270.53 0.460269 -1.90416 0
M  V30 13197 H 1269.11 -0.640338 -0.384677 0
M  V30 13198 H 1271.77 -1.92059 -0.331588 0
M  V30 13199 H 1270.86 -2.62595 -1.68672 0
M  V30 13200 N 1271.17 0.563888 -1.47167 0
M  V30 13201 C 1272.44 1.32454 -1.43928 0
M  V30 13202 C 1272.82 2.10683 -0.13267 0
M  V30 13203 O 1272.17 2.1063 0.885845 0
M  V30 13204 C 1272.38 2.2347 -2.68071 0
M  V30 13205 C 1273.73 2.84702 -3.15008 0
M  V30 13206 O 1274.75 2.33775 -2.68752 0
M  V30 13207 O 1273.61 3.77251 -3.95404 0
M  V30 13208 H 1270.71 0.596074 -0.573258 0
M  V30 13209 H 1273.25 0.583345 -1.59359 0
M  V30 13210 H 1272.02 1.6522 -3.54708 0
M  V30 13211 H 1271.65 3.04897 -2.55193 0
M  V30 13212 N 1272.64 1.35187 0.810078 0
M  V30 13213 C 1273.57 1.30481 1.93641 0
M  V30 13214 C 1274.56 0.179875 1.69146 0
M  V30 13215 O 1275.74 0.374284 1.90559 0
M  V30 13216 C 1272.87 1.07251 3.30325 0
M  V30 13217 C 1271.82 2.16348 3.69293 0
M  V30 13218 C 1271.15 1.78288 5.04101 0
M  V30 13219 C 1272.45 3.58285 3.80038 0
M  V30 13220 H 1274.14 2.24725 1.97836 0
M  V30 13221 H 1271.69 1.08179 0.950436 0
M  V30 13222 H 1273.64 1.02599 4.08719 0
M  V30 13223 H 1272.37 0.0945203 3.26463 0
M  V30 13224 H 1271.03 2.2009 2.93182 0
M  V30 13225 H 1270.67 0.791163 4.96739 0
M  V30 13226 H 1270.37 2.51315 5.31144 0
M  V30 13227 H 1271.9 1.75155 5.84938 0
M  V30 13228 H 1273.31 3.56884 4.48672 0
M  V30 13229 H 1271.71 4.30044 4.18548 0
M  V30 13230 H 1272.78 3.94691 2.81685 0
M  V30 13231 N 1274.12 -1.03182 1.19127 0
M  V30 13232 C 1275.05 -2.13301 0.94999 0
M  V30 13233 C 1276.03 -1.69707 -0.115577 0
M  V30 13234 O 1277.22 -1.94161 0.0388395 0
M  V30 13235 C 1274.35 -3.43902 0.484637 0
M  V30 13236 C 1273.3 -4.01164 1.4917 0
M  V30 13237 C 1272.63 -5.2735 0.883537 0
M  V30 13238 C 1273.93 -4.36311 2.87107 0
M  V30 13239 H 1275.62 -2.33743 1.87095 0
M  V30 13240 H 1273.17 -1.12332 0.900977 0
M  V30 13241 H 1275.12 -4.20308 0.30315 0
M  V30 13242 H 1273.85 -3.23173 -0.471909 0
M  V30 13243 H 1272.5 -3.26849 1.66028 0
M  V30 13244 H 1272.15 -5.02936 -0.0804712 0
M  V30 13245 H 1271.85 -5.66624 1.55599 0
M  V30 13246 H 1273.38 -6.06425 0.71278 0
M  V30 13247 H 1274.79 -5.03666 2.73848 0
M  V30 13248 H 1273.19 -4.86659 3.51117 0
M  V30 13249 H 1274.26 -3.45743 3.39985 0
M  V30 13250 N 1275.6 -0.99472 -1.22242 0
M  V30 13251 C 1277.02 -0.705762 -1.43147 0
M  V30 13252 C 1277.22 0.722908 -1.88086 0
M  V30 13253 O 1276.27 1.49359 -2.03588 0
M  V30 13254 C 1277.59 -1.71288 -2.47145 0
M  V30 13255 C 1279.13 -1.72853 -2.60942 0
M  V30 13256 C 1279.61 -2.72433 -3.68163 0
M  V30 13257 N 1281.1 -2.71039 -3.75623 0
M  V30 13258 C 1281.83 -3.44753 -4.58184 0
M  V30 13259 N 1281.33 -4.28075 -5.44724 0
M  V30 13260 N 1283.12 -3.33451 -4.52512 0
M  V30 13261 H 1275.27 -1.91738 -0.913792 0
M  V30 13262 H 1277.54 -0.82702 -0.463403 0
M  V30 13263 H 1277.24 -2.7353 -2.21075 0
M  V30 13264 H 1277.12 -1.50721 -3.45779 0
M  V30 13265 H 1279.5 -0.713085 -2.86355 0
M  V30 13266 H 1279.59 -1.9749 -1.62577 0
M  V30 13267 H 1279.23 -3.74129 -3.43497 0
M  V30 13268 H 1279.16 -2.45066 -4.66101 0
M  V30 13269 H 1281.65 -2.10581 -3.1379 0
M  V30 13270 H 1281.96 -4.81143 -6.04749 0
M  V30 13271 H 1280.31 -4.32161 -5.44299 0
M  V30 13272 H 1283.5 -2.67797 -3.8393 0
M  V30 13273 H 1283.67 -3.91158 -5.16623 0
M  V30 13274 N 1277.08 1.37613 -0.768148 0
M  V30 13275 C 1278.04 2.28653 -0.158283 0
M  V30 13276 C 1279.04 1.47862 0.631936 0
M  V30 13277 O 1280.23 1.68124 0.456055 0
M  V30 13278 C 1277.36 3.31776 0.783435 0
M  V30 13279 H 1278.56 2.84094 -0.960772 0
M  V30 13280 H 1276.11 1.46818 -0.536116 0
M  V30 13281 H 1276.84 2.81452 1.61106 0
M  V30 13282 H 1276.63 3.91488 0.219016 0
M  V30 13283 H 1278.12 3.99816 1.20568 0
M  V30 13284 N 1278.56 0.518393 1.4883 0
M  V30 13285 C 1279.49 -0.239685 2.32267 0
M  V30 13286 C 1280.47 -0.94613 1.41359 0
M  V30 13287 O 1281.65 -0.934162 1.70256 0
M  V30 13288 C 1278.78 -1.29411 3.22289 0
M  V30 13289 C 1277.74 -0.706504 4.22129 0
M  V30 13290 C 1277.06 -1.86273 5.01205 0
M  V30 13291 C 1278.36 0.314079 5.21355 0
M  V30 13292 H 1280.06 0.4568 2.95895 0
M  V30 13293 H 1277.6 0.221126 1.42292 0
M  V30 13294 H 1279.56 -1.8323 3.7948 0
M  V30 13295 H 1278.28 -2.02001 2.56638 0
M  V30 13296 H 1276.94 -0.189924 3.66108 0
M  V30 13297 H 1276.59 -2.57674 4.31988 0
M  V30 13298 H 1276.29 -1.47554 5.68772 0
M  V30 13299 H 1277.81 -2.40492 5.61245 0
M  V30 13300 H 1279.22 -0.136604 5.73137 0
M  V30 13301 H 1277.62 0.618026 5.96909 0
M  V30 13302 H 1278.69 1.22394 4.69199 0
M  V30 13303 N 1280.03 -1.55556 0.252993 0
M  V30 13304 C 1281.31 -1.91022 -0.420696 0
M  V30 13305 C 1281.69 -1.17452 -1.75409 0
M  V30 13306 O 1281.04 -0.294 -2.26601 0
M  V30 13307 C 1281.25 -3.441 -0.582787 0
M  V30 13308 C 1282.6 -4.15468 -0.875873 0
M  V30 13309 O 1283.62 -3.49872 -0.668425 0
M  V30 13310 O 1282.48 -5.31508 -1.27128 0
M  V30 13311 H 1279.57 -0.7953 -0.226776 0
M  V30 13312 H 1282.12 -1.67072 0.297511 0
M  V30 13313 H 1280.89 -3.89673 0.356474 0
M  V30 13314 H 1280.52 -3.73933 -1.3513 0
M  V30 13315 N 1281.51 0.0200419 -1.57587 0
M  V30 13316 C 1282.44 1.0456 -2.0396 0
M  V30 13317 C 1283.46 1.31922 -0.953962 0
M  V30 13318 O 1284.65 1.2925 -1.23112 0
M  V30 13319 C 1281.75 2.38514 -2.40758 0
M  V30 13320 C 1280.92 2.3038 -3.71812 0
M  V30 13321 C 1279.98 3.46856 -3.95698 0
M  V30 13322 O 1279 3.25944 -4.66636 0
M  V30 13323 N 1280.21 4.69033 -3.42036 0
M  V30 13324 H 1282.97 0.650282 -2.9256 0
M  V30 13325 H 1280.53 0.207818 -1.60561 0
M  V30 13326 H 1282.52 3.15172 -2.53868 0
M  V30 13327 H 1281.09 2.69859 -1.57781 0
M  V30 13328 H 1280.31 1.38762 -3.6897 0
M  V30 13329 H 1281.6 2.22097 -4.57767 0
M  V30 13330 H 1281 4.88923 -2.84553 0
M  V30 13331 H 1279.56 5.43025 -3.6051 0
M  V30 13332 N 1282.99 1.54862 0.292472 0
M  V30 13333 C 1283.95 1.8565 1.34413 0
M  V30 13334 C 1284.95 0.729868 1.43281 0
M  V30 13335 O 1286.14 0.998128 1.42769 0
M  V30 13336 C 1283.28 2.0444 2.72795 0
M  V30 13337 H 1284.47 2.79642 1.08354 0
M  V30 13338 H 1282.02 1.47055 0.529574 0
M  V30 13339 H 1282.76 1.12765 3.04063 0
M  V30 13340 H 1282.54 2.86451 2.67747 0
M  V30 13341 H 1284.03 2.296 3.48817 0
M  V30 13342 N 1284.47 -0.556076 1.47464 0
M  V30 13343 C 1285.7 -1.33858 1.57764 0
M  V30 13344 C 1286.11 -1.87415 0.22825 0
M  V30 13345 O 1285.47 -1.65054 -0.778674 0
M  V30 13346 C 1285.52 -2.5077 2.60378 0
M  V30 13347 O 1285.24 -1.99426 3.90078 0
M  V30 13348 C 1286.74 -3.42965 2.80873 0
M  V30 13349 H 1283.96 -0.408003 0.532705 0
M  V30 13350 H 1286.51 -0.673501 1.93091 0
M  V30 13351 H 1284.66 -3.13214 2.27982 0
M  V30 13352 H 1285.07 -2.75759 4.46158 0
M  V30 13353 H 1286.55 -4.21412 3.56533 0
M  V30 13354 H 1287.03 -3.96579 1.88737 0
M  V30 13355 H 1287.63 -2.86336 3.14471 0
M  V30 13356 O 1285.99 -1.45506 -0.700736 0
M  V30 13357 H 1286.68 -1.3868 -1.35231 0
M  V30 END ATOM
M  V30 BEGIN BOND
M  V30 END BOND
M  V30 END CTAB
M  END
$$$$
