drugbank_target|Q99828 Calcium and integrin-binding protein 1 (DB11093; DB11348; DB14481)
 OpenBabel12092121043D

  0  0  0     0  0            999 V3000
M  V30 BEGIN CTAB
M  V30 COUNTS 3027 3052 0 0 0
M  V30 BEGIN ATOM
M  V30 1 H -0.908 1.98254 -0.117106 0
M  V30 2 N 0 1.576 0 0
M  V30 3 C 0.933 2.03868 1.02534 0
M  V30 4 C 1.911 0.928543 1.3348 0
M  V30 5 O 3.095 1.19667 1.45644 0
M  V30 6 C 0.222 2.43627 2.35294 0
M  V30 7 C -0.732 3.65373 2.2001 0
M  V30 8 S 0.101 5.13292 1.52614 0
M  V30 9 C 1.257 5.56322 2.86805 0
M  V30 10 H 1.49 2.90518 0.631377 0
M  V30 11 H -0.977 1.52953 0.210867 0
M  V30 12 H 0.981 2.67203 3.11629 0
M  V30 13 H -0.358 1.57376 2.7183 0
M  V30 14 H -1.165 3.90944 3.18086 0
M  V30 15 H -1.563 3.418 1.51819 0
M  V30 16 H 0.729 5.58782 3.83104 0
M  V30 17 H 1.672 6.56266 2.65933 0
M  V30 18 H 2.08 4.83886 2.90714 0
M  V30 19 N 1.4781 -0.272755 1.55222 0
M  V30 20 C 2.7261 -1.00234 1.75492 0
M  V30 21 C 3.0471 -1.8681 0.5592 0
M  V30 22 O 2.3171 -1.91215 -0.425882 0
M  V30 23 H 0.8971 -0.373076 0.647166 0
M  V30 24 H 3.5591 -0.296926 1.92625 0
M  V30 25 H 2.6551 -1.63913 2.65592 0
M  V30 26 N 2.9562 -1.48159 -0.537278 0
M  V30 27 C 4.2042 -1.55497 -1.29094 0
M  V30 28 C 4.5252 -0.227454 -1.93669 0
M  V30 29 O 3.7952 0.750386 -1.80959 0
M  V30 30 H 2.3752 -0.572832 -0.47945 0
M  V30 31 H 5.0372 -1.84579 -0.625818 0
M  V30 32 H 4.1332 -2.33216 -2.07405 0
M  V30 33 N 4.4343 0.785586 -1.36625 0
M  V30 34 C 5.6593 1.57963 -1.34397 0
M  V30 35 C 6.0843 1.87964 0.071526 0
M  V30 36 O 5.4423 1.48182 1.0446 0
M  V30 37 C 5.4903 2.87511 -2.17646 0
M  V30 38 O 4.5943 3.81281 -1.57158 0
M  V30 39 H 3.9353 0.479014 -0.459828 0
M  V30 40 H 6.4653 0.973411 -1.79961 0
M  V30 41 H 6.4753 3.36745 -2.30362 0
M  V30 42 H 5.1503 2.65002 -3.20541 0
M  V30 43 H 3.7273 3.39885 -1.53403 0
M  V30 44 N 5.9124 1.20967 1.01018 0
M  V30 45 C 7.1604 1.02172 1.74371 0
M  V30 46 C 7.4814 -0.446414 1.89821 0
M  V30 47 O 6.7514 -1.32234 1.44537 0
M  V30 48 H 5.3314 0.375066 0.646014 0
M  V30 49 H 7.9934 1.52187 1.21758 0
M  V30 50 H 7.0894 1.48538 2.74487 0
M  V30 51 N 7.3905 -1.2043 1.01659 0
M  V30 52 C 8.6155 -1.94318 0.724942 0
M  V30 53 C 9.0405 -1.74266 -0.708034 0
M  V30 54 O 8.3985 -1.03694 -1.48719 0
M  V30 55 C 8.4465 -3.44486 1.06591 0
M  V30 56 O 7.5505 -4.12017 0.177599 0
M  V30 57 H 6.8915 -0.60708 0.26898 0
M  V30 58 H 9.4215 -1.52861 1.35995 0
M  V30 59 H 9.4315 -3.95106 1.01762 0
M  V30 60 H 8.1065 -3.58404 2.10997 0
M  V30 61 H 6.6835 -3.71821 0.283421 0
M  V30 62 N 8.8686 -0.792821 -1.36206 0
M  V30 63 C 10.2846 -0.474903 -1.52371 0
M  V30 64 C 10.4846 1.00622 -1.74578 0
M  V30 65 O 9.5406 1.79162 -1.77924 0
M  V30 66 C 10.8536 -1.3083 -2.70747 0
M  V30 67 C 12.4016 -1.30234 -2.84619 0
M  V30 68 C 12.8766 -2.11956 -4.06004 0
M  V30 69 N 14.3676 -2.09419 -4.13156 0
M  V30 70 C 15.1026 -2.69419 -5.06163 0
M  V30 71 N 14.5986 -3.3829 -6.04592 0
M  V30 72 N 16.3916 -2.59134 -4.98804 0
M  V30 73 H 8.5426 -1.75222 -1.20046 0
M  V30 74 H 10.8056 -0.745024 -0.586211 0
M  V30 75 H 10.5116 -2.35881 -2.6087 0
M  V30 76 H 10.3856 -0.95196 -3.6499 0
M  V30 77 H 12.7726 -0.259748 -2.93955 0
M  V30 78 H 12.8536 -1.69847 -1.91274 0
M  V30 79 H 12.4976 -3.16248 -3.97429 0
M  V30 80 H 12.4276 -1.69711 -4.98503 0
M  V30 81 H 14.9186 -1.59297 -3.42685 0
M  V30 82 H 15.2316 -3.81394 -6.7213 0
M  V30 83 H 13.5766 -3.42393 -6.04807 0
M  V30 84 H 16.7676 -2.04927 -4.20859 0
M  V30 85 H 16.9406 -3.06185 -5.711 0
M  V30 86 N 10.3467 1.47872 -0.545128 0
M  V30 87 C 11.2767 2.32661 0.197793 0
M  V30 88 C 12.2577 1.43041 0.920504 0
M  V30 89 O 13.4427 1.71912 0.90333 0
M  V30 90 C 10.5727 3.24569 1.23582 0
M  V30 91 C 9.5267 4.23333 0.630323 0
M  V30 92 C 8.8527 5.0448 1.77211 0
M  V30 93 C 10.1527 5.20704 -0.407974 0
M  V30 94 H 11.8467 2.95024 -0.510045 0
M  V30 95 H 9.3927 1.4187 -0.246731 0
M  V30 96 H 11.3457 3.8272 1.76362 0
M  V30 97 H 10.0697 2.60236 1.97344 0
M  V30 98 H 8.7287 3.6639 0.123922 0
M  V30 99 H 8.3767 4.36561 2.49847 0
M  V30 100 H 8.0767 5.71339 1.37281 0
M  V30 101 H 9.6007 5.65487 2.3034 0
M  V30 102 H 11.0147 5.7329 0.033305 0
M  V30 103 H 9.4117 5.95699 -0.725486 0
M  V30 104 H 10.4817 4.66917 -1.30828 0
M  V30 105 N 11.8248 0.280983 1.55075 0
M  V30 106 C 13.0498 -0.340154 2.04592 0
M  V30 107 C 13.4748 -1.48246 1.15779 0
M  V30 108 O 12.8328 -1.80614 0.15761 0
M  V30 109 C 12.8808 -0.793104 3.5177 0
M  V30 110 O 11.9848 -1.89981 3.66034 0
M  V30 111 H 11.3258 -0.0694289 0.66036 0
M  V30 112 H 13.8558 0.416993 2.00306 0
M  V30 113 H 13.8658 -1.08729 3.93245 0
M  V30 114 H 12.5408 0.0426163 4.15878 0
M  V30 115 H 11.1178 -1.60771 3.36463 0
M  V30 116 N 13.3029 -1.57598 0.00835791 0
M  V30 117 C 14.2499 -2.08945 -0.980346 0
M  V30 118 C 15.2199 -0.986738 -1.33614 0
M  V30 119 O 16.4049 -1.25968 -1.43306 0
M  V30 120 C 13.5449 -2.60425 -2.26435 0
M  V30 121 C 12.6579 -3.84628 -1.96685 0
M  V30 122 C 11.7929 -4.24579 -3.19228 0
M  V30 123 C 10.8319 -5.41596 -2.85202 0
M  V30 124 N 9.9689 -5.768 -4.00307 0
M  V30 125 H 14.8089 -2.93148 -0.535551 0
M  V30 126 H 12.3459 -1.44912 -0.252776 0
M  V30 127 H 14.3039 -2.88354 -3.01509 0
M  V30 128 H 12.9339 -1.79083 -2.68568 0
M  V30 129 H 11.9859 -3.63556 -1.11942 0
M  V30 130 H 13.2979 -4.69796 -1.67611 0
M  V30 131 H 12.4519 -4.53834 -4.02641 0
M  V30 132 H 11.1909 -3.38137 -3.51447 0
M  V30 133 H 10.1959 -5.12056 -2.00198 0
M  V30 134 H 11.4209 -6.29721 -2.54222 0
M  V30 135 H 9.3669 -4.93316 -4.32407 0
M  V30 136 H 9.2839 -6.5656 -3.74786 0
M  V30 137 H 10.5519 -6.10652 -4.84484 0
M  V30 138 N 14.781 0.264519 -1.55364 0
M  V30 139 C 15.691 1.34902 -1.91934 0
M  V30 140 C 16.707 1.53595 -0.817593 0
M  V30 141 O 17.883 1.67558 -1.11742 0
M  V30 142 C 14.948 2.68676 -2.19121 0
M  V30 143 C 14.009 2.58657 -3.4263 0
M  V30 144 C 13.242 3.86051 -3.68511 0
M  V30 145 O 13.465 4.87126 -2.96757 0
M  V30 146 O 12.399 3.85744 -4.62045 0
M  V30 147 H 16.225 1.06883 -2.8427 0
M  V30 148 H 13.81 0.463775 -1.42019 0
M  V30 149 H 15.692 3.47759 -2.37995 0
M  V30 150 H 14.367 2.96463 -1.29966 0
M  V30 151 H 13.274 1.7792 -3.29082 0
M  V30 152 H 14.607 2.35818 -4.32031 0
M  V30 153 N 16.2591 1.48442 0.529413 0
M  V30 154 C 17.1891 1.65902 1.64313 0
M  V30 155 C 18.1701 0.507897 1.6234 0
M  V30 156 O 19.3551 0.740503 1.79528 0
M  V30 157 C 16.4851 1.69911 3.02898 0
M  V30 158 C 15.4391 2.8453 3.19729 0
M  V30 159 C 14.7651 2.73629 4.59381 0
M  V30 160 C 16.0651 4.25821 3.02447 0
M  V30 161 H 17.7591 2.5914 1.49955 0
M  V30 162 H 15.3051 1.24709 0.719982 0
M  V30 163 H 17.2581 1.80715 3.80684 0
M  V30 164 H 15.9821 0.732524 3.18279 0
M  V30 165 H 14.6411 2.73283 2.44361 0
M  V30 166 H 14.2891 1.74938 4.71599 0
M  V30 167 H 13.9891 3.50541 4.71588 0
M  V30 168 H 15.5131 2.86401 5.39265 0
M  V30 169 H 16.9271 4.37898 3.70024 0
M  V30 170 H 15.3241 5.03735 3.26146 0
M  V30 171 H 16.3941 4.42244 1.98867 0
M  V30 172 N 17.7372 -0.778329 1.37039 0
M  V30 173 C 18.6672 -1.90546 1.34962 0
M  V30 174 C 19.6482 -1.68681 0.219274 0
M  V30 175 O 20.8332 -1.89634 0.418624 0
M  V30 176 C 17.9632 -3.27734 1.14925 0
M  V30 177 C 16.9172 -3.64147 2.24902 0
M  V30 178 C 16.2432 -4.99806 1.89996 0
M  V30 179 C 17.5432 -3.71579 3.67051 0
M  V30 180 H 19.2372 -1.92541 2.29277 0
M  V30 181 H 16.7832 -0.924948 1.10366 0
M  V30 182 H 18.7362 -4.06215 1.12104 0
M  V30 183 H 17.4602 -3.26154 0.170631 0
M  V30 184 H 16.1192 -2.8797 2.26868 0
M  V30 185 H 15.7672 -4.94759 0.906796 0
M  V30 186 H 15.4672 -5.25139 2.63634 0
M  V30 187 H 16.9912 -5.80694 1.88749 0
M  V30 188 H 18.4052 -4.40227 3.67251 0
M  V30 189 H 16.8022 -4.08405 4.39688 0
M  V30 190 H 17.8722 -2.72404 4.01154 0
M  V30 191 N 19.2153 -1.21501 -1.00376 0
M  V30 192 C 20.1783 -0.976927 -2.07337 0
M  V30 193 C 21.1783 0.0525322 -1.60714 0
M  V30 194 O 22.3683 -0.184869 -1.73216 0
M  V30 195 C 19.5003 -0.473423 -3.37597 0
M  V30 196 H 20.6933 -1.92587 -2.29892 0
M  V30 197 H 18.2463 -1.03217 -1.17371 0
M  V30 198 H 18.9813 0.480379 -3.20722 0
M  V30 199 H 18.7663 -1.216 -3.72768 0
M  V30 200 H 20.2563 -0.32675 -4.1632 0
M  V30 201 N 20.6934 1.19889 -1.02296 0
M  V30 202 C 21.6034 2.26571 -0.608508 0
M  V30 203 C 22.6194 1.70299 0.356964 0
M  V30 204 O 23.7954 2.00235 0.216326 0
M  V30 205 C 20.8604 3.46677 0.0402814 0
M  V30 206 C 19.9214 4.18153 -0.97194 0
M  V30 207 C 19.1544 5.32525 -0.354016 0
M  V30 208 O 19.3774 5.64112 0.844604 0
M  V30 209 O 18.3114 5.92242 -1.07391 0
M  V30 210 H 22.1374 2.64251 -1.49684 0
M  V30 211 H 19.7224 1.26629 -0.792809 0
M  V30 212 H 21.6044 4.19475 0.402324 0
M  V30 213 H 20.2794 3.10858 0.902707 0
M  V30 214 H 19.1864 3.47499 -1.38546 0
M  V30 215 H 20.5194 4.57927 -1.80454 0
M  V30 216 N 22.1715 0.800033 1.35784 0
M  V30 217 C 23.4015 0.389041 2.02904 0
M  V30 218 C 23.8095 -1.0027 1.60445 0
M  V30 219 O 23.1525 -1.65633 0.794453 0
M  V30 220 C 23.2145 0.385495 3.57427 0
M  V30 221 C 22.8785 1.72662 4.23127 0
M  V30 222 C 23.8755 2.68385 4.4527 0
M  V30 223 C 21.5605 2.00883 4.60381 0
M  V30 224 C 23.5545 3.90517 5.03761 0
M  V30 225 C 21.2415 3.2328 5.18588 0
M  V30 226 C 22.2395 4.17915 5.40218 0
M  V30 227 O 21.9275 5.38153 5.97199 0
M  V30 228 H 21.6595 0.157032 0.657508 0
M  V30 229 H 24.2135 1.08311 1.74522 0
M  V30 230 H 22.4435 -0.365128 3.84972 0
M  V30 231 H 24.1325 -0.00228296 4.059 0
M  V30 232 H 24.8985 2.47872 4.16874 0
M  V30 233 H 20.7775 1.28037 4.42863 0
M  V30 234 H 24.3215 4.64395 5.2056 0
M  V30 235 H 20.2185 3.43667 5.4641 0
M  V30 236 H 20.9865 5.3936 6.15656 0
M  V30 237 N 23.6496 -1.47581 0.552962 0
M  V30 238 C 24.5816 -2.27997 -0.234533 0
M  V30 239 C 25.5946 -1.36753 -0.883321 0
M  V30 240 O 26.7836 -1.61612 -0.757889 0
M  V30 241 C 23.8836 -3.10879 -1.34935 0
M  V30 242 C 23.0566 -4.30056 -0.798158 0
M  V30 243 C 22.1156 -4.94567 -1.79694 0
M  V30 244 O 21.1416 -5.53087 -1.34474 0
M  V30 245 N 22.3436 -4.88878 -3.13015 0
M  V30 246 H 25.1086 -2.96222 0.455255 0
M  V30 247 H 22.6696 -1.57163 0.388761 0
M  V30 248 H 24.6616 -3.50903 -2.01616 0
M  V30 249 H 23.2316 -2.44924 -1.94244 0
M  V30 250 H 22.4516 -3.94174 0.0453079 0
M  V30 251 H 23.7396 -5.07152 -0.409173 0
M  V30 252 H 23.1376 -4.42526 -3.52402 0
M  V30 253 H 21.6946 -5.32934 -3.75266 0
M  V30 254 N 25.1277 -0.289203 -1.54924 0
M  V30 255 C 26.4047 0.376032 -1.91951 0
M  V30 256 C 26.7847 1.72622 -1.21511 0
M  V30 257 O 26.1327 2.25853 -0.346767 0
M  V30 258 C 26.3427 0.502378 -3.45365 0
M  V30 259 C 27.6907 0.778741 -4.17398 0
M  V30 260 O 28.7147 0.586647 -3.51336 0
M  V30 261 O 27.5737 1.14698 -5.34328 0
M  V30 262 H 24.6677 0.208167 -0.800372 0
M  V30 263 H 27.2137 -0.336394 -1.66332 0
M  V30 264 H 25.9857 -0.447255 -3.88736 0
M  V30 265 H 25.6087 1.26373 -3.76982 0
M  V30 266 N 26.6058 1.57591 -0.0167156 0
M  V30 267 C 27.5358 2.12496 0.967858 0
M  V30 268 C 28.5168 1.03807 1.34752 0
M  V30 269 O 29.7018 1.31577 1.42833 0
M  V30 270 C 26.8318 2.64194 2.25431 0
M  V30 271 C 25.7858 3.77559 2.01576 0
M  V30 272 C 25.1118 4.15636 3.36379 0
M  V30 273 C 26.4118 5.04151 1.36489 0
M  V30 274 H 28.1058 2.95013 0.510643 0
M  V30 275 H 25.6518 1.41915 0.244181 0
M  V30 276 H 27.6048 3.01236 2.94678 0
M  V30 277 H 26.3288 1.78821 2.73296 0
M  V30 278 H 24.9878 3.40937 1.34751 0
M  V30 279 H 24.6358 3.27263 3.81979 0
M  V30 280 H 24.3358 4.92022 3.21229 0
M  V30 281 H 25.8598 4.5525 4.06915 0
M  V30 282 H 27.2738 5.38857 1.95718 0
M  V30 283 H 25.6708 5.85453 1.31776 0
M  V30 284 H 26.7408 4.83733 0.336219 0
M  V30 285 N 28.0839 -0.256276 1.55502 0
M  V30 286 C 29.3119 -1.00342 1.8094 0
M  V30 287 C 29.7269 -1.79307 0.59114 0
M  V30 288 O 29.0839 -1.77114 -0.440081 0
M  V30 289 C 29.1349 -1.94875 3.04476 0
M  V30 290 O 28.8559 -1.19107 4.21598 0
M  V30 291 C 30.3569 -2.81266 3.42644 0
M  V30 292 H 27.5769 -0.295685 0.602338 0
M  V30 293 H 30.1209 -0.281998 2.02546 0
M  V30 294 H 28.2759 -2.62457 2.84947 0
M  V30 295 H 28.6899 -1.82969 4.91551 0
M  V30 296 H 30.1639 -3.43362 4.32211 0
M  V30 297 H 30.6409 -3.51897 2.62802 0
M  V30 298 H 31.2469 -2.1915 3.64491 0
M  V30 299 N 29.562 -1.4872 -0.521534 0
M  V30 300 C 30.809 -1.57168 -1.27689 0
M  V30 301 C 31.137 -0.249275 -1.92896 0
M  V30 302 O 30.392 0.761162 -1.80291 0
M  V30 303 C 30.691 -2.66497 -2.38148 0
M  V30 304 C 30.357 -4.08664 -1.90538 0
M  V30 305 C 29.019 -4.47357 -1.77271 0
M  V30 306 C 31.371 -4.97724 -1.54663 0
M  V30 307 C 28.699 -5.72905 -1.26478 0
M  V30 308 C 31.051 -6.2377 -1.05329 0
M  V30 309 C 29.715 -6.61311 -0.906861 0
M  V30 310 H 28.985 -0.575117 -0.467249 0
M  V30 311 H 31.632 -1.82472 -0.581051 0
M  V30 312 H 29.937 -2.35085 -3.13437 0
M  V30 313 H 31.634 -2.70246 -2.96257 0
M  V30 314 H 28.224 -3.78111 -2.01816 0
M  V30 315 H 32.408 -4.68501 -1.63768 0
M  V30 316 H 27.664 -6.00709 -1.13835 0
M  V30 317 H 31.838 -6.9217 -0.76644 0
M  V30 318 H 29.465 -7.5848 -0.511083 0
M  V30 319 N 31.0401 0.771051 -1.3745 0
M  V30 320 C 31.9701 1.89827 -1.3597 0
M  V30 321 C 32.9511 1.68562 -0.228216 0
M  V30 322 O 34.1361 1.8941 -0.428675 0
M  V30 323 C 31.2661 3.2712 -1.16662 0
M  V30 324 C 30.2201 3.6295 -2.2683 0
M  V30 325 C 29.5461 4.98791 -1.92644 0
M  V30 326 C 30.8461 3.69627 -3.69017 0
M  V30 327 H 32.5401 1.91323 -2.30295 0
M  V30 328 H 30.0861 0.919082 -1.10855 0
M  V30 329 H 32.0391 4.05615 -1.14256 0
M  V30 330 H 30.7631 3.26059 -0.187926 0
M  V30 331 H 29.4221 2.86763 -2.28392 0
M  V30 332 H 29.0701 4.94271 -0.933021 0
M  V30 333 H 28.7701 5.23733 -2.66416 0
M  V30 334 H 30.2941 5.79685 -1.91826 0
M  V30 335 H 31.7081 4.38273 -3.69581 0
M  V30 336 H 30.1051 4.06067 -4.41848 0
M  V30 337 H 31.1751 2.70273 -4.02592 0
M  V30 338 N 32.5182 1.22032 0.997298 0
M  V30 339 C 33.7462 1.06841 1.7718 0
M  V30 340 C 34.1612 -0.381325 1.84909 0
M  V30 341 O 33.5182 -1.26437 1.31605 0
M  V30 342 C 33.5692 1.66814 3.20711 0
M  V30 343 O 33.2902 3.06116 3.13408 0
M  V30 344 C 34.7912 1.56838 4.14628 0
M  V30 345 H 32.0112 0.374782 0.556578 0
M  V30 346 H 34.5552 1.61532 1.2541 0
M  V30 347 H 32.7102 1.16196 3.69564 0
M  V30 348 H 33.1242 3.34926 4.0364 0
M  V30 349 H 34.5982 2.03532 5.13107 0
M  V30 350 H 35.0752 0.524155 4.36061 0
M  V30 351 H 35.6812 2.06741 3.7167 0
M  V30 352 N 33.9963 -1.19345 1.0293 0
M  V30 353 C 34.9433 -2.2258 0.610464 0
M  V30 354 C 35.9133 -1.6179 -0.375946 0
M  V30 355 O 37.0983 -1.88844 -0.272511 0
M  V30 356 C 34.2383 -3.45085 -0.0321473 0
M  V30 357 C 33.3513 -4.20258 1.00035 0
M  V30 358 C 32.4863 -5.3019 0.32746 0
M  V30 359 C 31.5253 -5.97121 1.34584 0
M  V30 360 N 30.6623 -6.98615 0.698726 0
M  V30 361 H 35.5023 -2.57764 1.49538 0
M  V30 362 H 33.0393 -1.26644 0.748311 0
M  V30 363 H 34.9973 -4.15061 -0.421966 0
M  V30 364 H 33.6273 -3.10555 -0.88064 0
M  V30 365 H 32.6793 -3.49223 1.50823 0
M  V30 366 H 33.9913 -4.66175 1.77433 0
M  V30 367 H 33.1453 -6.06587 -0.11718 0
M  V30 368 H 31.8843 -4.85345 -0.478713 0
M  V30 369 H 30.8893 -5.19474 1.80074 0
M  V30 370 H 32.1143 -6.4405 2.15352 0
M  V30 371 H 30.0603 -6.55942 -0.0873471 0
M  V30 372 H 29.9773 -7.42724 1.41058 0
M  V30 373 H 31.2453 -7.79004 0.278102 0
M  V30 374 N 35.4744 -0.807222 -1.35358 0
M  V30 375 C 36.4064 -0.175717 -2.28525 0
M  V30 376 C 37.4194 0.625354 -1.5031 0
M  V30 377 O 38.6084 0.457611 -1.72535 0
M  V30 378 C 35.7084 0.773471 -3.29956 0
M  V30 379 C 34.8814 0.0186296 -4.37396 0
M  V30 380 C 33.9404 0.886395 -5.18681 0
M  V30 381 O 32.9664 0.337106 -5.68201 0
M  V30 382 N 34.1684 2.20839 -5.36852 0
M  V30 383 H 36.9334 -0.976091 -2.83359 0
M  V30 384 H 34.4944 -0.662737 -1.47714 0
M  V30 385 H 36.4864 1.35824 -3.81227 0
M  V30 386 H 35.0564 1.47465 -2.75632 0
M  V30 387 H 34.2764 -0.747349 -3.87051 0
M  V30 388 H 35.5644 -0.501577 -5.06322 0
M  V30 389 H 34.9624 2.67858 -4.98265 0
M  V30 390 H 33.5194 2.74237 -5.91301 0
M  V30 391 N 36.9525 1.47285 -0.560781 0
M  V30 392 C 37.8625 2.33846 0.187954 0
M  V30 393 C 38.8785 1.48412 0.908293 0
M  V30 394 O 40.0545 1.81332 0.876388 0
M  V30 395 C 37.1195 3.25178 1.2025 0
M  V30 396 C 36.1805 4.26504 0.489208 0
M  V30 397 C 35.4135 5.13472 1.45542 0
M  V30 398 O 35.6365 5.02959 2.6905 0
M  V30 399 O 34.5705 5.93902 0.977963 0
M  V30 400 H 38.3965 2.99177 -0.522177 0
M  V30 401 H 35.9815 1.45903 -0.321364 0
M  V30 402 H 37.8635 3.81584 1.78805 0
M  V30 403 H 36.5385 2.6247 1.89449 0
M  V30 404 H 35.4455 3.73847 -0.137627 0
M  V30 405 H 36.7785 4.91935 -0.161399 0
M  V30 406 N 38.4306 0.297415 1.54768 0
M  V30 407 C 39.6796 -0.313669 1.99246 0
M  V30 408 C 39.9926 -1.55281 1.18942 0
M  V30 409 O 41.1986 -2.23825 1.5367 0
M  V30 410 C 39.6546 -0.609407 3.54703 0
M  V30 411 C 39.2626 0.611192 4.43811 0
M  V30 412 C 41.0066 -1.18188 4.07715 0
M  V30 413 C 38.9136 0.288805 5.90694 0
M  V30 414 H 37.8436 -0.120979 0.744231 0
M  V30 415 H 40.4946 0.40556 1.78962 0
M  V30 416 H 38.8766 -1.38813 3.70873 0
M  V30 417 H 40.0506 1.3875 4.39414 0
M  V30 418 H 38.3656 1.10205 4.01552 0
M  V30 419 H 40.9626 -1.43727 5.15021 0
M  V30 420 H 41.3056 -2.12299 3.58099 0
M  V30 421 H 41.8386 -0.464944 3.95074 0
M  V30 422 H 38.5776 1.19838 6.44453 0
M  V30 423 H 38.0976 -0.450305 5.98107 0
M  V30 424 H 39.7766 -0.110933 6.46905 0
M  V30 425 N 39.9087 -1.5758 0.0250728 0
M  V30 426 C 40.8387 -2.13007 -0.956575 0
M  V30 427 C 41.8197 -1.0452 -1.342 0
M  V30 428 O 43.0047 -1.32332 -1.42133 0
M  V30 429 C 40.1347 -2.65386 -2.24026 0
M  V30 430 C 39.0887 -3.78623 -1.99571 0
M  V30 431 C 38.4147 -4.17414 -3.3417 0
M  V30 432 C 39.7147 -5.04867 -1.33814 0
M  V30 433 H 41.4087 -2.9528 -0.494991 0
M  V30 434 H 38.9547 -1.42042 -0.236651 0
M  V30 435 H 40.9077 -3.02794 -2.93076 0
M  V30 436 H 39.6317 -1.80268 -2.72343 0
M  V30 437 H 38.2907 -3.41646 -1.32941 0
M  V30 438 H 37.9387 -3.29284 -3.80238 0
M  V30 439 H 37.6387 -4.93719 -3.18615 0
M  V30 440 H 39.1627 -4.57402 -4.04495 0
M  V30 441 H 40.5767 -5.39888 -1.92857 0
M  V30 442 H 38.9737 -5.86144 -1.28669 0
M  V30 443 H 40.0437 -4.83904 -0.310561 0
M  V30 444 N 41.3868 0.248026 -1.55636 0
M  V30 445 C 42.3168 1.31079 -1.93237 0
M  V30 446 C 43.2978 1.50264 -0.797174 0
M  V30 447 O 44.4828 1.62891 -1.05737 0
M  V30 448 C 41.6128 2.66575 -2.22609 0
M  V30 449 C 40.5668 2.62087 -3.3837 0
M  V30 450 C 39.8928 4.01369 -3.53281 0
M  V30 451 C 41.1928 2.19171 -4.7409 0
M  V30 452 H 42.8868 0.998556 -2.82257 0
M  V30 453 H 40.4328 0.47891 -1.35803 0
M  V30 454 H 42.3858 3.41057 -2.47503 0
M  V30 455 H 41.1098 2.99432 -1.30414 0
M  V30 456 H 39.7688 1.90063 -3.13483 0
M  V30 457 H 39.4168 4.31489 -2.58508 0
M  V30 458 H 39.1168 3.99254 -4.31127 0
M  V30 459 H 40.6408 4.77552 -3.80495 0
M  V30 460 H 42.0548 2.83384 -4.98363 0
M  V30 461 H 40.4518 2.2817 -5.5503 0
M  V30 462 H 41.5218 1.14336 -4.71227 0
M  V30 463 N 42.8649 1.48995 0.513639 0
M  V30 464 C 43.8279 1.64229 1.59879 0
M  V30 465 C 44.8279 0.514696 1.5234 0
M  V30 466 O 46.0179 0.78087 1.55718 0
M  V30 467 C 43.1499 1.62783 2.99524 0
M  V30 468 H 44.3429 2.61004 1.47705 0
M  V30 469 H 41.8959 1.37837 0.736936 0
M  V30 470 H 42.6309 0.675461 3.17188 0
M  V30 471 H 42.4159 2.4466 3.06404 0
M  V30 472 H 43.9059 1.76669 3.78388 0
M  V30 473 N 44.343 -0.763751 1.37857 0
M  V30 474 C 45.293 -1.86765 1.30777 0
M  V30 475 C 46.277 -1.59726 0.194015 0
M  V30 476 O 47.469 -1.7172 0.42911 0
M  V30 477 C 44.598 -3.24343 1.12502 0
M  V30 478 C 43.684 -3.57307 2.28456 0
M  V30 479 N 44.075 -3.61398 3.53871 0
M  V30 480 C 42.373 -3.87517 2.20786 0
M  V30 481 C 43.074 -3.91339 4.30382 0
M  V30 482 N 42.05 -4.07649 3.59615 0
M  V30 483 H 45.852 -1.88191 2.25746 0
M  V30 484 H 43.366 -0.9606 1.30944 0
M  V30 485 H 45.363 -4.03327 1.05514 0
M  V30 486 H 44.023 -3.24175 0.184574 0
M  V30 487 H 45.034 -3.43407 3.87675 0
M  V30 488 H 41.711 -3.95125 1.34844 0
M  V30 489 H 43.101 -4.01213 5.3896 0
M  V30 490 N 45.8211 -1.22559 -0.990812 0
M  V30 491 C 47.2371 -0.985996 -1.255 0
M  V30 492 C 47.4371 0.319173 -1.98956 0
M  V30 493 O 46.4931 1.04127 -2.3003 0
M  V30 494 C 47.8061 -2.18607 -2.06474 0
M  V30 495 C 49.3541 -2.22985 -2.19651 0
M  V30 496 C 49.8291 -3.4255 -3.04012 0
M  V30 497 N 51.3201 -3.42725 -3.11599 0
M  V30 498 C 52.0551 -4.31892 -3.7717 0
M  V30 499 N 51.5511 -5.31279 -4.44651 0
M  V30 500 N 53.3441 -4.19662 -3.73952 0
M  V30 501 H 45.4951 -2.06469 -0.49841 0
M  V30 502 H 47.7581 -0.904853 -0.282747 0
M  V30 503 H 47.4641 -3.13267 -1.59865 0
M  V30 504 H 47.3381 -2.18838 -3.07229 0
M  V30 505 H 49.7251 -1.28871 -2.65474 0
M  V30 506 H 49.8061 -2.26791 -1.18319 0
M  V30 507 H 49.4501 -4.36965 -2.58889 0
M  V30 508 H 49.3801 -3.35984 -4.0549 0
M  V30 509 H 51.8711 -2.70807 -2.63575 0
M  V30 510 H 52.1841 -5.95593 -4.92431 0
M  V30 511 H 50.5291 -5.3519 -4.43392 0
M  V30 512 H 53.7201 -3.41268 -3.20396 0
M  V30 513 H 53.8931 -4.89358 -4.24774 0
M  V30 514 N 47.2992 1.18797 -1.03562 0
M  V30 515 C 48.7152 1.40671 -0.753917 0
M  V30 516 C 48.9152 1.9043 0.658686 0
M  V30 517 O 47.9712 2.08538 1.42366 0
M  V30 518 C 49.2842 2.41192 -1.79574 0
M  V30 519 C 50.8322 2.54928 -1.81606 0
M  V30 520 C 51.3072 3.58709 -2.84766 0
M  V30 521 N 52.7982 3.66212 -2.83625 0
M  V30 522 C 53.5332 4.46225 -3.60098 0
M  V30 523 N 53.0292 5.29888 -4.46308 0
M  V30 524 N 54.8222 4.40939 -3.4861 0
M  V30 525 H 46.9732 0.848221 -1.94728 0
M  V30 526 H 49.2362 0.435081 -0.842264 0
M  V30 527 H 48.9422 2.11669 -2.80872 0
M  V30 528 H 48.8162 3.40467 -1.62365 0
M  V30 529 H 51.2032 2.83771 -0.809817 0
M  V30 530 H 51.2842 1.55784 -2.02891 0
M  V30 531 H 50.9282 3.30607 -3.85566 0
M  V30 532 H 50.8582 4.57519 -2.60737 0
M  V30 533 H 53.3492 3.06466 -2.21105 0
M  V30 534 H 53.6622 5.88078 -5.01382 0
M  V30 535 H 52.0072 5.29326 -4.50377 0
M  V30 536 H 55.1982 3.74624 -2.80668 0
M  V30 537 H 55.3712 5.03056 -4.08459 0
M  V30 538 N 48.7773 0.814389 1.34928 0
M  V30 539 C 50.0243 0.398423 1.98542 0
M  V30 540 C 50.3523 -1.03638 1.64589 0
M  V30 541 O 49.6073 -1.73509 0.90516 0
M  V30 542 C 49.9063 0.537781 3.53331 0
M  V30 543 C 49.5723 1.93704 4.07172 0
M  V30 544 C 48.2343 2.31984 4.21589 0
M  V30 545 C 50.5863 2.85213 4.36237 0
M  V30 546 C 47.9143 3.61125 4.62391 0
M  V30 547 C 50.2663 4.13809 4.78482 0
M  V30 548 C 48.9303 4.52077 4.91104 0
M  V30 549 H 48.2003 0.145793 0.726516 0
M  V30 550 H 50.8473 1.03669 1.61012 0
M  V30 551 H 49.1523 -0.183906 3.91368 0
M  V30 552 H 50.8493 0.196588 4.00518 0
M  V30 553 H 47.4393 1.62966 3.96409 0
M  V30 554 H 51.6233 2.56885 4.24645 0
M  V30 555 H 46.8793 3.90612 4.70353 0
M  V30 556 H 51.0533 4.84811 4.99932 0
M  V30 557 H 48.6803 5.52196 5.22478 0
M  V30 558 N 50.2554 -1.46986 0.568584 0
M  V30 559 C 51.4954 -2.04336 0.0512999 0
M  V30 560 C 51.8594 -1.43214 -1.27881 0
M  V30 561 O 53.0604 -1.91679 -1.88448 0
M  V30 562 C 51.3314 -3.57389 -0.0282328 0
M  V30 563 S 52.8904 -4.36056 -0.489991 0
M  V30 564 H 49.7084 -0.71034 0.0306349 0
M  V30 565 H 52.3104 -1.80212 0.757891 0
M  V30 566 H 51.0144 -3.99395 0.944011 0
M  V30 567 H 50.5454 -3.86028 -0.75803 0
M  V30 568 H 52.5604 -4.6441 -1.74752 0
M  V30 569 N 51.7335 -0.305618 -1.54608 0
M  V30 570 C 52.6435 0.57778 -2.27374 0
M  V30 571 C 53.6595 1.14451 -1.31061 0
M  V30 572 O 54.8355 1.16831 -1.6405 0
M  V30 573 C 51.9005 1.73123 -3.00382 0
M  V30 574 C 50.9615 1.19812 -4.12242 0
M  V30 575 C 50.1945 2.2966 -4.81759 0
M  V30 576 O 50.4175 3.49651 -4.50666 0
M  V30 577 O 49.3515 1.96091 -5.69062 0
M  V30 578 H 53.1775 -0.012624 -3.03697 0
M  V30 579 H 50.7625 -0.0719184 -1.49227 0
M  V30 580 H 52.6445 2.40315 -3.4616 0
M  V30 581 H 51.3195 2.30815 -2.26949 0
M  V30 582 H 50.2265 0.491798 -3.70853 0
M  V30 583 H 51.5595 0.666566 -4.87666 0
M  V30 584 N 53.2116 1.57565 -0.0334293 0
M  V30 585 C 54.1416 2.13511 0.945265 0
M  V30 586 C 55.1226 1.05231 1.33643 0
M  V30 587 O 56.3076 1.33084 1.41429 0
M  V30 588 C 53.4376 2.6657 2.22616 0
M  V30 589 C 52.3916 3.79676 1.97561 0
M  V30 590 C 51.7176 4.1918 3.31952 0
M  V30 591 C 53.0176 5.0557 1.31135 0
M  V30 592 H 54.7116 2.95538 0.479325 0
M  V30 593 H 52.2576 1.42166 0.229115 0
M  V30 594 H 54.2106 3.04344 2.91466 0
M  V30 595 H 52.9346 1.8171 2.71384 0
M  V30 596 H 51.5936 3.42347 1.31127 0
M  V30 597 H 51.2416 3.31296 3.78487 0
M  V30 598 H 50.9416 4.95402 3.15992 0
M  V30 599 H 52.4656 4.59541 4.02063 0
M  V30 600 H 53.8796 5.40903 1.89992 0
M  V30 601 H 52.2766 5.86818 1.25559 0
M  V30 602 H 53.3466 4.84062 0.284894 0
M  V30 603 N 54.6897 -0.239769 1.55765 0
M  V30 604 C 55.6197 -1.30052 1.9393 0
M  V30 605 C 56.6007 -1.49839 0.805132 0
M  V30 606 O 57.7857 -1.62328 1.06599 0
M  V30 607 C 54.9157 -2.65391 2.2402 0
M  V30 608 C 53.8697 -2.60289 3.39755 0
M  V30 609 C 53.1957 -3.99489 3.55405 0
M  V30 610 C 54.4957 -2.16654 4.75246 0
M  V30 611 H 56.1897 -0.983573 2.82783 0
M  V30 612 H 53.7357 -0.471701 1.36055 0
M  V30 613 H 55.6887 -3.3974 2.49308 0
M  V30 614 H 54.4127 -2.98736 1.32 0
M  V30 615 H 53.0717 -1.88398 3.14487 0
M  V30 616 H 52.7197 -4.30112 2.60793 0
M  V30 617 H 52.4197 -3.96962 4.33238 0
M  V30 618 H 53.9437 -4.75528 3.83022 0
M  V30 619 H 55.3577 -2.80737 4.99859 0
M  V30 620 H 53.7547 -2.25223 5.56232 0
M  V30 621 H 54.8247 -1.11835 4.71827 0
M  V30 622 N 56.1678 -1.49265 -0.50573 0
M  V30 623 C 57.5788 -1.51769 -1.08734 0
M  V30 624 C 57.9298 -0.301192 -1.93874 0
M  V30 625 O 57.0548 0.589456 -2.08217 0
M  V30 626 C 57.6498 -2.75017 -1.97867 0
M  V30 627 C 56.2088 -2.80314 -2.51199 0
M  V30 628 C 55.3558 -2.4562 -1.28709 0
M  V30 629 H 58.3068 -1.56031 -0.289855 0
M  V30 630 H 58.3278 -2.5491 -2.82491 0
M  V30 631 H 57.8398 -3.63539 -1.35873 0
M  V30 632 H 55.9408 -1.96061 -3.16845 0
M  V30 633 H 56.0538 -3.82366 -2.88675 0
M  V30 634 H 54.4178 -1.97297 -1.61078 0
M  V30 635 H 55.2008 -3.36411 -0.6843 0
M  V30 636 N 57.6459 0.756429 -1.3826 0
M  V30 637 C 58.5779 1.87971 -1.31147 0
M  V30 638 C 59.5909 1.61248 -0.224239 0
M  V30 639 O 60.7799 1.71881 -0.481581 0
M  V30 640 C 57.8799 3.23545 -1.00857 0
M  V30 641 C 57.0529 3.77794 -2.20432 0
M  V30 642 C 56.1119 4.91877 -1.86931 0
M  V30 643 O 55.1379 5.06659 -2.59395 0
M  V30 644 N 56.3399 5.74643 -0.822568 0
M  V30 645 H 59.1049 1.94585 -2.2794 0
M  V30 646 H 56.6659 0.936234 -1.32084 0
M  V30 647 H 58.6579 3.97403 -0.765021 0
M  V30 648 H 57.2279 3.12335 -0.128687 0
M  V30 649 H 56.4479 2.95534 -2.6087 0
M  V30 650 H 57.7359 4.10771 -3.00241 0
M  V30 651 H 57.1339 5.65266 -0.221575 0
M  V30 652 H 55.6909 6.48661 -0.638899 0
M  V30 653 N 59.124 1.23083 0.984299 0
M  V30 654 C 60.034 1.02515 2.11016 0
M  V30 655 C 61.05 -0.0291702 1.73976 0
M  V30 656 O 62.226 0.165434 2.00719 0
M  V30 657 C 59.291 0.614673 3.41208 0
M  V30 658 C 58.352 1.74359 3.92297 0
M  V30 659 C 57.585 1.35261 5.16275 0
M  V30 660 O 57.808 0.235136 5.69915 0
M  V30 661 O 56.742 2.17227 5.61334 0
M  V30 662 H 60.568 1.96862 2.31255 0
M  V30 663 H 58.153 1.01753 1.09392 0
M  V30 664 H 60.035 0.396518 4.1953 0
M  V30 665 H 58.71 -0.299851 3.22308 0
M  V30 666 H 57.617 2.01635 3.1511 0
M  V30 667 H 58.95 2.63629 4.15645 0
M  V30 668 N 60.6021 -1.18246 1.0419 0
M  V30 669 C 61.5341 -2.2142 0.592088 0
M  V30 670 C 62.5471 -1.59233 -0.338909 0
M  V30 671 O 63.7361 -1.78002 -0.133231 0
M  V30 672 C 60.8361 -3.38546 -0.154854 0
M  V30 673 C 60.0091 -4.3031 0.784328 0
M  V30 674 C 59.0681 -5.26138 0.0804583 0
M  V30 675 O 58.0941 -5.64738 0.711292 0
M  V30 676 N 59.2961 -5.68261 -1.18574 0
M  V30 677 H 62.0611 -2.60636 1.47949 0
M  V30 678 H 59.6221 -1.33044 0.922544 0
M  V30 679 H 61.6141 -3.99678 -0.635606 0
M  V30 680 H 60.1841 -2.98012 -0.943811 0
M  V30 681 H 59.4041 -3.66764 1.44491 0
M  V30 682 H 60.6921 -4.8852 1.42218 0
M  V30 683 H 60.0901 -5.38957 -1.71876 0
M  V30 684 H 58.6471 -6.31584 -1.61074 0
M  V30 685 N 62.0802 -0.821533 -1.34494 0
M  V30 686 C 63.4962 -0.507117 -1.51329 0
M  V30 687 C 63.6962 0.968964 -1.76673 0
M  V30 688 O 62.7522 1.75348 -1.81685 0
M  V30 689 C 64.0652 -1.36544 -2.67911 0
M  V30 690 C 65.6132 -1.36242 -2.81793 0
M  V30 691 C 66.0882 -2.2052 -4.01416 0
M  V30 692 N 67.5792 -2.18136 -4.08621 0
M  V30 693 C 68.3142 -2.80095 -5.00334 0
M  V30 694 N 67.8102 -3.51039 -5.9728 0
M  V30 695 N 69.6032 -2.69656 -4.93196 0
M  V30 696 H 61.7542 -1.77729 -1.16302 0
M  V30 697 H 64.0172 -0.757291 -0.570276 0
M  V30 698 H 63.7232 -2.41361 -2.55808 0
M  V30 699 H 63.5972 -1.02917 -3.62888 0
M  V30 700 H 65.9842 -0.322041 -2.93338 0
M  V30 701 H 66.0652 -1.73866 -1.87628 0
M  V30 702 H 65.7092 -3.24607 -3.90631 0
M  V30 703 H 65.6392 -1.80247 -4.94791 0
M  V30 704 H 68.1302 -1.6653 -3.39229 0
M  V30 705 H 68.4432 -3.95565 -6.63889 0
M  V30 706 H 66.7882 -3.55145 -5.97409 0
M  V30 707 H 69.9792 -2.13808 -4.16418 0
M  V30 708 H 70.1522 -3.1823 -5.64476 0
M  V30 709 N 63.5583 1.46682 -0.576371 0
M  V30 710 C 64.7833 2.07304 -0.0630475 0
M  V30 711 C 65.2083 1.42329 1.2298 0
M  V30 712 O 64.5663 0.504865 1.74129 0
M  V30 713 C 64.6143 3.60472 0.095895 0
M  V30 714 O 63.7183 3.95927 1.15394 0
M  V30 715 H 63.0593 0.661288 -0.0599463 0
M  V30 716 H 65.5893 1.88417 -0.797511 0
M  V30 717 H 65.5993 4.06865 0.304071 0
M  V30 718 H 64.2743 4.07157 -0.84828 0
M  V30 719 H 62.8513 3.61252 0.924724 0
M  V30 720 N 65.0364 0.313813 1.54444 0
M  V30 721 C 66.2824 -0.292108 2.00685 0
M  V30 722 C 66.6154 -1.52548 1.20177 0
M  V30 723 O 65.8904 -1.92452 0.281531 0
M  V30 724 C 66.1734 -0.635968 3.5444 0
M  V30 725 C 66.0264 0.607437 4.4568 0
M  V30 726 C 67.3454 -1.45747 4.15266 0
M  V30 727 H 64.4644 -0.104697 0.729526 0
M  V30 728 H 67.1064 0.428457 1.85106 0
M  V30 729 H 65.2564 -1.24986 3.67846 0
M  V30 730 H 66.9284 1.24581 4.44159 0
M  V30 731 H 65.1714 1.23822 4.15753 0
M  V30 732 H 65.8424 0.322515 5.51057 0
M  V30 733 H 68.3184 -0.938645 4.05375 0
M  V30 734 H 67.1944 -1.66683 5.2298 0
M  V30 735 H 67.4554 -2.45063 3.67963 0
M  V30 736 N 66.5145 -1.57545 0.0417849 0
M  V30 737 C 67.4245 -2.14451 -0.951213 0
M  V30 738 C 68.4405 -1.09992 -1.34825 0
M  V30 739 O 69.6165 -1.42114 -1.42708 0
M  V30 740 C 66.6815 -2.67063 -2.21084 0
M  V30 741 C 65.7425 -3.86284 -1.87304 0
M  V30 742 C 64.9755 -4.36378 -3.07261 0
M  V30 743 O 65.1985 -3.85587 -4.20332 0
M  V30 744 O 64.1325 -5.28077 -2.88822 0
M  V30 745 H 67.9585 -2.99601 -0.497287 0
M  V30 746 H 65.5435 -1.48317 -0.179567 0
M  V30 747 H 67.4255 -3.00914 -2.95006 0
M  V30 748 H 66.1005 -1.84989 -2.65633 0
M  V30 749 H 65.0075 -3.57338 -1.10727 0
M  V30 750 H 66.3405 -4.6956 -1.47562 0
M  V30 751 N 67.9926 0.231505 -1.5589 0
M  V30 752 C 69.2176 0.978689 -1.82856 0
M  V30 753 C 69.6426 1.77559 -0.620846 0
M  V30 754 O 69.0006 1.76119 0.430305 0
M  V30 755 C 69.0486 1.87997 -3.07716 0
M  V30 756 O 68.1526 2.97393 -2.85712 0
M  V30 757 H 67.4936 0.277663 -0.603158 0
M  V30 758 H 70.0236 0.24783 -2.03093 0
M  V30 759 H 70.0336 2.2917 -3.37558 0
M  V30 760 H 68.7086 1.29417 -3.95252 0
M  V30 761 H 67.2856 2.60238 -2.67078 0
M  V30 762 N 69.4707 1.49531 0.497807 0
M  V30 763 C 70.6957 1.63159 1.28039 0
M  V30 764 C 71.1207 0.30418 1.85624 0
M  V30 765 O 70.4787 -0.728618 1.66015 0
M  V30 766 C 70.5267 2.70537 2.38416 0
M  V30 767 O 69.6307 2.29931 3.42353 0
M  V30 768 H 68.9717 0.546001 0.377861 0
M  V30 769 H 71.5017 1.9574 0.59558 0
M  V30 770 H 71.5117 2.92802 2.84132 0
M  V30 771 H 70.1867 3.6689 1.95869 0
M  V30 772 H 68.7637 2.18009 3.02533 0
M  V30 773 N 70.9488 -0.749086 1.3866 0
M  V30 774 C 71.8788 -1.8764 1.38973 0
M  V30 775 C 72.8598 -1.68178 0.255004 0
M  V30 776 O 74.0448 -1.88704 0.458754 0
M  V30 777 C 71.1748 -3.25222 1.21851 0
M  V30 778 C 70.1288 -3.59295 2.32575 0
M  V30 779 C 69.4548 -4.95663 2.00555 0
M  V30 780 C 70.7548 -3.63709 3.7485 0
M  V30 781 H 72.4488 -1.87635 2.3331 0
M  V30 782 H 69.9948 -0.901329 1.12303 0
M  V30 783 H 71.9478 -4.03746 1.20695 0
M  V30 784 H 70.6718 -3.25719 0.239775 0
M  V30 785 H 69.3308 -2.83093 2.32925 0
M  V30 786 H 68.9788 -4.92724 1.01154 0
M  V30 787 H 68.6788 -5.19429 2.74714 0
M  V30 788 H 70.2028 -5.7656 2.01024 0
M  V30 789 H 71.6168 -4.32338 3.76506 0
M  V30 790 H 70.0138 -3.98986 4.48252 0
M  V30 791 H 71.0838 -2.63834 4.06841 0
M  V30 792 N 72.4269 -1.23603 -0.977757 0
M  V30 793 C 73.8429 -0.999251 -1.24447 0
M  V30 794 C 74.0429 0.298053 -1.99283 0
M  V30 795 O 73.0989 1.01681 -2.31122 0
M  V30 796 C 74.4119 -2.20784 -2.04144 0
M  V30 797 C 75.9599 -2.25303 -2.17273 0
M  V30 798 C 76.4349 -3.45755 -3.00362 0
M  V30 799 N 77.9259 -3.4601 -3.07947 0
M  V30 800 C 78.6609 -4.35868 -3.72568 0
M  V30 801 N 78.1569 -5.35966 -4.38991 0
M  V30 802 N 79.9499 -4.23605 -3.6948 0
M  V30 803 H 72.1009 -2.06986 -0.476483 0
M  V30 804 H 74.3639 -0.907801 -0.273134 0
M  V30 805 H 74.0699 -3.14945 -1.56533 0
M  V30 806 H 73.9439 -2.22085 -3.04891 0
M  V30 807 H 76.3309 -1.3168 -2.64092 0
M  V30 808 H 76.4119 -2.28033 -1.15907 0
M  V30 809 H 76.0559 -4.39687 -2.5424 0
M  V30 810 H 75.9859 -3.40266 -4.01904 0
M  V30 811 H 78.4769 -2.73588 -2.60688 0
M  V30 812 H 78.7899 -6.00783 -4.86086 0
M  V30 813 H 77.1349 -5.39863 -4.37691 0
M  V30 814 H 80.3259 -3.44647 -3.16759 0
M  V30 815 H 80.4989 -4.93836 -4.1956 0
M  V30 816 N 73.905 1.17692 -1.04816 0
M  V30 817 C 74.868 2.19787 -0.650117 0
M  V30 818 C 75.868 1.58044 0.296427 0
M  V30 819 O 77.058 1.74012 0.0808097 0
M  V30 820 C 74.19 3.40869 0.0456987 0
M  V30 821 H 75.383 2.56516 -1.5537 0
M  V30 822 H 72.936 1.31708 -0.841594 0
M  V30 823 H 73.671 3.09681 0.962726 0
M  V30 824 H 73.456 3.86928 -0.634727 0
M  V30 825 H 74.946 4.16445 0.310432 0
M  V30 826 N 75.3831 0.828654 1.34056 0
M  V30 827 C 76.3151 0.212052 2.28217 0
M  V30 828 C 77.3281 -0.601362 1.51286 0
M  V30 829 O 78.5171 -0.430104 1.73241 0
M  V30 830 C 75.6171 -0.72088 3.31144 0
M  V30 831 C 74.7901 0.0509587 4.3737 0
M  V30 832 C 73.8491 -0.803766 5.20025 0
M  V30 833 O 72.8751 -0.246667 5.68665 0
M  V30 834 N 74.0771 -2.1227 5.40298 0
M  V30 835 H 76.8421 1.02105 2.81771 0
M  V30 836 H 74.4031 0.686153 1.46641 0
M  V30 837 H 76.3951 -1.29742 3.8334 0
M  V30 838 H 74.9651 -1.43061 2.77943 0
M  V30 839 H 74.1851 0.808831 3.85813 0
M  V30 840 H 75.4731 0.582065 5.0546 0
M  V30 841 H 74.8711 -2.59898 5.02464 0
M  V30 842 H 73.4281 -2.64796 5.95589 0
M  V30 843 N 76.8612 -1.46375 0.584142 0
M  V30 844 C 78.1072 -2.02678 0.0703716 0
M  V30 845 C 78.4402 -1.4545 -1.28678 0
M  V30 846 O 77.7152 -0.62014 -1.84349 0
M  V30 847 C 77.9982 -3.60099 0.00614674 0
M  V30 848 C 77.8512 -4.27709 1.3923 0
M  V30 849 C 79.1702 -4.34598 -0.693742 0
M  V30 850 H 76.2892 -0.736504 0.027047 0
M  V30 851 H 78.9312 -1.74501 0.751615 0
M  V30 852 H 77.0812 -3.84236 -0.574009 0
M  V30 853 H 78.7532 -4.14832 2.01773 0
M  V30 854 H 76.9962 -3.87016 1.95962 0
M  V30 855 H 77.6672 -5.36478 1.29982 0
M  V30 856 H 80.1432 -4.15615 -0.200869 0
M  V30 857 H 79.0192 -5.44318 -0.707714 0
M  V30 858 H 79.2802 -4.05759 -1.75533 0
M  V30 859 N 78.3393 -0.321999 -1.54275 0
M  V30 860 C 79.7503 0.166384 -1.85957 0
M  V30 861 C 80.1013 1.51747 -1.24367 0
M  V30 862 O 79.2263 2.09317 -0.549124 0
M  V30 863 C 79.8213 0.308681 -3.37391 0
M  V30 864 C 78.3803 0.741286 -3.69028 0
M  V30 865 C 77.5273 -0.137937 -2.76957 0
M  V30 866 H 80.4783 -0.542335 -1.49146 0
M  V30 867 H 80.4993 1.13984 -3.63026 0
M  V30 868 H 80.0113 -0.674809 -3.82188 0
M  V30 869 H 78.1123 1.73458 -3.29762 0
M  V30 870 H 78.2253 0.546118 -4.75977 0
M  V30 871 H 76.5893 0.386251 -2.51754 0
M  V30 872 H 77.3723 -1.11816 -3.2458 0
M  V30 873 N 79.8174 1.5752 -0.0501392 0
M  V30 874 C 81.0644 1.9265 0.623874 0
M  V30 875 C 81.3924 0.928411 1.70912 0
M  V30 876 O 80.6474 -0.0594525 1.9561 0
M  V30 877 C 80.9464 3.34467 1.25963 0
M  V30 878 C 80.6124 4.49883 0.302689 0
M  V30 879 C 79.2744 4.81184 0.0393636 0
M  V30 880 C 81.6264 5.20002 -0.353205 0
M  V30 881 C 78.9544 5.79951 -0.887308 0
M  V30 882 C 81.3064 6.1976 -1.26806 0
M  V30 883 C 79.9704 6.49491 -1.54007 0
M  V30 884 H 79.2404 0.704957 0.228292 0
M  V30 885 H 81.8874 1.91146 -0.116398 0
M  V30 886 H 80.1924 3.32333 2.07514 0
M  V30 887 H 81.8894 3.58928 1.78806 0
M  V30 888 H 78.4794 4.25457 0.518109 0
M  V30 889 H 82.6634 4.96033 -0.162854 0
M  V30 890 H 77.9194 6.01322 -1.10553 0
M  V30 891 H 82.0934 6.73205 -1.78236 0
M  V30 892 H 79.7204 7.25837 -2.25976 0
M  V30 893 N 81.2955 -0.223234 1.56011 0
M  V30 894 C 82.2055 -1.29766 1.95443 0
M  V30 895 C 83.2215 -1.51373 0.858028 0
M  V30 896 O 84.3975 -1.64536 1.16146 0
M  V30 897 C 81.4625 -2.62772 2.26167 0
M  V30 898 C 80.5235 -2.49482 3.49367 0
M  V30 899 C 79.7565 -3.76145 3.78616 0
M  V30 900 O 79.9795 -4.79087 3.09568 0
M  V30 901 O 78.9135 -3.73358 4.72109 0
M  V30 902 H 82.7395 -0.99309 2.87004 0
M  V30 903 H 80.3245 -0.425958 1.43199 0
M  V30 904 H 82.2065 -3.41327 2.47131 0
M  V30 905 H 80.8815 -2.92913 1.37781 0
M  V30 906 H 79.7885 -1.69133 3.33684 0
M  V30 907 H 81.1215 -2.2428 4.38131 0
M  V30 908 N 82.7736 -1.49793 -0.48987 0
M  V30 909 C 83.7056 -1.63413 -1.60713 0
M  V30 910 C 84.7186 -0.516329 -1.54395 0
M  V30 911 O 85.9076 -0.788812 -1.60125 0
M  V30 912 C 83.0076 -1.58516 -2.99543 0
M  V30 913 C 82.1806 -2.86016 -3.30928 0
M  V30 914 C 81.2396 -2.74018 -4.49222 0
M  V30 915 O 80.2656 -3.47964 -4.50455 0
M  V30 916 N 81.4676 -1.86309 -5.4979 0
M  V30 917 H 84.2326 -2.59777 -1.49452 0
M  V30 918 H 81.7936 -1.47022 -0.677955 0
M  V30 919 H 83.7856 -1.48128 -3.76617 0
M  V30 920 H 82.3556 -0.69965 -3.0467 0
M  V30 921 H 81.5756 -3.10672 -2.42645 0
M  V30 922 H 82.8636 -3.70521 -3.487 0
M  V30 923 H 82.2616 -1.2551 -5.51601 0
M  V30 924 H 80.8186 -1.81837 -6.25922 0
M  V30 925 N 84.2517 0.741722 -1.39055 0
M  V30 926 C 85.5007 1.49656 -1.35225 0
M  V30 927 C 85.8137 1.95533 0.0512708 0
M  V30 928 O 87.0197 2.7067 0.212138 0
M  V30 929 C 85.4757 2.70389 -2.37525 0
M  V30 930 C 85.0837 2.31489 -3.83558 0
M  V30 931 C 86.8277 3.48236 -2.42759 0
M  V30 932 C 84.7347 3.48903 -4.77515 0
M  V30 933 H 83.6647 0.56197 -0.502699 0
M  V30 934 H 86.3157 0.809727 -1.64668 0
M  V30 935 H 84.6977 3.41113 -2.01142 0
M  V30 936 H 85.8717 1.68354 -4.28945 0
M  V30 937 H 84.1867 1.66749 -3.81554 0
M  V30 938 H 86.7837 4.35558 -3.1015 0
M  V30 939 H 87.1267 3.90229 -1.45008 0
M  V30 940 H 87.6597 2.84535 -2.78002 0
M  V30 941 H 84.3987 3.11966 -5.76504 0
M  V30 942 H 83.9187 4.11041 -4.36813 0
M  V30 943 H 85.5977 4.15328 -4.96096 0
M  V30 944 N 85.7298 1.2412 0.971189 0
M  V30 945 C 86.6598 1.05508 2.08304 0
M  V30 946 C 87.6408 -0.0308864 1.70072 0
M  V30 947 O 88.8258 0.135521 1.93727 0
M  V30 948 C 85.9558 0.655365 3.4106 0
M  V30 949 C 84.9098 1.68971 3.93234 0
M  V30 950 C 84.2358 1.14516 5.22293 0
M  V30 951 C 85.5358 3.08487 4.21465 0
M  V30 952 H 87.2298 1.98507 2.24132 0
M  V30 953 H 84.7758 0.955821 1.07704 0
M  V30 954 H 86.7288 0.51217 4.18276 0
M  V30 955 H 85.4528 -0.31032 3.25122 0
M  V30 956 H 84.1118 1.82106 3.18171 0
M  V30 957 H 83.7598 0.170189 5.02712 0
M  V30 958 H 83.4598 1.83635 5.58168 0
M  V30 959 H 84.9838 1.01401 6.02121 0
M  V30 960 H 86.3978 2.98601 4.89398 0
M  V30 961 H 84.7948 3.74926 4.68562 0
M  V30 962 H 85.8648 3.56787 3.28376 0
M  V30 963 N 87.2079 -1.17134 1.05439 0
M  V30 964 C 88.4329 -1.91913 0.786396 0
M  V30 965 C 88.8579 -1.7643 -0.652234 0
M  V30 966 O 88.2159 -1.08372 -1.45345 0
M  V30 967 C 88.2639 -3.40921 1.17497 0
M  V30 968 O 87.3679 -4.11244 0.308589 0
M  V30 969 H 86.7089 -0.598215 0.288158 0
M  V30 970 H 89.2389 -1.48457 1.4079 0
M  V30 971 H 89.2489 -3.91668 1.14281 0
M  V30 972 H 87.9239 -3.5151 2.22292 0
M  V30 973 H 86.5009 -3.70731 0.40157 0
M  V30 974 N 88.686 -0.835752 -1.33615 0
M  V30 975 C 89.616 -0.281739 -2.31794 0
M  V30 976 C 90.597 0.608833 -1.58831 0
M  V30 977 O 91.782 0.533035 -1.86741 0
M  V30 978 C 88.912 0.546612 -3.42971 0
M  V30 979 C 87.866 -0.247904 -4.27281 0
M  V30 980 C 87.192 0.704001 -5.30045 0
M  V30 981 C 88.492 -1.46324 -5.01385 0
M  V30 982 H 90.186 -1.10206 -2.78379 0
M  V30 983 H 87.732 -0.531388 -1.33837 0
M  V30 984 H 89.685 0.944467 -4.1068 0
M  V30 985 H 88.409 1.40011 -2.95067 0
M  V30 986 H 87.068 -0.627281 -3.61194 0
M  V30 987 H 86.716 1.55381 -4.78399 0
M  V30 988 H 86.416 0.176524 -5.87335 0
M  V30 989 H 87.94 1.09944 -6.0062 0
M  V30 990 H 89.354 -1.13871 -5.61877 0
M  V30 991 H 87.751 -1.92728 -5.6831 0
M  V30 992 H 88.821 -2.23467 -4.30338 0
M  V30 993 N 90.1641 1.46063 -0.591896 0
M  V30 994 C 91.5751 1.85944 -0.167822 0
M  V30 995 C 91.9261 1.49429 1.27143 0
M  V30 996 O 91.0511 0.913515 1.96173 0
M  V30 997 C 91.6461 3.37489 -0.297794 0
M  V30 998 C 90.2051 3.76332 0.0714732 0
M  V30 999 C 89.3521 2.7006 -0.629509 0
M  V30 1000 H 92.3031 1.37087 -0.799555 0
M  V30 1001 H 92.3241 3.77532 0.474349 0
M  V30 1002 H 91.8361 3.64034 -1.3454 0
M  V30 1003 H 89.9371 3.55405 1.11886 0
M  V30 1004 H 90.0501 4.78088 -0.311245 0
M  V30 1005 H 88.4141 2.54607 -0.0687867 0
M  V30 1006 H 89.1971 2.99444 -1.67894 0
M  V30 1007 N 91.6422 0.330177 1.54103 0
M  V30 1008 C 92.5522 -0.541534 2.28264 0
M  V30 1009 C 93.5682 -1.12351 1.32866 0
M  V30 1010 O 94.7442 -1.14206 1.65888 0
M  V30 1011 C 91.8092 -1.68322 3.03098 0
M  V30 1012 C 90.8702 -1.13238 4.14096 0
M  V30 1013 C 90.1032 -2.21966 4.85352 0
M  V30 1014 O 90.3262 -3.42437 4.56172 0
M  V30 1015 O 89.2602 -1.87013 5.7211 0
M  V30 1016 H 93.0862 0.060938 3.03639 0
M  V30 1017 H 90.6712 0.09565 1.49093 0
M  V30 1018 H 92.5532 -2.34777 3.49939 0
M  V30 1019 H 91.2282 -2.27176 2.30593 0
M  V30 1020 H 90.1352 -0.432736 3.71589 0
M  V30 1021 H 91.4682 -0.588898 4.88664 0
M  V30 1022 N 93.1203 -1.57491 0.0584922 0
M  V30 1023 C 94.0503 -2.14988 -0.911178 0
M  V30 1024 C 95.0313 -1.07343 -1.31952 0
M  V30 1025 O 96.2163 -1.35318 -1.39294 0
M  V30 1026 C 93.3463 -2.70078 -2.18347 0
M  V30 1027 C 92.3003 -3.82771 -1.91495 0
M  V30 1028 C 91.6263 -4.24408 -3.25241 0
M  V30 1029 C 92.9263 -5.07592 -1.23075 0
M  V30 1030 H 94.6203 -2.96263 -0.432246 0
M  V30 1031 H 92.1663 -1.42512 -0.206469 0
M  V30 1032 H 94.1193 -3.08943 -2.86587 0
M  V30 1033 H 92.8433 -1.86005 -2.68458 0
M  V30 1034 H 91.5023 -3.44389 -1.25664 0
M  V30 1035 H 91.1503 -3.37275 -3.73168 0
M  V30 1036 H 90.8503 -5.00366 -3.08071 0
M  V30 1037 H 92.3743 -4.65879 -3.94701 0
M  V30 1038 H 93.7883 -5.43857 -1.81362 0
M  V30 1039 H 92.1853 -5.88741 -1.16207 0
M  V30 1040 H 93.2553 -4.84454 -0.207847 0
M  V30 1041 N 94.5984 0.214957 -1.56127 0
M  V30 1042 C 95.5454 1.26642 -1.92952 0
M  V30 1043 C 96.5154 1.46244 -0.78753 0
M  V30 1044 O 97.7004 1.59704 -1.04399 0
M  V30 1045 C 94.8404 2.6104 -2.25726 0
M  V30 1046 C 93.9534 2.49183 -3.52891 0
M  V30 1047 C 93.0884 3.76149 -3.7508 0
M  V30 1048 C 92.1274 3.59041 -4.95738 0
M  V30 1049 N 91.2644 4.77972 -5.14283 0
M  V30 1050 H 96.1044 0.945384 -2.82607 0
M  V30 1051 H 93.6414 0.455489 -1.3987 0
M  V30 1052 H 95.5994 3.39313 -2.42739 0
M  V30 1053 H 94.2294 2.91227 -1.39236 0
M  V30 1054 H 93.2814 1.6231 -3.44034 0
M  V30 1055 H 94.5934 2.32466 -4.41318 0
M  V30 1056 H 93.7474 4.62865 -3.92226 0
M  V30 1057 H 92.4864 3.95799 -2.84947 0
M  V30 1058 H 91.4914 2.7071 -4.78535 0
M  V30 1059 H 92.7164 3.40856 -5.87362 0
M  V30 1060 H 90.6624 4.97923 -4.27093 0
M  V30 1061 H 90.5794 4.64006 -5.96853 0
M  V30 1062 H 91.8474 5.66096 -5.35869 0
M  V30 1063 N 96.0765 1.50051 0.48192 0
M  V30 1064 C 97.0395 1.67584 1.5636 0
M  V30 1065 C 98.0395 0.546894 1.51214 0
M  V30 1066 O 99.2295 0.813725 1.54026 0
M  V30 1067 C 96.3615 1.691 2.96003 0
M  V30 1068 H 97.5545 2.64078 1.42136 0
M  V30 1069 H 95.1075 1.39369 0.707533 0
M  V30 1070 H 95.8425 0.742589 3.15684 0
M  V30 1071 H 95.6275 2.51105 3.01146 0
M  V30 1072 H 97.1175 1.84656 3.74556 0
M  V30 1073 N 97.5546 -0.734337 1.39446 0
M  V30 1074 C 98.5026 -1.86971 1.38364 0
M  V30 1075 C 99.4966 -1.67288 0.266687 0
M  V30 1076 O 100.703 -1.74621 0.436755 0
M  V30 1077 H 97.0776 -0.615474 0.432082 0
M  V30 1078 H 99.0486 -1.85 2.34132 0
M  V30 1079 C 97.7976 -3.2466 1.24465 0
M  V30 1080 H 97.1206 -3.40402 2.09682 0
M  V30 1081 H 98.5606 -4.04292 1.27764 0
M  V30 1082 C 97.0196 -3.36867 -0.0468674 0
M  V30 1083 O 97.5496 -3.88618 -1.01681 0
M  V30 1084 N 95.7556 -2.90391 -0.110145 0
M  V30 1085 H 95.3026 -2.48466 0.679868 0
M  V30 1086 H 95.2606 -2.98939 -0.973799 0
M  V30 1087 N 99.0327 -1.24633 -0.964593 0
M  V30 1088 C 100.444 -1.08045 -1.5226 0
M  V30 1089 C 100.795 0.347116 -1.93105 0
M  V30 1090 O 99.9197 1.23588 -1.77637 0
M  V30 1091 C 100.515 -1.95514 -2.76695 0
M  V30 1092 C 99.0737 -1.8314 -3.28841 0
M  V30 1093 C 98.2207 -1.90262 -2.01732 0
M  V30 1094 H 101.172 -1.38064 -0.782553 0
M  V30 1095 H 101.193 -1.48925 -3.50145 0
M  V30 1096 H 100.705 -2.99407 -2.46936 0
M  V30 1097 H 98.8057 -0.82092 -3.63444 0
M  V30 1098 H 98.9187 -2.67406 -3.97531 0
M  V30 1099 H 97.2827 -1.34027 -2.16584 0
M  V30 1100 H 98.0657 -2.9574 -1.74334 0
M  V30 1101 N 100.511 1.16574 -1.06058 0
M  V30 1102 C 101.758 1.87047 -0.775873 0
M  V30 1103 C 102.086 1.81562 0.697534 0
M  V30 1104 O 101.341 1.22445 1.52662 0
M  V30 1105 C 101.64 3.36195 -1.21275 0
M  V30 1106 C 101.306 3.6188 -2.68986 0
M  V30 1107 C 99.9678 3.68599 -3.09335 0
M  V30 1108 C 102.32 3.72648 -3.64394 0
M  V30 1109 C 99.6478 3.83584 -4.43937 0
M  V30 1110 C 102 3.89154 -4.98741 0
M  V30 1111 C 100.664 3.94114 -5.3873 0
M  V30 1112 H 99.9338 0.684452 -0.283912 0
M  V30 1113 H 102.581 1.37853 -1.32925 0
M  V30 1114 H 100.886 3.87505 -0.578528 0
M  V30 1115 H 102.583 3.89103 -0.969542 0
M  V30 1116 H 99.1728 3.57281 -2.36744 0
M  V30 1117 H 103.357 3.66769 -3.34356 0
M  V30 1118 H 98.6128 3.85677 -4.74409 0
M  V30 1119 H 102.787 3.96427 -5.72554 0
M  V30 1120 H 100.414 4.05478 -6.43033 0
M  V30 1121 N 101.989 0.842826 1.3317 0
M  V30 1122 C 102.936 0.276885 2.29133 0
M  V30 1123 C 103.906 -0.609527 1.54512 0
M  V30 1124 O 105.091 -0.546955 1.82792 0
M  V30 1125 C 102.231 -0.538707 3.40869 0
M  V30 1126 C 101.344 0.372169 4.30394 0
M  V30 1127 C 100.479 -0.454908 5.29249 0
M  V30 1128 C 99.5179 0.45411 6.10413 0
M  V30 1129 N 98.6549 -0.335075 7.013 0
M  V30 1130 H 103.495 1.10052 2.76934 0
M  V30 1131 H 101.032 0.554161 1.36262 0
M  V30 1132 H 102.99 -1.02709 4.0436 0
M  V30 1133 H 101.62 -1.32727 2.9425 0
M  V30 1134 H 100.672 0.97888 3.6759 0
M  V30 1135 H 101.984 1.0703 4.87182 0
M  V30 1136 H 101.138 -1.00695 5.98285 0
M  V30 1137 H 99.8769 -1.18646 4.73048 0
M  V30 1138 H 98.8819 1.01813 5.40291 0
M  V30 1139 H 100.107 1.18409 6.68697 0
M  V30 1140 H 98.0529 -1.04994 6.47543 0
M  V30 1141 H 97.9699 0.304262 7.55387 0
M  V30 1142 H 99.2379 -0.869224 7.74638 0
M  V30 1143 N 103.467 -1.45747 0.599634 0
M  V30 1144 C 104.377 -2.34262 -0.125888 0
M  V30 1145 C 105.393 -1.50768 -0.868625 0
M  V30 1146 O 106.569 -1.83592 -0.828003 0
M  V30 1147 C 103.634 -3.28252 -1.11587 0
M  V30 1148 C 102.695 -4.27651 -0.375956 0
M  V30 1149 C 101.928 -5.1715 -1.31877 0
M  V30 1150 O 102.151 -5.09916 -2.55621 0
M  V30 1151 O 101.085 -5.96286 -0.820157 0
M  V30 1152 H 104.911 -2.97688 0.601315 0
M  V30 1153 H 102.496 -1.44999 0.359934 0
M  V30 1154 H 104.378 -3.86191 -1.68626 0
M  V30 1155 H 103.053 -2.67401 -1.82424 0
M  V30 1156 H 101.96 -3.7335 0.236698 0
M  V30 1157 H 103.293 -4.91334 0.29177 0
M  V30 1158 N 104.945 -0.338344 -1.53925 0
M  V30 1159 C 106.361 0.0137736 -1.59594 0
M  V30 1160 C 106.561 1.49186 -1.35447 0
M  V30 1161 O 105.617 2.24987 -1.14616 0
M  V30 1162 C 106.93 -0.41773 -2.97784 0
M  V30 1163 C 108.478 -0.369633 -3.1081 0
M  V30 1164 C 108.953 -0.776524 -4.51369 0
M  V30 1165 N 110.444 -0.730506 -4.57403 0
M  V30 1166 C 111.179 -1.01736 -5.64303 0
M  V30 1167 N 110.675 -1.3721 -6.79077 0
M  V30 1168 N 112.468 -0.941942 -5.54151 0
M  V30 1169 H 104.619 -1.3012 -1.67876 0
M  V30 1170 H 106.882 -0.530082 -0.78595 0
M  V30 1171 H 106.588 -1.44811 -3.20504 0
M  V30 1172 H 106.462 0.209729 -3.76616 0
M  V30 1173 H 108.849 0.651568 -2.87817 0
M  V30 1174 H 108.93 -1.03223 -2.34049 0
M  V30 1175 H 108.574 -1.79571 -4.75096 0
M  V30 1176 H 108.504 -0.0914649 -5.26521 0
M  V30 1177 H 110.995 -0.468783 -3.74981 0
M  V30 1178 H 111.308 -1.57597 -7.5656 0
M  V30 1179 H 109.653 -1.4105 -6.80536 0
M  V30 1180 H 112.844 -0.664184 -4.63364 0
M  V30 1181 H 113.017 -1.16884 -6.37371 0
M  V30 1182 N 106.423 1.57458 -0.0668435 0
M  V30 1183 C 107.672 1.92477 0.602947 0
M  V30 1184 C 107.985 0.948419 1.71068 0
M  V30 1185 O 109.191 1.19124 2.43971 0
M  V30 1186 C 107.647 3.41903 1.12383 0
M  V30 1187 C 107.255 4.47975 0.04737 0
M  V30 1188 C 108.999 3.85931 1.76797 0
M  V30 1189 C 106.906 5.88529 0.582022 0
M  V30 1190 H 105.836 0.718387 0.22899 0
M  V30 1191 H 108.487 1.82978 -0.138276 0
M  V30 1192 H 106.869 3.46459 1.91787 0
M  V30 1193 H 108.043 4.55029 -0.726978 0
M  V30 1194 H 106.358 4.13384 -0.500243 0
M  V30 1195 H 108.955 4.88322 2.17821 0
M  V30 1196 H 109.298 3.23029 2.62599 0
M  V30 1197 H 109.831 3.83958 1.04024 0
M  V30 1198 H 106.57 6.55065 -0.238721 0
M  V30 1199 H 106.09 5.85004 1.324 0
M  V30 1200 H 107.769 6.38258 1.05999 0
M  V30 1201 N 107.901 -0.206675 1.56239 0
M  V30 1202 C 109.141 -0.93574 1.81723 0
M  V30 1203 C 109.505 -1.80927 0.642609 0
M  V30 1204 O 110.706 -2.57323 0.777081 0
M  V30 1205 C 108.977 -1.74012 3.12177 0
M  V30 1206 S 110.536 -2.52279 3.59028 0
M  V30 1207 H 107.354 -0.314065 0.637875 0
M  V30 1208 H 109.956 -0.200071 1.94474 0
M  V30 1209 H 108.66 -1.0888 3.95693 0
M  V30 1210 H 108.191 -2.51782 3.02274 0
M  V30 1211 H 110.206 -3.76209 3.23545 0
M  V30 1212 N 109.379 -1.50304 -0.473955 0
M  V30 1213 C 110.795 -1.37667 -0.807466 0
M  V30 1214 C 110.995 -0.430555 -1.96846 0
M  V30 1215 O 110.051 0.127874 -2.52176 0
M  V30 1216 C 111.364 -2.78974 -1.12223 0
M  V30 1217 C 112.912 -2.87868 -1.22885 0
M  V30 1218 C 113.387 -4.30003 -1.57676 0
M  V30 1219 N 114.878 -4.3294 -1.64673 0
M  V30 1220 C 115.613 -5.3991 -1.93091 0
M  V30 1221 N 115.109 -6.57092 -2.1955 0
M  V30 1222 N 116.902 -5.27351 -1.94569 0
M  V30 1223 H 109.053 -2.10394 0.291212 0
M  V30 1224 H 111.316 -0.945575 0.0677609 0
M  V30 1225 H 111.022 -3.50031 -0.342229 0
M  V30 1226 H 110.896 -3.16038 -2.05913 0
M  V30 1227 H 113.283 -2.17032 -1.99953 0
M  V30 1228 H 113.364 -2.54352 -0.271814 0
M  V30 1229 H 113.008 -5.01375 -0.81149 0
M  V30 1230 H 112.938 -4.61004 -2.54525 0
M  V30 1231 H 115.429 -3.48441 -1.46277 0
M  V30 1232 H 115.742 -7.34425 -2.405 0
M  V30 1233 H 114.087 -6.60272 -2.16948 0
M  V30 1234 H 117.278 -4.34801 -1.73394 0
M  V30 1235 H 117.451 -6.10805 -2.16381 0
M  V30 1236 N 110.857 0.726932 -1.39834 0
M  V30 1237 C 112.103 1.48884 -1.377 0
M  V30 1238 C 112.436 1.94185 0.0244852 0
M  V30 1239 O 111.711 1.67361 0.990986 0
M  V30 1240 C 111.994 2.72288 -2.3565 0
M  V30 1241 C 111.847 2.32956 -3.84775 0
M  V30 1242 C 113.166 3.74414 -2.31306 0
M  V30 1243 H 110.285 0.540062 -0.5015 0
M  V30 1244 H 112.927 0.830547 -1.70886 0
M  V30 1245 H 111.077 3.28457 -2.07481 0
M  V30 1246 H 112.749 1.82356 -4.23726 0
M  V30 1247 H 110.992 1.65088 -4.01159 0
M  V30 1248 H 111.663 3.21362 -4.4881 0
M  V30 1249 H 114.139 3.27849 -2.56231 0
M  V30 1250 H 113.015 4.58414 -3.01907 0
M  V30 1251 H 113.276 4.21909 -1.32081 0
M  V30 1252 N 112.336 1.25143 0.95797 0
M  V30 1253 C 113.583 1.09692 1.70217 0
M  V30 1254 C 113.911 -0.362654 1.91089 0
M  V30 1255 O 113.166 -1.28386 1.47701 0
M  V30 1256 C 113.465 1.79272 3.09187 0
M  V30 1257 C 113.131 3.29196 3.08125 0
M  V30 1258 C 111.793 3.70096 3.07543 0
M  V30 1259 C 114.145 4.24995 3.0171 0
M  V30 1260 C 111.473 5.05213 2.9829 0
M  V30 1261 C 113.825 5.60132 2.93999 0
M  V30 1262 C 112.489 6.00365 2.9175 0
M  V30 1263 H 111.759 0.401393 0.622868 0
M  V30 1264 H 114.406 1.55372 1.11945 0
M  V30 1265 H 112.711 1.26014 3.70982 0
M  V30 1266 H 114.408 1.64773 3.65583 0
M  V30 1267 H 110.998 2.96651 3.09348 0
M  V30 1268 H 115.182 3.9439 3.01281 0
M  V30 1269 H 110.438 5.35569 2.94916 0
M  V30 1270 H 114.612 6.3406 2.87996 0
M  V30 1271 H 112.239 7.05023 2.84336 0
M  V30 1272 N 113.814 -1.1601 1.06675 0
M  V30 1273 C 115.039 -1.91068 0.806706 0
M  V30 1274 C 115.464 -1.77112 -0.633485 0
M  V30 1275 O 114.822 -1.09908 -1.44187 0
M  V30 1276 C 114.87 -3.39655 1.21106 0
M  V30 1277 O 113.974 -4.10893 0.352189 0
M  V30 1278 H 113.315 -0.595125 0.294486 0
M  V30 1279 H 115.845 -1.46955 1.42356 0
M  V30 1280 H 115.855 -3.90434 1.18428 0
M  V30 1281 H 114.53 -3.49132 2.26008 0
M  V30 1282 H 113.107 -3.70285 0.440868 0
M  V30 1283 N 115.292 -0.849877 -1.32721 0
M  V30 1284 C 116.52 -0.464754 -2.01613 0
M  V30 1285 C 116.935 0.937191 -1.63897 0
M  V30 1286 O 116.292 1.61081 -0.857856 0
M  V30 1287 C 116.343 -0.588638 -3.56675 0
M  V30 1288 O 116.064 -1.93535 -3.93034 0
M  V30 1289 C 117.565 -0.2019 -4.4284 0
M  V30 1290 H 114.785 -0.183215 -0.645502 0
M  V30 1291 H 117.329 -1.1455 -1.69407 0
M  V30 1292 H 115.484 0.0443159 -3.87375 0
M  V30 1293 H 115.898 -1.92871 -4.87751 0
M  V30 1294 H 117.372 -0.339599 -5.50954 0
M  V30 1295 H 117.849 0.857224 -4.30753 0
M  V30 1296 H 118.455 -0.809733 -4.17521 0
M  V30 1297 N 116.77 1.45427 -0.607355 0
M  V30 1298 C 117.995 2.07124 -0.107006 0
M  V30 1299 C 118.42 1.44906 1.19933 0
M  V30 1300 O 117.778 0.541687 1.73019 0
M  V30 1301 C 117.826 3.60595 0.0194119 0
M  V30 1302 O 116.93 3.98285 1.0697 0
M  V30 1303 H 116.271 0.659868 -0.0739597 0
M  V30 1304 H 118.801 1.86683 -0.837297 0
M  V30 1305 H 118.811 4.07419 0.2177 0
M  V30 1306 H 117.486 4.05266 -0.934453 0
M  V30 1307 H 116.063 3.63133 0.847889 0
M  V30 1308 N 118.248 0.346503 1.53744 0
M  V30 1309 C 119.659 -0.136779 1.86198 0
M  V30 1310 C 120.01 -1.49749 1.26766 0
M  V30 1311 O 119.135 -2.08417 0.582355 0
M  V30 1312 C 119.73 -0.254966 3.37839 0
M  V30 1313 C 118.289 -0.682482 3.70161 0
M  V30 1314 C 117.436 0.181981 2.76702 0
M  V30 1315 H 120.387 0.565994 1.48264 0
M  V30 1316 H 120.408 -1.08195 3.64793 0
M  V30 1317 H 119.92 0.735526 3.81066 0
M  V30 1318 H 118.021 -1.68189 3.3248 0
M  V30 1319 H 118.134 -0.470326 4.76786 0
M  V30 1320 H 116.498 -0.34615 2.52337 0
M  V30 1321 H 117.281 1.16966 3.2276 0
M  V30 1322 N 119.726 -1.57421 0.075193 0
M  V30 1323 C 120.689 -2.11791 -0.876203 0
M  V30 1324 C 121.689 -1.04268 -1.22412 0
M  V30 1325 O 122.879 -1.30242 -1.15684 0
M  V30 1326 C 120.011 -2.62207 -2.17854 0
M  V30 1327 H 121.204 -2.9716 -0.40444 0
M  V30 1328 H 118.757 -1.55333 -0.173557 0
M  V30 1329 H 119.492 -1.803 -2.6956 0
M  V30 1330 H 119.277 -3.40802 -1.93897 0
M  V30 1331 H 120.767 -3.04335 -2.85955 0
M  V30 1332 N 121.204 0.198386 -1.56346 0
M  V30 1333 C 122.151 1.24589 -1.94284 0
M  V30 1334 C 123.121 1.454 -0.802997 0
M  V30 1335 O 124.306 1.58588 -1.06087 0
M  V30 1336 C 121.446 2.58631 -2.28482 0
M  V30 1337 C 120.559 2.45426 -3.55514 0
M  V30 1338 C 119.694 3.7215 -3.79049 0
M  V30 1339 C 118.733 3.53763 -4.99518 0
M  V30 1340 N 117.87 4.72491 -5.19323 0
M  V30 1341 H 122.71 0.915356 -2.83593 0
M  V30 1342 H 120.247 0.440629 -1.40346 0
M  V30 1343 H 122.205 3.3672 -2.46324 0
M  V30 1344 H 120.835 2.89734 -1.42317 0
M  V30 1345 H 119.887 1.58652 -3.45737 0
M  V30 1346 H 121.199 2.27772 -4.43758 0
M  V30 1347 H 120.353 4.58679 -3.97113 0
M  V30 1348 H 119.092 3.92754 -2.89129 0
M  V30 1349 H 118.097 2.65619 -4.8138 0
M  V30 1350 H 119.322 3.34607 -5.90944 0
M  V30 1351 H 117.268 4.93365 -4.3235 0
M  V30 1352 H 117.185 4.5765 -6.01741 0
M  V30 1353 H 118.453 5.6038 -5.41843 0
M  V30 1354 N 122.682 1.50554 0.465978 0
M  V30 1355 C 123.959 1.5232 1.22712 0
M  V30 1356 C 124.339 0.270807 2.09356 0
M  V30 1357 O 123.687 -0.745541 2.15995 0
M  V30 1358 C 123.897 2.82175 2.05374 0
M  V30 1359 C 125.245 3.33033 2.6339 0
M  V30 1360 O 126.269 2.83531 2.15612 0
M  V30 1361 O 125.128 4.19336 3.50456 0
M  V30 1362 H 122.222 0.611183 0.557122 0
M  V30 1363 H 124.768 1.62847 0.477381 0
M  V30 1364 H 123.54 3.64797 1.41558 0
M  V30 1365 H 123.163 2.74675 2.87471 0
M  V30 1366 N 124.16 -0.719506 1.40217 0
M  V30 1367 C 125.385 -1.51371 1.4178 0
M  V30 1368 C 125.81 -1.88091 0.0182355 0
M  V30 1369 O 125.168 -1.52997 -0.972707 0
M  V30 1370 C 125.216 -2.768 2.31115 0
M  V30 1371 O 124.32 -3.73349 1.7517 0
M  V30 1372 H 123.661 -0.456529 0.482159 0
M  V30 1373 H 126.191 -0.88644 1.844 0
M  V30 1374 H 126.201 -3.25371 2.46167 0
M  V30 1375 H 124.876 -2.49407 3.3282 0
M  V30 1376 H 123.453 -3.32179 1.69444 0
M  V30 1377 N 125.638 -1.25649 -0.95132 0
M  V30 1378 C 126.568 -1.08808 -2.06599 0
M  V30 1379 C 127.549 0.00382547 -1.701 0
M  V30 1380 O 128.734 -0.166325 -1.93486 0
M  V30 1381 C 125.864 -0.709542 -3.39975 0
M  V30 1382 C 124.818 -1.75206 -3.90496 0
M  V30 1383 C 124.144 -1.22811 -5.20405 0
M  V30 1384 C 125.444 -3.15153 -4.16504 0
M  V30 1385 H 127.138 -2.02048 -2.20946 0
M  V30 1386 H 124.684 -0.972835 -1.06169 0
M  V30 1387 H 126.637 -0.578649 -4.17408 0
M  V30 1388 H 125.361 0.258556 -3.25575 0
M  V30 1389 H 124.02 -1.87145 -3.15234 0
M  V30 1390 H 123.668 -0.250145 -5.02378 0
M  V30 1391 H 123.368 -1.92492 -5.55176 0
M  V30 1392 H 124.892 -1.10968 -6.00432 0
M  V30 1393 H 126.306 -3.06349 -4.84586 0
M  V30 1394 H 124.703 -3.82333 -4.62538 0
M  V30 1395 H 125.773 -3.61966 -3.22658 0
M  V30 1396 N 127.117 1.15442 -1.07289 0
M  V30 1397 C 128.342 1.90638 -0.816828 0
M  V30 1398 C 128.767 1.77445 0.624083 0
M  V30 1399 O 128.125 1.10671 1.43602 0
M  V30 1400 C 128.173 3.39008 -1.22906 0
M  V30 1401 O 127.277 4.10701 -0.373975 0
M  V30 1402 H 126.618 0.593555 -0.297638 0
M  V30 1403 H 129.148 1.46198 -1.43134 0
M  V30 1404 H 129.158 3.89801 -1.20497 0
M  V30 1405 H 127.833 3.47929 -2.27856 0
M  V30 1406 H 126.41 3.70046 -0.460499 0
M  V30 1407 N 128.595 0.856903 1.32268 0
M  V30 1408 C 129.842 0.461386 1.97174 0
M  V30 1409 C 130.17 -0.983491 1.67803 0
M  V30 1410 O 129.425 -1.70541 0.959903 0
M  V30 1411 C 129.724 0.649919 3.51441 0
M  V30 1412 C 129.39 2.0656 4.00804 0
M  V30 1413 C 128.052 2.45279 4.13995 0
M  V30 1414 C 130.404 2.98947 4.26943 0
M  V30 1415 C 127.732 3.75653 4.50668 0
M  V30 1416 C 130.084 4.28822 4.65075 0
M  V30 1417 C 128.748 4.67472 4.76472 0
M  V30 1418 H 128.018 0.168833 0.72151 0
M  V30 1419 H 130.665 1.08739 1.57633 0
M  V30 1420 H 128.97 -0.0593018 3.91755 0
M  V30 1421 H 130.667 0.32391 3.9969 0
M  V30 1422 H 127.257 1.75495 3.91024 0
M  V30 1423 H 131.441 2.70265 4.16258 0
M  V30 1424 H 126.697 4.05379 4.57688 0
M  V30 1425 H 130.871 5.0047 4.84255 0
M  V30 1426 H 128.498 5.68539 5.04646 0
M  V30 1427 N 130.073 -1.45103 0.615059 0
M  V30 1428 C 130.983 -2.34382 -0.101034 0
M  V30 1429 C 131.999 -1.51681 -0.852585 0
M  V30 1430 O 133.175 -1.8446 -0.808484 0
M  V30 1431 C 130.24 -3.29417 -1.08099 0
M  V30 1432 C 129.301 -4.28025 -0.330577 0
M  V30 1433 C 128.534 -5.1852 -1.26385 0
M  V30 1434 O 128.757 -5.12598 -2.50198 0
M  V30 1435 O 127.691 -5.97122 -0.756866 0
M  V30 1436 H 131.517 -2.97033 0.632855 0
M  V30 1437 H 129.102 -1.4461 0.375293 0
M  V30 1438 H 130.984 -3.87958 -1.6452 0
M  V30 1439 H 129.659 -2.69321 -1.79577 0
M  V30 1440 H 128.566 -3.73078 0.276283 0
M  V30 1441 H 129.899 -4.90997 0.343866 0
M  V30 1442 N 131.551 -0.354651 -1.53558 0
M  V30 1443 C 132.828 0.294281 -1.93374 0
M  V30 1444 C 133.208 1.67313 -1.28723 0
M  V30 1445 O 132.556 2.24179 -0.442247 0
M  V30 1446 C 132.766 0.355445 -3.47185 0
M  V30 1447 C 134.114 0.601007 -4.20325 0
M  V30 1448 O 135.138 0.437106 -3.53508 0
M  V30 1449 O 133.997 0.919322 -5.38712 0
M  V30 1450 H 131.091 0.174033 -0.808481 0
M  V30 1451 H 133.637 -0.406638 -1.64756 0
M  V30 1452 H 132.409 -0.611729 -3.86489 0
M  V30 1453 H 132.032 1.1027 -3.82003 0
M  V30 1454 N 133.029 1.57378 -0.0835403 0
M  V30 1455 C 134.276 1.9393 0.58287 0
M  V30 1456 C 134.604 0.964455 1.68904 0
M  V30 1457 O 133.859 -0.0179474 1.95692 0
M  V30 1458 C 134.158 3.37063 1.1884 0
M  V30 1459 C 133.824 4.50424 0.207194 0
M  V30 1460 C 132.486 4.81159 -0.0627115 0
M  V30 1461 C 134.838 5.19136 -0.463426 0
M  V30 1462 C 132.166 5.77939 -1.01012 0
M  V30 1463 C 134.518 6.16931 -1.39924 0
M  V30 1464 C 133.182 6.46078 -1.67749 0
M  V30 1465 H 132.452 0.70964 0.213287 0
M  V30 1466 H 135.099 1.90856 -0.156916 0
M  V30 1467 H 133.404 3.3666 2.00418 0
M  V30 1468 H 135.101 3.6264 1.71153 0
M  V30 1469 H 131.691 4.2646 0.427747 0
M  V30 1470 H 135.875 4.95576 -0.268034 0
M  V30 1471 H 131.131 5.98842 -1.23283 0
M  V30 1472 H 135.305 6.69273 -1.92476 0
M  V30 1473 H 132.932 7.2088 -2.41321 0
M  V30 1474 N 134.507 -0.190092 1.56449 0
M  V30 1475 C 135.437 -1.23816 1.97969 0
M  V30 1476 C 136.418 -1.47201 0.852395 0
M  V30 1477 O 137.603 -1.58854 1.1171 0
M  V30 1478 C 134.733 -2.5813 2.3235 0
M  V30 1479 C 133.687 -2.49348 3.47864 0
M  V30 1480 C 133.013 -3.8798 3.67934 0
M  V30 1481 C 134.313 -2.01424 4.81898 0
M  V30 1482 H 136.007 -0.89311 2.85769 0
M  V30 1483 H 133.553 -0.428177 1.37487 0
M  V30 1484 H 135.506 -3.31637 2.59991 0
M  V30 1485 H 134.23 -2.94386 1.41438 0
M  V30 1486 H 132.889 -1.78297 3.20321 0
M  V30 1487 H 132.537 -4.21597 2.74344 0
M  V30 1488 H 132.237 -3.82978 4.45648 0
M  V30 1489 H 133.761 -4.63101 3.97957 0
M  V30 1490 H 135.175 -2.64693 5.08538 0
M  V30 1491 H 133.572 -2.07413 5.63116 0
M  V30 1492 H 134.642 -0.967677 4.75146 0
M  V30 1493 N 135.985 -1.50799 -0.457987 0
M  V30 1494 C 137.262 -1.52968 -1.21902 0
M  V30 1495 C 137.642 -0.281906 -2.09209 0
M  V30 1496 O 136.99 0.734076 -2.16388 0
M  V30 1497 C 137.2 -2.8326 -2.03875 0
M  V30 1498 C 138.548 -3.34425 -2.6162 0
M  V30 1499 O 139.572 -2.8467 -2.14106 0
M  V30 1500 O 138.431 -4.21188 -3.48228 0
M  V30 1501 H 135.525 -0.614129 -0.553873 0
M  V30 1502 H 138.071 -1.63098 -0.468739 0
M  V30 1503 H 136.843 -3.65543 -1.39621 0
M  V30 1504 H 136.466 -2.76195 -2.8601 0
M  V30 1505 N 137.463 0.71206 -1.40597 0
M  V30 1506 C 138.393 1.83889 -1.43899 0
M  V30 1507 C 139.374 1.67442 -0.299504 0
M  V30 1508 O 140.559 1.87421 -0.508624 0
M  V30 1509 C 137.689 3.21877 -1.30431 0
M  V30 1510 C 136.643 3.53002 -2.42019 0
M  V30 1511 C 135.969 4.90172 -2.13626 0
M  V30 1512 C 137.269 3.53643 -3.84362 0
M  V30 1513 H 138.963 1.81383 -2.38203 0
M  V30 1514 H 136.509 0.871237 -1.14654 0
M  V30 1515 H 138.462 4.00404 -1.31357 0
M  V30 1516 H 137.186 3.24968 -0.326049 0
M  V30 1517 H 135.845 2.76818 -2.40349 0
M  V30 1518 H 135.493 4.89869 -1.14182 0
M  V30 1519 H 135.193 5.11962 -2.88389 0
M  V30 1520 H 136.717 5.71028 -2.1624 0
M  V30 1521 H 138.131 4.22203 -3.87837 0
M  V30 1522 H 136.528 3.86961 -4.58673 0
M  V30 1523 H 137.598 2.52954 -4.13693 0
M  V30 1524 N 138.941 1.26152 0.944643 0
M  V30 1525 C 139.871 1.09902 2.06019 0
M  V30 1526 C 140.852 0.00519538 1.70099 0
M  V30 1527 O 142.037 0.176583 1.93396 0
M  V30 1528 C 139.167 0.727562 3.39594 0
M  V30 1529 C 138.121 1.77274 3.89561 0
M  V30 1530 C 137.447 1.25569 5.19747 0
M  V30 1531 C 138.747 3.17357 4.14827 0
M  V30 1532 H 140.441 2.03217 2.19871 0
M  V30 1533 H 137.987 0.978452 1.05652 0
M  V30 1534 H 139.94 0.600777 4.17095 0
M  V30 1535 H 138.664 -0.241287 3.25707 0
M  V30 1536 H 137.323 1.88814 3.14237 0
M  V30 1537 H 136.971 0.276783 5.02238 0
M  V30 1538 H 136.671 1.95433 5.54148 0
M  V30 1539 H 138.195 1.1415 5.99835 0
M  V30 1540 H 139.609 3.08914 4.82954 0
M  V30 1541 H 138.006 3.84781 4.60504 0
M  V30 1542 H 139.076 3.63673 3.20734 0
M  V30 1543 N 140.419 -1.14872 1.07899 0
M  V30 1544 C 141.644 -1.90202 0.826926 0
M  V30 1545 C 142.069 -1.77774 -0.614664 0
M  V30 1546 O 141.427 -1.11431 -1.43013 0
M  V30 1547 C 141.475 -3.38352 1.24702 0
M  V30 1548 O 140.579 -4.10497 0.39575 0
M  V30 1549 H 139.92 -0.591968 0.300782 0
M  V30 1550 H 142.45 -1.45437 1.43907 0
M  V30 1551 H 142.46 -3.89156 1.22563 0
M  V30 1552 H 141.135 -3.46715 2.29698 0
M  V30 1553 H 139.712 -3.69796 0.480117 0
M  V30 1554 N 141.898 -0.863906 -1.31812 0
M  V30 1555 C 143.144 -0.472535 -1.97218 0
M  V30 1556 C 143.477 0.971394 -1.68159 0
M  V30 1557 O 142.752 1.68309 -0.974798 0
M  V30 1558 C 143.035 -0.723054 -3.52766 0
M  V30 1559 C 142.888 -2.21608 -3.91421 0
M  V30 1560 C 144.207 -0.185522 -4.39709 0
M  V30 1561 H 141.326 -0.173158 -0.71637 0
M  V30 1562 H 143.968 -1.08403 -1.56041 0
M  V30 1563 H 142.118 -0.202577 -3.87971 0
M  V30 1564 H 143.79 -2.80334 -3.66347 0
M  V30 1565 H 142.033 -2.691 -3.40246 0
M  V30 1566 H 142.704 -2.34203 -4.99853 0
M  V30 1567 H 145.18 -0.630726 -4.11292 0
M  V30 1568 H 144.056 -0.390306 -5.47511 0
M  V30 1569 H 144.317 0.912229 -4.32586 0
M  V30 1570 N 143.376 1.44774 -0.622745 0
M  V30 1571 C 144.623 2.02121 -0.1239 0
M  V30 1572 C 144.951 1.48915 1.25118 0
M  V30 1573 O 144.206 0.660045 1.84233 0
M  V30 1574 C 144.505 3.57364 -0.0508323 0
M  V30 1575 C 144.171 4.29787 -1.36358 0
M  V30 1576 C 142.833 4.4929 -1.72314 0
M  V30 1577 C 145.185 4.71062 -2.23048 0
M  V30 1578 C 142.513 5.07325 -2.94682 0
M  V30 1579 C 144.865 5.30452 -3.44679 0
M  V30 1580 C 143.529 5.48175 -3.80868 0
M  V30 1581 H 142.799 0.739612 -0.0453381 0
M  V30 1582 H 145.446 1.73648 -0.807389 0
M  V30 1583 H 143.751 3.85202 0.715991 0
M  V30 1584 H 145.448 3.99456 0.351533 0
M  V30 1585 H 142.038 4.14932 -1.07375 0
M  V30 1586 H 146.222 4.55715 -1.96565 0
M  V30 1587 H 141.478 5.19235 -3.22809 0
M  V30 1588 H 145.652 5.61385 -4.12092 0
M  V30 1589 H 143.279 5.92912 -4.75773 0
M  V30 1590 N 144.854 0.36279 1.53368 0
M  V30 1591 C 146.079 -0.231226 2.06107 0
M  V30 1592 C 146.504 -1.419 1.23474 0
M  V30 1593 O 145.862 -1.79524 0.253128 0
M  V30 1594 C 145.91 -0.605523 3.5548 0
M  V30 1595 O 145.014 -1.70312 3.7559 0
M  V30 1596 H 144.355 -0.034327 0.663112 0
M  V30 1597 H 146.885 0.522584 1.97814 0
M  V30 1598 H 146.895 -0.877314 3.98456 0
M  V30 1599 H 145.57 0.263004 4.15068 0
M  V30 1600 H 144.147 -1.4271 3.44512 0
M  V30 1601 N 146.332 -1.57332 0.0918853 0
M  V30 1602 C 147.609 -1.85691 -0.614668 0
M  V30 1603 C 147.989 -0.988146 -1.86545 0
M  V30 1604 O 147.337 -0.0597055 -2.28422 0
M  V30 1605 C 147.547 -3.36294 -0.933126 0
M  V30 1606 C 148.895 -4.04275 -1.29796 0
M  V30 1607 O 149.919 -3.41157 -1.02424 0
M  V30 1608 O 148.778 -5.1564 -1.81047 0
M  V30 1609 H 145.872 -0.767802 -0.307261 0
M  V30 1610 H 148.418 -1.69244 0.12434 0
M  V30 1611 H 147.19 -3.91273 -0.0456404 0
M  V30 1612 H 146.813 -3.58076 -1.72822 0
M  V30 1613 N 147.81 0.181792 -1.56548 0
M  V30 1614 C 149.038 0.915947 -1.85521 0
M  V30 1615 C 149.453 1.76282 -0.676016 0
M  V30 1616 O 148.81 1.79012 0.355077 0
M  V30 1617 C 148.861 1.80126 -3.13427 0
M  V30 1618 O 148.582 0.988562 -4.26801 0
M  V30 1619 C 150.083 2.64597 -3.55673 0
M  V30 1620 H 147.303 0.26661 -0.61576 0
M  V30 1621 H 149.847 0.185039 -2.03661 0
M  V30 1622 H 148.002 2.48563 -2.97145 0
M  V30 1623 H 148.416 1.59308 -4.99721 0
M  V30 1624 H 149.89 3.2235 -4.48101 0
M  V30 1625 H 150.367 3.38958 -2.79292 0
M  V30 1626 H 150.973 2.0151 -3.74532 0
M  V30 1627 N 149.288 1.51039 0.449983 0
M  V30 1628 C 150.251 1.70863 1.5277 0
M  V30 1629 C 151.251 0.578846 1.5002 0
M  V30 1630 O 152.441 0.846213 1.52266 0
M  V30 1631 C 149.573 1.75341 2.9235 0
M  V30 1632 H 150.766 2.67034 1.36502 0
M  V30 1633 H 148.319 1.40838 0.677812 0
M  V30 1634 H 149.054 0.809383 3.14037 0
M  V30 1635 H 148.839 2.57436 2.95752 0
M  V30 1636 H 150.329 1.92559 3.70555 0
M  V30 1637 N 150.766 -0.704594 1.40972 0
M  V30 1638 C 151.994 -1.49354 1.43182 0
M  V30 1639 C 152.409 -1.88768 0.0345508 0
M  V30 1640 O 151.766 -1.56184 -0.944081 0
M  V30 1641 C 151.817 -2.76187 2.33244 0
M  V30 1642 O 151.538 -2.38436 3.67532 0
M  V30 1643 C 153.039 -3.7 2.44162 0
M  V30 1644 H 150.259 -0.460559 0.487982 0
M  V30 1645 H 152.803 -0.868261 1.85153 0
M  V30 1646 H 150.958 -3.34974 1.94606 0
M  V30 1647 H 151.372 -3.20126 4.15475 0
M  V30 1648 H 152.846 -4.55803 3.11364 0
M  V30 1649 H 153.323 -4.13867 1.47006 0
M  V30 1650 H 153.929 -3.17121 2.83398 0
M  V30 1651 N 152.244 -1.26651 -0.937939 0
M  V30 1652 C 153.655 -1.1125 -1.49934 0
M  V30 1653 C 154.006 0.306077 -1.93798 0
M  V30 1654 O 153.131 1.19792 -1.80219 0
M  V30 1655 C 153.726 -2.01339 -2.72485 0
M  V30 1656 C 152.285 -1.90074 -3.24883 0
M  V30 1657 C 151.432 -1.94498 -1.97651 0
M  V30 1658 H 154.383 -1.39693 -0.753091 0
M  V30 1659 H 154.404 -1.56319 -3.46907 0
M  V30 1660 H 153.916 -3.04577 -2.40529 0
M  V30 1661 H 152.017 -0.897827 -3.61621 0
M  V30 1662 H 152.13 -2.75778 -3.9177 0
M  V30 1663 H 150.494 -1.38591 -2.13693 0
M  V30 1664 H 151.277 -2.99372 -1.68022 0
M  V30 1665 N 153.722 1.14298 -1.08507 0
M  V30 1666 C 154.999 1.81544 -0.728088 0
M  V30 1667 C 155.379 1.95838 0.78808 0
M  V30 1668 O 154.727 1.51904 1.70697 0
M  V30 1669 C 154.937 3.17169 -1.45619 0
M  V30 1670 C 156.285 3.9265 -1.61591 0
M  V30 1671 O 157.309 3.26762 -1.41793 0
M  V30 1672 O 156.168 5.10807 -1.94263 0
M  V30 1673 H 153.262 0.78491 -0.260471 0
M  V30 1674 H 155.808 1.21307 -1.18671 0
M  V30 1675 H 154.58 3.01934 -2.489 0
M  V30 1676 H 154.203 3.851 -0.989124 0
M  V30 1677 N 155.201 0.870884 1.31352 0
M  V30 1678 C 156.45 0.478408 1.95944 0
M  V30 1679 C 156.763 -0.974493 1.69597 0
M  V30 1680 O 157.969 -1.47316 2.28058 0
M  V30 1681 C 156.425 0.804609 3.50791 0
M  V30 1682 C 156.033 2.27433 3.85977 0
M  V30 1683 C 157.777 0.480648 4.2177 0
M  V30 1684 C 155.684 2.5429 5.33939 0
M  V30 1685 H 154.614 0.175175 0.733369 0
M  V30 1686 H 157.265 1.06391 1.4951 0
M  V30 1687 H 155.647 0.148347 3.95722 0
M  V30 1688 H 156.821 2.97373 3.52002 0
M  V30 1689 H 155.136 2.56442 3.28065 0
M  V30 1690 H 157.733 0.658519 5.30629 0
M  V30 1691 H 158.076 -0.578979 4.12254 0
M  V30 1692 H 158.609 1.09349 3.82476 0
M  V30 1693 H 155.348 3.58939 5.48491 0
M  V30 1694 H 154.868 1.88945 5.69263 0
M  V30 1695 H 156.547 2.39066 6.01212 0
M  V30 1696 N 156.679 -1.44442 0.630414 0
M  V30 1697 C 157.626 -2.30678 -0.0749355 0
M  V30 1698 C 158.596 -1.4344 -0.837502 0
M  V30 1699 O 159.781 -1.72343 -0.818684 0
M  V30 1700 C 156.921 -3.28706 -1.05103 0
M  V30 1701 C 156.034 -4.31046 -0.286954 0
M  V30 1702 C 155.169 -5.16167 -1.2548 0
M  V30 1703 C 154.208 -6.10216 -0.479843 0
M  V30 1704 N 153.345 -6.88039 -1.39811 0
M  V30 1705 H 158.185 -2.90454 0.666386 0
M  V30 1706 H 155.722 -1.43107 0.340404 0
M  V30 1707 H 157.68 -3.84027 -1.63031 0
M  V30 1708 H 156.31 -2.70632 -1.75949 0
M  V30 1709 H 155.362 -3.78203 0.408243 0
M  V30 1710 H 156.674 -4.97794 0.316657 0
M  V30 1711 H 155.828 -5.76002 -1.90544 0
M  V30 1712 H 154.567 -4.49491 -1.89233 0
M  V30 1713 H 153.572 -5.49491 0.184295 0
M  V30 1714 H 154.797 -6.78928 0.152965 0
M  V30 1715 H 152.743 -6.24032 -2.02287 0
M  V30 1716 H 152.66 -7.51223 -0.848508 0
M  V30 1717 H 153.928 -7.52397 -2.03762 0
M  V30 1718 N 158.157 -0.370918 -1.53173 0
M  V30 1719 C 159.382 0.220293 -2.06227 0
M  V30 1720 C 159.807 1.41243 -1.24225 0
M  V30 1721 O 159.165 1.79387 -0.262645 0
M  V30 1722 C 159.213 0.586663 -3.55796 0
M  V30 1723 O 158.317 1.68317 -3.76488 0
M  V30 1724 H 157.658 0.0308099 -0.663285 0
M  V30 1725 H 160.188 -0.533068 -1.97534 0
M  V30 1726 H 160.198 0.85617 -3.98916 0
M  V30 1727 H 158.873 -0.285013 -4.14922 0
M  V30 1728 H 157.45 1.40881 -3.45264 0
M  V30 1729 N 159.635 1.57281 -0.100228 0
M  V30 1730 C 160.585 2.10848 0.86759 0
M  V30 1731 C 161.569 1.02473 1.24049 0
M  V30 1732 O 162.761 1.28739 1.21471 0
M  V30 1733 C 159.89 2.69648 2.12474 0
M  V30 1734 C 158.976 3.85074 1.77704 0
M  V30 1735 N 159.367 4.92897 1.13518 0
M  V30 1736 C 157.665 3.94905 2.07282 0
M  V30 1737 C 158.366 5.73475 0.974735 0
M  V30 1738 N 157.342 5.22675 1.4937 0
M  V30 1739 H 161.144 2.91594 0.367471 0
M  V30 1740 H 158.658 1.62074 0.102829 0
M  V30 1741 H 160.655 3.06356 2.82757 0
M  V30 1742 H 159.315 1.90359 2.63047 0
M  V30 1743 H 160.326 5.11662 0.801381 0
M  V30 1744 H 157.003 3.26633 2.60033 0
M  V30 1745 H 158.393 6.70238 0.472364 0
M  V30 1746 N 161.113 -0.173488 1.56642 0
M  V30 1747 C 162.343 -0.904781 1.85734 0
M  V30 1748 C 162.751 -1.76431 0.68328 0
M  V30 1749 O 162.094 -1.802 -0.356865 0
M  V30 1750 C 162.156 -1.83382 3.09211 0
M  V30 1751 C 161.82 -1.15411 4.42187 0
M  V30 1752 C 162.817 -0.520609 5.17287 0
M  V30 1753 C 160.502 -1.15151 4.88923 0
M  V30 1754 C 162.496 0.106412 6.37311 0
M  V30 1755 C 160.183 -0.520664 6.08878 0
M  V30 1756 C 161.181 0.107196 6.82916 0
M  V30 1757 O 160.869 0.728102 8.00596 0
M  V30 1758 H 160.601 -0.268408 0.62043 0
M  V30 1759 H 163.155 -0.179096 2.04618 0
M  V30 1760 H 161.385 -2.59976 2.86268 0
M  V30 1761 H 163.074 -2.43476 3.24768 0
M  V30 1762 H 163.84 -0.514606 4.82262 0
M  V30 1763 H 159.719 -1.62961 4.31236 0
M  V30 1764 H 163.263 0.597081 6.9504 0
M  V30 1765 H 159.16 -0.524242 6.43368 0
M  V30 1766 H 159.928 0.627138 8.16094 0
M  V30 1767 N 162.591 -1.51276 -0.441967 0
M  V30 1768 C 163.554 -1.7167 -1.51862 0
M  V30 1769 C 164.554 -0.586793 -1.49711 0
M  V30 1770 O 165.744 -0.854276 -1.51815 0
M  V30 1771 C 162.876 -1.76889 -2.91416 0
M  V30 1772 H 164.069 -2.67754 -1.35084 0
M  V30 1773 H 161.622 -1.41196 -0.670333 0
M  V30 1774 H 162.357 -0.826026 -3.13604 0
M  V30 1775 H 162.142 -2.59001 -2.94382 0
M  V30 1776 H 163.632 -1.94522 -3.69528 0
M  V30 1777 N 164.069 0.697108 -1.41344 0
M  V30 1778 C 165.316 1.45714 -1.40619 0
M  V30 1779 C 165.644 1.94494 -0.0147907 0
M  V30 1780 O 164.899 1.69794 0.973066 0
M  V30 1781 C 165.198 2.68553 -2.35826 0
M  V30 1782 C 164.864 2.38438 -3.82698 0
M  V30 1783 C 163.526 2.29936 -4.22709 0
M  V30 1784 C 165.878 2.13567 -4.75435 0
M  V30 1785 C 163.206 1.94656 -5.53467 0
M  V30 1786 C 165.558 1.79797 -6.06511 0
M  V30 1787 C 164.222 1.69789 -6.45545 0
M  V30 1788 H 163.492 0.533206 -0.51456 0
M  V30 1789 H 166.139 0.796901 -1.74131 0
M  V30 1790 H 164.444 3.39503 -1.95563 0
M  V30 1791 H 166.141 3.2669 -2.32539 0
M  V30 1792 H 162.731 2.4595 -3.51008 0
M  V30 1793 H 166.915 2.19082 -4.45328 0
M  V30 1794 H 162.171 1.8546 -5.82593 0
M  V30 1795 H 166.345 1.59572 -6.77872 0
M  V30 1796 H 163.972 1.4222 -7.46778 0
M  V30 1797 N 165.547 1.27147 0.931209 0
M  V30 1798 C 166.963 1.04475 1.20653 0
M  V30 1799 C 167.163 -0.223885 2.00252 0
M  V30 1800 O 166.219 -0.930332 2.34736 0
M  V30 1801 C 167.532 2.28209 1.95809 0
M  V30 1802 C 169.08 2.33211 2.08762 0
M  V30 1803 C 169.555 3.56665 2.87323 0
M  V30 1804 N 171.046 3.57201 2.94892 0
M  V30 1805 C 171.781 4.49395 3.56134 0
M  V30 1806 N 171.277 5.51889 4.18796 0
M  V30 1807 N 173.07 4.37026 3.53504 0
M  V30 1808 H 165.221 2.08612 0.399333 0
M  V30 1809 H 167.484 0.917312 0.239253 0
M  V30 1810 H 167.19 3.20538 1.44736 0
M  V30 1811 H 167.064 2.33247 2.96438 0
M  V30 1812 H 169.451 1.41391 2.59023 0
M  V30 1813 H 169.532 2.32178 1.07364 0
M  V30 1814 H 169.176 4.4882 2.37746 0
M  V30 1815 H 169.106 3.54948 3.88998 0
M  V30 1816 H 171.597 2.83074 2.50354 0
M  V30 1817 H 171.91 6.18409 4.63454 0
M  V30 1818 H 170.255 5.55735 4.17353 0
M  V30 1819 H 173.446 3.56166 3.03749 0
M  V30 1820 H 173.619 5.09067 4.00942 0
M  V30 1821 N 167.025 -1.13721 1.09112 0
M  V30 1822 C 168.274 -1.84275 0.82009 0
M  V30 1823 C 168.587 -1.84253 -0.656509 0
M  V30 1824 O 169.793 -2.50668 -1.04296 0
M  V30 1825 C 168.249 -3.30825 1.41714 0
M  V30 1826 C 167.857 -3.39244 2.92605 0
M  V30 1827 C 169.601 -4.06443 1.22492 0
M  V30 1828 C 167.508 -4.80047 3.45411 0
M  V30 1829 H 166.438 -0.690387 0.30312 0
M  V30 1830 H 169.089 -1.28146 1.31343 0
M  V30 1831 H 167.471 -3.86737 0.851498 0
M  V30 1832 H 168.645 -2.93344 3.55367 0
M  V30 1833 H 166.96 -2.77088 3.10823 0
M  V30 1834 H 169.557 -5.10387 1.59402 0
M  V30 1835 H 169.9 -4.15972 0.165299 0
M  V30 1836 H 170.433 -3.56852 1.75788 0
M  V30 1837 H 167.172 -4.75709 4.50978 0
M  V30 1838 H 166.692 -5.26455 2.87411 0
M  V30 1839 H 168.371 -5.48957 3.42425 0
M  V30 1840 N 168.503 -0.877838 -1.30888 0
M  V30 1841 C 169.75 -0.492696 -1.96415 0
M  V30 1842 C 170.078 0.956671 -1.69346 0
M  V30 1843 O 169.333 1.68993 -0.986913 0
M  V30 1844 C 169.632 -0.705748 -3.50363 0
M  V30 1845 C 169.298 -2.1291 -3.97467 0
M  V30 1846 C 167.96 -2.51834 -4.1004 0
M  V30 1847 C 170.312 -3.05702 -4.22132 0
M  V30 1848 C 167.64 -3.82775 -4.44635 0
M  V30 1849 C 169.992 -4.36166 -4.58194 0
M  V30 1850 C 168.656 -4.74993 -4.68975 0
M  V30 1851 H 167.926 -0.18029 -0.718733 0
M  V30 1852 H 170.573 -1.11233 -1.55883 0
M  V30 1853 H 168.878 -0.00303058 -3.918 0
M  V30 1854 H 170.575 -0.387456 -3.99124 0
M  V30 1855 H 167.165 -1.81694 -3.88182 0
M  V30 1856 H 171.349 -2.76853 -4.11906 0
M  V30 1857 H 166.605 -4.12609 -4.51181 0
M  V30 1858 H 170.779 -5.08111 -4.76231 0
M  V30 1859 H 168.406 -5.76495 -4.95537 0
M  V30 1860 N 169.982 1.44106 -0.638065 0
M  V30 1861 C 171.259 1.95453 -0.0759321 0
M  V30 1862 C 171.639 1.57984 1.40015 0
M  V30 1863 O 170.987 0.857361 2.11806 0
M  V30 1864 C 171.197 3.47655 -0.306132 0
M  V30 1865 C 172.545 4.24114 -0.203008 0
M  V30 1866 O 173.569 3.55405 -0.237871 0
M  V30 1867 O 172.428 5.46381 -0.113827 0
M  V30 1868 H 169.522 0.826797 0.0183332 0
M  V30 1869 H 172.068 1.54122 -0.710251 0
M  V30 1870 H 170.84 3.68 -1.3301 0
M  V30 1871 H 170.463 3.95949 0.361991 0
M  V30 1872 N 171.46 0.379036 1.52974 0
M  V30 1873 C 172.707 -0.206421 2.01445 0
M  V30 1874 C 173.035 -1.47668 1.26587 0
M  V30 1875 O 172.29 -1.92514 0.351675 0
M  V30 1876 C 172.589 -0.53096 3.53434 0
M  V30 1877 C 172.255 0.646546 4.46241 0
M  V30 1878 C 170.917 0.969604 4.7133 0
M  V30 1879 C 173.269 1.43479 5.01062 0
M  V30 1880 C 170.597 2.08263 5.48492 0
M  V30 1881 C 172.949 2.53834 5.7944 0
M  V30 1882 C 171.613 2.86659 6.02812 0
M  V30 1883 H 170.883 -0.0755349 0.73714 0
M  V30 1884 H 173.53 0.514271 1.84465 0
M  V30 1885 H 171.835 -1.33285 3.68432 0
M  V30 1886 H 173.532 -0.996417 3.88423 0
M  V30 1887 H 170.122 0.384734 4.2687 0
M  V30 1888 H 174.306 1.19844 4.81613 0
M  V30 1889 H 169.562 2.34078 5.64816 0
M  V30 1890 H 173.736 3.15319 6.20924 0
M  V30 1891 H 171.363 3.73026 6.62387 0
M  V30 1892 N 172.938 -1.57226 0.108567 0
M  V30 1893 C 174.215 -1.86333 -0.594939 0
M  V30 1894 C 174.595 -1.00788 -1.85486 0
M  V30 1895 O 173.943 -0.0839293 -2.28346 0
M  V30 1896 C 174.153 -3.37265 -0.897405 0
M  V30 1897 C 175.501 -4.05629 -1.25501 0
M  V30 1898 O 176.525 -3.42224 -0.987998 0
M  V30 1899 O 175.384 -5.17531 -1.75567 0
M  V30 1900 H 172.478 -0.771018 -0.2991 0
M  V30 1901 H 175.024 -1.69102 0.142283 0
M  V30 1902 H 173.796 -3.913 -0.00413806 0
M  V30 1903 H 173.419 -3.59889 -1.69014 0
M  V30 1904 N 174.416 0.165178 -1.56732 0
M  V30 1905 C 175.693 0.908443 -1.73224 0
M  V30 1906 C 176.073 2.0013 -0.67165 0
M  V30 1907 O 175.421 2.26353 0.31253 0
M  V30 1908 C 175.631 1.46756 -3.16644 0
M  V30 1909 C 176.979 1.93809 -3.77787 0
M  V30 1910 O 178.003 1.56537 -3.1996 0
M  V30 1911 O 176.862 2.62486 -4.79336 0
M  V30 1912 H 173.956 0.428025 -0.707618 0
M  V30 1913 H 176.502 0.152526 -1.69013 0
M  V30 1914 H 175.274 0.68129 -3.85323 0
M  V30 1915 H 174.897 2.28749 -3.25207 0
M  V30 1916 N 175.894 1.51508 0.433938 0
M  V30 1917 C 177.171 1.54888 1.19453 0
M  V30 1918 C 177.551 0.315154 2.08734 0
M  V30 1919 O 176.899 -0.699558 2.17528 0
M  V30 1920 C 177.109 2.86467 1.99342 0
M  V30 1921 C 178.457 3.38545 2.56267 0
M  V30 1922 O 179.481 2.88041 2.0955 0
M  V30 1923 O 178.34 4.26675 3.41483 0
M  V30 1924 H 175.434 0.622863 0.544032 0
M  V30 1925 H 177.98 1.63823 0.442732 0
M  V30 1926 H 176.752 3.67718 1.33788 0
M  V30 1927 H 176.375 2.8071 2.8158 0
M  V30 1928 N 177.372 -0.689602 1.41712 0
M  V30 1929 C 178.62 -1.4468 1.4111 0
M  V30 1930 C 178.941 -1.94986 0.0232196 0
M  V30 1931 O 178.211 -1.72097 -0.935913 0
M  V30 1932 H 176.791 -0.536847 0.519427 0
M  V30 1933 H 179.453 -0.815825 1.77004 0
M  V30 1934 H 178.549 -2.30706 2.10193 0
M  V30 1935 N 178.85 -1.27639 -0.924453 0
M  V30 1936 C 180.078 -1.16989 -1.70649 0
M  V30 1937 C 180.493 0.272869 -1.86818 0
M  V30 1938 O 179.85 1.18549 -1.38753 0
M  V30 1939 C 179.901 -1.85229 -3.10439 0
M  V30 1940 O 179.622 -3.23868 -2.95028 0
M  V30 1941 C 181.123 -1.80746 -4.04779 0
M  V30 1942 H 178.343 -0.406595 -0.53378 0
M  V30 1943 H 180.887 -1.68569 -1.15778 0
M  V30 1944 H 179.042 -1.37545 -3.6216 0
M  V30 1945 H 179.456 -3.57889 -3.83426 0
M  V30 1946 H 180.93 -2.33101 -5.00368 0
M  V30 1947 H 181.407 -0.777499 -4.32263 0
M  V30 1948 H 182.013 -2.28059 -3.58984 0
M  V30 1949 N 180.328 1.1314 -1.09713 0
M  V30 1950 C 181.258 2.20748 -0.761102 0
M  V30 1951 C 182.239 1.68061 0.262566 0
M  V30 1952 O 183.424 1.93765 0.129977 0
M  V30 1953 C 180.554 3.46812 -0.184054 0
M  V30 1954 C 179.508 4.12606 -1.13757 0
M  V30 1955 C 178.834 5.33031 -0.422083 0
M  V30 1956 C 180.134 4.59603 -2.48118 0
M  V30 1957 H 181.828 2.49113 -1.66082 0
M  V30 1958 H 179.374 1.19734 -0.799987 0
M  V30 1959 H 181.327 4.21353 0.0631215 0
M  V30 1960 H 180.051 3.17851 0.750868 0
M  V30 1961 H 178.71 3.40036 -1.37007 0
M  V30 1962 H 178.358 5.00335 0.517072 0
M  V30 1963 H 178.058 5.77999 -1.05788 0
M  V30 1964 H 179.582 6.10325 -0.183277 0
M  V30 1965 H 180.996 5.25552 -2.29059 0
M  V30 1966 H 179.393 5.15321 -3.07514 0
M  V30 1967 H 180.463 3.73971 -3.08665 0
M  V30 1968 N 181.806 0.884767 1.30421 0
M  V30 1969 C 182.754 0.340869 2.30089 0
M  V30 1970 C 183.748 -0.55201 1.60154 0
M  V30 1971 O 184.954 -0.436467 1.74628 0
M  V30 1972 H 181.329 0.0915739 0.746404 0
M  V30 1973 H 183.3 1.19513 2.73421 0
M  V30 1974 C 182.049 -0.429779 3.45034 0
M  V30 1975 H 181.372 0.248024 3.9903 0
M  V30 1976 H 182.812 -0.775445 4.16849 0
M  V30 1977 C 181.271 -1.62677 2.95022 0
M  V30 1978 O 181.801 -2.72614 2.95033 0
M  V30 1979 N 180.007 -1.46387 2.51036 0
M  V30 1980 H 179.554 -0.569506 2.51226 0
M  V30 1981 H 179.512 -2.26612 2.17932 0
M  V30 1982 N 183.284 -1.43765 0.645699 0
M  V30 1983 C 184.7 -1.56509 0.312591 0
M  V30 1984 C 184.9 -1.6307 -1.18365 0
M  V30 1985 O 183.956 -1.58167 -1.96824 0
M  V30 1986 C 185.269 -2.82968 1.01733 0
M  V30 1987 C 186.817 -2.96701 0.996865 0
M  V30 1988 C 187.292 -4.25982 1.68236 0
M  V30 1989 N 188.783 -4.32829 1.64964 0
M  V30 1990 C 189.518 -5.31613 2.14885 0
M  V30 1991 N 189.014 -6.36718 2.73061 0
M  V30 1992 N 190.807 -5.23217 2.05428 0
M  V30 1993 H 182.958 -1.3775 1.61675 0
M  V30 1994 H 185.221 -0.661067 0.679481 0
M  V30 1995 H 184.927 -2.84156 2.0724 0
M  V30 1996 H 184.801 -3.72957 0.564177 0
M  V30 1997 H 187.188 -2.95058 -0.0497719 0
M  V30 1998 H 187.269 -2.08022 1.48865 0
M  V30 1999 H 186.913 -4.28386 2.72852 0
M  V30 2000 H 186.843 -5.13545 1.16529 0
M  V30 2001 H 189.334 -3.57493 1.22503 0
M  V30 2002 H 189.647 -7.08401 3.08848 0
M  V30 2003 H 187.992 -6.37362 2.77118 0
M  V30 2004 H 191.183 -4.40019 1.59689 0
M  V30 2005 H 191.356 -6.00045 2.44643 0
M  V30 2006 N 184.763 -0.387143 -1.52771 0
M  V30 2007 C 185.673 0.456442 -2.30117 0
M  V30 2008 C 186.689 1.07342 -1.36944 0
M  V30 2009 O 187.865 1.07971 -1.70013 0
M  V30 2010 C 184.93 1.56957 -3.09136 0
M  V30 2011 C 183.991 0.977916 -4.18014 0
M  V30 2012 C 183.224 2.038 -4.93256 0
M  V30 2013 O 183.447 3.25271 -4.68567 0
M  V30 2014 O 182.381 1.6565 -5.78657 0
M  V30 2015 H 186.207 -0.17359 -3.03203 0
M  V30 2016 H 183.792 -0.150919 -1.48636 0
M  V30 2017 H 185.674 2.21628 -3.58412 0
M  V30 2018 H 184.349 2.18461 -2.38865 0
M  V30 2019 H 183.256 0.294525 -3.72939 0
M  V30 2020 H 184.589 0.407128 -4.90513 0
M  V30 2021 N 186.241 1.57166 -0.116904 0
M  V30 2022 C 187.518 1.86645 0.585049 0
M  V30 2023 C 187.898 1.0177 1.84949 0
M  V30 2024 O 187.246 0.0960379 2.28298 0
M  V30 2025 C 187.456 3.37736 0.879507 0
M  V30 2026 C 188.804 4.06289 1.23348 0
M  V30 2027 O 189.828 3.42743 0.969836 0
M  V30 2028 O 188.687 5.18455 1.7282 0
M  V30 2029 H 185.781 0.772593 0.295007 0
M  V30 2030 H 188.327 1.69025 -0.151249 0
M  V30 2031 H 187.099 3.91296 -0.0166136 0
M  V30 2032 H 186.722 3.6078 1.67103 0
M  V30 2033 N 187.719 -0.156864 1.56817 0
M  V30 2034 C 188.649 -1.19589 2.00551 0
M  V30 2035 C 189.63 -1.4536 0.883426 0
M  V30 2036 O 190.815 -1.56449 1.15054 0
M  V30 2037 C 187.945 -2.53143 2.37773 0
M  V30 2038 C 186.899 -2.41913 3.53075 0
M  V30 2039 C 186.225 -3.80088 3.76081 0
M  V30 2040 C 187.525 -1.91157 4.86062 0
M  V30 2041 H 189.219 -0.832293 2.87599 0
M  V30 2042 H 186.765 -0.398918 1.38364 0
M  V30 2043 H 188.718 -3.26047 2.66967 0
M  V30 2044 H 187.442 -2.91319 1.4765 0
M  V30 2045 H 186.101 -1.71462 3.24031 0
M  V30 2046 H 185.749 -4.15683 2.83225 0
M  V30 2047 H 185.449 -3.73439 4.53671 0
M  V30 2048 H 186.973 -4.54556 4.0769 0
M  V30 2049 H 188.387 -2.53846 5.14038 0
M  V30 2050 H 186.784 -1.95422 5.67389 0
M  V30 2051 H 187.854 -0.866673 4.77092 0
M  V30 2052 N 189.197 -1.51736 -0.425897 0
M  V30 2053 C 190.422 -1.69082 -1.20108 0
M  V30 2054 C 190.847 -0.392398 -1.83962 0
M  V30 2055 O 190.205 0.64858 -1.69302 0
M  V30 2056 C 190.253 -2.81604 -2.25237 0
M  V30 2057 O 189.357 -2.46004 -3.30992 0
M  V30 2058 H 188.698 -0.563408 -0.35138 0
M  V30 2059 H 191.228 -1.98358 -0.501512 0
M  V30 2060 H 191.238 -3.06025 -2.69838 0
M  V30 2061 H 189.913 -3.75817 -1.78142 0
M  V30 2062 H 188.49 -2.32195 -2.91787 0
M  V30 2063 N 190.675 0.682077 -1.42076 0
M  V30 2064 C 192.091 0.994324 -1.24841 0
M  V30 2065 C 192.291 2.0096 -0.147389 0
M  V30 2066 O 191.347 2.47822 0.483782 0
M  V30 2067 C 192.66 1.50607 -2.60265 0
M  V30 2068 C 194.208 1.62421 -2.6756 0
M  V30 2069 C 194.683 2.16994 -4.03333 0
M  V30 2070 N 196.174 2.24337 -4.0525 0
M  V30 2071 C 196.909 2.67621 -5.07116 0
M  V30 2072 N 196.405 3.1041 -6.19368 0
M  V30 2073 N 198.198 2.67305 -4.94474 0
M  V30 2074 H 190.349 0.00973908 -2.12398 0
M  V30 2075 H 192.612 0.0668593 -0.945639 0
M  V30 2076 H 192.318 0.834583 -3.41654 0
M  V30 2077 H 192.192 2.48602 -2.83684 0
M  V30 2078 H 194.579 2.28678 -1.86521 0
M  V30 2079 H 194.66 0.629352 -2.47937 0
M  V30 2080 H 194.304 1.51349 -4.84826 0
M  V30 2081 H 194.234 3.17258 -4.20304 0
M  V30 2082 H 196.725 1.94158 -3.24209 0
M  V30 2083 H 197.038 3.42103 -6.92954 0
M  V30 2084 H 195.383 3.08286 -6.22884 0
M  V30 2085 H 198.574 2.33233 -4.05857 0
M  V30 2086 H 198.747 3.00718 -5.73997 0
M  V30 2087 N 192.153 1.28127 0.917671 0
M  V30 2088 C 193.083 1.14248 2.03641 0
M  V30 2089 C 194.064 0.0412748 1.7005 0
M  V30 2090 O 195.249 0.217566 1.92977 0
M  V30 2091 C 192.379 0.799431 3.37974 0
M  V30 2092 C 191.333 1.85497 3.85713 0
M  V30 2093 C 190.659 1.36565 5.16966 0
M  V30 2094 C 191.959 3.26085 4.08002 0
M  V30 2095 H 193.653 2.07835 2.15511 0
M  V30 2096 H 191.199 1.00064 1.03553 0
M  V30 2097 H 193.152 0.689114 4.15727 0
M  V30 2098 H 191.876 -0.172145 3.26146 0
M  V30 2099 H 190.535 1.95437 3.10161 0
M  V30 2100 H 190.183 0.383253 5.01538 0
M  V30 2101 H 189.883 2.07143 5.49878 0
M  V30 2102 H 191.407 1.26848 5.97279 0
M  V30 2103 H 192.821 3.19089 4.76293 0
M  V30 2104 H 191.218 3.94462 4.52238 0
M  V30 2105 H 192.288 3.70394 3.12948 0
M  V30 2106 N 193.631 -1.12557 1.10312 0
M  V30 2107 C 194.877 -1.84311 0.846011 0
M  V30 2108 C 195.21 -1.83805 -0.626859 0
M  V30 2109 O 194.485 -1.28268 -1.46211 0
M  V30 2110 C 194.768 -3.32048 1.39341 0
M  V30 2111 C 194.621 -3.41016 2.93305 0
M  V30 2112 C 195.94 -4.27764 1.03468 0
M  V30 2113 H 193.059 -0.669192 0.30879 0
M  V30 2114 H 195.701 -1.32057 1.36605 0
M  V30 2115 H 193.851 -3.76678 0.951087 0
M  V30 2116 H 195.523 -3.05031 3.46055 0
M  V30 2117 H 193.766 -2.81603 3.29973 0
M  V30 2118 H 194.437 -4.44948 3.26689 0
M  V30 2119 H 196.913 -3.91253 1.41633 0
M  V30 2120 H 195.789 -5.29549 1.44463 0
M  V30 2121 H 196.05 -4.42064 -0.0560404 0
M  V30 2122 N 195.109 -0.891671 -1.2995 0
M  V30 2123 C 196.057 -0.353066 -2.29905 0
M  V30 2124 C 197.051 0.543509 -1.60444 0
M  V30 2125 O 198.257 0.4272 -1.74857 0
M  V30 2126 H 194.632 -0.095531 -0.745907 0
M  V30 2127 H 196.603 -1.20961 -2.72784 0
M  V30 2128 C 195.352 0.411475 -3.45257 0
M  V30 2129 H 194.675 -0.269182 -3.98893 0
M  V30 2130 H 196.115 0.753328 -4.17254 0
M  V30 2131 C 194.574 1.6111 -2.9588 0
M  V30 2132 O 195.104 2.71045 -2.96475 0
M  V30 2133 N 193.31 1.45054 -2.51809 0
M  V30 2134 H 192.857 0.556175 -2.51524 0
M  V30 2135 H 192.815 2.25453 -2.1913 0
M  V30 2136 N 196.587 1.43421 -0.653314 0
M  V30 2137 C 197.827 2.03689 -0.170346 0
M  V30 2138 C 198.191 1.50427 1.19314 0
M  V30 2139 O 199.392 2.0234 1.76952 0
M  V30 2140 C 197.663 3.56946 -0.180183 0
M  V30 2141 S 199.222 4.38171 0.234925 0
M  V30 2142 H 196.04 0.707345 -0.0719976 0
M  V30 2143 H 198.642 1.75486 -0.86167 0
M  V30 2144 H 197.346 3.93212 -1.17526 0
M  V30 2145 H 196.877 3.89791 0.531675 0
M  V30 2146 H 198.892 4.73808 1.47378 0
M  V30 2147 N 198.065 0.39524 1.52563 0
M  V30 2148 C 198.995 -0.428384 2.29537 0
M  V30 2149 C 199.976 -1.05831 1.33169 0
M  V30 2150 O 201.161 -1.06995 1.62067 0
M  V30 2151 C 198.291 -1.55274 3.10656 0
M  V30 2152 C 197.245 -1.04855 4.14957 0
M  V30 2153 C 196.571 -2.26543 4.84337 0
M  V30 2154 C 197.871 -0.112324 5.22179 0
M  V30 2155 H 199.565 0.213867 2.98635 0
M  V30 2156 H 197.111 0.104298 1.43622 0
M  V30 2157 H 199.064 -2.1358 3.63265 0
M  V30 2158 H 197.788 -2.22266 2.39302 0
M  V30 2159 H 196.447 -0.487985 3.63338 0
M  V30 2160 H 196.095 -2.92059 4.09525 0
M  V30 2161 H 195.795 -1.93466 5.54837 0
M  V30 2162 H 197.319 -2.85481 5.39753 0
M  V30 2163 H 198.733 -0.603752 5.70112 0
M  V30 2164 H 197.13 0.128968 5.99961 0
M  V30 2165 H 198.2 0.837052 4.77621 0
M  V30 2166 N 199.544 -1.57102 0.125237 0
M  V30 2167 C 200.772 -1.99761 -0.538797 0
M  V30 2168 C 201.187 -1.00503 -1.59827 0
M  V30 2169 O 200.544 0.00119474 -1.825 0
M  V30 2170 C 200.595 -3.42408 -1.15927 0
M  V30 2171 O 200.316 -4.37869 -0.142143 0
M  V30 2172 C 201.817 -4.00232 -1.90602 0
M  V30 2173 H 199.037 -0.655772 -0.14214 0
M  V30 2174 H 201.581 -2.03383 0.213413 0
M  V30 2175 H 199.736 -3.39706 -1.86223 0
M  V30 2176 H 200.15 -5.21128 -0.593775 0
M  V30 2177 H 201.624 -5.02105 -2.29335 0
M  V30 2178 H 202.101 -3.39721 -2.78363 0
M  V30 2179 H 202.707 -4.06499 -1.25055 0
M  V30 2180 N 201.022 0.148545 -1.56898 0
M  V30 2181 C 202.27 0.859717 -1.82902 0
M  V30 2182 C 202.591 1.81775 -0.70588 0
M  V30 2183 O 201.861 1.93994 0.272586 0
M  V30 2184 H 200.441 0.320469 -0.674766 0
M  V30 2185 H 203.103 0.142918 -1.94375 0
M  V30 2186 H 202.199 1.4229 -2.77777 0
M  V30 2187 N 202.5 1.5196 0.417844 0
M  V30 2188 C 203.41 1.77554 1.53336 0
M  V30 2189 C 204.426 0.660655 1.6097 0
M  V30 2190 O 205.602 0.945099 1.77848 0
M  V30 2191 C 202.667 1.91291 2.89152 0
M  V30 2192 C 201.728 3.15183 2.91475 0
M  V30 2193 C 200.961 3.28256 4.20813 0
M  V30 2194 O 201.184 2.46798 5.14244 0
M  V30 2195 O 200.118 4.21356 4.29817 0
M  V30 2196 H 203.944 2.7222 1.34647 0
M  V30 2197 H 201.529 1.36698 0.602828 0
M  V30 2198 H 203.411 2.02199 3.69721 0
M  V30 2199 H 202.086 0.998129 3.07927 0
M  V30 2200 H 200.993 3.09739 2.09791 0
M  V30 2201 H 202.326 4.06414 2.77648 0
M  V30 2202 N 203.978 -0.674533 1.42435 0
M  V30 2203 C 205.226 -1.43175 1.42637 0
M  V30 2204 C 205.547 -1.94951 0.0438992 0
M  V30 2205 O 204.817 -1.7308 -0.917607 0
M  V30 2206 H 203.397 -0.531307 0.525092 0
M  V30 2207 H 206.059 -0.797006 1.77859 0
M  V30 2208 H 205.155 -2.28463 2.12629 0
M  V30 2209 N 205.456 -1.28612 -0.910864 0
M  V30 2210 C 206.366 -1.14643 -2.0468 0
M  V30 2211 C 207.382 -0.0723121 -1.7385 0
M  V30 2212 O 208.558 -0.282178 -1.99413 0
M  V30 2213 C 205.623 -0.812561 -3.37044 0
M  V30 2214 C 204.684 -1.96935 -3.81465 0
M  V30 2215 C 203.917 -1.65131 -5.07511 0
M  V30 2216 O 204.14 -0.567013 -5.67575 0
M  V30 2217 O 203.074 -2.49585 -5.47714 0
M  V30 2218 H 206.9 -2.1001 -2.19384 0
M  V30 2219 H 204.485 -1.07958 -1.03274 0
M  V30 2220 H 206.367 -0.640441 -4.16505 0
M  V30 2221 H 205.042 0.111426 -3.23508 0
M  V30 2222 H 203.949 -2.19664 -3.02818 0
M  V30 2223 H 205.282 -2.87414 -3.99567 0
M  V30 2224 N 206.934 1.1197 -1.10907 0
M  V30 2225 C 208.211 1.79959 -0.766432 0
M  V30 2226 C 208.591 1.97466 0.746363 0
M  V30 2227 O 207.939 1.55491 1.67436 0
M  V30 2228 C 208.149 3.14009 -1.52314 0
M  V30 2229 C 209.497 3.89134 -1.69883 0
M  V30 2230 O 210.521 3.2368 -1.48692 0
M  V30 2231 O 209.38 5.06572 -2.05054 0
M  V30 2232 H 206.474 0.779208 -0.277062 0
M  V30 2233 H 209.02 1.18762 -1.21217 0
M  V30 2234 H 207.792 2.96587 -2.55249 0
M  V30 2235 H 207.415 3.82915 -1.07059 0
M  V30 2236 N 208.412 0.89855 1.29475 0
M  V30 2237 C 209.64 0.539261 1.99749 0
M  V30 2238 C 210.055 -0.875716 1.67262 0
M  V30 2239 O 209.412 -1.57786 0.917049 0
M  V30 2240 C 209.463 0.72061 3.54245 0
M  V30 2241 O 209.184 2.07989 3.8558 0
M  V30 2242 C 210.685 0.366118 4.41786 0
M  V30 2243 H 207.905 0.207047 0.638258 0
M  V30 2244 H 210.449 1.20758 1.65039 0
M  V30 2245 H 208.604 0.0994862 3.87272 0
M  V30 2246 H 209.018 2.10841 4.80257 0
M  V30 2247 H 210.492 0.543848 5.49314 0
M  V30 2248 H 210.969 -0.696763 4.33638 0
M  V30 2249 H 211.575 0.964135 4.14228 0
M  V30 2250 N 209.89 -1.43072 0.660911 0
M  V30 2251 C 211.306 -1.56169 0.329173 0
M  V30 2252 C 211.506 -1.64317 -1.16629 0
M  V30 2253 O 210.562 -1.60245 -1.95135 0
M  V30 2254 C 211.875 -2.81873 1.04729 0
M  V30 2255 C 213.423 -2.95627 1.02828 0
M  V30 2256 C 213.898 -4.24174 1.72744 0
M  V30 2257 N 215.389 -4.31055 1.69545 0
M  V30 2258 C 216.124 -5.29304 2.20511 0
M  V30 2259 N 215.62 -6.33786 2.79799 0
M  V30 2260 N 217.413 -5.21008 2.10966 0
M  V30 2261 H 209.564 -1.36027 1.63127 0
M  V30 2262 H 211.827 -0.653823 0.686454 0
M  V30 2263 H 211.533 -2.81942 2.10242 0
M  V30 2264 H 211.407 -3.72338 0.603702 0
M  V30 2265 H 213.794 -2.95094 -0.0184742 0
M  V30 2266 H 213.875 -2.06431 1.51063 0
M  V30 2267 H 213.519 -4.25467 2.7738 0
M  V30 2268 H 213.449 -5.1228 1.2197 0
M  V30 2269 H 215.94 -3.56174 1.26288 0
M  V30 2270 H 216.253 -7.05086 3.16344 0
M  V30 2271 H 214.598 -6.34387 2.83863 0
M  V30 2272 H 217.789 -4.38301 1.64347 0
M  V30 2273 H 217.962 -5.97416 2.50993 0
M  V30 2274 N 211.368 -0.403325 -1.52352 0
M  V30 2275 C 212.298 0.416205 -2.29761 0
M  V30 2276 C 213.279 1.05123 -1.33728 0
M  V30 2277 O 214.464 1.06134 -1.62632 0
M  V30 2278 C 211.594 1.53624 -3.11475 0
M  V30 2279 C 210.548 1.02653 -4.15507 0
M  V30 2280 C 209.874 2.23971 -4.85532 0
M  V30 2281 C 211.174 0.08463 -5.22231 0
M  V30 2282 H 212.868 -0.229701 -2.98518 0
M  V30 2283 H 210.414 -0.111913 -1.43564 0
M  V30 2284 H 212.367 2.1165 -3.64393 0
M  V30 2285 H 211.091 2.20994 -2.40477 0
M  V30 2286 H 209.75 0.46871 -3.63591 0
M  V30 2287 H 209.398 2.89883 -4.11068 0
M  V30 2288 H 209.098 1.90521 -5.55856 0
M  V30 2289 H 210.622 2.82614 -5.41259 0
M  V30 2290 H 212.036 0.573509 -5.70424 0
M  V30 2291 H 210.433 -0.160783 -5.99885 0
M  V30 2292 H 211.503 -0.86237 -4.7717 0
M  V30 2293 N 212.846 1.57033 -0.133567 0
M  V30 2294 C 214.071 2.00475 0.531477 0
M  V30 2295 C 214.496 1.01291 1.58499 0
M  V30 2296 O 213.854 -0.0133279 1.81295 0
M  V30 2297 C 213.902 3.42729 1.12113 0
M  V30 2298 O 213.006 3.46498 2.23636 0
M  V30 2299 H 212.347 0.650876 0.131362 0
M  V30 2300 H 214.877 2.03344 -0.22634 0
M  V30 2301 H 214.887 3.81246 1.4531 0
M  V30 2302 H 213.562 4.14428 0.349557 0
M  V30 2303 H 212.139 3.19811 1.91769 0
M  V30 2304 N 214.325 -0.140222 1.56975 0
M  V30 2305 C 215.288 -1.15689 1.97861 0
M  V30 2306 C 216.288 -1.3549 0.865974 0
M  V30 2307 O 217.478 -1.32367 1.13246 0
M  V30 2308 C 214.61 -2.51582 2.30042 0
M  V30 2309 H 215.803 -0.805971 2.88867 0
M  V30 2310 H 213.356 -0.383801 1.51515 0
M  V30 2311 H 214.091 -2.91632 1.41849 0
M  V30 2312 H 213.876 -2.38569 3.11171 0
M  V30 2313 H 215.366 -3.24792 2.62488 0
M  V30 2314 N 215.803 -1.52179 -0.40978 0
M  V30 2315 C 217.028 -1.70347 -1.18308 0
M  V30 2316 C 217.453 -0.411887 -1.83535 0
M  V30 2317 O 216.811 0.630587 -1.6998 0
M  V30 2318 C 216.859 -2.83977 -2.22238 0
M  V30 2319 O 215.963 -2.495 -3.28365 0
M  V30 2320 H 215.304 -0.567103 -0.345384 0
M  V30 2321 H 217.834 -1.98879 -0.480445 0
M  V30 2322 H 217.844 -3.0887 -2.66577 0
M  V30 2323 H 216.519 -3.77685 -1.74146 0
M  V30 2324 H 215.096 -2.35277 -2.89308 0
M  V30 2325 N 217.281 0.66697 -1.42791 0
M  V30 2326 C 218.191 1.80962 -1.49299 0
M  V30 2327 C 219.207 1.69775 -0.381108 0
M  V30 2328 O 220.383 1.91188 -0.633188 0
M  V30 2329 C 217.448 3.17156 -1.40045 0
M  V30 2330 C 216.509 3.40242 -2.6179 0
M  V30 2331 C 215.742 4.69939 -2.52969 0
M  V30 2332 O 215.965 5.48372 -1.56985 0
M  V30 2333 O 214.899 4.94441 -3.43237 0
M  V30 2334 H 218.725 1.78427 -2.45759 0
M  V30 2335 H 216.31 0.823713 -1.24641 0
M  V30 2336 H 218.192 3.98413 -1.37276 0
M  V30 2337 H 216.867 3.20312 -0.467138 0
M  V30 2338 H 215.774 2.58802 -2.70134 0
M  V30 2339 H 217.107 3.41923 -3.54047 0
M  V30 2340 N 218.759 1.29093 0.90403 0
M  V30 2341 C 219.692 1.08176 2.00931 0
M  V30 2342 C 220.67 -0.005083 1.62599 0
M  V30 2343 O 221.854 0.144765 1.87943 0
M  V30 2344 C 218.981 0.645897 3.32484 0
M  V30 2345 C 218.027 1.73081 3.89801 0
M  V30 2346 S 218.86 3.32905 4.19446 0
M  V30 2347 C 220.016 2.91176 5.54046 0
M  V30 2348 H 220.249 2.01752 2.18365 0
M  V30 2349 H 217.782 1.13191 1.0501 0
M  V30 2350 H 219.74 0.401131 4.08535 0
M  V30 2351 H 218.401 -0.270188 3.12936 0
M  V30 2352 H 217.594 1.37768 4.84805 0
M  V30 2353 H 217.196 1.92888 3.20422 0
M  V30 2354 H 219.488 2.37952 6.34338 0
M  V30 2355 H 220.431 3.85014 5.94281 0
M  V30 2356 H 220.839 2.296 5.15698 0
M  V30 2357 N 220.237 -1.11381 1.11499 0
M  V30 2358 C 221.184 -2.17439 0.773887 0
M  V30 2359 C 222.154 -1.64132 -0.254899 0
M  V30 2360 O 223.339 -1.90345 -0.13168 0
M  V30 2361 C 220.479 -3.44373 0.223917 0
M  V30 2362 C 219.592 -4.1168 1.30934 0
M  V30 2363 C 218.727 -5.263 0.71984 0
M  V30 2364 C 217.766 -5.85493 1.78507 0
M  V30 2365 N 216.903 -6.91507 1.21502 0
M  V30 2366 H 221.743 -2.45962 1.68246 0
M  V30 2367 H 219.28 -1.20744 0.840191 0
M  V30 2368 H 221.238 -4.17047 -0.112921 0
M  V30 2369 H 219.868 -3.16232 -0.647851 0
M  V30 2370 H 218.92 -3.37073 1.76312 0
M  V30 2371 H 220.232 -4.51729 2.11524 0
M  V30 2372 H 219.386 -6.05785 0.333094 0
M  V30 2373 H 218.125 -4.87559 -0.117377 0
M  V30 2374 H 217.13 -5.04686 2.18111 0
M  V30 2375 H 218.355 -6.26301 2.62533 0
M  V30 2376 H 216.301 -6.54783 0.399455 0
M  V30 2377 H 216.218 -7.30214 1.95763 0
M  V30 2378 H 217.486 -7.74795 0.855181 0
M  V30 2379 N 221.715 -0.905404 -1.28997 0
M  V30 2380 C 222.647 -0.344748 -2.26592 0
M  V30 2381 C 223.66 0.512135 -1.54535 0
M  V30 2382 O 224.849 0.328368 -1.75454 0
M  V30 2383 C 221.949 0.526587 -3.34784 0
M  V30 2384 C 221.122 -0.305871 -4.36329 0
M  V30 2385 C 220.181 0.499209 -5.23827 0
M  V30 2386 O 219.207 -0.0853004 -5.69136 0
M  V30 2387 N 220.409 1.80408 -5.51755 0
M  V30 2388 H 223.174 -1.18359 -2.75338 0
M  V30 2389 H 220.735 -0.770481 -1.42391 0
M  V30 2390 H 222.727 1.07171 -3.90252 0
M  V30 2391 H 221.297 1.26613 -2.85811 0
M  V30 2392 H 220.517 -1.0324 -3.80441 0
M  V30 2393 H 221.805 -0.875773 -5.01206 0
M  V30 2394 H 221.203 2.3016 -5.16762 0
M  V30 2395 H 219.76 2.29621 -6.10014 0
M  V30 2396 N 223.193 1.4272 -0.668489 0
M  V30 2397 C 224.123 2.335 -0.000100175 0
M  V30 2398 C 225.104 1.50328 0.795964 0
M  V30 2399 O 226.289 1.78949 0.754385 0
M  V30 2400 C 223.419 3.33874 0.956302 0
M  V30 2401 C 222.373 4.27152 0.269278 0
M  V30 2402 C 221.699 5.17684 1.33818 0
M  V30 2403 C 222.999 5.15373 -0.847805 0
M  V30 2404 H 224.693 2.89639 -0.758244 0
M  V30 2405 H 222.239 1.39269 -0.366079 0
M  V30 2406 H 224.192 3.9629 1.43292 0
M  V30 2407 H 222.916 2.76025 1.74579 0
M  V30 2408 H 221.575 3.66123 -0.187042 0
M  V30 2409 H 221.223 4.56165 2.1195 0
M  V30 2410 H 220.923 5.80918 0.883659 0
M  V30 2411 H 222.447 5.82974 1.81586 0
M  V30 2412 H 223.861 5.7151 -0.452681 0
M  V30 2413 H 222.258 5.87407 -1.22773 0
M  V30 2414 H 223.328 4.5415 -1.69929 0
M  V30 2415 N 224.671 0.411399 1.52136 0
M  V30 2416 C 225.92 -0.165009 2.01024 0
M  V30 2417 C 226.233 -1.4603 1.30133 0
M  V30 2418 O 227.439 -2.1181 1.69849 0
M  V30 2419 C 225.895 -0.344618 3.58246 0
M  V30 2420 C 225.503 0.938716 4.38055 0
M  V30 2421 C 227.247 -0.876195 4.15359 0
M  V30 2422 C 225.154 0.726172 5.86925 0
M  V30 2423 H 224.084 -0.0654407 0.751155 0
M  V30 2424 H 226.735 0.537192 1.75461 0
M  V30 2425 H 225.117 -1.10921 3.80148 0
M  V30 2426 H 226.291 1.70963 4.27912 0
M  V30 2427 H 224.606 1.39688 3.92271 0
M  V30 2428 H 227.203 -1.05128 5.24263 0
M  V30 2429 H 227.546 -1.85152 3.7286 0
M  V30 2430 H 228.079 -0.170607 3.97434 0
M  V30 2431 H 224.818 1.67312 6.33788 0
M  V30 2432 H 224.338 -0.00540283 5.998 0
M  V30 2433 H 226.017 0.369231 6.45946 0
M  V30 2434 N 226.149 -1.5696 0.141893 0
M  V30 2435 C 227.426 -1.87553 -0.555281 0
M  V30 2436 C 227.806 -1.04699 -1.83306 0
M  V30 2437 O 227.154 -0.132346 -2.28116 0
M  V30 2438 C 227.364 -3.39093 -0.825664 0
M  V30 2439 C 228.712 -4.08199 -1.16869 0
M  V30 2440 O 229.736 -3.44242 -0.915185 0
M  V30 2441 O 228.595 -5.21139 -1.6455 0
M  V30 2442 H 225.689 -0.777188 -0.282679 0
M  V30 2443 H 228.235 -1.68763 0.17812 0
M  V30 2444 H 227.007 -3.91221 0.0788633 0
M  V30 2445 H 226.63 -3.63393 -1.61343 0
M  V30 2446 N 227.627 0.131896 -1.57047 0
M  V30 2447 C 228.575 1.18146 -2.0036 0
M  V30 2448 C 229.569 1.43614 -0.898406 0
M  V30 2449 O 230.775 1.43729 -1.08361 0
M  V30 2450 H 227.15 0.398042 -0.638018 0
M  V30 2451 H 229.121 0.789564 -2.87765 0
M  V30 2452 C 227.87 2.50341 -2.41298 0
M  V30 2453 H 227.193 2.31578 -3.25902 0
M  V30 2454 H 228.633 3.22371 -2.75414 0
M  V30 2455 C 227.092 3.11984 -1.27153 0
M  V30 2456 O 227.622 3.97484 -0.580459 0
M  V30 2457 N 225.828 2.71662 -1.03189 0
M  V30 2458 H 225.375 2.02231 -1.59564 0
M  V30 2459 H 225.333 3.13238 -0.270077 0
M  V30 2460 N 229.106 1.52395 0.401703 0
M  V30 2461 C 230.355 1.66044 1.14509 0
M  V30 2462 C 230.668 0.400216 1.91462 0
M  V30 2463 O 231.874 0.416632 2.68284 0
M  V30 2464 C 230.33 2.93388 2.0845 0
M  V30 2465 C 229.938 4.26545 1.36978 0
M  V30 2466 C 231.682 3.16402 2.83001 0
M  V30 2467 C 229.589 5.45007 2.29611 0
M  V30 2468 H 228.519 0.618562 0.431158 0
M  V30 2469 H 231.17 1.78886 0.40892 0
M  V30 2470 H 229.552 2.74263 2.8565 0
M  V30 2471 H 230.726 4.56179 0.650916 0
M  V30 2472 H 229.041 4.09692 0.74438 0
M  V30 2473 H 231.638 4.02085 3.52465 0
M  V30 2474 H 231.981 2.30943 3.46368 0
M  V30 2475 H 232.514 3.36034 2.12898 0
M  V30 2476 H 229.253 6.32835 1.70879 0
M  V30 2477 H 228.773 5.19702 2.9945 0
M  V30 2478 H 230.452 5.7838 2.89974 0
M  V30 2479 N 230.584 -0.659388 1.43143 0
M  V30 2480 C 231.514 -1.78422 1.50625 0
M  V30 2481 C 232.495 -1.66216 0.361443 0
M  V30 2482 O 233.68 -1.85404 0.577834 0
M  V30 2483 C 230.81 -3.16815 1.42287 0
M  V30 2484 C 229.764 -3.43777 2.54954 0
M  V30 2485 C 229.09 -4.81905 2.31671 0
M  V30 2486 C 230.39 -3.39134 3.97222 0
M  V30 2487 H 232.084 -1.72417 2.44771 0
M  V30 2488 H 229.63 -0.828084 1.17808 0
M  V30 2489 H 231.583 -3.95253 1.46127 0
M  V30 2490 H 230.307 -3.23534 0.446435 0
M  V30 2491 H 228.966 -2.67707 2.50457 0
M  V30 2492 H 228.614 -4.85294 1.32284 0
M  V30 2493 H 228.314 -5.00906 3.07192 0
M  V30 2494 H 229.838 -5.62609 2.37284 0
M  V30 2495 H 231.252 -4.07518 4.03239 0
M  V30 2496 H 229.649 -3.69671 4.72719 0
M  V30 2497 H 230.719 -2.37426 4.22797 0
M  V30 2498 N 232.062 -1.29571 -0.897171 0
M  V30 2499 C 232.972 -1.16808 -2.03453 0
M  V30 2500 C 233.988 -0.0907471 -1.73763 0
M  V30 2501 O 235.164 -0.303312 -1.99103 0
M  V30 2502 C 232.229 -0.848264 -3.36163 0
M  V30 2503 C 231.29 -2.0097 -3.79354 0
M  V30 2504 C 230.523 -1.70505 -5.05731 0
M  V30 2505 O 230.746 -0.62718 -5.66941 0
M  V30 2506 O 229.68 -2.5538 -5.45036 0
M  V30 2507 H 233.506 -2.12325 -2.17144 0
M  V30 2508 H 231.091 -1.09047 -1.02123 0
M  V30 2509 H 232.973 -0.684581 -4.15802 0
M  V30 2510 H 231.648 0.0771071 -3.23608 0
M  V30 2511 H 230.555 -2.22863 -3.00471 0
M  V30 2512 H 231.888 -2.91636 -3.96496 0
M  V30 2513 N 233.54 1.10788 -1.12088 0
M  V30 2514 C 234.45 2.20599 -0.798338 0
M  V30 2515 C 235.466 1.72712 0.21135 0
M  V30 2516 O 236.642 2.01348 0.0458477 0
M  V30 2517 C 233.707 3.45771 -0.253674 0
M  V30 2518 C 232.768 4.08411 -1.32283 0
M  V30 2519 C 232.001 5.27608 -0.80406 0
M  V30 2520 O 232.224 5.69241 0.363478 0
M  V30 2521 O 231.158 5.8101 -1.57198 0
M  V30 2522 H 234.984 2.50614 -1.7154 0
M  V30 2523 H 232.569 1.19454 -0.897275 0
M  V30 2524 H 234.451 4.21376 0.0453691 0
M  V30 2525 H 233.126 3.1739 0.636005 0
M  V30 2526 H 232.033 3.34507 -1.67499 0
M  V30 2527 H 233.366 4.40986 -2.18614 0
M  V30 2528 N 235.018 0.912232 1.28515 0
M  V30 2529 C 236.243 0.559774 1.99703 0
M  V30 2530 C 236.668 -0.851393 1.67729 0
M  V30 2531 O 236.026 -1.56875 0.908834 0
M  V30 2532 C 236.074 0.773874 3.52198 0
M  V30 2533 O 235.178 -0.167842 4.12058 0
M  V30 2534 H 234.519 0.21723 0.627461 0
M  V30 2535 H 237.049 1.22725 1.63706 0
M  V30 2536 H 237.059 0.683386 4.02236 0
M  V30 2537 H 235.734 1.80261 3.74805 0
M  V30 2538 H 234.311 -0.0287509 3.72889 0
M  V30 2539 N 236.496 -1.42363 0.676048 0
M  V30 2540 C 237.773 -1.95183 0.127726 0
M  V30 2541 C 238.153 -1.61641 -1.35777 0
M  V30 2542 O 237.501 -0.913216 -2.09458 0
M  V30 2543 C 237.711 -3.46721 0.398199 0
M  V30 2544 C 239.059 -4.23427 0.315383 0
M  V30 2545 O 240.083 -3.54649 0.332016 0
M  V30 2546 O 238.942 -5.45888 0.25865 0
M  V30 2547 H 236.036 -0.826992 0.00359427 0
M  V30 2548 H 238.582 -1.52184 0.750864 0
M  V30 2549 H 237.354 -3.64344 1.4272 0
M  V30 2550 H 236.977 -3.96769 -0.256885 0
M  V30 2551 N 237.974 -0.419461 -1.51915 0
M  V30 2552 C 239.223 0.154346 -2.01109 0
M  V30 2553 C 239.536 1.45338 -1.30905 0
M  V30 2554 O 240.742 2.10906 -1.7097 0
M  V30 2555 C 239.198 0.325615 -3.58424 0
M  V30 2556 C 238.806 -0.961934 -4.37551 0
M  V30 2557 C 240.55 0.854155 -4.15818 0
M  V30 2558 C 238.457 -0.757287 -5.86531 0
M  V30 2559 H 237.387 0.0614563 -0.751491 0
M  V30 2560 H 240.038 -0.54649 -1.75173 0
M  V30 2561 H 238.42 1.08903 -3.80731 0
M  V30 2562 H 239.594 -1.7323 -4.26999 0
M  V30 2563 H 237.909 -1.41766 -3.91524 0
M  V30 2564 H 240.506 1.02346 -5.24814 0
M  V30 2565 H 240.849 1.83172 -3.73837 0
M  V30 2566 H 241.382 0.149528 -3.97519 0
M  V30 2567 H 238.121 -1.70671 -6.32892 0
M  V30 2568 H 237.641 -0.0264061 -5.99794 0
M  V30 2569 H 239.32 -0.403482 -6.45741 0
M  V30 2570 N 239.452 1.56882 -0.150215 0
M  V30 2571 C 240.729 1.87844 0.545327 0
M  V30 2572 C 241.109 1.0567 1.82749 0
M  V30 2573 O 240.457 0.144442 2.28043 0
M  V30 2574 C 240.667 3.39526 0.80767 0
M  V30 2575 C 242.015 4.08814 1.14703 0
M  V30 2576 O 243.039 3.44723 0.896917 0
M  V30 2577 O 241.898 5.22004 1.61784 0
M  V30 2578 H 238.992 0.778677 0.278553 0
M  V30 2579 H 241.538 1.68666 -0.187068 0
M  V30 2580 H 240.31 3.91173 -0.0996096 0
M  V30 2581 H 239.933 3.64243 1.59413 0
M  V30 2582 N 240.93 -0.123565 1.57115 0
M  V30 2583 C 242.346 -0.476961 1.52306 0
M  V30 2584 C 242.546 -1.82109 0.86248 0
M  V30 2585 O 241.602 -2.48586 0.442884 0
M  V30 2586 C 242.915 -0.465661 2.97073 0
M  V30 2587 C 244.463 -0.549534 3.08138 0
M  V30 2588 C 244.938 -0.568669 4.54456 0
M  V30 2589 N 246.429 -0.630237 4.58892 0
M  V30 2590 C 247.164 -0.666415 5.69514 0
M  V30 2591 N 246.66 -0.660514 6.89644 0
M  V30 2592 N 248.453 -0.709077 5.5761 0
M  V30 2593 H 240.604 0.757198 1.98445 0
M  V30 2594 H 242.867 0.278808 0.906074 0
M  V30 2595 H 242.573 0.454232 3.48754 0
M  V30 2596 H 242.447 -1.29513 3.54269 0
M  V30 2597 H 244.834 -1.45985 2.56461 0
M  V30 2598 H 244.915 0.307532 2.53945 0
M  V30 2599 H 244.559 0.337581 5.06777 0
M  V30 2600 H 244.489 -1.44256 5.06456 0
M  V30 2601 H 246.98 -0.641146 3.72421 0
M  V30 2602 H 247.293 -0.690616 7.69708 0
M  V30 2603 H 245.638 -0.628012 6.92157 0
M  V30 2604 H 248.829 -0.711019 4.62668 0
M  V30 2605 H 249.002 -0.733804 6.43832 0
M  V30 2606 N 242.408 -1.52605 -0.393616 0
M  V30 2607 C 243.685 -1.58001 -1.15304 0
M  V30 2608 C 244.065 -0.370385 -2.07825 0
M  V30 2609 O 243.413 0.641638 -2.19306 0
M  V30 2610 C 243.623 -2.91652 -1.91677 0
M  V30 2611 C 244.971 -3.4522 -2.47201 0
M  V30 2612 O 245.995 -2.93495 -2.01839 0
M  V30 2613 O 244.854 -4.35579 -3.3005 0
M  V30 2614 H 241.948 -0.637068 -0.527327 0
M  V30 2615 H 244.494 -1.64939 -0.399141 0
M  V30 2616 H 243.266 -3.71136 -1.23992 0
M  V30 2617 H 242.889 -2.88077 -2.74039 0
M  V30 2618 N 243.887 0.651787 -1.4349 0
M  V30 2619 C 245.135 1.40888 -1.44897 0
M  V30 2620 C 245.456 1.94856 -0.0749086 0
M  V30 2621 O 244.726 1.74518 0.889956 0
M  V30 2622 H 243.306 0.522887 -0.533478 0
M  V30 2623 H 245.968 0.768609 -1.79104 0
M  V30 2624 H 245.064 2.25052 -2.16236 0
M  V30 2625 N 245.365 1.30045 0.890287 0
M  V30 2626 C 246.593 1.21472 1.67487 0
M  V30 2627 C 247.008 -0.223241 1.87476 0
M  V30 2628 O 246.365 -1.14828 1.41847 0
M  V30 2629 C 246.416 1.93394 3.05419 0
M  V30 2630 O 246.137 3.31576 2.86337 0
M  V30 2631 C 247.638 1.91414 3.99844 0
M  V30 2632 H 244.858 0.420604 0.522813 0
M  V30 2633 H 247.402 1.7158 1.11268 0
M  V30 2634 H 245.557 1.47099 3.58386 0
M  V30 2635 H 245.971 3.67929 3.73802 0
M  V30 2636 H 247.445 2.46285 4.94012 0
M  V30 2637 H 247.922 0.891833 4.3005 0
M  V30 2638 H 248.528 2.37496 3.52811 0
M  V30 2639 N 246.843 -1.10192 1.12674 0
M  V30 2640 C 248.092 -1.81573 0.8783 0
M  V30 2641 C 248.405 -1.86249 -0.597557 0
M  V30 2642 O 249.611 -2.5386 -0.962681 0
M  V30 2643 C 248.067 -3.26149 1.52167 0
M  V30 2644 C 247.675 -3.29763 3.03249 0
M  V30 2645 C 249.419 -4.0234 1.3536 0
M  V30 2646 C 247.326 -4.68815 3.60508 0
M  V30 2647 H 246.256 -0.680394 0.324931 0
M  V30 2648 H 248.907 -1.23902 1.35353 0
M  V30 2649 H 247.289 -3.83832 0.974104 0
M  V30 2650 H 248.463 -2.8189 3.6452 0
M  V30 2651 H 246.778 -2.67059 3.19481 0
M  V30 2652 H 249.375 -5.05058 1.75559 0
M  V30 2653 H 249.718 -4.15235 0.297554 0
M  V30 2654 H 250.251 -3.51079 1.87052 0
M  V30 2655 H 246.99 -4.61121 4.65884 0
M  V30 2656 H 246.51 -5.17045 3.04014 0
M  V30 2657 H 248.189 -5.37785 3.59717 0
M  V30 2658 N 248.321 -0.919034 -1.28029 0
M  V30 2659 C 249.269 -0.401753 -2.29104 0
M  V30 2660 C 250.263 0.509354 -1.61561 0
M  V30 2661 O 251.469 0.390014 -1.75724 0
M  V30 2662 H 247.844 -0.111331 -0.743713 0
M  V30 2663 H 249.815 -1.2672 -2.70156 0
M  V30 2664 C 248.564 0.338148 -3.46052 0
M  V30 2665 H 247.887 -0.353732 -3.98232 0
M  V30 2666 H 249.327 0.664653 -4.18758 0
M  V30 2667 C 247.786 1.54798 -2.99231 0
M  V30 2668 O 248.316 2.64696 -3.02157 0
M  V30 2669 N 246.522 1.3968 -2.54829 0
M  V30 2670 H 246.069 0.502698 -2.52647 0
M  V30 2671 H 246.027 2.20755 -2.23863 0
M  V30 2672 N 249.799 1.42003 -0.683588 0
M  V30 2673 C 250.729 2.33487 -0.024866 0
M  V30 2674 C 251.71 1.51163 0.779975 0
M  V30 2675 O 252.895 1.79739 0.735362 0
M  V30 2676 C 250.025 3.3487 0.920836 0
M  V30 2677 C 248.979 4.27414 0.223958 0
M  V30 2678 C 248.305 5.19074 1.2832 0
M  V30 2679 C 249.605 5.14445 -0.90242 0
M  V30 2680 H 251.299 2.88819 -0.788921 0
M  V30 2681 H 248.845 1.38873 -0.38083 0
M  V30 2682 H 250.798 3.97787 1.39081 0
M  V30 2683 H 249.522 2.77861 1.71642 0
M  V30 2684 H 248.181 3.65904 -0.225864 0
M  V30 2685 H 247.829 4.58387 2.071 0
M  V30 2686 H 247.529 5.81822 0.821995 0
M  V30 2687 H 249.053 5.84867 1.75392 0
M  V30 2688 H 250.467 5.70998 -0.513272 0
M  V30 2689 H 248.864 5.86072 -1.28997 0
M  V30 2690 H 249.934 4.52322 -1.74737 0
M  V30 2691 N 251.277 0.427512 1.51691 0
M  V30 2692 C 252.502 -0.143601 2.06902 0
M  V30 2693 C 252.927 -1.36536 1.29382 0
M  V30 2694 O 252.285 -1.78289 0.329043 0
M  V30 2695 C 252.333 -0.454207 3.57728 0
M  V30 2696 O 251.437 -1.54228 3.82475 0
M  V30 2697 H 250.778 -0.00617128 0.663971 0
M  V30 2698 H 253.308 0.606014 1.95419 0
M  V30 2699 H 253.318 -0.707525 4.01818 0
M  V30 2700 H 251.993 0.438812 4.13579 0
M  V30 2701 H 250.57 -1.2797 3.50254 0
M  V30 2702 N 252.755 -1.56801 0.158532 0
M  V30 2703 C 253.665 -2.20916 -0.789518 0
M  V30 2704 C 254.681 -1.1969 -1.26294 0
M  V30 2705 O 255.857 -1.52308 -1.31773 0
M  V30 2706 C 252.922 -2.82727 -2.00665 0
M  V30 2707 C 251.983 -3.99114 -1.58134 0
M  V30 2708 C 251.216 -4.57968 -2.74045 0
M  V30 2709 O 251.439 -4.15704 -3.90572 0
M  V30 2710 O 250.373 -5.48047 -2.48855 0
M  V30 2711 H 254.199 -3.02464 -0.273681 0
M  V30 2712 H 251.784 -1.4924 -0.0690548 0
M  V30 2713 H 253.666 -3.21968 -2.71872 0
M  V30 2714 H 252.341 -2.04184 -2.51179 0
M  V30 2715 H 251.248 -3.64567 -0.839155 0
M  V30 2716 H 252.581 -4.79212 -1.12325 0
M  V30 2717 N 254.233 0.115231 -1.57178 0
M  V30 2718 C 255.48 0.822351 -1.8505 0
M  V30 2719 C 255.808 1.79701 -0.744168 0
M  V30 2720 O 255.063 1.93909 0.26414 0
M  V30 2721 C 255.362 1.60324 -3.19423 0
M  V30 2722 C 255.028 0.772536 -4.44233 0
M  V30 2723 C 253.69 0.543468 -4.78121 0
M  V30 2724 C 256.042 0.193746 -5.2084 0
M  V30 2725 C 253.37 -0.274583 -5.86057 0
M  V30 2726 C 255.722 -0.611517 -6.29637 0
M  V30 2727 C 254.386 -0.850867 -6.62055 0
M  V30 2728 H 253.656 0.30092 -0.677147 0
M  V30 2729 H 256.303 0.0845802 -1.91313 0
M  V30 2730 H 254.608 2.41203 -3.08753 0
M  V30 2731 H 256.305 2.1544 -3.38211 0
M  V30 2732 H 252.895 0.96117 -4.17683 0
M  V30 2733 H 257.079 0.357926 -4.95008 0
M  V30 2734 H 252.335 -0.469206 -6.09597 0
M  V30 2735 H 256.509 -1.06697 -6.88178 0
M  V30 2736 H 254.136 -1.48657 -7.45523 0
M  V30 2737 N 255.711 1.52812 0.385517 0
M  V30 2738 C 256.643 1.74096 1.49074 0
M  V30 2739 C 257.656 0.621462 1.50472 0
M  V30 2740 O 258.845 0.897245 1.54311 0
M  V30 2741 C 255.945 1.78774 2.87911 0
M  V30 2742 C 255.118 3.08134 3.10439 0
M  V30 2743 C 254.177 3.04313 4.29278 0
M  V30 2744 O 253.203 3.78168 4.25415 0
M  V30 2745 N 254.405 2.23741 5.35649 0
M  V30 2746 H 257.17 2.69455 1.31202 0
M  V30 2747 H 254.731 1.51343 0.575065 0
M  V30 2748 H 256.723 1.73721 3.65518 0
M  V30 2749 H 255.293 0.907869 2.99126 0
M  V30 2750 H 254.513 3.26649 2.20667 0
M  V30 2751 H 255.801 3.93662 3.22347 0
M  V30 2752 H 255.199 1.63211 5.41645 0
M  V30 2753 H 253.756 2.24524 6.11909 0
M  V30 2754 N 257.189 -0.644168 1.43834 0
M  V30 2755 C 258.139 -1.7501 1.46135 0
M  V30 2756 C 259.123 -1.57507 0.328685 0
M  V30 2757 O 260.315 -1.67465 0.5731 0
M  V30 2758 C 257.444 -3.13641 1.39585 0
M  V30 2759 C 256.53 -3.3666 2.57916 0
M  V30 2760 N 256.921 -3.30107 3.83227 0
M  V30 2761 C 255.219 -3.67411 2.52834 0
M  V30 2762 C 255.92 -3.53456 4.61999 0
M  V30 2763 N 254.896 -3.75705 3.9287 0
M  V30 2764 H 258.698 -1.68382 2.40883 0
M  V30 2765 H 256.212 -0.846169 1.38614 0
M  V30 2766 H 258.209 -3.92933 1.39317 0
M  V30 2767 H 256.869 -3.21444 0.45865 0
M  V30 2768 H 257.88 -3.09316 4.15384 0
M  V30 2769 H 254.557 -3.82275 1.67845 0
M  V30 2770 H 255.947 -3.54093 5.71024 0
M  V30 2771 N 258.668 -1.30515 -0.883378 0
M  V30 2772 C 259.914 -1.19607 -1.63774 0
M  V30 2773 C 260.247 0.248314 -1.92606 0
M  V30 2774 O 259.522 1.17742 -1.54813 0
M  V30 2775 C 259.805 -2.02669 -2.97653 0
M  V30 2776 C 259.658 -3.55335 -2.75784 0
M  V30 2777 C 260.977 -1.86573 -3.98596 0
M  V30 2778 H 258.096 -0.435856 -0.594305 0
M  V30 2779 H 260.738 -1.60165 -1.02212 0
M  V30 2780 H 258.888 -1.68208 -3.50197 0
M  V30 2781 H 260.56 -3.99863 -2.30016 0
M  V30 2782 H 258.803 -3.79438 -2.1026 0
M  V30 2783 H 259.474 -4.08745 -3.70988 0
M  V30 2784 H 261.95 -2.16703 -3.55217 0
M  V30 2785 H 260.826 -2.47014 -4.90179 0
M  V30 2786 H 261.087 -0.825321 -4.34328 0
M  V30 2787 N 260.146 1.09593 -1.13257 0
M  V30 2788 C 261.395 1.81105 -0.887917 0
M  V30 2789 C 261.708 1.86563 0.587672 0
M  V30 2790 O 262.914 2.54367 0.949204 0
M  V30 2791 C 261.37 3.25338 -1.53895 0
M  V30 2792 C 260.978 3.28151 -3.04994 0
M  V30 2793 C 262.722 4.01617 -1.37492 0
M  V30 2794 C 260.629 4.66897 -3.6299 0
M  V30 2795 H 259.559 0.678661 -0.328534 0
M  V30 2796 H 262.21 1.23183 -1.36008 0
M  V30 2797 H 260.592 3.8331 -0.994446 0
M  V30 2798 H 261.766 2.79953 -3.66009 0
M  V30 2799 H 260.081 2.65361 -3.20893 0
M  V30 2800 H 262.678 5.04119 -1.78235 0
M  V30 2801 H 263.021 4.15072 -0.31957 0
M  V30 2802 H 263.554 3.50082 -1.88912 0
M  V30 2803 H 260.293 4.58643 -4.68323 0
M  V30 2804 H 259.813 5.15426 -3.06752 0
M  V30 2805 H 261.492 5.3587 -3.62563 0
M  V30 2806 N 261.624 0.925811 1.2754 0
M  V30 2807 C 262.849 0.580924 1.99098 0
M  V30 2808 C 263.274 -0.833555 1.68622 0
M  V30 2809 O 262.632 -1.55903 0.925422 0
M  V30 2810 C 262.68 0.811186 3.51358 0
M  V30 2811 O 261.784 -0.124129 4.12213 0
M  V30 2812 H 261.125 0.223873 0.625122 0
M  V30 2813 H 263.655 1.24455 1.62395 0
M  V30 2814 H 263.665 0.72601 4.01489 0
M  V30 2815 H 262.34 1.84227 3.72872 0
M  V30 2816 H 260.917 0.0108006 3.72898 0
M  V30 2817 N 263.102 -1.41638 0.69111 0
M  V30 2818 C 264.518 -1.55435 0.362224 0
M  V30 2819 C 264.718 -1.66754 -1.13117 0
M  V30 2820 O 263.774 -1.64348 -1.91692 0
M  V30 2821 C 265.087 -2.79588 1.10684 0
M  V30 2822 C 266.635 -2.9338 1.09075 0
M  V30 2823 C 267.11 -4.20414 1.81703 0
M  V30 2824 N 268.601 -4.27362 1.7865 0
M  V30 2825 C 269.336 -5.24507 2.31689 0
M  V30 2826 N 268.832 -6.27708 2.93179 0
M  V30 2827 N 270.625 -5.16416 2.2197 0
M  V30 2828 H 262.776 -1.32536 1.65976 0
M  V30 2829 H 265.039 -0.639115 0.700168 0
M  V30 2830 H 264.745 -2.77419 2.16175 0
M  V30 2831 H 264.619 -3.70973 0.682545 0
M  V30 2832 H 267.006 -2.95067 0.0441238 0
M  V30 2833 H 267.087 -2.0318 1.55407 0
M  V30 2834 H 266.731 -4.19488 2.86343 0
M  V30 2835 H 266.661 -5.09578 1.32808 0
M  V30 2836 H 269.152 -3.53415 1.33815 0
M  V30 2837 H 269.465 -6.98217 3.31229 0
M  V30 2838 H 267.81 -6.28223 2.97255 0
M  V30 2839 H 271.001 -4.34716 1.73607 0
M  V30 2840 H 271.174 -5.91958 2.63609 0
M  V30 2841 N 264.58 -0.43555 -1.51462 0
M  V30 2842 C 265.805 0.132627 -2.06976 0
M  V30 2843 C 266.23 1.35848 -1.30104 0
M  V30 2844 O 265.588 1.78112 -0.338493 0
M  V30 2845 C 265.636 0.43523 -3.57964 0
M  V30 2846 O 264.74 1.52198 -3.83288 0
M  V30 2847 H 264.081 0.00265 -0.663995 0
M  V30 2848 H 266.611 -0.616369 -1.95095 0
M  V30 2849 H 266.621 0.686206 -4.02188 0
M  V30 2850 H 265.296 -0.460739 -4.1334 0
M  V30 2851 H 263.873 1.2611 -3.50928 0
M  V30 2852 N 266.058 1.56714 -0.166846 0
M  V30 2853 C 267.469 1.83378 0.350646 0
M  V30 2854 C 267.82 1.08646 1.63372 0
M  V30 2855 O 266.945 0.338058 2.13743 0
M  V30 2856 C 267.54 3.32643 0.642963 0
M  V30 2857 C 266.099 3.59818 1.10491 0
M  V30 2858 C 265.246 2.76954 0.138411 0
M  V30 2859 H 268.197 1.53803 -0.391193 0
M  V30 2860 H 268.218 3.49878 1.49551 0
M  V30 2861 H 267.73 3.87007 -0.291055 0
M  V30 2862 H 265.831 3.1086 2.05418 0
M  V30 2863 H 265.944 4.68178 1.01716 0
M  V30 2864 H 264.308 2.4666 0.634911 0
M  V30 2865 H 265.091 3.34097 -0.789549 0
M  V30 2866 N 267.536 -0.106894 1.57237 0
M  V30 2867 C 268.813 -0.843526 1.76477 0
M  V30 2868 C 269.193 -1.97499 0.745464 0
M  V30 2869 O 268.541 -2.27357 -0.228306 0
M  V30 2870 C 268.751 -1.34903 3.21873 0
M  V30 2871 C 270.099 -1.79654 3.8472 0
M  V30 2872 O 271.123 -1.44554 3.2555 0
M  V30 2873 O 269.982 -2.44515 4.88748 0
M  V30 2874 H 267.076 -0.401468 0.723016 0
M  V30 2875 H 269.622 -0.0896927 1.69463 0
M  V30 2876 H 268.394 -0.53781 3.87586 0
M  V30 2877 H 268.017 -2.16522 3.33473 0
M  V30 2878 N 269.014 -1.53014 -0.377408 0
M  V30 2879 C 270.261 -1.68623 -1.12128 0
M  V30 2880 C 270.589 -0.431997 -1.89642 0
M  V30 2881 O 269.844 0.585855 -1.86725 0
M  V30 2882 C 270.143 -2.87982 -2.11663 0
M  V30 2883 C 269.809 -4.24964 -1.50719 0
M  V30 2884 C 268.471 -4.62217 -1.33825 0
M  V30 2885 C 270.823 -5.10199 -1.06519 0
M  V30 2886 C 268.151 -5.82352 -0.712963 0
M  V30 2887 C 270.503 -6.30969 -0.453955 0
M  V30 2888 C 269.167 -6.66944 -0.272411 0
M  V30 2889 H 268.437 -0.617034 -0.410305 0
M  V30 2890 H 271.084 -1.8718 -0.404484 0
M  V30 2891 H 269.389 -2.63889 -2.89603 0
M  V30 2892 H 271.086 -2.97253 -2.6915 0
M  V30 2893 H 267.676 -3.95626 -1.64858 0
M  V30 2894 H 271.86 -4.81978 -1.18368 0
M  V30 2895 H 267.116 -6.08824 -0.560611 0
M  V30 2896 H 271.29 -6.96324 -0.103217 0
M  V30 2897 H 268.917 -7.59898 0.214181 0
M  V30 2898 N 270.492 0.636531 -1.44174 0
M  V30 2899 C 271.455 1.73063 -1.50273 0
M  V30 2900 C 272.455 1.56113 -0.385397 0
M  V30 2901 O 273.645 1.61707 -0.64781 0
M  V30 2902 C 270.777 3.12096 -1.37145 0
M  V30 2903 H 271.97 1.69031 -2.47727 0
M  V30 2904 H 269.523 0.849706 -1.31186 0
M  V30 2905 H 270.258 3.21728 -0.407636 0
M  V30 2906 H 270.043 3.25805 -2.18159 0
M  V30 2907 H 271.533 3.91846 -1.44382 0
M  V30 2908 N 271.97 1.30982 0.876444 0
M  V30 2909 C 273.195 1.23373 1.66715 0
M  V30 2910 C 273.62 -0.19885 1.87046 0
M  V30 2911 O 272.978 -1.1427 1.40756 0
M  V30 2912 C 273.026 1.97644 3.01611 0
M  V30 2913 O 272.13 1.30935 3.91062 0
M  V30 2914 H 271.471 0.426279 0.509099 0
M  V30 2915 H 274.001 1.72944 1.09323 0
M  V30 2916 H 274.011 2.06992 3.51594 0
M  V30 2917 H 272.686 3.01829 2.86133 0
M  V30 2918 H 271.263 1.29996 3.49507 0
M  V30 2919 N 273.449 -1.08991 1.13837 0
M  V30 2920 C 274.674 -1.85551 0.926585 0
M  V30 2921 C 275.099 -1.80782 -0.519566 0
M  V30 2922 O 274.457 -1.18855 -1.36906 0
M  V30 2923 C 274.505 -3.31266 1.42462 0
M  V30 2924 O 273.609 -4.07822 0.612789 0
M  V30 2925 H 272.95 -0.575192 0.331738 0
M  V30 2926 H 275.48 -1.37604 1.51414 0
M  V30 2927 H 275.49 -3.82112 1.43019 0
M  V30 2928 H 274.165 -3.34052 2.47754 0
M  V30 2929 H 272.742 -3.66731 0.675463 0
M  V30 2930 N 274.927 -0.932562 -1.27047 0
M  V30 2931 C 276.174 -0.575559 -1.94148 0
M  V30 2932 C 276.502 0.883984 -1.73251 0
M  V30 2933 O 275.757 1.64655 -1.0577 0
M  V30 2934 C 276.056 -0.853713 -3.47054 0
M  V30 2935 C 275.722 -2.29577 -3.88079 0
M  V30 2936 C 274.384 -2.68999 -3.9899 0
M  V30 2937 C 276.736 -3.23331 -4.08787 0
M  V30 2938 C 274.064 -4.01289 -4.28 0
M  V30 2939 C 276.416 -4.55207 -4.39282 0
M  V30 2940 C 275.08 -4.94457 -4.48407 0
M  V30 2941 H 274.35 -0.210612 -0.710439 0
M  V30 2942 H 276.997 -1.17744 -1.51025 0
M  V30 2943 H 275.302 -0.169204 -3.91434 0
M  V30 2944 H 276.999 -0.55639 -3.97121 0
M  V30 2945 H 273.589 -1.97994 -3.80127 0
M  V30 2946 H 277.773 -2.94074 -3.99793 0
M  V30 2947 H 273.029 -4.31374 -4.33275 0
M  V30 2948 H 277.203 -5.27852 -4.54252 0
M  V30 2949 H 274.83 -5.96994 -4.7064 0
M  V30 2950 N 276.405 1.4127 -0.698611 0
M  V30 2951 C 277.352 2.30773 -0.0352094 0
M  V30 2952 C 278.322 1.47273 0.768111 0
M  V30 2953 O 279.507 1.76053 0.735524 0
M  V30 2954 C 276.647 3.33346 0.893 0
M  V30 2955 C 275.76 4.31924 0.0809695 0
M  V30 2956 C 274.895 5.21566 1.0071 0
M  V30 2957 C 273.934 6.11811 0.188155 0
M  V30 2958 N 273.071 6.93926 1.06825 0
M  V30 2959 H 277.911 2.86943 -0.804207 0
M  V30 2960 H 275.448 1.4132 -0.408294 0
M  V30 2961 H 277.406 3.91368 1.44523 0
M  V30 2962 H 276.036 2.78719 1.62836 0
M  V30 2963 H 275.088 3.75825 -0.588224 0
M  V30 2964 H 276.4 4.95716 -0.553801 0
M  V30 2965 H 275.554 5.84437 1.62845 0
M  V30 2966 H 274.293 4.58008 1.67572 0
M  V30 2967 H 273.298 5.47986 -0.446254 0
M  V30 2968 H 274.523 6.77425 -0.476716 0
M  V30 2969 H 272.469 6.32973 1.72283 0
M  V30 2970 H 272.386 7.54416 0.489123 0
M  V30 2971 H 273.654 7.61262 1.67632 0
M  V30 2972 N 277.883 0.443576 1.51229 0
M  V30 2973 C 279.132 -0.122332 2.01329 0
M  V30 2974 C 279.445 -1.43237 1.33201 0
M  V30 2975 O 280.651 -2.0816 1.74304 0
M  V30 2976 C 279.107 -0.268551 3.58897 0
M  V30 2977 C 278.715 1.03142 4.35965 0
M  V30 2978 C 280.459 -0.787894 4.17124 0
M  V30 2979 C 278.366 0.850504 5.85252 0
M  V30 2980 H 277.296 -0.0494929 0.752374 0
M  V30 2981 H 279.947 0.574289 1.74282 0
M  V30 2982 H 278.329 -1.02832 3.82415 0
M  V30 2983 H 279.503 1.80001 4.24189 0
M  V30 2984 H 277.818 1.47977 3.89219 0
M  V30 2985 H 280.415 -0.939841 5.26375 0
M  V30 2986 H 280.758 -1.77201 3.76703 0
M  V30 2987 H 281.291 -0.0862669 3.97706 0
M  V30 2988 H 278.03 1.80718 6.30096 0
M  V30 2989 H 277.55 0.121825 5.99676 0
M  V30 2990 H 279.229 0.506163 6.45017 0
M  V30 2991 N 279.361 -1.56624 0.175154 0
M  V30 2992 C 280.607 -1.9729 -0.469506 0
M  V30 2993 C 280.94 -1.06128 -1.62636 0
M  V30 2994 O 280.215 -0.109183 -1.94193 0
M  V30 2995 C 280.498 -3.47375 -0.948804 0
M  V30 2996 C 280.351 -4.49317 0.208491 0
M  V30 2997 C 281.67 -4.00652 -1.82116 0
M  V30 2998 H 278.789 -0.717317 -0.16919 0
M  V30 2999 H 281.431 -1.88184 0.262062 0
M  V30 3000 H 279.581 -3.55267 -1.57219 0
M  V30 3001 H 281.253 -4.53482 0.845682 0
M  V30 3002 H 279.496 -4.25121 0.863395 0
M  V30 3003 H 280.167 -5.51741 -0.169059 0
M  V30 3004 H 282.643 -3.95416 -1.2956 0
M  V30 3005 H 281.519 -5.06075 -2.12554 0
M  V30 3006 H 281.78 -3.44699 -2.7683 0
M  V30 3007 N 280.839 0.0985539 -1.57292 0
M  V30 3008 C 281.769 1.12064 -2.04851 0
M  V30 3009 C 282.75 1.41981 -0.936767 0
M  V30 3010 O 283.935 1.52071 -1.20781 0
M  V30 3011 C 281.065 2.44144 -2.47004 0
M  V30 3012 C 280.019 2.28643 -3.6181 0
M  V30 3013 C 279.345 3.65869 -3.89929 0
M  V30 3014 C 280.645 1.72986 -4.92822 0
M  V30 3015 H 282.339 0.724979 -2.9049 0
M  V30 3016 H 279.885 0.34729 -1.39749 0
M  V30 3017 H 281.838 3.15914 -2.78884 0
M  V30 3018 H 280.562 2.85639 -1.5836 0
M  V30 3019 H 279.221 1.59318 -3.30172 0
M  V30 3020 H 278.869 4.04885 -2.98458 0
M  V30 3021 H 278.569 3.56344 -4.67218 0
M  V30 3022 H 280.093 4.39112 -4.2428 0
M  V30 3023 H 281.507 2.34593 -5.23105 0
M  V30 3024 H 279.904 1.74229 -5.74251 0
M  V30 3025 H 280.974 0.689007 -4.7998 0
M  V30 3026 O 282.356 1.59668 0.242586 0
M  V30 3027 H 283.047 1.72276 0.885483 0
M  V30 END ATOM
M  V30 BEGIN BOND
M  V30 END BOND
M  V30 END CTAB
M  END
$$$$
