drugbank_target|Q99928 Gamma-aminobutyric acid receptor subunit gamma-3 (DB00186; DB00189; DB00228; DB00231; DB00237; DB00241; DB00252; DB00292; DB00306; DB00312; DB00349; DB00371; DB00402; DB00404; DB00463; DB00475; DB00543; DB00546; DB00555; DB00603; DB00628; DB00659; DB00683; DB00690; DB00753; DB00794; DB00801; DB00818; DB00829; DB00842; DB00897; DB01028; DB01043; DB01068; DB01107; DB01159; DB01189; DB01205; DB01215; DB01236; DB01437; DB01489; DB01511; DB01544; DB01545; DB01553; DB01558; DB01559; DB01587; DB01588; DB01589; DB01594; DB01595; DB01708; DB01956; DB09017; DB09118; DB09166; DB11582; DB11859; DB11901; DB12404; DB12537; DB13335; DB13437; DB13643; DB13837; DB13872; DB14028; DB14672; DB14715; DB14719; DB15489)
 OpenBabel12092120353D

  0  0  0     0  0            999 V3000
M  V30 BEGIN CTAB
M  V30 COUNTS 7632 7732 0 0 0
M  V30 BEGIN ATOM
M  V30 1 H -0.908 1.98254 -0.117106 0
M  V30 2 N 0 1.576 0 0
M  V30 3 C 0.933 2.03868 1.02534 0
M  V30 4 C 1.911 0.928543 1.3348 0
M  V30 5 O 3.095 1.19667 1.45644 0
M  V30 6 C 0.222 2.43627 2.35294 0
M  V30 7 C -0.732 3.65373 2.2001 0
M  V30 8 S 0.101 5.13292 1.52614 0
M  V30 9 C 1.257 5.56322 2.86805 0
M  V30 10 H 1.49 2.90518 0.631377 0
M  V30 11 H -0.977 1.52953 0.210867 0
M  V30 12 H 0.981 2.67203 3.11629 0
M  V30 13 H -0.358 1.57376 2.7183 0
M  V30 14 H -1.165 3.90944 3.18086 0
M  V30 15 H -1.563 3.418 1.51819 0
M  V30 16 H 0.729 5.58782 3.83104 0
M  V30 17 H 1.672 6.56266 2.65933 0
M  V30 18 H 2.08 4.83886 2.90714 0
M  V30 19 N 1.4781 -0.272755 1.55222 0
M  V30 20 C 2.4411 -1.32041 1.87344 0
M  V30 21 C 3.4411 -1.42342 0.74803 0
M  V30 22 O 4.6311 -1.41488 1.0162 0
M  V30 23 C 1.7631 -2.70173 2.07893 0
M  V30 24 H 2.9561 -1.04789 2.80997 0
M  V30 25 H 0.5091 -0.51083 1.47717 0
M  V30 26 H 1.2441 -3.02605 1.16622 0
M  V30 27 H 1.0291 -2.64082 2.89833 0
M  V30 28 H 2.5191 -3.45869 2.34017 0
M  V30 29 N 2.9562 -1.48159 -0.537278 0
M  V30 30 C 4.3672 -1.49429 -1.11928 0
M  V30 31 C 4.7182 -0.26 -1.9447 0
M  V30 32 O 3.8432 0.633489 -2.0692 0
M  V30 33 C 4.4382 -2.70758 -2.03656 0
M  V30 34 C 2.9972 -2.74923 -2.57088 0
M  V30 35 C 2.1442 -2.42835 -1.3389 0
M  V30 36 H 5.0952 -1.55381 -0.322886 0
M  V30 37 H 5.1162 -2.48861 -2.87834 0
M  V30 38 H 4.6282 -3.60575 -1.43553 0
M  V30 39 H 2.7292 -1.89296 -3.20933 0
M  V30 40 H 2.8422 -3.76157 -2.9672 0
M  V30 41 H 1.2062 -1.93836 -1.65226 0
M  V30 42 H 1.9892 -3.34884 -0.755504 0
M  V30 43 N 4.4343 0.785586 -1.36625 0
M  V30 44 C 5.3813 1.89838 -1.31264 0
M  V30 45 C 6.3513 1.65115 -0.180633 0
M  V30 46 O 7.5363 1.87222 -0.36777 0
M  V30 47 C 4.6763 3.26706 -1.11163 0
M  V30 48 C 3.7893 3.63476 -2.33472 0
M  V30 49 C 2.9243 4.89481 -2.06353 0
M  V30 50 C 1.9633 5.18941 -3.24602 0
M  V30 51 N 1.1003 6.36131 -2.97123 0
M  V30 52 H 5.9403 1.93756 -2.26413 0
M  V30 53 H 3.4773 0.947454 -1.12524 0
M  V30 54 H 5.4353 4.05639 -0.975337 0
M  V30 55 H 4.0653 3.222 -0.196674 0
M  V30 56 H 3.1173 2.79636 -2.57891 0
M  V30 57 H 4.4293 3.81193 -3.21704 0
M  V30 58 H 3.5833 5.76288 -1.89675 0
M  V30 59 H 2.3223 4.73841 -1.15437 0
M  V30 60 H 1.3273 4.30615 -3.41834 0
M  V30 61 H 2.5523 5.36498 -4.16349 0
M  V30 62 H 0.4983 6.21875 -2.08823 0
M  V30 63 H 0.4153 6.54198 -3.78894 0
M  V30 64 H 1.6833 7.2591 -2.84033 0
M  V30 65 N 5.9124 1.20967 1.01018 0
M  V30 66 C 6.8424 0.988272 2.11555 0
M  V30 67 C 7.8234 -0.0849778 1.69888 0
M  V30 68 O 9.0084 0.0738202 1.9406 0
M  V30 69 C 6.1384 0.546528 3.42973 0
M  V30 70 C 5.0924 1.56375 3.9841 0
M  V30 71 C 4.4184 0.97842 5.25672 0
M  V30 72 C 5.7184 2.94922 4.31066 0
M  V30 73 H 7.4124 1.91276 2.30334 0
M  V30 74 H 4.9584 0.921073 1.1069 0
M  V30 75 H 6.9114 0.378839 4.19694 0
M  V30 76 H 5.6354 -0.413598 3.23971 0
M  V30 77 H 4.2944 1.71891 3.23804 0
M  V30 78 H 3.9424 0.0101688 5.02999 0
M  V30 79 H 3.6424 1.65784 5.63728 0
M  V30 80 H 5.1664 0.821939 6.05043 0
M  V30 81 H 6.5804 2.8288 4.9865 0
M  V30 82 H 4.9774 3.5983 4.80253 0
M  V30 83 H 6.0474 3.4616 3.39561 0
M  V30 84 N 7.3905 -1.2043 1.01659 0
M  V30 85 C 8.3205 -2.25466 0.607226 0
M  V30 86 C 9.3015 -1.65853 -0.377716 0
M  V30 87 O 10.4865 -1.92409 -0.263149 0
M  V30 88 C 7.6165 -3.47256 -0.0552949 0
M  V30 89 C 6.5705 -4.19462 0.850632 0
M  V30 90 C 5.8965 -5.34673 0.0538859 0
M  V30 91 C 7.1965 -4.75603 2.15868 0
M  V30 92 H 8.8905 -2.59962 1.48526 0
M  V30 93 H 6.4365 -1.2496 0.715605 0
M  V30 94 H 8.3895 -4.19917 -0.353233 0
M  V30 95 H 7.1135 -3.11924 -0.968045 0
M  V30 96 H 5.7725 -3.48667 1.13257 0
M  V30 97 H 5.4205 -4.95585 -0.860514 0
M  V30 98 H 5.1205 -5.83913 0.657192 0
M  V30 99 H 6.6445 -6.10138 -0.237598 0
M  V30 100 H 8.0585 -5.40083 1.92311 0
M  V30 101 H 6.4555 -5.3528 2.71284 0
M  V30 102 H 7.5255 -3.94346 2.82169 0
M  V30 103 N 8.8686 -0.792821 -1.36206 0
M  V30 104 C 9.7986 -0.207853 -2.32573 0
M  V30 105 C 10.7796 0.659055 -1.56813 0
M  V30 106 O 11.9646 0.592176 -1.84951 0
M  V30 107 C 9.0946 0.655449 -3.41059 0
M  V30 108 C 8.0486 -0.111842 -4.27854 0
M  V30 109 C 7.3746 0.872274 -5.27537 0
M  V30 110 C 8.6746 -1.30299 -5.05786 0
M  V30 111 H 10.3686 -1.01294 -2.81744 0
M  V30 112 H 7.9146 -0.48854 -1.3546 0
M  V30 113 H 9.8676 1.07464 -4.07467 0
M  V30 114 H 8.5916 1.49328 -2.90463 0
M  V30 115 H 7.2506 -0.512053 -3.63006 0
M  V30 116 H 6.8986 1.70523 -4.73214 0
M  V30 117 H 6.5986 0.363291 -5.86476 0
M  V30 118 H 8.1226 1.28996 -5.96818 0
M  V30 119 H 9.5366 -0.959379 -5.65216 0
M  V30 120 H 7.9336 -1.7455 -5.74154 0
M  V30 121 H 9.0036 -2.09663 -4.37229 0
M  V30 122 N 10.3467 1.47872 -0.545128 0
M  V30 123 C 11.2767 2.32661 0.197793 0
M  V30 124 C 12.2577 1.43041 0.920504 0
M  V30 125 O 13.4427 1.71912 0.90333 0
M  V30 126 C 10.5727 3.24569 1.23582 0
M  V30 127 C 9.5267 4.23333 0.630323 0
M  V30 128 C 8.8527 5.0448 1.77211 0
M  V30 129 C 10.1527 5.20704 -0.407974 0
M  V30 130 H 11.8467 2.95024 -0.510045 0
M  V30 131 H 9.3927 1.4187 -0.246731 0
M  V30 132 H 11.3457 3.8272 1.76362 0
M  V30 133 H 10.0697 2.60236 1.97344 0
M  V30 134 H 8.7287 3.6639 0.123922 0
M  V30 135 H 8.3767 4.36561 2.49847 0
M  V30 136 H 8.0767 5.71339 1.37281 0
M  V30 137 H 9.6007 5.65487 2.3034 0
M  V30 138 H 11.0147 5.7329 0.033305 0
M  V30 139 H 9.4117 5.95699 -0.725486 0
M  V30 140 H 10.4817 4.66917 -1.30828 0
M  V30 141 N 11.8248 0.280983 1.55075 0
M  V30 142 C 12.7548 -0.597469 2.25727 0
M  V30 143 C 13.7358 -1.15417 1.24952 0
M  V30 144 O 14.9208 -1.18722 1.53684 0
M  V30 145 C 12.0508 -1.7789 2.98283 0
M  V30 146 C 11.0048 -1.35347 4.06036 0
M  V30 147 C 10.3308 -2.61846 4.66198 0
M  V30 148 C 11.6308 -0.499354 5.19907 0
M  V30 149 H 13.3248 -0.00824265 2.99399 0
M  V30 150 H 10.8708 -0.0025244 1.44 0
M  V30 151 H 12.8238 -2.39937 3.46422 0
M  V30 152 H 11.5478 -2.39405 2.22155 0
M  V30 153 H 10.2068 -0.756156 3.58717 0
M  V30 154 H 9.8548 -3.21632 3.86732 0
M  V30 155 H 9.5548 -2.3409 5.38958 0
M  V30 156 H 11.0788 -3.24732 5.1709 0
M  V30 157 H 12.4928 -1.02498 5.64063 0
M  V30 158 H 10.8898 -0.316424 5.99265 0
M  V30 159 H 11.9598 0.480459 4.82514 0
M  V30 160 N 13.3029 -1.57598 0.00835791 0
M  V30 161 C 14.5429 -1.92788 -0.679136 0
M  V30 162 C 14.9069 -0.883378 -1.70471 0
M  V30 163 O 16.1079 -1.12079 -2.44319 0
M  V30 164 C 14.3789 -3.32994 -1.29807 0
M  V30 165 S 15.9379 -3.90082 -2.00952 0
M  V30 166 H 12.7559 -0.67475 -0.224127 0
M  V30 167 H 15.3579 -1.95385 0.0670497 0
M  V30 168 H 14.0619 -4.06846 -0.538922 0
M  V30 169 H 13.5929 -3.33791 -2.082 0
M  V30 170 H 15.6079 -3.71834 -3.28563 0
M  V30 171 N 14.781 0.264519 -1.55364 0
M  V30 172 C 15.711 1.33121 -1.91836 0
M  V30 173 C 16.692 1.51101 -0.781192 0
M  V30 174 O 17.877 1.64003 -1.04003 0
M  V30 175 C 15.007 2.68921 -2.19769 0
M  V30 176 C 13.961 2.65661 -3.35571 0
M  V30 177 C 13.287 4.05093 -3.49004 0
M  V30 178 C 14.587 2.24187 -4.71739 0
M  V30 179 H 16.281 1.02844 -2.81182 0
M  V30 180 H 13.827 0.493286 -1.35287 0
M  V30 181 H 15.78 3.43663 -2.43872 0
M  V30 182 H 14.504 3.00799 -1.27231 0
M  V30 183 H 13.163 1.93377 -3.1145 0
M  V30 184 H 12.811 4.34206 -2.53917 0
M  V30 185 H 12.511 4.03804 -4.26868 0
M  V30 186 H 14.035 4.81561 -3.75408 0
M  V30 187 H 15.449 2.88654 -4.9533 0
M  V30 188 H 13.846 2.34044 -5.52579 0
M  V30 189 H 14.916 1.19327 -4.69988 0
M  V30 190 N 16.2591 1.48442 0.529413 0
M  V30 191 C 17.5061 1.56488 1.28521 0
M  V30 192 C 17.8341 0.239042 1.93025 0
M  V30 193 O 17.0891 -0.770713 1.79885 0
M  V30 194 C 17.3881 2.6523 2.39558 0
M  V30 195 C 17.0541 4.07648 1.92702 0
M  V30 196 C 15.7161 4.46411 1.79641 0
M  V30 197 C 18.0681 4.96896 1.573 0
M  V30 198 C 15.3961 5.72226 1.29514 0
M  V30 199 C 17.7481 6.23202 1.08636 0
M  V30 200 C 16.4121 6.60821 0.941919 0
M  V30 201 H 15.6821 0.572631 0.470292 0
M  V30 202 H 18.3291 1.82161 0.59072 0
M  V30 203 H 16.6341 2.33419 3.14679 0
M  V30 204 H 18.3311 2.68671 2.97686 0
M  V30 205 H 14.9211 3.77036 2.03819 0
M  V30 206 H 19.1051 4.67626 1.66251 0
M  V30 207 H 14.3611 6.00097 1.17019 0
M  V30 208 H 18.5351 6.91753 0.803136 0
M  V30 209 H 16.1621 7.58198 0.5513 0
M  V30 210 N 17.7372 -0.778329 1.37039 0
M  V30 211 C 18.9622 -1.57248 1.35233 0
M  V30 212 C 19.3872 -1.87999 -0.0615568 0
M  V30 213 O 18.7452 -1.48734 -1.03672 0
M  V30 214 C 18.7932 -2.86353 2.19167 0
M  V30 215 O 17.8972 -3.80442 1.59178 0
M  V30 216 H 17.2382 -0.476569 0.462362 0
M  V30 217 H 19.7682 -0.963853 1.80474 0
M  V30 218 H 19.7782 -3.35519 2.32145 0
M  V30 219 H 18.4532 -2.63299 3.21942 0
M  V30 220 H 17.0302 -3.39067 1.55203 0
M  V30 221 N 19.2153 -1.21501 -1.00376 0
M  V30 222 C 20.4633 -1.03095 -1.73827 0
M  V30 223 C 20.7843 0.436341 -1.90055 0
M  V30 224 O 20.0543 1.31466 -1.45236 0
M  V30 225 H 18.6343 -0.378487 -0.644016 0
M  V30 226 H 21.2963 -1.52831 -1.20949 0
M  V30 227 H 20.3923 -1.49991 -2.73695 0
M  V30 228 N 20.6934 1.19889 -1.02296 0
M  V30 229 C 21.6234 2.25141 -0.619174 0
M  V30 230 C 22.6044 1.66051 0.368915 0
M  V30 231 O 23.7894 1.92546 0.252941 0
M  V30 232 C 20.9194 3.4728 0.0368783 0
M  V30 233 C 19.8734 4.19005 -0.872865 0
M  V30 234 C 19.1994 5.34637 -0.0822402 0
M  V30 235 C 20.4994 4.74452 -2.18387 0
M  V30 236 H 22.1934 2.59171 -1.49903 0
M  V30 237 H 19.7394 1.24579 -0.722222 0
M  V30 238 H 21.6924 4.20098 0.330958 0
M  V30 239 H 20.4164 3.12433 0.95149 0
M  V30 240 H 19.0754 3.48061 -1.15105 0
M  V30 241 H 18.7234 4.96034 0.83422 0
M  V30 242 H 18.4234 5.83557 -0.688149 0
M  V30 243 H 19.9474 6.10255 0.205238 0
M  V30 244 H 21.3614 5.39055 -1.95172 0
M  V30 245 H 19.7584 5.33834 -2.74119 0
M  V30 246 H 20.8284 3.92844 -2.84257 0
M  V30 247 N 22.1715 0.800033 1.35784 0
M  V30 248 C 23.1215 0.178654 2.27299 0
M  V30 249 C 24.1055 -0.643667 1.47464 0
M  V30 250 O 25.2975 -0.502 1.69732 0
M  V30 251 C 22.4265 -0.677194 3.36555 0
M  V30 252 C 21.5125 0.154497 4.23818 0
M  V30 253 N 21.9035 1.21427 4.91008 0
M  V30 254 C 20.2015 -0.0649462 4.45953 0
M  V30 255 C 20.9025 1.72147 5.55644 0
M  V30 256 N 19.8785 1.02897 5.33773 0
M  V30 257 H 23.6805 0.989637 2.76737 0
M  V30 258 H 21.1945 0.64054 1.49234 0
M  V30 259 H 23.1915 -1.13835 4.01058 0
M  V30 260 H 21.8515 -1.4866 2.8867 0
M  V30 261 H 22.8625 1.59684 4.92668 0
M  V30 262 H 19.5395 -0.844016 4.0888 0
M  V30 263 H 20.9295 2.60683 6.19269 0
M  V30 264 N 23.6496 -1.47581 0.552962 0
M  V30 265 C 24.6126 -2.28439 -0.186605 0
M  V30 266 C 25.6126 -1.36706 -0.84665 0
M  V30 267 O 26.8026 -1.59378 -0.703164 0
M  V30 268 C 23.9346 -3.16264 -1.2724 0
M  V30 269 H 25.1276 -2.95294 0.523609 0
M  V30 270 H 22.6806 -1.532 0.309745 0
M  V30 271 H 23.4156 -2.54091 -2.01514 0
M  V30 272 H 23.2006 -3.83769 -0.803968 0
M  V30 273 H 24.6906 -3.77198 -1.79196 0
M  V30 274 N 25.1277 -0.289203 -1.54924 0
M  V30 275 C 26.5437 0.0645403 -1.59469 0
M  V30 276 C 26.7437 1.53419 -1.30632 0
M  V30 277 O 25.7997 2.2852 -1.074 0
M  V30 278 C 27.1127 -0.32278 -2.98963 0
M  V30 279 C 28.6607 -0.270564 -3.11828 0
M  V30 280 C 29.1357 -0.632532 -4.53611 0
M  V30 281 N 30.6267 -0.584617 -4.59496 0
M  V30 282 C 31.3617 -0.837314 -5.67254 0
M  V30 283 N 30.8577 -1.15536 -6.83098 0
M  V30 284 N 32.6507 -0.765166 -5.56868 0
M  V30 285 H 24.8017 -1.24714 -1.71931 0
M  V30 286 H 27.0647 -0.504809 -0.802416 0
M  V30 287 H 26.7707 -1.34541 -3.24948 0
M  V30 288 H 26.6447 0.32944 -3.75759 0
M  V30 289 H 29.0317 0.742805 -2.85598 0
M  V30 290 H 29.1127 -0.957242 -2.37214 0
M  V30 291 H 28.7567 -1.64365 -4.80569 0
M  V30 292 H 28.6867 0.07609 -5.26545 0
M  V30 293 H 31.1777 -0.349248 -3.76283 0
M  V30 294 H 31.4907 -1.33447 -7.61191 0
M  V30 295 H 29.8357 -1.19328 -6.84679 0
M  V30 296 H 33.0267 -0.516432 -4.65243 0
M  V30 297 H 33.1997 -0.965477 -6.40767 0
M  V30 298 N 26.6058 1.57591 -0.0167156 0
M  V30 299 C 27.8308 1.9598 0.67872 0
M  V30 300 C 28.2558 0.892546 1.65575 0
M  V30 301 O 27.6138 -0.147772 1.80697 0
M  V30 302 C 27.6618 3.33468 1.37227 0
M  V30 303 O 26.7658 3.28954 2.48722 0
M  V30 304 H 26.1068 0.639339 0.17928 0
M  V30 305 H 28.6368 2.04463 -0.0748802 0
M  V30 306 H 28.6468 3.69417 1.7319 0
M  V30 307 H 27.3218 4.10694 0.656007 0
M  V30 308 H 25.8988 3.04705 2.14963 0
M  V30 309 N 28.0839 -0.256276 1.55502 0
M  V30 310 C 29.4999 -0.604325 1.47716 0
M  V30 311 C 29.6999 -1.88763 0.705039 0
M  V30 312 O 28.7559 -2.51445 0.230613 0
M  V30 313 C 30.0689 -0.715756 2.92057 0
M  V30 314 C 31.6169 -0.808706 3.02372 0
M  V30 315 C 32.0919 -0.951777 4.48001 0
M  V30 316 N 33.5829 -1.01688 4.519 0
M  V30 317 C 34.3179 -1.14668 5.61817 0
M  V30 318 N 33.8139 -1.24261 6.81565 0
M  V30 319 N 35.6069 -1.1791 5.49594 0
M  V30 320 H 27.7579 0.586291 2.04148 0
M  V30 321 H 30.0209 0.201015 0.926443 0
M  V30 322 H 29.7269 0.157027 3.51349 0
M  V30 323 H 29.6009 -1.59071 3.42018 0
M  V30 324 H 31.9879 -1.67195 2.43166 0
M  V30 325 H 32.0689 0.0912063 2.55637 0
M  V30 326 H 31.7129 -0.0931291 5.07815 0
M  V30 327 H 31.6429 -1.86659 4.92408 0
M  V30 328 H 34.1339 -0.954468 3.65648 0
M  V30 329 H 34.4469 -1.34046 7.61086 0
M  V30 330 H 32.7919 -1.21236 6.84344 0
M  V30 331 H 35.9829 -1.10057 4.54978 0
M  V30 332 H 36.1559 -1.27681 6.35296 0
M  V30 333 N 29.562 -1.4872 -0.521534 0
M  V30 334 C 30.509 -1.63871 -1.62527 0
M  V30 335 C 31.479 -0.480559 -1.58996 0
M  V30 336 O 32.664 -0.705085 -1.77294 0
M  V30 337 C 29.804 -1.69227 -3.00759 0
M  V30 338 C 28.917 -2.96207 -3.14461 0
M  V30 339 C 28.052 -2.92671 -4.43303 0
M  V30 340 C 27.091 -4.14318 -4.50563 0
M  V30 341 N 26.228 -4.0881 -5.70805 0
M  V30 342 H 31.068 -2.58123 -1.48918 0
M  V30 343 H 28.605 -1.28 -0.724878 0
M  V30 344 H 30.563 -1.70314 -3.80853 0
M  V30 345 H 29.193 -0.784586 -3.1312 0
M  V30 346 H 28.245 -3.04826 -2.27564 0
M  V30 347 H 29.557 -3.86192 -3.15686 0
M  V30 348 H 28.711 -2.92206 -5.31696 0
M  V30 349 H 27.45 -2.00429 -4.44612 0
M  V30 350 H 26.455 -4.15049 -3.60575 0
M  V30 351 H 27.68 -5.07729 -4.50986 0
M  V30 352 H 25.626 -3.19394 -5.72995 0
M  V30 353 H 25.543 -4.92509 -5.7356 0
M  V30 354 H 26.811 -4.12418 -6.61462 0
M  V30 355 N 31.0401 0.771051 -1.3745 0
M  V30 356 C 32.2861 1.5319 -1.32894 0
M  V30 357 C 32.6191 1.94008 0.0862511 0
M  V30 358 O 31.8941 1.64124 1.04373 0
M  V30 359 C 32.1771 2.79648 -2.26868 0
M  V30 360 C 32.0301 2.45079 -3.77169 0
M  V30 361 C 33.3491 3.81583 -2.19277 0
M  V30 362 H 30.4681 0.555744 -0.484064 0
M  V30 363 H 33.1101 0.884492 -1.68157 0
M  V30 364 H 31.2601 3.34891 -1.96926 0
M  V30 365 H 32.9321 1.95745 -4.1771 0
M  V30 366 H 31.1751 1.77767 -3.95704 0
M  V30 367 H 31.8461 3.35478 -4.38359 0
M  V30 368 H 34.3221 3.35835 -2.45671 0
M  V30 369 H 33.1981 4.67787 -2.87171 0
M  V30 370 H 33.4591 4.25897 -1.18592 0
M  V30 371 N 32.5182 1.22032 0.997298 0
M  V30 372 C 33.4282 1.00271 2.12092 0
M  V30 373 C 34.4442 -0.047621 1.73935 0
M  V30 374 O 35.6202 0.144136 2.00884 0
M  V30 375 C 32.6852 0.578449 3.4184 0
M  V30 376 C 31.7462 1.70189 3.94125 0
M  V30 377 C 30.9792 1.29778 5.17681 0
M  V30 378 O 31.2022 0.174676 5.70132 0
M  V30 379 O 30.1362 2.11261 5.63607 0
M  V30 380 H 33.9622 1.94398 2.3333 0
M  V30 381 H 31.5472 1.00587 1.10465 0
M  V30 382 H 33.4292 0.351998 4.19927 0
M  V30 383 H 32.1042 -0.334019 3.21972 0
M  V30 384 H 31.0112 1.98282 3.1723 0
M  V30 385 H 32.3442 2.59206 4.18417 0
M  V30 386 N 33.9963 -1.19345 1.0293 0
M  V30 387 C 34.9063 -2.26245 0.620515 0
M  V30 388 C 35.9223 -1.70486 -0.347928 0
M  V30 389 O 37.0983 -2.00347 -0.205704 0
M  V30 390 C 34.1633 -3.46693 -0.0218957 0
M  V30 391 C 33.2243 -4.17632 0.994102 0
M  V30 392 C 32.4573 -5.32329 0.382253 0
M  V30 393 O 32.6803 -5.64552 -0.814676 0
M  V30 394 O 31.6143 -5.91664 1.10531 0
M  V30 395 H 35.4403 -2.63453 1.51083 0
M  V30 396 H 33.0253 -1.26207 0.799513 0
M  V30 397 H 34.9073 -4.19683 -0.380072 0
M  V30 398 H 33.5823 -3.11333 -0.886209 0
M  V30 399 H 32.4893 -3.4676 1.40387 0
M  V30 400 H 33.8223 -4.56964 1.8288 0
M  V30 401 N 35.4744 -0.807222 -1.35358 0
M  V30 402 C 36.7514 -0.311126 -1.9311 0
M  V30 403 C 37.1314 1.19937 -1.73719 0
M  V30 404 O 36.4794 1.99918 -1.10657 0
M  V30 405 C 36.6894 -0.723226 -3.41424 0
M  V30 406 C 38.0374 -0.713078 -4.18569 0
M  V30 407 O 39.0614 -0.664811 -3.49941 0
M  V30 408 O 37.9204 -0.772022 -5.41019 0
M  V30 409 H 35.0144 -0.081526 -0.822972 0
M  V30 410 H 37.5604 -0.890962 -1.4443 0
M  V30 411 H 36.3324 -1.76426 -3.4927 0
M  V30 412 H 35.9554 -0.118232 -3.97424 0
M  V30 413 N 36.9525 1.47285 -0.560781 0
M  V30 414 C 37.8625 2.33846 0.187954 0
M  V30 415 C 38.8785 1.48412 0.908293 0
M  V30 416 O 40.0545 1.81332 0.876388 0
M  V30 417 C 37.1195 3.25178 1.2025 0
M  V30 418 C 36.1805 4.26504 0.489208 0
M  V30 419 C 35.4135 5.13472 1.45542 0
M  V30 420 O 35.6365 5.02959 2.6905 0
M  V30 421 O 34.5705 5.93902 0.977963 0
M  V30 422 H 38.3965 2.99177 -0.522177 0
M  V30 423 H 35.9815 1.45903 -0.321364 0
M  V30 424 H 37.8635 3.81584 1.78805 0
M  V30 425 H 36.5385 2.6247 1.89449 0
M  V30 426 H 35.4455 3.73847 -0.137627 0
M  V30 427 H 36.7785 4.91935 -0.161399 0
M  V30 428 N 38.4306 0.297415 1.54768 0
M  V30 429 C 39.6606 -0.315165 2.04182 0
M  V30 430 C 40.0686 -1.4834 1.17439 0
M  V30 431 O 39.4116 -1.82695 0.191891 0
M  V30 432 C 39.4736 -0.837583 3.49607 0
M  V30 433 C 39.1376 0.204912 4.5654 0
M  V30 434 C 40.1346 1.03214 5.09552 0
M  V30 435 C 37.8196 0.345578 5.0111 0
M  V30 436 C 39.8136 1.986 6.05671 0
M  V30 437 C 37.5006 1.30289 5.97049 0
M  V30 438 C 38.4986 2.12159 6.49213 0
M  V30 439 O 38.1866 3.06268 7.43273 0
M  V30 440 H 37.9186 -0.0729646 0.672051 0
M  V30 441 H 40.4726 0.433907 2.00765 0
M  V30 442 H 38.7026 -1.63712 3.50336 0
M  V30 443 H 40.3916 -1.36566 3.82236 0
M  V30 444 H 41.1576 0.934312 4.75916 0
M  V30 445 H 37.0366 -0.28171 4.60138 0
M  V30 446 H 40.5806 2.62542 6.46311 0
M  V30 447 H 36.4776 1.40145 6.30103 0
M  V30 448 H 37.2456 3.01205 7.61064 0
M  V30 449 N 39.9087 -1.5758 0.0250728 0
M  V30 450 C 40.8187 -2.1343 -0.973905 0
M  V30 451 C 41.8347 -1.08556 -1.35984 0
M  V30 452 O 43.0107 -1.40592 -1.44207 0
M  V30 453 C 40.0757 -2.64703 -2.23904 0
M  V30 454 C 39.1367 -3.84276 -1.91391 0
M  V30 455 C 38.3697 -4.33095 -3.11873 0
M  V30 456 O 38.5927 -3.81107 -4.24398 0
M  V30 457 O 37.5267 -5.24984 -2.94406 0
M  V30 458 H 41.3527 -2.99057 -0.529036 0
M  V30 459 H 38.9377 -1.48118 -0.195288 0
M  V30 460 H 40.8197 -2.97769 -2.98181 0
M  V30 461 H 39.4947 -1.82161 -2.6758 0
M  V30 462 H 38.4017 -3.56143 -1.14511 0
M  V30 463 H 39.7347 -4.67968 -1.52534 0
M  V30 464 N 41.3868 0.248026 -1.55636 0
M  V30 465 C 42.6638 0.998988 -1.68165 0
M  V30 466 C 43.0438 2.03409 -0.564621 0
M  V30 467 O 42.3918 2.24378 0.432076 0
M  V30 468 C 42.6018 1.63334 -3.0842 0
M  V30 469 C 43.9498 2.13562 -3.66983 0
M  V30 470 O 44.9738 1.73277 -3.11213 0
M  V30 471 O 43.8328 2.87526 -4.64749 0
M  V30 472 H 40.9268 0.464933 -0.683935 0
M  V30 473 H 43.4728 0.241902 -1.67967 0
M  V30 474 H 42.2448 0.884583 -3.8117 0
M  V30 475 H 41.8678 2.45666 -3.12624 0
M  V30 476 N 42.8649 1.48995 0.513639 0
M  V30 477 C 44.0899 1.61792 1.29762 0
M  V30 478 C 44.5149 0.284475 1.85936 0
M  V30 479 O 43.8729 -0.746185 1.65232 0
M  V30 480 C 43.9209 2.67993 2.41272 0
M  V30 481 O 43.0249 2.26287 3.44772 0
M  V30 482 H 42.3659 0.541963 0.38363 0
M  V30 483 H 44.8959 1.95097 0.616307 0
M  V30 484 H 44.9059 2.89772 2.87221 0
M  V30 485 H 43.5809 3.64791 1.9975 0
M  V30 486 H 42.1579 2.14788 3.04829 0
M  V30 487 N 44.343 -0.763751 1.37857 0
M  V30 488 C 45.568 -1.55805 1.36893 0
M  V30 489 C 45.993 -1.88054 -0.0416135 0
M  V30 490 O 45.351 -1.49825 -1.02089 0
M  V30 491 C 45.399 -2.84012 2.22192 0
M  V30 492 O 44.503 -3.78732 1.63204 0
M  V30 493 H 43.844 -0.471638 0.46739 0
M  V30 494 H 46.374 -0.944657 1.81487 0
M  V30 495 H 46.384 -3.33037 2.35691 0
M  V30 496 H 45.059 -2.59869 3.24716 0
M  V30 497 H 43.636 -3.37402 1.58791 0
M  V30 498 N 45.8211 -1.22559 -0.990812 0
M  V30 499 C 47.0461 -1.07862 -1.77145 0
M  V30 500 C 47.4711 0.366447 -1.84496 0
M  V30 501 O 46.8291 1.26478 -1.29896 0
M  V30 502 C 46.8771 -1.69686 -3.18181 0
M  V30 503 O 45.9811 -0.951946 -4.01263 0
M  V30 504 H 45.3221 -0.378712 -0.545411 0
M  V30 505 H 47.8521 -1.62399 -1.2445 0
M  V30 506 H 47.8621 -1.74496 -3.68802 0
M  V30 507 H 46.5371 -2.74841 -3.12146 0
M  V30 508 H 45.1141 -0.980011 -3.59792 0
M  V30 509 N 47.2992 1.18797 -1.03562 0
M  V30 510 C 48.2472 2.24297 -0.615905 0
M  V30 511 C 49.2412 1.65643 0.354808 0
M  V30 512 O 50.4472 1.78618 0.22265 0
M  V30 513 H 46.8222 0.729909 -0.180934 0
M  V30 514 H 48.7932 2.5701 -1.5162 0
M  V30 515 C 47.5422 3.47698 0.0104735 0
M  V30 516 H 46.8652 3.93125 -0.727509 0
M  V30 517 H 48.3052 4.23159 0.266995 0
M  V30 518 C 46.7642 3.12489 1.25905 0
M  V30 519 O 47.2942 3.25761 2.35038 0
M  V30 520 N 45.5002 2.6686 1.15039 0
M  V30 521 H 45.0472 2.56261 0.262328 0
M  V30 522 H 45.0052 2.43674 1.98672 0
M  V30 523 N 48.7773 0.814389 1.34928 0
M  V30 524 C 49.7093 0.187834 2.28429 0
M  V30 525 C 50.7223 -0.617374 1.5064 0
M  V30 526 O 51.9113 -0.448454 1.72775 0
M  V30 527 C 49.0113 -0.755962 3.30361 0
M  V30 528 C 48.1843 0.00456686 4.374 0
M  V30 529 C 47.2433 -0.858876 5.19143 0
M  V30 530 O 46.2693 -0.306968 5.68372 0
M  V30 531 N 47.4713 -2.17988 5.38016 0
M  V30 532 H 50.2363 0.991105 2.82838 0
M  V30 533 H 47.7973 0.670561 1.4736 0
M  V30 534 H 49.7893 -1.338 3.81942 0
M  V30 535 H 48.3593 -1.46001 2.7641 0
M  V30 536 H 47.5793 0.767865 3.86649 0
M  V30 537 H 48.8673 0.528422 5.06049 0
M  V30 538 H 48.2653 -2.65212 4.99679 0
M  V30 539 H 46.8223 -2.71098 5.92747 0
M  V30 540 N 50.2554 -1.46986 0.568584 0
M  V30 541 C 51.2024 -2.30153 -0.172707 0
M  V30 542 C 52.1724 -1.39759 -0.897586 0
M  V30 543 O 53.3574 -1.68716 -0.891044 0
M  V30 544 C 50.4974 -3.23952 -1.1895 0
M  V30 545 C 49.6104 -4.29441 -0.469517 0
M  V30 546 C 48.7454 -5.1038 -1.47259 0
M  V30 547 C 47.7844 -6.07632 -0.738225 0
M  V30 548 N 46.9214 -6.8149 -1.68868 0
M  V30 549 H 51.7614 -2.93019 0.542596 0
M  V30 550 H 49.2984 -1.44422 0.279401 0
M  V30 551 H 51.2564 -3.76767 -1.79173 0
M  V30 552 H 49.8864 -2.62926 -1.87269 0
M  V30 553 H 48.9384 -3.79594 0.247467 0
M  V30 554 H 50.2504 -4.98689 0.105241 0
M  V30 555 H 49.4044 -5.67402 -2.14803 0
M  V30 556 H 48.1434 -4.4106 -2.08128 0
M  V30 557 H 47.1484 -5.49778 -0.0489293 0
M  V30 558 H 48.3734 -6.78966 -0.135129 0
M  V30 559 H 46.3194 -6.14891 -2.28573 0
M  V30 560 H 46.2364 -7.46948 -1.16636 0
M  V30 561 H 47.5044 -7.43078 -2.3549 0
M  V30 562 N 51.7335 -0.305618 -1.54608 0
M  V30 563 C 52.9795 0.295595 -2.01241 0
M  V30 564 C 53.3345 1.51171 -1.19018 0
M  V30 565 O 52.6275 1.89832 -0.259684 0
M  V30 566 C 52.8215 0.698983 -3.50498 0
M  V30 567 C 52.6505 -0.476491 -4.47168 0
M  V30 568 C 51.4205 -0.969963 -4.95903 0
M  V30 569 C 53.6185 -1.32294 -4.96994 0
M  V30 570 N 51.6005 -2.11172 -5.76437 0
M  V30 571 C 52.9715 -2.31212 -5.75275 0
M  V30 572 C 55.0265 -1.35278 -4.7917 0
M  V30 573 C 53.7295 -3.32896 -6.37631 0
M  V30 574 C 55.7555 -2.35823 -5.42348 0
M  V30 575 C 55.1175 -3.33469 -6.20466 0
M  V30 576 H 51.2165 0.0724992 -0.778632 0
M  V30 577 H 53.8005 -0.436583 -1.89742 0
M  V30 578 H 51.9715 1.40032 -3.62278 0
M  V30 579 H 53.7035 1.28013 -3.8392 0
M  V30 580 H 50.4585 -0.544178 -4.70463 0
M  V30 581 H 50.8825 -2.68714 -6.21387 0
M  V30 582 H 55.5245 -0.61157 -4.18354 0
M  V30 583 H 53.2425 -4.07933 -6.97579 0
M  V30 584 H 56.8285 -2.38911 -5.30484 0
M  V30 585 H 55.7085 -4.09996 -6.68485 0
M  V30 586 N 53.2116 1.57565 -0.0334293 0
M  V30 587 C 54.4576 1.92262 0.645226 0
M  V30 588 C 54.7906 0.910543 1.71531 0
M  V30 589 O 54.0656 -0.066099 1.94388 0
M  V30 590 C 54.3486 3.37422 1.2577 0
M  V30 591 C 54.2016 4.49369 0.196891 0
M  V30 592 C 55.5206 3.82628 2.17449 0
M  V30 593 H 52.6396 0.699171 0.233085 0
M  V30 594 H 55.2816 1.89779 -0.0915694 0
M  V30 595 H 53.4316 3.39669 1.88566 0
M  V30 596 H 55.1036 4.59254 -0.433962 0
M  V30 597 H 53.3466 4.31168 -0.477137 0
M  V30 598 H 54.0176 5.47978 0.665124 0
M  V30 599 H 56.4936 3.82145 1.64634 0
M  V30 600 H 55.3696 4.84883 2.57254 0
M  V30 601 H 55.6306 3.18376 3.0674 0
M  V30 602 N 54.6897 -0.239769 1.55765 0
M  V30 603 C 55.6197 -1.30052 1.9393 0
M  V30 604 C 56.6007 -1.49839 0.805132 0
M  V30 605 O 57.7857 -1.62328 1.06599 0
M  V30 606 C 54.9157 -2.65391 2.2402 0
M  V30 607 C 53.8697 -2.60289 3.39755 0
M  V30 608 C 53.1957 -3.99489 3.55405 0
M  V30 609 C 54.4957 -2.16654 4.75246 0
M  V30 610 H 56.1897 -0.983573 2.82783 0
M  V30 611 H 53.7357 -0.471701 1.36055 0
M  V30 612 H 55.6887 -3.3974 2.49308 0
M  V30 613 H 54.4127 -2.98736 1.32 0
M  V30 614 H 53.0717 -1.88398 3.14487 0
M  V30 615 H 52.7197 -4.30112 2.60793 0
M  V30 616 H 52.4197 -3.96962 4.33238 0
M  V30 617 H 53.9437 -4.75528 3.83022 0
M  V30 618 H 55.3577 -2.80737 4.99859 0
M  V30 619 H 53.7547 -2.25223 5.56232 0
M  V30 620 H 54.8247 -1.11835 4.71827 0
M  V30 621 N 56.1678 -1.49265 -0.50573 0
M  V30 622 C 57.1308 -1.65075 -1.59006 0
M  V30 623 C 58.1308 -0.522768 -1.52065 0
M  V30 624 O 59.3208 -0.789117 -1.55302 0
M  V30 625 C 56.4528 -1.64369 -2.98656 0
M  V30 626 H 57.6458 -2.61784 -1.46319 0
M  V30 627 H 55.1988 -1.38226 -0.729616 0
M  V30 628 H 55.9338 -0.692272 -3.16825 0
M  V30 629 H 55.7188 -2.46282 -3.05103 0
M  V30 630 H 57.2088 -1.78674 -3.77446 0
M  V30 631 N 57.6459 0.756429 -1.3826 0
M  V30 632 C 59.0569 1.33359 -1.30661 0
M  V30 633 C 59.4079 1.96161 0.0388875 0
M  V30 634 O 58.5329 1.94874 0.940918 0
M  V30 635 C 59.1279 2.42477 -2.36622 0
M  V30 636 C 57.6869 2.95922 -2.3261 0
M  V30 637 C 56.8339 1.69275 -2.19639 0
M  V30 638 H 59.7849 0.55552 -1.4866 0
M  V30 639 H 59.8059 3.22345 -2.02174 0
M  V30 640 H 59.3179 1.96739 -3.34538 0
M  V30 641 H 57.4189 3.45996 -1.38267 0
M  V30 642 H 57.5319 3.50494 -3.26636 0
M  V30 643 H 55.8959 1.92793 -1.66442 0
M  V30 644 H 56.6789 1.25619 -3.19491 0
M  V30 645 N 59.124 1.23083 0.984299 0
M  V30 646 C 60.071 1.00854 2.07598 0
M  V30 647 C 61.041 -0.0726709 1.65941 0
M  V30 648 O 62.226 0.0786535 1.90638 0
M  V30 649 C 59.366 0.601645 3.39815 0
M  V30 650 C 58.479 1.75456 3.94765 0
M  V30 651 C 57.614 1.29482 5.15177 0
M  V30 652 C 56.653 2.41873 5.62284 0
M  V30 653 N 55.79 1.96885 6.73929 0
M  V30 654 H 60.63 1.943 2.25946 0
M  V30 655 H 58.167 0.968001 1.10762 0
M  V30 656 H 60.125 0.346854 4.15756 0
M  V30 657 H 58.755 -0.295803 3.21442 0
M  V30 658 H 57.807 2.12346 3.15616 0
M  V30 659 H 59.119 2.59965 4.25699 0
M  V30 660 H 58.273 0.997923 5.98437 0
M  V30 661 H 57.012 0.420046 4.85888 0
M  V30 662 H 56.017 2.72342 4.77608 0
M  V30 663 H 57.242 3.29881 5.93595 0
M  V30 664 H 55.188 1.11782 6.46406 0
M  V30 665 H 55.105 2.74956 7.04227 0
M  V30 666 H 56.373 1.70289 7.60672 0
M  V30 667 N 60.6021 -1.18246 1.0419 0
M  V30 668 C 61.8271 -1.92736 0.765996 0
M  V30 669 C 62.2521 -1.75728 -0.67091 0
M  V30 670 O 61.6101 -1.06825 -1.46486 0
M  V30 671 C 61.6581 -3.42148 1.13875 0
M  V30 672 O 60.7621 -4.11548 0.264954 0
M  V30 673 H 60.1031 -0.601238 0.281797 0
M  V30 674 H 62.6331 -1.49942 1.39207 0
M  V30 675 H 62.6431 -3.92858 1.1012 0
M  V30 676 H 61.3181 -3.53848 2.18551 0
M  V30 677 H 59.8951 -3.71137 0.362226 0
M  V30 678 N 62.0802 -0.821533 -1.34494 0
M  V30 679 C 63.0122 -0.199946 -2.28326 0
M  V30 680 C 64.0252 0.609377 -1.50965 0
M  V30 681 O 65.2142 0.439285 -1.7301 0
M  V30 682 C 62.3142 0.738431 -3.30757 0
M  V30 683 C 61.4872 -0.0277632 -4.37391 0
M  V30 684 C 60.5462 0.831332 -5.19591 0
M  V30 685 O 59.5722 0.276822 -5.68526 0
M  V30 686 N 60.7742 2.15132 -5.39165 0
M  V30 687 H 63.5392 -1.00609 -2.82308 0
M  V30 688 H 61.1002 -0.678366 -1.47003 0
M  V30 689 H 63.0922 1.31773 -3.82646 0
M  V30 690 H 61.6622 1.44533 -2.7718 0
M  V30 691 H 60.8822 -0.788359 -3.86236 0
M  V30 692 H 62.1702 -0.555251 -5.05761 0
M  V30 693 H 61.5682 2.62559 -5.01078 0
M  V30 694 H 60.1252 2.6795 -5.94177 0
M  V30 695 N 63.5583 1.46682 -0.576371 0
M  V30 696 C 64.8353 1.95599 0.00703437 0
M  V30 697 C 65.2153 1.51904 1.46589 0
M  V30 698 O 64.5633 0.766755 2.15251 0
M  V30 699 C 64.7733 3.4864 -0.158404 0
M  V30 700 C 66.1213 4.24594 -0.0229439 0
M  V30 701 O 67.1453 3.56094 -0.0869173 0
M  V30 702 O 66.0043 5.46373 0.118015 0
M  V30 703 H 63.0983 0.825275 0.053384 0
M  V30 704 H 65.6443 1.56996 -0.644244 0
M  V30 705 H 64.4163 3.7331 -1.17282 0
M  V30 706 H 64.0393 3.94057 0.5296 0
M  V30 707 N 65.0364 0.313813 1.54444 0
M  V30 708 C 66.2644 -0.293918 2.04802 0
M  V30 709 C 66.6794 -1.46537 1.19047 0
M  V30 710 O 66.0364 -1.81182 0.218939 0
M  V30 711 C 66.0874 -0.737806 3.53891 0
M  V30 712 O 65.8084 0.387038 4.36387 0
M  V30 713 C 67.3094 -1.40936 4.203 0
M  V30 714 H 64.5294 -0.0620057 0.668129 0
M  V30 715 H 67.0734 0.457169 1.99324 0
M  V30 716 H 65.2284 -1.43889 3.59687 0
M  V30 717 H 65.6424 0.0391274 5.24485 0
M  V30 718 H 67.1164 -1.67099 5.26101 0
M  V30 719 H 67.5934 -2.35355 3.70816 0
M  V30 720 H 68.1994 -0.751117 4.18615 0
M  V30 721 N 66.5145 -1.57545 0.0417849 0
M  V30 722 C 67.7915 -1.83642 -0.673433 0
M  V30 723 C 68.1715 -0.928298 -1.89594 0
M  V30 724 O 67.5195 0.0129955 -2.28496 0
M  V30 725 C 67.7295 -3.33155 -1.03964 0
M  V30 726 C 69.0775 -3.99941 -1.42592 0
M  V30 727 O 70.1015 -3.37725 -1.13226 0
M  V30 728 O 68.9605 -5.09619 -1.9736 0
M  V30 729 H 66.0545 -0.757638 -0.331533 0
M  V30 730 H 68.6005 -1.69554 0.070433 0
M  V30 731 H 67.3725 -3.9093 -0.170098 0
M  V30 732 H 66.9955 -3.52396 -1.84126 0
M  V30 733 N 67.9926 0.231505 -1.5589 0
M  V30 734 C 69.2386 0.95877 -1.78705 0
M  V30 735 C 69.5716 1.8438 -0.609725 0
M  V30 736 O 68.8466 1.90521 0.391426 0
M  V30 737 C 69.1296 1.8062 -3.11526 0
M  V30 738 C 68.9826 0.948328 -4.39689 0
M  V30 739 C 70.3016 2.78585 -3.40703 0
M  V30 740 H 67.4206 0.347129 -0.650131 0
M  V30 741 H 70.0626 0.228259 -1.88624 0
M  V30 742 H 68.2126 2.42902 -3.03201 0
M  V30 743 H 69.8846 0.343016 -4.60023 0
M  V30 744 H 68.1276 0.253314 -4.3306 0
M  V30 745 H 68.7986 1.57543 -5.29041 0
M  V30 746 H 71.2746 2.26439 -3.49091 0
M  V30 747 H 70.1506 3.34988 -4.34826 0
M  V30 748 H 70.4116 3.55825 -2.62375 0
M  V30 749 N 69.4707 1.49531 0.497807 0
M  V30 750 C 70.6987 1.62893 1.27567 0
M  V30 751 C 71.1137 0.301585 1.86376 0
M  V30 752 O 70.4707 -0.713335 1.67982 0
M  V30 753 C 70.5217 2.70013 2.40364 0
M  V30 754 O 70.2427 3.976 1.83972 0
M  V30 755 C 71.7437 2.94109 3.31685 0
M  V30 756 H 68.9637 0.548298 0.386794 0
M  V30 757 H 71.5077 1.95584 0.597245 0
M  V30 758 H 69.6627 2.40092 3.04031 0
M  V30 759 H 70.0767 4.56631 2.58047 0
M  V30 760 H 71.5507 3.72788 4.07104 0
M  V30 761 H 72.0277 2.04147 3.88871 0
M  V30 762 H 72.6337 3.2546 2.73781 0
M  V30 763 N 70.9488 -0.749086 1.3866 0
M  V30 764 C 71.8788 -1.8764 1.38973 0
M  V30 765 C 72.8598 -1.68178 0.255004 0
M  V30 766 O 74.0448 -1.88704 0.458754 0
M  V30 767 C 71.1748 -3.25222 1.21851 0
M  V30 768 C 70.1288 -3.59295 2.32575 0
M  V30 769 C 69.4548 -4.95663 2.00555 0
M  V30 770 C 70.7548 -3.63709 3.7485 0
M  V30 771 H 72.4488 -1.87635 2.3331 0
M  V30 772 H 69.9948 -0.901329 1.12303 0
M  V30 773 H 71.9478 -4.03746 1.20695 0
M  V30 774 H 70.6718 -3.25719 0.239775 0
M  V30 775 H 69.3308 -2.83093 2.32925 0
M  V30 776 H 68.9788 -4.92724 1.01154 0
M  V30 777 H 68.6788 -5.19429 2.74714 0
M  V30 778 H 70.2028 -5.7656 2.01024 0
M  V30 779 H 71.6168 -4.32338 3.76506 0
M  V30 780 H 70.0138 -3.98986 4.48252 0
M  V30 781 H 71.0838 -2.63834 4.06841 0
M  V30 782 N 72.4269 -1.23603 -0.977757 0
M  V30 783 C 73.6759 -1.06377 -1.71368 0
M  V30 784 C 73.9889 0.399062 -1.91486 0
M  V30 785 O 75.1949 0.691312 -2.62551 0
M  V30 786 C 73.6509 -1.85512 -3.08404 0
M  V30 787 C 73.2589 -3.36141 -2.96164 0
M  V30 788 C 75.0029 -1.76783 -3.85938 0
M  V30 789 C 72.9099 -4.07659 -4.28449 0
M  V30 790 H 71.8399 -0.394452 -0.642591 0
M  V30 791 H 74.4909 -1.47594 -1.09034 0
M  V30 792 H 72.8729 -1.37103 -3.71509 0
M  V30 793 H 74.0469 -3.92056 -2.42133 0
M  V30 794 H 72.3619 -3.45712 -2.32104 0
M  V30 795 H 74.9589 -2.27526 -4.83876 0
M  V30 796 H 75.3019 -0.731116 -4.0983 0
M  V30 797 H 75.8349 -2.22818 -3.2954 0
M  V30 798 H 72.5739 -5.11648 -4.09752 0
M  V30 799 H 72.0939 -3.5653 -4.82334 0
M  V30 800 H 73.7729 -4.141 -4.97122 0
M  V30 801 N 73.905 1.17692 -1.04816 0
M  V30 802 C 74.835 2.23777 -0.666791 0
M  V30 803 C 75.816 1.66796 0.33361 0
M  V30 804 O 77.001 1.93039 0.212042 0
M  V30 805 C 74.131 3.47281 -0.0367933 0
M  V30 806 C 73.085 4.17059 -0.961546 0
M  V30 807 C 72.411 5.34342 -0.195626 0
M  V30 808 C 73.711 4.69713 -2.28402 0
M  V30 809 H 75.405 2.55933 -1.55367 0
M  V30 810 H 72.951 1.23019 -0.748484 0
M  V30 811 H 74.904 4.20706 0.241775 0
M  V30 812 H 73.628 3.14381 0.885004 0
M  V30 813 H 72.287 3.45541 -1.22462 0
M  V30 814 H 71.935 4.97692 0.728816 0
M  V30 815 H 71.635 5.81966 -0.811775 0
M  V30 816 H 73.159 6.10553 0.0757473 0
M  V30 817 H 74.573 5.34794 -2.06563 0
M  V30 818 H 72.97 5.279 -2.8538 0
M  V30 819 H 74.04 3.86726 -2.92525 0
M  V30 820 N 75.3831 0.828654 1.34056 0
M  V30 821 C 76.3311 0.242973 2.31327 0
M  V30 822 C 77.3251 -0.61944 1.57668 0
M  V30 823 O 78.5311 -0.51014 1.7262 0
M  V30 824 H 74.9061 0.059834 0.749616 0
M  V30 825 H 76.8771 1.07809 2.78244 0
M  V30 826 C 75.6261 -0.575733 3.429 0
M  V30 827 H 74.9491 0.0785582 3.99723 0
M  V30 828 H 76.3891 -0.951547 4.13185 0
M  V30 829 C 74.8481 -1.75044 2.87856 0
M  V30 830 O 75.3781 -2.84882 2.83205 0
M  V30 831 N 73.5841 -1.56903 2.44602 0
M  V30 832 H 73.1311 -0.675547 2.48584 0
M  V30 833 H 73.0891 -2.35652 2.08124 0
M  V30 834 N 76.8612 -1.46375 0.584142 0
M  V30 835 C 77.8082 -2.30323 -0.148286 0
M  V30 836 C 78.7782 -1.40703 -0.882713 0
M  V30 837 O 79.9632 -1.69651 -0.873099 0
M  V30 838 C 77.1032 -3.25196 -1.15507 0
M  V30 839 C 76.2162 -4.29915 -0.423943 0
M  V30 840 C 75.3512 -5.11914 -1.41838 0
M  V30 841 C 74.3902 -6.08381 -0.673736 0
M  V30 842 N 73.5272 -6.83242 -1.6163 0
M  V30 843 H 78.3672 -2.92427 0.573644 0
M  V30 844 H 75.9042 -1.44118 0.294703 0
M  V30 845 H 77.8622 -3.78646 -1.75166 0
M  V30 846 H 76.4922 -2.64898 -1.8447 0
M  V30 847 H 75.5442 -3.7931 0.287714 0
M  V30 848 H 76.8562 -4.98549 0.158128 0
M  V30 849 H 76.0102 -5.69648 -2.08773 0
M  V30 850 H 74.7492 -4.43243 -2.03438 0
M  V30 851 H 73.7542 -5.49799 0.00938483 0
M  V30 852 H 74.9792 -6.79071 -0.0631082 0
M  V30 853 H 72.9252 -6.1728 -2.22038 0
M  V30 854 H 72.8422 -7.48144 -1.08707 0
M  V30 855 H 74.1102 -7.45534 -2.27596 0
M  V30 856 N 78.3393 -0.321999 -1.54275 0
M  V30 857 C 79.2693 0.537411 -2.27231 0
M  V30 858 C 80.2503 1.12064 -1.27968 0
M  V30 859 O 81.4353 1.14606 -1.56777 0
M  V30 860 C 78.5653 1.69919 -3.02894 0
M  V30 861 C 77.5193 1.24534 -4.09482 0
M  V30 862 C 76.8453 2.49394 -4.72977 0
M  V30 863 C 78.1453 0.361335 -5.21049 0
M  V30 864 H 79.8393 -0.0711406 -2.99315 0
M  V30 865 H 77.3853 -0.0356555 -1.43956 0
M  V30 866 H 79.3383 2.30668 -3.52662 0
M  V30 867 H 78.0623 2.33431 -2.28424 0
M  V30 868 H 76.7213 0.660782 -3.60596 0
M  V30 869 H 76.3693 3.11265 -3.95124 0
M  V30 870 H 76.0693 2.19718 -5.44975 0
M  V30 871 H 77.5933 3.10908 -5.25517 0
M  V30 872 H 79.0073 0.875072 -5.66582 0
M  V30 873 H 77.4043 0.157428 -5.99893 0
M  V30 874 H 78.4743 -0.60822 -4.8107 0
M  V30 875 N 79.8174 1.5752 -0.0501392 0
M  V30 876 C 80.7474 2.14502 0.922566 0
M  V30 877 C 81.7284 1.06642 1.3252 0
M  V30 878 O 82.9134 1.34577 1.4001 0
M  V30 879 C 80.0434 2.68916 2.19776 0
M  V30 880 C 78.9974 3.8175 1.93523 0
M  V30 881 C 78.3234 4.22677 3.27487 0
M  V30 882 C 79.6234 5.06932 1.25765 0
M  V30 883 H 81.3174 2.9603 0.447952 0
M  V30 884 H 78.8634 1.42401 0.214024 0
M  V30 885 H 80.8164 3.07419 2.88222 0
M  V30 886 H 79.5404 1.84578 2.69441 0
M  V30 887 H 78.1994 3.43718 1.27489 0
M  V30 888 H 77.8474 3.35291 3.74952 0
M  V30 889 H 77.5474 4.98725 3.1072 0
M  V30 890 H 79.0714 4.63779 3.97166 0
M  V30 891 H 80.4854 5.42888 1.84244 0
M  V30 892 H 78.8824 5.88116 1.19328 0
M  V30 893 H 79.9524 4.84337 0.233536 0
M  V30 894 N 81.2955 -0.223234 1.56011 0
M  V30 895 C 82.7115 -0.572856 1.48965 0
M  V30 896 C 82.9115 -1.87225 0.74492 0
M  V30 897 O 81.9675 -2.50899 0.283896 0
M  V30 898 C 83.2805 -0.653646 2.9351 0
M  V30 899 C 84.8285 -0.744386 3.0402 0
M  V30 900 C 85.3035 -0.856535 4.49919 0
M  V30 901 N 86.7945 -0.9208 4.53955 0
M  V30 902 C 87.5295 -1.02726 5.64123 0
M  V30 903 N 87.0255 -1.09777 6.84047 0
M  V30 904 N 88.8185 -1.06226 5.51971 0
M  V30 905 H 80.9695 0.629462 2.02858 0
M  V30 906 H 83.2325 0.220621 0.921971 0
M  V30 907 H 82.9385 0.231518 3.50937 0
M  V30 908 H 82.8125 -1.51781 3.45315 0
M  V30 909 H 85.1995 -1.61999 2.46658 0
M  V30 910 H 85.2805 0.14541 2.55386 0
M  V30 911 H 84.9245 0.0146069 5.07898 0
M  V30 912 H 84.8545 -1.76172 4.96257 0
M  V30 913 H 87.3455 -0.876694 3.6759 0
M  V30 914 H 87.6585 -1.17872 7.63758 0
M  V30 915 H 86.0035 -1.06693 6.86762 0
M  V30 916 H 89.1945 -1.00382 4.5721 0
M  V30 917 H 89.3675 -1.14177 6.37862 0
M  V30 918 N 82.7736 -1.49793 -0.48987 0
M  V30 919 C 83.6836 -1.70036 -1.61632 0
M  V30 920 C 84.6996 -0.583102 -1.63939 0
M  V30 921 O 85.8756 -0.859169 -1.82154 0
M  V30 922 C 82.9406 -1.77277 -2.97949 0
M  V30 923 C 82.0016 -3.00918 -3.06181 0
M  V30 924 C 81.2346 -3.07804 -4.35996 0
M  V30 925 O 81.4576 -2.21982 -5.25433 0
M  V30 926 O 80.3916 -4.00369 -4.49431 0
M  V30 927 H 84.2176 -2.65486 -1.47482 0
M  V30 928 H 81.8026 -1.33666 -0.667362 0
M  V30 929 H 83.6846 -1.84329 -3.78947 0
M  V30 930 H 82.3596 -0.850076 -3.12339 0
M  V30 931 H 81.2666 -2.99377 -2.2433 0
M  V30 932 H 82.5996 -3.92704 -2.96723 0
M  V30 933 N 84.2517 0.741722 -1.39055 0
M  V30 934 C 85.4817 1.52876 -1.3897 0
M  V30 935 C 85.8897 1.8919 0.0193266 0
M  V30 936 O 85.2327 1.54138 0.999356 0
M  V30 937 C 85.2947 2.84929 -2.19216 0
M  V30 938 C 84.9587 2.71086 -3.67915 0
M  V30 939 C 85.9557 2.40084 -4.61146 0
M  V30 940 C 83.6407 2.88168 -4.11418 0
M  V30 941 C 85.6347 2.26335 -5.95862 0
M  V30 942 C 83.3217 2.74037 -5.46211 0
M  V30 943 C 84.3197 2.43166 -6.38247 0
M  V30 944 O 84.0077 2.29115 -7.70559 0
M  V30 945 H 83.7397 0.479252 -0.476753 0
M  V30 946 H 86.2937 0.924751 -1.83405 0
M  V30 947 H 84.5237 3.47564 -1.69518 0
M  V30 948 H 86.2127 3.46509 -2.11392 0
M  V30 949 H 86.9787 2.26545 -4.28838 0
M  V30 950 H 82.8577 3.11191 -3.40119 0
M  V30 951 H 86.4017 2.0216 -6.67665 0
M  V30 952 H 82.2987 2.87153 -5.78112 0
M  V30 953 H 83.0667 2.44237 -7.81211 0
M  V30 954 N 85.7298 1.2412 0.971189 0
M  V30 955 C 87.0068 0.986867 1.6888 0
M  V30 956 C 87.3868 -0.491857 2.0529 0
M  V30 957 O 86.7348 -1.46531 1.75331 0
M  V30 958 C 86.9448 1.9063 2.92338 0
M  V30 959 C 88.2928 2.17515 3.64654 0
M  V30 960 O 89.3168 1.88254 3.02388 0
M  V30 961 O 88.1758 2.6719 4.7673 0
M  V30 962 H 85.2698 0.372944 0.738134 0
M  V30 963 H 87.8158 1.35203 1.02559 0
M  V30 964 H 86.5878 2.90552 2.62097 0
M  V30 965 H 86.2108 1.54408 3.66393 0
M  V30 966 N 87.2079 -1.17134 1.05439 0
M  V30 967 C 88.1549 -2.21235 0.657539 0
M  V30 968 C 89.1249 -1.62551 -0.341543 0
M  V30 969 O 90.3099 -1.89379 -0.232393 0
M  V30 970 C 87.4499 -3.45076 0.0410575 0
M  V30 971 C 86.5629 -4.18042 1.08927 0
M  V30 972 C 85.6979 -5.29376 0.439848 0
M  V30 973 C 84.7369 -5.94132 1.4722 0
M  V30 974 N 83.8739 -6.96975 0.846756 0
M  V30 975 H 88.7139 -2.54534 1.54972 0
M  V30 976 H 86.2509 -1.25028 0.775006 0
M  V30 977 H 88.2089 -4.15862 -0.33383 0
M  V30 978 H 86.8389 -3.12353 -0.814568 0
M  V30 979 H 85.8909 -3.45945 1.58196 0
M  V30 980 H 87.2029 -4.62306 1.87282 0
M  V30 981 H 86.3569 -6.06699 0.0115125 0
M  V30 982 H 85.0959 -4.86251 -0.375656 0
M  V30 983 H 84.1009 -5.15538 1.91052 0
M  V30 984 H 85.3259 -6.39337 2.28965 0
M  V30 985 H 83.2719 -6.5598 0.0518075 0
M  V30 986 H 83.1889 -7.39565 1.5678 0
M  V30 987 H 84.4569 -7.78239 0.443277 0
M  V30 988 N 88.686 -0.835752 -1.33615 0
M  V30 989 C 89.633 -0.26473 -2.29277 0
M  V30 990 C 90.603 0.617712 -1.54187 0
M  V30 991 O 91.788 0.556641 -1.825 0
M  V30 992 C 88.928 0.556777 -3.40579 0
M  V30 993 C 88.041 -0.349339 -4.30585 0
M  V30 994 C 87.176 0.482969 -5.29 0
M  V30 995 C 86.215 -0.421732 -6.10645 0
M  V30 996 N 85.352 0.372262 -7.01112 0
M  V30 997 H 90.192 -1.08582 -2.77514 0
M  V30 998 H 87.729 -0.546927 -1.36554 0
M  V30 999 H 89.687 1.04852 -4.03809 0
M  V30 1000 H 88.317 1.34286 -2.93542 0
M  V30 1001 H 87.369 -0.959372 -3.68104 0
M  V30 1002 H 88.681 -1.04445 -4.87742 0
M  V30 1003 H 87.835 1.03866 -5.97743 0
M  V30 1004 H 86.574 1.21153 -4.72412 0
M  V30 1005 H 85.579 -0.989464 -5.40823 0
M  V30 1006 H 86.804 -1.14861 -6.69316 0
M  V30 1007 H 84.75 1.08426 -6.46977 0
M  V30 1008 H 84.667 -0.264198 -7.55538 0
M  V30 1009 H 85.935 0.910293 -7.74167 0
M  V30 1010 N 90.1641 1.46063 -0.591896 0
M  V30 1011 C 91.0941 2.33172 0.123673 0
M  V30 1012 C 92.0751 1.45897 0.87453 0
M  V30 1013 O 93.2601 1.74698 0.848181 0
M  V30 1014 C 90.3901 3.28336 1.13194 0
M  V30 1015 C 89.3441 4.25124 0.495324 0
M  V30 1016 C 88.6701 5.09863 1.61071 0
M  V30 1017 C 89.9701 5.19143 -0.573425 0
M  V30 1018 H 91.6641 2.93252 -0.603646 0
M  V30 1019 H 89.2101 1.41014 -0.291741 0
M  V30 1020 H 91.1631 3.88137 1.64097 0
M  V30 1021 H 89.8871 2.66383 1.88965 0
M  V30 1022 H 88.5461 3.66599 0.00729452 0
M  V30 1023 H 88.1941 4.44288 2.35832 0
M  V30 1024 H 87.8941 5.75417 1.19035 0
M  V30 1025 H 89.4181 5.72529 2.12233 0
M  V30 1026 H 90.8321 5.73106 -0.1491 0
M  V30 1027 H 89.2291 5.93089 -0.914636 0
M  V30 1028 H 90.2991 4.62519 -1.45617 0
M  V30 1029 N 91.6422 0.330177 1.54103 0
M  V30 1030 C 93.0582 -0.0222371 1.59585 0
M  V30 1031 C 93.2582 -1.49902 1.34654 0
M  V30 1032 O 92.3142 -2.25592 1.13421 0
M  V30 1033 C 93.6272 0.401932 2.98002 0
M  V30 1034 C 95.1752 0.353145 3.11001 0
M  V30 1035 C 95.6502 0.752576 4.51775 0
M  V30 1036 N 97.1412 0.706239 4.57784 0
M  V30 1037 C 97.8762 0.987417 5.64834 0
M  V30 1038 N 97.3722 1.33607 6.79795 0
M  V30 1039 N 99.1652 0.91254 5.54643 0
M  V30 1040 H 91.3162 1.29228 1.68564 0
M  V30 1041 H 93.5792 0.525906 0.78875 0
M  V30 1042 H 93.2852 1.4311 3.21267 0
M  V30 1043 H 93.1592 -0.229699 3.765 0
M  V30 1044 H 95.5462 -0.666822 2.87467 0
M  V30 1045 H 95.6272 1.0198 2.34593 0
M  V30 1046 H 95.2712 1.77049 4.76042 0
M  V30 1047 H 95.2012 0.0635409 5.26562 0
M  V30 1048 H 97.6922 0.44889 3.75224 0
M  V30 1049 H 98.0052 1.53582 7.57385 0
M  V30 1050 H 96.3502 1.37439 6.81275 0
M  V30 1051 H 99.5412 0.639601 4.6371 0
M  V30 1052 H 99.7142 1.13503 6.37982 0
M  V30 1053 N 93.1203 -1.57491 0.0584922 0
M  V30 1054 C 94.5313 -1.80526 -0.476138 0
M  V30 1055 C 94.8823 -0.971334 -1.70469 0
M  V30 1056 O 94.0073 -0.190012 -2.15564 0
M  V30 1057 C 94.6023 -3.27424 -0.870587 0
M  V30 1058 C 93.1613 -3.51351 -1.35015 0
M  V30 1059 C 92.3083 -2.75343 -0.32887 0
M  V30 1060 H 95.2593 -1.56133 0.284312 0
M  V30 1061 H 95.2803 -3.38745 -1.73299 0
M  V30 1062 H 94.7923 -3.88093 0.0237627 0
M  V30 1063 H 92.8933 -2.95971 -2.26345 0
M  V30 1064 H 93.0063 -4.60059 -1.33726 0
M  V30 1065 H 91.3703 -2.417 -0.803321 0
M  V30 1066 H 92.1533 -3.38743 0.557521 0
M  V30 1067 N 94.5984 0.214957 -1.56127 0
M  V30 1068 C 95.8754 0.963093 -1.70247 0
M  V30 1069 C 96.2554 2.02166 -0.60764 0
M  V30 1070 O 95.6034 2.25244 0.384385 0
M  V30 1071 C 95.8134 1.56756 -3.11815 0
M  V30 1072 C 97.1614 2.0573 -3.7143 0
M  V30 1073 O 98.1854 1.66637 -3.14818 0
M  V30 1074 O 97.0444 2.77603 -4.70743 0
M  V30 1075 H 94.1384 0.450321 -0.693643 0
M  V30 1076 H 96.6844 0.206219 -1.68442 0
M  V30 1077 H 95.4564 0.803533 -3.82961 0
M  V30 1078 H 95.0794 2.3898 -3.17765 0
M  V30 1079 N 96.0765 1.50051 0.48192 0
M  V30 1080 C 97.3255 1.59741 1.23149 0
M  V30 1081 C 97.6385 0.298163 1.93314 0
M  V30 1082 O 98.8445 0.273835 2.70116 0
M  V30 1083 C 97.3005 2.81926 2.23708 0
M  V30 1084 C 96.9085 4.18685 1.59396 0
M  V30 1085 C 98.6525 3.00956 2.99375 0
M  V30 1086 C 96.5595 5.3207 2.58178 0
M  V30 1087 H 95.4895 0.594838 0.46334 0
M  V30 1088 H 98.1405 1.76467 0.503169 0
M  V30 1089 H 96.5225 2.58736 2.99786 0
M  V30 1090 H 97.6965 4.52088 0.891811 0
M  V30 1091 H 96.0115 4.05171 0.960503 0
M  V30 1092 H 98.6085 3.82836 3.73283 0
M  V30 1093 H 98.9515 2.12258 3.58123 0
M  V30 1094 H 99.4845 3.24277 2.30411 0
M  V30 1095 H 96.2235 6.22888 2.04184 0
M  V30 1096 H 95.7435 5.03098 3.26577 0
M  V30 1097 H 97.4225 5.62196 3.20225 0
M  V30 1098 N 97.5546 -0.734337 1.39446 0
M  V30 1099 C 98.8026 -1.49096 1.36436 0
M  V30 1100 C 99.1236 -1.94961 -0.0388255 0
M  V30 1101 O 98.3936 -1.69033 -0.990191 0
M  V30 1102 H 96.9736 -0.5531 0.502085 0
M  V30 1103 H 99.6356 -0.871725 1.74319 0
M  V30 1104 H 98.7316 -2.37276 2.02747 0
M  V30 1105 N 99.0327 -1.24633 -0.964593 0
M  V30 1106 C 100.282 -1.08188 -1.7023 0
M  V30 1107 C 100.595 0.37873 -1.91898 0
M  V30 1108 O 101.801 0.663427 -2.6327 0
M  V30 1109 C 100.257 -1.88773 -3.06419 0
M  V30 1110 C 99.8647 -3.39263 -2.92582 0
M  V30 1111 C 101.609 -1.80867 -3.84041 0
M  V30 1112 C 99.5157 -4.1218 -4.24101 0
M  V30 1113 H 98.4457 -0.401245 -0.638372 0
M  V30 1114 H 101.097 -1.48742 -1.07462 0
M  V30 1115 H 99.4787 -1.41035 -3.70034 0
M  V30 1116 H 100.653 -3.94603 -2.37961 0
M  V30 1117 H 98.9677 -3.48154 -2.28424 0
M  V30 1118 H 101.565 -2.32646 -4.81435 0
M  V30 1119 H 101.908 -0.774543 -4.09031 0
M  V30 1120 H 102.441 -2.26301 -3.27159 0
M  V30 1121 H 99.1797 -5.15965 -4.04303 0
M  V30 1122 H 98.6997 -3.61626 -4.78526 0
M  V30 1123 H 100.379 -4.19349 -4.92702 0
M  V30 1124 N 100.511 1.16574 -1.06058 0
M  V30 1125 C 101.458 2.20883 -0.669263 0
M  V30 1126 C 102.428 1.62729 0.332918 0
M  V30 1127 O 103.613 1.895 0.222346 0
M  V30 1128 C 100.753 3.45049 -0.0593572 0
M  V30 1129 C 99.8658 4.17458 -1.11143 0
M  V30 1130 C 99.0008 5.29135 -0.467916 0
M  V30 1131 C 98.0398 5.93343 -1.50369 0
M  V30 1132 N 97.1768 6.96516 -0.883706 0
M  V30 1133 H 102.017 2.53709 -1.5632 0
M  V30 1134 H 99.5538 1.24616 -0.781625 0
M  V30 1135 H 101.512 4.16033 0.311771 0
M  V30 1136 H 100.142 3.12781 0.797992 0
M  V30 1137 H 99.1938 3.45101 -1.60029 0
M  V30 1138 H 100.506 4.61307 -1.89731 0
M  V30 1139 H 99.6598 6.06684 -0.0436871 0
M  V30 1140 H 98.3988 4.86443 0.349864 0
M  V30 1141 H 97.4038 5.14517 -1.93784 0
M  V30 1142 H 98.6288 6.38114 -2.32352 0
M  V30 1143 H 96.5748 6.55943 -0.086595 0
M  V30 1144 H 96.4918 7.38723 -1.607 0
M  V30 1145 H 97.7598 7.77993 -0.484543 0
M  V30 1146 N 101.989 0.842826 1.3317 0
M  V30 1147 C 103.4 0.496651 1.79973 0
M  V30 1148 C 103.751 -0.984641 1.69703 0
M  V30 1149 O 102.876 -1.76743 1.24863 0
M  V30 1150 C 103.471 0.894727 3.26772 0
M  V30 1151 C 102.03 0.600629 3.71577 0
M  V30 1152 C 101.177 1.10091 2.5451 0
M  V30 1153 H 104.128 1.03116 1.20635 0
M  V30 1154 H 104.149 0.206347 3.7994 0
M  V30 1155 H 103.661 1.97287 3.34215 0
M  V30 1156 H 101.762 -0.467284 3.69658 0
M  V30 1157 H 101.875 1.15863 4.64879 0
M  V30 1158 H 100.239 0.52162 2.49301 0
M  V30 1159 H 101.022 2.18591 2.64713 0
M  V30 1160 N 103.467 -1.45747 0.599634 0
M  V30 1161 C 104.695 -2.06668 0.0978551 0
M  V30 1162 C 105.11 -1.44562 -1.21439 0
M  V30 1163 O 104.467 -0.556923 -1.73795 0
M  V30 1164 C 104.518 -3.61456 -0.0567044 0
M  V30 1165 O 104.239 -4.21242 1.20361 0
M  V30 1166 C 105.74 -4.39345 -0.590869 0
M  V30 1167 H 102.96 -0.667825 0.0651943 0
M  V30 1168 H 105.504 -1.87115 0.82511 0
M  V30 1169 H 103.659 -3.80378 -0.734251 0
M  V30 1170 H 104.073 -5.14323 1.02821 0
M  V30 1171 H 105.547 -5.48182 -0.648131 0
M  V30 1172 H 106.024 -4.08568 -1.61147 0
M  V30 1173 H 106.63 -4.25268 0.0523679 0
M  V30 1174 N 104.945 -0.338344 -1.53925 0
M  V30 1175 C 106.191 0.260143 -2.01125 0
M  V30 1176 C 106.524 1.50617 -1.22589 0
M  V30 1177 O 105.799 1.91979 -0.312113 0
M  V30 1178 C 106.082 0.579499 -3.55407 0
M  V30 1179 C 105.935 -0.678264 -4.44657 0
M  V30 1180 C 107.254 1.39122 -4.17532 0
M  V30 1181 H 104.373 0.0930772 -0.731099 0
M  V30 1182 H 107.015 -0.457852 -1.84401 0
M  V30 1183 H 105.165 1.19118 -3.69788 0
M  V30 1184 H 106.837 -1.31631 -4.42121 0
M  V30 1185 H 105.08 -1.3042 -4.13731 0
M  V30 1186 H 105.751 -0.410143 -5.50474 0
M  V30 1187 H 108.227 0.874035 -4.06817 0
M  V30 1188 H 107.103 1.58342 -5.25565 0
M  V30 1189 H 107.364 2.39178 -3.71815 0
M  V30 1190 N 106.423 1.57458 -0.0668435 0
M  V30 1191 C 107.672 1.92477 0.602947 0
M  V30 1192 C 107.985 0.948419 1.71068 0
M  V30 1193 O 109.191 1.19124 2.43971 0
M  V30 1194 C 107.647 3.41903 1.12383 0
M  V30 1195 C 107.255 4.47975 0.04737 0
M  V30 1196 C 108.999 3.85931 1.76797 0
M  V30 1197 C 106.906 5.88529 0.582022 0
M  V30 1198 H 105.836 0.718387 0.22899 0
M  V30 1199 H 108.487 1.82978 -0.138276 0
M  V30 1200 H 106.869 3.46459 1.91787 0
M  V30 1201 H 108.043 4.55029 -0.726978 0
M  V30 1202 H 106.358 4.13384 -0.500243 0
M  V30 1203 H 108.955 4.88322 2.17821 0
M  V30 1204 H 109.298 3.23029 2.62599 0
M  V30 1205 H 109.831 3.83958 1.04024 0
M  V30 1206 H 106.57 6.55065 -0.238721 0
M  V30 1207 H 106.09 5.85004 1.324 0
M  V30 1208 H 107.769 6.38258 1.05999 0
M  V30 1209 N 107.901 -0.206675 1.56239 0
M  V30 1210 C 109.178 -0.954051 1.70755 0
M  V30 1211 C 109.558 -2.01841 0.618353 0
M  V30 1212 O 108.906 -2.25444 -0.372434 0
M  V30 1213 C 109.116 -1.551 3.12642 0
M  V30 1214 C 110.464 -2.03757 3.72516 0
M  V30 1215 O 111.488 -1.64965 3.15698 0
M  V30 1216 O 110.347 -2.75103 4.72208 0
M  V30 1217 H 107.441 -0.446636 0.696021 0
M  V30 1218 H 109.987 -0.197283 1.68549 0
M  V30 1219 H 108.759 -0.783212 3.83382 0
M  V30 1220 H 108.382 -2.37291 3.19028 0
M  V30 1221 N 109.379 -1.50304 -0.473955 0
M  V30 1222 C 110.625 -1.61389 -1.22806 0
M  V30 1223 C 110.958 -0.311955 -1.91678 0
M  V30 1224 O 110.233 0.686384 -1.81986 0
M  V30 1225 C 110.516 -2.79219 -2.27396 0
M  V30 1226 C 110.369 -4.19286 -1.62848 0
M  V30 1227 C 111.688 -2.92614 -3.28732 0
M  V30 1228 H 108.807 -0.587399 -0.445119 0
M  V30 1229 H 111.449 -1.82681 -0.522265 0
M  V30 1230 H 109.599 -2.61195 -2.87592 0
M  V30 1231 H 111.271 -4.48892 -1.06271 0
M  V30 1232 H 109.514 -4.23677 -0.931693 0
M  V30 1233 H 110.185 -4.97655 -2.38838 0
M  V30 1234 H 112.661 -3.09105 -2.78556 0
M  V30 1235 H 111.537 -3.76688 -3.99246 0
M  V30 1236 H 111.798 -2.03107 -3.92683 0
M  V30 1237 N 110.857 0.726932 -1.39834 0
M  V30 1238 C 112.134 1.47902 -1.28001 0
M  V30 1239 C 112.514 2.1083 0.106789 0
M  V30 1240 O 111.862 1.99242 1.11869 0
M  V30 1241 C 112.072 2.52392 -2.41038 0
M  V30 1242 C 113.42 3.18546 -2.80737 0
M  V30 1243 O 114.444 2.62708 -2.40547 0
M  V30 1244 O 113.303 4.19604 -3.50135 0
M  V30 1245 H 110.397 0.657163 -0.502062 0
M  V30 1246 H 112.943 0.760071 -1.51727 0
M  V30 1247 H 111.715 2.04329 -3.33715 0
M  V30 1248 H 111.338 3.31837 -2.19021 0
M  V30 1249 N 112.336 1.25143 0.95797 0
M  V30 1250 C 113.585 1.0909 1.69654 0
M  V30 1251 C 113.898 -0.368548 1.92097 0
M  V30 1252 O 115.104 -0.649455 2.63618 0
M  V30 1253 C 113.56 1.90395 3.05414 0
M  V30 1254 C 113.168 3.4081 2.90779 0
M  V30 1255 C 114.912 1.82901 3.83076 0
M  V30 1256 C 112.819 4.14423 4.21909 0
M  V30 1257 H 111.749 0.404625 0.636235 0
M  V30 1258 H 114.4 1.4931 1.06672 0
M  V30 1259 H 112.782 1.42996 3.69281 0
M  V30 1260 H 113.956 3.95859 2.35865 0
M  V30 1261 H 112.271 3.49361 2.26575 0
M  V30 1262 H 114.868 2.35196 4.80195 0
M  V30 1263 H 115.211 0.796224 4.08615 0
M  V30 1264 H 115.744 2.28033 3.25954 0
M  V30 1265 H 112.483 5.18102 4.01561 0
M  V30 1266 H 112.003 3.64159 4.76601 0
M  V30 1267 H 113.682 4.21956 4.90471 0
M  V30 1268 N 113.814 -1.1601 1.06675 0
M  V30 1269 C 115.044 -1.90251 0.805497 0
M  V30 1270 C 115.452 -1.77891 -0.64431 0
M  V30 1271 O 114.795 -1.12383 -1.45313 0
M  V30 1272 C 114.857 -3.41419 1.12576 0
M  V30 1273 C 114.521 -3.77564 2.57477 0
M  V30 1274 C 115.518 -3.79161 3.55715 0
M  V30 1275 C 113.203 -4.08079 2.92877 0
M  V30 1276 C 115.197 -4.10767 4.8739 0
M  V30 1277 C 112.884 -4.39351 4.24751 0
M  V30 1278 C 113.882 -4.40675 5.21818 0
M  V30 1279 O 113.57 -4.71202 6.51325 0
M  V30 1280 H 113.302 -0.610018 0.291297 0
M  V30 1281 H 115.856 -1.47958 1.4247 0
M  V30 1282 H 114.086 -3.84079 0.449503 0
M  V30 1283 H 115.775 -3.9694 0.84814 0
M  V30 1284 H 116.541 -3.55693 3.29708 0
M  V30 1285 H 112.42 -4.06211 2.17976 0
M  V30 1286 H 115.964 -4.11715 5.63148 0
M  V30 1287 H 111.861 -4.62285 4.50514 0
M  V30 1288 H 112.629 -4.88996 6.56373 0
M  V30 1289 N 115.292 -0.849877 -1.32721 0
M  V30 1290 C 116.538 -0.451591 -1.97708 0
M  V30 1291 C 116.871 0.989175 -1.6712 0
M  V30 1292 O 116.146 1.69334 -0.956891 0
M  V30 1293 C 116.429 -0.685598 -3.53513 0
M  V30 1294 C 116.282 -2.17444 -3.93749 0
M  V30 1295 C 117.601 -0.138874 -4.39881 0
M  V30 1296 H 114.72 -0.16555 -0.718166 0
M  V30 1297 H 117.362 -1.06742 -1.57182 0
M  V30 1298 H 115.512 -0.161416 -3.88165 0
M  V30 1299 H 117.184 -2.76433 -3.693 0
M  V30 1300 H 115.427 -2.65476 -3.43081 0
M  V30 1301 H 116.098 -2.28888 -5.02309 0
M  V30 1302 H 118.574 -0.587068 -4.11938 0
M  V30 1303 H 117.45 -0.332213 -5.47894 0
M  V30 1304 H 117.711 0.95806 -4.31594 0
M  V30 1305 N 116.77 1.45427 -0.607355 0
M  V30 1306 C 117.718 2.32269 0.12411 0
M  V30 1307 C 118.712 1.45955 0.859854 0
M  V30 1308 O 119.918 1.6244 0.775447 0
M  V30 1309 H 116.293 0.749691 0.0588839 0
M  V30 1310 H 118.264 2.91743 -0.626762 0
M  V30 1311 C 117.013 3.29567 1.1082 0
M  V30 1312 H 116.336 3.95978 0.551492 0
M  V30 1313 H 117.776 3.93061 1.58995 0
M  V30 1314 C 116.235 2.56722 2.18164 0
M  V30 1315 O 116.765 2.34842 3.25902 0
M  V30 1316 N 114.971 2.16861 1.93442 0
M  V30 1317 H 114.518 2.34855 1.05834 0
M  V30 1318 H 114.476 1.68444 2.65469 0
M  V30 1319 N 118.248 0.346503 1.53744 0
M  V30 1320 C 119.473 -0.253074 2.0585 0
M  V30 1321 C 119.898 -1.43202 1.21962 0
M  V30 1322 O 119.256 -1.79783 0.234073 0
M  V30 1323 C 119.304 -0.643193 3.54817 0
M  V30 1324 O 118.408 -1.74286 3.73762 0
M  V30 1325 H 117.749 -0.0413583 0.662711 0
M  V30 1326 H 120.279 0.501574 1.98357 0
M  V30 1327 H 120.289 -0.919526 3.97503 0
M  V30 1328 H 118.964 0.218966 4.15323 0
M  V30 1329 H 117.541 -1.46356 3.42979 0
M  V30 1330 N 119.726 -1.57421 0.075193 0
M  V30 1331 C 120.975 -1.92794 -0.592731 0
M  V30 1332 C 121.288 -0.957478 -1.70563 0
M  V30 1333 O 122.494 -1.20417 -2.43335 0
M  V30 1334 C 120.95 -3.42495 -1.10569 0
M  V30 1335 C 120.558 -4.47994 -0.0236121 0
M  V30 1336 C 122.302 -3.86864 -1.74748 0
M  V30 1337 C 120.209 -5.88829 -0.550803 0
M  V30 1338 H 119.139 -0.719591 -0.225177 0
M  V30 1339 H 121.79 -1.82902 0.147978 0
M  V30 1340 H 120.172 -3.47471 -1.89947 0
M  V30 1341 H 121.346 -4.54637 0.751099 0
M  V30 1342 H 119.661 -4.13113 0.522159 0
M  V30 1343 H 122.258 -4.8947 -2.15229 0
M  V30 1344 H 122.601 -3.24417 -2.60882 0
M  V30 1345 H 123.134 -3.84504 -1.01986 0
M  V30 1346 H 119.873 -6.54929 0.273457 0
M  V30 1347 H 119.393 -5.85698 -1.29296 0
M  V30 1348 H 121.072 -6.38811 -1.02613 0
M  V30 1349 N 121.204 0.198386 -1.56346 0
M  V30 1350 C 122.452 0.91747 -1.80075 0
M  V30 1351 C 122.773 1.83929 -0.647692 0
M  V30 1352 O 122.043 1.93029 0.334166 0
M  V30 1353 H 120.623 0.341774 -0.664228 0
M  V30 1354 H 123.285 0.204684 -1.93822 0
M  V30 1355 H 122.381 1.51055 -2.7311 0
M  V30 1356 N 122.682 1.50554 0.465978 0
M  V30 1357 C 124.093 1.54599 1.04671 0
M  V30 1358 C 124.444 0.352488 1.93008 0
M  V30 1359 O 123.569 -0.534044 2.09707 0
M  V30 1360 C 124.164 2.80166 1.90505 0
M  V30 1361 C 122.723 2.86876 2.43678 0
M  V30 1362 C 121.87 2.48947 1.22151 0
M  V30 1363 H 124.821 1.56744 0.248384 0
M  V30 1364 H 124.842 2.62311 2.75633 0
M  V30 1365 H 124.354 3.67013 1.26186 0
M  V30 1366 H 122.455 2.04393 3.11536 0
M  V30 1367 H 122.568 3.89885 2.78436 0
M  V30 1368 H 120.932 2.01498 1.5579 0
M  V30 1369 H 121.715 3.38107 0.594866 0
M  V30 1370 N 124.16 -0.719506 1.40217 0
M  V30 1371 C 125.406 -1.48152 1.38488 0
M  V30 1372 C 125.739 -1.94195 -0.0141867 0
M  V30 1373 O 125.014 -1.67884 -0.982096 0
M  V30 1374 C 125.297 -2.71035 2.37091 0
M  V30 1375 C 125.15 -2.30912 3.86005 0
M  V30 1376 C 126.469 -3.73182 2.33288 0
M  V30 1377 H 123.588 -0.537395 0.504357 0
M  V30 1378 H 126.23 -0.821472 1.71324 0
M  V30 1379 H 124.38 -3.27352 2.0922 0
M  V30 1380 H 126.052 -1.80107 4.24687 0
M  V30 1381 H 124.295 -1.62958 4.02029 0
M  V30 1382 H 124.966 -3.18978 4.50508 0
M  V30 1383 H 127.442 -3.26485 2.57966 0
M  V30 1384 H 126.318 -4.56806 3.04334 0
M  V30 1385 H 126.579 -4.21202 1.34317 0
M  V30 1386 N 125.638 -1.25649 -0.95132 0
M  V30 1387 C 126.863 -1.13443 -1.73624 0
M  V30 1388 C 127.288 0.307565 -1.85568 0
M  V30 1389 O 126.646 1.22282 -1.33854 0
M  V30 1390 C 126.694 -1.79723 -3.12621 0
M  V30 1391 O 125.798 -1.07912 -3.98031 0
M  V30 1392 H 125.139 -0.395872 -0.533086 0
M  V30 1393 H 127.669 -1.66276 -1.1922 0
M  V30 1394 H 127.679 -1.86141 -3.63064 0
M  V30 1395 H 126.354 -2.84633 -3.03244 0
M  V30 1396 H 124.931 -1.09398 -3.56492 0
M  V30 1397 N 127.117 1.15442 -1.07289 0
M  V30 1398 C 128.342 1.90638 -0.816828 0
M  V30 1399 C 128.767 1.77445 0.624083 0
M  V30 1400 O 128.125 1.10671 1.43602 0
M  V30 1401 C 128.173 3.39008 -1.22906 0
M  V30 1402 O 127.277 4.10701 -0.373975 0
M  V30 1403 H 126.618 0.593555 -0.297638 0
M  V30 1404 H 129.148 1.46198 -1.43134 0
M  V30 1405 H 129.158 3.89801 -1.20497 0
M  V30 1406 H 127.833 3.47929 -2.27856 0
M  V30 1407 H 126.41 3.70046 -0.460499 0
M  V30 1408 N 128.595 0.856903 1.32268 0
M  V30 1409 C 129.844 0.457599 1.96441 0
M  V30 1410 C 130.157 -0.992426 1.68553 0
M  V30 1411 O 131.363 -1.49727 2.26482 0
M  V30 1412 C 129.819 0.767358 3.51624 0
M  V30 1413 C 129.427 2.23326 3.88367 0
M  V30 1414 C 131.171 0.435887 4.22256 0
M  V30 1415 C 129.078 2.48613 5.36606 0
M  V30 1416 H 128.008 0.167387 0.735185 0
M  V30 1417 H 130.659 1.048 1.5063 0
M  V30 1418 H 129.041 0.106367 3.95857 0
M  V30 1419 H 130.215 2.93623 3.55137 0
M  V30 1420 H 128.53 2.52948 3.30766 0
M  V30 1421 H 131.127 0.602202 5.31298 0
M  V30 1422 H 131.47 -0.622672 4.11617 0
M  V30 1423 H 132.003 1.05286 3.83614 0
M  V30 1424 H 128.742 3.53101 5.52268 0
M  V30 1425 H 128.262 1.82896 5.71235 0
M  V30 1426 H 129.941 2.32676 6.03714 0
M  V30 1427 N 130.073 -1.45103 0.615059 0
M  V30 1428 C 131.021 -2.32331 -0.111791 0
M  V30 1429 C 132.015 -1.46409 -0.852102 0
M  V30 1430 O 133.221 -1.62849 -0.766821 0
M  V30 1431 H 129.596 -0.749993 -0.0549072 0
M  V30 1432 H 131.567 -2.91407 0.642225 0
M  V30 1433 C 130.316 -3.3015 -1.09071 0
M  V30 1434 H 129.639 -3.96265 -0.530485 0
M  V30 1435 H 131.079 -3.93898 -1.56908 0
M  V30 1436 C 129.538 -2.57875 -2.168 0
M  V30 1437 O 130.068 -2.36567 -3.24652 0
M  V30 1438 N 128.274 -2.17884 -1.92289 0
M  V30 1439 H 127.821 -2.35413 -1.04587 0
M  V30 1440 H 127.779 -1.6985 -2.64572 0
M  V30 1441 N 131.551 -0.354651 -1.53558 0
M  V30 1442 C 132.484 0.540273 -2.21712 0
M  V30 1443 C 133.462 1.09161 -1.2051 0
M  V30 1444 O 134.646 1.14979 -1.49372 0
M  V30 1445 C 131.773 1.74435 -2.90328 0
M  V30 1446 C 130.819 1.32146 -4.05512 0
M  V30 1447 S 131.652 0.331924 -5.3447 0
M  V30 1448 C 132.808 1.54258 -6.06593 0
M  V30 1449 H 133.041 -0.0385776 -2.97275 0
M  V30 1450 H 130.574 -0.138736 -1.53775 0
M  V30 1451 H 132.532 2.43507 -3.30476 0
M  V30 1452 H 131.193 2.29444 -2.1451 0
M  V30 1453 H 130.386 2.21952 -4.52497 0
M  V30 1454 H 129.988 0.710091 -3.67197 0
M  V30 1455 H 132.28 2.47534 -6.30661 0
M  V30 1456 H 133.223 1.11431 -6.99277 0
M  V30 1457 H 133.631 1.74367 -5.36895 0
M  V30 1458 N 133.029 1.57378 -0.0835403 0
M  V30 1459 C 133.939 2.16897 0.894021 0
M  V30 1460 C 134.955 1.13528 1.31861 0
M  V30 1461 O 136.131 1.45848 1.3889 0
M  V30 1462 C 133.196 2.72831 2.13925 0
M  V30 1463 C 132.257 3.91115 1.76997 0
M  V30 1464 C 131.49 4.44371 2.95584 0
M  V30 1465 O 131.713 3.96596 4.09961 0
M  V30 1466 O 130.647 5.35549 2.74719 0
M  V30 1467 H 134.473 3.00814 0.417679 0
M  V30 1468 H 132.058 1.48741 0.140181 0
M  V30 1469 H 133.94 3.0863 2.86924 0
M  V30 1470 H 132.615 1.91967 2.60635 0
M  V30 1471 H 131.522 3.60148 1.01214 0
M  V30 1472 H 132.855 4.73307 1.3506 0
M  V30 1473 N 134.507 -0.190092 1.56449 0
M  V30 1474 C 135.737 -0.92443 1.84764 0
M  V30 1475 C 136.145 -1.77146 0.664529 0
M  V30 1476 O 135.488 -1.79812 -0.375957 0
M  V30 1477 C 135.55 -1.86651 3.07248 0
M  V30 1478 C 135.214 -1.20094 4.40938 0
M  V30 1479 C 136.211 -0.575445 5.16706 0
M  V30 1480 C 133.896 -1.2033 4.87674 0
M  V30 1481 C 135.89 0.0388111 6.37388 0
M  V30 1482 C 133.577 -0.585214 6.08291 0
M  V30 1483 C 134.575 0.0347578 6.82991 0
M  V30 1484 O 134.263 0.643147 8.01323 0
M  V30 1485 H 133.995 -0.274974 0.617548 0
M  V30 1486 H 136.549 -0.200788 2.04416 0
M  V30 1487 H 134.779 -2.62998 2.83494 0
M  V30 1488 H 136.468 -2.46907 3.22167 0
M  V30 1489 H 137.234 -0.565728 4.81689 0
M  V30 1490 H 133.113 -1.67526 4.29484 0
M  V30 1491 H 136.657 0.523329 6.95634 0
M  V30 1492 H 132.554 -0.592451 6.42775 0
M  V30 1493 H 133.322 0.540545 8.16713 0
M  V30 1494 N 135.985 -1.50799 -0.457987 0
M  V30 1495 C 136.917 -1.66786 -1.57211 0
M  V30 1496 C 137.93 -0.548962 -1.53265 0
M  V30 1497 O 139.119 -0.8226 -1.58416 0
M  V30 1498 C 136.219 -1.64834 -2.96113 0
M  V30 1499 C 135.392 -2.92971 -3.24787 0
M  V30 1500 C 134.451 -2.83485 -4.43309 0
M  V30 1501 O 133.477 -3.5744 -4.42973 0
M  V30 1502 N 134.679 -1.97929 -5.45714 0
M  V30 1503 H 137.444 -2.62889 -1.43909 0
M  V30 1504 H 135.005 -1.48427 -0.646617 0
M  V30 1505 H 136.997 -1.56084 -3.7339 0
M  V30 1506 H 135.567 -0.764118 -3.03117 0
M  V30 1507 H 134.787 -3.15749 -2.36 0
M  V30 1508 H 136.075 -3.77834 -3.40762 0
M  V30 1509 H 135.473 -1.37182 -5.48815 0
M  V30 1510 H 134.03 -1.95073 -6.21924 0
M  V30 1511 N 137.463 0.71206 -1.40597 0
M  V30 1512 C 138.712 1.46754 -1.38369 0
M  V30 1513 C 139.025 1.95598 0.0097839 0
M  V30 1514 O 140.231 2.71059 0.154677 0
M  V30 1515 C 138.687 2.65289 -2.43207 0
M  V30 1516 C 138.295 2.23301 -3.88382 0
M  V30 1517 C 140.039 3.43008 -2.50091 0
M  V30 1518 C 137.946 3.38696 -4.84808 0
M  V30 1519 H 136.876 0.55118 -0.514506 0
M  V30 1520 H 139.527 0.774616 -1.66349 0
M  V30 1521 H 137.909 3.36769 -2.08332 0
M  V30 1522 H 139.083 1.59218 -4.32419 0
M  V30 1523 H 137.398 1.58618 -3.85006 0
M  V30 1524 H 139.995 4.28881 -3.1932 0
M  V30 1525 H 140.338 3.87065 -1.53253 0
M  V30 1526 H 140.871 2.78574 -2.83974 0
M  V30 1527 H 137.61 2.99668 -5.82992 0
M  V30 1528 H 137.13 4.01683 -4.45433 0
M  V30 1529 H 138.809 4.04712 -5.04794 0
M  V30 1530 N 138.941 1.26152 0.944643 0
M  V30 1531 C 140.218 1.02247 1.66748 0
M  V30 1532 C 140.598 -0.448202 2.06287 0
M  V30 1533 O 139.946 -1.42779 1.78399 0
M  V30 1534 C 140.156 1.96788 2.88228 0
M  V30 1535 C 141.504 2.25201 3.59958 0
M  V30 1536 O 142.528 1.94626 2.98327 0
M  V30 1537 O 141.387 2.77242 4.70956 0
M  V30 1538 H 138.481 0.388517 0.730057 0
M  V30 1539 H 141.027 1.37348 0.99668 0
M  V30 1540 H 139.799 2.96047 2.55875 0
M  V30 1541 H 139.422 1.62145 3.63035 0
M  V30 1542 N 140.419 -1.14872 1.07899 0
M  V30 1543 C 141.668 -1.85135 0.800499 0
M  V30 1544 C 141.981 -1.83547 -0.676014 0
M  V30 1545 O 143.187 -2.49548 -1.06948 0
M  V30 1546 C 141.643 -3.3231 1.38197 0
M  V30 1547 C 141.251 -3.42329 2.8899 0
M  V30 1548 C 142.995 -4.0772 1.18174 0
M  V30 1549 C 140.902 -4.83684 3.403 0
M  V30 1550 H 139.832 -0.693563 0.29578 0
M  V30 1551 H 142.483 -1.29532 1.29976 0
M  V30 1552 H 140.865 -3.87618 0.810431 0
M  V30 1553 H 142.039 -2.97097 3.52236 0
M  V30 1554 H 140.354 -2.80369 3.07867 0
M  V30 1555 H 142.951 -5.12049 1.5398 0
M  V30 1556 H 143.294 -4.16124 0.12117 0
M  V30 1557 H 143.827 -3.58696 1.71994 0
M  V30 1558 H 140.566 -4.80465 4.45907 0
M  V30 1559 H 140.086 -5.29474 2.81811 0
M  V30 1560 H 141.765 -5.52558 3.36584 0
M  V30 1561 N 141.898 -0.863906 -1.31812 0
M  V30 1562 C 143.145 -0.471836 -1.96926 0
M  V30 1563 C 143.473 0.974578 -1.68322 0
M  V30 1564 O 142.728 1.7003 -0.968933 0
M  V30 1565 C 143.027 -0.668547 -3.51091 0
M  V30 1566 C 142.693 -2.08683 -3.99703 0
M  V30 1567 C 141.355 -2.47471 -4.12688 0
M  V30 1568 C 143.707 -3.01207 -4.25351 0
M  V30 1569 C 141.035 -3.78037 -4.4867 0
M  V30 1570 C 143.387 -4.31282 -4.62794 0
M  V30 1571 C 142.051 -4.69992 -4.73987 0
M  V30 1572 H 141.321 -0.172657 -0.720604 0
M  V30 1573 H 143.968 -1.09573 -1.57054 0
M  V30 1574 H 142.273 0.0385252 -3.91781 0
M  V30 1575 H 143.97 -0.345102 -3.99512 0
M  V30 1576 H 140.56 -1.77566 -3.90087 0
M  V30 1577 H 144.744 -2.72469 -4.14819 0
M  V30 1578 H 140 -4.078 -4.55532 0
M  V30 1579 H 144.174 -5.03031 -4.81594 0
M  V30 1580 H 141.801 -5.71207 -5.01624 0
M  V30 1581 N 143.376 1.44774 -0.622745 0
M  V30 1582 C 144.623 2.02121 -0.1239 0
M  V30 1583 C 144.951 1.48915 1.25118 0
M  V30 1584 O 144.206 0.660045 1.84233 0
M  V30 1585 C 144.505 3.57364 -0.0508323 0
M  V30 1586 C 144.171 4.29787 -1.36358 0
M  V30 1587 C 142.833 4.4929 -1.72314 0
M  V30 1588 C 145.185 4.71062 -2.23048 0
M  V30 1589 C 142.513 5.07325 -2.94682 0
M  V30 1590 C 144.865 5.30452 -3.44679 0
M  V30 1591 C 143.529 5.48175 -3.80868 0
M  V30 1592 H 142.799 0.739612 -0.0453381 0
M  V30 1593 H 145.446 1.73648 -0.807389 0
M  V30 1594 H 143.751 3.85202 0.715991 0
M  V30 1595 H 145.448 3.99456 0.351533 0
M  V30 1596 H 142.038 4.14932 -1.07375 0
M  V30 1597 H 146.222 4.55715 -1.96565 0
M  V30 1598 H 141.478 5.19235 -3.22809 0
M  V30 1599 H 145.652 5.61385 -4.12092 0
M  V30 1600 H 143.279 5.92912 -4.75773 0
M  V30 1601 N 144.854 0.36279 1.53368 0
M  V30 1602 C 145.817 -0.472679 2.24273 0
M  V30 1603 C 146.817 -1.012 1.24961 0
M  V30 1604 O 148.007 -0.898194 1.49259 0
M  V30 1605 C 145.139 -1.66039 2.97731 0
M  V30 1606 H 146.332 0.14773 2.99536 0
M  V30 1607 H 143.885 0.114434 1.55881 0
M  V30 1608 H 144.62 -2.31896 2.26704 0
M  V30 1609 H 144.405 -1.28066 3.70596 0
M  V30 1610 H 145.895 -2.25252 3.51641 0
M  V30 1611 N 146.332 -1.57332 0.0918853 0
M  V30 1612 C 147.264 -2.10869 -0.898168 0
M  V30 1613 C 148.277 -1.04521 -1.24817 0
M  V30 1614 O 149.466 -1.31977 -1.20184 0
M  V30 1615 C 146.566 -2.57083 -2.2082 0
M  V30 1616 C 145.739 -3.87229 -2.03402 0
M  V30 1617 C 144.798 -4.19324 -3.17889 0
M  V30 1618 O 143.824 -4.88598 -2.91994 0
M  V30 1619 N 145.026 -3.74471 -4.43567 0
M  V30 1620 H 147.791 -2.96439 -0.440943 0
M  V30 1621 H 145.352 -1.61631 -0.0933064 0
M  V30 1622 H 147.344 -2.75602 -2.96354 0
M  V30 1623 H 145.914 -1.76541 -2.57977 0
M  V30 1624 H 145.134 -3.7789 -1.12218 0
M  V30 1625 H 146.422 -4.72379 -1.89038 0
M  V30 1626 H 145.82 -3.18546 -4.67488 0
M  V30 1627 H 144.377 -3.98151 -5.16061 0
M  V30 1628 N 147.81 0.181792 -1.56548 0
M  V30 1629 C 149.038 0.915947 -1.85521 0
M  V30 1630 C 149.453 1.76282 -0.676016 0
M  V30 1631 O 148.81 1.79012 0.355077 0
M  V30 1632 C 148.861 1.80126 -3.13427 0
M  V30 1633 O 148.582 0.988562 -4.26801 0
M  V30 1634 C 150.083 2.64597 -3.55673 0
M  V30 1635 H 147.303 0.26661 -0.61576 0
M  V30 1636 H 149.847 0.185039 -2.03661 0
M  V30 1637 H 148.002 2.48563 -2.97145 0
M  V30 1638 H 148.416 1.59308 -4.99721 0
M  V30 1639 H 149.89 3.2235 -4.48101 0
M  V30 1640 H 150.367 3.38958 -2.79292 0
M  V30 1641 H 150.973 2.0151 -3.74532 0
M  V30 1642 N 149.288 1.51039 0.449983 0
M  V30 1643 C 150.534 1.64287 1.19923 0
M  V30 1644 C 150.889 0.348701 1.89214 0
M  V30 1645 O 150.182 -0.654751 1.80065 0
M  V30 1646 C 150.376 2.77556 2.25161 0
M  V30 1647 C 150.205 4.17862 1.66198 0
M  V30 1648 C 148.975 4.83976 1.45243 0
M  V30 1649 C 151.173 5.01388 1.14519 0
M  V30 1650 N 149.155 6.08433 0.817437 0
M  V30 1651 C 150.526 6.16743 0.634705 0
M  V30 1652 C 152.581 4.87008 1.03574 0
M  V30 1653 C 151.284 7.19295 0.0255452 0
M  V30 1654 C 153.31 5.89757 0.440489 0
M  V30 1655 C 152.672 7.04375 -0.0595112 0
M  V30 1656 H 148.771 0.655161 0.426952 0
M  V30 1657 H 151.355 1.88228 0.49781 0
M  V30 1658 H 149.526 2.553 2.92706 0
M  V30 1659 H 151.258 2.80049 2.92155 0
M  V30 1660 H 148.013 4.41627 1.71063 0
M  V30 1661 H 148.437 6.75017 0.517747 0
M  V30 1662 H 153.079 3.9866 1.4082 0
M  V30 1663 H 150.797 8.07302 -0.359071 0
M  V30 1664 H 154.383 5.80698 0.35788 0
M  V30 1665 H 153.263 7.82521 -0.512882 0
M  V30 1666 N 150.766 -0.704594 1.40972 0
M  V30 1667 C 151.994 -1.49354 1.43182 0
M  V30 1668 C 152.409 -1.88768 0.0345508 0
M  V30 1669 O 151.766 -1.56184 -0.944081 0
M  V30 1670 C 151.817 -2.76187 2.33244 0
M  V30 1671 O 151.538 -2.38436 3.67532 0
M  V30 1672 C 153.039 -3.7 2.44162 0
M  V30 1673 H 150.259 -0.460559 0.487982 0
M  V30 1674 H 152.803 -0.868261 1.85153 0
M  V30 1675 H 150.958 -3.34974 1.94606 0
M  V30 1676 H 151.372 -3.20126 4.15475 0
M  V30 1677 H 152.846 -4.55803 3.11364 0
M  V30 1678 H 153.323 -4.13867 1.47006 0
M  V30 1679 H 153.929 -3.17121 2.83398 0
M  V30 1680 N 152.244 -1.26651 -0.937939 0
M  V30 1681 C 153.521 -1.0313 -1.66204 0
M  V30 1682 C 153.901 0.437256 -2.06522 0
M  V30 1683 O 153.249 1.41831 -1.79154 0
M  V30 1684 C 153.459 -1.98314 -2.87181 0
M  V30 1685 C 154.807 -2.27107 -3.58758 0
M  V30 1686 O 155.831 -1.96205 -2.97291 0
M  V30 1687 O 154.69 -2.79736 -4.69479 0
M  V30 1688 H 151.784 -0.392384 -0.727986 0
M  V30 1689 H 154.33 -1.37874 -0.989382 0
M  V30 1690 H 153.102 -2.97399 -2.54302 0
M  V30 1691 H 152.725 -1.64068 -3.6217 0
M  V30 1692 N 153.722 1.14298 -1.08507 0
M  V30 1693 C 154.947 1.8976 -0.837001 0
M  V30 1694 C 155.372 1.78097 0.605228 0
M  V30 1695 O 154.73 1.12188 1.4242 0
M  V30 1696 C 154.778 3.37685 -1.26495 0
M  V30 1697 O 153.882 4.10281 -0.417514 0
M  V30 1698 H 153.223 0.590365 -0.303917 0
M  V30 1699 H 155.753 1.44672 -1.44676 0
M  V30 1700 H 155.763 3.88501 -1.24625 0
M  V30 1701 H 154.438 3.45492 -2.31534 0
M  V30 1702 H 153.015 3.69536 -0.499722 0
M  V30 1703 N 155.201 0.870884 1.31352 0
M  V30 1704 C 156.617 0.562932 1.49343 0
M  V30 1705 C 156.817 -0.902725 1.80148 0
M  V30 1706 O 155.873 -1.68484 1.88067 0
M  V30 1707 C 157.186 1.46393 2.62659 0
M  V30 1708 C 158.734 1.46607 2.76542 0
M  V30 1709 C 159.209 2.35266 3.92955 0
M  V30 1710 N 160.7 2.33151 4.00243 0
M  V30 1711 C 161.435 2.98471 4.89594 0
M  V30 1712 N 160.931 3.72964 5.8384 0
M  V30 1713 N 162.724 2.87775 4.82848 0
M  V30 1714 H 154.875 1.81923 1.09626 0
M  V30 1715 H 157.138 0.777934 0.541777 0
M  V30 1716 H 156.844 2.50689 2.46674 0
M  V30 1717 H 156.718 1.16314 3.58819 0
M  V30 1718 H 159.105 0.43069 2.9194 0
M  V30 1719 H 159.186 1.8071 1.81046 0
M  V30 1720 H 158.83 3.38881 3.78315 0
M  V30 1721 H 158.76 1.98487 4.87761 0
M  V30 1722 H 161.251 1.79006 3.32814 0
M  V30 1723 H 161.564 4.19932 6.4875 0
M  V30 1724 H 159.909 3.77073 5.83816 0
M  V30 1725 H 163.1 2.29116 4.08195 0
M  V30 1726 H 163.273 3.38961 5.52277 0
M  V30 1727 N 156.679 -1.44442 0.630414 0
M  V30 1728 C 157.609 -2.33418 -0.0618083 0
M  V30 1729 C 158.59 -1.48165 -0.835541 0
M  V30 1730 O 159.775 -1.76886 -0.801564 0
M  V30 1731 C 156.905 -3.31222 -1.04449 0
M  V30 1732 C 155.859 -4.26288 -0.382436 0
M  V30 1733 C 155.185 -5.13954 -1.47497 0
M  V30 1734 C 156.485 -5.1744 0.710865 0
M  V30 1735 H 158.179 -2.91548 0.681184 0
M  V30 1736 H 155.725 -1.40191 0.329026 0
M  V30 1737 H 157.678 -3.92351 -1.53748 0
M  V30 1738 H 156.402 -2.71299 -1.81836 0
M  V30 1739 H 155.061 -3.6649 0.0899054 0
M  V30 1740 H 154.709 -4.50385 -2.2397 0
M  V30 1741 H 154.409 -5.7837 -1.03737 0
M  V30 1742 H 155.933 -5.77955 -1.96979 0
M  V30 1743 H 157.347 -5.72509 0.300996 0
M  V30 1744 H 155.744 -5.90455 1.07156 0
M  V30 1745 H 156.814 -4.58496 1.57829 0
M  V30 1746 N 158.157 -0.370918 -1.53173 0
M  V30 1747 C 159.573 -0.0200818 -1.59587 0
M  V30 1748 C 159.773 1.46279 -1.38581 0
M  V30 1749 O 158.829 2.22506 -1.19363 0
M  V30 1750 C 160.142 -0.4808 -2.96831 0
M  V30 1751 C 161.69 -0.435477 -3.09956 0
M  V30 1752 C 162.165 -0.872092 -4.4962 0
M  V30 1753 N 163.656 -0.827364 -4.55751 0
M  V30 1754 C 164.391 -1.13683 -5.62018 0
M  V30 1755 N 163.887 -1.51584 -6.76014 0
M  V30 1756 N 165.68 -1.05927 -5.52029 0
M  V30 1757 H 157.831 -1.33652 -1.65079 0
M  V30 1758 H 160.094 -0.546634 -0.774529 0
M  V30 1759 H 159.8 -1.51577 -3.1736 0
M  V30 1760 H 159.674 0.129796 -3.76977 0
M  V30 1761 H 162.061 0.590371 -2.89134 0
M  V30 1762 H 162.142 -1.08164 -2.31806 0
M  V30 1763 H 161.786 -1.89608 -4.71181 0
M  V30 1764 H 161.716 -0.203127 -5.26208 0
M  V30 1765 H 164.207 -0.548216 -3.73902 0
M  V30 1766 H 164.52 -1.73609 -7.53047 0
M  V30 1767 H 162.865 -1.55454 -6.77391 0
M  V30 1768 H 166.056 -0.762321 -4.61851 0
M  V30 1769 H 166.229 -1.30378 -6.34749 0
M  V30 1770 N 159.635 1.57281 -0.100228 0
M  V30 1771 C 160.882 1.94537 0.562268 0
M  V30 1772 C 161.21 0.982315 1.67871 0
M  V30 1773 O 160.465 0.00280936 1.957 0
M  V30 1774 C 160.764 3.38305 1.15259 0
M  V30 1775 C 160.43 4.50618 0.159409 0
M  V30 1776 C 159.092 4.81066 -0.113741 0
M  V30 1777 C 161.444 5.18615 -0.518461 0
M  V30 1778 C 158.772 5.76835 -1.07137 0
M  V30 1779 C 161.124 6.15412 -1.46459 0
M  V30 1780 C 159.788 6.44262 -1.74592 0
M  V30 1781 H 159.058 0.711863 0.205748 0
M  V30 1782 H 161.705 1.90679 -0.17715 0
M  V30 1783 H 160.01 3.38766 1.96836 0
M  V30 1784 H 161.707 3.64435 1.67297 0
M  V30 1785 H 158.297 4.2689 0.382491 0
M  V30 1786 H 162.481 4.95264 -0.320581 0
M  V30 1787 H 157.737 5.975 -1.29628 0
M  V30 1788 H 161.911 6.67194 -1.99564 0
M  V30 1789 H 159.538 7.1828 -2.48953 0
M  V30 1790 N 161.113 -0.173488 1.56642 0
M  V30 1791 C 162.061 -1.23417 1.97157 0
M  V30 1792 C 163.055 -1.45946 0.860013 0
M  V30 1793 O 164.261 -1.46551 1.04512 0
M  V30 1794 H 160.636 -0.414818 0.62724 0
M  V30 1795 H 162.607 -0.865582 2.8557 0
M  V30 1796 C 161.356 -2.5665 2.34576 0
M  V30 1797 H 160.679 -2.40137 3.19647 0
M  V30 1798 H 162.119 -3.2956 2.6677 0
M  V30 1799 C 160.578 -3.15245 1.18836 0
M  V30 1800 O 161.108 -3.98883 0.474869 0
M  V30 1801 N 159.314 -2.74303 0.959497 0
M  V30 1802 H 158.861 -2.0639 1.54146 0
M  V30 1803 H 158.819 -3.13844 0.186932 0
M  V30 1804 N 162.591 -1.51276 -0.441967 0
M  V30 1805 C 163.816 -1.67799 -1.21895 0
M  V30 1806 C 164.241 -0.372864 -1.84367 0
M  V30 1807 O 163.599 0.666501 -1.68604 0
M  V30 1808 C 163.647 -2.79199 -2.28211 0
M  V30 1809 O 162.751 -2.42479 -3.33583 0
M  V30 1810 H 162.092 -0.559649 -0.357336 0
M  V30 1811 H 164.622 -1.97815 -0.522522 0
M  V30 1812 H 164.632 -3.03146 -2.73069 0
M  V30 1813 H 163.307 -3.73906 -1.82118 0
M  V30 1814 H 161.884 -2.29087 -2.94234 0
M  V30 1815 N 164.069 0.697108 -1.41344 0
M  V30 1816 C 165.297 1.48593 -1.43972 0
M  V30 1817 C 165.712 1.88747 -0.0445612 0
M  V30 1818 O 165.069 1.56682 0.935785 0
M  V30 1819 C 165.12 2.74946 -2.34706 0
M  V30 1820 O 164.841 2.36484 -3.68791 0
M  V30 1821 C 166.342 3.687 -2.46121 0
M  V30 1822 H 163.562 0.457964 -0.490418 0
M  V30 1823 H 166.106 0.858429 -1.8561 0
M  V30 1824 H 164.261 3.33937 -1.9638 0
M  V30 1825 H 164.675 3.17918 -4.17167 0
M  V30 1826 H 166.149 4.54145 -3.13777 0
M  V30 1827 H 166.626 4.13081 -1.49199 0
M  V30 1828 H 167.232 3.15613 -2.85076 0
M  V30 1829 N 165.547 1.27147 0.931209 0
M  V30 1830 C 166.48 1.0389 2.0318 0
M  V30 1831 C 167.458 -0.0395716 1.62552 0
M  V30 1832 O 168.642 0.104867 1.88208 0
M  V30 1833 C 165.769 0.575227 3.3378 0
M  V30 1834 C 164.815 1.64774 3.93385 0
M  V30 1835 S 165.648 3.23933 4.26413 0
M  V30 1836 C 166.804 2.79358 5.60098 0
M  V30 1837 H 167.037 1.97075 2.22596 0
M  V30 1838 H 164.57 1.10938 1.07387 0
M  V30 1839 H 166.528 0.314385 4.09294 0
M  V30 1840 H 165.189 -0.336505 3.12292 0
M  V30 1841 H 164.382 1.27454 4.87618 0
M  V30 1842 H 163.984 1.86048 3.24441 0
M  V30 1843 H 166.276 2.24443 6.39243 0
M  V30 1844 H 167.219 3.72322 6.02314 0
M  V30 1845 H 167.627 2.1861 5.20452 0
M  V30 1846 N 167.025 -1.13721 1.09112 0
M  V30 1847 C 167.972 -2.19031 0.727591 0
M  V30 1848 C 168.942 -1.63555 -0.289656 0
M  V30 1849 O 170.127 -1.90023 -0.172026 0
M  V30 1850 C 167.267 -3.4477 0.15082 0
M  V30 1851 C 166.38 -4.14365 1.22172 0
M  V30 1852 C 165.515 -5.27709 0.608042 0
M  V30 1853 C 164.554 -5.89147 1.66047 0
M  V30 1854 N 163.691 -6.93929 1.06806 0
M  V30 1855 H 168.531 -2.49475 1.62991 0
M  V30 1856 H 166.068 -1.22499 0.81439 0
M  V30 1857 H 168.026 -4.16714 -0.201358 0
M  V30 1858 H 166.656 -3.14787 -0.714783 0
M  V30 1859 H 165.708 -3.40737 1.69122 0
M  V30 1860 H 167.02 -4.56114 2.01895 0
M  V30 1861 H 166.174 -6.06355 0.204523 0
M  V30 1862 H 164.913 -4.872 -0.220769 0
M  V30 1863 H 163.918 -5.09198 2.07357 0
M  V30 1864 H 165.143 -6.31729 2.49189 0
M  V30 1865 H 163.089 -6.55483 0.260476 0
M  V30 1866 H 163.006 -7.34202 1.8023 0
M  V30 1867 H 164.274 -7.76434 0.690644 0
M  V30 1868 N 168.503 -0.877838 -1.30888 0
M  V30 1869 C 169.752 -0.488793 -1.95688 0
M  V30 1870 C 170.065 0.965485 -1.70111 0
M  V30 1871 O 171.271 1.46104 -2.28836 0
M  V30 1872 C 169.727 -0.823201 -3.50359 0
M  V30 1873 C 169.335 -2.29477 -3.84765 0
M  V30 1874 C 171.079 -0.503009 -4.21509 0
M  V30 1875 C 168.986 -2.57118 -5.32583 0
M  V30 1876 H 167.916 -0.179062 -0.732429 0
M  V30 1877 H 170.567 -1.07183 -1.48943 0
M  V30 1878 H 168.949 -0.169331 -3.95638 0
M  V30 1879 H 170.123 -2.99236 -3.5042 0
M  V30 1880 H 168.438 -2.58178 -3.267 0
M  V30 1881 H 171.035 -0.68665 -5.30273 0
M  V30 1882 H 171.378 0.557109 -4.12555 0
M  V30 1883 H 171.911 -1.11376 -3.8189 0
M  V30 1884 H 168.65 -3.61843 -5.4658 0
M  V30 1885 H 168.17 -1.91961 -5.68253 0
M  V30 1886 H 169.849 -2.42251 -5.99936 0
M  V30 1887 N 169.982 1.44106 -0.638065 0
M  V30 1888 C 170.912 2.33448 0.0494287 0
M  V30 1889 C 171.893 1.48606 0.827672 0
M  V30 1890 O 173.078 1.77308 0.792173 0
M  V30 1891 C 170.208 3.31771 1.02691 0
M  V30 1892 C 169.162 4.26485 0.359823 0
M  V30 1893 C 168.488 5.14729 1.44769 0
M  V30 1894 C 169.788 5.17056 -0.738296 0
M  V30 1895 H 171.482 2.91183 -0.696636 0
M  V30 1896 H 169.028 1.40014 -0.336456 0
M  V30 1897 H 170.981 3.93161 1.51666 0
M  V30 1898 H 169.705 2.7226 1.80395 0
M  V30 1899 H 168.364 3.66437 -0.10934 0
M  V30 1900 H 168.012 4.51566 2.21578 0
M  V30 1901 H 167.712 5.78913 1.00668 0
M  V30 1902 H 169.236 5.78991 1.93911 0
M  V30 1903 H 170.65 5.72342 -0.331354 0
M  V30 1904 H 169.047 5.89879 -1.10286 0
M  V30 1905 H 170.117 4.57652 -1.60258 0
M  V30 1906 N 171.46 0.379036 1.52974 0
M  V30 1907 C 172.688 -0.20679 2.05864 0
M  V30 1908 C 173.103 -1.41356 1.25155 0
M  V30 1909 O 172.46 -1.8009 0.295588 0
M  V30 1910 C 172.511 -0.587045 3.56702 0
M  V30 1911 O 172.232 0.571776 4.34353 0
M  V30 1912 C 173.733 -1.22983 4.25899 0
M  V30 1913 H 170.953 -0.0336123 0.670158 0
M  V30 1914 H 173.497 0.541298 1.97206 0
M  V30 1915 H 171.652 -1.28504 3.65466 0
M  V30 1916 H 172.066 0.261544 5.23847 0
M  V30 1917 H 173.54 -1.44635 5.32715 0
M  V30 1918 H 174.017 -2.19416 3.80465 0
M  V30 1919 H 174.623 -0.572892 4.21424 0
M  V30 1920 N 172.938 -1.57226 0.108567 0
M  V30 1921 C 173.868 -2.17778 -0.84232 0
M  V30 1922 C 174.849 -1.11487 -1.2847 0
M  V30 1923 O 176.034 -1.39681 -1.34918 0
M  V30 1924 C 173.164 -2.76888 -2.09644 0
M  V30 1925 C 172.118 -3.88669 -1.79221 0
M  V30 1926 C 171.444 -4.34541 -3.11574 0
M  V30 1927 C 172.744 -5.11251 -1.06864 0
M  V30 1928 H 174.438 -2.97489 -0.337774 0
M  V30 1929 H 171.984 -1.43097 -0.161025 0
M  V30 1930 H 173.937 -3.17904 -2.76614 0
M  V30 1931 H 172.661 -1.94451 -2.62405 0
M  V30 1932 H 171.32 -3.48213 -1.14644 0
M  V30 1933 H 170.968 -3.48977 -3.62249 0
M  V30 1934 H 170.668 -5.09914 -2.91996 0
M  V30 1935 H 172.192 -4.782 -3.7968 0
M  V30 1936 H 173.606 -5.49352 -1.63968 0
M  V30 1937 H 172.003 -5.9214 -0.974178 0
M  V30 1938 H 173.073 -4.8487 -0.0536168 0
M  V30 1939 N 174.416 0.165178 -1.56732 0
M  V30 1940 C 175.364 1.22369 -1.97809 0
M  V30 1941 C 176.358 1.45488 -0.867741 0
M  V30 1942 O 177.564 1.45995 -1.05288 0
M  V30 1943 H 173.939 0.411486 -0.629431 0
M  V30 1944 H 175.91 0.850425 -2.86025 0
M  V30 1945 C 174.659 2.55403 -2.35934 0
M  V30 1946 H 173.982 2.38438 -3.20916 0
M  V30 1947 H 175.422 3.2814 -2.68514 0
M  V30 1948 C 173.881 3.14611 -1.20506 0
M  V30 1949 O 174.411 3.98626 -0.496016 0
M  V30 1950 N 172.617 2.7379 -0.97403 0
M  V30 1951 H 172.164 2.0557 -1.55238 0
M  V30 1952 H 172.122 3.1374 -0.203573 0
M  V30 1953 N 175.894 1.51508 0.433938 0
M  V30 1954 C 177.119 1.68443 1.21003 0
M  V30 1955 C 177.544 0.382636 1.84167 0
M  V30 1956 O 176.902 -0.65755 1.68956 0
M  V30 1957 C 176.95 2.80405 2.26727 0
M  V30 1958 O 176.054 2.44245 3.32292 0
M  V30 1959 H 175.395 0.561536 0.354363 0
M  V30 1960 H 177.925 1.9809 0.512024 0
M  V30 1961 H 177.935 3.0459 2.71457 0
M  V30 1962 H 176.61 3.74867 1.80132 0
M  V30 1963 H 175.187 2.30644 2.93015 0
M  V30 1964 N 177.372 -0.689602 1.41712 0
M  V30 1965 C 178.32 -1.82475 1.44242 0
M  V30 1966 C 179.314 -1.66354 0.319774 0
M  V30 1967 O 180.52 -1.73143 0.492089 0
M  V30 1968 H 176.895 -0.601416 0.451445 0
M  V30 1969 H 178.866 -1.77458 2.39899 0
M  V30 1970 C 177.615 -3.20535 1.3473 0
M  V30 1971 H 176.938 -3.33559 2.20405 0
M  V30 1972 H 178.378 -4.00023 1.40562 0
M  V30 1973 C 176.837 -3.36846 0.0603281 0
M  V30 1974 O 177.367 -3.91656 -0.892663 0
M  V30 1975 N 175.573 -2.90595 -0.0177039 0
M  V30 1976 H 175.12 -2.46178 0.758572 0
M  V30 1977 H 175.078 -3.01886 -0.878201 0
M  V30 1978 N 178.85 -1.27639 -0.924453 0
M  V30 1979 C 179.783 -1.04966 -2.02626 0
M  V30 1980 C 180.761 0.0309505 -1.62571 0
M  V30 1981 O 181.945 -0.114846 -1.8815 0
M  V30 1982 C 179.072 -0.59292 -3.3347 0
M  V30 1983 C 178.118 -1.66858 -3.92506 0
M  V30 1984 S 178.951 -3.2619 -4.24689 0
M  V30 1985 C 180.107 -2.82325 -5.58609 0
M  V30 1986 H 180.34 -1.98252 -2.21547 0
M  V30 1987 H 177.873 -1.11506 -1.06798 0
M  V30 1988 H 179.831 -0.336086 -4.09122 0
M  V30 1989 H 178.492 0.319939 -3.12466 0
M  V30 1990 H 177.685 -1.30038 -4.86935 0
M  V30 1991 H 177.287 -1.87766 -3.2345 0
M  V30 1992 H 179.579 -2.2783 -6.38044 0
M  V30 1993 H 180.522 -3.75511 -6.00331 0
M  V30 1994 H 180.93 -2.21367 -5.19285 0
M  V30 1995 N 180.328 1.1314 -1.09713 0
M  V30 1996 C 181.574 1.84757 -0.836224 0
M  V30 1997 C 181.907 1.8347 0.636598 0
M  V30 1998 O 181.182 1.27491 1.46889 0
M  V30 1999 C 181.465 3.32782 -1.37578 0
M  V30 2000 C 181.318 3.42567 -2.91493 0
M  V30 2001 C 182.637 4.28307 -1.01198 0
M  V30 2002 H 179.756 0.67082 -0.305236 0
M  V30 2003 H 182.398 1.3278 -1.35903 0
M  V30 2004 H 180.548 3.77177 -0.931097 0
M  V30 2005 H 182.22 3.06862 -3.44432 0
M  V30 2006 H 180.463 2.83349 -3.28475 0
M  V30 2007 H 181.134 4.46674 -3.24324 0
M  V30 2008 H 183.61 3.91999 -1.39556 0
M  V30 2009 H 182.486 5.30307 -1.41653 0
M  V30 2010 H 182.747 4.42029 0.0794833 0
M  V30 2011 N 181.806 0.884767 1.30421 0
M  V30 2012 C 183.054 0.502112 1.95763 0
M  V30 2013 C 183.375 -0.951815 1.70192 0
M  V30 2014 O 182.645 -1.6692 1.0254 0
M  V30 2015 H 181.225 0.182694 0.724315 0
M  V30 2016 H 183.887 1.1278 1.58955 0
M  V30 2017 H 182.983 0.672188 3.04775 0
M  V30 2018 N 183.284 -1.43765 0.645699 0
M  V30 2019 C 184.214 -2.33471 -0.0370477 0
M  V30 2020 C 185.195 -1.49042 -0.819779 0
M  V30 2021 O 186.38 -1.77726 -0.782758 0
M  V30 2022 C 183.51 -3.32311 -1.0093 0
M  V30 2023 C 182.464 -4.2667 -0.337201 0
M  V30 2024 C 181.79 -5.1549 -1.42037 0
M  V30 2025 C 183.09 -5.16657 0.765706 0
M  V30 2026 H 184.784 -2.90809 0.712069 0
M  V30 2027 H 182.33 -1.39834 0.343876 0
M  V30 2028 H 184.283 -3.9396 -1.49578 0
M  V30 2029 H 183.007 -2.73213 -1.78948 0
M  V30 2030 H 181.666 -3.66374 0.128771 0
M  V30 2031 H 181.314 -4.52735 -2.1918 0
M  V30 2032 H 181.014 -5.79438 -0.975966 0
M  V30 2033 H 182.538 -5.80012 -1.90838 0
M  V30 2034 H 183.952 -5.72158 0.361702 0
M  V30 2035 H 182.349 -5.89286 1.13413 0
M  V30 2036 H 183.419 -4.56796 1.62683 0
M  V30 2037 N 184.763 -0.387143 -1.52771 0
M  V30 2038 C 186.012 0.19697 -2.00736 0
M  V30 2039 C 186.325 1.48082 -1.27793 0
M  V30 2040 O 187.531 2.14485 -1.66458 0
M  V30 2041 C 185.987 0.401568 -3.57653 0
M  V30 2042 C 185.595 -0.868907 -4.39493 0
M  V30 2043 C 187.339 0.942164 -4.13912 0
M  V30 2044 C 185.246 -0.632705 -5.88006 0
M  V30 2045 H 184.176 0.0773827 -0.750019 0
M  V30 2046 H 186.827 -0.50921 -1.76293 0
M  V30 2047 H 185.209 1.16954 -3.78335 0
M  V30 2048 H 186.383 -1.64133 -4.30577 0
M  V30 2049 H 184.698 -1.33429 -3.94443 0
M  V30 2050 H 187.295 1.13455 -5.22525 0
M  V30 2051 H 187.638 1.9106 -3.69867 0
M  V30 2052 H 188.171 0.233814 -3.97112 0
M  V30 2053 H 184.91 -1.57208 -6.36369 0
M  V30 2054 H 184.43 0.100825 -5.99715 0
M  V30 2055 H 186.109 -0.26642 -6.46451 0
M  V30 2056 N 186.241 1.57166 -0.116904 0
M  V30 2057 C 187.487 1.96206 0.536166 0
M  V30 2058 C 187.842 0.99915 1.64422 0
M  V30 2059 O 187.135 0.0288195 1.91578 0
M  V30 2060 C 187.329 3.39508 1.11664 0
M  V30 2061 C 187.158 4.49651 0.0663474 0
M  V30 2062 C 185.928 5.03982 -0.36474 0
M  V30 2063 C 188.126 5.09322 -0.713829 0
M  V30 2064 N 186.108 5.97699 -1.40102 0
M  V30 2065 C 187.479 5.98963 -1.60136 0
M  V30 2066 C 189.534 4.91989 -0.764948 0
M  V30 2067 C 188.237 6.73128 -2.53556 0
M  V30 2068 C 190.263 5.66833 -1.68685 0
M  V30 2069 C 189.625 6.56158 -2.56196 0
M  V30 2070 H 185.724 0.764203 0.165886 0
M  V30 2071 H 188.308 1.93623 -0.204535 0
M  V30 2072 H 186.479 3.42743 1.82707 0
M  V30 2073 H 188.211 3.65677 1.73386 0
M  V30 2074 H 184.966 4.73592 0.027252 0
M  V30 2075 H 185.39 6.49262 -1.91802 0
M  V30 2076 H 190.032 4.22676 -0.102501 0
M  V30 2077 H 187.75 7.41689 -3.20816 0
M  V30 2078 H 191.336 5.55427 -1.73181 0
M  V30 2079 H 190.216 7.13057 -3.26372 0
M  V30 2080 N 187.719 -0.156864 1.56817 0
M  V30 2081 C 188.968 -0.869504 1.81996 0
M  V30 2082 C 189.281 -1.82777 0.696545 0
M  V30 2083 O 190.487 -2.58384 0.833658 0
M  V30 2084 C 188.943 -1.59679 3.22538 0
M  V30 2085 C 188.551 -0.681431 4.42787 0
M  V30 2086 C 190.295 -2.2968 3.56997 0
M  V30 2087 C 188.202 -1.40978 5.74351 0
M  V30 2088 H 187.132 -0.328438 0.678708 0
M  V30 2089 H 189.783 -0.1223 1.83092 0
M  V30 2090 H 188.165 -2.38927 3.158 0
M  V30 2091 H 189.339 0.0751166 4.60739 0
M  V30 2092 H 187.654 -0.0903431 4.16302 0
M  V30 2093 H 190.251 -2.84794 4.52544 0
M  V30 2094 H 190.594 -3.05707 2.82576 0
M  V30 2095 H 191.127 -1.57361 3.65352 0
M  V30 2096 H 187.866 -0.691561 6.51842 0
M  V30 2097 H 187.386 -2.13929 5.60352 0
M  V30 2098 H 189.065 -1.95337 6.16808 0
M  V30 2099 N 189.197 -1.51736 -0.425897 0
M  V30 2100 C 190.608 -1.5732 -1.00536 0
M  V30 2101 C 190.959 -0.403537 -1.92005 0
M  V30 2102 O 190.084 0.478256 -2.11049 0
M  V30 2103 C 190.679 -2.85119 -1.8301 0
M  V30 2104 C 189.238 -2.93236 -2.35987 0
M  V30 2105 C 188.385 -2.52098 -1.15508 0
M  V30 2106 H 191.336 -1.57348 -0.206739 0
M  V30 2107 H 191.357 -2.69526 -2.68581 0
M  V30 2108 H 190.869 -3.7023 -1.16411 0
M  V30 2109 H 188.97 -2.12581 -3.06007 0
M  V30 2110 H 189.083 -3.9713 -2.68001 0
M  V30 2111 H 187.447 -2.05558 -1.50393 0
M  V30 2112 H 188.23 -3.39565 -0.505014 0
M  V30 2113 N 190.675 0.682077 -1.42076 0
M  V30 2114 C 191.952 1.43755 -1.32642 0
M  V30 2115 C 192.332 2.11063 0.0396611 0
M  V30 2116 O 191.68 2.02701 1.05474 0
M  V30 2117 C 191.89 2.44596 -2.48946 0
M  V30 2118 C 193.238 3.09454 -2.9073 0
M  V30 2119 O 194.262 2.54922 -2.48783 0
M  V30 2120 O 193.121 4.08253 -3.63307 0
M  V30 2121 H 190.215 0.640857 -0.522715 0
M  V30 2122 H 192.761 0.711415 -1.54068 0
M  V30 2123 H 191.533 1.93609 -3.40046 0
M  V30 2124 H 191.156 3.24701 -2.29467 0
M  V30 2125 N 192.153 1.28127 0.917671 0
M  V30 2126 C 193.381 1.17892 1.70026 0
M  V30 2127 C 193.796 -0.262958 1.8696 0
M  V30 2128 O 193.153 -1.17811 1.3938 0
M  V30 2129 C 193.204 1.86872 3.09453 0
M  V30 2130 O 192.925 3.25428 2.93306 0
M  V30 2131 C 194.426 1.8289 4.03815 0
M  V30 2132 H 191.646 0.40942 0.531617 0
M  V30 2133 H 194.19 1.69181 1.14883 0
M  V30 2134 H 192.345 1.39464 3.61426 0
M  V30 2135 H 192.759 3.59918 3.81523 0
M  V30 2136 H 194.233 2.35751 4.99125 0
M  V30 2137 H 194.71 0.800412 4.31845 0
M  V30 2138 H 195.316 2.29959 3.57769 0
M  V30 2139 N 193.631 -1.12557 1.10312 0
M  V30 2140 C 194.88 -1.83395 0.839588 0
M  V30 2141 C 195.193 -1.84939 -0.636929 0
M  V30 2142 O 196.399 -2.51761 -1.01631 0
M  V30 2143 C 194.855 -3.29303 1.45215 0
M  V30 2144 C 194.463 -3.36122 2.96186 0
M  V30 2145 C 196.207 -4.05121 1.26796 0
M  V30 2146 C 194.114 -4.76357 3.50483 0
M  V30 2147 H 193.044 -0.687133 0.310425 0
M  V30 2148 H 195.695 -1.26746 1.32694 0
M  V30 2149 H 194.077 -3.85812 0.892469 0
M  V30 2150 H 195.251 -2.89559 3.58458 0
M  V30 2151 H 193.566 -2.73776 3.13745 0
M  V30 2152 H 196.163 -5.08668 1.64806 0
M  V30 2153 H 196.506 -4.15773 0.209409 0
M  V30 2154 H 197.039 -3.54967 1.79563 0
M  V30 2155 H 193.778 -4.70899 4.55998 0
M  V30 2156 H 193.298 -5.23377 2.92978 0
M  V30 2157 H 194.977 -5.45294 3.48228 0
M  V30 2158 N 195.109 -0.891671 -1.2995 0
M  V30 2159 C 196.356 -0.513501 -1.95881 0
M  V30 2160 C 196.684 0.938655 -1.70351 0
M  V30 2161 O 195.939 1.67936 -1.00478 0
M  V30 2162 C 196.238 -0.742868 -3.49594 0
M  V30 2163 C 195.904 -2.17114 -3.95186 0
M  V30 2164 C 194.566 -2.56169 -4.07346 0
M  V30 2165 C 196.918 -3.10162 -4.18866 0
M  V30 2166 C 194.246 -3.87469 -4.4055 0
M  V30 2167 C 196.598 -4.41001 -4.53542 0
M  V30 2168 C 195.262 -4.79941 -4.63911 0
M  V30 2169 H 194.532 -0.187903 -0.71678 0
M  V30 2170 H 197.179 -1.1288 -1.54694 0
M  V30 2171 H 195.484 -0.044586 -3.91775 0
M  V30 2172 H 197.181 -0.429767 -3.9869 0
M  V30 2173 H 193.771 -1.85801 -3.86233 0
M  V30 2174 H 197.955 -2.81206 -4.08946 0
M  V30 2175 H 193.211 -4.17371 -4.46779 0
M  V30 2176 H 197.385 -5.13133 -4.70815 0
M  V30 2177 H 195.012 -5.81719 -4.89395 0
M  V30 2178 N 196.587 1.43421 -0.653314 0
M  V30 2179 C 198.003 1.56341 -0.320886 0
M  V30 2180 C 198.203 1.63696 1.17499 0
M  V30 2181 O 197.259 1.59208 1.95982 0
M  V30 2182 C 198.572 2.82424 -1.03233 0
M  V30 2183 C 200.12 2.96168 -1.01259 0
M  V30 2184 C 200.595 4.25084 -1.70492 0
M  V30 2185 N 202.086 4.31948 -1.67257 0
M  V30 2186 C 202.821 5.30466 -2.17701 0
M  V30 2187 N 202.317 6.35261 -2.76434 0
M  V30 2188 N 204.11 5.2212 -2.082 0
M  V30 2189 H 196.261 1.3689 -1.62403 0
M  V30 2190 H 198.524 0.657455 -0.682977 0
M  V30 2191 H 198.23 2.83053 -2.08744 0
M  V30 2192 H 198.104 3.72653 -0.583948 0
M  V30 2193 H 200.491 2.9508 0.0341235 0
M  V30 2194 H 200.572 2.07229 -1.49966 0
M  V30 2195 H 200.216 4.26932 -2.7512 0
M  V30 2196 H 200.146 5.1292 -1.19251 0
M  V30 2197 H 202.637 3.56838 -1.24398 0
M  V30 2198 H 202.95 7.06754 -3.12601 0
M  V30 2199 H 201.295 6.35884 -2.80495 0
M  V30 2200 H 204.486 4.39166 -1.62021 0
M  V30 2201 H 204.659 5.98739 -2.47822 0
M  V30 2202 N 198.065 0.39524 1.52563 0
M  V30 2203 C 199.013 -0.451859 2.28169 0
M  V30 2204 C 200.007 -1.05792 1.32304 0
M  V30 2205 O 201.213 -0.997718 1.49818 0
M  V30 2206 H 197.588 -0.164481 0.733792 0
M  V30 2207 H 199.559 0.207199 2.9768 0
M  V30 2208 C 198.308 -1.56385 3.10546 0
M  V30 2209 H 197.631 -1.10682 3.84174 0
M  V30 2210 H 199.071 -2.13067 3.66577 0
M  V30 2211 C 197.53 -2.52328 2.23231 0
M  V30 2212 O 198.06 -3.5588 1.86312 0
M  V30 2213 N 196.266 -2.22209 1.87274 0
M  V30 2214 H 195.813 -1.38033 2.17496 0
M  V30 2215 H 195.771 -2.86652 1.29143 0
M  V30 2216 N 199.544 -1.57102 0.125237 0
M  V30 2217 C 200.769 -2.0019 -0.542101 0
M  V30 2218 C 201.194 -1.00449 -1.59034 0
M  V30 2219 O 200.552 0.0229423 -1.81285 0
M  V30 2220 C 200.6 -3.42129 -1.13929 0
M  V30 2221 O 199.704 -3.45307 -2.2547 0
M  V30 2222 H 199.045 -0.650171 -0.134812 0
M  V30 2223 H 201.575 -2.03461 0.215553 0
M  V30 2224 H 201.585 -3.80471 -1.4733 0
M  V30 2225 H 200.26 -4.14237 -0.371531 0
M  V30 2226 H 198.837 -3.1879 -1.93462 0
M  V30 2227 N 201.022 0.148545 -1.56898 0
M  V30 2228 C 201.969 1.18345 -1.98149 0
M  V30 2229 C 202.939 1.42772 -0.848848 0
M  V30 2230 O 204.124 1.55132 -1.11079 0
M  V30 2231 C 201.264 2.51231 -2.36594 0
M  V30 2232 C 200.377 2.33991 -3.63142 0
M  V30 2233 C 199.512 3.59902 -3.90697 0
M  V30 2234 C 198.551 3.37692 -5.1052 0
M  V30 2235 N 197.688 4.5573 -5.34092 0
M  V30 2236 H 202.528 0.82467 -2.86362 0
M  V30 2237 H 200.065 0.395756 -1.41676 0
M  V30 2238 H 202.023 3.28713 -2.56912 0
M  V30 2239 H 200.653 2.85059 -1.51463 0
M  V30 2240 H 199.705 1.47572 -3.50609 0
M  V30 2241 H 201.017 2.13539 -4.5078 0
M  V30 2242 H 200.171 4.45813 -4.11505 0
M  V30 2243 H 198.91 3.83357 -3.01477 0
M  V30 2244 H 197.915 2.5017 -4.89587 0
M  V30 2245 H 199.14 3.15637 -6.0129 0
M  V30 2246 H 197.086 4.79361 -4.47827 0
M  V30 2247 H 197.003 4.38274 -6.15996 0
M  V30 2248 H 198.271 5.42858 -5.59397 0
M  V30 2249 N 202.5 1.5196 0.417844 0
M  V30 2250 C 203.728 1.69426 1.18753 0
M  V30 2251 C 204.143 0.399955 1.84515 0
M  V30 2252 O 203.5 -0.623288 1.71527 0
M  V30 2253 C 203.551 2.82375 2.25714 0
M  V30 2254 O 203.272 4.06793 1.62638 0
M  V30 2255 C 204.773 3.11277 3.15628 0
M  V30 2256 H 201.993 0.568031 0.357186 0
M  V30 2257 H 204.537 1.98475 0.49273 0
M  V30 2258 H 202.692 2.5587 2.90877 0
M  V30 2259 H 203.106 4.69667 2.3348 0
M  V30 2260 H 204.58 3.93843 3.86771 0
M  V30 2261 H 205.057 2.24473 3.77503 0
M  V30 2262 H 205.663 3.39515 2.56144 0
M  V30 2263 N 203.978 -0.674533 1.42435 0
M  V30 2264 C 204.941 -1.76986 1.45632 0
M  V30 2265 C 205.941 -1.5708 0.343871 0
M  V30 2266 O 207.131 -1.63367 0.604709 0
M  V30 2267 C 204.263 -3.15623 1.28822 0
M  V30 2268 H 205.456 -1.75539 2.43158 0
M  V30 2269 H 203.009 -0.884189 1.28887 0
M  V30 2270 H 203.744 -3.22696 0.322193 0
M  V30 2271 H 203.529 -3.31475 2.09444 0
M  V30 2272 H 205.019 -3.95537 1.33942 0
M  V30 2273 N 205.456 -1.28612 -0.910864 0
M  V30 2274 C 206.366 -1.14643 -2.0468 0
M  V30 2275 C 207.382 -0.0723121 -1.7385 0
M  V30 2276 O 208.558 -0.282178 -1.99413 0
M  V30 2277 C 205.623 -0.812561 -3.37044 0
M  V30 2278 C 204.684 -1.96935 -3.81465 0
M  V30 2279 C 203.917 -1.65131 -5.07511 0
M  V30 2280 O 204.14 -0.567013 -5.67575 0
M  V30 2281 O 203.074 -2.49585 -5.47714 0
M  V30 2282 H 206.9 -2.1001 -2.19384 0
M  V30 2283 H 204.485 -1.07958 -1.03274 0
M  V30 2284 H 206.367 -0.640441 -4.16505 0
M  V30 2285 H 205.042 0.111426 -3.23508 0
M  V30 2286 H 203.949 -2.19664 -3.02818 0
M  V30 2287 H 205.282 -2.87414 -3.99567 0
M  V30 2288 N 206.934 1.1197 -1.10907 0
M  V30 2289 C 207.897 2.16031 -0.765707 0
M  V30 2290 C 208.897 1.59393 0.212235 0
M  V30 2291 O 210.087 1.74196 -0.0115441 0
M  V30 2292 C 207.219 3.40632 -0.135053 0
M  V30 2293 H 208.412 2.47919 -1.68748 0
M  V30 2294 H 205.965 1.27061 -0.910226 0
M  V30 2295 H 206.7 3.14348 0.797218 0
M  V30 2296 H 206.485 3.8302 -0.838937 0
M  V30 2297 H 207.975 4.17505 0.0892469 0
M  V30 2298 N 208.412 0.89855 1.29475 0
M  V30 2299 C 209.362 0.346767 2.25348 0
M  V30 2300 C 210.346 -0.532509 1.51833 0
M  V30 2301 O 211.538 -0.374714 1.72988 0
M  V30 2302 C 208.667 -0.425681 3.40651 0
M  V30 2303 C 207.753 0.46845 4.21505 0
M  V30 2304 N 208.144 1.57514 4.80648 0
M  V30 2305 C 206.442 0.26603 4.45206 0
M  V30 2306 C 207.143 2.12889 5.41344 0
M  V30 2307 N 206.119 1.42208 5.24669 0
M  V30 2308 H 209.921 1.19219 2.68634 0
M  V30 2309 H 207.435 0.749473 1.44072 0
M  V30 2310 H 209.432 -0.837716 4.08397 0
M  V30 2311 H 208.092 -1.26838 2.98902 0
M  V30 2312 H 209.103 1.95789 4.79465 0
M  V30 2313 H 205.78 -0.538394 4.14014 0
M  V30 2314 H 207.17 3.05901 5.98226 0
M  V30 2315 N 209.89 -1.43072 0.660911 0
M  V30 2316 C 211.136 -2.02545 0.186337 0
M  V30 2317 C 211.491 -1.51253 -1.18913 0
M  V30 2318 O 210.784 -0.699167 -1.78388 0
M  V30 2319 C 210.978 -3.57103 0.145563 0
M  V30 2320 C 210.807 -4.23393 1.51554 0
M  V30 2321 C 209.577 -4.59144 2.10984 0
M  V30 2322 C 211.775 -4.51897 2.45548 0
M  V30 2323 N 209.757 -5.10545 3.40907 0
M  V30 2324 C 211.128 -5.04698 3.6011 0
M  V30 2325 C 213.183 -4.33872 2.44253 0
M  V30 2326 C 211.886 -5.41371 4.73613 0
M  V30 2327 C 213.912 -4.71612 3.56842 0
M  V30 2328 C 213.274 -5.24553 4.70131 0
M  V30 2329 H 209.373 -0.773823 0.112792 0
M  V30 2330 H 211.957 -1.74137 0.870885 0
M  V30 2331 H 210.128 -3.85059 -0.508353 0
M  V30 2332 H 211.86 -4.03264 -0.340598 0
M  V30 2333 H 208.615 -4.4444 1.63615 0
M  V30 2334 H 209.039 -5.40689 4.07411 0
M  V30 2335 H 213.681 -3.92208 1.579 0
M  V30 2336 H 211.399 -5.81975 5.60652 0
M  V30 2337 H 214.985 -4.59354 3.57051 0
M  V30 2338 H 213.865 -5.53213 5.5581 0
M  V30 2339 N 211.368 -0.403325 -1.52352 0
M  V30 2340 C 212.617 0.175668 -2.00934 0
M  V30 2341 C 212.93 1.46718 -1.29356 0
M  V30 2342 O 214.136 2.12708 -1.68724 0
M  V30 2343 C 212.592 0.363612 -3.58058 0
M  V30 2344 C 212.2 -0.915472 -4.38547 0
M  V30 2345 C 213.944 0.89821 -4.14888 0
M  V30 2346 C 211.851 -0.695035 -5.87302 0
M  V30 2347 H 210.781 0.0694234 -0.750797 0
M  V30 2348 H 213.432 -0.527879 -1.75743 0
M  V30 2349 H 211.814 1.12935 -3.79555 0
M  V30 2350 H 212.988 -1.68691 -4.28812 0
M  V30 2351 H 211.303 -1.37606 -3.93006 0
M  V30 2352 H 213.9 1.07907 -5.23699 0
M  V30 2353 H 214.243 1.87126 -3.71873 0
M  V30 2354 H 214.776 0.191681 -3.97338 0
M  V30 2355 H 211.515 -1.63948 -6.34666 0
M  V30 2356 H 211.035 0.0372116 -5.99788 0
M  V30 2357 H 212.714 -0.33497 -6.46132 0
M  V30 2358 N 212.846 1.57033 -0.133567 0
M  V30 2359 C 214.074 2.00044 0.528195 0
M  V30 2360 C 214.489 1.01349 1.59291 0
M  V30 2361 O 213.846 0.00848369 1.82498 0
M  V30 2362 C 213.897 3.43018 1.1411 0
M  V30 2363 O 213.618 4.37939 0.11892 0
M  V30 2364 C 215.119 4.01237 1.88477 0
M  V30 2365 H 212.339 0.656517 0.138661 0
M  V30 2366 H 214.883 2.03267 -0.224196 0
M  V30 2367 H 213.038 3.40688 1.84418 0
M  V30 2368 H 213.452 5.21436 0.56613 0
M  V30 2369 H 214.926 5.03314 2.26669 0
M  V30 2370 H 215.403 3.41193 2.76558 0
M  V30 2371 H 216.009 4.07156 1.22898 0
M  V30 2372 N 214.325 -0.140222 1.56975 0
M  V30 2373 C 215.553 -0.866437 1.87884 0
M  V30 2374 C 215.968 -1.74428 0.722517 0
M  V30 2375 O 215.325 -1.79891 -0.30749 0
M  V30 2376 C 215.376 -1.71753 3.18093 0
M  V30 2377 O 215.097 -0.875056 4.29272 0
M  V30 2378 C 216.598 -2.55074 3.62563 0
M  V30 2379 H 213.818 -0.25019 0.622612 0
M  V30 2380 H 216.362 -0.130977 2.0408 0
M  V30 2381 H 214.517 -2.40598 3.03631 0
M  V30 2382 H 214.931 -1.46002 5.03769 0
M  V30 2383 H 216.405 -3.10356 4.5649 0
M  V30 2384 H 216.882 -3.31434 2.88181 0
M  V30 2385 H 217.488 -1.91509 3.79743 0
M  V30 2386 N 215.803 -1.52179 -0.40978 0
M  V30 2387 C 217.214 -1.58377 -0.988615 0
M  V30 2388 C 217.565 -0.423879 -1.91566 0
M  V30 2389 O 216.69 0.455844 -2.11544 0
M  V30 2390 C 217.285 -2.87044 -1.79976 0
M  V30 2391 C 215.844 -2.95722 -2.32863 0
M  V30 2392 C 214.991 -2.53309 -1.12828 0
M  V30 2393 H 217.942 -1.57558 -0.190039 0
M  V30 2394 H 217.963 -2.7236 -2.65707 0
M  V30 2395 H 217.475 -3.71444 -1.12478 0
M  V30 2396 H 215.576 -2.15814 -3.03735 0
M  V30 2397 H 215.689 -3.99951 -2.63773 0
M  V30 2398 H 214.053 -2.07142 -1.48204 0
M  V30 2399 H 214.836 -3.40082 -0.46897 0
M  V30 2400 N 217.281 0.66697 -1.42791 0
M  V30 2401 C 218.229 1.80157 -1.47127 0
M  V30 2402 C 219.223 1.65825 -0.346199 0
M  V30 2403 O 220.429 1.72338 -0.519572 0
M  V30 2404 H 216.804 0.594158 -0.460956 0
M  V30 2405 H 218.775 1.73619 -2.42692 0
M  V30 2406 C 217.524 3.18351 -1.39813 0
M  V30 2407 H 216.847 3.3001 -2.25684 0
M  V30 2408 H 218.287 3.97736 -1.46908 0
M  V30 2409 C 216.746 3.36707 -0.11391 0
M  V30 2410 O 217.276 3.93027 0.830241 0
M  V30 2411 N 215.482 2.90586 -0.0285295 0
M  V30 2412 H 215.029 2.4494 -0.79764 0
M  V30 2413 H 214.987 3.03245 0.830063 0
M  V30 2414 N 218.759 1.29093 0.90403 0
M  V30 2415 C 219.691 1.09658 2.01266 0
M  V30 2416 C 220.704 0.0453729 1.62737 0
M  V30 2417 O 221.893 0.289446 1.76138 0
M  V30 2418 C 218.993 0.646278 3.32681 0
M  V30 2419 C 218.166 1.77505 3.99763 0
M  V30 2420 C 217.225 1.31649 5.09465 0
M  V30 2421 O 216.251 2.02045 5.32134 0
M  V30 2422 N 217.453 0.184997 5.80205 0
M  V30 2423 H 220.218 2.05135 2.18494 0
M  V30 2424 H 217.779 1.20975 1.07594 0
M  V30 2425 H 219.771 0.322906 4.0341 0
M  V30 2426 H 218.341 -0.215916 3.11853 0
M  V30 2427 H 217.561 2.26752 3.22455 0
M  V30 2428 H 218.849 2.53198 4.41325 0
M  V30 2429 H 218.247 -0.402021 5.6427 0
M  V30 2430 H 216.804 -0.0790358 6.51752 0
M  V30 2431 N 220.237 -1.11381 1.11499 0
M  V30 2432 C 221.167 -2.19509 0.796125 0
M  V30 2433 C 222.148 -1.68458 -0.235796 0
M  V30 2434 O 223.333 -1.93947 -0.0991344 0
M  V30 2435 C 220.463 -3.46475 0.239205 0
M  V30 2436 C 219.417 -4.10744 1.20307 0
M  V30 2437 C 218.743 -5.32293 0.50683 0
M  V30 2438 C 220.043 -4.55597 2.55399 0
M  V30 2439 H 221.737 -2.46439 1.70024 0
M  V30 2440 H 219.283 -1.18446 0.818935 0
M  V30 2441 H 221.236 -4.214 0.00392006 0
M  V30 2442 H 219.96 -3.19006 -0.700206 0
M  V30 2443 H 218.619 -3.37813 1.42399 0
M  V30 2444 H 218.267 -5.01095 -0.437408 0
M  V30 2445 H 217.967 -5.76243 1.1497 0
M  V30 2446 H 219.491 -6.09956 0.280351 0
M  V30 2447 H 220.905 -5.21841 2.37391 0
M  V30 2448 H 219.302 -5.10363 3.15673 0
M  V30 2449 H 220.372 -3.69013 3.14575 0
M  V30 2450 N 221.715 -0.905404 -1.28997 0
M  V30 2451 C 222.645 -0.404212 -2.29975 0
M  V30 2452 C 223.626 0.523784 -1.61835 0
M  V30 2453 O 224.811 0.433298 -1.89304 0
M  V30 2454 C 221.941 0.364042 -3.45387 0
M  V30 2455 C 220.895 -0.474048 -4.25367 0
M  V30 2456 C 220.221 0.422045 -5.33032 0
M  V30 2457 C 221.521 -1.72696 -4.92923 0
M  V30 2458 H 223.215 -1.24807 -2.72146 0
M  V30 2459 H 220.761 -0.601585 -1.30832 0
M  V30 2460 H 222.714 0.725447 -4.15109 0
M  V30 2461 H 221.438 1.24174 -3.02074 0
M  V30 2462 H 220.097 -0.81786 -3.57361 0
M  V30 2463 H 219.745 1.29804 -4.85963 0
M  V30 2464 H 219.445 -0.135057 -5.87445 0
M  V30 2465 H 220.969 0.779517 -6.05604 0
M  V30 2466 H 222.383 -1.43495 -5.55051 0
M  V30 2467 H 220.78 -2.22582 -5.57295 0
M  V30 2468 H 221.85 -2.45964 -4.17887 0
M  V30 2469 N 223.193 1.4272 -0.668489 0
M  V30 2470 C 224.609 1.55992 -0.33745 0
M  V30 2471 C 224.809 1.64933 1.15756 0
M  V30 2472 O 223.865 1.61278 1.94282 0
M  V30 2473 C 225.178 2.81314 -1.06222 0
M  V30 2474 C 226.726 2.95078 -1.04394 0
M  V30 2475 C 227.201 4.23252 -1.74991 0
M  V30 2476 N 228.692 4.3015 -1.71829 0
M  V30 2477 C 229.427 5.28127 -2.23315 0
M  V30 2478 N 228.923 6.32293 -2.83156 0
M  V30 2479 N 230.716 5.19882 -2.13726 0
M  V30 2480 H 222.867 1.3516 -1.63846 0
M  V30 2481 H 225.13 0.650174 -0.689912 0
M  V30 2482 H 224.836 2.80823 -2.11734 0
M  V30 2483 H 224.71 3.72012 -0.62344 0
M  V30 2484 H 227.097 2.951 0.0028244 0
M  V30 2485 H 227.178 2.05627 -1.52155 0
M  V30 2486 H 226.822 4.2399 -2.79633 0
M  V30 2487 H 226.752 5.11626 -1.24685 0
M  V30 2488 H 229.243 3.55499 -1.28175 0
M  V30 2489 H 229.556 7.03398 -3.20079 0
M  V30 2490 H 227.901 6.32873 -2.87223 0
M  V30 2491 H 231.092 4.37423 -1.66669 0
M  V30 2492 H 231.265 5.96077 -2.54158 0
M  V30 2493 N 224.671 0.411399 1.52136 0
M  V30 2494 C 225.92 -0.165009 2.01024 0
M  V30 2495 C 226.233 -1.4603 1.30133 0
M  V30 2496 O 227.439 -2.1181 1.69849 0
M  V30 2497 C 225.895 -0.344618 3.58246 0
M  V30 2498 C 225.503 0.938716 4.38055 0
M  V30 2499 C 227.247 -0.876195 4.15359 0
M  V30 2500 C 225.154 0.726172 5.86925 0
M  V30 2501 H 224.084 -0.0654407 0.751155 0
M  V30 2502 H 226.735 0.537192 1.75461 0
M  V30 2503 H 225.117 -1.10921 3.80148 0
M  V30 2504 H 226.291 1.70963 4.27912 0
M  V30 2505 H 224.606 1.39688 3.92271 0
M  V30 2506 H 227.203 -1.05128 5.24263 0
M  V30 2507 H 227.546 -1.85152 3.7286 0
M  V30 2508 H 228.079 -0.170607 3.97434 0
M  V30 2509 H 224.818 1.67312 6.33788 0
M  V30 2510 H 224.338 -0.00540283 5.998 0
M  V30 2511 H 226.017 0.369231 6.45946 0
M  V30 2512 N 226.149 -1.5696 0.141893 0
M  V30 2513 C 227.395 -1.97034 -0.504884 0
M  V30 2514 C 227.75 -1.02518 -1.62812 0
M  V30 2515 O 227.043 -0.0592943 -1.91508 0
M  V30 2516 C 227.237 -3.41242 -1.06249 0
M  V30 2517 C 227.066 -4.497 0.00519653 0
M  V30 2518 C 225.836 -5.03338 0.444873 0
M  V30 2519 C 228.034 -5.08122 0.794767 0
M  V30 2520 N 226.016 -5.95395 1.49593 0
M  V30 2521 C 227.387 -5.96339 1.69645 0
M  V30 2522 C 229.442 -4.9071 0.843122 0
M  V30 2523 C 228.145 -6.69009 2.64233 0
M  V30 2524 C 230.171 -5.64077 1.77681 0
M  V30 2525 C 229.533 -6.51999 2.66603 0
M  V30 2526 H 225.632 -0.766745 -0.153707 0
M  V30 2527 H 228.216 -1.93273 0.235313 0
M  V30 2528 H 226.387 -3.45606 -1.77231 0
M  V30 2529 H 228.119 -3.68389 -1.67546 0
M  V30 2530 H 224.874 -4.73576 0.0480959 0
M  V30 2531 H 225.298 -6.46128 2.02107 0
M  V30 2532 H 229.94 -4.22459 0.169732 0
M  V30 2533 H 227.658 -7.36492 3.32575 0
M  V30 2534 H 231.244 -5.52602 1.81996 0
M  V30 2535 H 230.124 -7.07775 3.37675 0
M  V30 2536 N 227.627 0.131896 -1.57047 0
M  V30 2537 C 228.575 1.18146 -2.0036 0
M  V30 2538 C 229.569 1.43614 -0.898406 0
M  V30 2539 O 230.775 1.43729 -1.08361 0
M  V30 2540 H 227.15 0.398042 -0.638018 0
M  V30 2541 H 229.121 0.789564 -2.87765 0
M  V30 2542 C 227.87 2.50341 -2.41298 0
M  V30 2543 H 227.193 2.31578 -3.25902 0
M  V30 2544 H 228.633 3.22371 -2.75414 0
M  V30 2545 C 227.092 3.11984 -1.27153 0
M  V30 2546 O 227.622 3.97484 -0.580459 0
M  V30 2547 N 225.828 2.71662 -1.03189 0
M  V30 2548 H 225.375 2.02231 -1.59564 0
M  V30 2549 H 225.333 3.13238 -0.270077 0
M  V30 2550 N 229.106 1.52395 0.401703 0
M  V30 2551 C 230.383 1.57387 1.16141 0
M  V30 2552 C 230.763 0.359359 2.08019 0
M  V30 2553 O 230.111 -0.65326 2.18963 0
M  V30 2554 C 230.321 2.90631 1.93221 0
M  V30 2555 C 231.669 3.43904 2.49028 0
M  V30 2556 O 232.693 2.92421 2.03393 0
M  V30 2557 O 231.552 4.33823 3.32356 0
M  V30 2558 H 228.646 0.634262 0.530698 0
M  V30 2559 H 231.192 1.64725 0.407883 0
M  V30 2560 H 229.964 3.70473 1.25958 0
M  V30 2561 H 229.587 2.8662 2.75563 0
M  V30 2562 N 230.584 -0.659388 1.43143 0
M  V30 2563 C 231.832 -1.41654 1.44147 0
M  V30 2564 C 232.153 -1.94893 0.0645739 0
M  V30 2565 O 231.423 -1.74044 -0.899198 0
M  V30 2566 H 230.003 -0.525708 0.530697 0
M  V30 2567 H 232.665 -0.778097 1.78694 0
M  V30 2568 H 231.761 -2.26195 2.1504 0
M  V30 2569 N 232.062 -1.29571 -0.897171 0
M  V30 2570 C 233.009 -1.14916 -2.00158 0
M  V30 2571 C 233.979 -0.0418149 -1.66047 0
M  V30 2572 O 235.164 -0.209793 -1.89643 0
M  V30 2573 C 232.304 -0.834307 -3.34863 0
M  V30 2574 C 231.417 -2.02234 -3.8174 0
M  V30 2575 C 230.552 -1.64664 -5.05034 0
M  V30 2576 C 229.591 -2.80033 -5.44286 0
M  V30 2577 N 228.728 -2.42843 -6.58765 0
M  V30 2578 H 233.568 -2.09403 -2.12025 0
M  V30 2579 H 231.105 -1.042 -1.0383 0
M  V30 2580 H 233.063 -0.632436 -4.12379 0
M  V30 2581 H 231.693 0.0736656 -3.22716 0
M  V30 2582 H 230.745 -2.33583 -3.00238 0
M  V30 2583 H 232.057 -2.88673 -4.06779 0
M  V30 2584 H 231.211 -1.4078 -5.9014 0
M  V30 2585 H 229.95 -0.753766 -4.8184 0
M  V30 2586 H 228.955 -3.04596 -4.57713 0
M  V30 2587 H 230.18 -3.69989 -5.6946 0
M  V30 2588 H 228.126 -1.56046 -6.3717 0
M  V30 2589 H 228.043 -3.22815 -6.83613 0
M  V30 2590 H 229.311 -2.22285 -7.47134 0
M  V30 2591 N 233.54 1.10788 -1.12088 0
M  V30 2592 C 234.789 1.82036 -0.868659 0
M  V30 2593 C 235.102 1.85929 0.607426 0
M  V30 2594 O 236.308 2.53346 0.97613 0
M  V30 2595 C 234.764 3.26951 -1.50435 0
M  V30 2596 C 234.372 3.31367 -3.01496 0
M  V30 2597 C 236.116 4.03053 -1.33225 0
M  V30 2598 C 234.023 4.7072 -3.58017 0
M  V30 2599 H 232.953 0.682108 -0.321318 0
M  V30 2600 H 235.604 1.24618 -1.34694 0
M  V30 2601 H 233.986 3.84343 -0.953735 0
M  V30 2602 H 235.16 2.83819 -3.6302 0
M  V30 2603 H 233.475 2.6875 -3.18061 0
M  V30 2604 H 236.072 5.05981 -1.72878 0
M  V30 2605 H 236.415 4.15387 -0.275529 0
M  V30 2606 H 236.948 3.52066 -1.85188 0
M  V30 2607 H 233.687 4.63585 -4.63432 0
M  V30 2608 H 233.207 5.1865 -3.01268 0
M  V30 2609 H 234.886 5.39685 -3.56859 0
M  V30 2610 N 235.018 0.912232 1.28515 0
M  V30 2611 C 235.948 0.416403 2.29757 0
M  V30 2612 C 236.929 -0.515194 1.6211 0
M  V30 2613 O 238.114 -0.423253 1.89532 0
M  V30 2614 C 235.244 -0.34572 3.45575 0
M  V30 2615 C 234.198 0.496599 4.25109 0
M  V30 2616 C 233.524 -0.393771 5.33248 0
M  V30 2617 C 234.824 1.75307 4.92001 0
M  V30 2618 H 236.518 1.26249 2.7148 0
M  V30 2619 H 234.064 0.608515 1.30511 0
M  V30 2620 H 236.017 -0.703422 4.15488 0
M  V30 2621 H 234.741 -1.2257 3.02728 0
M  V30 2622 H 233.4 0.8368 3.56922 0
M  V30 2623 H 233.048 -1.27225 4.86644 0
M  V30 2624 H 232.748 0.166209 5.87365 0
M  V30 2625 H 234.272 -0.747389 6.06009 0
M  V30 2626 H 235.686 1.46437 5.54283 0
M  V30 2627 H 234.083 2.25534 5.56106 0
M  V30 2628 H 235.153 2.48176 4.16577 0
M  V30 2629 N 236.496 -1.42363 0.676048 0
M  V30 2630 C 237.726 -2.05561 0.206967 0
M  V30 2631 C 238.134 -1.50887 -1.14148 0
M  V30 2632 O 237.477 -0.643933 -1.72044 0
M  V30 2633 C 237.539 -3.5944 0.0659508 0
M  V30 2634 C 237.203 -4.36812 1.34331 0
M  V30 2635 C 238.2 -4.67383 2.27704 0
M  V30 2636 C 235.885 -4.76429 1.59125 0
M  V30 2637 C 237.879 -5.36509 3.44147 0
M  V30 2638 C 235.566 -5.45294 2.75857 0
M  V30 2639 C 236.564 -5.75259 3.68193 0
M  V30 2640 O 236.252 -6.42712 4.82883 0
M  V30 2641 H 235.984 -0.668872 0.0979084 0
M  V30 2642 H 238.538 -1.83467 0.923531 0
M  V30 2643 H 236.768 -3.80197 -0.706204 0
M  V30 2644 H 238.457 -4.0427 -0.363418 0
M  V30 2645 H 239.223 -4.37275 2.09799 0
M  V30 2646 H 235.102 -4.52498 0.881258 0
M  V30 2647 H 238.646 -5.59814 4.16238 0
M  V30 2648 H 234.543 -5.7482 2.93688 0
M  V30 2649 H 235.311 -6.61204 4.82444 0
M  V30 2650 N 237.974 -0.419461 -1.51915 0
M  V30 2651 C 239.202 0.152136 -2.0634 0
M  V30 2652 C 239.617 1.37988 -1.28859 0
M  V30 2653 O 238.974 1.79243 -0.343232 0
M  V30 2654 C 239.025 0.492266 -3.58133 0
M  V30 2655 O 238.746 -0.686736 -4.32684 0
M  V30 2656 C 240.247 1.11648 -4.2901 0
M  V30 2657 H 237.467 0.0158325 -0.670813 0
M  V30 2658 H 240.011 -0.593394 -1.95702 0
M  V30 2659 H 238.166 1.18769 -3.68745 0
M  V30 2660 H 238.58 -0.400341 -5.2297 0
M  V30 2661 H 240.054 1.3046 -5.36362 0
M  V30 2662 H 240.531 2.09251 -3.86148 0
M  V30 2663 H 241.137 0.460958 -4.22795 0
M  V30 2664 N 239.452 1.56882 -0.150215 0
M  V30 2665 C 240.382 2.19935 0.784284 0
M  V30 2666 C 241.363 1.14854 1.25469 0
M  V30 2667 O 242.548 1.43209 1.31168 0
M  V30 2668 C 239.678 2.82349 2.02229 0
M  V30 2669 C 238.632 3.93285 1.68853 0
M  V30 2670 C 237.958 4.42649 2.99944 0
M  V30 2671 C 239.258 5.13904 0.932714 0
M  V30 2672 H 240.952 2.9828 0.258781 0
M  V30 2673 H 238.498 1.43473 0.123029 0
M  V30 2674 H 240.451 3.25126 2.68088 0
M  V30 2675 H 239.175 2.0134 2.57157 0
M  V30 2676 H 237.834 3.5113 1.05371 0
M  V30 2677 H 237.482 3.58458 3.52869 0
M  V30 2678 H 237.182 5.17476 2.78374 0
M  V30 2679 H 238.706 4.88099 3.66868 0
M  V30 2680 H 240.12 5.53506 1.49345 0
M  V30 2681 H 238.517 5.94515 0.81684 0
M  V30 2682 H 239.587 4.84842 -0.0749568 0
M  V30 2683 N 240.93 -0.123565 1.57115 0
M  V30 2684 C 242.346 -0.476961 1.52306 0
M  V30 2685 C 242.546 -1.82109 0.86248 0
M  V30 2686 O 241.602 -2.48586 0.442884 0
M  V30 2687 C 242.915 -0.465661 2.97073 0
M  V30 2688 C 244.463 -0.549534 3.08138 0
M  V30 2689 C 244.938 -0.568669 4.54456 0
M  V30 2690 N 246.429 -0.630237 4.58892 0
M  V30 2691 C 247.164 -0.666415 5.69514 0
M  V30 2692 N 246.66 -0.660514 6.89644 0
M  V30 2693 N 248.453 -0.709077 5.5761 0
M  V30 2694 H 240.604 0.757198 1.98445 0
M  V30 2695 H 242.867 0.278808 0.906074 0
M  V30 2696 H 242.573 0.454232 3.48754 0
M  V30 2697 H 242.447 -1.29513 3.54269 0
M  V30 2698 H 244.834 -1.45985 2.56461 0
M  V30 2699 H 244.915 0.307532 2.53945 0
M  V30 2700 H 244.559 0.337581 5.06777 0
M  V30 2701 H 244.489 -1.44256 5.06456 0
M  V30 2702 H 246.98 -0.641146 3.72421 0
M  V30 2703 H 247.293 -0.690616 7.69708 0
M  V30 2704 H 245.638 -0.628012 6.92157 0
M  V30 2705 H 248.829 -0.711019 4.62668 0
M  V30 2706 H 249.002 -0.733804 6.43832 0
M  V30 2707 N 242.408 -1.52605 -0.393616 0
M  V30 2708 C 243.338 -1.80022 -1.48709 0
M  V30 2709 C 244.319 -0.651995 -1.57108 0
M  V30 2710 O 245.504 -0.89913 -1.72132 0
M  V30 2711 C 242.634 -1.96492 -2.86371 0
M  V30 2712 C 241.588 -3.12161 -2.92813 0
M  V30 2713 C 240.914 -3.13877 -4.3288 0
M  V30 2714 C 242.214 -4.51322 -2.6288 0
M  V30 2715 H 243.908 -2.71589 -1.26015 0
M  V30 2716 H 241.454 -1.30684 -0.604778 0
M  V30 2717 H 243.407 -2.14255 -3.62867 0
M  V30 2718 H 242.131 -1.01611 -3.10391 0
M  V30 2719 H 240.79 -2.94173 -2.18764 0
M  V30 2720 H 240.438 -2.16687 -4.53933 0
M  V30 2721 H 240.138 -3.91576 -4.38112 0
M  V30 2722 H 241.662 -3.33789 -5.1129 0
M  V30 2723 H 243.076 -4.69435 -3.29096 0
M  V30 2724 H 241.473 -5.31053 -2.79468 0
M  V30 2725 H 242.543 -4.58353 -1.58242 0
M  V30 2726 N 243.887 0.651787 -1.4349 0
M  V30 2727 C 245.115 1.43937 -1.48626 0
M  V30 2728 C 245.53 1.8851 -0.104587 0
M  V30 2729 O 244.887 1.5958 0.885464 0
M  V30 2730 C 244.938 2.6734 -2.43334 0
M  V30 2731 O 244.659 2.24631 -3.76128 0
M  V30 2732 C 246.16 3.60683 -2.57726 0
M  V30 2733 H 243.38 0.44213 -0.504739 0
M  V30 2734 H 245.924 0.798944 -1.88248 0
M  V30 2735 H 244.079 3.2752 -2.06904 0
M  V30 2736 H 244.493 3.04485 -4.2707 0
M  V30 2737 H 245.967 4.43933 -3.28067 0
M  V30 2738 H 246.444 4.08126 -1.62265 0
M  V30 2739 H 247.05 3.06384 -2.94973 0
M  V30 2740 N 245.365 1.30045 0.890287 0
M  V30 2741 C 246.614 1.17929 1.63633 0
M  V30 2742 C 246.927 -0.266204 1.9378 0
M  V30 2743 O 248.133 -0.508804 2.6669 0
M  V30 2744 C 246.589 2.06317 2.94892 0
M  V30 2745 C 246.197 3.55745 2.72305 0
M  V30 2746 C 247.941 2.0295 3.72843 0
M  V30 2747 C 245.848 4.36205 3.99348 0
M  V30 2748 H 244.778 0.437782 0.613892 0
M  V30 2749 H 247.429 1.54754 0.986075 0
M  V30 2750 H 245.811 1.6237 3.61182 0
M  V30 2751 H 246.985 4.07805 2.1455 0
M  V30 2752 H 245.3 3.6088 2.07737 0
M  V30 2753 H 247.897 2.60319 4.67053 0
M  V30 2754 H 248.24 1.0117 4.0382 0
M  V30 2755 H 248.773 2.4499 3.13408 0
M  V30 2756 H 245.512 5.38659 3.73533 0
M  V30 2757 H 245.032 3.8891 4.56628 0
M  V30 2758 H 246.711 4.47362 4.67415 0
M  V30 2759 N 246.843 -1.10192 1.12674 0
M  V30 2760 C 247.791 -2.18694 0.792196 0
M  V30 2761 C 248.785 -1.67938 -0.222058 0
M  V30 2762 O 249.991 -1.79822 -0.0800074 0
M  V30 2763 H 246.366 -0.713223 0.238364 0
M  V30 2764 H 248.337 -2.44149 1.71564 0
M  V30 2765 C 247.086 -3.46682 0.265859 0
M  V30 2766 H 246.409 -3.86101 1.03761 0
M  V30 2767 H 247.849 -4.23942 0.0701128 0
M  V30 2768 C 246.308 -3.21506 -1.00675 0
M  V30 2769 O 246.838 -3.43408 -2.08408 0
M  V30 2770 N 245.044 -2.75158 -0.934692 0
M  V30 2771 H 244.591 -2.57535 -0.0578604 0
M  V30 2772 H 244.549 -2.58691 -1.7868 0
M  V30 2773 N 248.321 -0.919034 -1.28029 0
M  V30 2774 C 249.284 -0.416182 -2.2539 0
M  V30 2775 C 250.284 0.460438 -1.54067 0
M  V30 2776 O 251.474 0.262744 -1.72207 0
M  V30 2777 C 248.606 0.402707 -3.38513 0
M  V30 2778 H 249.799 -1.27629 -2.71387 0
M  V30 2779 H 247.352 -0.698919 -1.39803 0
M  V30 2780 H 248.087 1.282 -2.97885 0
M  V30 2781 H 247.872 -0.225698 -3.9145 0
M  V30 2782 H 249.362 0.745191 -4.10897 0
M  V30 2783 N 249.799 1.42003 -0.683588 0
M  V30 2784 C 250.709 2.34597 -0.0109075 0
M  V30 2785 C 251.725 1.55576 0.779245 0
M  V30 2786 O 252.901 1.88107 0.719555 0
M  V30 2787 C 249.966 3.34199 0.922588 0
M  V30 2788 C 249.027 4.29115 0.125984 0
M  V30 2789 C 248.26 5.23959 1.01502 0
M  V30 2790 O 248.483 5.23952 2.25456 0
M  V30 2791 O 247.417 6.00053 0.47111 0
M  V30 2792 H 251.243 2.93675 -0.773853 0
M  V30 2793 H 248.828 1.42654 -0.443861 0
M  V30 2794 H 250.71 3.95365 1.45823 0
M  V30 2795 H 249.385 2.77582 1.66523 0
M  V30 2796 H 248.292 3.71335 -0.453969 0
M  V30 2797 H 249.625 4.88798 -0.577736 0
M  V30 2798 N 251.277 0.427512 1.51691 0
M  V30 2799 C 252.517 -0.141524 2.03909 0
M  V30 2800 C 252.881 -1.40811 1.30523 0
M  V30 2801 O 254.082 -2.05676 1.73063 0
M  V30 2802 C 252.353 -0.364962 3.55532 0
M  V30 2803 S 253.912 -0.898812 4.29496 0
M  V30 2804 H 250.73 -0.0364542 0.710065 0
M  V30 2805 H 253.332 0.584659 1.86553 0
M  V30 2806 H 252.036 0.56336 4.06515 0
M  V30 2807 H 251.567 -1.1185 3.77164 0
M  V30 2808 H 253.582 -2.17747 4.45871 0
M  V30 2809 N 252.755 -1.56801 0.158532 0
M  V30 2810 C 253.687 -2.14488 -0.807923 0
M  V30 2811 C 254.7 -1.09721 -1.20271 0
M  V30 2812 O 255.889 -1.36956 -1.14478 0
M  V30 2813 C 252.989 -2.66217 -2.09718 0
M  V30 2814 C 252.162 -3.95507 -1.86796 0
M  V30 2815 C 251.221 -4.3243 -2.99818 0
M  V30 2816 O 250.247 -5.00543 -2.71008 0
M  V30 2817 N 251.449 -3.92947 -4.27285 0
M  V30 2818 H 254.214 -2.98042 -0.314816 0
M  V30 2819 H 251.775 -1.61881 -0.0246692 0
M  V30 2820 H 253.767 -2.87924 -2.84398 0
M  V30 2821 H 252.337 -1.87324 -2.50257 0
M  V30 2822 H 251.557 -3.82309 -0.96089 0
M  V30 2823 H 252.845 -4.79972 -1.68833 0
M  V30 2824 H 252.243 -3.38087 -4.53557 0
M  V30 2825 H 250.8 -4.19681 -4.9871 0
M  V30 2826 N 254.233 0.115231 -1.57178 0
M  V30 2827 C 255.163 1.1423 -2.03651 0
M  V30 2828 C 256.144 1.42967 -0.921655 0
M  V30 2829 O 257.329 1.53343 -1.19162 0
M  V30 2830 C 254.459 2.4675 -2.44401 0
M  V30 2831 C 253.413 2.32467 -3.59365 0
M  V30 2832 C 252.739 3.69984 -3.86026 0
M  V30 2833 C 254.039 1.78203 -4.90959 0
M  V30 2834 H 255.733 0.755749 -2.89705 0
M  V30 2835 H 253.279 0.362093 -1.39373 0
M  V30 2836 H 255.232 3.18854 -2.75517 0
M  V30 2837 H 253.956 2.87302 -1.55322 0
M  V30 2838 H 252.615 1.62811 -3.28463 0
M  V30 2839 H 252.263 4.08028 -2.94147 0
M  V30 2840 H 251.963 3.61279 -4.63412 0
M  V30 2841 H 253.487 4.43587 -4.19599 0
M  V30 2842 H 254.901 2.40128 -5.20587 0
M  V30 2843 H 253.298 1.8031 -5.72371 0
M  V30 2844 H 254.368 0.739876 -4.79222 0
M  V30 2845 N 255.711 1.52812 0.385517 0
M  V30 2846 C 256.643 1.74096 1.49074 0
M  V30 2847 C 257.656 0.621462 1.50472 0
M  V30 2848 O 258.845 0.897245 1.54311 0
M  V30 2849 C 255.945 1.78774 2.87911 0
M  V30 2850 C 255.118 3.08134 3.10439 0
M  V30 2851 C 254.177 3.04313 4.29278 0
M  V30 2852 O 253.203 3.78168 4.25415 0
M  V30 2853 N 254.405 2.23741 5.35649 0
M  V30 2854 H 257.17 2.69455 1.31202 0
M  V30 2855 H 254.731 1.51343 0.575065 0
M  V30 2856 H 256.723 1.73721 3.65518 0
M  V30 2857 H 255.293 0.907869 2.99126 0
M  V30 2858 H 254.513 3.26649 2.20667 0
M  V30 2859 H 255.801 3.93662 3.22347 0
M  V30 2860 H 255.199 1.63211 5.41645 0
M  V30 2861 H 253.756 2.24524 6.11909 0
M  V30 2862 N 257.189 -0.644168 1.43834 0
M  V30 2863 C 258.119 -1.76814 1.52509 0
M  V30 2864 C 259.1 -1.65823 0.379052 0
M  V30 2865 O 260.285 -1.84781 0.597466 0
M  V30 2866 C 257.415 -3.15288 1.4564 0
M  V30 2867 C 256.369 -3.41053 2.58586 0
M  V30 2868 C 255.695 -4.79421 2.36769 0
M  V30 2869 C 256.995 -3.34902 4.00797 0
M  V30 2870 H 258.689 -1.69812 2.46586 0
M  V30 2871 H 256.235 -0.815542 1.1868 0
M  V30 2872 H 258.188 -3.93681 1.50311 0
M  V30 2873 H 256.912 -3.23043 0.480725 0
M  V30 2874 H 255.571 -2.65035 2.53282 0
M  V30 2875 H 255.219 -4.83863 1.37424 0
M  V30 2876 H 254.919 -4.9762 3.12487 0
M  V30 2877 H 256.443 -5.6006 2.43238 0
M  V30 2878 H 257.857 -4.03218 4.07539 0
M  V30 2879 H 256.254 -3.64637 4.76613 0
M  V30 2880 H 257.324 -2.32928 4.25291 0
M  V30 2881 N 258.668 -1.30515 -0.883378 0
M  V30 2882 C 259.618 -1.13641 -1.9766 0
M  V30 2883 C 260.602 -0.0511314 -1.60819 0
M  V30 2884 O 261.794 -0.274623 -1.74857 0
M  V30 2885 C 258.923 -0.831976 -3.33066 0
M  V30 2886 C 258.009 -1.95759 -3.76217 0
M  V30 2887 N 258.4 -3.20313 -3.9145 0
M  V30 2888 C 256.698 -1.85431 -4.05625 0
M  V30 2889 C 257.399 -3.93856 -4.2808 0
M  V30 2890 N 256.375 -3.21919 -4.38029 0
M  V30 2891 H 260.177 -2.08106 -2.07531 0
M  V30 2892 H 257.691 -1.21877 -1.0733 0
M  V30 2893 H 259.688 -0.692102 -4.11115 0
M  V30 2894 H 258.348 0.104588 -3.24532 0
M  V30 2895 H 259.359 -3.55583 -3.76538 0
M  V30 2896 H 256.036 -0.991531 -4.05555 0
M  V30 2897 H 257.426 -5.01125 -4.47575 0
M  V30 2898 N 260.146 1.09593 -1.13257 0
M  V30 2899 C 261.094 2.18271 -0.803783 0
M  V30 2900 C 262.088 1.68054 0.213148 0
M  V30 2901 O 263.294 1.79862 0.0704699 0
M  V30 2902 H 259.669 0.711949 -0.242143 0
M  V30 2903 H 261.64 2.43235 -1.72856 0
M  V30 2904 C 260.389 3.46536 -0.28424 0
M  V30 2905 H 259.712 3.85545 -1.05807 0
M  V30 2906 H 261.152 4.23899 -0.0925945 0
M  V30 2907 C 259.611 3.22036 0.989684 0
M  V30 2908 O 260.141 3.44509 2.06584 0
M  V30 2909 N 258.347 2.7565 0.920086 0
M  V30 2910 H 257.894 2.57562 0.0442019 0
M  V30 2911 H 257.852 2.59635 1.77306 0
M  V30 2912 N 261.624 0.925811 1.2754 0
M  V30 2913 C 262.871 0.565255 1.94451 0
M  V30 2914 C 263.199 -0.89316 1.7278 0
M  V30 2915 O 262.454 -1.65213 1.04895 0
M  V30 2916 C 262.753 0.835296 3.47502 0
M  V30 2917 C 262.419 2.27515 3.89291 0
M  V30 2918 C 261.081 2.66879 4.00411 0
M  V30 2919 C 263.433 3.21158 4.10496 0
M  V30 2920 C 260.761 3.99014 4.30122 0
M  V30 2921 C 263.113 4.52871 4.4169 0
M  V30 2922 C 261.777 4.92072 4.51023 0
M  V30 2923 H 261.047 0.206841 0.711546 0
M  V30 2924 H 263.694 1.16942 1.51647 0
M  V30 2925 H 261.999 0.148442 3.91519 0
M  V30 2926 H 263.696 0.535322 3.97411 0
M  V30 2927 H 260.286 1.95976 3.81171 0
M  V30 2928 H 264.47 2.9195 4.01346 0
M  V30 2929 H 259.726 4.2907 4.35556 0
M  V30 2930 H 263.9 5.25436 4.57045 0
M  V30 2931 H 261.527 5.9449 4.738 0
M  V30 2932 N 263.102 -1.41638 0.69111 0
M  V30 2933 C 264.513 -1.84346 0.295517 0
M  V30 2934 C 264.864 -1.57833 -1.16547 0
M  V30 2935 O 263.989 -1.04648 -1.89414 0
M  V30 2936 C 264.584 -3.34636 0.529575 0
M  V30 2937 C 263.143 -3.7593 0.187944 0
M  V30 2938 C 262.29 -2.65082 0.814052 0
M  V30 2939 H 265.241 -1.31253 0.892092 0
M  V30 2940 H 265.262 -3.79903 -0.213148 0
M  V30 2941 H 264.774 -3.53901 1.59297 0
M  V30 2942 H 262.875 -3.62268 -0.871367 0
M  V30 2943 H 262.988 -4.74808 0.63985 0
M  V30 2944 H 261.352 -2.53528 0.244017 0
M  V30 2945 H 262.135 -2.87167 1.88123 0
M  V30 2946 N 264.58 -0.43555 -1.51462 0
M  V30 2947 C 265.513 0.421989 -2.24264 0
M  V30 2948 C 266.491 1.02619 -1.26127 0
M  V30 2949 O 267.675 1.069 -1.55257 0
M  V30 2950 C 264.802 1.588 -2.99166 0
M  V30 2951 C 263.848 1.10465 -4.11946 0
M  V30 2952 S 264.681 0.048146 -5.35478 0
M  V30 2953 C 265.837 1.21887 -6.13917 0
M  V30 2954 H 266.07 -0.196102 -2.96653 0
M  V30 2955 H 263.603 -0.220054 -1.52824 0
M  V30 2956 H 265.561 2.25647 -3.42919 0
M  V30 2957 H 264.222 2.1775 -2.26371 0
M  V30 2958 H 263.415 1.97654 -4.63626 0
M  V30 2959 H 263.017 0.51445 -3.70445 0
M  V30 2960 H 265.309 2.13756 -6.42895 0
M  V30 2961 H 266.252 0.742076 -7.04201 0
M  V30 2962 H 266.66 1.45663 -5.45383 0
M  V30 2963 N 266.058 1.56714 -0.166846 0
M  V30 2964 C 267.335 1.88412 0.525373 0
M  V30 2965 C 267.715 1.07602 1.81618 0
M  V30 2966 O 267.063 0.168621 2.27877 0
M  V30 2967 C 267.273 3.40363 0.771613 0
M  V30 2968 C 268.621 4.10007 1.1036 0
M  V30 2969 O 269.645 3.45655 0.860304 0
M  V30 2970 O 268.504 5.2369 1.56239 0
M  V30 2971 H 265.598 0.781587 0.270278 0
M  V30 2972 H 268.144 1.68458 -0.204946 0
M  V30 2973 H 266.916 3.91046 -0.141093 0
M  V30 2974 H 266.539 3.65914 1.55541 0
M  V30 2975 N 267.536 -0.106894 1.57237 0
M  V30 2976 C 268.446 -1.14911 2.0453 0
M  V30 2977 C 269.462 -1.44592 0.96795 0
M  V30 2978 O 270.638 -1.55468 1.2803 0
M  V30 2979 C 267.703 -2.45272 2.45036 0
M  V30 2980 C 266.764 -2.22879 3.66911 0
M  V30 2981 C 265.997 -3.47024 4.05475 0
M  V30 2982 O 266.22 -4.54804 3.44252 0
M  V30 2983 O 265.154 -3.3731 4.98504 0
M  V30 2984 H 268.98 -0.777461 2.9358 0
M  V30 2985 H 266.565 -0.318563 1.45964 0
M  V30 2986 H 268.447 -3.22055 2.71769 0
M  V30 2987 H 267.122 -2.81886 1.59129 0
M  V30 2988 H 266.029 -1.43915 3.45311 0
M  V30 2989 H 267.362 -1.91163 4.53561 0
M  V30 2990 N 269.014 -1.53014 -0.377408 0
M  V30 2991 C 269.964 -1.74996 -1.46152 0
M  V30 2992 C 270.948 -0.604236 -1.49123 0
M  V30 2993 O 272.14 -0.862489 -1.54564 0
M  V30 2994 C 269.269 -1.93267 -2.8373 0
M  V30 2995 C 268.355 -3.13807 -2.85283 0
M  V30 2996 N 268.746 -4.35941 -2.56493 0
M  V30 2997 C 267.044 -3.14288 -3.16448 0
M  V30 2998 C 267.745 -5.17615 -2.65424 0
M  V30 2999 N 266.721 -4.53559 -2.99641 0
M  V30 3000 H 270.523 -2.67044 -1.22738 0
M  V30 3001 H 268.037 -1.51479 -0.585479 0
M  V30 3002 H 270.034 -2.0714 -3.61799 0
M  V30 3003 H 268.694 -1.0244 -3.08117 0
M  V30 3004 H 269.705 -4.63876 -2.30302 0
M  V30 3005 H 266.382 -2.33312 -3.46225 0
M  V30 3006 H 267.772 -6.25006 -2.46612 0
M  V30 3007 N 270.492 0.636531 -1.44174 0
M  V30 3008 C 271.717 1.42847 -1.50364 0
M  V30 3009 C 272.142 1.87665 -0.127867 0
M  V30 3010 O 271.5 1.58408 0.88185 0
M  V30 3011 C 271.548 2.62854 -2.4686 0
M  V30 3012 O 270.652 3.62501 -1.9664 0
M  V30 3013 H 269.993 0.427642 -0.507955 0
M  V30 3014 H 272.523 0.777422 -1.89255 0
M  V30 3015 H 272.533 3.10465 -2.64718 0
M  V30 3016 H 271.208 2.29578 -3.46795 0
M  V30 3017 H 269.785 3.21735 -1.88523 0
M  V30 3018 N 271.97 1.30982 0.876444 0
M  V30 3019 C 273.21 1.21589 1.64303 0
M  V30 3020 C 273.574 -0.223962 1.90689 0
M  V30 3021 O 274.775 -0.44128 2.65153 0
M  V30 3022 C 273.046 2.03007 2.94148 0
M  V30 3023 S 274.605 2.10405 3.85065 0
M  V30 3024 H 271.423 0.433161 0.563819 0
M  V30 3025 H 274.025 1.65565 1.03964 0
M  V30 3026 H 272.729 3.06719 2.72675 0
M  V30 3027 H 272.26 1.59725 3.59515 0
M  V30 3028 H 274.275 1.23765 4.80517 0
M  V30 3029 N 273.449 -1.08991 1.13837 0
M  V30 3030 C 274.86 -1.62746 0.914917 0
M  V30 3031 C 275.211 -1.88403 -0.547594 0
M  V30 3032 O 274.336 -1.63706 -1.41525 0
M  V30 3033 C 274.931 -2.95662 1.65437 0
M  V30 3034 C 273.49 -3.46225 1.47666 0
M  V30 3035 C 272.637 -2.20562 1.6807 0
M  V30 3036 H 275.588 -0.922946 1.29102 0
M  V30 3037 H 275.609 -3.63825 1.11407 0
M  V30 3038 H 275.121 -2.76956 2.71877 0
M  V30 3039 H 273.222 -3.70046 0.435478 0
M  V30 3040 H 273.335 -4.23368 2.24268 0
M  V30 3041 H 271.699 -2.29439 1.10589 0
M  V30 3042 H 272.482 -2.0437 2.7584 0
M  V30 3043 N 274.927 -0.932562 -1.27047 0
M  V30 3044 C 275.857 -0.452902 -2.29066 0
M  V30 3045 C 276.838 0.489338 -1.62909 0
M  V30 3046 O 278.023 0.393046 -1.90181 0
M  V30 3047 C 275.153 0.290698 -3.46081 0
M  V30 3048 C 274.107 -0.564168 -4.24265 0
M  V30 3049 C 273.433 0.308886 -5.33807 0
M  V30 3050 C 274.733 -1.83112 -4.89149 0
M  V30 3051 H 276.427 -1.30552 -2.69437 0
M  V30 3052 H 273.973 -0.629201 -1.29526 0
M  V30 3053 H 275.926 0.637233 -4.16554 0
M  V30 3054 H 274.65 1.17738 -3.0464 0
M  V30 3055 H 273.309 -0.893477 -3.55545 0
M  V30 3056 H 272.957 1.19467 -4.88607 0
M  V30 3057 H 272.657 -0.259633 -5.87026 0
M  V30 3058 H 274.181 0.650884 -6.07121 0
M  V30 3059 H 275.595 -1.55236 -5.51883 0
M  V30 3060 H 273.992 -2.34353 -5.52448 0
M  V30 3061 H 275.062 -2.54772 -4.12576 0
M  V30 3062 N 276.405 1.4127 -0.698611 0
M  V30 3063 C 277.654 2.00408 -0.227949 0
M  V30 3064 C 277.967 1.55981 1.18023 0
M  V30 3065 O 279.173 2.07699 1.74852 0
M  V30 3066 C 277.629 3.58129 -0.356636 0
M  V30 3067 C 277.237 4.11536 -1.77037 0
M  V30 3068 C 278.981 4.24466 0.0540969 0
M  V30 3069 C 276.888 5.61701 -1.85055 0
M  V30 3070 H 275.818 0.749586 -0.0814657 0
M  V30 3071 H 278.469 1.61713 -0.867249 0
M  V30 3072 H 276.851 3.94442 0.350965 0
M  V30 3073 H 278.025 3.86636 -2.50698 0
M  V30 3074 H 276.34 3.57736 -2.13105 0
M  V30 3075 H 278.937 5.34698 0.0146723 0
M  V30 3076 H 279.28 4.01687 1.09332 0
M  V30 3077 H 279.813 3.93198 -0.603337 0
M  V30 3078 H 276.552 5.89312 -2.8704 0
M  V30 3079 H 276.072 5.88519 -1.15783 0
M  V30 3080 H 277.751 6.26524 -1.61484 0
M  V30 3081 N 277.883 0.443576 1.51229 0
M  V30 3082 C 279.13 -0.120796 2.02139 0
M  V30 3083 C 279.458 -1.42166 1.32736 0
M  V30 3084 O 278.713 -1.90849 0.43301 0
M  V30 3085 C 279.012 -0.380579 3.55368 0
M  V30 3086 C 278.678 0.83523 4.43097 0
M  V30 3087 C 277.34 1.16864 4.66794 0
M  V30 3088 C 279.692 1.64601 4.94526 0
M  V30 3089 C 277.02 2.31339 5.39165 0
M  V30 3090 C 279.372 2.78181 5.68153 0
M  V30 3091 C 278.036 3.11969 5.90112 0
M  V30 3092 H 277.306 -0.0442023 0.73968 0
M  V30 3093 H 279.953 0.592046 1.82118 0
M  V30 3094 H 278.258 -1.17538 3.73754 0
M  V30 3095 H 279.955 -0.830777 3.923 0
M  V30 3096 H 276.545 0.565437 4.24854 0
M  V30 3097 H 280.729 1.40163 4.76097 0
M  V30 3098 H 275.985 2.57823 5.5438 0
M  V30 3099 H 280.159 3.41371 6.06992 0
M  V30 3100 H 277.786 4.00784 6.45969 0
M  V30 3101 N 279.361 -1.56624 0.175154 0
M  V30 3102 C 280.586 -2.01813 -0.478137 0
M  V30 3103 C 281.011 -1.05457 -1.55757 0
M  V30 3104 O 280.369 -0.0347439 -1.81267 0
M  V30 3105 C 280.417 -3.45581 -1.02987 0
M  V30 3106 O 279.521 -3.52305 -2.14371 0
M  V30 3107 H 278.862 -0.65413 -0.114059 0
M  V30 3108 H 281.392 -2.02673 0.280173 0
M  V30 3109 H 281.402 -3.84965 -1.35151 0
M  V30 3110 H 280.077 -4.1521 -0.239556 0
M  V30 3111 H 278.654 -3.24783 -1.83222 0
M  V30 3112 N 280.839 0.0985539 -1.57292 0
M  V30 3113 C 282.064 0.820196 -1.90493 0
M  V30 3114 C 282.489 1.71658 -0.769094 0
M  V30 3115 O 281.847 1.79133 0.279495 0
M  V30 3116 C 281.895 1.61242 -3.22542 0
M  V30 3117 O 280.999 2.72108 -3.09888 0
M  V30 3118 H 280.34 0.225547 -0.62452 0
M  V30 3119 H 282.87 0.0748159 -2.04463 0
M  V30 3120 H 282.88 1.99737 -3.55766 0
M  V30 3121 H 281.555 0.954535 -4.04798 0
M  V30 3122 H 280.132 2.36667 -2.88172 0
M  V30 3123 N 282.317 1.53212 0.369288 0
M  V30 3124 C 283.547 1.72868 1.13139 0
M  V30 3125 C 283.955 0.455754 1.83629 0
M  V30 3126 O 283.298 -0.580861 1.74275 0
M  V30 3127 C 283.36 2.83667 2.20847 0
M  V30 3128 C 283.024 4.24142 1.70155 0
M  V30 3129 C 284.021 5.06619 1.16763 0
M  V30 3130 C 281.706 4.70539 1.7578 0
M  V30 3131 C 283.7 6.33581 0.696678 0
M  V30 3132 C 281.387 5.97481 1.28297 0
M  V30 3133 C 282.385 6.78833 0.753307 0
M  V30 3134 O 282.073 8.03393 0.285475 0
M  V30 3135 H 281.805 0.581707 0.344373 0
M  V30 3136 H 284.359 2.00736 0.435243 0
M  V30 3137 H 282.589 2.51265 2.93944 0
M  V30 3138 H 284.278 2.91536 2.82421 0
M  V30 3139 H 285.044 4.71948 1.11758 0
M  V30 3140 H 280.923 4.07293 2.15949 0
M  V30 3141 H 284.467 6.97027 0.282581 0
M  V30 3142 H 280.364 6.31651 1.32994 0
M  V30 3143 H 281.132 8.17497 0.405145 0
M  V30 3144 N 283.795 -0.628877 1.44509 0
M  V30 3145 C 285.043 -1.38565 1.4712 0
M  V30 3146 C 285.364 -1.94712 0.105899 0
M  V30 3147 O 284.634 -1.75912 -0.862079 0
M  V30 3148 H 283.214 -0.514333 0.541729 0
M  V30 3149 H 285.876 -0.740018 1.80305 0
M  V30 3150 H 284.972 -2.21583 2.19789 0
M  V30 3151 N 285.273 -1.31445 -0.869486 0
M  V30 3152 C 286.503 -1.23942 -1.65294 0
M  V30 3153 C 286.911 0.197561 -1.88166 0
M  V30 3154 O 286.254 1.14019 -1.44033 0
M  V30 3155 C 286.316 -1.91385 -3.04322 0
M  V30 3156 C 285.98 -3.40726 -3.04557 0
M  V30 3157 C 286.977 -4.36464 -2.82481 0
M  V30 3158 C 284.662 -3.82425 -3.25663 0
M  V30 3159 C 286.656 -5.71876 -2.8149 0
M  V30 3160 C 284.343 -5.1795 -3.243 0
M  V30 3161 C 285.341 -6.12486 -3.02241 0
M  V30 3162 O 285.029 -7.45534 -3.00724 0
M  V30 3163 H 284.761 -0.429459 -0.522054 0
M  V30 3164 H 287.315 -1.73873 -1.0935 0
M  V30 3165 H 285.545 -1.36004 -3.61994 0
M  V30 3166 H 287.234 -1.77791 -3.64891 0
M  V30 3167 H 288 -4.05576 -2.65956 0
M  V30 3168 H 283.879 -3.09274 -3.41863 0
M  V30 3169 H 287.423 -6.45638 -2.64191 0
M  V30 3170 H 283.32 -5.48473 -3.40365 0
M  V30 3171 H 284.088 -7.54713 -3.16782 0
M  V30 3172 N 286.751 1.08385 -1.14413 0
M  V30 3173 C 288.162 1.62258 -0.923535 0
M  V30 3174 C 288.513 1.88691 0.537595 0
M  V30 3175 O 287.638 1.64454 1.40655 0
M  V30 3176 C 288.233 2.94781 -1.67002 0
M  V30 3177 C 286.792 3.45437 -1.495 0
M  V30 3178 C 285.939 2.19668 -1.69238 0
M  V30 3179 H 288.89 0.916086 -1.2959 0
M  V30 3180 H 288.911 3.63229 -1.13334 0
M  V30 3181 H 288.423 2.7551 -2.73342 0
M  V30 3182 H 286.524 3.6981 -0.455097 0
M  V30 3183 H 286.637 4.22173 -2.2651 0
M  V30 3184 H 285.001 2.28849 -1.11804 0
M  V30 3185 H 285.784 2.02905 -2.7692 0
M  V30 3186 N 288.23 0.939286 1.26551 0
M  V30 3187 C 289.177 0.446088 2.26448 0
M  V30 3188 C 290.147 -0.493234 1.58608 0
M  V30 3189 O 291.332 -0.409857 1.86346 0
M  V30 3190 C 288.472 -0.284375 3.43926 0
M  V30 3191 C 287.585 0.690399 4.26448 0
M  V30 3192 C 286.72 -0.0610712 5.31165 0
M  V30 3193 C 285.759 0.905649 6.05363 0
M  V30 3194 N 284.896 0.186055 7.01853 0
M  V30 3195 H 289.736 1.30291 2.68008 0
M  V30 3196 H 287.273 0.65371 1.31776 0
M  V30 3197 H 289.231 -0.724313 4.10864 0
M  V30 3198 H 287.861 -1.10535 3.03285 0
M  V30 3199 H 286.913 1.24885 3.59316 0
M  V30 3200 H 288.225 1.42873 4.779 0
M  V30 3201 H 287.379 -0.56038 6.04106 0
M  V30 3202 H 286.118 -0.832297 4.80546 0
M  V30 3203 H 285.123 1.4161 5.3125 0
M  V30 3204 H 286.348 1.67685 6.58072 0
M  V30 3205 H 284.294 -0.566714 6.53548 0
M  V30 3206 H 284.211 0.863752 7.51049 0
M  V30 3207 H 285.479 -0.292221 7.78952 0
M  V30 3208 N 289.708 -1.40897 0.706093 0
M  V30 3209 C 290.618 -2.3455 0.0482286 0
M  V30 3210 C 291.634 -1.56796 -0.754396 0
M  V30 3211 O 292.81 -1.89228 -0.689538 0
M  V30 3212 C 289.875 -3.35625 -0.869303 0
M  V30 3213 C 288.936 -4.29261 -0.0576994 0
M  V30 3214 C 288.169 -5.25508 -0.931531 0
M  V30 3215 O 288.392 -5.27472 -2.17092 0
M  V30 3216 O 287.326 -6.00727 -0.375587 0
M  V30 3217 H 291.152 -2.92407 0.820476 0
M  V30 3218 H 288.737 -1.4193 0.4665 0
M  V30 3219 H 290.619 -3.97635 -1.39514 0
M  V30 3220 H 289.294 -2.80196 -1.62086 0
M  V30 3221 H 288.201 -3.70566 0.512988 0
M  V30 3222 H 289.534 -4.87817 0.655426 0
M  V30 3223 N 291.186 -0.45159 -1.50991 0
M  V30 3224 C 292.096 0.358431 -2.31846 0
M  V30 3225 C 293.112 1.01438 -1.41373 0
M  V30 3226 O 294.288 1.00663 -1.74439 0
M  V30 3227 C 291.353 1.43704 -3.15515 0
M  V30 3228 C 290.414 0.799742 -4.21785 0
M  V30 3229 C 289.647 1.82696 -5.01456 0
M  V30 3230 O 289.87 3.05105 -4.81941 0
M  V30 3231 O 288.804 1.40958 -5.85162 0
M  V30 3232 H 292.63 -0.302032 -3.02194 0
M  V30 3233 H 290.215 -0.213825 -1.47862 0
M  V30 3234 H 292.097 2.06227 -3.67489 0
M  V30 3235 H 290.772 2.08133 -2.47916 0
M  V30 3236 H 289.679 0.136084 -3.73852 0
M  V30 3237 H 291.012 0.198718 -4.91799 0
M  V30 3238 N 292.664 1.56529 -0.183458 0
M  V30 3239 C 293.597 2.14417 0.781052 0
M  V30 3240 C 294.575 1.07761 1.21763 0
M  V30 3241 O 295.759 1.35807 1.30724 0
M  V30 3242 C 292.886 2.69361 2.05335 0
M  V30 3243 C 291.932 3.885 1.75982 0
M  V30 3244 S 292.765 5.27568 0.918256 0
M  V30 3245 C 293.921 5.85926 2.20095 0
M  V30 3246 H 294.154 2.95893 0.2889 0
M  V30 3247 H 291.687 1.54368 0.0313844 0
M  V30 3248 H 293.645 3.01662 2.78406 0
M  V30 3249 H 292.306 1.87949 2.51663 0
M  V30 3250 H 291.499 4.25314 2.70415 0
M  V30 3251 H 291.101 3.57149 1.10999 0
M  V30 3252 H 293.393 5.99579 3.15453 0
M  V30 3253 H 294.336 6.82761 1.87731 0
M  V30 3254 H 294.744 5.14438 2.32409 0
M  V30 3255 N 294.142 -0.090211 1.57342 0
M  V30 3256 C 295.391 -0.791531 1.8552 0
M  V30 3257 C 295.704 -1.79659 0.773441 0
M  V30 3258 O 296.91 -2.54616 0.942497 0
M  V30 3259 C 295.366 -1.45856 3.2902 0
M  V30 3260 C 294.974 -0.493017 4.45279 0
M  V30 3261 C 296.718 -2.14332 3.66418 0
M  V30 3262 C 294.625 -1.16491 5.79814 0
M  V30 3263 H 293.555 -0.299356 0.692027 0
M  V30 3264 H 296.206 -0.0445343 1.83446 0
M  V30 3265 H 294.588 -2.25318 3.2565 0
M  V30 3266 H 295.762 0.270464 4.60006 0
M  V30 3267 H 294.077 0.0863061 4.16311 0
M  V30 3268 H 296.674 -2.65344 4.64216 0
M  V30 3269 H 297.017 -2.93447 2.95287 0
M  V30 3270 H 297.55 -1.41724 3.71698 0
M  V30 3271 H 294.289 -0.41447 6.54188 0
M  V30 3272 H 293.809 -1.8997 5.68921 0
M  V30 3273 H 295.488 -1.69001 6.24538 0
M  V30 3274 N 295.62 -1.53406 -0.361157 0
M  V30 3275 C 296.85 -1.73465 -1.1222 0
M  V30 3276 C 297.258 -0.465486 -1.83384 0
M  V30 3277 O 296.601 0.571611 -1.7458 0
M  V30 3278 C 296.663 -2.84834 -2.19339 0
M  V30 3279 C 296.327 -4.25038 -1.67903 0
M  V30 3280 C 297.324 -5.07231 -1.14074 0
M  V30 3281 C 295.009 -4.71464 -1.73282 0
M  V30 3282 C 297.003 -6.33942 -0.663068 0
M  V30 3283 C 294.69 -5.98153 -1.25127 0
M  V30 3284 C 295.688 -6.79223 -0.717296 0
M  V30 3285 O 295.376 -8.03533 -0.242865 0
M  V30 3286 H 295.108 -0.583526 -0.341283 0
M  V30 3287 H 297.662 -2.00964 -0.424591 0
M  V30 3288 H 295.892 -2.5282 -2.92607 0
M  V30 3289 H 297.581 -2.9303 -2.80871 0
M  V30 3290 H 298.347 -4.72534 -1.09254 0
M  V30 3291 H 294.226 -4.08432 -2.13786 0
M  V30 3292 H 297.77 -6.97167 -0.245612 0
M  V30 3293 H 293.667 -6.32347 -1.29642 0
M  V30 3294 H 294.435 -8.177 -0.361786 0
M  V30 3295 N 297.098 0.621204 -1.44841 0
M  V30 3296 C 298.514 0.94048 -1.28946 0
M  V30 3297 C 298.714 2.00154 -0.23249 0
M  V30 3298 O 297.77 2.49651 0.378237 0
M  V30 3299 C 299.083 1.39433 -2.66419 0
M  V30 3300 C 300.631 1.50927 -2.74208 0
M  V30 3301 C 301.106 1.99692 -4.12174 0
M  V30 3302 N 302.597 2.06947 -4.144 0
M  V30 3303 C 303.332 2.45871 -5.1801 0
M  V30 3304 N 302.828 2.83862 -6.31977 0
M  V30 3305 N 304.621 2.46092 -5.05366 0
M  V30 3306 H 296.772 -0.0803548 -2.12248 0
M  V30 3307 H 299.035 0.0266913 -0.947624 0
M  V30 3308 H 298.741 0.688925 -3.44887 0
M  V30 3309 H 298.615 2.36347 -2.93973 0
M  V30 3310 H 301.002 2.20561 -1.96053 0
M  V30 3311 H 301.083 0.523627 -2.50383 0
M  V30 3312 H 300.727 1.30649 -4.90809 0
M  V30 3313 H 300.657 2.99146 -4.33381 0
M  V30 3314 H 303.148 1.80232 -3.32152 0
M  V30 3315 H 303.461 3.12405 -7.0684 0
M  V30 3316 H 301.806 2.8159 -6.35399 0
M  V30 3317 H 304.997 2.1581 -4.15384 0
M  V30 3318 H 305.17 2.76102 -5.86235 0
M  V30 3319 N 298.576 1.31904 0.862503 0
M  V30 3320 C 299.822 1.23207 1.61838 0
M  V30 3321 C 300.177 -0.206062 1.91293 0
M  V30 3322 O 299.47 -1.14162 1.53875 0
M  V30 3323 C 299.664 2.01713 2.95037 0
M  V30 3324 C 299.493 3.53014 2.78588 0
M  V30 3325 C 298.263 4.22359 2.77382 0
M  V30 3326 C 300.461 4.47819 2.52909 0
M  V30 3327 N 298.443 5.59766 2.52062 0
M  V30 3328 C 299.814 5.72947 2.36922 0
M  V30 3329 C 301.869 4.37162 2.38314 0
M  V30 3330 C 300.572 6.88623 2.07823 0
M  V30 3331 C 302.598 5.5263 2.10604 0
M  V30 3332 C 301.96 6.76752 1.95411 0
M  V30 3333 H 298.059 0.505984 0.596242 0
M  V30 3334 H 300.643 1.66179 1.01452 0
M  V30 3335 H 298.814 1.61098 3.53415 0
M  V30 3336 H 300.546 1.84975 3.59953 0
M  V30 3337 H 297.301 3.74401 2.90036 0
M  V30 3338 H 297.725 6.32135 2.42352 0
M  V30 3339 H 302.367 3.41857 2.48784 0
M  V30 3340 H 300.085 7.83948 1.9609 0
M  V30 3341 H 303.671 5.46307 2.00101 0
M  V30 3342 H 302.551 7.6459 1.74274 0
M  V30 3343 N 300.054 -1.07777 1.14986 0
M  V30 3344 C 301.47 -1.32373 0.891596 0
M  V30 3345 C 301.67 -1.9609 -0.463788 0
M  V30 3346 O 300.726 -2.21801 -1.20667 0
M  V30 3347 C 302.039 -2.21905 2.02925 0
M  V30 3348 C 303.587 -2.35367 2.06329 0
M  V30 3349 C 304.062 -3.28245 3.19405 0
M  V30 3350 N 305.553 -3.35824 3.19024 0
M  V30 3351 C 306.288 -4.07739 4.03158 0
M  V30 3352 N 305.784 -4.82306 4.97346 0
M  V30 3353 N 307.577 -4.03635 3.91197 0
M  V30 3354 H 299.728 -0.648039 2.02273 0
M  V30 3355 H 301.991 -0.348149 0.881757 0
M  V30 3356 H 301.697 -1.82342 3.0074 0
M  V30 3357 H 301.571 -3.22407 1.95789 0
M  V30 3358 H 303.958 -2.74186 1.09116 0
M  V30 3359 H 304.039 -1.34585 2.17533 0
M  V30 3360 H 303.683 -2.90146 4.16867 0
M  V30 3361 H 303.613 -4.28971 3.05437 0
M  V30 3362 H 306.104 -2.8267 2.50811 0
M  V30 3363 H 306.417 -5.34661 5.57994 0
M  V30 3364 H 304.762 -4.81337 5.01338 0
M  V30 3365 H 307.953 -3.44491 3.16928 0
M  V30 3366 H 308.126 -4.59417 4.5699 0
M  V30 3367 N 301.532 -0.945985 -1.26051 0
M  V30 3368 C 302.479 -0.45809 -2.26208 0
M  V30 3369 C 303.449 0.484816 -1.58867 0
M  V30 3370 O 304.634 0.399969 -1.86561 0
M  V30 3371 C 301.774 0.266131 -3.44072 0
M  V30 3372 C 300.887 -0.713005 -4.26075 0
M  V30 3373 C 300.022 0.0329013 -5.3119 0
M  V30 3374 C 299.061 -0.93774 -6.04874 0
M  V30 3375 N 298.198 -0.223274 -7.01745 0
M  V30 3376 H 303.038 -1.3171 -2.67313 0
M  V30 3377 H 300.575 -0.66069 -1.31428 0
M  V30 3378 H 302.533 0.702514 -4.11243 0
M  V30 3379 H 301.163 1.08925 -3.03867 0
M  V30 3380 H 300.215 -1.26789 -3.58648 0
M  V30 3381 H 301.527 -1.45406 -4.77136 0
M  V30 3382 H 300.681 0.528335 -6.04395 0
M  V30 3383 H 299.42 0.806801 -4.8098 0
M  V30 3384 H 298.425 -1.44425 -5.30492 0
M  V30 3385 H 299.65 -1.71172 -6.57173 0
M  V30 3386 H 297.596 0.532046 -6.53839 0
M  V30 3387 H 297.513 -0.90357 -7.50581 0
M  V30 3388 H 298.781 0.250907 -7.79096 0
M  V30 3389 N 303.011 1.40521 -0.713556 0
M  V30 3390 C 303.959 2.32549 -0.0485227 0
M  V30 3391 C 304.953 1.51931 0.74922 0
M  V30 3392 O 306.159 1.67745 0.652816 0
M  V30 3393 H 302.534 0.751994 0.00311138 0
M  V30 3394 H 304.505 2.86291 -0.841443 0
M  V30 3395 C 303.254 3.36879 0.860687 0
M  V30 3396 H 302.577 3.98978 0.256246 0
M  V30 3397 H 304.017 4.03772 1.294 0
M  V30 3398 C 302.476 2.72197 1.9852 0
M  V30 3399 O 303.006 2.5837 3.07584 0
M  V30 3400 N 301.212 2.30612 1.76823 0
M  V30 3401 H 300.759 2.42059 0.881217 0
M  V30 3402 H 300.717 1.87672 2.52243 0
M  V30 3403 N 304.489 0.459591 1.5075 0
M  V30 3404 C 305.714 -0.0996819 2.0716 0
M  V30 3405 C 306.139 -1.33761 1.32249 0
M  V30 3406 O 305.497 -1.77551 0.366786 0
M  V30 3407 C 305.545 -0.378226 3.58611 0
M  V30 3408 O 304.649 -1.46081 3.85661 0
M  V30 3409 H 303.99 0.00791392 0.663953 0
M  V30 3410 H 306.52 0.647329 1.9409 0
M  V30 3411 H 306.53 -0.622135 4.03229 0
M  V30 3412 H 305.205 0.526439 4.12555 0
M  V30 3413 H 303.782 -1.20511 3.5289 0
M  V30 3414 N 305.967 -1.56429 0.191757 0
M  V30 3415 C 307.213 -1.97777 -0.448554 0
M  V30 3416 C 307.546 -1.07847 -1.61501 0
M  V30 3417 O 306.821 -0.129774 -1.94067 0
M  V30 3418 C 307.104 -3.48362 -0.911906 0
M  V30 3419 C 306.957 -4.4907 0.256136 0
M  V30 3420 C 308.276 -4.02561 -1.77857 0
M  V30 3421 H 305.395 -0.719071 -0.161572 0
M  V30 3422 H 308.037 -1.87896 0.282007 0
M  V30 3423 H 306.187 -3.56914 -1.53442 0
M  V30 3424 H 307.859 -4.5256 0.893733 0
M  V30 3425 H 306.102 -4.24181 0.908436 0
M  V30 3426 H 306.773 -5.51889 -0.11053 0
M  V30 3427 H 309.249 -3.96767 -1.25359 0
M  V30 3428 H 308.125 -5.08301 -2.07174 0
M  V30 3429 H 308.386 -3.47616 -2.73158 0
M  V30 3430 N 307.445 0.0818655 -1.57387 0
M  V30 3431 C 308.355 1.11642 -2.06333 0
M  V30 3432 C 309.371 1.43033 -0.99083 0
M  V30 3433 O 310.547 1.53411 -1.30488 0
M  V30 3434 C 307.612 2.41342 -2.48907 0
M  V30 3435 C 306.673 2.17014 -3.7041 0
M  V30 3436 C 305.906 3.4053 -4.10944 0
M  V30 3437 O 306.129 4.4927 -3.51444 0
M  V30 3438 O 305.063 3.29336 -5.03807 0
M  V30 3439 H 308.889 0.730657 -2.9478 0
M  V30 3440 H 306.474 0.295301 -1.46452 0
M  V30 3441 H 308.356 3.17691 -2.76858 0
M  V30 3442 H 307.031 2.79319 -1.63593 0
M  V30 3443 H 305.938 1.38403 -3.47556 0
M  V30 3444 H 307.271 1.83923 -4.56545 0
M  V30 3445 N 308.923 1.53595 0.353017 0
M  V30 3446 C 309.886 1.80232 1.41594 0
M  V30 3447 C 310.886 0.673081 1.46035 0
M  V30 3448 O 312.076 0.941335 1.46576 0
M  V30 3449 C 309.208 1.93578 2.80607 0
M  V30 3450 H 310.401 2.75174 1.19244 0
M  V30 3451 H 307.954 1.44864 0.586872 0
M  V30 3452 H 308.689 1.00746 3.08254 0
M  V30 3453 H 308.474 2.75724 2.78781 0
M  V30 3454 H 309.964 2.15735 3.57558 0
M  V30 3455 N 310.401 -0.613514 1.45168 0
M  V30 3456 C 311.364 -1.7065 1.53007 0
M  V30 3457 C 312.364 -1.5548 0.410184 0
M  V30 3458 O 313.554 -1.60656 0.673455 0
M  V30 3459 C 310.686 -3.09875 1.42093 0
M  V30 3460 H 311.879 -1.65068 2.50385 0
M  V30 3461 H 309.432 -0.828728 1.32521 0
M  V30 3462 H 310.167 -3.21039 0.458769 0
M  V30 3463 H 309.952 -3.22293 2.23315 0
M  V30 3464 H 311.442 -3.895 1.50598 0
M  V30 3465 N 311.879 -1.3236 -0.855495 0
M  V30 3466 C 313.156 -1.13491 -1.59309 0
M  V30 3467 C 313.536 0.30503 -2.08885 0
M  V30 3468 O 312.884 1.30151 -1.87811 0
M  V30 3469 C 313.094 -2.16176 -2.73987 0
M  V30 3470 C 314.442 -2.49463 -3.43589 0
M  V30 3471 O 315.466 -2.14715 -2.84211 0
M  V30 3472 O 314.325 -3.09027 -4.50738 0
M  V30 3473 H 311.419 -0.437887 -0.701559 0
M  V30 3474 H 313.965 -1.43887 -0.899696 0
M  V30 3475 H 312.737 -3.1297 -2.34873 0
M  V30 3476 H 312.36 -1.86769 -3.51003 0
M  V30 3477 N 313.357 1.07166 -1.15556 0
M  V30 3478 C 314.289 2.14341 -0.811815 0
M  V30 3479 C 315.302 1.61835 0.177015 0
M  V30 3480 O 316.491 1.78439 -0.0464996 0
M  V30 3481 C 313.591 3.38387 -0.186481 0
M  V30 3482 C 312.764 4.20238 -1.21321 0
M  V30 3483 C 311.823 5.2266 -0.609302 0
M  V30 3484 O 310.849 5.54719 -1.27576 0
M  V30 3485 N 312.051 5.77306 0.608099 0
M  V30 3486 H 314.816 2.44431 -1.73417 0
M  V30 3487 H 312.377 1.23089 -1.0517 0
M  V30 3488 H 314.369 4.04044 0.230339 0
M  V30 3489 H 312.939 3.05994 0.639249 0
M  V30 3490 H 312.159 3.50369 -1.80652 0
M  V30 3491 H 313.447 4.71736 -1.90638 0
M  V30 3492 H 312.845 5.53513 1.1679 0
M  V30 3493 H 311.402 6.44583 0.96725 0
M  V30 3494 N 314.835 0.952656 1.25548 0
M  V30 3495 C 315.782 0.47008 2.25962 0
M  V30 3496 C 316.752 -0.476384 1.59122 0
M  V30 3497 O 317.937 -0.39007 1.8677 0
M  V30 3498 C 315.077 -0.247881 3.44209 0
M  V30 3499 C 314.19 0.735591 4.25691 0
M  V30 3500 C 313.325 -0.0047306 5.312 0
M  V30 3501 C 312.364 0.969805 6.04368 0
M  V30 3502 N 311.501 0.260486 7.01617 0
M  V30 3503 H 316.341 1.33126 2.66611 0
M  V30 3504 H 313.878 0.66765 1.31076 0
M  V30 3505 H 315.836 -0.680695 4.1161 0
M  V30 3506 H 314.466 -1.07312 3.0444 0
M  V30 3507 H 313.518 1.28689 3.57971 0
M  V30 3508 H 314.83 1.47934 4.76358 0
M  V30 3509 H 313.984 -0.496275 6.04667 0
M  V30 3510 H 312.723 -0.781282 4.81401 0
M  V30 3511 H 311.728 1.47237 5.29718 0
M  V30 3512 H 312.953 1.74655 6.56256 0
M  V30 3513 H 310.899 -0.497364 6.54112 0
M  V30 3514 H 310.816 0.943362 7.50091 0
M  V30 3515 H 312.084 -0.209587 7.79218 0
M  V30 3516 N 316.313 -1.40141 0.720998 0
M  V30 3517 C 317.538 -2.05618 0.271258 0
M  V30 3518 C 317.963 -1.53978 -1.08039 0
M  V30 3519 O 317.321 -0.677463 -1.68167 0
M  V30 3520 C 317.369 -3.59609 0.267197 0
M  V30 3521 O 316.473 -4.05526 -0.749814 0
M  V30 3522 H 315.814 -0.651904 0.126162 0
M  V30 3523 H 318.344 -1.79439 0.982997 0
M  V30 3524 H 318.354 -4.0786 0.106744 0
M  V30 3525 H 317.029 -3.96559 1.25354 0
M  V30 3526 H 315.606 -3.68722 -0.556644 0
M  V30 3527 N 317.792 -0.46758 -1.50504 0
M  V30 3528 C 319.038 0.0808869 -2.03239 0
M  V30 3529 C 319.393 1.37721 -1.34353 0
M  V30 3530 O 318.686 1.86016 -0.459194 0
M  V30 3531 C 318.88 0.323995 -3.55928 0
M  V30 3532 C 318.709 -0.947215 -4.39611 0
M  V30 3533 C 317.479 -1.48951 -4.82848 0
M  V30 3534 C 319.677 -1.84166 -4.80195 0
M  V30 3535 N 317.659 -2.71011 -5.50842 0
M  V30 3536 C 319.03 -2.90815 -5.47564 0
M  V30 3537 C 321.085 -1.85246 -4.62156 0
M  V30 3538 C 319.788 -3.98529 -5.98805 0
M  V30 3539 C 321.814 -2.91914 -5.14335 0
M  V30 3540 C 321.176 -3.97282 -5.81676 0
M  V30 3541 H 317.275 -0.0103394 -0.781932 0
M  V30 3542 H 319.859 -0.635003 -1.84054 0
M  V30 3543 H 318.03 1.00892 -3.75067 0
M  V30 3544 H 319.762 0.866492 -3.95315 0
M  V30 3545 H 316.517 -1.03918 -4.62058 0
M  V30 3546 H 316.941 -3.32988 -5.89447 0
M  V30 3547 H 321.583 -1.05103 -4.09528 0
M  V30 3548 H 319.301 -4.79491 -6.50472 0
M  V30 3549 H 322.887 -2.93729 -5.0221 0
M  V30 3550 H 321.767 -4.78462 -6.21324 0
M  V30 3551 N 319.27 1.56325 -0.20005 0
M  V30 3552 C 320.686 1.58839 0.155716 0
M  V30 3553 C 320.886 1.21636 1.60645 0
M  V30 3554 O 319.942 0.941437 2.34293 0
M  V30 3555 C 321.255 3.0032 -0.151124 0
M  V30 3556 C 322.803 3.12866 -0.0916284 0
M  V30 3557 C 323.278 4.56488 -0.371845 0
M  V30 3558 N 324.769 4.62089 -0.320641 0
M  V30 3559 C 325.504 5.71116 -0.511243 0
M  V30 3560 N 325 6.88592 -0.762461 0
M  V30 3561 N 326.793 5.60335 -0.445157 0
M  V30 3562 H 318.944 1.78788 -1.14668 0
M  V30 3563 H 321.207 0.829996 -0.458051 0
M  V30 3564 H 320.913 3.32117 -1.15721 0
M  V30 3565 H 320.787 3.73257 0.543986 0
M  V30 3566 H 323.174 2.80878 0.905065 0
M  V30 3567 H 323.255 2.42304 -0.81989 0
M  V30 3568 H 322.899 4.89189 -1.36588 0
M  V30 3569 H 322.829 5.25246 0.377362 0
M  V30 3570 H 325.32 3.77665 -0.13329 0
M  V30 3571 H 325.633 7.67581 -0.896576 0
M  V30 3572 H 323.978 6.90387 -0.799412 0
M  V30 3573 H 327.169 4.67436 -0.249278 0
M  V30 3574 H 327.342 6.45243 -0.597116 0
M  V30 3575 N 320.748 -0.0735177 1.57428 0
M  V30 3576 C 321.678 -1.0879 2.06608 0
M  V30 3577 C 322.659 -1.40473 0.959237 0
M  V30 3578 O 323.844 -1.5013 1.23185 0
M  V30 3579 C 320.974 -2.40183 2.50857 0
M  V30 3580 C 319.928 -2.22858 3.65402 0
M  V30 3581 C 319.254 -3.59619 3.957 0
M  V30 3582 C 320.554 -1.65123 4.95511 0
M  V30 3583 H 322.248 -0.678673 2.91607 0
M  V30 3584 H 319.794 -0.325013 1.40284 0
M  V30 3585 H 321.747 -3.11437 2.83874 0
M  V30 3586 H 320.471 -2.83083 1.62885 0
M  V30 3587 H 319.13 -1.54045 3.32664 0
M  V30 3588 H 318.778 -4.00086 3.04861 0
M  V30 3589 H 318.478 -3.48866 4.72828 0
M  V30 3590 H 320.002 -4.32306 4.31212 0
M  V30 3591 H 321.416 -2.26241 5.26771 0
M  V30 3592 H 319.813 -1.65071 5.7695 0
M  V30 3593 H 320.883 -0.612559 4.81015 0
M  V30 3594 N 322.226 -1.5378 -0.344866 0
M  V30 3595 C 323.456 -1.74646 -1.10374 0
M  V30 3596 C 323.864 -0.48491 -1.8288 0
M  V30 3597 O 323.207 0.553062 -1.75177 0
M  V30 3598 C 323.269 -2.87145 -2.16306 0
M  V30 3599 C 322.933 -4.26795 -1.63386 0
M  V30 3600 C 323.93 -5.08412 -1.08688 0
M  V30 3601 C 321.615 -4.73276 -1.68272 0
M  V30 3602 C 323.609 -6.34609 -0.595792 0
M  V30 3603 C 321.296 -5.99446 -1.18776 0
M  V30 3604 C 322.294 -6.79946 -0.645215 0
M  V30 3605 O 321.982 -8.03745 -0.157626 0
M  V30 3606 H 321.714 -0.587112 -0.335075 0
M  V30 3607 H 324.268 -2.01403 -0.403252 0
M  V30 3608 H 322.498 -2.55909 -2.89909 0
M  V30 3609 H 324.187 -2.95992 -2.77747 0
M  V30 3610 H 324.953 -4.73666 -1.04236 0
M  V30 3611 H 320.832 -4.10677 -2.09442 0
M  V30 3612 H 324.376 -6.97389 -0.171654 0
M  V30 3613 H 320.273 -6.33687 -1.22928 0
M  V30 3614 H 321.041 -8.18038 -0.275037 0
M  V30 3615 N 323.704 0.605807 -1.45491 0
M  V30 3616 C 324.636 1.73031 -1.5031 0
M  V30 3617 C 325.649 1.57968 -0.393687 0
M  V30 3618 O 326.838 1.65817 -0.660839 0
M  V30 3619 C 323.938 3.11049 -1.34543 0
M  V30 3620 C 323.111 3.52334 -2.59189 0
M  V30 3621 C 322.17 4.69323 -2.37954 0
M  V30 3622 O 321.196 4.7635 -3.11575 0
M  V30 3623 N 322.398 5.62705 -1.4263 0
M  V30 3624 H 325.163 1.6936 -2.4726 0
M  V30 3625 H 322.724 0.79114 -1.41254 0
M  V30 3626 H 324.716 3.87071 -1.18144 0
M  V30 3627 H 323.286 3.09217 -0.458623 0
M  V30 3628 H 322.506 2.66256 -2.90691 0
M  V30 3629 H 323.794 3.76677 -3.42041 0
M  V30 3630 H 323.192 5.59744 -0.818758 0
M  V30 3631 H 321.749 6.38252 -1.32202 0
M  V30 3632 N 325.182 1.32811 0.848464 0
M  V30 3633 C 326.429 1.23724 1.60308 0
M  V30 3634 C 326.757 -0.1994 1.93475 0
M  V30 3635 O 326.012 -1.15406 1.5805 0
M  V30 3636 C 326.311 2.04831 2.92881 0
M  V30 3637 C 325.977 3.54125 2.79117 0
M  V30 3638 C 324.639 3.94829 2.7507 0
M  V30 3639 C 326.991 4.49036 2.64606 0
M  V30 3640 C 324.319 5.28675 2.544 0
M  V30 3641 C 326.671 5.83033 2.4547 0
M  V30 3642 C 325.335 6.22931 2.39819 0
M  V30 3643 H 324.605 0.452737 0.586609 0
M  V30 3644 H 327.252 1.64301 0.983743 0
M  V30 3645 H 325.557 1.57001 3.58968 0
M  V30 3646 H 327.254 1.95164 3.50303 0
M  V30 3647 H 323.844 3.21801 2.83094 0
M  V30 3648 H 328.028 4.18505 2.66772 0
M  V30 3649 H 323.284 5.58637 2.48465 0
M  V30 3650 H 327.458 6.56186 2.33222 0
M  V30 3651 H 325.085 7.26584 2.23562 0
M  V30 3652 N 326.66 -1.06551 1.16123 0
M  V30 3653 C 327.937 -1.76097 0.85142 0
M  V30 3654 C 328.317 -2.00802 -0.6513 0
M  V30 3655 O 327.665 -1.63302 -1.59827 0
M  V30 3656 C 327.875 -3.06384 1.67122 0
M  V30 3657 C 329.223 -3.80585 1.88255 0
M  V30 3658 O 330.247 -3.16218 1.63966 0
M  V30 3659 O 329.106 -4.96212 2.2899 0
M  V30 3660 H 326.2 -0.765102 0.313923 0
M  V30 3661 H 328.746 -1.12844 1.26745 0
M  V30 3662 H 327.518 -2.84071 2.69108 0
M  V30 3663 H 327.141 -3.77371 1.25206 0
M  V30 3664 N 328.138 -0.959301 -1.25041 0
M  V30 3665 C 329.385 -0.616611 -1.92884 0
M  V30 3666 C 329.713 0.847036 -1.75087 0
M  V30 3667 O 328.968 1.62374 -1.09239 0
M  V30 3668 C 329.267 -0.927136 -3.45165 0
M  V30 3669 C 328.933 -2.37757 -3.83122 0
M  V30 3670 C 327.595 -2.77402 -3.93194 0
M  V30 3671 C 329.947 -3.31929 -4.01836 0
M  V30 3672 C 327.275 -4.10277 -4.19392 0
M  V30 3673 C 329.627 -4.64423 -4.29528 0
M  V30 3674 C 328.291 -5.03857 -4.37818 0
M  V30 3675 H 327.561 -0.225634 -0.705812 0
M  V30 3676 H 330.208 -1.20921 -1.48493 0
M  V30 3677 H 328.513 -0.252195 -3.90987 0
M  V30 3678 H 330.21 -0.6405 -3.95852 0
M  V30 3679 H 326.8 -2.06013 -3.75841 0
M  V30 3680 H 330.984 -3.02488 -3.93465 0
M  V30 3681 H 326.24 -4.40467 -4.24027 0
M  V30 3682 H 330.414 -5.37369 -4.42953 0
M  V30 3683 H 328.041 -6.06843 -4.57871 0
M  V30 3684 N 329.616 1.39756 -0.72842 0
M  V30 3685 C 330.549 2.28176 -0.0330172 0
M  V30 3686 C 331.527 1.44035 0.754501 0
M  V30 3687 O 332.711 1.73434 0.738445 0
M  V30 3688 C 329.838 3.24795 0.960504 0
M  V30 3689 C 328.884 4.25693 0.262264 0
M  V30 3690 S 329.717 5.25714 -1.01906 0
M  V30 3691 C 330.873 6.25894 -0.0279717 0
M  V30 3692 H 331.106 2.86807 -0.78287 0
M  V30 3693 H 328.639 1.45382 -0.519951 0
M  V30 3694 H 330.597 3.80983 1.52846 0
M  V30 3695 H 329.258 2.65196 1.68315 0
M  V30 3696 H 328.451 4.93699 1.01379 0
M  V30 3697 H 328.053 3.7327 -0.233482 0
M  V30 3698 H 330.345 6.72585 0.814621 0
M  V30 3699 H 331.288 7.04876 -0.67499 0
M  V30 3700 H 331.696 5.63466 0.341489 0
M  V30 3701 N 331.094 0.475555 1.50254 0
M  V30 3702 C 332.342 -0.077738 2.0195 0
M  V30 3703 C 332.663 -1.39813 1.35931 0
M  V30 3704 O 331.933 -1.89249 0.506123 0
M  V30 3705 H 330.513 -0.031719 0.746326 0
M  V30 3706 H 333.175 0.626995 1.84539 0
M  V30 3707 H 332.271 -0.225995 3.11281 0
M  V30 3708 N 332.573 -1.56217 0.208337 0
M  V30 3709 C 333.503 -2.22694 -0.702116 0
M  V30 3710 C 334.484 -1.19432 -1.2112 0
M  V30 3711 O 335.669 -1.47978 -1.25762 0
M  V30 3712 C 332.799 -2.8966 -1.9161 0
M  V30 3713 C 331.753 -3.9928 -1.5414 0
M  V30 3714 C 331.079 -4.53476 -2.83308 0
M  V30 3715 C 332.379 -5.17012 -0.741339 0
M  V30 3716 H 334.073 -2.99034 -0.147898 0
M  V30 3717 H 331.619 -1.43831 -0.0696951 0
M  V30 3718 H 333.572 -3.34852 -2.55836 0
M  V30 3719 H 332.296 -2.10746 -2.49507 0
M  V30 3720 H 330.955 -3.54799 -0.922668 0
M  V30 3721 H 330.603 -3.71308 -3.39322 0
M  V30 3722 H 330.303 -5.27451 -2.58976 0
M  V30 3723 H 331.827 -5.01378 -3.485 0
M  V30 3724 H 333.241 -5.58667 -1.28699 0
M  V30 3725 H 331.638 -5.97137 -0.595627 0
M  V30 3726 H 332.708 -4.8423 0.254851 0
M  V30 3727 N 334.051 0.0651679 -1.57465 0
M  V30 3728 C 335.467 0.420105 -1.53972 0
M  V30 3729 C 335.667 1.78782 -0.929474 0
M  V30 3730 O 334.723 2.46771 -0.534839 0
M  V30 3731 C 336.036 0.355084 -2.98596 0
M  V30 3732 C 337.584 0.434792 -3.09965 0
M  V30 3733 C 338.059 0.399609 -4.56253 0
M  V30 3734 N 339.55 0.459488 -4.60915 0
M  V30 3735 C 340.285 0.454584 -5.71595 0
M  V30 3736 N 339.781 0.404102 -6.9162 0
M  V30 3737 N 341.574 0.501635 -5.59857 0
M  V30 3738 H 333.725 -0.830328 -1.95498 0
M  V30 3739 H 335.988 -0.312244 -0.895102 0
M  V30 3740 H 335.694 -0.583357 -3.46828 0
M  V30 3741 H 335.568 1.16275 -3.58831 0
M  V30 3742 H 337.955 1.36366 -2.61703 0
M  V30 3743 H 338.036 -0.40157 -2.52628 0
M  V30 3744 H 337.68 -0.525436 -5.05175 0
M  V30 3745 H 337.61 1.25359 -5.11461 0
M  V30 3746 H 340.101 0.502482 -3.74544 0
M  V30 3747 H 340.414 0.404468 -7.71741 0
M  V30 3748 H 338.759 0.37069 -6.94011 0
M  V30 3749 H 341.95 0.538812 -4.64989 0
M  V30 3750 H 342.123 0.494345 -6.46112 0
M  V30 3751 N 335.529 1.53961 0.336706 0
M  V30 3752 C 336.477 1.83136 1.43401 0
M  V30 3753 C 337.471 0.702313 1.54156 0
M  V30 3754 O 338.677 0.885765 1.56698 0
M  V30 3755 H 335.052 0.580309 0.478273 0
M  V30 3756 H 337.023 2.74925 1.16012 0
M  V30 3757 C 335.772 2.06385 2.79822 0
M  V30 3758 H 335.095 2.92718 2.72316 0
M  V30 3759 H 336.535 2.30761 3.55704 0
M  V30 3760 C 334.994 0.851414 3.25964 0
M  V30 3761 O 335.524 0.0541904 4.01663 0
M  V30 3762 N 333.73 0.66672 2.82848 0
M  V30 3763 H 333.277 1.31665 2.21409 0
M  V30 3764 H 333.235 -0.143032 3.14074 0
M  V30 3765 N 337.007 -0.598083 1.45811 0
M  V30 3766 C 338.235 -1.38322 1.53866 0
M  V30 3767 C 338.65 -1.87992 0.174479 0
M  V30 3768 O 338.007 -1.62756 -0.825627 0
M  V30 3769 C 338.058 -2.58125 2.53089 0
M  V30 3770 O 337.779 -2.10516 3.84206 0
M  V30 3771 C 339.28 -3.50869 2.70935 0
M  V30 3772 H 336.5 -0.423093 0.520801 0
M  V30 3773 H 339.044 -0.728527 1.91083 0
M  V30 3774 H 337.199 -3.19615 2.18917 0
M  V30 3775 H 337.613 -2.88425 4.38077 0
M  V30 3776 H 339.087 -4.31451 3.44317 0
M  V30 3777 H 339.564 -4.01822 1.77301 0
M  V30 3778 H 340.17 -2.95225 3.06141 0
M  V30 3779 N 338.485 -1.33259 -0.841409 0
M  V30 3780 C 339.713 -1.27605 -1.62864 0
M  V30 3781 C 340.128 0.153507 -1.88175 0
M  V30 3782 O 339.485 1.09485 -1.46011 0
M  V30 3783 C 339.536 -2.04596 -2.98031 0
M  V30 3784 O 339.257 -3.41975 -2.73834 0
M  V30 3785 C 340.758 -2.06122 -3.92465 0
M  V30 3786 H 337.978 -0.439718 -0.506842 0
M  V30 3787 H 340.522 -1.75591 -1.04824 0
M  V30 3788 H 338.677 -1.60299 -3.5268 0
M  V30 3789 H 339.091 -3.81549 -3.59889 0
M  V30 3790 H 340.565 -2.64451 -4.84531 0
M  V30 3791 H 341.042 -1.05083 -4.26444 0
M  V30 3792 H 341.648 -2.50427 -3.43753 0
M  V30 3793 N 339.963 1.05934 -1.16686 0
M  V30 3794 C 340.873 2.17014 -0.891183 0
M  V30 3795 C 341.889 1.73453 0.137907 0
M  V30 3796 O 343.065 2.01361 -0.039592 0
M  V30 3797 C 340.13 3.44384 -0.400099 0
M  V30 3798 C 339.191 4.02433 -1.49486 0
M  V30 3799 C 338.424 5.23723 -1.02711 0
M  V30 3800 O 338.647 5.7027 0.121716 0
M  V30 3801 O 337.581 5.7382 -1.81699 0
M  V30 3802 H 341.407 2.43113 -1.82015 0
M  V30 3803 H 338.992 1.15541 -0.947132 0
M  V30 3804 H 340.874 4.21189 -0.133392 0
M  V30 3805 H 339.549 3.19802 0.500817 0
M  V30 3806 H 338.456 3.27102 -1.81535 0
M  V30 3807 H 339.789 4.31317 -2.37121 0
M  V30 3808 N 341.441 0.965919 1.2453 0
M  V30 3809 C 342.69 0.622437 1.91856 0
M  V30 3810 C 343.003 -0.846006 1.76358 0
M  V30 3811 O 344.209 -1.29993 2.38357 0
M  V30 3812 C 342.665 1.0626 3.43856 0
M  V30 3813 C 342.273 2.55437 3.68043 0
M  V30 3814 C 344.017 0.792183 4.17043 0
M  V30 3815 C 341.924 2.93196 5.13605 0
M  V30 3816 H 340.854 0.229092 0.718354 0
M  V30 3817 H 343.505 1.17189 1.41206 0
M  V30 3818 H 341.887 0.441476 3.93531 0
M  V30 3819 H 343.061 3.22665 3.28974 0
M  V30 3820 H 341.376 2.8007 3.08139 0
M  V30 3821 H 343.973 1.05031 5.24283 0
M  V30 3822 H 344.316 -0.271584 4.15413 0
M  V30 3823 H 344.849 1.37419 3.73311 0
M  V30 3824 H 341.588 3.98636 5.20355 0
M  V30 3825 H 341.108 2.30651 5.53679 0
M  V30 3826 H 342.787 2.83004 5.81823 0
M  V30 3827 N 342.919 -1.39368 0.735821 0
M  V30 3828 C 344.165 -2.00794 0.284544 0
M  V30 3829 C 344.498 -1.58255 -1.12557 0
M  V30 3830 O 343.773 -0.811819 -1.76748 0
M  V30 3831 C 344.056 -3.58011 0.387337 0
M  V30 3832 C 343.909 -4.10566 1.83728 0
M  V30 3833 C 345.228 -4.395 -0.22975 0
M  V30 3834 H 342.347 -0.729501 0.104866 0
M  V30 3835 H 344.989 -1.65564 0.93213 0
M  V30 3836 H 343.139 -3.88154 -0.164006 0
M  V30 3837 H 344.811 -3.91139 2.44556 0
M  V30 3838 H 343.054 -3.64095 2.35833 0
M  V30 3839 H 343.725 -5.19702 1.86047 0
M  V30 3840 H 346.201 -4.15406 0.240257 0
M  V30 3841 H 345.077 -5.48752 -0.127485 0
M  V30 3842 H 345.338 -4.22062 -1.3159 0
M  V30 3843 N 344.397 -0.483516 -1.5 0
M  V30 3844 C 345.625 0.0644831 -2.06799 0
M  V30 3845 C 346.04 1.32399 -1.34596 0
M  V30 3846 O 345.397 1.77626 -0.418946 0
M  V30 3847 C 345.448 0.339927 -3.59898 0
M  V30 3848 O 345.169 -0.869635 -4.29382 0
M  V30 3849 C 346.67 0.933515 -4.33359 0
M  V30 3850 H 343.89 -0.0126333 -0.670881 0
M  V30 3851 H 346.434 -0.675864 -1.93009 0
M  V30 3852 H 344.589 1.03022 -3.7345 0
M  V30 3853 H 345.003 -0.62179 -5.20801 0
M  V30 3854 H 346.477 1.07593 -5.41413 0
M  V30 3855 H 346.954 1.92685 -3.94676 0
M  V30 3856 H 347.56 0.281221 -4.24369 0
M  V30 3857 N 345.875 1.56104 -0.216619 0
M  V30 3858 C 347.103 2.02563 0.421413 0
M  V30 3859 C 347.518 1.0965 1.53695 0
M  V30 3860 O 346.875 0.10521 1.82196 0
M  V30 3861 C 346.926 3.48584 0.957665 0
M  V30 3862 O 346.647 4.37953 -0.113389 0
M  V30 3863 C 348.148 4.10664 1.66943 0
M  V30 3864 H 345.368 0.662944 0.103665 0
M  V30 3865 H 347.912 2.01793 -0.331629 0
M  V30 3866 H 346.067 3.49985 1.661 0
M  V30 3867 H 346.481 5.23704 0.288932 0
M  V30 3868 H 347.955 5.14622 1.99671 0
M  V30 3869 H 348.432 3.55373 2.58083 0
M  V30 3870 H 349.038 4.13098 1.01142 0
M  V30 3871 N 347.353 -0.0568162 1.57498 0
M  V30 3872 C 348.578 -0.769402 1.92601 0
M  V30 3873 C 349.003 -1.69559 0.814336 0
M  V30 3874 O 348.361 -1.79811 -0.231903 0
M  V30 3875 C 348.409 -1.52634 3.26704 0
M  V30 3876 O 347.513 -2.63797 3.16994 0
M  V30 3877 H 346.854 -0.208909 0.63028 0
M  V30 3878 H 349.384 -0.0205798 2.0459 0
M  V30 3879 H 349.394 -1.90234 3.60936 0
M  V30 3880 H 348.069 -0.846875 4.07186 0
M  V30 3881 H 346.646 -2.28943 2.94346 0
M  V30 3882 N 348.832 -1.54138 -0.328536 0
M  V30 3883 C 349.795 -1.82462 -1.38709 0
M  V30 3884 C 350.795 -0.696229 -1.44946 0
M  V30 3885 O 351.985 -0.964535 -1.4506 0
M  V30 3886 C 349.117 -1.98018 -2.77492 0
M  V30 3887 H 350.31 -2.77037 -1.14851 0
M  V30 3888 H 347.863 -1.45779 -0.563751 0
M  V30 3889 H 348.598 -1.05637 -3.06613 0
M  V30 3890 H 348.383 -2.80124 -2.74359 0
M  V30 3891 H 349.873 -2.21396 -3.54081 0
M  V30 3892 N 350.31 0.590341 -1.46126 0
M  V30 3893 C 351.558 1.34616 -1.50742 0
M  V30 3894 C 351.879 1.94363 -0.157486 0
M  V30 3895 O 351.149 1.78136 0.815136 0
M  V30 3896 H 349.729 0.499789 -0.555175 0
M  V30 3897 H 352.391 0.691953 -1.82203 0
M  V30 3898 H 351.487 2.15678 -2.25587 0
M  V30 3899 N 351.788 1.33704 0.83433 0
M  V30 3900 C 353.065 1.16011 1.57483 0
M  V30 3901 C 353.445 -0.27176 2.09343 0
M  V30 3902 O 352.793 -1.27146 1.89858 0
M  V30 3903 C 353.003 2.20507 2.70514 0
M  V30 3904 C 354.351 2.54898 3.39577 0
M  V30 3905 O 355.375 2.19209 2.80759 0
M  V30 3906 O 354.234 3.16158 4.45765 0
M  V30 3907 H 351.328 0.448992 0.694503 0
M  V30 3908 H 353.874 1.453 0.876691 0
M  V30 3909 H 352.646 3.16667 2.29865 0
M  V30 3910 H 352.269 1.92329 3.47987 0
M  V30 3911 N 353.266 -1.05314 1.17247 0
M  V30 3912 C 354.496 -1.81707 0.983166 0
M  V30 3913 C 354.904 -1.83222 -0.471822 0
M  V30 3914 O 354.247 -1.25721 -1.3394 0
M  V30 3915 C 354.309 -3.29134 1.44606 0
M  V30 3916 C 353.973 -3.51304 2.92292 0
M  V30 3917 C 354.97 -3.4353 3.90235 0
M  V30 3918 C 352.655 -3.78306 3.30439 0
M  V30 3919 C 354.649 -3.62442 5.24323 0
M  V30 3920 C 352.336 -3.96866 4.64694 0
M  V30 3921 C 353.334 -3.88933 5.61445 0
M  V30 3922 O 353.022 -4.06976 6.93272 0
M  V30 3923 H 352.754 -0.579476 0.348114 0
M  V30 3924 H 355.308 -1.33705 1.55924 0
M  V30 3925 H 353.538 -3.78046 0.813537 0
M  V30 3926 H 355.227 -3.87049 1.22262 0
M  V30 3927 H 355.993 -3.22648 3.62109 0
M  V30 3928 H 351.872 -3.83585 2.55702 0
M  V30 3929 H 355.416 -3.56165 5.99827 0
M  V30 3930 H 351.313 -4.1724 4.92525 0
M  V30 3931 H 352.081 -4.24209 6.99992 0
M  V30 3932 N 354.744 -0.972509 -1.24016 0
M  V30 3933 C 355.99 -0.637978 -1.92504 0
M  V30 3934 C 356.323 0.825383 -1.75787 0
M  V30 3935 O 355.598 1.59442 -1.11393 0
M  V30 3936 C 355.881 -1.01942 -3.45369 0
M  V30 3937 C 355.734 -2.53983 -3.71231 0
M  V30 3938 C 357.053 -0.55751 -4.36555 0
M  V30 3939 H 354.172 -0.233248 -0.699117 0
M  V30 3940 H 356.814 -1.21238 -1.46292 0
M  V30 3941 H 354.964 -0.530656 -3.84859 0
M  V30 3942 H 356.636 -3.10374 -3.41271 0
M  V30 3943 H 354.879 -2.96968 -3.16216 0
M  V30 3944 H 355.55 -2.75723 -4.78206 0
M  V30 3945 H 358.026 -0.977029 -4.04467 0
M  V30 3946 H 356.902 -0.85292 -5.42233 0
M  V30 3947 H 357.163 0.542328 -4.38761 0
M  V30 3948 N 356.222 1.38976 -0.743202 0
M  V30 3949 C 357.468 2.0064 -0.295189 0
M  V30 3950 C 357.801 1.5885 1.11716 0
M  V30 3951 O 357.076 0.821181 1.76315 0
M  V30 3952 C 357.359 3.578 -0.406318 0
M  V30 3953 C 357.212 4.09586 -1.85903 0
M  V30 3954 C 358.531 4.39616 0.206439 0
M  V30 3955 H 355.65 0.728935 -0.108733 0
M  V30 3956 H 358.292 1.65067 -0.940897 0
M  V30 3957 H 356.442 3.88235 0.143419 0
M  V30 3958 H 358.114 3.89837 -2.46627 0
M  V30 3959 H 356.357 3.6284 -2.3776 0
M  V30 3960 H 357.028 5.18708 -1.888 0
M  V30 3961 H 359.504 4.15273 -0.262283 0
M  V30 3962 H 358.38 5.48812 0.0983819 0
M  V30 3963 H 358.641 4.22754 1.2935 0
M  V30 3964 N 357.7 0.491464 1.49741 0
M  V30 3965 C 358.633 -0.338464 2.25676 0
M  V30 3966 C 359.611 -0.978676 1.29849 0
M  V30 3967 O 360.795 -1.01064 1.59117 0
M  V30 3968 C 357.922 -1.47588 3.04853 0
M  V30 3969 C 356.968 -0.951 4.15762 0
M  V30 3970 S 357.801 0.150626 5.35288 0
M  V30 3971 C 358.957 -0.990178 6.18018 0
M  V30 3972 H 359.19 0.306068 2.9572 0
M  V30 3973 H 356.723 0.276622 1.51902 0
M  V30 3974 H 358.681 -2.12764 3.51058 0
M  V30 3975 H 357.342 -2.09199 2.34296 0
M  V30 3976 H 356.535 -1.80311 4.70642 0
M  V30 3977 H 356.137 -0.376607 3.72099 0
M  V30 3978 H 358.429 -1.89748 6.50386 0
M  V30 3979 H 359.372 -0.480205 7.0647 0
M  V30 3980 H 359.78 -1.25321 5.50413 0
M  V30 3981 N 359.178 -1.55987 0.224894 0
M  V30 3982 C 360.406 -2.02784 -0.410665 0
M  V30 3983 C 360.821 -1.10464 -1.53112 0
M  V30 3984 O 360.178 -0.114871 -1.82138 0
M  V30 3985 C 360.229 -3.49087 -0.939165 0
M  V30 3986 O 359.95 -4.37887 0.136614 0
M  V30 3987 C 361.451 -4.11543 -1.64763 0
M  V30 3988 H 358.671 -0.663484 -0.100148 0
M  V30 3989 H 361.215 -2.01614 0.342326 0
M  V30 3990 H 359.37 -3.50861 -1.64242 0
M  V30 3991 H 359.784 -5.23849 -0.261155 0
M  V30 3992 H 361.258 -5.15673 -1.96939 0
M  V30 3993 H 361.735 -3.56736 -2.56195 0
M  V30 3994 H 362.341 -4.13629 -0.989503 0
M  V30 3995 N 360.656 0.0484629 -1.57525 0
M  V30 3996 C 361.905 0.742065 -1.87553 0
M  V30 3997 C 362.218 1.77545 -0.820802 0
M  V30 3998 O 363.424 2.52027 -1.00967 0
M  V30 3999 C 361.88 1.37081 -3.32771 0
M  V30 4000 C 361.488 0.374786 -4.4643 0
M  V30 4001 C 363.232 2.04542 -3.71972 0
M  V30 4002 C 361.139 1.01077 -5.82698 0
M  V30 4003 H 360.069 0.280903 -0.699721 0
M  V30 4004 H 362.72 -0.00411877 -1.835 0
M  V30 4005 H 361.102 2.16605 -3.31509 0
M  V30 4006 H 362.276 -0.392331 -4.59127 0
M  V30 4007 H 360.591 -0.196653 -4.15935 0
M  V30 4008 H 363.188 2.52943 -4.71088 0
M  V30 4009 H 363.531 2.85515 -3.02964 0
M  V30 4010 H 364.064 1.31819 -3.75325 0
M  V30 4011 H 360.803 0.240878 -6.55057 0
M  V30 4012 H 360.323 1.74819 -5.73758 0
M  V30 4013 H 362.002 1.52383 -6.28799 0
M  V30 4014 N 362.134 1.5431 0.320358 0
M  V30 4015 C 363.364 1.7638 1.07582 0
M  V30 4016 C 363.772 0.513944 1.82086 0
M  V30 4017 O 363.115 -0.525123 1.76035 0
M  V30 4018 C 363.177 2.9055 2.1171 0
M  V30 4019 C 362.841 4.2934 1.56575 0
M  V30 4020 C 363.838 5.10077 1.00586 0
M  V30 4021 C 361.523 4.75893 1.60722 0
M  V30 4022 C 363.517 6.35477 0.494756 0
M  V30 4023 C 361.204 6.0126 1.09224 0
M  V30 4024 C 362.202 6.80886 0.53696 0
M  V30 4025 O 361.89 8.03894 0.0297371 0
M  V30 4026 H 361.622 0.592369 0.325692 0
M  V30 4027 H 364.176 2.02019 0.37116 0
M  V30 4028 H 362.406 2.60489 2.85801 0
M  V30 4029 H 364.095 3.00373 2.73003 0
M  V30 4030 H 364.861 4.75265 0.966869 0
M  V30 4031 H 360.74 4.13957 2.02882 0
M  V30 4032 H 364.284 6.97574 0.0606842 0
M  V30 4033 H 360.181 6.35562 1.12831 0
M  V30 4034 H 360.949 8.18372 0.14486 0
M  V30 4035 N 363.613 -0.582584 1.46437 0
M  V30 4036 C 364.86 -1.34079 1.51753 0
M  V30 4037 C 365.188 -1.93762 0.169299 0
M  V30 4038 O 364.443 -1.76989 -0.835062 0
M  V30 4039 C 364.742 -2.48964 2.56421 0
M  V30 4040 C 364.408 -2.07273 4.00436 0
M  V30 4041 C 363.07 -1.95618 4.39644 0
M  V30 4042 C 365.422 -1.75111 4.90903 0
M  V30 4043 C 362.75 -1.5006 5.67185 0
M  V30 4044 C 365.102 -1.31032 6.18881 0
M  V30 4045 C 363.766 -1.17954 6.56996 0
M  V30 4046 H 363.036 -0.49063 0.555304 0
M  V30 4047 H 365.683 -0.656007 1.79913 0
M  V30 4048 H 363.988 -3.22889 2.21923 0
M  V30 4049 H 365.685 -3.07178 2.57765 0
M  V30 4050 H 362.275 -2.17279 3.69443 0
M  V30 4051 H 366.459 -1.83001 4.61329 0
M  V30 4052 H 361.715 -1.38577 5.95488 0
M  V30 4053 H 365.889 -1.052 6.88408 0
M  V30 4054 H 363.516 -0.824279 7.55718 0
M  V30 4055 N 365.091 -1.34144 -0.827227 0
M  V30 4056 C 366.001 -1.27428 -1.96975 0
M  V30 4057 C 367.017 -0.182728 -1.73038 0
M  V30 4058 O 368.193 -0.408426 -1.97215 0
M  V30 4059 C 365.258 -1.02526 -3.31194 0
M  V30 4060 C 364.319 -2.20796 -3.68168 0
M  V30 4061 C 363.552 -1.97073 -4.95982 0
M  V30 4062 O 363.775 -0.926822 -5.6282 0
M  V30 4063 O 362.709 -2.83912 -5.30733 0
M  V30 4064 H 366.535 -2.23537 -2.05584 0
M  V30 4065 H 364.12 -1.14307 -0.961989 0
M  V30 4066 H 366.002 -0.904026 -4.11589 0
M  V30 4067 H 364.677 -0.0945389 -3.23562 0
M  V30 4068 H 363.584 -2.38477 -2.88235 0
M  V30 4069 H 364.917 -3.12243 -3.8048 0
M  V30 4070 N 366.569 1.04691 -1.17803 0
M  V30 4071 C 367.499 2.14494 -0.92275 0
M  V30 4072 C 368.48 1.69546 0.137179 0
M  V30 4073 O 369.665 1.94195 -0.0141108 0
M  V30 4074 C 366.795 3.44491 -0.440803 0
M  V30 4075 C 365.749 4.03031 -1.4405 0
M  V30 4076 C 365.075 5.28432 -0.81631 0
M  V30 4077 C 366.375 4.39932 -2.81527 0
M  V30 4078 H 368.069 2.36107 -1.84103 0
M  V30 4079 H 365.615 1.1347 -0.886599 0
M  V30 4080 H 367.568 4.2066 -0.249602 0
M  V30 4081 H 366.292 3.22546 0.513025 0
M  V30 4082 H 364.951 3.28937 -1.61853 0
M  V30 4083 H 364.599 5.02792 0.144511 0
M  V30 4084 H 364.299 5.68559 -1.48371 0
M  V30 4085 H 365.823 6.07284 -0.635496 0
M  V30 4086 H 367.237 5.07113 -2.67412 0
M  V30 4087 H 365.634 4.9109 -3.44892 0
M  V30 4088 H 366.704 3.50045 -3.35554 0
M  V30 4089 N 368.047 0.979072 1.23499 0
M  V30 4090 C 369.272 0.664845 1.96455 0
M  V30 4091 C 369.697 -0.761287 1.72006 0
M  V30 4092 O 369.055 -1.51837 0.990713 0
M  V30 4093 C 369.103 0.959479 3.47601 0
M  V30 4094 O 368.207 0.0508168 4.12369 0
M  V30 4095 H 367.548 0.250185 0.615064 0
M  V30 4096 H 370.078 1.31231 1.5697 0
M  V30 4097 H 370.088 0.895642 3.98048 0
M  V30 4098 H 368.763 1.99876 3.64723 0
M  V30 4099 H 367.34 0.16895 3.72517 0
M  V30 4100 N 369.525 -1.3858 0.750561 0
M  V30 4101 C 370.941 -1.53759 0.427824 0
M  V30 4102 C 371.141 -1.71401 -1.05943 0
M  V30 4103 O 370.197 -1.72331 -1.84549 0
M  V30 4104 C 371.51 -2.74642 1.22443 0
M  V30 4105 C 373.058 -2.88489 1.2142 0
M  V30 4106 C 373.533 -4.12329 1.9937 0
M  V30 4107 N 375.024 -4.194 1.96616 0
M  V30 4108 C 375.759 -5.14209 2.53727 0
M  V30 4109 N 375.255 -6.14709 3.19539 0
M  V30 4110 N 377.048 -5.06537 2.43673 0
M  V30 4111 H 369.199 -1.25377 1.71447 0
M  V30 4112 H 371.462 -0.608844 0.726645 0
M  V30 4113 H 371.168 -2.68 2.27747 0
M  V30 4114 H 371.042 -3.67745 0.839273 0
M  V30 4115 H 373.429 -2.94614 0.169232 0
M  V30 4116 H 373.51 -1.96406 1.63885 0
M  V30 4117 H 373.154 -4.06966 3.03877 0
M  V30 4118 H 373.084 -5.03486 1.54302 0
M  V30 4119 H 375.575 -3.47421 1.48684 0
M  V30 4120 H 375.888 -6.8354 3.60545 0
M  V30 4121 H 374.233 -6.1505 3.23633 0
M  V30 4122 H 377.424 -4.26962 1.91889 0
M  V30 4123 H 377.597 -5.80245 2.88479 0
M  V30 4124 N 371.003 -0.499398 -1.49478 0
M  V30 4125 C 372.419 -0.155261 -1.58843 0
M  V30 4126 C 372.619 1.34008 -1.50479 0
M  V30 4127 O 371.675 2.11589 -1.37791 0
M  V30 4128 C 372.988 -0.730636 -2.91689 0
M  V30 4129 C 374.536 -0.696599 -3.0515 0
M  V30 4130 C 375.011 -1.25001 -4.40612 0
M  V30 4131 N 376.502 -1.21064 -4.47099 0
M  V30 4132 C 377.237 -1.60905 -5.50361 0
M  V30 4133 N 376.733 -2.08331 -6.60735 0
M  V30 4134 N 378.526 -1.52331 -5.41065 0
M  V30 4135 H 370.677 -1.47162 -1.53158 0
M  V30 4136 H 372.94 -0.610309 -0.725415 0
M  V30 4137 H 372.646 -1.77928 -3.03372 0
M  V30 4138 H 372.52 -0.190161 -3.7672 0
M  V30 4139 H 374.907 0.343204 -2.93097 0
M  V30 4140 H 374.988 -1.2742 -2.21806 0
M  V30 4141 H 374.632 -2.28859 -4.53416 0
M  V30 4142 H 374.562 -0.64836 -5.22593 0
M  V30 4143 H 377.053 -0.863128 -3.67911 0
M  V30 4144 H 377.366 -2.36805 -7.35624 0
M  V30 4145 H 375.711 -2.12304 -6.6178 0
M  V30 4146 H 378.902 -1.151 -4.53729 0
M  V30 4147 H 379.075 -1.83704 -6.21415 0
M  V30 4148 N 372.481 1.55866 -0.233164 0
M  V30 4149 C 373.414 2.16794 0.712442 0
M  V30 4150 C 374.392 1.1158 1.18273 0
M  V30 4151 O 375.576 1.39897 1.26337 0
M  V30 4152 C 372.703 2.75757 1.96661 0
M  V30 4153 C 371.749 3.93902 1.63533 0
M  V30 4154 S 372.582 5.30223 0.74995 0
M  V30 4155 C 373.738 5.92631 2.01343 0
M  V30 4156 H 373.971 2.96662 0.194617 0
M  V30 4157 H 371.504 1.5439 -0.0177425 0
M  V30 4158 H 373.462 3.10367 2.68668 0
M  V30 4159 H 372.123 1.9586 2.45556 0
M  V30 4160 H 371.316 4.33702 2.56747 0
M  V30 4161 H 370.918 3.60499 0.995804 0
M  V30 4162 H 373.21 6.09312 2.96219 0
M  V30 4163 H 374.153 6.88388 1.65915 0
M  V30 4164 H 374.561 5.21571 2.15925 0
M  V30 4165 N 373.959 -0.0401083 1.57549 0
M  V30 4166 C 375.207 -0.731677 1.8839 0
M  V30 4167 C 375.528 -1.76481 0.829425 0
M  V30 4168 O 374.798 -1.95411 -0.1383 0
M  V30 4169 H 373.378 -0.273225 0.695239 0
M  V30 4170 H 376.04 -0.00867725 1.94898 0
M  V30 4171 H 375.136 -1.22816 2.86919 0
M  V30 4172 N 375.437 -1.54477 -0.31217 0
M  V30 4173 C 376.667 -1.76948 -1.06645 0
M  V30 4174 C 377.075 -0.523593 -1.81811 0
M  V30 4175 O 376.418 0.51578 -1.76311 0
M  V30 4176 C 376.48 -2.91668 -2.10166 0
M  V30 4177 C 376.144 -4.30165 -1.54296 0
M  V30 4178 C 377.141 -5.10603 -0.978793 0
M  V30 4179 C 374.826 -4.76738 -1.58196 0
M  V30 4180 C 376.82 -6.3573 -0.461048 0
M  V30 4181 C 374.507 -6.01831 -1.06034 0
M  V30 4182 C 375.505 -6.81161 -0.500844 0
M  V30 4183 O 375.193 -8.03899 0.0128958 0
M  V30 4184 H 374.925 -0.594088 -0.322546 0
M  V30 4185 H 377.479 -2.02213 -0.360441 0
M  V30 4186 H 375.709 -2.62001 -2.84416 0
M  V30 4187 H 377.398 -3.01817 -2.71406 0
M  V30 4188 H 378.164 -4.75771 -0.941651 0
M  V30 4189 H 374.043 -4.15027 -2.00683 0
M  V30 4190 H 377.587 -6.97596 -0.0236894 0
M  V30 4191 H 373.484 -6.36152 -1.09459 0
M  V30 4192 H 374.252 -8.18437 -0.101457 0
M  V30 4193 N 376.915 0.57481 -1.46744 0
M  V30 4194 C 378.162 1.33272 -1.52462 0
M  V30 4195 C 378.49 1.93669 -0.179572 0
M  V30 4196 O 377.745 1.7743 0.825664 0
M  V30 4197 C 378.044 2.476 -2.57738 0
M  V30 4198 C 377.71 2.05146 -4.01529 0
M  V30 4199 C 376.372 1.93284 -4.40676 0
M  V30 4200 C 378.724 1.72506 -4.91824 0
M  V30 4201 C 376.052 1.47049 -5.67973 0
M  V30 4202 C 378.404 1.27748 -6.19567 0
M  V30 4203 C 377.068 1.14468 -6.57612 0
M  V30 4204 H 376.338 0.487678 -0.557899 0
M  V30 4205 H 378.985 0.646456 -1.80259 0
M  V30 4206 H 377.29 3.21708 -2.23632 0
M  V30 4207 H 378.987 3.05807 -2.5939 0
M  V30 4208 H 375.577 2.15316 -3.7059 0
M  V30 4209 H 379.761 1.80552 -4.62293 0
M  V30 4210 H 375.017 1.35417 -5.96215 0
M  V30 4211 H 379.191 1.01547 -6.88957 0
M  V30 4212 H 376.818 0.78419 -7.56145 0
M  V30 4213 N 378.394 1.34581 0.820102 0
M  V30 4214 C 379.622 1.3018 1.60813 0
M  V30 4215 C 380.037 -0.123551 1.88395 0
M  V30 4216 O 379.394 -1.07148 1.47735 0
M  V30 4217 C 379.445 2.09312 2.94739 0
M  V30 4218 O 379.166 3.46288 2.68358 0
M  V30 4219 C 380.667 2.1234 3.89136 0
M  V30 4220 H 377.887 0.447726 0.499782 0
M  V30 4221 H 380.431 1.77237 1.02017 0
M  V30 4222 H 378.586 1.65889 3.50085 0
M  V30 4223 H 379 3.87227 3.53774 0
M  V30 4224 H 380.474 2.72126 4.80262 0
M  V30 4225 H 380.951 1.11854 4.24718 0
M  V30 4226 H 381.557 2.55864 3.39726 0
M  V30 4227 N 379.872 -1.04064 1.18357 0
M  V30 4228 C 381.121 -1.76662 0.973313 0
M  V30 4229 C 381.434 -1.89154 -0.497991 0
M  V30 4230 O 382.64 -2.58606 -0.826762 0
M  V30 4231 C 381.096 -3.17624 1.69242 0
M  V30 4232 C 380.704 -3.13225 3.20303 0
M  V30 4233 C 382.448 -3.946 1.56497 0
M  V30 4234 C 380.355 -4.49046 3.84853 0
M  V30 4235 H 379.285 -0.662214 0.36054 0
M  V30 4236 H 381.936 -1.16553 1.41731 0
M  V30 4237 H 380.318 -3.78129 1.1762 0
M  V30 4238 H 381.492 -2.62172 3.78949 0
M  V30 4239 H 379.807 -2.49749 3.33189 0
M  V30 4240 H 382.404 -4.95042 2.02084 0
M  V30 4241 H 382.747 -4.13074 0.517243 0
M  V30 4242 H 383.28 -3.4067 2.05399 0
M  V30 4243 H 380.019 -4.35777 4.89672 0
M  V30 4244 H 379.539 -5.00203 3.30994 0
M  V30 4245 H 381.218 -5.17961 3.87718 0
M  V30 4246 N 381.35 -0.985608 -1.22978 0
M  V30 4247 C 382.282 -0.488154 -2.23941 0
M  V30 4248 C 383.295 0.41282 -1.57479 0
M  V30 4249 O 384.484 0.216121 -1.77187 0
M  V30 4250 C 381.584 0.312611 -3.37455 0
M  V30 4251 C 380.757 -0.582741 -4.33501 0
M  V30 4252 C 379.816 0.165064 -5.25941 0
M  V30 4253 O 378.842 -0.447077 -5.67442 0
M  V30 4254 N 380.044 1.44953 -5.62111 0
M  V30 4255 H 382.809 -1.3563 -2.67254 0
M  V30 4256 H 380.37 -0.859477 -1.37203 0
M  V30 4257 H 382.362 0.821357 -3.96277 0
M  V30 4258 H 380.932 1.0818 -2.93285 0
M  V30 4259 H 380.152 -1.27225 -3.73105 0
M  V30 4260 H 381.44 -1.19275 -4.94622 0
M  V30 4261 H 380.838 1.9683 -5.30353 0
M  V30 4262 H 379.395 1.90361 -6.23383 0
M  V30 4263 N 382.828 1.3818 -0.7579 0
M  V30 4264 C 384.056 2.04301 -0.326937 0
M  V30 4265 C 384.471 1.57163 1.0462 0
M  V30 4266 O 383.828 0.746626 1.66529 0
M  V30 4267 C 383.879 3.59846 -0.345363 0
M  V30 4268 O 383.6 4.05256 -1.66432 0
M  V30 4269 C 385.101 4.4319 0.098927 0
M  V30 4270 H 382.321 0.656443 -0.139012 0
M  V30 4271 H 384.865 1.76786 -1.02796 0
M  V30 4272 H 383.02 3.86182 0.306955 0
M  V30 4273 H 383.434 4.99709 -1.59345 0
M  V30 4274 H 384.908 5.51989 0.0348745 0
M  V30 4275 H 385.385 4.23947 1.14741 0
M  V30 4276 H 385.991 4.22051 -0.52468 0
M  V30 4277 N 384.306 0.507319 1.49211 0
M  V30 4278 C 385.536 -0.0315292 2.06576 0
M  V30 4279 C 385.944 -1.30791 1.36713 0
M  V30 4280 O 385.287 -1.78324 0.441181 0
M  V30 4281 C 385.349 -0.349104 3.57801 0
M  V30 4282 C 385.013 0.830475 4.49391 0
M  V30 4283 C 386.01 1.72271 4.90529 0
M  V30 4284 C 383.695 1.03107 4.91604 0
M  V30 4285 C 385.689 2.79964 5.72625 0
M  V30 4286 C 383.376 2.11116 5.73475 0
M  V30 4287 C 384.374 2.99379 6.1389 0
M  V30 4288 O 384.062 4.05523 6.94123 0
M  V30 4289 H 383.794 0.0201002 0.675701 0
M  V30 4290 H 386.348 0.705737 1.92895 0
M  V30 4291 H 384.578 -1.14005 3.69513 0
M  V30 4292 H 386.267 -0.827319 3.97379 0
M  V30 4293 H 387.033 1.57958 4.58557 0
M  V30 4294 H 382.912 0.353417 4.59643 0
M  V30 4295 H 386.456 3.48884 6.04091 0
M  V30 4296 H 382.353 2.25421 6.0486 0
M  V30 4297 H 383.121 4.02953 7.1244 0
M  V30 4298 N 385.784 -1.5574 0.241426 0
M  V30 4299 C 387.033 -1.97986 -0.385295 0
M  V30 4300 C 387.346 -1.13267 -1.59468 0
M  V30 4301 O 388.552 -1.45501 -2.2922 0
M  V30 4302 C 387.008 -3.52275 -0.736884 0
M  V30 4303 C 386.616 -4.45726 0.450796 0
M  V30 4304 C 388.36 -4.03189 -1.3281 0
M  V30 4305 C 386.267 -5.91352 0.0756662 0
M  V30 4306 H 385.197 -0.739386 -0.147731 0
M  V30 4307 H 387.848 -1.80308 0.340779 0
M  V30 4308 H 386.23 -3.65628 -1.52094 0
M  V30 4309 H 387.404 -4.44131 1.22819 0
M  V30 4310 H 385.719 -4.05264 0.956573 0
M  V30 4311 H 388.316 -5.09505 -1.62201 0
M  V30 4312 H 388.659 -3.50212 -2.25071 0
M  V30 4313 H 389.192 -3.93141 -0.607069 0
M  V30 4314 H 385.931 -6.48354 0.965272 0
M  V30 4315 H 385.451 -5.96095 -0.665635 0
M  V30 4316 H 387.13 -6.46084 -0.344075 0
M  V30 4317 N 387.262 0.0317525 -1.57568 0
M  V30 4318 C 388.673 0.578692 -1.77505 0
M  V30 4319 C 389.024 1.75749 -0.872164 0
M  V30 4320 O 388.149 2.16298 -0.0663106 0
M  V30 4321 C 388.744 1.05658 -3.21904 0
M  V30 4322 C 387.303 1.54906 -3.43047 0
M  V30 4323 C 386.45 0.485939 -2.73009 0
M  V30 4324 H 389.401 -0.194475 -1.57504 0
M  V30 4325 H 389.422 1.92404 -3.28269 0
M  V30 4326 H 388.934 0.198422 -3.87592 0
M  V30 4327 H 387.035 2.42915 -2.82529 0
M  V30 4328 H 387.148 1.59841 -4.5165 0
M  V30 4329 H 385.512 0.940354 -2.36705 0
M  V30 4330 H 386.295 -0.362709 -3.41379 0
M  V30 4331 N 388.74 1.54641 0.303973 0
M  V30 4332 C 389.98 1.75516 1.04755 0
M  V30 4333 C 390.344 0.528211 1.84591 0
M  V30 4334 O 391.545 0.614645 2.61678 0
M  V30 4335 C 389.816 3.00685 1.93193 0
M  V30 4336 S 391.375 3.42549 2.74237 0
M  V30 4337 H 388.193 0.616987 0.353339 0
M  V30 4338 H 390.795 1.92842 0.321292 0
M  V30 4339 H 389.499 3.8811 1.33411 0
M  V30 4340 H 389.03 2.85937 2.70191 0
M  V30 4341 H 391.045 2.99386 3.95705 0
M  V30 4342 N 390.218 -0.567019 1.47046 0
M  V30 4343 C 391.467 -1.32091 1.5243 0
M  V30 4344 C 391.78 -1.94704 0.187021 0
M  V30 4345 O 392.986 -2.7124 0.118771 0
M  V30 4346 C 391.442 -2.39479 2.68659 0
M  V30 4347 C 391.05 -1.831 4.08874 0
M  V30 4348 C 392.794 -3.16111 2.83327 0
M  V30 4349 C 390.701 -2.8821 5.16419 0
M  V30 4350 H 389.631 -0.496629 0.56734 0
M  V30 4351 H 392.282 -0.603354 1.73297 0
M  V30 4352 H 390.664 -3.14105 2.41152 0
M  V30 4353 H 391.838 -1.14913 4.46242 0
M  V30 4354 H 390.153 -1.19085 3.99008 0
M  V30 4355 H 392.75 -3.94585 3.60842 0
M  V30 4356 H 393.093 -3.69686 1.91411 0
M  V30 4357 H 393.626 -2.48595 3.10556 0
M  V30 4358 H 390.365 -2.39504 6.10179 0
M  V30 4359 H 389.885 -3.54839 4.8358 0
M  V30 4360 H 391.564 -3.51881 5.42945 0
M  V30 4361 N 391.696 -1.35014 -0.812953 0
M  V30 4362 C 392.626 -1.30069 -1.93919 0
M  V30 4363 C 393.607 -0.176275 -1.69184 0
M  V30 4364 O 394.792 -0.370227 -1.90638 0
M  V30 4365 C 391.922 -1.06547 -3.30552 0
M  V30 4366 C 390.876 -2.15561 -3.69753 0
M  V30 4367 C 390.202 -1.77214 -5.04479 0
M  V30 4368 C 391.502 -3.57476 -3.808 0
M  V30 4369 H 393.196 -2.24303 -1.98314 0
M  V30 4370 H 390.742 -1.07977 -0.952736 0
M  V30 4371 H 392.695 -1.01729 -4.08937 0
M  V30 4372 H 391.419 -0.0875719 -3.26483 0
M  V30 4373 H 390.078 -2.19466 -2.9365 0
M  V30 4374 H 389.726 -0.780589 -4.96906 0
M  V30 4375 H 389.426 -2.50184 -5.31678 0
M  V30 4376 H 390.95 -1.7391 -5.8531 0
M  V30 4377 H 392.364 -3.55929 -4.4943 0
M  V30 4378 H 390.761 -4.29152 -4.19462 0
M  V30 4379 H 391.831 -3.94091 -2.82525 0
M  V30 4380 N 393.175 1.03435 -1.18907 0
M  V30 4381 C 394.403 1.80381 -1.01342 0
M  V30 4382 C 394.818 1.83649 0.438005 0
M  V30 4383 O 394.175 1.27655 1.30424 0
M  V30 4384 C 394.226 3.25689 -1.56873 0
M  V30 4385 O 393.947 3.22673 -2.96334 0
M  V30 4386 C 395.448 4.19255 -1.44014 0
M  V30 4387 H 392.668 0.56784 -0.35749 0
M  V30 4388 H 395.212 1.30317 -1.576 0
M  V30 4389 H 393.367 3.72962 -1.04777 0
M  V30 4390 H 393.781 4.13748 -3.22355 0
M  V30 4391 H 395.255 5.19123 -1.87657 0
M  V30 4392 H 395.732 4.37467 -0.389815 0
M  V30 4393 H 396.338 3.77851 -1.95214 0
M  V30 4394 N 394.653 0.992116 1.22453 0
M  V30 4395 C 395.899 0.668523 1.91464 0
M  V30 4396 C 396.232 -0.797313 1.77078 0
M  V30 4397 O 395.507 -1.5765 1.13916 0
M  V30 4398 C 395.79 1.07424 3.43703 0
M  V30 4399 C 395.643 2.59857 3.67143 0
M  V30 4400 C 396.962 0.626891 4.35612 0
M  V30 4401 H 394.081 0.244341 0.695318 0
M  V30 4402 H 396.723 1.2355 1.44345 0
M  V30 4403 H 394.873 0.591816 3.83966 0
M  V30 4404 H 396.545 3.15764 3.3629 0
M  V30 4405 H 394.788 3.01961 3.11451 0
M  V30 4406 H 395.459 2.83296 4.73759 0
M  V30 4407 H 397.935 1.04125 4.02861 0
M  V30 4408 H 396.811 0.939076 5.40807 0
M  V30 4409 H 397.072 -0.472457 4.39568 0
M  V30 4410 N 396.131 -1.37776 0.765217 0
M  V30 4411 C 397.377 -2.00145 0.327072 0
M  V30 4412 C 397.71 -1.60607 -1.09175 0
M  V30 4413 O 396.985 -0.849127 -1.74986 0
M  V30 4414 C 397.268 -3.57109 0.46319 0
M  V30 4415 C 397.121 -4.06576 1.92395 0
M  V30 4416 C 398.44 -4.39888 -0.136473 0
M  V30 4417 H 395.559 -0.727113 0.120316 0
M  V30 4418 H 398.201 -1.63549 0.967039 0
M  V30 4419 H 396.351 -3.88414 -0.0816358 0
M  V30 4420 H 398.023 -3.85864 2.52798 0
M  V30 4421 H 396.266 -3.59011 2.43503 0
M  V30 4422 H 396.937 -5.15639 1.97028 0
M  V30 4423 H 399.413 -4.14803 0.328317 0
M  V30 4424 H 398.289 -5.48899 -0.0110582 0
M  V30 4425 H 398.55 -4.24758 -1.22608 0
M  V30 4426 N 397.609 -0.515225 -1.4894 0
M  V30 4427 C 398.539 0.244628 -2.32215 0
M  V30 4428 C 399.52 0.949136 -1.41157 0
M  V30 4429 O 400.705 0.937783 -1.70057 0
M  V30 4430 C 397.835 1.30096 -3.22013 0
M  V30 4431 C 396.789 0.715486 -4.21977 0
M  V30 4432 C 396.115 1.87339 -5.00808 0
M  V30 4433 C 397.415 -0.302982 -5.2142 0
M  V30 4434 H 399.109 -0.450501 -2.95991 0
M  V30 4435 H 396.655 -0.218098 -1.42339 0
M  V30 4436 H 398.608 1.84037 -3.79089 0
M  V30 4437 H 397.332 2.02547 -2.56207 0
M  V30 4438 H 395.991 0.197715 -3.66066 0
M  V30 4439 H 395.639 2.58592 -4.31438 0
M  V30 4440 H 395.339 1.48764 -5.68457 0
M  V30 4441 H 396.863 2.41686 -5.60732 0
M  V30 4442 H 398.277 0.148802 -5.73107 0
M  V30 4443 H 396.674 -0.60532 -5.97039 0
M  V30 4444 H 397.744 -1.21395 -4.69459 0
M  V30 4445 N 399.087 1.5561 -0.249682 0
M  V30 4446 C 400.312 2.03865 0.381305 0
M  V30 4447 C 400.737 1.12769 1.50548 0
M  V30 4448 O 400.095 0.121189 1.80895 0
M  V30 4449 C 400.143 3.50101 0.863816 0
M  V30 4450 O 399.247 3.62132 1.97318 0
M  V30 4451 H 398.588 0.658827 0.0827194 0
M  V30 4452 H 401.118 2.01105 -0.376552 0
M  V30 4453 H 401.128 3.90975 1.1663 0
M  V30 4454 H 399.803 4.1588 0.0411816 0
M  V30 4455 H 398.38 3.33155 1.67517 0
M  V30 4456 N 400.565 -0.0233959 1.57583 0
M  V30 4457 C 401.811 -0.708611 1.90657 0
M  V30 4458 C 402.166 -1.7266 0.848895 0
M  V30 4459 O 401.459 -1.91075 -0.141749 0
M  V30 4460 C 401.653 -1.41428 3.28227 0
M  V30 4461 C 401.482 -0.466155 4.47277 0
M  V30 4462 C 400.252 -0.085117 5.05228 0
M  V30 4463 C 402.45 0.257836 5.13653 0
M  V30 4464 N 400.432 0.863672 6.07794 0
M  V30 4465 C 401.803 1.06209 6.10835 0
M  V30 4466 C 403.858 0.324174 4.96844 0
M  V30 4467 C 402.561 1.9266 6.93018 0
M  V30 4468 C 404.587 1.17583 5.79593 0
M  V30 4469 C 403.949 1.96799 6.7635 0
M  V30 4470 H 400.048 -0.233222 0.746412 0
M  V30 4471 H 402.632 0.0314512 1.94675 0
M  V30 4472 H 400.803 -2.12477 3.25128 0
M  V30 4473 H 402.535 -2.05233 3.488 0
M  V30 4474 H 399.29 -0.448516 4.71471 0
M  V30 4475 H 399.714 1.33274 6.63752 0
M  V30 4476 H 404.356 -0.273975 4.21911 0
M  V30 4477 H 402.074 2.53552 7.67292 0
M  V30 4478 H 405.66 1.23076 5.68633 0
M  V30 4479 H 404.54 2.61635 7.39268 0
M  V30 4480 N 402.043 -1.548 -0.295768 0
M  V30 4481 C 403.289 -1.74588 -1.03184 0
M  V30 4482 C 403.622 -0.532962 -1.86744 0
M  V30 4483 O 402.897 0.469872 -1.88739 0
M  V30 4484 C 403.18 -3.03791 -1.93347 0
M  V30 4485 C 403.033 -4.35392 -1.12933 0
M  V30 4486 C 404.352 -3.28892 -2.92435 0
M  V30 4487 H 401.471 -0.635221 -0.373715 0
M  V30 4488 H 404.113 -1.87519 -0.30606 0
M  V30 4489 H 402.263 -2.92898 -2.55232 0
M  V30 4490 H 403.935 -4.58211 -0.532943 0
M  V30 4491 H 402.178 -4.31642 -0.432168 0
M  V30 4492 H 402.849 -5.22074 -1.79284 0
M  V30 4493 H 405.325 -3.39429 -2.4068 0
M  V30 4494 H 404.201 -4.20603 -3.52682 0
M  V30 4495 H 404.462 -2.47437 -3.6637 0
M  V30 4496 N 403.521 0.559213 -1.47345 0
M  V30 4497 C 404.746 1.34676 -1.57725 0
M  V30 4498 C 405.171 1.86723 -0.227164 0
M  V30 4499 O 404.529 1.6286 0.796642 0
M  V30 4500 C 404.577 2.49399 -2.60447 0
M  V30 4501 O 403.681 3.51567 -2.15578 0
M  V30 4502 H 403.022 0.400115 -0.52991 0
M  V30 4503 H 405.552 0.676009 -1.93109 0
M  V30 4504 H 405.562 2.95996 -2.80803 0
M  V30 4505 H 404.237 2.10873 -3.58477 0
M  V30 4506 H 402.814 3.11289 -2.05313 0
M  V30 4507 N 404.999 1.35443 0.805782 0
M  V30 4508 C 406.246 1.28761 1.56291 0
M  V30 4509 C 406.574 -0.137747 1.94012 0
M  V30 4510 O 405.829 -1.1032 1.61642 0
M  V30 4511 C 406.128 2.14045 2.86216 0
M  V30 4512 C 405.794 3.62826 2.67709 0
M  V30 4513 C 404.456 4.0338 2.6237 0
M  V30 4514 C 406.808 4.57227 2.50186 0
M  V30 4515 C 404.136 5.36501 2.37451 0
M  V30 4516 C 406.488 5.90547 2.26797 0
M  V30 4517 C 405.152 6.30245 2.1988 0
M  V30 4518 H 404.422 0.471171 0.571908 0
M  V30 4519 H 407.069 1.67347 0.930974 0
M  V30 4520 H 405.374 1.68342 3.53791 0
M  V30 4521 H 407.071 2.0621 3.43917 0
M  V30 4522 H 403.661 3.30644 2.72713 0
M  V30 4523 H 407.845 4.2678 2.53323 0
M  V30 4524 H 403.101 5.66259 2.30567 0
M  V30 4525 H 407.275 6.63274 2.12228 0
M  V30 4526 H 404.902 7.33328 2.00333 0
M  V30 4527 N 406.477 -1.02803 1.19454 0
M  V30 4528 C 407.723 -1.76598 1.0092 0
M  V30 4529 C 408.078 -1.86939 -0.455142 0
M  V30 4530 O 407.371 -1.37575 -1.33355 0
M  V30 4531 C 407.565 -3.18941 1.6128 0
M  V30 4532 C 407.394 -3.22476 3.13431 0
M  V30 4533 C 406.164 -3.30375 3.82336 0
M  V30 4534 C 408.362 -3.09451 4.10785 0
M  V30 4535 N 406.344 -3.23292 5.21877 0
M  V30 4536 C 407.715 -3.10012 5.36929 0
M  V30 4537 C 409.77 -2.93585 4.02135 0
M  V30 4538 C 408.473 -2.96334 6.55423 0
M  V30 4539 C 410.499 -2.81256 5.20239 0
M  V30 4540 C 409.861 -2.82472 6.45282 0
M  V30 4541 H 405.96 -0.657447 0.423424 0
M  V30 4542 H 408.544 -1.22369 1.5144 0
M  V30 4543 H 406.715 -3.71489 1.1336 0
M  V30 4544 H 408.447 -3.81102 1.36173 0
M  V30 4545 H 405.202 -3.3663 3.33132 0
M  V30 4546 H 405.626 -3.23156 5.94894 0
M  V30 4547 H 410.268 -2.91466 3.0628 0
M  V30 4548 H 407.986 -2.97203 7.51463 0
M  V30 4549 H 411.572 -2.70014 5.15348 0
M  V30 4550 H 410.452 -2.73036 7.35133 0
M  V30 4551 N 407.956 -0.998596 -1.21925 0
M  V30 4552 C 409.205 -0.673085 -1.90138 0
M  V30 4553 C 409.518 0.79895 -1.78539 0
M  V30 4554 O 410.724 1.23628 -2.4172 0
M  V30 4555 C 409.18 -1.15339 -3.40918 0
M  V30 4556 C 408.788 -2.65106 -3.61141 0
M  V30 4557 C 410.532 -0.902476 -4.14796 0
M  V30 4558 C 408.439 -3.0671 -5.05651 0
M  V30 4559 H 407.369 -0.248057 -0.712028 0
M  V30 4560 H 410.02 -1.20891 -1.38049 0
M  V30 4561 H 408.402 -0.545658 -3.92223 0
M  V30 4562 H 409.576 -3.31274 -3.20304 0
M  V30 4563 H 407.891 -2.88142 -3.00605 0
M  V30 4564 H 410.488 -1.18895 -5.21314 0
M  V30 4565 H 410.831 0.161349 -4.15987 0
M  V30 4566 H 411.364 -1.47269 -3.69536 0
M  V30 4567 H 408.103 -4.12292 -5.09603 0
M  V30 4568 H 407.623 -2.45249 -5.47369 0
M  V30 4569 H 409.302 -2.9833 -5.74115 0
M  V30 4570 N 409.434 1.37368 -0.772513 0
M  V30 4571 C 410.381 2.30262 -0.157488 0
M  V30 4572 C 411.351 1.51137 0.688965 0
M  V30 4573 O 412.536 1.79704 0.641168 0
M  V30 4574 C 409.676 3.37611 0.715045 0
M  V30 4575 C 408.789 4.31746 -0.148098 0
M  V30 4576 C 407.924 5.26171 0.729213 0
M  V30 4577 C 406.963 6.11948 -0.136418 0
M  V30 4578 N 406.1 6.98613 0.698914 0
M  V30 4579 H 410.94 2.82277 -0.955179 0
M  V30 4580 H 408.477 1.38957 -0.482631 0
M  V30 4581 H 410.435 3.98479 1.23575 0
M  V30 4582 H 409.065 2.86959 1.47833 0
M  V30 4583 H 408.117 3.72178 -0.786613 0
M  V30 4584 H 409.429 4.92084 -0.81579 0
M  V30 4585 H 408.583 5.92247 1.31637 0
M  V30 4586 H 407.322 4.66246 1.43059 0
M  V30 4587 H 406.327 5.4485 -0.736102 0
M  V30 4588 H 407.552 6.73945 -0.835134 0
M  V30 4589 H 405.498 6.41215 1.38489 0
M  V30 4590 H 405.415 7.55948 0.0885358 0
M  V30 4591 H 406.683 7.69077 1.27044 0
M  V30 4592 N 410.912 0.523116 1.48665 0
M  V30 4593 C 411.859 -0.243398 2.29513 0
M  V30 4594 C 412.829 -0.940139 1.36933 0
M  V30 4595 O 414.014 -0.942503 1.65896 0
M  V30 4596 C 411.154 -1.28855 3.20141 0
M  V30 4597 C 410.267 -0.60135 4.27794 0
M  V30 4598 C 409.402 -1.62884 5.05611 0
M  V30 4599 C 408.441 -0.924726 6.05075 0
M  V30 4600 N 407.578 -1.89744 6.75975 0
M  V30 4601 H 412.418 0.452234 2.94549 0
M  V30 4602 H 409.955 0.234858 1.45213 0
M  V30 4603 H 411.913 -1.90674 3.71079 0
M  V30 4604 H 410.543 -1.95266 2.57043 0
M  V30 4605 H 409.595 0.130623 3.80176 0
M  V30 4606 H 410.907 -0.0481585 4.98777 0
M  V30 4607 H 410.061 -2.32149 5.60528 0
M  V30 4608 H 408.8 -2.21592 4.34452 0
M  V30 4609 H 407.805 -0.217966 5.49368 0
M  V30 4610 H 409.03 -0.343851 6.78229 0
M  V30 4611 H 406.976 -2.47373 6.07571 0
M  V30 4612 H 406.893 -1.3955 7.43009 0
M  V30 4613 H 408.161 -2.58229 7.35485 0
M  V30 4614 N 412.39 -1.55475 0.257931 0
M  V30 4615 C 413.667 -1.91155 -0.414629 0
M  V30 4616 C 414.047 -1.18008 -1.75035 0
M  V30 4617 O 413.395 -0.301193 -2.26506 0
M  V30 4618 C 413.605 -3.44283 -0.571859 0
M  V30 4619 C 414.953 -4.15744 -0.862678 0
M  V30 4620 O 415.977 -3.50083 -0.657314 0
M  V30 4621 O 414.836 -5.31909 -1.2544 0
M  V30 4622 H 411.93 -0.796016 -0.22425 0
M  V30 4623 H 414.476 -1.66976 0.302814 0
M  V30 4624 H 413.248 -3.89558 0.368844 0
M  V30 4625 H 412.871 -3.7436 -1.33943 0
M  V30 4626 N 413.868 0.0150385 -1.57593 0
M  V30 4627 C 414.831 0.995996 -2.06428 0
M  V30 4628 C 415.831 1.2818 -0.970903 0
M  V30 4629 O 417.021 1.22949 -1.23406 0
M  V30 4630 C 414.153 2.32506 -2.49307 0
M  V30 4631 H 415.346 0.573873 -2.94358 0
M  V30 4632 H 412.899 0.262186 -1.54085 0
M  V30 4633 H 413.634 2.79438 -1.64575 0
M  V30 4634 H 413.419 2.13087 -3.29145 0
M  V30 4635 H 414.909 3.02906 -2.87468 0
M  V30 4636 N 415.346 1.54954 0.287554 0
M  V30 4637 C 416.574 1.78881 1.03967 0
M  V30 4638 C 416.989 0.554894 1.80462 0
M  V30 4639 O 416.346 -0.475676 1.76192 0
M  V30 4640 C 416.397 3.00488 2.0097 0
M  V30 4641 O 416.118 4.19113 1.27577 0
M  V30 4642 C 417.619 3.36907 2.88112 0
M  V30 4643 H 414.839 0.596259 0.307761 0
M  V30 4644 H 417.383 2.01937 0.322749 0
M  V30 4645 H 415.538 2.79601 2.68145 0
M  V30 4646 H 415.952 4.87765 1.92835 0
M  V30 4647 H 417.426 4.25205 3.52001 0
M  V30 4648 H 417.903 2.55659 3.57121 0
M  V30 4649 H 418.509 3.60001 2.26449 0
M  V30 4650 N 416.824 -0.551391 1.4764 0
M  V30 4651 C 418.235 -1.13349 1.48354 0
M  V30 4652 C 418.586 -1.94709 0.241432 0
M  V30 4653 O 417.711 -2.06306 -0.653205 0
M  V30 4654 C 418.306 -2.0623 2.68802 0
M  V30 4655 C 416.865 -2.597 2.72457 0
M  V30 4656 C 416.012 -1.36201 2.41546 0
M  V30 4657 H 418.963 -0.337698 1.55065 0
M  V30 4658 H 418.984 -2.90196 2.46103 0
M  V30 4659 H 418.496 -1.46987 3.59188 0
M  V30 4660 H 416.597 -3.22724 1.86225 0
M  V30 4661 H 416.71 -3.00296 3.73308 0
M  V30 4662 H 415.074 -1.67068 1.9225 0
M  V30 4663 H 415.857 -0.787425 3.34147 0
M  V30 4664 N 418.302 -1.35869 -0.798587 0
M  V30 4665 C 419.265 -1.29307 -1.89242 0
M  V30 4666 C 420.265 -0.202747 -1.59517 0
M  V30 4667 O 421.455 -0.456957 -1.681 0
M  V30 4668 C 418.587 -1.00229 -3.25833 0
M  V30 4669 H 419.78 -2.26576 -1.96478 0
M  V30 4670 H 417.333 -1.20509 -0.995358 0
M  V30 4671 H 418.068 -0.033801 -3.24282 0
M  V30 4672 H 417.853 -1.79121 -3.48795 0
M  V30 4673 H 419.343 -0.98219 -4.05885 0
M  V30 4674 N 419.78 1.02168 -1.19998 0
M  V30 4675 C 421.196 1.27969 -0.953737 0
M  V30 4676 C 421.396 1.98079 0.369703 0
M  V30 4677 O 420.452 2.27306 1.09947 0
M  V30 4678 C 421.765 2.11971 -2.13281 0
M  V30 4679 C 423.313 2.25255 -2.17323 0
M  V30 4680 C 423.788 3.12632 -3.34702 0
M  V30 4681 N 425.279 3.2022 -3.34684 0
M  V30 4682 C 426.014 3.88039 -4.22153 0
M  V30 4683 N 425.51 4.58027 -5.19791 0
M  V30 4684 N 427.303 3.84511 -4.10009 0
M  V30 4685 H 419.454 0.550794 -2.05134 0
M  V30 4686 H 421.717 0.305683 -0.897364 0
M  V30 4687 H 421.423 1.67785 -3.09097 0
M  V30 4688 H 421.297 3.12699 -2.10949 0
M  V30 4689 H 423.684 2.68667 -1.22073 0
M  V30 4690 H 423.765 1.24053 -2.23706 0
M  V30 4691 H 423.409 2.69926 -4.30235 0
M  V30 4692 H 423.339 4.13909 -3.25556 0
M  V30 4693 H 425.83 2.70382 -2.64012 0
M  V30 4694 H 426.143 5.07429 -5.82868 0
M  V30 4695 H 424.488 4.56869 -5.23733 0
M  V30 4696 H 427.679 3.28978 -3.33003 0
M  V30 4697 H 427.852 4.3709 -4.78389 0
M  V30 4698 N 421.258 1.00505 1.21394 0
M  V30 4699 C 422.486 0.706609 1.9446 0
M  V30 4700 C 422.901 -0.73081 1.74082 0
M  V30 4701 O 422.258 -1.49446 1.04747 0
M  V30 4702 C 422.309 1.01824 3.46863 0
M  V30 4703 O 422.03 2.39919 3.66566 0
M  V30 4704 C 423.531 0.739216 4.37093 0
M  V30 4705 H 420.751 0.260394 0.618414 0
M  V30 4706 H 423.295 1.34311 1.54211 0
M  V30 4707 H 421.45 0.427343 3.85036 0
M  V30 4708 H 421.864 2.50784 4.6066 0
M  V30 4709 H 423.338 1.00744 5.42729 0
M  V30 4710 H 423.815 -0.326746 4.37983 0
M  V30 4711 H 424.421 1.31173 4.04566 0
M  V30 4712 N 422.737 -1.36956 0.779787 0
M  V30 4713 C 423.7 -2.2851 0.177662 0
M  V30 4714 C 424.7 -1.48393 -0.619377 0
M  V30 4715 O 425.89 -1.68505 -0.441785 0
M  V30 4716 C 423.022 -3.32428 -0.755279 0
M  V30 4717 H 424.215 -2.83269 0.984823 0
M  V30 4718 H 421.768 -1.46358 0.548544 0
M  V30 4719 H 422.503 -2.82808 -1.58714 0
M  V30 4720 H 422.288 -3.91659 -0.185817 0
M  V30 4721 H 423.778 -4.00824 -1.17174 0
M  V30 4722 N 424.215 -0.530993 -1.48385 0
M  V30 4723 C 425.145 0.219985 -2.32461 0
M  V30 4724 C 426.126 0.934111 -1.42156 0
M  V30 4725 O 427.311 0.919694 -1.71042 0
M  V30 4726 C 424.441 1.26674 -3.23375 0
M  V30 4727 C 423.395 0.67069 -4.22712 0
M  V30 4728 C 422.721 1.82017 -5.02766 0
M  V30 4729 C 424.021 -0.358268 -5.2107 0
M  V30 4730 H 425.715 -0.48187 -2.95497 0
M  V30 4731 H 423.261 -0.233182 -1.42099 0
M  V30 4732 H 425.214 1.80006 -3.81019 0
M  V30 4733 H 423.938 1.99818 -2.58341 0
M  V30 4734 H 422.597 0.158878 -3.66256 0
M  V30 4735 H 422.245 2.54002 -4.34157 0
M  V30 4736 H 421.945 1.42727 -5.70003 0
M  V30 4737 H 423.469 2.35725 -5.63264 0
M  V30 4738 H 424.883 0.0880081 -5.73232 0
M  V30 4739 H 423.28 -0.66861 -5.96364 0
M  V30 4740 H 424.35 -1.26367 -4.68145 0
M  V30 4741 N 425.693 1.55336 -0.266172 0
M  V30 4742 C 426.941 1.99003 0.35246 0
M  V30 4743 C 427.262 1.15591 1.57047 0
M  V30 4744 O 426.532 0.243268 1.94384 0
M  V30 4745 H 425.112 0.735025 0.133217 0
M  V30 4746 H 427.774 1.91367 -0.369434 0
M  V30 4747 H 426.87 3.05289 0.648453 0
M  V30 4748 N 427.171 -0.0066808 1.57599 0
M  V30 4749 C 428.42 -0.692078 1.89455 0
M  V30 4750 C 428.733 -1.75306 0.867586 0
M  V30 4751 O 429.939 -2.49262 1.07614 0
M  V30 4752 C 428.395 -1.2821 3.36289 0
M  V30 4753 C 428.003 -0.256291 4.47266 0
M  V30 4754 C 429.747 -1.94608 3.77264 0
M  V30 4755 C 427.654 -0.855927 5.85173 0
M  V30 4756 H 426.584 -0.262252 0.706923 0
M  V30 4757 H 429.235 0.052769 1.83424 0
M  V30 4758 H 427.617 -2.0774 3.37135 0
M  V30 4759 H 428.791 0.513923 4.57925 0
M  V30 4760 H 427.106 0.306862 4.15268 0
M  V30 4761 H 429.703 -2.40364 4.77629 0
M  V30 4762 H 430.046 -2.77382 3.10427 0
M  V30 4763 H 430.579 -1.21822 3.78688 0
M  V30 4764 H 427.318 -0.0671161 6.55466 0
M  V30 4765 H 426.838 -1.59546 5.78191 0
M  V30 4766 H 428.517 -1.35658 6.32618 0
M  V30 4767 N 428.649 -1.55105 -0.279332 0
M  V30 4768 C 429.877 -1.7943 -1.03017 0
M  V30 4769 C 430.292 -0.564456 -1.80165 0
M  V30 4770 O 429.649 0.466326 -1.76442 0
M  V30 4771 C 429.7 -3.0155 -1.99374 0
M  V30 4772 O 429.421 -4.19784 -1.25352 0
M  V30 4773 C 430.922 -3.3843 -2.86321 0
M  V30 4774 H 428.142 -0.597882 -0.304594 0
M  V30 4775 H 430.686 -2.02105 -0.312035 0
M  V30 4776 H 428.841 -2.81019 -2.66659 0
M  V30 4777 H 429.255 -4.88781 -1.90246 0
M  V30 4778 H 430.729 -4.27066 -3.49741 0
M  V30 4779 H 431.206 -2.57549 -3.5576 0
M  V30 4780 H 431.812 -3.61197 -2.24536 0
M  V30 4781 N 430.127 0.543554 -1.4793 0
M  V30 4782 C 431.355 1.32516 -1.58894 0
M  V30 4783 C 431.77 1.87215 -0.244131 0
M  V30 4784 O 431.127 1.65709 0.764652 0
M  V30 4785 C 431.178 2.48554 -2.62494 0
M  V30 4786 O 430.899 1.96112 -3.91755 0
M  V30 4787 C 432.4 3.40572 -2.8377 0
M  V30 4788 H 429.62 0.403472 -0.536145 0
M  V30 4789 H 432.164 0.657106 -1.93655 0
M  V30 4790 H 430.319 3.1127 -2.30629 0
M  V30 4791 H 430.733 2.71967 -4.4848 0
M  V30 4792 H 432.207 4.18375 -3.60093 0
M  V30 4793 H 432.684 3.94965 -1.92092 0
M  V30 4794 H 433.29 2.8366 -3.16887 0
M  V30 4795 N 431.605 1.3629 0.791371 0
M  V30 4796 C 432.851 1.30605 1.55146 0
M  V30 4797 C 433.184 -0.115042 1.93859 0
M  V30 4798 O 432.459 -1.06798 1.62556 0
M  V30 4799 C 432.742 2.22692 2.82985 0
M  V30 4800 C 432.595 3.73489 2.50651 0
M  V30 4801 C 433.914 2.13588 3.84796 0
M  V30 4802 H 431.033 0.475761 0.562868 0
M  V30 4803 H 433.675 1.66825 0.909358 0
M  V30 4804 H 431.825 1.91933 3.37778 0
M  V30 4805 H 433.497 4.14758 2.01924 0
M  V30 4806 H 431.74 3.93021 1.83622 0
M  V30 4807 H 432.411 4.3333 3.41949 0
M  V30 4808 H 434.887 2.40659 3.39445 0
M  V30 4809 H 433.763 2.80195 4.71998 0
M  V30 4810 H 434.024 1.12256 4.27611 0
M  V30 4811 N 433.083 -1.0153 1.20538 0
M  V30 4812 C 434.013 -2.11972 0.979295 0
M  V30 4813 C 434.994 -1.6985 -0.0921787 0
M  V30 4814 O 436.179 -1.94089 0.0655932 0
M  V30 4815 C 433.309 -3.43201 0.531984 0
M  V30 4816 C 432.263 -3.9907 1.54685 0
M  V30 4817 C 431.589 -5.26082 0.956127 0
M  V30 4818 C 432.889 -4.32313 2.93092 0
M  V30 4819 H 434.583 -2.31143 1.90298 0
M  V30 4820 H 432.129 -1.11079 0.916372 0
M  V30 4821 H 434.082 -4.1985 0.361044 0
M  V30 4822 H 432.806 -3.23792 -0.427327 0
M  V30 4823 H 431.465 -3.2453 1.70517 0
M  V30 4824 H 431.113 -5.02999 -0.0111538 0
M  V30 4825 H 430.813 -5.64426 1.63393 0
M  V30 4826 H 432.337 -6.05386 0.796284 0
M  V30 4827 H 433.751 -4.99845 2.80763 0
M  V30 4828 H 432.148 -4.81774 3.57791 0
M  V30 4829 H 433.218 -3.41025 3.44717 0
M  V30 4830 N 434.561 -1.01147 -1.20859 0
M  V30 4831 C 435.789 -0.716911 -1.94082 0
M  V30 4832 C 436.204 0.721568 -1.74467 0
M  V30 4833 O 435.561 1.48889 -1.05539 0
M  V30 4834 C 435.612 -1.03662 -3.46318 0
M  V30 4835 O 435.333 -2.4186 -3.65288 0
M  V30 4836 C 436.834 -0.762386 -4.36695 0
M  V30 4837 H 434.054 -0.26367 -0.617024 0
M  V30 4838 H 436.598 -1.35127 -1.53496 0
M  V30 4839 H 434.753 -0.447757 -3.84804 0
M  V30 4840 H 435.167 -2.53224 -4.59323 0
M  V30 4841 H 436.641 -1.03621 -5.42187 0
M  V30 4842 H 437.118 0.303514 -4.3815 0
M  V30 4843 H 437.724 -1.33316 -4.03865 0
M  V30 4844 N 436.039 1.36541 -0.78704 0
M  V30 4845 C 436.972 2.27831 -0.129765 0
M  V30 4846 C 437.95 1.47105 0.692732 0
M  V30 4847 O 439.134 1.7641 0.664222 0
M  V30 4848 C 436.261 3.28577 0.821883 0
M  V30 4849 C 435.307 4.26422 0.0814771 0
M  V30 4850 S 436.14 5.20919 -1.24112 0
M  V30 4851 C 437.296 6.25212 -0.293409 0
M  V30 4852 H 437.529 2.83229 -0.903811 0
M  V30 4853 H 435.062 1.43046 -0.581144 0
M  V30 4854 H 437.02 3.87123 1.3655 0
M  V30 4855 H 435.681 2.72096 1.56916 0
M  V30 4856 H 434.874 4.97554 0.803485 0
M  V30 4857 H 434.476 3.71944 -0.391589 0
M  V30 4858 H 436.768 6.75435 0.528622 0
M  V30 4859 H 437.711 7.01378 -0.973344 0
M  V30 4860 H 438.119 5.64407 0.102196 0
M  V30 4861 N 437.518 0.538854 1.48102 0
M  V30 4862 C 438.746 0.0123136 2.06896 0
M  V30 4863 C 439.161 -1.27312 1.39417 0
M  V30 4864 O 438.518 -1.75949 0.484582 0
M  V30 4865 C 438.569 -0.206118 3.60912 0
M  V30 4866 O 438.29 1.0284 4.25859 0
M  V30 4867 C 439.791 -0.772033 4.36526 0
M  V30 4868 H 437.011 0.0375239 0.66995 0
M  V30 4869 H 439.555 0.747032 1.90367 0
M  V30 4870 H 437.71 -0.89091 3.77017 0
M  V30 4871 H 438.124 0.814654 5.18135 0
M  V30 4872 H 439.598 -0.874251 5.45033 0
M  V30 4873 H 440.075 -1.77904 4.01555 0
M  V30 4874 H 440.681 -0.123526 4.25121 0
M  V30 4875 N 438.996 -1.55193 0.274407 0
M  V30 4876 C 440.224 -2.03987 -0.345943 0
M  V30 4877 C 440.639 -1.15279 -1.4952 0
M  V30 4878 O 439.996 -0.172759 -1.8168 0
M  V30 4879 C 440.047 -3.51898 -0.827631 0
M  V30 4880 O 439.768 -4.37231 0.275855 0
M  V30 4881 C 441.269 -4.16577 -1.51587 0
M  V30 4882 H 438.489 -0.666335 -0.0789892 0
M  V30 4883 H 441.033 -2.00423 0.406294 0
M  V30 4884 H 439.188 -3.55909 -1.52996 0
M  V30 4885 H 439.602 -5.24415 -0.0943638 0
M  V30 4886 H 441.076 -5.21678 -1.80433 0
M  V30 4887 H 441.553 -3.64707 -2.44716 0
M  V30 4888 H 442.159 -4.16568 -0.857409 0
M  V30 4889 N 440.474 -0.00167713 -1.576 0
M  V30 4890 C 441.404 0.988091 -2.11563 0
M  V30 4891 C 442.385 1.35736 -1.02517 0
M  V30 4892 O 443.57 1.44082 -1.30208 0
M  V30 4893 C 440.7 2.27941 -2.62031 0
M  V30 4894 C 439.654 2.0517 -3.75619 0
M  V30 4895 C 438.98 3.4033 -4.12407 0
M  V30 4896 C 440.28 1.41294 -5.02825 0
M  V30 4897 H 441.974 0.538771 -2.94513 0
M  V30 4898 H 439.52 0.257712 -1.41675 0
M  V30 4899 H 441.473 2.97539 -2.9841 0
M  V30 4900 H 440.197 2.74989 -1.76205 0
M  V30 4901 H 438.856 1.37998 -3.39635 0
M  V30 4902 H 438.504 3.85085 -3.23603 0
M  V30 4903 H 438.204 3.25909 -4.88935 0
M  V30 4904 H 439.728 4.1124 -4.51347 0
M  V30 4905 H 441.142 2.00851 -5.36965 0
M  V30 4906 H 439.539 1.37356 -5.84169 0
M  V30 4907 H 440.609 0.382362 -4.8339 0
M  V30 4908 N 441.952 1.55251 0.271103 0
M  V30 4909 C 443.177 1.80306 1.02491 0
M  V30 4910 C 443.602 0.575457 1.79081 0
M  V30 4911 O 442.96 -0.474987 1.74967 0
M  V30 4912 C 443.008 3.02832 1.95768 0
M  V30 4913 O 442.112 2.78051 3.04568 0
M  V30 4914 H 441.453 0.595896 0.292923 0
M  V30 4915 H 443.983 2.02397 0.299436 0
M  V30 4916 H 443.993 3.31616 2.37686 0
M  V30 4917 H 442.668 3.9183 1.39434 0
M  V30 4918 H 441.245 2.60369 2.66951 0
M  V30 4919 N 443.43 -0.535701 1.48216 0
M  V30 4920 C 444.658 -1.31671 1.59594 0
M  V30 4921 C 445.073 -1.87083 0.254056 0
M  V30 4922 O 444.43 -1.66112 -0.755854 0
M  V30 4923 C 444.481 -2.47158 2.63809 0
M  V30 4924 O 444.202 -1.94032 3.92789 0
M  V30 4925 C 445.703 -3.39062 2.85573 0
M  V30 4926 H 442.923 -0.400623 0.538277 0
M  V30 4927 H 445.467 -0.646827 1.94001 0
M  V30 4928 H 443.622 -3.10043 2.32276 0
M  V30 4929 H 444.036 -2.69585 4.49916 0
M  V30 4930 H 445.51 -4.16459 3.62306 0
M  V30 4931 H 445.987 -3.93941 1.94184 0
M  V30 4932 H 446.593 -2.81975 3.18387 0
M  V30 4933 N 444.908 -1.36708 -0.784132 0
M  V30 4934 C 446.157 -1.30559 -1.53744 0
M  V30 4935 C 446.47 0.111374 -1.95283 0
M  V30 4936 O 447.676 0.29527 -2.6989 0
M  V30 4937 C 446.132 -2.29098 -2.77565 0
M  V30 4938 C 445.74 -3.76258 -2.43174 0
M  V30 4939 C 447.484 -2.31936 -3.55536 0
M  V30 4940 C 445.391 -4.6656 -3.63422 0
M  V30 4941 H 444.321 -0.48518 -0.577162 0
M  V30 4942 H 446.972 -1.62101 -0.859981 0
M  V30 4943 H 445.354 -1.90557 -3.47137 0
M  V30 4944 H 446.528 -4.23565 -1.81465 0
M  V30 4945 H 444.843 -3.76246 -1.78403 0
M  V30 4946 H 447.44 -2.9661 -4.44889 0
M  V30 4947 H 447.783 -1.3294 -3.94503 0
M  V30 4948 H 448.316 -2.6912 -2.92949 0
M  V30 4949 H 445.055 -5.66638 -3.29547 0
M  V30 4950 H 444.575 -4.23966 -4.24279 0
M  V30 4951 H 446.254 -4.8309 -4.30387 0
M  V30 4952 N 446.386 1.0089 -1.21074 0
M  V30 4953 C 447.349 2.0775 -0.968129 0
M  V30 4954 C 448.349 1.6069 0.0593445 0
M  V30 4955 O 449.539 1.73293 -0.177525 0
M  V30 4956 C 446.671 3.37794 -0.459108 0
M  V30 4957 H 447.864 2.30707 -1.9161 0
M  V30 4958 H 445.417 1.17807 -1.02719 0
M  V30 4959 H 446.152 3.20516 0.49397 0
M  V30 4960 H 445.937 3.7328 -1.20019 0
M  V30 4961 H 447.427 4.16454 -0.309099 0
M  V30 4962 N 447.864 1.01787 1.20321 0
M  V30 4963 C 449.28 0.732951 1.41774 0
M  V30 4964 C 449.48 -0.686883 1.89431 0
M  V30 4965 O 448.536 -1.45446 2.06402 0
M  V30 4966 C 449.849 1.75973 2.43832 0
M  V30 4967 C 451.397 1.77802 2.57596 0
M  V30 4968 C 451.872 2.7941 3.62897 0
M  V30 4969 N 453.363 2.78157 3.70382 0
M  V30 4970 C 454.098 3.53434 4.51521 0
M  V30 4971 N 453.594 4.38392 5.36455 0
M  V30 4972 N 455.387 3.42026 4.46066 0
M  V30 4973 H 447.538 1.93447 0.877035 0
M  V30 4974 H 449.801 0.835712 0.447536 0
M  V30 4975 H 449.507 2.77699 2.15815 0
M  V30 4976 H 449.381 1.57292 3.4284 0
M  V30 4977 H 451.768 0.767602 2.84942 0
M  V30 4978 H 451.849 2.00557 1.58779 0
M  V30 4979 H 451.493 3.80616 3.36295 0
M  V30 4980 H 451.423 2.53916 4.61339 0
M  V30 4981 H 453.914 2.16531 3.09714 0
M  V30 4982 H 454.227 4.92596 5.95457 0
M  V30 4983 H 452.572 4.4247 5.35953 0
M  V30 4984 H 455.763 2.75075 3.78749 0
M  V30 4985 H 455.936 4.00946 5.09064 0
M  V30 4986 N 449.342 -1.36122 0.79427 0
M  V30 4987 C 450.289 -2.29982 0.194101 0
M  V30 4988 C 451.259 -1.52214 -0.664833 0
M  V30 4989 O 452.444 -1.80702 -0.612498 0
M  V30 4990 C 449.584 -3.38706 -0.661244 0
M  V30 4991 C 448.697 -4.31456 0.216766 0
M  V30 4992 C 447.832 -5.27265 -0.645411 0
M  V30 4993 C 446.871 -6.11653 0.233756 0
M  V30 4994 N 446.008 -6.99636 -0.587682 0
M  V30 4995 H 450.848 -2.80722 0.999965 0
M  V30 4996 H 448.385 -1.38172 0.504677 0
M  V30 4997 H 450.343 -4.00394 -1.17219 0
M  V30 4998 H 448.973 -2.89274 -1.43249 0
M  V30 4999 H 448.025 -3.7088 0.845724 0
M  V30 5000 H 449.337 -4.90724 0.893973 0
M  V30 5001 H 448.491 -5.94266 -1.22198 0
M  V30 5002 H 447.23 -4.68463 -1.35623 0
M  V30 5003 H 446.235 -5.4361 0.82269 0
M  V30 5004 H 447.46 -6.72531 0.942247 0
M  V30 5005 H 445.406 -6.43337 -1.2827 0
M  V30 5006 H 445.323 -7.55993 0.0317402 0
M  V30 5007 H 446.591 -7.71001 -1.14792 0
M  V30 5008 N 450.82 -0.546701 -1.47814 0
M  V30 5009 C 452.045 -0.021268 -2.07389 0
M  V30 5010 C 452.47 1.25822 -1.39822 0
M  V30 5011 O 451.828 1.75111 -0.46968 0
M  V30 5012 C 451.876 0.168502 -3.60206 0
M  V30 5013 O 450.98 1.23347 -3.93522 0
M  V30 5014 H 450.321 -0.0466108 -0.662362 0
M  V30 5015 H 452.851 -0.759387 -1.89985 0
M  V30 5016 H 452.861 0.385982 -4.0617 0
M  V30 5017 H 451.536 -0.766075 -4.08784 0
M  V30 5018 H 450.113 0.997319 -3.59316 0
M  V30 5019 N 452.299 1.55045 -0.282633 0
M  V30 5020 C 453.229 2.2579 0.595066 0
M  V30 5021 C 454.21 1.25074 1.15284 0
M  V30 5022 O 455.395 1.5381 1.18559 0
M  V30 5023 C 452.525 2.98472 1.77572 0
M  V30 5024 C 451.479 4.0618 1.34914 0
M  V30 5025 C 450.805 4.66477 2.6135 0
M  V30 5026 C 452.105 5.1996 0.493821 0
M  V30 5027 H 453.799 2.994 0.00505653 0
M  V30 5028 H 451.345 1.44 0.000992001 0
M  V30 5029 H 453.298 3.46677 2.39568 0
M  V30 5030 H 452.022 2.2241 2.39168 0
M  V30 5031 H 450.681 3.58797 0.752338 0
M  V30 5032 H 450.329 3.87074 3.2122 0
M  V30 5033 H 450.029 5.39207 2.33516 0
M  V30 5034 H 451.553 5.17435 3.24181 0
M  V30 5035 H 452.967 5.64172 1.01898 0
M  V30 5036 H 451.364 5.99299 0.310047 0
M  V30 5037 H 452.434 4.82462 -0.485593 0
M  V30 5038 N 453.777 0.010035 1.57597 0
M  V30 5039 C 455.188 -0.531426 1.78977 0
M  V30 5040 C 455.539 -1.73375 0.918454 0
M  V30 5041 O 454.664 -2.16047 0.123635 0
M  V30 5042 C 455.259 -0.97086 3.24592 0
M  V30 5043 C 453.818 -1.45756 3.47033 0
M  V30 5044 C 452.965 -0.413384 2.74201 0
M  V30 5045 H 455.916 0.236166 1.56933 0
M  V30 5046 H 455.937 -1.83633 3.33255 0
M  V30 5047 H 455.449 -0.0955893 3.87982 0
M  V30 5048 H 453.55 -2.35339 2.88871 0
M  V30 5049 H 453.663 -1.4781 4.55729 0
M  V30 5050 H 452.027 -0.877266 2.39115 0
M  V30 5051 H 452.81 0.453092 3.40297 0
M  V30 5052 N 455.255 -1.55392 -0.262866 0
M  V30 5053 C 456.671 -1.47459 -0.610582 0
M  V30 5054 C 456.871 -0.697031 -1.8906 0
M  V30 5055 O 455.927 -0.219952 -2.5154 0
M  V30 5056 C 457.24 -2.91751 -0.728131 0
M  V30 5057 C 458.788 -3.02027 -0.821517 0
M  V30 5058 C 459.263 -4.47594 -0.97076 0
M  V30 5059 N 460.754 -4.51465 -1.03603 0
M  V30 5060 C 461.489 -5.61326 -1.17049 0
M  V30 5061 N 460.985 -6.81032 -1.2715 0
M  V30 5062 N 462.778 -5.49089 -1.20239 0
M  V30 5063 H 454.929 -2.04395 0.577632 0
M  V30 5064 H 457.192 -0.927287 0.197086 0
M  V30 5065 H 456.898 -3.51413 0.142132 0
M  V30 5066 H 456.772 -3.4134 -1.6052 0
M  V30 5067 H 459.159 -2.42456 -1.68224 0
M  V30 5068 H 459.24 -2.55674 0.0803688 0
M  V30 5069 H 458.884 -5.07771 -0.114655 0
M  V30 5070 H 458.814 -4.91613 -1.88745 0
M  V30 5071 H 461.305 -3.6524 -0.96996 0
M  V30 5072 H 461.618 -7.60511 -1.37271 0
M  V30 5073 H 459.963 -6.83824 -1.24136 0
M  V30 5074 H 463.154 -4.54507 -1.11985 0
M  V30 5075 H 463.327 -6.34749 -1.30373 0
M  V30 5076 N 456.733 0.527833 -1.48498 0
M  V30 5077 C 457.979 1.28545 -1.56857 0
M  V30 5078 C 458.312 1.92678 -0.242651 0
M  V30 5079 O 457.587 1.79394 0.751545 0
M  V30 5080 C 457.87 2.37314 -2.70839 0
M  V30 5081 C 457.723 1.77858 -4.13142 0
M  V30 5082 C 459.042 3.39068 -2.80573 0
M  V30 5083 H 456.161 0.466006 -0.570971 0
M  V30 5084 H 458.803 0.587784 -1.8068 0
M  V30 5085 H 456.953 2.96821 -2.50658 0
M  V30 5086 H 458.625 1.22385 -4.44769 0
M  V30 5087 H 456.868 1.08383 -4.20042 0
M  V30 5088 H 457.539 2.56624 -4.88721 0
M  V30 5089 H 460.015 2.89518 -2.98862 0
M  V30 5090 H 458.891 4.12566 -3.6205 0
M  V30 5091 H 459.152 3.9975 -1.88818 0
M  V30 5092 N 458.211 1.37122 0.776871 0
M  V30 5093 C 459.436 1.354 1.57104 0
M  V30 5094 C 459.861 -0.0595562 1.88006 0
M  V30 5095 O 459.219 -1.03514 1.48844 0
M  V30 5096 C 459.267 2.19472 2.8612 0
M  V30 5097 O 458.371 1.59582 3.80273 0
M  V30 5098 H 457.712 0.462869 0.476076 0
M  V30 5099 H 460.242 1.80577 0.961932 0
M  V30 5100 H 460.252 2.32502 3.35271 0
M  V30 5101 H 458.927 3.22222 2.62956 0
M  V30 5102 H 457.504 1.55564 3.38902 0
M  V30 5103 N 459.689 -1.00246 1.21608 0
M  V30 5104 C 460.919 -1.77373 1.05935 0
M  V30 5105 C 461.327 -1.85059 -0.393686 0
M  V30 5106 O 460.67 -1.31289 -1.28487 0
M  V30 5107 C 460.732 -3.22705 1.58435 0
M  V30 5108 C 460.396 -3.38591 3.06929 0
M  V30 5109 C 461.393 -3.2667 4.04454 0
M  V30 5110 C 459.078 -3.6395 3.46187 0
M  V30 5111 C 461.072 -3.39877 5.39224 0
M  V30 5112 C 458.759 -3.768 4.81108 0
M  V30 5113 C 459.757 -3.6477 5.77436 0
M  V30 5114 O 459.445 -3.77206 7.09909 0
M  V30 5115 H 459.177 -0.56419 0.372378 0
M  V30 5116 H 461.731 -1.26971 1.61454 0
M  V30 5117 H 459.961 -3.74255 0.973147 0
M  V30 5118 H 461.65 -3.81515 1.38568 0
M  V30 5119 H 462.416 -3.06999 3.75468 0
M  V30 5120 H 458.295 -3.72395 2.71741 0
M  V30 5121 H 461.839 -3.30404 6.14393 0
M  V30 5122 H 457.736 -3.95975 5.09779 0
M  V30 5123 H 458.504 -3.94138 7.17355 0
M  V30 5124 N 461.167 -1.02423 -1.1978 0
M  V30 5125 C 462.413 -0.719051 -1.89625 0
M  V30 5126 C 462.746 0.750083 -1.7913 0
M  V30 5127 O 462.021 1.54574 -1.18056 0
M  V30 5128 C 462.304 -1.16499 -3.40735 0
M  V30 5129 C 462.157 -2.695 -3.60125 0
M  V30 5130 C 463.476 -0.742166 -4.33797 0
M  V30 5131 H 460.595 -0.26269 -0.688595 0
M  V30 5132 H 463.237 -1.27333 -1.41018 0
M  V30 5133 H 461.387 -0.69341 -3.82262 0
M  V30 5134 H 463.059 -3.24569 -3.278 0
M  V30 5135 H 461.302 -3.10113 -3.03336 0
M  V30 5136 H 461.973 -2.95757 -4.66081 0
M  V30 5137 H 464.449 -1.1477 -3.99959 0
M  V30 5138 H 463.325 -1.08213 -5.38127 0
M  V30 5139 H 463.586 0.355747 -4.40666 0
M  V30 5140 N 462.645 1.35699 -0.801477 0
M  V30 5141 C 463.873 2.03157 -0.391768 0
M  V30 5142 C 464.288 1.60412 0.995668 0
M  V30 5143 O 463.645 0.799228 1.64069 0
M  V30 5144 C 463.696 3.58566 -0.459671 0
M  V30 5145 O 463.417 3.99756 -1.7924 0
M  V30 5146 C 464.918 4.4328 -0.0421205 0
M  V30 5147 H 462.138 0.651688 -0.159825 0
M  V30 5148 H 464.682 1.73426 -1.08368 0
M  V30 5149 H 462.837 3.86963 0.183939 0
M  V30 5150 H 463.251 4.94387 -1.75162 0
M  V30 5151 H 464.725 5.51821 -0.140754 0
M  V30 5152 H 465.202 4.27383 1.01196 0
M  V30 5153 H 465.808 4.20168 -0.658687 0
M  V30 5154 N 464.123 0.554532 1.47522 0
M  V30 5155 C 465.086 -0.184174 2.28459 0
M  V30 5156 C 466.086 -0.845195 1.36796 0
M  V30 5157 O 467.276 -0.701467 1.59452 0
M  V30 5158 C 464.408 -1.26903 3.16399 0
M  V30 5159 H 465.601 0.526751 2.95238 0
M  V30 5160 H 463.154 0.311375 1.53167 0
M  V30 5161 H 463.889 -2.01244 2.54306 0
M  V30 5162 H 463.674 -0.799883 3.83854 0
M  V30 5163 H 465.164 -1.78794 3.77389 0
M  V30 5164 N 465.601 -1.54893 0.290851 0
M  V30 5165 C 466.534 -2.19289 -0.631489 0
M  V30 5166 C 467.512 -1.15893 -1.14051 0
M  V30 5167 O 468.696 -1.4449 -1.21058 0
M  V30 5168 C 465.823 -2.82866 -1.86291 0
M  V30 5169 C 464.869 -3.997 -1.48801 0
M  V30 5170 S 465.702 -5.32641 -0.552644 0
M  V30 5171 C 466.858 -5.99696 -1.79209 0
M  V30 5172 H 467.091 -2.9718 -0.0843791 0
M  V30 5173 H 464.624 -1.54218 0.075031 0
M  V30 5174 H 466.582 -3.20124 -2.56964 0
M  V30 5175 H 465.243 -2.04839 -2.38117 0
M  V30 5176 H 464.436 -4.42932 -2.40473 0
M  V30 5177 H 464.038 -3.63947 -0.861321 0
M  V30 5178 H 466.33 -6.19886 -2.734 0
M  V30 5179 H 467.273 -6.94071 -1.40251 0
M  V30 5180 H 467.681 -5.29226 -1.96419 0
M  V30 5181 N 467.08 -0.0183926 -1.57589 0
M  V30 5182 C 468.357 0.700621 -1.82622 0
M  V30 5183 C 468.737 1.90951 -0.90005 0
M  V30 5184 O 468.085 2.28452 0.0469145 0
M  V30 5185 C 468.295 1.08899 -3.31575 0
M  V30 5186 C 469.643 1.48514 -3.9778 0
M  V30 5187 O 470.667 1.18227 -3.36007 0
M  V30 5188 O 469.526 2.04903 -5.06633 0
M  V30 5189 H 466.62 0.342743 -0.752633 0
M  V30 5190 H 469.166 -0.0452548 -1.6964 0
M  V30 5191 H 467.938 0.228113 -3.90635 0
M  V30 5192 H 467.561 1.89338 -3.49624 0
M  V30 5193 N 468.558 1.5553 0.254621 0
M  V30 5194 C 469.488 1.9268 1.31897 0
M  V30 5195 C 470.469 0.790797 1.506 0
M  V30 5196 O 471.654 1.05045 1.63337 0
M  V30 5197 C 468.784 2.21477 2.67517 0
M  V30 5198 C 467.738 3.37256 2.63519 0
M  V30 5199 C 467.064 3.51576 4.02862 0
M  V30 5200 C 468.364 4.73157 2.21179 0
M  V30 5201 H 470.058 2.81832 1.01051 0
M  V30 5202 H 467.604 1.35599 0.484662 0
M  V30 5203 H 469.557 2.46055 3.42104 0
M  V30 5204 H 468.281 1.29144 2.99982 0
M  V30 5205 H 466.94 3.12675 1.9139 0
M  V30 5206 H 466.588 2.56676 4.32581 0
M  V30 5207 H 466.288 4.2943 4.01078 0
M  V30 5208 H 467.812 3.78467 4.79161 0
M  V30 5209 H 469.226 4.97158 2.85494 0
M  V30 5210 H 467.623 5.54058 2.30521 0
M  V30 5211 H 468.693 4.70739 1.16332 0
M  V30 5212 N 470.036 -0.519951 1.48776 0
M  V30 5213 C 471.283 -1.27522 1.57303 0
M  V30 5214 C 471.611 -1.92869 0.251328 0
M  V30 5215 O 470.866 -1.80372 -0.759243 0
M  V30 5216 C 471.165 -2.37864 2.6675 0
M  V30 5217 C 470.831 -1.90103 4.08867 0
M  V30 5218 C 469.493 -1.76795 4.47546 0
M  V30 5219 C 471.845 -1.54133 4.97888 0
M  V30 5220 C 469.173 -1.25868 5.73039 0
M  V30 5221 C 471.525 -1.04665 6.23881 0
M  V30 5222 C 470.189 -0.899823 6.61407 0
M  V30 5223 H 469.459 -0.466636 0.575614 0
M  V30 5224 H 472.106 -0.579109 1.82534 0
M  V30 5225 H 470.411 -3.13186 2.35418 0
M  V30 5226 H 472.108 -2.95969 2.70561 0
M  V30 5227 H 468.698 -2.01414 3.78326 0
M  V30 5228 H 472.882 -1.6327 4.68675 0
M  V30 5229 H 468.138 -1.13196 6.0083 0
M  V30 5230 H 472.312 -0.759074 6.92251 0
M  V30 5231 H 469.939 -0.503011 7.58534 0
M  V30 5232 N 471.514 -1.37532 -0.769588 0
M  V30 5233 C 472.76 -1.33057 -1.53048 0
M  V30 5234 C 473.093 0.0841865 -1.94017 0
M  V30 5235 O 472.368 1.04198 -1.64235 0
M  V30 5236 C 472.651 -2.27166 -2.79406 0
M  V30 5237 C 472.504 -3.77429 -2.44677 0
M  V30 5238 C 473.823 -2.19683 -3.81349 0
M  V30 5239 H 470.942 -0.484655 -0.555228 0
M  V30 5240 H 473.584 -1.68251 -0.882702 0
M  V30 5241 H 471.734 -1.97283 -3.34682 0
M  V30 5242 H 473.406 -4.17918 -1.953 0
M  V30 5243 H 471.649 -3.95892 -1.77346 0
M  V30 5244 H 472.32 -4.38716 -3.35011 0
M  V30 5245 H 474.796 -2.46029 -3.35573 0
M  V30 5246 H 473.672 -2.87668 -4.67481 0
M  V30 5247 H 473.933 -1.19045 -4.25771 0
M  V30 5248 N 472.992 0.995999 -1.22138 0
M  V30 5249 C 474.22 1.77066 -1.07029 0
M  V30 5250 C 474.635 1.8495 0.379357 0
M  V30 5251 O 473.992 1.3174 1.26297 0
M  V30 5252 C 474.043 3.20533 -1.67155 0
M  V30 5253 O 473.764 3.13082 -3.06449 0
M  V30 5254 C 475.265 4.14461 -1.5728 0
M  V30 5255 H 472.485 0.556179 -0.375374 0
M  V30 5256 H 475.029 1.25238 -1.61666 0
M  V30 5257 H 473.184 3.6944 -1.16589 0
M  V30 5258 H 473.598 4.03283 -3.35355 0
M  V30 5259 H 475.072 5.1289 -2.04078 0
M  V30 5260 H 475.549 4.36005 -0.528795 0
M  V30 5261 H 476.155 3.71449 -2.07136 0
M  V30 5262 N 474.47 1.03057 1.19235 0
M  V30 5263 C 475.716 0.729098 1.89241 0
M  V30 5264 C 476.049 -0.740573 1.79525 0
M  V30 5265 O 475.324 -1.53946 1.18874 0
M  V30 5266 C 475.607 1.18304 3.40112 0
M  V30 5267 C 475.46 2.71406 3.5869 0
M  V30 5268 C 476.779 0.765161 4.33397 0
M  V30 5269 H 473.898 0.266338 0.687192 0
M  V30 5270 H 476.54 1.28079 1.40341 0
M  V30 5271 H 474.69 0.713672 3.81889 0
M  V30 5272 H 476.362 3.26303 3.26074 0
M  V30 5273 H 474.605 3.11717 3.01687 0
M  V30 5274 H 475.276 2.98225 4.64506 0
M  V30 5275 H 477.752 1.16889 3.99345 0
M  V30 5276 H 476.628 1.11065 5.37546 0
M  V30 5277 H 476.889 -0.332372 4.40849 0
M  V30 5278 N 475.948 -1.35272 0.808662 0
M  V30 5279 C 477.188 -2.00534 0.395668 0
M  V30 5280 C 477.552 -1.62755 -1.01857 0
M  V30 5281 O 478.753 -2.20752 -1.53368 0
M  V30 5282 C 477.024 -3.52732 0.575771 0
M  V30 5283 S 478.583 -4.38067 0.253507 0
M  V30 5284 H 475.401 -0.694962 0.150165 0
M  V30 5285 H 478.003 -1.64823 1.05137 0
M  V30 5286 H 476.707 -3.77714 1.60499 0
M  V30 5287 H 476.238 -3.93285 -0.0951739 0
M  V30 5288 H 478.253 -4.87252 -0.938068 0
M  V30 5289 N 477.426 -0.562348 -1.47226 0
M  V30 5290 C 478.673 -0.0402165 -2.0246 0
M  V30 5291 C 479.001 1.31169 -1.43614 0
M  V30 5292 O 478.256 1.86805 -0.5833 0
M  V30 5293 C 478.555 0.0969817 -3.57268 0
M  V30 5294 C 478.221 -1.1847 -4.35058 0
M  V30 5295 C 476.883 -1.53588 -4.56031 0
M  V30 5296 C 479.235 -2.03378 -4.79882 0
M  V30 5297 C 476.563 -2.73452 -5.19077 0
M  V30 5298 C 478.915 -3.2245 -5.44251 0
M  V30 5299 C 477.579 -3.57876 -5.63455 0
M  V30 5300 H 476.849 -0.0147163 -0.740854 0
M  V30 5301 H 479.496 -0.734895 -1.76838 0
M  V30 5302 H 477.801 0.87466 -3.81912 0
M  V30 5303 H 479.498 0.516408 -3.97661 0
M  V30 5304 H 476.088 -0.90126 -4.19017 0
M  V30 5305 H 480.272 -1.77553 -4.63453 0
M  V30 5306 H 475.528 -3.01062 -5.32139 0
M  V30 5307 H 479.702 -3.88526 -5.77945 0
M  V30 5308 H 477.329 -4.50849 -6.12078 0
M  V30 5309 N 478.904 1.54736 -0.299062 0
M  V30 5310 C 479.834 2.26409 0.571085 0
M  V30 5311 C 480.815 1.2629 1.13951 0
M  V30 5312 O 482 1.55059 1.16921 0
M  V30 5313 C 479.13 3.00338 1.74396 0
M  V30 5314 C 478.084 4.07588 1.30599 0
M  V30 5315 C 477.41 4.69222 2.56387 0
M  V30 5316 C 478.71 5.20455 0.438645 0
M  V30 5317 H 480.404 2.99388 -0.0266991 0
M  V30 5318 H 477.95 1.43993 -0.0142812 0
M  V30 5319 H 479.903 3.49198 2.35878 0
M  V30 5320 H 478.627 2.24934 2.36796 0
M  V30 5321 H 477.286 3.59575 0.71424 0
M  V30 5322 H 476.934 3.9046 3.17097 0
M  V30 5323 H 476.634 5.41653 2.27784 0
M  V30 5324 H 478.158 5.20844 3.18675 0
M  V30 5325 H 479.572 5.65221 0.959085 0
M  V30 5326 H 477.969 5.99594 0.246466 0
M  V30 5327 H 479.039 4.8192 -0.536738 0
M  V30 5328 N 480.382 0.0267497 1.57577 0
M  V30 5329 C 481.629 -0.652404 1.91703 0
M  V30 5330 C 481.957 -1.72271 0.902936 0
M  V30 5331 O 481.212 -1.955 -0.0884843 0
M  V30 5332 C 481.511 -1.30914 3.3256 0
M  V30 5333 C 481.177 -0.369441 4.49384 0
M  V30 5334 C 479.839 -0.110791 4.81072 0
M  V30 5335 C 482.191 0.275971 5.20469 0
M  V30 5336 C 479.519 0.801116 5.81205 0
M  V30 5337 C 481.871 1.17592 6.21575 0
M  V30 5338 C 480.535 1.44348 6.51705 0
M  V30 5339 H 479.805 -0.238732 0.70149 0
M  V30 5340 H 482.452 0.0880091 1.91298 0
M  V30 5341 H 480.757 -2.12425 3.29216 0
M  V30 5342 H 482.454 -1.84115 3.56234 0
M  V30 5343 H 479.044 -0.581211 4.24641 0
M  V30 5344 H 483.228 0.0892 4.9622 0
M  V30 5345 H 478.484 1.01614 6.02897 0
M  V30 5346 H 482.658 1.68223 6.75777 0
M  V30 5347 H 480.285 2.15176 7.29111 0
M  V30 5348 N 481.861 -1.55662 -0.24637 0
M  V30 5349 C 483.107 -1.77782 -0.975779 0
M  V30 5350 C 483.44 -0.592103 -1.84953 0
M  V30 5351 O 482.715 0.409588 -1.90138 0
M  V30 5352 C 482.998 -3.09788 -1.83584 0
M  V30 5353 C 482.851 -4.38764 -0.990241 0
M  V30 5354 C 484.17 -3.38029 -2.81823 0
M  V30 5355 H 481.289 -0.646789 -0.353317 0
M  V30 5356 H 483.931 -1.88398 -0.246248 0
M  V30 5357 H 482.081 -3.00869 -2.45784 0
M  V30 5358 H 483.753 -4.59675 -0.386897 0
M  V30 5359 H 481.996 -4.32798 -0.294626 0
M  V30 5360 H 482.667 -5.27514 -1.62584 0
M  V30 5361 H 485.143 -3.46915 -2.2976 0
M  V30 5362 H 484.019 -4.3161 -3.39122 0
M  V30 5363 H 484.28 -2.58968 -3.58313 0
M  V30 5364 N 483.339 0.512053 -1.4905 0
M  V30 5365 C 484.586 1.26686 -1.57978 0
M  V30 5366 C 484.914 1.92733 -0.261553 0
M  V30 5367 O 484.169 1.80772 0.749667 0
M  V30 5368 C 484.468 2.36446 -2.68008 0
M  V30 5369 C 484.134 1.87932 -4.09869 0
M  V30 5370 C 482.796 1.74419 -4.48477 0
M  V30 5371 C 485.148 1.5149 -4.98698 0
M  V30 5372 C 482.476 1.22827 -5.73699 0
M  V30 5373 C 484.828 1.01355 -6.24428 0
M  V30 5374 C 483.492 0.864735 -6.61875 0
M  V30 5375 H 482.762 0.463577 -0.578081 0
M  V30 5376 H 485.409 0.569421 -1.82838 0
M  V30 5377 H 483.714 3.11933 -2.37076 0
M  V30 5378 H 485.411 2.9453 -2.72127 0
M  V30 5379 H 482.001 1.99405 -3.79389 0
M  V30 5380 H 486.185 1.60782 -4.69535 0
M  V30 5381 H 481.441 1.10008 -6.01422 0
M  V30 5382 H 485.615 0.722351 -6.92644 0
M  V30 5383 H 483.242 0.462777 -7.5879 0
M  V30 5384 N 484.817 1.37938 0.762283 0
M  V30 5385 C 485.78 1.34279 1.85747 0
M  V30 5386 C 486.78 0.244969 1.58923 0
M  V30 5387 O 487.97 0.501365 1.66829 0
M  V30 5388 C 485.102 1.08833 3.23061 0
M  V30 5389 H 486.295 2.31705 1.90401 0
M  V30 5390 H 483.848 1.23105 0.963057 0
M  V30 5391 H 484.583 0.119767 3.24079 0
M  V30 5392 H 484.368 1.88306 3.43923 0
M  V30 5393 H 485.858 1.08946 4.03138 0
M  V30 5394 N 486.295 -0.989507 1.22664 0
M  V30 5395 C 487.258 -2.06183 1.00106 0
M  V30 5396 C 488.258 -1.60765 -0.0337726 0
M  V30 5397 O 489.448 -1.72989 0.205072 0
M  V30 5398 C 486.58 -3.37021 0.51279 0
M  V30 5399 H 487.773 -2.27629 1.95256 0
M  V30 5400 H 485.326 -1.16158 1.0458 0
M  V30 5401 H 486.061 -3.21261 -0.442917 0
M  V30 5402 H 485.846 -3.71323 1.25942 0
M  V30 5403 H 487.336 -4.1591 0.375315 0
M  V30 5404 N 487.773 -1.03688 -1.18687 0
M  V30 5405 C 488.703 -0.645407 -2.24403 0
M  V30 5406 C 489.684 0.349511 -1.66471 0
M  V30 5407 O 490.869 0.230453 -1.92828 0
M  V30 5408 C 487.999 -0.00365337 -3.473 0
M  V30 5409 C 486.953 -0.921705 -4.17958 0
M  V30 5410 C 486.279 -0.144629 -5.34504 0
M  V30 5411 C 487.579 -2.23909 -4.71871 0
M  V30 5412 H 489.273 -1.52917 -2.57404 0
M  V30 5413 H 486.819 -0.736711 -1.23728 0
M  V30 5414 H 488.772 0.281908 -4.20456 0
M  V30 5415 H 487.496 0.914963 -3.13522 0
M  V30 5416 H 486.155 -1.19159 -3.46694 0
M  V30 5417 H 485.803 0.776274 -4.96974 0
M  V30 5418 H 485.503 -0.756206 -5.82714 0
M  V30 5419 H 487.027 0.134004 -6.10453 0
M  V30 5420 H 488.441 -2.0145 -5.36741 0
M  V30 5421 H 486.838 -2.8033 -5.30599 0
M  V30 5422 H 487.908 -2.88822 -3.895 0
M  V30 5423 N 489.251 1.34841 -0.815825 0
M  V30 5424 C 490.184 2.27504 -0.178062 0
M  V30 5425 C 491.162 1.48542 0.661373 0
M  V30 5426 O 492.346 1.77779 0.626653 0
M  V30 5427 C 489.473 3.30246 0.752002 0
M  V30 5428 C 488.519 4.26499 -0.00899172 0
M  V30 5429 S 489.352 5.18169 -1.35134 0
M  V30 5430 C 490.508 6.24449 -0.42596 0
M  V30 5431 H 490.741 2.81248 -0.963684 0
M  V30 5432 H 488.274 1.41781 -0.611355 0
M  V30 5433 H 490.232 3.89933 1.28308 0
M  V30 5434 H 488.893 2.75363 1.51109 0
M  V30 5435 H 488.086 4.99146 0.697766 0
M  V30 5436 H 487.688 3.7103 -0.470396 0
M  V30 5437 H 489.98 6.76404 0.385234 0
M  V30 5438 H 490.923 6.99156 -1.1219 0
M  V30 5439 H 491.331 5.64497 -0.0175461 0
M  V30 5440 N 490.729 0.570148 1.46925 0
M  V30 5441 C 491.639 -0.173061 2.33961 0
M  V30 5442 C 492.655 -0.898825 1.48987 0
M  V30 5443 O 493.831 -0.864825 1.81887 0
M  V30 5444 C 490.896 -1.18177 3.25937 0
M  V30 5445 C 489.957 -0.462041 4.26806 0
M  V30 5446 C 489.19 -1.4227 5.14388 0
M  V30 5447 O 489.413 -2.65842 5.04662 0
M  V30 5448 O 488.347 -0.940127 5.94513 0
M  V30 5449 H 492.173 0.541216 2.98839 0
M  V30 5450 H 489.758 0.330647 1.45695 0
M  V30 5451 H 491.64 -1.76372 3.82715 0
M  V30 5452 H 490.315 -1.87774 2.63671 0
M  V30 5453 H 489.222 0.161429 3.73752 0
M  V30 5454 H 490.555 0.192719 4.91823 0
M  V30 5455 N 492.207 -1.54576 0.307264 0
M  V30 5456 C 493.437 -2.04378 -0.302158 0
M  V30 5457 C 493.845 -1.18381 -1.47589 0
M  V30 5458 O 493.188 -0.20352 -1.82569 0
M  V30 5459 C 493.25 -3.50133 -0.815305 0
M  V30 5460 C 492.914 -4.56401 0.233977 0
M  V30 5461 C 493.911 -5.08884 1.06456 0
M  V30 5462 C 491.596 -5.0088 0.377478 0
M  V30 5463 C 493.59 -6.04394 2.02452 0
M  V30 5464 C 491.277 -5.96208 1.34088 0
M  V30 5465 C 492.275 -6.47849 2.16288 0
M  V30 5466 O 491.963 -7.41308 3.10994 0
M  V30 5467 H 491.695 -0.672502 -0.0686839 0
M  V30 5468 H 494.249 -2.00484 0.446682 0
M  V30 5469 H 492.479 -3.51371 -1.61478 0
M  V30 5470 H 494.168 -3.83098 -1.34129 0
M  V30 5471 H 494.934 -4.75311 0.964596 0
M  V30 5472 H 490.813 -4.60309 -0.252405 0
M  V30 5473 H 494.357 -6.44626 2.66652 0
M  V30 5474 H 490.254 -6.29198 1.44154 0
M  V30 5475 H 491.022 -7.5913 3.06045 0
M  V30 5476 N 493.685 -0.035106 -1.57561 0
M  V30 5477 C 494.648 0.929819 -2.09492 0
M  V30 5478 C 495.648 1.25026 -1.01119 0
M  V30 5479 O 496.838 1.18961 -1.27255 0
M  V30 5480 C 493.97 2.24457 -2.56577 0
M  V30 5481 H 495.163 0.479935 -2.96035 0
M  V30 5482 H 492.716 0.213033 -1.54841 0
M  V30 5483 H 493.451 2.74061 -1.73382 0
M  V30 5484 H 493.236 2.02508 -3.35757 0
M  V30 5485 H 494.726 2.93607 -2.96959 0
M  V30 5486 N 495.163 1.55791 0.238111 0
M  V30 5487 C 496.391 1.82098 0.982233 0
M  V30 5488 C 496.806 0.612025 1.78605 0
M  V30 5489 O 496.163 -0.419381 1.77616 0
M  V30 5490 C 496.214 3.0673 1.91309 0
M  V30 5491 O 495.935 4.2296 1.14179 0
M  V30 5492 C 497.436 3.45903 2.77248 0
M  V30 5493 H 494.656 0.605748 0.288635 0
M  V30 5494 H 497.2 2.02862 0.258341 0
M  V30 5495 H 495.355 2.87991 2.59114 0
M  V30 5496 H 495.769 4.93653 1.7722 0
M  V30 5497 H 497.243 4.36189 3.38295 0
M  V30 5498 H 497.72 2.66891 3.48806 0
M  V30 5499 H 498.326 3.67024 2.14881 0
M  V30 5500 N 496.642 -0.504142 1.49319 0
M  V30 5501 C 497.572 -1.61473 1.68667 0
M  V30 5502 C 498.553 -1.61455 0.535378 0
M  V30 5503 O 499.738 -1.78245 0.770868 0
M  V30 5504 C 496.868 -2.99971 1.75028 0
M  V30 5505 C 495.822 -3.14854 2.89916 0
M  V30 5506 C 495.148 -4.54671 2.81387 0
M  V30 5507 C 496.448 -2.95176 4.30893 0
M  V30 5508 H 498.142 -1.45535 2.61648 0
M  V30 5509 H 495.688 -0.698711 1.25913 0
M  V30 5510 H 497.641 -3.77562 1.8715 0
M  V30 5511 H 496.365 -3.1699 0.786441 0
M  V30 5512 H 495.024 -2.39687 2.77391 0
M  V30 5513 H 494.672 -4.68562 1.82917 0
M  V30 5514 H 494.372 -4.6557 3.58494 0
M  V30 5515 H 495.896 -5.34327 2.95512 0
M  V30 5516 H 497.31 -3.62538 4.44116 0
M  V30 5517 H 495.707 -3.17549 5.09198 0
M  V30 5518 H 496.777 -1.91332 4.45556 0
M  V30 5519 N 498.12 -1.38341 -0.754957 0
M  V30 5520 C 499.068 -1.35573 -1.89005 0
M  V30 5521 C 500.062 -0.241824 -1.67665 0
M  V30 5522 O 501.268 -0.410785 -1.7525 0
M  V30 5523 H 497.643 -0.422898 -0.621821 0
M  V30 5524 H 499.614 -2.31359 -1.88455 0
M  V30 5525 C 498.363 -1.19631 -3.26471 0
M  V30 5526 H 497.686 -2.04605 -3.43477 0
M  V30 5527 H 499.126 -1.21748 -4.06144 0
M  V30 5528 C 497.585 0.0968705 -3.36761 0
M  V30 5529 O 498.115 1.07439 -3.87066 0
M  V30 5530 N 496.321 0.153242 -2.90196 0
M  V30 5531 H 495.868 -0.642908 -2.49448 0
M  V30 5532 H 495.826 1.01807 -2.9746 0
M  V30 5533 N 499.598 0.982988 -1.23187 0
M  V30 5534 C 500.828 1.75666 -1.08743 0
M  V30 5535 C 501.236 1.85662 0.364195 0
M  V30 5536 O 500.579 1.33317 1.26382 0
M  V30 5537 C 500.641 3.20144 -1.63549 0
M  V30 5538 C 500.305 3.33665 -3.12277 0
M  V30 5539 C 501.302 3.20194 -4.096 0
M  V30 5540 C 498.987 3.58397 -3.51933 0
M  V30 5541 C 500.981 3.31256 -5.44563 0
M  V30 5542 C 498.668 3.69098 -4.87042 0
M  V30 5543 C 499.666 3.55537 -5.83166 0
M  V30 5544 O 499.354 3.65864 -7.1582 0
M  V30 5545 H 499.086 0.558194 -0.381307 0
M  V30 5546 H 501.64 1.24387 -1.63454 0
M  V30 5547 H 499.87 3.72659 -1.03256 0
M  V30 5548 H 501.559 3.79262 -1.4462 0
M  V30 5549 H 502.325 3.00987 -3.80305 0
M  V30 5550 H 498.204 3.68025 -2.77631 0
M  V30 5551 H 501.748 3.20588 -6.19572 0
M  V30 5552 H 497.645 3.87814 -5.16014 0
M  V30 5553 H 498.413 3.82675 -7.23534 0
M  V30 5554 N 501.076 1.04316 1.18135 0
M  V30 5555 C 502.306 0.767003 1.91835 0
M  V30 5556 C 502.714 -0.68002 1.76557 0
M  V30 5557 O 502.057 -1.47548 1.09432 0
M  V30 5558 C 502.119 1.05674 3.43618 0
M  V30 5559 C 501.783 2.49818 3.82675 0
M  V30 5560 C 502.78 3.48003 3.86251 0
M  V30 5561 C 500.465 2.84596 4.13897 0
M  V30 5562 C 502.459 4.79016 4.20503 0
M  V30 5563 C 500.146 4.15813 4.4782 0
M  V30 5564 C 501.144 5.12834 4.51099 0
M  V30 5565 O 500.832 6.41699 4.84229 0
M  V30 5566 H 500.564 0.278948 0.615763 0
M  V30 5567 H 503.118 1.3946 1.50798 0
M  V30 5568 H 501.348 0.372029 3.84906 0
M  V30 5569 H 503.037 0.767994 3.98568 0
M  V30 5570 H 503.803 3.22475 3.62264 0
M  V30 5571 H 499.682 2.09748 4.1052 0
M  V30 5572 H 503.226 5.54739 4.22978 0
M  V30 5573 H 499.123 4.41109 4.71268 0
M  V30 5574 H 499.891 6.46387 5.02121 0
M  V30 5575 N 502.554 -1.34406 0.822964 0
M  V30 5576 C 503.779 -2.0304 0.423034 0
M  V30 5577 C 504.204 -1.61568 -0.963196 0
M  V30 5578 O 503.562 -0.800339 -1.62678 0
M  V30 5579 C 503.61 -3.56636 0.53321 0
M  V30 5580 O 502.714 -4.09971 -0.446939 0
M  V30 5581 H 502.055 -0.64075 0.174171 0
M  V30 5582 H 504.585 -1.71653 1.11339 0
M  V30 5583 H 504.595 -4.05945 0.408991 0
M  V30 5584 H 503.27 -3.86168 1.54425 0
M  V30 5585 H 501.847 -3.71835 -0.281601 0
M  V30 5586 N 504.032 -0.577932 -1.46621 0
M  V30 5587 C 505.257 -0.0652536 -2.07297 0
M  V30 5588 C 505.682 1.22828 -1.4246 0
M  V30 5589 O 505.04 1.74075 -0.506718 0
M  V30 5590 C 505.088 0.0920589 -3.60482 0
M  V30 5591 O 504.192 1.14972 -3.96049 0
M  V30 5592 H 503.533 -0.06065 -0.661224 0
M  V30 5593 H 506.063 -0.799515 -1.88332 0
M  V30 5594 H 506.073 0.299741 -4.06897 0
M  V30 5595 H 504.748 -0.852612 -4.07067 0
M  V30 5596 H 503.325 0.920879 -3.61351 0
M  V30 5597 N 505.51 1.54411 -0.315457 0
M  V30 5598 C 506.75 2.02329 0.290236 0
M  V30 5599 C 507.114 1.19878 1.49977 0
M  V30 5600 O 508.315 1.57562 2.17779 0
M  V30 5601 C 506.586 3.51912 0.623937 0
M  V30 5602 S 508.145 4.21775 1.21044 0
M  V30 5603 H 504.963 0.705499 0.0882739 0
M  V30 5604 H 507.565 1.90328 -0.446694 0
M  V30 5605 H 506.269 4.09546 -0.264624 0
M  V30 5606 H 505.8 3.67977 1.39128 0
M  V30 5607 H 507.815 4.28757 2.49764 0
M  V30 5608 N 506.988 0.0434614 1.5754 0
M  V30 5609 C 508.404 -0.313039 1.565 0
M  V30 5610 C 508.604 -1.71954 1.05043 0
M  V30 5611 O 507.66 -2.425 0.703564 0
M  V30 5612 C 508.973 -0.148544 3.00333 0
M  V30 5613 C 510.521 -0.220231 3.12224 0
M  V30 5614 C 510.996 -0.0843565 4.57922 0
M  V30 5615 N 512.487 -0.140881 4.62986 0
M  V30 5616 C 513.222 -0.0597443 5.73369 0
M  V30 5617 N 512.718 0.0733004 6.92761 0
M  V30 5618 N 514.511 -0.11477 5.61983 0
M  V30 5619 H 506.662 0.96303 1.89313 0
M  V30 5620 H 508.925 0.373164 0.871466 0
M  V30 5621 H 508.631 0.820894 3.41986 0
M  V30 5622 H 508.505 -0.912798 3.65989 0
M  V30 5623 H 510.892 -1.18014 2.70475 0
M  V30 5624 H 510.973 0.574646 2.49262 0
M  V30 5625 H 510.617 0.872192 5.00355 0
M  V30 5626 H 510.547 -0.898281 5.18882 0
M  V30 5627 H 513.038 -0.243273 3.77116 0
M  V30 5628 H 513.351 0.128128 7.72694 0
M  V30 5629 H 511.696 0.10828 6.94916 0
M  V30 5630 H 514.887 -0.217212 4.67596 0
M  V30 5631 H 515.06 -0.0480779 6.47982 0
M  V30 5632 N 508.466 -1.55915 -0.229846 0
M  V30 5633 C 509.413 -1.91734 -1.28478 0
M  V30 5634 C 510.383 -0.773539 -1.46988 0
M  V30 5635 O 511.568 -1.02871 -1.60693 0
M  V30 5636 C 508.708 -2.23224 -2.63182 0
M  V30 5637 C 507.821 -3.50497 -2.52539 0
M  V30 5638 C 506.956 -3.71474 -3.79711 0
M  V30 5639 C 505.995 -4.92289 -3.63755 0
M  V30 5640 N 505.132 -5.09698 -4.82858 0
M  V30 5641 H 509.972 -2.81692 -0.972308 0
M  V30 5642 H 507.509 -1.39429 -0.468815 0
M  V30 5643 H 509.467 -2.3949 -3.41614 0
M  V30 5644 H 508.097 -1.36451 -2.92542 0
M  V30 5645 H 507.149 -3.4247 -1.65585 0
M  V30 5646 H 508.461 -4.39079 -2.36666 0
M  V30 5647 H 507.615 -3.87791 -4.66586 0
M  V30 5648 H 506.354 -2.81157 -3.985 0
M  V30 5649 H 505.359 -4.7593 -2.75264 0
M  V30 5650 H 506.584 -5.84083 -3.46445 0
M  V30 5651 H 504.53 -4.22322 -5.01976 0
M  V30 5652 H 504.447 -5.92399 -4.69681 0
M  V30 5653 H 505.715 -5.30443 -5.71183 0
M  V30 5654 N 509.944 0.496216 -1.49584 0
M  V30 5655 C 511.355 1.07765 -1.52459 0
M  V30 5656 C 511.706 1.93679 -0.31353 0
M  V30 5657 O 510.831 2.08588 0.576186 0
M  V30 5658 C 511.426 1.96111 -2.76271 0
M  V30 5659 C 509.985 2.49409 -2.81908 0
M  V30 5660 C 509.132 1.27142 -2.46435 0
M  V30 5661 H 512.083 0.279914 -1.56212 0
M  V30 5662 H 512.104 2.80862 -2.56704 0
M  V30 5663 H 511.616 1.33555 -3.64396 0
M  V30 5664 H 509.717 3.1559 -1.98074 0
M  V30 5665 H 509.83 2.86234 -3.84196 0
M  V30 5666 H 508.194 1.59818 -1.98319 0
M  V30 5667 H 508.977 0.662866 -3.3684 0
M  V30 5668 N 511.423 1.38739 0.74761 0
M  V30 5669 C 512.651 1.38521 1.53686 0
M  V30 5670 C 513.066 -0.0235129 1.88785 0
M  V30 5671 O 512.423 -0.991662 1.53207 0
M  V30 5672 C 512.474 2.24641 2.83229 0
M  V30 5673 O 512.195 3.60026 2.49625 0
M  V30 5674 C 513.696 2.32669 3.77333 0
M  V30 5675 H 510.916 0.473589 0.475347 0
M  V30 5676 H 513.46 1.82395 0.924786 0
M  V30 5677 H 511.615 1.84213 3.40799 0
M  V30 5678 H 512.029 4.05435 3.3275 0
M  V30 5679 H 513.503 2.97201 4.65162 0
M  V30 5680 H 513.98 1.3421 4.18192 0
M  V30 5681 H 514.586 2.73512 3.25685 0
M  V30 5682 N 512.901 -0.976442 1.23707 0
M  V30 5683 C 514.129 -1.75341 1.09833 0
M  V30 5684 C 514.544 -1.8553 -0.349885 0
M  V30 5685 O 513.901 -1.33732 -1.24185 0
M  V30 5686 C 513.952 -3.17833 1.72233 0
M  V30 5687 O 513.673 -3.08167 3.11391 0
M  V30 5688 C 515.174 -4.11906 1.63853 0
M  V30 5689 H 512.394 -0.550137 0.384175 0
M  V30 5690 H 514.938 -1.2265 1.63638 0
M  V30 5691 H 513.093 -3.67538 1.22452 0
M  V30 5692 H 513.507 -3.97897 3.41729 0
M  V30 5693 H 514.981 -5.09579 2.12211 0
M  V30 5694 H 515.458 -4.35109 0.598092 0
M  V30 5695 H 516.064 -3.68107 2.13019 0
M  V30 5696 N 514.379 -1.04941 -1.1758 0
M  V30 5697 C 515.607 -0.778294 -1.91703 0
M  V30 5698 C 516.022 0.665697 -1.76675 0
M  V30 5699 O 515.379 1.45456 -1.10222 0
M  V30 5700 C 515.43 -1.14628 -3.42845 0
M  V30 5701 O 515.151 -2.53359 -3.57409 0
M  V30 5702 C 516.652 -0.900931 -4.34049 0
M  V30 5703 H 513.872 -0.283167 -0.608323 0
M  V30 5704 H 516.416 -1.39942 -1.49119 0
M  V30 5705 H 514.571 -0.569953 -3.83184 0
M  V30 5706 H 514.985 -2.67709 -4.51035 0
M  V30 5707 H 516.459 -1.20817 -5.38616 0
M  V30 5708 H 516.936 0.163966 -4.38894 0
M  V30 5709 H 517.542 -1.46097 -3.99419 0
M  V30 5710 N 515.857 1.33968 -0.830081 0
M  V30 5711 C 516.804 2.29387 -0.255008 0
M  V30 5712 C 517.774 1.53923 0.624243 0
M  V30 5713 O 518.959 1.82262 0.564372 0
M  V30 5714 C 516.099 3.4034 0.571209 0
M  V30 5715 C 515.212 4.30729 -0.331083 0
M  V30 5716 C 514.347 5.2879 0.505389 0
M  V30 5717 C 513.386 6.10819 -0.395843 0
M  V30 5718 N 512.523 7.00948 0.401979 0
M  V30 5719 H 517.363 2.77972 -1.07404 0
M  V30 5720 H 514.9 1.36785 -0.541133 0
M  V30 5721 H 516.858 4.03361 1.06562 0
M  V30 5722 H 515.488 2.9297 1.35529 0
M  V30 5723 H 514.54 3.68507 -0.943759 0
M  V30 5724 H 515.852 4.88181 -1.02377 0
M  V30 5725 H 515.006 5.97297 1.06399 0
M  V30 5726 H 513.745 4.71894 1.23155 0
M  V30 5727 H 512.75 5.41238 -0.966529 0
M  V30 5728 H 513.975 6.69797 -1.12023 0
M  V30 5729 H 511.921 6.46512 1.11168 0
M  V30 5730 H 511.838 7.55643 -0.232167 0
M  V30 5731 H 513.106 7.73774 0.943102 0
M  V30 5732 N 517.335 0.585699 1.46312 0
M  V30 5733 C 518.282 -0.145835 2.30339 0
M  V30 5734 C 519.252 -0.881215 1.40797 0
M  V30 5735 O 520.437 -0.871293 1.69744 0
M  V30 5736 C 517.577 -1.15161 3.25318 0
M  V30 5737 C 516.69 -0.419367 4.2996 0
M  V30 5738 C 515.825 -1.41293 5.12064 0
M  V30 5739 C 514.864 -0.667261 6.08452 0
M  V30 5740 N 514.001 -1.60903 6.83414 0
M  V30 5741 H 518.841 0.576755 2.92365 0
M  V30 5742 H 516.378 0.296237 1.44086 0
M  V30 5743 H 518.336 -1.74763 3.78832 0
M  V30 5744 H 516.966 -1.84188 2.65094 0
M  V30 5745 H 516.018 0.291751 3.7928 0
M  V30 5746 H 517.33 0.163433 4.98532 0
M  V30 5747 H 516.484 -2.08167 5.6987 0
M  V30 5748 H 515.223 -2.02966 4.43459 0
M  V30 5749 H 514.228 0.0152356 5.49798 0
M  V30 5750 H 515.453 -0.0558817 6.79077 0
M  V30 5751 H 513.399 -2.21381 6.17516 0
M  V30 5752 H 513.316 -1.07911 7.48259 0
M  V30 5753 H 514.584 -2.26802 7.45775 0
M  V30 5754 N 518.813 -1.54241 0.323641 0
M  V30 5755 C 520.041 -2.04985 -0.280871 0
M  V30 5756 C 520.456 -1.19978 -1.45777 0
M  V30 5757 O 519.813 -0.230471 -1.81039 0
M  V30 5758 C 519.864 -3.54353 -0.715258 0
M  V30 5759 O 519.585 -4.36132 0.414817 0
M  V30 5760 C 521.086 -4.21189 -1.38257 0
M  V30 5761 H 518.306 -0.66851 -0.0577502 0
M  V30 5762 H 520.85 -1.99029 0.469852 0
M  V30 5763 H 519.005 -3.60596 -1.41596 0
M  V30 5764 H 519.419 -5.2445 0.0725227 0
M  V30 5765 H 520.893 -5.27154 -1.63745 0
M  V30 5766 H 521.37 -3.72307 -2.32989 0
M  V30 5767 H 521.976 -4.19085 -0.724447 0
M  V30 5768 N 520.291 -0.0518155 -1.57515 0
M  V30 5769 C 521.519 0.631395 -1.9703 0
M  V30 5770 C 521.934 1.64341 -0.92938 0
M  V30 5771 O 521.291 1.82296 0.0863266 0
M  V30 5772 C 521.342 1.31774 -3.36627 0
M  V30 5773 O 521.063 0.346247 -4.3673 0
M  V30 5774 C 522.564 2.09065 -3.90905 0
M  V30 5775 H 519.784 0.172576 -0.648428 0
M  V30 5776 H 522.328 -0.118306 -2.04158 0
M  V30 5777 H 520.483 2.01867 -3.30649 0
M  V30 5778 H 520.897 0.836226 -5.17791 0
M  V30 5779 H 522.371 2.52508 -4.9086 0
M  V30 5780 H 522.848 2.93908 -3.26366 0
M  V30 5781 H 523.454 1.43882 -4.00223 0
M  V30 5782 N 521.769 1.56035 0.221574 0
M  V30 5783 C 522.994 1.83476 0.967026 0
M  V30 5784 C 523.419 0.632139 1.7716 0
M  V30 5785 O 522.777 -0.419082 1.7639 0
M  V30 5786 C 522.825 3.08907 1.86034 0
M  V30 5787 O 521.929 2.876 2.95567 0
M  V30 5788 H 521.27 0.604913 0.273817 0
M  V30 5789 H 523.8 2.03247 0.234893 0
M  V30 5790 H 523.81 3.3901 2.27016 0
M  V30 5791 H 522.485 3.96068 1.26898 0
M  V30 5792 H 521.062 2.6873 2.58532 0
M  V30 5793 N 523.247 -0.488276 1.49845 0
M  V30 5794 C 524.177 -1.59675 1.70371 0
M  V30 5795 C 525.158 -1.60878 0.552473 0
M  V30 5796 O 526.343 -1.77417 0.78973 0
M  V30 5797 C 523.473 -2.98098 1.782 0
M  V30 5798 C 522.427 -3.11761 2.93239 0
M  V30 5799 C 521.753 -4.51661 2.86193 0
M  V30 5800 C 523.053 -2.90589 4.33999 0
M  V30 5801 H 524.747 -1.42752 2.63177 0
M  V30 5802 H 522.293 -0.685317 1.26647 0
M  V30 5803 H 524.246 -3.75555 1.91144 0
M  V30 5804 H 522.97 -3.16138 0.820018 0
M  V30 5805 H 521.629 -2.36732 2.79917 0
M  V30 5806 H 521.277 -4.66595 1.87877 0
M  V30 5807 H 520.977 -4.61742 3.63412 0
M  V30 5808 H 522.501 -5.31162 3.01163 0
M  V30 5809 H 523.915 -3.57807 4.47936 0
M  V30 5810 H 522.312 -3.1213 5.12538 0
M  V30 5811 H 523.382 -1.86595 4.4756 0
M  V30 5812 N 524.725 -1.39134 -0.740242 0
M  V30 5813 C 525.655 -1.40165 -1.86751 0
M  V30 5814 C 526.636 -0.265708 -1.68012 0
M  V30 5815 O 527.821 -0.47076 -1.88408 0
M  V30 5816 C 524.951 -1.2392 -3.2444 0
M  V30 5817 C 523.905 -2.34858 -3.57807 0
M  V30 5818 C 523.231 -2.03707 -4.94376 0
M  V30 5819 C 524.531 -3.77159 -3.61315 0
M  V30 5820 H 526.225 -2.345 -1.86145 0
M  V30 5821 H 523.771 -1.12875 -0.89416 0
M  V30 5822 H 525.724 -1.23263 -4.02969 0
M  V30 5823 H 524.448 -0.26051 -3.25559 0
M  V30 5824 H 523.107 -2.34723 -2.81604 0
M  V30 5825 H 522.755 -1.04289 -4.9207 0
M  V30 5826 H 522.455 -2.78016 -5.17669 0
M  V30 5827 H 523.979 -2.04691 -5.75268 0
M  V30 5828 H 525.393 -3.79252 -4.29931 0
M  V30 5829 H 523.79 -4.50784 -3.96124 0
M  V30 5830 H 524.86 -4.08513 -2.61238 0
M  V30 5831 N 526.204 0.969867 -1.24223 0
M  V30 5832 C 527.154 2.04913 -0.999732 0
M  V30 5833 C 528.138 1.60795 0.0580636 0
M  V30 5834 O 529.33 1.76317 -0.155392 0
M  V30 5835 C 526.459 3.37942 -0.604154 0
M  V30 5836 C 525.545 3.88628 -1.69791 0
M  V30 5837 N 525.936 4.12274 -2.93025 0
M  V30 5838 C 524.234 4.17268 -1.57492 0
M  V30 5839 C 524.935 4.53808 -3.63914 0
M  V30 5840 N 523.911 4.58855 -2.91468 0
M  V30 5841 H 527.713 2.21168 -1.93551 0
M  V30 5842 H 525.227 1.15349 -1.14317 0
M  V30 5843 H 527.224 4.14863 -0.411665 0
M  V30 5844 H 525.884 3.23075 0.324465 0
M  V30 5845 H 526.895 3.99789 -3.29225 0
M  V30 5846 H 523.572 4.11346 -0.714175 0
M  V30 5847 H 524.962 4.80534 -4.69614 0
M  V30 5848 N 527.682 1.05563 1.17022 0
M  V30 5849 C 529.093 0.793475 1.69 0
M  V30 5850 C 529.444 -0.683882 1.83895 0
M  V30 5851 O 528.569 -1.53116 1.5292 0
M  V30 5852 C 529.164 1.43376 3.06967 0
M  V30 5853 C 527.723 1.21956 3.56095 0
M  V30 5854 C 526.87 1.51494 2.3226 0
M  V30 5855 H 529.821 1.22008 1.01487 0
M  V30 5856 H 529.842 0.845068 3.70997 0
M  V30 5857 H 529.354 2.50899 2.96093 0
M  V30 5858 H 527.455 0.163749 3.7224 0
M  V30 5859 H 527.568 1.92713 4.38633 0
M  V30 5860 H 525.932 0.935175 2.3691 0
M  V30 5861 H 526.715 2.60159 2.23992 0
M  V30 5862 N 529.16 -1.33526 0.837174 0
M  V30 5863 C 530.437 -1.92369 0.354065 0
M  V30 5864 C 530.817 -1.76348 -1.16038 0
M  V30 5865 O 530.165 -1.15083 -1.97403 0
M  V30 5866 C 530.375 -3.39728 0.799101 0
M  V30 5867 C 531.723 -4.16877 0.806139 0
M  V30 5868 O 532.747 -3.48373 0.742597 0
M  V30 5869 O 531.606 -5.39166 0.892345 0
M  V30 5870 H 528.7 -0.820952 0.0998378 0
M  V30 5871 H 531.246 -1.42409 0.922913 0
M  V30 5872 H 530.018 -3.45254 1.84162 0
M  V30 5873 H 529.641 -3.97062 0.206731 0
M  V30 5874 N 530.638 -0.59345 -1.46 0
M  V30 5875 C 531.863 -0.0872365 -2.07216 0
M  V30 5876 C 532.288 1.2131 -1.43755 0
M  V30 5877 O 531.646 1.73528 -0.525152 0
M  V30 5878 C 531.694 0.0538197 -3.6056 0
M  V30 5879 O 530.798 1.10765 -3.97247 0
M  V30 5880 H 530.139 -0.0676598 -0.660544 0
M  V30 5881 H 532.669 -0.819445 -1.87473 0
M  V30 5882 H 532.679 0.256567 -4.07193 0
M  V30 5883 H 531.354 -0.895739 -4.0614 0
M  V30 5884 H 529.931 0.882501 -3.62307 0
M  V30 5885 N 532.116 1.54067 -0.331816 0
M  V30 5886 C 533.341 2.05599 0.272705 0
M  V30 5887 C 533.766 1.2059 1.44359 0
M  V30 5888 O 533.124 0.216907 1.79998 0
M  V30 5889 C 533.172 3.54188 0.677021 0
M  V30 5890 O 532.276 3.72082 1.77844 0
M  V30 5891 H 531.617 0.662286 0.0476801 0
M  V30 5892 H 534.147 1.98826 -0.482624 0
M  V30 5893 H 534.157 3.96608 0.957415 0
M  V30 5894 H 532.832 4.15513 -0.179325 0
M  V30 5895 H 531.409 3.41566 1.49622 0
M  V30 5896 N 533.594 0.0601682 1.57485 0
M  V30 5897 C 535.01 -0.296422 1.56823 0
M  V30 5898 C 535.21 -1.70831 1.0686 0
M  V30 5899 O 534.266 -2.4174 0.729245 0
M  V30 5900 C 535.579 -0.116681 3.00474 0
M  V30 5901 C 537.127 -0.187103 3.1244 0
M  V30 5902 C 537.602 -0.035783 4.57986 0
M  V30 5903 N 539.093 -0.0917676 4.63109 0
M  V30 5904 C 539.828 0.00107251 5.734 0
M  V30 5905 N 539.324 0.146773 6.92645 0
M  V30 5906 N 541.117 -0.0551577 5.62073 0
M  V30 5907 H 533.268 0.983055 1.88281 0
M  V30 5908 H 535.531 0.382386 0.867459 0
M  V30 5909 H 535.237 0.85712 3.41096 0
M  V30 5910 H 535.111 -0.873929 3.66936 0
M  V30 5911 H 537.498 -1.15138 2.71712 0
M  V30 5912 H 537.579 0.601052 2.48638 0
M  V30 5913 H 537.223 0.925212 4.99402 0
M  V30 5914 H 537.153 -0.843196 5.19806 0
M  V30 5915 H 539.644 -0.203261 3.77353 0
M  V30 5916 H 539.957 0.210076 7.72514 0
M  V30 5917 H 538.302 0.181979 6.94762 0
M  V30 5918 H 541.493 -0.167605 4.678 0
M  V30 5919 H 541.666 0.020652 6.47997 0
M  V30 5920 N 535.072 -1.5615 -0.213296 0
M  V30 5921 C 536.318 -1.80718 -0.933402 0
M  V30 5922 C 536.673 -0.634441 -1.81639 0
M  V30 5923 O 535.966 0.371182 -1.8797 0
M  V30 5924 C 536.16 -3.08772 -1.79985 0
M  V30 5925 C 535.989 -4.38389 -1.00224 0
M  V30 5926 C 534.759 -5.00513 -0.693885 0
M  V30 5927 C 536.957 -5.13013 -0.363598 0
M  V30 5928 N 534.939 -6.13774 0.124266 0
M  V30 5929 C 536.31 -6.19186 0.31757 0
M  V30 5930 C 538.365 -4.97126 -0.277468 0
M  V30 5931 C 537.068 -7.11197 1.07664 0
M  V30 5932 C 539.094 -5.89544 0.468155 0
M  V30 5933 C 538.456 -6.95149 1.13784 0
M  V30 5934 H 534.555 -0.712833 -0.321549 0
M  V30 5935 H 537.139 -1.93633 -0.203588 0
M  V30 5936 H 535.31 -2.97126 -2.50142 0
M  V30 5937 H 537.042 -3.21499 -2.45806 0
M  V30 5938 H 533.797 -4.62619 -1.01391 0
M  V30 5939 H 534.221 -6.74981 0.522418 0
M  V30 5940 H 538.863 -4.15526 -0.78087 0
M  V30 5941 H 536.581 -7.92273 1.59153 0
M  V30 5942 H 540.167 -5.79327 0.535911 0
M  V30 5943 H 539.047 -7.65428 1.70557 0
M  V30 5944 N 536.55 0.480323 -1.50102 0
M  V30 5945 C 537.799 1.22979 -1.59872 0
M  V30 5946 C 538.112 1.93282 -0.30022 0
M  V30 5947 O 539.318 2.70086 -0.276709 0
M  V30 5948 C 537.774 2.23408 -2.82164 0
M  V30 5949 C 537.382 1.5895 -4.18854 0
M  V30 5950 C 539.126 2.99055 -3.01275 0
M  V30 5951 C 537.033 2.57611 -5.32344 0
M  V30 5952 H 535.963 0.462707 -0.59533 0
M  V30 5953 H 538.614 0.501291 -1.7652 0
M  V30 5954 H 536.996 2.99511 -2.59055 0
M  V30 5955 H 538.17 0.887 -4.52182 0
M  V30 5956 H 536.485 0.956191 -4.05273 0
M  V30 5957 H 539.082 3.72876 -3.83233 0
M  V30 5958 H 539.425 3.57897 -2.12639 0
M  V30 5959 H 539.958 2.30066 -3.24522 0
M  V30 5960 H 536.697 2.03521 -6.23105 0
M  V30 5961 H 536.217 3.26041 -5.03445 0
M  V30 5962 H 537.896 3.19627 -5.62537 0
M  V30 5963 N 538.028 1.39524 0.732853 0
M  V30 5964 C 539.439 1.32905 1.31122 0
M  V30 5965 C 539.79 -0.00558708 1.96199 0
M  V30 5966 O 538.915 -0.907706 1.96443 0
M  V30 5967 C 539.51 2.40704 2.38426 0
M  V30 5968 C 538.069 2.37599 2.91931 0
M  V30 5969 C 537.216 2.2248 1.65523 0
M  V30 5970 H 540.167 1.49581 0.530207 0
M  V30 5971 H 540.188 2.07616 3.18867 0
M  V30 5972 H 539.7 3.37829 1.91033 0
M  V30 5973 H 537.801 1.44119 3.43599 0
M  V30 5974 H 537.914 3.32538 3.44899 0
M  V30 5975 H 536.278 1.69691 1.8994 0
M  V30 5976 H 537.061 3.21577 1.20178 0
M  V30 5977 N 539.506 -0.963266 1.24736 0
M  V30 5978 C 540.416 -2.09246 1.06082 0
M  V30 5979 C 541.432 -1.74 0.000363101 0
M  V30 5980 O 542.608 -2.0041 0.199479 0
M  V30 5981 C 539.673 -3.40115 0.672498 0
M  V30 5982 C 538.734 -3.89282 1.80993 0
M  V30 5983 C 537.967 -5.13905 1.44004 0
M  V30 5984 O 538.19 -5.69434 0.331835 0
M  V30 5985 O 537.124 -5.57566 2.26723 0
M  V30 5986 H 540.95 -2.27881 2.00759 0
M  V30 5987 H 538.535 -1.07649 1.03595 0
M  V30 5988 H 540.417 -4.18797 0.467668 0
M  V30 5989 H 539.092 -3.22771 -0.245102 0
M  V30 5990 H 537.999 -3.11642 2.06955 0
M  V30 5991 H 539.332 -4.1111 2.70646 0
M  V30 5992 N 540.985 -1.06182 -1.16461 0
M  V30 5993 C 542.401 -0.785065 -1.38956 0
M  V30 5994 C 542.601 0.616103 -1.9185 0
M  V30 5995 O 541.657 1.37686 -2.11657 0
M  V30 5996 C 542.97 -1.84902 -2.37132 0
M  V30 5997 C 544.518 -1.8724 -2.50819 0
M  V30 5998 C 544.993 -2.92686 -3.52277 0
M  V30 5999 N 546.484 -2.91712 -3.59803 0
M  V30 6000 C 547.219 -3.69949 -4.38093 0
M  V30 6001 N 546.715 -4.58 -5.19815 0
M  V30 6002 N 548.508 -3.58346 -4.33064 0
M  V30 6003 H 540.659 -1.96569 -0.804634 0
M  V30 6004 H 542.922 -0.851747 -0.416211 0
M  V30 6005 H 542.628 -2.85518 -2.0536 0
M  V30 6006 H 542.502 -1.69908 -3.36766 0
M  V30 6007 H 544.889 -0.872827 -2.81897 0
M  V30 6008 H 544.97 -2.06311 -1.51226 0
M  V30 6009 H 544.614 -3.92835 -3.21937 0
M  V30 6010 H 544.544 -2.70864 -4.51598 0
M  V30 6011 H 547.035 -2.27876 -3.01464 0
M  V30 6012 H 547.348 -5.14357 -5.76764 0
M  V30 6013 H 545.693 -4.62056 -5.19162 0
M  V30 6014 H 548.884 -2.88943 -3.68279 0
M  V30 6015 H 549.057 -4.19563 -4.93833 0
M  V30 6016 N 542.463 1.3308 -0.844243 0
M  V30 6017 C 543.712 1.96868 -0.438833 0
M  V30 6018 C 544.025 1.67599 1.00846 0
M  V30 6019 O 545.231 2.25043 1.51881 0
M  V30 6020 C 543.687 3.5234 -0.73377 0
M  V30 6021 C 543.295 3.90481 -2.1961 0
M  V30 6022 C 545.039 4.22653 -0.395574 0
M  V30 6023 C 542.946 5.38954 -2.43481 0
M  V30 6024 H 541.876 0.736749 -0.160364 0
M  V30 6025 H 544.527 1.51623 -1.03358 0
M  V30 6026 H 542.909 3.95941 -0.068589 0
M  V30 6027 H 544.083 3.57922 -2.90221 0
M  V30 6028 H 542.398 3.33165 -2.4978 0
M  V30 6029 H 544.995 5.31848 -0.551477 0
M  V30 6030 H 545.338 4.11004 0.661921 0
M  V30 6031 H 545.871 3.84601 -1.01621 0
M  V30 6032 H 542.61 5.55612 -3.47816 0
M  V30 6033 H 542.13 5.72954 -1.77437 0
M  V30 6034 H 543.809 6.05907 -2.26905 0
M  V30 6035 N 543.941 0.601185 1.45683 0
M  V30 6036 C 545.166 0.0982245 2.07167 0
M  V30 6037 C 545.591 -1.20546 1.44396 0
M  V30 6038 O 544.949 -1.73247 0.534347 0
M  V30 6039 C 544.997 -0.0346976 3.60583 0
M  V30 6040 O 544.101 -1.08657 3.97828 0
M  V30 6041 H 543.442 0.0711618 0.660176 0
M  V30 6042 H 545.972 0.829376 1.87036 0
M  V30 6043 H 545.982 -0.234969 4.07323 0
M  V30 6044 H 544.657 0.917265 4.05659 0
M  V30 6045 H 543.234 -0.863275 3.6277 0
M  V30 6046 N 545.419 -1.53889 0.339982 0
M  V30 6047 C 546.349 -2.27843 -0.510856 0
M  V30 6048 C 547.33 -1.29267 -1.10563 0
M  V30 6049 O 548.515 -1.58104 -1.12768 0
M  V30 6050 C 545.645 -3.04857 -1.66372 0
M  V30 6051 C 544.599 -4.10907 -1.19746 0
M  V30 6052 C 543.925 -4.75855 -2.43857 0
M  V30 6053 C 545.225 -5.21435 -0.300501 0
M  V30 6054 H 546.919 -2.99212 0.106067 0
M  V30 6055 H 544.465 -1.43904 0.0524533 0
M  V30 6056 H 546.418 -3.5533 -2.26537 0
M  V30 6057 H 545.142 -2.31133 -2.30749 0
M  V30 6058 H 543.801 -3.61342 -0.618654 0
M  V30 6059 H 543.449 -3.9873 -3.06633 0
M  V30 6060 H 543.149 -5.47502 -2.13343 0
M  V30 6061 H 544.673 -5.2911 -3.04754 0
M  V30 6062 H 546.087 -5.67565 -0.80889 0
M  V30 6063 H 544.484 -6.00036 -0.0874076 0
M  V30 6064 H 545.554 -4.80328 0.664321 0
M  V30 6065 N 546.897 -0.0685191 -1.57451 0
M  V30 6066 C 547.829 0.929372 -2.09512 0
M  V30 6067 C 548.842 1.26354 -1.02657 0
M  V30 6068 O 550.031 1.2213 -1.30179 0
M  V30 6069 C 547.131 2.24612 -2.53777 0
M  V30 6070 C 546.304 2.09128 -3.84167 0
M  V30 6071 C 545.363 3.24079 -4.14559 0
M  V30 6072 O 544.389 2.99215 -4.8421 0
M  V30 6073 N 545.591 4.49077 -3.67845 0
M  V30 6074 H 548.356 0.484901 -2.95751 0
M  V30 6075 H 545.917 0.11729 -1.61475 0
M  V30 6076 H 547.909 3.00412 -2.71172 0
M  V30 6077 H 546.479 2.60569 -1.72692 0
M  V30 6078 H 545.699 1.17815 -3.76182 0
M  V30 6079 H 546.987 1.9603 -4.69521 0
M  V30 6080 H 546.385 4.72165 -3.11571 0
M  V30 6081 H 544.942 5.21915 -3.90446 0
M  V30 6082 N 548.375 1.56261 0.205012 0
M  V30 6083 C 549.338 1.92908 1.23771 0
M  V30 6084 C 550.338 0.809208 1.38955 0
M  V30 6085 O 551.528 1.07676 1.36936 0
M  V30 6086 C 548.66 2.19442 2.60879 0
M  V30 6087 H 549.853 2.85287 0.924728 0
M  V30 6088 H 547.406 1.49798 0.446125 0
M  V30 6089 H 548.141 1.29668 2.97248 0
M  V30 6090 H 547.926 3.0104 2.51232 0
M  V30 6091 H 549.416 2.48833 3.35368 0
M  V30 6092 N 549.853 -0.472356 1.50355 0
M  V30 6093 C 551.264 -1.05326 1.54154 0
M  V30 6094 C 551.615 -1.93155 0.344303 0
M  V30 6095 O 550.74 -2.09479 -0.542928 0
M  V30 6096 C 551.335 -1.91691 2.79356 0
M  V30 6097 C 549.894 -2.44892 2.8584 0
M  V30 6098 C 549.041 -1.23205 2.48426 0
M  V30 6099 H 551.992 -0.255027 1.56637 0
M  V30 6100 H 552.013 -2.76742 2.6114 0
M  V30 6101 H 551.525 -1.27741 3.66475 0
M  V30 6102 H 549.626 -3.12399 2.0307 0
M  V30 6103 H 549.739 -2.80086 3.88701 0
M  V30 6104 H 548.103 -1.56643 2.00836 0
M  V30 6105 H 548.886 -0.609194 3.37852 0
M  V30 6106 N 551.331 -1.39911 -0.725443 0
M  V30 6107 C 552.556 -1.41137 -1.5197 0
M  V30 6108 C 552.981 -0.010262 -1.88097 0
M  V30 6109 O 552.339 0.979184 -1.52583 0
M  V30 6110 C 552.387 -2.2994 -2.77777 0
M  V30 6111 O 551.491 -1.73586 -3.74088 0
M  V30 6112 H 550.832 -0.480219 -0.458569 0
M  V30 6113 H 553.362 -1.84023 -0.894249 0
M  V30 6114 H 553.372 -2.44785 -3.26411 0
M  V30 6115 H 552.047 -3.31759 -2.50816 0
M  V30 6116 H 550.624 -1.68035 -3.32894 0
M  V30 6117 N 552.809 0.956637 -1.25245 0
M  V30 6118 C 553.757 2.0743 -1.0524 0
M  V30 6119 C 554.751 1.69392 0.0160725 0
M  V30 6120 O 555.957 1.7946 -0.139382 0
M  V30 6121 H 552.332 0.678921 -0.323373 0
M  V30 6122 H 554.303 2.2146 -1.99995 0
M  V30 6123 C 553.052 3.40872 -0.685702 0
M  V30 6124 H 552.375 3.70607 -1.49968 0
M  V30 6125 H 553.815 4.19939 -0.585415 0
M  V30 6126 C 552.274 3.31367 0.608082 0
M  V30 6127 O 552.804 3.66214 1.65076 0
M  V30 6128 N 551.01 2.84486 0.592955 0
M  V30 6129 H 550.557 2.56326 -0.25592 0
M  V30 6130 H 550.515 2.78509 1.45877 0
M  V30 6131 N 554.287 1.06798 1.15896 0
M  V30 6132 C 555.517 0.807522 1.90165 0
M  V30 6133 C 555.925 -0.642417 1.7796 0
M  V30 6134 O 555.268 -1.45193 1.12537 0
M  V30 6135 C 555.33 1.12939 3.41299 0
M  V30 6136 C 554.994 2.57879 3.7729 0
M  V30 6137 C 555.991 3.56118 3.78782 0
M  V30 6138 C 553.676 2.93311 4.07767 0
M  V30 6139 C 555.67 4.87827 4.10248 0
M  V30 6140 C 553.357 4.25219 4.38899 0
M  V30 6141 C 554.355 5.22287 4.4012 0
M  V30 6142 O 554.043 6.51826 4.70508 0
M  V30 6143 H 553.775 0.291946 0.609708 0
M  V30 6144 H 556.329 1.42627 1.47806 0
M  V30 6145 H 554.559 0.45359 3.84031 0
M  V30 6146 H 556.248 0.852363 3.9685 0
M  V30 6147 H 557.014 3.30086 3.55342 0
M  V30 6148 H 552.893 2.18409 4.05979 0
M  V30 6149 H 556.437 5.63586 4.11116 0
M  V30 6150 H 552.334 4.51006 4.61805 0
M  V30 6151 H 553.102 6.56893 4.88298 0
M  V30 6152 N 555.766 -1.3263 0.851289 0
M  V30 6153 C 556.991 -2.02097 0.466006 0
M  V30 6154 C 557.416 -1.63574 -0.928709 0
M  V30 6155 O 556.774 -0.834665 -1.60944 0
M  V30 6156 C 556.822 -3.55425 0.608737 0
M  V30 6157 O 555.926 -4.10827 -0.359878 0
M  V30 6158 H 555.267 -0.636911 0.187724 0
M  V30 6159 H 557.797 -1.69253 1.14955 0
M  V30 6160 H 557.807 -4.04986 0.495006 0
M  V30 6161 H 556.482 -3.82806 1.62581 0
M  V30 6162 H 555.059 -3.72349 -0.202666 0
M  V30 6163 N 557.244 -0.608902 -1.45362 0
M  V30 6164 C 558.174 0.0964526 -2.33301 0
M  V30 6165 C 559.155 0.857444 -1.46908 0
M  V30 6166 O 560.34 0.827735 -1.75676 0
M  V30 6167 C 557.47 1.09354 -3.29635 0
M  V30 6168 C 556.424 0.445676 -4.25673 0
M  V30 6169 C 555.75 1.5511 -5.11708 0
M  V30 6170 C 557.05 -0.633972 -5.18438 0
M  V30 6171 H 558.744 -0.637829 -2.92527 0
M  V30 6172 H 556.29 -0.308178 -1.40664 0
M  V30 6173 H 558.243 1.59556 -3.90025 0
M  V30 6174 H 556.967 1.85843 -2.6857 0
M  V30 6175 H 555.626 -0.0354897 -3.66583 0
M  V30 6176 H 555.274 2.30631 -4.4701 0
M  V30 6177 H 554.974 1.12311 -5.76767 0
M  V30 6178 H 556.498 2.05537 -5.74967 0
M  V30 6179 H 557.912 -0.215974 -5.72893 0
M  V30 6180 H 556.309 -0.983789 -5.91981 0
M  V30 6181 H 557.379 -1.51005 -4.60788 0
M  V30 6182 N 558.722 1.53707 -0.348139 0
M  V30 6183 C 559.652 2.28111 0.498766 0
M  V30 6184 C 560.633 1.29851 1.09876 0
M  V30 6185 O 561.818 1.587 1.11928 0
M  V30 6186 C 558.948 3.05735 1.64753 0
M  V30 6187 C 557.902 4.11537 1.17565 0
M  V30 6188 C 557.228 4.77142 2.4133 0
M  V30 6189 C 558.528 5.21587 0.272844 0
M  V30 6190 H 560.222 2.99152 -0.121934 0
M  V30 6191 H 557.768 1.43875 -0.0600842 0
M  V30 6192 H 559.721 3.56526 2.24649 0
M  V30 6193 H 558.445 2.32354 2.2952 0
M  V30 6194 H 557.104 3.61665 0.599483 0
M  V30 6195 H 556.752 4.0035 3.04514 0
M  V30 6196 H 556.452 5.48626 2.10436 0
M  V30 6197 H 557.976 5.30719 3.01943 0
M  V30 6198 H 559.39 5.67986 0.778779 0
M  V30 6199 H 557.787 6.00074 0.0555849 0
M  V30 6200 H 558.857 4.79969 -0.689785 0
M  V30 6201 N 560.2 0.0768682 1.57412 0
M  V30 6202 C 561.477 -0.632359 1.85096 0
M  V30 6203 C 561.857 -1.87479 0.9703 0
M  V30 6204 O 561.205 -2.28469 0.0379062 0
M  V30 6205 C 561.415 -0.965174 3.35388 0
M  V30 6206 C 562.763 -1.33648 4.03018 0
M  V30 6207 O 563.787 -1.05675 3.40164 0
M  V30 6208 O 562.646 -1.85959 5.13889 0
M  V30 6209 H 559.74 -0.314574 0.764835 0
M  V30 6210 H 562.286 0.108184 1.69355 0
M  V30 6211 H 561.058 -0.0829745 3.91212 0
M  V30 6212 H 560.681 -1.76231 3.5641 0
M  V30 6213 N 561.678 -1.56367 -0.196722 0
M  V30 6214 C 562.611 -1.89475 -1.2718 0
M  V30 6215 C 563.589 -0.754667 -1.44026 0
M  V30 6216 O 564.773 -1.00551 -1.59442 0
M  V30 6217 C 561.9 -2.12352 -2.63864 0
M  V30 6218 C 560.946 -3.35053 -2.63897 0
M  V30 6219 S 561.779 -4.90228 -2.15492 0
M  V30 6220 C 562.935 -5.16171 -3.54004 0
M  V30 6221 H 563.168 -2.80365 -0.989075 0
M  V30 6222 H 560.701 -1.49125 -0.40014 0
M  V30 6223 H 562.659 -2.26214 -3.42545 0
M  V30 6224 H 561.32 -1.22214 -2.89349 0
M  V30 6225 H 560.513 -3.48182 -3.64397 0
M  V30 6226 H 560.115 -3.20176 -1.93296 0
M  V30 6227 H 562.407 -5.06591 -4.49857 0
M  V30 6228 H 563.35 -6.17938 -3.45771 0
M  V30 6229 H 563.758 -4.43814 -3.48841 0
M  V30 6230 N 563.156 0.464375 -1.50603 0
M  V30 6231 C 564.572 0.798684 -1.38178 0
M  V30 6232 C 564.772 1.96568 -0.44308 0
M  V30 6233 O 563.828 2.52252 0.111814 0
M  V30 6234 C 565.141 1.10444 -2.79683 0
M  V30 6235 C 566.689 1.2105 -2.88645 0
M  V30 6236 C 567.164 1.54934 -4.30998 0
M  V30 6237 N 568.655 1.61913 -4.3398 0
M  V30 6238 C 569.39 1.8965 -5.41129 0
M  V30 6239 N 568.886 2.15361 -6.58477 0
M  V30 6240 N 570.679 1.91207 -5.28579 0
M  V30 6241 H 562.83 -0.304603 -2.10204 0
M  V30 6242 H 565.093 -0.0737804 -0.945125 0
M  V30 6243 H 564.799 0.319934 -3.50242 0
M  V30 6244 H 564.673 2.03896 -3.17342 0
M  V30 6245 H 567.06 1.98567 -2.18301 0
M  V30 6246 H 567.141 0.255613 -2.5452 0
M  V30 6247 H 566.785 0.779549 -5.01882 0
M  V30 6248 H 566.715 2.51584 -4.62615 0
M  V30 6249 H 569.206 1.44055 -3.49366 0
M  V30 6250 H 569.519 2.35818 -7.35941 0
M  V30 6251 H 567.864 2.1274 -6.6164 0
M  V30 6252 H 571.055 1.70622 -4.35897 0
M  V30 6253 H 571.228 2.12488 -6.12171 0
M  V30 6254 N 564.634 1.40294 0.718013 0
M  V30 6255 C 566.045 1.34289 1.29705 0
M  V30 6256 C 566.396 0.0152228 1.96194 0
M  V30 6257 O 565.521 -0.88682 1.97394 0
M  V30 6258 C 566.116 2.43219 2.3586 0
M  V30 6259 C 564.675 2.40682 2.89394 0
M  V30 6260 C 563.822 2.24223 1.63154 0
M  V30 6261 H 566.773 1.50135 0.514312 0
M  V30 6262 H 566.794 2.10986 3.16647 0
M  V30 6263 H 566.306 3.39836 1.87439 0
M  V30 6264 H 564.407 1.47756 3.42051 0
M  V30 6265 H 564.52 3.36177 3.41353 0
M  V30 6266 H 562.884 1.71696 1.88129 0
M  V30 6267 H 563.667 3.22834 1.16761 0
M  V30 6268 N 566.112 -0.949982 1.2575 0
M  V30 6269 C 567.523 -1.50989 1.09815 0
M  V30 6270 C 567.874 -1.93497 -0.324556 0
M  V30 6271 O 566.999 -1.79068 -1.21506 0
M  V30 6272 C 567.594 -2.74394 1.98729 0
M  V30 6273 C 566.153 -3.26682 1.86965 0
M  V30 6274 C 565.3 -1.99498 1.92603 0
M  V30 6275 H 568.251 -0.766387 1.38968 0
M  V30 6276 H 568.272 -3.48383 1.53001 0
M  V30 6277 H 567.784 -2.43425 3.02268 0
M  V30 6278 H 565.885 -3.62461 0.863279 0
M  V30 6279 H 565.998 -3.94383 2.72027 0
M  V30 6280 H 564.362 -2.15005 1.36546 0
M  V30 6281 H 565.145 -1.70871 2.97755 0
M  V30 6282 N 567.59 -1.07411 -1.15328 0
M  V30 6283 C 569.001 -0.820261 -1.67716 0
M  V30 6284 C 569.352 0.654539 -1.8496 0
M  V30 6285 O 568.477 1.50664 -1.55337 0
M  V30 6286 C 569.072 -1.48242 -3.04647 0
M  V30 6287 C 567.631 -1.27606 -3.5411 0
M  V30 6288 C 566.778 -1.5517 -2.29821 0
M  V30 6289 H 569.729 -1.23608 -0.995332 0
M  V30 6290 H 569.75 -0.903984 -3.69606 0
M  V30 6291 H 569.262 -2.55578 -2.92064 0
M  V30 6292 H 567.363 -0.222948 -3.71932 0
M  V30 6293 H 567.476 -1.99667 -4.35511 0
M  V30 6294 H 565.84 -0.972747 -2.35393 0
M  V30 6295 H 566.623 -2.63689 -2.19824 0
M  V30 6296 N 569.068 1.32177 -0.85831 0
M  V30 6297 C 570.296 2.01313 -0.477582 0
M  V30 6298 C 570.711 1.6449 0.926736 0
M  V30 6299 O 570.068 0.868096 1.60531 0
M  V30 6300 C 570.119 3.56293 -0.611337 0
M  V30 6301 O 569.84 3.91794 -1.96034 0
M  V30 6302 C 571.341 4.42702 -0.230093 0
M  V30 6303 H 568.561 0.644323 -0.187322 0
M  V30 6304 H 571.105 1.68674 -1.15626 0
M  V30 6305 H 569.26 3.87395 0.0196494 0
M  V30 6306 H 569.674 4.86513 -1.95973 0
M  V30 6307 H 571.148 5.50727 -0.374674 0
M  V30 6308 H 571.625 4.3129 0.829779 0
M  V30 6309 H 572.231 4.16997 -0.836302 0
M  V30 6310 N 570.547 0.616602 1.45037 0
M  V30 6311 C 571.51 -0.0871112 2.29034 0
M  V30 6312 C 572.51 -0.786414 1.40258 0
M  V30 6313 O 573.7 -0.633207 1.62284 0
M  V30 6314 C 570.832 -1.13369 3.21497 0
M  V30 6315 H 572.025 0.651497 2.92738 0
M  V30 6316 H 569.578 0.376058 1.51709 0
M  V30 6317 H 570.313 -1.90277 2.62612 0
M  V30 6318 H 570.098 -0.636358 3.86902 0
M  V30 6319 H 571.588 -1.62627 3.84633 0
M  V30 6320 N 572.025 -1.5352 0.356285 0
M  V30 6321 C 572.958 -2.2177 -0.537913 0
M  V30 6322 C 573.936 -1.20626 -1.09033 0
M  V30 6323 O 575.12 -1.49494 -1.1482 0
M  V30 6324 C 572.247 -2.90513 -1.74126 0
M  V30 6325 C 571.293 -4.05652 -1.31715 0
M  V30 6326 S 572.126 -5.34505 -0.326236 0
M  V30 6327 C 573.282 -6.06757 -1.53612 0
M  V30 6328 H 573.515 -2.97271 0.0417411 0
M  V30 6329 H 571.048 -1.53761 0.140372 0
M  V30 6330 H 573.006 -3.30735 -2.43155 0
M  V30 6331 H 571.667 -2.14754 -2.29215 0
M  V30 6332 H 570.86 -4.52733 -2.21471 0
M  V30 6333 H 570.462 -3.67272 -0.706183 0
M  V30 6334 H 572.754 -6.30924 -2.46863 0
M  V30 6335 H 573.697 -6.99395 -1.10687 0
M  V30 6336 H 574.105 -5.3708 -1.73796 0
M  V30 6337 N 573.503 -0.0852151 -1.57369 0
M  V30 6338 C 574.752 0.580443 -1.93168 0
M  V30 6339 C 575.065 1.6995 -0.968319 0
M  V30 6340 O 576.271 2.42564 -1.21963 0
M  V30 6341 C 574.727 1.08386 -3.43192 0
M  V30 6342 C 574.335 -0.00491388 -4.48 0
M  V30 6343 C 576.079 1.72281 -3.87968 0
M  V30 6344 C 573.986 0.513299 -5.89168 0
M  V30 6345 H 572.916 0.22059 -0.72101 0
M  V30 6346 H 575.567 -0.159621 -1.82804 0
M  V30 6347 H 573.949 1.8773 -3.48674 0
M  V30 6348 H 575.123 -0.780032 -4.5415 0
M  V30 6349 H 573.438 -0.548453 -4.12772 0
M  V30 6350 H 576.035 2.12108 -4.9083 0
M  V30 6351 H 576.378 2.58811 -3.26071 0
M  V30 6352 H 576.911 0.995359 -3.85146 0
M  V30 6353 H 573.65 -0.315153 -6.54742 0
M  V30 6354 H 573.17 1.25564 -5.8651 0
M  V30 6355 H 574.849 0.985433 -6.39451 0
M  V30 6356 N 574.981 1.5647 0.188427 0
M  V30 6357 C 576.209 1.85131 0.923803 0
M  V30 6358 C 576.624 0.668537 1.76567 0
M  V30 6359 O 575.981 -0.362662 1.7886 0
M  V30 6360 C 576.032 3.12661 1.81453 0
M  V30 6361 O 575.753 4.26378 1.00665 0
M  V30 6362 C 577.254 3.54548 2.66103 0
M  V30 6363 H 574.474 0.614624 0.269218 0
M  V30 6364 H 577.018 2.03581 0.193671 0
M  V30 6365 H 575.173 2.96088 2.49821 0
M  V30 6366 H 575.587 4.99041 1.61425 0
M  V30 6367 H 577.061 4.4673 3.24247 0
M  V30 6368 H 577.538 2.77853 3.40139 0
M  V30 6369 H 578.144 3.73674 2.03096 0
M  V30 6370 N 576.459 -0.456382 1.50847 0
M  V30 6371 C 577.389 -1.56025 1.73719 0
M  V30 6372 C 578.37 -1.5967 0.586473 0
M  V30 6373 O 579.555 -1.75702 0.827185 0
M  V30 6374 C 576.685 -2.94251 1.84483 0
M  V30 6375 C 575.639 -3.05471 2.99786 0
M  V30 6376 C 574.965 -4.45489 2.95709 0
M  V30 6377 C 576.265 -2.81318 4.40065 0
M  V30 6378 H 577.959 -1.37138 2.66146 0
M  V30 6379 H 575.505 -0.658299 1.28072 0
M  V30 6380 H 577.458 -3.71417 1.99067 0
M  V30 6381 H 576.182 -3.14328 0.886891 0
M  V30 6382 H 574.841 -2.30741 2.84876 0
M  V30 6383 H 574.489 -4.62505 1.97732 0
M  V30 6384 H 574.189 -4.53929 3.73125 0
M  V30 6385 H 575.713 -5.24655 3.12362 0
M  V30 6386 H 577.127 -3.48226 4.55425 0
M  V30 6387 H 575.524 -3.01188 5.19043 0
M  V30 6388 H 576.594 -1.7706 4.51418 0
M  V30 6389 N 577.937 -1.40673 -0.710563 0
M  V30 6390 C 578.885 -1.41517 -1.84596 0
M  V30 6391 C 579.879 -0.295043 -1.66811 0
M  V30 6392 O 581.085 -0.466331 -1.73854 0
M  V30 6393 H 577.46 -0.442467 -0.608052 0
M  V30 6394 H 579.431 -2.37238 -1.80999 0
M  V30 6395 C 578.18 -1.29957 -3.225 0
M  V30 6396 H 577.503 -2.15429 -3.36794 0
M  V30 6397 H 578.943 -1.34608 -4.02066 0
M  V30 6398 C 577.402 -0.0103164 -3.36898 0
M  V30 6399 O 577.932 0.950707 -3.90288 0
M  V30 6400 N 576.138 0.0608409 -2.90536 0
M  V30 6401 H 575.685 -0.721943 -2.47277 0
M  V30 6402 H 575.643 0.92292 -3.00549 0
M  V30 6403 N 579.415 0.9433 -1.26252 0
M  V30 6404 C 580.363 2.06302 -1.07434 0
M  V30 6405 C 581.357 1.694 -0.00189471 0
M  V30 6406 O 582.563 1.79302 -0.158408 0
M  V30 6407 H 578.938 0.675453 -0.330556 0
M  V30 6408 H 580.909 2.19326 -2.02333 0
M  V30 6409 C 579.658 3.40125 -0.721817 0
M  V30 6410 H 578.981 3.68996 -1.5389 0
M  V30 6411 H 580.421 4.19295 -0.629922 0
M  V30 6412 C 578.88 3.31993 0.572902 0
M  V30 6413 O 579.41 3.67945 1.61182 0
M  V30 6414 N 577.616 2.85099 0.562748 0
M  V30 6415 H 577.163 2.5604 -0.283092 0
M  V30 6416 H 577.121 2.80041 1.42915 0
M  V30 6417 N 580.893 1.08022 1.14757 0
M  V30 6418 C 582.118 0.82895 1.90114 0
M  V30 6419 C 582.543 -0.612772 1.77839 0
M  V30 6420 O 581.901 -1.42895 1.11583 0
M  V30 6421 C 581.949 1.25062 3.38219 0
M  V30 6422 O 581.053 0.400119 4.10454 0
M  V30 6423 H 580.394 0.301412 0.591648 0
M  V30 6424 H 582.924 1.44062 1.45284 0
M  V30 6425 H 582.934 1.22977 3.89025 0
M  V30 6426 H 581.609 2.30067 3.46471 0
M  V30 6427 H 580.186 0.484052 3.69745 0
M  V30 6428 N 582.371 -1.3172 0.865308 0
M  V30 6429 C 583.617 -1.97168 0.474633 0
M  V30 6430 C 583.95 -1.68263 -0.969604 0
M  V30 6431 O 583.225 -0.976588 -1.68205 0
M  V30 6432 C 583.508 -3.52689 0.726808 0
M  V30 6433 C 583.361 -3.91185 2.22024 0
M  V30 6434 C 584.68 -4.39689 0.190201 0
M  V30 6435 H 581.799 -0.716185 0.17392 0
M  V30 6436 H 584.441 -1.55925 1.08569 0
M  V30 6437 H 582.591 -3.8795 0.206705 0
M  V30 6438 H 584.263 -3.66049 2.80724 0
M  V30 6439 H 582.506 -3.3996 2.69462 0
M  V30 6440 H 583.177 -4.99604 2.34735 0
M  V30 6441 H 585.653 -4.11225 0.635103 0
M  V30 6442 H 584.529 -5.47469 0.396132 0
M  V30 6443 H 584.79 -4.32683 -0.907625 0
M  V30 6444 N 583.85 -0.624285 -1.44708 0
M  V30 6445 C 585.08 -0.132726 -2.06173 0
M  V30 6446 C 585.488 1.19513 -1.46674 0
M  V30 6447 O 584.831 1.74254 -0.581491 0
M  V30 6448 C 584.893 0.0636732 -3.59444 0
M  V30 6449 C 584.557 -1.18496 -4.4137 0
M  V30 6450 C 585.553 -2.10706 -4.75288 0
M  V30 6451 C 583.239 -1.41846 -4.81856 0
M  V30 6452 C 585.233 -3.24582 -5.48567 0
M  V30 6453 C 582.92 -2.5602 -5.54885 0
M  V30 6454 C 583.918 -3.47215 -5.88159 0
M  V30 6455 O 583.606 -4.59399 -6.59703 0
M  V30 6456 H 583.338 -0.0737313 -0.671967 0
M  V30 6457 H 585.892 -0.856789 -1.86677 0
M  V30 6458 H 584.122 0.842809 -3.77404 0
M  V30 6459 H 585.811 0.508924 -4.02697 0
M  V30 6460 H 586.577 -1.93898 -4.44554 0
M  V30 6461 H 582.456 -0.717556 -4.55381 0
M  V30 6462 H 586 -3.95785 -5.74456 0
M  V30 6463 H 581.897 -2.72774 -5.85034 0
M  V30 6464 H 582.665 -4.58293 -6.78166 0
M  V30 6465 N 585.328 1.53329 -0.364422 0
M  V30 6466 C 586.574 2.02222 0.21855 0
M  V30 6467 C 586.929 1.24702 1.46517 0
M  V30 6468 O 586.222 0.331969 1.88702 0
M  V30 6469 C 586.416 3.52911 0.564661 0
M  V30 6470 C 586.245 4.45023 -0.646862 0
M  V30 6471 C 585.015 4.91838 -1.15858 0
M  V30 6472 C 587.213 4.91581 -1.51172 0
M  V30 6473 N 585.195 5.67955 -2.33025 0
M  V30 6474 C 586.566 5.66028 -2.53006 0
M  V30 6475 C 588.621 4.73656 -1.53473 0
M  V30 6476 C 587.324 6.24457 -3.56996 0
M  V30 6477 C 589.35 5.3295 -2.56356 0
M  V30 6478 C 588.712 6.07282 -3.56914 0
M  V30 6479 H 584.811 0.780832 0.0427199 0
M  V30 6480 H 587.395 1.87937 -0.508704 0
M  V30 6481 H 585.566 3.6736 1.26099 0
M  V30 6482 H 587.298 3.88528 1.13262 0
M  V30 6483 H 584.053 4.68043 -0.723393 0
M  V30 6484 H 584.477 6.10675 -2.92241 0
M  V30 6485 H 589.119 4.15714 -0.770842 0
M  V30 6486 H 586.837 6.81496 -4.34268 0
M  V30 6487 H 590.423 5.20976 -2.58989 0
M  V30 6488 H 589.303 6.52345 -4.35218 0
M  V30 6489 N 586.806 0.0935595 1.57322 0
M  V30 6490 C 587.738 -0.895923 2.10964 0
M  V30 6491 C 588.751 -1.24705 1.04654 0
M  V30 6492 O 589.94 -1.20044 1.32105 0
M  V30 6493 C 587.04 -2.20546 2.57318 0
M  V30 6494 C 586.213 -2.0299 3.87445 0
M  V30 6495 C 585.272 -3.17443 4.19662 0
M  V30 6496 O 584.298 -2.91474 4.88909 0
M  V30 6497 N 585.5 -4.43168 3.74943 0
M  V30 6498 H 588.265 -0.437788 2.96485 0
M  V30 6499 H 585.826 -0.0915863 1.61641 0
M  V30 6500 H 587.818 -2.9606 2.75917 0
M  V30 6501 H 586.388 -2.57789 1.76816 0
M  V30 6502 H 585.608 -1.11815 3.78009 0
M  V30 6503 H 586.896 -1.88535 4.7258 0
M  V30 6504 H 586.294 -4.67149 3.19043 0
M  V30 6505 H 584.851 -5.15637 3.987 0
M  V30 6506 N 588.284 -1.56567 -0.180126 0
M  V30 6507 C 589.194 -1.98947 -1.24327 0
M  V30 6508 C 590.21 -0.899446 -1.4895 0
M  V30 6509 O 591.386 -1.20639 -1.61271 0
M  V30 6510 C 588.451 -2.33328 -2.56435 0
M  V30 6511 C 587.512 -3.56114 -2.39752 0
M  V30 6512 C 586.745 -3.88845 -3.65561 0
M  V30 6513 O 586.968 -3.22662 -4.70368 0
M  V30 6514 O 585.902 -4.82226 -3.60197 0
M  V30 6515 H 589.728 -2.89634 -0.913565 0
M  V30 6516 H 587.313 -1.44319 -0.386306 0
M  V30 6517 H 589.195 -2.5645 -3.34382 0
M  V30 6518 H 587.87 -1.45806 -2.89002 0
M  V30 6519 H 586.777 -3.38221 -1.59866 0
M  V30 6520 H 588.11 -4.4415 -2.12113 0
M  V30 6521 N 589.762 0.448376 -1.51087 0
M  V30 6522 C 591.009 1.19872 -1.63209 0
M  V30 6523 C 591.337 1.91451 -0.343062 0
M  V30 6524 O 590.592 1.83789 0.672321 0
M  V30 6525 C 590.891 2.24866 -2.77795 0
M  V30 6526 C 590.557 1.70378 -4.17471 0
M  V30 6527 C 589.219 1.55241 -4.55471 0
M  V30 6528 C 591.571 1.30203 -5.04675 0
M  V30 6529 C 588.899 0.983844 -5.78392 0
M  V30 6530 C 591.251 0.747798 -6.28165 0
M  V30 6531 C 589.915 0.583233 -6.64947 0
M  V30 6532 H 589.185 0.438642 -0.597222 0
M  V30 6533 H 591.832 0.49136 -1.85089 0
M  V30 6534 H 590.137 3.01598 -2.50092 0
M  V30 6535 H 591.834 2.82723 -2.84374 0
M  V30 6536 H 588.424 1.83134 -3.87505 0
M  V30 6537 H 592.608 1.40723 -4.75932 0
M  V30 6538 H 587.864 0.844007 -6.05546 0
M  V30 6539 H 592.038 0.427927 -6.95084 0
M  V30 6540 H 589.665 0.140532 -7.6007 0
M  V30 6541 N 591.24 1.41047 0.703093 0
M  V30 6542 C 592.15 1.44645 1.84703 0
M  V30 6543 C 593.166 0.337778 1.7069 0
M  V30 6544 O 594.342 0.584327 1.92737 0
M  V30 6545 C 591.407 1.31928 3.20618 0
M  V30 6546 C 590.468 2.53047 3.46794 0
M  V30 6547 C 589.701 2.40927 4.76224 0
M  V30 6548 O 589.924 1.42978 5.5219 0
M  V30 6549 O 588.858 3.30543 5.03016 0
M  V30 6550 H 592.684 2.41139 1.84624 0
M  V30 6551 H 590.269 1.22504 0.855167 0
M  V30 6552 H 592.151 1.27092 4.01778 0
M  V30 6553 H 590.826 0.385469 3.21397 0
M  V30 6554 H 589.733 2.6346 2.65593 0
M  V30 6555 H 591.066 3.45231 3.50822 0
M  V30 6556 N 592.718 -0.936591 1.26751 0
M  V30 6557 C 593.995 -1.66094 1.03306 0
M  V30 6558 C 594.375 -2.06568 -0.435058 0
M  V30 6559 O 593.723 -1.79305 -1.41641 0
M  V30 6560 C 593.933 -2.86969 1.98619 0
M  V30 6561 C 595.281 -3.58516 2.27489 0
M  V30 6562 O 596.305 -2.97082 1.96522 0
M  V30 6563 O 595.164 -4.69181 2.80235 0
M  V30 6564 H 592.258 -0.727568 0.393158 0
M  V30 6565 H 594.804 -0.987914 1.3798 0
M  V30 6566 H 593.576 -2.53985 2.9767 0
M  V30 6567 H 593.199 -3.61996 1.64454 0
M  V30 6568 N 594.196 -1.08629 -1.14182 0
M  V30 6569 C 595.424 -0.838889 -1.8913 0
M  V30 6570 C 595.839 0.609153 -1.78703 0
M  V30 6571 O 595.196 1.41876 -1.14794 0
M  V30 6572 C 595.247 -1.25477 -3.39025 0
M  V30 6573 O 594.968 -2.64601 -3.49167 0
M  V30 6574 C 596.469 -1.03856 -4.30963 0
M  V30 6575 H 593.689 -0.302377 -0.599007 0
M  V30 6576 H 596.233 -1.44615 -1.44592 0
M  V30 6577 H 594.388 -0.691571 -3.81177 0
M  V30 6578 H 594.802 -2.81922 -4.42289 0
M  V30 6579 H 596.276 -1.37892 -5.345 0
M  V30 6580 H 596.753 0.0242522 -4.39193 0
M  V30 6581 H 597.359 -1.58731 -3.94569 0
M  V30 6582 N 595.674 1.31259 -0.872281 0
M  V30 6583 C 596.914 1.98418 -0.490894 0
M  V30 6584 C 597.278 1.67429 0.939755 0
M  V30 6585 O 598.479 2.27818 1.42661 0
M  V30 6586 C 596.75 3.49583 -0.743408 0
M  V30 6587 S 598.309 4.36359 -0.462226 0
M  V30 6588 H 595.127 0.687005 -0.183151 0
M  V30 6589 H 597.729 1.59619 -1.12881 0
M  V30 6590 H 596.433 3.69627 -1.78338 0
M  V30 6591 H 595.964 3.93291 -0.0925758 0
M  V30 6592 H 597.979 4.91173 0.704525 0
M  V30 6593 N 597.152 0.631951 1.44375 0
M  V30 6594 C 598.398 0.13697 2.02337 0
M  V30 6595 C 598.731 -1.23826 1.49602 0
M  V30 6596 O 598.006 -1.8221 0.680415 0
M  V30 6597 C 598.289 0.124536 3.59885 0
M  V30 6598 C 598.142 1.53217 4.229 0
M  V30 6599 C 599.461 -0.550481 4.36644 0
M  V30 6600 H 596.58 0.051247 0.735216 0
M  V30 6601 H 599.222 0.808581 1.71936 0
M  V30 6602 H 597.372 -0.44737 3.85916 0
M  V30 6603 H 599.044 2.15303 4.07973 0
M  V30 6604 H 597.287 2.0858 3.80364 0
M  V30 6605 H 597.958 1.4755 5.31914 0
M  V30 6606 H 600.434 -0.0641154 4.16051 0
M  V30 6607 H 599.31 -0.528371 5.46351 0
M  V30 6608 H 599.571 -1.62097 4.11311 0
M  V30 6609 N 598.631 -1.53133 0.372548 0
M  V30 6610 C 599.861 -2.05476 -0.215202 0
M  V30 6611 C 600.269 -1.24534 -1.42436 0
M  V30 6612 O 599.612 -0.280771 -1.81542 0
M  V30 6613 C 599.674 -3.53276 -0.666068 0
M  V30 6614 C 599.338 -4.54998 0.427342 0
M  V30 6615 C 600.335 -5.03911 1.27944 0
M  V30 6616 C 598.02 -4.98828 0.589579 0
M  V30 6617 C 600.014 -5.95263 2.27905 0
M  V30 6618 C 597.701 -5.89984 1.59255 0
M  V30 6619 C 598.699 -6.38093 2.43571 0
M  V30 6620 O 598.387 -7.27451 3.42156 0
M  V30 6621 H 598.119 -0.67481 -0.040099 0
M  V30 6622 H 600.673 -1.98409 0.531312 0
M  V30 6623 H 598.903 -3.57904 -1.4643 0
M  V30 6624 H 600.592 -3.88442 -1.1776 0
M  V30 6625 H 601.358 -4.70792 1.16532 0
M  V30 6626 H 597.237 -4.60965 -0.0569456 0
M  V30 6627 H 600.781 -6.32736 2.93753 0
M  V30 6628 H 596.678 -6.22518 1.70711 0
M  V30 6629 H 597.446 -7.45467 3.37967 0
M  V30 6630 N 600.109 -0.101901 -1.5727 0
M  V30 6631 C 601.019 0.868647 -2.17926 0
M  V30 6632 C 602.035 1.30527 -1.1506 0
M  V30 6633 O 603.211 1.37178 -1.47459 0
M  V30 6634 C 600.276 2.10727 -2.75309 0
M  V30 6635 C 599.337 1.7242 -3.93154 0
M  V30 6636 C 598.57 2.90377 -4.47791 0
M  V30 6637 O 598.793 4.05305 -4.01353 0
M  V30 6638 O 597.727 2.6845 -5.38719 0
M  V30 6639 H 601.553 0.382544 -3.01281 0
M  V30 6640 H 599.138 0.122812 -1.48894 0
M  V30 6641 H 601.02 2.83303 -3.11958 0
M  V30 6642 H 599.695 2.58376 -1.94996 0
M  V30 6643 H 598.602 0.970039 -3.61305 0
M  V30 6644 H 599.935 1.29528 -4.74851 0
M  V30 6645 N 601.587 1.56661 0.17182 0
M  V30 6646 C 602.827 1.83762 0.895029 0
M  V30 6647 C 603.191 0.682752 1.79451 0
M  V30 6648 O 604.392 0.834208 2.55528 0
M  V30 6649 C 602.663 3.15976 1.67015 0
M  V30 6650 S 604.222 3.64558 2.44219 0
M  V30 6651 H 601.04 0.644713 0.299778 0
M  V30 6652 H 603.642 1.94871 0.156701 0
M  V30 6653 H 602.346 3.98021 1.00039 0
M  V30 6654 H 601.877 3.07807 2.44986 0
M  V30 6655 H 603.892 3.31845 3.68909 0
M  V30 6656 N 603.065 -0.440357 1.51323 0
M  V30 6657 C 603.995 -1.54174 1.75364 0
M  V30 6658 C 604.976 -1.59039 0.603375 0
M  V30 6659 O 606.161 -1.74815 0.845774 0
M  V30 6660 C 603.291 -2.92277 1.87593 0
M  V30 6661 C 602.245 -3.02274 3.03009 0
M  V30 6662 C 601.571 -4.42327 3.00418 0
M  V30 6663 C 602.871 -2.76634 4.43024 0
M  V30 6664 H 604.565 -1.34307 2.67585 0
M  V30 6665 H 602.111 -0.644678 1.28763 0
M  V30 6666 H 604.064 -3.69284 2.02995 0
M  V30 6667 H 602.788 -3.13369 0.920179 0
M  V30 6668 H 601.447 -2.27706 2.87307 0
M  V30 6669 H 601.095 -4.60382 2.02626 0
M  V30 6670 H 600.795 -4.49946 3.77918 0
M  V30 6671 H 602.319 -5.21312 3.17909 0
M  V30 6672 H 603.733 -3.43376 4.59093 0
M  V30 6673 H 602.13 -2.95666 5.22208 0
M  V30 6674 H 603.2 -1.72262 4.5327 0
M  V30 6675 N 604.543 -1.41418 -0.695603 0
M  V30 6676 C 605.82 -1.31264 -1.45014 0
M  V30 6677 C 606.2 0.0597994 -2.11015 0
M  V30 6678 O 605.548 1.07403 -2.01685 0
M  V30 6679 C 605.758 -2.466 -2.4696 0
M  V30 6680 C 607.106 -2.87763 -3.12214 0
M  V30 6681 O 608.13 -2.46339 -2.57285 0
M  V30 6682 O 606.989 -3.59395 -4.11701 0
M  V30 6683 H 604.083 -0.516576 -0.645816 0
M  V30 6684 H 606.629 -1.53382 -0.726084 0
M  V30 6685 H 605.401 -3.38183 -1.96845 0
M  V30 6686 H 605.024 -2.26358 -3.26876 0
M  V30 6687 N 606.021 0.929856 -1.27246 0
M  V30 6688 C 607.269 1.674 -1.13233 0
M  V30 6689 C 607.59 1.92311 0.322744 0
M  V30 6690 O 606.86 1.52784 1.22612 0
M  V30 6691 H 605.44 0.620411 -0.416052 0
M  V30 6692 H 608.102 1.11663 -1.59741 0
M  V30 6693 H 607.198 2.64308 -1.65975 0
M  V30 6694 N 607.499 1.09233 1.13605 0
M  V30 6695 C 608.446 0.729921 2.18954 0
M  V30 6696 C 609.416 -0.287916 1.63586 0
M  V30 6697 O 610.601 -0.170003 1.90041 0
M  V30 6698 C 607.741 0.154489 3.44754 0
M  V30 6699 C 606.854 1.22613 4.14234 0
M  V30 6700 C 605.989 0.613657 5.27644 0
M  V30 6701 C 605.028 1.66674 5.8897 0
M  V30 6702 N 604.165 1.07545 6.93814 0
M  V30 6703 H 609.005 1.63257 2.49302 0
M  V30 6704 H 606.542 0.815693 1.22413 0
M  V30 6705 H 608.5 -0.196923 4.16735 0
M  V30 6706 H 607.13 -0.711433 3.14863 0
M  V30 6707 H 606.182 1.69485 3.40557 0
M  V30 6708 H 607.494 2.0238 4.55899 0
M  V30 6709 H 606.648 0.210976 6.06333 0
M  V30 6710 H 605.387 -0.215584 4.87223 0
M  V30 6711 H 604.392 2.07899 5.08978 0
M  V30 6712 H 605.617 2.49861 6.31464 0
M  V30 6713 H 603.563 0.267451 6.55455 0
M  V30 6714 H 603.48 1.81011 7.3401 0
M  V30 6715 H 604.748 0.698906 7.7636 0
M  V30 6716 N 608.977 -1.30795 0.87923 0
M  V30 6717 C 610.254 -1.91145 0.415086 0
M  V30 6718 C 610.634 -1.7995 -1.10368 0
M  V30 6719 O 609.982 -1.21305 -1.93642 0
M  V30 6720 C 610.192 -3.37014 0.906778 0
M  V30 6721 C 611.54 -4.14101 0.938358 0
M  V30 6722 O 612.564 -3.45834 0.853053 0
M  V30 6723 O 611.423 -5.36054 1.06342 0
M  V30 6724 H 608.517 -0.81736 0.125905 0
M  V30 6725 H 611.063 -1.39401 0.967753 0
M  V30 6726 H 609.835 -3.3922 1.95053 0
M  V30 6727 H 609.458 -3.96204 0.332948 0
M  V30 6728 N 610.455 -0.639598 -1.44038 0
M  V30 6729 C 611.695 -0.150902 -2.03842 0
M  V30 6730 C 612.059 1.20744 -1.49281 0
M  V30 6731 O 613.26 1.78875 -2.00642 0
M  V30 6732 C 611.531 -0.146114 -3.57101 0
M  V30 6733 S 613.09 0.276725 -4.37927 0
M  V30 6734 H 609.908 -0.0652447 -0.708 0
M  V30 6735 H 612.51 -0.844886 -1.76301 0
M  V30 6736 H 611.214 -1.13769 -3.94316 0
M  V30 6737 H 610.745 0.568846 -3.89266 0
M  V30 6738 H 612.76 1.51893 -4.7238 0
M  V30 6739 N 611.933 1.52934 -0.380664 0
M  V30 6740 C 612.865 2.23822 0.493581 0
M  V30 6741 C 613.878 1.25761 1.03383 0
M  V30 6742 O 615.067 1.5189 0.937633 0
M  V30 6743 C 612.167 2.9342 1.69582 0
M  V30 6744 C 611.34 4.18115 1.28445 0
M  V30 6745 C 610.399 4.70788 2.35042 0
M  V30 6746 O 609.425 5.34093 1.96807 0
M  V30 6747 N 610.627 4.49899 3.66839 0
M  V30 6748 H 613.392 2.99484 -0.11371 0
M  V30 6749 H 610.953 1.60577 -0.206587 0
M  V30 6750 H 612.945 3.2556 2.40401 0
M  V30 6751 H 611.515 2.21119 2.20965 0
M  V30 6752 H 610.735 3.92109 0.405503 0
M  V30 6753 H 612.023 4.99152 0.986132 0
M  V30 6754 H 611.421 3.99349 4.0067 0
M  V30 6755 H 609.978 4.86551 4.33718 0
M  V30 6756 N 613.412 0.11024 1.57214 0
M  V30 6757 C 614.637 -0.561179 1.99664 0
M  V30 6758 C 615.062 -1.59985 0.989266 0
M  V30 6759 O 614.42 -1.81255 -0.0402399 0
M  V30 6760 C 614.468 -1.17189 3.41027 0
M  V30 6761 O 613.572 -2.28755 3.4314 0
M  V30 6762 H 612.913 -0.14101 0.648855 0
M  V30 6763 H 615.443 0.196128 2.03658 0
M  V30 6764 H 615.453 -1.50954 3.79047 0
M  V30 6765 H 614.128 -0.411041 4.13864 0
M  V30 6766 H 612.705 -1.96495 3.16929 0
M  V30 6767 N 614.89 -1.56749 -0.16351 0
M  V30 6768 C 616.137 -1.82434 -0.878866 0
M  V30 6769 C 616.465 -0.688557 -1.81904 0
M  V30 6770 O 615.72 0.323644 -1.93005 0
M  V30 6771 C 616.019 -3.14342 -1.70071 0
M  V30 6772 C 615.685 -4.41647 -0.908775 0
M  V30 6773 C 614.347 -4.76224 -0.690236 0
M  V30 6774 C 616.699 -5.19998 -0.353815 0
M  V30 6775 C 614.027 -5.86624 0.0942374 0
M  V30 6776 C 616.379 -6.3122 0.41761 0
M  V30 6777 C 615.043 -6.64358 0.646879 0
M  V30 6778 H 614.313 -0.667574 -0.3216 0
M  V30 6779 H 616.96 -1.90963 -0.14337 0
M  V30 6780 H 615.265 -3.0119 -2.50583 0
M  V30 6781 H 616.962 -3.31426 -2.25738 0
M  V30 6782 H 613.552 -4.1453 -1.08916 0
M  V30 6783 H 617.736 -4.93673 -0.509975 0
M  V30 6784 H 612.992 -6.10751 0.281529 0
M  V30 6785 H 617.166 -6.91133 0.854849 0
M  V30 6786 H 614.793 -7.49742 1.25662 0
M  V30 6787 N 616.368 0.432326 -1.51554 0
M  V30 6788 C 617.615 1.18134 -1.64471 0
M  V30 6789 C 617.943 1.91076 -0.363349 0
M  V30 6790 O 617.198 1.84492 0.65279 0
M  V30 6791 C 617.497 2.21907 -2.80164 0
M  V30 6792 C 617.163 1.65941 -4.19255 0
M  V30 6793 C 615.825 1.50401 -4.57092 0
M  V30 6794 C 618.177 1.24843 -5.06027 0
M  V30 6795 C 615.505 0.922443 -5.79403 0
M  V30 6796 C 617.857 0.68113 -6.28922 0
M  V30 6797 C 616.521 0.512673 -6.65528 0
M  V30 6798 H 615.791 0.432283 -0.601841 0
M  V30 6799 H 618.438 0.471701 -1.856 0
M  V30 6800 H 616.743 2.98928 -2.53277 0
M  V30 6801 H 618.44 2.79691 -2.87357 0
M  V30 6802 H 615.03 1.79014 -3.89425 0
M  V30 6803 H 619.214 1.35667 -4.77397 0
M  V30 6804 H 614.47 0.779733 -6.06408 0
M  V30 6805 H 618.644 0.35418 -6.95499 0
M  V30 6806 H 616.271 0.0599084 -7.60176 0
M  V30 6807 N 617.846 1.41785 0.688094 0
M  V30 6808 C 619.086 1.43018 1.46032 0
M  V30 6809 C 619.45 0.0402632 1.91958 0
M  V30 6810 O 620.651 -0.0726425 2.68702 0
M  V30 6811 C 618.922 2.4151 2.63453 0
M  V30 6812 S 620.481 2.61335 3.5249 0
M  V30 6813 H 617.299 0.506546 0.498931 0
M  V30 6814 H 619.901 1.78283 0.80221 0
M  V30 6815 H 618.605 3.41286 2.27929 0
M  V30 6816 H 618.136 2.07624 3.34149 0
M  V30 6817 H 620.151 1.88637 4.58945 0
M  V30 6818 N 619.324 -0.923095 1.27737 0
M  V30 6819 C 620.564 -1.6858 1.15586 0
M  V30 6820 C 620.928 -1.89758 -0.292562 0
M  V30 6821 O 622.129 -2.6339 -0.536583 0
M  V30 6822 C 620.4 -3.01275 1.92271 0
M  V30 6823 S 621.959 -3.924 1.96387 0
M  V30 6824 H 618.777 -0.579069 0.412554 0
M  V30 6825 H 621.379 -1.09866 1.61709 0
M  V30 6826 H 620.083 -2.83556 2.96689 0
M  V30 6827 H 619.614 -3.6504 1.46661 0
M  V30 6828 H 621.629 -4.84667 1.06361 0
M  V30 6829 N 620.802 -1.09834 -1.13024 0
M  V30 6830 C 622.032 -0.857657 -1.87957 0
M  V30 6831 C 622.44 0.595008 -1.796 0
M  V30 6832 O 621.783 1.42158 -1.16347 0
M  V30 6833 C 621.845 -1.21949 -3.38185 0
M  V30 6834 C 621.509 -2.67791 -3.7032 0
M  V30 6835 C 622.506 -3.66036 -3.69207 0
M  V30 6836 C 620.191 -3.04019 -3.99847 0
M  V30 6837 C 622.185 -4.98533 -3.9717 0
M  V30 6838 C 619.872 -4.36706 -4.27471 0
M  V30 6839 C 620.87 -5.33772 -4.26118 0
M  V30 6840 O 620.558 -6.64072 -4.53061 0
M  V30 6841 H 620.29 -0.308009 -0.601753 0
M  V30 6842 H 622.844 -1.46496 -1.43973 0
M  V30 6843 H 621.074 -0.555249 -3.82693 0
M  V30 6844 H 622.763 -0.957281 -3.9445 0
M  V30 6845 H 623.529 -3.39392 -3.46465 0
M  V30 6846 H 619.408 -2.29096 -4.00045 0
M  V30 6847 H 622.952 -5.74288 -3.96029 0
M  V30 6848 H 618.849 -4.63091 -4.49685 0
M  V30 6849 H 619.617 -6.69608 -4.7071 0
M  V30 6850 N 622.28 1.30327 -0.886154 0
M  V30 6851 C 623.19 2.31854 -0.357866 0
M  V30 6852 C 624.206 1.65392 0.540502 0
M  V30 6853 O 625.382 1.96683 0.433339 0
M  V30 6854 C 622.447 3.44171 0.417999 0
M  V30 6855 C 621.508 4.26257 -0.510263 0
M  V30 6856 C 620.741 5.3321 0.228669 0
M  V30 6857 O 620.964 5.51542 1.45458 0
M  V30 6858 O 619.898 6.0042 -0.421832 0
M  V30 6859 H 623.724 2.78995 -1.19982 0
M  V30 6860 H 621.309 1.34518 -0.650028 0
M  V30 6861 H 623.191 4.12588 0.857251 0
M  V30 6862 H 621.866 2.99164 1.23623 0
M  V30 6863 H 620.773 3.60533 -0.99835 0
M  V30 6864 H 622.106 4.74871 -1.29454 0
M  V30 6865 N 623.758 0.647228 1.43697 0
M  V30 6866 C 624.668 -0.0487997 2.34549 0
M  V30 6867 C 625.684 -0.818586 1.53542 0
M  V30 6868 O 626.86 -0.767195 1.86215 0
M  V30 6869 C 623.925 -1.00734 3.31743 0
M  V30 6870 C 622.986 -0.23515 4.28655 0
M  V30 6871 C 622.219 -1.14803 5.21206 0
M  V30 6872 O 622.442 -2.38717 5.18045 0
M  V30 6873 O 621.376 -0.623667 5.9866 0
M  V30 6874 H 625.202 0.698863 2.9555 0
M  V30 6875 H 622.787 0.407412 1.43738 0
M  V30 6876 H 624.669 -1.55837 3.91526 0
M  V30 6877 H 623.344 -1.73534 2.73254 0
M  V30 6878 H 622.251 0.359319 3.7237 0
M  V30 6879 H 623.584 0.453152 4.9011 0
M  V30 6880 N 625.236 -1.5273 0.388769 0
M  V30 6881 C 626.476 -2.03483 -0.193372 0
M  V30 6882 C 626.84 -1.26897 -1.44087 0
M  V30 6883 O 628.041 -1.67773 -2.10014 0
M  V30 6884 C 626.312 -3.54488 -0.455325 0
M  V30 6885 S 627.871 -4.27069 -1.00783 0
M  V30 6886 H 624.689 -0.708907 -0.0545131 0
M  V30 6887 H 627.291 -1.8798 0.536993 0
M  V30 6888 H 625.995 -4.07817 0.459722 0
M  V30 6889 H 625.526 -3.74196 -1.21413 0
M  V30 6890 H 627.541 -4.40185 -2.29023 0
M  V30 6891 N 626.714 -0.118576 -1.57153 0
M  V30 6892 C 627.661 0.831789 -2.1529 0
M  V30 6893 C 628.631 1.26385 -1.07778 0
M  V30 6894 O 629.816 1.34144 -1.35684 0
M  V30 6895 C 626.956 2.07664 -2.75626 0
M  V30 6896 C 626.069 1.69298 -3.97444 0
M  V30 6897 C 625.204 2.88747 -4.45868 0
M  V30 6898 C 624.243 2.46619 -5.60219 0
M  V30 6899 N 623.38 3.5898 -6.03389 0
M  V30 6900 H 628.22 0.329183 -2.96176 0
M  V30 6901 H 625.757 0.150792 -1.46325 0
M  V30 6902 H 627.715 2.80601 -3.08738 0
M  V30 6903 H 626.345 2.55384 -1.97431 0
M  V30 6904 H 625.397 0.862374 -3.70496 0
M  V30 6905 H 626.709 1.34338 -4.80369 0
M  V30 6906 H 625.863 3.69909 -4.80887 0
M  V30 6907 H 624.602 3.26933 -3.61892 0
M  V30 6908 H 623.607 1.63889 -5.24805 0
M  V30 6909 H 624.832 2.0955 -6.45961 0
M  V30 6910 H 622.778 3.9684 -5.22354 0
M  V30 6911 H 622.695 3.27942 -6.81168 0
M  V30 6912 H 623.963 4.40583 -6.43045 0
M  V30 6913 N 628.193 1.56834 0.155195 0
M  V30 6914 C 629.418 1.87412 0.888337 0
M  V30 6915 C 629.843 0.70671 1.74319 0
M  V30 6916 O 629.201 -0.343892 1.78009 0
M  V30 6917 C 629.249 3.1652 1.72765 0
M  V30 6918 O 628.353 2.99877 2.83103 0
M  V30 6919 H 627.694 0.615983 0.247914 0
M  V30 6920 H 630.224 2.04061 0.148478 0
M  V30 6921 H 630.234 3.48334 2.12433 0
M  V30 6922 H 628.909 4.01094 1.09985 0
M  V30 6923 H 627.486 2.79453 2.46902 0
M  V30 6924 N 629.671 -0.424282 1.51781 0
M  V30 6925 C 630.919 -1.17028 1.64769 0
M  V30 6926 C 631.24 -1.91409 0.372523 0
M  V30 6927 O 630.51 -1.86091 -0.612108 0
M  V30 6928 H 629.09 -0.434992 0.607282 0
M  V30 6929 H 631.752 -0.485169 1.88765 0
M  V30 6930 H 630.848 -1.8927 2.4816 0
M  V30 6931 N 631.149 -1.42148 -0.680565 0
M  V30 6932 C 632.374 -1.45901 -1.47403 0
M  V30 6933 C 632.799 -0.0700985 -1.87969 0
M  V30 6934 O 632.157 0.930145 -1.55621 0
M  V30 6935 C 632.205 -2.38661 -2.70321 0
M  V30 6936 O 631.309 -1.85399 -3.68376 0
M  V30 6937 H 630.65 -0.494565 -0.443059 0
M  V30 6938 H 633.18 -1.86774 -0.835251 0
M  V30 6939 H 633.19 -2.55046 -3.18458 0
M  V30 6940 H 631.865 -3.39571 -2.40134 0
M  V30 6941 H 630.442 -1.78541 -3.2738 0
M  V30 6942 N 632.627 0.916307 -1.28225 0
M  V30 6943 C 633.873 1.66794 -1.1641 0
M  V30 6944 C 634.228 1.90278 0.284986 0
M  V30 6945 O 633.521 1.49023 1.20427 0
M  V30 6946 C 633.715 3.03125 -1.8934 0
M  V30 6947 C 633.544 2.92947 -3.41192 0
M  V30 6948 C 632.314 2.9461 -4.10528 0
M  V30 6949 C 634.512 2.7121 -4.36978 0
M  V30 6950 N 632.494 2.74993 -5.48864 0
M  V30 6951 C 633.865 2.60411 -5.6266 0
M  V30 6952 C 635.92 2.56187 -4.26934 0
M  V30 6953 C 634.623 2.3612 -6.79441 0
M  V30 6954 C 636.649 2.33275 -5.43449 0
M  V30 6955 C 636.011 2.23228 -6.68093 0
M  V30 6956 H 632.11 0.616654 -0.480896 0
M  V30 6957 H 634.694 1.08237 -1.61842 0
M  V30 6958 H 632.865 3.59774 -1.46346 0
M  V30 6959 H 634.597 3.67294 -1.69932 0
M  V30 6960 H 631.352 3.0527 -3.62087 0
M  V30 6961 H 631.776 2.68284 -6.21573 0
M  V30 6962 H 636.418 2.62707 -3.31278 0
M  V30 6963 H 634.136 2.28339 -7.75169 0
M  V30 6964 H 637.722 2.22519 -5.37565 0
M  V30 6965 H 636.602 2.05741 -7.5673 0
M  V30 6966 N 634.105 1.10431 1.1244 0
M  V30 6967 C 635.521 0.836096 1.35947 0
M  V30 6968 C 635.721 -0.544475 1.94004 0
M  V30 6969 O 634.777 -1.29735 2.16622 0
M  V30 6970 C 636.09 1.93575 2.30107 0
M  V30 6971 C 637.638 1.9642 2.43697 0
M  V30 6972 C 638.113 3.05559 3.41171 0
M  V30 6973 N 639.604 3.04865 3.48728 0
M  V30 6974 C 640.339 3.85954 4.24061 0
M  V30 6975 N 639.835 4.76977 5.02458 0
M  V30 6976 N 641.628 3.74172 4.19466 0
M  V30 6977 H 633.779 1.9942 0.731124 0
M  V30 6978 H 636.042 0.866607 0.384312 0
M  V30 6979 H 635.748 2.92943 1.94621 0
M  V30 6980 H 635.622 1.8229 3.30227 0
M  V30 6981 H 638.009 0.97685 2.78463 0
M  V30 6982 H 638.09 2.11782 1.43465 0
M  V30 6983 H 637.734 4.04513 3.07135 0
M  V30 6984 H 637.664 2.87438 4.41234 0
M  V30 6985 H 640.155 2.38908 2.92799 0
M  V30 6986 H 640.468 5.35409 5.57277 0
M  V30 6987 H 638.813 4.81006 5.01655 0
M  V30 6988 H 642.004 3.02412 3.57302 0
M  V30 6989 H 642.177 4.37602 4.77921 0
M  V30 6990 N 635.583 -1.29855 0.893053 0
M  V30 6991 C 636.53 -2.27909 0.364161 0
M  V30 6992 C 637.5 -1.56726 -0.550093 0
M  V30 6993 O 638.685 -1.84747 -0.47677 0
M  V30 6994 C 635.825 -3.42678 -0.408178 0
M  V30 6995 C 634.938 -4.28659 0.536212 0
M  V30 6996 C 634.073 -5.30599 -0.252521 0
M  V30 6997 C 633.112 -6.08234 0.686822 0
M  V30 6998 N 632.249 -7.02068 -0.0670902 0
M  V30 6999 H 637.089 -2.72531 1.20544 0
M  V30 7000 H 634.626 -1.34047 0.605779 0
M  V30 7001 H 636.584 -4.07986 -0.871962 0
M  V30 7002 H 635.214 -2.99103 -1.21397 0
M  V30 7003 H 634.266 -3.63584 1.1185 0
M  V30 7004 H 635.578 -4.8274 1.25552 0
M  V30 7005 H 634.732 -6.01694 -0.777801 0
M  V30 7006 H 633.471 -4.77233 -1.005 0
M  V30 7007 H 632.476 -5.3601 1.22366 0
M  V30 7008 H 633.701 -6.63689 1.43852 0
M  V30 7009 H 631.647 -6.5108 -0.801955 0
M  V30 7010 H 631.564 -7.53675 0.59243 0
M  V30 7011 H 632.832 -7.77392 -0.572851 0
M  V30 7012 N 637.061 -0.65484 -1.43351 0
M  V30 7013 C 638.309 -0.168559 -2.01396 0
M  V30 7014 C 638.63 1.22235 -1.51933 0
M  V30 7015 O 637.9 1.81685 -0.732627 0
M  V30 7016 H 636.48 -0.0593244 -0.744641 0
M  V30 7017 H 639.142 -0.846871 -1.75539 0
M  V30 7018 H 638.238 -0.154428 -3.11718 0
M  V30 7019 N 638.539 1.52521 -0.396863 0
M  V30 7020 C 639.955 1.5953 -0.0471659 0
M  V30 7021 C 640.155 1.41044 1.43906 0
M  V30 7022 O 639.211 1.23122 2.20448 0
M  V30 7023 C 640.524 2.95972 -0.531113 0
M  V30 7024 C 642.072 3.09172 -0.488024 0
M  V30 7025 C 642.547 4.48075 -0.948281 0
M  V30 7026 N 644.038 4.54281 -0.9046 0
M  V30 7027 C 644.773 5.60007 -1.23205 0
M  V30 7028 N 644.269 6.73343 -1.63036 0
M  V30 7029 N 646.062 5.50151 -1.15282 0
M  V30 7030 H 638.213 1.62786 -1.36435 0
M  V30 7031 H 640.476 0.76514 -0.559701 0
M  V30 7032 H 640.182 3.14741 -1.56942 0
M  V30 7033 H 640.056 3.77143 0.0657922 0
M  V30 7034 H 642.443 2.90095 0.541211 0
M  V30 7035 H 642.524 2.29937 -1.12083 0
M  V30 7036 H 642.168 4.67894 -1.97578 0
M  V30 7037 H 642.098 5.25788 -0.292412 0
M  V30 7038 H 644.589 3.72918 -0.6116 0
M  V30 7039 H 644.902 7.49992 -1.86365 0
M  V30 7040 H 643.247 6.74655 -1.66929 0
M  V30 7041 H 646.438 4.6049 -0.840602 0
M  V30 7042 H 646.611 6.32444 -1.41133 0
M  V30 7043 N 640.017 0.126909 1.57088 0
M  V30 7044 C 641.266 -0.529024 1.94639 0
M  V30 7045 C 641.579 -1.67323 1.01304 0
M  V30 7046 O 642.785 -2.39245 1.28352 0
M  V30 7047 C 641.241 -0.992483 3.45945 0
M  V30 7048 C 640.849 0.123691 4.47829 0
M  V30 7049 C 642.593 -1.61934 3.924 0
M  V30 7050 C 640.5 -0.356911 5.90322 0
M  V30 7051 H 639.43 -0.201397 0.726605 0
M  V30 7052 H 642.081 0.208032 1.82317 0
M  V30 7053 H 640.463 -1.7842 3.53528 0
M  V30 7054 H 641.637 0.900168 4.51922 0
M  V30 7055 H 639.952 0.657699 4.11173 0
M  V30 7056 H 642.549 -1.9902 4.96281 0
M  V30 7057 H 642.892 -2.50075 3.32819 0
M  V30 7058 H 643.425 -0.892894 3.8765 0
M  V30 7059 H 640.164 0.488636 6.53676 0
M  V30 7060 H 639.684 -1.0997 5.89633 0
M  V30 7061 H 641.363 -0.815547 6.41839 0
M  V30 7062 N 641.495 -1.56914 -0.146875 0
M  V30 7063 C 642.445 -1.94693 -1.18653 0
M  V30 7064 C 643.429 -0.81821 -1.38543 0
M  V30 7065 O 644.621 -1.08167 -1.40103 0
M  V30 7066 C 641.75 -2.33117 -2.52014 0
M  V30 7067 C 640.836 -3.5256 -2.35717 0
M  V30 7068 N 641.227 -4.69091 -1.89175 0
M  V30 7069 C 639.525 -3.57647 -2.66467 0
M  V30 7070 C 640.226 -5.51187 -1.85924 0
M  V30 7071 N 639.202 -4.92899 -2.29242 0
M  V30 7072 H 643.004 -2.82264 -0.81879 0
M  V30 7073 H 640.518 -1.58474 -0.354929 0
M  V30 7074 H 642.515 -2.58387 -3.27172 0
M  V30 7075 H 641.175 -1.46898 -2.89571 0
M  V30 7076 H 642.186 -4.92844 -1.59139 0
M  V30 7077 H 638.863 -2.81967 -3.07898 0
M  V30 7078 H 640.253 -6.54613 -1.51431 0
M  V30 7079 N 642.974 0.416227 -1.52004 0
M  V30 7080 C 644.223 1.16088 -1.64944 0
M  V30 7081 C 644.536 1.91835 -0.381928 0
M  V30 7082 O 645.742 2.6867 -0.391013 0
M  V30 7083 C 644.198 2.1124 -2.91386 0
M  V30 7084 C 643.806 1.41042 -4.25219 0
M  V30 7085 C 645.55 2.86008 -3.13688 0
M  V30 7086 C 643.457 2.34801 -5.42791 0
M  V30 7087 H 642.387 0.437041 -0.61442 0
M  V30 7088 H 645.038 0.425971 -1.78487 0
M  V30 7089 H 643.42 2.88254 -2.71525 0
M  V30 7090 H 644.594 0.694416 -4.55538 0
M  V30 7091 H 642.909 0.78344 -4.08964 0
M  V30 7092 H 645.506 3.56286 -3.98703 0
M  V30 7093 H 645.849 3.48556 -2.27628 0
M  V30 7094 H 646.382 2.16095 -3.33988 0
M  V30 7095 H 643.121 1.7691 -6.31176 0
M  V30 7096 H 642.641 3.04395 -5.16821 0
M  V30 7097 H 644.32 2.9548 -5.75587 0
M  V30 7098 N 644.452 1.42507 0.673017 0
M  V30 7099 C 645.729 1.33554 1.42908 0
M  V30 7100 C 646.109 -0.0262211 2.11084 0
M  V30 7101 O 645.457 -1.04181 2.03368 0
M  V30 7102 C 645.667 2.50498 2.43006 0
M  V30 7103 C 647.015 2.92694 3.07596 0
M  V30 7104 O 648.039 2.50401 2.53333 0
M  V30 7105 O 646.898 3.65899 4.05931 0
M  V30 7106 H 643.992 0.526785 0.637516 0
M  V30 7107 H 646.538 1.54518 0.701591 0
M  V30 7108 H 645.31 3.41272 1.9144 0
M  V30 7109 H 644.933 2.3153 3.23233 0
M  V30 7110 N 645.93 -0.909495 1.28709 0
M  V30 7111 C 647.179 -1.65365 1.15487 0
M  V30 7112 C 647.492 -1.93364 -0.294941 0
M  V30 7113 O 648.698 -2.65905 -0.548338 0
M  V30 7114 C 647.154 -2.97923 2.01916 0
M  V30 7115 C 646.762 -2.77556 3.51663 0
M  V30 7116 C 648.506 -3.75814 1.97393 0
M  V30 7117 C 646.413 -4.0578 4.30229 0
M  V30 7118 H 645.343 -0.620323 0.42862 0
M  V30 7119 H 647.994 -1.00894 1.53273 0
M  V30 7120 H 646.376 -3.63552 1.5699 0
M  V30 7121 H 647.55 -2.2058 4.04575 0
M  V30 7122 H 645.865 -2.13072 3.57756 0
M  V30 7123 H 648.462 -4.70866 2.53357 0
M  V30 7124 H 648.805 -4.05277 0.951643 0
M  V30 7125 H 649.338 -3.1701 2.40311 0
M  V30 7126 H 646.077 -3.81488 5.33055 0
M  V30 7127 H 645.597 -4.62351 3.82089 0
M  V30 7128 H 647.276 -4.74004 4.40374 0
M  V30 7129 N 647.408 -1.11026 -1.11852 0
M  V30 7130 C 648.338 -0.786812 -2.19844 0
M  V30 7131 C 649.319 0.242935 -1.68356 0
M  V30 7132 O 650.504 0.107355 -1.93903 0
M  V30 7133 C 647.634 -0.224516 -3.46574 0
M  V30 7134 C 646.588 -1.18564 -4.1125 0
M  V30 7135 C 645.914 -0.484261 -5.32503 0
M  V30 7136 C 647.214 -2.53465 -4.56676 0
M  V30 7137 H 648.908 -1.68978 -2.47158 0
M  V30 7138 H 646.454 -0.813906 -1.18792 0
M  V30 7139 H 648.407 0.0139435 -4.21398 0
M  V30 7140 H 647.131 0.713722 -3.18706 0
M  V30 7141 H 645.79 -1.40966 -3.38414 0
M  V30 7142 H 645.438 0.458646 -5.00905 0
M  V30 7143 H 645.138 -1.12526 -5.76725 0
M  V30 7144 H 646.662 -0.254492 -6.10069 0
M  V30 7145 H 648.076 -2.35177 -5.22843 0
M  V30 7146 H 646.473 -3.13507 -5.11697 0
M  V30 7147 H 647.543 -3.13008 -3.70343 0
M  V30 7148 N 648.886 1.2938 -0.899927 0
M  V30 7149 C 649.796 2.31462 -0.382437 0
M  V30 7150 C 650.812 1.65956 0.522929 0
M  V30 7151 O 651.988 1.97131 0.412454 0
M  V30 7152 C 649.053 3.44595 0.381472 0
M  V30 7153 C 648.114 4.25692 -0.555444 0
M  V30 7154 C 647.347 5.33422 0.172102 0
M  V30 7155 O 647.57 5.53053 1.396 0
M  V30 7156 O 646.504 5.99939 -0.485491 0
M  V30 7157 H 650.33 2.77706 -1.22934 0
M  V30 7158 H 647.915 1.33821 -0.664259 0
M  V30 7159 H 649.797 4.13474 0.813442 0
M  V30 7160 H 648.472 3.00458 1.20443 0
M  V30 7161 H 647.379 3.59453 -1.03653 0
M  V30 7162 H 648.712 4.73471 -1.34483 0
M  V30 7163 N 650.364 0.662433 1.43002 0
M  V30 7164 C 651.294 -0.00979809 2.33498 0
M  V30 7165 C 652.275 -0.802329 1.49989 0
M  V30 7166 O 653.46 -0.761964 1.78627 0
M  V30 7167 C 650.59 -0.970446 3.33466 0
M  V30 7168 C 649.544 -0.287383 4.27034 0
M  V30 7169 C 648.87 -1.36012 5.17112 0
M  V30 7170 C 650.17 0.82595 5.15728 0
M  V30 7171 H 651.864 0.745959 2.89958 0
M  V30 7172 H 649.41 0.360172 1.39423 0
M  V30 7173 H 651.363 -1.44971 3.95679 0
M  V30 7174 H 650.087 -1.75748 2.75282 0
M  V30 7175 H 648.746 0.17152 3.66199 0
M  V30 7176 H 648.394 -2.13882 4.55262 0
M  V30 7177 H 648.094 -0.908276 5.80538 0
M  V30 7178 H 649.618 -1.84056 5.82199 0
M  V30 7179 H 651.032 0.42845 5.71697 0
M  V30 7180 H 649.429 1.20282 5.87922 0
M  V30 7181 H 650.499 1.68003 4.54866 0
M  V30 7182 N 651.842 -1.52309 0.404946 0
M  V30 7183 C 653.119 -1.94237 -0.230544 0
M  V30 7184 C 653.499 -1.34154 -1.6299 0
M  V30 7185 O 652.847 -0.515713 -2.22604 0
M  V30 7186 C 653.057 -3.48166 -0.241106 0
M  V30 7187 C 654.405 -4.22074 -0.462488 0
M  V30 7188 O 655.429 -3.54754 -0.320644 0
M  V30 7189 O 654.288 -5.41443 -0.741708 0
M  V30 7190 H 651.382 -0.813766 -0.147358 0
M  V30 7191 H 653.928 -1.6333 0.460587 0
M  V30 7192 H 652.7 -3.84269 0.738467 0
M  V30 7193 H 652.323 -3.85422 -0.97651 0
M  V30 7194 N 653.32 -0.135238 -1.57019 0
M  V30 7195 C 654.545 0.529343 -2.00531 0
M  V30 7196 C 654.97 1.58391 -1.01459 0
M  V30 7197 O 654.328 1.81296 0.0113986 0
M  V30 7198 C 654.376 1.11748 -3.42848 0
M  V30 7199 O 653.48 2.23267 -3.46736 0
M  V30 7200 H 652.821 0.130669 -0.651016 0
M  V30 7201 H 655.351 -0.228503 -2.0332 0
M  V30 7202 H 655.361 1.44905 -3.81401 0
M  V30 7203 H 654.036 0.345147 -4.14465 0
M  V30 7204 H 652.613 1.91428 -3.20015 0
M  V30 7205 N 654.798 1.5699 0.138552 0
M  V30 7206 C 656.028 1.87704 0.863184 0
M  V30 7207 C 656.436 0.722411 1.74865 0
M  V30 7208 O 655.779 -0.316636 1.80951 0
M  V30 7209 C 655.841 3.13219 1.76449 0
M  V30 7210 C 655.505 4.44648 1.05532 0
M  V30 7211 C 656.502 5.18318 0.405252 0
M  V30 7212 C 654.187 4.91367 1.04231 0
M  V30 7213 C 656.181 6.36916 -0.24835 0
M  V30 7214 C 653.868 6.09887 0.384904 0
M  V30 7215 C 654.866 6.82508 -0.259292 0
M  V30 7216 O 654.554 7.98775 -0.906258 0
M  V30 7217 H 654.286 0.626255 0.254521 0
M  V30 7218 H 656.84 2.04966 0.133472 0
M  V30 7219 H 655.07 2.91988 2.53535 0
M  V30 7220 H 656.759 3.30111 2.36181 0
M  V30 7221 H 657.525 4.83289 0.407053 0
M  V30 7222 H 653.404 4.34759 1.53315 0
M  V30 7223 H 656.948 6.93538 -0.751755 0
M  V30 7224 H 652.845 6.44376 0.380799 0
M  V30 7225 H 653.613 8.14494 -0.80877 0
M  V30 7226 N 656.276 -0.40816 1.52223 0
M  V30 7227 C 657.501 -1.18127 1.70472 0
M  V30 7228 C 657.926 -1.83491 0.41384 0
M  V30 7229 O 657.284 -1.70047 -0.628778 0
M  V30 7230 C 657.332 -2.21935 2.84213 0
M  V30 7231 O 656.436 -3.28099 2.4985 0
M  V30 7232 H 655.777 -0.344781 0.56747 0
M  V30 7233 H 658.307 -0.478328 1.9893 0
M  V30 7234 H 658.317 -2.66248 3.09153 0
M  V30 7235 H 656.992 -1.73744 3.7787 0
M  V30 7236 H 655.569 -2.89058 2.35584 0
M  V30 7237 N 657.755 -1.42862 -0.66545 0
M  V30 7238 C 659.171 -1.25993 -0.979687 0
M  V30 7239 C 659.371 -0.170831 -2.00775 0
M  V30 7240 O 658.427 0.454827 -2.4837 0
M  V30 7241 C 659.74 -2.62005 -1.47559 0
M  V30 7242 C 661.288 -2.69437 -1.59288 0
M  V30 7243 C 661.763 -4.05838 -2.12272 0
M  V30 7244 N 663.254 -4.0784 -2.19592 0
M  V30 7245 C 663.989 -5.10205 -2.61684 0
M  V30 7246 N 663.485 -6.22949 -3.03161 0
M  V30 7247 N 665.278 -4.9756 -2.61516 0
M  V30 7248 H 657.429 -2.12395 0.0150493 0
M  V30 7249 H 659.692 -0.946355 -0.0558187 0
M  V30 7250 H 659.398 -3.42605 -0.794654 0
M  V30 7251 H 659.272 -2.86566 -2.45275 0
M  V30 7252 H 661.659 -1.89178 -2.26486 0
M  V30 7253 H 661.74 -2.48655 -0.600374 0
M  V30 7254 H 661.384 -4.86559 -1.4568 0
M  V30 7255 H 661.314 -4.23977 -3.12331 0
M  V30 7256 H 663.805 -3.26452 -1.90361 0
M  V30 7257 H 664.118 -6.96899 -3.33993 0
M  V30 7258 H 662.463 -6.2644 -3.00995 0
M  V30 7259 H 665.654 -4.08551 -2.28481 0
M  V30 7260 H 665.827 -5.77468 -2.93999 0
M  V30 7261 N 659.233 0.902656 -1.29189 0
M  V30 7262 C 660.479 1.65532 -1.17163 0
M  V30 7263 C 660.812 1.92216 0.276879 0
M  V30 7264 O 660.087 1.53048 1.20027 0
M  V30 7265 C 660.37 3.00629 -1.98228 0
M  V30 7266 C 660.223 2.81029 -3.51202 0
M  V30 7267 C 661.542 4.01321 -1.80635 0
M  V30 7268 H 658.661 0.60071 -0.426985 0
M  V30 7269 H 661.303 1.04578 -1.5863 0
M  V30 7270 H 659.453 3.52656 -1.62991 0
M  V30 7271 H 661.125 2.35927 -3.96404 0
M  V30 7272 H 659.368 2.1587 -3.76275 0
M  V30 7273 H 660.039 3.77014 -4.03192 0
M  V30 7274 H 662.515 3.58394 -2.11406 0
M  V30 7275 H 661.391 4.93792 -2.3971 0
M  V30 7276 H 661.652 4.35505 -0.760754 0
M  V30 7277 N 660.711 1.11618 1.11262 0
M  V30 7278 C 661.958 0.86618 1.8304 0
M  V30 7279 C 662.286 -0.608149 1.84748 0
M  V30 7280 O 661.541 -1.46508 1.29745 0
M  V30 7281 C 661.84 1.37529 3.2988 0
M  V30 7282 C 661.506 2.86317 3.4833 0
M  V30 7283 C 660.168 3.26945 3.53073 0
M  V30 7284 C 662.52 3.82136 3.54431 0
M  V30 7285 C 659.848 4.62117 3.61475 0
M  V30 7286 C 662.2 5.17128 3.64365 0
M  V30 7287 C 660.864 5.57312 3.67369 0
M  V30 7288 H 660.134 0.316958 0.66979 0
M  V30 7289 H 662.781 1.3949 1.31205 0
M  V30 7290 H 661.086 0.766842 3.84222 0
M  V30 7291 H 662.783 1.15817 3.83911 0
M  V30 7292 H 659.373 2.53889 3.45309 0
M  V30 7293 H 663.557 3.51847 3.50025 0
M  V30 7294 H 658.813 4.92655 3.62079 0
M  V30 7295 H 662.987 5.91208 3.68029 0
M  V30 7296 H 660.614 6.62045 3.73632 0
M  V30 7297 N 662.189 -1.289 0.906776 0
M  V30 7298 C 663.436 -1.95269 0.536326 0
M  V30 7299 C 663.764 -1.71435 -0.918711 0
M  V30 7300 O 663.019 -1.02431 -1.66752 0
M  V30 7301 C 663.318 -3.48704 0.783617 0
M  V30 7302 C 662.984 -3.92626 2.21711 0
M  V30 7303 C 661.646 -4.04329 2.60906 0
M  V30 7304 C 663.998 -4.15218 3.15029 0
M  V30 7305 C 661.326 -4.35998 3.92584 0
M  V30 7306 C 663.678 -4.48365 4.46264 0
M  V30 7307 C 662.342 -4.58278 4.85322 0
M  V30 7308 H 661.612 -0.714538 0.196256 0
M  V30 7309 H 664.259 -1.53366 1.14678 0
M  V30 7310 H 662.564 -3.91696 0.0903048 0
M  V30 7311 H 664.261 -3.98162 0.476267 0
M  V30 7312 H 660.851 -3.84038 1.90296 0
M  V30 7313 H 665.035 -4.05636 2.8596 0
M  V30 7314 H 660.291 -4.41878 4.22557 0
M  V30 7315 H 664.465 -4.64795 5.18593 0
M  V30 7316 H 662.092 -4.82573 5.87391 0
M  V30 7317 N 663.667 -0.670007 -1.42649 0
M  V30 7318 C 665.078 -0.268118 -1.84765 0
M  V30 7319 C 665.429 1.18877 -1.56086 0
M  V30 7320 O 664.554 1.90947 -1.01825 0
M  V30 7321 C 665.149 -0.47984 -3.35385 0
M  V30 7322 C 663.708 -0.132116 -3.76168 0
M  V30 7323 C 662.855 -0.774611 -2.66261 0
M  V30 7324 H 665.806 -0.872509 -1.32563 0
M  V30 7325 H 665.827 0.269522 -3.79544 0
M  V30 7326 H 665.339 -1.54026 -3.56227 0
M  V30 7327 H 663.44 0.92505 -3.60934 0
M  V30 7328 H 663.553 -0.569294 -4.75706 0
M  V30 7329 H 661.917 -0.206353 -2.53863 0
M  V30 7330 H 662.7 -1.83839 -2.89928 0
M  V30 7331 N 665.145 1.52092 -0.413018 0
M  V30 7332 C 666.373 2.06274 0.160881 0
M  V30 7333 C 666.788 1.28273 1.38533 0
M  V30 7334 O 666.145 0.33563 1.79387 0
M  V30 7335 C 666.196 3.57921 0.507443 0
M  V30 7336 O 665.917 4.32971 -0.668388 0
M  V30 7337 C 667.418 4.28533 1.13465 0
M  V30 7338 H 664.638 0.67074 0.0186759 0
M  V30 7339 H 667.182 1.95951 -0.585092 0
M  V30 7340 H 665.337 3.68238 1.20331 0
M  V30 7341 H 665.751 5.23135 -0.378169 0
M  V30 7342 H 667.225 5.35804 1.32732 0
M  V30 7343 H 667.702 3.85258 2.10886 0
M  V30 7344 H 668.308 4.22595 0.478876 0
M  V30 7345 N 666.623 0.143563 1.56945 0
M  V30 7346 C 667.848 -0.518701 2.00809 0
M  V30 7347 C 668.273 -1.5785 1.02298 0
M  V30 7348 O 667.631 -1.813 -0.0017839 0
M  V30 7349 C 667.679 -1.09929 3.43436 0
M  V30 7350 O 666.783 -2.21425 3.47915 0
M  V30 7351 H 666.124 -0.127215 0.6517 0
M  V30 7352 H 668.654 0.239283 2.03196 0
M  V30 7353 H 668.664 -1.4288 3.82164 0
M  V30 7354 H 667.339 -0.323162 4.14643 0
M  V30 7355 H 665.916 -1.89728 3.21026 0
M  V30 7356 N 668.101 -1.57061 -0.130224 0
M  V30 7357 C 669.348 -1.84257 -0.839972 0
M  V30 7358 C 669.676 -0.726986 -1.80403 0
M  V30 7359 O 668.931 0.282632 -1.93648 0
M  V30 7360 C 669.23 -3.17878 -1.63365 0
M  V30 7361 C 668.896 -4.43475 -0.814891 0
M  V30 7362 C 667.558 -4.77581 -0.589066 0
M  V30 7363 C 669.91 -5.20631 -0.243437 0
M  V30 7364 C 667.238 -5.86292 0.218648 0
M  V30 7365 C 669.59 -6.30192 0.551408 0
M  V30 7366 C 668.254 -6.62837 0.787653 0
M  V30 7367 H 667.524 -0.674245 -0.307367 0
M  V30 7368 H 670.171 -1.91224 -0.102832 0
M  V30 7369 H 668.476 -3.06437 -2.44138 0
M  V30 7370 H 670.173 -3.3614 -2.18658 0
M  V30 7371 H 666.763 -4.16747 -1.00098 0
M  V30 7372 H 670.947 -4.94644 -0.405145 0
M  V30 7373 H 666.203 -6.10017 0.411016 0
M  V30 7374 H 670.377 -6.89165 1.00126 0
M  V30 7375 H 668.004 -7.46908 1.41537 0
M  V30 7376 N 669.579 0.400081 -1.52437 0
M  V30 7377 C 670.509 1.4947 -1.7939 0
M  V30 7378 C 671.49 1.57383 -0.645329 0
M  V30 7379 O 672.675 1.72511 -0.891826 0
M  V30 7380 C 669.805 2.87201 -1.95276 0
M  V30 7381 C 668.759 2.94134 -3.10917 0
M  V30 7382 C 668.085 4.34207 -3.1204 0
M  V30 7383 C 669.385 2.64791 -4.50203 0
M  V30 7384 H 671.079 1.27165 -2.71052 0
M  V30 7385 H 668.625 0.610312 -1.30427 0
M  V30 7386 H 670.578 3.63772 -2.12715 0
M  V30 7387 H 669.302 3.10819 -1.00294 0
M  V30 7388 H 667.961 2.20009 -2.93243 0
M  V30 7389 H 667.609 4.54848 -2.14761 0
M  V30 7390 H 667.309 4.39768 -3.89715 0
M  V30 7391 H 668.833 5.127 -3.31619 0
M  V30 7392 H 670.247 3.31083 -4.68035 0
M  V30 7393 H 668.644 2.81717 -5.29864 0
M  V30 7394 H 669.714 1.60184 -4.57678 0
M  V30 7395 N 671.057 1.43213 0.657864 0
M  V30 7396 C 671.987 1.50815 1.78262 0
M  V30 7397 C 672.968 0.363211 1.66177 0
M  V30 7398 O 674.153 0.579806 1.85343 0
M  V30 7399 C 671.283 1.42625 3.16663 0
M  V30 7400 C 670.237 2.5532 3.43505 0
M  V30 7401 C 669.563 2.32184 4.81658 0
M  V30 7402 C 670.863 3.97583 3.38711 0
M  V30 7403 H 672.557 2.44954 1.72157 0
M  V30 7404 H 670.103 1.17896 0.82683 0
M  V30 7405 H 672.056 1.46548 3.95097 0
M  V30 7406 H 670.78 0.449877 3.23487 0
M  V30 7407 H 669.439 2.50742 2.6744 0
M  V30 7408 H 669.087 1.32801 4.85153 0
M  V30 7409 H 668.787 3.07724 5.00579 0
M  V30 7410 H 670.311 2.37883 5.62356 0
M  V30 7411 H 671.725 4.03673 4.07089 0
M  V30 7412 H 670.122 4.73112 3.69168 0
M  V30 7413 H 671.192 4.23049 2.36976 0
M  V30 7414 N 672.536 -0.895792 1.29666 0
M  V30 7415 C 673.783 -1.64664 1.17864 0
M  V30 7416 C 674.111 -1.92631 -0.26902 0
M  V30 7417 O 673.366 -1.53787 -1.21029 0
M  V30 7418 C 673.665 -3.00075 1.94139 0
M  V30 7419 C 673.331 -2.91702 3.43833 0
M  V30 7420 C 671.993 -2.89126 3.84656 0
M  V30 7421 C 674.345 -2.80622 4.39205 0
M  V30 7422 C 671.673 -2.73293 5.1916 0
M  V30 7423 C 674.025 -2.66329 5.73805 0
M  V30 7424 C 672.689 -2.62121 6.1388 0
M  V30 7425 H 671.959 -0.602549 0.431295 0
M  V30 7426 H 674.606 -1.04234 1.60648 0
M  V30 7427 H 672.911 -3.64394 1.43958 0
M  V30 7428 H 674.608 -3.57111 1.82408 0
M  V30 7429 H 671.198 -2.94511 3.11386 0
M  V30 7430 H 675.382 -2.81686 4.08615 0
M  V30 7431 H 670.638 -2.68443 5.49316 0
M  V30 7432 H 674.812 -2.56727 6.47352 0
M  V30 7433 H 672.439 -2.49611 7.18052 0
M  V30 7434 N 674.014 -1.12206 -1.10668 0
M  V30 7435 C 674.962 -0.782918 -2.19028 0
M  V30 7436 C 675.956 0.229175 -1.67843 0
M  V30 7437 O 677.162 0.0876295 -1.79787 0
M  V30 7438 H 673.537 -0.235339 -0.714227 0
M  V30 7439 H 675.508 -1.70527 -2.44874 0
M  V30 7440 C 674.257 -0.25116 -3.46792 0
M  V30 7441 H 673.58 -1.02123 -3.86537 0
M  V30 7442 H 675.02 -0.0521409 -4.23968 0
M  V30 7443 C 673.479 1.02037 -3.21076 0
M  V30 7444 O 674.009 2.09862 -3.42522 0
M  V30 7445 N 672.215 0.946348 -2.74759 0
M  V30 7446 H 671.762 0.068777 -2.57508 0
M  V30 7447 H 671.72 1.79775 -2.57931 0
M  V30 7448 N 675.492 1.28418 -0.913599 0
M  V30 7449 C 676.422 2.29713 -0.418847 0
M  V30 7450 C 677.403 1.62165 0.513469 0
M  V30 7451 O 678.588 1.89576 0.421235 0
M  V30 7452 C 675.718 3.45612 0.342042 0
M  V30 7453 C 674.672 4.25056 -0.501123 0
M  V30 7454 C 673.998 5.3329 0.388097 0
M  V30 7455 C 675.298 4.91814 -1.75831 0
M  V30 7456 H 676.992 2.71346 -1.26538 0
M  V30 7457 H 674.538 1.30446 -0.609903 0
M  V30 7458 H 676.491 4.15562 0.699 0
M  V30 7459 H 675.215 3.02858 1.22248 0
M  V30 7460 H 673.874 3.56833 -0.840598 0
M  V30 7461 H 673.522 4.8678 1.26707 0
M  V30 7462 H 673.222 5.87347 -0.172459 0
M  V30 7463 H 674.746 6.06088 0.74094 0
M  V30 7464 H 676.16 5.54126 -1.47026 0
M  V30 7465 H 674.557 5.55866 -2.26126 0
M  V30 7466 H 675.627 4.16313 -2.4862 0
M  V30 7467 N 676.97 0.677563 1.42291 0
M  V30 7468 C 678.216 0.201272 2.01799 0
M  V30 7469 C 678.549 -1.19004 1.53465 0
M  V30 7470 O 677.824 -1.79953 0.738039 0
M  V30 7471 C 678.107 0.238968 3.59306 0
M  V30 7472 C 677.96 1.66594 4.17812 0
M  V30 7473 C 679.279 -0.411287 4.38174 0
M  V30 7474 H 676.398 0.0746114 0.733214 0
M  V30 7475 H 679.04 0.862872 1.69276 0
M  V30 7476 H 677.19 -0.324368 3.87144 0
M  V30 7477 H 678.862 2.28173 4.00917 0
M  V30 7478 H 677.105 2.20576 3.73536 0
M  V30 7479 H 677.776 1.64398 5.26951 0
M  V30 7480 H 680.252 0.0682804 4.16044 0
M  V30 7481 H 679.128 -0.354286 5.47755 0
M  V30 7482 H 679.389 -1.4893 4.1626 0
M  V30 7483 N 678.448 -1.51871 0.421078 0
M  V30 7484 C 679.678 -2.06057 -0.149723 0
M  V30 7485 C 680.086 -1.29002 -1.38402 0
M  V30 7486 O 679.429 -0.338385 -1.80556 0
M  V30 7487 C 679.491 -3.55216 -0.553339 0
M  V30 7488 C 679.155 -4.53408 0.571879 0
M  V30 7489 C 680.152 -4.99586 1.4391 0
M  V30 7490 C 677.837 -4.967 0.747979 0
M  V30 7491 C 679.831 -5.87711 2.46727 0
M  V30 7492 C 677.518 -5.84619 1.77944 0
M  V30 7493 C 678.516 -6.30021 2.63748 0
M  V30 7494 O 678.204 -7.16197 3.65126 0
M  V30 7495 H 677.936 -0.675744 -0.0186102 0
M  V30 7496 H 680.49 -1.96618 0.594166 0
M  V30 7497 H 678.72 -3.62381 -1.34969 0
M  V30 7498 H 680.409 -3.91992 -1.05342 0
M  V30 7499 H 681.175 -4.66846 1.31451 0
M  V30 7500 H 677.054 -4.60913 0.0897357 0
M  V30 7501 H 680.598 -6.2307 3.13734 0
M  V30 7502 H 676.495 -6.16771 1.90429 0
M  V30 7503 H 677.263 -7.34337 3.61512 0
M  V30 7504 N 679.926 -0.151884 -1.56866 0
M  V30 7505 C 681.172 0.492327 -1.97352 0
M  V30 7506 C 681.527 1.62156 -1.03553 0
M  V30 7507 O 680.82 1.91467 -0.0714872 0
M  V30 7508 C 681.014 1.04074 -3.41911 0
M  V30 7509 C 680.843 -0.0338306 -4.49687 0
M  V30 7510 C 679.613 -0.476914 -5.03044 0
M  V30 7511 C 681.811 -0.827105 -5.07606 0
M  V30 7512 N 679.793 -1.53382 -5.9443 0
M  V30 7513 C 681.164 -1.73439 -5.95247 0
M  V30 7514 C 683.219 -0.874351 -4.90163 0
M  V30 7515 C 681.922 -2.68488 -6.67313 0
M  V30 7516 C 683.948 -1.81269 -5.62935 0
M  V30 7517 C 683.31 -2.70749 -6.50288 0
M  V30 7518 H 679.409 0.148822 -0.767708 0
M  V30 7519 H 681.993 -0.247615 -1.93119 0
M  V30 7520 H 680.164 1.75027 -3.46728 0
M  V30 7521 H 681.896 1.65197 -3.69448 0
M  V30 7522 H 678.651 -0.0782493 -4.73535 0
M  V30 7523 H 679.075 -2.06217 -6.44828 0
M  V30 7524 H 683.717 -0.196628 -4.22343 0
M  V30 7525 H 681.435 -3.37257 -7.34359 0
M  V30 7526 H 685.021 -1.85511 -5.51432 0
M  V30 7527 H 683.901 -3.42175 -7.0561 0
M  V30 7528 N 681.404 1.57128 0.121893 0
M  V30 7529 C 682.65 1.84974 0.831418 0
M  V30 7530 C 682.983 0.737204 1.79663 0
M  V30 7531 O 682.258 -0.257199 1.92792 0
M  V30 7532 C 682.541 3.23397 1.58386 0
M  V30 7533 C 682.394 4.45246 0.638445 0
M  V30 7534 C 683.713 3.59355 2.54071 0
M  V30 7535 H 680.832 0.67282 0.300803 0
M  V30 7536 H 683.474 1.89759 0.0957587 0
M  V30 7537 H 681.624 3.19449 2.21098 0
M  V30 7538 H 683.296 4.61295 0.0203925 0
M  V30 7539 H 681.539 4.33771 -0.05023 0
M  V30 7540 H 682.21 5.38765 1.20151 0
M  V30 7541 H 684.686 3.64075 2.01465 0
M  V30 7542 H 683.562 4.57193 3.03752 0
M  V30 7543 H 683.823 2.86622 3.36601 0
M  V30 7544 N 682.882 -0.391992 1.52647 0
M  V30 7545 C 684.13 -1.13507 1.67214 0
M  V30 7546 C 684.451 -1.90575 0.41304 0
M  V30 7547 O 683.721 -1.87348 -0.572498 0
M  V30 7548 H 682.301 -0.422013 0.616372 0
M  V30 7549 H 684.963 -0.44502 1.89751 0
M  V30 7550 H 684.059 -1.83964 2.52118 0
M  V30 7551 N 684.36 -1.4356 -0.65026 0
M  V30 7552 C 685.59 -1.48563 -1.4357 0
M  V30 7553 C 685.998 -0.103041 -1.88919 0
M  V30 7554 O 685.341 0.897602 -1.60277 0
M  V30 7555 C 685.403 -2.37181 -2.70158 0
M  V30 7556 C 685.067 -3.84673 -2.4673 0
M  V30 7557 C 686.064 -4.75704 -2.09765 0
M  V30 7558 C 683.749 -4.29189 -2.60963 0
M  V30 7559 C 685.743 -6.09249 -1.87334 0
M  V30 7560 C 683.43 -5.62787 -2.38147 0
M  V30 7561 C 684.428 -6.52634 -2.01389 0
M  V30 7562 O 684.116 -7.83761 -1.78813 0
M  V30 7563 H 683.848 -0.506743 -0.447423 0
M  V30 7564 H 686.402 -1.89001 -0.80423 0
M  V30 7565 H 684.632 -1.91636 -3.35876 0
M  V30 7566 H 686.321 -2.33354 -3.32116 0
M  V30 7567 H 687.087 -4.42589 -1.98343 0
M  V30 7568 H 682.966 -3.59529 -2.88548 0
M  V30 7569 H 686.51 -6.7934 -1.58567 0
M  V30 7570 H 682.407 -5.95469 -2.49173 0
M  V30 7571 H 683.175 -7.95368 -1.93214 0
M  V30 7572 N 685.838 0.888903 -1.30139 0
M  V30 7573 C 686.768 2.01046 -1.18755 0
M  V30 7574 C 687.749 1.69916 -0.0791438 0
M  V30 7575 O 688.934 1.92445 -0.260498 0
M  V30 7576 C 686.064 3.36109 -0.874518 0
M  V30 7577 C 685.018 3.81486 -1.94043 0
M  V30 7578 C 684.344 5.13796 -1.48047 0
M  V30 7579 C 685.644 4.00637 -3.35093 0
M  V30 7580 H 687.338 2.10828 -2.12584 0
M  V30 7581 H 684.884 1.01298 -1.02346 0
M  V30 7582 H 686.837 4.14089 -0.781548 0
M  V30 7583 H 685.561 3.26449 0.0994519 0
M  V30 7584 H 684.22 3.05731 -2.02297 0
M  V30 7585 H 683.868 5.0056 -0.494878 0
M  V30 7586 H 683.568 5.45127 -2.19341 0
M  V30 7587 H 685.092 5.94305 -1.40121 0
M  V30 7588 H 686.506 4.69067 -3.2962 0
M  V30 7589 H 684.903 4.43339 -4.04438 0
M  V30 7590 H 685.973 3.0462 -3.77273 0
M  V30 7591 N 687.317 1.12792 1.10072 0
M  V30 7592 C 688.547 0.907189 1.85617 0
M  V30 7593 C 688.955 -0.547181 1.81115 0
M  V30 7594 O 688.298 -1.39024 1.20075 0
M  V30 7595 C 688.36 1.30872 3.34832 0
M  V30 7596 C 688.024 2.77516 3.6309 0
M  V30 7597 C 689.021 3.75696 3.59373 0
M  V30 7598 C 686.706 3.14513 3.91646 0
M  V30 7599 C 688.7 5.08888 3.83812 0
M  V30 7600 C 686.387 4.47886 4.15742 0
M  V30 7601 C 687.385 5.44882 4.11816 0
M  V30 7602 O 687.073 6.7585 4.35295 0
M  V30 7603 H 686.805 0.323855 0.593375 0
M  V30 7604 H 689.359 1.50262 1.40038 0
M  V30 7605 H 687.589 0.656518 3.81086 0
M  V30 7606 H 689.278 1.06153 3.91773 0
M  V30 7607 H 690.044 3.48458 3.37345 0
M  V30 7608 H 685.923 2.39622 3.93831 0
M  V30 7609 H 689.467 5.84586 3.80663 0
M  V30 7610 H 685.364 4.74851 4.37249 0
M  V30 7611 H 686.132 6.81853 4.52791 0
M  V30 7612 N 688.795 -1.27931 0.920396 0
M  V30 7613 C 689.725 -2.29487 0.431024 0
M  V30 7614 C 690.706 -1.62435 -0.504861 0
M  V30 7615 O 691.891 -1.89797 -0.411176 0
M  V30 7616 C 689.021 -3.45788 -0.323709 0
M  V30 7617 C 687.975 -4.24784 0.523658 0
M  V30 7618 C 687.301 -5.33488 -0.359809 0
M  V30 7619 C 688.601 -4.90874 1.78437 0
M  V30 7620 H 690.295 -2.70671 1.27975 0
M  V30 7621 H 687.841 -1.30121 0.616813 0
M  V30 7622 H 689.794 -4.15927 -0.676952 0
M  V30 7623 H 688.518 -3.03502 -1.2064 0
M  V30 7624 H 687.177 -3.56382 0.85951 0
M  V30 7625 H 686.825 -4.87445 -1.24124 0
M  V30 7626 H 686.525 -5.87247 0.203605 0
M  V30 7627 H 688.049 -6.06472 -0.708787 0
M  V30 7628 H 689.463 -5.53339 1.49963 0
M  V30 7629 H 687.86 -5.54659 2.29071 0
M  V30 7630 H 688.93 -4.14988 2.50824 0
M  V30 7631 O 690.312 -0.824023 -1.38896 0
M  V30 7632 H 691.003 -0.40654 -1.89386 0
M  V30 END ATOM
M  V30 BEGIN BOND
M  V30 END BOND
M  V30 END CTAB
M  END
$$$$
