drugbank_target|Q9A1B7 Glutamate racemase (DB08272)
 OpenBabel12092120503D

  0  0  0     0  0            999 V3000
M  V30 BEGIN CTAB
M  V30 COUNTS 4166 4208 0 0 0
M  V30 BEGIN ATOM
M  V30 1 H -0.908 1.98254 -0.117106 0
M  V30 2 N 0 1.576 0 0
M  V30 3 C 0.933 2.03868 1.02534 0
M  V30 4 C 1.911 0.928543 1.3348 0
M  V30 5 O 3.095 1.19667 1.45644 0
M  V30 6 C 0.222 2.43627 2.35294 0
M  V30 7 C -0.732 3.65373 2.2001 0
M  V30 8 S 0.101 5.13292 1.52614 0
M  V30 9 C 1.257 5.56322 2.86805 0
M  V30 10 H 1.49 2.90518 0.631377 0
M  V30 11 H -0.977 1.52953 0.210867 0
M  V30 12 H 0.981 2.67203 3.11629 0
M  V30 13 H -0.358 1.57376 2.7183 0
M  V30 14 H -1.165 3.90944 3.18086 0
M  V30 15 H -1.563 3.418 1.51819 0
M  V30 16 H 0.729 5.58782 3.83104 0
M  V30 17 H 1.672 6.56266 2.65933 0
M  V30 18 H 2.08 4.83886 2.90714 0
M  V30 19 N 1.4781 -0.272755 1.55222 0
M  V30 20 C 2.7551 -1.02562 1.66555 0
M  V30 21 C 3.1351 -2.04282 0.532189 0
M  V30 22 O 2.4831 -2.23662 -0.467717 0
M  V30 23 C 2.6931 -1.6822 3.05782 0
M  V30 24 C 4.0411 -2.19373 3.63539 0
M  V30 25 O 5.0651 -1.78206 3.08417 0
M  V30 26 O 3.9241 -2.94883 4.60115 0
M  V30 27 H 1.0181 -0.475755 0.676451 0
M  V30 28 H 3.5641 -0.268593 1.67561 0
M  V30 29 H 2.3361 -0.945112 3.79715 0
M  V30 30 H 1.9591 -2.50609 3.08676 0
M  V30 31 N 2.9562 -1.48159 -0.537278 0
M  V30 32 C 4.1842 -1.59454 -1.31841 0
M  V30 33 C 4.5992 -0.252065 -1.8711 0
M  V30 34 O 3.9562 0.757621 -1.66031 0
M  V30 35 C 4.0072 -2.63546 -2.47439 0
M  V30 36 O 3.7282 -3.92583 -1.94449 0
M  V30 37 C 5.2292 -2.85212 -3.39366 0
M  V30 38 H 2.4492 -0.53785 -0.401196 0
M  V30 39 H 4.9932 -1.93932 -0.648891 0
M  V30 40 H 3.1482 -2.31946 -3.1029 0
M  V30 41 H 3.5622 -4.49629 -2.70063 0
M  V30 42 H 5.0362 -3.61863 -4.16844 0
M  V30 43 H 5.5132 -1.93765 -3.94147 0
M  V30 44 H 6.1192 -3.18086 -2.82314 0
M  V30 45 N 4.4343 0.785586 -1.36625 0
M  V30 46 C 5.8503 1.08419 -1.17122 0
M  V30 47 C 6.0503 2.015 0.00208491 0
M  V30 48 O 5.1063 2.43551 0.666278 0
M  V30 49 C 6.4193 1.69498 -2.48377 0
M  V30 50 C 7.9673 1.81821 -2.54775 0
M  V30 51 C 8.4423 2.46315 -3.86126 0
M  V30 52 N 9.9333 2.53779 -3.87492 0
M  V30 53 C 10.6683 3.045 -4.85868 0
M  V30 54 N 10.1643 3.55499 -5.94637 0
M  V30 55 N 11.9573 3.03247 -4.73284 0
M  V30 56 H 4.1083 0.167264 -2.1174 0
M  V30 57 H 6.3713 0.13682 -0.938075 0
M  V30 58 H 6.0773 1.08571 -3.34522 0
M  V30 59 H 5.9513 2.6896 -2.64462 0
M  V30 60 H 8.3383 2.41884 -1.69045 0
M  V30 61 H 8.4193 0.811532 -2.42586 0
M  V30 62 H 8.0633 1.86895 -4.72263 0
M  V30 63 H 7.9933 3.47561 -3.95612 0
M  V30 64 H 10.4843 2.17672 -3.08913 0
M  V30 65 H 10.7973 3.92562 -6.65669 0
M  V30 66 H 9.1423 3.5364 -5.98301 0
M  V30 67 H 12.3333 2.62696 -3.87438 0
M  V30 68 H 12.5063 3.42467 -5.50109 0
M  V30 69 N 5.9124 1.20967 1.01018 0
M  V30 70 C 7.3234 1.02319 1.56165 0
M  V30 71 C 7.6744 -0.418546 1.91684 0
M  V30 72 O 6.7994 -1.30096 1.72928 0
M  V30 73 C 7.3944 1.85109 2.8376 0
M  V30 74 C 5.9534 1.70809 3.35412 0
M  V30 75 C 5.1004 1.82643 2.08655 0
M  V30 76 H 8.0514 1.35065 0.833255 0
M  V30 77 H 8.0724 1.35827 3.55431 0
M  V30 78 H 7.5844 2.90035 2.57878 0
M  V30 79 H 5.6854 0.685464 3.66241 0
M  V30 80 H 5.7984 2.52467 4.07182 0
M  V30 81 H 4.1624 1.25896 2.21409 0
M  V30 82 H 4.9454 2.89066 1.85191 0
M  V30 83 N 7.3905 -1.2043 1.01659 0
M  V30 84 C 8.6395 -1.89118 0.701237 0
M  V30 85 C 8.9525 -1.79705 -0.772358 0
M  V30 86 O 10.1585 -2.43528 -1.20026 0
M  V30 87 C 8.6145 -3.39168 1.20388 0
M  V30 88 C 8.2225 -3.57166 2.70438 0
M  V30 89 C 9.9665 -4.1341 0.963953 0
M  V30 90 C 7.8735 -5.01042 3.14183 0
M  V30 91 H 6.8035 -0.708267 0.2586 0
M  V30 92 H 9.4545 -1.36239 1.22927 0
M  V30 93 H 7.8365 -3.91369 0.603824 0
M  V30 94 H 9.0105 -3.15351 3.35992 0
M  V30 95 H 7.3255 -2.96294 2.92572 0
M  V30 96 H 9.9225 -5.19491 1.26621 0
M  V30 97 H 10.2655 -4.16181 -0.099578 0
M  V30 98 H 10.7985 -3.67309 1.52738 0
M  V30 99 H 7.5375 -5.03426 4.19812 0
M  V30 100 H 7.0575 -5.43668 2.53348 0
M  V30 101 H 8.7365 -5.69623 3.0682 0
M  V30 102 N 8.8686 -0.792821 -1.36206 0
M  V30 103 C 10.1166 -0.366062 -1.98757 0
M  V30 104 C 10.4376 1.0668 -1.63231 0
M  V30 105 O 9.7076 1.73587 -0.907978 0
M  V30 106 H 8.2876 -0.132364 -0.735179 0
M  V30 107 H 10.9496 -1.01562 -1.66347 0
M  V30 108 H 10.0456 -0.460638 -3.08682 0
M  V30 109 N 10.3467 1.47872 -0.545128 0
M  V30 110 C 11.5937 2.02493 -0.0165858 0
M  V30 111 C 11.9217 1.42073 1.32836 0
M  V30 112 O 11.1767 0.561459 1.87473 0
M  V30 113 C 11.4757 3.57131 0.13867 0
M  V30 114 C 11.1417 4.36411 -1.13384 0
M  V30 115 C 9.8037 4.57792 -1.48256 0
M  V30 116 C 12.1557 4.82223 -1.97764 0
M  V30 117 C 9.4837 5.22233 -2.67376 0
M  V30 118 C 11.8357 5.47977 -3.16076 0
M  V30 119 C 10.4997 5.67593 -3.51275 0
M  V30 120 H 9.7697 0.740975 -0.00606918 0
M  V30 121 H 12.4167 1.77683 -0.714207 0
M  V30 122 H 10.7217 3.80865 0.919172 0
M  V30 123 H 12.4187 3.97031 0.562782 0
M  V30 124 H 9.0087 4.2004 -0.852297 0
M  V30 125 H 13.1927 4.65493 -1.72132 0
M  V30 126 H 8.4487 5.35616 -2.94831 0
M  V30 127 H 12.6227 5.8244 -3.81755 0
M  V30 128 H 10.2497 6.17298 -4.43675 0
M  V30 129 N 11.8248 0.280983 1.55075 0
M  V30 130 C 12.7548 -0.597469 2.25727 0
M  V30 131 C 13.7358 -1.15417 1.24952 0
M  V30 132 O 14.9208 -1.18722 1.53684 0
M  V30 133 C 12.0508 -1.7789 2.98283 0
M  V30 134 C 11.0048 -1.35347 4.06036 0
M  V30 135 C 10.3308 -2.61846 4.66198 0
M  V30 136 C 11.6308 -0.499354 5.19907 0
M  V30 137 H 13.3248 -0.00824265 2.99399 0
M  V30 138 H 10.8708 -0.0025244 1.44 0
M  V30 139 H 12.8238 -2.39937 3.46422 0
M  V30 140 H 11.5478 -2.39405 2.22155 0
M  V30 141 H 10.2068 -0.756156 3.58717 0
M  V30 142 H 9.8548 -3.21632 3.86732 0
M  V30 143 H 9.5548 -2.3409 5.38958 0
M  V30 144 H 11.0788 -3.24732 5.1709 0
M  V30 145 H 12.4928 -1.02498 5.64063 0
M  V30 146 H 10.8898 -0.316424 5.99265 0
M  V30 147 H 11.9598 0.480459 4.82514 0
M  V30 148 N 13.3029 -1.57598 0.00835791 0
M  V30 149 C 14.5799 -1.82172 -0.712235 0
M  V30 150 C 14.9599 -0.887873 -1.9152 0
M  V30 151 O 14.3079 0.06146 -2.28417 0
M  V30 152 C 14.5179 -3.30875 -1.11008 0
M  V30 153 C 15.8659 -3.96826 -1.51044 0
M  V30 154 O 16.8899 -3.35248 -1.20364 0
M  V30 155 O 15.7489 -5.05318 -2.08125 0
M  V30 156 H 12.8429 -0.750435 -0.347529 0
M  V30 157 H 15.3889 -1.69665 0.0344523 0
M  V30 158 H 14.1609 -3.90481 -0.252982 0
M  V30 159 H 13.7839 -3.48412 -1.9156 0
M  V30 160 N 14.781 0.264519 -1.55364 0
M  V30 161 C 16.006 1.01726 -1.80739 0
M  V30 162 C 16.431 1.78836 -0.583044 0
M  V30 163 O 15.789 1.75167 0.467566 0
M  V30 164 C 15.837 1.94482 -3.03659 0
M  V30 165 O 14.941 3.03386 -2.7934 0
M  V30 166 H 14.282 0.290395 -0.597132 0
M  V30 167 H 16.812 0.290854 -2.02522 0
M  V30 168 H 16.822 2.36278 -3.32621 0
M  V30 169 H 15.497 1.37772 -3.92418 0
M  V30 170 H 14.074 2.65844 -2.61498 0
M  V30 171 N 16.2591 1.48442 0.529413 0
M  V30 172 C 17.5071 1.56179 1.28267 0
M  V30 173 C 17.8281 0.237721 1.93546 0
M  V30 174 O 17.0981 -0.740779 1.81354 0
M  V30 175 H 15.6781 0.575367 0.476405 0
M  V30 176 H 18.3401 1.84909 0.61602 0
M  V30 177 H 17.4361 2.34312 2.06165 0
M  V30 178 N 17.7372 -0.778329 1.37039 0
M  V30 179 C 18.9832 -1.53892 1.32079 0
M  V30 180 C 19.3162 -1.9396 -0.0965386 0
M  V30 181 O 18.5912 -1.63568 -1.05242 0
M  V30 182 C 18.8742 -2.80847 2.25382 0
M  V30 183 C 18.7272 -2.47076 3.75864 0
M  V30 184 C 20.0462 -3.82741 2.1725 0
M  V30 185 H 17.1652 -0.558303 0.48111 0
M  V30 186 H 19.8072 -0.893397 1.67685 0
M  V30 187 H 17.9572 -3.35931 1.95148 0
M  V30 188 H 19.6292 -1.97957 4.16666 0
M  V30 189 H 17.8722 -1.79863 3.94755 0
M  V30 190 H 18.5432 -3.37798 4.36574 0
M  V30 191 H 21.0192 -3.37133 2.43887 0
M  V30 192 H 19.8952 -4.69303 2.84686 0
M  V30 193 H 20.1562 -4.2652 1.16331 0
M  V30 194 N 19.2153 -1.21501 -1.00376 0
M  V30 195 C 20.4633 -1.03095 -1.73827 0
M  V30 196 C 20.7843 0.436341 -1.90055 0
M  V30 197 O 20.0543 1.31466 -1.45236 0
M  V30 198 H 18.6343 -0.378487 -0.644016 0
M  V30 199 H 21.2963 -1.52831 -1.20949 0
M  V30 200 H 20.3923 -1.49991 -2.73695 0
M  V30 201 N 20.6934 1.19889 -1.02296 0
M  V30 202 C 21.9414 1.89046 -0.714558 0
M  V30 203 C 22.2624 1.79636 0.758681 0
M  V30 204 O 21.5324 1.20292 1.54618 0
M  V30 205 H 20.1124 0.699802 -0.261317 0
M  V30 206 H 22.7744 1.45574 -1.29592 0
M  V30 207 H 21.8704 2.95524 -1.0036 0
M  V30 208 N 22.1715 0.800033 1.35784 0
M  V30 209 C 23.1015 0.220184 2.3246 0
M  V30 210 C 24.0825 -0.65073 1.57161 0
M  V30 211 O 25.2675 -0.582359 1.85263 0
M  V30 212 C 22.3975 -0.637353 3.41402 0
M  V30 213 C 21.3515 0.134531 4.27789 0
M  V30 214 C 20.6775 -0.844285 5.27992 0
M  V30 215 C 21.9775 1.32979 5.05088 0
M  V30 216 H 23.6715 1.02787 2.81203 0
M  V30 217 H 21.2175 0.495717 1.35199 0
M  V30 218 H 23.1705 -1.05302 4.08031 0
M  V30 219 H 21.8945 -1.47785 2.91251 0
M  V30 220 H 20.5535 0.531296 3.6273 0
M  V30 221 H 20.2015 -1.68011 4.74111 0
M  V30 222 H 19.9015 -0.332184 5.8666 0
M  V30 223 H 21.4255 -1.2583 5.97494 0
M  V30 224 H 22.8395 0.98934 5.64699 0
M  V30 225 H 21.2365 1.77593 5.7322 0
M  V30 226 H 22.3065 2.11978 4.36111 0
M  V30 227 N 23.6496 -1.47581 0.552962 0
M  V30 228 C 24.8776 -2.06875 0.0320556 0
M  V30 229 C 25.2926 -1.40625 -1.25976 0
M  V30 230 O 24.6496 -0.501349 -1.75479 0
M  V30 231 C 24.7006 -3.61092 -0.17167 0
M  V30 232 O 24.4216 -4.24858 1.06899 0
M  V30 233 C 25.9226 -4.37242 -0.730344 0
M  V30 234 H 23.1426 -0.669561 0.043915 0
M  V30 235 H 25.6866 -1.89646 0.765163 0
M  V30 236 H 23.8416 -3.7785 -0.854894 0
M  V30 237 H 24.2556 -5.17334 0.864059 0
M  V30 238 H 25.7296 -5.45842 -0.822203 0
M  V30 239 H 26.2066 -4.03235 -1.74064 0
M  V30 240 H 26.8126 -4.25219 -0.0829543 0
M  V30 241 N 25.1277 -0.289203 -1.54924 0
M  V30 242 C 26.3737 0.323998 -2.00195 0
M  V30 243 C 26.7067 1.54441 -1.17735 0
M  V30 244 O 25.9817 1.92875 -0.250878 0
M  V30 245 C 26.2647 0.692276 -3.53383 0
M  V30 246 C 26.1177 -0.536457 -4.46589 0
M  V30 247 C 27.4367 1.52335 -4.12895 0
M  V30 248 H 24.5557 0.116289 -0.727768 0
M  V30 249 H 27.1977 -0.398954 -1.85764 0
M  V30 250 H 25.3477 1.30822 -3.65811 0
M  V30 251 H 27.0197 -1.17499 -4.46085 0
M  V30 252 H 25.2627 -1.17192 -4.1767 0
M  V30 253 H 25.9337 -0.234806 -5.515 0
M  V30 254 H 28.4097 1.00302 -4.0383 0
M  V30 255 H 27.2857 1.74982 -5.20262 0
M  V30 256 H 27.5467 2.50886 -3.64018 0
M  V30 257 N 26.6058 1.57591 -0.0167156 0
M  V30 258 C 27.8518 1.91567 0.665582 0
M  V30 259 C 28.1848 0.892298 1.72487 0
M  V30 260 O 27.4598 -0.0867127 1.94307 0
M  V30 261 C 27.7428 3.36069 1.29342 0
M  V30 262 C 27.5958 4.49135 0.244541 0
M  V30 263 C 28.9148 3.803 2.21495 0
M  V30 264 H 26.0338 0.69666 0.240488 0
M  V30 265 H 28.6758 1.89866 -0.0714356 0
M  V30 266 H 26.8258 3.3765 1.92158 0
M  V30 267 H 28.4978 4.59689 -0.385228 0
M  V30 268 H 26.7408 4.3165 -0.431379 0
M  V30 269 H 27.4118 5.47242 0.723207 0
M  V30 270 H 29.8878 3.80377 1.68678 0
M  V30 271 H 28.7638 4.82127 2.62382 0
M  V30 272 H 29.0248 3.15104 3.101 0
M  V30 273 N 28.0839 -0.256276 1.55502 0
M  V30 274 C 29.3239 -0.993081 1.78654 0
M  V30 275 C 29.6879 -1.8288 0.584724 0
M  V30 276 O 30.8889 -2.59665 0.694822 0
M  V30 277 C 29.1599 -1.83856 3.06483 0
M  V30 278 S 30.7189 -2.63573 3.5082 0
M  V30 279 H 27.5369 -0.334199 0.62756 0
M  V30 280 H 30.1389 -0.26184 1.93739 0
M  V30 281 H 28.8429 -1.21414 3.92029 0
M  V30 282 H 28.3739 -2.61271 2.94111 0
M  V30 283 H 30.3889 -3.86312 3.11412 0
M  V30 284 N 29.562 -1.4872 -0.521534 0
M  V30 285 C 30.472 -1.66569 -1.65203 0
M  V30 286 C 31.488 -0.548197 -1.65139 0
M  V30 287 O 32.664 -0.820339 -1.83936 0
M  V30 288 C 29.729 -1.70917 -3.01642 0
M  V30 289 C 28.79 -2.94356 -3.12495 0
M  V30 290 C 28.023 -2.98487 -4.42426 0
M  V30 291 O 28.246 -2.10786 -5.30024 0
M  V30 292 O 27.18 -3.90746 -4.57822 0
M  V30 293 H 31.006 -2.62298 -1.5308 0
M  V30 294 H 28.591 -1.3222 -0.695565 0
M  V30 295 H 30.473 -1.7625 -3.82771 0
M  V30 296 H 29.148 -0.783633 -3.14071 0
M  V30 297 H 28.055 -2.94552 -2.3063 0
M  V30 298 H 29.388 -3.86322 -3.04986 0
M  V30 299 N 31.0401 0.771051 -1.3745 0
M  V30 300 C 31.9701 1.89827 -1.3597 0
M  V30 301 C 32.9511 1.68562 -0.228216 0
M  V30 302 O 34.1361 1.8941 -0.428675 0
M  V30 303 C 31.2661 3.2712 -1.16662 0
M  V30 304 C 30.2201 3.6295 -2.2683 0
M  V30 305 C 29.5461 4.98791 -1.92644 0
M  V30 306 C 30.8461 3.69627 -3.69017 0
M  V30 307 H 32.5401 1.91323 -2.30295 0
M  V30 308 H 30.0861 0.919082 -1.10855 0
M  V30 309 H 32.0391 4.05615 -1.14256 0
M  V30 310 H 30.7631 3.26059 -0.187926 0
M  V30 311 H 29.4221 2.86763 -2.28392 0
M  V30 312 H 29.0701 4.94271 -0.933021 0
M  V30 313 H 28.7701 5.23733 -2.66416 0
M  V30 314 H 30.2941 5.79685 -1.91826 0
M  V30 315 H 31.7081 4.38273 -3.69581 0
M  V30 316 H 30.1051 4.06067 -4.41848 0
M  V30 317 H 31.1751 2.70273 -4.02592 0
M  V30 318 N 32.5182 1.22032 0.997298 0
M  V30 319 C 33.7672 1.03637 1.73038 0
M  V30 320 C 34.0802 -0.429475 1.90827 0
M  V30 321 O 35.2862 -0.732995 2.61418 0
M  V30 322 C 33.7422 1.80582 3.11317 0
M  V30 323 C 33.3502 3.31387 3.01474 0
M  V30 324 C 35.0942 1.70621 3.88701 0
M  V30 325 C 33.0012 4.00791 4.3488 0
M  V30 326 H 31.9312 0.384179 0.648785 0
M  V30 327 H 34.5822 1.4584 1.11368 0
M  V30 328 H 32.9642 1.31175 3.73643 0
M  V30 329 H 34.1382 3.88155 2.4834 0
M  V30 330 H 32.4532 3.41976 2.37575 0
M  V30 331 H 35.0502 2.19799 4.87434 0
M  V30 332 H 35.3932 0.665823 4.10941 0
M  V30 333 H 35.9262 2.17547 3.33044 0
M  V30 334 H 32.6652 5.05064 4.1784 0
M  V30 335 H 32.1852 3.48811 4.87945 0
M  V30 336 H 33.8642 4.06139 5.03647 0
M  V30 337 N 33.9963 -1.19345 1.0293 0
M  V30 338 C 35.4123 -1.41069 0.746446 0
M  V30 339 C 35.6123 -1.90078 -0.668776 0
M  V30 340 O 34.6683 -2.0778 -1.4347 0
M  V30 341 C 35.9813 -2.42141 1.78292 0
M  V30 342 C 37.5293 -2.55887 1.80252 0
M  V30 343 C 38.0043 -3.60214 2.8286 0
M  V30 344 N 39.4953 -3.67711 2.81679 0
M  V30 345 C 40.2303 -4.48128 3.57727 0
M  V30 346 N 39.7263 -5.32248 4.43491 0
M  V30 347 N 41.5193 -4.42782 3.46267 0
M  V30 348 H 33.6703 -0.858536 1.94275 0
M  V30 349 H 35.9333 -0.439541 0.839945 0
M  V30 350 H 35.6393 -2.13155 2.79746 0
M  V30 351 H 35.5133 -3.41323 1.60557 0
M  V30 352 H 37.9003 -2.84196 0.794757 0
M  V30 353 H 37.9813 -1.56858 2.02062 0
M  V30 354 H 37.6253 -3.32647 3.83807 0
M  V30 355 H 37.5553 -4.58895 2.58307 0
M  V30 356 H 40.0463 -3.07634 2.19476 0
M  V30 357 H 40.3593 -5.90729 4.98256 0
M  V30 358 H 38.7043 -5.31707 4.47564 0
M  V30 359 H 41.8953 -3.76107 2.78677 0
M  V30 360 H 42.0683 -5.05215 4.05785 0
M  V30 361 N 35.4744 -0.807222 -1.35358 0
M  V30 362 C 36.4064 -0.175717 -2.28525 0
M  V30 363 C 37.4194 0.625354 -1.5031 0
M  V30 364 O 38.6084 0.457611 -1.72535 0
M  V30 365 C 35.7084 0.773471 -3.29956 0
M  V30 366 C 34.8814 0.0186296 -4.37396 0
M  V30 367 C 33.9404 0.886395 -5.18681 0
M  V30 368 O 32.9664 0.337106 -5.68201 0
M  V30 369 N 34.1684 2.20839 -5.36852 0
M  V30 370 H 36.9334 -0.976091 -2.83359 0
M  V30 371 H 34.4944 -0.662737 -1.47714 0
M  V30 372 H 36.4864 1.35824 -3.81227 0
M  V30 373 H 35.0564 1.47465 -2.75632 0
M  V30 374 H 34.2764 -0.747349 -3.87051 0
M  V30 375 H 35.5644 -0.501577 -5.06322 0
M  V30 376 H 34.9624 2.67858 -4.98265 0
M  V30 377 H 33.5194 2.74237 -5.91301 0
M  V30 378 N 36.9525 1.47285 -0.560781 0
M  V30 379 C 37.8825 2.32857 0.173105 0
M  V30 380 C 38.8635 1.44009 0.905281 0
M  V30 381 O 40.0485 1.7286 0.885046 0
M  V30 382 C 37.1785 3.25861 1.20133 0
M  V30 383 C 36.1325 4.23978 0.585388 0
M  V30 384 C 35.4585 5.06332 1.7185 0
M  V30 385 C 36.7585 5.20242 -0.463178 0
M  V30 386 H 38.4525 2.94466 -0.541307 0
M  V30 387 H 35.9985 1.41601 -0.261764 0
M  V30 388 H 37.9515 3.84569 1.72293 0
M  V30 389 H 36.6755 2.62315 1.94573 0
M  V30 390 H 35.3345 3.66501 0.085054 0
M  V30 391 H 34.9825 4.39186 2.45203 0
M  V30 392 H 34.6825 5.72762 1.31213 0
M  V30 393 H 36.2065 5.67899 2.24329 0
M  V30 394 H 37.6205 5.73293 -0.027502 0
M  V30 395 H 36.0175 5.94896 -0.788627 0
M  V30 396 H 37.0875 4.65504 -1.35773 0
M  V30 397 N 38.4306 0.297415 1.54768 0
M  V30 398 C 39.8416 -0.195947 1.85669 0
M  V30 399 C 40.1926 -1.53707 1.21937 0
M  V30 400 O 39.3176 -2.10164 0.515754 0
M  V30 401 C 39.9126 -0.362318 3.36857 0
M  V30 402 C 38.4716 -0.799901 3.67802 0
M  V30 403 C 37.6186 0.0938578 2.77141 0
M  V30 404 H 40.5696 0.518538 1.4999 0
M  V30 405 H 40.5906 -1.19745 3.61167 0
M  V30 406 H 40.1026 0.613921 3.83214 0
M  V30 407 H 38.2036 -1.78682 3.26961 0
M  V30 408 H 38.3166 -0.621773 4.75048 0
M  V30 409 H 36.6806 -0.426254 2.51108 0
M  V30 410 H 37.4636 1.06639 3.26318 0
M  V30 411 N 39.9087 -1.5758 0.0250728 0
M  V30 412 C 40.8587 -2.06468 -0.967201 0
M  V30 413 C 41.8427 -0.964376 -1.28797 0
M  V30 414 O 43.0347 -1.22797 -1.27475 0
M  V30 415 C 40.1637 -2.59203 -2.25097 0
M  V30 416 C 39.2497 -3.76157 -1.95874 0
M  V30 417 N 39.6407 -4.86919 -1.36905 0
M  V30 418 C 37.9387 -3.84566 -2.25887 0
M  V30 419 C 38.6397 -5.68172 -1.24724 0
M  V30 420 N 37.6157 -5.14953 -1.74138 0
M  V30 421 H 41.4177 -2.89508 -0.506176 0
M  V30 422 H 38.9317 -1.61399 -0.18004 0
M  V30 423 H 40.9287 -2.92517 -2.97052 0
M  V30 424 H 39.5887 -1.77592 -2.71829 0
M  V30 425 H 40.5997 -5.07256 -1.04459 0
M  V30 426 H 37.2767 -3.13854 -2.75321 0
M  V30 427 H 38.6667 -6.67221 -0.791605 0
M  V30 428 N 41.3868 0.248026 -1.55636 0
M  V30 429 C 42.2968 1.32859 -1.93354 0
M  V30 430 C 43.3128 1.52719 -0.833838 0
M  V30 431 O 44.4888 1.66363 -1.13513 0
M  V30 432 C 41.5538 2.66337 -2.21958 0
M  V30 433 C 40.6148 2.55008 -3.45354 0
M  V30 434 C 39.8478 3.82121 -3.72584 0
M  V30 435 O 40.0708 4.83951 -3.01907 0
M  V30 436 O 39.0048 3.80822 -4.6611 0
M  V30 437 H 42.8308 1.03862 -2.85388 0
M  V30 438 H 40.4158 0.448686 -1.42503 0
M  V30 439 H 42.2978 3.45216 -2.4167 0
M  V30 440 H 40.9728 2.95068 -1.33103 0
M  V30 441 H 39.8798 1.7442 -3.30951 0
M  V30 442 H 41.2128 2.31222 -4.34508 0
M  V30 443 N 42.8649 1.48995 0.513639 0
M  V30 444 C 43.8119 1.6473 1.61656 0
M  V30 445 C 44.7819 0.488984 1.58739 0
M  V30 446 O 45.9669 0.714478 1.76918 0
M  V30 447 C 43.1069 1.7082 2.99858 0
M  V30 448 C 42.2199 2.9787 3.12885 0
M  V30 449 C 41.3549 2.95017 4.41744 0
M  V30 450 C 40.3939 4.16702 4.48359 0
M  V30 451 N 39.5309 4.11832 5.68629 0
M  V30 452 H 44.3709 2.58909 1.47547 0
M  V30 453 H 41.9079 1.28382 0.71808 0
M  V30 454 H 43.8659 1.72331 3.79944 0
M  V30 455 H 42.4959 0.801181 3.12699 0
M  V30 456 H 41.5479 3.06029 2.25944 0
M  V30 457 H 42.8599 3.8786 3.13633 0
M  V30 458 H 42.0139 2.95021 5.30139 0
M  V30 459 H 40.7529 2.02784 4.43542 0
M  V30 460 H 39.7579 4.16955 3.58369 0
M  V30 461 H 40.9829 5.10113 4.48287 0
M  V30 462 H 38.9289 3.22428 5.71293 0
M  V30 463 H 38.8459 4.95543 5.7094 0
M  V30 464 H 40.1139 4.1592 6.59266 0
M  V30 465 N 44.343 -0.763751 1.37857 0
M  V30 466 C 45.592 -1.51789 1.32827 0
M  V30 467 C 45.905 -1.95426 -0.0823719 0
M  V30 468 O 47.111 -2.70298 -0.255172 0
M  V30 469 C 45.567 -2.74133 2.33193 0
M  V30 470 C 45.175 -2.37562 3.79827 0
M  V30 471 C 46.919 -3.52054 2.37188 0
M  V30 472 C 44.826 -3.56456 4.71904 0
M  V30 473 H 43.756 -0.569896 0.493695 0
M  V30 474 H 46.407 -0.835822 1.63359 0
M  V30 475 H 44.789 -3.4427 1.9569 0
M  V30 476 H 45.963 -1.75157 4.26212 0
M  V30 477 H 44.278 -1.72798 3.78853 0
M  V30 478 H 46.875 -4.40437 3.03182 0
M  V30 479 H 47.218 -3.92486 1.38782 0
M  V30 480 H 47.751 -2.88921 2.7344 0
M  V30 481 H 44.49 -3.21099 5.71468 0
M  V30 482 H 44.01 -4.17938 4.30218 0
M  V30 483 H 45.689 -4.23168 4.89426 0
M  V30 484 N 45.8211 -1.22559 -0.990812 0
M  V30 485 C 47.0671 -1.05297 -1.73322 0
M  V30 486 C 47.4001 0.410655 -1.89808 0
M  V30 487 O 46.6751 1.30439 -1.44277 0
M  V30 488 C 46.9581 -1.76713 -3.13759 0
M  V30 489 C 46.8111 -3.30684 -3.04907 0
M  V30 490 C 48.1301 -1.52121 -4.12974 0
M  V30 491 H 45.2491 -0.38392 -0.629106 0
M  V30 492 H 47.8911 -1.50926 -1.15418 0
M  V30 493 H 46.0411 -1.37924 -3.63193 0
M  V30 494 H 47.7131 -3.7893 -2.63077 0
M  V30 495 H 45.9561 -3.60253 -2.41661 0
M  V30 496 H 46.6271 -3.75833 -4.04294 0
M  V30 497 H 49.1031 -1.85819 -3.72304 0
M  V30 498 H 47.9791 -2.04582 -5.0935 0
M  V30 499 H 48.2401 -0.454257 -4.3976 0
M  V30 500 N 47.2992 1.18797 -1.03562 0
M  V30 501 C 48.5292 1.92319 -0.754773 0
M  V30 502 C 48.9372 1.7612 0.691248 0
M  V30 503 O 48.2802 1.08491 1.48241 0
M  V30 504 C 48.3422 3.44284 -1.03484 0
M  V30 505 C 48.0062 3.84258 -2.47376 0
M  V30 506 C 49.0032 3.88459 -3.45537 0
M  V30 507 C 46.6882 4.15701 -2.81954 0
M  V30 508 C 48.6822 4.23545 -4.76328 0
M  V30 509 C 46.3692 4.50458 -4.12954 0
M  V30 510 C 47.3672 4.54356 -5.09951 0
M  V30 511 O 47.0552 4.88305 -6.38603 0
M  V30 512 H 46.7872 0.617527 -0.275021 0
M  V30 513 H 49.3412 1.51683 -1.38497 0
M  V30 514 H 47.5712 3.85135 -0.347513 0
M  V30 515 H 49.2602 3.99049 -0.7426 0
M  V30 516 H 50.0262 3.6431 -3.20162 0
M  V30 517 H 45.9052 4.11847 -2.0713 0
M  V30 518 H 49.4492 4.26502 -5.52035 0
M  V30 519 H 45.3462 4.74067 -4.38099 0
M  V30 520 H 46.1142 5.06227 -6.43177 0
M  V30 521 N 48.7773 0.814389 1.34928 0
M  V30 522 C 50.0263 0.394871 1.97797 0
M  V30 523 C 50.3393 -1.04555 1.65311 0
M  V30 524 O 51.5453 -1.56856 2.21604 0
M  V30 525 C 50.0013 0.655103 3.53888 0
M  V30 526 C 49.6093 2.10858 3.95276 0
M  V30 527 C 51.3533 0.301329 4.23429 0
M  V30 528 C 49.2603 2.31415 5.44244 0
M  V30 529 H 48.1903 0.143913 0.740139 0
M  V30 530 H 50.8413 0.999544 1.53888 0
M  V30 531 H 49.2233 -0.0196253 3.95995 0
M  V30 532 H 50.3973 2.82176 3.64298 0
M  V30 533 H 48.7123 2.42297 3.38646 0
M  V30 534 H 51.3093 0.432869 5.32945 0
M  V30 535 H 51.6523 -0.75331 4.09428 0
M  V30 536 H 52.1853 0.930288 3.86769 0
M  V30 537 H 48.9243 3.35353 5.63222 0
M  V30 538 H 48.4443 1.6463 5.76764 0
M  V30 539 H 50.1233 2.13352 6.10811 0
M  V30 540 N 50.2554 -1.46986 0.568584 0
M  V30 541 C 51.5034 -2.02041 0.0487022 0
M  V30 542 C 51.8244 -1.44408 -1.31039 0
M  V30 543 O 51.0944 -0.623477 -1.85714 0
M  V30 544 H 49.6744 -0.746849 0.015014 0
M  V30 545 H 52.3364 -1.80257 0.741168 0
M  V30 546 H 51.4324 -3.12085 -0.0308961 0
M  V30 547 N 51.7335 -0.305618 -1.54608 0
M  V30 548 C 53.0105 0.355652 -1.92339 0
M  V30 549 C 53.3905 1.71324 -1.23335 0
M  V30 550 O 52.7385 2.25473 -0.370702 0
M  V30 551 C 52.9485 0.46572 -3.45879 0
M  V30 552 C 54.2965 0.734426 -4.182 0
M  V30 553 O 55.3205 0.54935 -3.51938 0
M  V30 554 O 54.1795 1.09024 -5.35515 0
M  V30 555 H 51.2735 0.199666 -0.802535 0
M  V30 556 H 53.8195 -0.354017 -1.65966 0
M  V30 557 H 52.5915 -0.488461 -3.88239 0
M  V30 558 H 52.2145 1.22367 -3.78301 0
M  V30 559 N 53.2116 1.57565 -0.0334293 0
M  V30 560 C 54.4366 1.96689 0.657895 0
M  V30 561 C 54.8616 0.910057 1.64619 0
M  V30 562 O 54.2196 -0.128598 1.80843 0
M  V30 563 C 54.2676 3.34905 1.33683 0
M  V30 564 O 53.3716 3.31574 2.45219 0
M  V30 565 H 52.7126 0.641205 0.172489 0
M  V30 566 H 55.2426 2.04372 -0.0965621 0
M  V30 567 H 55.2526 3.71234 1.69262 0
M  V30 568 H 53.9276 4.11366 0.612411 0
M  V30 569 H 52.5046 3.06968 2.11719 0
M  V30 570 N 54.6897 -0.239769 1.55765 0
M  V30 571 C 55.6527 -1.28038 1.90103 0
M  V30 572 C 56.6527 -1.40723 0.778055 0
M  V30 573 O 57.8427 -1.39301 1.04599 0
M  V30 574 C 54.9747 -2.65702 2.13577 0
M  V30 575 H 56.1677 -0.988048 2.83157 0
M  V30 576 H 53.7207 -0.479382 1.48767 0
M  V30 577 H 54.4557 -3.00063 1.23015 0
M  V30 578 H 54.2407 -2.57875 2.95369 0
M  V30 579 H 55.7307 -3.40828 2.41301 0
M  V30 580 N 56.1678 -1.49265 -0.50573 0
M  V30 581 C 57.5838 -1.35923 -0.836486 0
M  V30 582 C 57.7838 -0.388704 -1.97715 0
M  V30 583 O 56.8398 0.181336 -2.51848 0
M  V30 584 C 58.1528 -2.76531 -1.18115 0
M  V30 585 C 59.7008 -2.85197 -1.28964 0
M  V30 586 C 60.1758 -4.26561 -1.66761 0
M  V30 587 N 61.6668 -4.2935 -1.73819 0
M  V30 588 C 62.4018 -5.35693 -2.045 0
M  V30 589 N 61.8978 -6.52287 -2.33438 0
M  V30 590 N 63.6908 -5.23105 -2.05711 0
M  V30 591 H 55.8418 -2.10965 0.246519 0
M  V30 592 H 58.1048 -0.9468 0.0476887 0
M  V30 593 H 57.8108 -3.49226 -0.416398 0
M  V30 594 H 57.6848 -3.11599 -2.1257 0
M  V30 595 H 60.0718 -2.12742 -2.04511 0
M  V30 596 H 60.1528 -2.53718 -0.325704 0
M  V30 597 H 59.7968 -4.99541 -0.917656 0
M  V30 598 H 59.7268 -4.55502 -2.64246 0
M  V30 599 H 62.2178 -3.4526 -1.53635 0
M  V30 600 H 62.5308 -7.29158 -2.56024 0
M  V30 601 H 60.8758 -6.55521 -2.30905 0
M  V30 602 H 64.0668 -4.31026 -1.82577 0
M  V30 603 H 64.2398 -6.06078 -2.29289 0
M  V30 604 N 57.6459 0.756429 -1.3826 0
M  V30 605 C 58.6089 1.85176 -1.35065 0
M  V30 606 C 59.6089 1.58818 -0.251703 0
M  V30 607 O 60.7989 1.66615 -0.508433 0
M  V30 608 C 57.9309 3.22596 -1.10201 0
M  V30 609 H 59.1239 1.89417 -2.3251 0
M  V30 610 H 56.6769 0.95783 -1.23512 0
M  V30 611 H 57.4119 3.24025 -0.133504 0
M  V30 612 H 57.1969 3.43122 -1.89762 0
M  V30 613 H 58.6869 4.02673 -1.10654 0
M  V30 614 N 59.124 1.23083 0.984299 0
M  V30 615 C 60.535 1.05609 1.5396 0
M  V30 616 C 60.886 -0.377793 1.92528 0
M  V30 617 O 60.011 -1.26398 1.75649 0
M  V30 618 C 60.606 1.91087 2.7977 0
M  V30 619 C 59.165 1.77885 3.31713 0
M  V30 620 C 58.312 1.87028 2.04733 0
M  V30 621 H 61.263 1.36802 0.804419 0
M  V30 622 H 61.284 1.43336 3.5247 0
M  V30 623 H 60.796 2.9544 2.51668 0
M  V30 624 H 58.897 0.762995 3.64704 0
M  V30 625 H 59.01 2.61047 4.01735 0
M  V30 626 H 57.374 1.30565 2.18689 0
M  V30 627 H 58.157 2.92929 1.79017 0
M  V30 628 N 60.6021 -1.18246 1.0419 0
M  V30 629 C 61.8321 -1.91916 0.764961 0
M  V30 630 C 62.2401 -1.76485 -0.681898 0
M  V30 631 O 61.5831 -1.09275 -1.47664 0
M  V30 632 C 61.6451 -3.4373 1.05309 0
M  V30 633 C 61.3091 -3.8294 2.4941 0
M  V30 634 C 62.3061 -3.86621 3.47592 0
M  V30 635 C 59.9911 -4.142 2.84155 0
M  V30 636 C 61.9851 -4.21013 4.78568 0
M  V30 637 C 59.6721 -4.48262 4.15337 0
M  V30 638 C 60.6701 -4.51645 5.12353 0
M  V30 639 O 60.3581 -4.84911 6.41183 0
M  V30 640 H 60.0901 -0.61606 0.278292 0
M  V30 641 H 62.6441 -1.50947 1.39299 0
M  V30 642 H 60.8741 -3.84946 0.367933 0
M  V30 643 H 62.5631 -3.9865 0.763752 0
M  V30 644 H 63.3291 -3.62607 3.22089 0
M  V30 645 H 59.2081 -4.10743 2.09311 0
M  V30 646 H 62.7521 -4.23568 5.54289 0
M  V30 647 H 58.6491 -4.71737 4.40607 0
M  V30 648 H 59.4171 -5.02809 6.45852 0
M  V30 649 N 62.0802 -0.821533 -1.34494 0
M  V30 650 C 63.3282 -0.408139 -1.97936 0
M  V30 651 C 63.6492 1.03193 -1.65457 0
M  V30 652 O 62.9192 1.71622 -0.944595 0
M  V30 653 H 61.4992 -0.147928 -0.732206 0
M  V30 654 H 64.1612 -1.05067 -1.64155 0
M  V30 655 H 63.2572 -0.52601 -3.07635 0
M  V30 656 N 63.5583 1.46682 -0.576371 0
M  V30 657 C 64.9693 1.86112 -0.148091 0
M  V30 658 C 65.3203 1.48073 1.2872 0
M  V30 659 O 64.4453 0.892656 1.97131 0
M  V30 660 C 65.0403 3.37786 -0.261982 0
M  V30 661 C 63.5993 3.76235 0.111384 0
M  V30 662 C 62.7463 2.70713 -0.60083 0
M  V30 663 H 65.6973 1.37927 -0.78497 0
M  V30 664 H 65.7183 3.77007 0.514364 0
M  V30 665 H 65.2303 3.6544 -1.30671 0
M  V30 666 H 63.3313 3.54198 1.15649 0
M  V30 667 H 63.4443 4.78391 -0.26052 0
M  V30 668 H 61.8083 2.54666 -0.0417783 0
M  V30 669 H 62.5913 3.01208 -1.64708 0
M  V30 670 N 65.0364 0.313813 1.54444 0
M  V30 671 C 66.4524 -0.0391619 1.59552 0
M  V30 672 C 66.6524 -1.51322 1.33056 0
M  V30 673 O 65.7084 -2.26782 1.11022 0
M  V30 674 C 67.0214 0.370302 2.98411 0
M  V30 675 C 68.5694 0.320139 3.11358 0
M  V30 676 C 69.0444 0.704617 4.52547 0
M  V30 677 N 70.5354 0.657645 4.58508 0
M  V30 678 C 71.2704 0.927453 5.6585 0
M  V30 679 N 70.7664 1.26389 6.81174 0
M  V30 680 N 72.5594 0.853662 5.5558 0
M  V30 681 H 64.7104 1.27433 1.69925 0
M  V30 682 H 66.9734 0.517511 0.794284 0
M  V30 683 H 66.6794 1.39694 3.22767 0
M  V30 684 H 66.5534 -0.269619 3.76235 0
M  V30 685 H 68.9404 -0.697275 2.86744 0
M  V30 686 H 69.0214 0.99486 2.35661 0
M  V30 687 H 68.6654 1.7199 4.77893 0
M  V30 688 H 68.5954 0.00768843 5.26599 0
M  V30 689 H 71.0864 0.409067 3.75679 0
M  V30 690 H 71.3994 1.4554 7.58972 0
M  V30 691 H 69.7444 1.30206 6.82694 0
M  V30 692 H 72.9354 0.590383 4.64362 0
M  V30 693 H 73.1084 1.0673 6.3915 0
M  V30 694 N 66.5145 -1.57545 0.0417849 0
M  V30 695 C 67.9255 -1.80011 -0.495259 0
M  V30 696 C 68.2765 -0.953199 -1.71489 0
M  V30 697 O 67.4015 -0.167138 -2.15754 0
M  V30 698 C 67.9965 -3.26482 -0.905265 0
M  V30 699 C 66.5555 -3.499 -1.38734 0
M  V30 700 C 65.7025 -2.74979 -0.358056 0
M  V30 701 H 68.6535 -1.56425 0.267736 0
M  V30 702 H 68.6745 -3.36887 -1.76882 0
M  V30 703 H 68.1865 -3.88096 -0.017401 0
M  V30 704 H 66.2875 -2.93553 -2.29471 0
M  V30 705 H 66.4005 -4.58615 -1.38598 0
M  V30 706 H 64.7645 -2.40834 -0.828912 0
M  V30 707 H 65.5475 -3.39315 0.521561 0
M  V30 708 N 67.9926 0.231505 -1.5589 0
M  V30 709 C 68.9396 1.28682 -1.91598 0
M  V30 710 C 69.9096 1.47071 -0.771974 0
M  V30 711 O 71.0946 1.60802 -1.027 0
M  V30 712 C 68.2346 2.6342 -2.22944 0
M  V30 713 C 67.3476 2.52912 -3.50228 0
M  V30 714 C 66.4826 3.80106 -3.7107 0
M  V30 715 C 65.5216 3.64279 -4.91902 0
M  V30 716 N 64.6586 4.834 -5.09184 0
M  V30 717 H 69.4986 0.975305 -2.81588 0
M  V30 718 H 67.0356 0.470299 -1.39379 0
M  V30 719 H 68.9936 3.41869 -2.39126 0
M  V30 720 H 67.6236 2.92687 -1.36139 0
M  V30 721 H 66.6756 1.6595 -3.42294 0
M  V30 722 H 67.9876 2.37133 -4.38827 0
M  V30 723 H 67.1416 4.66999 -3.87295 0
M  V30 724 H 65.8806 3.98799 -2.80733 0
M  V30 725 H 64.8856 2.7577 -4.75637 0
M  V30 726 H 66.1106 3.47067 -5.83714 0
M  V30 727 H 64.0566 5.02425 -4.21788 0
M  V30 728 H 63.9736 4.70311 -5.91898 0
M  V30 729 H 65.2416 5.71747 -5.29835 0
M  V30 730 N 69.4707 1.49531 0.497807 0
M  V30 731 C 70.4177 1.66436 1.59899 0
M  V30 732 C 71.3877 0.505793 1.58212 0
M  V30 733 O 72.5727 0.733202 1.7615 0
M  V30 734 C 69.7127 1.7399 2.98029 0
M  V30 735 C 68.8257 3.01172 3.09708 0
M  V30 736 C 67.9607 2.99686 4.38591 0
M  V30 737 C 66.9997 4.21434 4.43914 0
M  V30 738 N 66.1367 4.1784 5.64229 0
M  V30 739 H 70.9767 2.60459 1.44793 0
M  V30 740 H 68.5137 1.29137 0.704423 0
M  V30 741 H 70.4717 1.76352 3.78095 0
M  V30 742 H 69.1017 0.834301 3.11832 0
M  V30 743 H 68.1537 3.08408 2.22685 0
M  V30 744 H 69.4657 3.91165 3.09502 0
M  V30 745 H 68.6197 3.00628 5.2698 0
M  V30 746 H 67.3587 2.07477 4.41367 0
M  V30 747 H 66.3637 4.20733 3.53926 0
M  V30 748 H 67.5887 5.14839 4.42851 0
M  V30 749 H 65.5347 3.28469 5.67841 0
M  V30 750 H 65.4517 5.01571 5.65652 0
M  V30 751 H 66.7197 4.22889 6.54817 0
M  V30 752 N 70.9488 -0.749086 1.3866 0
M  V30 753 C 71.8808 -1.87273 1.32142 0
M  V30 754 C 72.8938 -1.61127 0.232787 0
M  V30 755 O 74.0828 -1.71623 0.49069 0
M  V30 756 C 71.1828 -3.23005 1.02571 0
M  V30 757 C 70.3558 -3.7662 2.22433 0
M  V30 758 C 69.4148 -4.90879 1.89537 0
M  V30 759 O 68.4408 -5.05276 2.62078 0
M  V30 760 N 69.6428 -5.74198 0.853031 0
M  V30 761 H 72.4078 -1.93373 2.28969 0
M  V30 762 H 69.9688 -0.929216 1.32579 0
M  V30 763 H 71.9608 -3.96992 0.786085 0
M  V30 764 H 70.5308 -3.12262 0.145249 0
M  V30 765 H 69.7508 -2.94147 2.62434 0
M  V30 766 H 71.0388 -4.09173 3.02415 0
M  V30 767 H 70.4368 -5.6514 0.25155 0
M  V30 768 H 68.9938 -6.48313 0.67329 0
M  V30 769 N 72.4269 -1.23603 -0.977757 0
M  V30 770 C 73.6759 -1.06377 -1.71368 0
M  V30 771 C 73.9889 0.399062 -1.91486 0
M  V30 772 O 75.1949 0.691312 -2.62551 0
M  V30 773 C 73.6509 -1.85512 -3.08404 0
M  V30 774 C 73.2589 -3.36141 -2.96164 0
M  V30 775 C 75.0029 -1.76783 -3.85938 0
M  V30 776 C 72.9099 -4.07659 -4.28449 0
M  V30 777 H 71.8399 -0.394452 -0.642591 0
M  V30 778 H 74.4909 -1.47594 -1.09034 0
M  V30 779 H 72.8729 -1.37103 -3.71509 0
M  V30 780 H 74.0469 -3.92056 -2.42133 0
M  V30 781 H 72.3619 -3.45712 -2.32104 0
M  V30 782 H 74.9589 -2.27526 -4.83876 0
M  V30 783 H 75.3019 -0.731116 -4.0983 0
M  V30 784 H 75.8349 -2.22818 -3.2954 0
M  V30 785 H 72.5739 -5.11648 -4.09752 0
M  V30 786 H 72.0939 -3.5653 -4.82334 0
M  V30 787 H 73.7729 -4.141 -4.97122 0
M  V30 788 N 73.905 1.17692 -1.04816 0
M  V30 789 C 74.852 2.21581 -0.645797 0
M  V30 790 C 75.822 1.62367 0.350159 0
M  V30 791 O 77.007 1.89254 0.242433 0
M  V30 792 C 74.147 3.45092 -0.0227568 0
M  V30 793 C 73.26 4.18613 -1.06709 0
M  V30 794 C 72.395 5.29602 -0.411767 0
M  V30 795 C 71.434 5.94904 -1.44067 0
M  V30 796 N 70.571 6.97414 -0.809781 0
M  V30 797 H 75.411 2.55353 -1.5362 0
M  V30 798 H 72.948 1.25438 -0.768364 0
M  V30 799 H 74.906 4.15679 0.35588 0
M  V30 800 H 73.536 3.11917 0.831122 0
M  V30 801 H 72.588 3.46779 -1.5636 0
M  V30 802 H 73.9 4.63293 -1.84827 0
M  V30 803 H 73.054 6.06696 0.0206623 0
M  V30 804 H 71.793 4.86045 0.401438 0
M  V30 805 H 70.798 5.16544 -1.88316 0
M  V30 806 H 72.023 6.40542 -2.25571 0
M  V30 807 H 69.969 6.55998 -0.0170186 0
M  V30 808 H 69.886 7.40386 -1.52856 0
M  V30 809 H 71.154 7.78463 -0.401999 0
M  V30 810 N 75.3831 0.828654 1.34056 0
M  V30 811 C 76.2931 0.256725 2.33191 0
M  V30 812 C 77.3091 -0.611898 1.62886 0
M  V30 813 O 78.4851 -0.51844 1.94613 0
M  V30 814 C 75.5501 -0.567238 3.42028 0
M  V30 815 C 74.6111 0.324458 4.28072 0
M  V30 816 C 73.8441 -0.460274 5.31712 0
M  V30 817 O 74.0671 -1.693 5.44696 0
M  V30 818 O 73.0011 0.160391 6.01686 0
M  V30 819 H 76.8271 1.07739 2.83947 0
M  V30 820 H 74.4121 0.59093 1.37217 0
M  V30 821 H 76.2941 -1.03582 4.08471 0
M  V30 822 H 74.9691 -1.36513 2.93506 0
M  V30 823 H 73.8761 0.840659 3.64532 0
M  V30 824 H 75.2091 1.08685 4.8005 0
M  V30 825 N 76.8612 -1.46375 0.584142 0
M  V30 826 C 78.0912 -2.06461 0.0758195 0
M  V30 827 C 78.4992 -1.43322 -1.23512 0
M  V30 828 O 77.8422 -0.533216 -1.75791 0
M  V30 829 C 77.9042 -3.59131 -0.162773 0
M  V30 830 C 77.5682 -4.4447 1.06279 0
M  V30 831 C 78.5652 -4.80918 1.97519 0
M  V30 832 C 76.2502 -4.85584 1.28504 0
M  V30 833 C 78.2442 -5.57309 3.09331 0
M  V30 834 C 75.9312 -5.61734 2.4062 0
M  V30 835 C 76.9292 -5.9751 3.30863 0
M  V30 836 O 76.6172 -6.72121 4.41032 0
M  V30 837 H 76.3492 -0.673745 0.0551725 0
M  V30 838 H 78.9032 -1.88969 0.804984 0
M  V30 839 H 77.1332 -3.74936 -0.946565 0
M  V30 840 H 78.8222 -4.0114 -0.619782 0
M  V30 841 H 79.5882 -4.49732 1.81565 0
M  V30 842 H 75.4672 -4.57187 0.591702 0
M  V30 843 H 79.0112 -5.85152 3.79793 0
M  V30 844 H 74.9082 -5.92334 2.56537 0
M  V30 845 H 75.6762 -6.90547 4.39417 0
M  V30 846 N 78.3393 -0.321999 -1.54275 0
M  V30 847 C 79.5673 0.283052 -2.04955 0
M  V30 848 C 79.9823 1.45904 -1.19823 0
M  V30 849 O 79.3393 1.81063 -0.228545 0
M  V30 850 C 79.3903 0.719028 -3.54277 0
M  V30 851 O 79.1113 -0.410175 -4.36176 0
M  V30 852 C 80.6123 1.38705 -4.21041 0
M  V30 853 H 77.8323 0.0584616 -0.668448 0
M  V30 854 H 80.3763 -0.467734 -1.99079 0
M  V30 855 H 78.5313 1.41979 -3.60445 0
M  V30 856 H 78.9453 -0.0669416 -5.24457 0
M  V30 857 H 80.4193 1.64306 -5.2698 0
M  V30 858 H 80.8963 2.33385 -3.72059 0
M  V30 859 H 81.5023 0.728906 -4.19007 0
M  V30 860 N 79.8174 1.5752 -0.0501392 0
M  V30 861 C 81.0634 1.93755 0.618901 0
M  V30 862 C 81.4184 0.928514 1.68512 0
M  V30 863 O 80.7114 -0.0524613 1.91528 0
M  V30 864 C 80.9054 3.34467 1.25963 0
M  V30 865 C 80.7344 4.48965 0.257 0
M  V30 866 C 79.5044 5.05075 -0.150656 0
M  V30 867 C 81.7024 5.11891 -0.497166 0
M  V30 868 N 79.6844 6.03104 -1.14626 0
M  V30 869 C 81.0554 6.05216 -1.34588 0
M  V30 870 C 83.1104 4.9479 -0.55559 0
M  V30 871 C 81.8134 6.83277 -2.24778 0
M  V30 872 C 83.8394 5.73477 -1.44492 0
M  V30 873 C 83.2014 6.66433 -2.28136 0
M  V30 874 H 79.3004 0.756479 0.198149 0
M  V30 875 H 81.8844 1.94316 -0.122229 0
M  V30 876 H 80.0554 3.34685 1.97079 0
M  V30 877 H 81.7874 3.57994 1.88739 0
M  V30 878 H 78.5424 4.7305 0.228094 0
M  V30 879 H 78.9664 6.56813 -1.64092 0
M  V30 880 H 83.6084 4.2273 0.0768625 0
M  V30 881 H 81.3264 7.54629 -2.89069 0
M  V30 882 H 84.9124 5.62273 -1.49468 0
M  V30 883 H 83.7924 7.26258 -2.95835 0
M  V30 884 N 81.2955 -0.223234 1.56011 0
M  V30 885 C 82.2055 -1.29766 1.95443 0
M  V30 886 C 83.2215 -1.51373 0.858028 0
M  V30 887 O 84.3975 -1.64536 1.16146 0
M  V30 888 C 81.4625 -2.62772 2.26167 0
M  V30 889 C 80.5235 -2.49482 3.49367 0
M  V30 890 C 79.7565 -3.76145 3.78616 0
M  V30 891 O 79.9795 -4.79087 3.09568 0
M  V30 892 O 78.9135 -3.73358 4.72109 0
M  V30 893 H 82.7395 -0.99309 2.87004 0
M  V30 894 H 80.3245 -0.425958 1.43199 0
M  V30 895 H 82.2065 -3.41327 2.47131 0
M  V30 896 H 80.8815 -2.92913 1.37781 0
M  V30 897 H 79.7885 -1.69133 3.33684 0
M  V30 898 H 81.1215 -2.2428 4.38131 0
M  V30 899 N 82.7736 -1.49793 -0.48987 0
M  V30 900 C 83.7036 -1.70201 -1.59856 0
M  V30 901 C 84.6846 -0.55076 -1.60937 0
M  V30 902 O 85.8696 -0.787841 -1.77501 0
M  V30 903 C 82.9996 -1.77882 -2.98287 0
M  V30 904 C 81.9536 -2.92907 -3.12073 0
M  V30 905 C 81.2796 -2.85712 -4.51965 0
M  V30 906 C 82.5796 -4.3369 -2.91051 0
M  V30 907 H 84.2736 -2.63025 -1.43032 0
M  V30 908 H 81.8196 -1.26574 -0.686664 0
M  V30 909 H 83.7726 -1.90744 -3.75759 0
M  V30 910 H 82.4966 -0.816653 -3.16225 0
M  V30 911 H 81.1556 -2.79665 -2.37029 0
M  V30 912 H 80.8036 -1.8738 -4.66795 0
M  V30 913 H 80.5036 -3.62921 -4.62128 0
M  V30 914 H 82.0276 -3.00598 -5.31482 0
M  V30 915 H 83.4416 -4.47555 -3.58284 0
M  V30 916 H 81.8386 -5.12205 -3.12675 0
M  V30 917 H 82.9086 -4.47362 -1.87071 0
M  V30 918 N 84.2517 0.741722 -1.39055 0
M  V30 919 C 85.4977 1.50336 -1.36113 0
M  V30 920 C 85.8307 1.94148 0.0450796 0
M  V30 921 O 85.1057 1.66301 1.00868 0
M  V30 922 C 85.3887 2.74773 -2.32749 0
M  V30 923 C 85.2417 2.37023 -3.82283 0
M  V30 924 C 86.5607 3.76846 -2.27322 0
M  V30 925 H 83.6797 0.545351 -0.495743 0
M  V30 926 H 86.3217 0.848624 -1.69995 0
M  V30 927 H 84.4717 3.30639 -2.03986 0
M  V30 928 H 86.1437 1.8684 -4.21768 0
M  V30 929 H 84.3867 1.69334 -3.99385 0
M  V30 930 H 85.0577 3.26104 -4.45376 0
M  V30 931 H 87.5337 3.30548 -2.5274 0
M  V30 932 H 86.4097 4.6159 -2.97028 0
M  V30 933 H 86.6707 4.23286 -1.27599 0
M  V30 934 N 85.7298 1.2412 0.971189 0
M  V30 935 C 86.6778 1.02812 2.08644 0
M  V30 936 C 87.6718 -0.0358403 1.69362 0
M  V30 937 O 88.8778 0.118429 1.7961 0
M  V30 938 H 85.2528 0.315428 0.682649 0
M  V30 939 H 87.2238 1.97397 2.23779 0
M  V30 940 C 85.9728 0.645874 3.41649 0
M  V30 941 H 85.2958 1.45632 3.72332 0
M  V30 942 H 86.7358 0.536366 4.20594 0
M  V30 943 C 85.1948 -0.646713 3.30635 0
M  V30 944 O 85.7248 -1.69338 3.64263 0
M  V30 945 N 83.9308 -0.626115 2.83775 0
M  V30 946 H 83.4778 0.225988 2.56607 0
M  V30 947 H 83.4358 -1.49117 2.76788 0
M  V30 948 N 87.2079 -1.17134 1.05439 0
M  V30 949 C 88.4549 -1.87456 0.765942 0
M  V30 950 C 88.7829 -1.81189 -0.707153 0
M  V30 951 O 88.0379 -1.21633 -1.5331 0
M  V30 952 C 88.3369 -3.36833 1.19491 0
M  V30 953 C 88.0029 -3.63301 2.67063 0
M  V30 954 C 86.6649 -3.70234 3.07376 0
M  V30 955 C 89.0169 -3.74575 3.62413 0
M  V30 956 C 86.3449 -3.85933 4.41896 0
M  V30 957 C 88.6969 -3.91793 4.9667 0
M  V30 958 C 87.3609 -3.96966 5.36633 0
M  V30 959 H 86.6309 -0.685948 0.280278 0
M  V30 960 H 89.2779 -1.38556 1.32192 0
M  V30 961 H 87.5829 -3.87807 0.557969 0
M  V30 962 H 89.2799 -3.89611 0.948893 0
M  V30 963 H 85.8699 -3.58532 2.34846 0
M  V30 964 H 90.0539 -3.68537 3.32406 0
M  V30 965 H 85.3099 -3.88187 4.72357 0
M  V30 966 H 89.4839 -3.99458 5.70444 0
M  V30 967 H 87.1109 -4.08883 6.40874 0
M  V30 968 N 88.686 -0.835752 -1.33615 0
M  V30 969 C 89.616 -0.281739 -2.31794 0
M  V30 970 C 90.597 0.608833 -1.58831 0
M  V30 971 O 91.782 0.533035 -1.86741 0
M  V30 972 C 88.912 0.546612 -3.42971 0
M  V30 973 C 87.866 -0.247904 -4.27281 0
M  V30 974 C 87.192 0.704001 -5.30045 0
M  V30 975 C 88.492 -1.46324 -5.01385 0
M  V30 976 H 90.186 -1.10206 -2.78379 0
M  V30 977 H 87.732 -0.531388 -1.33837 0
M  V30 978 H 89.685 0.944467 -4.1068 0
M  V30 979 H 88.409 1.40011 -2.95067 0
M  V30 980 H 87.068 -0.627281 -3.61194 0
M  V30 981 H 86.716 1.55381 -4.78399 0
M  V30 982 H 86.416 0.176524 -5.87335 0
M  V30 983 H 87.94 1.09944 -6.0062 0
M  V30 984 H 89.354 -1.13871 -5.61877 0
M  V30 985 H 87.751 -1.92728 -5.6831 0
M  V30 986 H 88.821 -2.23467 -4.30338 0
M  V30 987 N 90.1641 1.46063 -0.591896 0
M  V30 988 C 91.0941 2.33172 0.123673 0
M  V30 989 C 92.0751 1.45897 0.87453 0
M  V30 990 O 93.2601 1.74698 0.848181 0
M  V30 991 C 90.3901 3.28336 1.13194 0
M  V30 992 C 89.3441 4.25124 0.495324 0
M  V30 993 C 88.6701 5.09863 1.61071 0
M  V30 994 C 89.9701 5.19143 -0.573425 0
M  V30 995 H 91.6641 2.93252 -0.603646 0
M  V30 996 H 89.2101 1.41014 -0.291741 0
M  V30 997 H 91.1631 3.88137 1.64097 0
M  V30 998 H 89.8871 2.66383 1.88965 0
M  V30 999 H 88.5461 3.66599 0.00729452 0
M  V30 1000 H 88.1941 4.44288 2.35832 0
M  V30 1001 H 87.8941 5.75417 1.19035 0
M  V30 1002 H 89.4181 5.72529 2.12233 0
M  V30 1003 H 90.8321 5.73106 -0.1491 0
M  V30 1004 H 89.2291 5.93089 -0.914636 0
M  V30 1005 H 90.2991 4.62519 -1.45617 0
M  V30 1006 N 91.6422 0.330177 1.54103 0
M  V30 1007 C 92.8702 -0.272179 2.05102 0
M  V30 1008 C 93.2852 -1.45267 1.20595 0
M  V30 1009 O 92.6422 -1.8094 0.238144 0
M  V30 1010 C 92.6932 -0.70023 3.54653 0
M  V30 1011 O 92.4142 0.433301 4.35952 0
M  V30 1012 C 93.9152 -1.3647 4.21771 0
M  V30 1013 H 91.1352 -0.0549159 0.668749 0
M  V30 1014 H 93.6792 0.478285 1.98828 0
M  V30 1015 H 91.8342 -1.40066 3.61193 0
M  V30 1016 H 92.2482 0.0947539 5.24414 0
M  V30 1017 H 93.7222 -1.61509 5.27843 0
M  V30 1018 H 94.1992 -2.31409 3.73292 0
M  V30 1019 H 94.8052 -0.706675 4.19388 0
M  V30 1020 N 93.1203 -1.57491 0.0584922 0
M  V30 1021 C 94.0523 -2.08916 -0.942694 0
M  V30 1022 C 95.0653 -1.0185 -1.27006 0
M  V30 1023 O 96.2543 -1.29398 -1.22957 0
M  V30 1024 C 93.3543 -2.52341 -2.26224 0
M  V30 1025 C 92.5273 -3.82827 -2.1157 0
M  V30 1026 C 91.5863 -4.12487 -3.26712 0
M  V30 1027 O 90.6123 -4.82295 -3.02292 0
M  V30 1028 N 91.8143 -3.64978 -4.5141 0
M  V30 1029 H 94.5793 -2.95437 -0.503722 0
M  V30 1030 H 92.1403 -1.61397 -0.12757 0
M  V30 1031 H 94.1323 -2.69254 -3.02133 0
M  V30 1032 H 92.7023 -1.7103 -2.61663 0
M  V30 1033 H 91.9223 -3.75425 -1.20208 0
M  V30 1034 H 93.2103 -4.68263 -1.99015 0
M  V30 1035 H 92.6083 -3.08558 -4.7414 0
M  V30 1036 H 91.1653 -3.87115 -5.2439 0
M  V30 1037 N 94.5984 0.214957 -1.56127 0
M  V30 1038 C 95.5464 1.28601 -1.93816 0
M  V30 1039 C 96.5404 1.48175 -0.821016 0
M  V30 1040 O 97.7464 1.49271 -1.0059 0
M  V30 1041 H 94.1214 0.431302 -0.616022 0
M  V30 1042 H 96.0924 0.940991 -2.83175 0
M  V30 1043 C 94.8414 2.62779 -2.27689 0
M  V30 1044 H 94.1644 2.48527 -3.13168 0
M  V30 1045 H 95.6044 3.36517 -2.57939 0
M  V30 1046 C 94.0634 3.18285 -1.10436 0
M  V30 1047 O 94.5934 4.00002 -0.368945 0
M  V30 1048 N 92.7994 2.7675 -0.886433 0
M  V30 1049 H 92.3464 2.10404 -1.48619 0
M  V30 1050 H 92.3044 3.14229 -0.103656 0
M  V30 1051 N 96.0765 1.50051 0.48192 0
M  V30 1052 C 97.3225 1.60736 1.2366 0
M  V30 1053 C 97.6555 0.301786 1.91841 0
M  V30 1054 O 96.9305 -0.696025 1.8162 0
M  V30 1055 C 97.2135 2.78009 2.28874 0
M  V30 1056 C 97.0665 4.18416 1.65069 0
M  V30 1057 C 98.3855 2.90867 3.30279 0
M  V30 1058 H 95.5045 0.585031 0.448228 0
M  V30 1059 H 98.1465 1.82402 0.531946 0
M  V30 1060 H 96.2965 2.59667 2.88973 0
M  V30 1061 H 97.9685 4.48322 1.0865 0
M  V30 1062 H 96.2115 4.23177 0.954148 0
M  V30 1063 H 96.8825 4.96381 2.41474 0
M  V30 1064 H 99.3585 3.07623 2.80191 0
M  V30 1065 H 98.2345 3.74566 4.01238 0
M  V30 1066 H 98.4955 2.01021 3.93755 0
M  V30 1067 N 97.5546 -0.734337 1.39446 0
M  V30 1068 C 98.5016 -1.84835 1.38219 0
M  V30 1069 C 99.4716 -1.64331 0.24179 0
M  V30 1070 O 100.657 -1.85728 0.437002 0
M  V30 1071 C 97.7966 -3.22355 1.23212 0
M  V30 1072 C 96.9096 -3.5456 2.46801 0
M  V30 1073 C 96.0446 -4.81485 2.24377 0
M  V30 1074 C 95.0836 -5.06536 3.43639 0
M  V30 1075 N 94.2206 -6.24665 3.20528 0
M  V30 1076 H 99.0606 -1.85219 2.33448 0
M  V30 1077 H 96.5976 -0.905039 1.15963 0
M  V30 1078 H 98.5556 -4.0174 1.12522 0
M  V30 1079 H 97.1856 -3.21248 0.316121 0
M  V30 1080 H 96.2376 -2.69872 2.68092 0
M  V30 1081 H 97.5496 -3.6899 3.3563 0
M  V30 1082 H 96.7036 -5.68852 2.10933 0
M  V30 1083 H 95.4426 -4.6923 1.32944 0
M  V30 1084 H 94.4476 -4.17632 3.5758 0
M  V30 1085 H 95.6726 -5.20676 4.35974 0
M  V30 1086 H 93.6186 -6.13696 2.3176 0
M  V30 1087 H 93.5356 -6.39685 4.02913 0
M  V30 1088 H 94.8036 -7.14868 3.10779 0
M  V30 1089 N 99.0327 -1.24633 -0.964593 0
M  V30 1090 C 99.9657 -0.984662 -2.05863 0
M  V30 1091 C 100.944 0.0826554 -1.6239 0
M  V30 1092 O 102.128 -0.0549296 -1.8842 0
M  V30 1093 C 99.2547 -0.486529 -3.35187 0
M  V30 1094 C 98.3007 -1.54286 -3.97615 0
M  V30 1095 S 99.1337 -3.12513 -4.34851 0
M  V30 1096 C 100.29 -2.6441 -5.67308 0
M  V30 1097 H 100.523 -1.91104 -2.27743 0
M  V30 1098 H 98.0557 -1.08052 -1.10291 0
M  V30 1099 H 100.014 -0.205757 -4.09984 0
M  V30 1100 H 98.6747 0.419186 -3.1129 0
M  V30 1101 H 97.8677 -1.14481 -4.90826 0
M  V30 1102 H 97.4697 -1.7738 -3.2926 0
M  V30 1103 H 99.7617 -2.07416 -6.44969 0
M  V30 1104 H 100.705 -3.56222 -6.11973 0
M  V30 1105 H 101.113 -2.04734 -5.26065 0
M  V30 1106 N 100.511 1.16574 -1.06058 0
M  V30 1107 C 101.76 1.86385 -0.770944 0
M  V30 1108 C 102.073 1.82448 0.705129 0
M  V30 1109 O 103.279 2.47815 1.10905 0
M  V30 1110 C 101.735 3.34466 -1.32893 0
M  V30 1111 C 101.343 3.46883 -2.83507 0
M  V30 1112 C 103.087 4.09548 -1.11672 0
M  V30 1113 C 100.994 4.89036 -3.32562 0
M  V30 1114 H 99.9238 0.698181 -0.284709 0
M  V30 1115 H 102.575 1.31583 -1.27899 0
M  V30 1116 H 100.957 3.88859 -0.748662 0
M  V30 1117 H 102.131 3.02663 -3.47465 0
M  V30 1118 H 100.446 2.85232 -3.03368 0
M  V30 1119 H 103.043 5.14434 -1.45814 0
M  V30 1120 H 103.386 4.16264 -0.0549535 0
M  V30 1121 H 103.919 3.61387 -1.66265 0
M  V30 1122 H 100.658 4.87499 -4.38207 0
M  V30 1123 H 100.178 5.3389 -2.73351 0
M  V30 1124 H 101.857 5.57843 -3.2775 0
M  V30 1125 N 101.989 0.842826 1.3317 0
M  V30 1126 C 103.235 0.441099 1.97945 0
M  V30 1127 C 103.568 -0.998024 1.66593 0
M  V30 1128 O 102.843 -1.69839 0.947898 0
M  V30 1129 C 103.126 0.666841 3.53872 0
M  V30 1130 C 102.979 2.15352 3.94897 0
M  V30 1131 C 104.298 0.115544 4.39948 0
M  V30 1132 H 101.417 0.161739 0.719034 0
M  V30 1133 H 104.059 1.05907 1.57746 0
M  V30 1134 H 102.209 0.140828 3.88245 0
M  V30 1135 H 103.881 2.7447 3.70761 0
M  V30 1136 H 102.124 2.63653 3.44484 0
M  V30 1137 H 102.795 2.26221 5.03516 0
M  V30 1138 H 105.271 0.565213 4.12243 0
M  V30 1139 H 104.147 0.303152 5.48062 0
M  V30 1140 H 104.408 -0.980935 4.3108 0
M  V30 1141 N 103.467 -1.45747 0.599634 0
M  V30 1142 C 104.714 -2.02292 0.0917284 0
M  V30 1143 C 105.042 -1.46906 -1.27472 0
M  V30 1144 O 104.297 -0.630652 -1.8526 0
M  V30 1145 C 104.596 -3.57399 -0.00602758 0
M  V30 1146 C 104.262 -4.31902 1.29503 0
M  V30 1147 C 102.924 -4.51974 1.65144 0
M  V30 1148 C 105.276 -4.74551 2.15525 0
M  V30 1149 C 102.604 -5.11949 2.86574 0
M  V30 1150 C 104.956 -5.35868 3.36196 0
M  V30 1151 C 103.62 -5.54165 3.72099 0
M  V30 1152 H 102.89 -0.740239 0.0335658 0
M  V30 1153 H 105.537 -1.7491 0.779661 0
M  V30 1154 H 103.842 -3.84014 -0.777183 0
M  V30 1155 H 105.539 -3.98846 -0.415038 0
M  V30 1156 H 102.129 -4.16588 1.00761 0
M  V30 1157 H 106.313 -4.58784 1.8929 0
M  V30 1158 H 101.569 -5.24305 3.14507 0
M  V30 1159 H 105.743 -5.6787 4.03109 0
M  V30 1160 H 103.37 -6.00406 4.6628 0
M  V30 1161 N 104.945 -0.338344 -1.53925 0
M  V30 1162 C 105.908 0.508299 -2.23493 0
M  V30 1163 C 106.908 1.03175 -1.23335 0
M  V30 1164 O 108.098 0.921826 -1.47811 0
M  V30 1165 C 105.23 1.70754 -2.95052 0
M  V30 1166 H 106.423 -0.100058 -2.99733 0
M  V30 1167 H 103.976 -0.0896198 -1.56043 0
M  V30 1168 H 104.711 2.35474 -2.22986 0
M  V30 1169 H 104.496 1.33946 -3.68512 0
M  V30 1170 H 105.986 2.30818 -3.48013 0
M  V30 1171 N 106.423 1.57458 -0.0668435 0
M  V30 1172 C 107.663 1.95175 0.607116 0
M  V30 1173 C 108.027 0.946039 1.67075 0
M  V30 1174 O 109.228 1.2107 2.39991 0
M  V30 1175 C 107.499 3.37582 1.17358 0
M  V30 1176 S 109.058 3.97271 1.86336 0
M  V30 1177 H 105.876 0.682604 0.19893 0
M  V30 1178 H 108.478 1.95002 -0.139519 0
M  V30 1179 H 107.182 4.08566 0.387553 0
M  V30 1180 H 106.713 3.41288 1.95669 0
M  V30 1181 H 108.728 3.83772 3.14537 0
M  V30 1182 N 107.901 -0.206675 1.56239 0
M  V30 1183 C 108.849 -1.27571 1.94495 0
M  V30 1184 C 109.843 -1.47737 0.828862 0
M  V30 1185 O 111.049 -1.48735 1.0138 0
M  V30 1186 H 107.424 -0.428029 0.6183 0
M  V30 1187 H 109.395 -0.925961 2.8367 0
M  V30 1188 C 108.144 -2.61568 2.29079 0
M  V30 1189 H 107.467 -2.46863 3.14482 0
M  V30 1190 H 108.907 -3.35144 2.5972 0
M  V30 1191 C 107.366 -3.17695 1.12123 0
M  V30 1192 O 107.896 -3.99801 0.390153 0
M  V30 1193 N 106.102 -2.76276 0.901097 0
M  V30 1194 H 105.649 -2.09613 1.49733 0
M  V30 1195 H 105.607 -3.1417 0.120319 0
M  V30 1196 N 109.379 -1.50304 -0.473955 0
M  V30 1197 C 110.607 -1.64902 -1.24959 0
M  V30 1198 C 111.022 -0.331198 -1.85872 0
M  V30 1199 O 110.379 0.68652 -1.69095 0
M  V30 1200 C 110.43 -2.73803 -2.36038 0
M  V30 1201 O 110.151 -4.00477 -1.77624 0
M  V30 1202 C 111.652 -2.99349 -3.26964 0
M  V30 1203 H 108.872 -0.554383 -0.378022 0
M  V30 1204 H 111.416 -1.9651 -0.566054 0
M  V30 1205 H 109.571 -2.44898 -3.00173 0
M  V30 1206 H 109.985 -4.60678 -2.5075 0
M  V30 1207 H 111.459 -3.79217 -4.01121 0
M  V30 1208 H 111.936 -2.10307 -3.85574 0
M  V30 1209 H 112.542 -3.29774 -2.68569 0
M  V30 1210 N 110.857 0.726932 -1.39834 0
M  V30 1211 C 111.82 1.82269 -1.38962 0
M  V30 1212 C 112.82 1.58248 -0.285334 0
M  V30 1213 O 114.01 1.65499 -0.54366 0
M  V30 1214 C 111.142 3.20186 -1.17019 0
M  V30 1215 H 112.335 1.84443 -2.36476 0
M  V30 1216 H 109.888 0.931416 -1.25516 0
M  V30 1217 H 110.623 3.23669 -0.202204 0
M  V30 1218 H 110.408 3.3902 -1.96998 0
M  V30 1219 H 111.898 4.00235 -1.1917 0
M  V30 1220 N 112.336 1.25143 0.95797 0
M  V30 1221 C 113.564 1.12424 1.73691 0
M  V30 1222 C 113.979 -0.322304 1.86029 0
M  V30 1223 O 113.336 -1.22186 1.35561 0
M  V30 1224 C 113.387 1.76933 3.15241 0
M  V30 1225 O 113.108 3.15932 3.03511 0
M  V30 1226 C 114.609 1.6995 4.09429 0
M  V30 1227 H 111.829 0.3923 0.544373 0
M  V30 1228 H 114.373 1.6544 1.20207 0
M  V30 1229 H 112.528 1.27895 3.6568 0
M  V30 1230 H 112.942 3.47598 3.9278 0
M  V30 1231 H 114.416 2.19753 5.06372 0
M  V30 1232 H 114.893 0.662619 4.34173 0
M  V30 1233 H 115.499 2.18461 3.64904 0
M  V30 1234 N 113.814 -1.1601 1.06675 0
M  V30 1235 C 114.777 -2.18724 0.685001 0
M  V30 1236 C 115.777 -1.58496 -0.271246 0
M  V30 1237 O 116.967 -1.74119 -0.0531156 0
M  V30 1238 C 114.099 -3.40899 0.00853648 0
M  V30 1239 H 115.292 -2.54011 1.59431 0
M  V30 1240 H 112.845 -1.30352 0.862441 0
M  V30 1241 H 113.58 -3.11173 -0.913337 0
M  V30 1242 H 113.365 -3.8587 0.696204 0
M  V30 1243 H 114.855 -4.16886 -0.24414 0
M  V30 1244 N 115.292 -0.849877 -1.32721 0
M  V30 1245 C 116.538 -0.451591 -1.97708 0
M  V30 1246 C 116.871 0.989175 -1.6712 0
M  V30 1247 O 116.146 1.69334 -0.956891 0
M  V30 1248 C 116.429 -0.685598 -3.53513 0
M  V30 1249 C 116.282 -2.17444 -3.93749 0
M  V30 1250 C 117.601 -0.138874 -4.39881 0
M  V30 1251 H 114.72 -0.16555 -0.718166 0
M  V30 1252 H 117.362 -1.06742 -1.57182 0
M  V30 1253 H 115.512 -0.161416 -3.88165 0
M  V30 1254 H 117.184 -2.76433 -3.693 0
M  V30 1255 H 115.427 -2.65476 -3.43081 0
M  V30 1256 H 116.098 -2.28888 -5.02309 0
M  V30 1257 H 118.574 -0.587068 -4.11938 0
M  V30 1258 H 117.45 -0.332213 -5.47894 0
M  V30 1259 H 117.711 0.95806 -4.31594 0
M  V30 1260 N 116.77 1.45427 -0.607355 0
M  V30 1261 C 117.733 2.28974 0.101693 0
M  V30 1262 C 118.733 1.39754 0.795329 0
M  V30 1263 O 119.923 1.61878 0.643527 0
M  V30 1264 C 117.055 3.20768 1.15414 0
M  V30 1265 H 118.248 2.93147 -0.632844 0
M  V30 1266 H 115.801 1.51945 -0.366391 0
M  V30 1267 H 116.536 2.61395 1.91945 0
M  V30 1268 H 116.321 3.86489 0.66098 0
M  V30 1269 H 117.811 3.83589 1.65073 0
M  V30 1270 N 118.248 0.346503 1.53744 0
M  V30 1271 C 119.494 -0.242135 2.01954 0
M  V30 1272 C 119.849 -1.47962 1.22984 0
M  V30 1273 O 119.142 -1.89077 0.309924 0
M  V30 1274 C 119.336 -0.605809 3.52228 0
M  V30 1275 C 119.165 0.594882 4.45748 0
M  V30 1276 C 117.935 1.1011 4.93157 0
M  V30 1277 C 120.133 1.45425 4.93311 0
M  V30 1278 N 118.115 2.26381 5.70636 0
M  V30 1279 C 119.486 2.46383 5.68942 0
M  V30 1280 C 121.541 1.47935 4.75415 0
M  V30 1281 C 120.244 3.49684 6.28581 0
M  V30 1282 C 122.27 2.50119 5.35905 0
M  V30 1283 C 121.632 3.49803 6.11406 0
M  V30 1284 H 117.731 -0.0518296 0.780281 0
M  V30 1285 H 120.315 0.486736 1.88518 0
M  V30 1286 H 118.486 -1.30378 3.65864 0
M  V30 1287 H 120.218 -1.17789 3.87179 0
M  V30 1288 H 116.973 0.668721 4.68855 0
M  V30 1289 H 117.397 2.85094 6.14044 0
M  V30 1290 H 122.039 0.722274 4.16585 0
M  V30 1291 H 119.757 4.26285 6.86518 0
M  V30 1292 H 123.343 2.52892 5.23963 0
M  V30 1293 H 122.223 4.27576 6.5738 0
M  V30 1294 N 119.726 -1.57421 0.075193 0
M  V30 1295 C 120.636 -2.1642 -0.905511 0
M  V30 1296 C 121.652 -1.12828 -1.32461 0
M  V30 1297 O 122.828 -1.45109 -1.39661 0
M  V30 1298 C 119.893 -2.71693 -2.15369 0
M  V30 1299 C 118.954 -3.90171 -1.79068 0
M  V30 1300 C 118.187 -4.42798 -2.97936 0
M  V30 1301 O 118.41 -3.94416 -4.12058 0
M  V30 1302 O 117.344 -5.34085 -2.77555 0
M  V30 1303 H 121.17 -3.00588 -0.433626 0
M  V30 1304 H 118.755 -1.48664 -0.148067 0
M  V30 1305 H 120.637 -3.07104 -2.88557 0
M  V30 1306 H 119.312 -1.90582 -2.61649 0
M  V30 1307 H 118.219 -3.59606 -1.03122 0
M  V30 1308 H 119.552 -4.72584 -1.37569 0
M  V30 1309 N 121.204 0.198386 -1.56346 0
M  V30 1310 C 122.114 1.2664 -1.97483 0
M  V30 1311 C 123.13 1.49989 -0.882002 0
M  V30 1312 O 124.306 1.62668 -1.18748 0
M  V30 1313 C 121.371 2.59141 -2.30319 0
M  V30 1314 C 120.432 2.43892 -3.53292 0
M  V30 1315 C 119.665 3.70074 -3.84553 0
M  V30 1316 O 119.888 4.74101 -3.1715 0
M  V30 1317 O 118.822 3.658 -4.7799 0
M  V30 1318 H 122.648 0.947304 -2.88548 0
M  V30 1319 H 120.233 0.403123 -1.43859 0
M  V30 1320 H 122.115 3.37352 -2.5253 0
M  V30 1321 H 120.79 2.90684 -1.42423 0
M  V30 1322 H 119.697 1.63803 -3.36332 0
M  V30 1323 H 121.03 2.17282 -4.41644 0
M  V30 1324 N 122.682 1.50554 0.465978 0
M  V30 1325 C 123.928 1.62038 1.21949 0
M  V30 1326 C 124.261 0.322116 1.9151 0
M  V30 1327 O 123.536 -0.676723 1.82348 0
M  V30 1328 C 123.819 2.80421 2.25912 0
M  V30 1329 C 123.672 4.20144 1.60622 0
M  V30 1330 C 124.991 2.94354 3.27176 0
M  V30 1331 H 122.11 0.589752 0.441998 0
M  V30 1332 H 124.752 1.82956 0.51257 0
M  V30 1333 H 122.902 2.62717 2.86203 0
M  V30 1334 H 124.574 4.49449 1.03889 0
M  V30 1335 H 122.817 4.24165 0.909211 0
M  V30 1336 H 123.488 4.98914 2.36196 0
M  V30 1337 H 125.964 3.10578 2.76913 0
M  V30 1338 H 124.84 3.788 3.97242 0
M  V30 1339 H 125.101 2.05186 3.916 0
M  V30 1340 N 124.16 -0.719506 1.40217 0
M  V30 1341 C 125.107 -1.83359 1.40172 0
M  V30 1342 C 126.077 -1.64065 0.259206 0
M  V30 1343 O 127.262 -1.85254 0.456677 0
M  V30 1344 C 124.402 -3.2103 1.26624 0
M  V30 1345 C 123.515 -3.51923 2.50548 0
M  V30 1346 C 122.65 -4.79079 2.29471 0
M  V30 1347 C 121.689 -5.02863 3.48992 0
M  V30 1348 N 120.826 -6.2123 3.27135 0
M  V30 1349 H 125.666 -1.82733 2.35399 0
M  V30 1350 H 123.203 -0.892688 1.16917 0
M  V30 1351 H 125.161 -4.00524 1.16776 0
M  V30 1352 H 123.791 -3.20895 0.350176 0
M  V30 1353 H 122.843 -2.67014 2.70939 0
M  V30 1354 H 124.155 -3.6541 3.39525 0
M  V30 1355 H 123.309 -5.66582 2.16955 0
M  V30 1356 H 122.048 -4.67794 1.37913 0
M  V30 1357 H 121.053 -4.13816 3.6199 0
M  V30 1358 H 122.278 -5.16023 4.41472 0
M  V30 1359 H 120.224 -6.11204 2.38256 0
M  V30 1360 H 120.141 -6.35375 4.09675 0
M  V30 1361 H 121.409 -7.11532 3.18344 0
M  V30 1362 N 125.638 -1.25649 -0.95132 0
M  V30 1363 C 126.601 -1.06399 -2.03007 0
M  V30 1364 C 127.601 -0.0156794 -1.60792 0
M  V30 1365 O 128.791 -0.25817 -1.72276 0
M  V30 1366 C 125.923 -0.616184 -3.35285 0
M  V30 1367 H 127.116 -2.02164 -2.21517 0
M  V30 1368 H 124.669 -1.08103 -1.12887 0
M  V30 1369 H 125.404 0.343917 -3.22471 0
M  V30 1370 H 125.189 -1.37301 -3.67275 0
M  V30 1371 H 126.679 -0.503032 -4.14559 0
M  V30 1372 N 127.117 1.15442 -1.07289 0
M  V30 1373 C 128.08 2.18358 -0.696591 0
M  V30 1374 C 129.08 1.58637 0.262837 0
M  V30 1375 O 130.27 1.74145 0.0438809 0
M  V30 1376 C 127.402 3.4089 -0.0266151 0
M  V30 1377 H 128.595 2.53162 -1.60776 0
M  V30 1378 H 126.148 1.29893 -0.869342 0
M  V30 1379 H 126.883 3.11653 0.896822 0
M  V30 1380 H 126.668 3.85495 -0.716657 0
M  V30 1381 H 128.158 4.17009 0.222028 0
M  V30 1382 N 128.595 0.856903 1.32268 0
M  V30 1383 C 129.525 0.31858 2.31316 0
M  V30 1384 C 130.506 -0.583487 1.59779 0
M  V30 1385 O 131.691 -0.503259 1.87566 0
M  V30 1386 C 128.821 -0.491979 3.43798 0
M  V30 1387 C 127.775 0.315849 4.26833 0
M  V30 1388 C 127.101 -0.619586 5.31098 0
M  V30 1389 C 128.401 1.54282 4.98993 0
M  V30 1390 H 130.095 1.14621 2.76591 0
M  V30 1391 H 127.641 0.552613 1.32974 0
M  V30 1392 H 129.594 -0.879012 4.1213 0
M  V30 1393 H 128.318 -1.35299 2.97257 0
M  V30 1394 H 126.977 0.684664 3.6015 0
M  V30 1395 H 126.625 -1.47751 4.8081 0
M  V30 1396 H 126.325 -0.0830621 5.87541 0
M  V30 1397 H 127.849 -1.00375 6.02293 0
M  V30 1398 H 129.263 1.22796 5.59995 0
M  V30 1399 H 127.66 2.01745 5.65172 0
M  V30 1400 H 128.73 2.30285 4.26728 0
M  V30 1401 N 130.073 -1.45103 0.615059 0
M  V30 1402 C 131.35 -1.95549 0.0448276 0
M  V30 1403 C 131.73 -1.55737 -1.4251 0
M  V30 1404 O 131.078 -0.823556 -2.13143 0
M  V30 1405 C 131.288 -3.48098 0.250785 0
M  V30 1406 C 132.636 -4.24384 0.135509 0
M  V30 1407 O 133.66 -3.55738 0.181299 0
M  V30 1408 O 132.519 -5.46493 0.0268878 0
M  V30 1409 H 129.613 -0.8264 -0.0314845 0
M  V30 1410 H 132.159 -1.55232 0.685642 0
M  V30 1411 H 130.931 -3.7007 1.27139 0
M  V30 1412 H 130.554 -3.95323 -0.424937 0
M  V30 1413 N 131.551 -0.354651 -1.53558 0
M  V30 1414 C 132.8 0.239504 -2.00273 0
M  V30 1415 C 133.113 1.50759 -1.24623 0
M  V30 1416 O 134.319 2.17968 -1.61871 0
M  V30 1417 C 132.775 0.477341 -3.5672 0
M  V30 1418 C 132.383 -0.775488 -4.41237 0
M  V30 1419 C 134.127 1.02975 -4.11821 0
M  V30 1420 C 132.034 -0.507838 -5.89216 0
M  V30 1421 H 130.964 0.0932743 -0.748208 0
M  V30 1422 H 133.615 -0.471701 -1.77334 0
M  V30 1423 H 131.997 1.24953 -3.7577 0
M  V30 1424 H 133.171 -1.54963 -4.33962 0
M  V30 1425 H 131.486 -1.25033 -3.97185 0
M  V30 1426 H 134.083 1.24513 -5.2 0
M  V30 1427 H 134.426 1.98862 -3.65731 0
M  V30 1428 H 134.959 0.317994 -3.96527 0
M  V30 1429 H 131.698 -1.43674 -6.39561 0
M  V30 1430 H 131.218 0.228011 -5.99366 0
M  V30 1431 H 132.897 -0.129238 -6.46871 0
M  V30 1432 N 133.029 1.57378 -0.0835403 0
M  V30 1433 C 134.44 1.81261 0.447358 0
M  V30 1434 C 134.791 0.998331 1.68902 0
M  V30 1435 O 133.916 0.224282 2.15235 0
M  V30 1436 C 134.511 3.28767 0.818386 0
M  V30 1437 C 133.07 3.53455 1.29409 0
M  V30 1438 C 132.217 2.75831 0.285024 0
M  V30 1439 H 135.168 1.5566 -0.309115 0
M  V30 1440 H 135.189 3.41459 1.67887 0
M  V30 1441 H 134.701 3.88006 -0.0855019 0
M  V30 1442 H 132.802 2.99534 2.21608 0
M  V30 1443 H 132.915 4.62128 1.2639 0
M  V30 1444 H 131.279 2.42947 0.764767 0
M  V30 1445 H 132.062 3.37813 -0.611341 0
M  V30 1446 N 134.507 -0.190092 1.56449 0
M  V30 1447 C 135.753 -0.911052 1.81184 0
M  V30 1448 C 136.086 -1.82699 0.658396 0
M  V30 1449 O 135.361 -1.91491 -0.340775 0
M  V30 1450 C 135.644 -1.72297 3.16205 0
M  V30 1451 C 135.497 -0.831419 4.42049 0
M  V30 1452 C 136.816 -2.69454 3.47969 0
M  V30 1453 H 133.935 -0.32977 0.659106 0
M  V30 1454 H 136.577 -0.178169 1.89163 0
M  V30 1455 H 134.727 -2.34778 3.09534 0
M  V30 1456 H 136.399 -0.220929 4.60771 0
M  V30 1457 H 134.642 -0.138406 4.33579 0
M  V30 1458 H 135.313 -1.43461 5.33032 0
M  V30 1459 H 137.789 -2.17104 3.54972 0
M  V30 1460 H 136.665 -3.23342 4.43555 0
M  V30 1461 H 136.926 -3.48744 2.71717 0
M  V30 1462 N 135.985 -1.50799 -0.457987 0
M  V30 1463 C 136.915 -1.73553 -1.5621 0
M  V30 1464 C 137.896 -0.584774 -1.59732 0
M  V30 1465 O 139.081 -0.825314 -1.7579 0
M  V30 1466 C 136.211 -1.84169 -2.94447 0
M  V30 1467 C 135.165 -2.99461 -3.0579 0
M  V30 1468 C 134.491 -2.95235 -4.45803 0
M  V30 1469 C 135.791 -4.39766 -2.81786 0
M  V30 1470 H 137.485 -2.66 -1.37421 0
M  V30 1471 H 135.031 -1.28002 -0.659662 0
M  V30 1472 H 136.984 -1.98672 -3.71628 0
M  V30 1473 H 135.708 -0.883545 -3.14422 0
M  V30 1474 H 134.367 -2.8463 -2.31044 0
M  V30 1475 H 134.015 -1.97239 -4.62715 0
M  V30 1476 H 133.715 -3.72642 -4.54326 0
M  V30 1477 H 135.239 -3.11803 -5.24987 0
M  V30 1478 H 136.653 -4.55054 -3.4871 0
M  V30 1479 H 135.05 -5.18722 -3.0174 0
M  V30 1480 H 136.12 -4.51229 -1.7754 0
M  V30 1481 N 137.463 0.71206 -1.40597 0
M  V30 1482 C 138.711 1.46907 -1.38791 0
M  V30 1483 C 139.032 1.94998 0.00780391 0
M  V30 1484 O 138.302 1.70587 0.963174 0
M  V30 1485 H 136.882 0.545043 -0.51082 0
M  V30 1486 H 139.544 0.843882 -1.75683 0
M  V30 1487 H 138.64 2.34021 -2.06496 0
M  V30 1488 N 138.941 1.26152 0.944643 0
M  V30 1489 C 140.187 1.11657 1.69294 0
M  V30 1490 C 140.52 -0.339926 1.91202 0
M  V30 1491 O 139.795 -1.24994 1.49019 0
M  V30 1492 C 140.078 1.88236 3.06984 0
M  V30 1493 C 139.931 3.41772 2.92424 0
M  V30 1494 C 141.25 1.67343 4.07043 0
M  V30 1495 H 138.369 0.407004 0.614424 0
M  V30 1496 H 141.011 1.55106 1.09737 0
M  V30 1497 H 139.161 1.51308 3.57824 0
M  V30 1498 H 140.833 3.88433 2.48832 0
M  V30 1499 H 139.076 3.68974 2.28124 0
M  V30 1500 H 139.747 3.90579 3.90067 0
M  V30 1501 H 142.223 1.99509 3.65151 0
M  V30 1502 H 141.099 2.23346 5.01406 0
M  V30 1503 H 141.36 0.617158 4.37771 0
M  V30 1504 N 140.419 -1.14872 1.07899 0
M  V30 1505 C 141.665 -1.86064 0.806725 0
M  V30 1506 C 141.998 -1.82434 -0.665706 0
M  V30 1507 O 141.273 -1.25138 -1.48899 0
M  V30 1508 C 141.556 -3.34929 1.32267 0
M  V30 1509 C 141.409 -3.47161 2.86006 0
M  V30 1510 C 142.728 -4.29863 0.943717 0
M  V30 1511 H 139.847 -0.675591 0.294526 0
M  V30 1512 H 142.489 -1.34925 1.33773 0
M  V30 1513 H 140.639 -3.78611 0.870974 0
M  V30 1514 H 142.311 -3.12302 3.39507 0
M  V30 1515 H 140.554 -2.88539 3.23925 0
M  V30 1516 H 141.225 -4.51777 3.17177 0
M  V30 1517 H 143.701 -3.9417 1.33302 0
M  V30 1518 H 142.577 -5.32494 1.33198 0
M  V30 1519 H 142.838 -4.41846 -0.149796 0
M  V30 1520 N 141.898 -0.863906 -1.31812 0
M  V30 1521 C 142.828 -0.330843 -2.31144 0
M  V30 1522 C 143.809 0.575005 -1.60087 0
M  V30 1523 O 144.994 0.493304 -1.8783 0
M  V30 1524 C 142.124 0.47374 -3.44054 0
M  V30 1525 C 141.078 -0.338481 -4.26659 0
M  V30 1526 C 140.404 0.591412 -5.31419 0
M  V30 1527 C 141.704 -1.56926 -4.98168 0
M  V30 1528 H 143.398 -1.16086 -2.75979 0
M  V30 1529 H 140.944 -0.559657 -1.32679 0
M  V30 1530 H 142.897 0.857143 -4.12591 0
M  V30 1531 H 141.621 1.33721 -2.9797 0
M  V30 1532 H 140.28 -0.703754 -3.59782 0
M  V30 1533 H 139.928 1.45199 -4.81587 0
M  V30 1534 H 139.628 0.0519022 -5.87577 0
M  V30 1535 H 141.152 0.97179 -6.02817 0
M  V30 1536 H 142.566 -1.25764 -5.59336 0
M  V30 1537 H 140.963 -2.04739 -5.64094 0
M  V30 1538 H 142.033 -2.32544 -4.25501 0
M  V30 1539 N 143.376 1.44774 -0.622745 0
M  V30 1540 C 144.787 1.85546 -0.207226 0
M  V30 1541 C 145.138 1.52093 1.23944 0
M  V30 1542 O 144.263 0.95492 1.94191 0
M  V30 1543 C 144.858 3.36781 -0.369313 0
M  V30 1544 C 143.417 3.76399 -0.00836847 0
M  V30 1545 C 142.564 2.68664 -0.686651 0
M  V30 1546 H 145.515 1.3536 -0.828454 0
M  V30 1547 H 145.536 3.78453 0.394162 0
M  V30 1548 H 145.048 3.61098 -1.42231 0
M  V30 1549 H 143.149 3.57698 1.04322 0
M  V30 1550 H 143.262 4.7732 -0.412584 0
M  V30 1551 H 141.626 2.54404 -0.122777 0
M  V30 1552 H 142.409 2.95815 -1.74208 0
M  V30 1553 N 144.854 0.36279 1.53368 0
M  V30 1554 C 146.102 -0.227326 2.00817 0
M  V30 1555 C 146.423 -1.49511 1.25186 0
M  V30 1556 O 145.693 -1.92482 0.364348 0
M  V30 1557 H 144.273 -0.0869923 0.741917 0
M  V30 1558 H 146.935 0.488381 1.88682 0
M  V30 1559 H 146.031 -0.456273 3.08747 0
M  V30 1560 N 146.332 -1.57332 0.0918853 0
M  V30 1561 C 147.295 -2.12708 -0.85369 0
M  V30 1562 C 148.295 -1.05561 -1.213 0
M  V30 1563 O 149.485 -1.31461 -1.14296 0
M  V30 1564 C 146.617 -2.64503 -2.15061 0
M  V30 1565 H 147.81 -2.97573 -0.3729 0
M  V30 1566 H 145.363 -1.55509 -0.157072 0
M  V30 1567 H 146.098 -1.83149 -2.67632 0
M  V30 1568 H 145.883 -3.4284 -1.90272 0
M  V30 1569 H 147.373 -3.07351 -2.82711 0
M  V30 1570 N 147.81 0.181792 -1.56548 0
M  V30 1571 C 149.035 0.920019 -1.85877 0
M  V30 1572 C 149.46 1.75494 -0.677021 0
M  V30 1573 O 148.818 1.77399 0.374056 0
M  V30 1574 C 148.866 1.78112 -3.13542 0
M  V30 1575 O 147.97 2.88152 -2.95029 0
M  V30 1576 H 147.311 0.258334 -0.611686 0
M  V30 1577 H 149.841 0.183092 -2.03779 0
M  V30 1578 H 149.851 2.18314 -3.44678 0
M  V30 1579 H 148.526 1.16777 -3.99169 0
M  V30 1580 H 147.103 2.51609 -2.75222 0
M  V30 1581 N 149.288 1.51039 0.449983 0
M  V30 1582 C 150.251 1.70863 1.5277 0
M  V30 1583 C 151.251 0.578846 1.5002 0
M  V30 1584 O 152.441 0.846213 1.52266 0
M  V30 1585 C 149.573 1.75341 2.9235 0
M  V30 1586 H 150.766 2.67034 1.36502 0
M  V30 1587 H 148.319 1.40838 0.677812 0
M  V30 1588 H 149.054 0.809383 3.14037 0
M  V30 1589 H 148.839 2.57436 2.95752 0
M  V30 1590 H 150.329 1.92559 3.70555 0
M  V30 1591 N 150.766 -0.704594 1.40972 0
M  V30 1592 C 151.729 -1.80035 1.41845 0
M  V30 1593 C 152.729 -1.57774 0.310474 0
M  V30 1594 O 153.919 -1.64613 0.56992 0
M  V30 1595 C 151.051 -3.18284 1.22098 0
M  V30 1596 H 152.244 -1.80658 2.3938 0
M  V30 1597 H 149.797 -0.911329 1.26982 0
M  V30 1598 H 150.532 -3.23306 0.253672 0
M  V30 1599 H 150.317 -3.35843 2.02366 0
M  V30 1600 H 151.807 -3.98289 1.25522 0
M  V30 1601 N 152.244 -1.26651 -0.937939 0
M  V30 1602 C 153.493 -1.11775 -1.67897 0
M  V30 1603 C 153.806 0.33794 -1.92659 0
M  V30 1604 O 155.012 0.607434 -2.64618 0
M  V30 1605 C 153.468 -1.9523 -3.02346 0
M  V30 1606 C 153.076 -3.45393 -2.8532 0
M  V30 1607 C 154.82 -1.88972 -3.80118 0
M  V30 1608 C 152.727 -4.21083 -4.15263 0
M  V30 1609 H 151.657 -0.414696 -0.629717 0
M  V30 1610 H 154.308 -1.50988 -1.04283 0
M  V30 1611 H 152.69 -1.48853 -3.66959 0
M  V30 1612 H 153.864 -3.99561 -2.29537 0
M  V30 1613 H 152.179 -3.52921 -2.20988 0
M  V30 1614 H 154.776 -2.42805 -4.76392 0
M  V30 1615 H 155.119 -0.86113 -4.07296 0
M  V30 1616 H 155.652 -2.33189 -3.22285 0
M  V30 1617 H 152.391 -5.24425 -3.93267 0
M  V30 1618 H 151.911 -3.71695 -4.70747 0
M  V30 1619 H 153.59 -4.29706 -4.83696 0
M  V30 1620 N 153.722 1.14298 -1.08507 0
M  V30 1621 C 154.669 2.19414 -0.715965 0
M  V30 1622 C 155.639 1.63399 0.298326 0
M  V30 1623 O 156.824 1.89929 0.182101 0
M  V30 1624 C 153.964 3.44845 -0.132534 0
M  V30 1625 C 153.077 4.15007 -1.19973 0
M  V30 1626 C 152.212 5.28024 -0.580048 0
M  V30 1627 C 151.251 5.9002 -1.62921 0
M  V30 1628 N 150.388 6.94485 -1.03125 0
M  V30 1629 H 155.228 2.50336 -1.61666 0
M  V30 1630 H 152.765 1.2293 -0.807882 0
M  V30 1631 H 154.723 4.16601 0.223454 0
M  V30 1632 H 153.353 3.14403 0.731467 0
M  V30 1633 H 152.405 3.41629 -1.67313 0
M  V30 1634 H 153.717 4.57178 -1.99473 0
M  V30 1635 H 152.871 6.06455 -0.172364 0
M  V30 1636 H 151.61 4.87076 0.246603 0
M  V30 1637 H 150.615 5.10291 -2.04654 0
M  V30 1638 H 151.84 6.33042 -2.45835 0
M  V30 1639 H 149.786 6.55612 -0.225711 0
M  V30 1640 H 149.703 7.35148 -1.76334 0
M  V30 1641 H 150.971 7.7679 -0.649458 0
M  V30 1642 N 155.201 0.870884 1.31352 0
M  V30 1643 C 156.426 0.495957 2.01383 0
M  V30 1644 C 156.851 -0.904324 1.64935 0
M  V30 1645 O 156.209 -1.59687 0.858466 0
M  V30 1646 C 156.257 0.661433 3.54482 0
M  V30 1647 O 155.361 -0.298851 4.11316 0
M  V30 1648 H 154.702 0.197158 0.634054 0
M  V30 1649 H 157.232 1.17455 1.67527 0
M  V30 1650 H 157.242 0.555072 4.04207 0
M  V30 1651 H 155.917 1.68246 3.8035 0
M  V30 1652 H 154.494 -0.147368 3.72609 0
M  V30 1653 N 156.679 -1.44442 0.630414 0
M  V30 1654 C 157.907 -2.06414 0.141671 0
M  V30 1655 C 158.322 -1.47105 -1.18345 0
M  V30 1656 O 157.679 -0.593662 -1.72574 0
M  V30 1657 C 157.73 -3.61494 0.0199784 0
M  V30 1658 O 157.451 -4.18594 1.29269 0
M  V30 1659 C 158.952 -4.40499 -0.497544 0
M  V30 1660 H 156.172 -0.666292 0.0793452 0
M  V30 1661 H 158.716 -1.85323 0.864614 0
M  V30 1662 H 156.871 -3.8185 -0.653402 0
M  V30 1663 H 157.285 -5.12026 1.13707 0
M  V30 1664 H 158.759 -5.49433 -0.531708 0
M  V30 1665 H 159.236 -4.11895 -1.52445 0
M  V30 1666 H 159.842 -4.25061 0.142562 0
M  V30 1667 N 158.157 -0.370918 -1.53173 0
M  V30 1668 C 159.385 0.217704 -2.05751 0
M  V30 1669 C 159.8 1.42018 -1.24404 0
M  V30 1670 O 159.157 1.80245 -0.286033 0
M  V30 1671 C 159.208 0.605954 -3.56385 0
M  V30 1672 O 158.929 -0.548734 -4.3465 0
M  V30 1673 C 160.43 1.2524 -4.25241 0
M  V30 1674 H 157.65 0.0371659 -0.66997 0
M  V30 1675 H 160.194 -0.530832 -1.9749 0
M  V30 1676 H 158.349 1.3044 -3.6478 0
M  V30 1677 H 158.763 -0.23376 -5.23979 0
M  V30 1678 H 160.237 1.47458 -5.3194 0
M  V30 1679 H 160.714 2.2143 -3.79296 0
M  V30 1680 H 161.32 0.595233 -4.21114 0
M  V30 1681 N 159.635 1.57281 -0.100228 0
M  V30 1682 C 160.582 2.14305 0.856858 0
M  V30 1683 C 161.552 1.06296 1.27634 0
M  V30 1684 O 162.737 1.34109 1.35718 0
M  V30 1685 C 159.877 2.73184 2.10866 0
M  V30 1686 C 158.99 3.95442 1.73925 0
M  V30 1687 C 158.125 4.42468 2.93931 0
M  V30 1688 C 157.164 5.57303 2.5314 0
M  V30 1689 N 156.301 5.99158 3.65997 0
M  V30 1690 H 161.141 2.95772 0.363726 0
M  V30 1691 H 158.678 1.46139 0.167858 0
M  V30 1692 H 160.636 3.05442 2.84185 0
M  V30 1693 H 159.266 1.94437 2.57671 0
M  V30 1694 H 158.318 3.69464 0.905554 0
M  V30 1695 H 159.63 4.78769 1.39935 0
M  V30 1696 H 158.784 4.76537 3.75496 0
M  V30 1697 H 157.523 3.58052 3.31134 0
M  V30 1698 H 156.528 5.22857 1.70003 0
M  V30 1699 H 157.753 6.43471 2.17075 0
M  V30 1700 H 155.699 5.17687 4.02909 0
M  V30 1701 H 155.616 6.77295 3.35869 0
M  V30 1702 H 156.884 6.3786 4.48057 0
M  V30 1703 N 161.113 -0.173488 1.56642 0
M  V30 1704 C 162.361 -0.888706 1.81512 0
M  V30 1705 C 162.682 -1.82875 0.676872 0
M  V30 1706 O 161.952 -1.93536 -0.303414 0
M  V30 1707 H 160.532 -0.331164 0.669582 0
M  V30 1708 H 163.194 -0.173823 1.94123 0
M  V30 1709 H 162.29 -1.46691 2.75478 0
M  V30 1710 N 162.591 -1.51276 -0.441967 0
M  V30 1711 C 163.523 -1.68444 -1.55433 0
M  V30 1712 C 164.536 -0.565187 -1.52674 0
M  V30 1713 O 165.725 -0.839356 -1.57534 0
M  V30 1714 C 162.825 -1.67966 -2.94348 0
M  V30 1715 C 161.998 -2.964 -3.21661 0
M  V30 1716 C 161.057 -2.88171 -4.40277 0
M  V30 1717 O 160.083 -3.62119 -4.39157 0
M  V30 1718 N 161.285 -2.03706 -5.43584 0
M  V30 1719 H 164.05 -2.644 -1.41112 0
M  V30 1720 H 161.611 -1.49104 -0.630838 0
M  V30 1721 H 163.603 -1.60035 -3.71713 0
M  V30 1722 H 162.173 -0.796225 -3.0229 0
M  V30 1723 H 161.393 -3.18234 -2.32638 0
M  V30 1724 H 162.681 -3.81427 -3.36736 0
M  V30 1725 H 162.079 -1.42995 -5.47329 0
M  V30 1726 H 160.636 -2.01658 -6.1982 0
M  V30 1727 N 164.069 0.697108 -1.41344 0
M  V30 1728 C 165.315 1.4593 -1.40827 0
M  V30 1729 C 165.648 1.94193 -0.0167098 0
M  V30 1730 O 164.923 1.69425 0.955263 0
M  V30 1731 C 165.206 2.67229 -2.41373 0
M  V30 1732 C 165.059 2.24741 -3.8963 0
M  V30 1733 C 166.378 3.69423 -2.39196 0
M  V30 1734 H 163.497 0.529303 -0.512842 0
M  V30 1735 H 166.139 0.794112 -1.72609 0
M  V30 1736 H 164.289 3.23982 -2.14401 0
M  V30 1737 H 165.961 1.73327 -4.27499 0
M  V30 1738 H 164.204 1.56542 -4.0457 0
M  V30 1739 H 164.875 3.1177 -4.55525 0
M  V30 1740 H 167.351 3.2234 -2.63128 0
M  V30 1741 H 166.227 4.51907 -3.11563 0
M  V30 1742 H 166.488 4.19012 -1.41001 0
M  V30 1743 N 165.547 1.27147 0.931209 0
M  V30 1744 C 166.795 1.13055 1.6752 0
M  V30 1745 C 167.116 -0.324791 1.92276 0
M  V30 1746 O 166.386 -1.22775 1.52654 0
M  V30 1747 H 164.966 0.415391 0.620854 0
M  V30 1748 H 167.628 1.59623 1.11833 0
M  V30 1749 H 166.724 1.65694 2.64485 0
M  V30 1750 N 167.025 -1.13721 1.09112 0
M  V30 1751 C 168.271 -1.85198 0.826414 0
M  V30 1752 C 168.604 -1.83129 -0.646319 0
M  V30 1753 O 167.879 -1.2671 -1.47563 0
M  V30 1754 C 168.162 -3.33507 1.35812 0
M  V30 1755 C 168.015 -3.44108 2.89672 0
M  V30 1756 C 169.334 -4.28838 0.989256 0
M  V30 1757 H 166.453 -0.67243 0.301675 0
M  V30 1758 H 169.095 -1.33499 1.35197 0
M  V30 1759 H 167.245 -3.77666 0.911082 0
M  V30 1760 H 168.917 -3.08684 3.428 0
M  V30 1761 H 167.16 -2.85087 3.26967 0
M  V30 1762 H 167.831 -4.48388 3.21951 0
M  V30 1763 H 170.307 -3.92734 1.37475 0
M  V30 1764 H 169.183 -5.31051 1.38838 0
M  V30 1765 H 169.444 -4.4198 -0.102924 0
M  V30 1766 N 168.503 -0.877838 -1.30888 0
M  V30 1767 C 169.752 -0.488793 -1.95688 0
M  V30 1768 C 170.065 0.965485 -1.70111 0
M  V30 1769 O 171.271 1.46104 -2.28836 0
M  V30 1770 C 169.727 -0.823201 -3.50359 0
M  V30 1771 C 169.335 -2.29477 -3.84765 0
M  V30 1772 C 171.079 -0.503009 -4.21509 0
M  V30 1773 C 168.986 -2.57118 -5.32583 0
M  V30 1774 H 167.916 -0.179062 -0.732429 0
M  V30 1775 H 170.567 -1.07183 -1.48943 0
M  V30 1776 H 168.949 -0.169331 -3.95638 0
M  V30 1777 H 170.123 -2.99236 -3.5042 0
M  V30 1778 H 168.438 -2.58178 -3.267 0
M  V30 1779 H 171.035 -0.68665 -5.30273 0
M  V30 1780 H 171.378 0.557109 -4.12555 0
M  V30 1781 H 171.911 -1.11376 -3.8189 0
M  V30 1782 H 168.65 -3.61843 -5.4658 0
M  V30 1783 H 168.17 -1.91961 -5.68253 0
M  V30 1784 H 169.849 -2.42251 -5.99936 0
M  V30 1785 N 169.982 1.44106 -0.638065 0
M  V30 1786 C 171.23 2.01579 -0.145043 0
M  V30 1787 C 171.551 1.50496 1.24 0
M  V30 1788 O 170.821 0.711374 1.82527 0
M  V30 1789 H 169.401 0.745282 -0.05063 0
M  V30 1790 H 172.063 1.76516 -0.826327 0
M  V30 1791 H 171.159 3.11877 -0.118039 0
M  V30 1792 N 171.46 0.379036 1.52974 0
M  V30 1793 C 172.688 -0.20679 2.05864 0
M  V30 1794 C 173.103 -1.41356 1.25155 0
M  V30 1795 O 172.46 -1.8009 0.295588 0
M  V30 1796 C 172.511 -0.587045 3.56702 0
M  V30 1797 O 172.232 0.571776 4.34353 0
M  V30 1798 C 173.733 -1.22983 4.25899 0
M  V30 1799 H 170.953 -0.0336123 0.670158 0
M  V30 1800 H 173.497 0.541298 1.97206 0
M  V30 1801 H 171.652 -1.28504 3.65466 0
M  V30 1802 H 172.066 0.261544 5.23847 0
M  V30 1803 H 173.54 -1.44635 5.32715 0
M  V30 1804 H 174.017 -2.19416 3.80465 0
M  V30 1805 H 174.623 -0.572892 4.21424 0
M  V30 1806 N 172.938 -1.57226 0.108567 0
M  V30 1807 C 174.349 -1.8195 -0.418464 0
M  V30 1808 C 174.7 -1.02508 -1.67292 0
M  V30 1809 O 173.825 -0.258496 -2.14851 0
M  V30 1810 C 174.42 -3.30028 -0.765979 0
M  V30 1811 C 172.979 -3.55469 -1.23769 0
M  V30 1812 C 172.126 -2.7625 -0.241106 0
M  V30 1813 H 175.077 -1.55149 0.33384 0
M  V30 1814 H 175.098 -3.44086 -1.62434 0
M  V30 1815 H 174.61 -3.87821 0.147219 0
M  V30 1816 H 172.711 -3.03022 -2.16814 0
M  V30 1817 H 172.824 -4.6408 -1.19022 0
M  V30 1818 H 171.188 -2.44133 -0.72602 0
M  V30 1819 H 171.971 -3.36797 0.665007 0
M  V30 1820 N 174.416 0.165178 -1.56732 0
M  V30 1821 C 175.349 1.23336 -1.91998 0
M  V30 1822 C 176.327 1.42476 -0.783531 0
M  V30 1823 O 177.511 1.57384 -1.03743 0
M  V30 1824 C 174.638 2.59533 -2.17625 0
M  V30 1825 C 173.684 2.57093 -3.40302 0
M  V30 1826 S 174.517 2.05571 -4.9447 0
M  V30 1827 C 175.673 3.43532 -5.23198 0
M  V30 1828 H 175.906 0.932387 -2.82301 0
M  V30 1829 H 173.439 0.370013 -1.49901 0
M  V30 1830 H 175.397 3.37918 -2.3307 0
M  V30 1831 H 174.058 2.86827 -1.28019 0
M  V30 1832 H 173.251 3.57308 -3.55453 0
M  V30 1833 H 172.853 1.86806 -3.24005 0
M  V30 1834 H 175.145 4.39559 -5.15552 0
M  V30 1835 H 176.088 3.33251 -6.2478 0
M  V30 1836 H 176.496 3.39828 -4.50752 0
M  V30 1837 N 175.894 1.51508 0.433938 0
M  V30 1838 C 177.122 1.68157 1.20543 0
M  V30 1839 C 177.537 0.380362 1.84929 0
M  V30 1840 O 176.894 -0.641446 1.70856 0
M  V30 1841 C 176.945 2.79965 2.28696 0
M  V30 1842 O 176.666 4.05045 1.66943 0
M  V30 1843 C 178.167 3.07912 3.18912 0
M  V30 1844 H 175.387 0.56421 0.363191 0
M  V30 1845 H 177.931 1.97941 0.513754 0
M  V30 1846 H 176.086 2.5277 2.93574 0
M  V30 1847 H 176.5 4.67165 2.38448 0
M  V30 1848 H 177.974 3.89719 3.90926 0
M  V30 1849 H 178.451 2.20456 3.79863 0
M  V30 1850 H 179.057 3.36779 2.59731 0
M  V30 1851 N 177.372 -0.689602 1.41712 0
M  V30 1852 C 178.618 -1.45181 1.41599 0
M  V30 1853 C 178.951 -1.94181 0.0270081 0
M  V30 1854 O 178.226 -1.6993 -0.946265 0
M  V30 1855 C 178.509 -2.65945 2.42787 0
M  V30 1856 C 178.362 -2.22672 3.90816 0
M  V30 1857 C 179.681 -3.68149 2.41151 0
M  V30 1858 H 176.8 -0.526576 0.515642 0
M  V30 1859 H 179.442 -0.784947 1.73028 0
M  V30 1860 H 177.592 -3.2284 2.16116 0
M  V30 1861 H 179.264 -1.71058 4.28412 0
M  V30 1862 H 177.507 -1.54394 4.05395 0
M  V30 1863 H 178.178 -3.0935 4.57172 0
M  V30 1864 H 180.654 -3.2094 2.64834 0
M  V30 1865 H 179.53 -4.50248 3.13955 0
M  V30 1866 H 179.791 -4.18259 1.43221 0
M  V30 1867 N 178.85 -1.27639 -0.924453 0
M  V30 1868 C 179.813 -1.10681 -2.00705 0
M  V30 1869 C 180.813 -0.0497823 -1.60723 0
M  V30 1870 O 182.003 -0.294654 -1.7169 0
M  V30 1871 C 179.135 -0.687164 -3.33902 0
M  V30 1872 H 180.328 -2.06817 -2.17179 0
M  V30 1873 H 177.881 -1.10473 -1.10569 0
M  V30 1874 H 178.616 0.275439 -3.23128 0
M  V30 1875 H 178.401 -1.45061 -3.6428 0
M  V30 1876 H 179.891 -0.590853 -4.13399 0
M  V30 1877 N 180.328 1.1314 -1.09713 0
M  V30 1878 C 181.553 1.88862 -0.857081 0
M  V30 1879 C 181.978 1.78729 0.586304 0
M  V30 1880 O 181.336 1.13692 1.41222 0
M  V30 1881 C 181.384 3.36325 -1.30069 0
M  V30 1882 O 180.488 4.09815 -0.461007 0
M  V30 1883 H 179.829 0.587108 -0.310162 0
M  V30 1884 H 182.359 1.43129 -1.46203 0
M  V30 1885 H 182.369 3.87157 -1.28738 0
M  V30 1886 H 181.044 3.43017 -2.35185 0
M  V30 1887 H 179.621 3.68986 -0.538888 0
M  V30 1888 N 181.806 0.884767 1.30421 0
M  V30 1889 C 183.083 0.423185 1.90967 0
M  V30 1890 C 183.463 -1.09605 1.80416 0
M  V30 1891 O 182.811 -1.93126 1.22125 0
M  V30 1892 C 183.021 0.921056 3.36627 0
M  V30 1893 C 184.369 0.955903 4.137 0
M  V30 1894 O 185.393 0.867706 3.4547 0
M  V30 1895 O 184.252 1.08614 5.35598 0
M  V30 1896 H 181.346 0.129369 0.816819 0
M  V30 1897 H 183.892 0.973653 1.3899 0
M  V30 1898 H 182.664 1.96489 3.3839 0
M  V30 1899 H 182.287 0.349741 3.96059 0
M  V30 1900 N 183.284 -1.43765 0.645699 0
M  V30 1901 C 184.533 -2.01116 0.153412 0
M  V30 1902 C 184.846 -1.51493 -1.23731 0
M  V30 1903 O 186.052 -2.01067 -1.8244 0
M  V30 1904 C 184.508 -3.59206 0.223473 0
M  V30 1905 C 184.116 -4.17823 1.61642 0
M  V30 1906 C 185.86 -4.23972 -0.211597 0
M  V30 1907 C 183.767 -5.68183 1.64081 0
M  V30 1908 H 182.697 -0.752093 0.0535891 0
M  V30 1909 H 185.348 -1.6482 0.806633 0
M  V30 1910 H 183.73 -3.92867 -0.497118 0
M  V30 1911 H 184.904 -3.95674 2.36176 0
M  V30 1912 H 183.219 -3.65399 1.99681 0
M  V30 1913 H 185.816 -5.34275 -0.213112 0
M  V30 1914 H 186.159 -3.97352 -1.24165 0
M  V30 1915 H 186.692 -3.95166 0.456988 0
M  V30 1916 H 183.431 -5.99559 2.64971 0
M  V30 1917 H 182.951 -5.9241 0.938611 0
M  V30 1918 H 184.63 -6.32085 1.3812 0
M  V30 1919 N 184.763 -0.387143 -1.52771 0
M  V30 1920 C 185.993 0.195585 -2.05672 0
M  V30 1921 C 186.401 1.41241 -1.25887 0
M  V30 1922 O 185.744 1.81265 -0.298081 0
M  V30 1923 C 185.806 0.632327 -3.53895 0
M  V30 1924 C 185.47 -0.470739 -4.54569 0
M  V30 1925 C 186.467 -1.32746 -5.02667 0
M  V30 1926 C 184.152 -0.637151 -4.98243 0
M  V30 1927 C 186.146 -2.33574 -5.93061 0
M  V30 1928 C 183.833 -1.64877 -5.88438 0
M  V30 1929 C 184.831 -2.49649 -6.35739 0
M  V30 1930 O 184.519 -3.49082 -7.24153 0
M  V30 1931 H 184.251 0.033658 -0.675162 0
M  V30 1932 H 186.805 -0.550221 -1.97893 0
M  V30 1933 H 185.035 1.43008 -3.59285 0
M  V30 1934 H 186.724 1.14048 -3.89548 0
M  V30 1935 H 187.49 -1.21019 -4.69659 0
M  V30 1936 H 183.369 0.0129567 -4.60998 0
M  V30 1937 H 186.913 -2.99777 -6.29904 0
M  V30 1938 H 182.81 -1.76643 -6.2086 0
M  V30 1939 H 183.578 -3.45065 -7.42208 0
M  V30 1940 N 186.241 1.57166 -0.116904 0
M  V30 1941 C 187.657 1.5779 0.239693 0
M  V30 1942 C 187.857 1.1295 1.66867 0
M  V30 1943 O 186.913 0.81592 2.38954 0
M  V30 1944 C 188.226 3.00699 0.00828202 0
M  V30 1945 C 189.774 3.12912 0.0743438 0
M  V30 1946 C 190.249 4.57817 -0.129348 0
M  V30 1947 N 191.74 4.63139 -0.075247 0
M  V30 1948 C 192.475 5.73023 -0.207788 0
M  V30 1949 N 191.971 6.91665 -0.396382 0
M  V30 1950 N 193.764 5.61906 -0.14751 0
M  V30 1951 H 185.915 1.84615 -1.05029 0
M  V30 1952 H 188.178 0.85311 -0.41341 0
M  V30 1953 H 187.884 3.37784 -0.979531 0
M  V30 1954 H 187.758 3.69848 0.741077 0
M  V30 1955 H 190.145 2.75686 1.05268 0
M  V30 1956 H 190.226 2.4631 -0.690297 0
M  V30 1957 H 189.87 4.95742 -1.10465 0
M  V30 1958 H 189.8 5.22507 0.655253 0
M  V30 1959 H 192.291 3.7784 0.0670898 0
M  V30 1960 H 192.604 7.71255 -0.488437 0
M  V30 1961 H 190.949 6.93654 -0.432329 0
M  V30 1962 H 194.14 4.681 -0.00115036 0
M  V30 1963 H 194.313 6.47501 -0.254247 0
M  V30 1964 N 187.719 -0.156864 1.56817 0
M  V30 1965 C 188.666 -1.19394 1.97519 0
M  V30 1966 C 189.636 -1.4322 0.841265 0
M  V30 1967 O 190.821 -1.55719 1.10255 0
M  V30 1968 C 187.961 -2.52483 2.35258 0
M  V30 1969 C 187.074 -2.35914 3.61896 0
M  V30 1970 C 186.209 -3.61969 3.88782 0
M  V30 1971 C 185.248 -3.40395 5.08722 0
M  V30 1972 N 184.385 -4.58556 5.31668 0
M  V30 1973 H 189.225 -0.839845 2.85921 0
M  V30 1974 H 186.762 -0.403264 1.41464 0
M  V30 1975 H 188.72 -3.30071 2.55165 0
M  V30 1976 H 187.35 -2.85859 1.49949 0
M  V30 1977 H 186.402 -1.49429 3.49821 0
M  V30 1978 H 187.714 -2.15926 4.49641 0
M  V30 1979 H 186.868 -4.47989 4.09135 0
M  V30 1980 H 185.607 -3.84951 2.9944 0
M  V30 1981 H 184.612 -2.52763 4.88253 0
M  V30 1982 H 185.837 -3.18822 5.99608 0
M  V30 1983 H 183.783 -4.81729 4.45279 0
M  V30 1984 H 183.7 -4.41535 6.13664 0
M  V30 1985 H 184.968 -5.45817 5.5651 0
M  V30 1986 N 189.197 -1.51736 -0.425897 0
M  V30 1987 C 190.144 -1.73875 -1.51776 0
M  V30 1988 C 191.114 -0.580702 -1.55618 0
M  V30 1989 O 192.299 -0.81641 -1.72451 0
M  V30 1990 C 189.439 -1.88012 -2.89388 0
M  V30 1991 C 188.552 -3.15606 -2.94986 0
M  V30 1992 C 187.687 -3.20271 -4.23793 0
M  V30 1993 C 186.726 -4.42134 -4.23302 0
M  V30 1994 N 185.863 -4.44284 -5.43651 0
M  V30 1995 H 190.703 -2.67071 -1.32201 0
M  V30 1996 H 188.24 -1.32351 -0.642008 0
M  V30 1997 H 190.198 -1.9419 -3.69251 0
M  V30 1998 H 188.828 -0.98213 -3.07496 0
M  V30 1999 H 187.88 -3.18681 -2.07717 0
M  V30 2000 H 189.192 -4.05486 -2.90486 0
M  V30 2001 H 188.346 -3.25428 -5.12036 0
M  V30 2002 H 187.085 -2.28299 -4.30965 0
M  V30 2003 H 186.09 -4.3714 -3.3345 0
M  V30 2004 H 187.315 -5.35382 -4.17783 0
M  V30 2005 H 185.261 -3.55188 -5.51523 0
M  V30 2006 H 185.178 -5.27988 -5.41078 0
M  V30 2007 H 186.446 -4.53649 -6.33895 0
M  V30 2008 N 190.675 0.682077 -1.42076 0
M  V30 2009 C 191.924 1.43786 -1.41451 0
M  V30 2010 C 192.237 1.95574 -0.0317074 0
M  V30 2011 O 193.443 2.71326 0.0971462 0
M  V30 2012 C 191.899 2.60071 -2.48779 0
M  V30 2013 C 191.507 2.15013 -3.93031 0
M  V30 2014 C 193.251 3.37626 -2.57311 0
M  V30 2015 C 191.158 3.28336 -4.91883 0
M  V30 2016 H 190.088 0.540143 -0.526082 0
M  V30 2017 H 192.739 0.739157 -1.67955 0
M  V30 2018 H 191.121 3.32275 -2.15429 0
M  V30 2019 H 192.295 1.5001 -4.35699 0
M  V30 2020 H 190.61 1.50416 -3.88284 0
M  V30 2021 H 193.207 4.22012 -3.28345 0
M  V30 2022 H 193.55 3.83727 -1.61429 0
M  V30 2023 H 194.083 2.72488 -2.89819 0
M  V30 2024 H 190.822 2.87234 -5.89217 0
M  V30 2025 H 190.342 3.92145 -4.53853 0
M  V30 2026 H 192.021 3.93913 -5.13265 0
M  V30 2027 N 192.153 1.28127 0.917671 0
M  V30 2028 C 193.085 1.07517 2.02417 0
M  V30 2029 C 194.098 0.0281099 1.62776 0
M  V30 2030 O 195.287 0.270748 1.76435 0
M  V30 2031 C 192.387 0.610957 3.33347 0
M  V30 2032 C 191.56 1.73255 4.01624 0
M  V30 2033 C 190.619 1.26238 5.10833 0
M  V30 2034 O 189.645 1.96389 5.34247 0
M  V30 2035 N 190.847 0.123448 5.80369 0
M  V30 2036 H 193.612 2.02806 2.20658 0
M  V30 2037 H 191.173 1.19827 1.08871 0
M  V30 2038 H 193.165 0.280101 4.0373 0
M  V30 2039 H 191.735 -0.24898 3.11607 0
M  V30 2040 H 190.955 2.23319 3.24842 0
M  V30 2041 H 192.243 2.48503 4.43986 0
M  V30 2042 H 191.641 -0.461847 5.63812 0
M  V30 2043 H 190.198 -0.148158 6.51632 0
M  V30 2044 N 193.631 -1.12557 1.10312 0
M  V30 2045 C 194.561 -2.20341 0.772798 0
M  V30 2046 C 195.542 -1.68198 -0.25365 0
M  V30 2047 O 196.727 -1.93831 -0.119699 0
M  V30 2048 C 193.857 -3.46709 0.202443 0
M  V30 2049 C 192.811 -4.11996 1.15943 0
M  V30 2050 C 192.137 -5.328 0.450345 0
M  V30 2051 C 193.437 -4.5828 2.50552 0
M  V30 2052 H 195.131 -2.48229 1.674 0
M  V30 2053 H 192.677 -1.19308 0.806326 0
M  V30 2054 H 194.63 -4.2138 -0.0407752 0
M  V30 2055 H 193.354 -3.18245 -0.734001 0
M  V30 2056 H 192.013 -3.39305 1.38808 0
M  V30 2057 H 191.661 -5.00602 -0.490531 0
M  V30 2058 H 191.361 -5.7743 1.08851 0
M  V30 2059 H 192.885 -6.10219 0.215642 0
M  V30 2060 H 194.299 -5.2433 2.31843 0
M  V30 2061 H 192.696 -5.13683 3.10242 0
M  V30 2062 H 193.766 -3.72329 3.10643 0
M  V30 2063 N 195.109 -0.891671 -1.2995 0
M  V30 2064 C 196.039 -0.379797 -2.30391 0
M  V30 2065 C 197.02 0.540919 -1.6127 0
M  V30 2066 O 198.205 0.453352 -1.88834 0
M  V30 2067 C 195.335 0.400654 -3.44981 0
M  V30 2068 C 194.289 -0.428905 -4.25846 0
M  V30 2069 C 193.615 0.478557 -5.32554 0
M  V30 2070 C 194.915 -1.67458 -4.94727 0
M  V30 2071 H 196.609 -1.21914 -2.73454 0
M  V30 2072 H 194.155 -0.587675 -1.31462 0
M  V30 2073 H 196.108 0.769434 -4.14316 0
M  V30 2074 H 194.832 1.27371 -3.0074 0
M  V30 2075 H 193.491 -0.779911 -3.58208 0
M  V30 2076 H 193.139 1.34951 -4.84559 0
M  V30 2077 H 192.839 -0.0727433 -5.87555 0
M  V30 2078 H 194.363 0.843705 -6.04743 0
M  V30 2079 H 195.777 -1.376 -5.56542 0
M  V30 2080 H 194.174 -2.16659 -5.59624 0
M  V30 2081 H 195.244 -2.41518 -4.20473 0
M  V30 2082 N 196.587 1.43421 -0.653314 0
M  V30 2083 C 197.55 2.29182 0.0287951 0
M  V30 2084 C 198.55 1.42213 0.750465 0
M  V30 2085 O 199.74 1.63843 0.591701 0
M  V30 2086 C 196.872 3.24278 1.05151 0
M  V30 2087 H 198.065 2.90985 -0.725786 0
M  V30 2088 H 195.618 1.50702 -0.414545 0
M  V30 2089 H 196.353 2.6737 1.83532 0
M  V30 2090 H 196.138 3.88396 0.537687 0
M  V30 2091 H 197.628 3.88647 1.52786 0
M  V30 2092 N 198.065 0.39524 1.52563 0
M  V30 2093 C 199.476 -0.0774719 1.86539 0
M  V30 2094 C 199.827 -1.45641 1.31466 0
M  V30 2095 O 198.952 -2.06459 0.648367 0
M  V30 2096 C 199.547 -0.147356 3.38479 0
M  V30 2097 C 198.106 -0.564373 3.72145 0
M  V30 2098 C 197.253 0.269919 2.75983 0
M  V30 2099 H 200.204 0.612876 1.46388 0
M  V30 2100 H 200.225 -0.965343 3.68051 0
M  V30 2101 H 199.737 0.856387 3.78534 0
M  V30 2102 H 197.838 -1.57527 3.37663 0
M  V30 2103 H 197.951 -0.318402 4.78041 0
M  V30 2104 H 196.315 -0.265696 2.5331 0
M  V30 2105 H 197.098 1.27175 3.18875 0
M  V30 2106 N 199.544 -1.57102 0.125237 0
M  V30 2107 C 200.769 -2.0019 -0.542101 0
M  V30 2108 C 201.194 -1.00449 -1.59034 0
M  V30 2109 O 200.552 0.0229423 -1.81285 0
M  V30 2110 C 200.6 -3.42129 -1.13929 0
M  V30 2111 O 199.704 -3.45307 -2.2547 0
M  V30 2112 H 199.045 -0.650171 -0.134812 0
M  V30 2113 H 201.575 -2.03461 0.215553 0
M  V30 2114 H 201.585 -3.80471 -1.4733 0
M  V30 2115 H 200.26 -4.14237 -0.371531 0
M  V30 2116 H 198.837 -3.1879 -1.93462 0
M  V30 2117 N 201.022 0.148545 -1.56898 0
M  V30 2118 C 202.271 0.85984 -1.82454 0
M  V30 2119 C 202.584 1.82406 -0.706229 0
M  V30 2120 O 203.79 2.57938 -0.847349 0
M  V30 2121 C 202.246 1.57967 -3.2338 0
M  V30 2122 C 201.854 0.65794 -4.43142 0
M  V30 2123 C 203.598 2.27784 -3.58211 0
M  V30 2124 C 201.505 1.3793 -5.75091 0
M  V30 2125 H 200.435 0.324834 -0.68044 0
M  V30 2126 H 203.086 0.112588 -1.83154 0
M  V30 2127 H 201.468 2.37249 -3.17063 0
M  V30 2128 H 202.642 -0.0995497 -4.60692 0
M  V30 2129 H 200.957 0.0682643 -4.16344 0
M  V30 2130 H 203.554 2.8239 -4.54048 0
M  V30 2131 H 203.897 3.04204 -2.84193 0
M  V30 2132 H 204.43 1.55421 -3.66182 0
M  V30 2133 H 201.169 0.656982 -6.52199 0
M  V30 2134 H 200.689 2.10954 -5.61479 0
M  V30 2135 H 202.368 1.92063 -6.17835 0
M  V30 2136 N 202.5 1.5196 0.417844 0
M  V30 2137 C 203.432 1.70895 1.52733 0
M  V30 2138 C 204.445 0.589405 1.51756 0
M  V30 2139 O 205.634 0.864312 1.56179 0
M  V30 2140 C 202.734 1.72627 2.91639 0
M  V30 2141 C 201.907 3.01479 3.16905 0
M  V30 2142 C 200.966 2.95139 4.35637 0
M  V30 2143 O 199.992 3.69059 4.3334 0
M  V30 2144 N 201.194 2.12328 5.40275 0
M  V30 2145 H 203.959 2.66612 1.36888 0
M  V30 2146 H 201.52 1.50089 0.607037 0
M  V30 2147 H 203.512 1.65928 3.6912 0
M  V30 2148 H 202.082 0.844216 3.00985 0
M  V30 2149 H 201.302 3.21895 2.27546 0
M  V30 2150 H 202.59 3.86736 3.30625 0
M  V30 2151 H 201.988 1.51685 5.44985 0
M  V30 2152 H 200.545 2.11494 6.16534 0
M  V30 2153 N 203.978 -0.674533 1.42435 0
M  V30 2154 C 205.224 -1.43671 1.43131 0
M  V30 2155 C 205.557 -1.94142 0.0476021 0
M  V30 2156 O 204.832 -1.70924 -0.928188 0
M  V30 2157 C 205.115 -2.63355 2.45594 0
M  V30 2158 C 204.968 -2.18514 3.93156 0
M  V30 2159 C 206.287 -3.65571 2.45043 0
M  V30 2160 H 203.406 -0.521077 0.521198 0
M  V30 2161 H 206.048 -0.766551 1.7385 0
M  V30 2162 H 204.198 -3.2053 2.19528 0
M  V30 2163 H 205.87 -1.66504 4.30202 0
M  V30 2164 H 204.113 -1.50086 4.07009 0
M  V30 2165 H 204.784 -3.04484 4.60428 0
M  V30 2166 H 207.26 -3.18113 2.68223 0
M  V30 2167 H 206.136 -4.46893 3.18713 0
M  V30 2168 H 206.397 -4.16716 1.47649 0
M  V30 2169 N 205.456 -1.28612 -0.910864 0
M  V30 2170 C 206.872 -1.06381 -1.18976 0
M  V30 2171 C 207.072 0.191998 -2.00583 0
M  V30 2172 O 206.128 0.892869 -2.36187 0
M  V30 2173 C 207.441 -2.31295 -1.92154 0
M  V30 2174 C 208.989 -2.36503 -2.05025 0
M  V30 2175 C 209.464 -3.61191 -2.81612 0
M  V30 2176 N 210.955 -3.61847 -2.89172 0
M  V30 2177 C 211.69 -4.55004 -3.4894 0
M  V30 2178 N 211.186 -5.58482 -4.09963 0
M  V30 2179 N 212.979 -4.42594 -3.46506 0
M  V30 2180 H 205.13 -2.09221 -0.366094 0
M  V30 2181 H 207.393 -0.921003 -0.224629 0
M  V30 2182 H 207.099 -3.228 -1.39618 0
M  V30 2183 H 206.973 -2.37934 -2.9269 0
M  V30 2184 H 209.36 -1.45494 -2.5674 0
M  V30 2185 H 209.441 -2.33857 -1.03657 0
M  V30 2186 H 209.085 -4.52545 -2.30576 0
M  V30 2187 H 209.015 -3.61092 -3.83302 0
M  V30 2188 H 211.506 -2.87022 -2.45819 0
M  V30 2189 H 211.819 -6.25704 -4.53557 0
M  V30 2190 H 210.164 -5.62305 -4.08459 0
M  V30 2191 H 213.355 -3.60953 -2.98045 0
M  V30 2192 H 213.528 -5.15381 -3.92793 0
M  V30 2193 N 206.934 1.1197 -1.10907 0
M  V30 2194 C 208.159 1.87942 -0.877064 0
M  V30 2195 C 208.584 1.79341 0.567314 0
M  V30 2196 O 207.942 1.15184 1.40009 0
M  V30 2197 C 207.99 3.34926 -1.33629 0
M  V30 2198 O 207.094 4.09303 -0.504447 0
M  V30 2199 H 206.435 0.583785 -0.316371 0
M  V30 2200 H 208.965 1.4157 -1.47712 0
M  V30 2201 H 208.975 3.8577 -1.32837 0
M  V30 2202 H 207.65 3.40504 -2.3881 0
M  V30 2203 H 206.227 3.68393 -0.577993 0
M  V30 2204 N 208.412 0.89855 1.29475 0
M  V30 2205 C 209.342 0.39201 2.30186 0
M  V30 2206 C 210.323 -0.532359 1.61555 0
M  V30 2207 O 211.508 -0.443331 1.89072 0
M  V30 2208 C 208.638 -0.382353 3.45189 0
M  V30 2209 C 207.592 0.451483 4.25612 0
M  V30 2210 C 206.918 -0.450307 5.328 0
M  V30 2211 C 208.218 1.70079 4.93832 0
M  V30 2212 H 209.912 1.23362 2.72804 0
M  V30 2213 H 207.458 0.594638 1.31149 0
M  V30 2214 H 209.411 -0.747451 4.14718 0
M  V30 2215 H 208.135 -1.25774 3.01411 0
M  V30 2216 H 206.794 0.798897 3.57789 0
M  V30 2217 H 206.442 -1.32379 4.85268 0
M  V30 2218 H 206.142 0.103902 5.87508 0
M  V30 2219 H 207.666 -0.811623 6.05182 0
M  V30 2220 H 209.08 1.40549 5.55805 0
M  V30 2221 H 207.477 2.19623 5.58467 0
M  V30 2222 H 208.547 2.43744 4.19186 0
M  V30 2223 N 209.89 -1.43072 0.660911 0
M  V30 2224 C 210.853 -2.29194 -0.0166406 0
M  V30 2225 C 211.853 -1.42609 -0.742912 0
M  V30 2226 O 213.043 -1.64155 -0.583004 0
M  V30 2227 C 210.175 -3.24831 -1.0343 0
M  V30 2228 H 211.368 -2.90596 0.741208 0
M  V30 2229 H 208.921 -1.5048 0.422532 0
M  V30 2230 H 209.656 -2.68339 -1.82111 0
M  V30 2231 H 209.441 -3.88676 -0.517082 0
M  V30 2232 H 210.931 -3.89451 -1.50723 0
M  V30 2233 N 211.368 -0.403325 -1.52352 0
M  V30 2234 C 212.608 0.173946 -2.03659 0
M  V30 2235 C 212.972 1.42869 -1.28267 0
M  V30 2236 O 214.173 2.08403 -1.69769 0
M  V30 2237 C 212.444 0.421478 -3.54906 0
M  V30 2238 S 214.003 0.967027 -4.28012 0
M  V30 2239 H 210.821 0.0477461 -0.709395 0
M  V30 2240 H 213.423 -0.554906 -1.87459 0
M  V30 2241 H 212.127 -0.498616 -4.0736 0
M  V30 2242 H 211.658 1.17837 -3.75337 0
M  V30 2243 H 213.673 2.24812 -4.4235 0
M  V30 2244 N 212.846 1.57033 -0.133567 0
M  V30 2245 C 214.257 1.82593 0.389464 0
M  V30 2246 C 214.608 1.05156 1.6564 0
M  V30 2247 O 213.733 0.292644 2.14412 0
M  V30 2248 C 214.328 3.31204 0.713377 0
M  V30 2249 C 212.887 3.57393 1.18098 0
M  V30 2250 C 212.034 2.76598 0.197126 0
M  V30 2251 H 214.985 1.54598 -0.358481 0
M  V30 2252 H 215.006 3.46627 1.56939 0
M  V30 2253 H 214.518 3.87537 -0.2089 0
M  V30 2254 H 212.619 3.06433 2.11966 0
M  V30 2255 H 212.732 4.65915 1.11624 0
M  V30 2256 H 211.096 2.45257 0.687088 0
M  V30 2257 H 211.879 3.35697 -0.718504 0
M  V30 2258 N 214.325 -0.140222 1.56975 0
M  V30 2259 C 215.272 -1.17292 1.98774 0
M  V30 2260 C 216.242 -1.4232 0.856408 0
M  V30 2261 O 217.427 -1.54541 1.119 0
M  V30 2262 C 214.567 -2.49973 2.37923 0
M  V30 2263 C 213.68 -2.32062 3.64378 0
M  V30 2264 C 212.815 -3.57825 3.926 0
M  V30 2265 C 211.854 -3.3498 5.12303 0
M  V30 2266 N 210.991 -4.52891 5.36502 0
M  V30 2267 H 215.831 -0.809472 2.86795 0
M  V30 2268 H 213.368 -0.388237 1.41884 0
M  V30 2269 H 215.326 -3.27346 2.58652 0
M  V30 2270 H 213.956 -2.84252 1.52972 0
M  V30 2271 H 213.008 -1.45711 3.51387 0
M  V30 2272 H 214.32 -2.11145 4.51906 0
M  V30 2273 H 213.474 -4.43624 4.13863 0
M  V30 2274 H 212.213 -3.81753 3.03506 0
M  V30 2275 H 211.218 -2.4757 4.90906 0
M  V30 2276 H 212.443 -3.12444 6.02956 0
M  V30 2277 H 210.389 -4.76979 4.50363 0
M  V30 2278 H 210.306 -4.35001 6.18312 0
M  V30 2279 H 211.574 -5.39884 5.62268 0
M  V30 2280 N 215.803 -1.52179 -0.40978 0
M  V30 2281 C 217.05 -1.66206 -1.15679 0
M  V30 2282 C 217.378 -0.391674 -1.90516 0
M  V30 2283 O 216.633 0.62533 -1.8544 0
M  V30 2284 C 216.932 -2.83428 -2.17723 0
M  V30 2285 C 216.598 -4.21672 -1.59699 0
M  V30 2286 C 215.26 -4.59274 -1.43599 0
M  V30 2287 C 217.612 -5.07825 -1.17317 0
M  V30 2288 C 214.94 -5.80709 -0.836328 0
M  V30 2289 C 217.292 -6.29864 -0.587691 0
M  V30 2290 C 215.956 -6.66216 -0.413818 0
M  V30 2291 H 215.226 -0.608192 -0.423301 0
M  V30 2292 H 217.873 -1.86279 -0.444097 0
M  V30 2293 H 216.178 -2.57687 -2.95135 0
M  V30 2294 H 217.875 -2.91477 -2.75394 0
M  V30 2295 H 214.465 -3.9204 -1.73213 0
M  V30 2296 H 218.649 -4.79359 -1.28565 0
M  V30 2297 H 213.905 -6.07498 -0.689626 0
M  V30 2298 H 218.079 -6.95948 -0.250894 0
M  V30 2299 H 215.706 -7.60182 0.0529471 0
M  V30 2300 N 217.281 0.66697 -1.42791 0
M  V30 2301 C 218.527 1.4291 -1.43891 0
M  V30 2302 C 218.86 1.94114 -0.0578972 0
M  V30 2303 O 218.135 1.71414 0.91911 0
M  V30 2304 C 218.418 2.62049 -2.46987 0
M  V30 2305 C 218.271 2.16426 -3.94309 0
M  V30 2306 C 219.59 3.64266 -2.46978 0
M  V30 2307 H 216.709 0.518306 -0.523954 0
M  V30 2308 H 219.351 0.757321 -1.74255 0
M  V30 2309 H 217.501 3.19361 -2.21225 0
M  V30 2310 H 219.173 1.64221 -4.31079 0
M  V30 2311 H 217.416 1.47925 -4.078 0
M  V30 2312 H 218.087 3.02038 -4.62036 0
M  V30 2313 H 220.563 3.16686 -2.69906 0
M  V30 2314 H 219.439 4.45196 -3.21079 0
M  V30 2315 H 219.7 4.15927 -1.49857 0
M  V30 2316 N 218.759 1.29093 0.90403 0
M  V30 2317 C 220.17 1.15186 1.46932 0
M  V30 2318 C 220.521 -0.254587 1.94541 0
M  V30 2319 O 219.646 -1.14972 1.83332 0
M  V30 2320 C 220.241 2.08492 2.67051 0
M  V30 2321 C 218.8 1.98621 3.19729 0
M  V30 2322 C 217.947 1.9967 1.92425 0
M  V30 2323 H 220.898 1.41641 0.715789 0
M  V30 2324 H 220.919 1.65461 3.42641 0
M  V30 2325 H 220.431 3.10847 2.3237 0
M  V30 2326 H 218.532 0.993389 3.59114 0
M  V30 2327 H 218.645 2.86068 3.8432 0
M  V30 2328 H 217.009 1.44208 2.09943 0
M  V30 2329 H 217.792 3.03721 1.60026 0
M  V30 2330 N 220.237 -1.11381 1.11499 0
M  V30 2331 C 221.486 -1.82494 0.858993 0
M  V30 2332 C 221.799 -1.85605 -0.617278 0
M  V30 2333 O 223.005 -2.52824 -0.989552 0
M  V30 2334 C 221.461 -3.27745 1.48699 0
M  V30 2335 C 221.069 -3.32961 2.99735 0
M  V30 2336 C 222.813 -4.03754 1.31085 0
M  V30 2337 C 220.72 -4.72612 3.55516 0
M  V30 2338 H 219.65 -0.683802 0.317696 0
M  V30 2339 H 222.301 -1.25331 1.34031 0
M  V30 2340 H 220.683 -3.84844 0.933339 0
M  V30 2341 H 221.857 -2.85741 3.61509 0
M  V30 2342 H 220.172 -2.70433 3.16631 0
M  V30 2343 H 222.769 -5.06891 1.70192 0
M  V30 2344 H 223.112 -4.15527 0.253496 0
M  V30 2345 H 223.645 -3.53043 1.83318 0
M  V30 2346 H 220.384 -4.66036 4.60967 0
M  V30 2347 H 219.904 -5.2024 2.98513 0
M  V30 2348 H 221.583 -5.4157 3.53992 0
M  V30 2349 N 221.715 -0.905404 -1.28997 0
M  V30 2350 C 222.961 -0.535039 -1.95615 0
M  V30 2351 C 223.294 0.917404 -1.71165 0
M  V30 2352 O 222.569 1.65123 -1.02785 0
M  V30 2353 C 222.852 -0.834918 -3.50287 0
M  V30 2354 C 222.705 -2.33948 -3.84172 0
M  V30 2355 C 224.024 -0.325318 -4.38896 0
M  V30 2356 H 221.143 -0.195861 -0.710498 0
M  V30 2357 H 223.785 -1.13313 -1.52513 0
M  V30 2358 H 221.935 -0.325904 -3.87131 0
M  V30 2359 H 223.607 -2.91847 -3.57243 0
M  V30 2360 H 221.85 -2.79789 -3.31513 0
M  V30 2361 H 222.521 -2.49987 -4.92149 0
M  V30 2362 H 224.997 -0.761256 -4.09077 0
M  V30 2363 H 223.873 -0.564295 -5.45992 0
M  V30 2364 H 224.134 0.774144 -4.35269 0
M  V30 2365 N 223.193 1.4272 -0.668489 0
M  V30 2366 C 224.103 2.34596 0.0139753 0
M  V30 2367 C 225.119 1.5474 0.795703 0
M  V30 2368 O 226.295 1.87334 0.739466 0
M  V30 2369 C 223.36 3.33202 0.957982 0
M  V30 2370 C 222.421 4.28957 0.17149 0
M  V30 2371 C 221.654 5.22853 1.07053 0
M  V30 2372 O 221.877 5.21531 2.31001 0
M  V30 2373 O 220.811 5.9952 0.534727 0
M  V30 2374 H 224.637 2.9448 -0.742661 0
M  V30 2375 H 222.222 1.43117 -0.428705 0
M  V30 2376 H 224.104 3.93796 1.50008 0
M  V30 2377 H 222.779 2.758 1.69458 0
M  V30 2378 H 221.686 3.71796 -0.414558 0
M  V30 2379 H 223.019 4.89383 -0.52586 0
M  V30 2380 N 224.671 0.411399 1.52136 0
M  V30 2381 C 225.896 -0.165538 2.06738 0
M  V30 2382 C 226.321 -1.379 1.27926 0
M  V30 2383 O 225.679 -1.78628 0.310114 0
M  V30 2384 C 225.727 -0.492124 3.57226 0
M  V30 2385 O 224.831 -1.58276 3.80818 0
M  V30 2386 H 224.172 -0.0132132 0.663869 0
M  V30 2387 H 226.702 0.585253 1.96051 0
M  V30 2388 H 226.712 -0.750104 4.01045 0
M  V30 2389 H 225.387 0.394922 4.14021 0
M  V30 2390 H 223.964 -1.31677 3.48877 0
M  V30 2391 N 226.149 -1.5696 0.141893 0
M  V30 2392 C 227.097 -2.17784 -0.816874 0
M  V30 2393 C 228.091 -1.1334 -1.25899 0
M  V30 2394 O 229.297 -1.316 -1.22806 0
M  V30 2395 H 225.672 -0.697278 -0.281615 0
M  V30 2396 H 227.643 -2.97087 -0.279621 0
M  V30 2397 C 226.392 -2.80983 -2.04802 0
M  V30 2398 H 225.715 -3.61062 -1.7168 0
M  V30 2399 H 227.155 -3.2705 -2.69841 0
M  V30 2400 C 225.614 -1.79228 -2.8527 0
M  V30 2401 O 226.144 -1.25962 -3.8144 0
M  V30 2402 N 224.35 -1.48647 -2.49704 0
M  V30 2403 H 223.897 -1.92155 -1.71564 0
M  V30 2404 H 223.855 -0.808115 -3.03837 0
M  V30 2405 N 227.627 0.131896 -1.57047 0
M  V30 2406 C 228.537 1.1815 -2.02676 0
M  V30 2407 C 229.553 1.46113 -0.944824 0
M  V30 2408 O 230.729 1.57485 -1.25541 0
M  V30 2409 C 227.794 2.49139 -2.41103 0
M  V30 2410 C 226.855 2.28688 -3.63318 0
M  V30 2411 C 226.088 3.53431 -3.99903 0
M  V30 2412 O 226.311 4.60223 -3.36973 0
M  V30 2413 O 225.245 3.45198 -4.93074 0
M  V30 2414 H 229.071 0.824069 -2.92306 0
M  V30 2415 H 226.656 0.341745 -1.45439 0
M  V30 2416 H 228.538 3.26338 -2.66611 0
M  V30 2417 H 227.213 2.84382 -1.54624 0
M  V30 2418 H 226.12 1.4939 -3.42977 0
M  V30 2419 H 227.453 1.98355 -4.50462 0
M  V30 2420 N 229.106 1.52395 0.401703 0
M  V30 2421 C 230.039 1.70999 1.51111 0
M  V30 2422 C 231.017 0.55765 1.52738 0
M  V30 2423 O 232.201 0.785912 1.71335 0
M  V30 2424 C 229.328 1.75607 2.8962 0
M  V30 2425 C 228.374 2.97227 3.05873 0
M  V30 2426 S 229.207 4.57439 2.78405 0
M  V30 2427 C 230.363 4.64844 4.19131 0
M  V30 2428 H 230.596 2.6483 1.35102 0
M  V30 2429 H 228.129 1.42527 0.593762 0
M  V30 2430 H 230.087 1.78947 3.69443 0
M  V30 2431 H 228.748 0.828914 3.02965 0
M  V30 2432 H 227.941 2.96955 4.07227 0
M  V30 2433 H 227.543 2.91813 2.33925 0
M  V30 2434 H 229.835 4.42677 5.12877 0
M  V30 2435 H 230.778 5.66807 4.24424 0
M  V30 2436 H 231.186 3.93804 4.04448 0
M  V30 2437 N 230.584 -0.659388 1.43143 0
M  V30 2438 C 231.824 -1.43121 1.45931 0
M  V30 2439 C 232.188 -1.91838 0.0789298 0
M  V30 2440 O 233.389 -2.68794 -0.018491 0
M  V30 2441 C 231.66 -2.58534 2.46769 0
M  V30 2442 S 233.219 -3.47154 2.68384 0
M  V30 2443 H 230.037 -0.488624 0.516496 0
M  V30 2444 H 232.639 -0.766128 1.79863 0
M  V30 2445 H 231.343 -2.21007 3.45809 0
M  V30 2446 H 230.874 -3.29898 2.14315 0
M  V30 2447 H 232.889 -4.55051 1.97845 0
M  V30 2448 N 232.062 -1.29571 -0.897171 0
M  V30 2449 C 233.287 -1.20705 -1.68656 0
M  V30 2450 C 233.712 0.228582 -1.86706 0
M  V30 2451 O 233.07 1.16494 -1.3892 0
M  V30 2452 C 233.118 -1.9282 -3.04717 0
M  V30 2453 O 232.222 -1.24697 -3.93096 0
M  V30 2454 H 231.563 -0.418126 -0.515816 0
M  V30 2455 H 234.093 -1.71183 -1.12061 0
M  V30 2456 H 234.103 -2.01372 -3.54843 0
M  V30 2457 H 232.778 -2.97239 -2.90899 0
M  V30 2458 H 231.355 -1.2442 -3.51531 0
M  V30 2459 N 233.54 1.10788 -1.12088 0
M  V30 2460 C 234.765 1.87002 -0.896949 0
M  V30 2461 C 235.19 1.79933 0.548261 0
M  V30 2462 O 234.548 1.16662 1.38779 0
M  V30 2463 C 234.596 3.3349 -1.37174 0
M  V30 2464 O 233.7 4.08745 -0.547831 0
M  V30 2465 H 233.041 0.580397 -0.322545 0
M  V30 2466 H 235.571 1.39996 -1.49206 0
M  V30 2467 H 235.581 3.84339 -1.36922 0
M  V30 2468 H 234.256 3.37951 -2.42408 0
M  V30 2469 H 232.833 3.6776 -0.617034 0
M  V30 2470 N 235.018 0.912232 1.28515 0
M  V30 2471 C 236.267 0.540504 1.94323 0
M  V30 2472 C 236.58 -0.920044 1.72611 0
M  V30 2473 O 237.786 -1.39986 2.32629 0
M  V30 2474 C 236.242 0.915803 3.48053 0
M  V30 2475 C 235.85 2.39598 3.78546 0
M  V30 2476 C 237.594 0.614588 4.20027 0
M  V30 2477 C 235.501 2.71148 5.25578 0
M  V30 2478 H 234.431 0.198418 0.727424 0
M  V30 2479 H 237.082 1.11094 1.46049 0
M  V30 2480 H 235.464 0.274168 3.9505 0
M  V30 2481 H 236.638 3.08422 3.42364 0
M  V30 2482 H 234.953 2.66749 3.1974 0
M  V30 2483 H 237.55 0.827002 5.28266 0
M  V30 2484 H 237.893 -0.447531 4.13887 0
M  V30 2485 H 238.426 1.21462 3.78803 0
M  V30 2486 H 235.165 3.76207 5.36794 0
M  V30 2487 H 234.685 2.0696 5.62963 0
M  V30 2488 H 236.364 2.58072 5.93302 0
M  V30 2489 N 236.496 -1.42363 0.676048 0
M  V30 2490 C 237.459 -2.29199 0.00766941 0
M  V30 2491 C 238.459 -1.43389 -0.727745 0
M  V30 2492 O 239.649 -1.64764 -0.56556 0
M  V30 2493 C 236.781 -3.2591 -0.999785 0
M  V30 2494 H 237.974 -2.89794 0.771988 0
M  V30 2495 H 235.527 -1.50024 0.438468 0
M  V30 2496 H 236.262 -2.70256 -1.79255 0
M  V30 2497 H 236.047 -3.89202 -0.475829 0
M  V30 2498 H 237.537 -3.91028 -1.46583 0
M  V30 2499 N 237.974 -0.419461 -1.51915 0
M  V30 2500 C 238.921 0.400927 -2.27291 0
M  V30 2501 C 239.891 1.03224 -1.30131 0
M  V30 2502 O 241.076 1.05455 -1.59009 0
M  V30 2503 C 238.216 1.50603 -3.10504 0
M  V30 2504 C 237.329 0.89462 -4.22635 0
M  V30 2505 C 236.464 1.97328 -4.93189 0
M  V30 2506 C 235.503 1.33935 -5.97267 0
M  V30 2507 N 234.64 2.3586 -6.61298 0
M  V30 2508 H 239.48 -0.248251 -2.96964 0
M  V30 2509 H 237.017 -0.134266 -1.46486 0
M  V30 2510 H 238.975 2.15783 -3.57062 0
M  V30 2511 H 237.605 2.12509 -2.42981 0
M  V30 2512 H 236.657 0.131583 -3.80172 0
M  V30 2513 H 237.969 0.391641 -4.9726 0
M  V30 2514 H 237.123 2.70211 -5.43204 0
M  V30 2515 H 235.862 2.50994 -4.18155 0
M  V30 2516 H 234.867 0.595896 -5.46561 0
M  V30 2517 H 236.092 0.810252 -6.74249 0
M  V30 2518 H 234.038 2.88639 -5.89087 0
M  V30 2519 H 233.955 1.90403 -7.3163 0
M  V30 2520 H 235.223 3.08282 -7.15949 0
M  V30 2521 N 239.452 1.56882 -0.150215 0
M  V30 2522 C 240.399 2.16922 0.788244 0
M  V30 2523 C 241.369 1.10303 1.24187 0
M  V30 2524 O 242.554 1.38359 1.31383 0
M  V30 2525 C 239.694 2.79754 2.02068 0
M  V30 2526 C 238.807 4.00775 1.61257 0
M  V30 2527 C 237.942 4.51595 2.79705 0
M  V30 2528 C 236.981 5.65074 2.35282 0
M  V30 2529 N 236.118 6.10499 3.4675 0
M  V30 2530 H 240.958 2.96779 0.269444 0
M  V30 2531 H 238.495 1.46599 0.12128 0
M  V30 2532 H 240.453 3.14329 2.74323 0
M  V30 2533 H 239.083 2.02536 2.51354 0
M  V30 2534 H 238.135 3.72158 0.787553 0
M  V30 2535 H 239.447 4.82978 1.24633 0
M  V30 2536 H 238.601 4.88242 3.60145 0
M  V30 2537 H 237.34 3.68406 3.19576 0
M  V30 2538 H 236.345 5.28 1.53283 0
M  V30 2539 H 237.57 6.50052 1.96493 0
M  V30 2540 H 235.516 5.30243 3.86236 0
M  V30 2541 H 235.433 6.87637 3.14152 0
M  V30 2542 H 236.701 6.51791 4.27537 0
M  V30 2543 N 240.93 -0.123565 1.57115 0
M  V30 2544 C 242.179 -0.830704 1.83799 0
M  V30 2545 C 242.492 -1.81259 0.735158 0
M  V30 2546 O 243.698 -2.56558 0.888278 0
M  V30 2547 C 242.154 -1.52802 3.25852 0
M  V30 2548 C 241.762 -0.587356 4.44133 0
M  V30 2549 C 243.506 -2.22056 3.61789 0
M  V30 2550 C 241.413 -1.28764 5.77212 0
M  V30 2551 H 240.343 -0.313967 0.685522 0
M  V30 2552 H 242.994 -0.0834359 1.8331 0
M  V30 2553 H 241.376 -2.32175 3.20797 0
M  V30 2554 H 242.55 0.172829 4.60476 0
M  V30 2555 H 240.865 -0.00201892 4.164 0
M  V30 2556 H 243.462 -2.75131 4.58483 0
M  V30 2557 H 243.805 -2.99644 2.88997 0
M  V30 2558 H 244.338 -1.49576 3.68608 0
M  V30 2559 H 241.077 -0.55314 6.53162 0
M  V30 2560 H 240.597 -2.01995 5.64764 0
M  V30 2561 H 242.276 -1.8221 6.20813 0
M  V30 2562 N 242.408 -1.52605 -0.393616 0
M  V30 2563 C 243.654 -1.67672 -1.14079 0
M  V30 2564 C 243.987 -0.413121 -1.89755 0
M  V30 2565 O 243.262 0.588952 -1.85369 0
M  V30 2566 C 243.545 -2.9088 -2.12276 0
M  V30 2567 C 243.398 -4.27329 -1.40394 0
M  V30 2568 C 244.717 -3.09628 -3.12759 0
M  V30 2569 H 241.836 -0.610168 -0.413356 0
M  V30 2570 H 244.478 -1.85193 -0.424696 0
M  V30 2571 H 242.628 -2.76073 -2.73342 0
M  V30 2572 H 244.3 -4.53894 -0.82327 0
M  V30 2573 H 242.543 -4.2802 -0.705801 0
M  V30 2574 H 243.214 -5.09615 -2.12123 0
M  V30 2575 H 245.69 -3.23436 -2.61779 0
M  V30 2576 H 244.566 -3.97322 -3.78717 0
M  V30 2577 H 244.827 -2.23637 -3.81365 0
M  V30 2578 N 243.887 0.651787 -1.4349 0
M  V30 2579 C 245.117 1.43728 -1.48411 0
M  V30 2580 C 245.525 1.8893 -0.10103 0
M  V30 2581 O 244.868 1.60182 0.899307 0
M  V30 2582 C 244.93 2.70411 -2.36893 0
M  V30 2583 C 244.594 2.4714 -3.8441 0
M  V30 2584 C 245.591 2.10271 -4.75481 0
M  V30 2585 C 243.276 2.6142 -4.28912 0
M  V30 2586 C 245.27 1.87982 -6.0905 0
M  V30 2587 C 242.957 2.38746 -5.62533 0
M  V30 2588 C 243.955 2.02083 -6.5242 0
M  V30 2589 O 243.643 1.79647 -7.8357 0
M  V30 2590 H 243.375 0.447962 -0.506267 0
M  V30 2591 H 245.929 0.80624 -1.88915 0
M  V30 2592 H 244.159 3.36079 -1.91278 0
M  V30 2593 H 245.848 3.32364 -2.33 0
M  V30 2594 H 246.614 1.98814 -4.42378 0
M  V30 2595 H 242.493 2.88931 -3.59222 0
M  V30 2596 H 246.037 1.5929 -6.7917 0
M  V30 2597 H 241.934 2.49806 -5.95203 0
M  V30 2598 H 242.702 1.9406 -7.95162 0
M  V30 2599 N 245.365 1.30045 0.890287 0
M  V30 2600 C 246.642 1.09227 1.62262 0
M  V30 2601 C 247.022 -0.360305 2.08002 0
M  V30 2602 O 246.37 -1.35084 1.84295 0
M  V30 2603 C 246.58 2.08835 2.79623 0
M  V30 2604 C 247.928 2.40266 3.50082 0
M  V30 2605 O 248.952 2.07104 2.89804 0
M  V30 2606 O 247.811 2.96967 4.58773 0
M  V30 2607 H 244.905 0.419132 0.712922 0
M  V30 2608 H 247.451 1.41451 0.937529 0
M  V30 2609 H 246.223 3.06633 2.43089 0
M  V30 2610 H 245.846 1.77397 3.55832 0
M  V30 2611 N 246.843 -1.10192 1.12674 0
M  V30 2612 C 248.068 -1.86523 0.906853 0
M  V30 2613 C 248.493 -1.80221 -0.538711 0
M  V30 2614 O 247.851 -1.17396 -1.38158 0
M  V30 2615 C 247.899 -3.32758 1.3894 0
M  V30 2616 O 247.003 -4.08449 0.5695 0
M  V30 2617 H 246.344 -0.578678 0.325619 0
M  V30 2618 H 248.874 -1.39203 1.49946 0
M  V30 2619 H 248.884 -3.83608 1.38958 0
M  V30 2620 H 247.559 -3.36661 2.44197 0
M  V30 2621 H 246.136 -3.67427 0.636528 0
M  V30 2622 N 248.321 -0.919034 -1.28029 0
M  V30 2623 C 249.251 -0.428581 -2.29533 0
M  V30 2624 C 250.232 0.50659 -1.62381 0
M  V30 2625 O 251.417 0.413195 -1.89753 0
M  V30 2626 C 248.547 0.327388 -3.45753 0
M  V30 2627 C 247.501 -0.519137 -4.2484 0
M  V30 2628 C 246.827 0.365486 -5.33449 0
M  V30 2629 C 248.127 -1.77914 -4.91064 0
M  V30 2630 H 249.821 -1.27687 -2.70807 0
M  V30 2631 H 247.367 -0.615428 -1.30186 0
M  V30 2632 H 249.32 0.681378 -4.15855 0
M  V30 2633 H 248.044 1.20963 -3.03374 0
M  V30 2634 H 246.703 -0.855717 -3.56473 0
M  V30 2635 H 246.351 1.24642 -4.87312 0
M  V30 2636 H 246.051 -0.197356 -5.87268 0
M  V30 2637 H 247.575 0.715241 -6.06396 0
M  V30 2638 H 248.989 -1.49374 -5.53498 0
M  V30 2639 H 247.386 -2.2848 -5.54903 0
M  V30 2640 H 248.456 -2.50382 -4.15255 0
M  V30 2641 N 249.799 1.42003 -0.683588 0
M  V30 2642 C 250.762 2.29191 -0.0198243 0
M  V30 2643 C 251.762 1.43773 0.72013 0
M  V30 2644 O 252.952 1.65061 0.556815 0
M  V30 2645 C 250.084 3.26435 0.982487 0
M  V30 2646 H 251.277 2.8938 -0.787345 0
M  V30 2647 H 248.83 1.49789 -0.446418 0
M  V30 2648 H 249.565 2.71203 1.77819 0
M  V30 2649 H 249.35 3.89449 0.455182 0
M  V30 2650 H 250.84 3.918 1.44508 0
M  V30 2651 N 251.277 0.427512 1.51691 0
M  V30 2652 C 252.688 -0.0378867 1.86662 0
M  V30 2653 C 253.039 -1.42819 1.34525 0
M  V30 2654 O 252.164 -2.05037 0.692014 0
M  V30 2655 C 252.759 -0.0755266 3.38716 0
M  V30 2656 C 251.318 -0.485309 3.73258 0
M  V30 2657 C 250.465 0.328399 2.75349 0
M  V30 2658 H 253.416 0.64379 1.45055 0
M  V30 2659 H 253.437 -0.887056 3.70016 0
M  V30 2660 H 252.949 0.936487 3.76632 0
M  V30 2661 H 251.05 -1.50329 3.40928 0
M  V30 2662 H 251.163 -0.21693 4.78609 0
M  V30 2663 H 249.527 -0.211905 2.53817 0
M  V30 2664 H 250.31 1.3391 3.16106 0
M  V30 2665 N 252.755 -1.56801 0.158532 0
M  V30 2666 C 253.685 -2.20347 -0.772609 0
M  V30 2667 C 254.666 -1.15518 -1.24859 0
M  V30 2668 O 255.851 -1.43902 -1.30406 0
M  V30 2669 C 252.981 -2.83417 -2.00729 0
M  V30 2670 C 251.935 -3.94174 -1.66765 0
M  V30 2671 C 251.261 -4.44233 -2.97592 0
M  V30 2672 C 252.561 -5.14392 -0.905447 0
M  V30 2673 H 254.255 -2.98413 -0.242959 0
M  V30 2674 H 251.801 -1.43537 -0.115419 0
M  V30 2675 H 253.754 -3.26543 -2.6636 0
M  V30 2676 H 252.478 -2.02701 -2.56086 0
M  V30 2677 H 251.137 -3.51684 -1.03508 0
M  V30 2678 H 250.785 -3.60325 -3.50963 0
M  V30 2679 H 250.485 -5.18945 -2.75626 0
M  V30 2680 H 252.009 -4.90037 -3.64274 0
M  V30 2681 H 253.423 -5.5429 -1.46408 0
M  V30 2682 H 251.82 -5.9494 -0.7853 0
M  V30 2683 H 252.89 -4.84795 0.100668 0
M  V30 2684 N 254.233 0.115231 -1.57178 0
M  V30 2685 C 255.479 0.82357 -1.85325 0
M  V30 2686 C 255.812 1.79349 -0.744814 0
M  V30 2687 O 255.087 1.92899 0.249024 0
M  V30 2688 C 255.37 1.57014 -3.24066 0
M  V30 2689 C 255.223 0.619565 -4.45513 0
M  V30 2690 C 256.542 2.52545 -3.60429 0
M  V30 2691 H 253.661 0.297948 -0.674089 0
M  V30 2692 H 256.303 0.0877138 -1.89797 0
M  V30 2693 H 254.453 2.19742 -3.20383 0
M  V30 2694 H 256.125 0.000837639 -4.613 0
M  V30 2695 H 254.368 -0.0686174 -4.33746 0
M  V30 2696 H 255.039 1.17866 -5.3927 0
M  V30 2697 H 257.515 1.9992 -3.64926 0
M  V30 2698 H 256.391 3.01811 -4.58477 0
M  V30 2699 H 256.652 3.35383 -2.88047 0
M  V30 2700 N 255.711 1.52812 0.385517 0
M  V30 2701 C 256.959 1.67694 1.12797 0
M  V30 2702 C 257.28 0.421115 1.90399 0
M  V30 2703 O 256.55 -0.564551 1.87589 0
M  V30 2704 H 255.13 0.618155 0.419396 0
M  V30 2705 H 257.792 1.89938 0.436972 0
M  V30 2706 H 256.888 2.52896 1.82894 0
M  V30 2707 N 257.189 -0.644168 1.43834 0
M  V30 2708 C 258.136 -1.75671 1.49694 0
M  V30 2709 C 259.106 -1.6246 0.345809 0
M  V30 2710 O 260.291 -1.82573 0.554234 0
M  V30 2711 C 257.431 -3.13867 1.43463 0
M  V30 2712 C 256.544 -3.38147 2.6885 0
M  V30 2713 C 255.679 -4.66241 2.54544 0
M  V30 2714 C 254.718 -4.83657 3.75157 0
M  V30 2715 N 253.855 -6.03016 3.59605 0
M  V30 2716 H 258.695 -1.69998 2.44754 0
M  V30 2717 H 256.232 -0.829458 1.21484 0
M  V30 2718 H 258.19 -3.9377 1.37843 0
M  V30 2719 H 256.82 -3.18588 0.519783 0
M  V30 2720 H 255.872 -2.52276 2.84712 0
M  V30 2721 H 257.184 -3.46899 3.58417 0
M  V30 2722 H 256.338 -5.54285 2.46683 0
M  V30 2723 H 255.077 -4.59826 1.62516 0
M  V30 2724 H 254.082 -3.94046 3.83416 0
M  V30 2725 H 255.307 -4.91896 4.68204 0
M  V30 2726 H 253.253 -5.97715 2.7032 0
M  V30 2727 H 253.17 -6.12766 4.42779 0
M  V30 2728 H 254.438 -6.93657 3.55613 0
M  V30 2729 N 258.668 -1.30515 -0.883378 0
M  V30 2730 C 259.917 -1.18795 -1.63005 0
M  V30 2731 C 260.23 0.255923 -1.93919 0
M  V30 2732 O 261.436 0.494654 -2.66956 0
M  V30 2733 C 259.892 -2.07878 -2.93794 0
M  V30 2734 C 259.5 -3.57184 -2.70414 0
M  V30 2735 C 261.244 -2.04924 -3.71761 0
M  V30 2736 C 259.151 -4.38317 -3.97029 0
M  V30 2737 H 258.081 -0.441031 -0.611562 0
M  V30 2738 H 260.732 -1.55275 -0.977854 0
M  V30 2739 H 259.114 -1.64283 -3.60315 0
M  V30 2740 H 260.288 -4.08937 -2.12384 0
M  V30 2741 H 258.603 -3.61976 -2.0582 0
M  V30 2742 H 261.2 -2.62792 -4.65665 0
M  V30 2743 H 261.543 -1.0331 -4.03277 0
M  V30 2744 H 262.076 -2.46649 -3.12104 0
M  V30 2745 H 258.815 -5.40632 -3.70671 0
M  V30 2746 H 258.335 -3.91326 -4.54559 0
M  V30 2747 H 260.014 -4.49834 -4.65036 0
M  V30 2748 N 260.146 1.09593 -1.13257 0
M  V30 2749 C 261.423 1.78293 -0.804432 0
M  V30 2750 C 261.803 1.99004 0.70431 0
M  V30 2751 O 261.151 1.59007 1.641 0
M  V30 2752 C 261.361 3.10707 -1.5894 0
M  V30 2753 C 262.709 3.85443 -1.78099 0
M  V30 2754 O 263.733 3.20454 -1.55525 0
M  V30 2755 O 262.592 5.02108 -2.15753 0
M  V30 2756 H 259.686 0.773156 -0.293528 0
M  V30 2757 H 262.232 1.16164 -1.23709 0
M  V30 2758 H 261.004 2.91106 -2.61482 0
M  V30 2759 H 260.627 3.80558 -1.15157 0
M  V30 2760 N 261.624 0.925811 1.2754 0
M  V30 2761 C 262.852 0.581509 1.9856 0
M  V30 2762 C 263.267 -0.840041 1.69082 0
M  V30 2763 O 262.624 -1.55805 0.950312 0
M  V30 2764 C 262.675 0.795589 3.52637 0
M  V30 2765 O 262.396 2.16121 3.81082 0
M  V30 2766 C 263.897 0.459744 4.4091 0
M  V30 2767 H 261.117 0.220538 0.633722 0
M  V30 2768 H 263.661 1.24232 1.6244 0
M  V30 2769 H 261.816 0.18161 3.86974 0
M  V30 2770 H 262.23 2.2098 4.75676 0
M  V30 2771 H 263.704 0.660244 5.48037 0
M  V30 2772 H 264.181 -0.604625 4.35018 0
M  V30 2773 H 264.787 1.05178 4.12089 0
M  V30 2774 N 263.102 -1.41638 0.69111 0
M  V30 2775 C 264.032 -2.3347 0.037248 0
M  V30 2776 C 265.013 -1.51575 -0.771947 0
M  V30 2777 O 266.198 -1.80126 -0.72582 0
M  V30 2778 C 263.328 -3.35354 -0.903064 0
M  V30 2779 C 262.282 -4.27526 -0.201288 0
M  V30 2780 C 261.608 -5.19747 -1.25565 0
M  V30 2781 C 262.908 -5.13959 0.929689 0
M  V30 2782 H 264.602 -2.88397 0.804227 0
M  V30 2783 H 262.148 -1.38669 0.388189 0
M  V30 2784 H 264.101 -3.98519 -1.36969 0
M  V30 2785 H 262.825 -2.78767 -1.70166 0
M  V30 2786 H 261.484 -3.65779 0.245265 0
M  V30 2787 H 261.132 -4.59479 -2.04666 0
M  V30 2788 H 260.832 -5.8225 -0.791128 0
M  V30 2789 H 262.356 -5.85789 -1.72288 0
M  V30 2790 H 263.77 -5.70718 0.543546 0
M  V30 2791 H 262.167 -5.85379 1.32103 0
M  V30 2792 H 263.237 -4.51389 1.77133 0
M  V30 2793 N 264.58 -0.43555 -1.51462 0
M  V30 2794 C 265.826 0.131709 -2.02372 0
M  V30 2795 C 266.159 1.42516 -1.3192 0
M  V30 2796 O 265.434 1.89606 -0.433573 0
M  V30 2797 C 265.717 0.352301 -3.58373 0
M  V30 2798 C 265.57 -0.959676 -4.39443 0
M  V30 2799 C 266.889 1.12286 -4.25535 0
M  V30 2800 H 264.008 0.0463936 -0.735538 0
M  V30 2801 H 266.65 -0.574197 -1.81116 0
M  V30 2802 H 264.8 0.9536 -3.76615 0
M  V30 2803 H 266.472 -1.59482 -4.32855 0
M  V30 2804 H 264.715 -1.56468 -4.04599 0
M  V30 2805 H 265.386 -0.759394 -5.46752 0
M  V30 2806 H 267.862 0.613545 -4.11552 0
M  V30 2807 H 266.738 1.24598 -5.34571 0
M  V30 2808 H 266.999 2.15048 -3.86273 0
M  V30 2809 N 266.058 1.56714 -0.166846 0
M  V30 2810 C 266.988 2.20754 0.760913 0
M  V30 2811 C 267.969 1.16178 1.24244 0
M  V30 2812 O 269.154 1.44592 1.29641 0
M  V30 2813 C 266.284 2.84478 1.99223 0
M  V30 2814 C 265.238 3.95053 1.64672 0
M  V30 2815 C 264.564 4.45805 2.95232 0
M  V30 2816 C 265.864 5.14865 0.878155 0
M  V30 2817 H 267.558 2.98537 0.22713 0
M  V30 2818 H 265.104 1.43596 0.107805 0
M  V30 2819 H 267.057 3.27951 2.64624 0
M  V30 2820 H 265.781 2.04056 2.55007 0
M  V30 2821 H 264.44 3.52228 1.01641 0
M  V30 2822 H 264.088 3.62181 3.49047 0
M  V30 2823 H 263.788 5.204 2.7287 0
M  V30 2824 H 265.312 4.91962 3.6167 0
M  V30 2825 H 266.726 5.55059 1.43466 0
M  V30 2826 H 265.123 5.95348 0.753738 0
M  V30 2827 H 266.193 4.84735 -0.126377 0
M  V30 2828 N 267.536 -0.106894 1.57237 0
M  V30 2829 C 268.784 -0.810921 1.85117 0
M  V30 2830 C 269.105 -1.7984 0.753827 0
M  V30 2831 O 268.375 -1.94649 -0.221056 0
M  V30 2832 H 266.955 -0.302466 0.683025 0
M  V30 2833 H 269.617 -0.0913324 1.94686 0
M  V30 2834 H 268.713 -1.34875 2.81452 0
M  V30 2835 N 269.014 -1.53014 -0.377408 0
M  V30 2836 C 270.254 -1.70318 -1.1301 0
M  V30 2837 C 270.618 -0.439538 -1.86901 0
M  V30 2838 O 271.819 -0.489095 -2.64313 0
M  V30 2839 C 270.09 -2.91125 -2.07319 0
M  V30 2840 S 271.649 -3.29075 -2.90268 0
M  V30 2841 H 268.467 -0.599426 -0.382374 0
M  V30 2842 H 271.069 -1.91089 -0.412933 0
M  V30 2843 H 269.773 -3.81303 -1.51777 0
M  V30 2844 H 269.304 -2.7272 -2.83526 0
M  V30 2845 H 271.319 -2.80165 -4.09539 0
M  V30 2846 N 270.492 0.636531 -1.44174 0
M  V30 2847 C 271.72 1.42353 -1.50144 0
M  V30 2848 C 272.135 1.88389 -0.124575 0
M  V30 2849 O 271.492 1.6051 0.868489 0
M  V30 2850 C 271.543 2.64744 -2.46156 0
M  V30 2851 O 271.264 2.20629 -3.7849 0
M  V30 2852 C 272.765 3.57929 -2.61537 0
M  V30 2853 H 269.985 0.436752 -0.5094 0
M  V30 2854 H 272.529 0.778933 -1.89084 0
M  V30 2855 H 270.684 3.25307 -2.10366 0
M  V30 2856 H 271.098 2.99938 -4.30276 0
M  V30 2857 H 272.572 4.40428 -3.32757 0
M  V30 2858 H 273.049 4.06382 -1.66585 0
M  V30 2859 H 273.655 3.03238 -2.98206 0
M  V30 2860 N 271.97 1.30982 0.876444 0
M  V30 2861 C 272.92 1.14688 1.97055 0
M  V30 2862 C 273.904 0.0596593 1.60789 0
M  V30 2863 O 275.096 0.283892 1.74708 0
M  V30 2864 C 272.225 0.849627 3.3262 0
M  V30 2865 C 271.311 1.97752 3.75173 0
M  V30 2866 N 271.702 3.22384 3.89746 0
M  V30 2867 C 270 1.8758 4.04635 0
M  V30 2868 C 270.701 3.96121 4.25985 0
M  V30 2869 N 269.677 3.24237 4.36315 0
M  V30 2870 H 273.479 2.09204 2.06424 0
M  V30 2871 H 270.993 1.22445 1.06682 0
M  V30 2872 H 272.99 0.713895 4.10742 0
M  V30 2873 H 271.65 -0.087376 3.24582 0
M  V30 2874 H 272.661 3.57575 3.74647 0
M  V30 2875 H 269.338 1.01303 4.05024 0
M  V30 2876 H 270.728 5.03491 4.44911 0
M  V30 2877 N 273.449 -1.08991 1.13837 0
M  V30 2878 C 274.679 -1.84743 0.924859 0
M  V30 2879 C 275.087 -1.81629 -0.529874 0
M  V30 2880 O 274.43 -1.21397 -1.37872 0
M  V30 2881 C 274.492 -3.33568 1.34061 0
M  V30 2882 C 274.156 -3.60425 2.80968 0
M  V30 2883 C 275.153 -3.55771 3.79108 0
M  V30 2884 C 272.838 -3.88627 3.18236 0
M  V30 2885 C 274.832 -3.78939 5.12527 0
M  V30 2886 C 272.519 -4.11449 4.51833 0
M  V30 2887 C 273.517 -4.06598 5.48787 0
M  V30 2888 O 273.205 -4.28826 6.79973 0
M  V30 2889 H 272.937 -0.590258 0.329502 0
M  V30 2890 H 275.491 -1.38598 1.51591 0
M  V30 2891 H 273.721 -3.80442 0.692853 0
M  V30 2892 H 275.41 -3.90743 1.09886 0
M  V30 2893 H 276.176 -3.34005 3.51661 0
M  V30 2894 H 272.055 -3.91526 2.43369 0
M  V30 2895 H 275.599 -3.75068 5.88192 0
M  V30 2896 H 271.496 -4.32698 4.79002 0
M  V30 2897 H 272.264 -4.46264 6.86142 0
M  V30 2898 N 274.927 -0.932562 -1.27047 0
M  V30 2899 C 276.338 -0.619451 -1.76124 0
M  V30 2900 C 276.689 0.865397 -1.76083 0
M  V30 2901 O 275.814 1.67722 -1.36742 0
M  V30 2902 C 276.409 -1.11771 -3.19832 0
M  V30 2903 C 274.968 -0.855174 -3.66557 0
M  V30 2904 C 274.115 -1.27362 -2.46321 0
M  V30 2905 H 277.066 -1.11181 -1.13245 0
M  V30 2906 H 277.087 -0.46759 -3.77616 0
M  V30 2907 H 276.599 -2.19842 -3.1983 0
M  V30 2908 H 274.7 0.211524 -3.71999 0
M  V30 2909 H 274.813 -1.47613 -4.55793 0
M  V30 2910 H 273.177 -0.692119 -2.45116 0
M  V30 2911 H 273.96 -2.36307 -2.49025 0
M  V30 2912 N 276.405 1.4127 -0.698611 0
M  V30 2913 C 277.335 2.33447 -0.049629 0
M  V30 2914 C 278.316 1.51982 0.763898 0
M  V30 2915 O 279.501 1.80509 0.716257 0
M  V30 2916 C 276.631 3.35828 0.885267 0
M  V30 2917 C 275.585 4.27627 0.178613 0
M  V30 2918 C 274.911 5.20406 1.22807 0
M  V30 2919 C 276.211 5.13459 -0.956933 0
M  V30 2920 H 277.905 2.87966 -0.81951 0
M  V30 2921 H 275.451 1.38461 -0.395538 0
M  V30 2922 H 277.404 3.9924 1.34854 0
M  V30 2923 H 276.128 2.79666 1.68685 0
M  V30 2924 H 274.787 3.65643 -0.26466 0
M  V30 2925 H 274.435 4.60558 2.02226 0
M  V30 2926 H 274.135 5.82661 0.760239 0
M  V30 2927 H 275.659 5.86695 1.69179 0
M  V30 2928 H 277.073 5.70421 -0.573805 0
M  V30 2929 H 275.47 5.8467 -1.35205 0
M  V30 2930 H 276.54 4.50443 -1.79524 0
M  V30 2931 N 277.883 0.443576 1.51229 0
M  V30 2932 C 278.813 -0.355142 2.30783 0
M  V30 2933 C 279.794 -1.0154 1.36468 0
M  V30 2934 O 280.979 -1.01785 1.65389 0
M  V30 2935 C 278.109 -1.45312 3.15439 0
M  V30 2936 C 277.063 -0.916002 4.18083 0
M  V30 2937 C 276.389 -2.1102 4.91299 0
M  V30 2938 C 277.689 0.0538602 5.22272 0
M  V30 2939 H 279.383 0.308767 2.97804 0
M  V30 2940 H 276.929 0.149937 1.43217 0
M  V30 2941 H 278.882 -2.01914 3.69876 0
M  V30 2942 H 277.606 -2.14541 2.46252 0
M  V30 2943 H 276.265 -0.372145 3.64706 0
M  V30 2944 H 275.913 -2.78882 4.18609 0
M  V30 2945 H 275.613 -1.75717 5.60712 0
M  V30 2946 H 277.137 -2.68164 5.48562 0
M  V30 2947 H 278.551 -0.422069 5.71744 0
M  V30 2948 H 276.948 0.319776 5.99247 0
M  V30 2949 H 278.018 0.98858 4.74716 0
M  V30 2950 N 279.361 -1.56624 0.175154 0
M  V30 2951 C 280.777 -1.58571 -0.180966 0
M  V30 2952 C 280.977 -1.19065 -1.6256 0
M  V30 2953 O 280.033 -0.904044 -2.35761 0
M  V30 2954 C 281.346 -3.00522 0.103326 0
M  V30 2955 C 282.894 -3.12972 0.0418426 0
M  V30 2956 C 283.369 -4.57022 0.299175 0
M  V30 2957 N 284.86 -4.62541 0.247086 0
M  V30 2958 C 285.595 -5.71857 0.420318 0
M  V30 2959 N 285.091 -6.89717 0.652816 0
M  V30 2960 N 286.884 -5.60972 0.355957 0
M  V30 2961 H 279.035 -1.80589 1.11809 0
M  V30 2962 H 281.298 -0.837178 0.444788 0
M  V30 2963 H 281.004 -3.33916 1.10422 0
M  V30 2964 H 280.878 -3.72344 -0.603299 0
M  V30 2965 H 283.265 -2.79403 -0.949636 0
M  V30 2966 H 283.346 -2.43578 0.781238 0
M  V30 2967 H 282.99 -4.913 1.28788 0
M  V30 2968 H 282.92 -5.24579 -0.460876 0
M  V30 2969 H 285.411 -3.77829 0.0731895 0
M  V30 2970 H 285.724 -7.68911 0.774347 0
M  V30 2971 H 284.069 -6.91572 0.689476 0
M  V30 2972 H 287.26 -4.67773 0.174882 0
M  V30 2973 H 287.433 -6.46111 0.494388 0
M  V30 2974 N 280.839 0.0985539 -1.57292 0
M  V30 2975 C 282.25 0.653457 -1.74891 0
M  V30 2976 C 282.601 1.7929 -0.796838 0
M  V30 2977 O 281.726 2.16385 0.0254886 0
M  V30 2978 C 282.321 1.19216 -3.17133 0
M  V30 2979 C 280.88 1.69316 -3.36168 0
M  V30 2980 C 280.027 0.601294 -2.70702 0
M  V30 2981 H 282.978 -0.127497 -1.58187 0
M  V30 2982 H 282.999 2.06154 -3.19814 0
M  V30 2983 H 282.511 0.362635 -3.86402 0
M  V30 2984 H 280.612 2.5468 -2.71972 0
M  V30 2985 H 280.725 1.78853 -4.44464 0
M  V30 2986 H 279.089 1.0399 -2.32504 0
M  V30 2987 H 279.872 -0.217592 -3.4261 0
M  V30 2988 N 282.317 1.53212 0.369288 0
M  V30 2989 C 283.566 1.68436 1.10961 0
M  V30 2990 C 283.879 0.440738 1.9057 0
M  V30 2991 O 285.085 0.473446 2.6734 0
M  V30 2992 C 283.541 2.97744 2.0218 0
M  V30 2993 C 283.149 4.29355 1.279 0
M  V30 2994 C 284.893 3.22334 2.76226 0
M  V30 2995 C 282.8 5.49755 2.17999 0
M  V30 2996 H 281.73 0.627568 0.41794 0
M  V30 2997 H 284.381 1.79713 0.370884 0
M  V30 2998 H 282.763 2.8026 2.79768 0
M  V30 2999 H 283.937 4.57458 0.554007 0
M  V30 3000 H 282.252 4.11179 0.657311 0
M  V30 3001 H 284.849 4.09471 3.43857 0
M  V30 3002 H 285.192 2.38238 3.41392 0
M  V30 3003 H 285.725 3.40475 2.05723 0
M  V30 3004 H 282.464 6.36318 1.57417 0
M  V30 3005 H 281.984 5.25937 2.88359 0
M  V30 3006 H 283.663 5.84401 2.77641 0
M  V30 3007 N 283.795 -0.628877 1.44509 0
M  V30 3008 C 285.044 -1.38437 1.4669 0
M  V30 3009 C 285.357 -1.95322 0.104272 0
M  V30 3010 O 286.563 -2.715 0.00362163 0
M  V30 3011 C 285.019 -2.50659 2.5826 0
M  V30 3012 C 284.627 -2.00277 4.0074 0
M  V30 3013 C 286.371 -3.27844 2.69664 0
M  V30 3014 C 284.278 -3.09854 5.0373 0
M  V30 3015 H 283.208 -0.520245 0.545766 0
M  V30 3016 H 285.859 -0.676313 1.70582 0
M  V30 3017 H 284.241 -3.2405 2.27612 0
M  V30 3018 H 285.415 -1.33736 4.40966 0
M  V30 3019 H 283.73 -1.35901 3.93599 0
M  V30 3020 H 286.327 -4.09534 3.43781 0
M  V30 3021 H 286.67 -3.77471 1.75559 0
M  V30 3022 H 287.203 -2.61543 2.99733 0
M  V30 3023 H 283.942 -2.65168 5.99472 0
M  V30 3024 H 283.462 -3.7503 4.68095 0
M  V30 3025 H 285.141 -3.74592 5.27532 0
M  V30 3026 N 285.273 -1.31445 -0.869486 0
M  V30 3027 C 286.205 -1.14955 -1.98287 0
M  V30 3028 C 287.218 -0.0885037 -1.62559 0
M  V30 3029 O 288.407 -0.336044 -1.75308 0
M  V30 3030 C 285.507 -0.734255 -3.3085 0
M  V30 3031 C 284.68 -1.88042 -3.94917 0
M  V30 3032 C 283.739 -1.4511 -5.05796 0
M  V30 3033 O 282.765 -2.16082 -5.2659 0
M  V30 3034 N 283.967 -0.338763 -5.79511 0
M  V30 3035 H 286.732 -2.10856 -2.12979 0
M  V30 3036 H 284.293 -1.23786 -1.04349 0
M  V30 3037 H 286.285 -0.42975 -4.02412 0
M  V30 3038 H 284.855 0.133158 -3.12316 0
M  V30 3039 H 284.075 -2.35222 -3.1633 0
M  V30 3040 H 285.363 -2.6481 -4.34457 0
M  V30 3041 H 284.761 0.252274 -5.65137 0
M  V30 3042 H 283.318 -0.0937925 -6.51733 0
M  V30 3043 N 286.751 1.08385 -1.14413 0
M  V30 3044 C 287.699 2.17406 -0.826888 0
M  V30 3045 C 288.693 1.6827 0.195312 0
M  V30 3046 O 289.899 1.79927 0.0513892 0
M  V30 3047 H 286.274 0.70934 -0.249681 0
M  V30 3048 H 288.245 2.41388 -1.75426 0
M  V30 3049 C 286.994 3.46215 -0.320979 0
M  V30 3050 H 286.317 3.84401 -1.0989 0
M  V30 3051 H 287.757 4.23777 -0.137549 0
M  V30 3052 C 286.216 3.23067 0.955472 0
M  V30 3053 O 286.746 3.4668 2.02918 0
M  V30 3054 N 284.952 2.7661 0.890798 0
M  V30 3055 H 284.499 2.57594 0.0168815 0
M  V30 3056 H 284.457 2.61501 1.74542 0
M  V30 3057 N 288.23 0.939286 1.26551 0
M  V30 3058 C 289.476 0.586715 1.94128 0
M  V30 3059 C 289.809 -0.8717 1.73537 0
M  V30 3060 O 289.084 -1.62339 1.07127 0
M  V30 3061 C 289.367 0.927497 3.4795 0
M  V30 3062 C 289.22 2.44052 3.77834 0
M  V30 3063 C 290.539 0.441569 4.37879 0
M  V30 3064 H 287.658 0.21463 0.705055 0
M  V30 3065 H 290.3 1.17316 1.49455 0
M  V30 3066 H 288.45 0.428431 3.8613 0
M  V30 3067 H 290.122 3.01216 3.4938 0
M  V30 3068 H 288.365 2.8848 3.23978 0
M  V30 3069 H 289.036 2.62947 4.85348 0
M  V30 3070 H 291.512 0.869448 4.06915 0
M  V30 3071 H 290.388 0.708856 5.44304 0
M  V30 3072 H 290.649 -0.658467 4.37169 0
M  V30 3073 N 289.708 -1.40897 0.706093 0
M  V30 3074 C 290.641 -2.282 -0.00328781 0
M  V30 3075 C 291.619 -1.42816 -0.77732 0
M  V30 3076 O 292.803 -1.72237 -0.765944 0
M  V30 3077 C 289.93 -3.23226 -1.01205 0
M  V30 3078 C 288.976 -4.25222 -0.329955 0
M  V30 3079 S 289.809 -5.27269 0.935298 0
M  V30 3080 C 290.965 -6.25859 -0.0716061 0
M  V30 3081 H 291.198 -2.88016 0.737143 0
M  V30 3082 H 288.731 -1.46191 0.496756 0
M  V30 3083 H 290.689 -3.78503 -1.58888 0
M  V30 3084 H 289.35 -2.62485 -1.72513 0
M  V30 3085 H 288.543 -4.92023 -1.09221 0
M  V30 3086 H 288.145 -3.73595 0.174069 0
M  V30 3087 H 290.437 -6.71204 -0.921521 0
M  V30 3088 H 291.38 -7.0586 0.562765 0
M  V30 3089 H 291.788 -5.62852 -0.431088 0
M  V30 3090 N 291.186 -0.45159 -1.50991 0
M  V30 3091 C 292.434 0.109857 -2.01801 0
M  V30 3092 C 292.755 1.41958 -1.3369 0
M  V30 3093 O 292.025 1.9003 -0.475951 0
M  V30 3094 H 290.605 0.0435884 -0.745727 0
M  V30 3095 H 293.267 -0.597557 -1.85514 0
M  V30 3096 H 292.363 0.275489 -3.10882 0
M  V30 3097 N 292.664 1.56529 -0.183458 0
M  V30 3098 C 294.075 1.83739 0.331177 0
M  V30 3099 C 294.426 1.10373 1.62211 0
M  V30 3100 O 293.551 0.36071 2.13373 0
M  V30 3101 C 294.146 3.33306 0.607646 0
M  V30 3102 C 292.705 3.60969 1.06668 0
M  V30 3103 C 291.852 2.77086 0.109029 0
M  V30 3104 H 294.803 1.53379 -0.407484 0
M  V30 3105 H 294.824 3.51444 1.45832 0
M  V30 3106 H 294.336 3.86677 -0.332086 0
M  V30 3107 H 292.437 3.13021 2.0211 0
M  V30 3108 H 292.55 4.69231 0.967447 0
M  V30 3109 H 290.914 2.47319 0.608714 0
M  V30 3110 H 291.697 3.33241 -0.82494 0
M  V30 3111 N 294.142 -0.090211 1.57342 0
M  V30 3112 C 295.367 -0.810082 1.90925 0
M  V30 3113 C 295.792 -1.71248 0.778187 0
M  V30 3114 O 295.15 -1.79278 -0.269991 0
M  V30 3115 C 295.198 -1.59529 3.23393 0
M  V30 3116 O 294.302 -2.70461 3.11327 0
M  V30 3117 H 293.643 -0.222231 0.625707 0
M  V30 3118 H 296.173 -0.0639716 2.045 0
M  V30 3119 H 296.183 -1.97847 3.5682 0
M  V30 3120 H 294.858 -0.933055 4.05299 0
M  V30 3121 H 293.435 -2.35135 2.89423 0
M  V30 3122 N 295.62 -1.53406 -0.361157 0
M  V30 3123 C 296.866 -1.70054 -1.10496 0
M  V30 3124 C 297.199 -0.453278 -1.88836 0
M  V30 3125 O 296.474 0.5495 -1.86576 0
M  V30 3126 C 296.757 -2.95317 -2.06058 0
M  V30 3127 C 296.61 -4.3021 -1.31298 0
M  V30 3128 C 297.929 -3.16193 -3.06121 0
M  V30 3129 H 295.048 -0.618799 -0.400321 0
M  V30 3130 H 297.69 -1.86052 -0.385318 0
M  V30 3131 H 295.84 -2.81809 -2.67425 0
M  V30 3132 H 297.512 -4.55538 -0.726807 0
M  V30 3133 H 295.755 -4.29421 -0.614853 0
M  V30 3134 H 296.426 -5.14 -2.01265 0
M  V30 3135 H 298.902 -3.28916 -2.5486 0
M  V30 3136 H 297.778 -4.05266 -3.70204 0
M  V30 3137 H 298.039 -2.31676 -3.76535 0
M  V30 3138 N 297.098 0.621204 -1.44841 0
M  V30 3139 C 298.045 1.73267 -1.5247 0
M  V30 3140 C 299.015 1.6189 -0.371611 0
M  V30 3141 O 300.2 1.81668 -0.58321 0
M  V30 3142 C 297.34 3.11545 -1.48438 0
M  V30 3143 C 296.453 3.33827 -2.74196 0
M  V30 3144 C 295.588 4.62133 -2.61929 0
M  V30 3145 C 294.627 4.77627 -3.82804 0
M  V30 3146 N 293.764 5.97219 -3.69153 0
M  V30 3147 H 298.604 1.66082 -2.47428 0
M  V30 3148 H 296.141 0.810026 -1.22788 0
M  V30 3149 H 298.099 3.91528 -1.4409 0
M  V30 3150 H 296.729 3.1772 -0.570402 0
M  V30 3151 H 295.781 2.47715 -2.88689 0
M  V30 3152 H 297.093 3.41153 -3.6389 0
M  V30 3153 H 296.247 5.50291 -2.5547 0
M  V30 3154 H 294.986 4.57182 -1.69811 0
M  V30 3155 H 293.991 3.87896 -3.89637 0
M  V30 3156 H 295.216 4.84385 -4.75971 0
M  V30 3157 H 293.162 5.93339 -2.79794 0
M  V30 3158 H 293.079 6.05644 -4.52472 0
M  V30 3159 H 294.347 6.87912 -3.66603 0
M  V30 3160 N 298.576 1.31904 0.862503 0
M  V30 3161 C 299.506 1.22782 1.98612 0
M  V30 3162 C 300.487 0.113362 1.69722 0
M  V30 3163 O 301.672 0.299218 1.91881 0
M  V30 3164 C 298.802 0.942058 3.34279 0
M  V30 3165 C 297.756 2.0169 3.77499 0
M  V30 3166 C 297.082 1.58369 5.10709 0
M  V30 3167 C 298.382 3.43096 3.93805 0
M  V30 3168 H 300.076 2.16788 2.06502 0
M  V30 3169 H 297.622 1.04366 0.992154 0
M  V30 3170 H 299.575 0.864818 4.1243 0
M  V30 3171 H 298.299 -0.0336603 3.26583 0
M  V30 3172 H 296.958 2.08416 3.01593 0
M  V30 3173 H 296.606 0.595628 4.99461 0
M  V30 3174 H 296.306 2.30279 5.40597 0
M  V30 3175 H 297.83 1.52067 5.91361 0
M  V30 3176 H 299.244 3.39003 4.62331 0
M  V30 3177 H 297.641 4.13288 4.35101 0
M  V30 3178 H 298.711 3.83334 2.96957 0
M  V30 3179 N 300.054 -1.07777 1.14986 0
M  V30 3180 C 301.303 -1.79669 0.916617 0
M  V30 3181 C 301.616 -1.87474 -0.557917 0
M  V30 3182 O 302.822 -2.55845 -0.908617 0
M  V30 3183 C 301.278 -3.22848 1.59051 0
M  V30 3184 C 300.886 -3.23257 3.10176 0
M  V30 3185 C 302.63 -3.99379 1.43864 0
M  V30 3186 C 300.537 -4.61063 3.70372 0
M  V30 3187 H 299.467 -0.673349 0.33929 0
M  V30 3188 H 302.118 -1.21003 1.37951 0
M  V30 3189 H 300.5 -3.8168 1.0553 0
M  V30 3190 H 301.674 -2.74095 3.70417 0
M  V30 3191 H 299.989 -2.60222 3.25074 0
M  V30 3192 H 302.586 -5.0122 1.86232 0
M  V30 3193 H 302.929 -4.14511 0.385564 0
M  V30 3194 H 303.462 -3.47032 1.94457 0
M  V30 3195 H 300.201 -4.51135 4.7556 0
M  V30 3196 H 299.721 -5.1048 3.14913 0
M  V30 3197 H 301.4 -5.30034 3.71043 0
M  V30 3198 N 301.532 -0.945985 -1.26051 0
M  V30 3199 C 302.809 -0.513816 -1.88731 0
M  V30 3200 C 303.189 1.00872 -1.8544 0
M  V30 3201 O 302.537 1.8708 -1.312 0
M  V30 3202 C 302.747 -1.08062 -3.31849 0
M  V30 3203 C 304.095 -1.1522 -4.08668 0
M  V30 3204 O 305.119 -1.03155 -3.40936 0
M  V30 3205 O 303.978 -1.34044 -5.29806 0
M  V30 3206 H 301.072 -0.168193 -0.809716 0
M  V30 3207 H 303.618 -1.03886 -1.34186 0
M  V30 3208 H 302.39 -2.1241 -3.2863 0
M  V30 3209 H 302.013 -0.538307 -3.93939 0
M  V30 3210 N 303.011 1.40521 -0.713556 0
M  V30 3211 C 304.236 2.05759 -0.26035 0
M  V30 3212 C 304.661 1.53403 1.08854 0
M  V30 3213 O 304.019 0.668535 1.68524 0
M  V30 3214 C 304.067 3.59745 -0.248122 0
M  V30 3215 O 303.171 4.05123 0.77131 0
M  V30 3216 H 302.512 0.652564 -0.122703 0
M  V30 3217 H 305.042 1.79958 -0.973467 0
M  V30 3218 H 305.052 4.07911 -0.0851129 0
M  V30 3219 H 303.727 3.97218 -1.2325 0
M  V30 3220 H 302.304 3.68422 0.57619 0
M  V30 3221 N 304.489 0.459591 1.5075 0
M  V30 3222 C 305.737 -0.0991532 2.01857 0
M  V30 3223 C 306.058 -1.41247 1.34441 0
M  V30 3224 O 305.328 -1.89775 0.486022 0
M  V30 3225 H 303.908 -0.039633 0.745948 0
M  V30 3226 H 306.57 0.607387 1.85194 0
M  V30 3227 H 305.666 -0.258998 3.11023 0
M  V30 3228 N 305.967 -1.56429 0.191757 0
M  V30 3229 C 306.93 -2.17707 -0.716688 0
M  V30 3230 C 307.93 -1.13061 -1.14341 0
M  V30 3231 O 309.12 -1.38464 -1.05704 0
M  V30 3232 C 306.252 -2.77644 -1.97804 0
M  V30 3233 H 307.445 -2.99342 -0.1829 0
M  V30 3234 H 304.998 -1.56193 -0.0578566 0
M  V30 3235 H 305.733 -1.99799 -2.55443 0
M  V30 3236 H 305.518 -3.54246 -1.68083 0
M  V30 3237 H 307.008 -3.24708 -2.62592 0
M  V30 3238 N 307.445 0.0818655 -1.57387 0
M  V30 3239 C 308.355 1.11642 -2.06333 0
M  V30 3240 C 309.371 1.43033 -0.99083 0
M  V30 3241 O 310.547 1.53411 -1.30488 0
M  V30 3242 C 307.612 2.41342 -2.48907 0
M  V30 3243 C 306.673 2.17014 -3.7041 0
M  V30 3244 C 305.906 3.4053 -4.10944 0
M  V30 3245 O 306.129 4.4927 -3.51444 0
M  V30 3246 O 305.063 3.29336 -5.03807 0
M  V30 3247 H 308.889 0.730657 -2.9478 0
M  V30 3248 H 306.474 0.295301 -1.46452 0
M  V30 3249 H 308.356 3.17691 -2.76858 0
M  V30 3250 H 307.031 2.79319 -1.63593 0
M  V30 3251 H 305.938 1.38403 -3.47556 0
M  V30 3252 H 307.271 1.83923 -4.56545 0
M  V30 3253 N 308.923 1.53595 0.353017 0
M  V30 3254 C 310.163 1.72094 1.10286 0
M  V30 3255 C 310.527 0.469217 1.86178 0
M  V30 3256 O 311.728 0.531083 2.63501 0
M  V30 3257 C 309.999 2.94386 2.02661 0
M  V30 3258 S 311.558 3.33651 2.84996 0
M  V30 3259 H 308.376 0.605433 0.372789 0
M  V30 3260 H 310.978 1.91722 0.38248 0
M  V30 3261 H 309.682 3.83669 1.45691 0
M  V30 3262 H 309.213 2.77197 2.79152 0
M  V30 3263 H 311.228 2.86645 4.0503 0
M  V30 3264 N 310.401 -0.613514 1.45168 0
M  V30 3265 C 311.647 -1.37471 1.49096 0
M  V30 3266 C 311.98 -1.93765 0.129901 0
M  V30 3267 O 311.255 -1.74707 -0.854858 0
M  V30 3268 C 311.538 -2.52701 2.56542 0
M  V30 3269 C 311.391 -2.01643 4.0207 0
M  V30 3270 C 312.71 -3.54849 2.60327 0
M  V30 3271 H 309.829 -0.498502 0.54283 0
M  V30 3272 H 312.471 -0.692125 1.76945 0
M  V30 3273 H 310.621 -3.10931 2.32926 0
M  V30 3274 H 312.293 -1.48108 4.36877 0
M  V30 3275 H 310.536 -1.32688 4.13009 0
M  V30 3276 H 311.207 -2.84681 4.72928 0
M  V30 3277 H 313.683 -3.0645 2.81474 0
M  V30 3278 H 312.559 -4.32973 3.37381 0
M  V30 3279 H 312.82 -4.10079 1.6519 0
M  V30 3280 N 311.879 -1.3236 -0.855495 0
M  V30 3281 C 313.295 -1.11332 -1.14356 0
M  V30 3282 C 313.495 0.106751 -2.01217 0
M  V30 3283 O 312.551 0.791891 -2.39761 0
M  V30 3284 C 313.864 -2.39237 -1.82171 0
M  V30 3285 C 315.412 -2.44986 -1.9481 0
M  V30 3286 C 315.887 -3.7281 -2.66039 0
M  V30 3287 N 317.378 -3.73787 -2.73565 0
M  V30 3288 C 318.113 -4.69394 -3.29327 0
M  V30 3289 N 317.609 -5.75367 -3.85907 0
M  V30 3290 N 319.402 -4.56893 -3.27423 0
M  V30 3291 H 311.553 -2.10586 -0.277027 0
M  V30 3292 H 313.816 -0.929701 -0.185364 0
M  V30 3293 H 313.522 -3.28431 -1.25802 0
M  V30 3294 H 313.396 -2.50134 -2.82335 0
M  V30 3295 H 315.783 -1.56252 -2.50338 0
M  V30 3296 H 315.864 -2.38043 -0.936448 0
M  V30 3297 H 315.508 -4.61918 -2.11174 0
M  V30 3298 H 315.438 -3.77024 -3.67642 0
M  V30 3299 H 317.929 -2.97189 -2.33424 0
M  V30 3300 H 318.242 -6.44378 -4.26611 0
M  V30 3301 H 316.587 -5.79123 -3.84242 0
M  V30 3302 H 319.778 -3.73269 -2.82467 0
M  V30 3303 H 319.951 -5.31577 -3.7058 0
M  V30 3304 N 313.357 1.07166 -1.15556 0
M  V30 3305 C 314.634 1.76546 -0.842069 0
M  V30 3306 C 315.014 2.00453 0.661939 0
M  V30 3307 O 314.362 1.62452 1.60691 0
M  V30 3308 C 314.572 3.07266 -1.65495 0
M  V30 3309 C 315.92 3.81578 -1.86234 0
M  V30 3310 O 316.944 3.17083 -1.62287 0
M  V30 3311 O 315.803 4.97419 -2.26355 0
M  V30 3312 H 312.897 0.766756 -0.309862 0
M  V30 3313 H 315.443 1.13514 -1.26145 0
M  V30 3314 H 314.215 2.85494 -2.67598 0
M  V30 3315 H 313.838 3.7803 -1.23203 0
M  V30 3316 N 314.835 0.952656 1.25548 0
M  V30 3317 C 316.084 0.602053 1.92505 0
M  V30 3318 C 316.397 -0.864663 1.75451 0
M  V30 3319 O 317.603 -1.32514 2.36965 0
M  V30 3320 C 316.059 1.02607 3.44963 0
M  V30 3321 C 315.667 2.51519 3.70732 0
M  V30 3322 C 317.411 0.747905 4.1786 0
M  V30 3323 C 315.318 2.87732 5.16686 0
M  V30 3324 H 314.248 0.22146 0.720744 0
M  V30 3325 H 316.899 1.15684 1.42441 0
M  V30 3326 H 315.281 0.399712 3.93978 0
M  V30 3327 H 316.455 3.19157 3.32378 0
M  V30 3328 H 314.77 2.76786 3.11092 0
M  V30 3329 H 317.367 0.994647 5.25367 0
M  V30 3330 H 317.71 -0.315629 4.15102 0
M  V30 3331 H 318.243 1.33452 3.74747 0
M  V30 3332 H 314.982 3.93095 5.24554 0
M  V30 3333 H 314.502 2.24765 5.56094 0
M  V30 3334 H 316.181 2.76817 5.84792 0
M  V30 3335 N 316.313 -1.40141 0.720998 0
M  V30 3336 C 317.538 -2.05618 0.271258 0
M  V30 3337 C 317.963 -1.53978 -1.08039 0
M  V30 3338 O 317.321 -0.677463 -1.68167 0
M  V30 3339 C 317.369 -3.59609 0.267197 0
M  V30 3340 O 316.473 -4.05526 -0.749814 0
M  V30 3341 H 315.814 -0.651904 0.126162 0
M  V30 3342 H 318.344 -1.79439 0.982997 0
M  V30 3343 H 318.354 -4.0786 0.106744 0
M  V30 3344 H 317.029 -3.96559 1.25354 0
M  V30 3345 H 315.606 -3.68722 -0.556644 0
M  V30 3346 N 317.792 -0.46758 -1.50504 0
M  V30 3347 C 319.038 0.0887532 -2.02606 0
M  V30 3348 C 319.371 1.39686 -1.34913 0
M  V30 3349 O 318.646 1.88644 -0.473694 0
M  V30 3350 C 318.929 0.276206 -3.59039 0
M  V30 3351 C 318.782 -1.05267 -4.37309 0
M  V30 3352 C 320.101 1.03235 -4.27821 0
M  V30 3353 H 317.22 0.0307814 -0.736357 0
M  V30 3354 H 319.862 -0.612485 -1.79857 0
M  V30 3355 H 318.012 0.8735 -3.78553 0
M  V30 3356 H 319.684 -1.68628 -4.29374 0
M  V30 3357 H 317.927 -1.65015 -4.01189 0
M  V30 3358 H 318.598 -0.875197 -5.45018 0
M  V30 3359 H 321.074 0.526111 -4.12761 0
M  V30 3360 H 319.95 1.1323 -5.37094 0
M  V30 3361 H 320.211 2.06806 -3.90748 0
M  V30 3362 N 319.27 1.56325 -0.20005 0
M  V30 3363 C 320.2 2.22318 0.713916 0
M  V30 3364 C 321.181 1.18788 1.21752 0
M  V30 3365 O 322.366 1.47309 1.26545 0
M  V30 3366 C 319.496 2.88639 1.93144 0
M  V30 3367 C 318.45 3.98457 1.56255 0
M  V30 3368 C 317.776 4.51967 2.85709 0
M  V30 3369 C 319.076 5.16612 0.768747 0
M  V30 3370 H 320.77 2.98952 0.163755 0
M  V30 3371 H 318.316 1.43792 0.0773219 0
M  V30 3372 H 320.269 3.33491 2.57608 0
M  V30 3373 H 318.993 2.09419 2.50621 0
M  V30 3374 H 317.652 3.54305 0.941471 0
M  V30 3375 H 317.3 3.69503 3.41287 0
M  V30 3376 H 317 5.26071 2.6177 0
M  V30 3377 H 318.524 4.99523 3.51154 0
M  V30 3378 H 319.938 5.57977 1.3166 0
M  V30 3379 H 318.335 5.96812 0.627286 0
M  V30 3380 H 319.405 4.84358 -0.229168 0
M  V30 3381 N 320.748 -0.0735177 1.57428 0
M  V30 3382 C 321.678 -1.0879 2.06608 0
M  V30 3383 C 322.659 -1.40473 0.959237 0
M  V30 3384 O 323.844 -1.5013 1.23185 0
M  V30 3385 C 320.974 -2.40183 2.50857 0
M  V30 3386 C 319.928 -2.22858 3.65402 0
M  V30 3387 C 319.254 -3.59619 3.957 0
M  V30 3388 C 320.554 -1.65123 4.95511 0
M  V30 3389 H 322.248 -0.678673 2.91607 0
M  V30 3390 H 319.794 -0.325013 1.40284 0
M  V30 3391 H 321.747 -3.11437 2.83874 0
M  V30 3392 H 320.471 -2.83083 1.62885 0
M  V30 3393 H 319.13 -1.54045 3.32664 0
M  V30 3394 H 318.778 -4.00086 3.04861 0
M  V30 3395 H 318.478 -3.48866 4.72828 0
M  V30 3396 H 320.002 -4.32306 4.31212 0
M  V30 3397 H 321.416 -2.26241 5.26771 0
M  V30 3398 H 319.813 -1.65071 5.7695 0
M  V30 3399 H 320.883 -0.612559 4.81015 0
M  V30 3400 N 322.226 -1.5378 -0.344866 0
M  V30 3401 C 323.174 -1.82373 -1.4437 0
M  V30 3402 C 324.168 -0.694128 -1.54526 0
M  V30 3403 O 325.374 -0.877442 -1.57165 0
M  V30 3404 H 321.749 -0.577765 -0.481344 0
M  V30 3405 H 323.72 -2.74306 -1.17468 0
M  V30 3406 C 322.469 -2.04898 -2.80913 0
M  V30 3407 H 321.792 -2.9127 -2.73865 0
M  V30 3408 H 323.232 -2.28871 -3.56923 0
M  V30 3409 C 321.691 -0.834116 -3.26411 0
M  V30 3410 O 322.221 -0.0328885 -4.01687 0
M  V30 3411 N 320.427 -0.65171 -2.83198 0
M  V30 3412 H 319.974 -1.30489 -2.22104 0
M  V30 3413 H 319.932 0.159686 -3.13994 0
M  V30 3414 N 323.704 0.605807 -1.45491 0
M  V30 3415 C 324.934 1.38934 -1.52908 0
M  V30 3416 C 325.342 1.88513 -0.161086 0
M  V30 3417 O 324.685 1.62962 0.847891 0
M  V30 3418 C 324.747 2.62737 -2.45376 0
M  V30 3419 C 324.411 2.34785 -3.92078 0
M  V30 3420 C 325.408 1.95038 -4.8193 0
M  V30 3421 C 323.093 2.47642 -4.37011 0
M  V30 3422 C 325.087 1.68511 -6.14722 0
M  V30 3423 C 322.774 2.20728 -5.69844 0
M  V30 3424 C 323.772 1.81225 -6.58519 0
M  V30 3425 O 323.46 1.54627 -7.88889 0
M  V30 3426 H 323.192 0.431629 -0.520262 0
M  V30 3427 H 325.746 0.74573 -1.91384 0
M  V30 3428 H 323.976 3.29824 -2.01874 0
M  V30 3429 H 325.665 3.24783 -2.43456 0
M  V30 3430 H 326.431 1.84639 -4.48479 0
M  V30 3431 H 322.31 2.77356 -3.68232 0
M  V30 3432 H 325.854 1.37602 -6.83894 0
M  V30 3433 H 321.751 2.30744 -6.02849 0
M  V30 3434 H 322.519 1.68665 -8.00933 0
M  V30 3435 N 325.182 1.32811 0.848464 0
M  V30 3436 C 326.429 1.23724 1.60308 0
M  V30 3437 C 326.757 -0.1994 1.93475 0
M  V30 3438 O 326.012 -1.15406 1.5805 0
M  V30 3439 C 326.311 2.04831 2.92881 0
M  V30 3440 C 325.977 3.54125 2.79117 0
M  V30 3441 C 324.639 3.94829 2.7507 0
M  V30 3442 C 326.991 4.49036 2.64606 0
M  V30 3443 C 324.319 5.28675 2.544 0
M  V30 3444 C 326.671 5.83033 2.4547 0
M  V30 3445 C 325.335 6.22931 2.39819 0
M  V30 3446 H 324.605 0.452737 0.586609 0
M  V30 3447 H 327.252 1.64301 0.983743 0
M  V30 3448 H 325.557 1.57001 3.58968 0
M  V30 3449 H 327.254 1.95164 3.50303 0
M  V30 3450 H 323.844 3.21801 2.83094 0
M  V30 3451 H 328.028 4.18505 2.66772 0
M  V30 3452 H 323.284 5.58637 2.48465 0
M  V30 3453 H 327.458 6.56186 2.33222 0
M  V30 3454 H 325.085 7.26584 2.23562 0
M  V30 3455 N 326.66 -1.06551 1.16123 0
M  V30 3456 C 327.937 -1.76097 0.85142 0
M  V30 3457 C 328.317 -2.00802 -0.6513 0
M  V30 3458 O 327.665 -1.63302 -1.59827 0
M  V30 3459 C 327.875 -3.06384 1.67122 0
M  V30 3460 C 329.223 -3.80585 1.88255 0
M  V30 3461 O 330.247 -3.16218 1.63966 0
M  V30 3462 O 329.106 -4.96212 2.2899 0
M  V30 3463 H 326.2 -0.765102 0.313923 0
M  V30 3464 H 328.746 -1.12844 1.26745 0
M  V30 3465 H 327.518 -2.84071 2.69108 0
M  V30 3466 H 327.141 -3.77371 1.25206 0
M  V30 3467 N 328.138 -0.959301 -1.25041 0
M  V30 3468 C 329.387 -0.612254 -1.92183 0
M  V30 3469 C 329.7 0.855347 -1.75907 0
M  V30 3470 O 330.906 1.31256 -2.37664 0
M  V30 3471 C 329.362 -1.04435 -3.44414 0
M  V30 3472 C 328.97 -2.53482 -3.69393 0
M  V30 3473 C 330.714 -0.770055 -4.17457 0
M  V30 3474 C 328.621 -2.90468 -5.15153 0
M  V30 3475 H 327.551 -0.225279 -0.719559 0
M  V30 3476 H 330.202 -1.16438 -1.41825 0
M  V30 3477 H 328.584 -0.4206 -3.9376 0
M  V30 3478 H 329.758 -3.20916 -3.30681 0
M  V30 3479 H 328.073 -2.78432 -3.0962 0
M  V30 3480 H 330.67 -1.02249 -5.24832 0
M  V30 3481 H 331.013 0.293611 -4.15263 0
M  V30 3482 H 331.546 -1.35437 -3.74034 0
M  V30 3483 H 328.285 -3.95871 -5.22462 0
M  V30 3484 H 327.805 -2.27711 -5.54894 0
M  V30 3485 H 329.484 -2.79914 -5.83315 0
M  V30 3486 N 329.616 1.39756 -0.72842 0
M  V30 3487 C 330.564 2.32485 -0.0731849 0
M  V30 3488 C 331.558 1.52717 0.733063 0
M  V30 3489 O 332.764 1.68428 0.634988 0
M  V30 3490 H 329.139 0.751984 -0.00486469 0
M  V30 3491 H 331.11 2.85382 -0.871761 0
M  V30 3492 C 329.859 3.37773 0.824908 0
M  V30 3493 H 329.182 3.99227 0.213915 0
M  V30 3494 H 330.622 4.05121 1.25111 0
M  V30 3495 C 329.081 2.74287 1.95622 0
M  V30 3496 O 329.611 2.61618 3.04826 0
M  V30 3497 N 327.817 2.32475 1.74367 0
M  V30 3498 H 327.364 2.4298 0.855494 0
M  V30 3499 H 327.322 1.90337 2.50238 0
M  V30 3500 N 331.094 0.475555 1.50254 0
M  V30 3501 C 332.342 -0.077738 2.0195 0
M  V30 3502 C 332.663 -1.39813 1.35931 0
M  V30 3503 O 331.933 -1.89249 0.506123 0
M  V30 3504 H 330.513 -0.031719 0.746326 0
M  V30 3505 H 333.175 0.626995 1.84539 0
M  V30 3506 H 332.271 -0.225995 3.11281 0
M  V30 3507 N 332.573 -1.56217 0.208337 0
M  V30 3508 C 333.521 -2.21053 -0.723769 0
M  V30 3509 C 334.515 -1.18578 -1.20978 0
M  V30 3510 O 335.721 -1.36691 -1.17114 0
M  V30 3511 H 332.096 -0.708595 -0.251788 0
M  V30 3512 H 334.067 -2.98006 -0.153365 0
M  V30 3513 C 332.816 -2.89417 -1.927 0
M  V30 3514 H 332.139 -3.68019 -1.56212 0
M  V30 3515 H 333.579 -3.38201 -2.55727 0
M  V30 3516 C 332.038 -1.91166 -2.77411 0
M  V30 3517 O 332.568 -1.42026 -3.75754 0
M  V30 3518 N 330.774 -1.59105 -2.43175 0
M  V30 3519 H 330.321 -1.99259 -1.63259 0
M  V30 3520 H 330.279 -0.936255 -3.00136 0
M  V30 3521 N 334.051 0.0651679 -1.57465 0
M  V30 3522 C 335.281 0.774683 -1.91526 0
M  V30 3523 C 335.689 1.71305 -0.803196 0
M  V30 3524 O 335.032 1.82231 0.231881 0
M  V30 3525 C 335.094 1.61645 -3.21109 0
M  V30 3526 C 334.758 0.846753 -4.49087 0
M  V30 3527 C 335.755 0.163024 -5.19644 0
M  V30 3528 C 333.44 0.811966 -4.95694 0
M  V30 3529 C 335.434 -0.54519 -6.35064 0
M  V30 3530 C 333.121 0.0999836 -6.11018 0
M  V30 3531 C 334.119 -0.577388 -6.80555 0
M  V30 3532 O 333.807 -1.27789 -7.93678 0
M  V30 3533 H 333.539 0.225031 -0.637446 0
M  V30 3534 H 336.093 0.0377134 -2.05365 0
M  V30 3535 H 334.323 2.39638 -3.03497 0
M  V30 3536 H 336.012 2.20525 -3.40769 0
M  V30 3537 H 336.778 0.181163 -4.84662 0
M  V30 3538 H 332.657 1.32867 -4.41438 0
M  V30 3539 H 336.201 -1.07446 -6.89276 0
M  V30 3540 H 332.098 0.0797945 -6.45451 0
M  V30 3541 H 332.866 -1.18784 -8.09835 0
M  V30 3542 N 335.529 1.53961 0.336706 0
M  V30 3543 C 336.479 1.7881 1.41461 0
M  V30 3544 C 337.463 0.643561 1.47469 0
M  V30 3545 O 338.655 0.903166 1.52223 0
M  V30 3546 C 335.784 2.00722 2.78506 0
M  V30 3547 C 334.87 3.2126 2.76862 0
M  V30 3548 N 335.261 4.42588 2.44845 0
M  V30 3549 C 333.559 3.22568 3.08004 0
M  V30 3550 C 334.26 5.2447 2.51607 0
M  V30 3551 N 333.236 4.61344 2.87511 0
M  V30 3552 H 337.038 2.70205 1.15615 0
M  V30 3553 H 334.552 1.52978 0.545112 0
M  V30 3554 H 336.549 2.1666 3.5618 0
M  V30 3555 H 335.209 1.10573 3.05293 0
M  V30 3556 H 336.22 4.69819 2.17922 0
M  V30 3557 H 332.897 2.42409 3.39918 0
M  V30 3558 H 334.287 6.31324 2.29955 0
M  V30 3559 N 337.007 -0.598083 1.45811 0
M  V30 3560 C 337.939 -1.72231 1.51225 0
M  V30 3561 C 338.952 -1.57757 0.402059 0
M  V30 3562 O 340.141 -1.65464 0.669624 0
M  V30 3563 C 337.241 -3.10331 1.3619 0
M  V30 3564 C 336.414 -3.50955 2.61054 0
M  V30 3565 C 335.473 -4.68055 2.40439 0
M  V30 3566 O 334.499 -4.74691 3.14097 0
M  V30 3567 N 335.701 -5.61941 1.45612 0
M  V30 3568 H 338.466 -1.68046 2.48154 0
M  V30 3569 H 336.027 -0.783637 1.41671 0
M  V30 3570 H 338.019 -3.86439 1.20195 0
M  V30 3571 H 336.589 -3.0897 0.475015 0
M  V30 3572 H 335.809 -2.64711 2.92099 0
M  V30 3573 H 337.097 -3.74858 3.44034 0
M  V30 3574 H 336.495 -5.59301 0.848431 0
M  V30 3575 H 335.052 -6.37542 1.35585 0
M  V30 3576 N 338.485 -1.33259 -0.841409 0
M  V30 3577 C 339.432 -1.23302 -1.95103 0
M  V30 3578 C 340.402 -0.112204 -1.65721 0
M  V30 3579 O 341.587 -0.290038 -1.88583 0
M  V30 3580 C 338.727 -0.975583 -3.31023 0
M  V30 3581 C 337.84 -2.18243 -3.72819 0
M  V30 3582 C 336.975 -1.85936 -4.97595 0
M  V30 3583 C 336.014 -3.02866 -5.3192 0
M  V30 3584 N 335.151 -2.70565 -6.47873 0
M  V30 3585 H 339.991 -2.18207 -2.02952 0
M  V30 3586 H 337.528 -1.0851 -0.993173 0
M  V30 3587 H 339.486 -0.80677 -4.09325 0
M  V30 3588 H 338.116 -0.0632755 -3.22738 0
M  V30 3589 H 337.168 -2.46107 -2.90061 0
M  V30 3590 H 338.48 -3.05666 -3.94169 0
M  V30 3591 H 337.634 -1.65684 -5.83638 0
M  V30 3592 H 336.373 -0.957452 -4.78209 0
M  V30 3593 H 335.378 -3.23736 -4.44382 0
M  V30 3594 H 336.603 -3.93809 -5.53255 0
M  V30 3595 H 334.549 -1.8293 -6.29978 0
M  V30 3596 H 334.466 -3.51519 -6.69306 0
M  V30 3597 H 335.734 -2.53774 -7.37034 0
M  V30 3598 N 339.963 1.05934 -1.16686 0
M  V30 3599 C 340.926 2.11669 -0.879144 0
M  V30 3600 C 341.926 1.60294 0.127445 0
M  V30 3601 O 343.116 1.7389 -0.103865 0
M  V30 3602 C 340.248 3.39438 -0.315425 0
M  V30 3603 H 341.441 2.38626 -1.81653 0
M  V30 3604 H 338.994 1.22058 -0.976299 0
M  V30 3605 H 339.729 3.18132 0.629468 0
M  V30 3606 H 339.514 3.78034 -1.04079 0
M  V30 3607 H 341.004 4.17391 -0.132189 0
M  V30 3608 N 341.441 0.965919 1.2453 0
M  V30 3609 C 342.687 0.62776 1.92839 0
M  V30 3610 C 343.02 -0.834694 1.75347 0
M  V30 3611 O 342.295 -1.60031 1.10546 0
M  V30 3612 C 342.578 1.00109 3.45905 0
M  V30 3613 C 342.431 2.52011 3.72573 0
M  V30 3614 C 343.75 0.53435 4.36844 0
M  V30 3615 H 340.869 0.229537 0.700344 0
M  V30 3616 H 343.511 1.2046 1.46933 0
M  V30 3617 H 341.661 0.510238 3.85135 0
M  V30 3618 H 343.333 3.08559 3.42912 0
M  V30 3619 H 341.576 2.95287 3.17786 0
M  V30 3620 H 342.247 2.73183 4.79661 0
M  V30 3621 H 344.723 0.955565 4.04979 0
M  V30 3622 H 343.599 0.824152 5.42678 0
M  V30 3623 H 343.86 -0.565589 4.38467 0
M  V30 3624 N 342.919 -1.39368 0.735821 0
M  V30 3625 C 343.829 -2.34395 0.0979693 0
M  V30 3626 C 344.845 -1.58361 -0.720968 0
M  V30 3627 O 346.021 -1.90648 -0.649245 0
M  V30 3628 C 343.086 -3.37393 -0.797916 0
M  V30 3629 C 342.147 -4.29287 0.0333662 0
M  V30 3630 C 341.38 -5.27365 -0.819854 0
M  V30 3631 O 341.603 -5.31959 -2.05855 0
M  V30 3632 O 340.537 -6.01389 -0.248079 0
M  V30 3633 H 344.363 -2.90601 0.882315 0
M  V30 3634 H 341.948 -1.40909 0.4965 0
M  V30 3635 H 343.83 -4.00505 -1.31048 0
M  V30 3636 H 342.505 -2.83571 -1.56106 0
M  V30 3637 H 341.412 -3.69395 0.591475 0
M  V30 3638 H 342.745 -4.86317 0.758752 0
M  V30 3639 N 344.397 -0.483516 -1.5 0
M  V30 3640 C 345.347 0.32306 -2.257 0
M  V30 3641 C 346.331 0.950755 -1.29805 0
M  V30 3642 O 347.523 0.861247 -1.54634 0
M  V30 3643 C 344.652 1.39724 -3.13579 0
M  V30 3644 C 343.738 0.776663 -4.16928 0
M  V30 3645 N 344.129 -0.1104 -5.0568 0
M  V30 3646 C 342.427 1.03922 -4.33724 0
M  V30 3647 C 343.128 -0.46387 -5.79848 0
M  V30 3648 N 342.104 0.163987 -5.43353 0
M  V30 3649 H 345.906 -0.360086 -2.91686 0
M  V30 3650 H 343.42 -0.298456 -1.59634 0
M  V30 3651 H 345.417 1.98837 -3.66428 0
M  V30 3652 H 344.077 2.08225 -2.49143 0
M  V30 3653 H 345.088 -0.480069 -5.1567 0
M  V30 3654 H 341.765 1.71829 -3.80501 0
M  V30 3655 H 343.155 -1.18854 -6.61304 0
M  V30 3656 N 345.875 1.56104 -0.216619 0
M  V30 3657 C 347.291 1.58995 0.13886 0
M  V30 3658 C 347.491 1.23333 1.59346 0
M  V30 3659 O 346.547 0.966234 2.33281 0
M  V30 3660 C 347.86 3.00143 -0.182968 0
M  V30 3661 C 349.408 3.12751 -0.124807 0
M  V30 3662 C 349.883 4.56068 -0.420241 0
M  V30 3663 N 351.374 4.61723 -0.369634 0
M  V30 3664 C 352.109 5.70542 -0.571789 0
M  V30 3665 N 351.605 6.87744 -0.835453 0
M  V30 3666 N 353.398 5.59831 -0.504563 0
M  V30 3667 H 345.549 1.77562 -1.16557 0
M  V30 3668 H 347.812 0.825091 -0.466828 0
M  V30 3669 H 347.518 3.30871 -1.19237 0
M  V30 3670 H 347.392 3.73813 0.504367 0
M  V30 3671 H 349.779 2.81822 0.875223 0
M  V30 3672 H 349.86 2.41421 -0.845544 0
M  V30 3673 H 349.504 4.87713 -1.41769 0
M  V30 3674 H 349.434 5.25617 0.321631 0
M  V30 3675 H 351.925 3.77502 -0.173338 0
M  V30 3676 H 352.238 7.66587 -0.977938 0
M  V30 3677 H 350.583 6.895 -0.872592 0
M  V30 3678 H 353.774 4.67145 -0.298842 0
M  V30 3679 H 353.947 6.44573 -0.665519 0
M  V30 3680 N 347.353 -0.0568162 1.57498 0
M  V30 3681 C 348.6 -0.753104 1.87975 0
M  V30 3682 C 348.928 -1.76815 0.81035 0
M  V30 3683 O 348.183 -1.94756 -0.19199 0
M  V30 3684 C 348.482 -1.48359 3.25153 0
M  V30 3685 C 348.148 -0.60713 4.46794 0
M  V30 3686 C 346.81 -0.365642 4.79809 0
M  V30 3687 C 349.162 -0.000305978 5.212 0
M  V30 3688 C 346.49 0.491905 5.84634 0
M  V30 3689 C 348.842 0.844781 6.26934 0
M  V30 3690 C 347.506 1.096 6.58441 0
M  V30 3691 H 346.776 -0.27558 0.687849 0
M  V30 3692 H 349.423 -0.0135173 1.91495 0
M  V30 3693 H 347.728 -2.29577 3.17492 0
M  V30 3694 H 349.425 -2.02739 3.45974 0
M  V30 3695 H 346.015 -0.805487 4.20963 0
M  V30 3696 H 350.199 -0.173961 4.95995 0
M  V30 3697 H 345.455 0.695131 6.07436 0
M  V30 3698 H 349.629 1.32165 6.83744 0
M  V30 3699 H 347.256 1.76224 7.39492 0
M  V30 3700 N 348.832 -1.54138 -0.328536 0
M  V30 3701 C 350.079 -1.72105 -1.06706 0
M  V30 3702 C 350.407 -0.492111 -1.88171 0
M  V30 3703 O 349.662 0.526153 -1.88494 0
M  V30 3704 C 349.961 -2.9457 -2.02393 0
M  V30 3705 C 349.627 -4.29544 -1.37122 0
M  V30 3706 C 348.289 -4.6624 -1.19052 0
M  V30 3707 C 350.641 -5.1333 -0.902331 0
M  V30 3708 C 347.969 -5.84325 -0.527331 0
M  V30 3709 C 350.321 -6.32094 -0.252988 0
M  V30 3710 C 348.985 -6.67473 -0.0600901 0
M  V30 3711 H 348.255 -0.629775 -0.390466 0
M  V30 3712 H 350.902 -1.88372 -0.34473 0
M  V30 3713 H 349.207 -2.72969 -2.81061 0
M  V30 3714 H 350.904 -3.05665 -2.59557 0
M  V30 3715 H 347.494 -4.0067 -1.52188 0
M  V30 3716 H 351.678 -4.855 -1.02974 0
M  V30 3717 H 346.934 -6.103 -0.366634 0
M  V30 3718 H 351.108 -6.96299 0.118366 0
M  V30 3719 H 348.735 -7.58832 0.455828 0
M  V30 3720 N 350.31 0.590341 -1.46126 0
M  V30 3721 C 351.538 1.37504 -1.54597 0
M  V30 3722 C 351.953 1.87897 -0.184447 0
M  V30 3723 O 351.31 1.63192 0.816984 0
M  V30 3724 C 351.361 2.56779 -2.54454 0
M  V30 3725 O 351.082 2.08476 -3.85317 0
M  V30 3726 C 352.583 3.49427 -2.72792 0
M  V30 3727 H 349.803 0.420325 -0.523037 0
M  V30 3728 H 352.347 0.718383 -1.91467 0
M  V30 3729 H 350.502 3.1845 -2.20609 0
M  V30 3730 H 350.916 2.86097 -4.396 0
M  V30 3731 H 352.39 4.29619 -3.466 0
M  V30 3732 H 352.867 4.00876 -1.79429 0
M  V30 3733 H 353.473 2.93598 -3.07702 0
M  V30 3734 N 351.788 1.33704 0.83433 0
M  V30 3735 C 353.016 1.28467 1.62185 0
M  V30 3736 C 353.431 -0.143526 1.88254 0
M  V30 3737 O 352.788 -1.08709 1.4659 0
M  V30 3738 C 352.839 2.06174 2.96942 0
M  V30 3739 O 352.56 3.43422 2.72016 0
M  V30 3740 C 354.061 2.08201 3.91366 0
M  V30 3741 H 351.281 0.4424 0.504503 0
M  V30 3742 H 353.825 1.76145 1.03891 0
M  V30 3743 H 351.98 1.62167 3.51825 0
M  V30 3744 H 352.394 3.83453 3.57861 0
M  V30 3745 H 353.868 2.67017 4.83121 0
M  V30 3746 H 354.345 1.07343 4.2588 0
M  V30 3747 H 354.951 2.52246 3.42421 0
M  V30 3748 N 353.266 -1.05314 1.17247 0
M  V30 3749 C 354.229 -2.112 0.890357 0
M  V30 3750 C 355.229 -1.60359 -0.118943 0
M  V30 3751 O 356.419 -1.73833 0.113086 0
M  V30 3752 C 353.551 -3.39266 0.333422 0
M  V30 3753 H 354.744 -2.37659 1.82916 0
M  V30 3754 H 352.297 -1.21538 0.982758 0
M  V30 3755 H 353.032 -3.18462 -0.612587 0
M  V30 3756 H 352.817 -3.77477 1.06082 0
M  V30 3757 H 354.307 -4.17315 0.154322 0
M  V30 3758 N 354.744 -0.972509 -1.24016 0
M  V30 3759 C 355.692 -0.498562 -2.27194 0
M  V30 3760 C 356.686 0.440372 -1.63576 0
M  V30 3761 O 357.892 0.315133 -1.7722 0
M  V30 3762 H 354.267 -0.142775 -0.738322 0
M  V30 3763 H 356.238 -1.38065 -2.64539 0
M  V30 3764 C 354.987 0.191072 -3.47175 0
M  V30 3765 H 354.31 -0.522318 -3.96373 0
M  V30 3766 H 355.75 0.486445 -4.212 0
M  V30 3767 C 354.209 1.41967 -3.05527 0
M  V30 3768 O 354.739 2.51642 -3.13112 0
M  V30 3769 N 352.945 1.28746 -2.60524 0
M  V30 3770 H 352.492 0.395089 -2.54552 0
M  V30 3771 H 352.45 2.11061 -2.33025 0
M  V30 3772 N 356.222 1.38976 -0.743202 0
M  V30 3773 C 357.633 1.83123 -0.363732 0
M  V30 3774 C 357.984 1.6205 1.10609 0
M  V30 3775 O 357.109 1.11606 1.854 0
M  V30 3776 C 357.704 3.32439 -0.653408 0
M  V30 3777 C 356.263 3.74974 -0.327338 0
M  V30 3778 C 355.41 2.61878 -0.911875 0
M  V30 3779 H 358.361 1.27852 -0.940191 0
M  V30 3780 H 358.382 3.80432 0.0720031 0
M  V30 3781 H 357.894 3.47745 -1.72323 0
M  V30 3782 H 355.995 3.65252 0.736314 0
M  V30 3783 H 356.108 4.72106 -0.815631 0
M  V30 3784 H 354.472 2.52448 -0.337944 0
M  V30 3785 H 355.255 2.79987 -1.98651 0
M  V30 3786 N 357.7 0.491464 1.49741 0
M  V30 3787 C 358.61 -0.296835 2.32715 0
M  V30 3788 C 359.626 -0.976536 1.44013 0
M  V30 3789 O 360.802 -0.960023 1.77047 0
M  V30 3790 C 357.867 -1.35288 3.19215 0
M  V30 3791 C 356.928 -0.687632 4.23757 0
M  V30 3792 C 356.161 -1.69336 5.06123 0
M  V30 3793 O 356.384 -2.92219 4.89861 0
M  V30 3794 O 355.318 -1.25394 5.88693 0
M  V30 3795 H 359.144 0.382048 3.01287 0
M  V30 3796 H 356.729 0.252953 1.47243 0
M  V30 3797 H 358.611 -1.96411 3.72828 0
M  V30 3798 H 357.286 -2.01487 2.53347 0
M  V30 3799 H 356.193 -0.0369159 3.74082 0
M  V30 3800 H 357.526 -0.0682566 4.92153 0
M  V30 3801 N 359.178 -1.55987 0.224894 0
M  V30 3802 C 360.427 -1.97566 -0.406273 0
M  V30 3803 C 360.74 -1.11569 -1.6066 0
M  V30 3804 O 361.946 -1.43062 -2.3075 0
M  V30 3805 C 360.402 -3.51474 -0.774207 0
M  V30 3806 C 360.01 -4.46179 0.403496 0
M  V30 3807 C 361.754 -4.01758 -1.37079 0
M  V30 3808 C 359.661 -5.91399 0.0129412 0
M  V30 3809 H 358.591 -0.737777 -0.155565 0
M  V30 3810 H 361.242 -1.80659 0.321635 0
M  V30 3811 H 359.624 -3.63994 -1.55963 0
M  V30 3812 H 360.798 -4.45409 1.18101 0
M  V30 3813 H 359.113 -4.06255 0.913536 0
M  V30 3814 H 361.71 -5.07756 -1.67596 0
M  V30 3815 H 362.053 -3.47805 -2.28773 0
M  V30 3816 H 362.586 -3.92475 -0.648733 0
M  V30 3817 H 359.325 -6.49341 0.896451 0
M  V30 3818 H 358.845 -5.95356 -0.728821 0
M  V30 3819 H 360.524 -6.45683 -0.412582 0
M  V30 3820 N 360.656 0.0484629 -1.57525 0
M  V30 3821 C 361.903 0.743125 -1.88372 0
M  V30 3822 C 362.231 1.76383 -0.819715 0
M  V30 3823 O 361.486 1.94855 0.181659 0
M  V30 3824 C 361.785 1.46632 -3.25935 0
M  V30 3825 C 361.451 0.583427 -4.4711 0
M  V30 3826 C 360.113 0.340191 -4.79996 0
M  V30 3827 C 362.465 -0.0273345 -5.21193 0
M  V30 3828 C 359.793 -0.522903 -5.84365 0
M  V30 3829 C 362.145 -0.878017 -6.26477 0
M  V30 3830 C 360.809 -1.1309 -6.5785 0
M  V30 3831 H 360.079 0.271929 -0.689301 0
M  V30 3832 H 362.726 0.00336166 -1.915 0
M  V30 3833 H 361.031 2.2789 -3.18706 0
M  V30 3834 H 362.728 2.00902 -3.47044 0
M  V30 3835 H 359.318 0.783151 -4.21384 0
M  V30 3836 H 363.502 0.147654 -4.9608 0
M  V30 3837 H 358.758 -0.727335 -6.07058 0
M  V30 3838 H 362.932 -1.35789 -6.83033 0
M  V30 3839 H 360.559 -1.80144 -7.38547 0
M  V30 3840 N 362.134 1.5431 0.320358 0
M  V30 3841 C 363.066 1.80262 1.41556 0
M  V30 3842 C 364.079 0.684723 1.477 0
M  V30 3843 O 365.268 0.961886 1.50366 0
M  V30 3844 C 362.368 1.90825 2.8007 0
M  V30 3845 C 361.541 3.21023 2.97091 0
M  V30 3846 C 360.6 3.22247 4.15985 0
M  V30 3847 O 359.626 3.95871 4.08992 0
M  V30 3848 N 360.828 2.46258 5.25678 0
M  V30 3849 H 363.593 2.74778 1.19655 0
M  V30 3850 H 361.154 1.53646 0.510358 0
M  V30 3851 H 363.146 1.89067 3.57821 0
M  V30 3852 H 361.716 1.03392 2.95006 0
M  V30 3853 H 360.936 3.35715 2.06614 0
M  V30 3854 H 362.224 4.0698 3.05361 0
M  V30 3855 H 361.622 1.86037 5.34235 0
M  V30 3856 H 360.179 2.50275 6.01835 0
M  V30 3857 N 363.613 -0.582584 1.46437 0
M  V30 3858 C 364.523 -1.71949 1.59595 0
M  V30 3859 C 365.539 -1.67264 0.479443 0
M  V30 3860 O 366.715 -1.87171 0.743579 0
M  V30 3861 C 363.78 -3.08452 1.58298 0
M  V30 3862 C 362.841 -3.244 2.81182 0
M  V30 3863 C 362.074 -4.54391 2.79937 0
M  V30 3864 O 362.297 -5.38287 1.8869 0
M  V30 3865 O 361.231 -4.73588 3.71481 0
M  V30 3866 H 365.057 -1.63795 2.55744 0
M  V30 3867 H 362.642 -0.749643 1.29231 0
M  V30 3868 H 364.524 -3.89732 1.60271 0
M  V30 3869 H 363.199 -3.17043 0.653094 0
M  V30 3870 H 362.106 -2.42613 2.84763 0
M  V30 3871 H 363.439 -3.20699 3.7338 0
M  V30 3872 N 365.091 -1.34144 -0.827227 0
M  V30 3873 C 366.34 -1.25602 -1.5782 0
M  V30 3874 C 366.653 0.173445 -1.94829 0
M  V30 3875 O 367.859 0.380984 -2.68814 0
M  V30 3876 C 366.315 -2.20151 -2.84713 0
M  V30 3877 C 365.923 -3.68331 -2.55021 0
M  V30 3878 C 367.667 -2.20508 -3.62735 0
M  V30 3879 C 365.574 -4.54762 -3.78082 0
M  V30 3880 H 364.504 -0.466573 -0.592306 0
M  V30 3881 H 367.155 -1.59283 -0.911116 0
M  V30 3882 H 365.537 -1.79417 -3.53023 0
M  V30 3883 H 366.711 -4.17577 -1.94849 0
M  V30 3884 H 365.026 -3.7038 -1.90283 0
M  V30 3885 H 367.623 -2.82306 -4.54101 0
M  V30 3886 H 367.966 -1.20322 -3.98533 0
M  V30 3887 H 368.499 -2.59664 -3.01362 0
M  V30 3888 H 365.238 -5.55867 -3.47407 0
M  V30 3889 H 364.758 -4.10254 -4.37552 0
M  V30 3890 H 366.437 -4.69153 -4.45538 0
M  V30 3891 N 366.569 1.04691 -1.17803 0
M  V30 3892 C 367.532 2.10724 -0.901545 0
M  V30 3893 C 368.532 1.6042 0.110437 0
M  V30 3894 O 369.722 1.7377 -0.122303 0
M  V30 3895 C 366.854 3.39084 -0.351409 0
M  V30 3896 H 368.047 2.36686 -1.84174 0
M  V30 3897 H 365.6 1.21015 -0.98919 0
M  V30 3898 H 366.335 3.18782 0.59569 0
M  V30 3899 H 366.12 3.76909 -1.08083 0
M  V30 3900 H 367.61 4.17227 -0.176451 0
M  V30 3901 N 368.047 0.979072 1.23499 0
M  V30 3902 C 369.272 0.664845 1.96455 0
M  V30 3903 C 369.697 -0.761287 1.72006 0
M  V30 3904 O 369.055 -1.51837 0.990713 0
M  V30 3905 C 369.103 0.959479 3.47601 0
M  V30 3906 O 368.207 0.0508168 4.12369 0
M  V30 3907 H 367.548 0.250185 0.615064 0
M  V30 3908 H 370.078 1.31231 1.5697 0
M  V30 3909 H 370.088 0.895642 3.98048 0
M  V30 3910 H 368.763 1.99876 3.64723 0
M  V30 3911 H 367.34 0.16895 3.72517 0
M  V30 3912 N 369.525 -1.3858 0.750561 0
M  V30 3913 C 370.774 -1.99424 0.302172 0
M  V30 3914 C 371.087 -1.60254 -1.12152 0
M  V30 3915 O 372.293 -2.14046 -1.67023 0
M  V30 3916 C 370.749 -3.56558 0.489307 0
M  V30 3917 C 370.357 -4.04682 1.92189 0
M  V30 3918 C 372.101 -4.24374 0.103478 0
M  V30 3919 C 370.008 -5.54446 2.05775 0
M  V30 3920 H 368.938 -0.746046 0.10923 0
M  V30 3921 H 371.589 -1.58383 0.92667 0
M  V30 3922 H 369.971 -3.95472 -0.204329 0
M  V30 3923 H 371.145 -3.77065 2.64875 0
M  V30 3924 H 369.46 -3.4958 2.26236 0
M  V30 3925 H 372.057 -5.34384 0.183787 0
M  V30 3926 H 372.4 -4.05468 -0.943481 0
M  V30 3927 H 372.933 -3.90688 0.748854 0
M  V30 3928 H 369.672 -5.78252 3.08714 0
M  V30 3929 H 369.192 -5.83816 1.37546 0
M  V30 3930 H 370.871 -6.20099 1.84626 0
M  V30 3931 N 371.003 -0.499398 -1.49478 0
M  V30 3932 C 372.249 0.0377587 -2.03365 0
M  V30 3933 C 372.604 1.3484 -1.37244 0
M  V30 3934 O 371.897 1.85 -0.498547 0
M  V30 3935 C 372.091 0.248424 -3.56536 0
M  V30 3936 C 371.92 -1.04025 -4.37503 0
M  V30 3937 C 370.69 -1.59159 -4.79579 0
M  V30 3938 C 372.888 -1.9431 -4.76181 0
M  V30 3939 N 370.87 -2.82634 -5.44969 0
M  V30 3940 C 372.241 -3.02364 -5.41272 0
M  V30 3941 C 374.296 -1.95008 -4.58123 0
M  V30 3942 C 372.999 -4.1114 -5.90217 0
M  V30 3943 C 375.025 -3.02758 -5.08027 0
M  V30 3944 C 374.387 -4.09531 -5.73118 0
M  V30 3945 H 370.486 -0.026923 -0.781536 0
M  V30 3946 H 373.07 -0.673901 -1.82665 0
M  V30 3947 H 371.241 0.929139 -3.77123 0
M  V30 3948 H 372.973 0.782445 -3.97064 0
M  V30 3949 H 369.728 -1.13696 -4.5975 0
M  V30 3950 H 370.152 -3.45416 -5.82252 0
M  V30 3951 H 374.794 -1.13766 -4.07207 0
M  V30 3952 H 372.512 -4.93181 -6.40155 0
M  V30 3953 H 376.098 -3.04315 -4.95866 0
M  V30 3954 H 374.978 -4.91534 -6.11035 0
M  V30 3955 N 372.481 1.55866 -0.233164 0
M  V30 3956 C 373.411 2.23783 0.666599 0
M  V30 3957 C 374.392 1.21343 1.19205 0
M  V30 3958 O 375.577 1.4996 1.23392 0
M  V30 3959 C 372.707 2.92671 1.86978 0
M  V30 3960 C 371.661 4.01682 1.47768 0
M  V30 3961 C 370.987 4.57926 2.76058 0
M  V30 3962 C 372.287 5.18126 0.658993 0
M  V30 3963 H 373.981 2.99232 0.100306 0
M  V30 3964 H 371.527 1.43924 0.046804 0
M  V30 3965 H 373.48 3.3888 2.50476 0
M  V30 3966 H 372.204 2.14688 2.46123 0
M  V30 3967 H 370.863 3.56222 0.866106 0
M  V30 3968 H 370.511 3.76659 3.33372 0
M  V30 3969 H 370.211 5.31505 2.50552 0
M  V30 3970 H 371.735 5.06859 3.40479 0
M  V30 3971 H 373.149 5.60644 1.19795 0
M  V30 3972 H 371.546 5.98009 0.500552 0
M  V30 3973 H 372.616 4.83763 -0.331856 0
M  V30 3974 N 373.959 -0.0401083 1.57549 0
M  V30 3975 C 374.906 -1.04413 2.05831 0
M  V30 3976 C 375.876 -1.36585 0.945184 0
M  V30 3977 O 377.061 -1.47112 1.21502 0
M  V30 3978 C 374.201 -2.34336 2.53339 0
M  V30 3979 C 373.314 -2.08419 3.78398 0
M  V30 3980 C 372.449 -3.32133 4.14561 0
M  V30 3981 C 371.488 -3.01721 5.3257 0
M  V30 3982 N 370.625 -4.17855 5.64218 0
M  V30 3983 H 375.465 -0.625442 2.91363 0
M  V30 3984 H 373.002 -0.297218 1.44066 0
M  V30 3985 H 374.96 -3.10234 2.78946 0
M  V30 3986 H 373.59 -2.73948 1.7074 0
M  V30 3987 H 372.642 -1.23069 3.59942 0
M  V30 3988 H 373.954 -1.81978 4.64419 0
M  V30 3989 H 373.108 -4.16406 4.41238 0
M  V30 3990 H 371.847 -3.61678 3.2717 0
M  V30 3991 H 370.852 -2.15849 5.05657 0
M  V30 3992 H 372.077 -2.73466 6.21605 0
M  V30 3993 H 370.023 -4.47372 4.79786 0
M  V30 3994 H 369.94 -3.94798 6.44725 0
M  V30 3995 H 371.208 -5.03033 5.95465 0
M  V30 3996 N 375.437 -1.54477 -0.31217 0
M  V30 3997 C 376.369 -1.81011 -1.40598 0
M  V30 3998 C 377.382 -0.692546 -1.47335 0
M  V30 3999 O 378.571 -0.969847 -1.49854 0
M  V30 4000 C 375.671 -1.92307 -2.79054 0
M  V30 4001 C 374.844 -3.22594 -2.95384 0
M  V30 4002 C 373.903 -3.24448 -4.1427 0
M  V30 4003 O 372.929 -3.98035 -4.06887 0
M  V30 4004 N 374.131 -2.49042 -5.24365 0
M  V30 4005 H 376.896 -2.75408 -1.18196 0
M  V30 4006 H 374.457 -1.53914 -0.502202 0
M  V30 4007 H 376.449 -1.90962 -3.56813 0
M  V30 4008 H 375.019 -1.04955 -2.94454 0
M  V30 4009 H 374.239 -3.36806 -2.04831 0
M  V30 4010 H 375.527 -4.08593 -3.03198 0
M  V30 4011 H 374.925 -1.88867 -5.33241 0
M  V30 4012 H 373.482 -2.53463 -6.005 0
M  V30 4013 N 376.915 0.57481 -1.46744 0
M  V30 4014 C 377.862 1.68329 -1.57905 0
M  V30 4015 C 378.832 1.60625 -0.422927 0
M  V30 4016 O 380.017 1.79721 -0.640711 0
M  V30 4017 C 377.157 3.06665 -1.58274 0
M  V30 4018 C 376.27 3.24935 -2.84678 0
M  V30 4019 C 375.405 4.53566 -2.76499 0
M  V30 4020 C 374.444 4.65207 -3.97806 0
M  V30 4021 N 373.581 5.85172 -3.87967 0
M  V30 4022 H 378.421 1.58127 -2.52587 0
M  V30 4023 H 375.958 0.770552 -1.25303 0
M  V30 4024 H 377.916 3.86745 -1.56473 0
M  V30 4025 H 376.546 3.15745 -0.671194 0
M  V30 4026 H 375.598 2.38405 -2.96424 0
M  V30 4027 H 376.91 3.29403 -3.7456 0
M  V30 4028 H 376.064 5.41885 -2.72848 0
M  V30 4029 H 374.803 4.51548 -1.8427 0
M  V30 4030 H 373.808 3.75304 -4.0178 0
M  V30 4031 H 375.033 4.68997 -4.9114 0
M  V30 4032 H 372.979 5.84137 -2.98529 0
M  V30 4033 H 372.896 5.90943 -4.71511 0
M  V30 4034 H 374.164 6.759 -3.88303 0
M  V30 4035 N 378.394 1.34581 0.820102 0
M  V30 4036 C 379.643 1.26437 1.57151 0
M  V30 4037 C 379.956 -0.163111 1.94919 0
M  V30 4038 O 381.162 -0.366722 2.69012 0
M  V30 4039 C 379.618 2.21658 2.83541 0
M  V30 4040 C 379.226 3.69679 2.53065 0
M  V30 4041 C 380.97 2.22428 3.61561 0
M  V30 4042 C 378.877 4.56761 3.75664 0
M  V30 4043 H 377.807 0.469707 0.589823 0
M  V30 4044 H 380.458 1.59763 0.902656 0
M  V30 4045 H 378.84 1.81287 3.52067 0
M  V30 4046 H 380.014 4.18605 1.92631 0
M  V30 4047 H 378.329 3.71384 1.88316 0
M  V30 4048 H 380.926 2.8471 4.52597 0
M  V30 4049 H 381.269 1.22434 3.97889 0
M  V30 4050 H 381.802 2.61259 2.99981 0
M  V30 4051 H 378.541 5.57702 3.44454 0
M  V30 4052 H 378.061 4.12568 4.35371 0
M  V30 4053 H 379.74 4.71509 4.43044 0
M  V30 4054 N 379.872 -1.04064 1.18357 0
M  V30 4055 C 380.82 -2.14187 0.907007 0
M  V30 4056 C 381.814 -1.68879 -0.132725 0
M  V30 4057 O 383.02 -1.79993 0.0154248 0
M  V30 4058 H 379.395 -0.699585 0.275835 0
M  V30 4059 H 381.366 -2.34711 1.84264 0
M  V30 4060 C 380.115 -3.44785 0.449254 0
M  V30 4061 H 379.438 -3.80058 1.24081 0
M  V30 4062 H 380.878 -4.22974 0.294737 0
M  V30 4063 C 379.337 -3.26391 -0.834909 0
M  V30 4064 O 379.867 -3.53973 -1.89911 0
M  V30 4065 N 378.073 -2.79726 -0.787523 0
M  V30 4066 H 377.62 -2.5748 0.0787347 0
M  V30 4067 H 377.578 -2.67798 -1.64716 0
M  V30 4068 N 381.35 -0.985608 -1.22978 0
M  V30 4069 C 382.596 -0.65836 -1.91816 0
M  V30 4070 C 382.929 0.806692 -1.76653 0
M  V30 4071 O 382.204 1.58252 -1.13078 0
M  V30 4072 C 382.487 -1.056 -3.44268 0
M  V30 4073 C 382.34 -2.57906 -3.68516 0
M  V30 4074 C 383.659 -0.603781 -4.35939 0
M  V30 4075 H 380.778 -0.24065 -0.696604 0
M  V30 4076 H 383.42 -1.22783 -1.44998 0
M  V30 4077 H 381.57 -0.571445 -3.84274 0
M  V30 4078 H 383.242 -3.13976 -3.3796 0
M  V30 4079 H 381.485 -3.00305 -3.13048 0
M  V30 4080 H 382.156 -2.80779 -4.75255 0
M  V30 4081 H 384.632 -1.01987 -4.03408 0
M  V30 4082 H 383.508 -0.910383 -5.41298 0
M  V30 4083 H 383.769 0.495761 -4.39312 0
M  V30 4084 N 382.828 1.3818 -0.7579 0
M  V30 4085 C 383.738 2.3421 -0.135247 0
M  V30 4086 C 384.754 1.59487 0.695683 0
M  V30 4087 O 385.93 1.91657 0.618832 0
M  V30 4088 C 382.995 3.3862 0.744139 0
M  V30 4089 C 382.056 4.2918 -0.101658 0
M  V30 4090 C 381.289 5.28603 0.735851 0
M  V30 4091 O 381.512 5.35166 1.97366 0
M  V30 4092 O 380.446 6.01707 0.152372 0
M  V30 4093 H 384.272 2.8916 -0.928436 0
M  V30 4094 H 381.857 1.40101 -0.518855 0
M  V30 4095 H 383.739 4.02539 1.2466 0
M  V30 4096 H 382.414 2.86019 1.51575 0
M  V30 4097 H 381.321 3.68407 -0.650167 0
M  V30 4098 H 382.654 4.85048 -0.836024 0
M  V30 4099 N 384.306 0.507319 1.49211 0
M  V30 4100 C 385.256 -0.287112 2.26185 0
M  V30 4101 C 386.24 -0.929983 1.31302 0
M  V30 4102 O 387.432 -0.836538 1.55984 0
M  V30 4103 C 384.561 -1.34718 3.15763 0
M  V30 4104 C 383.647 -0.710235 4.18111 0
M  V30 4105 N 384.038 0.190836 5.0544 0
M  V30 4106 C 382.336 -0.97009 4.35322 0
M  V30 4107 C 383.037 0.55606 5.79036 0
M  V30 4108 N 382.013 -0.0775232 5.43545 0
M  V30 4109 H 385.815 0.406445 2.91076 0
M  V30 4110 H 383.329 0.323814 1.59139 0
M  V30 4111 H 385.326 -1.92982 3.69545 0
M  V30 4112 H 383.986 -2.04235 2.52424 0
M  V30 4113 H 384.997 0.562047 5.14841 0
M  V30 4114 H 381.674 -1.65753 3.83187 0
M  V30 4115 H 383.064 1.2936 6.5933 0
M  V30 4116 N 385.784 -1.5574 0.241426 0
M  V30 4117 C 387.03 -1.99104 -0.385406 0
M  V30 4118 C 387.363 -1.1293 -1.57988 0
M  V30 4119 O 386.638 -0.191449 -1.93555 0
M  V30 4120 C 386.921 -3.51087 -0.800616 0
M  V30 4121 C 386.774 -4.48028 0.398874 0
M  V30 4122 C 388.093 -4.08015 -1.64959 0
M  V30 4123 H 385.212 -0.723848 -0.138614 0
M  V30 4124 H 387.854 -1.86903 0.341642 0
M  V30 4125 H 386.004 -3.61615 -1.4201 0
M  V30 4126 H 387.676 -4.49487 1.03726 0
M  V30 4127 H 385.919 -4.21077 1.04293 0
M  V30 4128 H 386.59 -5.51962 0.0651056 0
M  V30 4129 H 389.066 -4.00555 -1.12672 0
M  V30 4130 H 387.942 -5.14635 -1.90898 0
M  V30 4131 H 388.203 -3.56131 -2.61961 0
M  V30 4132 N 387.262 0.0317525 -1.57568 0
M  V30 4133 C 388.49 0.734949 -1.93407 0
M  V30 4134 C 388.905 1.69036 -0.84096 0
M  V30 4135 O 388.262 1.81582 0.182836 0
M  V30 4136 C 388.313 1.49432 -3.29169 0
M  V30 4137 O 388.034 0.577261 -4.3428 0
M  V30 4138 C 389.535 2.29492 -3.79273 0
M  V30 4139 H 386.755 0.206706 -0.638368 0
M  V30 4140 H 389.299 -0.00992046 -2.04498 0
M  V30 4141 H 387.454 2.1911 -3.19483 0
M  V30 4142 H 387.868 1.10952 -5.1263 0
M  V30 4143 H 389.342 2.78172 -4.76785 0
M  V30 4144 H 389.819 3.10794 -3.10328 0
M  V30 4145 H 390.425 1.64894 -3.92033 0
M  V30 4146 N 388.74 1.54641 0.303973 0
M  V30 4147 C 389.67 1.88386 1.3796 0
M  V30 4148 C 390.651 0.742485 1.5304 0
M  V30 4149 O 391.836 0.997959 1.66597 0
M  V30 4150 C 388.966 2.12854 2.74427 0
M  V30 4151 C 387.92 3.28702 2.74115 0
M  V30 4152 C 387.246 3.38582 4.13844 0
M  V30 4153 C 388.546 4.65881 2.3612 0
M  V30 4154 H 390.24 2.78474 1.09966 0
M  V30 4155 H 387.786 1.33988 0.527556 0
M  V30 4156 H 389.739 2.35047 3.49758 0
M  V30 4157 H 388.463 1.19535 3.03939 0
M  V30 4158 H 387.122 3.06428 2.0124 0
M  V30 4159 H 386.77 2.42784 4.40528 0
M  V30 4160 H 386.47 4.16453 4.14537 0
M  V30 4161 H 387.994 3.63031 4.90959 0
M  V30 4162 H 389.408 4.87823 3.01167 0
M  V30 4163 H 387.805 5.46444 2.48031 0
M  V30 4164 H 388.875 4.66799 1.3125 0
M  V30 4165 O 390.257 -0.449877 1.55108 0
M  V30 4166 H 390.948 -1.10376 1.59176 0
M  V30 END ATOM
M  V30 BEGIN BOND
M  V30 END BOND
M  V30 END CTAB
M  END
$$$$
