drugbank_target|Q9A1X4 50S ribosomal protein L3 (DB01256; DB06145)
 OpenBabel12092119413D

  0  0  0     0  0            999 V3000
M  V30 BEGIN CTAB
M  V30 COUNTS 3237 3260 0 0 0
M  V30 BEGIN ATOM
M  V30 1 H -0.908 1.98254 -0.117106 0
M  V30 2 N 0 1.576 0 0
M  V30 3 C 0.933 2.03868 1.02534 0
M  V30 4 C 1.911 0.928543 1.3348 0
M  V30 5 O 3.095 1.19667 1.45644 0
M  V30 6 C 0.222 2.43627 2.35294 0
M  V30 7 C -0.732 3.65373 2.2001 0
M  V30 8 S 0.101 5.13292 1.52614 0
M  V30 9 C 1.257 5.56322 2.86805 0
M  V30 10 H 1.49 2.90518 0.631377 0
M  V30 11 H -0.977 1.52953 0.210867 0
M  V30 12 H 0.981 2.67203 3.11629 0
M  V30 13 H -0.358 1.57376 2.7183 0
M  V30 14 H -1.165 3.90944 3.18086 0
M  V30 15 H -1.563 3.418 1.51819 0
M  V30 16 H 0.729 5.58782 3.83104 0
M  V30 17 H 1.672 6.56266 2.65933 0
M  V30 18 H 2.08 4.83886 2.90714 0
M  V30 19 N 1.4781 -0.272755 1.55222 0
M  V30 20 C 2.7061 -1.02255 1.79865 0
M  V30 21 C 3.1211 -1.79924 0.572088 0
M  V30 22 O 2.4781 -1.76638 -0.458842 0
M  V30 23 C 2.5291 -1.98094 3.02392 0
M  V30 24 O 2.2501 -1.23572 4.20311 0
M  V30 25 C 3.7511 -2.84884 3.39641 0
M  V30 26 H 0.9711 -0.302057 0.599168 0
M  V30 27 H 3.5151 -0.303465 2.02236 0
M  V30 28 H 1.6701 -2.65465 2.82147 0
M  V30 29 H 2.0841 -1.88172 4.89583 0
M  V30 30 H 3.5581 -3.47927 4.28545 0
M  V30 31 H 4.0351 -3.54665 2.59055 0
M  V30 32 H 4.6411 -2.23003 3.62146 0
M  V30 33 N 2.9562 -1.48159 -0.537278 0
M  V30 34 C 3.9032 -1.62138 -1.64256 0
M  V30 35 C 4.8732 -0.463668 -1.59497 0
M  V30 36 O 6.0582 -0.686241 -1.78032 0
M  V30 37 C 3.1982 -1.66028 -3.02537 0
M  V30 38 C 2.3112 -2.92855 -3.17585 0
M  V30 39 C 1.4462 -2.87952 -4.46382 0
M  V30 40 C 0.4852 -4.09516 -4.54932 0
M  V30 41 N -0.3778 -4.02733 -5.75109 0
M  V30 42 H 4.4622 -2.56529 -1.51647 0
M  V30 43 H 1.9992 -1.27224 -0.738414 0
M  V30 44 H 3.9572 -1.66265 -3.82638 0
M  V30 45 H 2.5872 -0.751331 -3.13934 0
M  V30 46 H 1.6392 -3.02395 -2.30784 0
M  V30 47 H 2.9512 -3.82822 -3.19764 0
M  V30 48 H 2.1052 -2.8655 -5.34765 0
M  V30 49 H 0.8442 -1.95702 -4.46712 0
M  V30 50 H -0.1508 -4.11201 -3.64957 0
M  V30 51 H 1.0742 -5.02917 -4.56346 0
M  V30 52 H -0.9798 -3.13299 -5.76351 0
M  V30 53 H -1.0628 -4.86397 -5.78752 0
M  V30 54 H 0.2052 -4.05379 -6.65799 0
M  V30 55 N 4.4343 0.785586 -1.36625 0
M  V30 56 C 5.6823 1.54057 -1.30808 0
M  V30 57 C 6.0033 1.94683 0.111157 0
M  V30 58 O 5.2733 1.65241 1.05224 0
M  V30 59 H 3.8533 0.571354 -0.481211 0
M  V30 60 H 6.5153 0.935821 -1.70963 0
M  V30 61 H 5.6113 2.44637 -1.93801 0
M  V30 62 N 5.9124 1.20967 1.01018 0
M  V30 63 C 7.1614 1.01796 1.74128 0
M  V30 64 C 7.4744 -0.449691 1.90361 0
M  V30 65 O 8.6804 -0.76068 2.60626 0
M  V30 66 C 7.1364 1.7727 3.13215 0
M  V30 67 C 6.7444 3.28171 3.04972 0
M  V30 68 C 8.4884 1.66489 3.90489 0
M  V30 69 C 6.3954 3.96156 4.39107 0
M  V30 70 H 5.3254 0.377276 0.652824 0
M  V30 71 H 7.9764 1.44651 1.12909 0
M  V30 72 H 6.3584 1.27205 3.75013 0
M  V30 73 H 7.5324 3.85499 2.52443 0
M  V30 74 H 5.8474 3.39437 2.41188 0
M  V30 75 H 8.4444 2.14617 4.89738 0
M  V30 76 H 8.7874 0.6222 4.11624 0
M  V30 77 H 9.3204 2.14003 3.35332 0
M  V30 78 H 6.0594 5.00604 4.23174 0
M  V30 79 H 5.5794 3.43617 4.91617 0
M  V30 80 H 7.2584 4.00774 5.07926 0
M  V30 81 N 7.3905 -1.2043 1.01659 0
M  V30 82 C 8.3205 -2.25466 0.607226 0
M  V30 83 C 9.3015 -1.65853 -0.377716 0
M  V30 84 O 10.4865 -1.92409 -0.263149 0
M  V30 85 C 7.6165 -3.47256 -0.0552949 0
M  V30 86 C 6.5705 -4.19462 0.850632 0
M  V30 87 C 5.8965 -5.34673 0.0538859 0
M  V30 88 C 7.1965 -4.75603 2.15868 0
M  V30 89 H 8.8905 -2.59962 1.48526 0
M  V30 90 H 6.4365 -1.2496 0.715605 0
M  V30 91 H 8.3895 -4.19917 -0.353233 0
M  V30 92 H 7.1135 -3.11924 -0.968045 0
M  V30 93 H 5.7725 -3.48667 1.13257 0
M  V30 94 H 5.4205 -4.95585 -0.860514 0
M  V30 95 H 5.1205 -5.83913 0.657192 0
M  V30 96 H 6.6445 -6.10138 -0.237598 0
M  V30 97 H 8.0585 -5.40083 1.92311 0
M  V30 98 H 6.4555 -5.3528 2.71284 0
M  V30 99 H 7.5255 -3.94346 2.82169 0
M  V30 100 N 8.8686 -0.792821 -1.36206 0
M  V30 101 C 10.1166 -0.366062 -1.98757 0
M  V30 102 C 10.4376 1.0668 -1.63231 0
M  V30 103 O 9.7076 1.73587 -0.907978 0
M  V30 104 H 8.2876 -0.132364 -0.735179 0
M  V30 105 H 10.9496 -1.01562 -1.66347 0
M  V30 106 H 10.0456 -0.460638 -3.08682 0
M  V30 107 N 10.3467 1.47872 -0.545128 0
M  V30 108 C 11.2937 2.29849 0.2093 0
M  V30 109 C 12.2637 1.38313 0.919707 0
M  V30 110 O 13.4487 1.67277 0.917772 0
M  V30 111 C 10.5887 3.22019 1.24088 0
M  V30 112 C 9.7017 4.2864 0.537778 0
M  V30 113 C 8.8367 5.07973 1.5536 0
M  V30 114 C 7.8757 6.06381 0.8348 0
M  V30 115 N 7.0127 6.78717 1.79688 0
M  V30 116 H 11.8527 2.93845 -0.49591 0
M  V30 117 H 9.3897 1.44848 -0.256389 0
M  V30 118 H 11.3477 3.73868 1.85144 0
M  V30 119 H 9.9777 2.59914 1.91428 0
M  V30 120 H 9.0297 3.7994 -0.187046 0
M  V30 121 H 10.3417 4.98793 -0.0258907 0
M  V30 122 H 9.4957 5.63912 2.23803 0
M  V30 123 H 8.2347 4.37693 2.15118 0
M  V30 124 H 7.2397 5.49631 0.136388 0
M  V30 125 H 8.4647 6.78665 0.24313 0
M  V30 126 H 6.4107 6.11177 2.38326 0
M  V30 127 H 6.3277 7.44998 1.28505 0
M  V30 128 H 7.5957 7.39237 2.47282 0
M  V30 129 N 11.8248 0.280983 1.55075 0
M  V30 130 C 12.7718 -0.603937 2.22758 0
M  V30 131 C 13.7418 -1.1452 1.20309 0
M  V30 132 O 14.9268 -1.19343 1.48869 0
M  V30 133 C 12.0668 -1.77947 2.95684 0
M  V30 134 C 11.1798 -1.2715 4.12864 0
M  V30 135 C 10.3148 -2.4093 4.7342 0
M  V30 136 C 9.3538 -1.87165 5.82783 0
M  V30 137 N 8.4908 -2.94441 6.37377 0
M  V30 138 H 13.3308 -0.020124 2.97993 0
M  V30 139 H 10.8678 0.00183425 1.471 0
M  V30 140 H 12.8258 -2.47055 3.36184 0
M  V30 141 H 11.4558 -2.33522 2.22861 0
M  V30 142 H 10.5078 -0.473331 3.77444 0
M  V30 143 H 11.8198 -0.837751 4.91715 0
M  V30 144 H 10.9738 -3.18021 5.1667 0
M  V30 145 H 9.7128 -2.87623 3.93859 0
M  V30 146 H 8.7178 -1.08556 5.38976 0
M  V30 147 H 9.9428 -1.41401 6.64216 0
M  V30 148 H 7.8888 -3.40505 5.60707 0
M  V30 149 H 7.8058 -2.55501 7.11516 0
M  V30 150 H 9.0738 -3.71489 6.85285 0
M  V30 151 N 13.3029 -1.57598 0.00835791 0
M  V30 152 C 14.5489 -1.91211 -0.675732 0
M  V30 153 C 14.8819 -0.883139 -1.72958 0
M  V30 154 O 14.1569 0.097016 -1.94258 0
M  V30 155 C 14.4399 -3.35379 -1.31123 0
M  V30 156 C 14.2929 -4.48999 -0.268356 0
M  V30 157 C 15.6119 -3.7912 -2.23508 0
M  V30 158 H 12.7309 -0.695374 -0.244179 0
M  V30 159 H 15.3729 -1.89901 0.0613655 0
M  V30 160 H 13.5229 -3.36626 -1.93946 0
M  V30 161 H 15.1949 -4.59887 0.360844 0
M  V30 162 H 13.4379 -4.31873 0.408482 0
M  V30 163 H 14.1089 -5.46851 -0.752218 0
M  V30 164 H 16.5849 -3.79477 -1.70693 0
M  V30 165 H 15.4609 -4.80729 -2.64936 0
M  V30 166 H 15.7219 -3.13455 -3.11766 0
M  V30 167 N 14.781 0.264519 -1.55364 0
M  V30 168 C 16.029 0.993021 -1.76021 0
M  V30 169 C 16.35 1.86511 -0.569099 0
M  V30 170 O 15.62 1.91438 0.415735 0
M  V30 171 H 14.2 0.369639 -0.649135 0
M  V30 172 H 16.862 0.286707 -1.9278 0
M  V30 173 H 15.958 1.62502 -2.66457 0
M  V30 174 N 16.2591 1.48442 0.529413 0
M  V30 175 C 17.1921 1.57577 1.65059 0
M  V30 176 C 18.1701 0.426198 1.56915 0
M  V30 177 O 19.3541 0.637877 1.77379 0
M  V30 178 C 16.4811 1.5043 3.03461 0
M  V30 179 C 15.5271 2.70235 3.29962 0
M  V30 180 S 16.3601 4.32198 3.16172 0
M  V30 181 C 17.5161 4.2765 4.57019 0
M  V30 182 H 17.7491 2.52427 1.5706 0
M  V30 183 H 15.2821 1.36982 0.712417 0
M  V30 184 H 17.2401 1.46992 3.8328 0
M  V30 185 H 15.9011 0.569167 3.089 0
M  V30 186 H 15.0941 2.61374 4.30929 0
M  V30 187 H 14.6961 2.70938 2.57815 0
M  V30 188 H 16.9881 3.97618 5.48549 0
M  V30 189 H 17.9311 5.28797 4.70934 0
M  V30 190 H 18.3391 3.5811 4.36368 0
M  V30 191 N 17.7372 -0.778329 1.37039 0
M  V30 192 C 18.9652 -1.56734 1.35063 0
M  V30 193 C 19.3802 -1.88686 -0.0655597 0
M  V30 194 O 18.7372 -1.5096 -1.02554 0
M  V30 195 C 18.7882 -2.88163 2.18276 0
M  V30 196 O 18.5092 -2.57583 3.54376 0
M  V30 197 C 20.0102 -3.82422 2.24206 0
M  V30 198 H 17.2302 -0.485778 0.462883 0
M  V30 199 H 19.7742 -0.965185 1.8029 0
M  V30 200 H 17.9292 -3.44818 1.76576 0
M  V30 201 H 18.3432 -3.41699 3.97922 0
M  V30 202 H 19.8172 -4.71667 2.86765 0
M  V30 203 H 20.2942 -4.21078 1.24861 0
M  V30 204 H 20.9002 -3.31697 2.6619 0
M  V30 205 N 19.2153 -1.21501 -1.00376 0
M  V30 206 C 20.1473 -0.933174 -2.09343 0
M  V30 207 C 21.1603 0.0840896 -1.62583 0
M  V30 208 O 22.3493 -0.148563 -1.77881 0
M  V30 209 C 19.4493 -0.379869 -3.36764 0
M  V30 210 C 18.6223 -1.45176 -4.12605 0
M  V30 211 C 17.6813 -0.907476 -5.18316 0
M  V30 212 O 16.7073 -1.5912 -5.46507 0
M  V30 213 N 17.9093 0.276649 -5.7984 0
M  V30 214 H 20.6743 -1.87124 -2.34104 0
M  V30 215 H 18.2353 -1.12043 -1.16867 0
M  V30 216 H 20.2273 -0.00131488 -4.047 0
M  V30 217 H 18.7973 0.463048 -3.09151 0
M  V30 218 H 18.0173 -2.00411 -3.39454 0
M  V30 219 H 19.3053 -2.17328 -4.6005 0
M  V30 220 H 18.7033 0.849147 -5.59291 0
M  V30 221 H 17.2603 0.596702 -6.49063 0
M  V30 222 N 20.6934 1.19889 -1.02296 0
M  V30 223 C 21.9424 1.88743 -0.711257 0
M  V30 224 C 22.2554 1.80112 0.762817 0
M  V30 225 O 23.4614 2.44161 1.18733 0
M  V30 226 C 21.9174 3.38525 -1.22185 0
M  V30 227 C 21.5254 3.55727 -2.72328 0
M  V30 228 C 23.2694 4.12893 -0.985864 0
M  V30 229 C 21.1764 4.99369 -3.16835 0
M  V30 230 H 20.1064 0.706885 -0.262353 0
M  V30 231 H 22.7574 1.35586 -1.23648 0
M  V30 232 H 21.1394 3.91044 -0.624571 0
M  V30 233 H 22.3134 3.13564 -3.3766 0
M  V30 234 H 20.6284 2.94739 -2.9414 0
M  V30 235 H 23.2254 5.18813 -1.29374 0
M  V30 236 H 23.5684 4.16228 0.0775055 0
M  V30 237 H 24.1014 3.66494 -1.54684 0
M  V30 238 H 20.8404 5.01193 -4.22476 0
M  V30 239 H 20.3604 5.42317 -2.56228 0
M  V30 240 H 22.0394 5.67988 -3.09837 0
M  V30 241 N 22.1715 0.800033 1.35784 0
M  V30 242 C 23.4185 0.377342 1.98953 0
M  V30 243 C 23.7465 -1.05378 1.6348 0
M  V30 244 O 23.0015 -1.74459 0.886707 0
M  V30 245 C 23.3005 0.500276 3.53881 0
M  V30 246 C 22.9665 1.89375 4.09204 0
M  V30 247 C 21.6285 2.27499 4.24025 0
M  V30 248 C 23.9805 2.8057 4.39238 0
M  V30 249 C 21.3085 3.562 4.66195 0
M  V30 250 C 23.6605 4.0871 4.82844 0
M  V30 251 C 22.3245 4.46843 4.95871 0
M  V30 252 H 21.5945 0.138079 0.728021 0
M  V30 253 H 24.2415 1.01955 1.62103 0
M  V30 254 H 22.5465 -0.225405 3.91151 0
M  V30 255 H 24.2435 0.154097 4.00704 0
M  V30 256 H 20.8335 1.58753 3.98115 0
M  V30 257 H 25.0175 2.52367 4.27346 0
M  V30 258 H 20.2735 3.85602 4.74469 0
M  V30 259 H 24.4475 4.79481 5.05046 0
M  V30 260 H 22.0745 5.46623 5.28306 0
M  V30 261 N 23.6496 -1.47581 0.552962 0
M  V30 262 C 24.8776 -2.06875 0.0320556 0
M  V30 263 C 25.2926 -1.40625 -1.25976 0
M  V30 264 O 24.6496 -0.501349 -1.75479 0
M  V30 265 C 24.7006 -3.61092 -0.17167 0
M  V30 266 O 24.4216 -4.24858 1.06899 0
M  V30 267 C 25.9226 -4.37242 -0.730344 0
M  V30 268 H 23.1426 -0.669561 0.043915 0
M  V30 269 H 25.6866 -1.89646 0.765163 0
M  V30 270 H 23.8416 -3.7785 -0.854894 0
M  V30 271 H 24.2556 -5.17334 0.864059 0
M  V30 272 H 25.7296 -5.45842 -0.822203 0
M  V30 273 H 26.2066 -4.03235 -1.74064 0
M  V30 274 H 26.8126 -4.25219 -0.0829543 0
M  V30 275 N 25.1277 -0.289203 -1.54924 0
M  V30 276 C 26.0377 0.601863 -2.26748 0
M  V30 277 C 27.0537 1.15834 -1.2984 0
M  V30 278 O 28.2297 1.18564 -1.62802 0
M  V30 279 C 25.2947 1.76299 -2.98529 0
M  V30 280 C 24.3557 1.24178 -4.10948 0
M  V30 281 C 23.5887 2.34757 -4.79296 0
M  V30 282 O 23.8117 3.54411 -4.46933 0
M  V30 283 O 22.7457 2.02115 -5.66951 0
M  V30 284 H 26.5717 0.0195879 -3.03694 0
M  V30 285 H 24.1567 -0.0560868 -1.49295 0
M  V30 286 H 26.0387 2.43973 -3.43592 0
M  V30 287 H 24.7137 2.33209 -2.24488 0
M  V30 288 H 23.6207 0.531104 -3.70311 0
M  V30 289 H 24.9537 0.718252 -4.86931 0
M  V30 290 N 26.6058 1.57591 -0.0167156 0
M  V30 291 C 27.8308 1.9598 0.67872 0
M  V30 292 C 28.2558 0.892546 1.65575 0
M  V30 293 O 27.6138 -0.147772 1.80697 0
M  V30 294 C 27.6618 3.33468 1.37227 0
M  V30 295 O 26.7658 3.28954 2.48722 0
M  V30 296 H 26.1068 0.639339 0.17928 0
M  V30 297 H 28.6368 2.04463 -0.0748802 0
M  V30 298 H 28.6468 3.69417 1.7319 0
M  V30 299 H 27.3218 4.10694 0.656007 0
M  V30 300 H 25.8988 3.04705 2.14963 0
M  V30 301 N 28.0839 -0.256276 1.55502 0
M  V30 302 C 29.3319 -0.983672 1.76545 0
M  V30 303 C 29.6529 -1.86206 0.578982 0
M  V30 304 O 28.9229 -1.91656 -0.405577 0
M  V30 305 H 27.5029 -0.366191 0.651086 0
M  V30 306 H 30.1649 -0.276479 1.92929 0
M  V30 307 H 29.2609 -1.61087 2.67315 0
M  V30 308 N 29.562 -1.4872 -0.521534 0
M  V30 309 C 30.472 -1.66569 -1.65203 0
M  V30 310 C 31.488 -0.548197 -1.65139 0
M  V30 311 O 32.664 -0.820339 -1.83936 0
M  V30 312 C 29.729 -1.70917 -3.01642 0
M  V30 313 C 28.79 -2.94356 -3.12495 0
M  V30 314 C 28.023 -2.98487 -4.42426 0
M  V30 315 O 28.246 -2.10786 -5.30024 0
M  V30 316 O 27.18 -3.90746 -4.57822 0
M  V30 317 H 31.006 -2.62298 -1.5308 0
M  V30 318 H 28.591 -1.3222 -0.695565 0
M  V30 319 H 30.473 -1.7625 -3.82771 0
M  V30 320 H 29.148 -0.783633 -3.14071 0
M  V30 321 H 28.055 -2.94552 -2.3063 0
M  V30 322 H 29.388 -3.86322 -3.04986 0
M  V30 323 N 31.0401 0.771051 -1.3745 0
M  V30 324 C 32.2871 1.52963 -1.32697 0
M  V30 325 C 32.6151 1.94299 0.0883274 0
M  V30 326 O 31.8701 1.64397 1.0617 0
M  V30 327 C 32.1691 2.80676 -2.2126 0
M  V30 328 C 31.8351 2.58389 -3.69521 0
M  V30 329 C 30.4971 2.52019 -4.09927 0
M  V30 330 C 32.8491 2.38469 -4.63446 0
M  V30 331 C 30.1771 2.23721 -5.42371 0
M  V30 332 C 32.5291 2.11694 -5.96128 0
M  V30 333 C 31.1931 2.03769 -6.35637 0
M  V30 334 H 30.4631 0.559732 -0.485573 0
M  V30 335 H 33.1101 0.888083 -1.69662 0
M  V30 336 H 31.4151 3.49392 -1.77291 0
M  V30 337 H 33.1121 3.38557 -2.14895 0
M  V30 338 H 29.7021 2.6421 -3.37478 0
M  V30 339 H 33.8861 2.4238 -4.33089 0
M  V30 340 H 29.1421 2.16081 -5.71943 0
M  V30 341 H 33.3161 1.9528 -6.6846 0
M  V30 342 H 30.9431 1.81606 -7.38189 0
M  V30 343 N 32.5182 1.22032 0.997298 0
M  V30 344 C 33.7672 1.03637 1.73038 0
M  V30 345 C 34.0802 -0.429475 1.90827 0
M  V30 346 O 35.2862 -0.732995 2.61418 0
M  V30 347 C 33.7422 1.80582 3.11317 0
M  V30 348 C 33.3502 3.31387 3.01474 0
M  V30 349 C 35.0942 1.70621 3.88701 0
M  V30 350 C 33.0012 4.00791 4.3488 0
M  V30 351 H 31.9312 0.384179 0.648785 0
M  V30 352 H 34.5822 1.4584 1.11368 0
M  V30 353 H 32.9642 1.31175 3.73643 0
M  V30 354 H 34.1382 3.88155 2.4834 0
M  V30 355 H 32.4532 3.41976 2.37575 0
M  V30 356 H 35.0502 2.19799 4.87434 0
M  V30 357 H 35.3932 0.665823 4.10941 0
M  V30 358 H 35.9262 2.17547 3.33044 0
M  V30 359 H 32.6652 5.05064 4.1784 0
M  V30 360 H 32.1852 3.48811 4.87945 0
M  V30 361 H 33.8642 4.06139 5.03647 0
M  V30 362 N 33.9963 -1.19345 1.0293 0
M  V30 363 C 35.4073 -1.70725 0.755633 0
M  V30 364 C 35.7583 -1.82326 -0.724676 0
M  V30 365 O 34.8833 -1.49471 -1.56484 0
M  V30 366 C 35.4783 -3.10084 1.36503 0
M  V30 367 C 34.0373 -3.58723 1.13994 0
M  V30 368 C 33.1843 -2.35577 1.46283 0
M  V30 369 H 36.1353 -1.0418 1.19718 0
M  V30 370 H 36.1563 -3.72787 0.762217 0
M  V30 371 H 35.6683 -3.01609 2.44241 0
M  V30 372 H 33.7693 -3.72512 0.0807901 0
M  V30 373 H 33.8823 -4.42816 1.82894 0
M  V30 374 H 32.2463 -2.38935 0.88217 0
M  V30 375 H 33.0293 -2.29731 2.55105 0
M  V30 376 N 35.4744 -0.807222 -1.35358 0
M  V30 377 C 36.7204 -0.388463 -1.99045 0
M  V30 378 C 37.0534 1.04184 -1.63888 0
M  V30 379 O 36.3284 1.72292 -0.902535 0
M  V30 380 C 36.6114 -0.572783 -3.55515 0
M  V30 381 C 36.4644 -2.04807 -4.00468 0
M  V30 382 C 37.7834 0.00114064 -4.401 0
M  V30 383 H 34.9024 -0.142619 -0.723069 0
M  V30 384 H 37.5444 -1.01687 -1.60498 0
M  V30 385 H 35.6944 -0.0378425 -3.88482 0
M  V30 386 H 37.3664 -2.64544 -3.77908 0
M  V30 387 H 35.6094 -2.54427 -3.51353 0
M  V30 388 H 36.2804 -2.12792 -5.09337 0
M  V30 389 H 38.7564 -0.455716 -4.13597 0
M  V30 390 H 37.6324 -0.157737 -5.48673 0
M  V30 391 H 37.8934 1.09488 -4.28328 0
M  V30 392 N 36.9525 1.47285 -0.560781 0
M  V30 393 C 38.1805 2.06855 -0.0430262 0
M  V30 394 C 38.5955 1.41291 1.25229 0
M  V30 395 O 37.9525 0.510648 1.7521 0
M  V30 396 C 38.0035 3.61178 0.152518 0
M  V30 397 O 37.7245 4.24285 -1.0915 0
M  V30 398 C 39.2255 4.37624 0.707145 0
M  V30 399 H 36.4455 0.669319 -0.0474652 0
M  V30 400 H 38.9895 1.89237 -0.77521 0
M  V30 401 H 37.1445 3.78298 0.834843 0
M  V30 402 H 37.5585 5.16868 -0.891482 0
M  V30 403 H 39.0325 5.46271 0.793244 0
M  V30 404 H 39.5095 4.04152 1.71923 0
M  V30 405 H 40.1155 4.25257 0.0604027 0
M  V30 406 N 38.4306 0.297415 1.54768 0
M  V30 407 C 39.6766 -0.313376 2.00364 0
M  V30 408 C 40.0096 -1.53815 1.18553 0
M  V30 409 O 39.2846 -1.92739 0.261103 0
M  V30 410 C 39.5676 -0.673525 3.53745 0
M  V30 411 C 39.4206 0.560133 4.46299 0
M  V30 412 C 40.7396 -1.50143 4.13697 0
M  V30 413 H 37.8586 -0.112428 0.728374 0
M  V30 414 H 40.5006 0.4088 1.8555 0
M  V30 415 H 38.6506 -1.28881 3.665 0
M  V30 416 H 40.3226 1.19863 4.45455 0
M  V30 417 H 38.5656 1.19405 4.17043 0
M  V30 418 H 39.2366 0.26405 5.51368 0
M  V30 419 H 41.7126 -0.981588 4.04356 0
M  V30 420 H 40.5886 -1.72221 5.21182 0
M  V30 421 H 40.8496 -2.48952 3.65343 0
M  V30 422 N 39.9087 -1.5758 0.0250728 0
M  V30 423 C 41.1577 -1.90811 -0.653767 0
M  V30 424 C 41.4707 -0.90273 -1.73523 0
M  V30 425 O 42.6767 -1.12614 -2.47043 0
M  V30 426 C 41.1327 -3.38804 -1.21409 0
M  V30 427 C 40.7407 -4.47692 -0.166126 0
M  V30 428 C 42.4847 -3.81108 -1.86967 0
M  V30 429 C 40.3917 -5.86779 -0.737856 0
M  V30 430 H 39.3217 -0.712063 -0.247956 0
M  V30 431 H 41.9727 -1.83281 0.0897137 0
M  V30 432 H 40.3547 -3.41252 -2.00905 0
M  V30 433 H 41.5287 -4.56797 0.606079 0
M  V30 434 H 39.8437 -4.14565 0.390466 0
M  V30 435 H 42.4407 -4.82375 -2.30692 0
M  V30 436 H 42.7837 -3.15953 -2.71071 0
M  V30 437 H 43.3167 -3.81065 -1.14167 0
M  V30 438 H 40.0557 -6.55468 0.0649577 0
M  V30 439 H 39.5757 -5.81288 -1.47864 0
M  V30 440 H 41.2547 -6.35223 -1.22884 0
M  V30 441 N 41.3868 0.248026 -1.55636 0
M  V30 442 C 42.2968 1.32859 -1.93354 0
M  V30 443 C 43.3128 1.52719 -0.833838 0
M  V30 444 O 44.4888 1.66363 -1.13513 0
M  V30 445 C 41.5538 2.66337 -2.21958 0
M  V30 446 C 40.6148 2.55008 -3.45354 0
M  V30 447 C 39.8478 3.82121 -3.72584 0
M  V30 448 O 40.0708 4.83951 -3.01907 0
M  V30 449 O 39.0048 3.80822 -4.6611 0
M  V30 450 H 42.8308 1.03862 -2.85388 0
M  V30 451 H 40.4158 0.448686 -1.42503 0
M  V30 452 H 42.2978 3.45216 -2.4167 0
M  V30 453 H 40.9728 2.95068 -1.33103 0
M  V30 454 H 39.8798 1.7442 -3.30951 0
M  V30 455 H 41.2128 2.31222 -4.34508 0
M  V30 456 N 42.8649 1.48995 0.513639 0
M  V30 457 C 43.8279 1.64229 1.59879 0
M  V30 458 C 44.8279 0.514696 1.5234 0
M  V30 459 O 46.0179 0.78087 1.55718 0
M  V30 460 C 43.1499 1.62783 2.99524 0
M  V30 461 H 44.3429 2.61004 1.47705 0
M  V30 462 H 41.8959 1.37837 0.736936 0
M  V30 463 H 42.6309 0.675461 3.17188 0
M  V30 464 H 42.4159 2.4466 3.06404 0
M  V30 465 H 43.9059 1.76669 3.78388 0
M  V30 466 N 44.343 -0.763751 1.37857 0
M  V30 467 C 45.571 -1.55293 1.36718 0
M  V30 468 C 45.986 -1.88745 -0.0455434 0
M  V30 469 O 45.343 -1.52039 -1.00947 0
M  V30 470 C 45.394 -2.85831 2.2132 0
M  V30 471 O 45.115 -2.5381 3.57089 0
M  V30 472 C 46.616 -3.80023 2.28249 0
M  V30 473 H 43.836 -0.480841 0.468009 0
M  V30 474 H 46.38 -0.946009 1.81303 0
M  V30 475 H 44.535 -3.42926 1.80223 0
M  V30 476 H 44.949 -3.37459 4.01524 0
M  V30 477 H 46.423 -4.68599 2.91752 0
M  V30 478 H 46.9 -4.1973 1.2932 0
M  V30 479 H 47.506 -3.28855 2.69693 0
M  V30 480 N 45.8211 -1.22559 -0.990812 0
M  V30 481 C 47.2321 -1.04791 -1.54518 0
M  V30 482 C 47.5831 0.387998 -1.92325 0
M  V30 483 O 46.7081 1.27328 -1.74976 0
M  V30 484 C 47.3031 -1.896 -2.80779 0
M  V30 485 C 45.8621 -1.76124 -3.32652 0
M  V30 486 C 45.0091 -1.8594 -2.05722 0
M  V30 487 H 47.9601 -1.36374 -0.811662 0
M  V30 488 H 47.9811 -1.41464 -3.53225 0
M  V30 489 H 47.4931 -2.94101 -2.53231 0
M  V30 490 H 45.5941 -0.743643 -3.65104 0
M  V30 491 H 45.7071 -2.58913 -4.03114 0
M  V30 492 H 44.0711 -1.29403 -2.19379 0
M  V30 493 H 44.8541 -2.91976 -1.80568 0
M  V30 494 N 47.2992 1.18797 -1.03562 0
M  V30 495 C 48.2472 2.24297 -0.615905 0
M  V30 496 C 49.2412 1.65643 0.354808 0
M  V30 497 O 50.4472 1.78618 0.22265 0
M  V30 498 H 46.8222 0.729909 -0.180934 0
M  V30 499 H 48.7932 2.5701 -1.5162 0
M  V30 500 C 47.5422 3.47698 0.0104735 0
M  V30 501 H 46.8652 3.93125 -0.727509 0
M  V30 502 H 48.3052 4.23159 0.266995 0
M  V30 503 C 46.7642 3.12489 1.25905 0
M  V30 504 O 47.2942 3.25761 2.35038 0
M  V30 505 N 45.5002 2.6686 1.15039 0
M  V30 506 H 45.0472 2.56261 0.262328 0
M  V30 507 H 45.0052 2.43674 1.98672 0
M  V30 508 N 48.7773 0.814389 1.34928 0
M  V30 509 C 50.0233 0.399013 1.98836 0
M  V30 510 C 50.3563 -1.03314 1.64438 0
M  V30 511 O 49.6313 -1.71811 0.911659 0
M  V30 512 C 49.9143 0.591629 3.55207 0
M  V30 513 C 49.7673 2.06928 3.99376 0
M  V30 514 C 51.0863 0.022199 4.40094 0
M  V30 515 H 48.2053 0.146451 0.722303 0
M  V30 516 H 50.8473 1.02537 1.59957 0
M  V30 517 H 48.9973 0.0584441 3.88456 0
M  V30 518 H 50.6693 2.66544 3.76499 0
M  V30 519 H 48.9123 2.56287 3.49999 0
M  V30 520 H 49.5833 2.1549 5.08201 0
M  V30 521 H 52.0593 0.477643 4.13349 0
M  V30 522 H 50.9353 0.186832 5.48582 0
M  V30 523 H 51.1963 -1.07215 4.28902 0
M  V30 524 N 50.2554 -1.46986 0.568584 0
M  V30 525 C 51.5014 -2.02741 0.0488709 0
M  V30 526 C 51.8344 -1.44077 -1.30214 0
M  V30 527 O 51.1094 -0.600552 -1.84996 0
M  V30 528 C 51.3924 -3.60086 -0.032047 0
M  V30 529 C 51.2454 -4.29162 1.34686 0
M  V30 530 C 52.5644 -4.33838 -0.739798 0
M  V30 531 H 49.6834 -0.736749 0.0192338 0
M  V30 532 H 52.3254 -1.75289 0.733065 0
M  V30 533 H 50.4754 -3.83606 -0.61473 0
M  V30 534 H 52.1474 -4.16948 1.97362 0
M  V30 535 H 50.3904 -3.89073 1.91846 0
M  V30 536 H 51.0614 -5.37826 1.24285 0
M  V30 537 H 53.5374 -4.15378 -0.244939 0
M  V30 538 H 52.4134 -5.43537 -0.765406 0
M  V30 539 H 52.6744 -4.03875 -1.79827 0
M  V30 540 N 51.7335 -0.305618 -1.54608 0
M  V30 541 C 52.6635 0.561482 -2.26649 0
M  V30 542 C 53.6445 1.13415 -1.26772 0
M  V30 543 O 54.8295 1.16262 -1.55553 0
M  V30 544 C 51.9595 1.73122 -3.01075 0
M  V30 545 C 50.9135 1.2887 -4.08138 0
M  V30 546 C 50.2395 2.54396 -4.70305 0
M  V30 547 C 51.5395 0.416578 -5.20636 0
M  V30 548 H 53.2335 -0.0393902 -2.99374 0
M  V30 549 H 50.7795 -0.020385 -1.43986 0
M  V30 550 H 52.7325 2.34396 -3.50195 0
M  V30 551 H 51.4565 2.3584 -2.25936 0
M  V30 552 H 50.1155 0.698991 -3.59875 0
M  V30 553 H 49.7635 3.15439 -3.918 0
M  V30 554 H 49.4635 2.25486 -5.42614 0
M  V30 555 H 50.9875 3.16464 -5.2219 0
M  V30 556 H 52.4015 0.935116 -5.65622 0
M  V30 557 H 50.7985 0.221046 -5.99693 0
M  V30 558 H 51.8685 -0.557162 -4.81688 0
M  V30 559 N 53.2116 1.57565 -0.0334293 0
M  V30 560 C 54.1436 2.0739 0.975811 0
M  V30 561 C 55.1566 0.998166 1.2861 0
M  V30 562 O 56.3456 1.27426 1.25 0
M  V30 563 C 53.4456 2.4871 2.30209 0
M  V30 564 C 52.6186 3.79413 2.17634 0
M  V30 565 C 51.6776 4.07237 3.33233 0
M  V30 566 O 50.7036 4.77425 3.09927 0
M  V30 567 N 51.9056 3.5775 4.5716 0
M  V30 568 H 54.6706 2.94598 0.55066 0
M  V30 569 H 52.2316 1.61173 0.15323 0
M  V30 570 H 54.2236 2.64413 3.06378 0
M  V30 571 H 52.7936 1.66845 2.64351 0
M  V30 572 H 52.0136 3.73465 1.26165 0
M  V30 573 H 53.3016 4.65038 2.0644 0
M  V30 574 H 52.6996 3.00976 4.78989 0
M  V30 575 H 51.2566 3.78724 5.30482 0
M  V30 576 N 54.6897 -0.239769 1.55765 0
M  V30 577 C 55.9357 -0.968234 1.78194 0
M  V30 578 C 56.2687 -1.84701 0.599938 0
M  V30 579 O 55.5437 -1.9031 -0.401524 0
M  V30 580 C 55.8267 -1.8227 3.10564 0
M  V30 581 C 55.6797 -0.971633 4.3918 0
M  V30 582 C 56.9987 -2.80388 3.39221 0
M  V30 583 H 54.1177 -0.350572 0.648281 0
M  V30 584 H 56.7597 -0.238259 1.885 0
M  V30 585 H 54.9097 -2.44507 3.01908 0
M  V30 586 H 56.5817 -0.367408 4.59835 0
M  V30 587 H 54.8247 -0.276276 4.32919 0
M  V30 588 H 55.4957 -1.60346 5.28198 0
M  V30 589 H 57.9717 -2.28287 3.47885 0
M  V30 590 H 56.8477 -3.3729 4.33044 0
M  V30 591 H 57.1087 -3.57212 2.60484 0
M  V30 592 N 56.1678 -1.49265 -0.50573 0
M  V30 593 C 57.1148 -1.65585 -1.6078 0
M  V30 594 C 58.0848 -0.497396 -1.58478 0
M  V30 595 O 59.2698 -0.72385 -1.76536 0
M  V30 596 C 56.4098 -1.72408 -2.98948 0
M  V30 597 C 55.5228 -2.99525 -3.11301 0
M  V30 598 C 54.6578 -2.97356 -4.40174 0
M  V30 599 C 53.6968 -4.19074 -4.46143 0
M  V30 600 N 52.8338 -4.14841 -5.66437 0
M  V30 601 H 57.6738 -2.59688 -1.46172 0
M  V30 602 H 55.2108 -1.28761 -0.711261 0
M  V30 603 H 57.1688 -1.74344 -3.79025 0
M  V30 604 H 55.7988 -0.817753 -3.1227 0
M  V30 605 H 54.8508 -3.07222 -2.24318 0
M  V30 606 H 56.1628 -3.89518 -3.11572 0
M  V30 607 H 55.3168 -2.97829 -5.28567 0
M  V30 608 H 54.0558 -2.05133 -4.42461 0
M  V30 609 H 53.0608 -4.1885 -3.56153 0
M  V30 610 H 54.2858 -5.12483 -4.45575 0
M  V30 611 H 52.2318 -3.25453 -5.69575 0
M  V30 612 H 52.1488 -4.98564 -5.68304 0
M  V30 613 H 53.4168 -4.1941 -6.57051 0
M  V30 614 N 57.6459 0.756429 -1.3826 0
M  V30 615 C 58.8739 1.54565 -1.3754 0
M  V30 616 C 59.2889 1.88767 0.0355331 0
M  V30 617 O 58.6459 1.52572 1.0014 0
M  V30 618 C 58.6969 2.84654 -2.22833 0
M  V30 619 O 58.4179 2.51912 -3.5843 0
M  V30 620 C 59.9189 3.78807 -2.30261 0
M  V30 621 H 57.1389 0.478353 -0.470553 0
M  V30 622 H 59.6829 0.936381 -1.81803 0
M  V30 623 H 57.8379 3.41965 -1.8204 0
M  V30 624 H 58.2519 3.35325 -4.03308 0
M  V30 625 H 59.7259 4.67045 -2.94233 0
M  V30 626 H 60.2029 4.19038 -1.31545 0
M  V30 627 H 60.8089 3.2742 -2.71433 0
M  V30 628 N 59.124 1.23083 0.984299 0
M  V30 629 C 60.37 1.06214 1.72761 0
M  V30 630 C 60.703 -0.400584 1.90024 0
M  V30 631 O 59.978 -1.29672 1.44967 0
M  V30 632 C 60.261 1.78375 3.12817 0
M  V30 633 C 60.114 3.32296 3.03149 0
M  V30 634 C 61.433 1.54309 4.12161 0
M  V30 635 H 58.552 0.387251 0.627061 0
M  V30 636 H 61.194 1.51536 1.14616 0
M  V30 637 H 59.344 1.39848 3.62457 0
M  V30 638 H 61.016 3.8032 2.61064 0
M  V30 639 H 59.259 3.6153 2.39747 0
M  V30 640 H 59.93 3.77972 4.02295 0
M  V30 641 H 62.406 1.87791 3.71314 0
M  V30 642 H 61.282 2.07281 5.08258 0
M  V30 643 H 61.543 0.477572 4.39513 0
M  V30 644 N 60.6021 -1.18246 1.0419 0
M  V30 645 C 61.5121 -2.25574 0.644476 0
M  V30 646 C 62.5281 -1.70845 -0.329826 0
M  V30 647 O 63.7041 -2.00554 -0.184443 0
M  V30 648 C 60.7691 -3.46697 0.014877 0
M  V30 649 C 59.8301 -4.16554 1.03834 0
M  V30 650 C 59.0631 -5.31894 0.438692 0
M  V30 651 O 59.2861 -5.65385 -0.754752 0
M  V30 652 O 58.2201 -5.90459 1.168 0
M  V30 653 H 62.0461 -2.61836 1.53869 0
M  V30 654 H 59.6311 -1.25352 0.812854 0
M  V30 655 H 61.5131 -4.20062 -0.335538 0
M  V30 656 H 60.1881 -3.12255 -0.853138 0
M  V30 657 H 59.0951 -3.45251 1.44057 0
M  V30 658 H 60.4281 -4.54998 1.87716 0
M  V30 659 N 62.0802 -0.821533 -1.34494 0
M  V30 660 C 63.3082 -0.421884 -2.02553 0
M  V30 661 C 63.7232 0.971745 -1.61872 0
M  V30 662 O 63.0802 1.62864 -0.823496 0
M  V30 663 C 63.1312 -0.51285 -3.57844 0
M  V30 664 O 62.8522 -1.85155 -3.97051 0
M  V30 665 C 64.3532 -0.107921 -4.43169 0
M  V30 666 H 61.5732 -0.169482 -0.649243 0
M  V30 667 H 64.1172 -1.1093 -1.71798 0
M  V30 668 H 62.2722 0.126474 -3.87193 0
M  V30 669 H 62.6862 -1.82482 -4.91732 0
M  V30 670 H 64.1602 -0.222657 -5.51551 0
M  V30 671 H 64.6372 0.948401 -4.28838 0
M  V30 672 H 65.2432 -0.720989 -4.19144 0
M  V30 673 N 63.5583 1.46682 -0.576371 0
M  V30 674 C 64.8353 1.95599 0.00703437 0
M  V30 675 C 65.2153 1.51904 1.46589 0
M  V30 676 O 64.5633 0.766755 2.15251 0
M  V30 677 C 64.7733 3.4864 -0.158404 0
M  V30 678 C 66.1213 4.24594 -0.0229439 0
M  V30 679 O 67.1453 3.56094 -0.0869173 0
M  V30 680 O 66.0043 5.46373 0.118015 0
M  V30 681 H 63.0983 0.825275 0.053384 0
M  V30 682 H 65.6443 1.56996 -0.644244 0
M  V30 683 H 64.4163 3.7331 -1.17282 0
M  V30 684 H 64.0393 3.94057 0.5296 0
M  V30 685 N 65.0364 0.313813 1.54444 0
M  V30 686 C 66.2844 -0.291099 1.99993 0
M  V30 687 C 66.6054 -1.53418 1.20366 0
M  V30 688 O 65.8754 -1.93544 0.302927 0
M  V30 689 H 64.4554 -0.110552 0.738774 0
M  V30 690 H 67.1174 0.428106 1.9014 0
M  V30 691 H 66.2134 -0.554268 3.07139 0
M  V30 692 N 66.5145 -1.57545 0.0417849 0
M  V30 693 C 67.7445 -1.96339 -0.642995 0
M  V30 694 C 68.1525 -0.917536 -1.65463 0
M  V30 695 O 67.4955 0.107747 -1.83384 0
M  V30 696 C 67.5575 -3.31333 -1.39494 0
M  V30 697 C 67.2215 -4.53796 -0.540204 0
M  V30 698 C 68.2185 -5.19553 0.189806 0
M  V30 699 C 65.9035 -5.0006 -0.473886 0
M  V30 700 C 67.8975 -6.29904 0.974674 0
M  V30 701 C 65.5845 -6.10289 0.314677 0
M  V30 702 C 66.5825 -6.75072 1.03765 0
M  V30 703 O 66.2705 -7.83183 1.81327 0
M  V30 704 H 66.0025 -0.651241 -0.181277 0
M  V30 705 H 68.5565 -2.05148 0.101665 0
M  V30 706 H 66.7865 -3.19052 -2.18502 0
M  V30 707 H 68.4755 -3.54942 -1.96904 0
M  V30 708 H 69.2415 -4.84774 0.147981 0
M  V30 709 H 65.1205 -4.49433 -1.0262 0
M  V30 710 H 68.6645 -6.80401 1.5395 0
M  V30 711 H 64.5615 -6.44506 0.358174 0
M  V30 712 H 65.3295 -7.99913 1.73438 0
M  V30 713 N 67.9926 0.231505 -1.5589 0
M  V30 714 C 68.9026 1.308 -1.94752 0
M  V30 715 C 69.9186 1.51826 -0.849989 0
M  V30 716 O 71.0946 1.6515 -1.15271 0
M  V30 717 C 68.1596 2.63968 -2.24771 0
M  V30 718 C 67.2206 2.51331 -3.48039 0
M  V30 719 C 66.4536 3.78148 -3.76616 0
M  V30 720 O 66.6766 4.80722 -3.07022 0
M  V30 721 O 65.6106 3.75857 -4.70123 0
M  V30 722 H 69.4366 1.0083 -2.86474 0
M  V30 723 H 67.0216 0.433547 -1.42971 0
M  V30 724 H 68.9036 3.42633 -2.45318 0
M  V30 725 H 67.5786 2.9364 -1.36225 0
M  V30 726 H 66.4856 1.709 -3.32782 0
M  V30 727 H 67.8186 2.26601 -4.36936 0
M  V30 728 N 69.4707 1.49531 0.497807 0
M  V30 729 C 70.4337 1.65916 1.58128 0
M  V30 730 C 71.4337 0.530825 1.51786 0
M  V30 731 O 72.6237 0.797342 1.54881 0
M  V30 732 C 69.7557 1.65951 2.9778 0
M  V30 733 H 70.9487 2.62556 1.44929 0
M  V30 734 H 68.5017 1.38611 0.722275 0
M  V30 735 H 69.2367 0.709065 3.16453 0
M  V30 736 H 69.0217 2.47897 3.03792 0
M  V30 737 H 70.5117 1.80673 3.76493 0
M  V30 738 N 70.9488 -0.749086 1.3866 0
M  V30 739 C 72.1948 -1.51056 1.35314 0
M  V30 740 C 72.5278 -1.94121 -0.0553751 0
M  V30 741 O 71.8028 -1.65763 -1.01749 0
M  V30 742 C 72.0858 -2.76003 2.31288 0
M  V30 743 C 71.9388 -2.39047 3.8102 0
M  V30 744 C 73.2578 -3.78046 2.2532 0
M  V30 745 H 70.3768 -0.547972 0.492844 0
M  V30 746 H 73.0188 -0.857628 1.69543 0
M  V30 747 H 71.1688 -3.31716 2.02229 0
M  V30 748 H 72.8408 -1.89074 4.20771 0
M  V30 749 H 71.0838 -1.71449 3.98482 0
M  V30 750 H 71.7548 -3.28462 4.4364 0
M  V30 751 H 74.2308 -3.31884 2.50983 0
M  V30 752 H 73.1068 -4.63159 2.94576 0
M  V30 753 H 73.3678 -4.23957 1.25352 0
M  V30 754 N 72.4269 -1.23603 -0.977757 0
M  V30 755 C 73.3589 -0.977369 -2.07317 0
M  V30 756 C 74.3719 0.0495845 -1.62724 0
M  V30 757 O 75.5609 -0.186261 -1.77526 0
M  V30 758 C 72.6609 -0.451216 -3.35883 0
M  V30 759 C 71.8339 -1.53896 -4.09432 0
M  V30 760 C 70.8929 -1.01721 -5.16274 0
M  V30 761 O 69.9189 -1.70676 -5.43009 0
M  V30 762 N 71.1209 0.153594 -5.80297 0
M  V30 763 H 73.8859 -1.92047 -2.30082 0
M  V30 764 H 71.4469 -1.14497 -1.14465 0
M  V30 765 H 73.4389 -0.0871574 -4.04606 0
M  V30 766 H 72.0089 0.397368 -3.10064 0
M  V30 767 H 71.2289 -2.07566 -3.35127 0
M  V30 768 H 72.5169 -2.27037 -4.55337 0
M  V30 769 H 71.9149 0.730323 -5.60966 0
M  V30 770 H 70.4719 0.458892 -6.50183 0
M  V30 771 N 73.905 1.17692 -1.04816 0
M  V30 772 C 75.151 1.88137 -0.75711 0
M  V30 773 C 75.484 1.80604 0.713841 0
M  V30 774 O 74.759 1.21146 1.52164 0
M  V30 775 C 75.042 3.38318 -1.2334 0
M  V30 776 C 74.895 3.54622 -2.76701 0
M  V30 777 C 76.214 4.32214 -0.829415 0
M  V30 778 H 73.333 0.683163 -0.27651 0
M  V30 779 H 75.975 1.38424 -1.30149 0
M  V30 780 H 74.125 3.80787 -0.770286 0
M  V30 781 H 75.797 3.21194 -3.31107 0
M  V30 782 H 74.04 2.97026 -3.16161 0
M  V30 783 H 74.711 4.60028 -3.05088 0
M  V30 784 H 77.187 3.97565 -1.22805 0
M  V30 785 H 76.063 5.35838 -1.19033 0
M  V30 786 H 76.324 4.41294 0.266891 0
M  V30 787 N 75.3831 0.828654 1.34056 0
M  V30 788 C 76.6311 0.41863 1.97717 0
M  V30 789 C 76.9521 -1.02314 1.66002 0
M  V30 790 O 76.2221 -1.71119 0.953683 0
M  V30 791 H 74.8021 0.151809 0.731412 0
M  V30 792 H 77.4641 1.05936 1.63596 0
M  V30 793 H 76.5601 0.542318 3.07352 0
M  V30 794 N 76.8612 -1.46375 0.584142 0
M  V30 795 C 78.1082 -2.02378 0.0702675 0
M  V30 796 C 78.4362 -1.45545 -1.29023 0
M  V30 797 O 77.6912 -0.610967 -1.85918 0
M  V30 798 C 77.9902 -3.57373 -0.0439342 0
M  V30 799 C 77.6562 -4.33252 1.24915 0
M  V30 800 C 76.3182 -4.53701 1.60341 0
M  V30 801 C 78.6702 -4.7681 2.1048 0
M  V30 802 C 75.9982 -5.1496 2.81128 0
M  V30 803 C 78.3502 -5.39404 3.30494 0
M  V30 804 C 77.0142 -5.5808 3.66201 0
M  V30 805 H 76.2842 -0.740554 0.0257127 0
M  V30 806 H 78.9312 -1.75727 0.761065 0
M  V30 807 H 77.2362 -3.83169 -0.817869 0
M  V30 808 H 78.9332 -3.98384 -0.457318 0
M  V30 809 H 75.5232 -4.17633 0.963364 0
M  V30 810 H 79.7072 -4.60766 1.84414 0
M  V30 811 H 74.9632 -5.27611 3.08928 0
M  V30 812 H 79.1372 -5.72114 3.97063 0
M  V30 813 H 76.7642 -6.05318 4.59885 0
M  V30 814 N 78.3393 -0.321999 -1.54275 0
M  V30 815 C 79.6163 0.335232 -1.92706 0
M  V30 816 C 79.9963 1.70006 -1.25145 0
M  V30 817 O 79.3443 2.25067 -0.394596 0
M  V30 818 C 79.5543 0.429008 -3.46353 0
M  V30 819 C 80.9023 0.690029 -4.18956 0
M  V30 820 O 81.9263 0.511992 -3.52501 0
M  V30 821 O 80.7853 1.03338 -5.36641 0
M  V30 822 H 77.8793 0.191143 -0.804608 0
M  V30 823 H 80.4253 -0.3716 -1.65581 0
M  V30 824 H 79.1973 -0.529611 -3.87699 0
M  V30 825 H 78.8203 1.18348 -3.79578 0
M  V30 826 N 79.8174 1.5752 -0.0501392 0
M  V30 827 C 81.0944 1.83996 0.663685 0
M  V30 828 C 81.4744 0.938339 1.89099 0
M  V30 829 O 80.8224 -0.00087759 2.285 0
M  V30 830 C 81.0324 3.33702 1.02196 0
M  V30 831 C 82.3804 4.00691 1.40469 0
M  V30 832 O 83.4044 3.38321 1.11433 0
M  V30 833 O 82.2634 5.10658 1.94654 0
M  V30 834 H 79.3574 0.759385 0.32751 0
M  V30 835 H 81.9034 1.69514 -0.0794238 0
M  V30 836 H 80.6754 3.91015 0.149364 0
M  V30 837 H 80.2984 3.53368 1.82255 0
M  V30 838 N 81.2955 -0.223234 1.56011 0
M  V30 839 C 82.2425 -1.27664 1.92277 0
M  V30 840 C 83.2125 -1.46659 0.779763 0
M  V30 841 O 84.3975 -1.60256 1.03551 0
M  V30 842 C 81.5375 -2.62234 2.24338 0
M  V30 843 C 80.6505 -2.51051 3.51564 0
M  V30 844 C 79.7855 -3.78133 3.7308 0
M  V30 845 C 78.8245 -3.61665 4.93827 0
M  V30 846 N 77.9615 -4.80693 5.11741 0
M  V30 847 H 82.8015 -0.960358 2.82101 0
M  V30 848 H 80.3385 -0.462901 1.39627 0
M  V30 849 H 82.2965 -3.40596 2.40936 0
M  V30 850 H 80.9265 -2.91961 1.3769 0
M  V30 851 H 79.9785 -1.64132 3.43169 0
M  V30 852 H 81.2905 -2.34803 4.40079 0
M  V30 853 H 80.4445 -4.64938 3.89766 0
M  V30 854 H 79.1835 -3.97304 2.82844 0
M  V30 855 H 78.1885 -2.73244 4.77093 0
M  V30 856 H 79.4135 -3.43966 5.85546 0
M  V30 857 H 77.3595 -5.00181 4.24446 0
M  V30 858 H 77.2765 -4.67165 5.94384 0
M  V30 859 H 78.5445 -5.6893 5.3286 0
M  V30 860 N 82.7736 -1.49793 -0.48987 0
M  V30 861 C 84.1896 -1.36803 -0.822022 0
M  V30 862 C 84.3896 -0.409652 -1.97292 0
M  V30 863 O 83.4456 0.154614 -2.52026 0
M  V30 864 C 84.7586 -2.77768 -1.15175 0
M  V30 865 C 86.3066 -2.86549 -1.25931 0
M  V30 866 C 86.7816 -4.28306 -1.62228 0
M  V30 867 N 88.2726 -4.31169 -1.69256 0
M  V30 868 C 89.0076 -5.37832 -1.98807 0
M  V30 869 N 88.5036 -6.54726 -2.26507 0
M  V30 870 N 90.2966 -5.25258 -2.00152 0
M  V30 871 H 82.4476 -2.10691 0.268881 0
M  V30 872 H 84.7106 -0.946241 0.057728 0
M  V30 873 H 84.4166 -3.49648 -0.379335 0
M  V30 874 H 84.2906 -3.13836 -2.09253 0
M  V30 875 H 86.6776 -2.14899 -2.02243 0
M  V30 876 H 86.7586 -2.54049 -0.298776 0
M  V30 877 H 86.4026 -5.00486 -0.864622 0
M  V30 878 H 86.3326 -4.58279 -2.594 0
M  V30 879 H 88.8236 -3.4687 -1.49965 0
M  V30 880 H 89.1366 -7.31833 -2.48276 0
M  V30 881 H 87.4816 -6.57933 -2.23939 0
M  V30 882 H 90.6726 -4.32938 -1.77996 0
M  V30 883 H 90.8456 -6.08476 -2.22848 0
M  V30 884 N 84.2517 0.741722 -1.39055 0
M  V30 885 C 85.1617 1.88621 -1.39496 0
M  V30 886 C 86.1777 1.71557 -0.290578 0
M  V30 887 O 87.3537 1.94275 -0.530954 0
M  V30 888 C 84.4187 3.24134 -1.23037 0
M  V30 889 C 83.4797 3.5364 -2.43387 0
M  V30 890 C 82.7127 4.82687 -2.27703 0
M  V30 891 O 82.9357 5.55922 -1.27696 0
M  V30 892 O 81.8697 5.1194 -3.16545 0
M  V30 893 H 85.6957 1.91203 -2.35956 0
M  V30 894 H 83.2807 0.888625 -1.20099 0
M  V30 895 H 85.1627 4.0513 -1.15964 0
M  V30 896 H 83.8377 3.22337 -0.296691 0
M  V30 897 H 82.7447 2.72758 -2.56035 0
M  V30 898 H 84.0777 3.60209 -3.35425 0
M  V30 899 N 85.7298 1.2412 0.971189 0
M  V30 900 C 86.9758 1.08041 1.71625 0
M  V30 901 C 87.3088 -0.380407 1.90438 0
M  V30 902 O 86.5838 -1.28127 1.46334 0
M  V30 903 C 86.8668 1.81682 3.10908 0
M  V30 904 C 86.7198 3.35493 2.99608 0
M  V30 905 C 88.0388 1.58671 4.10501 0
M  V30 906 H 85.1578 0.39388 0.622919 0
M  V30 907 H 87.7998 1.52743 1.13003 0
M  V30 908 H 85.9498 1.43684 3.60953 0
M  V30 909 H 87.6218 3.83068 2.57015 0
M  V30 910 H 85.8648 3.64052 2.35899 0
M  V30 911 H 86.5358 3.82217 3.98264 0
M  V30 912 H 89.0118 1.91719 3.69301 0
M  V30 913 H 87.8878 2.1266 5.06031 0
M  V30 914 H 88.1488 0.524161 4.38982 0
M  V30 915 N 87.2079 -1.17134 1.05439 0
M  V30 916 C 88.1379 -2.2342 0.678649 0
M  V30 917 C 89.1189 -1.66971 -0.32476 0
M  V30 918 O 90.3039 -1.93149 -0.201802 0
M  V30 919 C 87.4339 -3.47256 0.0552099 0
M  V30 920 C 86.3879 -4.16543 0.98365 0
M  V30 921 C 85.7139 -5.34231 0.223961 0
M  V30 922 C 87.0139 -4.68495 2.3089 0
M  V30 923 H 88.7079 -2.55105 1.56722 0
M  V30 924 H 86.2539 -1.2262 0.754998 0
M  V30 925 H 88.2069 -4.20828 -0.21946 0
M  V30 926 H 86.9309 -3.14846 -0.868319 0
M  V30 927 H 85.5899 -3.44887 1.24293 0
M  V30 928 H 85.2379 -4.98071 -0.702412 0
M  V30 929 H 84.9379 -5.81527 0.842627 0
M  V30 930 H 86.4619 -6.10585 -0.0433671 0
M  V30 931 H 87.8759 -5.33691 2.09396 0
M  V30 932 H 86.2729 -5.26379 2.88176 0
M  V30 933 H 87.3429 -3.85169 2.94572 0
M  V30 934 N 88.686 -0.835752 -1.33615 0
M  V30 935 C 89.911 -0.442389 -2.02627 0
M  V30 936 C 90.336 0.947735 -1.62479 0
M  V30 937 O 89.694 1.61907 -0.815826 0
M  V30 938 C 89.742 -0.567216 -3.56111 0
M  V30 939 O 88.846 0.407799 -4.10379 0
M  V30 940 H 88.187 -0.180278 -0.639059 0
M  V30 941 H 90.717 -1.12972 -1.70583 0
M  V30 942 H 90.727 -0.447708 -4.05536 0
M  V30 943 H 89.402 -1.58103 -3.84677 0
M  V30 944 H 87.979 0.246107 -3.72087 0
M  V30 945 N 90.1641 1.46063 -0.591896 0
M  V30 946 C 91.1121 2.32124 0.148739 0
M  V30 947 C 92.1061 1.45035 0.875286 0
M  V30 948 O 93.3121 1.61609 0.792632 0
M  V30 949 H 89.6871 0.749024 0.066832 0
M  V30 950 H 91.6581 2.92392 -0.595783 0
M  V30 951 C 90.4071 3.28373 1.1431 0
M  V30 952 H 89.7301 3.95371 0.59346 0
M  V30 953 H 91.1701 3.91352 1.63155 0
M  V30 954 C 89.6291 2.54393 2.20875 0
M  V30 955 O 90.1591 2.31373 3.28374 0
M  V30 956 N 88.3651 2.14797 1.95731 0
M  V30 957 H 87.9121 2.33719 1.08319 0
M  V30 958 H 87.8701 1.65619 2.67241 0
M  V30 959 N 91.6422 0.330177 1.54103 0
M  V30 960 C 92.5892 -0.532762 2.24567 0
M  V30 961 C 93.5592 -1.10635 1.23892 0
M  V30 962 O 94.7442 -1.14546 1.5259 0
M  V30 963 C 91.8842 -1.6845 3.01195 0
M  V30 964 C 90.9972 -1.13951 4.167 0
M  V30 965 C 90.1322 -2.25746 4.80845 0
M  V30 966 C 89.1712 -1.6853 5.88442 0
M  V30 967 N 88.3082 -2.74014 6.46421 0
M  V30 968 H 93.1482 0.0746905 2.97906 0
M  V30 969 H 90.6852 0.048632 1.4702 0
M  V30 970 H 92.6432 -2.36234 3.43874 0
M  V30 971 H 91.2732 -2.26314 2.30178 0
M  V30 972 H 90.3252 -0.35301 3.78758 0
M  V30 973 H 91.6372 -0.680892 4.94131 0
M  V30 974 H 90.7912 -3.01422 5.26526 0
M  V30 975 H 89.5302 -2.74947 4.0281 0
M  V30 976 H 88.5352 -0.913543 5.42157 0
M  V30 977 H 89.7602 -1.20198 6.68378 0
M  V30 978 H 87.7062 -3.22494 5.71256 0
M  V30 979 H 87.6232 -2.32735 7.19285 0
M  V30 980 H 88.8912 -3.49499 6.96757 0
M  V30 981 N 93.1203 -1.57491 0.0584922 0
M  V30 982 C 94.5313 -1.80526 -0.476138 0
M  V30 983 C 94.8823 -0.971334 -1.70469 0
M  V30 984 O 94.0073 -0.190012 -2.15564 0
M  V30 985 C 94.6023 -3.27424 -0.870587 0
M  V30 986 C 93.1613 -3.51351 -1.35015 0
M  V30 987 C 92.3083 -2.75343 -0.32887 0
M  V30 988 H 95.2593 -1.56133 0.284312 0
M  V30 989 H 95.2803 -3.38745 -1.73299 0
M  V30 990 H 94.7923 -3.88093 0.0237627 0
M  V30 991 H 92.8933 -2.95971 -2.26345 0
M  V30 992 H 93.0063 -4.60059 -1.33726 0
M  V30 993 H 91.3703 -2.417 -0.803321 0
M  V30 994 H 92.1533 -3.38743 0.557521 0
M  V30 995 N 94.5984 0.214957 -1.56127 0
M  V30 996 C 95.5614 1.24997 -1.92116 0
M  V30 997 C 96.5614 1.39467 -0.800344 0
M  V30 998 O 97.7514 1.37619 -1.06802 0
M  V30 999 C 94.8834 2.62271 -2.17777 0
M  V30 1000 H 96.0764 0.942875 -2.84693 0
M  V30 1001 H 93.6294 0.455654 -1.49511 0
M  V30 1002 H 94.3644 2.98068 -1.27773 0
M  V30 1003 H 94.1494 2.53143 -2.99434 0
M  V30 1004 H 95.6394 3.36946 -2.46693 0
M  V30 1005 N 96.0765 1.50051 0.48192 0
M  V30 1006 C 97.0235 1.68122 1.58125 0
M  V30 1007 C 97.9935 0.522545 1.57666 0
M  V30 1008 O 99.1785 0.751844 1.75362 0
M  V30 1009 C 96.3185 1.77142 2.96167 0
M  V30 1010 C 95.4315 3.0444 3.06497 0
M  V30 1011 C 94.5665 3.04321 4.35387 0
M  V30 1012 C 93.6055 4.26118 4.3942 0
M  V30 1013 N 92.7425 4.238 5.59766 0
M  V30 1014 H 97.5825 2.6198 1.42022 0
M  V30 1015 H 95.1195 1.29877 0.690687 0
M  V30 1016 H 97.0775 1.80352 3.76203 0
M  V30 1017 H 95.7075 0.867329 3.1093 0
M  V30 1018 H 94.7595 3.10752 2.19402 0
M  V30 1019 H 96.0715 3.94426 3.05336 0
M  V30 1020 H 95.2255 3.062 5.23762 0
M  V30 1021 H 93.9645 2.12147 4.39141 0
M  V30 1022 H 92.9695 4.24463 3.49444 0
M  V30 1023 H 94.1945 5.19507 4.37366 0
M  V30 1024 H 92.1405 3.34474 5.64326 0
M  V30 1025 H 92.0575 5.07542 5.60301 0
M  V30 1026 H 93.3255 4.2981 6.50295 0
M  V30 1027 N 97.5546 -0.734337 1.39446 0
M  V30 1028 C 98.8026 -1.49096 1.36436 0
M  V30 1029 C 99.1236 -1.94961 -0.0388255 0
M  V30 1030 O 98.3936 -1.69033 -0.990191 0
M  V30 1031 H 96.9736 -0.5531 0.502085 0
M  V30 1032 H 99.6356 -0.871725 1.74319 0
M  V30 1033 H 98.7316 -2.37276 2.02747 0
M  V30 1034 N 99.0327 -1.24633 -0.964593 0
M  V30 1035 C 99.9827 -1.00841 -2.04487 0
M  V30 1036 C 100.967 0.0512468 -1.60818 0
M  V30 1037 O 102.159 -0.162865 -1.76249 0
M  V30 1038 C 99.2877 -0.618474 -3.37683 0
M  V30 1039 C 98.3737 -1.71437 -3.87905 0
M  V30 1040 N 98.7647 -2.9477 -4.11029 0
M  V30 1041 C 97.0627 -1.5926 -4.16596 0
M  V30 1042 C 97.7637 -3.65834 -4.52261 0
M  V30 1043 N 96.7397 -2.9341 -4.57615 0
M  V30 1044 H 100.542 -1.94487 -2.20345 0
M  V30 1045 H 98.0557 -1.14805 -1.14863 0
M  V30 1046 H 100.053 -0.429247 -4.14684 0
M  V30 1047 H 98.7127 0.310766 -3.23209 0
M  V30 1048 H 99.7237 -3.30917 -3.9839 0
M  V30 1049 H 96.4007 -0.731606 -4.1104 0
M  V30 1050 H 97.7907 -4.71646 -4.78539 0
M  V30 1051 N 100.511 1.16574 -1.06058 0
M  V30 1052 C 101.757 1.87324 -0.777022 0
M  V30 1053 C 102.09 1.81351 0.694645 0
M  V30 1054 O 101.365 1.22753 1.50871 0
M  V30 1055 C 101.648 3.36991 -1.26922 0
M  V30 1056 C 101.501 3.51667 -2.80447 0
M  V30 1057 C 102.82 4.3131 -0.87521 0
M  V30 1058 H 99.9388 0.680191 -0.28374 0
M  V30 1059 H 102.581 1.37036 -1.3161 0
M  V30 1060 H 100.731 3.79949 -0.81063 0
M  V30 1061 H 102.403 3.17664 -3.34495 0
M  V30 1062 H 100.646 2.93656 -3.19294 0
M  V30 1063 H 101.317 4.56766 -3.0995 0
M  V30 1064 H 103.793 3.9624 -1.27014 0
M  V30 1065 H 102.669 5.34545 -1.2471 0
M  V30 1066 H 102.93 4.41552 0.220071 0
M  V30 1067 N 101.989 0.842826 1.3317 0
M  V30 1068 C 102.952 0.284065 2.27433 0
M  V30 1069 C 103.952 -0.54948 1.5112 0
M  V30 1070 O 105.142 -0.362699 1.70382 0
M  V30 1071 C 102.274 -0.599384 3.35589 0
M  V30 1072 H 103.467 1.11589 2.78366 0
M  V30 1073 H 101.02 0.616221 1.4364 0
M  V30 1074 H 101.755 -1.45349 2.89904 0
M  V30 1075 H 101.54 -0.00291266 3.921 0
M  V30 1076 H 103.03 -0.983488 4.05854 0
M  V30 1077 N 103.467 -1.45747 0.599634 0
M  V30 1078 C 104.414 -2.30467 -0.123849 0
M  V30 1079 C 105.384 -1.41632 -0.86774 0
M  V30 1080 O 106.569 -1.70568 -0.855056 0
M  V30 1081 C 103.709 -3.26402 -1.12051 0
M  V30 1082 C 102.822 -4.3034 -0.37832 0
M  V30 1083 C 101.957 -5.13389 -1.364 0
M  V30 1084 C 100.996 -6.09061 -0.609171 0
M  V30 1085 N 100.133 -6.84918 -1.54374 0
M  V30 1086 H 104.973 -2.91802 0.604627 0
M  V30 1087 H 102.51 -1.43797 0.309972 0
M  V30 1088 H 104.468 -3.80482 -1.7114 0
M  V30 1089 H 103.098 -2.66839 -1.8165 0
M  V30 1090 H 102.15 -3.78984 0.327929 0
M  V30 1091 H 103.462 -4.98354 0.210997 0
M  V30 1092 H 102.616 -5.7183 -2.02719 0
M  V30 1093 H 101.355 -4.45376 -1.98725 0
M  V30 1094 H 100.36 -5.49758 0.0676979 0
M  V30 1095 H 101.585 -6.79099 0.00891991 0
M  V30 1096 H 99.531 -6.19601 -2.15478 0
M  V30 1097 H 99.448 -7.49254 -1.00766 0
M  V30 1098 H 100.716 -7.47906 -2.19676 0
M  V30 1099 N 104.945 -0.338344 -1.53925 0
M  V30 1100 C 105.908 0.508299 -2.23493 0
M  V30 1101 C 106.908 1.03175 -1.23335 0
M  V30 1102 O 108.098 0.921826 -1.47811 0
M  V30 1103 C 105.23 1.70754 -2.95052 0
M  V30 1104 H 106.423 -0.100058 -2.99733 0
M  V30 1105 H 103.976 -0.0896198 -1.56043 0
M  V30 1106 H 104.711 2.35474 -2.22986 0
M  V30 1107 H 104.496 1.33946 -3.68512 0
M  V30 1108 H 105.986 2.30818 -3.48013 0
M  V30 1109 N 106.423 1.57458 -0.0668435 0
M  V30 1110 C 107.371 2.13639 0.919851 0
M  V30 1111 C 108.365 1.07204 1.31163 0
M  V30 1112 O 109.571 1.25591 1.28945 0
M  V30 1113 H 105.946 0.683048 0.314562 0
M  V30 1114 H 107.917 2.95415 0.421047 0
M  V30 1115 C 106.666 2.70892 2.17975 0
M  V30 1116 H 105.989 3.5246 1.88711 0
M  V30 1117 H 107.429 3.13803 2.85138 0
M  V30 1118 C 105.888 1.65414 2.93496 0
M  V30 1119 O 106.418 1.07619 3.87015 0
M  V30 1120 N 104.624 1.36564 2.56512 0
M  V30 1121 H 104.171 1.83751 1.80536 0
M  V30 1122 H 104.129 0.66223 3.07347 0
M  V30 1123 N 107.901 -0.206675 1.56239 0
M  V30 1124 C 109.129 -0.945345 1.8404 0
M  V30 1125 C 109.544 -1.77336 0.647885 0
M  V30 1126 O 108.901 -1.78425 -0.383511 0
M  V30 1127 C 108.952 -1.8509 3.10522 0
M  V30 1128 O 108.673 -1.05634 4.25174 0
M  V30 1129 C 110.174 -2.70222 3.51418 0
M  V30 1130 H 107.394 -0.276372 0.61144 0
M  V30 1131 H 109.938 -0.217417 2.03341 0
M  V30 1132 H 108.093 -2.53259 2.93153 0
M  V30 1133 H 108.507 -1.67238 4.97124 0
M  V30 1134 H 109.981 -3.29438 4.42916 0
M  V30 1135 H 110.458 -3.43358 2.73864 0
M  V30 1136 H 111.064 -2.07443 3.71278 0
M  V30 1137 N 109.379 -1.50304 -0.473955 0
M  V30 1138 C 110.342 -1.6841 -1.55469 0
M  V30 1139 C 111.342 -0.554905 -1.50922 0
M  V30 1140 O 112.532 -0.821882 -1.53593 0
M  V30 1141 C 109.664 -1.70667 -2.95102 0
M  V30 1142 H 110.857 -2.64828 -1.40733 0
M  V30 1143 H 108.41 -1.39742 -0.700132 0
M  V30 1144 H 109.145 -0.75932 -3.15285 0
M  V30 1145 H 108.93 -2.52698 -2.9981 0
M  V30 1146 H 110.42 -1.8664 -3.73571 0
M  V30 1147 N 110.857 0.726932 -1.39834 0
M  V30 1148 C 112.268 1.30558 -1.3346 0
M  V30 1149 C 112.619 1.962 -0.00273003 0
M  V30 1150 O 111.744 1.96826 0.899371 0
M  V30 1151 C 112.339 2.37404 -2.41713 0
M  V30 1152 C 110.898 2.90921 -2.38835 0
M  V30 1153 C 110.045 1.64578 -2.2318 0
M  V30 1154 H 112.996 0.523862 -1.49804 0
M  V30 1155 H 113.017 3.17984 -2.08966 0
M  V30 1156 H 112.529 1.89599 -3.38635 0
M  V30 1157 H 110.63 3.42985 -1.45575 0
M  V30 1158 H 110.743 3.43487 -3.33997 0
M  V30 1159 H 109.107 1.89219 -1.70494 0
M  V30 1160 H 109.89 1.18814 -3.22084 0
M  V30 1161 N 112.336 1.25143 0.95797 0
M  V30 1162 C 113.283 1.05235 2.05412 0
M  V30 1163 C 114.253 -0.0374561 1.66058 0
M  V30 1164 O 115.438 0.119073 1.90428 0
M  V30 1165 C 112.578 0.673589 3.38462 0
M  V30 1166 C 111.691 1.8379 3.90954 0
M  V30 1167 C 110.826 1.40381 5.12315 0
M  V30 1168 C 109.865 2.53746 5.57027 0
M  V30 1169 N 109.002 2.11136 6.69601 0
M  V30 1170 H 113.842 1.99048 2.21774 0
M  V30 1171 H 111.379 0.991277 1.08683 0
M  V30 1172 H 113.337 0.434964 4.14926 0
M  V30 1173 H 111.967 -0.227554 3.21997 0
M  V30 1174 H 111.019 2.18992 3.11041 0
M  V30 1175 H 112.331 2.68937 4.20089 0
M  V30 1176 H 111.485 1.12464 5.96185 0
M  V30 1177 H 110.224 0.523015 4.84887 0
M  V30 1178 H 109.229 2.82412 4.71724 0
M  V30 1179 H 110.454 3.42398 5.86464 0
M  V30 1180 H 108.4 1.25468 6.4389 0
M  V30 1181 H 108.317 2.89832 6.98236 0
M  V30 1182 H 109.585 1.86385 7.56889 0
M  V30 1183 N 113.814 -1.1601 1.06675 0
M  V30 1184 C 115.23 -1.38622 0.790948 0
M  V30 1185 C 115.43 -1.92109 -0.607965 0
M  V30 1186 O 114.486 -2.12239 -1.36787 0
M  V30 1187 C 115.799 -2.36347 1.85905 0
M  V30 1188 C 117.347 -2.50023 1.88301 0
M  V30 1189 C 117.822 -3.51033 2.94176 0
M  V30 1190 N 119.313 -3.58563 2.93235 0
M  V30 1191 C 120.048 -4.36521 3.71803 0
M  V30 1192 N 119.544 -5.17869 4.602 0
M  V30 1193 N 121.337 -4.31541 3.60178 0
M  V30 1194 H 113.488 -0.796294 1.96908 0
M  V30 1195 H 115.751 -0.412597 0.853503 0
M  V30 1196 H 115.457 -2.04147 2.86386 0
M  V30 1197 H 115.331 -3.36042 1.71334 0
M  V30 1198 H 117.718 -2.81524 0.884769 0
M  V30 1199 H 117.799 -1.5035 2.06951 0
M  V30 1200 H 117.443 -3.20268 3.94196 0
M  V30 1201 H 117.373 -4.50445 2.72776 0
M  V30 1202 H 119.864 -3.00496 2.29152 0
M  V30 1203 H 120.177 -5.74578 5.16797 0
M  V30 1204 H 118.522 -5.17199 4.64253 0
M  V30 1205 H 121.713 -3.67051 2.90502 0
M  V30 1206 H 121.886 -4.9205 4.21653 0
M  V30 1207 N 115.292 -0.849877 -1.32721 0
M  V30 1208 C 116.539 -0.450923 -1.97416 0
M  V30 1209 C 116.867 0.992376 -1.67279 0
M  V30 1210 O 116.122 1.71048 -0.950845 0
M  V30 1211 C 116.421 -0.631272 -3.51781 0
M  V30 1212 C 116.087 -2.04432 -4.01894 0
M  V30 1213 C 114.749 -2.4308 -4.1529 0
M  V30 1214 C 117.101 -2.96679 -4.28522 0
M  V30 1215 C 114.429 -3.73257 -4.52654 0
M  V30 1216 C 116.781 -4.26349 -4.67343 0
M  V30 1217 C 115.445 -4.64939 -4.78945 0
M  V30 1218 H 114.715 -0.165004 -0.722395 0
M  V30 1219 H 117.362 -1.07901 -1.58207 0
M  V30 1220 H 115.667 0.0800767 -3.91718 0
M  V30 1221 H 117.364 -0.302709 -3.99856 0
M  V30 1222 H 113.954 -1.73419 -3.91949 0
M  V30 1223 H 118.138 -2.68054 -4.17685 0
M  V30 1224 H 113.394 -4.02946 -4.59831 0
M  V30 1225 H 117.568 -4.97895 -4.86902 0
M  V30 1226 H 115.195 -5.65855 -5.07654 0
M  V30 1227 N 116.77 1.45427 -0.607355 0
M  V30 1228 C 118.019 2.01452 -0.100036 0
M  V30 1229 C 118.332 1.48159 1.27704 0
M  V30 1230 O 119.538 1.96159 1.87707 0
M  V30 1231 C 117.994 3.59672 -0.128158 0
M  V30 1232 C 117.602 4.21962 -1.50507 0
M  V30 1233 C 119.346 4.23262 0.323932 0
M  V30 1234 C 117.253 5.72333 -1.48959 0
M  V30 1235 H 116.183 0.75325 -0.0336299 0
M  V30 1236 H 118.834 1.66901 -0.76265 0
M  V30 1237 H 117.216 3.91411 0.601105 0
M  V30 1238 H 118.39 4.01796 -2.25602 0
M  V30 1239 H 116.705 3.70565 -1.89923 0
M  V30 1240 H 119.302 5.33522 0.354691 0
M  V30 1241 H 119.645 3.93921 1.34656 0
M  V30 1242 H 120.178 3.96239 -0.352056 0
M  V30 1243 H 116.917 6.06373 -2.48981 0
M  V30 1244 H 116.437 5.94691 -0.781214 0
M  V30 1245 H 118.116 6.35525 -1.21313 0
M  V30 1246 N 118.248 0.346503 1.53744 0
M  V30 1247 C 119.664 -0.00530975 1.59599 0
M  V30 1248 C 119.864 -1.48465 1.36236 0
M  V30 1249 O 118.92 -2.24376 1.15808 0
M  V30 1250 C 120.233 0.433516 2.97559 0
M  V30 1251 C 121.781 0.386111 3.10609 0
M  V30 1252 C 122.256 0.800451 4.50951 0
M  V30 1253 N 123.747 0.754753 4.5701 0
M  V30 1254 C 124.482 1.04727 5.63755 0
M  V30 1255 N 123.978 1.4081 6.7834 0
M  V30 1256 N 125.771 0.971316 5.53644 0
M  V30 1257 H 117.922 1.31009 1.67184 0
M  V30 1258 H 120.185 0.534242 0.783128 0
M  V30 1259 H 119.891 1.46509 3.19731 0
M  V30 1260 H 119.765 -0.189753 3.76722 0
M  V30 1261 H 122.152 -0.636295 2.88158 0
M  V30 1262 H 122.233 1.04462 2.33498 0
M  V30 1263 H 121.877 1.82088 4.74137 0
M  V30 1264 H 121.807 0.119386 5.26465 0
M  V30 1265 H 124.298 0.488662 3.74727 0
M  V30 1266 H 124.611 1.61607 7.55714 0
M  V30 1267 H 122.956 1.44657 6.79779 0
M  V30 1268 H 126.147 0.688748 4.63005 0
M  V30 1269 H 126.32 1.20263 6.36742 0
M  V30 1270 N 119.726 -1.57421 0.075193 0
M  V30 1271 C 120.636 -2.1642 -0.905511 0
M  V30 1272 C 121.652 -1.12828 -1.32461 0
M  V30 1273 O 122.828 -1.45109 -1.39661 0
M  V30 1274 C 119.893 -2.71693 -2.15369 0
M  V30 1275 C 118.954 -3.90171 -1.79068 0
M  V30 1276 C 118.187 -4.42798 -2.97936 0
M  V30 1277 O 118.41 -3.94416 -4.12058 0
M  V30 1278 O 117.344 -5.34085 -2.77555 0
M  V30 1279 H 121.17 -3.00588 -0.433626 0
M  V30 1280 H 118.755 -1.48664 -0.148067 0
M  V30 1281 H 120.637 -3.07104 -2.88557 0
M  V30 1282 H 119.312 -1.90582 -2.61649 0
M  V30 1283 H 118.219 -3.59606 -1.03122 0
M  V30 1284 H 119.552 -4.72584 -1.37569 0
M  V30 1285 N 121.204 0.198386 -1.56346 0
M  V30 1286 C 122.451 0.919286 -1.80431 0
M  V30 1287 C 122.779 1.83393 -0.647866 0
M  V30 1288 O 122.034 1.92236 0.366556 0
M  V30 1289 C 122.333 1.77031 -3.10475 0
M  V30 1290 C 121.999 1.00693 -4.39513 0
M  V30 1291 C 120.661 0.796145 -4.74568 0
M  V30 1292 C 123.013 0.469559 -5.19081 0
M  V30 1293 C 120.341 0.0364588 -5.86689 0
M  V30 1294 C 122.693 -0.2769 -6.31994 0
M  V30 1295 C 121.357 -0.49873 -6.65634 0
M  V30 1296 H 120.627 0.336391 -0.660244 0
M  V30 1297 H 123.274 0.185872 -1.90596 0
M  V30 1298 H 121.579 2.5723 -2.95533 0
M  V30 1299 H 123.276 2.33065 -3.26315 0
M  V30 1300 H 119.866 1.18122 -4.12001 0
M  V30 1301 H 124.05 0.619816 -4.92414 0
M  V30 1302 H 119.306 -0.145412 -6.11227 0
M  V30 1303 H 123.48 -0.700684 -6.92866 0
M  V30 1304 H 121.107 -1.0893 -7.52355 0
M  V30 1305 N 122.682 1.50554 0.465978 0
M  V30 1306 C 123.629 1.6979 1.56333 0
M  V30 1307 C 124.599 0.539239 1.57103 0
M  V30 1308 O 125.784 0.770401 1.74555 0
M  V30 1309 C 122.924 1.80273 2.94271 0
M  V30 1310 C 122.037 3.07674 3.0325 0
M  V30 1311 C 121.172 3.08922 4.32135 0
M  V30 1312 C 120.211 4.30755 4.34875 0
M  V30 1313 N 119.348 4.29714 5.55239 0
M  V30 1314 H 124.188 2.63472 1.39235 0
M  V30 1315 H 121.725 1.30602 0.676873 0
M  V30 1316 H 123.683 1.84332 3.74269 0
M  V30 1317 H 122.313 0.900258 3.09992 0
M  V30 1318 H 121.365 3.13062 2.16094 0
M  V30 1319 H 122.677 3.97642 3.01135 0
M  V30 1320 H 121.831 3.11738 5.20485 0
M  V30 1321 H 120.57 2.16792 4.36866 0
M  V30 1322 H 119.575 4.28146 3.44922 0
M  V30 1323 H 120.8 5.24117 4.31831 0
M  V30 1324 H 118.746 3.4044 5.60746 0
M  V30 1325 H 118.663 5.13456 5.54886 0
M  V30 1326 H 119.931 4.36683 6.457 0
M  V30 1327 N 124.16 -0.719506 1.40217 0
M  V30 1328 C 125.108 -1.85493 1.40339 0
M  V30 1329 C 126.102 -1.66995 0.284415 0
M  V30 1330 O 127.308 -1.74148 0.455252 0
M  V30 1331 H 123.683 -0.610857 0.438586 0
M  V30 1332 H 125.654 -1.82506 2.36081 0
M  V30 1333 C 124.403 -3.23321 1.27901 0
M  V30 1334 H 123.726 -3.38159 2.1328 0
M  V30 1335 H 125.166 -4.02914 1.32045 0
M  V30 1336 C 123.625 -3.36898 -0.0111355 0
M  V30 1337 O 124.155 -3.89674 -0.975538 0
M  V30 1338 N 122.361 -2.90492 -0.0793393 0
M  V30 1339 H 121.908 -2.47731 0.706183 0
M  V30 1340 H 121.866 -2.99955 -0.942038 0
M  V30 1341 N 125.638 -1.25649 -0.95132 0
M  V30 1342 C 126.887 -1.09988 -1.69073 0
M  V30 1343 C 127.2 0.358355 -1.92289 0
M  V30 1344 O 128.406 0.635466 -2.63958 0
M  V30 1345 C 126.862 -1.92012 -3.044 0
M  V30 1346 C 126.47 -3.42347 -2.88968 0
M  V30 1347 C 128.214 -1.8493 -3.82101 0
M  V30 1348 C 126.121 -4.16655 -4.19705 0
M  V30 1349 H 125.051 -0.407993 -0.63408 0
M  V30 1350 H 127.702 -1.49873 -1.05879 0
M  V30 1351 H 126.084 -1.44952 -3.68517 0
M  V30 1352 H 127.258 -3.97104 -2.33762 0
M  V30 1353 H 125.573 -3.50557 -2.24719 0
M  V30 1354 H 128.17 -2.37739 -4.78941 0
M  V30 1355 H 128.513 -0.817883 -4.08187 0
M  V30 1356 H 129.046 -2.29758 -3.2474 0
M  V30 1357 H 125.785 -5.20224 -3.98807 0
M  V30 1358 H 125.305 -3.66681 -4.74663 0
M  V30 1359 H 126.984 -4.24551 -4.88227 0
M  V30 1360 N 127.117 1.15442 -1.07289 0
M  V30 1361 C 128.027 2.23786 -0.704057 0
M  V30 1362 C 129.043 1.7166 0.284413 0
M  V30 1363 O 130.219 2.00972 0.131205 0
M  V30 1364 C 127.284 3.46535 -0.106792 0
M  V30 1365 C 126.345 4.13654 -1.14842 0
M  V30 1366 C 125.578 5.30544 -0.57956 0
M  V30 1367 O 125.801 5.67187 0.604585 0
M  V30 1368 O 124.735 5.87154 -1.32414 0
M  V30 1369 H 128.561 2.57664 -1.60757 0
M  V30 1370 H 126.146 1.23152 -0.845803 0
M  V30 1371 H 128.028 4.20804 0.224048 0
M  V30 1372 H 126.703 3.14407 0.770049 0
M  V30 1373 H 125.61 3.4131 -1.5316 0
M  V30 1374 H 126.943 4.49861 -1.99714 0
M  V30 1375 N 128.595 0.856903 1.32268 0
M  V30 1376 C 129.843 0.460474 1.96784 0
M  V30 1377 C 130.164 -0.987701 1.68135 0
M  V30 1378 O 129.434 -1.69058 0.989765 0
M  V30 1379 H 128.014 0.167289 0.728027 0
M  V30 1380 H 130.676 1.09383 1.61312 0
M  V30 1381 H 129.772 0.60739 3.06133 0
M  V30 1382 N 130.073 -1.45103 0.615059 0
M  V30 1383 C 131.003 -2.33339 -0.0865619 0
M  V30 1384 C 131.984 -1.4727 -0.851209 0
M  V30 1385 O 133.169 -1.76026 -0.820281 0
M  V30 1386 C 130.299 -3.30095 -1.07956 0
M  V30 1387 C 129.253 -4.25858 -0.427628 0
M  V30 1388 C 128.579 -5.12361 -1.5294 0
M  V30 1389 C 129.879 -5.18165 0.655944 0
M  V30 1390 H 131.573 -2.92254 0.650224 0
M  V30 1391 H 129.119 -1.40532 0.314138 0
M  V30 1392 H 131.072 -3.90698 -1.57901 0
M  V30 1393 H 129.796 -2.69355 -1.84703 0
M  V30 1394 H 128.455 -3.66564 0.0510292 0
M  V30 1395 H 128.103 -4.47984 -2.28734 0
M  V30 1396 H 127.803 -5.77238 -1.09865 0
M  V30 1397 H 129.327 -5.75833 -2.03098 0
M  V30 1398 H 130.741 -5.72796 0.240257 0
M  V30 1399 H 129.138 -5.91559 1.00888 0
M  V30 1400 H 130.208 -4.60144 1.52957 0
M  V30 1401 N 131.551 -0.354651 -1.53558 0
M  V30 1402 C 132.461 0.50515 -2.29097 0
M  V30 1403 C 133.477 1.10223 -1.34636 0
M  V30 1404 O 134.653 1.11553 -1.67684 0
M  V30 1405 C 131.718 1.63479 -3.05738 0
M  V30 1406 C 130.779 1.06636 -4.15845 0
M  V30 1407 C 130.012 2.14217 -4.88822 0
M  V30 1408 O 130.235 3.35137 -4.61562 0
M  V30 1409 O 129.169 1.77887 -5.75013 0
M  V30 1410 H 132.995 -0.109237 -3.03503 0
M  V30 1411 H 130.58 -0.119357 -1.48922 0
M  V30 1412 H 132.462 2.2918 -3.5363 0
M  V30 1413 H 131.137 2.23478 -2.34178 0
M  V30 1414 H 130.044 0.373565 -3.7223 0
M  V30 1415 H 131.377 0.511081 -4.89539 0
M  V30 1416 N 133.029 1.57378 -0.0835403 0
M  V30 1417 C 134.275 1.94217 0.583733 0
M  V30 1418 C 134.608 0.964653 1.68547 0
M  V30 1419 O 133.883 -0.00422258 1.945 0
M  V30 1420 C 134.166 3.41253 1.14972 0
M  V30 1421 C 134.019 4.49768 0.0538277 0
M  V30 1422 C 135.338 3.89352 2.05166 0
M  V30 1423 H 132.457 0.706233 0.210724 0
M  V30 1424 H 135.099 1.89392 -0.1519 0
M  V30 1425 H 133.249 3.45496 1.77665 0
M  V30 1426 H 134.921 4.57641 -0.579851 0
M  V30 1427 H 133.164 4.29432 -0.614068 0
M  V30 1428 H 133.835 5.49817 0.490452 0
M  V30 1429 H 136.311 3.87189 1.52393 0
M  V30 1430 H 135.187 4.92822 2.41698 0
M  V30 1431 H 135.448 3.27973 2.96456 0
M  V30 1432 N 134.507 -0.190092 1.56449 0
M  V30 1433 C 135.755 -0.907908 1.80559 0
M  V30 1434 C 136.076 -1.83583 0.657438 0
M  V30 1435 O 135.346 -1.93203 -0.323924 0
M  V30 1436 H 133.926 -0.338247 0.666032 0
M  V30 1437 H 136.588 -0.194403 1.93928 0
M  V30 1438 H 135.684 -1.49604 2.73907 0
M  V30 1439 N 135.985 -1.50799 -0.457987 0
M  V30 1440 C 136.948 -1.7005 -1.53674 0
M  V30 1441 C 137.948 -0.570881 -1.50325 0
M  V30 1442 O 139.138 -0.838126 -1.52712 0
M  V30 1443 C 136.27 -1.73788 -2.93276 0
M  V30 1444 H 137.463 -2.66306 -1.37917 0
M  V30 1445 H 135.016 -1.40477 -0.685271 0
M  V30 1446 H 135.751 -0.792717 -3.14462 0
M  V30 1447 H 135.536 -2.55864 -2.97113 0
M  V30 1448 H 137.026 -1.90591 -3.71571 0
M  V30 1449 N 137.463 0.71206 -1.40597 0
M  V30 1450 C 138.373 1.8562 -1.43466 0
M  V30 1451 C 139.389 1.70902 -0.326902 0
M  V30 1452 O 140.565 1.93105 -0.572043 0
M  V30 1453 C 137.63 3.21451 -1.29884 0
M  V30 1454 C 136.691 3.48398 -2.50833 0
M  V30 1455 C 135.924 4.77749 -2.3789 0
M  V30 1456 O 136.147 5.53089 -1.39459 0
M  V30 1457 O 135.081 5.05111 -3.27333 0
M  V30 1458 H 138.907 1.86155 -2.39958 0
M  V30 1459 H 136.492 0.86295 -1.21957 0
M  V30 1460 H 138.374 4.02579 -1.24531 0
M  V30 1461 H 137.049 3.21636 -0.364997 0
M  V30 1462 H 135.956 2.67265 -2.61763 0
M  V30 1463 H 137.289 3.53014 -3.4299 0
M  V30 1464 N 138.941 1.26152 0.944643 0
M  V30 1465 C 139.871 1.09902 2.06019 0
M  V30 1466 C 140.852 0.00519538 1.70099 0
M  V30 1467 O 142.037 0.176583 1.93396 0
M  V30 1468 C 139.167 0.727562 3.39594 0
M  V30 1469 C 138.121 1.77274 3.89561 0
M  V30 1470 C 137.447 1.25569 5.19747 0
M  V30 1471 C 138.747 3.17357 4.14827 0
M  V30 1472 H 140.441 2.03217 2.19871 0
M  V30 1473 H 137.987 0.978452 1.05652 0
M  V30 1474 H 139.94 0.600777 4.17095 0
M  V30 1475 H 138.664 -0.241287 3.25707 0
M  V30 1476 H 137.323 1.88814 3.14237 0
M  V30 1477 H 136.971 0.276783 5.02238 0
M  V30 1478 H 136.671 1.95433 5.54148 0
M  V30 1479 H 138.195 1.1415 5.99835 0
M  V30 1480 H 139.609 3.08914 4.82954 0
M  V30 1481 H 138.006 3.84781 4.60504 0
M  V30 1482 H 139.076 3.63673 3.20734 0
M  V30 1483 N 140.419 -1.14872 1.07899 0
M  V30 1484 C 141.644 -1.90202 0.826926 0
M  V30 1485 C 142.069 -1.77774 -0.614664 0
M  V30 1486 O 141.427 -1.11431 -1.43013 0
M  V30 1487 C 141.475 -3.38352 1.24702 0
M  V30 1488 O 140.579 -4.10497 0.39575 0
M  V30 1489 H 139.92 -0.591968 0.300782 0
M  V30 1490 H 142.45 -1.45437 1.43907 0
M  V30 1491 H 142.46 -3.89156 1.22563 0
M  V30 1492 H 141.135 -3.46715 2.29698 0
M  V30 1493 H 139.712 -3.69796 0.480117 0
M  V30 1494 N 141.898 -0.863906 -1.31812 0
M  V30 1495 C 143.144 -0.472535 -1.97218 0
M  V30 1496 C 143.477 0.971394 -1.68159 0
M  V30 1497 O 142.752 1.68309 -0.974798 0
M  V30 1498 C 143.035 -0.723054 -3.52766 0
M  V30 1499 C 142.888 -2.21608 -3.91421 0
M  V30 1500 C 144.207 -0.185522 -4.39709 0
M  V30 1501 H 141.326 -0.173158 -0.71637 0
M  V30 1502 H 143.968 -1.08403 -1.56041 0
M  V30 1503 H 142.118 -0.202577 -3.87971 0
M  V30 1504 H 143.79 -2.80334 -3.66347 0
M  V30 1505 H 142.033 -2.691 -3.40246 0
M  V30 1506 H 142.704 -2.34203 -4.99853 0
M  V30 1507 H 145.18 -0.630726 -4.11292 0
M  V30 1508 H 144.056 -0.390306 -5.47511 0
M  V30 1509 H 144.317 0.912229 -4.32586 0
M  V30 1510 N 143.376 1.44774 -0.622745 0
M  V30 1511 C 144.286 2.34433 0.0886031 0
M  V30 1512 C 145.302 1.52131 0.844529 0
M  V30 1513 O 146.478 1.84886 0.798691 0
M  V30 1514 C 143.543 3.29986 1.0635 0
M  V30 1515 C 142.604 4.28195 0.307873 0
M  V30 1516 C 141.837 5.19183 1.23633 0
M  V30 1517 O 142.06 5.13918 2.47476 0
M  V30 1518 O 140.994 5.97515 0.725189 0
M  V30 1519 H 144.82 2.96693 -0.648599 0
M  V30 1520 H 142.405 1.44408 -0.382957 0
M  V30 1521 H 144.287 3.88825 1.6246 0
M  V30 1522 H 142.962 2.70269 1.78146 0
M  V30 1523 H 141.869 3.72927 -0.296064 0
M  V30 1524 H 143.202 4.90808 -0.3699 0
M  V30 1525 N 144.854 0.36279 1.53368 0
M  V30 1526 C 145.786 -0.519668 2.23231 0
M  V30 1527 C 146.799 -1.04844 1.24546 0
M  V30 1528 O 147.988 -0.955296 1.50786 0
M  V30 1529 C 145.088 -1.72995 2.9142 0
M  V30 1530 C 144.261 -1.33316 4.16588 0
M  V30 1531 C 143.32 -2.40521 4.68013 0
M  V30 1532 O 142.346 -2.03027 5.3176 0
M  V30 1533 N 143.548 -3.72065 4.45587 0
M  V30 1534 H 146.313 0.078751 2.99597 0
M  V30 1535 H 143.874 0.187833 1.60807 0
M  V30 1536 H 145.866 -2.44184 3.22733 0
M  V30 1537 H 144.436 -2.2353 2.18525 0
M  V30 1538 H 143.656 -0.451236 3.91609 0
M  V30 1539 H 144.944 -1.04432 4.97967 0
M  V30 1540 H 144.342 -4.05304 3.94646 0
M  V30 1541 H 142.899 -4.39366 4.81457 0
M  V30 1542 N 146.332 -1.57332 0.0918853 0
M  V30 1543 C 147.579 -1.94236 -0.572577 0
M  V30 1544 C 147.907 -0.973398 -1.6839 0
M  V30 1545 O 147.162 0.00756912 -1.95699 0
M  V30 1546 C 147.461 -3.37689 -1.17051 0
M  V30 1547 C 147.127 -4.50527 -0.183304 0
M  V30 1548 C 145.789 -4.81119 0.0882276 0
M  V30 1549 C 148.141 -5.18883 0.49095 0
M  V30 1550 C 145.469 -5.77395 1.04076 0
M  V30 1551 C 147.821 -6.1618 1.43193 0
M  V30 1552 C 146.485 -6.45179 1.71173 0
M  V30 1553 H 145.755 -0.710762 -0.209521 0
M  V30 1554 H 148.402 -1.9077 0.167036 0
M  V30 1555 H 146.707 -3.37718 -1.9863 0
M  V30 1556 H 148.404 -3.63543 -1.69227 0
M  V30 1557 H 144.994 -4.26681 -0.405124 0
M  V30 1558 H 149.178 -4.95427 0.294312 0
M  V30 1559 H 144.434 -5.98179 1.26457 0
M  V30 1560 H 148.608 -6.68243 1.96023 0
M  V30 1561 H 146.235 -7.1959 2.4514 0
M  V30 1562 N 147.81 0.181792 -1.56548 0
M  V30 1563 C 148.72 1.24538 -1.98815 0
M  V30 1564 C 149.736 1.49045 -0.897861 0
M  V30 1565 O 150.912 1.61399 -1.20467 0
M  V30 1566 C 147.977 2.56683 -2.33055 0
M  V30 1567 C 147.038 2.40131 -3.55859 0
M  V30 1568 C 146.271 3.65975 -3.88456 0
M  V30 1569 O 146.494 4.70711 -3.22161 0
M  V30 1570 O 145.428 3.6071 -4.81842 0
M  V30 1571 H 149.254 0.916647 -2.89536 0
M  V30 1572 H 146.839 0.387842 -1.44278 0
M  V30 1573 H 148.721 3.34655 -2.56094 0
M  V30 1574 H 147.396 2.89157 -1.45498 0
M  V30 1575 H 146.303 1.60226 -3.38051 0
M  V30 1576 H 147.636 2.12585 -4.43924 0
M  V30 1577 N 149.288 1.51039 0.449983 0
M  V30 1578 C 150.251 1.70863 1.5277 0
M  V30 1579 C 151.251 0.578846 1.5002 0
M  V30 1580 O 152.441 0.846213 1.52266 0
M  V30 1581 C 149.573 1.75341 2.9235 0
M  V30 1582 H 150.766 2.67034 1.36502 0
M  V30 1583 H 148.319 1.40838 0.677812 0
M  V30 1584 H 149.054 0.809383 3.14037 0
M  V30 1585 H 148.839 2.57436 2.95752 0
M  V30 1586 H 150.329 1.92559 3.70555 0
M  V30 1587 N 150.766 -0.704594 1.40972 0
M  V30 1588 C 152.014 -1.46169 1.39568 0
M  V30 1589 C 152.335 -1.95 0.00253745 0
M  V30 1590 O 151.605 -1.71095 -0.954114 0
M  V30 1591 H 150.185 -0.542326 0.513704 0
M  V30 1592 H 152.847 -0.834553 1.76128 0
M  V30 1593 H 151.943 -2.32922 2.07735 0
M  V30 1594 N 152.244 -1.26651 -0.937939 0
M  V30 1595 C 153.521 -1.0313 -1.66204 0
M  V30 1596 C 153.901 0.437256 -2.06522 0
M  V30 1597 O 153.249 1.41831 -1.79154 0
M  V30 1598 C 153.459 -1.98314 -2.87181 0
M  V30 1599 C 154.807 -2.27107 -3.58758 0
M  V30 1600 O 155.831 -1.96205 -2.97291 0
M  V30 1601 O 154.69 -2.79736 -4.69479 0
M  V30 1602 H 151.784 -0.392384 -0.727986 0
M  V30 1603 H 154.33 -1.37874 -0.989382 0
M  V30 1604 H 153.102 -2.97399 -2.54302 0
M  V30 1605 H 152.725 -1.64068 -3.6217 0
M  V30 1606 N 153.722 1.14298 -1.08507 0
M  V30 1607 C 154.968 1.85633 -0.816581 0
M  V30 1608 C 155.301 1.82784 0.656021 0
M  V30 1609 O 154.576 1.25926 1.48233 0
M  V30 1610 C 154.859 3.34223 -1.34041 0
M  V30 1611 C 154.712 3.45639 -2.87843 0
M  V30 1612 C 156.031 4.29356 -0.9665 0
M  V30 1613 H 153.15 0.67402 -0.298104 0
M  V30 1614 H 155.792 1.34214 -1.34487 0
M  V30 1615 H 153.942 3.78144 -0.89104 0
M  V30 1616 H 155.614 3.10498 -3.41158 0
M  V30 1617 H 153.857 2.86817 -3.25451 0
M  V30 1618 H 154.528 4.50089 -3.19569 0
M  V30 1619 H 157.004 3.93457 -1.35391 0
M  V30 1620 H 155.88 5.3178 -1.3602 0
M  V30 1621 H 156.141 4.41919 0.126362 0
M  V30 1622 N 155.201 0.870884 1.31352 0
M  V30 1623 C 156.447 0.482987 1.96965 0
M  V30 1624 C 156.78 -0.962462 1.68672 0
M  V30 1625 O 156.055 -1.6779 0.98371 0
M  V30 1626 C 156.338 0.741752 3.52378 0
M  V30 1627 C 156.191 2.2368 3.9024 0
M  V30 1628 C 157.51 0.208838 4.39604 0
M  V30 1629 H 154.629 0.176955 0.715441 0
M  V30 1630 H 157.271 1.09229 1.55464 0
M  V30 1631 H 155.421 0.223149 3.87859 0
M  V30 1632 H 157.093 2.82273 3.64856 0
M  V30 1633 H 155.336 2.70901 3.38814 0
M  V30 1634 H 156.007 2.3685 4.98604 0
M  V30 1635 H 158.483 0.652529 4.10952 0
M  V30 1636 H 157.359 0.419336 5.47296 0
M  V30 1637 H 157.62 -0.889275 4.33064 0
M  V30 1638 N 156.679 -1.44442 0.630414 0
M  V30 1639 C 157.956 -1.9549 0.0655657 0
M  V30 1640 C 158.336 -1.5724 -1.40851 0
M  V30 1641 O 157.684 -0.846116 -2.12257 0
M  V30 1642 C 157.894 -3.47812 0.287691 0
M  V30 1643 C 159.242 -4.24216 0.180513 0
M  V30 1644 O 160.266 -3.55526 0.219019 0
M  V30 1645 O 159.125 -5.46434 0.0848493 0
M  V30 1646 H 156.219 -0.826688 -0.0227177 0
M  V30 1647 H 158.765 -1.54496 0.702068 0
M  V30 1648 H 157.537 -3.687 1.31056 0
M  V30 1649 H 157.16 -3.95751 -0.382984 0
M  V30 1650 N 158.157 -0.370918 -1.53173 0
M  V30 1651 C 159.403 0.217423 -2.01631 0
M  V30 1652 C 159.736 1.47983 -1.25756 0
M  V30 1653 O 159.011 1.91274 -0.352764 0
M  V30 1654 C 159.294 0.503982 -3.56556 0
M  V30 1655 C 159.147 -0.77243 -4.43118 0
M  V30 1656 C 160.466 1.30234 -4.20389 0
M  V30 1657 H 157.585 0.0775486 -0.732909 0
M  V30 1658 H 160.227 -0.496863 -1.83388 0
M  V30 1659 H 158.377 1.11248 -3.72231 0
M  V30 1660 H 160.049 -1.4098 -4.39229 0
M  V30 1661 H 158.292 -1.39167 -4.10871 0
M  V30 1662 H 158.963 -0.526815 -5.4948 0
M  V30 1663 H 161.439 0.787546 -4.08579 0
M  V30 1664 H 160.315 1.47158 -5.28806 0
M  V30 1665 H 160.576 2.31237 -3.76805 0
M  V30 1666 N 159.635 1.57281 -0.100228 0
M  V30 1667 C 160.863 1.98879 0.570509 0
M  V30 1668 C 161.278 0.979476 1.61405 0
M  V30 1669 O 160.635 -0.0302288 1.82475 0
M  V30 1670 C 160.686 3.4052 1.2136 0
M  V30 1671 O 160.407 4.37588 0.211786 0
M  V30 1672 C 161.908 3.97149 1.96945 0
M  V30 1673 H 159.128 0.653428 0.152555 0
M  V30 1674 H 161.672 2.03697 -0.18103 0
M  V30 1675 H 159.827 3.367 1.91603 0
M  V30 1676 H 160.241 5.20118 0.676607 0
M  V30 1677 H 161.715 4.98393 2.37294 0
M  V30 1678 H 162.192 3.3525 2.83733 0
M  V30 1679 H 162.798 4.04458 1.31506 0
M  V30 1680 N 161.113 -0.173488 1.56642 0
M  V30 1681 C 162.361 -0.888706 1.81512 0
M  V30 1682 C 162.682 -1.82875 0.676872 0
M  V30 1683 O 161.952 -1.93536 -0.303414 0
M  V30 1684 H 160.532 -0.331164 0.669582 0
M  V30 1685 H 163.194 -0.173823 1.94123 0
M  V30 1686 H 162.29 -1.46691 2.75478 0
M  V30 1687 N 162.591 -1.51276 -0.441967 0
M  V30 1688 C 163.84 -1.6295 -1.18871 0
M  V30 1689 C 164.153 -0.349312 -1.92456 0
M  V30 1690 O 165.359 -0.345355 -2.69295 0
M  V30 1691 C 163.815 -2.87759 -2.16155 0
M  V30 1692 C 163.423 -4.22764 -1.48239 0
M  V30 1693 C 165.167 -3.08788 -2.91291 0
M  V30 1694 C 163.074 -5.38728 -2.4398 0
M  V30 1695 H 162.004 -0.606913 -0.447406 0
M  V30 1696 H 164.655 -1.77739 -0.456205 0
M  V30 1697 H 163.037 -2.66593 -2.92821 0
M  V30 1698 H 164.211 -4.54293 -0.771635 0
M  V30 1699 H 162.526 -4.07575 -0.852741 0
M  V30 1700 H 165.123 -3.92599 -3.63002 0
M  V30 1701 H 165.466 -2.21679 -3.5237 0
M  V30 1702 H 165.999 -3.30272 -2.21733 0
M  V30 1703 H 162.738 -6.28082 -1.87598 0
M  V30 1704 H 162.258 -5.1158 -3.13123 0
M  V30 1705 H 163.937 -5.70489 -3.05207 0
M  V30 1706 N 164.069 0.697108 -1.41344 0
M  V30 1707 C 165.294 1.49096 -1.44171 0
M  V30 1708 C 165.719 1.88038 -0.0481568 0
M  V30 1709 O 165.077 1.54525 0.948243 0
M  V30 1710 C 165.125 2.73088 -2.3549 0
M  V30 1711 O 164.229 3.70514 -1.81088 0
M  V30 1712 H 163.57 0.448801 -0.489361 0
M  V30 1713 H 166.1 0.856992 -1.85787 0
M  V30 1714 H 166.11 3.21413 -2.51312 0
M  V30 1715 H 164.785 2.44081 -3.36745 0
M  V30 1716 H 163.362 3.29441 -1.74708 0
M  V30 1717 N 165.547 1.27147 0.931209 0
M  V30 1718 C 166.494 1.09568 2.03134 0
M  V30 1719 C 167.464 -0.00222433 1.661 0
M  V30 1720 O 168.649 0.159439 1.90133 0
M  V30 1721 C 165.789 0.745231 3.36957 0
M  V30 1722 C 164.902 1.92041 3.86968 0
M  V30 1723 C 164.037 1.51216 5.09222 0
M  V30 1724 C 163.076 2.65504 5.5152 0
M  V30 1725 N 162.213 2.25291 6.64972 0
M  V30 1726 H 167.053 2.03708 2.17502 0
M  V30 1727 H 164.59 1.01411 1.06556 0
M  V30 1728 H 166.548 0.522878 4.1391 0
M  V30 1729 H 165.178 -0.159202 3.22407 0
M  V30 1730 H 164.23 2.25541 3.06326 0
M  V30 1731 H 165.542 2.77787 4.1429 0
M  V30 1732 H 164.696 1.25084 5.93666 0
M  V30 1733 H 163.435 0.625749 4.83669 0
M  V30 1734 H 162.44 2.92354 4.65628 0
M  V30 1735 H 163.665 3.54761 5.7907 0
M  V30 1736 H 161.611 1.39098 6.41083 0
M  V30 1737 H 161.528 3.04577 6.91931 0
M  V30 1738 H 162.796 2.02398 7.52765 0
M  V30 1739 N 167.025 -1.13721 1.09112 0
M  V30 1740 C 168.273 -1.84559 0.823562 0
M  V30 1741 C 168.594 -1.83754 -0.652658 0
M  V30 1742 O 167.864 -1.29102 -1.47342 0
M  V30 1743 H 166.444 -0.683376 0.301673 0
M  V30 1744 H 169.106 -1.37771 1.37859 0
M  V30 1745 H 168.202 -2.8917 1.17419 0
M  V30 1746 N 168.503 -0.877838 -1.30888 0
M  V30 1747 C 169.45 -0.337538 -2.28318 0
M  V30 1748 C 170.42 0.568346 -1.56074 0
M  V30 1749 O 171.605 0.498298 -1.84178 0
M  V30 1750 C 168.745 0.448142 -3.42178 0
M  V30 1751 C 167.858 -0.48615 -4.29256 0
M  V30 1752 C 166.993 0.314427 -5.30269 0
M  V30 1753 C 166.032 -0.615791 -6.08995 0
M  V30 1754 N 165.169 0.14902 -7.01942 0
M  V30 1755 H 170.009 -1.17356 -2.73919 0
M  V30 1756 H 167.546 -0.590094 -1.34745 0
M  V30 1757 H 169.504 0.919517 -4.06941 0
M  V30 1758 H 168.134 1.24879 -2.97666 0
M  V30 1759 H 167.186 -1.076 -3.64865 0
M  V30 1760 H 168.498 -1.19909 -4.84173 0
M  V30 1761 H 167.652 0.847969 -6.00745 0
M  V30 1762 H 166.391 1.06062 -4.76027 0
M  V30 1763 H 165.396 -1.16102 -5.37401 0
M  V30 1764 H 166.621 -1.36097 -6.65323 0
M  V30 1765 H 164.567 0.877884 -6.50099 0
M  V30 1766 H 164.484 -0.504433 -7.54315 0
M  V30 1767 H 165.752 0.663537 -7.76671 0
M  V30 1768 N 169.982 1.44106 -0.638065 0
M  V30 1769 C 171.23 2.01579 -0.145043 0
M  V30 1770 C 171.551 1.50496 1.24 0
M  V30 1771 O 170.821 0.711374 1.82527 0
M  V30 1772 H 169.401 0.745282 -0.05063 0
M  V30 1773 H 172.063 1.76516 -0.826327 0
M  V30 1774 H 171.159 3.11877 -0.118039 0
M  V30 1775 N 171.46 0.379036 1.52974 0
M  V30 1776 C 172.707 -0.206421 2.01445 0
M  V30 1777 C 173.035 -1.47668 1.26587 0
M  V30 1778 O 172.29 -1.92514 0.351675 0
M  V30 1779 C 172.589 -0.53096 3.53434 0
M  V30 1780 C 172.255 0.646546 4.46241 0
M  V30 1781 C 170.917 0.969604 4.7133 0
M  V30 1782 C 173.269 1.43479 5.01062 0
M  V30 1783 C 170.597 2.08263 5.48492 0
M  V30 1784 C 172.949 2.53834 5.7944 0
M  V30 1785 C 171.613 2.86659 6.02812 0
M  V30 1786 H 170.883 -0.0755349 0.73714 0
M  V30 1787 H 173.53 0.514271 1.84465 0
M  V30 1788 H 171.835 -1.33285 3.68432 0
M  V30 1789 H 173.532 -0.996417 3.88423 0
M  V30 1790 H 170.122 0.384734 4.2687 0
M  V30 1791 H 174.306 1.19844 4.81613 0
M  V30 1792 H 169.562 2.34078 5.64816 0
M  V30 1793 H 173.736 3.15319 6.20924 0
M  V30 1794 H 171.363 3.73026 6.62387 0
M  V30 1795 N 172.938 -1.57226 0.108567 0
M  V30 1796 C 173.87 -2.11809 -0.875752 0
M  V30 1797 C 174.883 -1.05839 -1.23701 0
M  V30 1798 O 176.072 -1.33245 -1.18778 0
M  V30 1799 C 173.172 -2.59411 -2.18081 0
M  V30 1800 C 172.345 -3.89364 -1.99284 0
M  V30 1801 C 171.404 -4.22672 -3.13424 0
M  V30 1802 O 170.43 -4.91668 -2.86795 0
M  V30 1803 N 171.632 -3.79154 -4.3957 0
M  V30 1804 H 174.397 -2.9689 -0.409477 0
M  V30 1805 H 171.958 -1.61721 -0.076158 0
M  V30 1806 H 173.95 -2.7873 -2.93414 0
M  V30 1807 H 172.52 -1.79268 -2.5609 0
M  V30 1808 H 171.74 -3.79059 -1.08203 0
M  V30 1809 H 173.028 -4.74358 -1.84017 0
M  V30 1810 H 172.426 -3.23486 -4.64083 0
M  V30 1811 H 170.983 -4.03602 -5.11809 0
M  V30 1812 N 174.416 0.165178 -1.56732 0
M  V30 1813 C 175.664 0.879068 -1.8198 0
M  V30 1814 C 175.985 1.82514 -0.686561 0
M  V30 1815 O 175.255 1.93694 0.293146 0
M  V30 1816 H 173.835 0.327608 -0.671329 0
M  V30 1817 H 176.497 0.163526 -1.94213 0
M  V30 1818 H 175.593 1.45228 -2.76252 0
M  V30 1819 N 175.894 1.51508 0.433938 0
M  V30 1820 C 177.14 1.64588 1.18484 0
M  V30 1821 C 177.473 0.362666 1.90784 0
M  V30 1822 O 176.748 -0.637892 1.83742 0
M  V30 1823 C 177.031 2.85149 2.19913 0
M  V30 1824 C 176.884 4.23456 1.51674 0
M  V30 1825 C 178.203 3.01227 3.20858 0
M  V30 1826 H 175.322 0.598994 0.429389 0
M  V30 1827 H 177.964 1.84002 0.473647 0
M  V30 1828 H 176.114 2.68729 2.80566 0
M  V30 1829 H 177.786 4.51552 0.943322 0
M  V30 1830 H 176.029 4.25998 0.819035 0
M  V30 1831 H 176.7 5.03812 2.2556 0
M  V30 1832 H 179.176 3.16382 2.70263 0
M  V30 1833 H 178.052 3.87141 3.89118 0
M  V30 1834 H 178.313 2.13447 3.8716 0
M  V30 1835 N 177.372 -0.689602 1.41712 0
M  V30 1836 C 178.621 -1.44534 1.40686 0
M  V30 1837 C 178.934 -1.95588 0.0213352 0
M  V30 1838 O 180.14 -2.71271 -0.111534 0
M  V30 1839 C 178.596 -2.61387 2.47396 0
M  V30 1840 C 178.204 -2.17094 3.91885 0
M  V30 1841 C 179.948 -3.38986 2.55517 0
M  V30 1842 C 177.855 -3.3094 4.90135 0
M  V30 1843 H 176.785 -0.542925 0.52321 0
M  V30 1844 H 179.436 -0.748054 1.6756 0
M  V30 1845 H 177.818 -3.33412 2.13664 0
M  V30 1846 H 178.992 -1.52318 4.34897 0
M  V30 1847 H 177.307 -1.52473 3.8748 0
M  V30 1848 H 179.904 -4.23747 3.26102 0
M  V30 1849 H 180.247 -3.84578 1.59391 0
M  V30 1850 H 180.78 -2.74021 2.8837 0
M  V30 1851 H 177.519 -2.90355 5.87685 0
M  V30 1852 H 177.039 -3.94546 4.51767 0
M  V30 1853 H 178.718 -3.9663 5.11169 0
M  V30 1854 N 178.85 -1.27639 -0.924453 0
M  V30 1855 C 179.797 -1.10644 -2.0255 0
M  V30 1856 C 180.767 -0.00658438 -1.66099 0
M  V30 1857 O 181.952 -0.16952 -1.90045 0
M  V30 1858 C 179.092 -0.76309 -3.36557 0
M  V30 1859 C 178.205 -1.94091 -3.85944 0
M  V30 1860 C 177.34 -1.53914 -5.08413 0
M  V30 1861 C 176.379 -2.68425 -5.50104 0
M  V30 1862 N 175.516 -2.28815 -6.63768 0
M  V30 1863 H 180.356 -2.04858 -2.16419 0
M  V30 1864 H 177.893 -1.01974 -1.06017 0
M  V30 1865 H 179.851 -0.544822 -4.13627 0
M  V30 1866 H 178.481 0.142102 -3.22487 0
M  V30 1867 H 177.533 -2.27162 -3.05125 0
M  V30 1868 H 178.845 -2.7998 -4.12811 0
M  V30 1869 H 177.999 -1.28231 -5.92994 0
M  V30 1870 H 176.738 -0.651391 -4.8333 0
M  V30 1871 H 175.743 -2.94819 -4.64071 0
M  V30 1872 H 176.968 -3.57826 -5.7718 0
M  V30 1873 H 174.914 -1.42495 -6.40337 0
M  V30 1874 H 174.831 -3.08242 -6.90306 0
M  V30 1875 H 176.099 -2.06387 -7.51681 0
M  V30 1876 N 180.328 1.1314 -1.09713 0
M  V30 1877 C 181.744 1.36477 -0.827423 0
M  V30 1878 C 181.944 1.93654 0.556817 0
M  V30 1879 O 181 2.15791 1.31112 0
M  V30 1880 C 182.313 2.31334 -1.92106 0
M  V30 1881 C 183.861 2.44943 -1.94864 0
M  V30 1882 C 184.336 3.4311 -3.0338 0
M  V30 1883 N 185.827 3.50662 -3.02639 0
M  V30 1884 C 186.562 4.2651 -3.83246 0
M  V30 1885 N 186.058 5.05485 -4.73768 0
M  V30 1886 N 187.851 4.2184 -3.71493 0
M  V30 1887 H 180.002 0.743807 -1.9895 0
M  V30 1888 H 182.265 0.389823 -0.864143 0
M  V30 1889 H 181.971 1.96483 -2.91698 0
M  V30 1890 H 181.845 3.31381 -1.80184 0
M  V30 1891 H 184.232 2.79079 -0.959099 0
M  V30 1892 H 184.313 1.4481 -2.10864 0
M  V30 1893 H 183.957 3.09704 -4.02549 0
M  V30 1894 H 183.887 4.43055 -2.84622 0
M  V30 1895 H 186.378 2.94315 -2.37039 0
M  V30 1896 H 186.691 5.60675 -5.3185 0
M  V30 1897 H 185.036 5.04708 -4.77802 0
M  V30 1898 H 188.227 3.5922 -3.00131 0
M  V30 1899 H 188.4 4.80697 -4.3455 0
M  V30 1900 N 181.806 0.884767 1.30421 0
M  V30 1901 C 182.756 0.322846 2.25703 0
M  V30 1902 C 183.74 -0.548582 1.51259 0
M  V30 1903 O 184.932 -0.39304 1.72581 0
M  V30 1904 C 182.061 -0.461787 3.4018 0
M  V30 1905 C 181.147 0.423717 4.21978 0
M  V30 1906 N 181.538 1.52408 4.82292 0
M  V30 1907 C 179.836 0.218795 4.45463 0
M  V30 1908 C 180.537 2.07136 5.43571 0
M  V30 1909 N 179.513 1.36635 5.26148 0
M  V30 1910 H 183.315 1.16363 2.69883 0
M  V30 1911 H 180.829 0.73415 1.44859 0
M  V30 1912 H 182.826 -0.880985 4.07485 0
M  V30 1913 H 181.486 -1.30001 2.9754 0
M  V30 1914 H 182.497 1.90693 4.81515 0
M  V30 1915 H 179.174 -0.582275 4.1342 0
M  V30 1916 H 180.564 2.99538 6.01437 0
M  V30 1917 N 183.284 -1.43765 0.645699 0
M  V30 1918 C 184.532 -2.01499 0.155731 0
M  V30 1919 C 184.853 -1.51151 -1.232 0
M  V30 1920 O 184.123 -0.721044 -1.82148 0
M  V30 1921 H 182.703 -0.745003 0.0545817 0
M  V30 1922 H 185.365 -1.76075 0.835677 0
M  V30 1923 H 184.461 -3.1181 0.134577 0
M  V30 1924 N 184.763 -0.387143 -1.52771 0
M  V30 1925 C 185.695 0.484089 -2.2403 0
M  V30 1926 C 186.708 1.02849 -1.26198 0
M  V30 1927 O 187.897 0.931186 -1.52286 0
M  V30 1928 C 184.997 1.68337 -2.94136 0
M  V30 1929 C 184.17 1.26672 -4.18656 0
M  V30 1930 C 183.229 2.33045 -4.7178 0
M  V30 1931 O 182.255 1.94541 -5.34923 0
M  V30 1932 N 183.457 3.64929 -4.5145 0
M  V30 1933 H 186.222 -0.126404 -2.99433 0
M  V30 1934 H 183.783 -0.213392 -1.60488 0
M  V30 1935 H 185.775 2.39019 -3.26577 0
M  V30 1936 H 184.345 2.20025 -2.22053 0
M  V30 1937 H 183.565 0.388878 -3.92277 0
M  V30 1938 H 184.853 0.964964 -4.99566 0
M  V30 1939 H 184.251 3.98974 -4.01044 0
M  V30 1940 H 182.808 4.31651 -4.88386 0
M  V30 1941 N 186.241 1.57166 -0.116904 0
M  V30 1942 C 187.466 1.999 0.55271 0
M  V30 1943 C 187.891 0.996039 1.59564 0
M  V30 1944 O 187.249 -0.032556 1.81271 0
M  V30 1945 C 187.297 3.4152 1.15742 0
M  V30 1946 O 186.401 3.44106 2.27299 0
M  V30 1947 H 185.742 0.649447 0.138258 0
M  V30 1948 H 188.272 2.03573 -0.204759 0
M  V30 1949 H 188.282 3.79684 1.49346 0
M  V30 1950 H 186.957 4.14034 0.393493 0
M  V30 1951 H 185.534 3.17759 1.9515 0
M  V30 1952 N 187.719 -0.156864 1.56817 0
M  V30 1953 C 189.135 -0.50916 1.5126 0
M  V30 1954 C 189.335 -1.83897 0.823658 0
M  V30 1955 O 188.391 -2.49469 0.390055 0
M  V30 1956 C 189.704 -0.52857 2.96018 0
M  V30 1957 C 191.252 -0.614771 3.06903 0
M  V30 1958 C 191.727 -0.664938 4.53147 0
M  V30 1959 N 193.218 -0.727433 4.57452 0
M  V30 1960 C 193.953 -0.787067 5.67973 0
M  V30 1961 N 193.449 -0.806649 6.88088 0
M  V30 1962 N 195.242 -0.827195 5.5598 0
M  V30 1963 H 187.393 0.714935 2.00006 0
M  V30 1964 H 189.656 0.259526 0.911784 0
M  V30 1965 H 189.362 0.380154 3.49639 0
M  V30 1966 H 189.236 -1.36998 3.51442 0
M  V30 1967 H 191.623 -1.51392 2.53307 0
M  V30 1968 H 191.704 0.253597 2.5454 0
M  V30 1969 H 191.348 0.230011 5.07379 0
M  V30 1970 H 191.278 -1.54966 5.03282 0
M  V30 1971 H 193.769 -0.719998 3.70978 0
M  V30 1972 H 194.082 -0.853727 7.6807 0
M  V30 1973 H 192.427 -0.774687 6.90669 0
M  V30 1974 H 195.618 -0.808998 4.61056 0
M  V30 1975 H 195.791 -0.870206 6.4213 0
M  V30 1976 N 189.197 -1.51736 -0.425897 0
M  V30 1977 C 190.445 -1.64644 -1.17204 0
M  V30 1978 C 190.766 -0.370486 -1.91448 0
M  V30 1979 O 190.036 0.614088 -1.86026 0
M  V30 1980 H 188.616 -0.606819 -0.435638 0
M  V30 1981 H 191.278 -1.88713 -0.487177 0
M  V30 1982 H 190.374 -2.47958 -1.89534 0
M  V30 1983 N 190.675 0.682077 -1.42076 0
M  V30 1984 C 192.086 1.26246 -1.37546 0
M  V30 1985 C 192.437 1.96092 -0.0651481 0
M  V30 1986 O 191.562 1.99587 0.836297 0
M  V30 1987 C 192.157 2.29594 -2.49143 0
M  V30 1988 C 190.716 2.83175 -2.47969 0
M  V30 1989 C 189.863 1.57395 -2.28303 0
M  V30 1990 H 192.814 0.475937 -1.51395 0
M  V30 1991 H 192.835 3.11175 -2.18976 0
M  V30 1992 H 192.347 1.78729 -3.44496 0
M  V30 1993 H 190.448 3.3818 -1.56413 0
M  V30 1994 H 190.561 3.32687 -3.44755 0
M  V30 1995 H 188.925 1.83699 -1.76428 0
M  V30 1996 H 189.708 1.08507 -3.25701 0
M  V30 1997 N 192.153 1.28127 0.917671 0
M  V30 1998 C 193.086 1.06039 2.02067 0
M  V30 1999 C 194.064 -0.0223285 1.62585 0
M  V30 2000 O 195.248 0.124823 1.88086 0
M  V30 2001 C 192.375 0.610596 3.33151 0
M  V30 2002 C 191.421 1.68937 3.91615 0
M  V30 2003 S 192.254 3.28437 4.22953 0
M  V30 2004 C 193.41 2.85283 5.57103 0
M  V30 2005 H 193.643 1.99425 2.20493 0
M  V30 2006 H 191.176 1.12071 1.06205 0
M  V30 2007 H 193.134 0.357778 4.08938 0
M  V30 2008 H 191.795 -0.303364 3.12632 0
M  V30 2009 H 190.988 1.32619 4.86239 0
M  V30 2010 H 190.59 1.89478 3.2245 0
M  V30 2011 H 192.882 2.3121 6.36827 0
M  V30 2012 H 193.825 3.7869 5.98331 0
M  V30 2013 H 194.233 2.24118 5.18104 0
M  V30 2014 N 193.631 -1.12557 1.10312 0
M  V30 2015 C 194.594 -2.16434 0.75424 0
M  V30 2016 C 195.594 -1.59278 -0.220685 0
M  V30 2017 O 196.784 -1.742 0.00230591 0
M  V30 2018 C 193.916 -3.40699 0.116987 0
M  V30 2019 H 195.109 -2.48811 1.67431 0
M  V30 2020 H 192.662 -1.27542 0.903475 0
M  V30 2021 H 193.397 -3.13921 -0.813877 0
M  V30 2022 H 193.182 -3.83459 0.818613 0
M  V30 2023 H 194.672 -4.17451 -0.111387 0
M  V30 2024 N 195.109 -0.891671 -1.2995 0
M  V30 2025 C 196.059 -0.334811 -2.25528 0
M  V30 2026 C 197.043 0.540553 -1.51548 0
M  V30 2027 O 198.235 0.383882 -1.72787 0
M  V30 2028 C 195.364 0.44374 -3.4042 0
M  V30 2029 C 194.45 -0.44609 -4.21747 0
M  V30 2030 N 194.841 -1.54963 -4.81477 0
M  V30 2031 C 193.139 -0.242415 -4.45341 0
M  V30 2032 C 193.84 -2.10015 -5.42465 0
M  V30 2033 N 192.816 -1.39423 -5.25416 0
M  V30 2034 H 196.618 -1.17792 -2.69262 0
M  V30 2035 H 194.132 -0.741822 -1.44467 0
M  V30 2036 H 196.129 0.859362 -4.07947 0
M  V30 2037 H 194.789 1.28421 -2.98225 0
M  V30 2038 H 195.8 -1.93244 -4.80497 0
M  V30 2039 H 192.477 0.560342 -4.13723 0
M  V30 2040 H 193.867 -3.02724 -5.9984 0
M  V30 2041 N 196.587 1.43421 -0.653314 0
M  V30 2042 C 197.835 2.01414 -0.166415 0
M  V30 2043 C 198.156 1.51803 1.22397 0
M  V30 2044 O 197.426 0.730693 1.81763 0
M  V30 2045 H 196.006 0.744703 -0.0585319 0
M  V30 2046 H 198.668 1.75629 -0.845003 0
M  V30 2047 H 197.764 3.11734 -0.151111 0
M  V30 2048 N 198.065 0.39524 1.52563 0
M  V30 2049 C 199.29 -0.187456 2.06551 0
M  V30 2050 C 199.715 -1.39249 1.26457 0
M  V30 2051 O 199.073 -1.78947 0.291151 0
M  V30 2052 C 199.121 -0.529985 3.56684 0
M  V30 2053 O 198.225 -1.62307 3.79118 0
M  V30 2054 H 197.566 -0.0202537 0.663691 0
M  V30 2055 H 200.096 0.564426 1.96661 0
M  V30 2056 H 200.106 -0.792598 4.00227 0
M  V30 2057 H 198.781 0.350987 4.14416 0
M  V30 2058 H 197.358 -1.3537 3.47461 0
M  V30 2059 N 199.544 -1.57102 0.125237 0
M  V30 2060 C 200.96 -1.57915 -0.231322 0
M  V30 2061 C 201.16 -1.13833 -1.66266 0
M  V30 2062 O 200.216 -0.828581 -2.38518 0
M  V30 2063 C 201.529 -3.00699 0.00766489 0
M  V30 2064 C 203.077 -3.12947 -0.0577483 0
M  V30 2065 C 203.552 -4.57742 0.153626 0
M  V30 2066 N 205.043 -4.63092 0.0998073 0
M  V30 2067 C 205.778 -5.72905 0.238174 0
M  V30 2068 N 205.274 -6.91445 0.433057 0
M  V30 2069 N 207.067 -5.6182 0.177308 0
M  V30 2070 H 199.218 -1.84055 1.06007 0
M  V30 2071 H 201.481 -0.850905 0.417929 0
M  V30 2072 H 201.187 -3.3726 0.997431 0
M  V30 2073 H 201.061 -3.70236 -0.721452 0
M  V30 2074 H 203.448 -2.7624 -1.03804 0
M  V30 2075 H 203.529 -2.4594 0.70335 0
M  V30 2076 H 203.173 -4.95149 1.13092 0
M  V30 2077 H 203.103 -5.22848 -0.627534 0
M  V30 2078 H 205.594 -3.77871 -0.047051 0
M  V30 2079 H 205.907 -7.70985 0.529332 0
M  V30 2080 H 204.252 -6.93415 0.469109 0
M  V30 2081 H 207.443 -4.68093 0.0259748 0
M  V30 2082 H 207.616 -6.47357 0.288582 0
M  V30 2083 N 201.022 0.148545 -1.56898 0
M  V30 2084 C 202.252 0.875118 -1.8715 0
M  V30 2085 C 202.66 1.75322 -0.711262 0
M  V30 2086 O 202.003 1.80745 0.328151 0
M  V30 2087 C 202.065 1.7844 -3.12089 0
M  V30 2088 C 201.729 1.08361 -4.43967 0
M  V30 2089 C 202.726 0.438247 -5.1805 0
M  V30 2090 C 200.411 1.07358 -4.90693 0
M  V30 2091 C 202.405 -0.20779 -6.37061 0
M  V30 2092 C 200.092 0.42373 -6.09629 0
M  V30 2093 C 201.09 -0.215829 -6.82659 0
M  V30 2094 O 200.778 -0.855378 -7.99336 0
M  V30 2095 H 200.51 0.258504 -0.624621 0
M  V30 2096 H 203.064 0.14652 -2.04877 0
M  V30 2097 H 201.294 2.55389 -2.90367 0
M  V30 2098 H 202.983 2.38279 -3.286 0
M  V30 2099 H 203.749 0.437817 -4.8302 0
M  V30 2100 H 199.628 1.5608 -4.33774 0
M  V30 2101 H 203.172 -0.70758 -6.94002 0
M  V30 2102 H 199.069 0.421822 -6.4412 0
M  V30 2103 H 199.837 -0.756892 -8.14993 0
M  V30 2104 N 202.5 1.5196 0.417844 0
M  V30 2105 C 203.45 1.7106 1.5074 0
M  V30 2106 C 204.434 0.564487 1.50673 0
M  V30 2107 O 205.626 0.821206 1.56797 0
M  V30 2108 C 202.755 1.85677 2.88754 0
M  V30 2109 C 201.841 3.06133 2.93502 0
M  V30 2110 N 202.232 4.28987 2.67962 0
M  V30 2111 C 200.53 3.05787 3.24669 0
M  V30 2112 C 201.231 5.10395 2.79055 0
M  V30 2113 N 200.207 4.45455 3.11561 0
M  V30 2114 H 204.009 2.63696 1.29775 0
M  V30 2115 H 201.523 1.49873 0.625436 0
M  V30 2116 H 203.52 1.97475 3.67164 0
M  V30 2117 H 202.18 0.942348 3.10725 0
M  V30 2118 H 203.191 4.57607 2.4252 0
M  V30 2119 H 199.868 2.2405 3.52289 0
M  V30 2120 H 201.258 6.18247 2.63097 0
M  V30 2121 N 203.978 -0.674533 1.42435 0
M  V30 2122 C 205.394 -0.98769 1.25367 0
M  V30 2123 C 205.594 -2.00879 0.158044 0
M  V30 2124 O 204.65 -2.48075 -0.470633 0
M  V30 2125 C 205.963 -1.49224 2.6106 0
M  V30 2126 C 207.511 -1.61 2.68417 0
M  V30 2127 C 207.986 -2.14852 4.04478 0
M  V30 2128 N 209.477 -2.22185 4.06434 0
M  V30 2129 C 210.212 -2.64928 5.08528 0
M  V30 2130 N 209.708 -3.07121 6.21006 0
M  V30 2131 N 211.501 -2.64679 4.95885 0
M  V30 2132 H 203.652 0.00152503 2.124 0
M  V30 2133 H 205.915 -0.0618434 0.945981 0
M  V30 2134 H 205.621 -0.816453 3.42092 0
M  V30 2135 H 205.495 -2.47094 2.84999 0
M  V30 2136 H 207.882 -2.27686 1.87732 0
M  V30 2137 H 207.963 -0.616195 2.48267 0
M  V30 2138 H 207.607 -1.48775 4.85622 0
M  V30 2139 H 207.537 -3.15024 4.2198 0
M  V30 2140 H 210.028 -1.92435 3.25234 0
M  V30 2141 H 210.341 -3.38423 6.94759 0
M  V30 2142 H 208.686 -3.04978 6.24511 0
M  V30 2143 H 211.877 -2.31078 4.07088 0
M  V30 2144 H 212.05 -2.9767 5.75584 0
M  V30 2145 N 205.456 -1.28612 -0.910864 0
M  V30 2146 C 206.872 -1.06381 -1.18976 0
M  V30 2147 C 207.072 0.191998 -2.00583 0
M  V30 2148 O 206.128 0.892869 -2.36187 0
M  V30 2149 C 207.441 -2.31295 -1.92154 0
M  V30 2150 C 208.989 -2.36503 -2.05025 0
M  V30 2151 C 209.464 -3.61191 -2.81612 0
M  V30 2152 N 210.955 -3.61847 -2.89172 0
M  V30 2153 C 211.69 -4.55004 -3.4894 0
M  V30 2154 N 211.186 -5.58482 -4.09963 0
M  V30 2155 N 212.979 -4.42594 -3.46506 0
M  V30 2156 H 205.13 -2.09221 -0.366094 0
M  V30 2157 H 207.393 -0.921003 -0.224629 0
M  V30 2158 H 207.099 -3.228 -1.39618 0
M  V30 2159 H 206.973 -2.37934 -2.9269 0
M  V30 2160 H 209.36 -1.45494 -2.5674 0
M  V30 2161 H 209.441 -2.33857 -1.03657 0
M  V30 2162 H 209.085 -4.52545 -2.30576 0
M  V30 2163 H 209.015 -3.61092 -3.83302 0
M  V30 2164 H 211.506 -2.87022 -2.45819 0
M  V30 2165 H 211.819 -6.25704 -4.53557 0
M  V30 2166 H 210.164 -5.62305 -4.08459 0
M  V30 2167 H 213.355 -3.60953 -2.98045 0
M  V30 2168 H 213.528 -5.15381 -3.92793 0
M  V30 2169 N 206.934 1.1197 -1.10907 0
M  V30 2170 C 208.345 1.65114 -0.871446 0
M  V30 2171 C 208.696 1.86885 0.597353 0
M  V30 2172 O 207.821 1.59896 1.45816 0
M  V30 2173 C 208.416 2.99944 -1.5754 0
M  V30 2174 C 206.975 3.50018 -1.38435 0
M  V30 2175 C 206.122 2.24941 -1.62164 0
M  V30 2176 H 209.073 0.956851 -1.2661 0
M  V30 2177 H 209.094 3.66651 -1.01721 0
M  V30 2178 H 208.606 2.84067 -2.64438 0
M  V30 2179 H 206.707 3.71071 -0.337214 0
M  V30 2180 H 206.82 4.29165 -2.12965 0
M  V30 2181 H 205.184 2.3229 -1.04467 0
M  V30 2182 H 205.967 2.11612 -2.70324 0
M  V30 2183 N 208.412 0.89855 1.29475 0
M  V30 2184 C 209.66 0.522847 1.9522 0
M  V30 2185 C 209.981 -0.93371 1.71192 0
M  V30 2186 O 209.251 -1.65823 1.04305 0
M  V30 2187 H 207.831 0.190366 0.722336 0
M  V30 2188 H 210.493 1.14459 1.5775 0
M  V30 2189 H 209.589 0.704476 3.04045 0
M  V30 2190 N 209.89 -1.43072 0.660911 0
M  V30 2191 C 211.115 -2.06584 0.183805 0
M  V30 2192 C 211.54 -1.49257 -1.14472 0
M  V30 2193 O 210.898 -0.605528 -1.70889 0
M  V30 2194 C 210.946 -3.60418 0.114434 0
M  V30 2195 O 210.05 -4.01981 -0.921137 0
M  V30 2196 H 209.391 -0.656669 0.0983994 0
M  V30 2197 H 211.921 -1.83447 0.906006 0
M  V30 2198 H 211.931 -4.07946 -0.0663394 0
M  V30 2199 H 210.606 -4.01519 1.08422 0
M  V30 2200 H 209.183 -3.66029 -0.71253 0
M  V30 2201 N 211.368 -0.403325 -1.52352 0
M  V30 2202 C 212.301 0.469463 -2.23319 0
M  V30 2203 C 213.279 1.05272 -1.23922 0
M  V30 2204 O 214.463 1.10169 -1.52954 0
M  V30 2205 C 211.59 1.6511 -2.9573 0
M  V30 2206 C 210.636 1.19178 -4.0951 0
M  V30 2207 S 211.469 0.161718 -5.35256 0
M  V30 2208 C 212.625 1.34882 -6.11194 0
M  V30 2209 H 212.858 -0.133134 -2.97002 0
M  V30 2210 H 210.391 -0.187588 -1.53256 0
M  V30 2211 H 212.349 2.3287 -3.38056 0
M  V30 2212 H 211.01 2.22503 -2.21701 0
M  V30 2213 H 210.203 2.07444 -4.59329 0
M  V30 2214 H 209.805 0.592911 -3.6927 0
M  V30 2215 H 212.097 2.27345 -6.38217 0
M  V30 2216 H 213.04 0.89128 -7.02468 0
M  V30 2217 H 213.448 1.57198 -5.42171 0
M  V30 2218 N 212.846 1.57033 -0.133567 0
M  V30 2219 C 214.094 1.953 0.519848 0
M  V30 2220 C 214.415 1.01866 1.66278 0
M  V30 2221 O 213.685 0.0776513 1.95746 0
M  V30 2222 H 212.265 0.721091 0.195032 0
M  V30 2223 H 214.927 1.93809 -0.205921 0
M  V30 2224 H 214.023 2.98695 0.904854 0
M  V30 2225 N 214.325 -0.140222 1.56975 0
M  V30 2226 C 215.736 -0.699596 1.73097 0
M  V30 2227 C 216.087 -1.8134 0.749022 0
M  V30 2228 O 215.212 -2.16241 -0.0828503 0
M  V30 2229 C 215.807 -1.27582 3.1386 0
M  V30 2230 C 214.366 -1.78169 3.31561 0
M  V30 2231 C 213.513 -0.672855 2.69013 0
M  V30 2232 H 216.464 0.0855115 1.58469 0
M  V30 2233 H 216.485 -2.14561 3.14235 0
M  V30 2234 H 215.997 -0.464955 3.85305 0
M  V30 2235 H 214.098 -2.61801 2.65124 0
M  V30 2236 H 214.211 -1.90574 4.39566 0
M  V30 2237 H 212.575 -1.10118 2.29665 0
M  V30 2238 H 213.358 0.126679 3.43066 0
M  V30 2239 N 215.803 -1.52179 -0.40978 0
M  V30 2240 C 217.049 -1.66453 -1.15851 0
M  V30 2241 C 217.382 -0.392972 -1.90182 0
M  V30 2242 O 216.657 0.608579 -1.84734 0
M  V30 2243 C 216.94 -2.88612 -2.15349 0
M  V30 2244 C 216.793 -4.25815 -1.44918 0
M  V30 2245 C 218.112 -3.06294 -3.16026 0
M  V30 2246 H 215.231 -0.60575 -0.419805 0
M  V30 2247 H 217.873 -1.84732 -0.444314 0
M  V30 2248 H 216.023 -2.73158 -2.76255 0
M  V30 2249 H 217.695 -4.52995 -0.871365 0
M  V30 2250 H 215.938 -4.27247 -0.751159 0
M  V30 2251 H 216.609 -5.07337 -2.17516 0
M  V30 2252 H 219.085 -3.20641 -2.65195 0
M  V30 2253 H 217.961 -3.93283 -3.8291 0
M  V30 2254 H 218.222 -2.19579 -3.83715 0
M  V30 2255 N 217.281 0.66697 -1.42791 0
M  V30 2256 C 218.244 1.76211 -1.46568 0
M  V30 2257 C 219.244 1.56896 -0.352196 0
M  V30 2258 O 220.434 1.63044 -0.613364 0
M  V30 2259 C 217.566 3.14935 -1.30494 0
M  V30 2260 H 218.759 1.74247 -2.44086 0
M  V30 2261 H 216.312 0.877342 -1.29354 0
M  V30 2262 H 217.047 3.2252 -0.339301 0
M  V30 2263 H 216.832 3.30359 -2.11199 0
M  V30 2264 H 218.322 3.94821 -1.36038 0
M  V30 2265 N 218.759 1.29093 0.90403 0
M  V30 2266 C 220.17 1.15186 1.46932 0
M  V30 2267 C 220.521 -0.254587 1.94541 0
M  V30 2268 O 219.646 -1.14972 1.83332 0
M  V30 2269 C 220.241 2.08492 2.67051 0
M  V30 2270 C 218.8 1.98621 3.19729 0
M  V30 2271 C 217.947 1.9967 1.92425 0
M  V30 2272 H 220.898 1.41641 0.715789 0
M  V30 2273 H 220.919 1.65461 3.42641 0
M  V30 2274 H 220.431 3.10847 2.3237 0
M  V30 2275 H 218.532 0.993389 3.59114 0
M  V30 2276 H 218.645 2.86068 3.8432 0
M  V30 2277 H 217.009 1.44208 2.09943 0
M  V30 2278 H 217.792 3.03721 1.60026 0
M  V30 2279 N 220.237 -1.11381 1.11499 0
M  V30 2280 C 221.185 -2.19522 0.768956 0
M  V30 2281 C 222.179 -1.67693 -0.239857 0
M  V30 2282 O 223.385 -1.79727 -0.0990755 0
M  V30 2283 H 219.76 -0.715711 0.230786 0
M  V30 2284 H 221.731 -2.45954 1.68964 0
M  V30 2285 C 220.48 -3.46945 0.229073 0
M  V30 2286 H 219.803 -3.8718 0.996596 0
M  V30 2287 H 221.243 -4.23993 0.0251441 0
M  V30 2288 C 219.702 -3.2042 -1.04079 0
M  V30 2289 O 220.232 -3.41178 -2.12038 0
M  V30 2290 N 218.438 -2.74151 -0.963823 0
M  V30 2291 H 217.985 -2.57459 -0.0851722 0
M  V30 2292 H 217.943 -2.56781 -1.81414 0
M  V30 2293 N 221.715 -0.905404 -1.28997 0
M  V30 2294 C 223.131 -0.60233 -1.47798 0
M  V30 2295 C 223.331 0.854645 -1.82478 0
M  V30 2296 O 222.387 1.63439 -1.92468 0
M  V30 2297 C 223.7 -1.53306 -2.58685 0
M  V30 2298 C 225.248 -1.53887 -2.72558 0
M  V30 2299 C 225.723 -2.45602 -3.86579 0
M  V30 2300 N 227.214 -2.43681 -3.93921 0
M  V30 2301 C 227.949 -3.11347 -4.81509 0
M  V30 2302 N 227.445 -3.88313 -5.73746 0
M  V30 2303 N 229.238 -3.00476 -4.75048 0
M  V30 2304 H 221.389 -1.84765 -1.04764 0
M  V30 2305 H 223.652 -0.792025 -0.520961 0
M  V30 2306 H 223.358 -2.57141 -2.39941 0
M  V30 2307 H 223.232 -1.25787 -3.55609 0
M  V30 2308 H 225.619 -0.507941 -2.90696 0
M  V30 2309 H 225.7 -1.85447 -1.76191 0
M  V30 2310 H 225.344 -3.48792 -3.69197 0
M  V30 2311 H 225.274 -2.11349 -4.82327 0
M  V30 2312 H 227.765 -1.87767 -3.27951 0
M  V30 2313 H 228.078 -4.36985 -6.37389 0
M  V30 2314 H 226.423 -3.92419 -5.73614 0
M  V30 2315 H 229.614 -2.39858 -4.01977 0
M  V30 2316 H 229.787 -3.53485 -5.43095 0
M  V30 2317 N 223.193 1.4272 -0.668489 0
M  V30 2318 C 224.439 2.01923 -0.188419 0
M  V30 2319 C 224.772 1.52704 1.19979 0
M  V30 2320 O 224.047 0.726566 1.8042 0
M  V30 2321 C 224.33 3.59451 -0.216085 0
M  V30 2322 C 224.183 4.18864 -1.6393 0
M  V30 2323 C 225.502 4.37903 0.439179 0
M  V30 2324 H 222.621 0.733674 -0.0699412 0
M  V30 2325 H 225.263 1.69822 -0.852076 0
M  V30 2326 H 223.413 3.86929 0.349012 0
M  V30 2327 H 225.085 4.02362 -2.25616 0
M  V30 2328 H 223.328 3.74933 -2.18193 0
M  V30 2329 H 223.999 5.27987 -1.61039 0
M  V30 2330 H 226.475 4.16079 -0.0417878 0
M  V30 2331 H 225.351 5.47519 0.389157 0
M  V30 2332 H 225.612 4.15303 1.51577 0
M  V30 2333 N 224.671 0.411399 1.52136 0
M  V30 2334 C 225.918 -0.163645 2.01838 0
M  V30 2335 C 226.246 -1.4495 1.29691 0
M  V30 2336 O 225.501 -1.91725 0.392431 0
M  V30 2337 C 225.8 -0.455872 3.54481 0
M  V30 2338 C 225.466 0.741055 4.44769 0
M  V30 2339 C 224.128 1.06936 4.69167 0
M  V30 2340 C 226.48 1.54075 4.97906 0
M  V30 2341 C 223.808 2.19851 5.43951 0
M  V30 2342 C 226.16 2.66067 5.73926 0
M  V30 2343 C 224.824 2.99381 5.96596 0
M  V30 2344 H 224.094 -0.0598821 0.738576 0
M  V30 2345 H 226.741 0.553283 1.83333 0
M  V30 2346 H 225.046 -1.2544 3.71177 0
M  V30 2347 H 226.743 -0.913802 3.90449 0
M  V30 2348 H 223.333 0.475192 4.25958 0
M  V30 2349 H 227.517 1.30033 4.78963 0
M  V30 2350 H 222.773 2.46006 5.59724 0
M  V30 2351 H 226.947 3.28419 6.14096 0
M  V30 2352 H 224.574 3.86992 6.54325 0
M  V30 2353 N 226.149 -1.5696 0.141893 0
M  V30 2354 C 227.096 -2.16501 -0.799737 0
M  V30 2355 C 228.066 -1.09643 -1.24771 0
M  V30 2356 O 229.251 -1.3766 -1.32115 0
M  V30 2357 C 226.391 -2.78679 -2.03549 0
M  V30 2358 C 225.504 -3.99914 -1.6338 0
M  V30 2359 C 224.639 -4.50106 -2.82096 0
M  V30 2360 C 223.678 -5.63819 -2.38275 0
M  V30 2361 N 222.815 -6.08651 -3.49983 0
M  V30 2362 H 227.655 -2.96632 -0.285179 0
M  V30 2363 H 225.192 -1.46533 -0.129053 0
M  V30 2364 H 227.15 -3.1287 -2.75986 0
M  V30 2365 H 225.78 -2.012 -2.52425 0
M  V30 2366 H 224.832 -3.71735 -0.807279 0
M  V30 2367 H 226.144 -4.82311 -1.27192 0
M  V30 2368 H 225.298 -4.86325 -3.62729 0
M  V30 2369 H 224.037 -3.66706 -3.21525 0
M  V30 2370 H 223.042 -5.2718 -1.56081 0
M  V30 2371 H 224.267 -6.49 -1.99938 0
M  V30 2372 H 222.213 -5.28188 -3.89042 0
M  V30 2373 H 222.13 -6.85961 -3.17794 0
M  V30 2374 H 223.398 -6.49515 -4.30988 0
M  V30 2375 N 227.627 0.131896 -1.57047 0
M  V30 2376 C 228.575 1.18146 -2.0036 0
M  V30 2377 C 229.569 1.43614 -0.898406 0
M  V30 2378 O 230.775 1.43729 -1.08361 0
M  V30 2379 H 227.15 0.398042 -0.638018 0
M  V30 2380 H 229.121 0.789564 -2.87765 0
M  V30 2381 C 227.87 2.50341 -2.41298 0
M  V30 2382 H 227.193 2.31578 -3.25902 0
M  V30 2383 H 228.633 3.22371 -2.75414 0
M  V30 2384 C 227.092 3.11984 -1.27153 0
M  V30 2385 O 227.622 3.97484 -0.580459 0
M  V30 2386 N 225.828 2.71662 -1.03189 0
M  V30 2387 H 225.375 2.02231 -1.59564 0
M  V30 2388 H 225.333 3.13238 -0.270077 0
M  V30 2389 N 229.106 1.52395 0.401703 0
M  V30 2390 C 230.053 1.76268 1.48991 0
M  V30 2391 C 231.023 0.605386 1.54675 0
M  V30 2392 O 232.208 0.843742 1.7113 0
M  V30 2393 C 229.348 1.92592 2.86361 0
M  V30 2394 C 228.461 3.20259 2.89928 0
M  V30 2395 C 227.596 3.26972 4.18644 0
M  V30 2396 C 226.635 4.48812 4.16214 0
M  V30 2397 N 225.772 4.52877 5.36514 0
M  V30 2398 H 230.612 2.6914 1.27935 0
M  V30 2399 H 228.149 1.33355 0.620871 0
M  V30 2400 H 230.107 2.0004 3.66115 0
M  V30 2401 H 228.737 1.03093 3.05895 0
M  V30 2402 H 227.789 3.21945 2.02621 0
M  V30 2403 H 229.101 4.10056 2.83999 0
M  V30 2404 H 228.255 3.33533 5.06794 0
M  V30 2405 H 226.994 2.35126 4.27278 0
M  V30 2406 H 225.999 4.4239 3.26453 0
M  V30 2407 H 227.224 5.41961 4.09213 0
M  V30 2408 H 225.17 3.63917 5.45802 0
M  V30 2409 H 225.087 5.36529 5.32609 0
M  V30 2410 H 226.355 4.63676 6.26597 0
M  V30 2411 N 230.584 -0.659388 1.43143 0
M  V30 2412 C 232 -0.974337 1.26407 0
M  V30 2413 C 232.2 -2.007 0.179341 0
M  V30 2414 O 231.256 -2.4856 -0.444295 0
M  V30 2415 C 232.569 -1.46447 2.62628 0
M  V30 2416 C 234.117 -1.58144 2.7011 0
M  V30 2417 C 234.592 -2.1055 4.06734 0
M  V30 2418 N 236.083 -2.17861 4.08767 0
M  V30 2419 C 236.818 -2.59519 5.1131 0
M  V30 2420 N 236.314 -3.00518 6.24228 0
M  V30 2421 N 238.107 -2.59404 4.98664 0
M  V30 2422 H 230.258 0.0240528 2.12386 0
M  V30 2423 H 232.521 -0.0518065 0.946583 0
M  V30 2424 H 232.227 -0.780123 3.42939 0
M  V30 2425 H 232.101 -2.44058 2.87603 0
M  V30 2426 H 234.488 -2.25682 1.90136 0
M  V30 2427 H 234.569 -0.589828 2.48907 0
M  V30 2428 H 234.213 -1.43616 4.87172 0
M  V30 2429 H 234.143 -3.10531 4.25298 0
M  V30 2430 H 236.634 -1.88975 3.27257 0
M  V30 2431 H 236.947 -3.31036 6.98309 0
M  V30 2432 H 235.292 -2.98337 6.2771 0
M  V30 2433 H 238.483 -2.26747 4.09516 0
M  V30 2434 H 238.656 -2.91548 5.78709 0
M  V30 2435 N 232.062 -1.29571 -0.897171 0
M  V30 2436 C 232.992 -1.17473 -2.01798 0
M  V30 2437 C 233.973 -0.068323 -1.69963 0
M  V30 2438 O 235.158 -0.248239 -1.92607 0
M  V30 2439 C 232.288 -0.853099 -3.36659 0
M  V30 2440 C 231.242 -1.9161 -3.82713 0
M  V30 2441 C 230.568 -1.44773 -5.14728 0
M  V30 2442 C 231.868 -3.32535 -4.02763 0
M  V30 2443 H 233.562 -2.11237 -2.12177 0
M  V30 2444 H 231.108 -1.01699 -1.01948 0
M  V30 2445 H 233.061 -0.755165 -4.14578 0
M  V30 2446 H 231.785 0.120236 -3.26379 0
M  V30 2447 H 230.444 -2.00346 -3.07013 0
M  V30 2448 H 230.092 -0.462995 -5.00865 0
M  V30 2449 H 229.792 -2.15865 -5.46513 0
M  V30 2450 H 231.316 -1.36334 -5.95185 0
M  V30 2451 H 232.73 -3.26626 -4.71156 0
M  V30 2452 H 231.127 -4.01607 -4.45905 0
M  V30 2453 H 232.197 -3.75326 -3.07016 0
M  V30 2454 N 233.54 1.10788 -1.12088 0
M  V30 2455 C 234.503 2.15207 -0.788577 0
M  V30 2456 C 235.503 1.59609 0.195317 0
M  V30 2457 O 236.693 1.74174 -0.0300193 0
M  V30 2458 C 233.825 3.4047 -0.171174 0
M  V30 2459 H 235.018 2.46116 -1.71368 0
M  V30 2460 H 232.571 1.26089 -0.923652 0
M  V30 2461 H 233.306 3.15176 0.763832 0
M  V30 2462 H 233.091 3.82109 -0.879514 0
M  V30 2463 H 234.581 4.17576 0.04496 0
M  V30 2464 N 235.018 0.912232 1.28515 0
M  V30 2465 C 236.266 0.543523 1.94654 0
M  V30 2466 C 236.587 -0.9155 1.72173 0
M  V30 2467 O 235.857 -1.64708 1.06058 0
M  V30 2468 H 234.437 0.198017 0.720277 0
M  V30 2469 H 237.099 1.16126 1.56527 0
M  V30 2470 H 236.195 0.736684 3.03281 0
M  V30 2471 N 236.496 -1.42363 0.676048 0
M  V30 2472 C 237.912 -1.55811 0.345718 0
M  V30 2473 C 238.112 -1.65544 -1.14879 0
M  V30 2474 O 237.168 -1.62306 -1.93424 0
M  V30 2475 C 238.481 -2.80746 1.07713 0
M  V30 2476 C 240.029 -2.9452 1.05958 0
M  V30 2477 C 240.504 -4.22318 1.77233 0
M  V30 2478 N 241.995 -4.29233 1.74108 0
M  V30 2479 C 242.73 -5.26935 2.26113 0
M  V30 2480 N 242.226 -6.30783 2.86505 0
M  V30 2481 N 244.019 -5.18741 2.1648 0
M  V30 2482 H 236.17 -1.34289 1.6456 0
M  V30 2483 H 238.433 -0.646506 0.69335 0
M  V30 2484 H 238.139 -2.79696 2.13221 0
M  V30 2485 H 238.013 -3.71676 0.64316 0
M  V30 2486 H 240.4 -2.95097 0.0128255 0
M  V30 2487 H 240.481 -2.04817 1.53244 0
M  V30 2488 H 240.125 -4.22502 2.81877 0
M  V30 2489 H 240.055 -5.10958 1.27396 0
M  V30 2490 H 242.546 -3.54814 1.30059 0
M  V30 2491 H 242.859 -7.01691 3.23805 0
M  V30 2492 H 241.204 -6.31341 2.90575 0
M  V30 2493 H 244.395 -4.36533 1.68987 0
M  V30 2494 H 244.568 -5.94721 2.57316 0
M  V30 2495 N 237.974 -0.419461 -1.51915 0
M  V30 2496 C 238.907 0.445751 -2.23804 0
M  V30 2497 C 239.885 1.03951 -1.25031 0
M  V30 2498 O 241.069 1.08541 -1.54114 0
M  V30 2499 C 238.196 1.61964 -2.97465 0
M  V30 2500 C 237.242 1.14828 -4.10751 0
M  V30 2501 S 238.075 0.104938 -5.35397 0
M  V30 2502 C 239.231 1.28391 -6.1259 0
M  V30 2503 H 239.464 -0.164627 -2.96844 0
M  V30 2504 H 236.997 -0.203833 -1.53049 0
M  V30 2505 H 238.955 2.29271 -3.40507 0
M  V30 2506 H 237.616 2.20139 -2.24048 0
M  V30 2507 H 236.809 2.02561 -4.61503 0
M  V30 2508 H 236.411 0.553712 -3.69878 0
M  V30 2509 H 238.703 2.20563 -6.40592 0
M  V30 2510 H 239.646 0.816724 -7.03374 0
M  V30 2511 H 240.054 1.51439 -5.43807 0
M  V30 2512 N 239.452 1.56882 -0.150215 0
M  V30 2513 C 240.7 1.9584 0.499105 0
M  V30 2514 C 241.021 1.03623 1.65188 0
M  V30 2515 O 240.291 0.0984084 1.95653 0
M  V30 2516 H 238.871 0.723119 0.187373 0
M  V30 2517 H 241.533 1.9358 -0.226466 0
M  V30 2518 H 240.629 2.99638 0.873122 0
M  V30 2519 N 240.93 -0.123565 1.57115 0
M  V30 2520 C 242.178 -0.83051 1.84247 0
M  V30 2521 C 242.499 -1.80629 0.73471 0
M  V30 2522 O 241.769 -1.94403 -0.241688 0
M  V30 2523 H 240.349 -0.309694 0.679778 0
M  V30 2524 H 243.011 -0.111976 1.94578 0
M  V30 2525 H 242.107 -1.37852 2.80006 0
M  V30 2526 N 242.408 -1.52605 -0.393616 0
M  V30 2527 C 243.356 -1.77688 -1.50099 0
M  V30 2528 C 244.35 -0.644615 -1.56656 0
M  V30 2529 O 245.556 -0.826997 -1.59877 0
M  V30 2530 H 241.931 -0.562159 -0.499481 0
M  V30 2531 H 243.902 -2.7043 -1.26135 0
M  V30 2532 C 242.651 -1.95858 -2.87289 0
M  V30 2533 H 241.974 -2.8241 -2.82992 0
M  V30 2534 H 243.414 -2.174 -3.64024 0
M  V30 2535 C 241.873 -0.729848 -3.28899 0
M  V30 2536 O 242.403 0.0949217 -4.01588 0
M  V30 2537 N 240.609 -0.561283 -2.85128 0
M  V30 2538 H 240.156 -1.23357 -2.26143 0
M  V30 2539 H 240.114 0.2595 -3.13327 0
M  V30 2540 N 243.887 0.651787 -1.4349 0
M  V30 2541 C 245.303 0.96762 -1.26922 0
M  V30 2542 C 245.503 2.00602 -0.189982 0
M  V30 2543 O 244.559 2.48793 0.431107 0
M  V30 2544 C 245.872 1.45052 -2.63401 0
M  V30 2545 C 247.42 1.5671 -2.70945 0
M  V30 2546 C 247.895 2.0839 -4.07845 0
M  V30 2547 N 249.386 2.1569 -4.09917 0
M  V30 2548 C 250.121 2.56804 -5.12679 0
M  V30 2549 N 249.617 2.97203 -6.25813 0
M  V30 2550 N 251.41 2.56756 -5.00033 0
M  V30 2551 H 243.561 -0.0353158 -2.12371 0
M  V30 2552 H 245.824 0.0467858 -0.946845 0
M  V30 2553 H 245.53 0.761926 -3.43348 0
M  V30 2554 H 245.404 2.42529 -2.88894 0
M  V30 2555 H 247.791 2.2467 -1.9133 0
M  V30 2556 H 247.872 0.57662 -2.49216 0
M  V30 2557 H 247.516 1.41031 -4.87927 0
M  V30 2558 H 247.446 3.08271 -4.26938 0
M  V30 2559 H 249.937 1.87237 -3.28254 0
M  V30 2560 H 250.25 3.27328 -7.00055 0
M  V30 2561 H 248.595 2.95004 -6.29283 0
M  V30 2562 H 251.786 2.24572 -4.10713 0
M  V30 2563 H 251.959 2.88475 -5.80247 0
M  V30 2564 N 245.365 1.30045 0.890287 0
M  V30 2565 C 246.611 1.18737 1.64406 0
M  V30 2566 C 246.944 -0.258525 1.92472 0
M  V30 2567 O 246.219 -1.18562 1.54186 0
M  V30 2568 C 246.502 2.01087 2.98724 0
M  V30 2569 C 246.355 3.53867 2.77665 0
M  V30 2570 C 247.674 1.84457 3.9958 0
M  V30 2571 H 244.793 0.432698 0.596608 0
M  V30 2572 H 247.435 1.5962 1.0306 0
M  V30 2573 H 245.585 1.66349 3.51084 0
M  V30 2574 H 247.257 3.98637 2.32133 0
M  V30 2575 H 245.5 3.78318 2.12269 0
M  V30 2576 H 246.171 4.06772 3.7315 0
M  V30 2577 H 248.647 2.14817 3.56361 0
M  V30 2578 H 247.523 2.44411 4.91482 0
M  V30 2579 H 247.784 0.802276 4.3476 0
M  V30 2580 N 246.843 -1.10192 1.12674 0
M  V30 2581 C 248.071 -1.85983 0.906527 0
M  V30 2582 C 248.486 -1.80783 -0.544333 0
M  V30 2583 O 247.843 -1.19834 -1.37645 0
M  V30 2584 C 247.894 -3.34281 1.37618 0
M  V30 2585 O 247.615 -3.39401 2.77017 0
M  V30 2586 C 249.116 -4.26938 1.19325 0
M  V30 2587 H 246.336 -0.587716 0.323775 0
M  V30 2588 H 248.88 -1.39284 1.49734 0
M  V30 2589 H 247.035 -3.78436 0.828539 0
M  V30 2590 H 247.449 -4.31838 2.97684 0
M  V30 2591 H 248.923 -5.29181 1.57071 0
M  V30 2592 H 249.4 -4.38995 0.134097 0
M  V30 2593 H 250.006 -3.8859 1.72852 0
M  V30 2594 N 248.321 -0.919034 -1.28029 0
M  V30 2595 C 249.567 -0.555757 -1.95036 0
M  V30 2596 C 249.9 0.899198 -1.72128 0
M  V30 2597 O 249.175 1.64023 -1.04531 0
M  V30 2598 C 249.458 -0.872024 -3.49382 0
M  V30 2599 C 249.311 -2.3801 -3.81669 0
M  V30 2600 C 250.63 -0.37185 -4.38526 0
M  V30 2601 H 247.749 -0.203386 -0.708381 0
M  V30 2602 H 250.391 -1.14924 -1.51303 0
M  V30 2603 H 248.541 -0.366946 -3.86763 0
M  V30 2604 H 250.213 -2.9562 -3.54128 0
M  V30 2605 H 248.456 -2.83289 -3.28526 0
M  V30 2606 H 249.127 -2.55192 -4.8947 0
M  V30 2607 H 251.603 -0.804602 -4.08247 0
M  V30 2608 H 250.479 -0.622173 -5.45362 0
M  V30 2609 H 250.74 0.727934 -4.36066 0
M  V30 2610 N 249.799 1.42003 -0.683588 0
M  V30 2611 C 250.731 2.29183 0.0283068 0
M  V30 2612 C 251.744 1.4415 0.756611 0
M  V30 2613 O 252.933 1.67779 0.609306 0
M  V30 2614 C 250.033 3.21765 1.06398 0
M  V30 2615 C 249.206 4.35496 0.407723 0
M  V30 2616 C 248.265 5.08737 1.34437 0
M  V30 2617 O 247.291 5.62948 0.841318 0
M  V30 2618 N 248.493 5.15075 2.67728 0
M  V30 2619 H 251.258 2.9092 -0.720105 0
M  V30 2620 H 248.819 1.53025 -0.528682 0
M  V30 2621 H 250.811 3.6763 1.69204 0
M  V30 2622 H 249.381 2.61418 1.71404 0
M  V30 2623 H 248.601 3.92165 -0.400012 0
M  V30 2624 H 249.889 5.08776 -0.0490956 0
M  V30 2625 H 249.287 4.72457 3.11129 0
M  V30 2626 H 247.844 5.64556 3.2576 0
M  V30 2627 N 251.277 0.427512 1.51691 0
M  V30 2628 C 252.225 -0.403359 2.29076 0
M  V30 2629 C 253.219 -1.02962 1.34518 0
M  V30 2630 O 254.425 -0.965715 1.51901 0
M  V30 2631 H 250.8 -0.148879 0.737115 0
M  V30 2632 H 252.771 0.270295 2.97173 0
M  V30 2633 C 251.52 -1.49763 3.13794 0
M  V30 2634 H 250.843 -1.02508 3.86435 0
M  V30 2635 H 252.283 -2.05244 3.71014 0
M  V30 2636 C 250.742 -2.47536 2.28533 0
M  V30 2637 O 251.272 -3.51848 1.93819 0
M  V30 2638 N 249.478 -2.18187 1.91945 0
M  V30 2639 H 249.025 -1.33389 2.20375 0
M  V30 2640 H 248.983 -2.83848 1.35195 0
M  V30 2641 N 252.755 -1.56801 0.158532 0
M  V30 2642 C 253.685 -2.20347 -0.772609 0
M  V30 2643 C 254.666 -1.15518 -1.24859 0
M  V30 2644 O 255.851 -1.43902 -1.30406 0
M  V30 2645 C 252.981 -2.83417 -2.00729 0
M  V30 2646 C 251.935 -3.94174 -1.66765 0
M  V30 2647 C 251.261 -4.44233 -2.97592 0
M  V30 2648 C 252.561 -5.14392 -0.905447 0
M  V30 2649 H 254.255 -2.98413 -0.242959 0
M  V30 2650 H 251.801 -1.43537 -0.115419 0
M  V30 2651 H 253.754 -3.26543 -2.6636 0
M  V30 2652 H 252.478 -2.02701 -2.56086 0
M  V30 2653 H 251.137 -3.51684 -1.03508 0
M  V30 2654 H 250.785 -3.60325 -3.50963 0
M  V30 2655 H 250.485 -5.18945 -2.75626 0
M  V30 2656 H 252.009 -4.90037 -3.64274 0
M  V30 2657 H 253.423 -5.5429 -1.46408 0
M  V30 2658 H 251.82 -5.9494 -0.7853 0
M  V30 2659 H 252.89 -4.84795 0.100668 0
M  V30 2660 N 254.233 0.115231 -1.57178 0
M  V30 2661 C 255.143 1.15994 -2.03918 0
M  V30 2662 C 256.159 1.45103 -0.960268 0
M  V30 2663 O 257.335 1.56144 -1.27204 0
M  V30 2664 C 254.4 2.46568 -2.43732 0
M  V30 2665 C 253.461 2.24822 -3.65723 0
M  V30 2666 C 252.694 3.4917 -4.03629 0
M  V30 2667 O 252.917 4.56623 -3.41835 0
M  V30 2668 O 251.851 3.39949 -4.96708 0
M  V30 2669 H 255.677 0.793019 -2.93164 0
M  V30 2670 H 253.262 0.3263 -1.45793 0
M  V30 2671 H 255.144 3.23492 -2.70057 0
M  V30 2672 H 253.819 2.82726 -1.57631 0
M  V30 2673 H 252.726 1.45744 -3.44542 0
M  V30 2674 H 254.059 1.93566 -4.52541 0
M  V30 2675 N 255.711 1.52812 0.385517 0
M  V30 2676 C 256.96 1.67249 1.12741 0
M  V30 2677 C 257.273 0.4205 1.91027 0
M  V30 2678 O 258.479 0.445064 2.67827 0
M  V30 2679 C 256.935 2.95583 2.05326 0
M  V30 2680 C 256.543 4.27974 1.32447 0
M  V30 2681 C 258.287 3.19386 2.7963 0
M  V30 2682 C 256.194 5.47412 2.23818 0
M  V30 2683 H 255.124 0.6231 0.424573 0
M  V30 2684 H 257.775 1.79309 0.389924 0
M  V30 2685 H 256.157 2.77277 2.82725 0
M  V30 2686 H 257.331 4.56844 0.602495 0
M  V30 2687 H 255.646 4.10459 0.700885 0
M  V30 2688 H 258.243 4.05801 3.48181 0
M  V30 2689 H 258.586 2.34604 3.43899 0
M  V30 2690 H 259.119 3.38274 2.09322 0
M  V30 2691 H 255.858 6.34612 1.64157 0
M  V30 2692 H 255.378 5.22849 2.93921 0
M  V30 2693 H 257.057 5.81423 2.83824 0
M  V30 2694 N 257.189 -0.644168 1.43834 0
M  V30 2695 C 258.435 -1.40603 1.46146 0
M  V30 2696 C 258.768 -1.93997 0.0887717 0
M  V30 2697 O 258.043 -1.72854 -0.891724 0
M  V30 2698 C 258.326 -2.58086 2.51124 0
M  V30 2699 C 258.179 -2.10126 3.97702 0
M  V30 2700 C 259.498 -3.60291 2.52742 0
M  V30 2701 H 256.617 -0.509905 0.532134 0
M  V30 2702 H 259.259 -0.729502 1.75437 0
M  V30 2703 H 257.409 -3.15801 2.26278 0
M  V30 2704 H 259.081 -1.57342 4.33637 0
M  V30 2705 H 257.324 -1.41419 4.10101 0
M  V30 2706 H 257.995 -2.94649 4.66783 0
M  V30 2707 H 260.471 -3.12352 2.7491 0
M  V30 2708 H 259.347 -4.40032 3.28121 0
M  V30 2709 H 259.608 -4.1349 1.56455 0
M  V30 2710 N 258.668 -1.30515 -0.883378 0
M  V30 2711 C 259.6 -1.12846 -1.99496 0
M  V30 2712 C 260.613 -0.0712571 -1.62644 0
M  V30 2713 O 261.802 -0.317432 -1.75655 0
M  V30 2714 C 258.902 -0.699123 -3.3161 0
M  V30 2715 C 258.075 -1.83842 -3.96889 0
M  V30 2716 C 257.134 -1.39737 -5.07307 0
M  V30 2717 O 256.16 -2.10485 -5.28852 0
M  V30 2718 N 257.362 -0.277279 -5.79837 0
M  V30 2719 H 260.127 -2.08585 -2.15203 0
M  V30 2720 H 257.688 -1.22672 -1.05656 0
M  V30 2721 H 259.68 -0.387044 -4.02845 0
M  V30 2722 H 258.25 0.166276 -3.12157 0
M  V30 2723 H 257.47 -2.31853 -3.18807 0
M  V30 2724 H 258.758 -2.60187 -4.37241 0
M  V30 2725 H 258.156 0.3122 -5.64838 0
M  V30 2726 H 256.713 -0.0246623 -6.51795 0
M  V30 2727 N 260.146 1.09593 -1.13257 0
M  V30 2728 C 261.392 1.82003 -0.89458 0
M  V30 2729 C 261.725 1.85402 0.577906 0
M  V30 2730 O 261 1.32099 1.42759 0
M  V30 2731 C 261.283 3.28237 -1.48096 0
M  V30 2732 C 261.136 3.3312 -3.02244 0
M  V30 2733 C 262.455 4.24871 -1.14774 0
M  V30 2734 H 259.574 0.66077 -0.326424 0
M  V30 2735 H 262.216 1.28389 -1.40058 0
M  V30 2736 H 260.366 3.74024 -1.05062 0
M  V30 2737 H 262.038 2.95748 -3.54021 0
M  V30 2738 H 260.281 2.72756 -3.37323 0
M  V30 2739 H 260.952 4.3613 -3.38371 0
M  V30 2740 H 263.428 3.87361 -1.51957 0
M  V30 2741 H 262.304 5.25532 -1.58452 0
M  V30 2742 H 262.565 4.42058 -0.0611849 0
M  V30 2743 N 261.624 0.925811 1.2754 0
M  V30 2744 C 262.873 0.561084 1.93739 0
M  V30 2745 C 263.186 -0.901685 1.73577 0
M  V30 2746 O 264.392 -1.37511 2.34101 0
M  V30 2747 C 262.848 0.952668 3.47062 0
M  V30 2748 C 262.456 2.43599 3.75983 0
M  V30 2749 C 264.2 0.659103 4.19352 0
M  V30 2750 C 262.107 2.76707 5.22673 0
M  V30 2751 H 261.037 0.206122 0.725279 0
M  V30 2752 H 263.688 1.12637 1.44863 0
M  V30 2753 H 262.07 0.316053 3.94737 0
M  V30 2754 H 263.244 3.12035 3.39073 0
M  V30 2755 H 261.559 2.70125 3.16893 0
M  V30 2756 H 264.156 0.882985 5.27359 0
M  V30 2757 H 264.499 -0.403607 4.14339 0
M  V30 2758 H 265.032 1.25473 3.77494 0
M  V30 2759 H 261.771 3.8188 5.32774 0
M  V30 2760 H 261.291 2.12919 5.60737 0
M  V30 2761 H 262.97 2.6435 5.90532 0
M  V30 2762 N 263.102 -1.41638 0.69111 0
M  V30 2763 C 264.513 -1.84346 0.295517 0
M  V30 2764 C 264.864 -1.57833 -1.16547 0
M  V30 2765 O 263.989 -1.04648 -1.89414 0
M  V30 2766 C 264.584 -3.34636 0.529575 0
M  V30 2767 C 263.143 -3.7593 0.187944 0
M  V30 2768 C 262.29 -2.65082 0.814052 0
M  V30 2769 H 265.241 -1.31253 0.892092 0
M  V30 2770 H 265.262 -3.79903 -0.213148 0
M  V30 2771 H 264.774 -3.53901 1.59297 0
M  V30 2772 H 262.875 -3.62268 -0.871367 0
M  V30 2773 H 262.988 -4.74808 0.63985 0
M  V30 2774 H 261.352 -2.53528 0.244017 0
M  V30 2775 H 262.135 -2.87167 1.88123 0
M  V30 2776 N 264.58 -0.43555 -1.51462 0
M  V30 2777 C 265.49 0.383001 -2.31453 0
M  V30 2778 C 266.506 1.02931 -1.4029 0
M  V30 2779 O 267.682 1.02507 -1.73362 0
M  V30 2780 C 264.747 1.47043 -3.13973 0
M  V30 2781 C 263.808 0.844433 -4.20913 0
M  V30 2782 C 263.041 1.88004 -4.9949 0
M  V30 2783 O 263.264 3.10199 -4.78678 0
M  V30 2784 O 262.198 1.47157 -5.83634 0
M  V30 2785 H 266.024 -0.269964 -3.02498 0
M  V30 2786 H 263.609 -0.19813 -1.4808 0
M  V30 2787 H 265.491 2.10113 -3.65281 0
M  V30 2788 H 264.166 2.10751 -2.45695 0
M  V30 2789 H 263.073 0.175729 -3.73687 0
M  V30 2790 H 264.406 0.250869 -4.9156 0
M  V30 2791 N 266.058 1.56714 -0.166846 0
M  V30 2792 C 267.005 2.17746 0.765193 0
M  V30 2793 C 267.975 1.11614 1.23011 0
M  V30 2794 O 269.16 1.39745 1.29908 0
M  V30 2795 C 266.3 2.81882 1.9909 0
M  V30 2796 C 265.413 4.02462 1.56997 0
M  V30 2797 C 264.548 4.54537 2.749 0
M  V30 2798 C 263.587 5.67538 2.29275 0
M  V30 2799 N 262.724 6.14142 3.40255 0
M  V30 2800 H 267.564 2.97048 0.237952 0
M  V30 2801 H 265.101 1.4672 0.105725 0
M  V30 2802 H 267.059 3.17221 2.70974 0
M  V30 2803 H 265.689 2.05191 2.49192 0
M  V30 2804 H 264.741 3.72973 0.748037 0
M  V30 2805 H 266.053 4.84273 1.19503 0
M  V30 2806 H 265.207 4.92035 3.54946 0
M  V30 2807 H 263.946 3.71774 3.1565 0
M  V30 2808 H 262.951 5.29597 1.47674 0
M  V30 2809 H 264.176 6.52099 1.89588 0
M  V30 2810 H 262.122 5.3431 3.8059 0
M  V30 2811 H 262.039 6.9093 3.06841 0
M  V30 2812 H 263.307 6.56289 4.206 0
M  V30 2813 N 267.536 -0.106894 1.57237 0
M  V30 2814 C 268.484 -1.14944 2.02215 0
M  V30 2815 C 269.478 -1.42167 0.92114 0
M  V30 2816 O 270.684 -1.41987 1.10634 0
M  V30 2817 H 267.059 -0.387841 0.64427 0
M  V30 2818 H 269.03 -0.743683 2.88984 0
M  V30 2819 C 267.779 -2.4647 2.4525 0
M  V30 2820 H 267.102 -2.26363 3.29545 0
M  V30 2821 H 268.542 -3.17948 2.80508 0
M  V30 2822 C 267.001 -3.09921 1.321 0
M  V30 2823 O 267.531 -3.9651 0.643622 0
M  V30 2824 N 265.737 -2.69986 1.07497 0
M  V30 2825 H 265.284 -1.99667 1.62761 0
M  V30 2826 H 265.242 -3.12769 0.319876 0
M  V30 2827 N 269.014 -1.53014 -0.377408 0
M  V30 2828 C 270.26 -1.68872 -1.12294 0
M  V30 2829 C 270.593 -0.433224 -1.89306 0
M  V30 2830 O 269.868 0.569258 -1.85983 0
M  V30 2831 C 270.151 -2.93115 -2.09179 0
M  V30 2832 C 270.004 -4.28794 -1.35853 0
M  V30 2833 C 271.323 -3.12928 -3.09458 0
M  V30 2834 H 268.442 -0.614518 -0.406862 0
M  V30 2835 H 271.084 -1.85633 -0.40503 0
M  V30 2836 H 269.234 -2.78956 -2.70399 0
M  V30 2837 H 270.906 -4.54742 -0.775082 0
M  V30 2838 H 269.149 -4.28744 -0.660364 0
M  V30 2839 H 269.82 -5.11837 -2.06706 0
M  V30 2840 H 272.296 -3.26194 -2.58334 0
M  V30 2841 H 271.172 -4.01316 -3.74482 0
M  V30 2842 H 271.433 -2.27669 -3.78971 0
M  V30 2843 N 270.492 0.636531 -1.44174 0
M  V30 2844 C 271.741 1.39213 -1.45954 0
M  V30 2845 C 272.054 1.95374 -0.0939119 0
M  V30 2846 O 273.26 2.71498 0.0107767 0
M  V30 2847 C 271.716 2.52025 -2.56927 0
M  V30 2848 C 271.324 2.024 -3.99673 0
M  V30 2849 C 273.068 3.29269 -2.67922 0
M  V30 2850 C 270.975 3.12521 -5.0208 0
M  V30 2851 H 269.905 0.523132 -0.542999 0
M  V30 2852 H 272.556 0.685349 -1.70221 0
M  V30 2853 H 270.938 3.25253 -2.25891 0
M  V30 2854 H 272.112 1.36073 -4.40251 0
M  V30 2855 H 270.427 1.37987 -3.92872 0
M  V30 2856 H 273.024 4.11352 -3.41605 0
M  V30 2857 H 273.367 3.78397 -1.73555 0
M  V30 2858 H 273.9 2.63129 -2.98342 0
M  V30 2859 H 270.639 2.68343 -5.98057 0
M  V30 2860 H 270.159 3.77507 -4.66099 0
M  V30 2861 H 271.838 3.77385 -5.25538 0
M  V30 2862 N 271.97 1.30982 0.876444 0
M  V30 2863 C 272.9 1.20668 1.99903 0
M  V30 2864 C 273.881 0.095354 1.69833 0
M  V30 2865 O 275.066 0.27885 1.92188 0
M  V30 2866 C 272.196 0.90655 3.3526 0
M  V30 2867 C 271.15 1.97675 3.79617 0
M  V30 2868 C 270.476 1.52943 5.1236 0
M  V30 2869 C 271.776 3.389 3.97422 0
M  V30 2870 H 273.47 2.14586 2.0879 0
M  V30 2871 H 271.016 1.03308 1.00317 0
M  V30 2872 H 272.969 0.821025 4.13324 0
M  V30 2873 H 271.693 -0.0682969 3.26529 0
M  V30 2874 H 270.352 2.05205 3.03787 0
M  V30 2875 H 270 0.54262 5.00065 0
M  V30 2876 H 269.7 2.24532 5.43009 0
M  V30 2877 H 271.224 1.45786 5.92941 0
M  V30 2878 H 272.638 3.34081 4.659 0
M  V30 2879 H 271.035 4.0865 4.3946 0
M  V30 2880 H 272.105 3.80163 3.01006 0
M  V30 2881 N 273.449 -1.08991 1.13837 0
M  V30 2882 C 274.695 -1.81526 0.90422 0
M  V30 2883 C 275.028 -1.85706 -0.568066 0
M  V30 2884 O 274.303 -1.32855 -1.42056 0
M  V30 2885 C 274.586 -3.27447 1.49835 0
M  V30 2886 C 274.439 -3.31512 3.04006 0
M  V30 2887 C 275.758 -4.24256 1.17025 0
M  V30 2888 H 272.877 -0.659029 0.329923 0
M  V30 2889 H 275.519 -1.27644 1.40737 0
M  V30 2890 H 273.669 -3.73462 1.07044 0
M  V30 2891 H 275.341 -2.93867 3.55584 0
M  V30 2892 H 273.584 -2.70963 3.38765 0
M  V30 2893 H 274.255 -4.34329 3.40679 0
M  V30 2894 H 276.731 -3.86549 1.54009 0
M  V30 2895 H 275.607 -5.24684 1.61237 0
M  V30 2896 H 275.868 -4.42019 0.0846274 0
M  V30 2897 N 274.927 -0.932562 -1.27047 0
M  V30 2898 C 275.874 -0.434072 -2.26681 0
M  V30 2899 C 276.844 0.501639 -1.58344 0
M  V30 2900 O 278.029 0.419734 -1.86126 0
M  V30 2901 C 275.169 0.30261 -3.43771 0
M  V30 2902 C 274.282 -0.667774 -4.26808 0
M  V30 2903 C 273.417 0.0892393 -5.31125 0
M  V30 2904 C 272.456 -0.873532 -6.05835 0
M  V30 2905 N 271.593 -0.148832 -7.01942 0
M  V30 2906 H 276.433 -1.28868 -2.68695 0
M  V30 2907 H 273.97 -0.646713 -1.32121 0
M  V30 2908 H 275.928 0.746092 -4.10474 0
M  V30 2909 H 274.558 1.12142 -3.02695 0
M  V30 2910 H 273.61 -1.22978 -3.59973 0
M  V30 2911 H 274.922 -1.40337 -4.78651 0
M  V30 2912 H 274.076 0.592409 -6.03801 0
M  V30 2913 H 272.815 0.85777 -4.80097 0
M  V30 2914 H 271.82 -1.38791 -5.31994 0
M  V30 2915 H 273.045 -1.64193 -6.58952 0
M  V30 2916 H 270.991 0.601365 -6.53238 0
M  V30 2917 H 270.908 -0.82391 -7.51497 0
M  V30 2918 H 272.176 0.333527 -7.78786 0
M  V30 2919 N 276.405 1.4127 -0.698611 0
M  V30 2920 C 277.653 2.00782 -0.230409 0
M  V30 2921 C 277.974 1.5562 1.17505 0
M  V30 2922 O 277.244 0.78815 1.79346 0
M  V30 2923 H 275.824 0.742464 -0.0821944 0
M  V30 2924 H 278.486 1.72852 -0.90045 0
M  V30 2925 H 277.582 3.11095 -0.25021 0
M  V30 2926 N 277.883 0.443576 1.51229 0
M  V30 2927 C 278.831 -0.37904 2.29491 0
M  V30 2928 C 279.825 -1.0153 1.35603 0
M  V30 2929 O 281.031 -0.94955 1.52917 0
M  V30 2930 H 277.406 -0.141053 0.738653 0
M  V30 2931 H 279.377 0.301799 2.9687 0
M  V30 2932 C 278.126 -1.46426 3.15364 0
M  V30 2933 H 277.449 -0.984037 3.87501 0
M  V30 2934 H 278.889 -2.01297 3.7317 0
M  V30 2935 C 277.348 -2.45099 2.31146 0
M  V30 2936 O 277.878 -3.49773 1.9754 0
M  V30 2937 N 276.084 -2.16139 1.94249 0
M  V30 2938 H 275.631 -1.31044 2.21777 0
M  V30 2939 H 275.589 -2.82398 1.38198 0
M  V30 2940 N 279.361 -1.56624 0.175154 0
M  V30 2941 C 280.607 -1.9729 -0.469506 0
M  V30 2942 C 280.94 -1.06128 -1.62636 0
M  V30 2943 O 280.215 -0.109183 -1.94193 0
M  V30 2944 C 280.498 -3.47375 -0.948804 0
M  V30 2945 C 280.351 -4.49317 0.208491 0
M  V30 2946 C 281.67 -4.00652 -1.82116 0
M  V30 2947 H 278.789 -0.717317 -0.16919 0
M  V30 2948 H 281.431 -1.88184 0.262062 0
M  V30 2949 H 279.581 -3.55267 -1.57219 0
M  V30 2950 H 281.253 -4.53482 0.845682 0
M  V30 2951 H 279.496 -4.25121 0.863395 0
M  V30 2952 H 280.167 -5.51741 -0.169059 0
M  V30 2953 H 282.643 -3.95416 -1.2956 0
M  V30 2954 H 281.519 -5.06075 -2.12554 0
M  V30 2955 H 281.78 -3.44699 -2.7683 0
M  V30 2956 N 280.839 0.0985539 -1.57292 0
M  V30 2957 C 282.25 0.653457 -1.74891 0
M  V30 2958 C 282.601 1.7929 -0.796838 0
M  V30 2959 O 281.726 2.16385 0.0254886 0
M  V30 2960 C 282.321 1.19216 -3.17133 0
M  V30 2961 C 280.88 1.69316 -3.36168 0
M  V30 2962 C 280.027 0.601294 -2.70702 0
M  V30 2963 H 282.978 -0.127497 -1.58187 0
M  V30 2964 H 282.999 2.06154 -3.19814 0
M  V30 2965 H 282.511 0.362635 -3.86402 0
M  V30 2966 H 280.612 2.5468 -2.71972 0
M  V30 2967 H 280.725 1.78853 -4.44464 0
M  V30 2968 H 279.089 1.0399 -2.32504 0
M  V30 2969 H 279.872 -0.217592 -3.4261 0
M  V30 2970 N 282.317 1.53212 0.369288 0
M  V30 2971 C 283.565 1.68881 1.11012 0
M  V30 2972 C 283.886 0.441285 1.89941 0
M  V30 2973 O 283.156 -0.544623 1.88177 0
M  V30 2974 H 281.736 0.622569 0.412816 0
M  V30 2975 H 284.398 1.90391 0.416802 0
M  V30 2976 H 283.494 2.54822 1.80201 0
M  V30 2977 N 283.795 -0.628877 1.44509 0
M  V30 2978 C 284.758 -1.72263 1.51188 0
M  V30 2979 C 285.758 -1.55907 0.39367 0
M  V30 2980 O 286.948 -1.61361 0.656377 0
M  V30 2981 C 284.08 -3.11365 1.38798 0
M  V30 2982 H 285.273 -1.67714 2.4862 0
M  V30 2983 H 282.826 -0.842737 1.31634 0
M  V30 2984 H 283.561 -3.21507 0.424693 0
M  V30 2985 H 283.346 -3.24644 2.19884 0
M  V30 2986 H 284.836 -3.91075 1.46458 0
M  V30 2987 N 285.273 -1.31445 -0.869486 0
M  V30 2988 C 286.22 -1.19135 -1.97675 0
M  V30 2989 C 287.19 -0.0770266 -1.65921 0
M  V30 2990 O 288.375 -0.249972 -1.89155 0
M  V30 2991 C 285.515 -0.905149 -3.33018 0
M  V30 2992 C 284.628 -2.10285 -3.77365 0
M  V30 2993 C 283.763 -1.75339 -5.01427 0
M  V30 2994 C 282.802 -2.91515 -5.38224 0
M  V30 2995 N 281.939 -2.56762 -6.53466 0
M  V30 2996 H 286.779 -2.13853 -2.07535 0
M  V30 2997 H 284.316 -1.06379 -1.01597 0
M  V30 2998 H 286.274 -0.719765 -4.10944 0
M  V30 2999 H 284.904 0.00519624 -3.228 0
M  V30 3000 H 283.956 -2.39899 -2.95216 0
M  V30 3001 H 285.268 -2.97237 -4.00564 0
M  V30 3002 H 284.422 -1.53266 -5.87022 0
M  V30 3003 H 283.161 -0.855801 -4.80133 0
M  V30 3004 H 282.166 -3.14237 -4.51149 0
M  V30 3005 H 283.391 -3.81985 -5.61484 0
M  V30 3006 H 281.337 -1.69526 -6.33717 0
M  V30 3007 H 281.254 -3.37243 -6.76612 0
M  V30 3008 H 282.522 -2.38083 -7.42251 0
M  V30 3009 N 286.751 1.08385 -1.14413 0
M  V30 3010 C 287.698 2.15311 -0.831265 0
M  V30 3011 C 288.668 1.64751 0.211292 0
M  V30 3012 O 289.853 1.90627 0.0811674 0
M  V30 3013 C 286.993 3.43658 -0.315143 0
M  V30 3014 C 286.106 4.08064 -1.41802 0
M  V30 3015 C 285.241 5.24207 -0.859126 0
M  V30 3016 C 284.28 5.80554 -1.93967 0
M  V30 3017 N 283.417 6.88042 -1.39793 0
M  V30 3018 H 288.257 2.41415 -1.74708 0
M  V30 3019 H 285.794 1.18474 -0.871909 0
M  V30 3020 H 287.752 4.172 0.00230884 0
M  V30 3021 H 286.382 3.17839 0.56378 0
M  V30 3022 H 285.434 3.3228 -1.85187 0
M  V30 3023 H 286.746 4.45962 -2.23427 0
M  V30 3024 H 285.9 6.04689 -0.49359 0
M  V30 3025 H 284.639 4.87699 -0.011932 0
M  V30 3026 H 283.644 4.98725 -2.31415 0
M  V30 3027 H 284.869 6.19121 -2.79046 0
M  V30 3028 H 282.815 6.53493 -0.572919 0
M  V30 3029 H 282.732 7.24767 -2.15054 0
M  V30 3030 H 284 7.72255 -1.0603 0
M  V30 3031 N 288.23 0.939286 1.26551 0
M  V30 3032 C 289.455 0.602008 1.98471 0
M  V30 3033 C 289.88 -0.815624 1.69497 0
M  V30 3034 O 289.238 -1.54912 0.941905 0
M  V30 3035 C 289.286 0.848407 3.50477 0
M  V30 3036 O 288.39 -0.0804009 4.12322 0
M  V30 3037 H 287.731 0.23049 0.622712 0
M  V30 3038 H 290.261 1.2617 1.61066 0
M  V30 3039 H 290.271 0.768553 4.00696 0
M  V30 3040 H 288.946 1.88171 3.70897 0
M  V30 3041 H 287.523 0.0503508 3.72866 0
M  V30 3042 N 289.708 -1.40897 0.706093 0
M  V30 3043 C 290.638 -2.33418 0.0620085 0
M  V30 3044 C 291.619 -1.52385 -0.755827 0
M  V30 3045 O 292.804 -1.80886 -0.706674 0
M  V30 3046 C 289.934 -3.36293 -0.867445 0
M  V30 3047 C 288.888 -4.27716 -0.155932 0
M  V30 3048 C 288.214 -5.2105 -1.20046 0
M  V30 3049 C 289.514 -5.12944 0.984149 0
M  V30 3050 H 291.208 -2.87527 0.83477 0
M  V30 3051 H 288.754 -1.38249 0.402875 0
M  V30 3052 H 290.707 -3.99949 -1.32735 0
M  V30 3053 H 289.431 -2.80556 -1.67199 0
M  V30 3054 H 288.09 -3.65498 0.284047 0
M  V30 3055 H 287.738 -4.61624 -1.99781 0
M  V30 3056 H 287.438 -5.83056 -0.729328 0
M  V30 3057 H 288.962 -5.87584 -1.66066 0
M  V30 3058 H 290.376 -5.70109 0.604048 0
M  V30 3059 H 288.773 -5.83945 1.38304 0
M  V30 3060 H 289.843 -4.49485 1.81911 0
M  V30 3061 N 291.186 -0.45159 -1.50991 0
M  V30 3062 C 292.435 0.111653 -2.01391 0
M  V30 3063 C 292.748 1.42529 -1.33959 0
M  V30 3064 O 293.954 2.07232 -1.75405 0
M  V30 3065 C 292.41 0.249514 -3.59034 0
M  V30 3066 C 292.018 -1.05453 -4.35412 0
M  V30 3067 C 293.762 0.765762 -4.17536 0
M  V30 3068 C 291.669 -0.881529 -5.84793 0
M  V30 3069 H 290.599 0.0455022 -0.752626 0
M  V30 3070 H 293.25 -0.583524 -1.73975 0
M  V30 3071 H 291.632 1.00803 -3.82955 0
M  V30 3072 H 292.806 -1.82248 -4.23229 0
M  V30 3073 H 291.121 -1.50039 -3.88429 0
M  V30 3074 H 293.718 0.911913 -5.26866 0
M  V30 3075 H 294.061 1.75201 -3.77638 0
M  V30 3076 H 294.594 0.0651744 -3.97747 0
M  V30 3077 H 291.333 -1.84057 -6.29129 0
M  V30 3078 H 290.853 -0.153625 -5.99603 0
M  V30 3079 H 292.532 -0.540363 -6.4474 0
M  V30 3080 N 292.664 1.56529 -0.183458 0
M  V30 3081 C 293.892 2.01623 0.464285 0
M  V30 3082 C 294.307 1.06366 1.55986 0
M  V30 3083 O 293.664 0.0665398 1.82379 0
M  V30 3084 C 293.715 3.46475 1.03139 0
M  V30 3085 O 293.436 4.38095 -0.0204675 0
M  V30 3086 C 294.937 4.0703 1.75617 0
M  V30 3087 H 292.157 0.660596 0.117704 0
M  V30 3088 H 294.701 2.02451 -0.288751 0
M  V30 3089 H 292.856 3.46383 1.73486 0
M  V30 3090 H 293.27 5.22973 0.399952 0
M  V30 3091 H 294.744 5.10271 2.10542 0
M  V30 3092 H 295.221 3.49819 2.65563 0
M  V30 3093 H 295.827 4.1086 1.09882 0
M  V30 3094 N 294.142 -0.090211 1.57342 0
M  V30 3095 C 295.391 -0.791531 1.8552 0
M  V30 3096 C 295.704 -1.79659 0.773441 0
M  V30 3097 O 296.91 -2.54616 0.942497 0
M  V30 3098 C 295.366 -1.45856 3.2902 0
M  V30 3099 C 294.974 -0.493017 4.45279 0
M  V30 3100 C 296.718 -2.14332 3.66418 0
M  V30 3101 C 294.625 -1.16491 5.79814 0
M  V30 3102 H 293.555 -0.299356 0.692027 0
M  V30 3103 H 296.206 -0.0445343 1.83446 0
M  V30 3104 H 294.588 -2.25318 3.2565 0
M  V30 3105 H 295.762 0.270464 4.60006 0
M  V30 3106 H 294.077 0.0863061 4.16311 0
M  V30 3107 H 296.674 -2.65344 4.64216 0
M  V30 3108 H 297.017 -2.93447 2.95287 0
M  V30 3109 H 297.55 -1.41724 3.71698 0
M  V30 3110 H 294.289 -0.41447 6.54188 0
M  V30 3111 H 293.809 -1.8997 5.68921 0
M  V30 3112 H 295.488 -1.69001 6.24538 0
M  V30 3113 N 295.62 -1.53406 -0.361157 0
M  V30 3114 C 296.567 -1.80156 -1.44265 0
M  V30 3115 C 297.537 -0.646183 -1.53015 0
M  V30 3116 O 298.722 -0.888818 -1.68833 0
M  V30 3117 C 295.862 -2.00116 -2.81154 0
M  V30 3118 C 294.975 -3.27833 -2.81335 0
M  V30 3119 C 294.11 -3.37957 -4.09828 0
M  V30 3120 C 293.149 -4.59689 -4.04168 0
M  V30 3121 N 292.286 -4.66942 -5.24318 0
M  V30 3122 H 297.126 -2.72438 -1.20754 0
M  V30 3123 H 294.663 -1.34954 -0.585296 0
M  V30 3124 H 296.621 -2.09677 -3.60682 0
M  V30 3125 H 295.251 -1.11167 -3.03054 0
M  V30 3126 H 294.303 -3.27204 -1.94014 0
M  V30 3127 H 295.615 -4.17442 -2.73027 0
M  V30 3128 H 294.769 -3.46853 -4.97773 0
M  V30 3129 H 293.508 -2.46372 -4.20894 0
M  V30 3130 H 292.513 -4.50889 -3.14609 0
M  V30 3131 H 293.738 -5.5262 -3.947 0
M  V30 3132 H 291.684 -3.7826 -5.35962 0
M  V30 3133 H 291.601 -5.50462 -5.18197 0
M  V30 3134 H 292.869 -4.80127 -6.14084 0
M  V30 3135 N 297.098 0.621204 -1.44841 0
M  V30 3136 C 298.323 1.41244 -1.51871 0
M  V30 3137 C 298.748 1.87519 -0.147764 0
M  V30 3138 O 298.106 1.59334 0.865 0
M  V30 3139 C 298.154 2.60221 -2.49634 0
M  V30 3140 O 297.258 3.60395 -2.00473 0
M  V30 3141 H 296.599 0.42223 -0.512463 0
M  V30 3142 H 299.129 0.757305 -1.90069 0
M  V30 3143 H 299.139 3.0764 -2.67996 0
M  V30 3144 H 297.814 2.25887 -3.4921 0
M  V30 3145 H 296.391 3.19717 -1.91925 0
M  V30 3146 N 298.576 1.31904 0.862503 0
M  V30 3147 C 299.539 1.20131 1.95195 0
M  V30 3148 C 300.539 0.126409 1.60302 0
M  V30 3149 O 301.729 0.376234 1.70089 0
M  V30 3150 C 298.861 0.845691 3.30244 0
M  V30 3151 H 300.054 2.16943 2.07064 0
M  V30 3152 H 297.607 1.15622 1.05172 0
M  V30 3153 H 298.342 -0.120957 3.24074 0
M  V30 3154 H 298.127 1.62276 3.56944 0
M  V30 3155 H 299.617 0.787418 4.10109 0
M  V30 3156 N 300.054 -1.07777 1.14986 0
M  V30 3157 C 301.3 -1.80557 0.923422 0
M  V30 3158 C 301.633 -1.86298 -0.548337 0
M  V30 3159 O 300.908 -1.34354 -1.40639 0
M  V30 3160 C 301.191 -3.25839 1.53299 0
M  V30 3161 C 301.044 -3.28269 3.07505 0
M  V30 3162 C 302.363 -4.22991 1.21518 0
M  V30 3163 H 299.482 -0.655493 0.336894 0
M  V30 3164 H 302.124 -1.26144 1.42083 0
M  V30 3165 H 300.274 -3.72306 1.10999 0
M  V30 3166 H 301.946 -2.90079 3.58681 0
M  V30 3167 H 300.189 -2.67355 3.4162 0
M  V30 3168 H 300.86 -4.30691 3.45266 0
M  V30 3169 H 303.336 -3.84894 1.581 0
M  V30 3170 H 302.212 -5.22945 1.66793 0
M  V30 3171 H 302.473 -4.41904 0.131505 0
M  V30 3172 N 301.532 -0.945985 -1.26051 0
M  V30 3173 C 302.479 -0.45809 -2.26208 0
M  V30 3174 C 303.449 0.484816 -1.58867 0
M  V30 3175 O 304.634 0.399969 -1.86561 0
M  V30 3176 C 301.774 0.266131 -3.44072 0
M  V30 3177 C 300.887 -0.713005 -4.26075 0
M  V30 3178 C 300.022 0.0329013 -5.3119 0
M  V30 3179 C 299.061 -0.93774 -6.04874 0
M  V30 3180 N 298.198 -0.223274 -7.01745 0
M  V30 3181 H 303.038 -1.3171 -2.67313 0
M  V30 3182 H 300.575 -0.66069 -1.31428 0
M  V30 3183 H 302.533 0.702514 -4.11243 0
M  V30 3184 H 301.163 1.08925 -3.03867 0
M  V30 3185 H 300.215 -1.26789 -3.58648 0
M  V30 3186 H 301.527 -1.45406 -4.77136 0
M  V30 3187 H 300.681 0.528335 -6.04395 0
M  V30 3188 H 299.42 0.806801 -4.8098 0
M  V30 3189 H 298.425 -1.44425 -5.30492 0
M  V30 3190 H 299.65 -1.71172 -6.57173 0
M  V30 3191 H 297.596 0.532046 -6.53839 0
M  V30 3192 H 297.513 -0.90357 -7.50581 0
M  V30 3193 H 298.781 0.250907 -7.79096 0
M  V30 3194 N 303.011 1.40521 -0.713556 0
M  V30 3195 C 303.974 2.29098 -0.0684347 0
M  V30 3196 C 304.974 1.45268 0.689472 0
M  V30 3197 O 306.164 1.66205 0.521677 0
M  V30 3198 C 303.296 3.28446 0.913024 0
M  V30 3199 H 304.489 2.87645 -0.84855 0
M  V30 3200 H 302.042 1.48809 -0.47809 0
M  V30 3201 H 302.777 2.74913 1.72027 0
M  V30 3202 H 302.562 3.90327 0.372472 0
M  V30 3203 H 304.052 3.94777 1.36165 0
M  V30 3204 N 304.489 0.459591 1.5075 0
M  V30 3205 C 305.452 -0.329093 2.26825 0
M  V30 3206 C 306.452 -0.930481 1.31144 0
M  V30 3207 O 307.642 -0.801453 1.54669 0
M  V30 3208 C 304.774 -1.46768 3.07688 0
M  V30 3209 H 305.967 0.337924 2.9799 0
M  V30 3210 H 303.52 0.213336 1.54837 0
M  V30 3211 H 304.255 -2.17009 2.40993 0
M  V30 3212 H 304.04 -1.04238 3.77991 0
M  V30 3213 H 305.53 -2.02433 3.65254 0
M  V30 3214 N 305.967 -1.56429 0.191757 0
M  V30 3215 C 306.914 -2.18936 -0.730454 0
M  V30 3216 C 307.884 -1.13557 -1.21219 0
M  V30 3217 O 309.069 -1.41794 -1.27668 0
M  V30 3218 C 306.209 -2.85013 -1.9458 0
M  V30 3219 C 305.322 -4.04909 -1.50574 0
M  V30 3220 C 304.457 -4.58853 -2.67634 0
M  V30 3221 C 303.496 -5.71114 -2.20217 0
M  V30 3222 N 302.633 -6.19478 -3.30442 0
M  V30 3223 H 307.473 -2.97389 -0.190664 0
M  V30 3224 H 305.01 -1.46869 -0.0823694 0
M  V30 3225 H 306.968 -3.21492 -2.65893 0
M  V30 3226 H 305.598 -2.09129 -2.45896 0
M  V30 3227 H 304.65 -3.74115 -0.688605 0
M  V30 3228 H 305.962 -4.86113 -1.11784 0
M  V30 3229 H 305.116 -4.97619 -3.47074 0
M  V30 3230 H 303.855 -3.76749 -3.09696 0
M  V30 3231 H 302.86 -5.31879 -1.3923 0
M  V30 3232 H 304.085 -6.55033 -1.79189 0
M  V30 3233 H 302.031 -5.40297 -3.72041 0
M  V30 3234 H 301.948 -6.95725 -2.9581 0
M  V30 3235 H 303.216 -6.62898 -4.10106 0
M  V30 3236 O 307.484 -0.0545306 -1.61408 0
M  V30 3237 H 308.175 0.554314 -1.85599 0
M  V30 END ATOM
M  V30 BEGIN BOND
M  V30 END BOND
M  V30 END CTAB
M  END
$$$$
