drugbank_target|Q9A5I5 Response regulator PleD (DB01972)
 OpenBabel12092119513D

  0  0  0     0  0            999 V3000
M  V30 BEGIN CTAB
M  V30 COUNTS 7038 7081 0 0 0
M  V30 BEGIN ATOM
M  V30 1 H -0.908 1.98254 -0.117106 0
M  V30 2 N 0 1.576 0 0
M  V30 3 C 0.933 2.03868 1.02534 0
M  V30 4 C 1.911 0.928543 1.3348 0
M  V30 5 O 3.095 1.19667 1.45644 0
M  V30 6 C 0.222 2.43627 2.35294 0
M  V30 7 C -0.732 3.65373 2.2001 0
M  V30 8 S 0.101 5.13292 1.52614 0
M  V30 9 C 1.257 5.56322 2.86805 0
M  V30 10 H 1.49 2.90518 0.631377 0
M  V30 11 H -0.977 1.52953 0.210867 0
M  V30 12 H 0.981 2.67203 3.11629 0
M  V30 13 H -0.358 1.57376 2.7183 0
M  V30 14 H -1.165 3.90944 3.18086 0
M  V30 15 H -1.563 3.418 1.51819 0
M  V30 16 H 0.729 5.58782 3.83104 0
M  V30 17 H 1.672 6.56266 2.65933 0
M  V30 18 H 2.08 4.83886 2.90714 0
M  V30 19 N 1.4781 -0.272755 1.55222 0
M  V30 20 C 2.7031 -1.02683 1.80197 0
M  V30 21 C 3.1281 -1.79142 0.573551 0
M  V30 22 O 2.4861 -1.74917 -0.476849 0
M  V30 23 C 2.5341 -1.9609 3.02624 0
M  V30 24 O 1.6381 -3.04863 2.77727 0
M  V30 25 H 0.9791 -0.293557 0.595584 0
M  V30 26 H 3.5091 -0.30159 2.02365 0
M  V30 27 H 3.5191 -2.38039 3.31363 0
M  V30 28 H 2.1941 -1.39851 3.91682 0
M  V30 29 H 0.7711 -2.67228 2.60084 0
M  V30 30 N 2.9562 -1.48159 -0.537278 0
M  V30 31 C 3.9192 -1.61665 -1.62472 0
M  V30 32 C 4.9192 -0.490395 -1.5314 0
M  V30 33 O 6.1092 -0.755998 -1.5694 0
M  V30 34 C 3.2412 -1.57997 -3.02076 0
M  V30 35 H 4.4342 -2.58621 -1.51839 0
M  V30 36 H 1.9872 -1.36647 -0.758771 0
M  V30 37 H 2.7222 -0.624913 -3.18222 0
M  V30 38 H 2.5072 -2.39755 -3.10258 0
M  V30 39 H 3.9972 -1.70627 -3.81151 0
M  V30 40 N 4.4343 0.785586 -1.36625 0
M  V30 41 C 5.8503 1.08419 -1.17122 0
M  V30 42 C 6.0503 2.015 0.00208491 0
M  V30 43 O 5.1063 2.43551 0.666278 0
M  V30 44 C 6.4193 1.69498 -2.48377 0
M  V30 45 C 7.9673 1.81821 -2.54775 0
M  V30 46 C 8.4423 2.46315 -3.86126 0
M  V30 47 N 9.9333 2.53779 -3.87492 0
M  V30 48 C 10.6683 3.045 -4.85868 0
M  V30 49 N 10.1643 3.55499 -5.94637 0
M  V30 50 N 11.9573 3.03247 -4.73284 0
M  V30 51 H 4.1083 0.167264 -2.1174 0
M  V30 52 H 6.3713 0.13682 -0.938075 0
M  V30 53 H 6.0773 1.08571 -3.34522 0
M  V30 54 H 5.9513 2.6896 -2.64462 0
M  V30 55 H 8.3383 2.41884 -1.69045 0
M  V30 56 H 8.4193 0.811532 -2.42586 0
M  V30 57 H 8.0633 1.86895 -4.72263 0
M  V30 58 H 7.9933 3.47561 -3.95612 0
M  V30 59 H 10.4843 2.17672 -3.08913 0
M  V30 60 H 10.7973 3.92562 -6.65669 0
M  V30 61 H 9.1423 3.5364 -5.98301 0
M  V30 62 H 12.3333 2.62696 -3.87438 0
M  V30 63 H 12.5063 3.42467 -5.50109 0
M  V30 64 N 5.9124 1.20967 1.01018 0
M  V30 65 C 7.1614 1.01796 1.74128 0
M  V30 66 C 7.4744 -0.449691 1.90361 0
M  V30 67 O 8.6804 -0.76068 2.60626 0
M  V30 68 C 7.1364 1.7727 3.13215 0
M  V30 69 C 6.7444 3.28171 3.04972 0
M  V30 70 C 8.4884 1.66489 3.90489 0
M  V30 71 C 6.3954 3.96156 4.39107 0
M  V30 72 H 5.3254 0.377276 0.652824 0
M  V30 73 H 7.9764 1.44651 1.12909 0
M  V30 74 H 6.3584 1.27205 3.75013 0
M  V30 75 H 7.5324 3.85499 2.52443 0
M  V30 76 H 5.8474 3.39437 2.41188 0
M  V30 77 H 8.4444 2.14617 4.89738 0
M  V30 78 H 8.7874 0.6222 4.11624 0
M  V30 79 H 9.3204 2.14003 3.35332 0
M  V30 80 H 6.0594 5.00604 4.23174 0
M  V30 81 H 5.5794 3.43617 4.91617 0
M  V30 82 H 7.2584 4.00774 5.07926 0
M  V30 83 N 7.3905 -1.2043 1.01659 0
M  V30 84 C 8.3205 -2.25466 0.607226 0
M  V30 85 C 9.3015 -1.65853 -0.377716 0
M  V30 86 O 10.4865 -1.92409 -0.263149 0
M  V30 87 C 7.6165 -3.47256 -0.0552949 0
M  V30 88 C 6.5705 -4.19462 0.850632 0
M  V30 89 C 5.8965 -5.34673 0.0538859 0
M  V30 90 C 7.1965 -4.75603 2.15868 0
M  V30 91 H 8.8905 -2.59962 1.48526 0
M  V30 92 H 6.4365 -1.2496 0.715605 0
M  V30 93 H 8.3895 -4.19917 -0.353233 0
M  V30 94 H 7.1135 -3.11924 -0.968045 0
M  V30 95 H 5.7725 -3.48667 1.13257 0
M  V30 96 H 5.4205 -4.95585 -0.860514 0
M  V30 97 H 5.1205 -5.83913 0.657192 0
M  V30 98 H 6.6445 -6.10138 -0.237598 0
M  V30 99 H 8.0585 -5.40083 1.92311 0
M  V30 100 H 6.4555 -5.3528 2.71284 0
M  V30 101 H 7.5255 -3.94346 2.82169 0
M  V30 102 N 8.8686 -0.792821 -1.36206 0
M  V30 103 C 10.1146 -0.36733 -1.99446 0
M  V30 104 C 10.4476 1.05917 -1.62774 0
M  V30 105 O 9.7226 1.7324 -0.88421 0
M  V30 106 C 10.0056 -0.535044 -3.56103 0
M  V30 107 C 9.8586 -2.00548 -4.02617 0
M  V30 108 C 11.1776 0.0478191 -4.40074 0
M  V30 109 H 8.2966 -0.134941 -0.724541 0
M  V30 110 H 10.9386 -0.999794 -1.61568 0
M  V30 111 H 9.0886 0.00336329 -3.885 0
M  V30 112 H 10.7606 -2.60521 -3.80692 0
M  V30 113 H 9.0036 -2.50686 -3.54032 0
M  V30 114 H 9.6746 -2.07377 -5.11565 0
M  V30 115 H 12.1506 -0.411822 -4.14057 0
M  V30 116 H 11.0266 -0.0995336 -5.4881 0
M  V30 117 H 11.2876 1.14025 -4.27142 0
M  V30 118 N 10.3467 1.47872 -0.545128 0
M  V30 119 C 11.5927 2.02793 -0.0166104 0
M  V30 120 C 11.9257 1.41987 1.32489 0
M  V30 121 O 11.2007 0.571045 1.85928 0
M  V30 122 C 11.4837 3.59989 0.0893294 0
M  V30 123 C 11.3367 4.3125 -1.27841 0
M  V30 124 C 12.6557 4.32606 0.808724 0
M  V30 125 H 9.7747 0.736962 -0.00751035 0
M  V30 126 H 12.4167 1.76433 -0.705085 0
M  V30 127 H 10.5667 3.82579 0.675681 0
M  V30 128 H 12.2387 4.20035 -1.90704 0
M  V30 129 H 10.4817 3.92076 -1.85632 0
M  V30 130 H 11.1527 5.39736 -1.15713 0
M  V30 131 H 13.6287 4.14936 0.310992 0
M  V30 132 H 12.5047 5.42251 0.851782 0
M  V30 133 H 12.7657 4.00963 1.86229 0
M  V30 134 N 11.8248 0.280983 1.55075 0
M  V30 135 C 13.1018 -0.386207 1.91749 0
M  V30 136 C 13.4818 -1.73264 1.20594 0
M  V30 137 O 12.8298 -2.26034 0.334784 0
M  V30 138 C 13.0398 -0.520687 3.45094 0
M  V30 139 C 14.3878 -0.800865 4.16979 0
M  V30 140 O 15.4118 -0.605271 3.5102 0
M  V30 141 O 14.2708 -1.1753 5.33712 0
M  V30 142 H 11.3648 -0.212408 0.799257 0
M  V30 143 H 13.9108 0.327568 1.66509 0
M  V30 144 H 12.6828 0.426633 3.88967 0
M  V30 145 H 12.3058 -1.2837 3.76307 0
M  V30 146 N 13.3029 -1.57598 0.00835791 0
M  V30 147 C 14.5799 -1.82172 -0.712235 0
M  V30 148 C 14.9599 -0.887873 -1.9152 0
M  V30 149 O 14.3079 0.06146 -2.28417 0
M  V30 150 C 14.5179 -3.30875 -1.11008 0
M  V30 151 C 15.8659 -3.96826 -1.51044 0
M  V30 152 O 16.8899 -3.35248 -1.20364 0
M  V30 153 O 15.7489 -5.05318 -2.08125 0
M  V30 154 H 12.8429 -0.750435 -0.347529 0
M  V30 155 H 15.3889 -1.69665 0.0344523 0
M  V30 156 H 14.1609 -3.90481 -0.252982 0
M  V30 157 H 13.7839 -3.48412 -1.9156 0
M  V30 158 N 14.781 0.264519 -1.55364 0
M  V30 159 C 16.03 0.992812 -1.75574 0
M  V30 160 C 16.343 1.87142 -0.568979 0
M  V30 161 O 17.549 2.63513 -0.653682 0
M  V30 162 C 16.005 1.81519 -3.10771 0
M  V30 163 C 15.613 0.984839 -4.37041 0
M  V30 164 C 17.357 2.53727 -3.40327 0
M  V30 165 C 15.264 1.80209 -5.63275 0
M  V30 166 H 14.194 0.374412 -0.65447 0
M  V30 167 H 16.845 0.248138 -1.81815 0
M  V30 168 H 15.227 2.60115 -2.98591 0
M  V30 169 H 16.401 0.242455 -4.60162 0
M  V30 170 H 14.716 0.37691 -4.14691 0
M  V30 171 H 17.313 3.15292 -4.3185 0
M  V30 172 H 17.656 3.24447 -2.60845 0
M  V30 173 H 18.189 1.82156 -3.53644 0
M  V30 174 H 14.928 1.13896 -6.45529 0
M  V30 175 H 14.448 2.52022 -5.44284 0
M  V30 176 H 16.127 2.37364 -6.01887 0
M  V30 177 N 16.2591 1.48442 0.529413 0
M  V30 178 C 17.1691 1.6569 1.66084 0
M  V30 179 C 18.1851 0.539432 1.65427 0
M  V30 180 O 19.3611 0.810572 1.84368 0
M  V30 181 C 16.4261 1.69315 3.02545 0
M  V30 182 C 15.4871 2.92694 3.14052 0
M  V30 183 C 14.7201 2.96137 4.44003 0
M  V30 184 O 14.9431 2.07973 5.31134 0
M  V30 185 O 13.8771 3.88312 4.59888 0
M  V30 186 H 17.7031 2.61483 1.54469 0
M  V30 187 H 15.2881 1.3185 0.702567 0
M  V30 188 H 17.1701 1.74217 3.83701 0
M  V30 189 H 15.8451 0.766966 3.14483 0
M  V30 190 H 14.7521 2.93324 2.32189 0
M  V30 191 H 16.0851 3.84699 3.0703 0
M  V30 192 N 17.7372 -0.778329 1.37039 0
M  V30 193 C 18.7002 -1.87301 1.32102 0
M  V30 194 C 19.7002 -1.59198 0.226405 0
M  V30 195 O 20.8902 -1.67403 0.481861 0
M  V30 196 C 18.0222 -3.24309 1.05055 0
M  V30 197 H 19.2152 -1.93093 2.29467 0
M  V30 198 H 16.7682 -0.977358 1.21973 0
M  V30 199 H 17.5032 -3.24196 0.0819373 0
M  V30 200 H 17.2882 -3.46098 1.84279 0
M  V30 201 H 18.7782 -4.04382 1.04234 0
M  V30 202 N 19.2153 -1.21501 -1.00376 0
M  V30 203 C 20.1633 -0.972442 -2.11297 0
M  V30 204 C 21.1573 0.080731 -1.69208 0
M  V30 205 O 22.3633 -0.0707666 -1.79861 0
M  V30 206 H 18.7383 -0.297218 -0.690772 0
M  V30 207 H 20.7093 -1.91394 -2.28934 0
M  V30 208 C 19.4583 -0.555065 -3.43241 0
M  V30 209 H 18.7813 -1.35709 -3.76062 0
M  V30 210 H 20.2213 -0.424664 -4.21868 0
M  V30 211 C 18.6803 0.734147 -3.28804 0
M  V30 212 O 19.2103 1.78937 -3.59645 0
M  V30 213 N 17.4163 0.701133 -2.82015 0
M  V30 214 H 16.9633 -0.157874 -2.57116 0
M  V30 215 H 16.9213 1.56403 -2.72737 0
M  V30 216 N 20.6934 1.19889 -1.02296 0
M  V30 217 C 21.9394 1.89701 -0.717033 0
M  V30 218 C 22.2724 1.7905 0.751989 0
M  V30 219 O 21.5474 1.17891 1.547 0
M  V30 220 C 21.8304 3.40858 -1.16136 0
M  V30 221 C 21.6834 3.60411 -2.69117 0
M  V30 222 C 23.0024 4.33876 -0.737549 0
M  V30 223 H 20.1214 0.688874 -0.261957 0
M  V30 224 H 22.7634 1.41154 -1.27183 0
M  V30 225 H 20.9134 3.82335 -0.689342 0
M  V30 226 H 22.5854 3.28145 -3.2422 0
M  V30 227 H 20.8284 3.03665 -3.0979 0
M  V30 228 H 21.4994 4.66396 -2.95261 0
M  V30 229 H 23.9754 4.00081 -1.14344 0
M  V30 230 H 22.8514 5.38242 -1.0764 0
M  V30 231 H 23.1124 4.40628 0.360436 0
M  V30 232 N 22.1715 0.800033 1.35784 0
M  V30 233 C 23.5875 0.482977 1.52117 0
M  V30 234 C 23.7875 -0.996948 1.75109 0
M  V30 235 O 22.8435 -1.78216 1.78872 0
M  V30 236 C 24.1565 1.32264 2.70049 0
M  V30 237 C 25.7045 1.31742 2.83924 0
M  V30 238 C 26.1795 2.14106 4.04874 0
M  V30 239 N 27.6705 2.11607 4.12039 0
M  V30 240 C 28.4055 2.72099 5.04727 0
M  V30 241 N 27.9015 3.41492 6.02789 0
M  V30 242 N 29.6945 2.61776 4.97423 0
M  V30 243 H 21.8455 1.75856 1.19115 0
M  V30 244 H 24.1085 0.748122 0.582252 0
M  V30 245 H 23.8145 2.37261 2.59616 0
M  V30 246 H 23.6885 0.971303 3.6448 0
M  V30 247 H 26.0755 0.275333 2.93813 0
M  V30 248 H 26.1565 1.70859 1.9037 0
M  V30 249 H 25.8005 3.18351 3.95746 0
M  V30 250 H 25.7305 1.72353 4.97596 0
M  V30 251 H 28.2215 1.61112 3.41835 0
M  V30 252 H 28.5345 3.84953 6.70098 0
M  V30 253 H 26.8795 3.45596 6.02983 0
M  V30 254 H 30.0705 2.07157 4.19766 0
M  V30 255 H 30.2435 3.0921 5.69468 0
M  V30 256 N 23.6496 -1.47581 0.552962 0
M  V30 257 C 24.5796 -2.32762 -0.185451 0
M  V30 258 C 25.5606 -1.43527 -0.912905 0
M  V30 259 O 26.7456 -1.72388 -0.894201 0
M  V30 260 C 23.8756 -3.25219 -1.21859 0
M  V30 261 C 22.8296 -4.23661 -0.607864 0
M  V30 262 C 22.1556 -5.05413 -1.74533 0
M  V30 263 C 23.4556 -5.20481 0.435582 0
M  V30 264 H 25.1496 -2.94749 0.525684 0
M  V30 265 H 22.6956 -1.41738 0.254251 0
M  V30 266 H 24.6486 -3.8365 -1.7433 0
M  V30 267 H 23.3726 -2.61279 -1.95961 0
M  V30 268 H 22.0316 -3.66451 -0.104489 0
M  V30 269 H 21.6796 -4.3788 -2.47529 0
M  V30 270 H 21.3796 -5.72059 -1.34249 0
M  V30 271 H 22.9036 -5.66701 -2.27338 0
M  V30 272 H 24.3176 -5.733 -0.00290157 0
M  V30 273 H 22.7146 -5.95305 0.757067 0
M  V30 274 H 23.7846 -4.66217 1.33303 0
M  V30 275 N 25.1277 -0.289203 -1.54924 0
M  V30 276 C 26.0577 0.58549 -2.2604 0
M  V30 277 C 27.0387 1.14753 -1.25562 0
M  V30 278 O 28.2237 1.17906 -1.54311 0
M  V30 279 C 25.3537 1.76305 -2.99222 0
M  V30 280 C 24.3077 1.33191 -4.06748 0
M  V30 281 C 23.6337 2.5937 -4.6758 0
M  V30 282 C 24.9337 0.471775 -5.20165 0
M  V30 283 H 26.6277 -0.00763532 -2.99399 0
M  V30 284 H 24.1737 -0.00511229 -1.43999 0
M  V30 285 H 26.1267 2.38097 -3.47689 0
M  V30 286 H 24.8507 2.38223 -2.23422 0
M  V30 287 H 23.5097 0.737121 -3.59113 0
M  V30 288 H 23.1577 3.19576 -3.88433 0
M  V30 289 H 22.8577 2.31228 -5.40192 0
M  V30 290 H 24.3817 3.21985 -5.18804 0
M  V30 291 H 25.7957 0.995056 -5.64599 0
M  V30 292 H 24.1927 0.284639 -5.99425 0
M  V30 293 H 25.2627 -0.506041 -4.82252 0
M  V30 294 N 26.6058 1.57591 -0.0167156 0
M  V30 295 C 27.5158 2.1291 0.98521 0
M  V30 296 C 28.5318 1.07834 1.36557 0
M  V30 297 O 29.7078 1.39826 1.44951 0
M  V30 298 C 26.7728 2.63512 2.25305 0
M  V30 299 C 25.8338 3.83256 1.93426 0
M  V30 300 C 25.0668 4.31435 3.14165 0
M  V30 301 O 25.2898 3.78851 4.26413 0
M  V30 302 O 24.2238 5.23416 2.97186 0
M  V30 303 H 28.0498 2.98772 0.544888 0
M  V30 304 H 25.6348 1.48012 0.203141 0
M  V30 305 H 27.5168 2.96183 2.99756 0
M  V30 306 H 26.1918 1.8074 2.68542 0
M  V30 307 H 25.0988 3.55531 1.16398 0
M  V30 308 H 26.4318 4.67153 1.55013 0
M  V30 309 N 28.0839 -0.256276 1.55502 0
M  V30 310 C 29.0469 -1.30047 1.88734 0
M  V30 311 C 30.0469 -1.4154 0.763086 0
M  V30 312 O 31.2369 -1.40403 1.03115 0
M  V30 313 C 28.3689 -2.67953 2.10747 0
M  V30 314 H 29.5619 -1.01802 2.82093 0
M  V30 315 H 27.1149 -0.495134 1.4825 0
M  V30 316 H 27.8499 -3.01351 1.19825 0
M  V30 317 H 27.6349 -2.60993 2.92617 0
M  V30 318 H 29.1249 -3.43368 2.37673 0
M  V30 319 N 29.562 -1.4872 -0.521534 0
M  V30 320 C 30.509 -1.63871 -1.62527 0
M  V30 321 C 31.479 -0.480559 -1.58996 0
M  V30 322 O 32.664 -0.705085 -1.77294 0
M  V30 323 C 29.804 -1.69227 -3.00759 0
M  V30 324 C 28.917 -2.96207 -3.14461 0
M  V30 325 C 28.052 -2.92671 -4.43303 0
M  V30 326 C 27.091 -4.14318 -4.50563 0
M  V30 327 N 26.228 -4.0881 -5.70805 0
M  V30 328 H 31.068 -2.58123 -1.48918 0
M  V30 329 H 28.605 -1.28 -0.724878 0
M  V30 330 H 30.563 -1.70314 -3.80853 0
M  V30 331 H 29.193 -0.784586 -3.1312 0
M  V30 332 H 28.245 -3.04826 -2.27564 0
M  V30 333 H 29.557 -3.86192 -3.15686 0
M  V30 334 H 28.711 -2.92206 -5.31696 0
M  V30 335 H 27.45 -2.00429 -4.44612 0
M  V30 336 H 26.455 -4.15049 -3.60575 0
M  V30 337 H 27.68 -5.07729 -4.50986 0
M  V30 338 H 25.626 -3.19394 -5.72995 0
M  V30 339 H 25.543 -4.92509 -5.7356 0
M  V30 340 H 26.811 -4.12418 -6.61462 0
M  V30 341 N 31.0401 0.771051 -1.3745 0
M  V30 342 C 31.9701 1.89827 -1.3597 0
M  V30 343 C 32.9511 1.68562 -0.228216 0
M  V30 344 O 34.1361 1.8941 -0.428675 0
M  V30 345 C 31.2661 3.2712 -1.16662 0
M  V30 346 C 30.2201 3.6295 -2.2683 0
M  V30 347 C 29.5461 4.98791 -1.92644 0
M  V30 348 C 30.8461 3.69627 -3.69017 0
M  V30 349 H 32.5401 1.91323 -2.30295 0
M  V30 350 H 30.0861 0.919082 -1.10855 0
M  V30 351 H 32.0391 4.05615 -1.14256 0
M  V30 352 H 30.7631 3.26059 -0.187926 0
M  V30 353 H 29.4221 2.86763 -2.28392 0
M  V30 354 H 29.0701 4.94271 -0.933021 0
M  V30 355 H 28.7701 5.23733 -2.66416 0
M  V30 356 H 30.2941 5.79685 -1.91826 0
M  V30 357 H 31.7081 4.38273 -3.69581 0
M  V30 358 H 30.1051 4.06067 -4.41848 0
M  V30 359 H 31.1751 2.70273 -4.02592 0
M  V30 360 N 32.5182 1.22032 0.997298 0
M  V30 361 C 33.7462 1.06841 1.7718 0
M  V30 362 C 34.1612 -0.381325 1.84909 0
M  V30 363 O 33.5182 -1.26437 1.31605 0
M  V30 364 C 33.5692 1.66814 3.20711 0
M  V30 365 O 33.2902 3.06116 3.13408 0
M  V30 366 C 34.7912 1.56838 4.14628 0
M  V30 367 H 32.0112 0.374782 0.556578 0
M  V30 368 H 34.5552 1.61532 1.2541 0
M  V30 369 H 32.7102 1.16196 3.69564 0
M  V30 370 H 33.1242 3.34926 4.0364 0
M  V30 371 H 34.5982 2.03532 5.13107 0
M  V30 372 H 35.0752 0.524155 4.36061 0
M  V30 373 H 35.6812 2.06741 3.7167 0
M  V30 374 N 33.9963 -1.19345 1.0293 0
M  V30 375 C 34.9593 -2.20793 0.615069 0
M  V30 376 C 35.9593 -1.57553 -0.321533 0
M  V30 377 O 37.1493 -1.73862 -0.108483 0
M  V30 378 C 34.2813 -3.40754 -0.0999222 0
M  V30 379 H 35.4743 -2.58955 1.51269 0
M  V30 380 H 33.0273 -1.3303 0.820534 0
M  V30 381 H 33.7623 -3.0811 -1.01187 0
M  V30 382 H 33.5473 -3.87889 0.57309 0
M  V30 383 H 35.0373 -4.15898 -0.376645 0
M  V30 384 N 35.4744 -0.807222 -1.35358 0
M  V30 385 C 36.3844 -0.219594 -2.3357 0
M  V30 386 C 37.4004 0.637734 -1.61892 0
M  V30 387 O 38.5764 0.549336 -1.93763 0
M  V30 388 C 35.6414 0.62158 -3.41083 0
M  V30 389 C 34.7024 -0.256315 -4.28534 0
M  V30 390 C 33.9354 0.544807 -5.30912 0
M  V30 391 O 34.1584 1.77944 -5.41934 0
M  V30 392 O 33.0924 -0.0646478 -6.01865 0
M  V30 393 H 36.9184 -1.03208 -2.85625 0
M  V30 394 H 34.5034 -0.569025 -1.38139 0
M  V30 395 H 36.3854 1.10067 -4.06772 0
M  V30 396 H 35.0604 1.41165 -2.91297 0
M  V30 397 H 33.9674 -0.782559 -3.65823 0
M  V30 398 H 35.3004 -1.01034 -4.81719 0
M  V30 399 N 36.9525 1.47285 -0.560781 0
M  V30 400 C 38.1825 2.06555 -0.0429638 0
M  V30 401 C 38.5905 1.41339 1.25777 0
M  V30 402 O 37.9335 0.505182 1.76617 0
M  V30 403 C 37.9955 3.58827 0.219887 0
M  V30 404 C 37.6595 4.46105 -0.991944 0
M  V30 405 C 38.6565 4.84 -1.89843 0
M  V30 406 C 36.3415 4.87567 -1.20762 0
M  V30 407 C 38.3355 5.6216 -3.00425 0
M  V30 408 C 36.0225 5.65491 -2.31653 0
M  V30 409 C 37.0205 6.02699 -3.21315 0
M  V30 410 O 36.7085 6.79052 -4.30283 0
M  V30 411 H 36.4405 0.674537 -0.0444468 0
M  V30 412 H 38.9945 1.90225 -0.774818 0
M  V30 413 H 37.2245 3.73383 1.00609 0
M  V30 414 H 38.9135 4.00103 0.683522 0
M  V30 415 H 39.6795 4.52564 -1.74387 0
M  V30 416 H 35.5585 4.5807 -0.518893 0
M  V30 417 H 39.1025 5.9112 -3.70436 0
M  V30 418 H 34.9995 5.9634 -2.47081 0
M  V30 419 H 35.7675 6.9745 -4.28376 0
M  V30 420 N 38.4306 0.297415 1.54768 0
M  V30 421 C 39.6606 -0.315165 2.04182 0
M  V30 422 C 40.0686 -1.4834 1.17439 0
M  V30 423 O 39.4116 -1.82695 0.191891 0
M  V30 424 C 39.4736 -0.837583 3.49607 0
M  V30 425 C 39.1376 0.204912 4.5654 0
M  V30 426 C 40.1346 1.03214 5.09552 0
M  V30 427 C 37.8196 0.345578 5.0111 0
M  V30 428 C 39.8136 1.986 6.05671 0
M  V30 429 C 37.5006 1.30289 5.97049 0
M  V30 430 C 38.4986 2.12159 6.49213 0
M  V30 431 O 38.1866 3.06268 7.43273 0
M  V30 432 H 37.9186 -0.0729646 0.672051 0
M  V30 433 H 40.4726 0.433907 2.00765 0
M  V30 434 H 38.7026 -1.63712 3.50336 0
M  V30 435 H 40.3916 -1.36566 3.82236 0
M  V30 436 H 41.1576 0.934312 4.75916 0
M  V30 437 H 37.0366 -0.28171 4.60138 0
M  V30 438 H 40.5806 2.62542 6.46311 0
M  V30 439 H 36.4776 1.40145 6.30103 0
M  V30 440 H 37.2456 3.01205 7.61064 0
M  V30 441 N 39.9087 -1.5758 0.0250728 0
M  V30 442 C 40.8187 -2.1343 -0.973905 0
M  V30 443 C 41.8347 -1.08556 -1.35984 0
M  V30 444 O 43.0107 -1.40592 -1.44207 0
M  V30 445 C 40.0757 -2.64703 -2.23904 0
M  V30 446 C 39.1367 -3.84276 -1.91391 0
M  V30 447 C 38.3697 -4.33095 -3.11873 0
M  V30 448 O 38.5927 -3.81107 -4.24398 0
M  V30 449 O 37.5267 -5.24984 -2.94406 0
M  V30 450 H 41.3527 -2.99057 -0.529036 0
M  V30 451 H 38.9377 -1.48118 -0.195288 0
M  V30 452 H 40.8197 -2.97769 -2.98181 0
M  V30 453 H 39.4947 -1.82161 -2.6758 0
M  V30 454 H 38.4017 -3.56143 -1.14511 0
M  V30 455 H 39.7347 -4.67968 -1.52534 0
M  V30 456 N 41.3868 0.248026 -1.55636 0
M  V30 457 C 42.6328 0.97767 -1.77678 0
M  V30 458 C 42.9658 1.85016 -0.590135 0
M  V30 459 O 42.2408 1.90095 0.411611 0
M  V30 460 C 42.5238 1.83914 -3.09593 0
M  V30 461 C 42.3768 0.99491 -4.38659 0
M  V30 462 C 43.6958 2.82183 -3.37729 0
M  V30 463 H 40.8148 0.354005 -0.646413 0
M  V30 464 H 43.4568 0.248253 -1.88371 0
M  V30 465 H 41.6068 2.46104 -3.00608 0
M  V30 466 H 43.2788 0.391789 -4.59633 0
M  V30 467 H 41.5218 0.299231 -4.32767 0
M  V30 468 H 42.1928 1.63145 -5.2734 0
M  V30 469 H 44.6688 2.30129 -3.4667 0
M  V30 470 H 43.5448 3.39582 -4.31249 0
M  V30 471 H 43.8058 3.58588 -2.58586 0
M  V30 472 N 42.8649 1.48995 0.513639 0
M  V30 473 C 44.0899 1.61792 1.29762 0
M  V30 474 C 44.5149 0.284475 1.85936 0
M  V30 475 O 43.8729 -0.746185 1.65232 0
M  V30 476 C 43.9209 2.67993 2.41272 0
M  V30 477 O 43.0249 2.26287 3.44772 0
M  V30 478 H 42.3659 0.541963 0.38363 0
M  V30 479 H 44.8959 1.95097 0.616307 0
M  V30 480 H 44.9059 2.89772 2.87221 0
M  V30 481 H 43.5809 3.64791 1.9975 0
M  V30 482 H 42.1579 2.14788 3.04829 0
M  V30 483 N 44.343 -0.763751 1.37857 0
M  V30 484 C 45.571 -1.55293 1.36718 0
M  V30 485 C 45.986 -1.88745 -0.0455434 0
M  V30 486 O 45.343 -1.52039 -1.00947 0
M  V30 487 C 45.394 -2.85831 2.2132 0
M  V30 488 O 45.115 -2.5381 3.57089 0
M  V30 489 C 46.616 -3.80023 2.28249 0
M  V30 490 H 43.836 -0.480841 0.468009 0
M  V30 491 H 46.38 -0.946009 1.81303 0
M  V30 492 H 44.535 -3.42926 1.80223 0
M  V30 493 H 44.949 -3.37459 4.01524 0
M  V30 494 H 46.423 -4.68599 2.91752 0
M  V30 495 H 46.9 -4.1973 1.2932 0
M  V30 496 H 47.506 -3.28855 2.69693 0
M  V30 497 N 45.8211 -1.22559 -0.990812 0
M  V30 498 C 46.7841 -0.998863 -2.0629 0
M  V30 499 C 47.7841 0.0354834 -1.60761 0
M  V30 500 O 48.9741 -0.203231 -1.7301 0
M  V30 501 C 46.1061 -0.509203 -3.37076 0
M  V30 502 H 47.2991 -1.95014 -2.27837 0
M  V30 503 H 44.8521 -1.04456 -1.16269 0
M  V30 504 H 45.5871 0.446335 -3.21214 0
M  V30 505 H 45.3721 -1.25547 -3.71457 0
M  V30 506 H 46.8621 -0.370888 -4.1595 0
M  V30 507 N 47.2992 1.18797 -1.03562 0
M  V30 508 C 48.2322 2.2105 -0.56676 0
M  V30 509 C 49.2102 1.57704 0.395993 0
M  V30 510 O 50.3942 1.85908 0.311498 0
M  V30 511 C 47.5212 3.38259 0.172704 0
M  V30 512 C 46.5672 4.19987 -0.74252 0
M  V30 513 S 47.4002 4.87199 -2.22254 0
M  V30 514 C 48.5562 6.07813 -1.49379 0
M  V30 515 H 48.7892 2.60478 -1.43312 0
M  V30 516 H 46.3222 1.29151 -0.846133 0
M  V30 517 H 48.2802 4.06191 0.593191 0
M  V30 518 H 46.9412 2.97252 1.01488 0
M  V30 519 H 46.1342 5.03709 -0.171265 0
M  V30 520 H 45.7362 3.57408 -1.10163 0
M  V30 521 H 48.0282 6.72948 -0.784056 0
M  V30 522 H 48.9712 6.69435 -2.30786 0
M  V30 523 H 49.3792 5.55781 -0.988331 0
M  V30 524 N 48.7773 0.814389 1.34928 0
M  V30 525 C 50.0543 0.321363 1.92942 0
M  V30 526 C 50.4343 -1.19014 1.74353 0
M  V30 527 O 49.7823 -1.99328 1.11716 0
M  V30 528 C 49.9923 0.741323 3.41036 0
M  V30 529 C 51.3403 0.735266 4.18185 0
M  V30 530 O 52.3643 0.68336 3.49584 0
M  V30 531 O 51.2233 0.800703 5.40602 0
M  V30 532 H 48.3173 0.0858893 0.822528 0
M  V30 533 H 50.8633 0.898609 1.43955 0
M  V30 534 H 49.6353 1.78276 3.4833 0
M  V30 535 H 49.2583 0.139307 3.97356 0
M  V30 536 N 50.2554 -1.46986 0.568584 0
M  V30 537 C 51.5034 -2.02041 0.0487022 0
M  V30 538 C 51.8244 -1.44408 -1.31039 0
M  V30 539 O 51.0944 -0.623477 -1.85714 0
M  V30 540 H 49.6744 -0.746849 0.015014 0
M  V30 541 H 52.3364 -1.80257 0.741168 0
M  V30 542 H 51.4324 -3.12085 -0.0308961 0
M  V30 543 N 51.7335 -0.305618 -1.54608 0
M  V30 544 C 53.1445 0.186098 -1.8577 0
M  V30 545 C 53.4955 1.53058 -1.22751 0
M  V30 546 O 52.6205 2.09888 -0.526893 0
M  V30 547 C 53.2155 0.344449 -3.37044 0
M  V30 548 C 51.7745 0.780384 -3.68221 0
M  V30 549 C 50.9215 -0.108554 -2.77087 0
M  V30 550 H 53.8725 -0.526485 -1.49712 0
M  V30 551 H 53.8935 1.17828 -3.61796 0
M  V30 552 H 53.4055 -0.634235 -3.82883 0
M  V30 553 H 51.5065 1.76945 -3.27904 0
M  V30 554 H 51.6195 0.596572 -4.75371 0
M  V30 555 H 49.9835 0.412931 -2.5133 0
M  V30 556 H 50.7665 -1.08368 -3.25747 0
M  V30 557 N 53.2116 1.57565 -0.0334293 0
M  V30 558 C 54.4396 1.9628 0.654347 0
M  V30 559 C 54.8546 0.910138 1.65414 0
M  V30 560 O 54.2116 -0.107595 1.82183 0
M  V30 561 C 54.2626 3.35067 1.35693 0
M  V30 562 O 53.9836 4.36296 0.397191 0
M  V30 563 C 55.4846 3.88439 2.13613 0
M  V30 564 H 52.7046 0.646369 0.180132 0
M  V30 565 H 55.2486 2.04282 -0.0944721 0
M  V30 566 H 53.4036 3.2827 2.05712 0
M  V30 567 H 53.8176 5.1678 0.896597 0
M  V30 568 H 55.2916 4.8788 2.58219 0
M  V30 569 H 55.7686 3.22914 2.97696 0
M  V30 570 H 56.3746 3.98516 1.48543 0
M  V30 571 N 54.6897 -0.239769 1.55765 0
M  V30 572 C 55.6527 -1.28038 1.90103 0
M  V30 573 C 56.6527 -1.40723 0.778055 0
M  V30 574 O 57.8427 -1.39301 1.04599 0
M  V30 575 C 54.9747 -2.65702 2.13577 0
M  V30 576 H 56.1677 -0.988048 2.83157 0
M  V30 577 H 53.7207 -0.479382 1.48767 0
M  V30 578 H 54.4557 -3.00063 1.23015 0
M  V30 579 H 54.2407 -2.57875 2.95369 0
M  V30 580 H 55.7307 -3.40828 2.41301 0
M  V30 581 N 56.1678 -1.49265 -0.50573 0
M  V30 582 C 57.0978 -1.68495 -1.61653 0
M  V30 583 C 58.0788 -0.53366 -1.61512 0
M  V30 584 O 59.2638 -0.76897 -1.78327 0
M  V30 585 C 56.3938 -1.74709 -3.00157 0
M  V30 586 C 55.3478 -2.89581 -3.15162 0
M  V30 587 C 54.6738 -2.80903 -4.5497 0
M  V30 588 C 55.9738 -4.30578 -2.95634 0
M  V30 589 H 57.6678 -2.61493 -1.45814 0
M  V30 590 H 55.2138 -1.25838 -0.70005 0
M  V30 591 H 57.1668 -1.86748 -3.77761 0
M  V30 592 H 55.8908 -0.783067 -3.17074 0
M  V30 593 H 54.5498 -2.77136 -2.39982 0
M  V30 594 H 54.1978 -1.82419 -4.68756 0
M  V30 595 H 53.8978 -3.57999 -4.65951 0
M  V30 596 H 55.4218 -2.94944 -5.34641 0
M  V30 597 H 56.8358 -4.4373 -3.63011 0
M  V30 598 H 55.2328 -5.0886 -3.18091 0
M  V30 599 H 56.3028 -4.45352 -1.91806 0
M  V30 600 N 57.6459 0.756429 -1.3826 0
M  V30 601 C 58.6089 1.85176 -1.35065 0
M  V30 602 C 59.6089 1.58818 -0.251703 0
M  V30 603 O 60.7989 1.66615 -0.508433 0
M  V30 604 C 57.9309 3.22596 -1.10201 0
M  V30 605 H 59.1239 1.89417 -2.3251 0
M  V30 606 H 56.6769 0.95783 -1.23512 0
M  V30 607 H 57.4119 3.24025 -0.133504 0
M  V30 608 H 57.1969 3.43122 -1.89762 0
M  V30 609 H 58.6869 4.02673 -1.10654 0
M  V30 610 N 59.124 1.23083 0.984299 0
M  V30 611 C 60.057 0.951786 2.07404 0
M  V30 612 C 61.035 -0.10848 1.62238 0
M  V30 613 O 62.219 0.0249467 1.88483 0
M  V30 614 C 59.346 0.433142 3.35919 0
M  V30 615 C 58.392 1.47941 4.0002 0
M  V30 616 S 59.225 3.05556 4.39768 0
M  V30 617 C 60.381 2.55351 5.71442 0
M  V30 618 H 60.614 1.87456 2.30754 0
M  V30 619 H 58.147 1.06284 1.11996 0
M  V30 620 H 60.105 0.140506 4.10259 0
M  V30 621 H 58.766 -0.468656 3.10584 0
M  V30 622 H 57.959 1.06658 4.92585 0
M  V30 623 H 57.561 1.7212 3.3204 0
M  V30 624 H 59.853 1.97128 6.48187 0
M  V30 625 H 60.796 3.46441 6.17563 0
M  V30 626 H 61.204 1.96339 5.29255 0
M  V30 627 N 60.6021 -1.18246 1.0419 0
M  V30 628 C 61.5651 -2.20128 0.638452 0
M  V30 629 C 62.5651 -1.57885 -0.304805 0
M  V30 630 O 63.7551 -1.73967 -0.0900369 0
M  V30 631 C 60.8871 -3.4084 -0.0637751 0
M  V30 632 H 62.0801 -2.57336 1.54007 0
M  V30 633 H 59.6331 -1.32152 0.834598 0
M  V30 634 H 60.3681 -3.09166 -0.979136 0
M  V30 635 H 60.1531 -3.8726 0.614198 0
M  V30 636 H 61.6431 -4.16274 -0.332512 0
M  V30 637 N 62.0802 -0.821533 -1.34494 0
M  V30 638 C 63.0432 -0.247847 -2.27856 0
M  V30 639 C 64.0432 0.573453 -1.50227 0
M  V30 640 O 65.2332 0.389759 -1.69784 0
M  V30 641 C 62.3652 0.652698 -3.34593 0
M  V30 642 H 63.5582 -1.07146 -2.80107 0
M  V30 643 H 61.1112 -0.593291 -1.44602 0
M  V30 644 H 61.8462 1.49943 -2.87555 0
M  V30 645 H 61.6312 0.065292 -3.92046 0
M  V30 646 H 63.1212 1.04793 -4.04238 0
M  V30 647 N 63.5583 1.46682 -0.576371 0
M  V30 648 C 64.9743 1.57822 -0.237562 0
M  V30 649 C 65.1743 1.57237 1.26011 0
M  V30 650 O 64.2303 1.48596 2.04146 0
M  V30 651 C 65.5433 2.87499 -0.881168 0
M  V30 652 C 67.0913 3.01119 -0.85417 0
M  V30 653 C 67.5663 4.33524 -1.4772 0
M  V30 654 N 69.0573 4.40207 -1.44125 0
M  V30 655 C 69.7923 5.4126 -1.89276 0
M  V30 656 N 69.2883 6.49021 -2.42371 0
M  V30 657 N 71.0813 5.32422 -1.80231 0
M  V30 658 H 63.2323 1.45306 -1.54919 0
M  V30 659 H 65.4953 0.692733 -0.647167 0
M  V30 660 H 65.2013 2.9372 -1.93447 0
M  V30 661 H 65.0753 3.75224 -0.385592 0
M  V30 662 H 67.4623 2.94485 0.190491 0
M  V30 663 H 67.5433 2.14887 -1.3877 0
M  V30 664 H 67.1873 4.40916 -2.52103 0
M  V30 665 H 67.1173 5.1852 -0.918947 0
M  V30 666 H 69.6083 3.62931 -1.05307 0
M  V30 667 H 69.9213 7.2233 -2.74698 0
M  V30 668 H 68.2663 6.49858 -2.46393 0
M  V30 669 H 71.4573 4.47137 -1.38514 0
M  V30 670 H 71.6303 6.11034 -2.15735 0
M  V30 671 N 65.0364 0.313813 1.54444 0
M  V30 672 C 66.3134 -0.345447 1.92525 0
M  V30 673 C 66.6934 -1.70667 1.24242 0
M  V30 674 O 66.0414 -2.25273 0.382654 0
M  V30 675 C 66.2514 -0.44737 3.46121 0
M  V30 676 C 67.5994 -0.712238 4.18584 0
M  V30 677 O 68.6234 -0.530678 3.52225 0
M  V30 678 O 67.4824 -1.06183 5.36085 0
M  V30 679 H 64.5764 -0.195407 0.803583 0
M  V30 680 H 67.1224 0.362813 1.65776 0
M  V30 681 H 65.8944 0.509043 3.87975 0
M  V30 682 H 65.5174 -1.20359 3.78945 0
M  V30 683 N 66.5145 -1.57545 0.0417849 0
M  V30 684 C 67.4445 -2.14009 -0.933929 0
M  V30 685 C 68.4255 -1.05938 -1.33083 0
M  V30 686 O 69.6105 -1.33833 -1.40721 0
M  V30 687 C 66.7405 -2.67747 -2.21199 0
M  V30 688 C 65.6945 -3.80718 -1.95544 0
M  V30 689 C 65.0205 -4.20935 -3.29724 0
M  V30 690 C 66.3205 -5.06258 -1.28452 0
M  V30 691 H 68.0145 -2.95788 -0.463645 0
M  V30 692 H 65.5605 -1.42285 -0.221573 0
M  V30 693 H 67.5135 -3.05886 -2.89848 0
M  V30 694 H 66.2375 -1.83147 -2.70416 0
M  V30 695 H 64.8965 -3.43037 -1.2931 0
M  V30 696 H 64.5445 -3.33298 -3.76724 0
M  V30 697 H 64.2445 -4.9707 -3.13361 0
M  V30 698 H 65.7685 -4.61666 -3.9962 0
M  V30 699 H 67.1825 -5.41903 -1.8712 0
M  V30 700 H 65.5795 -5.87475 -1.22445 0
M  V30 701 H 66.6495 -4.84207 -0.259219 0
M  V30 702 N 67.9926 0.231505 -1.5589 0
M  V30 703 C 69.4036 0.799327 -1.68724 0
M  V30 704 C 69.7546 1.85398 -0.642022 0
M  V30 705 O 68.8796 2.1539 0.208784 0
M  V30 706 C 69.4746 1.45664 -3.05888 0
M  V30 707 C 68.0336 1.97197 -3.20609 0
M  V30 708 C 67.1806 0.828552 -2.64632 0
M  V30 709 H 70.1316 0.00702616 -1.58698 0
M  V30 710 H 70.1526 2.32517 -3.01191 0
M  V30 711 H 69.6646 0.688808 -3.81939 0
M  V30 712 H 67.7656 2.76813 -2.4941 0
M  V30 713 H 67.8786 2.15878 -4.27707 0
M  V30 714 H 66.2426 1.23321 -2.22854 0
M  V30 715 H 67.0256 0.0735544 -3.43221 0
M  V30 716 N 69.4707 1.49531 0.497807 0
M  V30 717 C 70.7477 1.49682 1.25915 0
M  V30 718 C 71.1277 0.226339 2.09883 0
M  V30 719 O 70.4757 -0.791189 2.14365 0
M  V30 720 C 70.6857 2.77755 2.11313 0
M  V30 721 C 72.0337 3.27371 2.70395 0
M  V30 722 O 73.0577 2.78894 2.21578 0
M  V30 723 O 71.9167 4.11808 3.59272 0
M  V30 724 H 69.0107 0.599228 0.56996 0
M  V30 725 H 71.5567 1.61798 0.511816 0
M  V30 726 H 70.3287 3.61713 1.49264 0
M  V30 727 H 69.9517 2.68515 2.93233 0
M  V30 728 N 70.9488 -0.749086 1.3866 0
M  V30 729 C 72.1978 -1.50371 1.3443 0
M  V30 730 C 72.5108 -1.95503 -0.0616397 0
M  V30 731 O 73.7168 -2.70554 -0.226489 0
M  V30 732 C 72.1728 -2.71644 2.36088 0
M  V30 733 C 71.7808 -2.3352 3.82325 0
M  V30 734 C 73.5248 -3.49518 2.40909 0
M  V30 735 C 71.4318 -3.51431 4.75658 0
M  V30 736 H 70.3618 -0.564628 0.499712 0
M  V30 737 H 73.0128 -0.818449 1.64237 0
M  V30 738 H 71.3948 -3.42175 1.9933 0
M  V30 739 H 72.5688 -1.70627 4.28046 0
M  V30 740 H 70.8838 -1.6877 3.80665 0
M  V30 741 H 73.4808 -4.37197 3.07836 0
M  V30 742 H 73.8238 -3.90992 1.42937 0
M  V30 743 H 74.3568 -2.86005 2.76489 0
M  V30 744 H 71.0958 -3.15019 5.74842 0
M  V30 745 H 70.6158 -4.13352 4.34627 0
M  V30 746 H 72.2948 -4.17953 4.93887 0
M  V30 747 N 72.4269 -1.23603 -0.977757 0
M  V30 748 C 73.6759 -1.06377 -1.71368 0
M  V30 749 C 73.9889 0.399062 -1.91486 0
M  V30 750 O 75.1949 0.691312 -2.62551 0
M  V30 751 C 73.6509 -1.85512 -3.08404 0
M  V30 752 C 73.2589 -3.36141 -2.96164 0
M  V30 753 C 75.0029 -1.76783 -3.85938 0
M  V30 754 C 72.9099 -4.07659 -4.28449 0
M  V30 755 H 71.8399 -0.394452 -0.642591 0
M  V30 756 H 74.4909 -1.47594 -1.09034 0
M  V30 757 H 72.8729 -1.37103 -3.71509 0
M  V30 758 H 74.0469 -3.92056 -2.42133 0
M  V30 759 H 72.3619 -3.45712 -2.32104 0
M  V30 760 H 74.9589 -2.27526 -4.83876 0
M  V30 761 H 75.3019 -0.731116 -4.0983 0
M  V30 762 H 75.8349 -2.22818 -3.2954 0
M  V30 763 H 72.5739 -5.11648 -4.09752 0
M  V30 764 H 72.0939 -3.5653 -4.82334 0
M  V30 765 H 73.7729 -4.141 -4.97122 0
M  V30 766 N 73.905 1.17692 -1.04816 0
M  V30 767 C 74.835 2.23777 -0.666791 0
M  V30 768 C 75.816 1.66796 0.33361 0
M  V30 769 O 77.001 1.93039 0.212042 0
M  V30 770 C 74.131 3.47281 -0.0367933 0
M  V30 771 C 73.085 4.17059 -0.961546 0
M  V30 772 C 72.411 5.34342 -0.195626 0
M  V30 773 C 73.711 4.69713 -2.28402 0
M  V30 774 H 75.405 2.55933 -1.55367 0
M  V30 775 H 72.951 1.23019 -0.748484 0
M  V30 776 H 74.904 4.20706 0.241775 0
M  V30 777 H 73.628 3.14381 0.885004 0
M  V30 778 H 72.287 3.45541 -1.22462 0
M  V30 779 H 71.935 4.97692 0.728816 0
M  V30 780 H 71.635 5.81966 -0.811775 0
M  V30 781 H 73.159 6.10553 0.0757473 0
M  V30 782 H 74.573 5.34794 -2.06563 0
M  V30 783 H 72.97 5.279 -2.8538 0
M  V30 784 H 74.04 3.86726 -2.92525 0
M  V30 785 N 75.3831 0.828654 1.34056 0
M  V30 786 C 76.3131 0.269443 2.3194 0
M  V30 787 C 77.2941 -0.617247 1.58506 0
M  V30 788 O 78.4791 -0.542931 1.86456 0
M  V30 789 C 75.6091 -0.564793 3.42677 0
M  V30 790 C 74.5631 0.225241 4.27407 0
M  V30 791 C 73.8891 -0.7321 5.29664 0
M  V30 792 C 75.1891 1.43663 5.02154 0
M  V30 793 H 76.8831 1.08728 2.7896 0
M  V30 794 H 74.4291 0.524283 1.34117 0
M  V30 795 H 76.3821 -0.966233 4.10173 0
M  V30 796 H 75.1061 -1.41574 2.9432 0
M  V30 797 H 73.7651 0.608117 3.61521 0
M  V30 798 H 73.4131 -1.57916 4.77568 0
M  V30 799 H 73.1131 -0.20767 5.87233 0
M  V30 800 H 74.6371 -1.13128 6.00029 0
M  V30 801 H 76.0511 1.1089 5.62473 0
M  V30 802 H 74.4481 1.89711 5.69324 0
M  V30 803 H 75.5181 2.21181 4.31517 0
M  V30 804 N 76.8612 -1.46375 0.584142 0
M  V30 805 C 78.1382 -1.956 0.0033388 0
M  V30 806 C 78.5182 -1.52679 -1.45782 0
M  V30 807 O 77.8662 -0.77816 -2.14842 0
M  V30 808 C 78.0762 -3.48551 0.176891 0
M  V30 809 C 79.4242 -4.24576 0.0454609 0
M  V30 810 O 80.4482 -3.56043 0.105801 0
M  V30 811 O 79.3072 -5.46427 -0.0890376 0
M  V30 812 H 76.4012 -0.825547 -0.0490066 0
M  V30 813 H 78.9472 -1.56652 0.65256 0
M  V30 814 H 77.7192 -3.72683 1.1926 0
M  V30 815 H 77.3422 -3.94332 -0.508695 0
M  V30 816 N 78.3393 -0.321999 -1.54275 0
M  V30 817 C 79.5853 0.281461 -2.00837 0
M  V30 818 C 79.9183 1.51909 -1.20985 0
M  V30 819 O 79.1933 1.923 -0.291733 0
M  V30 820 C 79.4763 0.617162 -3.54772 0
M  V30 821 C 79.3293 -0.631064 -4.45351 0
M  V30 822 C 80.6483 1.43542 -4.16033 0
M  V30 823 H 77.7673 0.100826 -0.730071 0
M  V30 824 H 80.4093 -0.438268 -1.84876 0
M  V30 825 H 78.5593 1.23034 -3.68504 0
M  V30 826 H 80.2313 -1.26934 -4.43492 0
M  V30 827 H 78.4743 -1.26025 -4.15091 0
M  V30 828 H 79.1453 -0.351735 -5.50878 0
M  V30 829 H 81.6213 0.917134 -4.05867 0
M  V30 830 H 80.4973 1.63907 -5.23856 0
M  V30 831 H 80.7583 2.43108 -3.69257 0
M  V30 832 N 79.8174 1.5752 -0.0501392 0
M  V30 833 C 80.7504 2.07026 0.959962 0
M  V30 834 C 81.7284 0.970539 1.30458 0
M  V30 835 O 82.9124 1.2424 1.41763 0
M  V30 836 C 80.0394 2.5099 2.27424 0
M  V30 837 C 79.0854 3.72188 2.08275 0
M  V30 838 S 79.9184 5.17888 1.36207 0
M  V30 839 C 81.0744 5.65165 2.6896 0
M  V30 840 H 81.3074 2.9238 0.538631 0
M  V30 841 H 78.8404 1.53547 0.162099 0
M  V30 842 H 80.7984 2.76982 3.02971 0
M  V30 843 H 79.4594 1.65944 2.66686 0
M  V30 844 H 78.6524 4.00866 3.05487 0
M  V30 845 H 78.2544 3.46457 1.40868 0
M  V30 846 H 80.5464 5.70687 3.65133 0
M  V30 847 H 81.4894 6.64394 2.4492 0
M  V30 848 H 81.8974 4.9289 2.75172 0
M  V30 849 N 81.2955 -0.223234 1.56011 0
M  V30 850 C 82.2285 -1.30377 1.87289 0
M  V30 851 C 83.2065 -1.45286 0.730112 0
M  V30 852 O 84.3905 -1.61126 0.978302 0
M  V30 853 C 81.5175 -2.67431 2.07843 0
M  V30 854 C 80.5635 -2.69546 3.30526 0
M  V30 855 S 81.3965 -2.23781 4.865 0
M  V30 856 C 82.5525 -3.62714 5.10088 0
M  V30 857 H 82.7855 -1.03652 2.78646 0
M  V30 858 H 80.3185 -0.425393 1.48424 0
M  V30 859 H 82.2765 -3.46336 2.20368 0
M  V30 860 H 80.9375 -2.91381 1.17285 0
M  V30 861 H 80.1305 -3.70255 3.41947 0
M  V30 862 H 79.7325 -1.98703 3.16849 0
M  V30 863 H 82.0245 -4.58391 4.98883 0
M  V30 864 H 82.9675 -3.5621 6.11981 0
M  V30 865 H 83.3755 -3.56323 4.37829 0
M  V30 866 N 82.7736 -1.49793 -0.48987 0
M  V30 867 C 84.1846 -1.52914 -1.07118 0
M  V30 868 C 84.5356 -0.321738 -1.93544 0
M  V30 869 O 83.6606 0.567338 -2.08831 0
M  V30 870 C 84.2556 -2.771 -1.94938 0
M  V30 871 C 82.8146 -2.82963 -2.48212 0
M  V30 872 C 81.9616 -2.46972 -1.26096 0
M  V30 873 H 84.9126 -1.56329 -0.273289 0
M  V30 874 H 84.9336 -2.57892 -2.79771 0
M  V30 875 H 84.4456 -3.64959 -1.32009 0
M  V30 876 H 82.5466 -1.99411 -3.14748 0
M  V30 877 H 82.6596 -3.85406 -2.84603 0
M  V30 878 H 81.0236 -1.98994 -1.58976 0
M  V30 879 H 81.8066 -3.37118 -0.648581 0
M  V30 880 N 84.2517 0.741722 -1.39055 0
M  V30 881 C 85.4997 1.49818 -1.35643 0
M  V30 882 C 85.8207 1.94938 0.0491642 0
M  V30 883 O 85.0907 1.68505 0.999141 0
M  V30 884 H 83.6707 0.555755 -0.499144 0
M  V30 885 H 86.3327 0.880957 -1.73854 0
M  V30 886 H 85.4287 2.38348 -2.01486 0
M  V30 887 N 85.7298 1.2412 0.971189 0
M  V30 888 C 86.6628 0.97373 2.06382 0
M  V30 889 C 87.6408 -0.0912662 1.62344 0
M  V30 890 O 88.8248 0.0449365 1.88446 0
M  V30 891 C 85.9518 0.468746 3.35441 0
M  V30 892 C 84.9978 1.52176 3.98428 0
M  V30 893 S 85.8308 3.10203 4.36503 0
M  V30 894 C 86.9868 2.61398 5.68702 0
M  V30 895 H 87.2198 1.89893 2.28753 0
M  V30 896 H 84.7528 1.07466 1.10862 0
M  V30 897 H 86.7108 0.184012 4.10087 0
M  V30 898 H 85.3718 -0.435688 3.11064 0
M  V30 899 H 84.5648 1.11876 4.91426 0
M  V30 900 H 84.1668 1.75632 3.30196 0
M  V30 901 H 86.4588 2.03992 6.4606 0
M  V30 902 H 87.4018 3.52972 6.13854 0
M  V30 903 H 87.8098 2.01941 5.27143 0
M  V30 904 N 87.2079 -1.17134 1.05439 0
M  V30 905 C 88.4849 -1.83411 0.679699 0
M  V30 906 C 88.8649 -1.9368 -0.839726 0
M  V30 907 O 88.2129 -1.47325 -1.74664 0
M  V30 908 C 88.4229 -3.20918 1.37159 0
M  V30 909 C 89.7709 -3.96796 1.51123 0
M  V30 910 O 90.7949 -3.30406 1.3308 0
M  V30 911 O 89.6539 -5.15778 1.80651 0
M  V30 912 H 86.7479 -0.79154 0.239569 0
M  V30 913 H 89.2939 -1.24411 1.15413 0
M  V30 914 H 88.0659 -3.08428 2.40807 0
M  V30 915 H 87.6889 -3.87587 0.886674 0
M  V30 916 N 88.686 -0.835752 -1.33615 0
M  V30 917 C 89.934 -0.429109 -1.97492 0
M  V30 918 C 90.255 1.01433 -1.66543 0
M  V30 919 O 89.525 1.70611 -0.962744 0
M  V30 920 H 88.105 -0.155686 -0.730596 0
M  V30 921 H 90.767 -1.06802 -1.63031 0
M  V30 922 H 89.863 -0.55861 -3.0706 0
M  V30 923 N 90.1641 1.46063 -0.591896 0
M  V30 924 C 91.4111 2.02338 -0.0809991 0
M  V30 925 C 91.7391 1.46228 1.28249 0
M  V30 926 O 90.9941 0.620818 1.85592 0
M  V30 927 C 91.2931 3.57391 0.0249813 0
M  V30 928 C 90.9591 4.32583 -1.27211 0
M  V30 929 C 89.6211 4.52844 -1.62745 0
M  V30 930 C 91.9731 4.75687 -2.13005 0
M  V30 931 C 89.3011 5.13462 -2.83855 0
M  V30 932 C 91.6531 5.37644 -3.3335 0
M  V30 933 C 90.3171 5.5613 -3.69155 0
M  V30 934 H 89.5871 0.740407 -0.0296397 0
M  V30 935 H 92.2341 1.75321 -0.770374 0
M  V30 936 H 90.5391 3.83597 0.797537 0
M  V30 937 H 92.2361 3.98621 0.436184 0
M  V30 938 H 88.8261 4.17116 -0.985499 0
M  V30 939 H 93.0101 4.59782 -1.86855 0
M  V30 940 H 88.2661 5.25965 -3.11722 0
M  V30 941 H 92.4401 5.7 -4.00092 0
M  V30 942 H 90.0671 6.0287 -4.63089 0
M  V30 943 N 91.6422 0.330177 1.54103 0
M  V30 944 C 92.8702 -0.272179 2.05102 0
M  V30 945 C 93.2852 -1.45267 1.20595 0
M  V30 946 O 92.6422 -1.8094 0.238144 0
M  V30 947 C 92.6932 -0.70023 3.54653 0
M  V30 948 O 92.4142 0.433301 4.35952 0
M  V30 949 C 93.9152 -1.3647 4.21771 0
M  V30 950 H 91.1352 -0.0549159 0.668749 0
M  V30 951 H 93.6792 0.478285 1.98828 0
M  V30 952 H 91.8342 -1.40066 3.61193 0
M  V30 953 H 92.2482 0.0947539 5.24414 0
M  V30 954 H 93.7222 -1.61509 5.27843 0
M  V30 955 H 94.1992 -2.31409 3.73292 0
M  V30 956 H 94.8052 -0.706675 4.19388 0
M  V30 957 N 93.1203 -1.57491 0.0584922 0
M  V30 958 C 94.3663 -1.93264 -0.614558 0
M  V30 959 C 94.6993 -0.937717 -1.7006 0
M  V30 960 O 93.9743 0.0351652 -1.94468 0
M  V30 961 C 94.2573 -3.3938 -1.20386 0
M  V30 962 C 94.1103 -4.49625 -0.125375 0
M  V30 963 C 95.4293 -3.86039 -2.11334 0
M  V30 964 H 92.5483 -0.702791 -0.221933 0
M  V30 965 H 95.1903 -1.8961 0.12175 0
M  V30 966 H 93.3403 -3.42626 -1.83139 0
M  V30 967 H 95.0123 -4.58506 0.506971 0
M  V30 968 H 93.2553 -4.30354 0.545672 0
M  V30 969 H 93.9263 -5.48967 -0.577861 0
M  V30 970 H 96.4023 -3.84716 -1.58534 0
M  V30 971 H 95.2783 -4.88914 -2.49507 0
M  V30 972 H 95.5393 -3.23215 -3.01636 0
M  V30 973 N 94.5984 0.214957 -1.56127 0
M  V30 974 C 95.8384 0.945364 -1.81224 0
M  V30 975 C 96.2024 1.81265 -0.633005 0
M  V30 976 O 97.4034 2.57731 -0.763423 0
M  V30 977 C 95.6744 1.75665 -3.1125 0
M  V30 978 S 97.2334 2.54179 -3.57685 0
M  V30 979 H 94.0514 0.317443 -0.6362 0
M  V30 980 H 96.6534 0.210381 -1.94365 0
M  V30 981 H 95.3574 1.10977 -3.9511 0
M  V30 982 H 94.8884 2.53381 -3.00934 0
M  V30 983 H 96.9034 3.7792 -3.21545 0
M  V30 984 N 96.0765 1.50051 0.48192 0
M  V30 985 C 97.4925 1.37237 0.814756 0
M  V30 986 C 97.6925 0.420109 1.97072 0
M  V30 987 O 96.7485 -0.141246 2.52105 0
M  V30 988 C 98.0615 2.78375 1.13701 0
M  V30 989 C 99.6095 2.87213 1.2441 0
M  V30 990 C 100.084 4.29161 1.59954 0
M  V30 991 N 101.575 4.32061 1.66967 0
M  V30 992 C 102.31 5.38879 1.95952 0
M  V30 993 N 101.806 6.55918 2.23031 0
M  V30 994 N 103.599 5.26312 1.97363 0
M  V30 995 H 95.7505 2.10546 -0.28005 0
M  V30 996 H 98.0135 0.945921 -0.0627454 0
M  V30 997 H 97.7195 3.49845 0.360787 0
M  V30 998 H 97.5935 3.14941 2.07586 0
M  V30 999 H 99.9805 2.15969 2.01101 0
M  V30 1000 H 100.061 2.54204 0.285299 0
M  V30 1001 H 99.7055 5.00938 0.838067 0
M  V30 1002 H 99.6355 4.59648 2.56966 0
M  V30 1003 H 102.126 3.47661 1.48123 0
M  V30 1004 H 102.439 7.33139 2.44391 0
M  V30 1005 H 100.784 6.59112 2.20447 0
M  V30 1006 H 103.975 4.33876 1.75697 0
M  V30 1007 H 104.148 6.09649 2.19618 0
M  V30 1008 N 97.5546 -0.734337 1.39446 0
M  V30 1009 C 98.5016 -1.84835 1.38219 0
M  V30 1010 C 99.4716 -1.64331 0.24179 0
M  V30 1011 O 100.657 -1.85728 0.437002 0
M  V30 1012 C 97.7966 -3.22355 1.23212 0
M  V30 1013 C 96.9096 -3.5456 2.46801 0
M  V30 1014 C 96.0446 -4.81485 2.24377 0
M  V30 1015 C 95.0836 -5.06536 3.43639 0
M  V30 1016 N 94.2206 -6.24665 3.20528 0
M  V30 1017 H 99.0606 -1.85219 2.33448 0
M  V30 1018 H 96.5976 -0.905039 1.15963 0
M  V30 1019 H 98.5556 -4.0174 1.12522 0
M  V30 1020 H 97.1856 -3.21248 0.316121 0
M  V30 1021 H 96.2376 -2.69872 2.68092 0
M  V30 1022 H 97.5496 -3.6899 3.3563 0
M  V30 1023 H 96.7036 -5.68852 2.10933 0
M  V30 1024 H 95.4426 -4.6923 1.32944 0
M  V30 1025 H 94.4476 -4.17632 3.5758 0
M  V30 1026 H 95.6726 -5.20676 4.35974 0
M  V30 1027 H 93.6186 -6.13696 2.3176 0
M  V30 1028 H 93.5356 -6.39685 4.02913 0
M  V30 1029 H 94.8036 -7.14868 3.10779 0
M  V30 1030 N 99.0327 -1.24633 -0.964593 0
M  V30 1031 C 99.9627 -1.06611 -2.07741 0
M  V30 1032 C 100.944 0.0218666 -1.70086 0
M  V30 1033 O 102.129 -0.145793 -1.93652 0
M  V30 1034 C 99.2587 -0.673444 -3.40708 0
M  V30 1035 C 98.2127 -1.71054 -3.92332 0
M  V30 1036 C 97.5387 -1.17285 -5.21678 0
M  V30 1037 C 98.8387 -3.10718 -4.19824 0
M  V30 1038 H 100.533 -1.99693 -2.23076 0
M  V30 1039 H 98.0787 -0.96152 -1.07195 0
M  V30 1040 H 100.032 -0.534345 -4.17998 0
M  V30 1041 H 98.7557 0.293073 -3.25282 0
M  V30 1042 H 97.4147 -1.83791 -3.17201 0
M  V30 1043 H 97.0627 -0.196847 -5.02615 0
M  V30 1044 H 96.7627 -1.86592 -5.57187 0
M  V30 1045 H 98.2867 -1.04593 -6.01575 0
M  V30 1046 H 99.7007 -3.01192 -4.87808 0
M  V30 1047 H 98.0977 -3.77406 -4.66567 0
M  V30 1048 H 99.1677 -3.58524 -3.26479 0
M  V30 1049 N 100.511 1.16574 -1.06058 0
M  V30 1050 C 101.458 2.20883 -0.669263 0
M  V30 1051 C 102.428 1.62729 0.332918 0
M  V30 1052 O 103.613 1.895 0.222346 0
M  V30 1053 C 100.753 3.45049 -0.0593572 0
M  V30 1054 C 99.8658 4.17458 -1.11143 0
M  V30 1055 C 99.0008 5.29135 -0.467916 0
M  V30 1056 C 98.0398 5.93343 -1.50369 0
M  V30 1057 N 97.1768 6.96516 -0.883706 0
M  V30 1058 H 102.017 2.53709 -1.5632 0
M  V30 1059 H 99.5538 1.24616 -0.781625 0
M  V30 1060 H 101.512 4.16033 0.311771 0
M  V30 1061 H 100.142 3.12781 0.797992 0
M  V30 1062 H 99.1938 3.45101 -1.60029 0
M  V30 1063 H 100.506 4.61307 -1.89731 0
M  V30 1064 H 99.6598 6.06684 -0.0436871 0
M  V30 1065 H 98.3988 4.86443 0.349864 0
M  V30 1066 H 97.4038 5.14517 -1.93784 0
M  V30 1067 H 98.6288 6.38114 -2.32352 0
M  V30 1068 H 96.5748 6.55943 -0.086595 0
M  V30 1069 H 96.4918 7.38723 -1.607 0
M  V30 1070 H 97.7598 7.77993 -0.484543 0
M  V30 1071 N 101.989 0.842826 1.3317 0
M  V30 1072 C 103.266 0.362216 1.92217 0
M  V30 1073 C 103.646 -1.15289 1.76838 0
M  V30 1074 O 102.994 -1.96914 1.15919 0
M  V30 1075 C 103.204 0.813495 3.39387 0
M  V30 1076 C 104.552 0.823804 4.16532 0
M  V30 1077 O 105.576 0.757358 3.48055 0
M  V30 1078 O 104.435 0.915193 5.38782 0
M  V30 1079 H 101.529 0.103317 0.820521 0
M  V30 1080 H 104.075 0.928942 1.42017 0
M  V30 1081 H 102.847 1.85624 3.4447 0
M  V30 1082 H 102.47 0.223561 3.96971 0
M  V30 1083 N 103.467 -1.45747 0.599634 0
M  V30 1084 C 104.744 -1.95585 0.0240846 0
M  V30 1085 C 105.124 -1.54217 -1.44154 0
M  V30 1086 O 104.472 -0.800903 -2.14004 0
M  V30 1087 C 104.682 -3.48344 0.21385 0
M  V30 1088 C 106.03 -4.24504 0.0904902 0
M  V30 1089 O 107.054 -3.55911 0.143558 0
M  V30 1090 O 105.913 -5.46491 -0.0310766 0
M  V30 1091 H 103.007 -0.82602 -0.0402478 0
M  V30 1092 H 105.553 -1.55951 0.669139 0
M  V30 1093 H 104.325 -3.71397 1.23206 0
M  V30 1094 H 103.948 -3.9485 -0.466842 0
M  V30 1095 N 104.945 -0.338344 -1.53925 0
M  V30 1096 C 106.356 0.146651 -1.86123 0
M  V30 1097 C 106.707 1.5042 -1.2597 0
M  V30 1098 O 105.832 2.08723 -0.571294 0
M  V30 1099 C 106.427 0.272879 -3.37699 0
M  V30 1100 C 104.986 0.702103 -3.69794 0
M  V30 1101 C 104.133 -0.167304 -2.76795 0
M  V30 1102 H 107.084 -0.558123 -1.48562 0
M  V30 1103 H 107.105 1.10128 -3.64214 0
M  V30 1104 H 106.617 -0.715307 -3.81451 0
M  V30 1105 H 104.718 1.6995 -3.31584 0
M  V30 1106 H 104.831 0.495604 -4.7653 0
M  V30 1107 H 103.195 0.359527 -2.5215 0
M  V30 1108 H 103.978 -1.15253 -3.23375 0
M  V30 1109 N 106.423 1.57458 -0.0668435 0
M  V30 1110 C 107.651 1.97624 0.612565 0
M  V30 1111 C 108.066 0.94502 1.63447 0
M  V30 1112 O 107.423 -0.0689276 1.8237 0
M  V30 1113 C 107.474 3.37869 1.28555 0
M  V30 1114 O 107.195 4.3704 0.304557 0
M  V30 1115 C 108.696 3.92882 2.05325 0
M  V30 1116 H 105.916 0.650045 0.166381 0
M  V30 1117 H 108.46 2.04035 -0.137782 0
M  V30 1118 H 106.615 3.3256 1.98702 0
M  V30 1119 H 107.029 5.18565 0.786779 0
M  V30 1120 H 108.503 4.93247 2.47812 0
M  V30 1121 H 108.98 3.29156 2.9078 0
M  V30 1122 H 109.586 4.01577 1.40056 0
M  V30 1123 N 107.901 -0.206675 1.56239 0
M  V30 1124 C 109.129 -0.945345 1.8404 0
M  V30 1125 C 109.544 -1.77336 0.647885 0
M  V30 1126 O 108.901 -1.78425 -0.383511 0
M  V30 1127 C 108.952 -1.8509 3.10522 0
M  V30 1128 O 108.673 -1.05634 4.25174 0
M  V30 1129 C 110.174 -2.70222 3.51418 0
M  V30 1130 H 107.394 -0.276372 0.61144 0
M  V30 1131 H 109.938 -0.217417 2.03341 0
M  V30 1132 H 108.093 -2.53259 2.93153 0
M  V30 1133 H 108.507 -1.67238 4.97124 0
M  V30 1134 H 109.981 -3.29438 4.42916 0
M  V30 1135 H 110.458 -3.43358 2.73864 0
M  V30 1136 H 111.064 -2.07443 3.71278 0
M  V30 1137 N 109.379 -1.50304 -0.473955 0
M  V30 1138 C 110.795 -1.37667 -0.807466 0
M  V30 1139 C 110.995 -0.430555 -1.96846 0
M  V30 1140 O 110.051 0.127874 -2.52176 0
M  V30 1141 C 111.364 -2.78974 -1.12223 0
M  V30 1142 C 112.912 -2.87868 -1.22885 0
M  V30 1143 C 113.387 -4.30003 -1.57676 0
M  V30 1144 N 114.878 -4.3294 -1.64673 0
M  V30 1145 C 115.613 -5.3991 -1.93091 0
M  V30 1146 N 115.109 -6.57092 -2.1955 0
M  V30 1147 N 116.902 -5.27351 -1.94569 0
M  V30 1148 H 109.053 -2.10394 0.291212 0
M  V30 1149 H 111.316 -0.945575 0.0677609 0
M  V30 1150 H 111.022 -3.50031 -0.342229 0
M  V30 1151 H 110.896 -3.16038 -2.05913 0
M  V30 1152 H 113.283 -2.17032 -1.99953 0
M  V30 1153 H 113.364 -2.54352 -0.271814 0
M  V30 1154 H 113.008 -5.01375 -0.81149 0
M  V30 1155 H 112.938 -4.61004 -2.54525 0
M  V30 1156 H 115.429 -3.48441 -1.46277 0
M  V30 1157 H 115.742 -7.34425 -2.405 0
M  V30 1158 H 114.087 -6.60272 -2.16948 0
M  V30 1159 H 117.278 -4.34801 -1.73394 0
M  V30 1160 H 117.451 -6.10805 -2.16381 0
M  V30 1161 N 110.857 0.726932 -1.39834 0
M  V30 1162 C 111.807 1.83232 -1.35683 0
M  V30 1163 C 112.791 1.59155 -0.236295 0
M  V30 1164 O 113.983 1.70522 -0.474488 0
M  V30 1165 C 111.112 3.21246 -1.21062 0
M  V30 1166 C 110.198 3.51125 -2.37849 0
M  V30 1167 N 110.589 3.51889 -3.63329 0
M  V30 1168 C 108.887 3.81527 -2.30982 0
M  V30 1169 C 109.588 3.79791 -4.40606 0
M  V30 1170 N 108.564 3.97971 -3.70297 0
M  V30 1171 H 112.366 1.8214 -2.30656 0
M  V30 1172 H 109.88 0.925545 -1.33444 0
M  V30 1173 H 111.877 4.00387 -1.16171 0
M  V30 1174 H 110.537 3.23572 -0.270458 0
M  V30 1175 H 111.548 3.33008 -3.96643 0
M  V30 1176 H 108.225 3.91411 -1.45272 0
M  V30 1177 H 109.615 3.86783 -5.49408 0
M  V30 1178 N 112.336 1.25143 0.95797 0
M  V30 1179 C 113.585 1.0909 1.69654 0
M  V30 1180 C 113.898 -0.368548 1.92097 0
M  V30 1181 O 115.104 -0.649455 2.63618 0
M  V30 1182 C 113.56 1.90395 3.05414 0
M  V30 1183 C 113.168 3.4081 2.90779 0
M  V30 1184 C 114.912 1.82901 3.83076 0
M  V30 1185 C 112.819 4.14423 4.21909 0
M  V30 1186 H 111.749 0.404625 0.636235 0
M  V30 1187 H 114.4 1.4931 1.06672 0
M  V30 1188 H 112.782 1.42996 3.69281 0
M  V30 1189 H 113.956 3.95859 2.35865 0
M  V30 1190 H 112.271 3.49361 2.26575 0
M  V30 1191 H 114.868 2.35196 4.80195 0
M  V30 1192 H 115.211 0.796224 4.08615 0
M  V30 1193 H 115.744 2.28033 3.25954 0
M  V30 1194 H 112.483 5.18102 4.01561 0
M  V30 1195 H 112.003 3.64159 4.76601 0
M  V30 1196 H 113.682 4.21956 4.90471 0
M  V30 1197 N 113.814 -1.1601 1.06675 0
M  V30 1198 C 115.225 -1.68235 0.809565 0
M  V30 1199 C 115.576 -1.8454 -0.666303 0
M  V30 1200 O 114.701 -1.54374 -1.5165 0
M  V30 1201 C 115.296 -3.05585 1.46299 0
M  V30 1202 C 113.855 -3.54915 1.25349 0
M  V30 1203 C 113.002 -2.30804 1.53703 0
M  V30 1204 H 115.953 -1.00318 1.22971 0
M  V30 1205 H 115.974 -3.70174 0.880431 0
M  V30 1206 H 115.486 -2.93686 2.53713 0
M  V30 1207 H 113.587 -3.72067 0.199261 0
M  V30 1208 H 113.7 -4.36774 1.9689 0
M  V30 1209 H 112.064 -2.36007 0.957739 0
M  V30 1210 H 112.847 -2.21499 2.62284 0
M  V30 1211 N 115.292 -0.849877 -1.32721 0
M  V30 1212 C 116.538 -0.451591 -1.97708 0
M  V30 1213 C 116.871 0.989175 -1.6712 0
M  V30 1214 O 116.146 1.69334 -0.956891 0
M  V30 1215 C 116.429 -0.685598 -3.53513 0
M  V30 1216 C 116.282 -2.17444 -3.93749 0
M  V30 1217 C 117.601 -0.138874 -4.39881 0
M  V30 1218 H 114.72 -0.16555 -0.718166 0
M  V30 1219 H 117.362 -1.06742 -1.57182 0
M  V30 1220 H 115.512 -0.161416 -3.88165 0
M  V30 1221 H 117.184 -2.76433 -3.693 0
M  V30 1222 H 115.427 -2.65476 -3.43081 0
M  V30 1223 H 116.098 -2.28888 -5.02309 0
M  V30 1224 H 118.574 -0.587068 -4.11938 0
M  V30 1225 H 117.45 -0.332213 -5.47894 0
M  V30 1226 H 117.711 0.95806 -4.31594 0
M  V30 1227 N 116.77 1.45427 -0.607355 0
M  V30 1228 C 118.016 2.0254 -0.102607 0
M  V30 1229 C 118.349 1.47478 1.26348 0
M  V30 1230 O 117.624 0.64939 1.83339 0
M  V30 1231 C 117.907 3.60044 -0.0634347 0
M  V30 1232 C 117.76 4.2544 -1.46017 0
M  V30 1233 C 119.079 4.35646 0.624514 0
M  V30 1234 H 116.198 0.73598 -0.0387607 0
M  V30 1235 H 118.84 1.73284 -0.779282 0
M  V30 1236 H 116.99 3.85101 0.512808 0
M  V30 1237 H 118.662 4.11569 -2.08347 0
M  V30 1238 H 116.905 3.83849 -2.02094 0
M  V30 1239 H 117.576 5.34342 -1.385 0
M  V30 1240 H 120.052 4.15882 0.134723 0
M  V30 1241 H 118.928 5.45376 0.621028 0
M  V30 1242 H 119.189 4.08501 1.69055 0
M  V30 1243 N 118.248 0.346503 1.53744 0
M  V30 1244 C 119.178 -0.501193 2.28058 0
M  V30 1245 C 120.159 -1.10014 1.29734 0
M  V30 1246 O 121.344 -1.12097 1.58581 0
M  V30 1247 C 118.474 -1.65078 3.05559 0
M  V30 1248 C 117.428 -1.18003 4.11411 0
M  V30 1249 C 116.754 -2.41837 4.76884 0
M  V30 1250 C 118.054 -0.278394 5.21558 0
M  V30 1251 H 119.748 0.11875 2.99164 0
M  V30 1252 H 117.294 0.0585531 1.43881 0
M  V30 1253 H 119.247 -2.25028 3.56287 0
M  V30 1254 H 117.971 -2.29767 2.32109 0
M  V30 1255 H 116.63 -0.603331 3.61601 0
M  V30 1256 H 116.278 -3.0494 4.00026 0
M  V30 1257 H 115.978 -2.1102 5.48402 0
M  V30 1258 H 117.502 -3.02508 5.30397 0
M  V30 1259 H 118.916 -0.784823 5.67903 0
M  V30 1260 H 117.313 -0.0619707 6.00068 0
M  V30 1261 H 118.383 0.684677 4.80042 0
M  V30 1262 N 119.726 -1.57421 0.075193 0
M  V30 1263 C 120.975 -1.92794 -0.592731 0
M  V30 1264 C 121.288 -0.957478 -1.70563 0
M  V30 1265 O 122.494 -1.20417 -2.43335 0
M  V30 1266 C 120.95 -3.42495 -1.10569 0
M  V30 1267 C 120.558 -4.47994 -0.0236121 0
M  V30 1268 C 122.302 -3.86864 -1.74748 0
M  V30 1269 C 120.209 -5.88829 -0.550803 0
M  V30 1270 H 119.139 -0.719591 -0.225177 0
M  V30 1271 H 121.79 -1.82902 0.147978 0
M  V30 1272 H 120.172 -3.47471 -1.89947 0
M  V30 1273 H 121.346 -4.54637 0.751099 0
M  V30 1274 H 119.661 -4.13113 0.522159 0
M  V30 1275 H 122.258 -4.8947 -2.15229 0
M  V30 1276 H 122.601 -3.24417 -2.60882 0
M  V30 1277 H 123.134 -3.84504 -1.01986 0
M  V30 1278 H 119.873 -6.54929 0.273457 0
M  V30 1279 H 119.393 -5.85698 -1.29296 0
M  V30 1280 H 121.072 -6.38811 -1.02613 0
M  V30 1281 N 121.204 0.198386 -1.56346 0
M  V30 1282 C 122.432 0.935572 -1.84539 0
M  V30 1283 C 122.847 1.76989 -0.657281 0
M  V30 1284 O 122.204 1.78626 0.374043 0
M  V30 1285 C 122.255 1.8344 -3.11499 0
M  V30 1286 O 121.976 1.03377 -4.25728 0
M  V30 1287 C 123.477 2.68355 -3.52846 0
M  V30 1288 H 120.697 0.273126 -0.612897 0
M  V30 1289 H 123.241 0.20663 -2.03453 0
M  V30 1290 H 121.396 2.51701 -2.94492 0
M  V30 1291 H 121.81 1.64599 -4.98003 0
M  V30 1292 H 123.284 3.27085 -4.44657 0
M  V30 1293 H 123.761 3.41901 -2.75681 0
M  V30 1294 H 124.367 2.05471 -3.72373 0
M  V30 1295 N 122.682 1.50554 0.465978 0
M  V30 1296 C 123.645 1.69233 1.54574 0
M  V30 1297 C 124.645 0.562901 1.50626 0
M  V30 1298 O 125.835 0.830016 1.53155 0
M  V30 1299 C 122.967 1.7223 2.94193 0
M  V30 1300 H 124.16 2.65571 1.39327 0
M  V30 1301 H 121.713 1.40111 0.692711 0
M  V30 1302 H 122.448 0.77603 3.14878 0
M  V30 1303 H 122.233 2.54285 2.98466 0
M  V30 1304 H 123.723 1.88618 3.72576 0
M  V30 1305 N 124.16 -0.719506 1.40217 0
M  V30 1306 C 125.09 -1.8465 1.42922 0
M  V30 1307 C 126.071 -1.67599 0.29062 0
M  V30 1308 O 127.256 -1.87688 0.498677 0
M  V30 1309 C 124.386 -3.22565 1.28722 0
M  V30 1310 C 123.34 -3.54281 2.40144 0
M  V30 1311 C 122.666 -4.91298 2.11023 0
M  V30 1312 C 123.966 -3.55676 3.82481 0
M  V30 1313 H 125.66 -1.82644 2.37237 0
M  V30 1314 H 123.206 -0.877305 1.1419 0
M  V30 1315 H 125.159 -4.01095 1.29232 0
M  V30 1316 H 123.883 -3.25137 0.308811 0
M  V30 1317 H 122.542 -2.78088 2.38877 0
M  V30 1318 H 122.19 -4.90468 1.11582 0
M  V30 1319 H 121.89 -5.13485 2.8567 0
M  V30 1320 H 123.414 -5.72166 2.13209 0
M  V30 1321 H 124.828 -4.24254 3.85592 0
M  V30 1322 H 123.225 -3.89388 4.56614 0
M  V30 1323 H 124.295 -2.55144 4.12346 0
M  V30 1324 N 125.638 -1.25649 -0.95132 0
M  V30 1325 C 126.915 -1.01361 -1.67288 0
M  V30 1326 C 127.295 0.459135 -2.06046 0
M  V30 1327 O 126.643 1.43723 -1.7764 0
M  V30 1328 C 126.853 -1.95256 -2.89268 0
M  V30 1329 C 128.201 -2.23289 -3.61147 0
M  V30 1330 O 129.225 -1.93041 -2.99355 0
M  V30 1331 O 128.084 -2.74741 -4.72419 0
M  V30 1332 H 125.178 -0.38464 -0.732107 0
M  V30 1333 H 127.724 -1.36817 -1.00395 0
M  V30 1334 H 126.496 -2.94685 -2.57442 0
M  V30 1335 H 126.119 -1.60218 -3.6389 0
M  V30 1336 N 127.117 1.15442 -1.07289 0
M  V30 1337 C 128.365 1.85845 -0.794096 0
M  V30 1338 C 128.686 1.82692 0.681809 0
M  V30 1339 O 127.956 1.26741 1.49377 0
M  V30 1340 H 126.536 0.688089 -0.290763 0
M  V30 1341 H 129.198 1.39947 -1.3565 0
M  V30 1342 H 128.294 2.91001 -1.12804 0
M  V30 1343 N 128.595 0.856903 1.32268 0
M  V30 1344 C 130.011 0.547061 1.49931 0
M  V30 1345 C 130.211 -0.921781 1.7918 0
M  V30 1346 O 129.267 -1.70469 1.8627 0
M  V30 1347 C 130.58 1.43599 2.64196 0
M  V30 1348 C 132.128 1.43665 2.78081 0
M  V30 1349 C 132.603 2.31085 3.95428 0
M  V30 1350 N 134.094 2.28893 4.02694 0
M  V30 1351 C 134.829 2.93262 4.92732 0
M  V30 1352 N 134.325 3.66751 5.87763 0
M  V30 1353 N 136.118 2.82638 4.85873 0
M  V30 1354 H 128.269 1.8075 1.11549 0
M  V30 1355 H 130.532 0.772144 0.549997 0
M  V30 1356 H 130.238 2.48058 2.49319 0
M  V30 1357 H 130.112 1.12502 3.60032 0
M  V30 1358 H 132.499 0.399701 2.92381 0
M  V30 1359 H 132.58 1.7878 1.82952 0
M  V30 1360 H 132.224 3.34849 3.81888 0
M  V30 1361 H 132.154 1.93302 4.89839 0
M  V30 1362 H 134.645 1.75466 3.34694 0
M  V30 1363 H 134.958 4.13027 6.53168 0
M  V30 1364 H 133.303 3.70859 5.87783 0
M  V30 1365 H 136.494 2.24774 4.10602 0
M  V30 1366 H 136.667 3.33084 5.55841 0
M  V30 1367 N 130.073 -1.45103 0.615059 0
M  V30 1368 C 131.321 -2.01784 0.112955 0
M  V30 1369 C 131.642 -1.48504 -1.26378 0
M  V30 1370 O 130.912 -0.682245 -1.83636 0
M  V30 1371 H 129.492 -0.745993 0.0387668 0
M  V30 1372 H 132.154 -1.77808 0.798141 0
M  V30 1373 H 131.25 -3.12025 0.0684069 0
M  V30 1374 N 131.551 -0.354651 -1.53558 0
M  V30 1375 C 132.828 0.294281 -1.93374 0
M  V30 1376 C 133.208 1.67313 -1.28723 0
M  V30 1377 O 132.556 2.24179 -0.442247 0
M  V30 1378 C 132.766 0.355445 -3.47185 0
M  V30 1379 C 134.114 0.601007 -4.20325 0
M  V30 1380 O 135.138 0.437106 -3.53508 0
M  V30 1381 O 133.997 0.919322 -5.38712 0
M  V30 1382 H 131.091 0.174033 -0.808481 0
M  V30 1383 H 133.637 -0.406638 -1.64756 0
M  V30 1384 H 132.409 -0.611729 -3.86489 0
M  V30 1385 H 132.032 1.1027 -3.82003 0
M  V30 1386 N 133.029 1.57378 -0.0835403 0
M  V30 1387 C 134.445 1.57246 0.273109 0
M  V30 1388 C 134.645 1.09385 1.69225 0
M  V30 1389 O 133.701 0.765051 2.40631 0
M  V30 1390 C 135.014 3.00614 0.0720628 0
M  V30 1391 C 136.562 3.12684 0.1407 0
M  V30 1392 C 137.037 4.57989 -0.0322094 0
M  V30 1393 N 138.528 4.63194 0.0230085 0
M  V30 1394 C 139.263 5.73335 -0.0861941 0
M  V30 1395 N 138.759 6.9235 -0.24958 0
M  V30 1396 N 140.552 5.62093 -0.0282886 0
M  V30 1397 H 132.703 1.86801 -1.0109 0
M  V30 1398 H 134.966 0.861687 -0.395222 0
M  V30 1399 H 134.672 3.39786 -0.907662 0
M  V30 1400 H 134.546 3.68193 0.81936 0
M  V30 1401 H 136.933 2.73391 1.11092 0
M  V30 1402 H 137.014 2.47719 -0.637896 0
M  V30 1403 H 136.658 4.97973 -0.999247 0
M  V30 1404 H 136.588 5.21 0.765937 0
M  V30 1405 H 139.079 3.77613 0.14722 0
M  V30 1406 H 139.392 7.72117 -0.324733 0
M  V30 1407 H 137.737 6.94415 -0.285097 0
M  V30 1408 H 140.928 4.67997 0.0981408 0
M  V30 1409 H 141.101 6.47895 -0.116845 0
M  V30 1410 N 134.507 -0.190092 1.56449 0
M  V30 1411 C 135.756 -0.907912 1.80111 0
M  V30 1412 C 136.069 -1.84214 0.657619 0
M  V30 1413 O 137.275 -2.60094 0.778663 0
M  V30 1414 C 135.731 -1.66485 3.19078 0
M  V30 1415 C 135.339 -0.7752 4.41242 0
M  V30 1416 C 137.083 -2.37201 3.52045 0
M  V30 1417 C 134.99 -1.53129 5.71231 0
M  V30 1418 H 133.92 -0.34276 0.671589 0
M  V30 1419 H 136.571 -0.161109 1.82791 0
M  V30 1420 H 134.953 -2.45572 3.10661 0
M  V30 1421 H 136.127 -0.0226298 4.60794 0
M  V30 1422 H 134.442 -0.178627 4.16017 0
M  V30 1423 H 137.039 -2.94329 4.46402 0
M  V30 1424 H 137.382 -3.11632 2.76028 0
M  V30 1425 H 137.915 -1.65075 3.61932 0
M  V30 1426 H 134.654 -0.82967 6.50228 0
M  V30 1427 H 134.174 -2.25767 5.55688 0
M  V30 1428 H 135.853 -2.08377 6.12526 0
M  V30 1429 N 135.985 -1.50799 -0.457987 0
M  V30 1430 C 136.917 -1.66786 -1.57211 0
M  V30 1431 C 137.93 -0.548962 -1.53265 0
M  V30 1432 O 139.119 -0.8226 -1.58416 0
M  V30 1433 C 136.219 -1.64834 -2.96113 0
M  V30 1434 C 135.392 -2.92971 -3.24787 0
M  V30 1435 C 134.451 -2.83485 -4.43309 0
M  V30 1436 O 133.477 -3.5744 -4.42973 0
M  V30 1437 N 134.679 -1.97929 -5.45714 0
M  V30 1438 H 137.444 -2.62889 -1.43909 0
M  V30 1439 H 135.005 -1.48427 -0.646617 0
M  V30 1440 H 136.997 -1.56084 -3.7339 0
M  V30 1441 H 135.567 -0.764118 -3.03117 0
M  V30 1442 H 134.787 -3.15749 -2.36 0
M  V30 1443 H 136.075 -3.77834 -3.40762 0
M  V30 1444 H 135.473 -1.37182 -5.48815 0
M  V30 1445 H 134.03 -1.95073 -6.21924 0
M  V30 1446 N 137.463 0.71206 -1.40597 0
M  V30 1447 C 138.711 1.46907 -1.38791 0
M  V30 1448 C 139.032 1.94998 0.00780391 0
M  V30 1449 O 138.302 1.70587 0.963174 0
M  V30 1450 H 136.882 0.545043 -0.51082 0
M  V30 1451 H 139.544 0.843882 -1.75683 0
M  V30 1452 H 138.64 2.34021 -2.06496 0
M  V30 1453 N 138.941 1.26152 0.944643 0
M  V30 1454 C 139.871 1.09902 2.06019 0
M  V30 1455 C 140.852 0.00519538 1.70099 0
M  V30 1456 O 142.037 0.176583 1.93396 0
M  V30 1457 C 139.167 0.727562 3.39594 0
M  V30 1458 C 138.121 1.77274 3.89561 0
M  V30 1459 C 137.447 1.25569 5.19747 0
M  V30 1460 C 138.747 3.17357 4.14827 0
M  V30 1461 H 140.441 2.03217 2.19871 0
M  V30 1462 H 137.987 0.978452 1.05652 0
M  V30 1463 H 139.94 0.600777 4.17095 0
M  V30 1464 H 138.664 -0.241287 3.25707 0
M  V30 1465 H 137.323 1.88814 3.14237 0
M  V30 1466 H 136.971 0.276783 5.02238 0
M  V30 1467 H 136.671 1.95433 5.54148 0
M  V30 1468 H 138.195 1.1415 5.99835 0
M  V30 1469 H 139.609 3.08914 4.82954 0
M  V30 1470 H 138.006 3.84781 4.60504 0
M  V30 1471 H 139.076 3.63673 3.20734 0
M  V30 1472 N 140.419 -1.14872 1.07899 0
M  V30 1473 C 141.329 -2.2341 0.715915 0
M  V30 1474 C 142.345 -1.71808 -0.275306 0
M  V30 1475 O 143.521 -2.01039 -0.120545 0
M  V30 1476 C 140.586 -3.46474 0.125168 0
M  V30 1477 C 139.647 -4.13039 1.17034 0
M  V30 1478 C 138.88 -5.30229 0.607688 0
M  V30 1479 O 139.103 -5.675 -0.574497 0
M  V30 1480 O 138.037 -5.86444 1.35526 0
M  V30 1481 H 141.863 -2.56808 1.62121 0
M  V30 1482 H 139.448 -1.22702 0.852322 0
M  V30 1483 H 141.33 -4.20917 -0.201729 0
M  V30 1484 H 140.005 -3.14811 -0.753364 0
M  V30 1485 H 138.912 -3.40493 1.54968 0
M  V30 1486 H 140.245 -4.48796 2.02097 0
M  V30 1487 N 141.898 -0.863906 -1.31812 0
M  V30 1488 C 143.123 -0.48527 -2.01643 0
M  V30 1489 C 143.548 0.913058 -1.64453 0
M  V30 1490 O 142.906 1.6014 -0.849985 0
M  V30 1491 C 142.954 -0.642625 -3.54828 0
M  V30 1492 O 142.058 0.320659 -4.11151 0
M  V30 1493 H 141.399 -0.193793 -0.635091 0
M  V30 1494 H 143.929 -1.16565 -1.68148 0
M  V30 1495 H 143.939 -0.533628 -4.04495 0
M  V30 1496 H 142.614 -1.66227 -3.81237 0
M  V30 1497 H 141.191 0.167126 -3.72525 0
M  V30 1498 N 143.376 1.44774 -0.622745 0
M  V30 1499 C 144.624 2.01721 -0.123655 0
M  V30 1500 C 144.945 1.49172 1.25589 0
M  V30 1501 O 144.215 0.691974 1.83272 0
M  V30 1502 H 142.795 0.745777 -0.0427225 0
M  V30 1503 H 145.457 1.77382 -0.807559 0
M  V30 1504 H 144.553 3.11984 -0.0849534 0
M  V30 1505 N 144.854 0.36279 1.53368 0
M  V30 1506 C 145.817 -0.472679 2.24273 0
M  V30 1507 C 146.817 -1.012 1.24961 0
M  V30 1508 O 148.007 -0.898194 1.49259 0
M  V30 1509 C 145.139 -1.66039 2.97731 0
M  V30 1510 H 146.332 0.14773 2.99536 0
M  V30 1511 H 143.885 0.114434 1.55881 0
M  V30 1512 H 144.62 -2.31896 2.26704 0
M  V30 1513 H 144.405 -1.28066 3.70596 0
M  V30 1514 H 145.895 -2.25252 3.51641 0
M  V30 1515 N 146.332 -1.57332 0.0918853 0
M  V30 1516 C 147.557 -1.98995 -0.584442 0
M  V30 1517 C 147.982 -0.970528 -1.61128 0
M  V30 1518 O 147.34 0.0613904 -1.81196 0
M  V30 1519 C 147.388 -3.39636 -1.21161 0
M  V30 1520 O 146.492 -3.40447 -2.32744 0
M  V30 1521 H 145.833 -0.647165 -0.148572 0
M  V30 1522 H 148.363 -2.03873 0.172347 0
M  V30 1523 H 148.373 -3.7726 -1.55367 0
M  V30 1524 H 147.048 -4.13356 -0.459313 0
M  V30 1525 H 145.625 -3.14614 -2.0018 0
M  V30 1526 N 147.81 0.181792 -1.56548 0
M  V30 1527 C 149.087 0.926765 -1.72251 0
M  V30 1528 C 149.467 2.00831 -0.650386 0
M  V30 1529 O 148.815 2.26008 0.336521 0
M  V30 1530 C 149.025 1.50106 -3.1507 0
M  V30 1531 C 150.373 1.97805 -3.75711 0
M  V30 1532 O 151.397 1.59922 -3.18282 0
M  V30 1533 O 150.256 2.67555 -4.76525 0
M  V30 1534 H 147.35 0.435506 -0.703039 0
M  V30 1535 H 149.896 0.170443 -1.68842 0
M  V30 1536 H 148.668 0.72212 -3.84579 0
M  V30 1537 H 148.291 2.32186 -3.22763 0
M  V30 1538 N 149.288 1.51039 0.449983 0
M  V30 1539 C 150.535 1.63081 1.20045 0
M  V30 1540 C 150.863 0.341024 1.91487 0
M  V30 1541 O 150.118 -0.674276 1.83717 0
M  V30 1542 C 150.417 2.77556 2.25161 0
M  V30 1543 C 150.083 4.17289 1.70823 0
M  V30 1544 C 148.745 4.55305 1.55725 0
M  V30 1545 C 151.097 5.04536 1.3074 0
M  V30 1546 C 148.425 5.78287 0.989999 0
M  V30 1547 C 150.777 6.28085 0.754482 0
M  V30 1548 C 149.441 6.64885 0.590308 0
M  V30 1549 H 148.711 0.596755 0.439277 0
M  V30 1550 H 151.358 1.85037 0.49333 0
M  V30 1551 H 149.663 2.49771 3.01863 0
M  V30 1552 H 151.36 2.84073 2.83026 0
M  V30 1553 H 147.95 3.8731 1.83546 0
M  V30 1554 H 152.134 4.75782 1.41229 0
M  V30 1555 H 147.39 6.05456 0.850451 0
M  V30 1556 H 151.564 6.95038 0.435324 0
M  V30 1557 H 149.191 7.60055 0.14862 0
M  V30 1558 N 150.766 -0.704594 1.40972 0
M  V30 1559 C 151.696 -1.83124 1.44872 0
M  V30 1560 C 152.677 -1.67281 0.30838 0
M  V30 1561 O 153.862 -1.87149 0.518556 0
M  V30 1562 C 150.992 -3.21181 1.32136 0
M  V30 1563 C 149.946 -3.51714 2.43888 0
M  V30 1564 C 149.272 -4.89032 2.16222 0
M  V30 1565 C 150.572 -3.516 3.86232 0
M  V30 1566 H 152.266 -1.80117 2.39161 0
M  V30 1567 H 149.812 -0.865145 1.15114 0
M  V30 1568 H 151.765 -3.99702 1.33479 0
M  V30 1569 H 150.489 -3.24791 0.343279 0
M  V30 1570 H 149.148 -2.75539 2.41813 0
M  V30 1571 H 148.796 -4.89256 1.16778 0
M  V30 1572 H 148.496 -5.10426 2.911 0
M  V30 1573 H 150.02 -5.69873 2.19265 0
M  V30 1574 H 151.434 -4.2014 3.9007 0
M  V30 1575 H 149.831 -3.84523 4.60719 0
M  V30 1576 H 150.901 -2.50757 4.15029 0
M  V30 1577 N 152.244 -1.26651 -0.937939 0
M  V30 1578 C 153.472 -1.15173 -1.7188 0
M  V30 1579 C 153.887 0.292668 -1.86518 0
M  V30 1580 O 153.244 1.20014 -1.37488 0
M  V30 1581 C 153.295 -1.81925 -3.12387 0
M  V30 1582 O 153.016 -3.2072 -2.98446 0
M  V30 1583 C 154.517 -1.76442 -4.06673 0
M  V30 1584 H 151.737 -0.400911 -0.538063 0
M  V30 1585 H 154.281 -1.67332 -1.1756 0
M  V30 1586 H 152.436 -1.33696 -3.63599 0
M  V30 1587 H 152.85 -3.53802 -3.872 0
M  V30 1588 H 154.324 -2.27781 -5.02812 0
M  V30 1589 H 154.801 -0.731608 -4.33064 0
M  V30 1590 H 155.407 -2.24238 -3.61382 0
M  V30 1591 N 153.722 1.14298 -1.08507 0
M  V30 1592 C 154.669 2.19414 -0.715965 0
M  V30 1593 C 155.639 1.63399 0.298326 0
M  V30 1594 O 156.824 1.89929 0.182101 0
M  V30 1595 C 153.964 3.44845 -0.132534 0
M  V30 1596 C 153.077 4.15007 -1.19973 0
M  V30 1597 C 152.212 5.28024 -0.580048 0
M  V30 1598 C 151.251 5.9002 -1.62921 0
M  V30 1599 N 150.388 6.94485 -1.03125 0
M  V30 1600 H 155.228 2.50336 -1.61666 0
M  V30 1601 H 152.765 1.2293 -0.807882 0
M  V30 1602 H 154.723 4.16601 0.223454 0
M  V30 1603 H 153.353 3.14403 0.731467 0
M  V30 1604 H 152.405 3.41629 -1.67313 0
M  V30 1605 H 153.717 4.57178 -1.99473 0
M  V30 1606 H 152.871 6.06455 -0.172364 0
M  V30 1607 H 151.61 4.87076 0.246603 0
M  V30 1608 H 150.615 5.10291 -2.04654 0
M  V30 1609 H 151.84 6.33042 -2.45835 0
M  V30 1610 H 149.786 6.55612 -0.225711 0
M  V30 1611 H 149.703 7.35148 -1.76334 0
M  V30 1612 H 150.971 7.7679 -0.649458 0
M  V30 1613 N 155.201 0.870884 1.31352 0
M  V30 1614 C 156.612 0.534714 1.78879 0
M  V30 1615 C 156.963 -0.948423 1.71754 0
M  V30 1616 O 156.088 -1.74055 1.28584 0
M  V30 1617 C 156.683 0.963839 3.24801 0
M  V30 1618 C 155.242 0.679311 3.70219 0
M  V30 1619 C 154.389 1.15465 2.52117 0
M  V30 1620 H 157.34 1.05651 1.18421 0
M  V30 1621 H 157.361 0.286892 3.79417 0
M  V30 1622 H 156.873 2.04332 3.29955 0
M  V30 1623 H 154.974 -0.388769 3.70566 0
M  V30 1624 H 155.087 1.25698 4.62317 0
M  V30 1625 H 153.451 0.574383 2.48139 0
M  V30 1626 H 154.234 2.24157 2.60016 0
M  V30 1627 N 156.679 -1.44442 0.630414 0
M  V30 1628 C 157.928 -2.01267 0.132073 0
M  V30 1629 C 158.241 -1.50172 -1.25331 0
M  V30 1630 O 159.447 -1.9912 -1.84562 0
M  V30 1631 C 157.903 -3.59422 0.185362 0
M  V30 1632 C 157.511 -4.19514 1.57201 0
M  V30 1633 C 159.255 -4.23724 -0.256553 0
M  V30 1634 C 157.162 -5.69891 1.58045 0
M  V30 1635 H 156.092 -0.752619 0.0456092 0
M  V30 1636 H 158.743 -1.65666 0.789106 0
M  V30 1637 H 157.125 -3.92318 -0.538759 0
M  V30 1638 H 158.299 -3.98156 2.31966 0
M  V30 1639 H 156.614 -3.67496 1.95795 0
M  V30 1640 H 159.211 -5.34019 -0.269767 0
M  V30 1641 H 159.554 -3.96013 -1.28372 0
M  V30 1642 H 160.087 -3.95629 0.41505 0
M  V30 1643 H 156.826 -6.02336 2.58597 0
M  V30 1644 H 156.346 -5.93373 0.875725 0
M  V30 1645 H 158.025 -6.33515 1.31408 0
M  V30 1646 N 158.157 -0.370918 -1.53173 0
M  V30 1647 C 159.434 0.273754 -1.93675 0
M  V30 1648 C 159.814 1.65938 -1.3049 0
M  V30 1649 O 159.162 2.23698 -0.465999 0
M  V30 1650 C 159.372 0.318602 -3.47543 0
M  V30 1651 C 160.72 0.556392 -4.20939 0
M  V30 1652 O 161.744 0.399587 -3.53952 0
M  V30 1653 O 160.603 0.862133 -5.39657 0
M  V30 1654 H 157.697 0.165448 -0.810281 0
M  V30 1655 H 160.243 -0.42409 -1.64315 0
M  V30 1656 H 159.015 -0.652687 -3.85818 0
M  V30 1657 H 158.638 1.06212 -3.83151 0
M  V30 1658 N 159.635 1.57281 -0.100228 0
M  V30 1659 C 160.912 1.86014 0.604812 0
M  V30 1660 C 161.292 0.998025 1.86018 0
M  V30 1661 O 160.64 0.0718184 2.28387 0
M  V30 1662 C 160.85 3.36784 0.915278 0
M  V30 1663 C 162.198 4.04957 1.27651 0
M  V30 1664 O 163.222 3.41695 1.00613 0
M  V30 1665 O 162.081 5.16593 1.7831 0
M  V30 1666 H 159.175 0.76942 0.303185 0
M  V30 1667 H 161.721 1.69176 -0.133313 0
M  V30 1668 H 160.493 3.91292 0.0248896 0
M  V30 1669 H 160.116 3.58987 1.70921 0
M  V30 1670 N 161.113 -0.173488 1.56642 0
M  V30 1671 C 162.359 -0.891784 1.8214 0
M  V30 1672 C 162.692 -1.8199 0.677736 0
M  V30 1673 O 161.967 -1.91842 -0.320446 0
M  V30 1674 C 162.25 -1.68933 3.18015 0
M  V30 1675 C 162.103 -0.784487 4.42906 0
M  V30 1676 C 163.422 -2.65748 3.50808 0
M  V30 1677 H 160.541 -0.322761 0.662567 0
M  V30 1678 H 163.183 -0.158095 1.89341 0
M  V30 1679 H 161.333 -2.31482 3.12007 0
M  V30 1680 H 163.005 -0.172046 4.60979 0
M  V30 1681 H 161.248 -0.0924117 4.33702 0
M  V30 1682 H 161.919 -1.37799 5.34524 0
M  V30 1683 H 164.395 -2.13327 3.57255 0
M  V30 1684 H 163.271 -3.18619 4.4696 0
M  V30 1685 H 163.532 -3.45842 2.75401 0
M  V30 1686 N 162.591 -1.51276 -0.441967 0
M  V30 1687 C 163.524 -1.66933 -1.55591 0
M  V30 1688 C 164.502 -0.516958 -1.54163 0
M  V30 1689 O 165.686 -0.740209 -1.73358 0
M  V30 1690 C 162.813 -1.67866 -2.94174 0
M  V30 1691 C 161.859 -2.89013 -3.13646 0
M  V30 1692 S 162.692 -4.49897 -2.90436 0
M  V30 1693 C 163.848 -4.53568 -4.31308 0
M  V30 1694 H 164.081 -2.61155 -1.42076 0
M  V30 1695 H 161.614 -1.40902 -0.631341 0
M  V30 1696 H 163.572 -1.69089 -3.74058 0
M  V30 1697 H 162.233 -0.748296 -3.05056 0
M  V30 1698 H 161.426 -2.86054 -4.14957 0
M  V30 1699 H 161.028 -2.85509 -2.4158 0
M  V30 1700 H 163.32 -4.28924 -5.24434 0
M  V30 1701 H 164.263 -5.55355 -4.39303 0
M  V30 1702 H 164.671 -3.82943 -4.14747 0
M  V30 1703 N 164.069 0.697108 -1.41344 0
M  V30 1704 C 164.999 1.82353 -1.45841 0
M  V30 1705 C 165.98 1.67115 -0.317247 0
M  V30 1706 O 167.165 1.86871 -0.528474 0
M  V30 1707 C 164.295 3.20476 -1.33838 0
M  V30 1708 C 163.249 3.50415 -2.4575 0
M  V30 1709 C 162.575 4.87878 -2.18813 0
M  V30 1710 C 163.875 3.49546 -3.88091 0
M  V30 1711 H 165.569 1.78846 -2.40113 0
M  V30 1712 H 163.115 0.859028 -1.15571 0
M  V30 1713 H 165.068 3.98988 -1.35596 0
M  V30 1714 H 163.792 3.24604 -0.360498 0
M  V30 1715 H 162.451 2.74253 -2.43271 0
M  V30 1716 H 162.099 4.8863 -1.19371 0
M  V30 1717 H 161.799 5.08875 -2.93803 0
M  V30 1718 H 163.323 5.68702 -2.22284 0
M  V30 1719 H 164.737 4.18066 -3.92293 0
M  V30 1720 H 163.134 3.82075 -4.62751 0
M  V30 1721 H 164.204 2.48552 -4.16353 0
M  V30 1722 N 165.547 1.27147 0.931209 0
M  V30 1723 C 166.794 1.13278 1.67852 0
M  V30 1724 C 167.122 -0.32204 1.91815 0
M  V30 1725 O 166.377 -1.25224 1.50391 0
M  V30 1726 C 166.676 1.8579 3.05314 0
M  V30 1727 C 166.342 3.35657 3.01073 0
M  V30 1728 C 165.004 3.76536 2.99623 0
M  V30 1729 C 167.356 4.31299 2.92627 0
M  V30 1730 C 164.684 5.11426 2.87506 0
M  V30 1731 C 167.036 5.66242 2.82051 0
M  V30 1732 C 165.7 6.06418 2.7895 0
M  V30 1733 H 164.97 0.414515 0.614214 0
M  V30 1734 H 167.617 1.57712 1.08624 0
M  V30 1735 H 165.922 1.33854 3.68226 0
M  V30 1736 H 167.619 1.72491 3.62005 0
M  V30 1737 H 164.209 3.03146 3.02986 0
M  V30 1738 H 168.393 4.00692 2.92848 0
M  V30 1739 H 163.649 5.41705 2.83489 0
M  V30 1740 H 167.823 6.40026 2.74481 0
M  V30 1741 H 165.45 7.10895 2.69318 0
M  V30 1742 N 167.025 -1.13721 1.09112 0
M  V30 1743 C 167.988 -2.17222 0.731241 0
M  V30 1744 C 168.988 -1.59035 -0.237566 0
M  V30 1745 O 170.178 -1.74192 -0.0161704 0
M  V30 1746 C 167.31 -3.40804 0.0808443 0
M  V30 1747 H 168.503 -2.50573 1.64783 0
M  V30 1748 H 166.056 -1.28493 0.889897 0
M  V30 1749 H 166.791 -3.1304 -0.847127 0
M  V30 1750 H 166.576 -3.84306 0.777896 0
M  V30 1751 H 168.066 -4.1731 -0.155657 0
M  V30 1752 N 168.503 -0.877838 -1.30888 0
M  V30 1753 C 169.919 -0.570844 -1.49042 0
M  V30 1754 C 170.119 0.893159 -1.80624 0
M  V30 1755 O 169.175 1.67485 -1.88958 0
M  V30 1756 C 170.488 -1.47784 -2.61878 0
M  V30 1757 C 172.036 -1.48071 -2.75761 0
M  V30 1758 C 172.511 -2.37347 -3.91702 0
M  V30 1759 N 174.002 -2.35271 -3.99001 0
M  V30 1760 C 174.737 -3.01063 -4.88004 0
M  V30 1761 N 174.233 -3.76055 -5.81854 0
M  V30 1762 N 176.026 -2.90332 -4.81315 0
M  V30 1763 H 168.177 -1.82502 -1.0866 0
M  V30 1764 H 170.44 -0.780797 -0.537644 0
M  V30 1765 H 170.146 -2.51993 -2.45341 0
M  V30 1766 H 170.02 -1.18215 -3.58197 0
M  V30 1767 H 172.407 -0.446166 -2.91708 0
M  V30 1768 H 172.488 -1.81668 -1.80085 0
M  V30 1769 H 172.132 -3.40883 -3.76512 0
M  V30 1770 H 172.062 -2.01071 -4.86701 0
M  V30 1771 H 174.553 -1.80768 -3.3186 0
M  V30 1772 H 174.866 -4.23366 -6.46514 0
M  V30 1773 H 173.211 -3.80163 -5.81808 0
M  V30 1774 H 176.402 -2.31278 -4.06974 0
M  V30 1775 H 176.575 -3.41885 -5.50471 0
M  V30 1776 N 169.982 1.44106 -0.638065 0
M  V30 1777 C 171.228 2.02277 -0.145546 0
M  V30 1778 C 171.561 1.50125 1.23191 0
M  V30 1779 O 170.836 0.688133 1.8192 0
M  V30 1780 C 171.119 3.59829 -0.139791 0
M  V30 1781 C 170.972 4.22247 -1.55008 0
M  V30 1782 C 172.291 4.36873 0.531966 0
M  V30 1783 H 169.41 0.734992 -0.0543632 0
M  V30 1784 H 172.052 1.71592 -0.815863 0
M  V30 1785 H 170.202 3.86102 0.431007 0
M  V30 1786 H 171.874 4.07057 -2.1703 0
M  V30 1787 H 170.117 3.79476 -2.10191 0
M  V30 1788 H 170.788 5.31284 -1.49804 0
M  V30 1789 H 173.264 4.16074 0.0464781 0
M  V30 1790 H 172.14 5.4657 0.505206 0
M  V30 1791 H 172.401 4.11995 1.60352 0
M  V30 1792 N 171.46 0.379036 1.52974 0
M  V30 1793 C 172.876 0.0285448 1.59574 0
M  V30 1794 C 173.076 -1.45542 1.39355 0
M  V30 1795 O 172.132 -2.2187 1.20541 0
M  V30 1796 C 173.445 0.496535 2.96572 0
M  V30 1797 C 174.993 0.451909 3.0972 0
M  V30 1798 C 175.468 0.895924 4.49152 0
M  V30 1799 N 176.959 0.851522 4.55306 0
M  V30 1800 C 177.694 1.16661 5.61407 0
M  V30 1801 N 177.19 1.55166 6.752 0
M  V30 1802 N 178.983 1.08853 5.51459 0
M  V30 1803 H 171.134 1.34525 1.64367 0
M  V30 1804 H 173.397 0.550733 0.771619 0
M  V30 1805 H 173.103 1.53258 3.16552 0
M  V30 1806 H 172.977 -0.109802 3.7704 0
M  V30 1807 H 175.364 -0.575029 2.89443 0
M  V30 1808 H 175.445 1.09392 2.3123 0
M  V30 1809 H 175.089 1.92104 4.70168 0
M  V30 1810 H 175.019 0.23103 5.26093 0
M  V30 1811 H 177.51 0.568038 3.73606 0
M  V30 1812 H 177.823 1.776 7.52116 0
M  V30 1813 H 176.168 1.59044 6.76557 0
M  V30 1814 H 179.359 0.786803 4.6144 0
M  V30 1815 H 179.532 1.33742 6.34048 0
M  V30 1816 N 172.938 -1.57226 0.108567 0
M  V30 1817 C 174.163 -1.99604 -0.563303 0
M  V30 1818 C 174.588 -0.987563 -1.6009 0
M  V30 1819 O 173.946 0.0421687 -1.81251 0
M  V30 1820 C 173.994 -3.40902 -1.17552 0
M  V30 1821 O 173.098 -3.42896 -2.2912 0
M  V30 1822 H 172.439 -0.648704 -0.1417 0
M  V30 1823 H 174.969 -2.03679 0.193961 0
M  V30 1824 H 174.979 -3.78886 -1.51357 0
M  V30 1825 H 173.654 -4.1382 -0.415445 0
M  V30 1826 H 172.231 -3.1672 -1.96832 0
M  V30 1827 N 174.416 0.165178 -1.56732 0
M  V30 1828 C 175.346 1.20651 -1.99914 0
M  V30 1829 C 176.327 1.45827 -0.875705 0
M  V30 1830 O 177.512 1.57057 -1.14223 0
M  V30 1831 C 174.642 2.54401 -2.36427 0
M  V30 1832 C 173.596 2.43782 -3.51787 0
M  V30 1833 C 172.922 3.82078 -3.7406 0
M  V30 1834 C 174.222 1.93732 -4.85041 0
M  V30 1835 H 175.916 0.847534 -2.87154 0
M  V30 1836 H 173.462 0.40625 -1.38151 0
M  V30 1837 H 175.415 3.27458 -2.65234 0
M  V30 1838 H 174.139 2.92098 -1.46103 0
M  V30 1839 H 172.798 1.73178 -3.23117 0
M  V30 1840 H 172.446 4.17179 -2.81017 0
M  V30 1841 H 172.146 3.7584 -4.51684 0
M  V30 1842 H 173.67 4.56712 -4.05274 0
M  V30 1843 H 175.084 2.56569 -5.12684 0
M  V30 1844 H 173.481 1.98428 -5.66345 0
M  V30 1845 H 174.551 0.891962 -4.76626 0
M  V30 1846 N 175.894 1.51508 0.433938 0
M  V30 1847 C 177.122 1.68157 1.20543 0
M  V30 1848 C 177.537 0.380362 1.84929 0
M  V30 1849 O 176.894 -0.641446 1.70856 0
M  V30 1850 C 176.945 2.79965 2.28696 0
M  V30 1851 O 176.666 4.05045 1.66943 0
M  V30 1852 C 178.167 3.07912 3.18912 0
M  V30 1853 H 175.387 0.56421 0.363191 0
M  V30 1854 H 177.931 1.97941 0.513754 0
M  V30 1855 H 176.086 2.5277 2.93574 0
M  V30 1856 H 176.5 4.67165 2.38448 0
M  V30 1857 H 177.974 3.89719 3.90926 0
M  V30 1858 H 178.451 2.20456 3.79863 0
M  V30 1859 H 179.057 3.36779 2.59731 0
M  V30 1860 N 177.372 -0.689602 1.41712 0
M  V30 1861 C 178.788 -1.00093 1.24312 0
M  V30 1862 C 178.988 -2.01036 0.136729 0
M  V30 1863 O 178.044 -2.47562 -0.496918 0
M  V30 1864 C 179.357 -1.51985 2.59463 0
M  V30 1865 C 180.905 -1.63838 2.66695 0
M  V30 1866 C 181.38 -2.1913 4.02177 0
M  V30 1867 N 182.871 -2.26483 4.04054 0
M  V30 1868 C 183.606 -2.70306 5.0569 0
M  V30 1869 N 183.102 -3.13691 6.17713 0
M  V30 1870 N 184.895 -2.69923 4.9305 0
M  V30 1871 H 177.046 -0.0210029 2.1239 0
M  V30 1872 H 179.309 -0.0718733 0.945272 0
M  V30 1873 H 179.015 -0.85269 3.41207 0
M  V30 1874 H 178.889 -2.50103 2.82362 0
M  V30 1875 H 181.276 -2.29664 1.85306 0
M  V30 1876 H 181.357 -0.642492 2.476 0
M  V30 1877 H 181.001 -1.53918 4.84016 0
M  V30 1878 H 180.931 -3.19482 4.18615 0
M  V30 1879 H 183.422 -1.95874 3.23174 0
M  V30 1880 H 183.735 -3.45773 6.9113 0
M  V30 1881 H 182.08 -3.11585 6.21241 0
M  V30 1882 H 185.271 -2.35382 4.04614 0
M  V30 1883 H 185.444 -3.03758 5.72394 0
M  V30 1884 N 178.85 -1.27639 -0.924453 0
M  V30 1885 C 180.097 -1.14167 -1.67249 0
M  V30 1886 C 180.425 0.311863 -1.91984 0
M  V30 1887 O 179.68 1.24425 -1.51053 0
M  V30 1888 C 179.979 -1.87407 -3.04325 0
M  V30 1889 C 179.645 -3.37249 -2.99289 0
M  V30 1890 C 178.307 -3.7812 -2.97622 0
M  V30 1891 C 180.659 -4.32845 -2.90336 0
M  V30 1892 C 177.987 -5.12944 -2.8479 0
M  V30 1893 C 180.339 -5.6773 -2.79045 0
M  V30 1894 C 179.003 -6.07889 -2.7573 0
M  V30 1895 H 178.273 -0.417766 -0.612007 0
M  V30 1896 H 180.92 -1.58286 -1.07786 0
M  V30 1897 H 179.225 -1.35805 -3.67511 0
M  V30 1898 H 180.922 -1.74408 -3.61086 0
M  V30 1899 H 177.512 -3.04748 -3.01374 0
M  V30 1900 H 181.696 -4.02239 -2.90719 0
M  V30 1901 H 176.952 -5.432 -2.80612 0
M  V30 1902 H 181.126 -6.41472 -2.71083 0
M  V30 1903 H 178.753 -7.12314 -2.65544 0
M  V30 1904 N 180.328 1.1314 -1.09713 0
M  V30 1905 C 181.275 2.18642 -0.739196 0
M  V30 1906 C 182.245 1.63706 0.280978 0
M  V30 1907 O 183.43 1.90111 0.161946 0
M  V30 1908 C 180.57 3.44685 -0.169102 0
M  V30 1909 C 179.683 4.13711 -1.24367 0
M  V30 1910 C 178.818 5.27379 -0.636019 0
M  V30 1911 C 177.857 5.88259 -1.69169 0
M  V30 1912 N 176.994 6.93352 -1.10485 0
M  V30 1913 H 181.834 2.48607 -1.64312 0
M  V30 1914 H 179.371 1.22066 -0.820875 0
M  V30 1915 H 181.329 4.16815 0.179256 0
M  V30 1916 H 179.959 3.15161 0.698079 0
M  V30 1917 H 179.011 3.39835 -1.70927 0
M  V30 1918 H 180.323 4.55037 -2.04311 0
M  V30 1919 H 179.477 6.06238 -0.236677 0
M  V30 1920 H 178.216 4.8731 0.194928 0
M  V30 1921 H 177.221 5.08092 -2.10055 0
M  V30 1922 H 178.446 6.30399 -2.52536 0
M  V30 1923 H 176.392 6.55335 -0.295234 0
M  V30 1924 H 176.309 7.33236 -1.84121 0
M  V30 1925 H 177.577 7.76057 -0.73181 0
M  V30 1926 N 181.806 0.884767 1.30421 0
M  V30 1927 C 182.736 0.367574 2.30589 0
M  V30 1928 C 183.717 -0.549464 1.60981 0
M  V30 1929 O 184.902 -0.46336 1.88591 0
M  V30 1930 C 182.032 -0.418944 3.44764 0
M  V30 1931 C 180.986 0.406316 4.26067 0
M  V30 1932 C 180.312 -0.506793 5.32293 0
M  V30 1933 C 181.612 1.64832 4.95608 0
M  V30 1934 H 183.306 1.20462 2.74097 0
M  V30 1935 H 180.852 0.580695 1.31772 0
M  V30 1936 H 182.805 -0.791395 4.13902 0
M  V30 1937 H 181.529 -1.28964 3.0006 0
M  V30 1938 H 180.188 0.760903 3.58617 0
M  V30 1939 H 179.836 -1.37519 4.83836 0
M  V30 1940 H 179.536 0.0415828 5.87585 0
M  V30 1941 H 181.06 -0.875764 6.04287 0
M  V30 1942 H 182.474 1.34646 5.57264 0
M  V30 1943 H 180.871 2.13688 5.60765 0
M  V30 1944 H 181.941 2.39284 4.21748 0
M  V30 1945 N 183.284 -1.43765 0.645699 0
M  V30 1946 C 184.53 -2.02197 0.156271 0
M  V30 1947 C 184.863 -1.50776 -1.22393 0
M  V30 1948 O 184.138 -0.697771 -1.81553 0
M  V30 1949 C 184.421 -3.59749 0.158872 0
M  V30 1950 C 184.274 -4.21419 1.57245 0
M  V30 1951 C 185.593 -4.37149 -0.50879 0
M  V30 1952 H 182.712 -0.734694 0.0582602 0
M  V30 1953 H 185.354 -1.71157 0.824951 0
M  V30 1954 H 183.504 -3.86325 -0.410525 0
M  V30 1955 H 185.176 -4.059 2.19186 0
M  V30 1956 H 183.419 -3.78356 2.122 0
M  V30 1957 H 184.09 -5.30482 1.52619 0
M  V30 1958 H 186.566 -4.16093 -0.024412 0
M  V30 1959 H 185.442 -5.4683 -0.476213 0
M  V30 1960 H 185.703 -4.12839 -1.58165 0
M  V30 1961 N 184.763 -0.387143 -1.52771 0
M  V30 1962 C 186.012 0.19697 -2.00736 0
M  V30 1963 C 186.325 1.48082 -1.27793 0
M  V30 1964 O 187.531 2.14485 -1.66458 0
M  V30 1965 C 185.987 0.401568 -3.57653 0
M  V30 1966 C 185.595 -0.868907 -4.39493 0
M  V30 1967 C 187.339 0.942164 -4.13912 0
M  V30 1968 C 185.246 -0.632705 -5.88006 0
M  V30 1969 H 184.176 0.0773827 -0.750019 0
M  V30 1970 H 186.827 -0.50921 -1.76293 0
M  V30 1971 H 185.209 1.16954 -3.78335 0
M  V30 1972 H 186.383 -1.64133 -4.30577 0
M  V30 1973 H 184.698 -1.33429 -3.94443 0
M  V30 1974 H 187.295 1.13455 -5.22525 0
M  V30 1975 H 187.638 1.9106 -3.69867 0
M  V30 1976 H 188.171 0.233814 -3.97112 0
M  V30 1977 H 184.91 -1.57208 -6.36369 0
M  V30 1978 H 184.43 0.100825 -5.99715 0
M  V30 1979 H 186.109 -0.26642 -6.46451 0
M  V30 1980 N 186.241 1.57166 -0.116904 0
M  V30 1981 C 187.518 1.86645 0.585049 0
M  V30 1982 C 187.898 1.0177 1.84949 0
M  V30 1983 O 187.246 0.0960379 2.28298 0
M  V30 1984 C 187.456 3.37736 0.879507 0
M  V30 1985 C 188.804 4.06289 1.23348 0
M  V30 1986 O 189.828 3.42743 0.969836 0
M  V30 1987 O 188.687 5.18455 1.7282 0
M  V30 1988 H 185.781 0.772593 0.295007 0
M  V30 1989 H 188.327 1.69025 -0.151249 0
M  V30 1990 H 187.099 3.91296 -0.0166136 0
M  V30 1991 H 186.722 3.6078 1.67103 0
M  V30 1992 N 187.719 -0.156864 1.56817 0
M  V30 1993 C 188.629 -1.2136 2.00771 0
M  V30 1994 C 189.645 -1.47598 0.921459 0
M  V30 1995 O 190.821 -1.59462 1.2302 0
M  V30 1996 C 187.886 -2.52943 2.37109 0
M  V30 1997 C 186.947 -2.34439 3.59634 0
M  V30 1998 C 186.18 -3.59748 3.94229 0
M  V30 1999 O 186.403 -4.65526 3.29609 0
M  V30 2000 O 185.337 -3.52998 4.8752 0
M  V30 2001 H 189.163 -0.870468 2.90958 0
M  V30 2002 H 186.748 -0.36484 1.44877 0
M  V30 2003 H 188.63 -3.30538 2.61386 0
M  V30 2004 H 187.305 -2.86806 1.5008 0
M  V30 2005 H 186.212 -1.54828 3.40557 0
M  V30 2006 H 187.545 -2.05496 4.4725 0
M  V30 2007 N 189.197 -1.51736 -0.425897 0
M  V30 2008 C 190.127 -1.76827 -1.52494 0
M  V30 2009 C 191.108 -0.618524 -1.58456 0
M  V30 2010 O 192.293 -0.862416 -1.74 0
M  V30 2011 C 189.423 -1.90374 -2.90474 0
M  V30 2012 C 188.377 -3.0588 -2.99369 0
M  V30 2013 C 187.703 -3.04625 -4.3944 0
M  V30 2014 C 189.003 -4.45644 -2.72394 0
M  V30 2015 H 190.697 -2.68855 -1.31748 0
M  V30 2016 H 188.243 -1.29372 -0.632362 0
M  V30 2017 H 190.196 -2.0651 -3.6733 0
M  V30 2018 H 188.92 -0.95004 -3.12477 0
M  V30 2019 H 187.579 -2.89467 -2.24954 0
M  V30 2020 H 187.227 -2.0701 -4.58428 0
M  V30 2021 H 186.927 -3.82195 -4.46319 0
M  V30 2022 H 188.451 -3.22869 -5.18255 0
M  V30 2023 H 189.865 -4.62348 -3.38979 0
M  V30 2024 H 188.262 -5.25006 -2.9067 0
M  V30 2025 H 189.332 -4.54893 -1.67929 0
M  V30 2026 N 190.675 0.682077 -1.42076 0
M  V30 2027 C 192.091 0.994324 -1.24841 0
M  V30 2028 C 192.291 2.0096 -0.147389 0
M  V30 2029 O 191.347 2.47822 0.483782 0
M  V30 2030 C 192.66 1.50607 -2.60265 0
M  V30 2031 C 194.208 1.62421 -2.6756 0
M  V30 2032 C 194.683 2.16994 -4.03333 0
M  V30 2033 N 196.174 2.24337 -4.0525 0
M  V30 2034 C 196.909 2.67621 -5.07116 0
M  V30 2035 N 196.405 3.1041 -6.19368 0
M  V30 2036 N 198.198 2.67305 -4.94474 0
M  V30 2037 H 190.349 0.00973908 -2.12398 0
M  V30 2038 H 192.612 0.0668593 -0.945639 0
M  V30 2039 H 192.318 0.834583 -3.41654 0
M  V30 2040 H 192.192 2.48602 -2.83684 0
M  V30 2041 H 194.579 2.28678 -1.86521 0
M  V30 2042 H 194.66 0.629352 -2.47937 0
M  V30 2043 H 194.304 1.51349 -4.84826 0
M  V30 2044 H 194.234 3.17258 -4.20304 0
M  V30 2045 H 196.725 1.94158 -3.24209 0
M  V30 2046 H 197.038 3.42103 -6.92954 0
M  V30 2047 H 195.383 3.08286 -6.22884 0
M  V30 2048 H 198.574 2.33233 -4.05857 0
M  V30 2049 H 198.747 3.00718 -5.73997 0
M  V30 2050 N 192.153 1.28127 0.917671 0
M  V30 2051 C 193.085 1.07517 2.02417 0
M  V30 2052 C 194.098 0.0281099 1.62776 0
M  V30 2053 O 195.287 0.270748 1.76435 0
M  V30 2054 C 192.387 0.610957 3.33347 0
M  V30 2055 C 191.56 1.73255 4.01624 0
M  V30 2056 C 190.619 1.26238 5.10833 0
M  V30 2057 O 189.645 1.96389 5.34247 0
M  V30 2058 N 190.847 0.123448 5.80369 0
M  V30 2059 H 193.612 2.02806 2.20658 0
M  V30 2060 H 191.173 1.19827 1.08871 0
M  V30 2061 H 193.165 0.280101 4.0373 0
M  V30 2062 H 191.735 -0.24898 3.11607 0
M  V30 2063 H 190.955 2.23319 3.24842 0
M  V30 2064 H 192.243 2.48503 4.43986 0
M  V30 2065 H 191.641 -0.461847 5.63812 0
M  V30 2066 H 190.198 -0.148158 6.51632 0
M  V30 2067 N 193.631 -1.12557 1.10312 0
M  V30 2068 C 195.047 -1.36036 0.834649 0
M  V30 2069 C 195.247 -1.93946 -0.546539 0
M  V30 2070 O 194.303 -2.16484 -1.29966 0
M  V30 2071 C 195.616 -2.30312 1.9333 0
M  V30 2072 C 197.164 -2.43906 1.9616 0
M  V30 2073 C 197.639 -3.41496 3.05195 0
M  V30 2074 N 199.13 -3.49053 3.04494 0
M  V30 2075 C 199.865 -4.24471 3.85502 0
M  V30 2076 N 199.361 -5.02966 4.76442 0
M  V30 2077 N 201.154 -4.19864 3.73725 0
M  V30 2078 H 193.305 -0.733246 1.99342 0
M  V30 2079 H 195.568 -0.385234 0.866198 0
M  V30 2080 H 195.274 -1.94933 2.92735 0
M  V30 2081 H 195.148 -3.30421 1.81939 0
M  V30 2082 H 197.535 -2.78567 0.973886 0
M  V30 2083 H 197.616 -1.4369 2.11629 0
M  V30 2084 H 197.26 -3.07565 4.04186 0
M  V30 2085 H 197.19 -4.41539 2.86968 0
M  V30 2086 H 199.681 -2.93053 2.38596 0
M  V30 2087 H 199.994 -5.57846 5.34815 0
M  V30 2088 H 198.339 -5.02167 4.80472 0
M  V30 2089 H 201.53 -3.57623 3.02032 0
M  V30 2090 H 201.703 -4.78386 4.37093 0
M  V30 2091 N 195.109 -0.891671 -1.2995 0
M  V30 2092 C 196.019 -0.367691 -2.31701 0
M  V30 2093 C 197.035 0.533486 -1.6562 0
M  V30 2094 O 198.211 0.424997 -1.96865 0
M  V30 2095 C 195.276 0.403406 -3.44345 0
M  V30 2096 C 194.337 -0.528328 -4.26037 0
M  V30 2097 C 193.57 0.206063 -5.33302 0
M  V30 2098 O 193.793 1.43119 -5.52153 0
M  V30 2099 O 192.727 -0.447281 -6.00236 0
M  V30 2100 H 196.553 -1.21163 -2.78484 0
M  V30 2101 H 194.138 -0.655725 -1.34241 0
M  V30 2102 H 196.02 0.839753 -4.12948 0
M  V30 2103 H 194.695 1.22354 -2.99685 0
M  V30 2104 H 193.602 -1.01362 -3.60106 0
M  V30 2105 H 194.935 -1.31465 -4.74318 0
M  V30 2106 N 196.587 1.43421 -0.653314 0
M  V30 2107 C 197.55 2.29182 0.0287951 0
M  V30 2108 C 198.55 1.42213 0.750465 0
M  V30 2109 O 199.74 1.63843 0.591701 0
M  V30 2110 C 196.872 3.24278 1.05151 0
M  V30 2111 H 198.065 2.90985 -0.725786 0
M  V30 2112 H 195.618 1.50702 -0.414545 0
M  V30 2113 H 196.353 2.6737 1.83532 0
M  V30 2114 H 196.138 3.88396 0.537687 0
M  V30 2115 H 197.628 3.88647 1.52786 0
M  V30 2116 N 198.065 0.39524 1.52563 0
M  V30 2117 C 199.29 -0.187456 2.06551 0
M  V30 2118 C 199.715 -1.39249 1.26457 0
M  V30 2119 O 199.073 -1.78947 0.291151 0
M  V30 2120 C 199.121 -0.529985 3.56684 0
M  V30 2121 O 198.225 -1.62307 3.79118 0
M  V30 2122 H 197.566 -0.0202537 0.663691 0
M  V30 2123 H 200.096 0.564426 1.96661 0
M  V30 2124 H 200.106 -0.792598 4.00227 0
M  V30 2125 H 198.781 0.350987 4.14416 0
M  V30 2126 H 197.358 -1.3537 3.47461 0
M  V30 2127 N 199.544 -1.57102 0.125237 0
M  V30 2128 C 200.792 -1.95021 -0.530198 0
M  V30 2129 C 201.113 -1.00982 -1.66816 0
M  V30 2130 O 200.383 -0.0672693 -1.95784 0
M  V30 2131 H 198.963 -0.720046 -0.198853 0
M  V30 2132 H 201.625 -1.93916 0.19564 0
M  V30 2133 H 200.721 -2.98211 -0.920681 0
M  V30 2134 N 201.022 0.148545 -1.56898 0
M  V30 2135 C 202.438 0.501131 -1.51528 0
M  V30 2136 C 202.638 1.83458 -0.833399 0
M  V30 2137 O 201.694 2.49259 -0.40328 0
M  V30 2138 C 203.007 0.512864 -2.96294 0
M  V30 2139 C 204.555 0.598487 -3.07225 0
M  V30 2140 C 205.03 0.640897 -4.53494 0
M  V30 2141 N 206.521 0.703163 -4.57832 0
M  V30 2142 C 207.256 0.756935 -5.68382 0
M  V30 2143 N 206.752 0.770147 -6.88506 0
M  V30 2144 N 208.545 0.797698 -5.56411 0
M  V30 2145 H 200.696 -0.725532 -1.99624 0
M  V30 2146 H 202.959 -0.264358 -0.910395 0
M  V30 2147 H 202.665 -0.398691 -3.49433 0
M  V30 2148 H 202.539 1.35133 -3.52163 0
M  V30 2149 H 204.926 1.50046 -2.54106 0
M  V30 2150 H 205.007 -0.267093 -2.54402 0
M  V30 2151 H 204.651 -0.256915 -5.0725 0
M  V30 2152 H 204.581 1.52295 -5.04097 0
M  V30 2153 H 207.072 0.700314 -3.71354 0
M  V30 2154 H 207.385 0.812983 -7.68512 0
M  V30 2155 H 205.73 0.738049 -6.9107 0
M  V30 2156 H 208.921 0.784535 -4.61479 0
M  V30 2157 H 209.094 0.83614 -6.42583 0
M  V30 2158 N 202.5 1.5196 0.417844 0
M  V30 2159 C 203.916 1.40569 0.755816 0
M  V30 2160 C 204.116 0.503316 1.95113 0
M  V30 2161 O 203.172 -0.0341925 2.52477 0
M  V30 2162 C 204.485 2.82947 1.01791 0
M  V30 2163 C 206.033 2.92231 1.12116 0
M  V30 2164 C 206.508 4.35559 1.41608 0
M  V30 2165 N 207.999 4.38753 1.48491 0
M  V30 2166 C 208.734 5.46705 1.7292 0
M  V30 2167 N 208.23 6.64788 1.95011 0
M  V30 2168 N 210.023 5.34209 1.74863 0
M  V30 2169 H 202.174 2.09168 -0.369098 0
M  V30 2170 H 204.437 0.942409 -0.102809 0
M  V30 2171 H 204.143 3.5106 0.212081 0
M  V30 2172 H 204.017 3.23462 1.94042 0
M  V30 2173 H 206.404 2.24304 1.9176 0
M  V30 2174 H 206.485 2.55185 0.177225 0
M  V30 2175 H 206.129 5.04042 0.624848 0
M  V30 2176 H 206.059 4.70133 2.37239 0
M  V30 2177 H 208.55 3.5363 1.33244 0
M  V30 2178 H 208.863 7.42845 2.13076 0
M  V30 2179 H 207.208 6.67869 1.92293 0
M  V30 2180 H 210.399 4.40937 1.57137 0
M  V30 2181 H 210.572 6.18415 1.93563 0
M  V30 2182 N 203.978 -0.674533 1.42435 0
M  V30 2183 C 204.911 -1.79924 1.40366 0
M  V30 2184 C 205.889 -1.60378 0.267899 0
M  V30 2185 O 207.073 -1.82847 0.458159 0
M  V30 2186 C 204.2 -3.16927 1.19478 0
M  V30 2187 C 203.246 -3.55221 2.36051 0
M  V30 2188 S 204.079 -3.5762 3.98583 0
M  V30 2189 C 205.235 -4.97315 3.80038 0
M  V30 2190 H 205.468 -1.81405 2.35541 0
M  V30 2191 H 203.001 -0.845221 1.29211 0
M  V30 2192 H 204.959 -3.96007 1.08114 0
M  V30 2193 H 203.62 -3.13031 0.258883 0
M  V30 2194 H 202.813 -4.54804 2.17185 0
M  V30 2195 H 202.415 -2.83502 2.43932 0
M  V30 2196 H 204.707 -5.85401 3.41045 0
M  V30 2197 H 205.65 -5.21228 4.79298 0
M  V30 2198 H 206.058 -4.69845 3.12899 0
M  V30 2199 N 205.456 -1.28612 -0.910864 0
M  V30 2200 C 206.704 -1.15705 -1.65701 0
M  V30 2201 C 207.025 0.29416 -1.92769 0
M  V30 2202 O 206.295 1.20331 -1.54588 0
M  V30 2203 H 204.875 -0.425216 -0.614167 0
M  V30 2204 H 207.537 -1.61381 -1.0928 0
M  V30 2205 H 206.633 -1.6988 -2.61815 0
M  V30 2206 N 206.934 1.1197 -1.10907 0
M  V30 2207 C 208.18 1.8386 -0.855773 0
M  V30 2208 C 208.513 1.84134 0.617103 0
M  V30 2209 O 207.788 1.29041 1.45529 0
M  V30 2210 C 208.071 3.31305 -1.411 0
M  V30 2211 C 207.924 3.39456 -2.9511 0
M  V30 2212 C 209.243 4.2721 -1.05736 0
M  V30 2213 H 206.362 0.667545 -0.312334 0
M  V30 2214 H 209.004 1.31331 -1.37303 0
M  V30 2215 H 207.154 3.76169 -0.97105 0
M  V30 2216 H 208.826 3.03191 -3.47668 0
M  V30 2217 H 207.069 2.79849 -3.31462 0
M  V30 2218 H 207.74 4.43209 -3.29044 0
M  V30 2219 H 210.216 3.90497 -1.43706 0
M  V30 2220 H 209.092 5.28775 -1.47269 0
M  V30 2221 H 209.353 4.42088 0.0325958 0
M  V30 2222 N 208.412 0.89855 1.29475 0
M  V30 2223 C 209.661 0.519863 1.94885 0
M  V30 2224 C 209.974 -0.9383 1.71625 0
M  V30 2225 O 211.18 -1.42445 2.31131 0
M  V30 2226 C 209.636 0.878836 3.49005 0
M  V30 2227 C 209.244 2.35569 3.81066 0
M  V30 2228 C 210.988 0.570004 4.20656 0
M  V30 2229 C 208.895 2.65558 5.28425 0
M  V30 2230 H 207.825 0.190692 0.729488 0
M  V30 2231 H 210.476 1.09539 1.47219 0
M  V30 2232 H 208.858 0.232253 3.95318 0
M  V30 2233 H 210.032 3.04773 3.45616 0
M  V30 2234 H 208.347 2.63343 3.22552 0
M  V30 2235 H 210.944 0.770925 5.29113 0
M  V30 2236 H 211.287 -0.491404 4.1339 0
M  V30 2237 H 211.82 1.17438 3.8007 0
M  V30 2238 H 208.559 3.70493 5.40754 0
M  V30 2239 H 208.079 2.00977 5.65127 0
M  V30 2240 H 209.758 2.51765 5.96006 0
M  V30 2241 N 209.89 -1.43072 0.660911 0
M  V30 2242 C 210.853 -2.29194 -0.0166406 0
M  V30 2243 C 211.853 -1.42609 -0.742912 0
M  V30 2244 O 213.043 -1.64155 -0.583004 0
M  V30 2245 C 210.175 -3.24831 -1.0343 0
M  V30 2246 H 211.368 -2.90596 0.741208 0
M  V30 2247 H 208.921 -1.5048 0.422532 0
M  V30 2248 H 209.656 -2.68339 -1.82111 0
M  V30 2249 H 209.441 -3.88676 -0.517082 0
M  V30 2250 H 210.931 -3.89451 -1.50723 0
M  V30 2251 N 211.368 -0.403325 -1.52352 0
M  V30 2252 C 212.616 0.174003 -2.0135 0
M  V30 2253 C 212.937 1.46139 -1.29106 0
M  V30 2254 O 212.207 1.91448 -0.415253 0
M  V30 2255 H 210.787 0.0672911 -0.743963 0
M  V30 2256 H 213.449 -0.538235 -1.87321 0
M  V30 2257 H 212.545 0.374254 -3.09848 0
M  V30 2258 N 212.846 1.57033 -0.133567 0
M  V30 2259 C 213.809 2.14897 0.796995 0
M  V30 2260 C 214.809 1.0874 1.18458 0
M  V30 2261 O 215.999 1.34446 1.1077 0
M  V30 2262 C 213.131 2.70112 2.07973 0
M  V30 2263 H 214.324 2.98457 0.293873 0
M  V30 2264 H 211.877 1.55871 0.115787 0
M  V30 2265 H 212.612 1.9018 2.62682 0
M  V30 2266 H 212.397 3.47764 1.81115 0
M  V30 2267 H 213.887 3.14738 2.74462 0
M  V30 2268 N 214.325 -0.140222 1.56975 0
M  V30 2269 C 215.288 -1.15689 1.97861 0
M  V30 2270 C 216.288 -1.3549 0.865974 0
M  V30 2271 O 217.478 -1.32367 1.13246 0
M  V30 2272 C 214.61 -2.51582 2.30042 0
M  V30 2273 H 215.803 -0.805971 2.88867 0
M  V30 2274 H 213.356 -0.383801 1.51515 0
M  V30 2275 H 214.091 -2.91632 1.41849 0
M  V30 2276 H 213.876 -2.38569 3.11171 0
M  V30 2277 H 215.366 -3.24792 2.62488 0
M  V30 2278 N 215.803 -1.52179 -0.40978 0
M  V30 2279 C 216.766 -1.74853 -1.48186 0
M  V30 2280 C 217.766 -0.618417 -1.48433 0
M  V30 2281 O 218.956 -0.886286 -1.49969 0
M  V30 2282 C 216.088 -1.8303 -2.87598 0
M  V30 2283 H 217.281 -2.70559 -1.29374 0
M  V30 2284 H 214.834 -1.42586 -0.640233 0
M  V30 2285 H 215.569 -0.89236 -3.11781 0
M  V30 2286 H 215.354 -2.65187 -2.88822 0
M  V30 2287 H 216.844 -2.02316 -3.65319 0
M  V30 2288 N 217.281 0.66697 -1.42791 0
M  V30 2289 C 218.697 0.981027 -1.25889 0
M  V30 2290 C 218.897 2.00793 -0.168695 0
M  V30 2291 O 217.953 2.48321 0.45747 0
M  V30 2292 C 219.266 1.47838 -2.61848 0
M  V30 2293 C 220.814 1.59575 -2.69267 0
M  V30 2294 C 221.289 2.12704 -4.05612 0
M  V30 2295 N 222.78 2.20026 -4.07606 0
M  V30 2296 C 223.515 2.62227 -5.09926 0
M  V30 2297 N 223.011 3.03824 -6.22626 0
M  V30 2298 N 224.804 2.62045 -4.97281 0
M  V30 2299 H 216.955 -0.0127891 -2.12396 0
M  V30 2300 H 219.218 0.0568258 -0.946295 0
M  V30 2301 H 218.924 0.798299 -3.4252 0
M  V30 2302 H 218.798 2.45579 -2.86305 0
M  V30 2303 H 221.185 2.26687 -1.88936 0
M  V30 2304 H 221.266 0.60302 -2.48591 0
M  V30 2305 H 220.91 1.46198 -4.86404 0
M  V30 2306 H 220.84 3.12782 -4.23645 0
M  V30 2307 H 223.331 1.90708 -3.2625 0
M  V30 2308 H 223.644 3.34734 -6.96544 0
M  V30 2309 H 221.989 3.01662 -6.26119 0
M  V30 2310 H 225.18 2.28916 -4.08308 0
M  V30 2311 H 225.353 2.94613 -5.77154 0
M  V30 2312 N 218.759 1.29093 0.90403 0
M  V30 2313 C 219.689 1.16401 2.02418 0
M  V30 2314 C 220.67 0.0593085 1.69997 0
M  V30 2315 O 221.855 0.238021 1.92736 0
M  V30 2316 C 218.985 0.835233 3.37107 0
M  V30 2317 C 217.939 1.89578 3.83724 0
M  V30 2318 C 217.265 1.42041 5.15489 0
M  V30 2319 C 218.565 3.30394 4.04521 0
M  V30 2320 H 220.259 2.10109 2.13295 0
M  V30 2321 H 217.805 1.01157 1.02486 0
M  V30 2322 H 219.758 0.733169 4.14973 0
M  V30 2323 H 218.482 -0.137543 3.2631 0
M  V30 2324 H 217.141 1.98715 3.08071 0
M  V30 2325 H 216.789 0.436426 5.01103 0
M  V30 2326 H 216.489 2.12964 5.4765 0
M  V30 2327 H 218.013 1.33176 5.959 0
M  V30 2328 H 219.427 3.24123 4.72882 0
M  V30 2329 H 217.824 3.99237 4.48029 0
M  V30 2330 H 218.894 3.73692 3.09002 0
M  V30 2331 N 220.237 -1.11381 1.11499 0
M  V30 2332 C 221.514 -1.7955 0.775965 0
M  V30 2333 C 221.894 -1.97859 -0.73588 0
M  V30 2334 O 221.242 -1.56376 -1.66609 0
M  V30 2335 C 221.452 -3.13196 1.53977 0
M  V30 2336 C 222.8 -3.88227 1.71944 0
M  V30 2337 O 223.824 -3.22887 1.50407 0
M  V30 2338 O 222.683 -5.05477 2.07738 0
M  V30 2339 H 219.777 -0.777728 0.28119 0
M  V30 2340 H 222.323 -1.18118 1.21845 0
M  V30 2341 H 221.095 -2.95229 2.56818 0
M  V30 2342 H 220.718 -3.82342 1.09088 0
M  V30 2343 N 221.715 -0.905404 -1.28997 0
M  V30 2344 C 222.963 -0.533192 -1.9494 0
M  V30 2345 C 223.284 0.924618 -1.71685 0
M  V30 2346 O 222.554 1.65268 -1.05183 0
M  V30 2347 H 221.134 -0.194194 -0.721317 0
M  V30 2348 H 223.796 -1.15294 -1.57141 0
M  V30 2349 H 222.892 -0.72059 -3.03667 0
M  V30 2350 N 223.193 1.4272 -0.668489 0
M  V30 2351 C 224.123 2.335 -0.000100175 0
M  V30 2352 C 225.104 1.50328 0.795964 0
M  V30 2353 O 226.289 1.78949 0.754385 0
M  V30 2354 C 223.419 3.33874 0.956302 0
M  V30 2355 C 222.373 4.27152 0.269278 0
M  V30 2356 C 221.699 5.17684 1.33818 0
M  V30 2357 C 222.999 5.15373 -0.847805 0
M  V30 2358 H 224.693 2.89639 -0.758244 0
M  V30 2359 H 222.239 1.39269 -0.366079 0
M  V30 2360 H 224.192 3.9629 1.43292 0
M  V30 2361 H 222.916 2.76025 1.74579 0
M  V30 2362 H 221.575 3.66123 -0.187042 0
M  V30 2363 H 221.223 4.56165 2.1195 0
M  V30 2364 H 220.923 5.80918 0.883659 0
M  V30 2365 H 222.447 5.82974 1.81586 0
M  V30 2366 H 223.861 5.7151 -0.452681 0
M  V30 2367 H 222.258 5.87407 -1.22773 0
M  V30 2368 H 223.328 4.5415 -1.69929 0
M  V30 2369 N 224.671 0.411399 1.52136 0
M  V30 2370 C 225.919 -0.163322 2.01439 0
M  V30 2371 C 226.24 -1.45453 1.29879 0
M  V30 2372 O 225.51 -1.91225 0.4254 0
M  V30 2373 H 224.09 -0.0633447 0.744309 0
M  V30 2374 H 226.752 0.548161 1.87033 0
M  V30 2375 H 225.848 -0.357817 3.10042 0
M  V30 2376 N 226.149 -1.5696 0.141893 0
M  V30 2377 C 227.397 -1.95573 -0.509484 0
M  V30 2378 C 227.718 -1.02746 -1.65736 0
M  V30 2379 O 226.988 -0.0880311 -1.95702 0
M  V30 2380 H 225.568 -0.722115 -0.191205 0
M  V30 2381 H 228.23 -1.93697 0.216196 0
M  V30 2382 H 227.326 -2.99171 -0.889 0
M  V30 2383 N 227.627 0.131896 -1.57047 0
M  V30 2384 C 229.043 0.485031 -1.52051 0
M  V30 2385 C 229.243 1.82563 -0.85281 0
M  V30 2386 O 228.299 2.48817 -0.429694 0
M  V30 2387 C 229.612 0.481409 -2.96821 0
M  V30 2388 C 231.16 0.565868 -3.07842 0
M  V30 2389 C 231.635 0.592762 -4.54148 0
M  V30 2390 N 233.126 0.654564 -4.58552 0
M  V30 2391 C 233.861 0.696608 -5.69153 0
M  V30 2392 N 233.357 0.697078 -6.89284 0
M  V30 2393 N 235.15 0.738639 -5.57226 0
M  V30 2394 H 227.301 -0.746664 -1.98843 0
M  V30 2395 H 229.564 -0.273999 -0.90754 0
M  V30 2396 H 229.27 -0.435731 -3.4899 0
M  V30 2397 H 229.144 1.3139 -3.53577 0
M  V30 2398 H 231.531 1.47343 -2.55684 0
M  V30 2399 H 231.612 -0.29406 -2.54104 0
M  V30 2400 H 231.256 -0.310701 -5.06949 0
M  V30 2401 H 231.186 1.46939 -5.05684 0
M  V30 2402 H 233.677 0.660887 -3.72076 0
M  V30 2403 H 233.99 0.731426 -7.69331 0
M  V30 2404 H 232.335 0.66471 -6.91814 0
M  V30 2405 H 235.526 0.735545 -4.62285 0
M  V30 2406 H 235.699 0.767938 -6.43434 0
M  V30 2407 N 229.106 1.52395 0.401703 0
M  V30 2408 C 230.352 1.67065 1.14966 0
M  V30 2409 C 230.685 0.403052 1.89971 0
M  V30 2410 O 229.96 -0.598774 1.85054 0
M  V30 2411 C 230.243 2.8975 2.13815 0
M  V30 2412 C 230.096 4.26578 1.42658 0
M  V30 2413 C 231.415 3.07965 3.14397 0
M  V30 2414 H 228.534 0.607968 0.416587 0
M  V30 2415 H 231.176 1.84965 0.434511 0
M  V30 2416 H 229.326 2.74619 2.74803 0
M  V30 2417 H 230.998 4.53451 0.847329 0
M  V30 2418 H 229.241 4.27639 0.72849 0
M  V30 2419 H 229.912 5.08483 2.14823 0
M  V30 2420 H 232.388 3.22043 2.63491 0
M  V30 2421 H 231.264 3.95308 3.80819 0
M  V30 2422 H 231.525 2.21611 3.82545 0
M  V30 2423 N 230.584 -0.659388 1.43143 0
M  V30 2424 C 231.514 -1.78422 1.50625 0
M  V30 2425 C 232.495 -1.66216 0.361443 0
M  V30 2426 O 233.68 -1.85404 0.577834 0
M  V30 2427 C 230.81 -3.16815 1.42287 0
M  V30 2428 C 229.764 -3.43777 2.54954 0
M  V30 2429 C 229.09 -4.81905 2.31671 0
M  V30 2430 C 230.39 -3.39134 3.97222 0
M  V30 2431 H 232.084 -1.72417 2.44771 0
M  V30 2432 H 229.63 -0.828084 1.17808 0
M  V30 2433 H 231.583 -3.95253 1.46127 0
M  V30 2434 H 230.307 -3.23534 0.446435 0
M  V30 2435 H 228.966 -2.67707 2.50457 0
M  V30 2436 H 228.614 -4.85294 1.32284 0
M  V30 2437 H 228.314 -5.00906 3.07192 0
M  V30 2438 H 229.838 -5.62609 2.37284 0
M  V30 2439 H 231.252 -4.07518 4.03239 0
M  V30 2440 H 229.649 -3.69671 4.72719 0
M  V30 2441 H 230.719 -2.37426 4.22797 0
M  V30 2442 N 232.062 -1.29571 -0.897171 0
M  V30 2443 C 233.311 -1.1706 -1.64256 0
M  V30 2444 C 233.624 0.276476 -1.93636 0
M  V30 2445 O 234.83 0.52294 -2.66416 0
M  V30 2446 C 233.286 -2.0475 -2.95982 0
M  V30 2447 C 232.894 -3.54295 -2.74187 0
M  V30 2448 C 234.638 -2.0097 -3.73914 0
M  V30 2449 C 232.545 -4.34081 -4.01656 0
M  V30 2450 H 231.475 -0.43452 -0.616205 0
M  V30 2451 H 234.126 -1.54229 -0.994268 0
M  V30 2452 H 232.508 -1.60452 -3.62038 0
M  V30 2453 H 233.682 -4.06662 -2.1671 0
M  V30 2454 H 231.997 -3.59773 -2.09648 0
M  V30 2455 H 234.594 -2.57838 -4.68427 0
M  V30 2456 H 234.937 -0.990273 -4.0435 0
M  V30 2457 H 235.47 -2.43325 -3.14703 0
M  V30 2458 H 232.209 -5.36671 -3.76384 0
M  V30 2459 H 231.729 -3.86483 -4.58684 0
M  V30 2460 H 233.408 -4.44877 -4.69781 0
M  V30 2461 N 233.54 1.10788 -1.12088 0
M  V30 2462 C 234.786 1.82942 -0.875226 0
M  V30 2463 C 235.119 1.84779 0.597538 0
M  V30 2464 O 234.394 1.30578 1.44152 0
M  V30 2465 C 234.677 3.29789 -1.44606 0
M  V30 2466 C 234.53 3.36307 -2.98693 0
M  V30 2467 C 235.849 4.26064 -1.10261 0
M  V30 2468 H 232.968 0.664195 -0.319397 0
M  V30 2469 H 235.61 1.29867 -1.38689 0
M  V30 2470 H 233.76 3.75118 -1.01089 0
M  V30 2471 H 235.432 2.99487 -3.50864 0
M  V30 2472 H 233.675 2.76318 -3.34411 0
M  V30 2473 H 234.346 4.39694 -3.33726 0
M  V30 2474 H 236.822 3.88951 -1.4784 0
M  V30 2475 H 235.698 5.27183 -1.52869 0
M  V30 2476 H 235.959 4.42098 -0.0142953 0
M  V30 2477 N 235.018 0.912232 1.28515 0
M  V30 2478 C 236.295 0.463597 1.90027 0
M  V30 2479 C 236.675 -1.05753 1.82701 0
M  V30 2480 O 236.023 -1.90492 1.26194 0
M  V30 2481 C 236.233 0.992253 3.34597 0
M  V30 2482 C 237.581 1.04344 4.11579 0
M  V30 2483 O 238.605 0.94079 3.43551 0
M  V30 2484 O 237.464 1.1995 5.33174 0
M  V30 2485 H 234.558 0.146666 0.813891 0
M  V30 2486 H 237.104 1.00292 1.36893 0
M  V30 2487 H 235.876 2.03623 3.34146 0
M  V30 2488 H 235.499 0.433672 3.95228 0
M  V30 2489 N 236.496 -1.42363 0.676048 0
M  V30 2490 C 237.773 -1.95183 0.127726 0
M  V30 2491 C 238.153 -1.61641 -1.35777 0
M  V30 2492 O 237.501 -0.913216 -2.09458 0
M  V30 2493 C 237.711 -3.46721 0.398199 0
M  V30 2494 C 239.059 -4.23427 0.315383 0
M  V30 2495 O 240.083 -3.54649 0.332016 0
M  V30 2496 O 238.942 -5.45888 0.25865 0
M  V30 2497 H 236.036 -0.826992 0.00359427 0
M  V30 2498 H 238.582 -1.52184 0.750864 0
M  V30 2499 H 237.354 -3.64344 1.4272 0
M  V30 2500 H 236.977 -3.96769 -0.256885 0
M  V30 2501 N 237.974 -0.419461 -1.51915 0
M  V30 2502 C 238.922 0.415502 -2.28859 0
M  V30 2503 C 239.916 1.03674 -1.3397 0
M  V30 2504 O 241.122 0.973757 -1.51387 0
M  V30 2505 H 237.497 0.152786 -0.736315 0
M  V30 2506 H 239.468 -0.254531 -2.97312 0
M  V30 2507 C 238.217 1.51425 -3.12995 0
M  V30 2508 H 237.54 1.04556 -3.85886 0
M  V30 2509 H 238.98 2.07208 -3.6992 0
M  V30 2510 C 237.439 2.48745 -2.27217 0
M  V30 2511 O 237.969 3.52871 -1.9195 0
M  V30 2512 N 236.175 2.19202 -1.90785 0
M  V30 2513 H 235.722 1.34556 -2.19664 0
M  V30 2514 H 235.68 2.84561 -1.33687 0
M  V30 2515 N 239.452 1.56882 -0.150215 0
M  V30 2516 C 240.362 2.20494 0.801222 0
M  V30 2517 C 241.378 1.19019 1.26927 0
M  V30 2518 O 242.554 1.51607 1.32579 0
M  V30 2519 C 239.619 2.81659 2.02161 0
M  V30 2520 C 238.68 3.9827 1.60249 0
M  V30 2521 C 237.913 4.56508 2.7647 0
M  V30 2522 O 238.136 4.13627 3.92771 0
M  V30 2523 O 237.07 5.46719 2.51757 0
M  V30 2524 H 240.896 3.02315 0.289717 0
M  V30 2525 H 238.481 1.49202 0.0769684 0
M  V30 2526 H 240.363 3.20522 2.73576 0
M  V30 2527 H 239.038 2.02849 2.52258 0
M  V30 2528 H 237.945 3.64117 0.858477 0
M  V30 2529 H 239.278 4.78609 1.14864 0
M  V30 2530 N 240.93 -0.123565 1.57115 0
M  V30 2531 C 242.346 -0.476961 1.52306 0
M  V30 2532 C 242.546 -1.82109 0.86248 0
M  V30 2533 O 241.602 -2.48586 0.442884 0
M  V30 2534 C 242.915 -0.465661 2.97073 0
M  V30 2535 C 244.463 -0.549534 3.08138 0
M  V30 2536 C 244.938 -0.568669 4.54456 0
M  V30 2537 N 246.429 -0.630237 4.58892 0
M  V30 2538 C 247.164 -0.666415 5.69514 0
M  V30 2539 N 246.66 -0.660514 6.89644 0
M  V30 2540 N 248.453 -0.709077 5.5761 0
M  V30 2541 H 240.604 0.757198 1.98445 0
M  V30 2542 H 242.867 0.278808 0.906074 0
M  V30 2543 H 242.573 0.454232 3.48754 0
M  V30 2544 H 242.447 -1.29513 3.54269 0
M  V30 2545 H 244.834 -1.45985 2.56461 0
M  V30 2546 H 244.915 0.307532 2.53945 0
M  V30 2547 H 244.559 0.337581 5.06777 0
M  V30 2548 H 244.489 -1.44256 5.06456 0
M  V30 2549 H 246.98 -0.641146 3.72421 0
M  V30 2550 H 247.293 -0.690616 7.69708 0
M  V30 2551 H 245.638 -0.628012 6.92157 0
M  V30 2552 H 248.829 -0.711019 4.62668 0
M  V30 2553 H 249.002 -0.733804 6.43832 0
M  V30 2554 N 242.408 -1.52605 -0.393616 0
M  V30 2555 C 243.34 -1.73303 -1.49995 0
M  V30 2556 C 244.353 -0.613473 -1.50799 0
M  V30 2557 O 245.542 -0.889049 -1.54784 0
M  V30 2558 C 242.642 -1.77245 -2.88855 0
M  V30 2559 C 241.815 -3.06483 -3.12069 0
M  V30 2560 C 240.874 -3.02033 -4.30886 0
M  V30 2561 O 239.9 -3.75907 -4.27414 0
M  V30 2562 N 241.102 -2.20897 -5.36828 0
M  V30 2563 H 243.867 -2.68756 -1.32629 0
M  V30 2564 H 241.428 -1.51036 -0.583083 0
M  V30 2565 H 243.42 -1.7178 -3.66434 0
M  V30 2566 H 241.99 -0.891993 -2.99603 0
M  V30 2567 H 241.21 -3.25474 -2.22396 0
M  V30 2568 H 242.498 -3.91947 -3.2443 0
M  V30 2569 H 241.896 -1.60336 -5.42502 0
M  V30 2570 H 240.453 -2.21275 -6.13091 0
M  V30 2571 N 243.887 0.651787 -1.4349 0
M  V30 2572 C 244.85 1.74647 -1.48429 0
M  V30 2573 C 245.85 1.56513 -0.368817 0
M  V30 2574 O 247.04 1.62385 -0.630623 0
M  V30 2575 C 244.172 3.13533 -1.33827 0
M  V30 2576 H 245.365 1.71649 -2.4592 0
M  V30 2577 H 242.918 0.863573 -1.30277 0
M  V30 2578 H 243.653 3.22142 -0.37349 0
M  V30 2579 H 243.438 3.28101 -2.14691 0
M  V30 2580 H 244.928 3.93356 -1.40218 0
M  V30 2581 N 245.365 1.30045 0.890287 0
M  V30 2582 C 246.297 1.11786 2.00091 0
M  V30 2583 C 247.31 0.0626307 1.62679 0
M  V30 2584 O 248.499 0.308112 1.75821 0
M  V30 2585 C 245.599 0.681527 3.31977 0
M  V30 2586 C 244.772 1.81735 3.97858 0
M  V30 2587 C 243.831 1.37045 5.08041 0
M  V30 2588 O 242.857 2.07677 5.29961 0
M  V30 2589 N 244.059 0.246525 5.79976 0
M  V30 2590 H 246.824 2.07441 2.16306 0
M  V30 2591 H 244.385 1.2211 1.06305 0
M  V30 2592 H 246.377 0.365675 4.03045 0
M  V30 2593 H 244.947 -0.182828 3.12065 0
M  V30 2594 H 244.167 2.30159 3.20032 0
M  V30 2595 H 245.455 2.57865 4.38615 0
M  V30 2596 H 244.853 -0.34215 5.64664 0
M  V30 2597 H 243.41 -0.00990438 6.51799 0
M  V30 2598 N 246.843 -1.10192 1.12674 0
M  V30 2599 C 248.259 -1.34235 0.863317 0
M  V30 2600 C 248.459 -1.95062 -0.505277 0
M  V30 2601 O 247.515 -2.19192 -1.25345 0
M  V30 2602 C 248.828 -2.2616 1.98172 0
M  V30 2603 C 250.376 -2.3969 2.0129 0
M  V30 2604 C 250.851 -3.34946 3.1237 0
M  V30 2605 N 252.342 -3.42515 3.11829 0
M  V30 2606 C 253.077 -4.16199 3.94419 0
M  V30 2607 N 252.573 -4.92747 4.87004 0
M  V30 2608 N 254.366 -4.11843 3.82547 0
M  V30 2609 H 246.517 -0.690798 2.00853 0
M  V30 2610 H 248.78 -0.366774 0.874174 0
M  V30 2611 H 248.486 -1.8868 2.96804 0
M  V30 2612 H 248.36 -3.26488 1.88906 0
M  V30 2613 H 250.747 -2.76438 1.03276 0
M  V30 2614 H 250.828 -1.39169 2.14629 0
M  V30 2615 H 250.472 -2.98923 4.10619 0
M  V30 2616 H 250.402 -4.35353 2.96269 0
M  V30 2617 H 252.893 -2.87926 2.44759 0
M  V30 2618 H 253.206 -5.46376 5.46528 0
M  V30 2619 H 251.551 -4.91862 4.91016 0
M  V30 2620 H 254.742 -3.51136 3.0955 0
M  V30 2621 H 254.915 -4.69007 4.47142 0
M  V30 2622 N 248.321 -0.919034 -1.28029 0
M  V30 2623 C 249.567 -0.555757 -1.95036 0
M  V30 2624 C 249.9 0.899198 -1.72128 0
M  V30 2625 O 249.175 1.64023 -1.04531 0
M  V30 2626 C 249.458 -0.872024 -3.49382 0
M  V30 2627 C 249.311 -2.3801 -3.81669 0
M  V30 2628 C 250.63 -0.37185 -4.38526 0
M  V30 2629 H 247.749 -0.203386 -0.708381 0
M  V30 2630 H 250.391 -1.14924 -1.51303 0
M  V30 2631 H 248.541 -0.366946 -3.86763 0
M  V30 2632 H 250.213 -2.9562 -3.54128 0
M  V30 2633 H 248.456 -2.83289 -3.28526 0
M  V30 2634 H 249.127 -2.55192 -4.8947 0
M  V30 2635 H 251.603 -0.804602 -4.08247 0
M  V30 2636 H 250.479 -0.622173 -5.45362 0
M  V30 2637 H 250.74 0.727934 -4.36066 0
M  V30 2638 N 249.799 1.42003 -0.683588 0
M  V30 2639 C 250.762 2.29191 -0.0198243 0
M  V30 2640 C 251.762 1.43773 0.72013 0
M  V30 2641 O 252.952 1.65061 0.556815 0
M  V30 2642 C 250.084 3.26435 0.982487 0
M  V30 2643 H 251.277 2.8938 -0.787345 0
M  V30 2644 H 248.83 1.49789 -0.446418 0
M  V30 2645 H 249.565 2.71203 1.77819 0
M  V30 2646 H 249.35 3.89449 0.455182 0
M  V30 2647 H 250.84 3.918 1.44508 0
M  V30 2648 N 251.277 0.427512 1.51691 0
M  V30 2649 C 252.24 -0.377132 2.26076 0
M  V30 2650 C 253.24 -0.958089 1.29141 0
M  V30 2651 O 254.43 -0.83408 1.52934 0
M  V30 2652 C 251.562 -1.53262 3.04506 0
M  V30 2653 H 252.755 0.27464 2.9864 0
M  V30 2654 H 250.308 0.180445 1.55255 0
M  V30 2655 H 251.043 -2.22072 2.36335 0
M  V30 2656 H 250.828 -1.12232 3.75694 0
M  V30 2657 H 252.318 -2.10135 3.60878 0
M  V30 2658 N 252.755 -1.56801 0.158532 0
M  V30 2659 C 253.665 -2.20916 -0.789518 0
M  V30 2660 C 254.681 -1.1969 -1.26294 0
M  V30 2661 O 255.857 -1.52308 -1.31773 0
M  V30 2662 C 252.922 -2.82727 -2.00665 0
M  V30 2663 C 251.983 -3.99114 -1.58134 0
M  V30 2664 C 251.216 -4.57968 -2.74045 0
M  V30 2665 O 251.439 -4.15704 -3.90572 0
M  V30 2666 O 250.373 -5.48047 -2.48855 0
M  V30 2667 H 254.199 -3.02464 -0.273681 0
M  V30 2668 H 251.784 -1.4924 -0.0690548 0
M  V30 2669 H 253.666 -3.21968 -2.71872 0
M  V30 2670 H 252.341 -2.04184 -2.51179 0
M  V30 2671 H 251.248 -3.64567 -0.839155 0
M  V30 2672 H 252.581 -4.79212 -1.12325 0
M  V30 2673 N 254.233 0.115231 -1.57178 0
M  V30 2674 C 255.163 1.1423 -2.03651 0
M  V30 2675 C 256.144 1.42967 -0.921655 0
M  V30 2676 O 257.329 1.53343 -1.19162 0
M  V30 2677 C 254.459 2.4675 -2.44401 0
M  V30 2678 C 253.413 2.32467 -3.59365 0
M  V30 2679 C 252.739 3.69984 -3.86026 0
M  V30 2680 C 254.039 1.78203 -4.90959 0
M  V30 2681 H 255.733 0.755749 -2.89705 0
M  V30 2682 H 253.279 0.362093 -1.39373 0
M  V30 2683 H 255.232 3.18854 -2.75517 0
M  V30 2684 H 253.956 2.87302 -1.55322 0
M  V30 2685 H 252.615 1.62811 -3.28463 0
M  V30 2686 H 252.263 4.08028 -2.94147 0
M  V30 2687 H 251.963 3.61279 -4.63412 0
M  V30 2688 H 253.487 4.43587 -4.19599 0
M  V30 2689 H 254.901 2.40128 -5.20587 0
M  V30 2690 H 253.298 1.8031 -5.72371 0
M  V30 2691 H 254.368 0.739876 -4.79222 0
M  V30 2692 N 255.711 1.52812 0.385517 0
M  V30 2693 C 256.959 1.67694 1.12797 0
M  V30 2694 C 257.28 0.421115 1.90399 0
M  V30 2695 O 256.55 -0.564551 1.87589 0
M  V30 2696 H 255.13 0.618155 0.419396 0
M  V30 2697 H 257.792 1.89938 0.436972 0
M  V30 2698 H 256.888 2.52896 1.82894 0
M  V30 2699 N 257.189 -0.644168 1.43834 0
M  V30 2700 C 258.435 -1.40603 1.46146 0
M  V30 2701 C 258.768 -1.93997 0.0887717 0
M  V30 2702 O 258.043 -1.72854 -0.891724 0
M  V30 2703 C 258.326 -2.58086 2.51124 0
M  V30 2704 C 258.179 -2.10126 3.97702 0
M  V30 2705 C 259.498 -3.60291 2.52742 0
M  V30 2706 H 256.617 -0.509905 0.532134 0
M  V30 2707 H 259.259 -0.729502 1.75437 0
M  V30 2708 H 257.409 -3.15801 2.26278 0
M  V30 2709 H 259.081 -1.57342 4.33637 0
M  V30 2710 H 257.324 -1.41419 4.10101 0
M  V30 2711 H 257.995 -2.94649 4.66783 0
M  V30 2712 H 260.471 -3.12352 2.7491 0
M  V30 2713 H 259.347 -4.40032 3.28121 0
M  V30 2714 H 259.608 -4.1349 1.56455 0
M  V30 2715 N 258.668 -1.30515 -0.883378 0
M  V30 2716 C 259.578 -1.18959 -2.02203 0
M  V30 2717 C 260.594 -0.109172 -1.73657 0
M  V30 2718 O 261.77 -0.324413 -1.9877 0
M  V30 2719 C 258.835 -0.883871 -3.35244 0
M  V30 2720 C 257.896 -2.04982 -3.77201 0
M  V30 2721 C 257.129 -1.75859 -5.03894 0
M  V30 2722 O 257.352 -0.687276 -5.66244 0
M  V30 2723 O 256.286 -2.61146 -5.42297 0
M  V30 2724 H 260.112 -2.14616 -2.1488 0
M  V30 2725 H 257.697 -1.10124 -1.0096 0
M  V30 2726 H 259.579 -0.728644 -4.15053 0
M  V30 2727 H 258.254 0.0427798 -3.23672 0
M  V30 2728 H 257.161 -2.26038 -2.9809 0
M  V30 2729 H 258.494 -2.95825 -3.93381 0
M  V30 2730 N 260.146 1.09593 -1.13257 0
M  V30 2731 C 261.096 2.14345 -0.777179 0
M  V30 2732 C 262.08 1.59277 0.227966 0
M  V30 2733 O 263.272 1.76971 0.0321413 0
M  V30 2734 C 260.401 3.42439 -0.242991 0
M  V30 2735 C 259.487 4.04419 -1.27694 0
M  V30 2736 N 259.878 4.40979 -2.47732 0
M  V30 2737 C 258.176 4.31596 -1.12432 0
M  V30 2738 C 258.877 4.89784 -3.13826 0
M  V30 2739 N 257.853 4.87133 -2.41252 0
M  V30 2740 H 261.655 2.40415 -1.69049 0
M  V30 2741 H 259.169 1.26803 -1.01463 0
M  V30 2742 H 261.166 4.16889 0.0298496 0
M  V30 2743 H 259.826 3.17824 0.66467 0
M  V30 2744 H 260.837 4.32396 -2.85051 0
M  V30 2745 H 257.514 4.16595 -0.274684 0
M  V30 2746 H 258.904 5.2755 -4.16102 0
M  V30 2747 N 261.624 0.925811 1.2754 0
M  V30 2748 C 263.04 0.625767 1.46821 0
M  V30 2749 C 263.24 -0.825506 1.83814 0
M  V30 2750 O 262.296 -1.60356 1.95044 0
M  V30 2751 C 263.609 1.57402 2.56213 0
M  V30 2752 C 265.157 1.58204 2.70075 0
M  V30 2753 C 265.632 2.51721 3.82623 0
M  V30 2754 N 267.123 2.49917 3.89994 0
M  V30 2755 C 267.858 3.18968 4.76494 0
M  V30 2756 N 267.354 3.97391 5.67496 0
M  V30 2757 N 269.147 3.07996 4.70208 0
M  V30 2758 H 261.298 1.86409 1.01811 0
M  V30 2759 H 263.561 0.800213 0.508295 0
M  V30 2760 H 263.267 2.60925 2.35819 0
M  V30 2761 H 263.141 1.31428 3.53563 0
M  V30 2762 H 265.528 0.554124 2.89851 0
M  V30 2763 H 265.609 1.88226 1.73218 0
M  V30 2764 H 265.253 3.54622 3.63601 0
M  V30 2765 H 265.183 2.18996 4.78903 0
M  V30 2766 H 267.674 1.9296 3.24923 0
M  V30 2767 H 267.987 4.4707 6.30356 0
M  V30 2768 H 266.332 4.01495 5.67298 0
M  V30 2769 H 269.523 2.46223 3.9811 0
M  V30 2770 H 269.696 3.6208 5.37403 0
M  V30 2771 N 263.102 -1.41638 0.69111 0
M  V30 2772 C 264.513 -1.84346 0.295517 0
M  V30 2773 C 264.864 -1.57833 -1.16547 0
M  V30 2774 O 263.989 -1.04648 -1.89414 0
M  V30 2775 C 264.584 -3.34636 0.529575 0
M  V30 2776 C 263.143 -3.7593 0.187944 0
M  V30 2777 C 262.29 -2.65082 0.814052 0
M  V30 2778 H 265.241 -1.31253 0.892092 0
M  V30 2779 H 265.262 -3.79903 -0.213148 0
M  V30 2780 H 264.774 -3.53901 1.59297 0
M  V30 2781 H 262.875 -3.62268 -0.871367 0
M  V30 2782 H 262.988 -4.74808 0.63985 0
M  V30 2783 H 261.352 -2.53528 0.244017 0
M  V30 2784 H 262.135 -2.87167 1.88123 0
M  V30 2785 N 264.58 -0.43555 -1.51462 0
M  V30 2786 C 265.826 0.131709 -2.02372 0
M  V30 2787 C 266.159 1.42516 -1.3192 0
M  V30 2788 O 265.434 1.89606 -0.433573 0
M  V30 2789 C 265.717 0.352301 -3.58373 0
M  V30 2790 C 265.57 -0.959676 -4.39443 0
M  V30 2791 C 266.889 1.12286 -4.25535 0
M  V30 2792 H 264.008 0.0463936 -0.735538 0
M  V30 2793 H 266.65 -0.574197 -1.81116 0
M  V30 2794 H 264.8 0.9536 -3.76615 0
M  V30 2795 H 266.472 -1.59482 -4.32855 0
M  V30 2796 H 264.715 -1.56468 -4.04599 0
M  V30 2797 H 265.386 -0.759394 -5.46752 0
M  V30 2798 H 267.862 0.613545 -4.11552 0
M  V30 2799 H 266.738 1.24598 -5.34571 0
M  V30 2800 H 266.999 2.15048 -3.86273 0
M  V30 2801 N 266.058 1.56714 -0.166846 0
M  V30 2802 C 267.307 1.95922 0.479318 0
M  V30 2803 C 267.62 1.05529 1.6469 0
M  V30 2804 O 268.826 1.34399 2.35901 0
M  V30 2805 C 267.282 3.48359 0.90412 0
M  V30 2806 C 266.89 4.47369 -0.237621 0
M  V30 2807 C 268.634 3.96394 1.51896 0
M  V30 2808 C 266.541 5.91039 0.206561 0
M  V30 2809 H 265.471 0.731495 0.18284 0
M  V30 2810 H 268.122 1.81728 -0.254363 0
M  V30 2811 H 266.504 3.57955 1.69365 0
M  V30 2812 H 267.678 4.49485 -1.01489 0
M  V30 2813 H 265.993 4.09366 -0.762128 0
M  V30 2814 H 268.59 5.01186 1.86325 0
M  V30 2815 H 268.933 3.39075 2.41524 0
M  V30 2816 H 269.466 3.89796 0.79395 0
M  V30 2817 H 266.205 6.52221 -0.654834 0
M  V30 2818 H 265.725 5.9224 0.949282 0
M  V30 2819 H 267.404 6.43707 0.651939 0
M  V30 2820 N 267.536 -0.106894 1.57237 0
M  V30 2821 C 268.446 -1.14911 2.0453 0
M  V30 2822 C 269.462 -1.44592 0.96795 0
M  V30 2823 O 270.638 -1.55468 1.2803 0
M  V30 2824 C 267.703 -2.45272 2.45036 0
M  V30 2825 C 266.764 -2.22879 3.66911 0
M  V30 2826 C 265.997 -3.47024 4.05475 0
M  V30 2827 O 266.22 -4.54804 3.44252 0
M  V30 2828 O 265.154 -3.3731 4.98504 0
M  V30 2829 H 268.98 -0.777461 2.9358 0
M  V30 2830 H 266.565 -0.318563 1.45964 0
M  V30 2831 H 268.447 -3.22055 2.71769 0
M  V30 2832 H 267.122 -2.81886 1.59129 0
M  V30 2833 H 266.029 -1.43915 3.45311 0
M  V30 2834 H 267.362 -1.91163 4.53561 0
M  V30 2835 N 269.014 -1.53014 -0.377408 0
M  V30 2836 C 270.239 -1.72818 -1.14668 0
M  V30 2837 C 270.664 -0.450725 -1.8262 0
M  V30 2838 O 270.022 0.59439 -1.7128 0
M  V30 2839 C 270.07 -2.88627 -2.16164 0
M  V30 2840 O 269.174 -2.56409 -3.22998 0
M  V30 2841 H 268.515 -0.574301 -0.333278 0
M  V30 2842 H 271.045 -1.99853 -0.438152 0
M  V30 2843 H 271.055 -3.14455 -2.59966 0
M  V30 2844 H 269.73 -3.81294 -1.66095 0
M  V30 2845 H 268.307 -2.4136 -2.84253 0
M  V30 2846 N 270.492 0.636531 -1.44174 0
M  V30 2847 C 271.769 1.39463 -1.37148 0
M  V30 2848 C 272.149 2.11082 -0.027507 0
M  V30 2849 O 271.497 2.05954 0.989716 0
M  V30 2850 C 271.707 2.36552 -2.56601 0
M  V30 2851 C 273.055 3.00048 -3.00427 0
M  V30 2852 O 274.079 2.46878 -2.56767 0
M  V30 2853 O 272.938 3.96488 -3.76111 0
M  V30 2854 H 270.032 0.623903 -0.542839 0
M  V30 2855 H 272.578 0.662039 -1.56253 0
M  V30 2856 H 271.35 1.82692 -3.46034 0
M  V30 2857 H 270.973 3.17236 -2.39681 0
M  V30 2858 N 271.97 1.30982 0.876444 0
M  V30 2859 C 273.381 1.18277 1.44456 0
M  V30 2860 C 273.732 -0.213265 1.95037 0
M  V30 2861 O 272.857 -1.11057 1.85729 0
M  V30 2862 C 273.452 2.1411 2.62569 0
M  V30 2863 C 272.011 2.05358 3.15444 0
M  V30 2864 C 271.158 2.03706 1.88146 0
M  V30 2865 H 274.109 1.43127 0.685584 0
M  V30 2866 H 274.13 1.72692 3.39054 0
M  V30 2867 H 273.642 3.15706 2.25724 0
M  V30 2868 H 271.743 1.06934 3.56926 0
M  V30 2869 H 271.856 2.94156 3.78166 0
M  V30 2870 H 270.22 1.48629 2.06837 0
M  V30 2871 H 271.003 3.07047 1.53547 0
M  V30 2872 N 273.449 -1.08991 1.13837 0
M  V30 2873 C 274.359 -2.19301 0.833333 0
M  V30 2874 C 275.375 -1.73026 -0.183847 0
M  V30 2875 O 276.551 -2.01395 -0.0138092 0
M  V30 2876 C 273.616 -3.45323 0.308651 0
M  V30 2877 C 272.677 -4.06255 1.38764 0
M  V30 2878 C 271.91 -5.26262 0.887896 0
M  V30 2879 O 272.133 -5.69747 -0.27287 0
M  V30 2880 O 271.067 -5.78435 1.66421 0
M  V30 2881 H 274.893 -2.47854 1.75506 0
M  V30 2882 H 272.478 -1.18012 0.916166 0
M  V30 2883 H 274.36 -4.21394 0.0216739 0
M  V30 2884 H 273.035 -3.18362 -0.585431 0
M  V30 2885 H 271.942 -3.318 1.72799 0
M  V30 2886 H 273.275 -4.37452 2.25602 0
M  V30 2887 N 274.927 -0.932562 -1.27047 0
M  V30 2888 C 275.874 -0.434072 -2.26681 0
M  V30 2889 C 276.844 0.501639 -1.58344 0
M  V30 2890 O 278.029 0.419734 -1.86126 0
M  V30 2891 C 275.169 0.30261 -3.43771 0
M  V30 2892 C 274.282 -0.667774 -4.26808 0
M  V30 2893 C 273.417 0.0892393 -5.31125 0
M  V30 2894 C 272.456 -0.873532 -6.05835 0
M  V30 2895 N 271.593 -0.148832 -7.01942 0
M  V30 2896 H 276.433 -1.28868 -2.68695 0
M  V30 2897 H 273.97 -0.646713 -1.32121 0
M  V30 2898 H 275.928 0.746092 -4.10474 0
M  V30 2899 H 274.558 1.12142 -3.02695 0
M  V30 2900 H 273.61 -1.22978 -3.59973 0
M  V30 2901 H 274.922 -1.40337 -4.78651 0
M  V30 2902 H 274.076 0.592409 -6.03801 0
M  V30 2903 H 272.815 0.85777 -4.80097 0
M  V30 2904 H 271.82 -1.38791 -5.31994 0
M  V30 2905 H 273.045 -1.64193 -6.58952 0
M  V30 2906 H 270.991 0.601365 -6.53238 0
M  V30 2907 H 270.908 -0.82391 -7.51497 0
M  V30 2908 H 272.176 0.333527 -7.78786 0
M  V30 2909 N 276.405 1.4127 -0.698611 0
M  V30 2910 C 277.368 2.29158 -0.044132 0
M  V30 2911 C 278.368 1.44529 0.704841 0
M  V30 2912 O 279.558 1.65643 0.539276 0
M  V30 2913 C 276.69 3.27459 0.947809 0
M  V30 2914 H 277.883 2.88529 -0.817994 0
M  V30 2915 H 275.436 1.49307 -0.46228 0
M  V30 2916 H 276.171 2.73073 1.74933 0
M  V30 2917 H 275.956 3.8991 0.41385 0
M  V30 2918 H 277.446 3.93311 1.40344 0
M  V30 2919 N 277.883 0.443576 1.51229 0
M  V30 2920 C 278.83 -0.364716 2.279 0
M  V30 2921 C 279.8 -1.0114 1.31757 0
M  V30 2922 O 280.985 -1.02912 1.60667 0
M  V30 2923 C 278.125 -1.45644 3.12861 0
M  V30 2924 C 277.238 -0.827269 4.24005 0
M  V30 2925 C 276.373 -1.89456 4.96266 0
M  V30 2926 C 275.412 -1.24416 5.99322 0
M  V30 2927 N 274.549 -2.25309 6.64966 0
M  V30 2928 H 279.389 0.295464 2.96532 0
M  V30 2929 H 276.926 0.157554 1.46254 0
M  V30 2930 H 278.884 -2.10076 3.6045 0
M  V30 2931 H 277.514 -2.08616 2.46331 0
M  V30 2932 H 276.566 -0.0710839 3.80334 0
M  V30 2933 H 277.878 -0.312481 4.9782 0
M  V30 2934 H 277.032 -2.61535 5.47434 0
M  V30 2935 H 275.771 -2.4431 4.22095 0
M  V30 2936 H 274.776 -0.508868 5.4744 0
M  V30 2937 H 276.001 -0.702882 6.75453 0
M  V30 2938 H 273.947 -2.79231 5.93604 0
M  V30 2939 H 273.864 -1.78739 7.34567 0
M  V30 2940 H 275.132 -2.96853 7.20763 0
M  V30 2941 N 279.361 -1.56624 0.175154 0
M  V30 2942 C 280.61 -1.96173 -0.468921 0
M  V30 2943 C 280.923 -1.06401 -1.64128 0
M  V30 2944 O 282.129 -1.35648 -2.35185 0
M  V30 2945 C 280.585 -3.48833 -0.885633 0
M  V30 2946 C 280.193 -4.47237 0.261343 0
M  V30 2947 C 281.937 -3.97194 -1.49791 0
M  V30 2948 C 279.844 -5.9114 -0.175214 0
M  V30 2949 H 278.774 -0.732455 -0.178958 0
M  V30 2950 H 281.425 -1.81591 0.263997 0
M  V30 2951 H 279.807 -3.58848 -1.67464 0
M  V30 2952 H 280.981 -4.4894 1.03871 0
M  V30 2953 H 279.296 -4.08956 0.783827 0
M  V30 2954 H 281.893 -5.02167 -1.83665 0
M  V30 2955 H 282.236 -3.40351 -2.39722 0
M  V30 2956 H 282.769 -3.90212 -0.773267 0
M  V30 2957 H 279.508 -6.51865 0.689414 0
M  V30 2958 H 279.028 -5.92735 -0.91786 0
M  V30 2959 H 280.707 -6.44044 -0.617792 0
M  V30 2960 N 280.839 0.0985539 -1.57292 0
M  V30 2961 C 282.064 0.820196 -1.90493 0
M  V30 2962 C 282.489 1.71658 -0.769094 0
M  V30 2963 O 281.847 1.79133 0.279495 0
M  V30 2964 C 281.895 1.61242 -3.22542 0
M  V30 2965 O 280.999 2.72108 -3.09888 0
M  V30 2966 H 280.34 0.225547 -0.62452 0
M  V30 2967 H 282.87 0.0748159 -2.04463 0
M  V30 2968 H 282.88 1.99737 -3.55766 0
M  V30 2969 H 281.555 0.954535 -4.04798 0
M  V30 2970 H 280.132 2.36667 -2.88172 0
M  V30 2971 N 282.317 1.53212 0.369288 0
M  V30 2972 C 283.28 1.7872 1.43498 0
M  V30 2973 C 284.28 0.657554 1.46741 0
M  V30 2974 O 285.47 0.925736 1.47566 0
M  V30 2975 C 282.602 1.90591 2.82645 0
M  V30 2976 H 283.795 2.73894 1.22156 0
M  V30 2977 H 281.348 1.44233 0.602203 0
M  V30 2978 H 282.083 0.974709 3.09306 0
M  V30 2979 H 281.868 2.72751 2.8169 0
M  V30 2980 H 283.358 2.11931 3.59826 0
M  V30 2981 N 283.795 -0.628877 1.44509 0
M  V30 2982 C 285.043 -1.38565 1.4712 0
M  V30 2983 C 285.364 -1.94712 0.105899 0
M  V30 2984 O 284.634 -1.75912 -0.862079 0
M  V30 2985 H 283.214 -0.514333 0.541729 0
M  V30 2986 H 285.876 -0.740018 1.80305 0
M  V30 2987 H 284.972 -2.21583 2.19789 0
M  V30 2988 N 285.273 -1.31445 -0.869486 0
M  V30 2989 C 286.521 -1.20918 -1.61936 0
M  V30 2990 C 286.842 0.232683 -1.93607 0
M  V30 2991 O 286.112 1.15352 -1.58338 0
M  V30 2992 H 284.692 -0.44454 -0.600328 0
M  V30 2993 H 287.354 -1.64776 -1.0409 0
M  V30 2994 H 286.45 -1.78124 -2.56278 0
M  V30 2995 N 286.751 1.08385 -1.14413 0
M  V30 2996 C 288.162 1.62258 -0.923535 0
M  V30 2997 C 288.513 1.88691 0.537595 0
M  V30 2998 O 287.638 1.64454 1.40655 0
M  V30 2999 C 288.233 2.94781 -1.67002 0
M  V30 3000 C 286.792 3.45437 -1.495 0
M  V30 3001 C 285.939 2.19668 -1.69238 0
M  V30 3002 H 288.89 0.916086 -1.2959 0
M  V30 3003 H 288.911 3.63229 -1.13334 0
M  V30 3004 H 288.423 2.7551 -2.73342 0
M  V30 3005 H 286.524 3.6981 -0.455097 0
M  V30 3006 H 286.637 4.22173 -2.2651 0
M  V30 3007 H 285.001 2.28849 -1.11804 0
M  V30 3008 H 285.784 2.02905 -2.7692 0
M  V30 3009 N 288.23 0.939286 1.26551 0
M  V30 3010 C 289.476 0.586715 1.94128 0
M  V30 3011 C 289.809 -0.8717 1.73537 0
M  V30 3012 O 289.084 -1.62339 1.07127 0
M  V30 3013 C 289.367 0.927497 3.4795 0
M  V30 3014 C 289.22 2.44052 3.77834 0
M  V30 3015 C 290.539 0.441569 4.37879 0
M  V30 3016 H 287.658 0.21463 0.705055 0
M  V30 3017 H 290.3 1.17316 1.49455 0
M  V30 3018 H 288.45 0.428431 3.8613 0
M  V30 3019 H 290.122 3.01216 3.4938 0
M  V30 3020 H 288.365 2.8848 3.23978 0
M  V30 3021 H 289.036 2.62947 4.85348 0
M  V30 3022 H 291.512 0.869448 4.06915 0
M  V30 3023 H 290.388 0.708856 5.44304 0
M  V30 3024 H 290.649 -0.658467 4.37169 0
M  V30 3025 N 289.708 -1.40897 0.706093 0
M  V30 3026 C 290.985 -1.94868 0.169099 0
M  V30 3027 C 291.365 -1.64485 -1.32318 0
M  V30 3028 O 290.713 -0.95744 -2.07474 0
M  V30 3029 C 290.923 -3.45798 0.471654 0
M  V30 3030 C 292.271 -4.22663 0.405127 0
M  V30 3031 O 293.295 -3.53865 0.407168 0
M  V30 3032 O 292.154 -5.45216 0.374383 0
M  V30 3033 H 289.248 -0.82673 0.0211352 0
M  V30 3034 H 291.794 -1.50558 0.782976 0
M  V30 3035 H 290.566 -3.61235 1.50416 0
M  V30 3036 H 290.189 -3.97225 -0.172666 0
M  V30 3037 N 291.186 -0.45159 -1.50991 0
M  V30 3038 C 292.116 0.342898 -2.30969 0
M  V30 3039 C 293.097 1.00815 -1.37005 0
M  V30 3040 O 294.282 1.00907 -1.65926 0
M  V30 3041 C 291.412 1.43637 -3.16205 0
M  V30 3042 C 290.366 0.893818 -4.18563 0
M  V30 3043 C 289.692 2.08411 -4.92411 0
M  V30 3044 C 290.992 -0.0815568 -5.22236 0
M  V30 3045 H 292.686 -0.324556 -2.97636 0
M  V30 3046 H 290.232 -0.157531 -1.43136 0
M  V30 3047 H 292.185 1.9995 -3.70942 0
M  V30 3048 H 290.909 2.13232 -2.47386 0
M  V30 3049 H 289.568 0.352798 -3.64898 0
M  V30 3050 H 289.216 2.76658 -4.20082 0
M  V30 3051 H 288.916 1.72741 -5.61636 0
M  V30 3052 H 290.44 2.65251 -5.49976 0
M  V30 3053 H 291.854 0.391742 -5.7196 0
M  V30 3054 H 290.251 -0.351551 -5.99069 0
M  V30 3055 H 291.321 -1.01374 -4.74185 0
M  V30 3056 N 292.664 1.56529 -0.183458 0
M  V30 3057 C 293.91 1.97537 0.459036 0
M  V30 3058 C 294.243 1.06989 1.62071 0
M  V30 3059 O 293.518 0.11948 1.94133 0
M  V30 3060 C 293.801 3.47874 0.930368 0
M  V30 3061 C 293.654 4.492 -0.232317 0
M  V30 3062 C 294.973 4.01612 1.79989 0
M  V30 3063 H 292.092 0.718204 0.165383 0
M  V30 3064 H 294.734 1.88042 -0.272038 0
M  V30 3065 H 292.884 3.56095 1.55333 0
M  V30 3066 H 294.556 4.53027 -0.86972 0
M  V30 3067 H 292.799 4.24657 -0.885928 0
M  V30 3068 H 293.47 5.51823 0.139796 0
M  V30 3069 H 295.946 3.96097 1.27461 0
M  V30 3070 H 294.822 5.07195 2.09867 0
M  V30 3071 H 295.083 3.46163 2.74998 0
M  V30 3072 N 294.142 -0.090211 1.57342 0
M  V30 3073 C 295.391 -0.791531 1.8552 0
M  V30 3074 C 295.704 -1.79659 0.773441 0
M  V30 3075 O 296.91 -2.54616 0.942497 0
M  V30 3076 C 295.366 -1.45856 3.2902 0
M  V30 3077 C 294.974 -0.493017 4.45279 0
M  V30 3078 C 296.718 -2.14332 3.66418 0
M  V30 3079 C 294.625 -1.16491 5.79814 0
M  V30 3080 H 293.555 -0.299356 0.692027 0
M  V30 3081 H 296.206 -0.0445343 1.83446 0
M  V30 3082 H 294.588 -2.25318 3.2565 0
M  V30 3083 H 295.762 0.270464 4.60006 0
M  V30 3084 H 294.077 0.0863061 4.16311 0
M  V30 3085 H 296.674 -2.65344 4.64216 0
M  V30 3086 H 297.017 -2.93447 2.95287 0
M  V30 3087 H 297.55 -1.41724 3.71698 0
M  V30 3088 H 294.289 -0.41447 6.54188 0
M  V30 3089 H 293.809 -1.8997 5.68921 0
M  V30 3090 H 295.488 -1.69001 6.24538 0
M  V30 3091 N 295.62 -1.53406 -0.361157 0
M  V30 3092 C 296.866 -1.70054 -1.10496 0
M  V30 3093 C 297.199 -0.453278 -1.88836 0
M  V30 3094 O 296.474 0.5495 -1.86576 0
M  V30 3095 C 296.757 -2.95317 -2.06058 0
M  V30 3096 C 296.61 -4.3021 -1.31298 0
M  V30 3097 C 297.929 -3.16193 -3.06121 0
M  V30 3098 H 295.048 -0.618799 -0.400321 0
M  V30 3099 H 297.69 -1.86052 -0.385318 0
M  V30 3100 H 295.84 -2.81809 -2.67425 0
M  V30 3101 H 297.512 -4.55538 -0.726807 0
M  V30 3102 H 295.755 -4.29421 -0.614853 0
M  V30 3103 H 296.426 -5.14 -2.01265 0
M  V30 3104 H 298.902 -3.28916 -2.5486 0
M  V30 3105 H 297.778 -4.05266 -3.70204 0
M  V30 3106 H 298.039 -2.31676 -3.76535 0
M  V30 3107 N 297.098 0.621204 -1.44841 0
M  V30 3108 C 298.046 1.75385 -1.52784 0
M  V30 3109 C 299.04 1.64639 -0.398779 0
M  V30 3110 O 300.246 1.70598 -0.574137 0
M  V30 3111 H 296.621 0.579193 -0.479625 0
M  V30 3112 H 298.592 1.6581 -2.48092 0
M  V30 3113 C 297.341 3.13742 -1.4987 0
M  V30 3114 H 296.664 3.22663 -2.36069 0
M  V30 3115 H 298.104 3.92861 -1.59487 0
M  V30 3116 C 296.563 3.36175 -0.220973 0
M  V30 3117 O 297.093 3.95469 0.704782 0
M  V30 3118 N 295.299 2.90348 -0.120963 0
M  V30 3119 H 294.846 2.42278 -0.875162 0
M  V30 3120 H 294.804 3.05732 0.733168 0
M  V30 3121 N 298.576 1.31904 0.862503 0
M  V30 3122 C 299.539 1.20131 1.95195 0
M  V30 3123 C 300.539 0.126409 1.60302 0
M  V30 3124 O 301.729 0.376234 1.70089 0
M  V30 3125 C 298.861 0.845691 3.30244 0
M  V30 3126 H 300.054 2.16943 2.07064 0
M  V30 3127 H 297.607 1.15622 1.05172 0
M  V30 3128 H 298.342 -0.120957 3.24074 0
M  V30 3129 H 298.127 1.62276 3.56944 0
M  V30 3130 H 299.617 0.787418 4.10109 0
M  V30 3131 N 300.054 -1.07777 1.14986 0
M  V30 3132 C 301.017 -2.13041 0.845358 0
M  V30 3133 C 302.017 -1.60071 -0.152931 0
M  V30 3134 O 303.207 -1.74033 0.0761879 0
M  V30 3135 C 300.339 -3.39896 0.261383 0
M  V30 3136 H 301.532 -2.41485 1.77834 0
M  V30 3137 H 299.085 -1.23595 0.956757 0
M  V30 3138 H 299.82 -3.17091 -0.68 0
M  V30 3139 H 299.605 -3.79642 0.980514 0
M  V30 3140 H 301.095 -4.17548 0.0657687 0
M  V30 3141 N 301.532 -0.945985 -1.26051 0
M  V30 3142 C 302.495 -0.463897 -2.24456 0
M  V30 3143 C 303.495 0.427655 -1.55009 0
M  V30 3144 O 304.685 0.226157 -1.72726 0
M  V30 3145 C 301.817 0.330812 -3.39291 0
M  V30 3146 H 303.01 -1.33357 -2.68619 0
M  V30 3147 H 300.563 -0.728416 -1.38289 0
M  V30 3148 H 301.298 1.21852 -3.00537 0
M  V30 3149 H 301.083 -0.308679 -3.90883 0
M  V30 3150 H 302.573 0.657865 -4.12386 0
M  V30 3151 N 303.011 1.40521 -0.713556 0
M  V30 3152 C 303.958 2.30723 -0.059684 0
M  V30 3153 C 304.928 1.48079 0.752448 0
M  V30 3154 O 306.113 1.76823 0.71681 0
M  V30 3155 C 303.253 3.34274 0.857594 0
M  V30 3156 C 302.366 4.31986 0.0351536 0
M  V30 3157 C 301.501 5.22605 0.951724 0
M  V30 3158 C 300.54 6.11976 0.123253 0
M  V30 3159 N 299.677 6.9502 0.99459 0
M  V30 3160 H 304.517 2.86074 -0.834596 0
M  V30 3161 H 302.054 1.40879 -0.42326 0
M  V30 3162 H 304.012 3.92879 1.40364 0
M  V30 3163 H 302.642 2.8043 1.59871 0
M  V30 3164 H 301.694 3.7518 -0.628052 0
M  V30 3165 H 303.006 4.95101 -0.606347 0
M  V30 3166 H 302.16 5.86131 1.56638 0
M  V30 3167 H 300.899 4.59759 1.62705 0
M  V30 3168 H 299.904 5.47482 -0.50435 0
M  V30 3169 H 301.129 6.76881 -0.548539 0
M  V30 3170 H 299.075 6.34764 1.6556 0
M  V30 3171 H 298.992 7.54892 0.40908 0
M  V30 3172 H 300.26 7.62997 1.59549 0
M  V30 3173 N 304.489 0.459591 1.5075 0
M  V30 3174 C 305.437 -0.354678 2.2988 0
M  V30 3175 C 306.431 -1.00086 1.36672 0
M  V30 3176 O 307.637 -0.933277 1.53915 0
M  V30 3177 H 304.012 -0.13321 0.740107 0
M  V30 3178 H 305.983 0.333269 2.96533 0
M  V30 3179 C 304.732 -1.43073 3.169 0
M  V30 3180 H 304.055 -0.942882 3.88523 0
M  V30 3181 H 305.495 -1.97328 3.75284 0
M  V30 3182 C 303.954 -2.42633 2.33732 0
M  V30 3183 O 304.484 -3.47658 2.01238 0
M  V30 3184 N 302.69 -2.14066 1.9653 0
M  V30 3185 H 302.237 -1.28685 2.23155 0
M  V30 3186 H 302.195 -2.80917 1.41185 0
M  V30 3187 N 305.967 -1.56429 0.191757 0
M  V30 3188 C 307.214 -1.97485 -0.447891 0
M  V30 3189 C 307.542 -1.07852 -1.61859 0
M  V30 3190 O 306.797 -0.116903 -1.95351 0
M  V30 3191 C 307.096 -3.44449 -0.953384 0
M  V30 3192 C 306.762 -4.50781 0.103586 0
M  V30 3193 C 305.424 -4.79584 0.394023 0
M  V30 3194 C 307.776 -5.1471 0.819946 0
M  V30 3195 C 305.104 -5.69607 1.40585 0
M  V30 3196 C 307.456 -6.05827 1.8209 0
M  V30 3197 C 306.12 -6.32987 2.11857 0
M  V30 3198 H 305.39 -0.722648 -0.163895 0
M  V30 3199 H 308.037 -1.89322 0.28802 0
M  V30 3200 H 306.342 -3.49666 -1.76751 0
M  V30 3201 H 308.039 -3.73569 -1.45765 0
M  V30 3202 H 304.629 -4.28394 -0.132951 0
M  V30 3203 H 308.813 -4.92552 0.608789 0
M  V30 3204 H 304.069 -5.88926 1.64243 0
M  V30 3205 H 308.243 -6.54424 2.38123 0
M  V30 3206 H 305.87 -7.02544 2.90407 0
M  V30 3207 N 307.445 0.0818655 -1.57387 0
M  V30 3208 C 308.722 0.815343 -1.77796 0
M  V30 3209 C 309.102 1.96289 -0.77679 0
M  V30 3210 O 308.45 2.27691 0.192106 0
M  V30 3211 C 308.66 1.29765 -3.23978 0
M  V30 3212 C 310.008 1.7351 -3.8753 0
M  V30 3213 O 311.032 1.39356 -3.27808 0
M  V30 3214 O 309.891 2.36708 -4.92576 0
M  V30 3215 H 306.985 0.389914 -0.729312 0
M  V30 3216 H 309.531 0.0627213 -1.69584 0
M  V30 3217 H 308.303 0.47608 -3.88393 0
M  V30 3218 H 307.926 2.11189 -3.36875 0
M  V30 3219 N 308.923 1.53595 0.353017 0
M  V30 3220 C 310.171 1.70049 1.09215 0
M  V30 3221 C 310.492 0.461406 1.89463 0
M  V30 3222 O 309.762 -0.524633 1.88744 0
M  V30 3223 H 308.342 0.626912 0.40619 0
M  V30 3224 H 311.004 1.90822 0.396585 0
M  V30 3225 H 310.1 2.56718 1.77488 0
M  V30 3226 N 310.401 -0.613514 1.45168 0
M  V30 3227 C 311.331 -1.7354 1.56225 0
M  V30 3228 C 312.312 -1.64981 0.41414 0
M  V30 3229 O 313.497 -1.83472 0.636526 0
M  V30 3230 C 310.627 -3.12128 1.52295 0
M  V30 3231 C 309.581 -3.35491 2.65762 0
M  V30 3232 C 308.907 -4.74291 2.46885 0
M  V30 3233 C 310.207 -3.26325 4.0781 0
M  V30 3234 H 311.901 -1.64543 2.50132 0
M  V30 3235 H 309.447 -0.790185 1.20383 0
M  V30 3236 H 311.4 -3.90404 1.58628 0
M  V30 3237 H 310.124 -3.2195 0.549139 0
M  V30 3238 H 308.783 -2.59603 2.58847 0
M  V30 3239 H 308.431 -4.80839 1.47657 0
M  V30 3240 H 308.131 -4.9088 3.22972 0
M  V30 3241 H 309.655 -5.54775 2.55063 0
M  V30 3242 H 311.069 -3.94483 4.16 0
M  V30 3243 H 309.466 -3.54445 4.8424 0
M  V30 3244 H 310.536 -2.23855 4.30136 0
M  V30 3245 N 311.879 -1.3236 -0.855495 0
M  V30 3246 C 313.295 -1.11332 -1.14356 0
M  V30 3247 C 313.495 0.106751 -2.01217 0
M  V30 3248 O 312.551 0.791891 -2.39761 0
M  V30 3249 C 313.864 -2.39237 -1.82171 0
M  V30 3250 C 315.412 -2.44986 -1.9481 0
M  V30 3251 C 315.887 -3.7281 -2.66039 0
M  V30 3252 N 317.378 -3.73787 -2.73565 0
M  V30 3253 C 318.113 -4.69394 -3.29327 0
M  V30 3254 N 317.609 -5.75367 -3.85907 0
M  V30 3255 N 319.402 -4.56893 -3.27423 0
M  V30 3256 H 311.553 -2.10586 -0.277027 0
M  V30 3257 H 313.816 -0.929701 -0.185364 0
M  V30 3258 H 313.522 -3.28431 -1.25802 0
M  V30 3259 H 313.396 -2.50134 -2.82335 0
M  V30 3260 H 315.783 -1.56252 -2.50338 0
M  V30 3261 H 315.864 -2.38043 -0.936448 0
M  V30 3262 H 315.508 -4.61918 -2.11174 0
M  V30 3263 H 315.438 -3.77024 -3.67642 0
M  V30 3264 H 317.929 -2.97189 -2.33424 0
M  V30 3265 H 318.242 -6.44378 -4.26611 0
M  V30 3266 H 316.587 -5.79123 -3.84242 0
M  V30 3267 H 319.778 -3.73269 -2.82467 0
M  V30 3268 H 319.951 -5.31577 -3.7058 0
M  V30 3269 N 313.357 1.07166 -1.15556 0
M  V30 3270 C 314.604 1.79798 -0.931604 0
M  V30 3271 C 314.932 1.8682 0.54115 0
M  V30 3272 O 314.187 1.34942 1.41736 0
M  V30 3273 C 314.486 3.24707 -1.49332 0
M  V30 3274 C 314.152 3.37781 -2.98688 0
M  V30 3275 C 312.814 3.41057 -3.39461 0
M  V30 3276 C 315.166 3.40424 -3.94665 0
M  V30 3277 C 312.494 3.4458 -4.74849 0
M  V30 3278 C 314.846 3.45485 -5.29927 0
M  V30 3279 C 313.51 3.47039 -5.70193 0
M  V30 3280 H 312.78 0.657928 -0.340898 0
M  V30 3281 H 315.427 1.26091 -1.44129 0
M  V30 3282 H 313.732 3.81208 -0.904859 0
M  V30 3283 H 315.429 3.79486 -1.29582 0
M  V30 3284 H 312.019 3.35932 -2.66172 0
M  V30 3285 H 316.203 3.37113 -3.64237 0
M  V30 3286 H 311.459 3.44083 -5.05388 0
M  V30 3287 H 315.633 3.46476 -6.04092 0
M  V30 3288 H 313.26 3.49522 -6.75084 0
M  V30 3289 N 314.835 0.952656 1.25548 0
M  V30 3290 C 316.063 0.623496 1.97282 0
M  V30 3291 C 316.478 -0.803987 1.70826 0
M  V30 3292 O 315.835 -1.53755 0.983147 0
M  V30 3293 C 315.886 0.870209 3.5087 0
M  V30 3294 O 315.607 2.24156 3.76412 0
M  V30 3295 C 317.108 0.553164 4.39835 0
M  V30 3296 H 314.328 0.233931 0.628902 0
M  V30 3297 H 316.872 1.27649 1.59768 0
M  V30 3298 H 315.027 0.263652 3.86502 0
M  V30 3299 H 315.441 2.31021 4.70882 0
M  V30 3300 H 316.915 0.776342 5.46513 0
M  V30 3301 H 317.392 -0.512215 4.36203 0
M  V30 3302 H 317.998 1.13896 4.09766 0
M  V30 3303 N 316.313 -1.40141 0.720998 0
M  V30 3304 C 317.276 -2.29058 0.0805834 0
M  V30 3305 C 318.276 -1.45632 -0.681758 0
M  V30 3306 O 319.466 -1.6648 -0.512856 0
M  V30 3307 C 316.598 -3.28925 -0.895593 0
M  V30 3308 H 317.791 -2.87191 0.863793 0
M  V30 3309 H 315.344 -1.48553 0.485975 0
M  V30 3310 H 316.079 -2.75822 -1.70566 0
M  V30 3311 H 315.864 -3.90519 -0.351766 0
M  V30 3312 H 317.354 -3.95494 -1.34069 0
M  V30 3313 N 317.792 -0.46758 -1.50504 0
M  V30 3314 C 318.755 0.317059 -2.26996 0
M  V30 3315 C 319.755 0.923513 -1.31635 0
M  V30 3316 O 320.945 0.793239 -1.55091 0
M  V30 3317 C 318.077 1.45134 -3.08462 0
M  V30 3318 H 319.27 -0.353723 -2.97807 0
M  V30 3319 H 316.823 -0.221545 -1.54722 0
M  V30 3320 H 317.558 2.15728 -2.4214 0
M  V30 3321 H 317.343 1.02232 -3.78538 0
M  V30 3322 H 318.833 2.00493 -3.66323 0
M  V30 3323 N 319.27 1.56325 -0.20005 0
M  V30 3324 C 320.2 2.22318 0.713916 0
M  V30 3325 C 321.181 1.18788 1.21752 0
M  V30 3326 O 322.366 1.47309 1.26545 0
M  V30 3327 C 319.496 2.88639 1.93144 0
M  V30 3328 C 318.45 3.98457 1.56255 0
M  V30 3329 C 317.776 4.51967 2.85709 0
M  V30 3330 C 319.076 5.16612 0.768747 0
M  V30 3331 H 320.77 2.98952 0.163755 0
M  V30 3332 H 318.316 1.43792 0.0773219 0
M  V30 3333 H 320.269 3.33491 2.57608 0
M  V30 3334 H 318.993 2.09419 2.50621 0
M  V30 3335 H 317.652 3.54305 0.941471 0
M  V30 3336 H 317.3 3.69503 3.41287 0
M  V30 3337 H 317 5.26071 2.6177 0
M  V30 3338 H 318.524 4.99523 3.51154 0
M  V30 3339 H 319.938 5.57977 1.3166 0
M  V30 3340 H 318.335 5.96812 0.627286 0
M  V30 3341 H 319.405 4.84358 -0.229168 0
M  V30 3342 N 320.748 -0.0735177 1.57428 0
M  V30 3343 C 322.164 -0.428264 1.53747 0
M  V30 3344 C 322.364 -1.79272 0.91998 0
M  V30 3345 O 321.42 -2.47051 0.521745 0
M  V30 3346 C 322.733 -0.370914 2.98404 0
M  V30 3347 C 324.281 -0.451224 3.0973 0
M  V30 3348 C 324.756 -0.4238 4.56035 0
M  V30 3349 N 326.247 -0.483925 4.60665 0
M  V30 3350 C 326.982 -0.484891 5.71346 0
M  V30 3351 N 326.478 -0.440775 6.91396 0
M  V30 3352 N 328.271 -0.531319 5.59583 0
M  V30 3353 H 320.422 0.819949 1.95935 0
M  V30 3354 H 322.685 0.307493 0.896745 0
M  V30 3355 H 322.391 0.564956 3.47133 0
M  V30 3356 H 322.265 -1.18176 3.5821 0
M  V30 3357 H 324.652 -1.37752 2.60976 0
M  V30 3358 H 324.733 0.388167 2.52838 0
M  V30 3359 H 324.377 0.498638 5.05446 0
M  V30 3360 H 324.307 -1.2807 5.10789 0
M  V30 3361 H 326.798 -0.522338 3.74273 0
M  V30 3362 H 327.111 -0.44539 7.71515 0
M  V30 3363 H 325.456 -0.40749 6.93804 0
M  V30 3364 H 328.647 -0.563464 4.64696 0
M  V30 3365 H 328.82 -0.528603 6.4584 0
M  V30 3366 N 322.226 -1.5378 -0.344866 0
M  V30 3367 C 323.451 -1.75211 -1.10977 0
M  V30 3368 C 323.876 -0.48936 -1.81623 0
M  V30 3369 O 323.234 0.557925 -1.72502 0
M  V30 3370 C 323.282 -2.93147 -2.09993 0
M  V30 3371 O 322.386 -2.63203 -3.17487 0
M  V30 3372 H 321.727 -0.581241 -0.321021 0
M  V30 3373 H 324.257 -2.00738 -0.395661 0
M  V30 3374 H 324.267 -3.19898 -2.53237 0
M  V30 3375 H 322.942 -3.84731 -1.5797 0
M  V30 3376 H 321.519 -2.47336 -2.79069 0
M  V30 3377 N 323.704 0.605807 -1.45491 0
M  V30 3378 C 324.614 1.74466 -1.56839 0
M  V30 3379 C 325.63 1.68006 -0.452772 0
M  V30 3380 O 326.806 1.8833 -0.713708 0
M  V30 3381 C 323.871 3.10931 -1.53371 0
M  V30 3382 C 322.932 3.28832 -2.75986 0
M  V30 3383 C 322.165 4.58787 -2.72673 0
M  V30 3384 O 322.388 5.4122 -1.80102 0
M  V30 3385 O 321.322 4.79438 -3.63899 0
M  V30 3386 H 325.148 1.67843 -2.53106 0
M  V30 3387 H 322.733 0.770108 -1.28022 0
M  V30 3388 H 324.615 3.92233 -1.54051 0
M  V30 3389 H 323.29 3.18042 -0.602572 0
M  V30 3390 H 322.197 2.47112 -2.80867 0
M  V30 3391 H 323.53 3.26599 -3.68231 0
M  V30 3392 N 325.182 1.32811 0.848464 0
M  V30 3393 C 326.092 1.24278 1.98978 0
M  V30 3394 C 327.108 0.155176 1.73307 0
M  V30 3395 O 328.284 0.376999 1.9784 0
M  V30 3396 C 325.349 0.972444 3.32783 0
M  V30 3397 C 324.41 2.14911 3.71634 0
M  V30 3398 C 323.643 1.89157 4.99054 0
M  V30 3399 O 323.866 0.837165 5.64223 0
M  V30 3400 O 322.8 2.75433 5.35183 0
M  V30 3401 H 326.626 2.20238 2.09115 0
M  V30 3402 H 324.211 1.12762 0.980052 0
M  V30 3403 H 326.093 0.838432 4.12975 0
M  V30 3404 H 324.768 0.043051 3.23671 0
M  V30 3405 H 323.675 2.33862 2.91992 0
M  V30 3406 H 325.008 3.06151 3.85399 0
M  V30 3407 N 326.66 -1.06551 1.16123 0
M  V30 3408 C 328.076 -1.3142 0.905585 0
M  V30 3409 C 328.276 -1.96571 -0.442964 0
M  V30 3410 O 327.332 -2.23068 -1.18308 0
M  V30 3411 C 328.645 -2.19741 2.05267 0
M  V30 3412 C 330.193 -2.33165 2.08813 0
M  V30 3413 C 330.668 -3.24838 3.22868 0
M  V30 3414 N 332.159 -3.32421 3.22568 0
M  V30 3415 C 332.894 -4.0344 4.0746 0
M  V30 3416 N 332.39 -4.77003 5.02434 0
M  V30 3417 N 334.183 -3.99464 3.95456 0
M  V30 3418 H 326.334 -0.626548 2.02949 0
M  V30 3419 H 328.597 -0.338777 0.8854 0
M  V30 3420 H 328.303 -1.79142 3.02657 0
M  V30 3421 H 328.177 -3.20313 1.99198 0
M  V30 3422 H 330.564 -2.73013 1.12018 0
M  V30 3423 H 330.645 -1.3227 2.18948 0
M  V30 3424 H 330.289 -2.85708 4.19921 0
M  V30 3425 H 330.219 -4.25707 3.0997 0
M  V30 3426 H 332.71 -2.79994 2.53795 0
M  V30 3427 H 333.023 -5.28712 5.63634 0
M  V30 3428 H 331.368 -4.75992 5.06415 0
M  V30 3429 H 334.559 -3.4111 3.20564 0
M  V30 3430 H 334.732 -4.54544 4.61837 0
M  V30 3431 N 328.138 -0.959301 -1.25041 0
M  V30 3432 C 329.366 -0.633949 -1.96948 0
M  V30 3433 C 329.781 0.794916 -1.7125 0
M  V30 3434 O 329.138 1.53231 -0.991287 0
M  V30 3435 C 329.189 -0.888805 -3.50403 0
M  V30 3436 O 328.91 -2.26149 -3.75218 0
M  V30 3437 C 330.411 -0.576482 -4.39536 0
M  V30 3438 H 327.631 -0.237263 -0.627652 0
M  V30 3439 H 330.175 -1.28495 -1.59089 0
M  V30 3440 H 328.33 -0.284145 -3.86357 0
M  V30 3441 H 328.744 -2.33514 -4.6965 0
M  V30 3442 H 330.218 -0.805314 -5.46094 0
M  V30 3443 H 330.695 0.489075 -4.36468 0
M  V30 3444 H 331.301 -1.16067 -4.09156 0
M  V30 3445 N 329.616 1.39756 -0.72842 0
M  V30 3446 C 331.032 1.5442 -0.403308 0
M  V30 3447 C 331.232 1.69694 1.08656 0
M  V30 3448 O 330.288 1.69373 1.87267 0
M  V30 3449 C 331.601 2.76555 -1.18058 0
M  V30 3450 C 333.149 2.90384 -1.16815 0
M  V30 3451 C 333.624 4.15449 -1.92785 0
M  V30 3452 N 335.115 4.22475 -1.89918 0
M  V30 3453 C 335.85 5.1818 -2.45514 0
M  V30 3454 N 335.346 6.19714 -3.09719 0
M  V30 3455 N 337.139 5.1035 -2.35584 0
M  V30 3456 H 329.29 1.28089 -1.69431 0
M  V30 3457 H 331.553 0.620327 -0.716867 0
M  V30 3458 H 331.259 2.7159 -2.23455 0
M  V30 3459 H 331.133 3.69033 -0.780662 0
M  V30 3460 H 333.52 2.94846 -0.12234 0
M  V30 3461 H 333.601 1.98988 -1.6074 0
M  V30 3462 H 333.245 4.11749 -2.97364 0
M  V30 3463 H 333.175 5.05877 -1.46272 0
M  V30 3464 H 335.666 3.49743 -1.43138 0
M  V30 3465 H 335.979 6.8919 -3.49625 0
M  V30 3466 H 334.324 6.20121 -3.13807 0
M  V30 3467 H 337.515 4.2996 -1.85072 0
M  V30 3468 H 337.688 5.84761 -2.79211 0
M  V30 3469 N 331.094 0.475555 1.50254 0
M  V30 3470 C 332.026 -0.352649 2.26471 0
M  V30 3471 C 333.039 -0.953165 1.3198 0
M  V30 3472 O 334.228 -0.840815 1.57457 0
M  V30 3473 C 331.328 -1.50902 3.0345 0
M  V30 3474 C 330.501 -1.02047 4.25329 0
M  V30 3475 C 329.56 -2.05142 4.84565 0
M  V30 3476 O 328.586 -1.63023 5.45355 0
M  V30 3477 N 329.788 -3.37987 4.71959 0
M  V30 3478 H 332.553 0.300767 2.98187 0
M  V30 3479 H 330.114 0.306598 1.5897 0
M  V30 3480 H 332.106 -2.19572 3.39956 0
M  V30 3481 H 330.676 -2.06705 2.34504 0
M  V30 3482 H 329.896 -0.159507 3.93877 0
M  V30 3483 H 331.184 -0.672061 5.04342 0
M  V30 3484 H 330.582 -3.74913 4.23623 0
M  V30 3485 H 329.139 -4.02443 5.12721 0
M  V30 3486 N 332.573 -1.56217 0.208337 0
M  V30 3487 C 333.503 -2.22694 -0.702116 0
M  V30 3488 C 334.484 -1.19432 -1.2112 0
M  V30 3489 O 335.669 -1.47978 -1.25762 0
M  V30 3490 C 332.799 -2.8966 -1.9161 0
M  V30 3491 C 331.753 -3.9928 -1.5414 0
M  V30 3492 C 331.079 -4.53476 -2.83308 0
M  V30 3493 C 332.379 -5.17012 -0.741339 0
M  V30 3494 H 334.073 -2.99034 -0.147898 0
M  V30 3495 H 331.619 -1.43831 -0.0696951 0
M  V30 3496 H 333.572 -3.34852 -2.55836 0
M  V30 3497 H 332.296 -2.10746 -2.49507 0
M  V30 3498 H 330.955 -3.54799 -0.922668 0
M  V30 3499 H 330.603 -3.71308 -3.39322 0
M  V30 3500 H 330.303 -5.27451 -2.58976 0
M  V30 3501 H 331.827 -5.01378 -3.485 0
M  V30 3502 H 333.241 -5.58667 -1.28699 0
M  V30 3503 H 331.638 -5.97137 -0.595627 0
M  V30 3504 H 332.708 -4.8423 0.254851 0
M  V30 3505 N 334.051 0.0651679 -1.57465 0
M  V30 3506 C 335.462 0.616213 -1.76238 0
M  V30 3507 C 335.813 1.7756 -0.834689 0
M  V30 3508 O 334.938 2.1639 -0.0204156 0
M  V30 3509 C 335.533 1.12462 -3.1959 0
M  V30 3510 C 334.092 1.62147 -3.39684 0
M  V30 3511 C 333.239 0.543739 -2.71917 0
M  V30 3512 H 336.19 -0.161022 -1.57881 0
M  V30 3513 H 336.211 1.99324 -3.24114 0
M  V30 3514 H 335.723 0.280592 -3.87084 0
M  V30 3515 H 333.824 2.48854 -2.77313 0
M  V30 3516 H 333.937 1.69385 -4.48158 0
M  V30 3517 H 332.301 0.990352 -2.34657 0
M  V30 3518 H 333.084 -0.290216 -3.42071 0
M  V30 3519 N 335.529 1.53961 0.336706 0
M  V30 3520 C 336.775 1.7179 1.07777 0
M  V30 3521 C 337.108 0.483263 1.88091 0
M  V30 3522 O 336.383 -0.519747 1.87427 0
M  V30 3523 C 336.666 2.98558 2.01334 0
M  V30 3524 C 336.519 4.32245 1.24437 0
M  V30 3525 C 337.838 3.21023 3.01052 0
M  V30 3526 H 334.957 0.625089 0.390426 0
M  V30 3527 H 337.599 1.86641 0.35567 0
M  V30 3528 H 335.749 2.86028 2.62908 0
M  V30 3529 H 337.421 4.56637 0.654243 0
M  V30 3530 H 335.664 4.30344 0.546458 0
M  V30 3531 H 336.335 5.17137 1.93063 0
M  V30 3532 H 338.811 3.32929 2.49595 0
M  V30 3533 H 337.687 4.11104 3.6371 0
M  V30 3534 H 337.948 2.37637 3.72802 0
M  V30 3535 N 337.007 -0.598083 1.45811 0
M  V30 3536 C 337.937 -1.71873 1.58057 0
M  V30 3537 C 338.918 -1.64533 0.431615 0
M  V30 3538 O 340.103 -1.82787 0.65595 0
M  V30 3539 C 337.233 -3.10495 1.55597 0
M  V30 3540 C 336.187 -3.32654 2.69305 0
M  V30 3541 C 335.513 -4.71646 2.51902 0
M  V30 3542 C 336.813 -3.21981 4.11248 0
M  V30 3543 H 338.507 -1.61881 2.51863 0
M  V30 3544 H 336.053 -0.777372 1.21214 0
M  V30 3545 H 338.006 -3.88699 1.6276 0
M  V30 3546 H 336.73 -3.2135 0.583255 0
M  V30 3547 H 335.389 -2.56843 2.61586 0
M  V30 3548 H 335.037 -4.79246 1.52748 0
M  V30 3549 H 334.737 -4.87426 3.2816 0
M  V30 3550 H 336.261 -5.52038 2.60933 0
M  V30 3551 H 337.675 -3.90049 4.20161 0
M  V30 3552 H 336.072 -3.49289 4.87972 0
M  V30 3553 H 337.142 -2.1928 4.32486 0
M  V30 3554 N 338.485 -1.33259 -0.841409 0
M  V30 3555 C 339.448 -1.23221 -1.9326 0
M  V30 3556 C 340.448 -0.151895 -1.60081 0
M  V30 3557 O 341.638 -0.403246 -1.69468 0
M  V30 3558 C 338.77 -0.898123 -3.28856 0
M  V30 3559 H 339.963 -2.2021 -2.03587 0
M  V30 3560 H 337.516 -1.17281 -1.03319 0
M  V30 3561 H 338.251 0.0693841 -3.24226 0
M  V30 3562 H 338.036 -1.67934 -3.54317 0
M  V30 3563 H 339.526 -0.852563 -4.08805 0
M  V30 3564 N 339.963 1.05934 -1.16686 0
M  V30 3565 C 340.896 2.1295 -0.820225 0
M  V30 3566 C 341.874 1.61242 0.209722 0
M  V30 3567 O 343.058 1.88271 0.0929688 0
M  V30 3568 C 340.185 3.3797 -0.22223 0
M  V30 3569 C 339.231 4.08488 -1.22637 0
M  V30 3570 S 340.064 4.58015 -2.77457 0
M  V30 3571 C 341.22 5.86292 -2.19117 0
M  V30 3572 H 341.453 2.42025 -1.72659 0
M  V30 3573 H 338.986 1.18423 -0.990722 0
M  V30 3574 H 340.944 4.10335 0.116322 0
M  V30 3575 H 339.605 3.07045 0.66196 0
M  V30 3576 H 338.798 4.98291 -0.756455 0
M  V30 3577 H 338.4 3.42154 -1.51019 0
M  V30 3578 H 340.692 6.59246 -1.56209 0
M  V30 3579 H 341.635 6.38019 -3.07144 0
M  V30 3580 H 342.043 5.40497 -1.62858 0
M  V30 3581 N 341.441 0.965919 1.2453 0
M  V30 3582 C 342.687 0.62776 1.92839 0
M  V30 3583 C 343.02 -0.834694 1.75347 0
M  V30 3584 O 342.295 -1.60031 1.10546 0
M  V30 3585 C 342.578 1.00109 3.45905 0
M  V30 3586 C 342.431 2.52011 3.72573 0
M  V30 3587 C 343.75 0.53435 4.36844 0
M  V30 3588 H 340.869 0.229537 0.700344 0
M  V30 3589 H 343.511 1.2046 1.46933 0
M  V30 3590 H 341.661 0.510238 3.85135 0
M  V30 3591 H 343.333 3.08559 3.42912 0
M  V30 3592 H 341.576 2.95287 3.17786 0
M  V30 3593 H 342.247 2.73183 4.79661 0
M  V30 3594 H 344.723 0.955565 4.04979 0
M  V30 3595 H 343.599 0.824152 5.42678 0
M  V30 3596 H 343.86 -0.565589 4.38467 0
M  V30 3597 N 342.919 -1.39368 0.735821 0
M  V30 3598 C 344.196 -1.94465 0.210395 0
M  V30 3599 C 344.576 -1.67254 -1.28799 0
M  V30 3600 O 343.924 -1.00123 -2.05396 0
M  V30 3601 C 344.134 -3.4472 0.544897 0
M  V30 3602 C 345.482 -4.21708 0.494689 0
M  V30 3603 O 346.506 -3.52922 0.482136 0
M  V30 3604 O 345.365 -5.44299 0.489947 0
M  V30 3605 H 342.459 -0.826096 0.0386666 0
M  V30 3606 H 345.005 -1.48863 0.814735 0
M  V30 3607 H 343.777 -3.57963 1.58045 0
M  V30 3608 H 343.4 -3.97502 -0.08837 0
M  V30 3609 N 344.397 -0.483516 -1.5 0
M  V30 3610 C 345.808 -0.0314176 -1.86674 0
M  V30 3611 C 346.159 1.37728 -1.39733 0
M  V30 3612 O 345.284 2.02327 -0.767635 0
M  V30 3613 C 345.879 -0.0502376 -3.38763 0
M  V30 3614 C 344.438 0.346442 -3.74802 0
M  V30 3615 C 343.585 -0.430366 -2.7394 0
M  V30 3616 H 346.536 -0.697182 -1.42566 0
M  V30 3617 H 346.557 0.749116 -3.73053 0
M  V30 3618 H 346.069 -1.07563 -3.72897 0
M  V30 3619 H 344.17 1.37572 -3.46273 0
M  V30 3620 H 344.283 0.0391486 -4.79084 0
M  V30 3621 H 342.647 0.117557 -2.54429 0
M  V30 3622 H 343.43 -1.4555 -3.10918 0
M  V30 3623 N 345.875 1.56104 -0.216619 0
M  V30 3624 C 347.152 1.89988 0.465165 0
M  V30 3625 C 347.532 1.13326 1.78102 0
M  V30 3626 O 346.88 0.241033 2.27225 0
M  V30 3627 C 347.09 3.42646 0.662939 0
M  V30 3628 C 348.438 4.13311 0.972602 0
M  V30 3629 O 349.462 3.48217 0.749901 0
M  V30 3630 O 348.321 5.28396 1.39499 0
M  V30 3631 H 345.415 0.78979 0.245276 0
M  V30 3632 H 347.961 1.67721 -0.258436 0
M  V30 3633 H 346.733 3.90399 -0.26543 0
M  V30 3634 H 346.356 3.70677 1.43821 0
M  V30 3635 N 347.353 -0.0568162 1.57498 0
M  V30 3636 C 348.63 -0.786954 1.79071 0
M  V30 3637 C 349.01 -1.95028 0.80792 0
M  V30 3638 O 348.358 -2.27968 -0.155858 0
M  V30 3639 C 348.568 -1.24594 3.26002 0
M  V30 3640 C 349.916 -1.67323 3.90241 0
M  V30 3641 O 350.94 -1.34124 3.29984 0
M  V30 3642 O 349.799 -2.28842 4.9628 0
M  V30 3643 H 346.893 -0.378262 0.735423 0
M  V30 3644 H 349.439 -0.035734 1.69662 0
M  V30 3645 H 348.211 -0.41423 3.89101 0
M  V30 3646 H 347.834 -2.05803 3.40192 0
M  V30 3647 N 348.832 -1.54138 -0.328536 0
M  V30 3648 C 350.248 -1.44736 -0.672574 0
M  V30 3649 C 350.448 -0.616217 -1.91846 0
M  V30 3650 O 349.504 -0.113067 -2.52247 0
M  V30 3651 C 350.817 -2.884 -0.851217 0
M  V30 3652 C 352.365 -2.98271 -0.948877 0
M  V30 3653 C 352.84 -4.43074 -1.15973 0
M  V30 3654 N 354.331 -4.46665 -1.22658 0
M  V30 3655 C 355.066 -5.55857 -1.40751 0
M  V30 3656 N 354.562 -6.75026 -1.5592 0
M  V30 3657 N 356.355 -5.43495 -1.4342 0
M  V30 3658 H 348.506 -2.06661 0.490421 0
M  V30 3659 H 350.769 -0.934812 0.157579 0
M  V30 3660 H 350.475 -3.51699 -0.00704236 0
M  V30 3661 H 350.349 -3.34225 -1.74853 0
M  V30 3662 H 352.736 -2.35102 -1.78356 0
M  V30 3663 H 352.817 -2.55785 -0.0281435 0
M  V30 3664 H 352.461 -5.06827 -0.329915 0
M  V30 3665 H 352.391 -4.83165 -2.09426 0
M  V30 3666 H 354.882 -3.60797 -1.124 0
M  V30 3667 H 355.195 -7.54004 -1.69404 0
M  V30 3668 H 353.54 -6.77944 -1.53027 0
M  V30 3669 H 356.731 -4.49349 -1.31162 0
M  V30 3670 H 356.904 -6.28649 -1.57178 0
M  V30 3671 N 350.31 0.590341 -1.46126 0
M  V30 3672 C 351.558 1.34616 -1.50742 0
M  V30 3673 C 351.879 1.94363 -0.157486 0
M  V30 3674 O 351.149 1.78136 0.815136 0
M  V30 3675 H 349.729 0.499789 -0.555175 0
M  V30 3676 H 352.391 0.691953 -1.82203 0
M  V30 3677 H 351.487 2.15678 -2.25587 0
M  V30 3678 N 351.788 1.33704 0.83433 0
M  V30 3679 C 353.204 1.13137 1.12571 0
M  V30 3680 C 353.404 -0.0747261 2.01361 0
M  V30 3681 O 352.46 -0.753647 2.4099 0
M  V30 3682 C 353.773 2.42105 1.78342 0
M  V30 3683 C 355.321 2.48054 1.90888 0
M  V30 3684 C 355.796 3.76995 2.60075 0
M  V30 3685 N 357.287 3.78092 2.67584 0
M  V30 3686 C 358.022 4.74574 3.21818 0
M  V30 3687 N 357.518 5.81434 3.76705 0
M  V30 3688 N 359.311 4.62044 3.20112 0
M  V30 3689 H 351.462 2.11 0.243489 0
M  V30 3690 H 353.725 0.932532 0.17055 0
M  V30 3691 H 353.431 3.30391 1.20561 0
M  V30 3692 H 353.305 2.54594 2.7832 0
M  V30 3693 H 355.692 1.60215 2.47821 0
M  V30 3694 H 355.773 2.39502 0.898459 0
M  V30 3695 H 355.417 4.65219 2.03799 0
M  V30 3696 H 355.347 3.82825 3.61597 0
M  V30 3697 H 357.838 3.00865 2.28667 0
M  V30 3698 H 358.151 6.51084 4.16305 0
M  V30 3699 H 356.496 5.85163 3.7498 0
M  V30 3700 H 359.687 3.77716 2.76493 0
M  V30 3701 H 359.86 5.37406 3.62076 0
M  V30 3702 N 353.266 -1.05314 1.17247 0
M  V30 3703 C 354.199 -2.12512 0.831507 0
M  V30 3704 C 355.177 -1.61351 -0.201168 0
M  V30 3705 O 356.361 -1.88317 -0.0829831 0
M  V30 3706 C 353.488 -3.37848 0.24015 0
M  V30 3707 C 352.534 -4.07832 1.24801 0
M  V30 3708 S 353.367 -4.56537 2.79882 0
M  V30 3709 C 354.523 -5.85122 2.22223 0
M  V30 3710 H 354.756 -2.41106 1.7394 0
M  V30 3711 H 352.289 -1.17896 0.996988 0
M  V30 3712 H 354.247 -4.10391 -0.0945588 0
M  V30 3713 H 352.908 -3.07392 -0.645668 0
M  V30 3714 H 352.101 -4.97883 0.78287 0
M  V30 3715 H 351.703 -3.41348 1.52831 0
M  V30 3716 H 353.995 -6.58408 1.59703 0
M  V30 3717 H 354.938 -6.36381 3.10523 0
M  V30 3718 H 355.346 -5.39626 1.65722 0
M  V30 3719 N 354.744 -0.972509 -1.24016 0
M  V30 3720 C 355.99 -0.637978 -1.92504 0
M  V30 3721 C 356.323 0.825383 -1.75787 0
M  V30 3722 O 355.598 1.59442 -1.11393 0
M  V30 3723 C 355.881 -1.01942 -3.45369 0
M  V30 3724 C 355.734 -2.53983 -3.71231 0
M  V30 3725 C 357.053 -0.55751 -4.36555 0
M  V30 3726 H 354.172 -0.233248 -0.699117 0
M  V30 3727 H 356.814 -1.21238 -1.46292 0
M  V30 3728 H 354.964 -0.530656 -3.84859 0
M  V30 3729 H 356.636 -3.10374 -3.41271 0
M  V30 3730 H 354.879 -2.96968 -3.16216 0
M  V30 3731 H 355.55 -2.75723 -4.78206 0
M  V30 3732 H 358.026 -0.977029 -4.04467 0
M  V30 3733 H 356.902 -0.85292 -5.42233 0
M  V30 3734 H 357.163 0.542328 -4.38761 0
M  V30 3735 N 356.222 1.38976 -0.743202 0
M  V30 3736 C 357.169 2.30544 -0.10861 0
M  V30 3737 C 358.139 1.49642 0.720869 0
M  V30 3738 O 359.324 1.78304 0.679142 0
M  V30 3739 C 356.464 3.36018 0.786496 0
M  V30 3740 C 355.577 4.31963 -0.0564849 0
M  V30 3741 C 354.712 5.24506 0.840657 0
M  V30 3742 C 353.751 6.121 -0.00658363 0
M  V30 3743 N 352.888 6.96973 0.846943 0
M  V30 3744 H 357.728 2.8424 -0.895088 0
M  V30 3745 H 355.265 1.3995 -0.453048 0
M  V30 3746 H 357.223 3.95768 1.31999 0
M  V30 3747 H 355.853 2.83758 1.53887 0
M  V30 3748 H 354.905 3.73763 -0.707492 0
M  V30 3749 H 356.217 4.93703 -0.711229 0
M  V30 3750 H 355.371 5.89322 1.4417 0
M  V30 3751 H 354.11 4.63107 1.52916 0
M  V30 3752 H 353.115 5.46289 -0.620366 0
M  V30 3753 H 354.34 6.75565 -0.691992 0
M  V30 3754 H 352.286 6.38133 1.52059 0
M  V30 3755 H 352.203 7.5559 0.248864 0
M  V30 3756 H 353.471 7.6621 1.43328 0
M  V30 3757 N 357.7 0.491464 1.49741 0
M  V30 3758 C 358.663 -0.280906 2.27472 0
M  V30 3759 C 359.663 -0.902454 1.33088 0
M  V30 3760 O 360.853 -0.768465 1.56334 0
M  V30 3761 C 357.985 -1.40209 3.10732 0
M  V30 3762 H 359.178 0.401056 2.97206 0
M  V30 3763 H 356.731 0.246131 1.5435 0
M  V30 3764 H 357.466 -2.11849 2.45541 0
M  V30 3765 H 357.251 -0.961969 3.80117 0
M  V30 3766 H 358.741 -1.9464 3.69466 0
M  V30 3767 N 359.178 -1.55987 0.224894 0
M  V30 3768 C 360.108 -2.23426 -0.678457 0
M  V30 3769 C 361.089 -1.20709 -1.19847 0
M  V30 3770 O 362.274 -1.49304 -1.24186 0
M  V30 3771 C 359.404 -2.91676 -1.88527 0
M  V30 3772 C 358.358 -4.00893 -1.49896 0
M  V30 3773 C 357.684 -4.56455 -2.78483 0
M  V30 3774 C 358.984 -5.17769 -0.686461 0
M  V30 3775 H 360.678 -2.99175 -0.116173 0
M  V30 3776 H 358.224 -1.43897 -0.054436 0
M  V30 3777 H 360.177 -3.37547 -2.5227 0
M  V30 3778 H 358.901 -2.1338 -2.47258 0
M  V30 3779 H 357.56 -3.55758 -0.884985 0
M  V30 3780 H 357.208 -3.74886 -3.35365 0
M  V30 3781 H 356.908 -5.30169 -2.53368 0
M  V30 3782 H 358.432 -5.05047 -3.43162 0
M  V30 3783 H 359.846 -5.60001 -1.22767 0
M  V30 3784 H 358.243 -5.97735 -0.532259 0
M  V30 3785 H 359.313 -4.83932 0.306196 0
M  V30 3786 N 360.656 0.0484629 -1.57525 0
M  V30 3787 C 361.566 1.07241 -2.08654 0
M  V30 3788 C 362.582 1.409 -1.02095 0
M  V30 3789 O 363.758 1.50609 -1.33712 0
M  V30 3790 C 360.823 2.36008 -2.5397 0
M  V30 3791 C 359.884 2.09108 -3.7493 0
M  V30 3792 C 359.117 3.31736 -4.18075 0
M  V30 3793 O 359.34 4.41714 -3.60895 0
M  V30 3794 O 358.274 3.18576 -5.10679 0
M  V30 3795 H 362.1 0.667965 -2.96263 0
M  V30 3796 H 359.685 0.26417 -1.47046 0
M  V30 3797 H 361.567 3.11747 -2.83535 0
M  V30 3798 H 360.242 2.75786 -1.69481 0
M  V30 3799 H 359.149 1.31 -3.50414 0
M  V30 3800 H 360.482 1.74198 -4.60343 0
M  V30 3801 N 362.134 1.5431 0.320358 0
M  V30 3802 C 363.383 1.7188 1.05546 0
M  V30 3803 C 363.696 0.501143 1.89071 0
M  V30 3804 O 364.902 0.558258 2.65699 0
M  V30 3805 C 363.358 3.04025 1.92605 0
M  V30 3806 C 362.966 4.33207 1.14176 0
M  V30 3807 C 364.71 3.30959 2.65832 0
M  V30 3808 C 362.617 5.56412 2.00399 0
M  V30 3809 H 361.547 0.640547 0.397763 0
M  V30 3810 H 364.198 1.80802 0.313522 0
M  V30 3811 H 362.58 2.89019 2.7071 0
M  V30 3812 H 363.754 4.58989 0.40819 0
M  V30 3813 H 362.069 4.13062 0.526165 0
M  V30 3814 H 364.666 4.20203 3.30656 0
M  V30 3815 H 365.009 2.48979 3.33639 0
M  V30 3816 H 365.542 3.46847 1.94787 0
M  V30 3817 H 362.281 6.41004 1.37094 0
M  V30 3818 H 361.801 5.34844 2.7148 0
M  V30 3819 H 363.48 5.92938 2.58908 0
M  V30 3820 N 363.613 -0.582584 1.46437 0
M  V30 3821 C 364.861 -1.33814 1.51453 0
M  V30 3822 C 365.182 -1.94277 0.167792 0
M  V30 3823 O 364.452 -1.78566 -0.805677 0
M  V30 3824 H 363.032 -0.496838 0.557818 0
M  V30 3825 H 365.694 -0.682281 1.82568 0
M  V30 3826 H 364.79 -2.14479 2.26728 0
M  V30 3827 N 365.091 -1.34144 -0.827227 0
M  V30 3828 C 366.337 -1.26446 -1.58554 0
M  V30 3829 C 366.67 0.1664 -1.93486 0
M  V30 3830 O 365.945 1.1107 -1.59667 0
M  V30 3831 C 366.228 -2.15111 -2.8879 0
M  V30 3832 C 366.081 -3.66712 -2.60465 0
M  V30 3833 C 367.4 -2.03311 -3.90324 0
M  V30 3834 H 364.519 -0.46067 -0.575284 0
M  V30 3835 H 367.161 -1.64356 -0.953269 0
M  V30 3836 H 365.311 -1.8291 -3.42748 0
M  V30 3837 H 366.983 -4.09259 -2.1285 0
M  V30 3838 H 365.226 -3.88014 -1.93978 0
M  V30 3839 H 365.897 -4.24112 -3.53317 0
M  V30 3840 H 368.373 -2.31574 -3.45706 0
M  V30 3841 H 367.249 -2.67582 -4.79261 0
M  V30 3842 H 367.51 -1.00879 -4.30437 0
M  V30 3843 N 366.569 1.04691 -1.17803 0
M  V30 3844 C 367.517 2.14665 -0.895635 0
M  V30 3845 C 368.511 1.68806 0.141679 0
M  V30 3846 O 369.717 1.79999 -0.00587914 0
M  V30 3847 H 366.092 0.701038 -0.272121 0
M  V30 3848 H 368.063 2.35685 -1.83017 0
M  V30 3849 C 366.812 3.45019 -0.430962 0
M  V30 3850 H 366.135 3.8071 -1.22064 0
M  V30 3851 H 367.575 4.23125 -0.272301 0
M  V30 3852 C 366.034 3.25943 0.852207 0
M  V30 3853 O 366.564 3.5296 1.91786 0
M  V30 3854 N 364.77 2.79304 0.802346 0
M  V30 3855 H 364.317 2.57518 -0.0650788 0
M  V30 3856 H 364.275 2.66921 1.66134 0
M  V30 3857 N 368.047 0.979072 1.23499 0
M  V30 3858 C 369.324 0.563674 1.87302 0
M  V30 3859 C 369.704 -0.959199 1.88049 0
M  V30 3860 O 369.052 -1.83535 1.36114 0
M  V30 3861 C 369.262 1.16822 3.28867 0
M  V30 3862 C 370.61 1.26014 4.0547 0
M  V30 3863 O 371.634 1.12158 3.38082 0
M  V30 3864 O 370.493 1.48044 5.26066 0
M  V30 3865 H 367.587 0.189602 0.804972 0
M  V30 3866 H 370.133 1.07407 1.31384 0
M  V30 3867 H 368.905 2.21049 3.22883 0
M  V30 3868 H 368.528 0.642564 3.92373 0
M  V30 3869 N 369.525 -1.3858 0.750561 0
M  V30 3870 C 370.774 -1.99424 0.302172 0
M  V30 3871 C 371.087 -1.60254 -1.12152 0
M  V30 3872 O 372.293 -2.14046 -1.67023 0
M  V30 3873 C 370.749 -3.56558 0.489307 0
M  V30 3874 C 370.357 -4.04682 1.92189 0
M  V30 3875 C 372.101 -4.24374 0.103478 0
M  V30 3876 C 370.008 -5.54446 2.05775 0
M  V30 3877 H 368.938 -0.746046 0.10923 0
M  V30 3878 H 371.589 -1.58383 0.92667 0
M  V30 3879 H 369.971 -3.95472 -0.204329 0
M  V30 3880 H 371.145 -3.77065 2.64875 0
M  V30 3881 H 369.46 -3.4958 2.26236 0
M  V30 3882 H 372.057 -5.34384 0.183787 0
M  V30 3883 H 372.4 -4.05468 -0.943481 0
M  V30 3884 H 372.933 -3.90688 0.748854 0
M  V30 3885 H 369.672 -5.78252 3.08714 0
M  V30 3886 H 369.192 -5.83816 1.37546 0
M  V30 3887 H 370.871 -6.20099 1.84626 0
M  V30 3888 N 371.003 -0.499398 -1.49478 0
M  V30 3889 C 371.933 0.269244 -2.31943 0
M  V30 3890 C 372.914 0.964054 -1.40143 0
M  V30 3891 O 374.099 0.955767 -1.69052 0
M  V30 3892 C 371.229 1.33504 -3.20615 0
M  V30 3893 C 370.183 0.760202 -4.21195 0
M  V30 3894 C 369.509 1.9264 -4.98792 0
M  V30 3895 C 370.809 -0.247661 -5.21712 0
M  V30 3896 H 372.503 -0.419082 -2.96452 0
M  V30 3897 H 370.049 -0.202988 -1.42562 0
M  V30 3898 H 372.002 1.88048 -3.77115 0
M  V30 3899 H 370.726 2.05253 -2.54045 0
M  V30 3900 H 369.385 0.23653 -3.65836 0
M  V30 3901 H 369.033 2.63154 -4.28671 0
M  V30 3902 H 368.733 1.54785 -5.66847 0
M  V30 3903 H 370.257 2.4762 -5.58137 0
M  V30 3904 H 371.671 0.209579 -5.72917 0
M  V30 3905 H 370.068 -0.541962 -5.97648 0
M  V30 3906 H 371.138 -1.16409 -4.7072 0
M  V30 3907 N 372.481 1.55866 -0.233164 0
M  V30 3908 C 373.706 2.03449 0.402906 0
M  V30 3909 C 374.131 1.11166 1.51736 0
M  V30 3910 O 373.489 0.101996 1.81013 0
M  V30 3911 C 373.537 3.49165 0.9009 0
M  V30 3912 O 372.641 3.60019 2.01147 0
M  V30 3913 H 371.982 0.657913 0.0897025 0
M  V30 3914 H 374.512 2.01493 -0.355201 0
M  V30 3915 H 374.522 3.89716 1.2077 0
M  V30 3916 H 373.197 4.15813 0.0852889 0
M  V30 3917 H 371.774 3.3136 1.71042 0
M  V30 3918 N 373.959 -0.0401083 1.57549 0
M  V30 3919 C 375.375 -0.395556 1.54621 0
M  V30 3920 C 375.575 -1.77281 0.957799 0
M  V30 3921 O 374.631 -2.45888 0.574031 0
M  V30 3922 C 375.944 -0.307535 2.99123 0
M  V30 3923 C 377.492 -0.385425 3.10618 0
M  V30 3924 C 377.967 -0.326973 4.56831 0
M  V30 3925 N 379.458 -0.386102 4.61588 0
M  V30 3926 C 380.193 -0.363591 5.72246 0
M  V30 3927 N 379.689 -0.29402 6.92176 0
M  V30 3928 N 381.482 -0.412503 5.60584 0
M  V30 3929 H 373.633 0.861325 1.94152 0
M  V30 3930 H 375.896 0.326445 0.890021 0
M  V30 3931 H 375.602 0.638461 3.45856 0
M  V30 3932 H 375.476 -1.10552 3.60636 0
M  V30 3933 H 377.863 -1.32185 2.63839 0
M  V30 3934 H 377.944 0.44171 2.51957 0
M  V30 3935 H 377.588 0.605738 5.04275 0
M  V30 3936 H 377.518 -1.17207 5.13391 0
M  V30 3937 H 380.009 -0.442832 3.75296 0
M  V30 3938 H 380.322 -0.28164 7.72287 0
M  V30 3939 H 378.667 -0.260232 6.94513 0
M  V30 3940 H 381.858 -0.464769 4.65787 0
M  V30 3941 H 382.031 -0.391492 6.46816 0
M  V30 3942 N 375.437 -1.54477 -0.31217 0
M  V30 3943 C 376.848 -1.64344 -0.885891 0
M  V30 3944 C 377.199 -0.54485 -1.88483 0
M  V30 3945 O 376.324 0.320387 -2.14015 0
M  V30 3946 C 376.919 -2.97908 -1.61357 0
M  V30 3947 C 375.478 -3.09933 -2.13585 0
M  V30 3948 C 374.625 -2.59971 -0.964897 0
M  V30 3949 H 377.576 -1.58448 -0.0894528 0
M  V30 3950 H 377.597 -2.88706 -2.47848 0
M  V30 3951 H 377.109 -3.77845 -0.886277 0
M  V30 3952 H 375.21 -2.34694 -2.89395 0
M  V30 3953 H 375.323 -4.15916 -2.37804 0
M  V30 3954 H 373.687 -2.16147 -1.34731 0
M  V30 3955 H 374.47 -3.42376 -0.251742 0
M  V30 3956 N 376.915 0.57481 -1.46744 0
M  V30 3957 C 378.164 1.32898 -1.51727 0
M  V30 3958 C 378.477 1.948 -0.176692 0
M  V30 3959 O 379.683 2.71299 -0.104385 0
M  V30 3960 C 378.139 2.40901 -2.67385 0
M  V30 3961 C 377.747 1.85266 -4.07898 0
M  V30 3962 C 379.491 3.17609 -2.81646 0
M  V30 3963 C 377.398 2.90945 -5.14883 0
M  V30 3964 H 376.328 0.499631 -0.564699 0
M  V30 3965 H 378.979 0.612536 -1.72975 0
M  V30 3966 H 377.361 3.15379 -2.39483 0
M  V30 3967 H 378.535 1.17278 -4.45626 0
M  V30 3968 H 376.85 1.21199 -3.98371 0
M  V30 3969 H 379.447 3.96493 -3.58744 0
M  V30 3970 H 379.79 3.70696 -1.89448 0
M  V30 3971 H 380.323 2.50239 -3.09233 0
M  V30 3972 H 377.062 2.42736 -6.089 0
M  V30 3973 H 376.582 3.57398 -4.81691 0
M  V30 3974 H 378.261 3.54755 -5.41071 0
M  V30 3975 N 378.394 1.34581 0.820102 0
M  V30 3976 C 379.671 1.17675 1.56244 0
M  V30 3977 C 380.051 -0.249541 2.0962 0
M  V30 3978 O 379.399 -1.25125 1.91196 0
M  V30 3979 C 379.609 2.23364 2.6816 0
M  V30 3980 C 380.957 2.58485 3.36854 0
M  V30 3981 O 381.981 2.22175 2.78418 0
M  V30 3982 O 380.84 3.20868 4.42386 0
M  V30 3983 H 377.934 0.456333 0.689702 0
M  V30 3984 H 380.48 1.46222 0.861231 0
M  V30 3985 H 379.252 3.19087 2.26493 0
M  V30 3986 H 378.875 1.96009 3.45928 0
M  V30 3987 N 379.872 -1.04064 1.18357 0
M  V30 3988 C 381.283 -1.58719 0.98312 0
M  V30 3989 C 381.634 -1.90556 -0.467193 0
M  V30 3990 O 380.759 -1.69561 -1.34454 0
M  V30 3991 C 381.354 -2.88379 1.77828 0
M  V30 3992 C 379.913 -3.3965 1.62218 0
M  V30 3993 C 379.06 -2.13235 1.77274 0
M  V30 3994 H 382.011 -0.867359 1.32901 0
M  V30 3995 H 382.032 -3.58773 1.26737 0
M  V30 3996 H 381.544 -2.65176 2.83379 0
M  V30 3997 H 379.645 -3.67866 0.592036 0
M  V30 3998 H 379.758 -4.13475 2.42023 0
M  V30 3999 H 378.122 -2.24542 1.20221 0
M  V30 4000 H 378.905 -1.92487 2.8426 0
M  V30 4001 N 381.35 -0.985608 -1.22978 0
M  V30 4002 C 382.282 -0.488154 -2.23941 0
M  V30 4003 C 383.295 0.41282 -1.57479 0
M  V30 4004 O 384.484 0.216121 -1.77187 0
M  V30 4005 C 381.584 0.312611 -3.37455 0
M  V30 4006 C 380.757 -0.582741 -4.33501 0
M  V30 4007 C 379.816 0.165064 -5.25941 0
M  V30 4008 O 378.842 -0.447077 -5.67442 0
M  V30 4009 N 380.044 1.44953 -5.62111 0
M  V30 4010 H 382.809 -1.3563 -2.67254 0
M  V30 4011 H 380.37 -0.859477 -1.37203 0
M  V30 4012 H 382.362 0.821357 -3.96277 0
M  V30 4013 H 380.932 1.0818 -2.93285 0
M  V30 4014 H 380.152 -1.27225 -3.73105 0
M  V30 4015 H 381.44 -1.19275 -4.94622 0
M  V30 4016 H 380.838 1.9683 -5.30353 0
M  V30 4017 H 379.395 1.90361 -6.23383 0
M  V30 4018 N 382.828 1.3818 -0.7579 0
M  V30 4019 C 383.738 2.3421 -0.135247 0
M  V30 4020 C 384.754 1.59487 0.695683 0
M  V30 4021 O 385.93 1.91657 0.618832 0
M  V30 4022 C 382.995 3.3862 0.744139 0
M  V30 4023 C 382.056 4.2918 -0.101658 0
M  V30 4024 C 381.289 5.28603 0.735851 0
M  V30 4025 O 381.512 5.35166 1.97366 0
M  V30 4026 O 380.446 6.01707 0.152372 0
M  V30 4027 H 384.272 2.8916 -0.928436 0
M  V30 4028 H 381.857 1.40101 -0.518855 0
M  V30 4029 H 383.739 4.02539 1.2466 0
M  V30 4030 H 382.414 2.86019 1.51575 0
M  V30 4031 H 381.321 3.68407 -0.650167 0
M  V30 4032 H 382.654 4.85048 -0.836024 0
M  V30 4033 N 384.306 0.507319 1.49211 0
M  V30 4034 C 385.236 -0.256939 2.32082 0
M  V30 4035 C 386.217 -0.956609 1.40652 0
M  V30 4036 O 387.402 -0.946788 1.69557 0
M  V30 4037 C 384.532 -1.31802 3.21318 0
M  V30 4038 C 383.486 -0.737855 4.21592 0
M  V30 4039 C 382.812 -1.89992 4.99807 0
M  V30 4040 C 384.112 0.275325 5.21574 0
M  V30 4041 H 385.806 0.434798 2.96226 0
M  V30 4042 H 383.352 0.210546 1.42452 0
M  V30 4043 H 385.305 -1.86045 3.78107 0
M  V30 4044 H 384.029 -2.03903 2.5513 0
M  V30 4045 H 382.688 -0.217126 3.65956 0
M  V30 4046 H 382.336 -2.60877 4.30061 0
M  V30 4047 H 382.036 -1.51777 5.6766 0
M  V30 4048 H 383.56 -2.44657 5.59442 0
M  V30 4049 H 384.974 -0.179193 5.7302 0
M  V30 4050 H 383.371 0.573649 5.97352 0
M  V30 4051 H 384.441 1.18903 4.70096 0
M  V30 4052 N 385.784 -1.5574 0.241426 0
M  V30 4053 C 387.009 -2.0366 -0.392111 0
M  V30 4054 C 387.434 -1.11969 -1.51144 0
M  V30 4055 O 386.792 -0.111594 -1.80956 0
M  V30 4056 C 386.84 -3.49638 -0.882371 0
M  V30 4057 O 385.944 -3.6108 -1.99235 0
M  V30 4058 H 385.285 -0.658379 -0.0862122 0
M  V30 4059 H 387.815 -2.01302 0.365881 0
M  V30 4060 H 387.825 -3.90351 -1.18702 0
M  V30 4061 H 386.5 -4.15852 -0.0632361 0
M  V30 4062 H 385.077 -3.32262 -1.69282 0
M  V30 4063 N 387.262 0.0317525 -1.57568 0
M  V30 4064 C 388.225 1.01783 -2.0536 0
M  V30 4065 C 389.225 1.29203 -0.957253 0
M  V30 4066 O 390.415 1.24251 -1.22095 0
M  V30 4067 C 387.547 2.35137 -2.46827 0
M  V30 4068 H 388.74 0.605062 -2.93733 0
M  V30 4069 H 386.293 0.278514 -1.53799 0
M  V30 4070 H 387.028 2.81168 -1.61602 0
M  V30 4071 H 386.813 2.16566 -3.26866 0
M  V30 4072 H 388.303 3.05938 -2.84239 0
M  V30 4073 N 388.74 1.54641 0.303973 0
M  V30 4074 C 390.156 1.45788 0.649463 0
M  V30 4075 C 390.356 0.64666 1.90842 0
M  V30 4076 O 389.412 0.153183 2.52035 0
M  V30 4077 C 390.725 2.89718 0.805227 0
M  V30 4078 C 392.273 2.99742 0.901305 0
M  V30 4079 C 392.748 4.44863 1.08909 0
M  V30 4080 N 394.239 4.48559 1.15536 0
M  V30 4081 C 394.974 5.58026 1.3189 0
M  V30 4082 N 394.47 6.77422 1.45161 0
M  V30 4083 N 396.263 5.45708 1.34755 0
M  V30 4084 H 388.414 2.05854 -0.523237 0
M  V30 4085 H 390.677 0.932186 -0.172431 0
M  V30 4086 H 390.383 3.51666 -0.0489108 0
M  V30 4087 H 390.257 3.36964 1.69513 0
M  V30 4088 H 392.644 2.3791 1.74593 0
M  V30 4089 H 392.725 2.55797 -0.0125531 0
M  V30 4090 H 392.369 5.07288 0.249241 0
M  V30 4091 H 392.299 4.86436 2.01713 0
M  V30 4092 H 394.79 3.6254 1.06646 0
M  V30 4093 H 395.103 7.56604 1.57387 0
M  V30 4094 H 393.448 6.80292 1.42223 0
M  V30 4095 H 396.639 4.51378 1.23996 0
M  V30 4096 H 396.812 6.3107 1.47157 0
M  V30 4097 N 390.218 -0.567019 1.47046 0
M  V30 4098 C 391.464 -1.32658 1.53394 0
M  V30 4099 C 391.797 -1.93254 0.19148 0
M  V30 4100 O 391.072 -1.77338 -0.798844 0
M  V30 4101 C 391.355 -2.44412 2.64452 0
M  V30 4102 C 391.208 -1.88749 4.08282 0
M  V30 4103 C 392.527 -3.46387 2.71485 0
M  V30 4104 H 389.646 -0.48098 0.558415 0
M  V30 4105 H 392.288 -0.635481 1.79058 0
M  V30 4106 H 390.438 -3.03363 2.427 0
M  V30 4107 H 392.11 -1.34134 4.41368 0
M  V30 4108 H 390.353 -1.19481 4.17021 0
M  V30 4109 H 391.024 -2.69491 4.81745 0
M  V30 4110 H 393.5 -2.9734 2.91081 0
M  V30 4111 H 392.376 -4.2202 3.50985 0
M  V30 4112 H 392.637 -4.04616 1.78153 0
M  V30 4113 N 391.696 -1.35014 -0.812953 0
M  V30 4114 C 392.643 -1.27412 -1.92444 0
M  V30 4115 C 393.613 -0.14733 -1.65445 0
M  V30 4116 O 394.798 -0.329974 -1.87925 0
M  V30 4117 C 391.938 -1.04558 -3.28879 0
M  V30 4118 C 391.051 -2.26101 -3.68106 0
M  V30 4119 C 390.186 -1.96449 -4.9354 0
M  V30 4120 C 389.225 -3.14081 -5.25376 0
M  V30 4121 N 388.362 -2.84246 -6.41988 0
M  V30 4122 H 393.202 -2.22463 -1.98278 0
M  V30 4123 H 390.739 -1.10593 -0.969933 0
M  V30 4124 H 392.697 -0.893413 -4.07522 0
M  V30 4125 H 391.327 -0.131719 -3.22531 0
M  V30 4126 H 390.379 -2.52204 -2.84775 0
M  V30 4127 H 391.691 -3.13959 -3.87597 0
M  V30 4128 H 390.845 -1.78026 -5.79993 0
M  V30 4129 H 389.584 -1.05867 -4.76071 0
M  V30 4130 H 388.589 -3.33089 -4.37415 0
M  V30 4131 H 389.814 -4.05455 -5.44778 0
M  V30 4132 H 387.76 -1.96252 -6.25956 0
M  V30 4133 H 387.677 -3.65637 -6.61699 0
M  V30 4134 H 388.945 -2.6935 -7.31485 0
M  V30 4135 N 393.175 1.03435 -1.18907 0
M  V30 4136 C 394.403 1.80381 -1.01342 0
M  V30 4137 C 394.818 1.83649 0.438005 0
M  V30 4138 O 394.175 1.27655 1.30424 0
M  V30 4139 C 394.226 3.25689 -1.56873 0
M  V30 4140 O 393.947 3.22673 -2.96334 0
M  V30 4141 C 395.448 4.19255 -1.44014 0
M  V30 4142 H 392.668 0.56784 -0.35749 0
M  V30 4143 H 395.212 1.30317 -1.576 0
M  V30 4144 H 393.367 3.72962 -1.04777 0
M  V30 4145 H 393.781 4.13748 -3.22355 0
M  V30 4146 H 395.255 5.19123 -1.87657 0
M  V30 4147 H 395.732 4.37467 -0.389815 0
M  V30 4148 H 396.338 3.77851 -1.95214 0
M  V30 4149 N 394.653 0.992116 1.22453 0
M  V30 4150 C 395.585 0.500024 2.23679 0
M  V30 4151 C 396.598 -0.404463 1.57696 0
M  V30 4152 O 397.787 -0.206722 1.77299 0
M  V30 4153 C 394.887 -0.294711 3.37616 0
M  V30 4154 C 394.06 0.605723 4.33186 0
M  V30 4155 C 393.119 -0.13717 5.26021 0
M  V30 4156 O 392.145 0.477164 5.67196 0
M  V30 4157 N 393.347 -1.4197 5.62872 0
M  V30 4158 H 396.112 1.37045 2.66531 0
M  V30 4159 H 393.673 0.866741 1.36745 0
M  V30 4160 H 395.665 -0.800329 3.96707 0
M  V30 4161 H 394.235 -1.06623 2.93854 0
M  V30 4162 H 393.455 1.29202 3.72425 0
M  V30 4163 H 394.743 1.21896 4.93983 0
M  V30 4164 H 394.141 -1.94015 5.31389 0
M  V30 4165 H 392.698 -1.87052 6.24383 0
M  V30 4166 N 396.131 -1.37776 0.765217 0
M  V30 4167 C 397.38 -1.99092 0.323307 0
M  V30 4168 C 397.693 -1.61434 -1.10446 0
M  V30 4169 O 398.899 -2.15805 -1.64743 0
M  V30 4170 C 397.355 -3.56019 0.527098 0
M  V30 4171 C 396.963 -4.0262 1.96471 0
M  V30 4172 C 398.707 -4.2424 0.148483 0
M  V30 4173 C 396.614 -5.52233 2.11644 0
M  V30 4174 H 395.544 -0.744846 0.117137 0
M  V30 4175 H 398.195 -1.57391 0.943417 0
M  V30 4176 H 396.577 -3.95667 -0.162372 0
M  V30 4177 H 397.751 -3.74234 2.68859 0
M  V30 4178 H 396.066 -3.47161 2.29931 0
M  V30 4179 H 398.663 -5.34159 0.240456 0
M  V30 4180 H 399.006 -4.06446 -0.900422 0
M  V30 4181 H 399.539 -3.89872 0.79025 0
M  V30 4182 H 396.278 -5.74945 3.1483 0
M  V30 4183 H 395.798 -5.82324 1.4373 0
M  V30 4184 H 397.477 -6.18106 1.91193 0
M  V30 4185 N 397.609 -0.515225 -1.4894 0
M  V30 4186 C 398.541 0.292481 -2.27326 0
M  V30 4187 C 399.554 0.917838 -1.3446 0
M  V30 4188 O 400.743 0.798772 -1.5963 0
M  V30 4189 C 397.843 1.42803 -3.07344 0
M  V30 4190 C 397.016 0.907347 -4.27885 0
M  V30 4191 C 396.075 1.92222 -4.89834 0
M  V30 4192 O 395.101 1.48506 -5.49486 0
M  V30 4193 N 396.303 3.25355 -4.80754 0
M  V30 4194 H 399.068 -0.379721 -2.97285 0
M  V30 4195 H 396.629 -0.348638 -1.58102 0
M  V30 4196 H 398.621 2.10481 -3.45658 0
M  V30 4197 H 397.191 2.00414 -2.39902 0
M  V30 4198 H 396.411 0.0550218 -3.94162 0
M  V30 4199 H 397.699 0.538108 -5.05946 0
M  V30 4200 H 397.097 3.6355 -4.33414 0
M  V30 4201 H 395.654 3.88707 -5.23211 0
M  V30 4202 N 399.087 1.5561 -0.249682 0
M  V30 4203 C 400.503 1.59254 0.105103 0
M  V30 4204 C 400.703 1.26685 1.56694 0
M  V30 4205 O 399.759 1.0155 2.31179 0
M  V30 4206 C 401.072 2.99687 -0.246592 0
M  V30 4207 C 402.62 3.12416 -0.191118 0
M  V30 4208 C 403.095 4.55074 -0.516885 0
M  V30 4209 N 404.586 4.60835 -0.467489 0
M  V30 4210 C 405.321 5.69201 -0.69268 0
M  V30 4211 N 404.817 6.85817 -0.981146 0
M  V30 4212 N 406.61 5.58635 -0.623198 0
M  V30 4213 H 398.761 1.75049 -1.20298 0
M  V30 4214 H 401.024 0.815003 -0.484225 0
M  V30 4215 H 400.73 3.28267 -1.26228 0
M  V30 4216 H 400.604 3.74798 0.424962 0
M  V30 4217 H 402.991 2.83615 0.815247 0
M  V30 4218 H 403.072 2.39573 -0.896563 0
M  V30 4219 H 402.716 4.84596 -1.52082 0
M  V30 4220 H 402.646 5.26181 0.210068 0
M  V30 4221 H 405.137 3.7705 -0.253373 0
M  V30 4222 H 405.45 7.64341 -1.14032 0
M  V30 4223 H 403.795 6.87494 -1.01865 0
M  V30 4224 H 406.986 4.66406 -0.397863 0
M  V30 4225 H 407.159 6.43017 -0.802093 0
M  V30 4226 N 400.565 -0.0233959 1.57583 0
M  V30 4227 C 401.512 -1.02224 2.06927 0
M  V30 4228 C 402.482 -1.35575 0.959617 0
M  V30 4229 O 403.667 -1.45815 1.23055 0
M  V30 4230 C 400.807 -2.31636 2.5581 0
M  V30 4231 C 399.92 -2.04394 3.80588 0
M  V30 4232 C 399.055 -3.27717 4.18061 0
M  V30 4233 C 398.094 -2.96056 5.3574 0
M  V30 4234 N 397.231 -4.11847 5.68618 0
M  V30 4235 H 402.071 -0.594504 2.9201 0
M  V30 4236 H 399.608 -0.281921 1.44373 0
M  V30 4237 H 401.566 -3.07258 2.82221 0
M  V30 4238 H 400.196 -2.72122 1.73636 0
M  V30 4239 H 399.248 -1.19244 3.61227 0
M  V30 4240 H 400.56 -1.77042 4.66323 0
M  V30 4241 H 399.714 -4.11702 4.4563 0
M  V30 4242 H 398.453 -3.58188 3.30988 0
M  V30 4243 H 397.458 -2.10474 5.07918 0
M  V30 4244 H 398.683 -2.66857 6.24471 0
M  V30 4245 H 396.629 -4.42258 4.84504 0
M  V30 4246 H 396.546 -3.87938 6.48876 0
M  V30 4247 H 397.814 -4.96689 6.00766 0
M  V30 4248 N 402.043 -1.548 -0.295768 0
M  V30 4249 C 403.459 -1.4613 -0.641722 0
M  V30 4250 C 403.659 -0.656771 -1.90496 0
M  V30 4251 O 402.715 -0.166547 -2.5195 0
M  V30 4252 C 404.028 -2.90141 -0.789852 0
M  V30 4253 C 405.576 -3.00216 -0.885396 0
M  V30 4254 C 406.051 -4.45434 -1.06548 0
M  V30 4255 N 407.542 -4.49166 -1.13156 0
M  V30 4256 C 408.277 -5.58717 -1.28929 0
M  V30 4257 N 407.773 -6.78182 -1.41567 0
M  V30 4258 N 409.566 -5.46415 -1.31859 0
M  V30 4259 H 401.717 -2.05574 0.534147 0
M  V30 4260 H 403.98 -0.931259 0.177372 0
M  V30 4261 H 403.686 -3.51635 0.0675598 0
M  V30 4262 H 403.56 -3.37859 -1.67724 0
M  V30 4263 H 405.947 -2.38833 -1.73329 0
M  V30 4264 H 406.028 -2.55787 0.0261185 0
M  V30 4265 H 405.672 -5.07413 -0.222335 0
M  V30 4266 H 405.602 -4.87499 -1.9913 0
M  V30 4267 H 408.093 -3.631 -1.04721 0
M  V30 4268 H 408.406 -7.57428 -1.53372 0
M  V30 4269 H 406.751 -6.81037 -1.38613 0
M  V30 4270 H 409.942 -4.5203 -1.21601 0
M  V30 4271 H 410.115 -6.31841 -1.43808 0
M  V30 4272 N 403.521 0.559213 -1.47345 0
M  V30 4273 C 404.751 1.33999 -1.57251 0
M  V30 4274 C 405.159 1.87905 -0.220978 0
M  V30 4275 O 404.502 1.65577 0.795617 0
M  V30 4276 C 404.564 2.54798 -2.53611 0
M  V30 4277 C 404.228 2.22192 -3.99349 0
M  V30 4278 C 405.225 1.79607 -4.87891 0
M  V30 4279 C 402.91 2.33613 -4.44669 0
M  V30 4280 C 404.904 1.48868 -6.19772 0
M  V30 4281 C 402.591 2.02487 -5.76578 0
M  V30 4282 C 403.589 1.60183 -6.63951 0
M  V30 4283 O 403.277 1.29451 -7.93409 0
M  V30 4284 H 403.009 0.414858 -0.533731 0
M  V30 4285 H 405.563 0.684465 -1.9366 0
M  V30 4286 H 403.793 3.23235 -2.12265 0
M  V30 4287 H 405.482 3.16873 -2.53666 0
M  V30 4288 H 406.248 1.70278 -4.54126 0
M  V30 4289 H 402.127 2.65501 -3.76869 0
M  V30 4290 H 405.671 1.15775 -6.87926 0
M  V30 4291 H 401.568 2.11448 -6.09885 0
M  V30 4292 H 402.336 1.43098 -8.05894 0
M  V30 4293 N 404.999 1.35443 0.805782 0
M  V30 4294 C 406.227 1.31878 1.59423 0
M  V30 4295 C 406.642 -0.103562 1.88516 0
M  V30 4296 O 405.999 -1.05575 1.48863 0
M  V30 4297 C 406.05 2.12426 2.92502 0
M  V30 4298 O 405.771 3.49115 2.6467 0
M  V30 4299 C 407.272 2.16455 3.86862 0
M  V30 4300 H 404.492 0.453002 0.495005 0
M  V30 4301 H 407.036 1.78309 1.00131 0
M  V30 4302 H 405.191 1.69593 3.48306 0
M  V30 4303 H 405.605 3.90957 3.49647 0
M  V30 4304 H 407.079 2.77204 4.77349 0
M  V30 4305 H 407.556 1.16352 4.23508 0
M  V30 4306 H 408.162 2.59453 3.36993 0
M  V30 4307 N 406.477 -1.02803 1.19454 0
M  V30 4308 C 407.754 -1.73299 0.907013 0
M  V30 4309 C 408.134 -2.02772 -0.587086 0
M  V30 4310 O 407.482 -1.68304 -1.54551 0
M  V30 4311 C 407.692 -3.00912 1.76785 0
M  V30 4312 C 409.04 -3.74403 2.00268 0
M  V30 4313 O 410.064 -3.10841 1.73943 0
M  V30 4314 O 408.923 -4.88675 2.4466 0
M  V30 4315 H 406.017 -0.754727 0.338106 0
M  V30 4316 H 408.563 -1.08754 1.30271 0
M  V30 4317 H 407.335 -2.75366 2.7801 0
M  V30 4318 H 406.958 -3.73197 1.37149 0
M  V30 4319 N 407.956 -0.998596 -1.21925 0
M  V30 4320 C 409.186 -0.695276 -1.94549 0
M  V30 4321 C 409.594 0.745079 -1.73911 0
M  V30 4322 O 408.937 1.51507 -1.03881 0
M  V30 4323 C 408.999 -0.928485 -3.47303 0
M  V30 4324 C 408.663 -2.35443 -3.91683 0
M  V30 4325 C 409.66 -3.33428 -3.98901 0
M  V30 4326 C 407.345 -2.69038 -4.24174 0
M  V30 4327 C 409.339 -4.63079 -4.37992 0
M  V30 4328 C 407.026 -3.98906 -4.62944 0
M  V30 4329 C 408.024 -4.95738 -4.69822 0
M  V30 4330 O 407.712 -6.23285 -5.07711 0
M  V30 4331 H 407.444 -0.255902 -0.625692 0
M  V30 4332 H 409.998 -1.33767 -1.5587 0
M  V30 4333 H 408.228 -0.228917 -3.86022 0
M  V30 4334 H 409.917 -0.619539 -4.01144 0
M  V30 4335 H 410.683 -3.08807 -3.73983 0
M  V30 4336 H 406.562 -1.94367 -4.18022 0
M  V30 4337 H 410.106 -5.38658 -4.43275 0
M  V30 4338 H 406.003 -4.23314 -4.87314 0
M  V30 4339 H 406.771 -6.27306 -5.25766 0
M  V30 4340 N 409.434 1.37368 -0.772513 0
M  V30 4341 C 410.364 2.32856 -0.173304 0
M  V30 4342 C 411.345 1.55818 0.682262 0
M  V30 4343 O 412.53 1.84052 0.619566 0
M  V30 4344 C 409.66 3.40048 0.706007 0
M  V30 4345 C 408.614 4.27973 -0.0483144 0
M  V30 4346 C 407.94 5.26184 0.950491 0
M  V30 4347 C 409.24 5.07665 -1.22776 0
M  V30 4348 H 410.934 2.83217 -0.971002 0
M  V30 4349 H 408.48 1.3617 -0.468377 0
M  V30 4350 H 410.433 4.05827 1.13501 0
M  V30 4351 H 409.157 2.88214 1.53623 0
M  V30 4352 H 407.816 3.63726 -0.458107 0
M  V30 4353 H 407.464 4.7063 1.77529 0
M  V30 4354 H 407.164 5.85872 0.450314 0
M  V30 4355 H 408.688 5.94838 1.37842 0
M  V30 4356 H 410.102 5.66578 -0.875366 0
M  V30 4357 H 408.499 5.76681 -1.66007 0
M  V30 4358 H 409.569 4.40294 -2.03149 0
M  V30 4359 N 410.912 0.523116 1.48665 0
M  V30 4360 C 412.328 0.180511 1.58576 0
M  V30 4361 C 412.528 -1.31597 1.52592 0
M  V30 4362 O 411.584 -2.0937 1.4114 0
M  V30 4363 C 412.897 0.776949 2.90489 0
M  V30 4364 C 414.445 0.745058 3.04003 0
M  V30 4365 C 414.92 1.31995 4.38567 0
M  V30 4366 N 416.411 1.28162 4.45117 0
M  V30 4367 C 417.146 1.6964 5.47731 0
M  V30 4368 N 416.642 2.18816 6.57337 0
M  V30 4369 N 418.435 1.6092 5.38573 0
M  V30 4370 H 410.586 1.4958 1.50797 0
M  V30 4371 H 412.849 0.621772 0.715614 0
M  V30 4372 H 412.555 1.82732 3.00503 0
M  V30 4373 H 412.429 0.25007 3.7637 0
M  V30 4374 H 414.816 -0.296532 2.93606 0
M  V30 4375 H 414.897 1.30933 2.1975 0
M  V30 4376 H 414.541 2.36043 4.49718 0
M  V30 4377 H 414.471 0.731418 5.21496 0
M  V30 4378 H 416.962 0.92155 3.66491 0
M  V30 4379 H 417.275 2.48478 7.31764 0
M  V30 4380 H 415.62 2.22805 6.58318 0
M  V30 4381 H 418.811 1.22304 4.5184 0
M  V30 4382 H 418.984 1.93567 6.18414 0
M  V30 4383 N 412.39 -1.55475 0.257931 0
M  V30 4384 C 413.338 -2.23244 -0.653076 0
M  V30 4385 C 414.332 -1.22366 -1.17144 0
M  V30 4386 O 415.538 -1.40347 -1.12706 0
M  V30 4387 H 411.913 -0.716247 -0.229117 0
M  V30 4388 H 413.884 -2.98343 -0.0584788 0
M  V30 4389 C 412.633 -2.95401 -1.83395 0
M  V30 4390 H 411.956 -3.72802 -1.44424 0
M  V30 4391 H 413.396 -3.46165 -2.44838 0
M  V30 4392 C 411.855 -1.99895 -2.71189 0
M  V30 4393 O 412.385 -1.53909 -3.71046 0
M  V30 4394 N 410.591 -1.6676 -2.3799 0
M  V30 4395 H 410.138 -2.04352 -1.56837 0
M  V30 4396 H 410.096 -1.03127 -2.97005 0
M  V30 4397 N 413.868 0.0150385 -1.57593 0
M  V30 4398 C 414.816 1.02958 -2.08572 0
M  V30 4399 C 415.81 1.36554 -1.00246 0
M  V30 4400 O 417.016 1.35295 -1.18724 0
M  V30 4401 H 413.391 0.349619 -0.665786 0
M  V30 4402 H 415.362 0.573932 -2.92829 0
M  V30 4403 C 414.111 2.31752 -2.59203 0
M  V30 4404 H 413.434 2.06765 -3.42182 0
M  V30 4405 H 414.874 3.01053 -2.98568 0
M  V30 4406 C 413.333 3.01692 -1.49945 0
M  V30 4407 O 413.863 3.92083 -0.873704 0
M  V30 4408 N 412.069 2.6326 -1.23056 0
M  V30 4409 H 411.616 1.89838 -1.74125 0
M  V30 4410 H 411.574 3.10372 -0.501685 0
M  V30 4411 N 415.346 1.54954 0.287554 0
M  V30 4412 C 416.276 1.89839 1.35954 0
M  V30 4413 C 417.257 0.758675 1.52244 0
M  V30 4414 O 418.442 1.01557 1.65529 0
M  V30 4415 C 415.572 2.15753 2.72154 0
M  V30 4416 C 414.526 3.3159 2.70614 0
M  V30 4417 C 413.852 3.42952 4.10229 0
M  V30 4418 C 415.152 4.68359 2.31165 0
M  V30 4419 H 416.846 2.79625 1.07007 0
M  V30 4420 H 414.392 1.3454 0.513316 0
M  V30 4421 H 416.345 2.38743 3.47246 0
M  V30 4422 H 415.069 1.22752 3.02654 0
M  V30 4423 H 413.728 3.08545 1.97979 0
M  V30 4424 H 413.376 2.47443 4.37928 0
M  V30 4425 H 413.076 4.20826 4.10097 0
M  V30 4426 H 414.6 3.68218 4.87081 0
M  V30 4427 H 416.014 4.9099 2.95976 0
M  V30 4428 H 414.411 5.49044 2.42221 0
M  V30 4429 H 415.481 4.68165 1.26291 0
M  V30 4430 N 416.824 -0.551391 1.4764 0
M  V30 4431 C 418.101 -1.31229 1.45046 0
M  V30 4432 C 418.481 -2.10563 0.150527 0
M  V30 4433 O 417.829 -2.11374 -0.867956 0
M  V30 4434 C 418.039 -2.21189 2.69956 0
M  V30 4435 C 419.387 -2.82021 3.1741 0
M  V30 4436 O 420.411 -2.31488 2.70724 0
M  V30 4437 O 419.27 -3.73885 3.98588 0
M  V30 4438 H 416.364 -0.591193 0.578291 0
M  V30 4439 H 418.91 -0.569813 1.59847 0
M  V30 4440 H 417.682 -1.62207 3.56096 0
M  V30 4441 H 417.305 -3.02722 2.57769 0
M  V30 4442 N 418.302 -1.35869 -0.798587 0
M  V30 4443 C 419.252 -1.25982 -1.90033 0
M  V30 4444 C 420.236 -0.153303 -1.60168 0
M  V30 4445 O 421.428 -0.38527 -1.72756 0
M  V30 4446 C 418.557 -1.04211 -3.27101 0
M  V30 4447 C 417.643 -2.19289 -3.63006 0
M  V30 4448 N 418.034 -3.44559 -3.70287 0
M  V30 4449 C 416.332 -2.10852 -3.93011 0
M  V30 4450 C 417.033 -4.20283 -4.02166 0
M  V30 4451 N 416.009 -3.49124 -4.16669 0
M  V30 4452 H 419.811 -2.20883 -1.93876 0
M  V30 4453 H 417.325 -1.28457 -0.993614 0
M  V30 4454 H 419.322 -0.952155 -4.05881 0
M  V30 4455 H 417.982 -0.102013 -3.2454 0
M  V30 4456 H 418.993 -3.7881 -3.53162 0
M  V30 4457 H 415.67 -1.24744 -3.98428 0
M  V30 4458 H 417.06 -5.28575 -4.14799 0
M  V30 4459 N 419.78 1.02168 -1.19998 0
M  V30 4460 C 421.005 1.79833 -1.03319 0
M  V30 4461 C 421.43 1.83504 0.413281 0
M  V30 4462 O 420.788 1.26635 1.29743 0
M  V30 4463 C 420.836 3.22396 -1.61533 0
M  V30 4464 O 419.94 4.03555 -0.849519 0
M  V30 4465 H 419.281 0.554872 -0.364709 0
M  V30 4466 H 421.811 1.28542 -1.59179 0
M  V30 4467 H 421.821 3.73124 -1.65054 0
M  V30 4468 H 420.496 3.19039 -2.66809 0
M  V30 4469 H 419.073 3.62169 -0.888129 0
M  V30 4470 N 421.258 1.00505 1.21394 0
M  V30 4471 C 422.188 0.585684 2.26035 0
M  V30 4472 C 423.169 -0.393525 1.65485 0
M  V30 4473 O 424.354 -0.281497 1.92149 0
M  V30 4474 C 421.484 -0.0884283 3.47187 0
M  V30 4475 C 420.438 0.810567 4.20254 0
M  V30 4476 C 419.764 0.00286382 5.347 0
M  V30 4477 C 421.064 2.1132 4.77641 0
M  V30 4478 H 422.758 1.46039 2.61368 0
M  V30 4479 H 420.304 0.703648 1.25638 0
M  V30 4480 H 422.257 -0.393286 4.19561 0
M  V30 4481 H 420.981 -0.997766 3.10986 0
M  V30 4482 H 419.64 1.09925 3.49731 0
M  V30 4483 H 419.288 -0.907765 4.94741 0
M  V30 4484 H 418.988 0.601444 5.84514 0
M  V30 4485 H 420.512 -0.295808 6.09883 0
M  V30 4486 H 421.926 1.87148 5.41893 0
M  V30 4487 H 420.323 2.66164 5.37845 0
M  V30 4488 H 421.393 2.78393 3.9702 0
M  V30 4489 N 422.737 -1.36956 0.779787 0
M  V30 4490 C 423.647 -2.33965 0.172491 0
M  V30 4491 C 424.663 -1.60574 -0.670222 0
M  V30 4492 O 425.839 -1.92617 -0.588263 0
M  V30 4493 C 422.904 -3.39761 -0.690173 0
M  V30 4494 C 421.965 -4.28964 0.169924 0
M  V30 4495 C 421.198 -5.29707 -0.651662 0
M  V30 4496 O 421.421 -5.38238 -1.88827 0
M  V30 4497 O 420.355 -6.01873 -0.0566264 0
M  V30 4498 H 424.181 -2.87647 0.974321 0
M  V30 4499 H 421.766 -1.39258 0.541078 0
M  V30 4500 H 423.648 -4.04471 -1.1824 0
M  V30 4501 H 422.323 -2.88394 -1.47006 0
M  V30 4502 H 421.23 -3.67326 0.708696 0
M  V30 4503 H 422.563 -4.83656 0.913085 0
M  V30 4504 N 424.215 -0.530993 -1.48385 0
M  V30 4505 C 425.145 0.219985 -2.32461 0
M  V30 4506 C 426.126 0.934111 -1.42156 0
M  V30 4507 O 427.311 0.919694 -1.71042 0
M  V30 4508 C 424.441 1.26674 -3.23375 0
M  V30 4509 C 423.395 0.67069 -4.22712 0
M  V30 4510 C 422.721 1.82017 -5.02766 0
M  V30 4511 C 424.021 -0.358268 -5.2107 0
M  V30 4512 H 425.715 -0.48187 -2.95497 0
M  V30 4513 H 423.261 -0.233182 -1.42099 0
M  V30 4514 H 425.214 1.80006 -3.81019 0
M  V30 4515 H 423.938 1.99818 -2.58341 0
M  V30 4516 H 422.597 0.158878 -3.66256 0
M  V30 4517 H 422.245 2.54002 -4.34157 0
M  V30 4518 H 421.945 1.42727 -5.70003 0
M  V30 4519 H 423.469 2.35725 -5.63264 0
M  V30 4520 H 424.883 0.0880081 -5.73232 0
M  V30 4521 H 423.28 -0.66861 -5.96364 0
M  V30 4522 H 424.35 -1.26367 -4.68145 0
M  V30 4523 N 425.693 1.55336 -0.266172 0
M  V30 4524 C 426.656 2.20878 0.612001 0
M  V30 4525 C 427.656 1.18388 1.08816 0
M  V30 4526 O 428.846 1.4335 0.989774 0
M  V30 4527 C 425.978 2.86765 1.84332 0
M  V30 4528 H 427.171 2.99873 0.0398718 0
M  V30 4529 H 424.724 1.56291 -0.0167309 0
M  V30 4530 H 425.459 2.11759 2.45619 0
M  V30 4531 H 425.244 3.61862 1.5099 0
M  V30 4532 H 426.734 3.36867 2.46801 0
M  V30 4533 N 427.171 -0.0066808 1.57599 0
M  V30 4534 C 428.417 -0.693947 1.90558 0
M  V30 4535 C 428.75 -1.73792 0.866594 0
M  V30 4536 O 428.025 -1.94156 -0.115548 0
M  V30 4537 C 428.308 -1.34317 3.34112 0
M  V30 4538 C 428.161 -0.311189 4.48722 0
M  V30 4539 C 429.48 -2.27116 3.7697 0
M  V30 4540 H 426.599 -0.250803 0.693013 0
M  V30 4541 H 429.241 0.043242 1.89951 0
M  V30 4542 H 427.391 -1.9715 3.3476 0
M  V30 4543 H 429.063 0.316944 4.6021 0
M  V30 4544 H 427.306 0.367253 4.32243 0
M  V30 4545 H 427.977 -0.804366 5.46108 0
M  V30 4546 H 430.453 -1.74306 3.77831 0
M  V30 4547 H 429.329 -2.69511 4.78179 0
M  V30 4548 H 429.59 -3.14743 3.10466 0
M  V30 4549 N 428.649 -1.55105 -0.279332 0
M  V30 4550 C 429.877 -1.7943 -1.03017 0
M  V30 4551 C 430.292 -0.564456 -1.80165 0
M  V30 4552 O 429.649 0.466326 -1.76442 0
M  V30 4553 C 429.7 -3.0155 -1.99374 0
M  V30 4554 O 429.421 -4.19784 -1.25352 0
M  V30 4555 C 430.922 -3.3843 -2.86321 0
M  V30 4556 H 428.142 -0.597882 -0.304594 0
M  V30 4557 H 430.686 -2.02105 -0.312035 0
M  V30 4558 H 428.841 -2.81019 -2.66659 0
M  V30 4559 H 429.255 -4.88781 -1.90246 0
M  V30 4560 H 430.729 -4.27066 -3.49741 0
M  V30 4561 H 431.206 -2.57549 -3.5576 0
M  V30 4562 H 431.812 -3.61197 -2.24536 0
M  V30 4563 N 430.127 0.543554 -1.4793 0
M  V30 4564 C 431.404 1.30458 -1.4574 0
M  V30 4565 C 431.784 2.1048 -0.161692 0
M  V30 4566 O 431.132 2.11831 0.856734 0
M  V30 4567 C 431.342 2.19754 -2.71126 0
M  V30 4568 C 432.69 2.80334 -3.18901 0
M  V30 4569 O 433.714 2.30049 -2.71948 0
M  V30 4570 O 432.573 3.71766 -4.00565 0
M  V30 4571 H 429.667 0.588117 -0.581418 0
M  V30 4572 H 432.213 0.561328 -1.60147 0
M  V30 4573 H 430.985 1.60316 -3.56952 0
M  V30 4574 H 430.608 3.01351 -2.59371 0
M  V30 4575 N 431.605 1.3629 0.791371 0
M  V30 4576 C 432.537 1.26321 1.91248 0
M  V30 4577 C 433.55 0.18313 1.61767 0
M  V30 4578 O 434.739 0.437682 1.73051 0
M  V30 4579 C 431.839 0.925901 3.26007 0
M  V30 4580 C 431.012 2.10746 3.83281 0
M  V30 4581 C 430.071 1.74352 4.96475 0
M  V30 4582 O 429.097 2.46416 5.13096 0
M  V30 4583 N 430.299 0.676058 5.7655 0
M  V30 4584 H 433.064 2.22915 2.00323 0
M  V30 4585 H 430.625 1.29659 0.969546 0
M  V30 4586 H 432.617 0.663636 3.99222 0
M  V30 4587 H 431.187 0.0491581 3.12561 0
M  V30 4588 H 430.407 2.53264 3.02077 0
M  V30 4589 H 431.695 2.8969 4.18279 0
M  V30 4590 H 431.093 0.0776467 5.65647 0
M  V30 4591 H 429.65 0.473612 6.50077 0
M  V30 4592 N 433.083 -1.0153 1.20538 0
M  V30 4593 C 434.013 -2.11972 0.979295 0
M  V30 4594 C 434.994 -1.6985 -0.0921787 0
M  V30 4595 O 436.179 -1.94089 0.0655932 0
M  V30 4596 C 433.309 -3.43201 0.531984 0
M  V30 4597 C 432.263 -3.9907 1.54685 0
M  V30 4598 C 431.589 -5.26082 0.956127 0
M  V30 4599 C 432.889 -4.32313 2.93092 0
M  V30 4600 H 434.583 -2.31143 1.90298 0
M  V30 4601 H 432.129 -1.11079 0.916372 0
M  V30 4602 H 434.082 -4.1985 0.361044 0
M  V30 4603 H 432.806 -3.23792 -0.427327 0
M  V30 4604 H 431.465 -3.2453 1.70517 0
M  V30 4605 H 431.113 -5.02999 -0.0111538 0
M  V30 4606 H 430.813 -5.64426 1.63393 0
M  V30 4607 H 432.337 -6.05386 0.796284 0
M  V30 4608 H 433.751 -4.99845 2.80763 0
M  V30 4609 H 432.148 -4.81774 3.57791 0
M  V30 4610 H 433.218 -3.41025 3.44717 0
M  V30 4611 N 434.561 -1.01147 -1.20859 0
M  V30 4612 C 435.789 -0.716911 -1.94082 0
M  V30 4613 C 436.204 0.721568 -1.74467 0
M  V30 4614 O 435.561 1.48889 -1.05539 0
M  V30 4615 C 435.612 -1.03662 -3.46318 0
M  V30 4616 O 435.333 -2.4186 -3.65288 0
M  V30 4617 C 436.834 -0.762386 -4.36695 0
M  V30 4618 H 434.054 -0.26367 -0.617024 0
M  V30 4619 H 436.598 -1.35127 -1.53496 0
M  V30 4620 H 434.753 -0.447757 -3.84804 0
M  V30 4621 H 435.167 -2.53224 -4.59323 0
M  V30 4622 H 436.641 -1.03621 -5.42187 0
M  V30 4623 H 437.118 0.303514 -4.3815 0
M  V30 4624 H 437.724 -1.33316 -4.03865 0
M  V30 4625 N 436.039 1.36541 -0.78704 0
M  V30 4626 C 437.287 1.98911 -0.357633 0
M  V30 4627 C 437.608 1.62778 1.07371 0
M  V30 4628 O 436.878 0.900612 1.73971 0
M  V30 4629 H 435.458 0.735734 -0.129246 0
M  V30 4630 H 438.12 1.66776 -1.00855 0
M  V30 4631 H 437.216 3.08874 -0.447549 0
M  V30 4632 N 437.518 0.538854 1.48102 0
M  V30 4633 C 438.448 -0.207654 2.32575 0
M  V30 4634 C 439.429 -0.926559 1.4265 0
M  V30 4635 O 440.614 -0.91061 1.71527 0
M  V30 4636 C 437.744 -1.24957 3.24042 0
M  V30 4637 C 436.698 -0.648263 4.23062 0
M  V30 4638 C 436.024 -1.79348 5.03725 0
M  V30 4639 C 437.324 0.385897 5.20872 0
M  V30 4640 H 439.018 0.497534 2.95237 0
M  V30 4641 H 436.564 0.240715 1.41974 0
M  V30 4642 H 438.517 -1.77983 3.81969 0
M  V30 4643 H 437.241 -1.98446 2.59397 0
M  V30 4644 H 435.9 -0.139452 3.66335 0
M  V30 4645 H 435.548 -2.51696 4.35498 0
M  V30 4646 H 435.248 -1.39702 5.70751 0
M  V30 4647 H 436.772 -2.32735 5.64506 0
M  V30 4648 H 438.186 -0.057607 5.73271 0
M  V30 4649 H 436.583 0.700227 5.96001 0
M  V30 4650 H 437.653 1.28848 4.67468 0
M  V30 4651 N 438.996 -1.55193 0.274407 0
M  V30 4652 C 439.946 -2.19184 -0.627882 0
M  V30 4653 C 440.93 -1.15625 -1.11892 0
M  V30 4654 O 442.122 -1.41441 -1.06411 0
M  V30 4655 C 439.251 -2.91591 -1.81189 0
M  V30 4656 C 438.337 -4.02438 -1.33807 0
M  V30 4657 N 438.728 -5.0246 -0.580349 0
M  V30 4658 C 437.026 -4.15496 -1.62109 0
M  V30 4659 C 437.727 -5.80756 -0.331344 0
M  V30 4660 N 436.703 -5.36038 -0.903556 0
M  V30 4661 H 440.505 -2.93871 -0.0411216 0
M  V30 4662 H 438.019 -1.62213 0.0779348 0
M  V30 4663 H 440.016 -3.35883 -2.46957 0
M  V30 4664 H 438.676 -2.18414 -2.40261 0
M  V30 4665 H 439.687 -5.17399 -0.227762 0
M  V30 4666 H 436.364 -3.53509 -2.22121 0
M  V30 4667 H 437.754 -6.71335 0.275454 0
M  V30 4668 N 440.474 -0.00167713 -1.576 0
M  V30 4669 C 441.422 1.0074 -2.09652 0
M  V30 4670 C 442.416 1.35483 -1.01689 0
M  V30 4671 O 443.622 1.34028 -1.20152 0
M  V30 4672 H 439.997 0.342537 -0.669457 0
M  V30 4673 H 441.968 0.542841 -2.93421 0
M  V30 4674 C 440.717 2.2899 -2.61647 0
M  V30 4675 H 440.04 2.03124 -3.44355 0
M  V30 4676 H 441.48 2.9787 -3.01744 0
M  V30 4677 C 439.939 3.00085 -1.53136 0
M  V30 4678 O 440.469 3.91135 -0.91524 0
M  V30 4679 N 438.675 2.6194 -1.25841 0
M  V30 4680 H 438.222 1.8798 -1.76129 0
M  V30 4681 H 438.18 3.09822 -0.534576 0
M  V30 4682 N 441.952 1.55251 0.271103 0
M  V30 4683 C 443.368 1.47133 0.618393 0
M  V30 4684 C 443.568 0.686994 1.89427 0
M  V30 4685 O 442.624 0.206609 2.51653 0
M  V30 4686 C 443.937 2.91361 0.743593 0
M  V30 4687 C 445.485 3.01587 0.837522 0
M  V30 4688 C 445.96 4.47073 0.994483 0
M  V30 4689 N 447.451 4.50909 1.05996 0
M  V30 4690 C 448.186 5.60698 1.20024 0
M  V30 4691 N 447.682 6.80348 1.30759 0
M  V30 4692 N 449.475 5.48444 1.23149 0
M  V30 4693 H 441.626 2.04698 -0.566784 0
M  V30 4694 H 443.889 0.928319 -0.192165 0
M  V30 4695 H 443.595 3.51483 -0.123493 0
M  V30 4696 H 443.469 3.40484 1.62328 0
M  V30 4697 H 445.856 2.4156 1.69507 0
M  V30 4698 H 445.937 2.55713 -0.0668086 0
M  V30 4699 H 445.581 5.07703 0.141582 0
M  V30 4700 H 445.511 4.90605 1.91349 0
M  V30 4701 H 448.002 3.6472 0.989316 0
M  V30 4702 H 448.315 7.59772 1.41303 0
M  V30 4703 H 446.66 6.83156 1.27761 0
M  V30 4704 H 449.851 4.53907 1.14394 0
M  V30 4705 H 450.024 6.34049 1.33738 0
M  V30 4706 N 443.43 -0.535701 1.48216 0
M  V30 4707 C 444.846 -0.863701 1.3421 0
M  V30 4708 C 445.046 -1.98458 0.34879 0
M  V30 4709 O 444.102 -2.51432 -0.23204 0
M  V30 4710 C 445.415 -1.23662 2.74095 0
M  V30 4711 C 446.963 -1.34683 2.82541 0
M  V30 4712 C 447.438 -1.75322 4.23115 0
M  V30 4713 N 448.929 -1.82434 4.2576 0
M  V30 4714 C 449.664 -2.15252 5.31464 0
M  V30 4715 N 449.16 -2.46533 6.47452 0
M  V30 4716 N 450.953 -2.16209 5.18855 0
M  V30 4717 H 443.104 0.203965 2.11418 0
M  V30 4718 H 445.367 0.0286033 0.947568 0
M  V30 4719 H 445.073 -0.486674 3.48316 0
M  V30 4720 H 444.947 -2.18805 3.07253 0
M  V30 4721 H 447.334 -2.08756 2.08579 0
M  V30 4722 H 447.415 -0.376756 2.5301 0
M  V30 4723 H 447.059 -1.01812 4.97591 0
M  V30 4724 H 446.989 -2.7337 4.50085 0
M  V30 4725 H 449.48 -1.6056 3.42095 0
M  V30 4726 H 449.793 -2.70662 7.23852 0
M  V30 4727 H 448.138 -2.44065 6.50736 0
M  V30 4728 H 451.329 -1.91224 4.2726 0
M  V30 4729 H 451.502 -2.41453 6.01335 0
M  V30 4730 N 444.908 -1.36708 -0.784132 0
M  V30 4731 C 446.138 -1.34203 -1.57077 0
M  V30 4732 C 446.546 0.0774945 -1.89041 0
M  V30 4733 O 445.889 1.04628 -1.50992 0
M  V30 4734 C 445.951 -2.10351 -2.91535 0
M  V30 4735 C 445.615 -3.59405 -2.82272 0
M  V30 4736 C 446.612 -4.53545 -2.54151 0
M  V30 4737 C 444.297 -4.02362 -3.00683 0
M  V30 4738 C 446.291 -5.8862 -2.44551 0
M  V30 4739 C 443.978 -5.37526 -2.90704 0
M  V30 4740 C 444.976 -6.30468 -2.62677 0
M  V30 4741 O 444.664 -7.63149 -2.52702 0
M  V30 4742 H 444.396 -0.461791 -0.493685 0
M  V30 4743 H 446.95 -1.80475 -0.980712 0
M  V30 4744 H 445.18 -1.5875 -3.52612 0
M  V30 4745 H 446.869 -2.00636 -3.52845 0
M  V30 4746 H 447.635 -4.21669 -2.39625 0
M  V30 4747 H 443.514 -3.30389 -3.21503 0
M  V30 4748 H 447.058 -6.61133 -2.22596 0
M  V30 4749 H 442.955 -5.69008 -3.04795 0
M  V30 4750 H 443.723 -7.73331 -2.68144 0
M  V30 4751 N 446.386 1.0089 -1.21074 0
M  V30 4752 C 447.319 2.09279 -0.909806 0
M  V30 4753 C 448.297 1.61986 0.141145 0
M  V30 4754 O 449.481 1.88495 0.0130332 0
M  V30 4755 C 446.608 3.36723 -0.365374 0
M  V30 4756 C 445.654 4.02919 -1.39852 0
M  V30 4757 S 446.487 4.45835 -2.96633 0
M  V30 4758 C 447.643 5.76471 -2.43786 0
M  V30 4759 H 447.876 2.34484 -1.82769 0
M  V30 4760 H 445.409 1.14115 -1.04006 0
M  V30 4761 H 447.367 4.10459 -0.0578203 0
M  V30 4762 H 446.028 3.09577 0.531136 0
M  V30 4763 H 445.221 4.94634 -0.967117 0
M  V30 4764 H 444.823 3.35441 -1.65395 0
M  V30 4765 H 447.115 6.52027 -1.84029 0
M  V30 4766 H 448.058 6.24418 -3.33928 0
M  V30 4767 H 448.466 5.33104 -1.85636 0
M  V30 4768 N 447.864 1.01787 1.20321 0
M  V30 4769 C 449.092 0.727194 1.937 0
M  V30 4770 C 449.507 -0.712305 1.74848 0
M  V30 4771 O 448.864 -1.48327 1.06327 0
M  V30 4772 C 448.915 1.05497 3.45764 0
M  V30 4773 O 448.636 2.43794 3.64 0
M  V30 4774 C 450.137 0.785534 4.36285 0
M  V30 4775 H 447.357 0.266939 0.615617 0
M  V30 4776 H 449.901 1.35939 1.52777 0
M  V30 4777 H 448.056 0.468158 3.84561 0
M  V30 4778 H 448.47 2.55656 4.57974 0
M  V30 4779 H 449.944 1.06495 5.4163 0
M  V30 4780 H 450.421 -0.280273 4.38305 0
M  V30 4781 H 451.027 1.35456 4.03152 0
M  V30 4782 N 449.342 -1.36122 0.79427 0
M  V30 4783 C 450.59 -1.98718 0.368177 0
M  V30 4784 C 450.911 -1.63345 -1.06506 0
M  V30 4785 O 450.181 -0.909825 -1.73491 0
M  V30 4786 H 448.761 -0.735038 0.133146 0
M  V30 4787 H 451.423 -1.66239 1.01739 0
M  V30 4788 H 450.519 -3.08633 0.463923 0
M  V30 4789 N 450.82 -0.546701 -1.47814 0
M  V30 4790 C 451.752 0.244196 -2.27895 0
M  V30 4791 C 452.765 0.88911 -1.36377 0
M  V30 4792 O 453.954 0.764733 -1.61289 0
M  V30 4793 C 451.054 1.36252 -3.10304 0
M  V30 4794 C 450.227 0.816382 -4.29714 0
M  V30 4795 C 449.286 1.81789 -4.93801 0
M  V30 4796 O 448.312 1.36818 -5.52512 0
M  V30 4797 N 449.514 3.15085 -4.87547 0
M  V30 4798 H 452.279 -0.442694 -2.96412 0
M  V30 4799 H 449.84 -0.382095 -1.57327 0
M  V30 4800 H 451.832 2.03102 -3.50045 0
M  V30 4801 H 450.402 1.95281 -2.44099 0
M  V30 4802 H 449.622 -0.0285981 -3.9419 0
M  V30 4803 H 450.91 0.430668 -5.06974 0
M  V30 4804 H 450.308 3.54275 -4.41028 0
M  V30 4805 H 448.865 3.77522 -5.31339 0
M  V30 4806 N 452.299 1.55045 -0.282633 0
M  V30 4807 C 453.229 2.2579 0.595066 0
M  V30 4808 C 454.21 1.25074 1.15284 0
M  V30 4809 O 455.395 1.5381 1.18559 0
M  V30 4810 C 452.525 2.98472 1.77572 0
M  V30 4811 C 451.479 4.0618 1.34914 0
M  V30 4812 C 450.805 4.66477 2.6135 0
M  V30 4813 C 452.105 5.1996 0.493821 0
M  V30 4814 H 453.799 2.994 0.00505653 0
M  V30 4815 H 451.345 1.44 0.000992001 0
M  V30 4816 H 453.298 3.46677 2.39568 0
M  V30 4817 H 452.022 2.2241 2.39168 0
M  V30 4818 H 450.681 3.58797 0.752338 0
M  V30 4819 H 450.329 3.87074 3.2122 0
M  V30 4820 H 450.029 5.39207 2.33516 0
M  V30 4821 H 451.553 5.17435 3.24181 0
M  V30 4822 H 452.967 5.64172 1.01898 0
M  V30 4823 H 451.364 5.99299 0.310047 0
M  V30 4824 H 452.434 4.82462 -0.485593 0
M  V30 4825 N 453.777 0.010035 1.57597 0
M  V30 4826 C 455.054 -0.710296 1.82248 0
M  V30 4827 C 455.434 -1.91426 0.889911 0
M  V30 4828 O 454.782 -2.28424 -0.0590292 0
M  V30 4829 C 454.992 -1.10655 3.30993 0
M  V30 4830 C 456.34 -1.50621 3.96987 0
M  V30 4831 O 457.364 -1.20007 3.35375 0
M  V30 4832 O 456.223 -2.07587 5.05539 0
M  V30 4833 H 453.317 -0.34673 0.750804 0
M  V30 4834 H 455.863 0.0362578 1.69661 0
M  V30 4835 H 454.635 -0.248826 3.90508 0
M  V30 4836 H 454.258 -1.91189 3.48615 0
M  V30 4837 N 455.255 -1.55392 -0.262866 0
M  V30 4838 C 456.48 -1.80847 -1.01533 0
M  V30 4839 C 456.905 -0.584946 -1.78774 0
M  V30 4840 O 456.263 0.465701 -1.75217 0
M  V30 4841 C 456.311 -3.03866 -1.94159 0
M  V30 4842 O 455.415 -2.79662 -3.03089 0
M  V30 4843 H 454.756 -0.597441 -0.289759 0
M  V30 4844 H 457.286 -2.02553 -0.288698 0
M  V30 4845 H 457.296 -3.32872 -2.35924 0
M  V30 4846 H 455.971 -3.92564 -1.37354 0
M  V30 4847 H 454.548 -2.61781 -2.65566 0
M  V30 4848 N 456.733 0.527833 -1.48498 0
M  V30 4849 C 457.663 1.64136 -1.66077 0
M  V30 4850 C 458.644 1.62286 -0.509625 0
M  V30 4851 O 459.829 1.79449 -0.742413 0
M  V30 4852 C 456.959 3.02717 -1.70234 0
M  V30 4853 C 455.913 3.19426 -2.8487 0
M  V30 4854 C 455.239 4.5909 -2.74118 0
M  V30 4855 C 456.539 3.01993 -4.26142 0
M  V30 4856 H 458.233 1.4968 -2.593 0
M  V30 4857 H 455.779 0.718654 -1.24785 0
M  V30 4858 H 457.732 3.80491 -1.8112 0
M  V30 4859 H 456.456 3.18201 -0.735911 0
M  V30 4860 H 455.115 2.4407 -2.73542 0
M  V30 4861 H 454.763 4.71413 -1.7544 0
M  V30 4862 H 454.463 4.71214 -3.51042 0
M  V30 4863 H 455.987 5.3896 -2.86974 0
M  V30 4864 H 457.401 3.69558 -4.38292 0
M  V30 4865 H 455.798 3.2561 -5.04082 0
M  V30 4866 H 456.868 1.98396 -4.42456 0
M  V30 4867 N 458.211 1.37122 0.776871 0
M  V30 4868 C 459.457 1.32243 1.53752 0
M  V30 4869 C 459.79 -0.0944745 1.9397 0
M  V30 4870 O 459.065 -1.05068 1.6368 0
M  V30 4871 C 459.348 2.25681 2.80607 0
M  V30 4872 C 459.201 3.76127 2.46676 0
M  V30 4873 C 460.52 2.17657 3.82509 0
M  V30 4874 H 457.639 0.481704 0.557791 0
M  V30 4875 H 460.281 1.6778 0.891612 0
M  V30 4876 H 458.431 1.95505 3.35723 0
M  V30 4877 H 460.103 4.16877 1.97513 0
M  V30 4878 H 458.346 3.94946 1.79443 0
M  V30 4879 H 459.017 4.36933 3.37333 0
M  V30 4880 H 461.493 2.44245 3.36873 0
M  V30 4881 H 460.369 2.85185 4.69 0
M  V30 4882 H 460.63 1.16785 4.26396 0
M  V30 4883 N 459.689 -1.00246 1.21608 0
M  V30 4884 C 460.636 -2.09073 0.977613 0
M  V30 4885 C 461.606 -1.65815 -0.097297 0
M  V30 4886 O 462.791 -1.90734 0.0503445 0
M  V30 4887 C 459.931 -3.40671 0.551133 0
M  V30 4888 C 459.044 -3.97326 1.69576 0
M  V30 4889 C 458.179 -5.17043 1.2182 0
M  V30 4890 C 457.218 -5.65813 2.335 0
M  V30 4891 N 456.355 -6.76778 1.86859 0
M  V30 4892 H 461.195 -2.28806 1.90924 0
M  V30 4893 H 458.732 -1.12186 0.951452 0
M  V30 4894 H 460.69 -4.16225 0.285097 0
M  V30 4895 H 459.32 -3.20967 -0.343489 0
M  V30 4896 H 458.372 -3.18734 2.07637 0
M  V30 4897 H 459.684 -4.29511 2.53617 0
M  V30 4898 H 458.838 -5.99852 0.908975 0
M  V30 4899 H 457.577 -4.86458 0.347869 0
M  V30 4900 H 456.582 -4.81599 2.65222 0
M  V30 4901 H 457.807 -5.98427 3.21033 0
M  V30 4902 H 455.753 -6.47994 1.02174 0
M  V30 4903 H 455.67 -7.08231 2.64471 0
M  V30 4904 H 456.938 -7.63116 1.58978 0
M  V30 4905 N 461.167 -1.02423 -1.1978 0
M  V30 4906 C 462.583 -0.740459 -1.41384 0
M  V30 4907 C 462.783 0.676827 -1.89793 0
M  V30 4908 O 461.839 1.4435 -2.0717 0
M  V30 4909 C 463.152 -1.77264 -2.42895 0
M  V30 4910 C 464.7 -1.79165 -2.56649 0
M  V30 4911 C 465.175 -2.8133 -3.6141 0
M  V30 4912 N 466.666 -2.80118 -3.68901 0
M  V30 4913 C 467.401 -3.55824 -4.49641 0
M  V30 4914 N 466.897 -4.41231 -5.34123 0
M  V30 4915 N 468.69 -3.44387 -4.44246 0
M  V30 4916 H 460.841 -1.9391 -0.866764 0
M  V30 4917 H 463.104 -0.838074 -0.443098 0
M  V30 4918 H 462.81 -2.7884 -2.14339 0
M  V30 4919 H 462.684 -1.59108 -3.42001 0
M  V30 4920 H 465.071 -0.782702 -2.84531 0
M  V30 4921 H 465.152 -2.01396 -1.57713 0
M  V30 4922 H 464.796 -3.82394 -3.34271 0
M  V30 4923 H 464.726 -2.56359 -4.59986 0
M  V30 4924 H 467.217 -2.1817 -3.08562 0
M  V30 4925 H 467.53 -4.95747 -5.92836 0
M  V30 4926 H 465.875 -4.45306 -5.33599 0
M  V30 4927 H 469.066 -2.7708 -3.77285 0
M  V30 4928 H 469.239 -4.0364 -5.06931 0
M  V30 4929 N 462.645 1.35699 -0.801477 0
M  V30 4930 C 463.608 2.28199 -0.213994 0
M  V30 4931 C 464.608 1.49359 0.595691 0
M  V30 4932 O 465.798 1.69186 0.414921 0
M  V30 4933 C 462.93 3.33587 0.702297 0
M  V30 4934 H 464.123 2.81666 -1.02976 0
M  V30 4935 H 461.676 1.45467 -0.571759 0
M  V30 4936 H 462.411 2.85297 1.54195 0
M  V30 4937 H 462.196 3.91906 0.123484 0
M  V30 4938 H 463.686 4.02638 1.10783 0
M  V30 4939 N 464.123 0.554532 1.47522 0
M  V30 4940 C 465.351 0.034257 2.06872 0
M  V30 4941 C 465.766 -1.25826 1.40759 0
M  V30 4942 O 465.123 -1.75425 0.503217 0
M  V30 4943 C 465.174 -0.167827 3.6111 0
M  V30 4944 O 464.895 1.07351 4.24744 0
M  V30 4945 C 466.396 -0.72569 4.3732 0
M  V30 4946 H 463.616 0.0446275 0.669514 0
M  V30 4947 H 466.16 0.767181 1.89564 0
M  V30 4948 H 464.315 -0.850872 3.7794 0
M  V30 4949 H 464.729 0.869563 5.17242 0
M  V30 4950 H 466.203 -0.816394 5.45929 0
M  V30 4951 H 466.68 -1.73635 4.0342 0
M  V30 4952 H 467.286 -0.0784292 4.25228 0
M  V30 4953 N 465.601 -1.54893 0.290851 0
M  V30 4954 C 466.531 -2.26103 -0.583084 0
M  V30 4955 C 467.512 -1.25684 -1.14619 0
M  V30 4956 O 468.697 -1.54436 -1.17741 0
M  V30 4957 C 465.827 -2.99409 -1.75987 0
M  V30 4958 C 464.781 -4.0689 -1.32758 0
M  V30 4959 C 464.107 -4.67856 -2.58872 0
M  V30 4960 C 465.407 -5.20215 -0.46624 0
M  V30 4961 H 467.101 -2.99398 0.0108214 0
M  V30 4962 H 464.647 -1.43998 0.00664468 0
M  V30 4963 H 466.6 -3.47943 -2.37727 0
M  V30 4964 H 465.324 -2.23675 -2.37985 0
M  V30 4965 H 463.983 -3.59191 -0.733299 0
M  V30 4966 H 463.631 -3.88772 -3.19163 0
M  V30 4967 H 463.331 -5.40438 -2.30653 0
M  V30 4968 H 464.855 -5.19147 -3.21433 0
M  V30 4969 H 466.269 -5.64704 -0.989047 0
M  V30 4970 H 464.666 -5.99455 -0.27826 0
M  V30 4971 H 465.736 -4.82198 0.511173 0
M  V30 4972 N 467.08 -0.0183926 -1.57589 0
M  V30 4973 C 468.328 0.661253 -1.90976 0
M  V30 4974 C 468.649 1.73281 -0.894353 0
M  V30 4975 O 467.919 1.9579 0.0656788 0
M  V30 4976 H 466.499 0.247233 -0.704901 0
M  V30 4977 H 469.161 -0.0636639 -1.94796 0
M  V30 4978 H 468.257 1.12083 -2.9128 0
M  V30 4979 N 468.558 1.5553 0.254621 0
M  V30 4980 C 469.806 1.7665 0.981793 0
M  V30 4981 C 470.127 0.580963 1.86145 0
M  V30 4982 O 469.397 -0.403537 1.91699 0
M  V30 4983 H 467.977 0.651475 0.365498 0
M  V30 4984 H 470.639 1.92958 0.274426 0
M  V30 4985 H 469.735 2.67486 1.60802 0
M  V30 4986 N 470.036 -0.519951 1.48776 0
M  V30 4987 C 471.313 -1.28123 1.47797 0
M  V30 4988 C 471.693 -2.10196 0.195157 0
M  V30 4989 O 471.041 -2.13167 -0.822925 0
M  V30 4990 C 471.251 -2.15413 2.74587 0
M  V30 4991 C 472.599 -2.75225 3.23321 0
M  V30 4992 O 473.623 -2.25694 2.75574 0
M  V30 4993 O 472.482 -3.65346 4.06429 0
M  V30 4994 H 469.576 -0.578793 0.590701 0
M  V30 4995 H 472.122 -0.535779 1.6102 0
M  V30 4996 H 470.894 -1.54617 3.59457 0
M  V30 4997 H 470.517 -2.97186 2.64132 0
M  V30 4998 N 471.514 -1.37532 -0.769588 0
M  V30 4999 C 472.925 -1.29382 -1.346 0
M  V30 5000 C 473.276 0.0576039 -1.96115 0
M  V30 5001 O 472.401 0.95947 -1.93967 0
M  V30 5002 C 472.996 -2.34298 -2.44724 0
M  V30 5003 C 471.555 -2.29776 -2.98128 0
M  V30 5004 C 470.702 -2.18013 -1.71364 0
M  V30 5005 H 473.653 -1.48123 -0.56968 0
M  V30 5006 H 473.674 -1.99089 -3.24259 0
M  V30 5007 H 473.186 -3.32645 -1.99922 0
M  V30 5008 H 471.287 -1.34959 -3.47299 0
M  V30 5009 H 471.4 -3.23276 -3.53595 0
M  V30 5010 H 469.764 -1.64595 -1.94372 0
M  V30 5011 H 470.547 -3.18278 -1.28662 0
M  V30 5012 N 472.992 0.995999 -1.22138 0
M  V30 5013 C 474.238 1.73767 -1.04561 0
M  V30 5014 C 474.571 1.89633 0.418698 0
M  V30 5015 O 473.846 1.43723 1.3105 0
M  V30 5016 C 474.129 3.14505 -1.75382 0
M  V30 5017 C 473.982 3.06306 -3.29388 0
M  V30 5018 C 475.301 4.13615 -1.50369 0
M  V30 5019 H 472.42 0.630728 -0.38125 0
M  V30 5020 H 475.062 1.16057 -1.50435 0
M  V30 5021 H 473.212 3.63775 -1.36383 0
M  V30 5022 H 474.884 2.64681 -3.77812 0
M  V30 5023 H 473.127 2.43186 -3.59226 0
M  V30 5024 H 473.798 4.05884 -3.74116 0
M  V30 5025 H 476.274 3.73089 -1.84239 0
M  V30 5026 H 475.15 5.10212 -2.02421 0
M  V30 5027 H 475.411 4.39949 -0.435611 0
M  V30 5028 N 474.47 1.03057 1.19235 0
M  V30 5029 C 475.695 0.74757 1.93458 0
M  V30 5030 C 476.12 -0.687648 1.7508 0
M  V30 5031 O 475.478 -1.47499 1.05422 0
M  V30 5032 C 475.526 1.10604 3.43219 0
M  V30 5033 O 474.63 0.225671 4.11782 0
M  V30 5034 H 473.971 0.276047 0.603899 0
M  V30 5035 H 476.501 1.3777 1.51263 0
M  V30 5036 H 476.511 1.06366 3.93891 0
M  V30 5037 H 475.186 2.15165 3.55917 0
M  V30 5038 H 473.763 0.326795 3.71465 0
M  V30 5039 N 475.948 -1.35272 0.808662 0
M  V30 5040 C 476.911 -2.28082 0.226093 0
M  V30 5041 C 477.911 -1.49673 -0.587762 0
M  V30 5042 O 479.101 -1.69404 -0.405943 0
M  V30 5043 C 476.233 -3.33955 -0.684596 0
M  V30 5044 H 477.426 -2.81116 1.04469 0
M  V30 5045 H 474.979 -1.45162 0.579466 0
M  V30 5046 H 475.714 -2.86111 -1.5268 0
M  V30 5047 H 475.499 -3.91965 -0.102699 0
M  V30 5048 H 476.989 -4.03219 -1.08646 0
M  V30 5049 N 477.426 -0.562348 -1.47226 0
M  V30 5050 C 478.356 0.170627 -2.32876 0
M  V30 5051 C 479.337 0.903748 -1.44106 0
M  V30 5052 O 480.522 0.883206 -1.72954 0
M  V30 5053 C 477.652 1.19786 -3.25989 0
M  V30 5054 C 476.606 0.580875 -4.2404 0
M  V30 5055 C 475.932 1.71311 -5.06514 0
M  V30 5056 C 477.232 -0.468714 -5.20193 0
M  V30 5057 H 478.926 -0.544441 -2.94408 0
M  V30 5058 H 476.472 -0.263271 -1.41573 0
M  V30 5059 H 478.425 1.71884 -3.84752 0
M  V30 5060 H 477.149 1.94294 -2.62521 0
M  V30 5061 H 475.808 0.0811538 -3.6651 0
M  V30 5062 H 475.456 2.44736 -4.39447 0
M  V30 5063 H 475.156 1.30604 -5.72902 0
M  V30 5064 H 476.68 2.23725 -5.68137 0
M  V30 5065 H 478.094 -0.0336028 -5.7329 0
M  V30 5066 H 476.491 -0.794957 -5.94811 0
M  V30 5067 H 477.561 -1.36269 -4.65359 0
M  V30 5068 N 478.904 1.54736 -0.299062 0
M  V30 5069 C 479.834 2.26409 0.571085 0
M  V30 5070 C 480.815 1.2629 1.13951 0
M  V30 5071 O 482 1.55059 1.16921 0
M  V30 5072 C 479.13 3.00338 1.74396 0
M  V30 5073 C 478.084 4.07588 1.30599 0
M  V30 5074 C 477.41 4.69222 2.56387 0
M  V30 5075 C 478.71 5.20455 0.438645 0
M  V30 5076 H 480.404 2.99388 -0.0266991 0
M  V30 5077 H 477.95 1.43993 -0.0142812 0
M  V30 5078 H 479.903 3.49198 2.35878 0
M  V30 5079 H 478.627 2.24934 2.36796 0
M  V30 5080 H 477.286 3.59575 0.71424 0
M  V30 5081 H 476.934 3.9046 3.17097 0
M  V30 5082 H 476.634 5.41653 2.27784 0
M  V30 5083 H 478.158 5.20844 3.18675 0
M  V30 5084 H 479.572 5.65221 0.959085 0
M  V30 5085 H 477.969 5.99594 0.246466 0
M  V30 5086 H 479.039 4.8192 -0.536738 0
M  V30 5087 N 480.382 0.0267497 1.57577 0
M  V30 5088 C 481.631 -0.651736 1.9088 0
M  V30 5089 C 481.944 -1.73427 0.904576 0
M  V30 5090 O 483.15 -2.46923 1.12877 0
M  V30 5091 C 481.606 -1.21048 3.38933 0
M  V30 5092 C 481.214 -0.161362 4.47709 0
M  V30 5093 C 482.958 -1.86562 3.81307 0
M  V30 5094 C 480.865 -0.731611 5.86857 0
M  V30 5095 H 479.795 -0.247198 0.712326 0
M  V30 5096 H 482.446 0.0916641 1.83271 0
M  V30 5097 H 480.828 -2.00542 3.41466 0
M  V30 5098 H 482.002 0.61094 4.56732 0
M  V30 5099 H 480.317 0.394877 4.14523 0
M  V30 5100 H 482.914 -2.30178 4.8262 0
M  V30 5101 H 483.257 -2.70735 3.16241 0
M  V30 5102 H 483.79 -1.13762 3.81186 0
M  V30 5103 H 480.529 0.0719329 6.55461 0
M  V30 5104 H 480.049 -1.47245 5.81445 0
M  V30 5105 H 481.728 -1.22208 6.35354 0
M  V30 5106 N 481.861 -1.55662 -0.24637 0
M  V30 5107 C 483.138 -1.68272 -0.997198 0
M  V30 5108 C 483.518 -0.566785 -2.03349 0
M  V30 5109 O 482.866 0.429688 -2.24424 0
M  V30 5110 C 483.076 -3.08594 -1.63006 0
M  V30 5111 C 484.424 -3.6721 -2.13171 0
M  V30 5112 O 485.448 -3.11397 -1.72946 0
M  V30 5113 O 484.307 -4.65054 -2.87031 0
M  V30 5114 H 481.401 -0.684429 -0.464205 0
M  V30 5115 H 483.947 -1.67993 -0.240114 0
M  V30 5116 H 482.719 -3.81264 -0.880527 0
M  V30 5117 H 482.342 -3.12886 -2.45333 0
M  V30 5118 N 483.339 0.512053 -1.4905 0
M  V30 5119 C 484.588 1.26343 -1.57227 0
M  V30 5120 C 484.901 1.93876 -0.259155 0
M  V30 5121 O 486.107 2.70612 -0.219358 0
M  V30 5122 C 484.563 2.29343 -2.77362 0
M  V30 5123 C 484.171 1.67799 -4.15388 0
M  V30 5124 C 485.915 3.05378 -2.94864 0
M  V30 5125 C 483.822 2.68845 -5.2676 0
M  V30 5126 H 482.752 0.475231 -0.585382 0
M  V30 5127 H 485.403 0.53862 -1.75417 0
M  V30 5128 H 483.785 3.04938 -2.52643 0
M  V30 5129 H 484.959 0.982715 -4.50199 0
M  V30 5130 H 483.274 1.04194 -4.03153 0
M  V30 5131 H 485.871 3.80921 -3.75238 0
M  V30 5132 H 486.214 3.62327 -2.05 0
M  V30 5133 H 486.747 2.36898 -3.19569 0
M  V30 5134 H 483.486 2.16692 -6.18647 0
M  V30 5135 H 483.006 3.36647 -4.96416 0
M  V30 5136 H 484.685 3.31487 -5.5563 0
M  V30 5137 N 484.817 1.37938 0.762283 0
M  V30 5138 C 486.094 1.24196 1.51112 0
M  V30 5139 C 486.474 -0.160409 2.1049 0
M  V30 5140 O 485.822 -1.16904 1.96331 0
M  V30 5141 C 486.032 2.34537 2.58445 0
M  V30 5142 C 487.38 2.7254 3.25588 0
M  V30 5143 O 488.404 2.33783 2.68745 0
M  V30 5144 O 487.263 3.39343 4.28379 0
M  V30 5145 H 484.357 0.485175 0.669727 0
M  V30 5146 H 486.903 1.49743 0.798438 0
M  V30 5147 H 485.675 3.28406 2.12756 0
M  V30 5148 H 485.298 2.10505 3.37303 0
M  V30 5149 N 486.295 -0.989507 1.22664 0
M  V30 5150 C 487.542 -1.72953 1.05325 0
M  V30 5151 C 487.87 -1.90104 -0.411168 0
M  V30 5152 O 487.125 -1.44386 -1.32103 0
M  V30 5153 C 487.424 -3.13649 1.71345 0
M  V30 5154 C 487.09 -3.16403 3.21248 0
M  V30 5155 C 485.752 -3.16862 3.62149 0
M  V30 5156 C 488.104 -3.12428 4.17179 0
M  V30 5157 C 485.432 -3.11051 4.97458 0
M  V30 5158 C 487.784 -3.08159 5.52468 0
M  V30 5159 C 486.448 -3.06935 5.92746 0
M  V30 5160 H 485.718 -0.632881 0.385412 0
M  V30 5161 H 488.365 -1.15863 1.52473 0
M  V30 5162 H 486.67 -3.74069 1.16532 0
M  V30 5163 H 488.367 -3.69658 1.55416 0
M  V30 5164 H 484.957 -3.16798 2.88682 0
M  V30 5165 H 489.141 -3.11221 3.86595 0
M  V30 5166 H 484.397 -3.0845 5.27891 0
M  V30 5167 H 488.571 -3.04039 6.26525 0
M  V30 5168 H 486.198 -3.02186 6.97558 0
M  V30 5169 N 487.773 -1.03688 -1.18687 0
M  V30 5170 C 489.02 -0.73803 -1.88572 0
M  V30 5171 C 489.348 0.733973 -1.8012 0
M  V30 5172 O 488.603 1.55098 -1.19344 0
M  V30 5173 C 488.902 -1.14477 -3.3857 0
M  V30 5174 C 488.568 -2.61641 -3.67226 0
M  V30 5175 C 487.23 -3.01846 -3.74757 0
M  V30 5176 C 489.582 -3.56812 -3.79914 0
M  V30 5177 C 486.91 -4.36118 -3.92451 0
M  V30 5178 C 489.262 -4.90799 -3.99123 0
M  V30 5179 C 487.926 -5.3068 -4.04888 0
M  V30 5180 H 487.196 -0.270064 -0.690034 0
M  V30 5181 H 489.843 -1.3012 -1.40503 0
M  V30 5182 H 488.148 -0.500337 -3.88592 0
M  V30 5183 H 489.845 -0.89095 -3.90977 0
M  V30 5184 H 486.435 -2.29498 -3.61979 0
M  V30 5185 H 490.619 -3.26899 -3.73431 0
M  V30 5186 H 485.875 -4.66542 -3.95157 0
M  V30 5187 H 490.049 -5.64451 -4.07882 0
M  V30 5188 H 487.676 -6.34733 -4.18351 0
M  V30 5189 N 489.251 1.34841 -0.815825 0
M  V30 5190 C 490.198 2.29644 -0.230664 0
M  V30 5191 C 491.168 1.53253 0.640533 0
M  V30 5192 O 492.353 1.81653 0.583672 0
M  V30 5193 C 489.493 3.39715 0.607275 0
M  V30 5194 C 488.606 4.31056 -0.28538 0
M  V30 5195 C 487.741 5.28225 0.561446 0
M  V30 5196 C 486.78 6.11204 -0.331035 0
M  V30 5197 N 485.917 7.00483 0.476302 0
M  V30 5198 H 490.757 2.79095 -1.0445 0
M  V30 5199 H 488.294 1.37351 -0.526595 0
M  V30 5200 H 490.252 4.02208 1.10835 0
M  V30 5201 H 488.882 2.91517 1.38629 0
M  V30 5202 H 487.934 3.69487 -0.904621 0
M  V30 5203 H 489.246 4.89239 -0.97193 0
M  V30 5204 H 488.4 5.96135 1.12728 0
M  V30 5205 H 487.139 4.70562 1.28153 0
M  V30 5206 H 486.144 5.42232 -0.909069 0
M  V30 5207 H 487.369 6.70947 -1.04912 0
M  V30 5208 H 485.315 6.45296 1.18019 0
M  V30 5209 H 485.232 7.55847 -0.152008 0
M  V30 5210 H 486.5 7.7273 1.02512 0
M  V30 5211 N 490.729 0.570148 1.46925 0
M  V30 5212 C 491.676 -0.170257 2.30171 0
M  V30 5213 C 492.646 -0.896099 1.39855 0
M  V30 5214 O 493.831 -0.889248 1.68811 0
M  V30 5215 C 490.971 -1.18605 3.24079 0
M  V30 5216 C 490.084 -0.464947 4.29491 0
M  V30 5217 C 489.219 -1.46716 5.10537 0
M  V30 5218 C 488.258 -0.731758 6.0771 0
M  V30 5219 N 487.395 -1.68142 6.81669 0
M  V30 5220 H 492.235 0.545713 2.92961 0
M  V30 5221 H 489.772 0.280938 1.44392 0
M  V30 5222 H 491.73 -1.78771 3.76957 0
M  V30 5223 H 490.36 -1.86989 2.63125 0
M  V30 5224 H 489.412 0.251506 3.79568 0
M  V30 5225 H 490.724 0.110548 4.98677 0
M  V30 5226 H 489.878 -2.14199 5.6763 0
M  V30 5227 H 488.617 -2.07658 4.41282 0
M  V30 5228 H 487.622 -0.0430787 5.49783 0
M  V30 5229 H 488.847 -0.127904 6.7898 0
M  V30 5230 H 486.793 -2.27918 6.15134 0
M  V30 5231 H 486.71 -1.15841 7.47072 0
M  V30 5232 H 487.978 -2.347 7.43328 0
M  V30 5233 N 492.207 -1.54576 0.307264 0
M  V30 5234 C 493.456 -1.99442 -0.300976 0
M  V30 5235 C 493.769 -1.19928 -1.5452 0
M  V30 5236 O 494.975 -1.55092 -2.22842 0
M  V30 5237 C 493.431 -3.55084 -0.586809 0
M  V30 5238 C 493.039 -4.43413 0.639438 0
M  V30 5239 C 494.783 -4.0846 -1.1559 0
M  V30 5240 C 492.69 -5.90499 0.326411 0
M  V30 5241 H 491.62 -0.744986 -0.116238 0
M  V30 5242 H 494.271 -1.787 0.416947 0
M  V30 5243 H 492.653 -3.71749 -1.36449 0
M  V30 5244 H 493.827 -4.38522 1.41545 0
M  V30 5245 H 492.142 -4.00842 1.1276 0
M  V30 5246 H 494.739 -5.15926 -1.40445 0
M  V30 5247 H 495.082 -3.59443 -2.10015 0
M  V30 5248 H 495.615 -3.95362 -0.439778 0
M  V30 5249 H 492.354 -6.43676 1.23939 0
M  V30 5250 H 491.874 -5.98382 -0.412212 0
M  V30 5251 H 493.553 -6.46962 -0.0697393 0
M  V30 5252 N 493.685 -0.035106 -1.57561 0
M  V30 5253 C 494.633 0.962707 -2.11742 0
M  V30 5254 C 495.627 1.33296 -1.0454 0
M  V30 5255 O 496.833 1.31449 -1.22968 0
M  V30 5256 H 493.208 0.32826 -0.676572 0
M  V30 5257 H 495.179 0.48048 -2.94506 0
M  V30 5258 C 493.928 2.23388 -2.66445 0
M  V30 5259 H 493.251 1.95774 -3.48587 0
M  V30 5260 H 494.691 2.91402 -3.07995 0
M  V30 5261 C 493.15 2.96769 -1.59467 0
M  V30 5262 O 493.68 3.89105 -0.998 0
M  V30 5263 N 491.886 2.59212 -1.31369 0
M  V30 5264 H 491.433 1.84202 -1.80076 0
M  V30 5265 H 491.391 3.08618 -0.600173 0
M  V30 5266 N 495.163 1.55791 0.238111 0
M  V30 5267 C 496.44 1.68798 0.98826 0
M  V30 5268 C 496.82 0.577562 2.03045 0
M  V30 5269 O 496.168 -0.41778 2.24648 0
M  V30 5270 C 496.378 3.09454 1.61367 0
M  V30 5271 C 497.726 3.68335 2.11221 0
M  V30 5272 O 498.75 3.1231 1.71292 0
M  V30 5273 O 497.609 4.6657 2.84561 0
M  V30 5274 H 494.703 0.686881 0.460568 0
M  V30 5275 H 497.249 1.68118 0.231202 0
M  V30 5276 H 496.021 3.81726 0.860295 0
M  V30 5277 H 495.644 3.14182 2.4367 0
M  V30 5278 N 496.642 -0.504142 1.49319 0
M  V30 5279 C 497.87 -1.28256 1.62351 0
M  V30 5280 C 498.285 -1.86502 0.293682 0
M  V30 5281 O 497.642 -1.67678 -0.720449 0
M  V30 5282 C 497.693 -2.41507 2.68992 0
M  V30 5283 O 497.414 -1.85656 3.96817 0
M  V30 5284 C 498.915 -3.32929 2.927 0
M  V30 5285 H 496.135 -0.389115 0.546654 0
M  V30 5286 H 498.679 -0.605531 1.95329 0
M  V30 5287 H 496.834 -3.05046 2.38801 0
M  V30 5288 H 497.248 -2.59981 4.55533 0
M  V30 5289 H 498.722 -4.0868 3.71058 0
M  V30 5290 H 499.199 -3.89733 2.02496 0
M  V30 5291 H 499.805 -2.75158 3.24296 0
M  V30 5292 N 498.12 -1.38341 -0.754957 0
M  V30 5293 C 499.367 -1.34473 -1.51404 0
M  V30 5294 C 499.695 0.0656458 -1.94389 0
M  V30 5295 O 498.95 1.04244 -1.65625 0
M  V30 5296 C 499.249 -2.2452 -2.78075 0
M  V30 5297 C 498.915 -3.72512 -2.54059 0
M  V30 5298 C 497.577 -4.1284 -2.47218 0
M  V30 5299 C 499.929 -4.66197 -2.33044 0
M  V30 5300 C 497.257 -5.44945 -2.17376 0
M  V30 5301 C 499.609 -5.98558 -2.04723 0
M  V30 5302 C 498.273 -6.37972 -1.96337 0
M  V30 5303 H 497.543 -0.492072 -0.554027 0
M  V30 5304 H 500.19 -1.70687 -0.868223 0
M  V30 5305 H 498.495 -1.81357 -3.473 0
M  V30 5306 H 500.192 -2.18832 -3.36026 0
M  V30 5307 H 496.782 -3.40538 -2.60253 0
M  V30 5308 H 500.966 -4.35888 -2.37309 0
M  V30 5309 H 496.222 -5.74426 -2.09391 0
M  V30 5310 H 500.396 -6.70693 -1.87465 0
M  V30 5311 H 498.023 -7.40258 -1.72978 0
M  V30 5312 N 499.598 0.982988 -1.23187 0
M  V30 5313 C 500.846 1.72052 -1.06031 0
M  V30 5314 C 501.167 1.90769 0.404019 0
M  V30 5315 O 500.437 1.47446 1.28982 0
M  V30 5316 H 499.017 0.637499 -0.389363 0
M  V30 5317 H 501.679 1.18338 -1.54862 0
M  V30 5318 H 500.775 2.7111 -1.54615 0
M  V30 5319 N 501.076 1.04316 1.18135 0
M  V30 5320 C 502.026 0.606731 2.19779 0
M  V30 5321 C 503.01 -0.352144 1.56999 0
M  V30 5322 O 504.202 -0.170795 1.76174 0
M  V30 5323 C 501.331 -0.0262443 3.4329 0
M  V30 5324 C 500.417 0.955928 4.13186 0
M  V30 5325 N 500.808 2.12395 4.59045 0
M  V30 5326 C 499.106 0.782473 4.39082 0
M  V30 5327 C 499.807 2.74458 5.12882 0
M  V30 5328 N 498.783 2.02316 5.04548 0
M  V30 5329 H 502.585 1.49679 2.5293 0
M  V30 5330 H 500.099 0.912088 1.34368 0
M  V30 5331 H 502.096 -0.356617 4.15372 0
M  V30 5332 H 500.756 -0.911811 3.11635 0
M  V30 5333 H 501.767 2.50272 4.53414 0
M  V30 5334 H 498.444 -0.0527906 4.17467 0
M  V30 5335 H 499.834 3.73459 5.5855 0
M  V30 5336 N 502.554 -1.34406 0.822964 0
M  V30 5337 C 503.831 -1.92733 0.333641 0
M  V30 5338 C 504.211 -1.75107 -1.17901 0
M  V30 5339 O 503.559 -1.12983 -1.98613 0
M  V30 5340 C 503.769 -3.40557 0.763023 0
M  V30 5341 C 505.117 -4.17709 0.761879 0
M  V30 5342 O 506.141 -3.49141 0.705606 0
M  V30 5343 O 505 -5.40082 0.835109 0
M  V30 5344 H 502.094 -0.821964 0.0911249 0
M  V30 5345 H 504.64 -1.4338 0.907757 0
M  V30 5346 H 503.412 -3.47187 1.8049 0
M  V30 5347 H 503.035 -3.97259 0.164605 0
M  V30 5348 N 504.032 -0.577932 -1.46621 0
M  V30 5349 C 505.281 -0.0594281 -2.01612 0
M  V30 5350 C 505.594 1.30663 -1.45556 0
M  V30 5351 O 506.8 1.91621 -1.92337 0
M  V30 5352 C 505.256 -0.0556666 -3.59857 0
M  V30 5353 C 504.864 -1.41975 -4.24908 0
M  V30 5354 C 506.608 0.409143 -4.22524 0
M  V30 5355 C 504.515 -1.37397 -5.75218 0
M  V30 5356 H 503.445 -0.0184469 -0.753774 0
M  V30 5357 H 506.096 -0.728869 -1.68404 0
M  V30 5358 H 504.478 0.679843 -3.90121 0
M  V30 5359 H 505.652 -2.17461 -4.0626 0
M  V30 5360 H 503.967 -1.82419 -3.74316 0
M  V30 5361 H 506.564 0.46211 -5.32699 0
M  V30 5362 H 506.907 1.42565 -3.91128 0
M  V30 5363 H 507.44 -0.272152 -3.96868 0
M  V30 5364 H 504.179 -2.36714 -6.11267 0
M  V30 5365 H 503.699 -0.661239 -5.96144 0
M  V30 5366 H 505.378 -1.08484 -6.3784 0
M  V30 5367 N 505.51 1.54411 -0.315457 0
M  V30 5368 C 506.758 2.00023 0.288971 0
M  V30 5369 C 507.079 1.20529 1.5329 0
M  V30 5370 O 506.349 0.304986 1.93511 0
M  V30 5371 H 504.929 0.738891 0.109766 0
M  V30 5372 H 507.591 1.90094 -0.430129 0
M  V30 5373 H 506.687 3.07198 0.550999 0
M  V30 5374 N 506.988 0.0434614 1.5754 0
M  V30 5375 C 508.265 -0.671479 1.83713 0
M  V30 5376 C 508.645 -1.89495 0.930315 0
M  V30 5377 O 507.993 -2.28498 -0.0105639 0
M  V30 5378 C 508.203 -1.0361 3.33266 0
M  V30 5379 C 509.551 -1.42167 4.00092 0
M  V30 5380 O 510.575 -1.12866 3.37846 0
M  V30 5381 O 509.434 -1.96817 5.09829 0
M  V30 5382 H 506.528 -0.330726 0.75799 0
M  V30 5383 H 509.074 0.0722373 1.69546 0
M  V30 5384 H 507.846 -0.165938 3.90948 0
M  V30 5385 H 507.469 -1.83751 3.52592 0
M  V30 5386 N 508.466 -1.55915 -0.229846 0
M  V30 5387 C 509.376 -1.94891 -1.30593 0
M  V30 5388 C 510.392 -0.851604 -1.51736 0
M  V30 5389 O 511.568 -1.15447 -1.65027 0
M  V30 5390 C 508.633 -2.25052 -2.63728 0
M  V30 5391 C 507.694 -3.48306 -2.5096 0
M  V30 5392 C 506.927 -3.77019 -3.77747 0
M  V30 5393 O 507.15 -3.07534 -4.80395 0
M  V30 5394 O 506.084 -4.70523 -3.75356 0
M  V30 5395 H 509.91 -2.86581 -1.00525 0
M  V30 5396 H 507.495 -1.43017 -0.432025 0
M  V30 5397 H 509.377 -2.45682 -3.42372 0
M  V30 5398 H 508.052 -1.36538 -2.93495 0
M  V30 5399 H 506.959 -3.32964 -1.70546 0
M  V30 5400 H 508.292 -4.37177 -2.26136 0
M  V30 5401 N 509.944 0.496216 -1.49584 0
M  V30 5402 C 511.19 1.25189 -1.59548 0
M  V30 5403 C 511.523 1.9212 -0.283466 0
M  V30 5404 O 510.798 1.80947 0.713324 0
M  V30 5405 C 511.081 2.31516 -2.75812 0
M  V30 5406 C 510.934 1.69054 -4.16822 0
M  V30 5407 C 512.253 3.3304 -2.87702 0
M  V30 5408 H 509.372 0.45379 -0.580727 0
M  V30 5409 H 512.014 0.549327 -1.81886 0
M  V30 5410 H 510.164 2.91438 -2.56897 0
M  V30 5411 H 511.836 1.12923 -4.47265 0
M  V30 5412 H 510.079 0.994485 -4.22247 0
M  V30 5413 H 510.75 2.462 -4.94054 0
M  V30 5414 H 513.226 2.83114 -3.04936 0
M  V30 5415 H 512.102 4.04794 -3.7072 0
M  V30 5416 H 512.363 3.95655 -1.97255 0
M  V30 5417 N 511.423 1.38739 0.74761 0
M  V30 5418 C 512.353 1.39173 1.87492 0
M  V30 5419 C 513.334 0.256794 1.6815 0
M  V30 5420 O 514.519 0.460762 1.88655 0
M  V30 5421 C 511.649 1.22197 3.25093 0
M  V30 5422 C 510.603 2.32957 3.59047 0
M  V30 5423 C 509.929 2.01082 4.95449 0
M  V30 5424 C 511.229 3.75237 3.6331 0
M  V30 5425 H 512.923 2.3351 1.87386 0
M  V30 5426 H 510.469 1.12399 0.900134 0
M  V30 5427 H 512.422 1.21124 4.03617 0
M  V30 5428 H 511.146 0.243241 3.25693 0
M  V30 5429 H 509.805 2.33226 2.82845 0
M  V30 5430 H 509.453 1.01678 4.92616 0
M  V30 5431 H 509.153 2.75267 5.19136 0
M  V30 5432 H 510.677 2.01638 5.76346 0
M  V30 5433 H 512.091 3.76966 4.31937 0
M  V30 5434 H 510.488 4.48677 3.98509 0
M  V30 5435 H 511.558 4.07122 2.634 0
M  V30 5436 N 512.901 -0.976442 1.23707 0
M  V30 5437 C 514.317 -1.24341 1.00058 0
M  V30 5438 C 514.517 -1.99315 -0.295932 0
M  V30 5439 O 513.573 -2.3123 -1.01435 0
M  V30 5440 C 514.886 -2.03909 2.21001 0
M  V30 5441 C 516.434 -2.17034 2.25534 0
M  V30 5442 C 516.909 -2.99994 3.46075 0
M  V30 5443 N 518.4 -3.07578 3.46338 0
M  V30 5444 C 519.135 -3.72104 4.36264 0
M  V30 5445 N 518.631 -4.3842 5.36432 0
M  V30 5446 N 520.424 -3.69029 4.23998 0
M  V30 5447 H 512.575 -0.47428 2.07037 0
M  V30 5448 H 514.838 -0.272167 0.908091 0
M  V30 5449 H 514.544 -1.56198 3.15111 0
M  V30 5450 H 514.418 -3.04654 2.22409 0
M  V30 5451 H 516.805 -2.63951 1.31961 0
M  V30 5452 H 516.886 -1.15664 2.28156 0
M  V30 5453 H 516.53 -2.53772 4.39957 0
M  V30 5454 H 516.46 -4.01541 3.40694 0
M  V30 5455 H 518.951 -2.60397 2.73865 0
M  V30 5456 H 519.264 -4.85447 6.013 0
M  V30 5457 H 517.609 -4.37116 5.40328 0
M  V30 5458 H 520.8 -3.16392 3.44984 0
M  V30 5459 H 520.973 -4.19034 4.94282 0
M  V30 5460 N 514.379 -1.04941 -1.1758 0
M  V30 5461 C 515.289 -0.658826 -2.25159 0
M  V30 5462 C 516.305 0.318941 -1.71052 0
M  V30 5463 O 517.481 0.171669 -2.00667 0
M  V30 5464 C 514.546 -0.0369522 -3.4668 0
M  V30 5465 C 513.607 -1.06484 -4.15884 0
M  V30 5466 C 512.84 -0.472551 -5.31604 0
M  V30 5467 O 513.063 0.718736 -5.65854 0
M  V30 5468 O 511.997 -1.20557 -5.89703 0
M  V30 5469 H 515.823 -1.55533 -2.60851 0
M  V30 5470 H 513.408 -0.820819 -1.24832 0
M  V30 5471 H 515.29 0.308784 -4.20267 0
M  V30 5472 H 513.965 0.833238 -3.12792 0
M  V30 5473 H 512.872 -1.46253 -3.44327 0
M  V30 5474 H 514.205 -1.9061 -4.53794 0
M  V30 5475 N 515.857 1.33968 -0.830081 0
M  V30 5476 C 517.104 1.98063 -0.421566 0
M  V30 5477 C 517.432 1.65787 1.0171 0
M  V30 5478 O 516.687 0.925348 1.72441 0
M  V30 5479 C 516.986 3.52679 -0.57898 0
M  V30 5480 C 516.652 4.04884 -1.98443 0
M  V30 5481 C 515.314 4.18852 -2.36888 0
M  V30 5482 C 517.666 4.32879 -2.90285 0
M  V30 5483 C 514.994 4.58145 -3.66497 0
M  V30 5484 C 517.346 4.7362 -4.19364 0
M  V30 5485 C 516.01 4.85794 -4.57778 0
M  V30 5486 H 515.28 0.724765 -0.154262 0
M  V30 5487 H 517.927 1.59792 -1.05541 0
M  V30 5488 H 516.232 3.91556 0.138219 0
M  V30 5489 H 517.929 4.00261 -0.243317 0
M  V30 5490 H 514.519 3.9448 -1.67581 0
M  V30 5491 H 518.703 4.21619 -2.61823 0
M  V30 5492 H 513.959 4.65762 -3.96075 0
M  V30 5493 H 518.133 4.9424 -4.90612 0
M  V30 5494 H 515.76 5.15998 -5.58256 0
M  V30 5495 N 517.335 0.585699 1.46312 0
M  V30 5496 C 518.298 -0.135673 2.28798 0
M  V30 5497 C 519.298 -0.815988 1.38558 0
M  V30 5498 O 520.488 -0.667487 1.60904 0
M  V30 5499 C 517.62 -1.20163 3.1902 0
M  V30 5500 H 518.813 0.589257 2.94054 0
M  V30 5501 H 516.366 0.343794 1.52472 0
M  V30 5502 H 517.101 -1.95804 2.58517 0
M  V30 5503 H 516.886 -0.718282 3.85465 0
M  V30 5504 H 518.376 -1.70749 3.81096 0
M  V30 5505 N 518.813 -1.54241 0.323641 0
M  V30 5506 C 519.743 -2.27289 -0.534993 0
M  V30 5507 C 520.724 -1.28087 -1.11927 0
M  V30 5508 O 521.909 -1.56899 -1.14439 0
M  V30 5509 C 519.039 -3.03075 -1.69596 0
M  V30 5510 C 517.993 -4.09614 -1.24098 0
M  V30 5511 C 517.319 -4.73242 -2.4889 0
M  V30 5512 C 518.619 -5.21087 -0.355789 0
M  V30 5513 H 520.313 -2.99308 0.0743257 0
M  V30 5514 H 517.859 -1.43952 0.0371874 0
M  V30 5515 H 519.812 -3.52907 -2.30293 0
M  V30 5516 H 518.536 -2.28673 -2.33187 0
M  V30 5517 H 517.195 -3.60666 -0.656945 0
M  V30 5518 H 516.843 -3.95455 -3.10845 0
M  V30 5519 H 516.543 -5.45209 -2.19138 0
M  V30 5520 H 518.067 -5.25848 -3.10348 0
M  V30 5521 H 519.481 -5.66675 -0.869042 0
M  V30 5522 H 517.878 -5.9991 -0.151045 0
M  V30 5523 H 518.948 -4.81005 0.613339 0
M  V30 5524 N 520.291 -0.0518155 -1.57515 0
M  V30 5525 C 521.707 0.304735 -1.56664 0
M  V30 5526 C 521.907 1.71395 -1.05953 0
M  V30 5527 O 520.963 2.42123 -0.716414 0
M  V30 5528 C 522.276 0.132614 -3.00407 0
M  V30 5529 C 523.824 0.20367 -3.12337 0
M  V30 5530 C 524.299 0.0600706 -4.57961 0
M  V30 5531 N 525.79 0.116326 -4.63054 0
M  V30 5532 C 526.525 0.0293363 -5.73392 0
M  V30 5533 N 526.021 -0.110038 -6.92713 0
M  V30 5534 N 527.814 0.0849651 -5.62036 0
M  V30 5535 H 519.965 -0.973056 -1.888 0
M  V30 5536 H 522.228 -0.377781 -0.869474 0
M  V30 5537 H 521.934 -0.839019 -3.41546 0
M  V30 5538 H 521.808 0.893376 -3.66468 0
M  V30 5539 H 524.195 1.16578 -2.71097 0
M  V30 5540 H 524.276 -0.587857 -2.48954 0
M  V30 5541 H 523.92 -0.898715 -4.99886 0
M  V30 5542 H 523.85 0.87075 -5.19351 0
M  V30 5543 H 526.341 0.22327 -3.7724 0
M  V30 5544 H 526.654 -0.169104 -7.72615 0
M  V30 5545 H 524.999 -0.145132 -6.94848 0
M  V30 5546 H 528.19 0.192411 -4.67704 0
M  V30 5547 H 528.363 0.0137131 -6.47999 0
M  V30 5548 N 521.769 1.56035 0.221574 0
M  V30 5549 C 522.699 1.95434 1.2778 0
M  V30 5550 C 523.68 0.822564 1.48889 0
M  V30 5551 O 524.865 1.08486 1.61072 0
M  V30 5552 C 521.995 2.27102 2.62759 0
M  V30 5553 C 520.949 3.4277 2.56306 0
M  V30 5554 C 520.275 3.60043 3.95314 0
M  V30 5555 C 521.575 4.77742 2.11093 0
M  V30 5556 H 523.269 2.83912 0.950504 0
M  V30 5557 H 520.815 1.36596 0.455791 0
M  V30 5558 H 522.768 2.53256 3.36807 0
M  V30 5559 H 521.492 1.35478 2.97176 0
M  V30 5560 H 520.151 3.16664 1.84715 0
M  V30 5561 H 519.799 2.65794 4.27039 0
M  V30 5562 H 519.499 4.37841 3.91879 0
M  V30 5563 H 521.023 3.88545 4.71025 0
M  V30 5564 H 522.437 5.03102 2.74885 0
M  V30 5565 H 520.834 5.58823 2.18716 0
M  V30 5566 H 521.904 4.731 1.06321 0
M  V30 5567 N 523.247 -0.488276 1.49845 0
M  V30 5568 C 524.21 -1.57069 1.66919 0
M  V30 5569 C 525.21 -1.51445 0.540479 0
M  V30 5570 O 526.4 -1.5437 0.807188 0
M  V30 5571 C 523.532 -2.96718 1.67844 0
M  V30 5572 H 524.725 -1.43254 2.63474 0
M  V30 5573 H 522.278 -0.713435 1.39068 0
M  V30 5574 H 523.013 -3.15996 0.7292 0
M  V30 5575 H 522.798 -3.02208 2.49826 0
M  V30 5576 H 524.288 -3.75335 1.83066 0
M  V30 5577 N 524.725 -1.39134 -0.740242 0
M  V30 5578 C 525.95 -1.39518 -1.53459 0
M  V30 5579 C 526.375 0.00968883 -1.88098 0
M  V30 5580 O 525.733 0.995312 -1.51536 0
M  V30 5581 C 525.781 -2.26981 -2.802 0
M  V30 5582 O 524.885 -1.69609 -3.75908 0
M  V30 5583 H 524.226 -0.475328 -0.463637 0
M  V30 5584 H 526.756 -1.83064 -0.913717 0
M  V30 5585 H 526.766 -2.41309 -3.28989 0
M  V30 5586 H 525.441 -3.29081 -2.5432 0
M  V30 5587 H 524.018 -1.64495 -3.34658 0
M  V30 5588 N 526.204 0.969867 -1.24223 0
M  V30 5589 C 527.152 2.08535 -1.03034 0
M  V30 5590 C 528.146 1.69366 0.0340379 0
M  V30 5591 O 529.352 1.79597 -0.12034 0
M  V30 5592 H 525.727 0.682313 -0.316154 0
M  V30 5593 H 527.698 2.23569 -1.97635 0
M  V30 5594 C 526.447 3.4158 -0.649509 0
M  V30 5595 H 525.77 3.72177 -1.46028 0
M  V30 5596 H 527.21 4.20536 -0.540841 0
M  V30 5597 C 525.669 3.30703 0.643194 0
M  V30 5598 O 526.199 3.64443 1.68951 0
M  V30 5599 N 524.405 2.83841 0.623095 0
M  V30 5600 H 523.952 2.56583 -0.228719 0
M  V30 5601 H 523.91 2.76946 1.48823 0
M  V30 5602 N 527.682 1.05563 1.17022 0
M  V30 5603 C 528.928 0.769074 1.87652 0
M  V30 5604 C 529.261 -0.702326 1.81055 0
M  V30 5605 O 528.536 -1.5139 1.22112 0
M  V30 5606 C 528.819 1.25492 3.37526 0
M  V30 5607 C 528.672 2.78953 3.52853 0
M  V30 5608 C 529.991 0.856919 4.31677 0
M  V30 5609 H 527.11 0.280854 0.681388 0
M  V30 5610 H 529.752 1.31027 1.37593 0
M  V30 5611 H 527.902 0.794516 3.80289 0
M  V30 5612 H 529.574 3.33146 3.19079 0
M  V30 5613 H 527.817 3.18046 2.95007 0
M  V30 5614 H 528.488 3.08011 4.58076 0
M  V30 5615 H 530.964 1.25334 3.96775 0
M  V30 5616 H 529.84 1.22443 5.35069 0
M  V30 5617 H 530.101 -0.238787 4.41455 0
M  V30 5618 N 529.16 -1.33526 0.837174 0
M  V30 5619 C 530.576 -1.50727 0.524743 0
M  V30 5620 C 530.776 -1.77792 -0.948279 0
M  V30 5621 O 529.832 -1.83719 -1.73216 0
M  V30 5622 C 531.145 -2.66299 1.39661 0
M  V30 5623 C 532.693 -2.80183 1.39521 0
M  V30 5624 C 533.168 -3.98815 2.25189 0
M  V30 5625 N 534.659 -4.06047 2.2289 0
M  V30 5626 C 535.394 -4.97032 2.85915 0
M  V30 5627 N 534.89 -5.93143 3.57985 0
M  V30 5628 N 536.683 -4.90015 2.75394 0
M  V30 5629 H 528.834 -1.1422 1.79074 0
M  V30 5630 H 531.097 -0.561399 0.763894 0
M  V30 5631 H 530.803 -2.52974 2.4433 0
M  V30 5632 H 530.677 -3.61663 1.07145 0
M  V30 5633 H 533.064 -2.92942 0.356253 0
M  V30 5634 H 533.145 -1.85586 1.76044 0
M  V30 5635 H 532.789 -3.86817 3.29143 0
M  V30 5636 H 532.719 -4.92654 1.86009 0
M  V30 5637 H 535.21 -3.37262 1.70478 0
M  V30 5638 H 535.523 -6.59227 4.03286 0
M  V30 5639 H 533.868 -5.93223 3.62093 0
M  V30 5640 H 537.059 -4.13894 2.18654 0
M  V30 5641 H 537.232 -5.60724 3.24796 0
M  V30 5642 N 530.638 -0.59345 -1.46 0
M  V30 5643 C 531.601 0.123538 -2.28867 0
M  V30 5644 C 532.601 0.808628 -1.38989 0
M  V30 5645 O 533.791 0.658945 -1.61256 0
M  V30 5646 C 530.923 1.1847 -3.19653 0
M  V30 5647 H 532.116 -0.604843 -2.93737 0
M  V30 5648 H 529.669 -0.351875 -1.52288 0
M  V30 5649 H 530.404 1.94431 -2.59552 0
M  V30 5650 H 530.189 0.69783 -3.8584 0
M  V30 5651 H 531.679 1.68726 -3.81997 0
M  V30 5652 N 532.116 1.54067 -0.331816 0
M  V30 5653 C 533.365 1.99895 0.269209 0
M  V30 5654 C 533.678 1.22371 1.52593 0
M  V30 5655 O 534.884 1.58618 2.20347 0
M  V30 5656 C 533.34 3.55972 0.530244 0
M  V30 5657 C 532.948 4.4234 -0.709901 0
M  V30 5658 C 534.692 4.10247 1.09077 0
M  V30 5659 C 532.599 5.89905 -0.420312 0
M  V30 5660 H 531.529 0.746741 0.104371 0
M  V30 5661 H 534.18 1.78014 -0.445324 0
M  V30 5662 H 532.562 3.73873 1.30518 0
M  V30 5663 H 533.736 4.36215 -1.48504 0
M  V30 5664 H 532.051 3.98997 -1.19123 0
M  V30 5665 H 534.648 5.18095 1.32219 0
M  V30 5666 H 534.991 3.62739 2.0427 0
M  V30 5667 H 535.524 3.96011 0.376824 0
M  V30 5668 H 532.263 6.41623 -1.34164 0
M  V30 5669 H 531.783 5.98962 0.316962 0
M  V30 5670 H 533.462 6.46991 -0.0331956 0
M  V30 5671 N 533.594 0.0601682 1.57485 0
M  V30 5672 C 534.871 -0.651956 1.84415 0
M  V30 5673 C 535.251 -1.88498 0.950361 0
M  V30 5674 O 534.599 -2.28496 0.0136719 0
M  V30 5675 C 534.809 -1.00069 3.34346 0
M  V30 5676 C 536.157 -1.37915 4.01578 0
M  V30 5677 O 537.181 -1.09277 3.39024 0
M  V30 5678 O 536.04 -1.91399 5.11887 0
M  V30 5679 H 533.134 -0.322668 0.761455 0
M  V30 5680 H 535.68 0.0902159 1.6946 0
M  V30 5681 H 534.452 -0.124463 3.91102 0
M  V30 5682 H 534.075 -1.80001 3.54521 0
M  V30 5683 N 535.072 -1.5615 -0.213296 0
M  V30 5684 C 536.002 -1.96109 -1.26742 0
M  V30 5685 C 536.983 -0.830448 -1.48451 0
M  V30 5686 O 538.168 -1.09339 -1.60495 0
M  V30 5687 C 535.298 -2.28492 -2.61551 0
M  V30 5688 C 534.252 -3.44124 -2.54485 0
M  V30 5689 C 533.578 -3.62134 -3.93399 0
M  V30 5690 C 534.878 -4.78855 -2.08556 0
M  V30 5691 H 536.572 -2.84412 -0.935434 0
M  V30 5692 H 534.118 -1.36836 -0.44854 0
M  V30 5693 H 536.071 -2.55039 -3.3546 0
M  V30 5694 H 534.795 -1.37052 -2.96453 0
M  V30 5695 H 533.454 -3.17639 -1.83033 0
M  V30 5696 H 533.102 -2.68055 -4.25623 0
M  V30 5697 H 532.802 -4.39913 -3.89551 0
M  V30 5698 H 534.326 -3.91038 -4.68958 0
M  V30 5699 H 535.74 -5.04552 -2.72213 0
M  V30 5700 H 534.137 -5.59975 -2.1575 0
M  V30 5701 H 535.207 -4.73657 -1.03811 0
M  V30 5702 N 536.55 0.480323 -1.50102 0
M  V30 5703 C 537.961 1.06142 -1.53593 0
M  V30 5704 C 538.312 1.93335 -0.334055 0
M  V30 5705 O 537.437 2.09188 0.55403 0
M  V30 5706 C 538.032 1.9317 -2.78336 0
M  V30 5707 C 536.591 2.46405 -2.84538 0
M  V30 5708 C 535.738 1.24521 -2.4777 0
M  V30 5709 H 538.689 0.26333 -1.565 0
M  V30 5710 H 538.71 2.78123 -2.59669 0
M  V30 5711 H 538.222 1.29683 -3.65792 0
M  V30 5712 H 536.323 3.13472 -2.01411 0
M  V30 5713 H 536.436 2.82143 -3.87211 0
M  V30 5714 H 534.8 1.57706 -2.00003 0
M  V30 5715 H 535.583 0.627102 -3.37524 0
M  V30 5716 N 538.028 1.39524 0.732853 0
M  V30 5717 C 539.268 1.383 1.50508 0
M  V30 5718 C 539.632 -0.0208271 1.91989 0
M  V30 5719 O 540.833 -0.158091 2.68335 0
M  V30 5720 C 539.104 2.33007 2.71003 0
M  V30 5721 S 540.663 2.49989 3.60626 0
M  V30 5722 H 537.481 0.490417 0.514794 0
M  V30 5723 H 540.083 1.75641 0.858524 0
M  V30 5724 H 538.787 3.33862 2.38672 0
M  V30 5725 H 538.318 1.96889 3.40585 0
M  V30 5726 H 540.333 1.7394 4.64714 0
M  V30 5727 N 539.506 -0.963266 1.24736 0
M  V30 5728 C 540.922 -1.23273 1.01371 0
M  V30 5729 C 541.122 -1.99618 -0.274776 0
M  V30 5730 O 540.178 -2.32293 -0.989769 0
M  V30 5731 C 541.491 -2.01554 2.23152 0
M  V30 5732 C 543.039 -2.14629 2.27823 0
M  V30 5733 C 543.514 -2.96307 3.49237 0
M  V30 5734 N 545.005 -3.03887 3.49581 0
M  V30 5735 C 545.74 -3.67456 4.40186 0
M  V30 5736 N 545.236 -4.32706 5.41052 0
M  V30 5737 N 547.029 -3.64511 4.27888 0
M  V30 5738 H 539.18 -0.452294 2.07528 0
M  V30 5739 H 541.443 -0.262521 0.910926 0
M  V30 5740 H 541.149 -1.52847 3.1675 0
M  V30 5741 H 541.023 -3.02278 2.25628 0
M  V30 5742 H 543.41 -2.62537 1.34753 0
M  V30 5743 H 543.491 -1.13238 2.2937 0
M  V30 5744 H 543.135 -2.49091 4.42624 0
M  V30 5745 H 543.065 -3.97905 3.44933 0
M  V30 5746 H 545.556 -2.57477 2.76611 0
M  V30 5747 H 545.869 -4.79042 6.06415 0
M  V30 5748 H 544.214 -4.31361 5.44934 0
M  V30 5749 H 547.405 -3.12715 3.4832 0
M  V30 5750 H 547.578 -4.13768 4.98698 0
M  V30 5751 N 540.985 -1.06182 -1.16461 0
M  V30 5752 C 542.215 -0.797425 -1.9059 0
M  V30 5753 C 542.623 0.651845 -1.77616 0
M  V30 5754 O 541.966 1.45788 -1.11766 0
M  V30 5755 C 542.028 -1.11128 -3.41893 0
M  V30 5756 C 541.692 -2.55874 -3.78652 0
M  V30 5757 C 542.689 -3.54104 -3.80665 0
M  V30 5758 C 540.374 -2.91144 -4.09317 0
M  V30 5759 C 542.368 -4.85645 -4.12829 0
M  V30 5760 C 540.055 -4.22885 -4.41148 0
M  V30 5761 C 541.053 -5.19945 -4.42883 0
M  V30 5762 O 540.741 -6.49322 -4.73959 0
M  V30 5763 H 540.473 -0.288709 -0.611247 0
M  V30 5764 H 543.027 -1.41841 -1.4856 0
M  V30 5765 H 541.257 -0.433217 -3.84266 0
M  V30 5766 H 542.946 -0.831306 -3.97296 0
M  V30 5767 H 543.712 -3.28197 -3.57088 0
M  V30 5768 H 539.591 -2.16252 -4.07131 0
M  V30 5769 H 543.135 -5.61398 -4.14099 0
M  V30 5770 H 539.032 -4.48551 -4.6419 0
M  V30 5771 H 539.8 -6.54294 -4.91774 0
M  V30 5772 N 542.463 1.3308 -0.844243 0
M  V30 5773 C 543.711 1.97215 -0.441676 0
M  V30 5774 C 544.032 1.67185 1.0037 0
M  V30 5775 O 543.302 0.973588 1.69994 0
M  V30 5776 H 541.882 0.72959 -0.160335 0
M  V30 5777 H 544.544 1.62348 -1.07838 0
M  V30 5778 H 543.64 3.06698 -0.57815 0
M  V30 5779 N 543.941 0.601185 1.45683 0
M  V30 5780 C 545.189 0.0936957 2.01883 0
M  V30 5781 C 545.51 -1.2779 1.47291 0
M  V30 5782 O 544.78 -1.84279 0.664691 0
M  V30 5783 H 543.36 0.0316466 0.746329 0
M  V30 5784 H 546.022 0.781137 1.78562 0
M  V30 5785 H 545.118 0.0386297 3.12076 0
M  V30 5786 N 545.419 -1.53889 0.339982 0
M  V30 5787 C 546.329 -2.28604 -0.526988 0
M  V30 5788 C 547.345 -1.33578 -1.11503 0
M  V30 5789 O 548.521 -1.66612 -1.13148 0
M  V30 5790 C 545.586 -3.04164 -1.66389 0
M  V30 5791 C 544.647 -4.14809 -1.10599 0
M  V30 5792 C 543.88 -4.86756 -2.18871 0
M  V30 5793 O 544.103 -4.58343 -3.39526 0
M  V30 5794 O 543.037 -5.73289 -1.83366 0
M  V30 5795 H 546.863 -3.03594 0.0802707 0
M  V30 5796 H 544.448 -1.4903 0.105141 0
M  V30 5797 H 546.33 -3.51427 -2.32544 0
M  V30 5798 H 545.005 -2.32035 -2.25703 0
M  V30 5799 H 543.912 -3.71857 -0.409067 0
M  V30 5800 H 545.245 -4.89029 -0.557771 0
M  V30 5801 N 546.897 -0.0685191 -1.57451 0
M  V30 5802 C 547.807 0.914677 -2.16034 0
M  V30 5803 C 548.823 1.32938 -1.12265 0
M  V30 5804 O 549.999 1.40275 -1.44516 0
M  V30 5805 C 547.064 2.16519 -2.70777 0
M  V30 5806 C 546.125 1.80721 -3.89408 0
M  V30 5807 C 545.358 2.9981 -4.41531 0
M  V30 5808 O 545.581 4.13727 -3.92666 0
M  V30 5809 O 544.515 2.79817 -5.32903 0
M  V30 5810 H 548.341 0.446364 -3.00402 0
M  V30 5811 H 545.926 0.154367 -1.486 0
M  V30 5812 H 547.808 2.89856 -3.05878 0
M  V30 5813 H 546.483 2.62454 -1.89471 0
M  V30 5814 H 545.39 1.04646 -3.59166 0
M  V30 5815 H 546.723 1.39571 -4.71997 0
M  V30 5816 N 548.375 1.56261 0.205012 0
M  V30 5817 C 549.622 1.8004 0.926927 0
M  V30 5818 C 549.95 0.640086 1.83666 0
M  V30 5819 O 549.205 -0.374702 1.92079 0
M  V30 5820 C 549.504 3.09722 1.78345 0
M  V30 5821 C 549.17 4.39082 1.02555 0
M  V30 5822 C 547.832 4.74226 0.816256 0
M  V30 5823 C 550.184 5.18877 0.491559 0
M  V30 5824 C 547.512 5.86668 0.0613287 0
M  V30 5825 C 549.864 6.32105 -0.250107 0
M  V30 5826 C 548.528 6.6584 -0.470508 0
M  V30 5827 H 547.798 0.658812 0.339187 0
M  V30 5828 H 550.445 1.90515 0.19395 0
M  V30 5829 H 548.75 2.9444 2.5848 0
M  V30 5830 H 550.447 3.25324 2.34446 0
M  V30 5831 H 547.037 4.11497 1.19868 0
M  V30 5832 H 551.221 4.92147 0.640684 0
M  V30 5833 H 546.477 6.11283 -0.119501 0
M  V30 5834 H 550.651 6.93157 -0.671307 0
M  V30 5835 H 548.278 7.5281 -1.05739 0
M  V30 5836 N 549.853 -0.472356 1.50355 0
M  V30 5837 C 551.099 -1.22634 1.6152 0
M  V30 5838 C 551.432 -1.91645 0.313995 0
M  V30 5839 O 550.707 -1.82059 -0.684446 0
M  V30 5840 C 550.99 -2.27099 2.7946 0
M  V30 5841 C 550.843 -1.62402 4.19459 0
M  V30 5842 C 552.162 -3.28421 2.92964 0
M  V30 5843 H 549.281 -0.444494 0.587873 0
M  V30 5844 H 551.923 -0.520321 1.82737 0
M  V30 5845 H 550.073 -2.87314 2.61501 0
M  V30 5846 H 551.745 -1.05793 4.49005 0
M  V30 5847 H 549.988 -0.927184 4.23776 0
M  V30 5848 H 550.659 -2.38309 4.97909 0
M  V30 5849 H 553.135 -2.78227 3.09401 0
M  V30 5850 H 552.011 -3.98845 3.77113 0
M  V30 5851 H 552.272 -3.92467 2.03525 0
M  V30 5852 N 551.331 -1.39911 -0.725443 0
M  V30 5853 C 552.577 -1.37858 -1.48738 0
M  V30 5854 C 552.91 0.0224187 -1.94187 0
M  V30 5855 O 552.185 0.989204 -1.67466 0
M  V30 5856 C 552.468 -2.3594 -2.72038 0
M  V30 5857 C 552.321 -3.85023 -2.32546 0
M  V30 5858 C 553.64 -2.31704 -3.74167 0
M  V30 5859 H 550.759 -0.502074 -0.539528 0
M  V30 5860 H 553.401 -1.70974 -0.828728 0
M  V30 5861 H 551.551 -2.0783 -3.28236 0
M  V30 5862 H 553.223 -4.2392 -1.81905 0
M  V30 5863 H 551.466 -4.01334 -1.64661 0
M  V30 5864 H 552.137 -4.49152 -3.20884 0
M  V30 5865 H 554.613 -2.5658 -3.27576 0
M  V30 5866 H 553.489 -3.02395 -4.58092 0
M  V30 5867 H 553.75 -1.3253 -4.21768 0
M  V30 5868 N 552.809 0.956637 -1.25245 0
M  V30 5869 C 554.058 1.69537 -1.0927 0
M  V30 5870 C 554.371 1.92136 0.366503 0
M  V30 5871 O 555.577 2.63687 0.64665 0
M  V30 5872 C 554.033 3.05211 -1.9072 0
M  V30 5873 C 553.641 2.90416 -3.41119 0
M  V30 5874 C 555.385 3.82882 -1.83308 0
M  V30 5875 C 553.292 4.21468 -4.14872 0
M  V30 5876 H 552.222 0.635804 -0.405302 0
M  V30 5877 H 554.873 1.06513 -1.49423 0
M  V30 5878 H 553.255 3.69128 -1.43389 0
M  V30 5879 H 554.429 2.35444 -3.9611 0
M  V30 5880 H 552.744 2.26203 -3.49602 0
M  V30 5881 H 555.341 4.79944 -2.35706 0
M  V30 5882 H 555.684 4.0853 -0.800572 0
M  V30 5883 H 556.217 3.25711 -2.28379 0
M  V30 5884 H 552.956 4.01009 -5.18529 0
M  V30 5885 H 552.476 4.76213 -3.64665 0
M  V30 5886 H 554.155 4.90022 -4.22478 0
M  V30 5887 N 554.287 1.06798 1.15896 0
M  V30 5888 C 555.22 0.627503 2.19403 0
M  V30 5889 C 556.198 -0.352352 1.58736 0
M  V30 5890 O 557.382 -0.260111 1.86697 0
M  V30 5891 C 554.509 -0.079356 3.38607 0
M  V30 5892 C 553.555 0.858057 4.17779 0
M  V30 5893 S 554.388 2.35605 4.80885 0
M  V30 5894 C 555.544 1.66083 6.03463 0
M  V30 5895 H 555.777 1.50441 2.56427 0
M  V30 5896 H 553.31 0.881427 1.26768 0
M  V30 5897 H 555.268 -0.48095 4.07673 0
M  V30 5898 H 553.929 -0.932524 2.99938 0
M  V30 5899 H 553.122 0.310108 5.03045 0
M  V30 5900 H 552.724 1.19977 3.54234 0
M  V30 5901 H 555.016 0.969337 6.7053 0
M  V30 5902 H 555.959 2.49159 6.62816 0
M  V30 5903 H 556.367 1.14122 5.52844 0
M  V30 5904 N 555.766 -1.3263 0.851289 0
M  V30 5905 C 557.177 -1.79653 0.5081 0
M  V30 5906 C 557.528 -1.70327 -0.973815 0
M  V30 5907 O 556.653 -1.25986 -1.75944 0
M  V30 5908 C 557.248 -3.26196 0.915515 0
M  V30 5909 C 555.807 -3.71187 0.624277 0
M  V30 5910 C 554.954 -2.53804 1.11709 0
M  V30 5911 H 557.905 -1.19976 1.03882 0
M  V30 5912 H 557.926 -3.79801 0.230535 0
M  V30 5913 H 557.438 -3.32952 1.99411 0
M  V30 5914 H 555.539 -3.69948 -0.443737 0
M  V30 5915 H 555.652 -4.64132 1.18821 0
M  V30 5916 H 554.016 -2.48964 0.537484 0
M  V30 5917 H 554.799 -2.63315 2.20272 0
M  V30 5918 N 557.244 -0.608902 -1.45362 0
M  V30 5919 C 558.521 -0.0365378 -1.95566 0
M  V30 5920 C 558.901 1.43169 -1.55131 0
M  V30 5921 O 558.249 2.1349 -0.814513 0
M  V30 5922 C 558.459 -0.236026 -3.48201 0
M  V30 5923 C 559.807 -0.117518 -4.24437 0
M  V30 5924 O 560.831 -0.166217 -3.55812 0
M  V30 5925 O 559.69 -0.00372127 -5.465 0
M  V30 5926 H 556.784 0.0349874 -0.82626 0
M  V30 5927 H 559.33 -0.679055 -1.55521 0
M  V30 5928 H 558.102 -1.25569 -3.70605 0
M  V30 5929 H 557.725 0.441691 -3.95139 0
M  V30 5930 N 558.722 1.53707 -0.348139 0
M  V30 5931 C 559.95 2.05406 0.248224 0
M  V30 5932 C 560.365 1.22282 1.43849 0
M  V30 5933 O 559.722 0.259244 1.80649 0
M  V30 5934 C 559.773 3.55446 0.658793 0
M  V30 5935 O 559.494 4.35417 -0.484149 0
M  V30 5936 C 560.995 4.23335 1.31539 0
M  V30 5937 H 558.215 0.669344 0.0471075 0
M  V30 5938 H 560.759 1.98257 -0.501456 0
M  V30 5939 H 558.914 3.62803 1.35841 0
M  V30 5940 H 559.328 5.24268 -0.155949 0
M  V30 5941 H 560.802 5.29692 1.55338 0
M  V30 5942 H 561.279 3.75967 2.27036 0
M  V30 5943 H 561.885 4.20184 0.657683 0
M  V30 5944 N 560.2 0.0768682 1.57412 0
M  V30 5945 C 561.163 -0.873949 2.11884 0
M  V30 5946 C 562.163 -1.22301 1.04398 0
M  V30 5947 O 563.353 -1.15545 1.30365 0
M  V30 5948 C 560.485 -2.17575 2.62438 0
M  V30 5949 H 561.678 -0.401278 2.97203 0
M  V30 5950 H 559.231 -0.171904 1.55352 0
M  V30 5951 H 559.966 -2.69368 1.80587 0
M  V30 5952 H 559.751 -1.93534 3.41009 0
M  V30 5953 H 561.241 -2.85631 3.04639 0
M  V30 5954 N 561.678 -1.56367 -0.196722 0
M  V30 5955 C 562.608 -1.97442 -1.24655 0
M  V30 5956 C 563.589 -0.846147 -1.47561 0
M  V30 5957 O 564.774 -1.11035 -1.59326 0
M  V30 5958 C 561.904 -2.31253 -2.59112 0
M  V30 5959 C 560.858 -3.46804 -2.50821 0
M  V30 5960 C 560.184 -3.66286 -3.89536 0
M  V30 5961 C 561.484 -4.8104 -2.03465 0
M  V30 5962 H 563.178 -2.85388 -0.905216 0
M  V30 5963 H 560.724 -1.37304 -0.434002 0
M  V30 5964 H 562.677 -2.58583 -3.32736 0
M  V30 5965 H 561.401 -1.40188 -2.94983 0
M  V30 5966 H 560.06 -3.19563 -1.79653 0
M  V30 5967 H 559.708 -2.72555 -4.22756 0
M  V30 5968 H 559.408 -4.4402 -3.84864 0
M  V30 5969 H 560.932 -3.9599 -4.64784 0
M  V30 5970 H 562.346 -5.07411 -2.66846 0
M  V30 5971 H 560.743 -5.62232 -2.09798 0
M  V30 5972 H 561.813 -4.74732 -0.98781 0
M  V30 5973 N 563.156 0.464375 -1.50603 0
M  V30 5974 C 564.119 1.54393 -1.69397 0
M  V30 5975 C 565.119 1.50566 -0.564504 0
M  V30 5976 O 566.309 1.53066 -0.831645 0
M  V30 5977 C 563.441 2.9401 -1.72543 0
M  V30 5978 H 564.634 1.39044 -2.65719 0
M  V30 5979 H 562.187 0.69122 -1.40185 0
M  V30 5980 H 562.922 3.14795 -0.77938 0
M  V30 5981 H 562.707 2.98195 -2.54602 0
M  V30 5982 H 564.197 3.72375 -1.89015 0
M  V30 5983 N 564.634 1.40294 0.718013 0
M  V30 5984 C 565.911 1.2894 1.47084 0
M  V30 5985 C 566.291 -0.0933625 2.10893 0
M  V30 5986 O 565.639 -1.10598 1.99951 0
M  V30 5987 C 565.849 2.4264 2.50852 0
M  V30 5988 C 567.197 2.8276 3.16752 0
M  V30 5989 O 568.221 2.42215 2.61171 0
M  V30 5990 O 567.08 3.528 4.17366 0
M  V30 5991 H 564.174 0.506236 0.653952 0
M  V30 5992 H 566.72 1.52208 0.750394 0
M  V30 5993 H 565.492 3.35009 2.022 0
M  V30 5994 H 565.115 2.21129 3.30435 0
M  V30 5995 N 566.112 -0.949982 1.2575 0
M  V30 5996 C 567.075 -2.02894 1.06615 0
M  V30 5997 C 568.075 -1.60791 0.0173905 0
M  V30 5998 O 569.265 -1.72249 0.260003 0
M  V30 5999 C 566.397 -3.35219 0.619751 0
M  V30 6000 H 567.59 -2.21302 2.02399 0
M  V30 6001 H 565.143 -1.12772 1.08223 0
M  V30 6002 H 565.878 -3.22508 -0.340486 0
M  V30 6003 H 565.663 -3.67129 1.37692 0
M  V30 6004 H 567.153 -4.14505 0.507443 0
M  V30 6005 N 567.59 -1.07411 -1.15328 0
M  V30 6006 C 568.52 -0.716472 -2.22236 0
M  V30 6007 C 569.501 0.296373 -1.67498 0
M  V30 6008 O 570.686 0.168989 -1.93463 0
M  V30 6009 C 567.816 -0.114142 -3.47112 0
M  V30 6010 C 566.77 -1.05421 -4.14814 0
M  V30 6011 C 566.096 -0.314604 -5.33774 0
M  V30 6012 C 567.396 -2.38808 -4.64508 0
M  V30 6013 H 569.09 -1.61029 -2.52408 0
M  V30 6014 H 566.636 -0.775702 -1.21321 0
M  V30 6015 H 568.589 0.148001 -4.2114 0
M  V30 6016 H 567.313 0.814755 -3.16274 0
M  V30 6017 H 565.972 -1.30128 -3.42728 0
M  V30 6018 H 565.62 0.617772 -4.99192 0
M  V30 6019 H 565.32 -0.941209 -5.80013 0
M  V30 6020 H 566.844 -0.0602747 -6.1057 0
M  V30 6021 H 568.258 -2.18424 -5.3006 0
M  V30 6022 H 566.655 -2.97069 -5.21412 0
M  V30 6023 H 567.725 -3.01067 -3.80114 0
M  V30 6024 N 569.068 1.32177 -0.85831 0
M  V30 6025 C 570.484 1.49873 -0.548656 0
M  V30 6026 C 570.684 1.79278 0.919874 0
M  V30 6027 O 569.74 1.86451 1.70271 0
M  V30 6028 C 571.053 2.64043 -1.4388 0
M  V30 6029 C 572.601 2.77928 -1.43961 0
M  V30 6030 C 573.076 3.95182 -2.31506 0
M  V30 6031 N 574.567 4.0245 -2.29321 0
M  V30 6032 C 575.302 4.9242 -2.93786 0
M  V30 6033 N 574.798 5.87373 -3.67376 0
M  V30 6034 N 576.591 4.85572 -2.83155 0
M  V30 6035 H 568.742 1.11357 -1.80868 0
M  V30 6036 H 571.005 0.549175 -0.772729 0
M  V30 6037 H 570.711 2.49055 -2.48324 0
M  V30 6038 H 570.585 3.59912 -1.12885 0
M  V30 6039 H 572.972 2.92338 -0.402813 0
M  V30 6040 H 573.053 1.82762 -1.78974 0
M  V30 6041 H 572.697 3.81531 -3.35256 0
M  V30 6042 H 572.627 4.89633 -1.93823 0
M  V30 6043 H 575.118 3.34507 -1.75822 0
M  V30 6044 H 575.431 6.52728 -4.13722 0
M  V30 6045 H 573.776 5.87388 -3.71484 0
M  V30 6046 H 576.967 4.10363 -2.25211 0
M  V30 6047 H 577.14 5.55486 -3.33676 0
M  V30 6048 N 570.547 0.616602 1.45037 0
M  V30 6049 C 571.796 0.112861 2.01384 0
M  V30 6050 C 572.109 -1.26758 1.48969 0
M  V30 6051 O 573.315 -1.86454 1.9735 0
M  V30 6052 C 571.771 0.151057 3.59583 0
M  V30 6053 C 571.379 1.53191 4.20995 0
M  V30 6054 C 573.123 -0.296974 4.2346 0
M  V30 6055 C 571.03 1.526 5.71373 0
M  V30 6056 H 569.96 0.0384254 0.75302 0
M  V30 6057 H 572.611 0.773262 1.66412 0
M  V30 6058 H 570.993 -0.57617 3.91786 0
M  V30 6059 H 572.167 2.28156 4.00352 0
M  V30 6060 H 570.482 1.92279 3.69348 0
M  V30 6061 H 573.079 -0.320712 5.33737 0
M  V30 6062 H 573.422 -1.32145 3.9477 0
M  V30 6063 H 573.955 0.377279 3.96007 0
M  V30 6064 H 570.694 2.52837 6.04776 0
M  V30 6065 H 570.214 0.819064 5.94181 0
M  V30 6066 H 571.893 1.25357 6.3474 0
M  V30 6067 N 572.025 -1.5352 0.356285 0
M  V30 6068 C 572.988 -2.24071 -0.482182 0
M  V30 6069 C 573.988 -1.24531 -1.01729 0
M  V30 6070 O 575.178 -1.48876 -0.904513 0
M  V30 6071 C 572.31 -2.97025 -1.67299 0
M  V30 6072 H 573.503 -2.99596 0.135031 0
M  V30 6073 H 571.056 -1.55928 0.107825 0
M  V30 6074 H 571.791 -2.25719 -2.32855 0
M  V30 6075 H 571.576 -3.7005 -1.29636 0
M  V30 6076 H 573.066 -3.50683 -2.26741 0
M  V30 6077 N 573.503 -0.0852151 -1.57369 0
M  V30 6078 C 574.413 0.891712 -2.16992 0
M  V30 6079 C 575.429 1.3174 -1.13669 0
M  V30 6080 O 576.605 1.38735 -1.45995 0
M  V30 6081 C 573.67 2.13635 -2.73059 0
M  V30 6082 C 572.731 1.7658 -3.91303 0
M  V30 6083 C 571.964 2.95111 -4.44686 0
M  V30 6084 O 572.187 4.09539 -3.97032 0
M  V30 6085 O 571.121 2.74149 -5.35841 0
M  V30 6086 H 574.947 0.414477 -3.00858 0
M  V30 6087 H 572.532 0.138598 -1.48756 0
M  V30 6088 H 574.414 2.86595 -3.08935 0
M  V30 6089 H 573.089 2.6043 -1.92244 0
M  V30 6090 H 571.996 1.00831 -3.60255 0
M  V30 6091 H 573.329 1.34557 -4.7345 0
M  V30 6092 N 574.981 1.5647 0.188427 0
M  V30 6093 C 576.397 1.50204 0.539532 0
M  V30 6094 C 576.597 0.78644 1.85519 0
M  V30 6095 O 575.653 0.339714 2.50204 0
M  V30 6096 C 576.966 2.94893 0.588103 0
M  V30 6097 C 578.514 3.05602 0.67648 0
M  V30 6098 C 578.989 4.51716 0.756101 0
M  V30 6099 N 580.48 4.55894 0.819451 0
M  V30 6100 C 581.215 5.66272 0.90134 0
M  V30 6101 N 580.711 6.86323 0.945118 0
M  V30 6102 N 582.504 5.54201 0.939043 0
M  V30 6103 H 574.655 2.01406 -0.674493 0
M  V30 6104 H 576.918 0.916828 -0.241103 0
M  V30 6105 H 576.624 3.50334 -0.309633 0
M  V30 6106 H 576.498 3.4861 1.44051 0
M  V30 6107 H 578.885 2.50206 1.56465 0
M  V30 6108 H 578.966 2.54999 -0.202262 0
M  V30 6109 H 578.61 5.07739 -0.12774 0
M  V30 6110 H 578.54 5.00058 1.65074 0
M  V30 6111 H 581.031 3.69452 0.794594 0
M  V30 6112 H 581.344 7.66194 1.0083 0
M  V30 6113 H 579.689 6.88968 0.913683 0
M  V30 6114 H 582.88 4.59333 0.901725 0
M  V30 6115 H 583.053 6.40247 0.999402 0
M  V30 6116 N 576.459 -0.456382 1.50847 0
M  V30 6117 C 577.708 -1.2042 1.61808 0
M  V30 6118 C 578.021 -1.9278 0.330932 0
M  V30 6119 O 579.227 -2.69612 0.319643 0
M  V30 6120 C 577.683 -2.18891 2.85683 0
M  V30 6121 C 577.291 -1.52267 4.2133 0
M  V30 6122 C 579.035 -2.94224 3.05994 0
M  V30 6123 C 576.942 -2.4911 5.36375 0
M  V30 6124 H 575.872 -0.453177 0.602616 0
M  V30 6125 H 578.523 -0.473144 1.77295 0
M  V30 6126 H 576.905 -2.95351 2.63787 0
M  V30 6127 H 578.079 -0.814949 4.53536 0
M  V30 6128 H 576.394 -0.891594 4.06743 0
M  V30 6129 H 578.991 -3.66732 3.89117 0
M  V30 6130 H 579.334 -3.54469 2.18306 0
M  V30 6131 H 579.867 -2.24874 3.28141 0
M  V30 6132 H 576.606 -1.93582 6.26264 0
M  V30 6133 H 576.126 -3.17991 5.08569 0
M  V30 6134 H 577.805 -3.10637 5.67551 0
M  V30 6135 N 577.937 -1.40673 -0.710563 0
M  V30 6136 C 579.353 -1.22813 -1.01928 0
M  V30 6137 C 579.553 -0.10687 -2.01216 0
M  V30 6138 O 578.609 0.533614 -2.46797 0
M  V30 6139 C 579.922 -2.57178 -1.5582 0
M  V30 6140 C 581.47 -2.64233 -1.67779 0
M  V30 6141 C 581.945 -3.98879 -2.25076 0
M  V30 6142 N 583.436 -4.00647 -2.32456 0
M  V30 6143 C 584.171 -5.01621 -2.77784 0
M  V30 6144 N 583.667 -6.12989 -3.22826 0
M  V30 6145 N 585.46 -4.88988 -2.77213 0
M  V30 6146 H 577.611 -2.12335 -0.05253 0
M  V30 6147 H 579.874 -0.9441 -0.085898 0
M  V30 6148 H 579.58 -3.39903 -0.903249 0
M  V30 6149 H 579.454 -2.78618 -2.54267 0
M  V30 6150 H 581.841 -1.81876 -2.3239 0
M  V30 6151 H 581.922 -2.46619 -0.679178 0
M  V30 6152 H 581.566 -4.81678 -1.61086 0
M  V30 6153 H 581.496 -4.13826 -3.25661 0
M  V30 6154 H 583.987 -3.20231 -2.0065 0
M  V30 6155 H 584.3 -6.85921 -3.55995 0
M  V30 6156 H 582.645 -6.16547 -3.20773 0
M  V30 6157 H 585.836 -4.01075 -2.41363 0
M  V30 6158 H 586.009 -5.67822 -3.12221 0
M  V30 6159 N 579.415 0.9433 -1.26252 0
M  V30 6160 C 580.348 2.04162 -1.01946 0
M  V30 6161 C 581.326 1.62507 0.0550808 0
M  V30 6162 O 582.51 1.883 -0.0869025 0
M  V30 6163 C 579.637 3.34313 -0.54335 0
M  V30 6164 C 578.683 3.94939 -1.61013 0
M  V30 6165 S 579.516 4.29484 -3.19849 0
M  V30 6166 C 580.672 5.62738 -2.74001 0
M  V30 6167 H 580.905 2.24466 -1.94942 0
M  V30 6168 H 578.438 1.08441 -1.09909 0
M  V30 6169 H 580.396 4.09576 -0.275315 0
M  V30 6170 H 579.057 3.11957 0.36629 0
M  V30 6171 H 578.25 4.88812 -1.22795 0
M  V30 6172 H 577.852 3.26202 -1.82943 0
M  V30 6173 H 580.144 6.41356 -2.18333 0
M  V30 6174 H 581.087 6.05839 -3.66558 0
M  V30 6175 H 581.495 5.22514 -2.13634 0
M  V30 6176 N 580.893 1.08022 1.14757 0
M  V30 6177 C 581.843 0.676345 2.17737 0
M  V30 6178 C 582.827 -0.302018 1.5804 0
M  V30 6179 O 584.019 -0.11466 1.76628 0
M  V30 6180 C 581.148 0.082984 3.432 0
M  V30 6181 C 580.234 1.0869 4.09936 0
M  V30 6182 N 580.625 2.26891 4.52055 0
M  V30 6183 C 578.923 0.921768 4.36371 0
M  V30 6184 C 579.624 2.90636 5.0389 0
M  V30 6185 N 578.6 2.18266 4.97856 0
M  V30 6186 H 582.402 1.5765 2.4804 0
M  V30 6187 H 579.916 0.954374 1.31398 0
M  V30 6188 H 581.913 -0.224289 4.16296 0
M  V30 6189 H 580.573 -0.812206 3.14378 0
M  V30 6190 H 581.584 2.6457 4.45223 0
M  V30 6191 H 578.261 0.0800499 4.17423 0
M  V30 6192 H 579.651 3.9104 5.46386 0
M  V30 6193 N 582.371 -1.3172 0.865308 0
M  V30 6194 C 583.617 -1.97168 0.474633 0
M  V30 6195 C 583.95 -1.68263 -0.969604 0
M  V30 6196 O 583.225 -0.976588 -1.68205 0
M  V30 6197 C 583.508 -3.52689 0.726808 0
M  V30 6198 C 583.361 -3.91185 2.22024 0
M  V30 6199 C 584.68 -4.39689 0.190201 0
M  V30 6200 H 581.799 -0.716185 0.17392 0
M  V30 6201 H 584.441 -1.55925 1.08569 0
M  V30 6202 H 582.591 -3.8795 0.206705 0
M  V30 6203 H 584.263 -3.66049 2.80724 0
M  V30 6204 H 582.506 -3.3996 2.69462 0
M  V30 6205 H 583.177 -4.99604 2.34735 0
M  V30 6206 H 585.653 -4.11225 0.635103 0
M  V30 6207 H 584.529 -5.47469 0.396132 0
M  V30 6208 H 584.79 -4.32683 -0.907625 0
M  V30 6209 N 583.85 -0.624285 -1.44708 0
M  V30 6210 C 585.075 -0.131171 -2.06985 0
M  V30 6211 C 585.5 1.18234 -1.46295 0
M  V30 6212 O 584.858 1.72375 -0.561842 0
M  V30 6213 C 584.906 -0.0226724 -3.60593 0
M  V30 6214 O 584.01 1.02314 -3.99507 0
M  V30 6215 H 583.351 -0.0816556 -0.65896 0
M  V30 6216 H 585.88 -0.859027 -1.85693 0
M  V30 6217 H 585.891 0.170138 -4.07645 0
M  V30 6218 H 584.566 -0.981685 -4.04148 0
M  V30 6219 H 583.143 0.805452 -3.64097 0
M  V30 6220 N 585.328 1.53329 -0.364422 0
M  V30 6221 C 586.576 2.00842 0.225189 0
M  V30 6222 C 586.897 1.25345 1.49378 0
M  V30 6223 O 586.167 0.366396 1.92443 0
M  V30 6224 H 584.747 0.742009 0.0862027 0
M  V30 6225 H 587.409 1.8863 -0.490389 0
M  V30 6226 H 586.505 3.08795 0.452987 0
M  V30 6227 N 586.806 0.0935595 1.57322 0
M  V30 6228 C 588.031 -0.582324 1.99057 0
M  V30 6229 C 588.456 -1.61025 0.972242 0
M  V30 6230 O 587.814 -1.81202 -0.0594622 0
M  V30 6231 C 587.862 -1.20799 3.39765 0
M  V30 6232 O 586.966 -2.32382 3.40694 0
M  V30 6233 H 586.307 -0.147884 0.647323 0
M  V30 6234 H 588.837 0.174516 2.03854 0
M  V30 6235 H 588.847 -1.54966 3.77425 0
M  V30 6236 H 587.522 -0.454914 4.13405 0
M  V30 6237 H 586.099 -1.99845 3.14827 0
M  V30 6238 N 588.284 -1.56567 -0.180126 0
M  V30 6239 C 589.695 -1.7126 -0.743422 0
M  V30 6240 C 590.046 -0.70263 -1.83187 0
M  V30 6241 O 589.171 0.137856 -2.1596 0
M  V30 6242 C 589.766 -3.10512 -1.35528 0
M  V30 6243 C 588.325 -3.26919 -1.8655 0
M  V30 6244 C 587.472 -2.67213 -0.741099 0
M  V30 6245 H 590.423 -1.58636 0.0451543 0
M  V30 6246 H 590.444 -3.08673 -2.22489 0
M  V30 6247 H 589.956 -3.83997 -0.562862 0
M  V30 6248 H 588.057 -2.58376 -2.68464 0
M  V30 6249 H 588.17 -4.34574 -2.01699 0
M  V30 6250 H 586.534 -2.26788 -1.15927 0
M  V30 6251 H 587.317 -3.43277 0.0393291 0
M  V30 6252 N 589.762 0.448376 -1.51087 0
M  V30 6253 C 591.009 1.19872 -1.63209 0
M  V30 6254 C 591.337 1.91451 -0.343062 0
M  V30 6255 O 590.592 1.83789 0.672321 0
M  V30 6256 C 590.891 2.24866 -2.77795 0
M  V30 6257 C 590.557 1.70378 -4.17471 0
M  V30 6258 C 589.219 1.55241 -4.55471 0
M  V30 6259 C 591.571 1.30203 -5.04675 0
M  V30 6260 C 588.899 0.983844 -5.78392 0
M  V30 6261 C 591.251 0.747798 -6.28165 0
M  V30 6262 C 589.915 0.583233 -6.64947 0
M  V30 6263 H 589.185 0.438642 -0.597222 0
M  V30 6264 H 591.832 0.49136 -1.85089 0
M  V30 6265 H 590.137 3.01598 -2.50092 0
M  V30 6266 H 591.834 2.82723 -2.84374 0
M  V30 6267 H 588.424 1.83134 -3.87505 0
M  V30 6268 H 592.608 1.40723 -4.75932 0
M  V30 6269 H 587.864 0.844007 -6.05546 0
M  V30 6270 H 592.038 0.427927 -6.95084 0
M  V30 6271 H 589.665 0.140532 -7.6007 0
M  V30 6272 N 591.24 1.41047 0.703093 0
M  V30 6273 C 592.468 1.4334 1.49202 0
M  V30 6274 C 592.883 0.0365596 1.88765 0
M  V30 6275 O 592.24 -0.942419 1.56284 0
M  V30 6276 C 592.291 2.33538 2.75939 0
M  V30 6277 O 592.012 3.67786 2.38045 0
M  V30 6278 C 593.513 2.44555 3.6974 0
M  V30 6279 H 590.733 0.488472 0.460039 0
M  V30 6280 H 593.277 1.85245 0.86629 0
M  V30 6281 H 591.432 1.94962 3.34766 0
M  V30 6282 H 591.846 4.15816 3.19683 0
M  V30 6283 H 593.32 3.11849 4.55471 0
M  V30 6284 H 593.797 1.47447 4.1371 0
M  V30 6285 H 594.403 2.83735 3.16819 0
M  V30 6286 N 592.718 -0.936591 1.26751 0
M  V30 6287 C 593.964 -1.6858 1.12733 0
M  V30 6288 C 594.297 -1.91414 -0.327745 0
M  V30 6289 O 593.572 -1.49812 -1.24043 0
M  V30 6290 C 593.855 -3.05779 1.90187 0
M  V30 6291 C 593.708 -2.90242 3.43627 0
M  V30 6292 C 595.027 -4.0597 1.69931 0
M  V30 6293 H 592.146 -0.61182 0.410908 0
M  V30 6294 H 594.788 -1.08747 1.55801 0
M  V30 6295 H 592.938 -3.56853 1.53584 0
M  V30 6296 H 594.61 -2.46354 3.9001 0
M  V30 6297 H 592.853 -2.2577 3.70419 0
M  V30 6298 H 593.524 -3.87572 3.93055 0
M  V30 6299 H 596 -3.63874 2.0183 0
M  V30 6300 H 594.876 -4.99974 2.26534 0
M  V30 6301 H 595.137 -4.37369 0.64502 0
M  V30 6302 N 594.196 -1.08629 -1.14182 0
M  V30 6303 C 595.159 -0.722027 -2.1753 0
M  V30 6304 C 596.159 0.244305 -1.58933 0
M  V30 6305 O 597.349 0.0235545 -1.74184 0
M  V30 6306 C 594.481 -0.0663966 -3.40835 0
M  V30 6307 H 595.674 -1.63719 -2.51269 0
M  V30 6308 H 593.227 -0.884442 -1.28869 0
M  V30 6309 H 593.962 0.860389 -3.12678 0
M  V30 6310 H 593.747 -0.761598 -3.84632 0
M  V30 6311 H 595.237 0.173346 -4.1724 0
M  V30 6312 N 595.674 1.31259 -0.872281 0
M  V30 6313 C 596.624 2.26 -0.301295 0
M  V30 6314 C 597.608 1.50729 0.562991 0
M  V30 6315 O 598.8 1.72198 0.40949 0
M  V30 6316 C 595.929 3.39724 0.494227 0
M  V30 6317 C 595.015 4.22363 -0.383432 0
M  V30 6318 N 595.406 4.83724 -1.47799 0
M  V30 6319 C 593.704 4.45652 -0.176278 0
M  V30 6320 C 594.405 5.45523 -2.01939 0
M  V30 6321 N 593.381 5.27428 -1.31608 0
M  V30 6322 H 597.183 2.70981 -1.13782 0
M  V30 6323 H 594.697 1.45552 -0.720294 0
M  V30 6324 H 596.694 4.06626 0.919828 0
M  V30 6325 H 595.354 2.96286 1.32834 0
M  V30 6326 H 596.365 4.83313 -1.8609 0
M  V30 6327 H 593.042 4.12845 0.621698 0
M  V30 6328 H 594.432 6.04268 -2.93786 0
M  V30 6329 N 597.152 0.631951 1.44375 0
M  V30 6330 C 598.4 0.136497 2.01639 0
M  V30 6331 C 598.721 -1.24637 1.49969 0
M  V30 6332 O 597.991 -1.82827 0.70363 0
M  V30 6333 H 596.571 0.0474703 0.74549 0
M  V30 6334 H 599.233 0.818837 1.76865 0
M  V30 6335 H 598.329 0.104817 3.11924 0
M  V30 6336 N 598.631 -1.53133 0.372548 0
M  V30 6337 C 600.047 -1.59585 0.02178 0
M  V30 6338 C 600.247 -1.38736 -1.46132 0
M  V30 6339 O 599.303 -1.19599 -2.22379 0
M  V30 6340 C 600.616 -2.9678 0.483959 0
M  V30 6341 C 602.164 -3.09909 0.438775 0
M  V30 6342 C 602.639 -4.49527 0.876876 0
M  V30 6343 N 604.13 -4.55663 0.832214 0
M  V30 6344 C 604.865 -5.61896 1.14281 0
M  V30 6345 N 604.361 -6.75852 1.52303 0
M  V30 6346 N 606.154 -5.51916 1.06515 0
M  V30 6347 H 598.305 -1.64936 1.33827 0
M  V30 6348 H 600.568 -0.773947 0.547458 0
M  V30 6349 H 600.274 -3.17198 1.51915 0
M  V30 6350 H 600.148 -3.7699 -0.125784 0
M  V30 6351 H 602.535 -2.89197 -0.587294 0
M  V30 6352 H 602.616 -2.31691 1.0841 0
M  V30 6353 H 602.26 -4.70979 1.90109 0
M  V30 6354 H 602.19 -5.26186 0.208727 0
M  V30 6355 H 604.681 -3.73844 0.552195 0
M  V30 6356 H 604.994 -7.52862 1.7441 0
M  V30 6357 H 603.339 -6.77226 1.56175 0
M  V30 6358 H 606.53 -4.6177 0.767235 0
M  V30 6359 H 606.703 -6.34609 1.31053 0
M  V30 6360 N 600.109 -0.101901 -1.5727 0
M  V30 6361 C 601.019 0.868647 -2.17926 0
M  V30 6362 C 602.035 1.30527 -1.1506 0
M  V30 6363 O 603.211 1.37178 -1.47459 0
M  V30 6364 C 600.276 2.10727 -2.75309 0
M  V30 6365 C 599.337 1.7242 -3.93154 0
M  V30 6366 C 598.57 2.90377 -4.47791 0
M  V30 6367 O 598.793 4.05305 -4.01353 0
M  V30 6368 O 597.727 2.6845 -5.38719 0
M  V30 6369 H 601.553 0.382544 -3.01281 0
M  V30 6370 H 599.138 0.122812 -1.48894 0
M  V30 6371 H 601.02 2.83303 -3.11958 0
M  V30 6372 H 599.695 2.58376 -1.94996 0
M  V30 6373 H 598.602 0.970039 -3.61305 0
M  V30 6374 H 599.935 1.29528 -4.74851 0
M  V30 6375 N 601.587 1.56661 0.17182 0
M  V30 6376 C 602.52 1.91474 1.24149 0
M  V30 6377 C 603.498 0.777485 1.42807 0
M  V30 6378 O 604.682 1.03075 1.57822 0
M  V30 6379 C 601.809 2.16523 2.60453 0
M  V30 6380 C 600.855 3.39209 2.58533 0
M  V30 6381 S 601.688 4.93594 2.07665 0
M  V30 6382 C 602.844 5.21737 3.45747 0
M  V30 6383 H 603.077 2.81903 0.944346 0
M  V30 6384 H 600.61 1.49743 0.376364 0
M  V30 6385 H 602.568 2.31635 3.38903 0
M  V30 6386 H 601.229 1.26802 2.87368 0
M  V30 6387 H 600.422 3.53935 3.58812 0
M  V30 6388 H 600.024 3.2321 1.88178 0
M  V30 6389 H 602.316 5.13684 4.41741 0
M  V30 6390 H 603.259 6.23361 3.35896 0
M  V30 6391 H 603.667 4.49307 3.41736 0
M  V30 6392 N 603.065 -0.440357 1.51323 0
M  V30 6393 C 603.995 -1.54174 1.75364 0
M  V30 6394 C 604.976 -1.59039 0.603375 0
M  V30 6395 O 606.161 -1.74815 0.845774 0
M  V30 6396 C 603.291 -2.92277 1.87593 0
M  V30 6397 C 602.245 -3.02274 3.03009 0
M  V30 6398 C 601.571 -4.42327 3.00418 0
M  V30 6399 C 602.871 -2.76634 4.43024 0
M  V30 6400 H 604.565 -1.34307 2.67585 0
M  V30 6401 H 602.111 -0.644678 1.28763 0
M  V30 6402 H 604.064 -3.69284 2.02995 0
M  V30 6403 H 602.788 -3.13369 0.920179 0
M  V30 6404 H 601.447 -2.27706 2.87307 0
M  V30 6405 H 601.095 -4.60382 2.02626 0
M  V30 6406 H 600.795 -4.49946 3.77918 0
M  V30 6407 H 602.319 -5.21312 3.17909 0
M  V30 6408 H 603.733 -3.43376 4.59093 0
M  V30 6409 H 602.13 -2.95666 5.22208 0
M  V30 6410 H 603.2 -1.72262 4.5327 0
M  V30 6411 N 604.543 -1.41418 -0.695603 0
M  V30 6412 C 605.491 -1.43467 -1.83084 0
M  V30 6413 C 606.485 -0.312719 -1.66489 0
M  V30 6414 O 607.691 -0.484744 -1.7335 0
M  V30 6415 H 604.066 -0.448891 -0.603325 0
M  V30 6416 H 606.037 -2.39144 -1.78473 0
M  V30 6417 C 604.786 -1.3337 -3.21104 0
M  V30 6418 H 604.109 -2.18989 -3.3449 0
M  V30 6419 H 605.549 -1.38865 -4.00615 0
M  V30 6420 C 604.008 -0.0460484 -3.36869 0
M  V30 6421 O 604.538 0.909258 -3.91274 0
M  V30 6422 N 602.744 0.0300222 -2.90584 0
M  V30 6423 H 602.291 -0.748129 -2.46497 0
M  V30 6424 H 602.249 0.890991 -3.01511 0
M  V30 6425 N 606.021 0.929856 -1.27246 0
M  V30 6426 C 607.267 1.6798 -1.13625 0
M  V30 6427 C 607.6 1.91586 0.317589 0
M  V30 6428 O 606.875 1.50467 1.23247 0
M  V30 6429 C 607.158 3.04766 -1.91806 0
M  V30 6430 C 607.011 2.88415 -3.45162 0
M  V30 6431 C 608.33 4.05063 -1.72082 0
M  V30 6432 H 605.449 0.609632 -0.414147 0
M  V30 6433 H 608.091 1.0792 -1.56376 0
M  V30 6434 H 606.241 3.56034 -1.55474 0
M  V30 6435 H 607.913 2.44282 -3.91311 0
M  V30 6436 H 606.156 2.23802 -3.71611 0
M  V30 6437 H 606.827 3.85482 -3.95105 0
M  V30 6438 H 609.303 3.62798 -2.03757 0
M  V30 6439 H 608.179 4.98765 -2.29182 0
M  V30 6440 H 608.44 4.37021 -0.668206 0
M  V30 6441 N 607.499 1.09233 1.13605 0
M  V30 6442 C 608.727 0.848908 1.88683 0
M  V30 6443 C 609.142 -0.599667 1.79024 0
M  V30 6444 O 608.499 -1.41265 1.15544 0
M  V30 6445 C 608.55 1.27273 3.38355 0
M  V30 6446 O 608.271 2.66449 3.47759 0
M  V30 6447 C 609.772 1.0614 4.30406 0
M  V30 6448 H 606.992 0.305549 0.597395 0
M  V30 6449 H 609.536 1.4538 1.43823 0
M  V30 6450 H 607.691 0.711776 3.80805 0
M  V30 6451 H 608.105 2.84264 4.40788 0
M  V30 6452 H 609.579 1.40725 5.33761 0
M  V30 6453 H 610.056 -0.000960332 4.392 0
M  V30 6454 H 610.662 1.60821 3.93722 0
M  V30 6455 N 608.977 -1.30795 0.87923 0
M  V30 6456 C 610.226 -1.95636 0.490875 0
M  V30 6457 C 610.539 -1.70214 -0.963674 0
M  V30 6458 O 611.745 -2.28991 -1.45861 0
M  V30 6459 C 610.201 -3.50271 0.826929 0
M  V30 6460 C 609.809 -3.84521 2.29886 0
M  V30 6461 C 611.553 -4.21456 0.507494 0
M  V30 6462 C 609.46 -5.32309 2.57685 0
M  V30 6463 H 608.39 -0.732238 0.179841 0
M  V30 6464 H 611.041 -1.48829 1.07341 0
M  V30 6465 H 609.423 -3.9562 0.173542 0
M  V30 6466 H 610.597 -3.50102 2.99609 0
M  V30 6467 H 608.912 -3.26425 2.58526 0
M  V30 6468 H 611.509 -5.30199 0.692293 0
M  V30 6469 H 611.852 -4.12614 -0.552718 0
M  V30 6470 H 612.385 -3.81772 1.11782 0
M  V30 6471 H 609.124 -5.46195 3.62424 0
M  V30 6472 H 608.644 -5.68048 1.92566 0
M  V30 6473 H 610.323 -5.99678 2.42889 0
M  V30 6474 N 610.455 -0.639598 -1.44038 0
M  V30 6475 C 611.68 -0.153117 -2.06834 0
M  V30 6476 C 612.105 1.16676 -1.47541 0
M  V30 6477 O 611.463 1.71769 -0.580093 0
M  V30 6478 C 611.511 -0.0609169 -3.60549 0
M  V30 6479 O 610.615 0.98071 -4.00569 0
M  V30 6480 H 609.956 -0.0886402 -0.658057 0
M  V30 6481 H 612.486 -0.878674 -1.84771 0
M  V30 6482 H 612.496 0.126892 -4.07803 0
M  V30 6483 H 611.171 -1.0245 -4.03084 0
M  V30 6484 H 609.748 0.766789 -3.64931 0
M  V30 6485 N 611.933 1.52934 -0.380664 0
M  V30 6486 C 613.182 2.00651 0.205477 0
M  V30 6487 C 613.495 1.27164 1.48623 0
M  V30 6488 O 614.701 1.65547 2.15189 0
M  V30 6489 C 613.157 3.57479 0.416726 0
M  V30 6490 C 612.765 4.39857 -0.850268 0
M  V30 6491 C 614.509 4.13509 0.959702 0
M  V30 6492 C 612.416 5.88269 -0.607773 0
M  V30 6493 H 611.346 0.749684 0.0805614 0
M  V30 6494 H 613.997 1.76508 -0.501732 0
M  V30 6495 H 612.379 3.77836 1.18557 0
M  V30 6496 H 613.553 4.31269 -1.62307 0
M  V30 6497 H 611.868 3.95005 -1.31756 0
M  V30 6498 H 614.465 5.22039 1.15669 0
M  V30 6499 H 614.808 3.69054 1.92626 0
M  V30 6500 H 615.341 3.9701 0.250645 0
M  V30 6501 H 612.08 6.3703 -1.54509 0
M  V30 6502 H 611.6 5.99667 0.126247 0
M  V30 6503 H 613.279 6.46558 -0.239014 0
M  V30 6504 N 613.412 0.11024 1.57214 0
M  V30 6505 C 614.66 -0.548783 1.94506 0
M  V30 6506 C 614.981 -1.67772 0.99386 0
M  V30 6507 O 614.251 -1.9584 0.0485841 0
M  V30 6508 H 612.831 -0.205715 0.718116 0
M  V30 6509 H 615.493 0.177127 1.94093 0
M  V30 6510 H 614.589 -0.949096 2.97319 0
M  V30 6511 N 614.89 -1.56749 -0.16351 0
M  V30 6512 C 616.136 -1.82704 -0.880168 0
M  V30 6513 C 616.469 -0.689311 -1.81555 0
M  V30 6514 O 615.744 0.308224 -1.92042 0
M  V30 6515 C 616.027 -3.19084 -1.66905 0
M  V30 6516 C 615.88 -4.43397 -0.756269 0
M  V30 6517 C 617.199 -3.52493 -2.63509 0
M  V30 6518 H 614.318 -0.664608 -0.318535 0
M  V30 6519 H 616.96 -1.89438 -0.146036 0
M  V30 6520 H 615.11 -3.13475 -2.2949 0
M  V30 6521 H 616.782 -4.61079 -0.14269 0
M  V30 6522 H 615.025 -4.33752 -0.0647944 0
M  V30 6523 H 615.696 -5.3539 -1.34393 0
M  V30 6524 H 618.172 -3.58606 -2.11047 0
M  V30 6525 H 617.048 -4.48979 -3.15767 0
M  V30 6526 H 617.309 -2.77597 -3.44082 0
M  V30 6527 N 616.368 0.432326 -1.51554 0
M  V30 6528 C 617.593 1.20824 -1.68571 0
M  V30 6529 C 618.018 1.84126 -0.384596 0
M  V30 6530 O 617.376 1.69025 0.655751 0
M  V30 6531 C 617.424 2.26429 -2.80646 0
M  V30 6532 O 616.528 3.32032 -2.44598 0
M  V30 6533 H 615.869 0.353765 -0.561913 0
M  V30 6534 H 618.399 0.509916 -1.98144 0
M  V30 6535 H 618.409 2.71133 -3.04878 0
M  V30 6536 H 617.084 1.79733 -3.75058 0
M  V30 6537 H 615.661 2.92769 -2.30956 0
M  V30 6538 N 617.846 1.41785 0.688094 0
M  V30 6539 C 618.809 1.43936 1.78368 0
M  V30 6540 C 619.809 0.328866 1.57401 0
M  V30 6541 O 620.999 0.589093 1.63937 0
M  V30 6542 C 618.131 1.25804 3.16838 0
M  V30 6543 H 619.324 2.41472 1.77852 0
M  V30 6544 H 616.877 1.28037 0.896448 0
M  V30 6545 H 617.612 0.291386 3.22988 0
M  V30 6546 H 617.397 2.06272 3.33458 0
M  V30 6547 H 618.887 1.30162 3.96797 0
M  V30 6548 N 619.324 -0.923095 1.27737 0
M  V30 6549 C 620.552 -1.70525 1.17171 0
M  V30 6550 C 620.967 -1.86847 -0.270881 0
M  V30 6551 O 620.324 -1.38879 -1.18401 0
M  V30 6552 C 620.375 -3.10242 1.85559 0
M  V30 6553 O 620.096 -2.94683 3.24182 0
M  V30 6554 C 621.597 -4.04586 1.81176 0
M  V30 6555 H 618.817 -0.533347 0.407163 0
M  V30 6556 H 621.361 -1.15599 1.68692 0
M  V30 6557 H 619.516 -3.62014 1.3793 0
M  V30 6558 H 619.93 -3.83045 3.58297 0
M  V30 6559 H 621.404 -5.00119 2.33633 0
M  V30 6560 H 621.881 -4.3218 0.782099 0
M  V30 6561 H 622.487 -3.58741 2.2844 0
M  V30 6562 N 620.802 -1.09834 -1.13024 0
M  V30 6563 C 621.765 -0.745058 -2.16752 0
M  V30 6564 C 622.765 0.227435 -1.59183 0
M  V30 6565 O 623.955 0.0050786 -1.74199 0
M  V30 6566 C 621.087 -0.102543 -3.40746 0
M  V30 6567 H 622.28 -1.66375 -2.49518 0
M  V30 6568 H 619.833 -0.898061 -1.27924 0
M  V30 6569 H 620.568 0.827177 -3.13573 0
M  V30 6570 H 620.353 -0.80235 -3.83803 0
M  V30 6571 H 621.843 0.129082 -4.174 0
M  V30 6572 N 622.28 1.30327 -0.886154 0
M  V30 6573 C 623.528 1.9571 -0.504195 0
M  V30 6574 C 623.849 1.70294 0.950003 0
M  V30 6575 O 623.119 1.02718 1.66811 0
M  V30 6576 H 621.699 0.72412 -0.183465 0
M  V30 6577 H 624.361 1.58835 -1.12949 0
M  V30 6578 H 623.457 3.04704 -0.675431 0
M  V30 6579 N 623.758 0.647228 1.43697 0
M  V30 6580 C 624.668 -0.0487997 2.34549 0
M  V30 6581 C 625.684 -0.818586 1.53542 0
M  V30 6582 O 626.86 -0.767195 1.86215 0
M  V30 6583 C 623.925 -1.00734 3.31743 0
M  V30 6584 C 622.986 -0.23515 4.28655 0
M  V30 6585 C 622.219 -1.14803 5.21206 0
M  V30 6586 O 622.442 -2.38717 5.18045 0
M  V30 6587 O 621.376 -0.623667 5.9866 0
M  V30 6588 H 625.202 0.698863 2.9555 0
M  V30 6589 H 622.787 0.407412 1.43738 0
M  V30 6590 H 624.669 -1.55837 3.91526 0
M  V30 6591 H 623.344 -1.73534 2.73254 0
M  V30 6592 H 622.251 0.359319 3.7237 0
M  V30 6593 H 623.584 0.453152 4.9011 0
M  V30 6594 N 625.236 -1.5273 0.388769 0
M  V30 6595 C 626.484 -2.01174 -0.193208 0
M  V30 6596 C 626.805 -1.27705 -1.47365 0
M  V30 6597 O 626.075 -0.396966 -1.91836 0
M  V30 6598 H 624.655 -0.743287 -0.0743871 0
M  V30 6599 H 627.317 -1.87826 0.520336 0
M  V30 6600 H 626.413 -3.09477 -0.403803 0
M  V30 6601 N 626.714 -0.118576 -1.57153 0
M  V30 6602 C 627.991 0.583062 -1.86708 0
M  V30 6603 C 628.371 1.84841 -1.01967 0
M  V30 6604 O 627.719 2.28288 -0.0984673 0
M  V30 6605 C 627.929 0.875912 -3.3783 0
M  V30 6606 C 629.277 1.22916 -4.0642 0
M  V30 6607 O 630.301 0.966188 -3.42846 0
M  V30 6608 O 629.16 1.72269 -5.18638 0
M  V30 6609 H 626.254 0.294185 -0.772906 0
M  V30 6610 H 628.8 -0.153048 -1.69008 0
M  V30 6611 H 627.572 -0.0207776 -3.91294 0
M  V30 6612 H 627.195 1.66719 -3.60958 0
M  V30 6613 N 628.193 1.56834 0.155195 0
M  V30 6614 C 629.421 1.87049 0.884326 0
M  V30 6615 C 629.836 0.705839 1.7511 0
M  V30 6616 O 629.193 -0.324641 1.79589 0
M  V30 6617 C 629.244 3.1644 1.74781 0
M  V30 6618 O 628.965 4.28417 0.915978 0
M  V30 6619 C 630.466 3.60113 2.58522 0
M  V30 6620 H 627.686 0.620196 0.25612 0
M  V30 6621 H 630.23 2.03946 0.150445 0
M  V30 6622 H 628.385 3.01321 2.43484 0
M  V30 6623 H 628.799 5.02353 1.50803 0
M  V30 6624 H 630.273 4.53508 3.14698 0
M  V30 6625 H 630.75 2.85005 3.34169 0
M  V30 6626 H 631.356 3.77898 1.95124 0
M  V30 6627 N 629.671 -0.424282 1.51781 0
M  V30 6628 C 631.082 -1.00368 1.57427 0
M  V30 6629 C 631.433 -1.91962 0.40558 0
M  V30 6630 O 630.558 -2.111 -0.47601 0
M  V30 6631 C 631.153 -1.82707 2.85313 0
M  V30 6632 C 629.712 -2.35675 2.93487 0
M  V30 6633 C 628.859 -1.1524 2.5222 0
M  V30 6634 H 631.81 -0.205064 1.5737 0
M  V30 6635 H 631.831 -2.68294 2.69812 0
M  V30 6636 H 631.343 -1.16017 3.70353 0
M  V30 6637 H 629.444 -3.05781 2.12906 0
M  V30 6638 H 629.557 -2.67578 3.97415 0
M  V30 6639 H 627.921 -1.50174 2.05718 0
M  V30 6640 H 628.704 -0.5014 3.39619 0
M  V30 6641 N 631.149 -1.42148 -0.680565 0
M  V30 6642 C 632.059 -1.47565 -1.82378 0
M  V30 6643 C 633.075 -0.36489 -1.70131 0
M  V30 6644 O 634.251 -0.614916 -1.91783 0
M  V30 6645 C 631.316 -1.37013 -3.18478 0
M  V30 6646 C 630.377 -2.58532 -3.42724 0
M  V30 6647 C 629.61 -2.48473 -4.72331 0
M  V30 6648 O 629.833 -1.51745 -5.49845 0
M  V30 6649 O 628.767 -3.38503 -4.97694 0
M  V30 6650 H 632.593 -2.44045 -1.80764 0
M  V30 6651 H 630.178 -1.23849 -0.835569 0
M  V30 6652 H 632.06 -1.33468 -3.99705 0
M  V30 6653 H 630.735 -0.436552 -3.20743 0
M  V30 6654 H 629.642 -2.67652 -2.61368 0
M  V30 6655 H 630.975 -3.50769 -3.45286 0
M  V30 6656 N 632.627 0.916307 -1.28225 0
M  V30 6657 C 633.59 1.99996 -1.11957 0
M  V30 6658 C 634.59 1.60688 -0.0600152 0
M  V30 6659 O 635.78 1.71499 -0.30558 0
M  V30 6660 C 632.912 3.33458 -0.708411 0
M  V30 6661 H 634.105 2.15858 -2.08196 0
M  V30 6662 H 631.658 1.09863 -1.11175 0
M  V30 6663 H 632.393 3.23297 0.254859 0
M  V30 6664 H 632.178 3.63349 -1.47377 0
M  V30 6665 H 633.668 4.13014 -0.617164 0
M  V30 6666 N 634.105 1.10431 1.1244 0
M  V30 6667 C 635.035 0.775143 2.20258 0
M  V30 6668 C 636.016 -0.25186 1.68225 0
M  V30 6669 O 637.201 -0.117637 1.93843 0
M  V30 6670 C 634.331 0.206133 3.46688 0
M  V30 6671 C 633.285 1.16382 4.11873 0
M  V30 6672 C 632.611 0.456014 5.32752 0
M  V30 6673 C 633.911 2.5104 4.58013 0
M  V30 6674 H 635.605 1.67665 2.4805 0
M  V30 6675 H 633.151 0.807595 1.19222 0
M  V30 6676 H 635.104 -0.036291 4.21384 0
M  V30 6677 H 633.828 -0.730614 3.18323 0
M  V30 6678 H 632.487 1.39169 3.39157 0
M  V30 6679 H 632.135 -0.485203 5.00654 0
M  V30 6680 H 631.835 1.09466 5.77314 0
M  V30 6681 H 633.359 0.222135 6.10196 0
M  V30 6682 H 634.773 2.32401 5.24083 0
M  V30 6683 H 633.17 3.10789 5.13352 0
M  V30 6684 H 634.24 3.11039 3.71998 0
M  V30 6685 N 635.583 -1.29855 0.893053 0
M  V30 6686 C 636.513 -2.3035 0.382249 0
M  V30 6687 C 637.494 -1.61328 -0.539203 0
M  V30 6688 O 638.679 -1.88882 -0.451342 0
M  V30 6689 C 635.809 -3.45024 -0.396983 0
M  V30 6690 C 634.763 -4.258 0.433437 0
M  V30 6691 C 634.089 -5.32605 -0.472889 0
M  V30 6692 C 635.389 -4.94549 1.67984 0
M  V30 6693 H 637.083 -2.73325 1.22205 0
M  V30 6694 H 634.629 -1.314 0.589073 0
M  V30 6695 H 636.582 -4.14398 -0.765024 0
M  V30 6696 H 635.306 -3.00875 -1.2705 0
M  V30 6697 H 633.965 -3.58125 0.783723 0
M  V30 6698 H 633.613 -4.84702 -1.34435 0
M  V30 6699 H 633.313 -5.87547 0.0789958 0
M  V30 6700 H 634.837 -6.04832 -0.837269 0
M  V30 6701 H 636.251 -5.56395 1.38192 0
M  V30 6702 H 634.648 -5.59393 2.17254 0
M  V30 6703 H 635.718 -4.20215 2.41965 0
M  V30 6704 N 637.061 -0.65484 -1.43351 0
M  V30 6705 C 638.008 0.0357713 -2.30772 0
M  V30 6706 C 638.978 0.813035 -1.44841 0
M  V30 6707 O 640.163 0.789314 -1.73708 0
M  V30 6708 C 637.303 0.995084 -3.30442 0
M  V30 6709 C 636.416 0.21375 -4.31471 0
M  V30 6710 C 635.551 1.16701 -5.18222 0
M  V30 6711 C 634.59 0.376201 -6.10943 0
M  V30 6712 N 633.727 1.28113 -6.90313 0
M  V30 6713 H 638.567 -0.71559 -2.89281 0
M  V30 6714 H 636.104 -0.364645 -1.42509 0
M  V30 6715 H 638.062 1.5649 -3.86739 0
M  V30 6716 H 636.692 1.7133 -2.7358 0
M  V30 6717 H 635.744 -0.472377 -3.77456 0
M  V30 6718 H 637.056 -0.401103 -4.97185 0
M  V30 6719 H 636.21 1.8074 -5.79153 0
M  V30 6720 H 634.949 1.81577 -4.52638 0
M  V30 6721 H 633.954 -0.277534 -5.49099 0
M  V30 6722 H 635.179 -0.268178 -6.7857 0
M  V30 6723 H 633.125 1.91666 -6.27376 0
M  V30 6724 H 633.042 0.720879 -7.52555 0
M  V30 6725 H 634.31 1.90962 -7.55747 0
M  V30 6726 N 638.539 1.52521 -0.396863 0
M  V30 6727 C 639.955 1.5953 -0.0471659 0
M  V30 6728 C 640.155 1.41044 1.43906 0
M  V30 6729 O 639.211 1.23122 2.20448 0
M  V30 6730 C 640.524 2.95972 -0.531113 0
M  V30 6731 C 642.072 3.09172 -0.488024 0
M  V30 6732 C 642.547 4.48075 -0.948281 0
M  V30 6733 N 644.038 4.54281 -0.9046 0
M  V30 6734 C 644.773 5.60007 -1.23205 0
M  V30 6735 N 644.269 6.73343 -1.63036 0
M  V30 6736 N 646.062 5.50151 -1.15282 0
M  V30 6737 H 638.213 1.62786 -1.36435 0
M  V30 6738 H 640.476 0.76514 -0.559701 0
M  V30 6739 H 640.182 3.14741 -1.56942 0
M  V30 6740 H 640.056 3.77143 0.0657922 0
M  V30 6741 H 642.443 2.90095 0.541211 0
M  V30 6742 H 642.524 2.29937 -1.12083 0
M  V30 6743 H 642.168 4.67894 -1.97578 0
M  V30 6744 H 642.098 5.25788 -0.292412 0
M  V30 6745 H 644.589 3.72918 -0.6116 0
M  V30 6746 H 644.902 7.49992 -1.86365 0
M  V30 6747 H 643.247 6.74655 -1.66929 0
M  V30 6748 H 646.438 4.6049 -0.840602 0
M  V30 6749 H 646.611 6.32444 -1.41133 0
M  V30 6750 N 640.017 0.126909 1.57088 0
M  V30 6751 C 640.98 -0.806097 2.14557 0
M  V30 6752 C 641.98 -1.18918 1.08236 0
M  V30 6753 O 643.17 -1.11339 1.33975 0
M  V30 6754 C 640.302 -2.09116 2.69227 0
M  V30 6755 H 641.495 -0.306522 2.98329 0
M  V30 6756 H 639.048 -0.122393 1.5582 0
M  V30 6757 H 639.783 -2.63486 1.89065 0
M  V30 6758 H 639.568 -1.82588 3.46993 0
M  V30 6759 H 641.058 -2.75794 3.13572 0
M  V30 6760 N 641.495 -1.56914 -0.146875 0
M  V30 6761 C 642.772 -1.74273 -0.888165 0
M  V30 6762 C 643.152 -0.69496 -1.99333 0
M  V30 6763 O 642.5 0.286093 -2.26702 0
M  V30 6764 C 642.71 -3.18336 -1.43051 0
M  V30 6765 C 644.058 -3.80024 -1.89387 0
M  V30 6766 O 645.082 -3.21765 -1.52792 0
M  V30 6767 O 643.941 -4.82367 -2.56874 0
M  V30 6768 H 641.035 -0.712565 -0.419738 0
M  V30 6769 H 643.581 -1.6918 -0.132791 0
M  V30 6770 H 642.353 -3.86092 -0.636274 0
M  V30 6771 H 641.976 -3.27854 -2.24938 0
M  V30 6772 N 642.974 0.416227 -1.52004 0
M  V30 6773 C 643.884 1.53147 -1.77717 0
M  V30 6774 C 644.9 1.609 -0.662368 0
M  V30 6775 O 646.076 1.77747 -0.946991 0
M  V30 6776 C 643.141 2.88948 -1.91598 0
M  V30 6777 C 642.202 2.9114 -3.15493 0
M  V30 6778 C 641.435 4.20464 -3.28703 0
M  V30 6779 O 641.658 5.13981 -2.47345 0
M  V30 6780 O 640.592 4.29368 -4.21813 0
M  V30 6781 H 644.418 1.34357 -2.72363 0
M  V30 6782 H 642.003 0.601373 -1.36762 0
M  V30 6783 H 643.885 3.69505 -2.02593 0
M  V30 6784 H 642.56 3.07821 -1.00141 0
M  V30 6785 H 641.467 2.09461 -3.09962 0
M  V30 6786 H 642.8 2.77216 -4.06709 0
M  V30 6787 N 644.452 1.42507 0.673017 0
M  V30 6788 C 645.7 1.42789 1.43023 0
M  V30 6789 C 646.021 0.0459738 1.94946 0
M  V30 6790 O 645.291 -0.915765 1.73178 0
M  V30 6791 H 643.871 0.525657 0.530748 0
M  V30 6792 H 646.533 1.77944 0.795113 0
M  V30 6793 H 645.629 2.12872 2.28237 0
M  V30 6794 N 645.93 -0.909495 1.28709 0
M  V30 6795 C 647.176 -1.66151 1.16283 0
M  V30 6796 C 647.509 -1.92067 -0.287069 0
M  V30 6797 O 646.784 -1.52409 -1.20837 0
M  V30 6798 C 647.067 -3.01676 1.9663 0
M  V30 6799 C 646.92 -2.82888 3.49707 0
M  V30 6800 C 648.239 -4.02274 1.78504 0
M  V30 6801 H 645.358 -0.602966 0.423793 0
M  V30 6802 H 648 -1.05418 1.58073 0
M  V30 6803 H 646.15 -3.53515 1.61119 0
M  V30 6804 H 647.822 -2.38026 3.95147 0
M  V30 6805 H 646.065 -2.17862 3.75125 0
M  V30 6806 H 646.736 -3.79147 4.01187 0
M  V30 6807 H 649.212 -3.59511 2.09503 0
M  V30 6808 H 648.088 -4.95056 2.37088 0
M  V30 6809 H 648.349 -4.35903 0.737647 0
M  V30 6810 N 647.408 -1.11026 -1.11852 0
M  V30 6811 C 648.638 -0.877544 -1.87037 0
M  V30 6812 C 649.046 0.575925 -1.80221 0
M  V30 6813 O 648.389 1.40916 -1.17849 0
M  V30 6814 C 648.451 -1.25529 -3.36872 0
M  V30 6815 C 648.115 -2.71704 -3.67459 0
M  V30 6816 C 649.112 -3.69931 -3.65304 0
M  V30 6817 C 646.797 -3.08243 -3.966 0
M  V30 6818 C 648.791 -5.02717 -3.9186 0
M  V30 6819 C 646.478 -4.41215 -4.22815 0
M  V30 6820 C 647.476 -5.38262 -4.20432 0
M  V30 6821 O 647.164 -6.68839 -4.45992 0
M  V30 6822 H 646.896 -0.314374 -0.598452 0
M  V30 6823 H 649.45 -1.48015 -1.42411 0
M  V30 6824 H 647.68 -0.595808 -3.82082 0
M  V30 6825 H 649.369 -0.999064 -3.93413 0
M  V30 6826 H 650.135 -3.43047 -3.42846 0
M  V30 6827 H 646.014 -2.33326 -3.97593 0
M  V30 6828 H 649.558 -5.78456 -3.89916 0
M  V30 6829 H 645.455 -4.67835 -4.44748 0
M  V30 6830 H 646.223 -6.74563 -4.63581 0
M  V30 6831 N 648.886 1.2938 -0.899927 0
M  V30 6832 C 649.818 2.26737 -0.335139 0
M  V30 6833 C 650.831 1.54316 0.518681 0
M  V30 6834 O 652.02 1.75313 0.335803 0
M  V30 6835 C 649.12 3.34558 0.540774 0
M  V30 6836 C 648.293 4.36455 -0.287372 0
M  V30 6837 C 647.352 5.2361 0.52141 0
M  V30 6838 O 646.378 5.69167 -0.0611735 0
M  V30 6839 N 647.58 5.50985 1.82745 0
M  V30 6840 H 650.345 2.75838 -1.17191 0
M  V30 6841 H 647.906 1.42716 -0.764438 0
M  V30 6842 H 649.898 3.89794 1.08825 0
M  V30 6843 H 648.468 2.85272 1.27823 0
M  V30 6844 H 647.688 3.80875 -1.01626 0
M  V30 6845 H 648.976 5.01573 -0.854518 0
M  V30 6846 H 648.374 5.15781 2.32349 0
M  V30 6847 H 646.931 6.09036 2.32204 0
M  V30 6848 N 650.364 0.662433 1.43002 0
M  V30 6849 C 651.327 -0.0142016 2.29196 0
M  V30 6850 C 652.327 -0.741394 1.42688 0
M  V30 6851 O 653.517 -0.581257 1.64216 0
M  V30 6852 C 650.649 -1.03084 3.24941 0
M  V30 6853 H 651.842 0.7443 2.90517 0
M  V30 6854 H 649.395 0.424133 1.50435 0
M  V30 6855 H 650.13 -1.81826 2.68533 0
M  V30 6856 H 649.915 -0.512946 3.8873 0
M  V30 6857 H 651.405 -1.50308 3.89612 0
M  V30 6858 N 651.842 -1.52309 0.404946 0
M  V30 6859 C 652.789 -2.26898 -0.422597 0
M  V30 6860 C 653.759 -1.2914 -1.04461 0
M  V30 6861 O 654.944 -1.57996 -1.06967 0
M  V30 6862 C 652.084 -3.09053 -1.53559 0
M  V30 6863 C 651.197 -4.21762 -0.934908 0
M  V30 6864 C 650.332 -4.91283 -2.02025 0
M  V30 6865 C 649.371 -5.95962 -1.39628 0
M  V30 6866 N 648.508 -6.59017 -2.42159 0
M  V30 6867 H 653.348 -2.97188 0.219903 0
M  V30 6868 H 650.885 -1.46607 0.120282 0
M  V30 6869 H 652.843 -3.54987 -2.19181 0
M  V30 6870 H 651.473 -2.40942 -2.14818 0
M  V30 6871 H 650.525 -3.80029 -0.167854 0
M  V30 6872 H 651.837 -4.96864 -0.439073 0
M  V30 6873 H 650.991 -5.40601 -2.75383 0
M  V30 6874 H 649.73 -4.15741 -2.54973 0
M  V30 6875 H 648.735 -5.45968 -0.648023 0
M  V30 6876 H 649.96 -6.73445 -0.874553 0
M  V30 6877 H 647.906 -5.86306 -2.94247 0
M  V30 6878 H 647.823 -7.2978 -1.97376 0
M  V30 6879 H 649.091 -7.12974 -3.15099 0
M  V30 6880 N 653.32 -0.135238 -1.57019 0
M  V30 6881 C 654.283 0.794707 -2.14981 0
M  V30 6882 C 655.283 1.18342 -1.08866 0
M  V30 6883 O 656.473 1.10627 -1.34563 0
M  V30 6884 C 653.605 2.07685 -2.70333 0
M  V30 6885 H 654.798 0.290696 -2.98488 0
M  V30 6886 H 652.351 0.114128 -1.55883 0
M  V30 6887 H 653.086 2.6248 -1.9046 0
M  V30 6888 H 652.871 1.80745 -3.47957 0
M  V30 6889 H 654.361 2.74127 -3.1503 0
M  V30 6890 N 654.798 1.5699 0.138552 0
M  V30 6891 C 656.023 1.88344 0.86841 0
M  V30 6892 C 656.448 0.725159 1.7356 0
M  V30 6893 O 655.806 -0.324992 1.78363 0
M  V30 6894 C 655.854 3.18334 1.69398 0
M  V30 6895 O 654.958 3.02863 2.79907 0
M  V30 6896 H 654.299 0.618577 0.241367 0
M  V30 6897 H 656.829 2.04207 0.126826 0
M  V30 6898 H 656.839 3.50567 2.08726 0
M  V30 6899 H 655.514 4.02238 1.05725 0
M  V30 6900 H 654.091 2.82056 2.43924 0
M  V30 6901 N 656.276 -0.40816 1.52223 0
M  V30 6902 C 657.524 -1.15274 1.66001 0
M  V30 6903 C 657.845 -1.91003 0.392803 0
M  V30 6904 O 657.115 -1.8673 -0.592336 0
M  V30 6905 H 655.695 -0.428526 0.611861 0
M  V30 6906 H 658.357 -0.46512 1.89269 0
M  V30 6907 H 657.453 -1.86628 2.50153 0
M  V30 6908 N 657.755 -1.42862 -0.66545 0
M  V30 6909 C 659.171 -1.25993 -0.979687 0
M  V30 6910 C 659.371 -0.170831 -2.00775 0
M  V30 6911 O 658.427 0.454827 -2.4837 0
M  V30 6912 C 659.74 -2.62005 -1.47559 0
M  V30 6913 C 661.288 -2.69437 -1.59288 0
M  V30 6914 C 661.763 -4.05838 -2.12272 0
M  V30 6915 N 663.254 -4.0784 -2.19592 0
M  V30 6916 C 663.989 -5.10205 -2.61684 0
M  V30 6917 N 663.485 -6.22949 -3.03161 0
M  V30 6918 N 665.278 -4.9756 -2.61516 0
M  V30 6919 H 657.429 -2.12395 0.0150493 0
M  V30 6920 H 659.692 -0.946355 -0.0558187 0
M  V30 6921 H 659.398 -3.42605 -0.794654 0
M  V30 6922 H 659.272 -2.86566 -2.45275 0
M  V30 6923 H 661.659 -1.89178 -2.26486 0
M  V30 6924 H 661.74 -2.48655 -0.600374 0
M  V30 6925 H 661.384 -4.86559 -1.4568 0
M  V30 6926 H 661.314 -4.23977 -3.12331 0
M  V30 6927 H 663.805 -3.26452 -1.90361 0
M  V30 6928 H 664.118 -6.96899 -3.33993 0
M  V30 6929 H 662.463 -6.2644 -3.00995 0
M  V30 6930 H 665.654 -4.08551 -2.28481 0
M  V30 6931 H 665.827 -5.77468 -2.93999 0
M  V30 6932 N 659.233 0.902656 -1.29189 0
M  V30 6933 C 660.181 2.0278 -1.13943 0
M  V30 6934 C 661.175 1.69308 -0.055787 0
M  V30 6935 O 662.381 1.78707 -0.215371 0
M  V30 6936 H 658.756 0.664595 -0.351877 0
M  V30 6937 H 660.727 2.12778 -2.09208 0
M  V30 6938 C 659.476 3.37657 -0.82966 0
M  V30 6939 H 658.799 3.63913 -1.65551 0
M  V30 6940 H 660.239 4.17078 -0.762998 0
M  V30 6941 C 658.698 3.33648 0.466991 0
M  V30 6942 O 659.228 3.72886 1.49395 0
M  V30 6943 N 657.434 2.86745 0.471761 0
M  V30 6944 H 656.981 2.55009 -0.364406 0
M  V30 6945 H 656.939 2.84446 1.33933 0
M  V30 6946 N 660.711 1.11618 1.11262 0
M  V30 6947 C 661.674 0.779447 2.15539 0
M  V30 6948 C 662.674 -0.202081 1.59525 0
M  V30 6949 O 663.864 0.0226356 1.74185 0
M  V30 6950 C 660.996 0.15674 3.40539 0
M  V30 6951 H 662.189 1.70324 2.4684 0
M  V30 6952 H 659.742 0.918298 1.26479 0
M  V30 6953 H 660.477 -0.777186 3.1485 0
M  V30 6954 H 660.262 0.863308 3.82478 0
M  V30 6955 H 661.752 -0.062661 4.17553 0
M  V30 6956 N 662.189 -1.289 0.906776 0
M  V30 6957 C 663.435 -1.95558 0.53712 0
M  V30 6958 C 663.768 -1.71262 -0.915582 0
M  V30 6959 O 663.043 -1.02961 -1.65013 0
M  V30 6960 C 663.326 -3.50198 0.838645 0
M  V30 6961 C 663.179 -3.83923 2.34357 0
M  V30 6962 C 664.498 -4.38861 0.329988 0
M  V30 6963 H 661.617 -0.710289 0.196617 0
M  V30 6964 H 664.259 -1.52392 1.13475 0
M  V30 6965 H 662.409 -3.87096 0.330024 0
M  V30 6966 H 664.081 -3.56933 2.92227 0
M  V30 6967 H 662.324 -3.31215 2.80141 0
M  V30 6968 H 662.995 -4.91883 2.5051 0
M  V30 6969 H 665.471 -4.08996 0.765609 0
M  V30 6970 H 664.347 -5.45931 0.570105 0
M  V30 6971 H 664.608 -4.35352 -0.769511 0
M  V30 6972 N 663.667 -0.670007 -1.42649 0
M  V30 6973 C 664.913 -0.190568 -2.01903 0
M  V30 6974 C 665.246 1.19817 -1.52832 0
M  V30 6975 O 664.521 1.80342 -0.728485 0
M  V30 6976 C 664.804 -0.21991 -3.59428 0
M  V30 6977 C 664.657 -1.64376 -4.18689 0
M  V30 6978 C 665.976 0.434519 -4.3795 0
M  V30 6979 H 663.095 -0.0707219 -0.733599 0
M  V30 6980 H 665.737 -0.853883 -1.69732 0
M  V30 6981 H 663.887 0.344894 -3.86966 0
M  V30 6982 H 665.559 -2.26044 -4.02122 0
M  V30 6983 H 663.802 -2.18591 -3.747 0
M  V30 6984 H 664.473 -1.61601 -5.27815 0
M  V30 6985 H 666.949 -0.0462156 -4.16074 0
M  V30 6986 H 665.825 0.38333 -5.4756 0
M  V30 6987 H 666.086 1.51135 -4.15464 0
M  V30 6988 N 665.145 1.52092 -0.413018 0
M  V30 6989 C 666.393 2.01456 0.161178 0
M  V30 6990 C 666.714 1.30034 1.45314 0
M  V30 6991 O 665.984 0.427435 1.9118 0
M  V30 6992 H 664.564 0.744376 0.0625526 0
M  V30 6993 H 667.226 1.86974 -0.550151 0
M  V30 6994 H 666.322 3.1008 0.354517 0
M  V30 6995 N 666.623 0.143563 1.56945 0
M  V30 6996 C 667.57 -0.797433 2.16586 0
M  V30 6997 C 668.54 -1.24654 1.09775 0
M  V30 6998 O 669.725 -1.31968 1.37801 0
M  V30 6999 C 666.865 -2.03253 2.78895 0
M  V30 7000 C 665.978 -1.62954 4.00087 0
M  V30 7001 C 665.113 -2.81617 4.50406 0
M  V30 7002 C 664.152 -2.37675 5.64072 0
M  V30 7003 N 663.289 -3.49335 6.09023 0
M  V30 7004 H 668.129 -0.282023 2.96662 0
M  V30 7005 H 665.666 -0.127494 1.46546 0
M  V30 7006 H 667.624 -2.75653 3.13163 0
M  V30 7007 H 666.254 -2.52211 2.01469 0
M  V30 7008 H 665.306 -0.803322 3.71821 0
M  V30 7009 H 666.618 -1.26679 4.82446 0
M  V30 7010 H 665.772 -3.62212 4.86711 0
M  V30 7011 H 664.511 -3.21134 3.67048 0
M  V30 7012 H 663.516 -1.55519 5.27346 0
M  V30 7013 H 664.741 -1.99247 6.49213 0
M  V30 7014 H 662.687 -3.8848 5.28601 0
M  V30 7015 H 662.604 -3.17064 6.86299 0
M  V30 7016 H 663.872 -4.30297 6.49973 0
M  V30 7017 N 668.101 -1.57061 -0.130224 0
M  V30 7018 C 669.064 -1.98593 -1.14426 0
M  V30 7019 C 670.064 -0.874584 -1.34936 0
M  V30 7020 O 671.254 -1.14086 -1.31643 0
M  V30 7021 C 668.386 -2.31639 -2.50112 0
M  V30 7022 H 669.579 -2.89374 -0.787561 0
M  V30 7023 H 667.132 -1.51756 -0.374146 0
M  V30 7024 H 667.867 -1.43703 -2.90723 0
M  V30 7025 H 667.652 -3.12684 -2.36583 0
M  V30 7026 H 669.142 -2.64551 -3.23114 0
M  V30 7027 N 669.579 0.400081 -1.52437 0
M  V30 7028 C 670.542 1.4707 -1.75793 0
M  V30 7029 C 671.542 1.48036 -0.627856 0
M  V30 7030 O 672.732 1.49401 -0.895817 0
M  V30 7031 C 669.864 2.86427 -1.84858 0
M  V30 7032 H 671.057 1.27649 -2.71377 0
M  V30 7033 H 668.61 0.631141 -1.42991 0
M  V30 7034 H 669.345 3.11207 -0.912194 0
M  V30 7035 H 669.13 2.87128 -2.6702 0
M  V30 7036 H 670.62 3.64023 -2.04638 0
M  V30 7037 O 671.096 1.51991 0.545992 0
M  V30 7038 H 671.787 1.51962 1.20114 0
M  V30 END ATOM
M  V30 BEGIN BOND
M  V30 END BOND
M  V30 END CTAB
M  END
$$$$
