drugbank_target|Q9AFC7 Desvancosaminyl-vancomycin vancosaminetransferase (DB04529)
 OpenBabel12092120303D

  0  0  0     0  0            999 V3000
M  V30 BEGIN CTAB
M  V30 COUNTS 6023 6098 0 0 0
M  V30 BEGIN ATOM
M  V30 1 H -0.908 1.98254 -0.117106 0
M  V30 2 N 0 1.576 0 0
M  V30 3 C 0.933 2.03868 1.02534 0
M  V30 4 C 1.911 0.928543 1.3348 0
M  V30 5 O 3.095 1.19667 1.45644 0
M  V30 6 C 0.222 2.43627 2.35294 0
M  V30 7 C -0.732 3.65373 2.2001 0
M  V30 8 S 0.101 5.13292 1.52614 0
M  V30 9 C 1.257 5.56322 2.86805 0
M  V30 10 H 1.49 2.90518 0.631377 0
M  V30 11 H -0.977 1.52953 0.210867 0
M  V30 12 H 0.981 2.67203 3.11629 0
M  V30 13 H -0.358 1.57376 2.7183 0
M  V30 14 H -1.165 3.90944 3.18086 0
M  V30 15 H -1.563 3.418 1.51819 0
M  V30 16 H 0.729 5.58782 3.83104 0
M  V30 17 H 1.672 6.56266 2.65933 0
M  V30 18 H 2.08 4.83886 2.90714 0
M  V30 19 N 1.4781 -0.272755 1.55222 0
M  V30 20 C 2.8941 -0.619959 1.47067 0
M  V30 21 C 3.0941 -1.895 0.684978 0
M  V30 22 O 2.1501 -2.51675 0.203931 0
M  V30 23 C 3.4631 -0.746693 2.91282 0
M  V30 24 C 5.0111 -0.840731 3.01497 0
M  V30 25 C 5.4861 -0.99924 4.46967 0
M  V30 26 N 6.9771 -1.06476 4.50796 0
M  V30 27 C 7.7121 -1.20621 5.6057 0
M  V30 28 N 7.2081 -1.31483 6.80209 0
M  V30 29 N 9.0011 -1.23733 5.48312 0
M  V30 30 H 1.1521 0.564606 2.04758 0
M  V30 31 H 3.4151 0.191177 0.928523 0
M  V30 32 H 3.1211 0.119753 3.51496 0
M  V30 33 H 2.9951 -1.6269 3.40311 0
M  V30 34 H 5.3821 -1.69764 2.41379 0
M  V30 35 H 5.4631 0.0640874 2.5572 0
M  V30 36 H 5.1071 -0.146984 5.07687 0
M  V30 37 H 5.0371 -1.91871 4.90401 0
M  V30 38 H 7.5281 -0.993196 3.64615 0
M  V30 39 H 7.8411 -1.42111 7.59621 0
M  V30 40 H 6.1861 -1.28487 6.8302 0
M  V30 41 H 9.3771 -1.14877 4.53785 0
M  V30 42 H 9.5501 -1.34412 6.33906 0
M  V30 43 N 2.9562 -1.48159 -0.537278 0
M  V30 44 C 4.2022 -1.56035 -1.29541 0
M  V30 45 C 4.5352 -0.230377 -1.92829 0
M  V30 46 O 3.8102 0.762952 -1.78911 0
M  V30 47 C 4.0932 -2.69323 -2.39034 0
M  V30 48 C 3.9462 -4.12002 -1.80485 0
M  V30 49 C 5.2652 -2.78408 -3.40847 0
M  V30 50 H 2.3842 -0.567992 -0.469632 0
M  V30 51 H 5.0262 -1.80302 -0.599277 0
M  V30 52 H 3.1762 -2.48763 -2.98412 0
M  V30 53 H 4.8482 -4.43981 -1.25215 0
M  V30 54 H 3.0912 -4.19344 -1.11055 0
M  V30 55 H 3.7622 -4.87077 -2.59731 0
M  V30 56 H 6.2382 -2.97012 -2.91416 0
M  V30 57 H 5.1142 -3.59416 -4.14863 0
M  V30 58 H 5.3752 -1.86269 -4.00944 0
M  V30 59 N 4.4343 0.785586 -1.36625 0
M  V30 60 C 5.3643 1.91259 -1.33949 0
M  V30 61 C 6.3453 1.68795 -0.210325 0
M  V30 62 O 7.5303 1.89854 -0.408561 0
M  V30 63 C 4.6603 3.28339 -1.13186 0
M  V30 64 C 3.6143 3.65335 -2.22967 0
M  V30 65 C 2.9403 5.00806 -1.87342 0
M  V30 66 C 4.2403 3.7352 -3.65075 0
M  V30 67 H 5.9343 1.93755 -2.28253 0
M  V30 68 H 3.4803 0.930788 -1.09874 0
M  V30 69 H 5.4333 4.06804 -1.09948 0
M  V30 70 H 4.1573 3.2624 -0.153332 0
M  V30 71 H 2.8163 2.89169 -2.25337 0
M  V30 72 H 2.4643 4.95233 -0.880545 0
M  V30 73 H 2.1643 5.26529 -2.60846 0
M  V30 74 H 3.6883 5.81687 -1.85667 0
M  V30 75 H 5.1023 4.42168 -3.64911 0
M  V30 76 H 3.4993 4.10731 -4.37516 0
M  V30 77 H 4.5693 2.74527 -3.99703 0
M  V30 78 N 5.9124 1.20967 1.01018 0
M  V30 79 C 6.8424 0.988272 2.11555 0
M  V30 80 C 7.8234 -0.0849778 1.69888 0
M  V30 81 O 9.0084 0.0738202 1.9406 0
M  V30 82 C 6.1384 0.546528 3.42973 0
M  V30 83 C 5.0924 1.56375 3.9841 0
M  V30 84 C 4.4184 0.97842 5.25672 0
M  V30 85 C 5.7184 2.94922 4.31066 0
M  V30 86 H 7.4124 1.91276 2.30334 0
M  V30 87 H 4.9584 0.921073 1.1069 0
M  V30 88 H 6.9114 0.378839 4.19694 0
M  V30 89 H 5.6354 -0.413598 3.23971 0
M  V30 90 H 4.2944 1.71891 3.23804 0
M  V30 91 H 3.9424 0.0101688 5.02999 0
M  V30 92 H 3.6424 1.65784 5.63728 0
M  V30 93 H 5.1664 0.821939 6.05043 0
M  V30 94 H 6.5804 2.8288 4.9865 0
M  V30 95 H 4.9774 3.5983 4.80253 0
M  V30 96 H 6.0474 3.4616 3.39561 0
M  V30 97 N 7.3905 -1.2043 1.01659 0
M  V30 98 C 8.6155 -1.94318 0.724942 0
M  V30 99 C 9.0405 -1.74266 -0.708034 0
M  V30 100 O 8.3985 -1.03694 -1.48719 0
M  V30 101 C 8.4465 -3.44486 1.06591 0
M  V30 102 O 7.5505 -4.12017 0.177599 0
M  V30 103 H 6.8915 -0.60708 0.26898 0
M  V30 104 H 9.4215 -1.52861 1.35995 0
M  V30 105 H 9.4315 -3.95106 1.01762 0
M  V30 106 H 8.1065 -3.58404 2.10997 0
M  V30 107 H 6.6835 -3.71821 0.283421 0
M  V30 108 N 8.8686 -0.792821 -1.36206 0
M  V30 109 C 10.1146 -0.36733 -1.99446 0
M  V30 110 C 10.4476 1.05917 -1.62774 0
M  V30 111 O 9.7226 1.7324 -0.88421 0
M  V30 112 C 10.0056 -0.535044 -3.56103 0
M  V30 113 C 9.8586 -2.00548 -4.02617 0
M  V30 114 C 11.1776 0.0478191 -4.40074 0
M  V30 115 H 8.2966 -0.134941 -0.724541 0
M  V30 116 H 10.9386 -0.999794 -1.61568 0
M  V30 117 H 9.0886 0.00336329 -3.885 0
M  V30 118 H 10.7606 -2.60521 -3.80692 0
M  V30 119 H 9.0036 -2.50686 -3.54032 0
M  V30 120 H 9.6746 -2.07377 -5.11565 0
M  V30 121 H 12.1506 -0.411822 -4.14057 0
M  V30 122 H 11.0266 -0.0995336 -5.4881 0
M  V30 123 H 11.2876 1.14025 -4.27142 0
M  V30 124 N 10.3467 1.47872 -0.545128 0
M  V30 125 C 11.5867 2.04391 -0.0187854 0
M  V30 126 C 11.9507 1.41162 1.30144 0
M  V30 127 O 13.1517 1.88656 1.91474 0
M  V30 128 C 11.4227 3.57299 0.0850867 0
M  V30 129 S 12.9817 4.35221 0.559302 0
M  V30 130 H 9.7997 0.710737 -0.0193301 0
M  V30 131 H 12.4017 1.81395 -0.729125 0
M  V30 132 H 11.1057 4.00847 -0.880351 0
M  V30 133 H 10.6367 3.84773 0.819348 0
M  V30 134 H 12.6517 4.61571 1.82118 0
M  V30 135 N 11.8248 0.280983 1.55075 0
M  V30 136 C 13.0728 -0.333455 1.9933 0
M  V30 137 C 13.3938 -1.55937 1.17085 0
M  V30 138 O 12.6638 -1.94143 0.261805 0
M  V30 139 H 11.2438 -0.126197 0.736263 0
M  V30 140 H 13.9058 0.387678 1.91005 0
M  V30 141 H 13.0018 -0.619292 3.05894 0
M  V30 142 N 13.3029 -1.57598 0.00835791 0
M  V30 143 C 14.5309 -1.95214 -0.68549 0
M  V30 144 C 14.9459 -0.883706 -1.66841 0
M  V30 145 O 14.3029 0.136565 -1.81988 0
M  V30 146 C 14.3539 -3.32865 -1.41007 0
M  V30 147 O 14.0749 -4.35609 -0.466552 0
M  V30 148 C 15.5759 -3.84991 -2.19765 0
M  V30 149 H 12.7959 -0.643422 -0.190392 0
M  V30 150 H 15.3399 -2.04406 0.0619607 0
M  V30 151 H 13.4949 -3.24956 -2.10908 0
M  V30 152 H 13.9089 -5.15288 -0.978699 0
M  V30 153 H 15.3829 -4.8371 -2.65948 0
M  V30 154 H 15.8599 -3.18137 -3.02796 0
M  V30 155 H 16.4659 -3.96103 -1.54864 0
M  V30 156 N 14.781 0.264519 -1.55364 0
M  V30 157 C 16.197 0.61215 -1.47394 0
M  V30 158 C 16.397 1.89134 -0.695018 0
M  V30 159 O 15.453 2.51563 -0.217275 0
M  V30 160 C 16.766 0.731235 -2.91674 0
M  V30 161 C 18.314 0.82473 -3.01939 0
M  V30 162 C 18.789 0.975522 -4.4749 0
M  V30 163 N 20.28 1.04083 -4.51354 0
M  V30 164 C 21.015 1.17646 -5.61201 0
M  V30 165 N 20.511 1.27874 -6.80896 0
M  V30 166 N 22.304 1.20823 -5.48961 0
M  V30 167 H 14.455 -0.575456 -2.04456 0
M  V30 168 H 16.718 -0.196099 -0.927496 0
M  V30 169 H 16.424 -0.138392 -3.51428 0
M  V30 170 H 16.298 1.60883 -3.41169 0
M  V30 171 H 18.685 1.68482 -2.42276 0
M  V30 172 H 18.766 -0.0776479 -2.55682 0
M  V30 173 H 18.41 0.120058 -5.07758 0
M  V30 174 H 18.34 1.89268 -4.91412 0
M  V30 175 H 20.831 0.973846 -3.65136 0
M  V30 176 H 21.144 1.38081 -7.60364 0
M  V30 177 H 19.489 1.24863 -6.83692 0
M  V30 178 H 22.68 1.12469 -4.54388 0
M  V30 179 H 22.853 1.31049 -6.3461 0
M  V30 180 N 16.2591 1.48442 0.529413 0
M  V30 181 C 17.5071 1.56179 1.28267 0
M  V30 182 C 17.8281 0.237721 1.93546 0
M  V30 183 O 17.0981 -0.740779 1.81354 0
M  V30 184 H 15.6781 0.575367 0.476405 0
M  V30 185 H 18.3401 1.84909 0.61602 0
M  V30 186 H 17.4361 2.34312 2.06165 0
M  V30 187 N 17.7372 -0.778329 1.37039 0
M  V30 188 C 19.0142 -1.52551 1.22424 0
M  V30 189 C 19.3942 -2.10288 -0.184964 0
M  V30 190 O 18.7422 -1.94953 -1.19187 0
M  V30 191 C 18.9522 -2.61164 2.31504 0
M  V30 192 C 20.3002 -3.28746 2.68721 0
M  V30 193 O 21.3242 -2.71455 2.30631 0
M  V30 194 O 20.1832 -4.3231 3.3432 0
M  V30 195 H 17.2772 -0.675343 0.477326 0
M  V30 196 H 19.8232 -0.815859 1.48801 0
M  V30 197 H 18.5952 -2.16574 3.25901 0
M  V30 198 H 18.2182 -3.39737 2.06554 0
M  V30 199 N 19.2153 -1.21501 -1.00376 0
M  V30 200 C 20.4613 -1.03452 -1.74429 0
M  V30 201 C 20.7943 0.430764 -1.89362 0
M  V30 202 O 20.0693 1.31962 -1.42886 0
M  V30 203 C 20.3523 -1.73375 -3.15615 0
M  V30 204 C 20.2053 -3.27431 -3.08397 0
M  V30 205 C 21.5243 -1.47732 -4.14564 0
M  V30 206 H 18.6433 -0.377226 -0.633143 0
M  V30 207 H 21.2853 -1.49693 -1.17013 0
M  V30 208 H 19.4353 -1.34064 -3.64636 0
M  V30 209 H 21.1073 -3.76119 -2.67081 0
M  V30 210 H 19.3503 -3.5767 -2.45468 0
M  V30 211 H 20.0213 -3.71524 -4.08258 0
M  V30 212 H 22.4973 -1.8186 -3.74254 0
M  V30 213 H 21.3733 -1.99169 -5.11491 0
M  V30 214 H 21.6343 -0.407589 -4.40217 0
M  V30 215 N 20.6934 1.19889 -1.02296 0
M  V30 216 C 21.6034 2.26571 -0.608508 0
M  V30 217 C 22.6194 1.70299 0.356964 0
M  V30 218 O 23.7954 2.00235 0.216326 0
M  V30 219 C 20.8604 3.46677 0.0402814 0
M  V30 220 C 19.9214 4.18153 -0.97194 0
M  V30 221 C 19.1544 5.32525 -0.354016 0
M  V30 222 O 19.3774 5.64112 0.844604 0
M  V30 223 O 18.3114 5.92242 -1.07391 0
M  V30 224 H 22.1374 2.64251 -1.49684 0
M  V30 225 H 19.7224 1.26629 -0.792809 0
M  V30 226 H 21.6044 4.19475 0.402324 0
M  V30 227 H 20.2794 3.10858 0.902707 0
M  V30 228 H 19.1864 3.47499 -1.38546 0
M  V30 229 H 20.5194 4.57927 -1.80454 0
M  V30 230 N 22.1715 0.800033 1.35784 0
M  V30 231 C 23.4205 0.37387 1.98205 0
M  V30 232 C 23.7335 -1.06302 1.64193 0
M  V30 233 O 24.9395 -1.59198 2.19928 0
M  V30 234 C 23.3955 0.617532 3.54562 0
M  V30 235 C 23.0035 2.06654 3.9749 0
M  V30 236 C 24.7475 0.256401 4.23725 0
M  V30 237 C 22.6545 2.2563 5.46667 0
M  V30 238 H 21.5845 0.136055 0.741623 0
M  V30 239 H 24.2355 0.983166 1.54939 0
M  V30 240 H 22.6175 -0.0616248 3.95952 0
M  V30 241 H 23.7915 2.78296 3.67271 0
M  V30 242 H 22.1065 2.38691 3.41197 0
M  V30 243 H 24.7035 0.376318 5.33374 0
M  V30 244 H 25.0465 -0.796692 4.08606 0
M  V30 245 H 25.5795 0.889214 3.87734 0
M  V30 246 H 22.3185 3.2936 5.66747 0
M  V30 247 H 21.8385 1.58504 5.78478 0
M  V30 248 H 23.5175 2.06861 6.1304 0
M  V30 249 N 23.6496 -1.47581 0.552962 0
M  V30 250 C 24.8976 -2.02082 0.0272703 0
M  V30 251 C 25.2186 -1.4301 -1.32563 0
M  V30 252 O 24.4886 -0.603745 -1.86365 0
M  V30 253 H 23.0686 -0.746966 0.00709182 0
M  V30 254 H 25.7306 -1.81033 0.722008 0
M  V30 255 H 24.8266 -3.12034 -0.0639951 0
M  V30 256 N 25.1277 -0.289203 -1.54924 0
M  V30 257 C 26.3737 0.323998 -2.00195 0
M  V30 258 C 26.7067 1.54441 -1.17735 0
M  V30 259 O 25.9817 1.92875 -0.250878 0
M  V30 260 C 26.2647 0.692276 -3.53383 0
M  V30 261 C 26.1177 -0.536457 -4.46589 0
M  V30 262 C 27.4367 1.52335 -4.12895 0
M  V30 263 H 24.5557 0.116289 -0.727768 0
M  V30 264 H 27.1977 -0.398954 -1.85764 0
M  V30 265 H 25.3477 1.30822 -3.65811 0
M  V30 266 H 27.0197 -1.17499 -4.46085 0
M  V30 267 H 25.2627 -1.17192 -4.1767 0
M  V30 268 H 25.9337 -0.234806 -5.515 0
M  V30 269 H 28.4097 1.00302 -4.0383 0
M  V30 270 H 27.2857 1.74982 -5.20262 0
M  V30 271 H 27.5467 2.50886 -3.64018 0
M  V30 272 N 26.6058 1.57591 -0.0167156 0
M  V30 273 C 27.5688 2.08393 0.954204 0
M  V30 274 C 28.5688 0.996531 1.26198 0
M  V30 275 O 29.7588 1.25858 1.20438 0
M  V30 276 C 26.8908 2.5394 2.27436 0
M  V30 277 H 28.0838 2.95455 0.514451 0
M  V30 278 H 25.6368 1.54582 0.231089 0
M  V30 279 H 26.3718 1.70171 2.76066 0
M  V30 280 H 26.1568 3.33371 2.06412 0
M  V30 281 H 27.6468 2.93512 2.97053 0
M  V30 282 N 28.0839 -0.256276 1.55502 0
M  V30 283 C 29.0139 -1.32102 1.92539 0
M  V30 284 C 29.9949 -1.50684 0.789194 0
M  V30 285 O 31.1799 -1.63449 1.04872 0
M  V30 286 C 28.3099 -2.67752 2.21192 0
M  V30 287 C 27.2639 -2.63878 3.36975 0
M  V30 288 C 26.5899 -4.03236 3.51147 0
M  V30 289 C 27.8899 -2.21682 4.72921 0
M  V30 290 H 29.5839 -1.01351 2.81724 0
M  V30 291 H 27.1299 -0.486105 1.35547 0
M  V30 292 H 29.0829 -3.42365 2.45691 0
M  V30 293 H 27.8069 -3.0012 1.28824 0
M  V30 294 H 26.4659 -1.91722 3.12471 0
M  V30 295 H 26.1139 -4.32854 2.56216 0
M  V30 296 H 25.8139 -4.01535 4.29003 0
M  V30 297 H 27.3379 -4.79563 3.77957 0
M  V30 298 H 28.7519 -2.86023 4.96854 0
M  V30 299 H 27.1489 -2.3111 5.53812 0
M  V30 300 H 28.2189 -1.16833 4.70615 0
M  V30 301 N 29.562 -1.4872 -0.521534 0
M  V30 302 C 30.525 -1.63379 -1.60748 0
M  V30 303 C 31.525 -0.50661 -1.52611 0
M  V30 304 O 32.715 -0.772601 -1.5613 0
M  V30 305 C 29.847 -1.61192 -3.00383 0
M  V30 306 H 31.04 -2.60217 -1.49087 0
M  V30 307 H 28.593 -1.37444 -0.744235 0
M  V30 308 H 29.328 -0.65863 -3.17541 0
M  V30 309 H 29.113 -2.43032 -3.07698 0
M  V30 310 H 30.603 -1.7466 -3.7932 0
M  V30 311 N 31.0401 0.771051 -1.3745 0
M  V30 312 C 32.3171 1.519 -1.23231 0
M  V30 313 C 32.6971 2.10383 0.173809 0
M  V30 314 O 32.0451 1.95583 1.18151 0
M  V30 315 C 32.2551 2.59933 -2.32886 0
M  V30 316 C 33.6031 3.27316 -2.70461 0
M  V30 317 O 34.6271 2.70228 -2.32068 0
M  V30 318 O 33.4861 4.30531 -3.36608 0
M  V30 319 H 30.5801 0.672803 -0.480901 0
M  V30 320 H 33.1261 0.807957 -1.49232 0
M  V30 321 H 31.8981 2.14842 -3.27045 0
M  V30 322 H 31.5211 3.38637 -2.08353 0
M  V30 323 N 32.5182 1.22032 0.997298 0
M  V30 324 C 33.9342 0.979326 1.26021 0
M  V30 325 C 34.1342 -0.32972 1.98784 0
M  V30 326 O 33.1902 -1.05345 2.29475 0
M  V30 327 C 34.5032 2.17509 2.07631 0
M  V30 328 C 36.0512 2.21817 2.2083 0
M  V30 329 C 36.5262 3.40933 3.05825 0
M  V30 330 N 38.0172 3.41067 3.13412 0
M  V30 331 C 38.7522 4.29885 3.79455 0
M  V30 332 N 38.2482 5.28914 4.47462 0
M  V30 333 N 40.0412 4.17673 3.76173 0
M  V30 334 H 32.1922 2.06202 0.509352 0
M  V30 335 H 34.4552 0.90334 0.287541 0
M  V30 336 H 34.1612 3.12415 1.61524 0
M  V30 337 H 34.0352 2.17206 3.08385 0
M  V30 338 H 36.4222 1.27462 2.66153 0
M  V30 339 H 36.5032 2.2616 1.1952 0
M  V30 340 H 36.1472 4.35586 2.61203 0
M  V30 341 H 36.0772 3.33829 4.07266 0
M  V30 342 H 38.5682 2.69406 2.65007 0
M  V30 343 H 38.8812 5.92973 4.95583 0
M  V30 344 H 37.2262 5.32831 4.46224 0
M  V30 345 H 40.4172 3.39564 3.22202 0
M  V30 346 H 40.5902 4.87098 4.27363 0
M  V30 347 N 33.9963 -1.19345 1.0293 0
M  V30 348 C 34.9263 -2.2481 0.631105 0
M  V30 349 C 35.9073 -1.66245 -0.360104 0
M  V30 350 O 37.0923 -1.92677 -0.242726 0
M  V30 351 C 34.2223 -3.47295 -0.0184607 0
M  V30 352 C 33.1763 -4.18536 0.895073 0
M  V30 353 C 32.5023 -5.34586 0.110592 0
M  V30 354 C 33.8023 -4.73287 2.209 0
M  V30 355 H 35.4963 -2.58372 1.51275 0
M  V30 356 H 33.0423 -1.24194 0.728818 0
M  V30 357 H 34.9953 -4.20268 -0.308675 0
M  V30 358 H 33.7193 -3.12933 -0.934907 0
M  V30 359 H 32.3783 -3.47446 1.16949 0
M  V30 360 H 32.0263 -4.96469 -0.807902 0
M  V30 361 H 31.7263 -5.83183 0.719087 0
M  V30 362 H 33.2503 -6.10355 -0.172871 0
M  V30 363 H 34.6643 -5.38013 1.98028 0
M  V30 364 H 33.0613 -5.32373 2.76946 0
M  V30 365 H 34.1313 -3.91331 2.86336 0
M  V30 366 N 35.4744 -0.807222 -1.35358 0
M  V30 367 C 36.4214 -0.216037 -2.29787 0
M  V30 368 C 37.3914 0.650278 -1.52842 0
M  V30 369 O 38.5764 0.595227 -1.81278 0
M  V30 370 C 35.7164 0.628893 -3.39321 0
M  V30 371 C 34.8294 -0.257927 -4.31229 0
M  V30 372 C 33.9644 0.595069 -5.27856 0
M  V30 373 C 33.0034 -0.292111 -6.11403 0
M  V30 374 N 32.1404 0.520895 -7.00165 0
M  V30 375 H 36.9804 -1.02671 -2.79755 0
M  V30 376 H 34.5174 -0.517839 -1.37684 0
M  V30 377 H 36.4754 1.13393 -4.01494 0
M  V30 378 H 35.1054 1.40482 -2.90628 0
M  V30 379 H 34.1574 -0.881076 -3.70056 0
M  V30 380 H 35.4694 -0.940759 -4.89848 0
M  V30 381 H 34.6234 1.16522 -5.95405 0
M  V30 382 H 33.3624 1.31146 -4.69736 0
M  V30 383 H 32.3674 -0.874525 -5.428 0
M  V30 384 H 33.5924 -1.00638 -6.71602 0
M  V30 385 H 31.5384 1.22125 -6.44532 0
M  V30 386 H 31.4554 -0.103877 -7.55929 0
M  V30 387 H 32.7234 1.0743 -7.72062 0
M  V30 388 N 36.9525 1.47285 -0.560781 0
M  V30 389 C 37.9155 2.28535 0.174488 0
M  V30 390 C 38.9155 1.37153 0.839388 0
M  V30 391 O 40.1055 1.59748 0.694702 0
M  V30 392 C 37.2375 3.16934 1.25561 0
M  V30 393 H 38.4305 2.95012 -0.539262 0
M  V30 394 H 35.9835 1.53034 -0.317865 0
M  V30 395 H 36.7185 2.55157 2.00164 0
M  V30 396 H 36.5035 3.8419 0.783604 0
M  V30 397 H 37.9935 3.78143 1.77193 0
M  V30 398 N 38.4306 0.297415 1.54768 0
M  V30 399 C 39.3606 -0.573494 2.26348 0
M  V30 400 C 40.3416 -1.14085 1.26169 0
M  V30 401 O 41.5266 -1.17086 1.54934 0
M  V30 402 C 38.6566 -1.74716 3.00153 0
M  V30 403 C 37.6106 -1.31032 4.07449 0
M  V30 404 C 36.9366 -2.56887 4.68949 0
M  V30 405 C 38.2366 -0.444183 5.20408 0
M  V30 406 H 39.9306 0.0235131 2.99391 0
M  V30 407 H 37.4766 0.0127488 1.43994 0
M  V30 408 H 39.4296 -2.3625 3.48947 0
M  V30 409 H 38.1536 -2.37035 2.24682 0
M  V30 410 H 36.8126 -0.718066 3.59499 0
M  V30 411 H 36.4606 -3.17512 3.90122 0
M  V30 412 H 36.1606 -2.2836 5.41411 0
M  V30 413 H 37.6846 -3.19229 5.20505 0
M  V30 414 H 39.0986 -0.9651 5.65118 0
M  V30 415 H 37.4956 -0.252846 5.99567 0
M  V30 416 H 38.5656 0.531609 4.81977 0
M  V30 417 N 39.9087 -1.5758 0.0250728 0
M  V30 418 C 41.1567 -1.91255 -0.653151 0
M  V30 419 C 41.4777 -0.901691 -1.729 0
M  V30 420 O 40.7477 0.0573785 -1.95816 0
M  V30 421 H 39.3277 -0.705942 -0.244243 0
M  V30 422 H 41.9897 -1.94767 0.0719209 0
M  V30 423 H 41.0857 -2.91752 -1.10847 0
M  V30 424 N 41.3868 0.248026 -1.55636 0
M  V30 425 C 42.6328 0.97767 -1.77678 0
M  V30 426 C 42.9658 1.85016 -0.590135 0
M  V30 427 O 42.2408 1.90095 0.411611 0
M  V30 428 C 42.5238 1.83914 -3.09593 0
M  V30 429 C 42.3768 0.99491 -4.38659 0
M  V30 430 C 43.6958 2.82183 -3.37729 0
M  V30 431 H 40.8148 0.354005 -0.646413 0
M  V30 432 H 43.4568 0.248253 -1.88371 0
M  V30 433 H 41.6068 2.46104 -3.00608 0
M  V30 434 H 43.2788 0.391789 -4.59633 0
M  V30 435 H 41.5218 0.299231 -4.32767 0
M  V30 436 H 42.1928 1.63145 -5.2734 0
M  V30 437 H 44.6688 2.30129 -3.4667 0
M  V30 438 H 43.5448 3.39582 -4.31249 0
M  V30 439 H 43.8058 3.58588 -2.58586 0
M  V30 440 N 42.8649 1.48995 0.513639 0
M  V30 441 C 43.7969 1.60836 1.63293 0
M  V30 442 C 44.8099 0.491701 1.55197 0
M  V30 443 O 45.9989 0.763238 1.6136 0
M  V30 444 C 43.0989 1.53731 3.02027 0
M  V30 445 C 42.2719 2.80715 3.35437 0
M  V30 446 C 41.3309 2.66837 4.53525 0
M  V30 447 O 40.3569 3.40753 4.55934 0
M  V30 448 N 41.5589 1.77539 5.52684 0
M  V30 449 H 44.3239 2.57366 1.53566 0
M  V30 450 H 41.8849 1.45925 0.701259 0
M  V30 451 H 43.8769 1.42118 3.78926 0
M  V30 452 H 42.4469 0.651092 3.05744 0
M  V30 453 H 41.6669 3.06772 2.47557 0
M  V30 454 H 42.9549 3.64927 3.54551 0
M  V30 455 H 42.3529 1.16719 5.53528 0
M  V30 456 H 40.9099 1.71856 6.28736 0
M  V30 457 N 44.343 -0.763751 1.37857 0
M  V30 458 C 45.571 -1.55293 1.36718 0
M  V30 459 C 45.986 -1.88745 -0.0455434 0
M  V30 460 O 45.343 -1.52039 -1.00947 0
M  V30 461 C 45.394 -2.85831 2.2132 0
M  V30 462 O 45.115 -2.5381 3.57089 0
M  V30 463 C 46.616 -3.80023 2.28249 0
M  V30 464 H 43.836 -0.480841 0.468009 0
M  V30 465 H 46.38 -0.946009 1.81303 0
M  V30 466 H 44.535 -3.42926 1.80223 0
M  V30 467 H 44.949 -3.37459 4.01524 0
M  V30 468 H 46.423 -4.68599 2.91752 0
M  V30 469 H 46.9 -4.1973 1.2932 0
M  V30 470 H 47.506 -3.28855 2.69693 0
M  V30 471 N 45.8211 -1.22559 -0.990812 0
M  V30 472 C 47.2371 -0.985996 -1.255 0
M  V30 473 C 47.4371 0.319173 -1.98956 0
M  V30 474 O 46.4931 1.04127 -2.3003 0
M  V30 475 C 47.8061 -2.18607 -2.06474 0
M  V30 476 C 49.3541 -2.22985 -2.19651 0
M  V30 477 C 49.8291 -3.4255 -3.04012 0
M  V30 478 N 51.3201 -3.42725 -3.11599 0
M  V30 479 C 52.0551 -4.31892 -3.7717 0
M  V30 480 N 51.5511 -5.31279 -4.44651 0
M  V30 481 N 53.3441 -4.19662 -3.73952 0
M  V30 482 H 45.4951 -2.06469 -0.49841 0
M  V30 483 H 47.7581 -0.904853 -0.282747 0
M  V30 484 H 47.4641 -3.13267 -1.59865 0
M  V30 485 H 47.3381 -2.18838 -3.07229 0
M  V30 486 H 49.7251 -1.28871 -2.65474 0
M  V30 487 H 49.8061 -2.26791 -1.18319 0
M  V30 488 H 49.4501 -4.36965 -2.58889 0
M  V30 489 H 49.3801 -3.35984 -4.0549 0
M  V30 490 H 51.8711 -2.70807 -2.63575 0
M  V30 491 H 52.1841 -5.95593 -4.92431 0
M  V30 492 H 50.5291 -5.3519 -4.43392 0
M  V30 493 H 53.7201 -3.41268 -3.20396 0
M  V30 494 H 53.8931 -4.89358 -4.24774 0
M  V30 495 N 47.2992 1.18797 -1.03562 0
M  V30 496 C 48.2322 2.2105 -0.56676 0
M  V30 497 C 49.2102 1.57704 0.395993 0
M  V30 498 O 50.3942 1.85908 0.311498 0
M  V30 499 C 47.5212 3.38259 0.172704 0
M  V30 500 C 46.5672 4.19987 -0.74252 0
M  V30 501 S 47.4002 4.87199 -2.22254 0
M  V30 502 C 48.5562 6.07813 -1.49379 0
M  V30 503 H 48.7892 2.60478 -1.43312 0
M  V30 504 H 46.3222 1.29151 -0.846133 0
M  V30 505 H 48.2802 4.06191 0.593191 0
M  V30 506 H 46.9412 2.97252 1.01488 0
M  V30 507 H 46.1342 5.03709 -0.171265 0
M  V30 508 H 45.7362 3.57408 -1.10163 0
M  V30 509 H 48.0282 6.72948 -0.784056 0
M  V30 510 H 48.9712 6.69435 -2.30786 0
M  V30 511 H 49.3792 5.55781 -0.988331 0
M  V30 512 N 48.7773 0.814389 1.34928 0
M  V30 513 C 50.0173 0.404165 2.00364 0
M  V30 514 C 50.3813 -1.01166 1.63185 0
M  V30 515 O 51.5823 -1.52431 2.21401 0
M  V30 516 C 49.8533 0.590718 3.52484 0
M  V30 517 S 51.4123 0.272075 4.37956 0
M  V30 518 H 48.2303 0.15311 0.694319 0
M  V30 519 H 50.8323 1.05834 1.64376 0
M  V30 520 H 49.5363 1.62099 3.77031 0
M  V30 521 H 49.0673 -0.0785013 3.93322 0
M  V30 522 H 51.0823 -0.917405 4.87645 0
M  V30 523 N 50.2554 -1.46986 0.568584 0
M  V30 524 C 51.2184 -2.28624 -0.162366 0
M  V30 525 C 52.2184 -1.37596 -0.832103 0
M  V30 526 O 53.4084 -1.60115 -0.68622 0
M  V30 527 C 50.5404 -3.17596 -1.23878 0
M  V30 528 H 51.7334 -2.94722 0.554899 0
M  V30 529 H 49.2864 -1.52863 0.325976 0
M  V30 530 H 50.0214 -2.56214 -1.98808 0
M  V30 531 H 49.8064 -3.846 -0.763219 0
M  V30 532 H 51.2964 -3.79078 -1.75185 0
M  V30 533 N 51.7335 -0.305618 -1.54608 0
M  V30 534 C 53.1445 0.186098 -1.8577 0
M  V30 535 C 53.4955 1.53058 -1.22751 0
M  V30 536 O 52.6205 2.09888 -0.526893 0
M  V30 537 C 53.2155 0.344449 -3.37044 0
M  V30 538 C 51.7745 0.780384 -3.68221 0
M  V30 539 C 50.9215 -0.108554 -2.77087 0
M  V30 540 H 53.8725 -0.526485 -1.49712 0
M  V30 541 H 53.8935 1.17828 -3.61796 0
M  V30 542 H 53.4055 -0.634235 -3.82883 0
M  V30 543 H 51.5065 1.76945 -3.27904 0
M  V30 544 H 51.6195 0.596572 -4.75371 0
M  V30 545 H 49.9835 0.412931 -2.5133 0
M  V30 546 H 50.7665 -1.08368 -3.25747 0
M  V30 547 N 53.2116 1.57565 -0.0334293 0
M  V30 548 C 54.6226 1.79746 0.504798 0
M  V30 549 C 54.9736 0.944091 1.71992 0
M  V30 550 O 54.0986 0.155694 2.15839 0
M  V30 551 C 54.6936 3.25997 0.922567 0
M  V30 552 C 53.2526 3.49159 1.40588 0
M  V30 553 C 52.3996 2.74785 0.372633 0
M  V30 554 H 55.3506 1.56565 -0.259436 0
M  V30 555 H 55.3716 3.35945 1.78666 0
M  V30 556 H 54.8836 3.88081 0.0379825 0
M  V30 557 H 52.9846 2.92332 2.31025 0
M  V30 558 H 53.0976 4.57873 1.41028 0
M  V30 559 H 51.4616 2.40391 0.841672 0
M  V30 560 H 52.2446 3.39587 -0.503559 0
M  V30 561 N 54.6897 -0.239769 1.55765 0
M  V30 562 C 55.6527 -1.28038 1.90103 0
M  V30 563 C 56.6527 -1.40723 0.778055 0
M  V30 564 O 57.8427 -1.39301 1.04599 0
M  V30 565 C 54.9747 -2.65702 2.13577 0
M  V30 566 H 56.1677 -0.988048 2.83157 0
M  V30 567 H 53.7207 -0.479382 1.48767 0
M  V30 568 H 54.4557 -3.00063 1.23015 0
M  V30 569 H 54.2407 -2.57875 2.95369 0
M  V30 570 H 55.7307 -3.40828 2.41301 0
M  V30 571 N 56.1678 -1.49265 -0.50573 0
M  V30 572 C 57.1308 -1.65075 -1.59006 0
M  V30 573 C 58.1308 -0.522768 -1.52065 0
M  V30 574 O 59.3208 -0.789117 -1.55302 0
M  V30 575 C 56.4528 -1.64369 -2.98656 0
M  V30 576 H 57.6458 -2.61784 -1.46319 0
M  V30 577 H 55.1988 -1.38226 -0.729616 0
M  V30 578 H 55.9338 -0.692272 -3.16825 0
M  V30 579 H 55.7188 -2.46282 -3.05103 0
M  V30 580 H 57.2088 -1.78674 -3.77446 0
M  V30 581 N 57.6459 0.756429 -1.3826 0
M  V30 582 C 58.5559 1.9009 -1.37488 0
M  V30 583 C 59.5719 1.71855 -0.272366 0
M  V30 584 O 60.7479 1.94827 -0.510318 0
M  V30 585 C 57.8129 3.25421 -1.19592 0
M  V30 586 C 56.8739 3.56202 -2.39622 0
M  V30 587 C 56.1069 4.85075 -2.2257 0
M  V30 588 O 56.3299 5.57246 -1.21793 0
M  V30 589 O 55.2639 5.15269 -3.11098 0
M  V30 590 H 59.0899 1.93695 -2.33914 0
M  V30 591 H 56.6749 0.901313 -1.1915 0
M  V30 592 H 58.5569 4.06337 -1.11661 0
M  V30 593 H 57.2319 3.22634 -0.262486 0
M  V30 594 H 56.1389 2.75458 -2.53128 0
M  V30 595 H 57.4719 3.63747 -3.31586 0
M  V30 596 N 59.124 1.23083 0.984299 0
M  V30 597 C 60.034 1.02515 2.11016 0
M  V30 598 C 61.05 -0.0291702 1.73976 0
M  V30 599 O 62.226 0.165434 2.00719 0
M  V30 600 C 59.291 0.614673 3.41208 0
M  V30 601 C 58.352 1.74359 3.92297 0
M  V30 602 C 57.585 1.35261 5.16275 0
M  V30 603 O 57.808 0.235136 5.69915 0
M  V30 604 O 56.742 2.17227 5.61334 0
M  V30 605 H 60.568 1.96862 2.31255 0
M  V30 606 H 58.153 1.01753 1.09392 0
M  V30 607 H 60.035 0.396518 4.1953 0
M  V30 608 H 58.71 -0.299851 3.22308 0
M  V30 609 H 57.617 2.01635 3.1511 0
M  V30 610 H 58.95 2.63629 4.15645 0
M  V30 611 N 60.6021 -1.18246 1.0419 0
M  V30 612 C 62.0181 -1.40269 0.761366 0
M  V30 613 C 62.2181 -1.90777 -0.648578 0
M  V30 614 O 61.2741 -2.0929 -1.41258 0
M  V30 615 C 62.5871 -2.40237 1.8085 0
M  V30 616 C 64.1351 -2.53961 1.82955 0
M  V30 617 C 64.6101 -3.57194 2.86664 0
M  V30 618 N 66.1011 -3.64702 2.85563 0
M  V30 619 C 66.8361 -4.44309 3.6246 0
M  V30 620 N 66.3321 -5.27514 4.49111 0
M  V30 621 N 68.1251 -4.39084 3.50944 0
M  V30 622 H 60.2761 -0.837882 1.95175 0
M  V30 623 H 62.5391 -0.430608 0.84456 0
M  V30 624 H 62.2451 -2.10176 2.81991 0
M  V30 625 H 62.1191 -3.39601 1.64168 0
M  V30 626 H 64.5061 -2.83338 0.824855 0
M  V30 627 H 64.5871 -1.54706 2.03715 0
M  V30 628 H 64.2311 -3.28558 3.87314 0
M  V30 629 H 64.1611 -4.5613 2.6316 0
M  V30 630 H 66.6521 -3.05289 2.22727 0
M  V30 631 H 66.9651 -5.85411 5.04493 0
M  V30 632 H 65.3101 -5.2693 4.53178 0
M  V30 633 H 68.5011 -3.7313 2.82651 0
M  V30 634 H 68.6741 -5.00883 4.11121 0
M  V30 635 N 62.0802 -0.821533 -1.34494 0
M  V30 636 C 63.0102 -0.257138 -2.3208 0
M  V30 637 C 63.9912 0.625645 -1.58176 0
M  V30 638 O 65.1762 0.552811 -1.86166 0
M  V30 639 C 62.3062 0.582958 -3.42372 0
M  V30 640 C 61.2602 -0.202571 -4.2752 0
M  V30 641 C 60.5862 0.760179 -5.29269 0
M  V30 642 C 61.8862 -1.40998 -5.02908 0
M  V30 643 H 63.5802 -1.07247 -2.79532 0
M  V30 644 H 61.1262 -0.517163 -1.34393 0
M  V30 645 H 63.0792 0.987972 -4.09655 0
M  V30 646 H 61.8032 1.43133 -2.93565 0
M  V30 647 H 60.4622 -0.588936 -3.61838 0
M  V30 648 H 60.1102 1.60447 -4.76724 0
M  V30 649 H 59.8102 0.238809 -5.87115 0
M  V30 650 H 61.3342 1.16308 -5.9942 0
M  V30 651 H 62.7482 -1.07905 -5.63054 0
M  V30 652 H 61.1452 -1.86689 -5.70322 0
M  V30 653 H 62.2152 -2.1889 -4.32684 0
M  V30 654 N 63.5583 1.46682 -0.576371 0
M  V30 655 C 64.5213 2.28707 0.150239 0
M  V30 656 C 65.5213 1.38035 0.824794 0
M  V30 657 O 66.7113 1.60476 0.677719 0
M  V30 658 C 63.8433 3.18248 1.22192 0
M  V30 659 H 65.0363 2.94423 -0.570521 0
M  V30 660 H 62.5893 1.52688 -0.334078 0
M  V30 661 H 63.3243 2.57265 1.97447 0
M  V30 662 H 63.1093 3.85 0.742812 0
M  V30 663 H 64.5993 3.80001 1.73172 0
M  V30 664 N 65.0364 0.313813 1.54444 0
M  V30 665 C 65.9464 -0.565714 2.27677 0
M  V30 666 C 66.9624 -1.13754 1.31666 0
M  V30 667 O 68.1384 -1.15959 1.64668 0
M  V30 668 C 65.2034 -1.71528 3.01296 0
M  V30 669 C 64.2644 -1.17624 4.12872 0
M  V30 670 C 63.4974 -2.27102 4.8297 0
M  V30 671 O 63.7204 -3.47256 4.52514 0
M  V30 672 O 62.6544 -1.9307 5.70094 0
M  V30 673 H 66.4804 0.0287296 3.03686 0
M  V30 674 H 64.0654 0.0798312 1.49187 0
M  V30 675 H 65.9474 -2.38476 3.4743 0
M  V30 676 H 64.6224 -2.29608 2.2817 0
M  V30 677 H 63.5294 -0.472124 3.71109 0
M  V30 678 H 64.8624 -0.640695 4.88012 0
M  V30 679 N 66.5145 -1.57545 0.0417849 0
M  V30 680 C 67.7605 -1.92601 -0.635021 0
M  V30 681 C 68.0935 -0.919627 -1.71045 0
M  V30 682 O 67.3685 0.0557892 -1.9442 0
M  V30 683 C 67.6515 -3.38085 -1.23979 0
M  V30 684 C 67.5045 -4.49467 -0.173057 0
M  V30 685 C 68.8235 -3.83776 -2.15416 0
M  V30 686 H 65.9425 -0.700397 -0.229374 0
M  V30 687 H 68.5845 -1.89728 0.101633 0
M  V30 688 H 66.7345 -3.40664 -1.86762 0
M  V30 689 H 68.4065 -4.59018 0.458312 0
M  V30 690 H 66.6495 -4.30909 0.499996 0
M  V30 691 H 67.3205 -5.48323 -0.636054 0
M  V30 692 H 69.7965 -3.83013 -1.62605 0
M  V30 693 H 68.6725 -4.8624 -2.54679 0
M  V30 694 H 68.9335 -3.19998 -3.05047 0
M  V30 695 N 67.9926 0.231505 -1.5589 0
M  V30 696 C 69.2406 0.955461 -1.78088 0
M  V30 697 C 69.5616 1.85262 -0.608533 0
M  V30 698 O 68.8316 1.92277 0.375035 0
M  V30 699 H 67.4116 0.355787 -0.656829 0
M  V30 700 H 70.0736 0.245751 -1.93344 0
M  V30 701 H 69.1696 1.56814 -2.69844 0
M  V30 702 N 69.4707 1.49531 0.497807 0
M  V30 703 C 70.7167 1.59415 1.25358 0
M  V30 704 C 71.0497 0.281422 1.9215 0
M  V30 705 O 70.3247 -0.715249 1.80871 0
M  V30 706 C 70.6077 2.75566 2.3181 0
M  V30 707 C 70.4607 4.16642 1.69498 0
M  V30 708 C 71.7797 2.87347 3.33346 0
M  V30 709 H 68.8987 0.580244 0.454408 0
M  V30 710 H 71.5407 1.81827 0.551262 0
M  V30 711 H 69.6907 2.56587 2.91711 0
M  V30 712 H 71.3627 4.47145 1.13399 0
M  V30 713 H 69.6057 4.22141 0.998978 0
M  V30 714 H 70.2767 4.93792 2.46725 0
M  V30 715 H 72.7527 3.04634 2.83438 0
M  V30 716 H 71.6287 3.70289 4.05188 0
M  V30 717 H 71.8897 1.96834 3.95865 0
M  V30 718 N 70.9488 -0.749086 1.3866 0
M  V30 719 C 72.3598 -1.32664 1.31366 0
M  V30 720 C 72.7108 -1.96179 -0.028484 0
M  V30 721 O 71.8358 -1.9537 -0.93057 0
M  V30 722 C 72.4308 -2.41219 2.37905 0
M  V30 723 C 70.9898 -2.94684 2.34176 0
M  V30 724 C 70.1368 -1.68108 2.20533 0
M  V30 725 H 73.0878 -0.547628 1.48952 0
M  V30 726 H 73.1088 -3.21268 2.0388 0
M  V30 727 H 72.6208 -1.94962 3.35576 0
M  V30 728 H 70.7218 -3.45258 1.401 0
M  V30 729 H 70.8348 -3.48757 3.2849 0
M  V30 730 H 69.1988 -1.91907 1.67463 0
M  V30 731 H 69.9818 -1.23923 3.20153 0
M  V30 732 N 72.4269 -1.23603 -0.977757 0
M  V30 733 C 73.3769 -0.986664 -2.05545 0
M  V30 734 C 74.3609 0.0683009 -1.60755 0
M  V30 735 O 75.5529 -0.144162 -1.76412 0
M  V30 736 C 72.6819 -0.582623 -3.3832 0
M  V30 737 C 71.7679 -1.67313 -3.89701 0
M  V30 738 N 72.1589 -2.90394 -4.14132 0
M  V30 739 C 70.4569 -1.54832 -4.18262 0
M  V30 740 C 71.1579 -3.61017 -4.56116 0
M  V30 741 N 70.1339 -2.8854 -4.60701 0
M  V30 742 H 73.9359 -1.92139 -2.22396 0
M  V30 743 H 71.4499 -1.1358 -1.16074 0
M  V30 744 H 73.4469 -0.38524 -4.15116 0
M  V30 745 H 72.1069 0.34503 -3.22862 0
M  V30 746 H 73.1179 -3.26673 -4.01877 0
M  V30 747 H 69.7949 -0.687969 -4.11793 0
M  V30 748 H 71.1849 -4.66544 -4.83514 0
M  V30 749 N 73.905 1.17692 -1.04816 0
M  V30 750 C 75.151 1.88137 -0.75711 0
M  V30 751 C 75.484 1.80604 0.713841 0
M  V30 752 O 74.759 1.21146 1.52164 0
M  V30 753 C 75.042 3.38318 -1.2334 0
M  V30 754 C 74.895 3.54622 -2.76701 0
M  V30 755 C 76.214 4.32214 -0.829415 0
M  V30 756 H 73.333 0.683163 -0.27651 0
M  V30 757 H 75.975 1.38424 -1.30149 0
M  V30 758 H 74.125 3.80787 -0.770286 0
M  V30 759 H 75.797 3.21194 -3.31107 0
M  V30 760 H 74.04 2.97026 -3.16161 0
M  V30 761 H 74.711 4.60028 -3.05088 0
M  V30 762 H 77.187 3.97565 -1.22805 0
M  V30 763 H 76.063 5.35838 -1.19033 0
M  V30 764 H 76.324 4.41294 0.266891 0
M  V30 765 N 75.3831 0.828654 1.34056 0
M  V30 766 C 76.7941 0.477534 1.8049 0
M  V30 767 C 77.1451 -1.00258 1.6865 0
M  V30 768 O 76.2701 -1.78057 1.22982 0
M  V30 769 C 76.8651 0.860018 3.27703 0
M  V30 770 C 75.4241 0.561185 3.72193 0
M  V30 771 C 74.5711 1.07385 2.55663 0
M  V30 772 H 77.5221 1.0183 1.21722 0
M  V30 773 H 77.5431 0.166038 3.80138 0
M  V30 774 H 77.0551 1.93731 3.36288 0
M  V30 775 H 75.1561 -0.506465 3.69142 0
M  V30 776 H 75.2691 1.10926 4.66082 0
M  V30 777 H 73.6331 0.495149 2.49841 0
M  V30 778 H 74.4161 2.15771 2.67016 0
M  V30 779 N 76.8612 -1.46375 0.584142 0
M  V30 780 C 78.1072 -2.02678 0.0703716 0
M  V30 781 C 78.4402 -1.4545 -1.28678 0
M  V30 782 O 77.7152 -0.62014 -1.84349 0
M  V30 783 C 77.9982 -3.60099 0.00614674 0
M  V30 784 C 77.8512 -4.27709 1.3923 0
M  V30 785 C 79.1702 -4.34598 -0.693742 0
M  V30 786 H 76.2892 -0.736504 0.027047 0
M  V30 787 H 78.9312 -1.74501 0.751615 0
M  V30 788 H 77.0812 -3.84236 -0.574009 0
M  V30 789 H 78.7532 -4.14832 2.01773 0
M  V30 790 H 76.9962 -3.87016 1.95962 0
M  V30 791 H 77.6672 -5.36478 1.29982 0
M  V30 792 H 80.1432 -4.15615 -0.200869 0
M  V30 793 H 79.0192 -5.44318 -0.707714 0
M  V30 794 H 79.2802 -4.05759 -1.75533 0
M  V30 795 N 78.3393 -0.321999 -1.54275 0
M  V30 796 C 79.5873 0.280489 -2.00144 0
M  V30 797 C 79.9083 1.52777 -1.21178 0
M  V30 798 O 79.1783 1.9338 -0.313187 0
M  V30 799 H 77.7583 0.106632 -0.73935 0
M  V30 800 H 80.4203 -0.438184 -1.8991 0
M  V30 801 H 79.5163 0.537972 -3.07428 0
M  V30 802 N 79.8174 1.5752 -0.0501392 0
M  V30 803 C 80.7474 2.14502 0.922566 0
M  V30 804 C 81.7284 1.06642 1.3252 0
M  V30 805 O 82.9134 1.34577 1.4001 0
M  V30 806 C 80.0434 2.68916 2.19776 0
M  V30 807 C 78.9974 3.8175 1.93523 0
M  V30 808 C 78.3234 4.22677 3.27487 0
M  V30 809 C 79.6234 5.06932 1.25765 0
M  V30 810 H 81.3174 2.9603 0.447952 0
M  V30 811 H 78.8634 1.42401 0.214024 0
M  V30 812 H 80.8164 3.07419 2.88222 0
M  V30 813 H 79.5404 1.84578 2.69441 0
M  V30 814 H 78.1994 3.43718 1.27489 0
M  V30 815 H 77.8474 3.35291 3.74952 0
M  V30 816 H 77.5474 4.98725 3.1072 0
M  V30 817 H 79.0714 4.63779 3.97166 0
M  V30 818 H 80.4854 5.42888 1.84244 0
M  V30 819 H 78.8824 5.88116 1.19328 0
M  V30 820 H 79.9524 4.84337 0.233536 0
M  V30 821 N 81.2955 -0.223234 1.56011 0
M  V30 822 C 82.7065 -0.790368 1.69145 0
M  V30 823 C 83.0575 -1.85055 0.651845 0
M  V30 824 O 82.1825 -2.15498 -0.197359 0
M  V30 825 C 82.7775 -1.4404 3.06656 0
M  V30 826 C 81.3365 -1.95494 3.2165 0
M  V30 827 C 80.4835 -0.814506 2.65068 0
M  V30 828 H 83.4345 0.00139011 1.587 0
M  V30 829 H 83.4555 -2.30916 3.0242 0
M  V30 830 H 82.9675 -0.668543 3.82298 0
M  V30 831 H 81.0685 -2.75487 2.50874 0
M  V30 832 H 81.1815 -2.13607 4.28846 0
M  V30 833 H 79.5455 -1.22137 2.23505 0
M  V30 834 H 80.3285 -0.0553515 3.43255 0
M  V30 835 N 82.7736 -1.49793 -0.48987 0
M  V30 836 C 83.7056 -1.63413 -1.60713 0
M  V30 837 C 84.7186 -0.516329 -1.54395 0
M  V30 838 O 85.9076 -0.788812 -1.60125 0
M  V30 839 C 83.0076 -1.58516 -2.99543 0
M  V30 840 C 82.1806 -2.86016 -3.30928 0
M  V30 841 C 81.2396 -2.74018 -4.49222 0
M  V30 842 O 80.2656 -3.47964 -4.50455 0
M  V30 843 N 81.4676 -1.86309 -5.4979 0
M  V30 844 H 84.2326 -2.59777 -1.49452 0
M  V30 845 H 81.7936 -1.47022 -0.677955 0
M  V30 846 H 83.7856 -1.48128 -3.76617 0
M  V30 847 H 82.3556 -0.69965 -3.0467 0
M  V30 848 H 81.5756 -3.10672 -2.42645 0
M  V30 849 H 82.8636 -3.70521 -3.487 0
M  V30 850 H 82.2616 -1.2551 -5.51601 0
M  V30 851 H 80.8186 -1.81837 -6.25922 0
M  V30 852 N 84.2517 0.741722 -1.39055 0
M  V30 853 C 85.2017 1.84661 -1.33732 0
M  V30 854 C 86.1857 1.59397 -0.219401 0
M  V30 855 O 87.3777 1.71015 -0.456375 0
M  V30 856 C 84.5067 3.22512 -1.17647 0
M  V30 857 C 83.5927 3.53628 -2.34112 0
M  V30 858 N 83.9837 3.55723 -3.59576 0
M  V30 859 C 82.2817 3.83956 -2.26923 0
M  V30 860 C 82.9827 3.84443 -4.36553 0
M  V30 861 N 81.9587 4.01877 -3.66055 0
M  V30 862 H 85.7607 1.84576 -2.28711 0
M  V30 863 H 83.2747 0.939647 -1.32455 0
M  V30 864 H 85.2717 4.01597 -1.11917 0
M  V30 865 H 83.9317 3.2384 -0.236124 0
M  V30 866 H 84.9427 3.37196 -3.93089 0
M  V30 867 H 81.6197 3.92929 -1.41113 0
M  V30 868 H 83.0097 3.92588 -5.45274 0
M  V30 869 N 85.7298 1.2412 0.971189 0
M  V30 870 C 86.6628 0.97373 2.06382 0
M  V30 871 C 87.6408 -0.0912662 1.62344 0
M  V30 872 O 88.8248 0.0449365 1.88446 0
M  V30 873 C 85.9518 0.468746 3.35441 0
M  V30 874 C 84.9978 1.52176 3.98428 0
M  V30 875 S 85.8308 3.10203 4.36503 0
M  V30 876 C 86.9868 2.61398 5.68702 0
M  V30 877 H 87.2198 1.89893 2.28753 0
M  V30 878 H 84.7528 1.07466 1.10862 0
M  V30 879 H 86.7108 0.184012 4.10087 0
M  V30 880 H 85.3718 -0.435688 3.11064 0
M  V30 881 H 84.5648 1.11876 4.91426 0
M  V30 882 H 84.1668 1.75632 3.30196 0
M  V30 883 H 86.4588 2.03992 6.4606 0
M  V30 884 H 87.4018 3.52972 6.13854 0
M  V30 885 H 87.8098 2.01941 5.27143 0
M  V30 886 N 87.2079 -1.17134 1.05439 0
M  V30 887 C 88.1409 -2.2012 0.601855 0
M  V30 888 C 89.1189 -1.58314 -0.370854 0
M  V30 889 O 90.3029 -1.8638 -0.281882 0
M  V30 890 C 87.4299 -3.38491 -0.118868 0
M  V30 891 C 86.4759 -4.18752 0.809242 0
M  V30 892 S 87.3089 -4.83602 2.29977 0
M  V30 893 C 88.4649 -6.0536 1.59029 0
M  V30 894 H 88.6979 -2.58165 1.47438 0
M  V30 895 H 86.2309 -1.27788 0.866573 0
M  V30 896 H 88.1889 -4.07084 -0.528495 0
M  V30 897 H 86.8499 -2.98829 -0.967465 0
M  V30 898 H 86.0429 -5.03373 0.251379 0
M  V30 899 H 85.6449 -3.5561 1.15835 0
M  V30 900 H 87.9369 -6.71615 0.891017 0
M  V30 901 H 88.8799 -6.65679 2.41407 0
M  V30 902 H 89.2879 -5.54138 1.07663 0
M  V30 903 N 88.686 -0.835752 -1.33615 0
M  V30 904 C 89.616 -0.281739 -2.31794 0
M  V30 905 C 90.597 0.608833 -1.58831 0
M  V30 906 O 91.782 0.533035 -1.86741 0
M  V30 907 C 88.912 0.546612 -3.42971 0
M  V30 908 C 87.866 -0.247904 -4.27281 0
M  V30 909 C 87.192 0.704001 -5.30045 0
M  V30 910 C 88.492 -1.46324 -5.01385 0
M  V30 911 H 90.186 -1.10206 -2.78379 0
M  V30 912 H 87.732 -0.531388 -1.33837 0
M  V30 913 H 89.685 0.944467 -4.1068 0
M  V30 914 H 88.409 1.40011 -2.95067 0
M  V30 915 H 87.068 -0.627281 -3.61194 0
M  V30 916 H 86.716 1.55381 -4.78399 0
M  V30 917 H 86.416 0.176524 -5.87335 0
M  V30 918 H 87.94 1.09944 -6.0062 0
M  V30 919 H 89.354 -1.13871 -5.61877 0
M  V30 920 H 87.751 -1.92728 -5.6831 0
M  V30 921 H 88.821 -2.23467 -4.30338 0
M  V30 922 N 90.1641 1.46063 -0.591896 0
M  V30 923 C 91.0961 2.28539 0.174001 0
M  V30 924 C 92.1091 1.39047 0.846753 0
M  V30 925 O 93.2981 1.63564 0.714774 0
M  V30 926 C 90.3981 3.14347 1.26645 0
M  V30 927 C 89.5711 4.32021 0.683856 0
M  V30 928 C 88.6301 4.99157 1.66518 0
M  V30 929 O 87.6561 5.56458 1.19763 0
M  V30 930 N 88.8581 4.97005 2.99943 0
M  V30 931 H 91.6231 2.94911 -0.533633 0
M  V30 932 H 89.1841 1.56077 -0.430294 0
M  V30 933 H 91.1761 3.56125 1.92242 0
M  V30 934 H 89.7461 2.49988 1.87682 0
M  V30 935 H 88.9661 3.93915 -0.1498 0
M  V30 936 H 90.2541 5.08059 0.274567 0
M  V30 937 H 89.6521 4.51714 3.40545 0
M  V30 938 H 88.2091 5.42696 3.61004 0
M  V30 939 N 91.6422 0.330177 1.54103 0
M  V30 940 C 92.5522 -0.541534 2.28264 0
M  V30 941 C 93.5682 -1.12351 1.32866 0
M  V30 942 O 94.7442 -1.14206 1.65888 0
M  V30 943 C 91.8092 -1.68322 3.03098 0
M  V30 944 C 90.8702 -1.13238 4.14096 0
M  V30 945 C 90.1032 -2.21966 4.85352 0
M  V30 946 O 90.3262 -3.42437 4.56172 0
M  V30 947 O 89.2602 -1.87013 5.7211 0
M  V30 948 H 93.0862 0.060938 3.03639 0
M  V30 949 H 90.6712 0.09565 1.49093 0
M  V30 950 H 92.5532 -2.34777 3.49939 0
M  V30 951 H 91.2282 -2.27176 2.30593 0
M  V30 952 H 90.1352 -0.432736 3.71589 0
M  V30 953 H 91.4682 -0.588898 4.88664 0
M  V30 954 N 93.1203 -1.57491 0.0584922 0
M  V30 955 C 94.3683 -1.92597 -0.612436 0
M  V30 956 C 94.6893 -0.938162 -1.70949 0
M  V30 957 O 93.9593 0.0158301 -1.95894 0
M  V30 958 H 92.5393 -0.710964 -0.229214 0
M  V30 959 H 95.2013 -1.94571 0.113218 0
M  V30 960 H 94.2973 -2.94038 -1.04633 0
M  V30 961 N 94.5984 0.214957 -1.56127 0
M  V30 962 C 95.5314 1.29382 -1.87977 0
M  V30 963 C 96.5094 1.44897 -0.737807 0
M  V30 964 O 97.6934 1.60605 -0.986833 0
M  V30 965 C 94.8204 2.66325 -2.09258 0
M  V30 966 C 93.8664 2.67789 -3.31951 0
M  V30 967 S 94.6994 2.21198 -4.8768 0
M  V30 968 C 95.8554 3.60003 -5.12004 0
M  V30 969 H 96.0884 1.02173 -2.79192 0
M  V30 970 H 93.6214 0.417516 -1.48648 0
M  V30 971 H 95.5794 3.45162 -2.22201 0
M  V30 972 H 94.2404 2.90755 -1.18829 0
M  V30 973 H 93.4334 3.68436 -3.43906 0
M  V30 974 H 93.0354 1.9702 -3.17898 0
M  V30 975 H 95.3274 4.55739 -5.01307 0
M  V30 976 H 96.2704 3.52959 -6.13861 0
M  V30 977 H 96.6784 3.53996 -4.39712 0
M  V30 978 N 96.0765 1.50051 0.48192 0
M  V30 979 C 97.4875 1.5348 1.06305 0
M  V30 980 C 97.8385 0.331997 1.93371 0
M  V30 981 O 96.9635 -0.556256 2.09129 0
M  V30 982 C 97.5585 2.7813 1.93466 0
M  V30 983 C 96.1175 2.84275 2.46707 0
M  V30 984 C 95.2645 2.47637 1.24785 0
M  V30 985 H 98.2155 1.56472 0.264995 0
M  V30 986 H 98.2365 2.59372 2.78399 0
M  V30 987 H 97.7485 3.65654 1.30072 0
M  V30 988 H 95.8495 2.01077 3.13686 0
M  V30 989 H 95.9625 3.8691 2.82555 0
M  V30 990 H 94.3265 1.99835 1.57918 0
M  V30 991 H 95.1095 3.37457 0.630694 0
M  V30 992 N 97.5546 -0.734337 1.39446 0
M  V30 993 C 98.9656 -1.31264 1.32766 0
M  V30 994 C 99.3166 -1.96198 -0.00767497 0
M  V30 995 O 98.4416 -1.96346 -0.909796 0
M  V30 996 C 99.0366 -2.38682 2.4045 0
M  V30 997 C 97.5956 -2.92184 2.37288 0
M  V30 998 C 96.7426 -1.6576 2.22304 0
M  V30 999 H 99.6936 -0.531799 1.49525 0
M  V30 1000 H 99.7146 -3.19087 2.07276 0
M  V30 1001 H 99.2266 -1.91392 3.37625 0
M  V30 1002 H 97.3276 -3.43752 1.43754 0
M  V30 1003 H 97.4406 -3.45253 3.3217 0
M  V30 1004 H 95.8046 -1.9012 1.69489 0
M  V30 1005 H 96.5876 -1.20521 3.21449 0
M  V30 1006 N 99.0327 -1.24633 -0.964593 0
M  V30 1007 C 100.444 -1.08045 -1.5226 0
M  V30 1008 C 100.795 0.347116 -1.93105 0
M  V30 1009 O 99.9197 1.23588 -1.77637 0
M  V30 1010 C 100.515 -1.95514 -2.76695 0
M  V30 1011 C 99.0737 -1.8314 -3.28841 0
M  V30 1012 C 98.2207 -1.90262 -2.01732 0
M  V30 1013 H 101.172 -1.38064 -0.782553 0
M  V30 1014 H 101.193 -1.48925 -3.50145 0
M  V30 1015 H 100.705 -2.99407 -2.46936 0
M  V30 1016 H 98.8057 -0.82092 -3.63444 0
M  V30 1017 H 98.9187 -2.67406 -3.97531 0
M  V30 1018 H 97.2827 -1.34027 -2.16584 0
M  V30 1019 H 98.0657 -2.9574 -1.74334 0
M  V30 1020 N 100.511 1.16574 -1.06058 0
M  V30 1021 C 101.922 1.68662 -0.800632 0
M  V30 1022 C 102.273 1.84184 0.67608 0
M  V30 1023 O 101.398 1.53568 1.52466 0
M  V30 1024 C 101.993 3.06356 -1.44676 0
M  V30 1025 C 100.552 3.55575 -1.23465 0
M  V30 1026 C 99.6988 2.31616 -1.52477 0
M  V30 1027 H 102.65 1.00969 -1.22438 0
M  V30 1028 H 102.671 3.70636 -0.860788 0
M  V30 1029 H 102.183 2.95027 -2.52152 0
M  V30 1030 H 100.284 3.72167 -0.179527 0
M  V30 1031 H 100.397 4.37812 -1.94571 0
M  V30 1032 H 98.7608 2.36512 -0.945209 0
M  V30 1033 H 99.5438 2.22887 -2.61106 0
M  V30 1034 N 101.989 0.842826 1.3317 0
M  V30 1035 C 103.4 0.496651 1.79973 0
M  V30 1036 C 103.751 -0.984641 1.69703 0
M  V30 1037 O 102.876 -1.76743 1.24863 0
M  V30 1038 C 103.471 0.894727 3.26772 0
M  V30 1039 C 102.03 0.600629 3.71577 0
M  V30 1040 C 101.177 1.10091 2.5451 0
M  V30 1041 H 104.128 1.03116 1.20635 0
M  V30 1042 H 104.149 0.206347 3.7994 0
M  V30 1043 H 103.661 1.97287 3.34215 0
M  V30 1044 H 101.762 -0.467284 3.69658 0
M  V30 1045 H 101.875 1.15863 4.64879 0
M  V30 1046 H 100.239 0.52162 2.49301 0
M  V30 1047 H 101.022 2.18591 2.64713 0
M  V30 1048 N 103.467 -1.45747 0.599634 0
M  V30 1049 C 104.377 -2.34262 -0.125888 0
M  V30 1050 C 105.393 -1.50768 -0.868625 0
M  V30 1051 O 106.569 -1.83592 -0.828003 0
M  V30 1052 C 103.634 -3.28252 -1.11587 0
M  V30 1053 C 102.695 -4.27651 -0.375956 0
M  V30 1054 C 101.928 -5.1715 -1.31877 0
M  V30 1055 O 102.151 -5.09916 -2.55621 0
M  V30 1056 O 101.085 -5.96286 -0.820157 0
M  V30 1057 H 104.911 -2.97688 0.601315 0
M  V30 1058 H 102.496 -1.44999 0.359934 0
M  V30 1059 H 104.378 -3.86191 -1.68626 0
M  V30 1060 H 103.053 -2.67401 -1.82424 0
M  V30 1061 H 101.96 -3.7335 0.236698 0
M  V30 1062 H 103.293 -4.91334 0.29177 0
M  V30 1063 N 104.945 -0.338344 -1.53925 0
M  V30 1064 C 105.855 0.529421 -2.28548 0
M  V30 1065 C 106.871 1.11645 -1.3346 0
M  V30 1066 O 108.047 1.13325 -1.66492 0
M  V30 1067 C 105.112 1.66713 -3.03987 0
M  V30 1068 C 104.173 1.11041 -4.14691 0
M  V30 1069 C 103.406 2.19389 -4.86522 0
M  V30 1070 O 103.629 3.40013 -4.57982 0
M  V30 1071 O 102.563 1.83976 -5.73094 0
M  V30 1072 H 106.389 -0.0770399 -3.03602 0
M  V30 1073 H 103.974 -0.103555 -1.49041 0
M  V30 1074 H 105.856 2.32918 -3.5118 0
M  V30 1075 H 104.531 2.25949 -2.31794 0
M  V30 1076 H 103.438 0.413024 -3.71813 0
M  V30 1077 H 104.771 0.562975 -4.8897 0
M  V30 1078 N 106.423 1.57458 -0.0668435 0
M  V30 1079 C 107.333 2.15937 0.916975 0
M  V30 1080 C 108.349 1.12123 1.33058 0
M  V30 1081 O 109.525 1.44366 1.40429 0
M  V30 1082 C 106.59 2.70547 2.16807 0
M  V30 1083 C 105.651 3.89215 1.81135 0
M  V30 1084 C 104.884 4.41211 3.0028 0
M  V30 1085 O 105.107 3.92225 4.14144 0
M  V30 1086 O 104.041 5.32605 2.80384 0
M  V30 1087 H 107.867 3.00354 0.449561 0
M  V30 1088 H 105.452 1.48584 0.155949 0
M  V30 1089 H 107.334 3.0557 2.90181 0
M  V30 1090 H 106.009 1.89192 2.62656 0
M  V30 1091 H 104.916 3.59054 1.05028 0
M  V30 1092 H 106.249 4.71848 1.40073 0
M  V30 1093 N 107.901 -0.206675 1.56239 0
M  V30 1094 C 108.833 -1.27997 1.9013 0
M  V30 1095 C 109.846 -1.42299 0.790883 0
M  V30 1096 O 111.035 -1.42931 1.06925 0
M  V30 1097 C 108.135 -2.65368 2.10792 0
M  V30 1098 C 107.308 -2.72824 3.41886 0
M  V30 1099 C 106.367 -3.9131 3.51799 0
M  V30 1100 O 105.393 -3.78953 4.24716 0
M  V30 1101 N 106.595 -5.06265 2.84035 0
M  V30 1102 H 109.36 -0.992444 2.82791 0
M  V30 1103 H 106.921 -0.396652 1.56966 0
M  V30 1104 H 108.913 -3.43039 2.14724 0
M  V30 1105 H 107.483 -2.86657 1.24685 0
M  V30 1106 H 106.703 -1.81515 3.49923 0
M  V30 1107 H 107.991 -2.74786 4.28217 0
M  V30 1108 H 107.389 -5.19203 2.246 0
M  V30 1109 H 105.946 -5.81925 2.93609 0
M  V30 1110 N 109.379 -1.50304 -0.473955 0
M  V30 1111 C 110.795 -1.37667 -0.807466 0
M  V30 1112 C 110.995 -0.430555 -1.96846 0
M  V30 1113 O 110.051 0.127874 -2.52176 0
M  V30 1114 C 111.364 -2.78974 -1.12223 0
M  V30 1115 C 112.912 -2.87868 -1.22885 0
M  V30 1116 C 113.387 -4.30003 -1.57676 0
M  V30 1117 N 114.878 -4.3294 -1.64673 0
M  V30 1118 C 115.613 -5.3991 -1.93091 0
M  V30 1119 N 115.109 -6.57092 -2.1955 0
M  V30 1120 N 116.902 -5.27351 -1.94569 0
M  V30 1121 H 109.053 -2.10394 0.291212 0
M  V30 1122 H 111.316 -0.945575 0.0677609 0
M  V30 1123 H 111.022 -3.50031 -0.342229 0
M  V30 1124 H 110.896 -3.16038 -2.05913 0
M  V30 1125 H 113.283 -2.17032 -1.99953 0
M  V30 1126 H 113.364 -2.54352 -0.271814 0
M  V30 1127 H 113.008 -5.01375 -0.81149 0
M  V30 1128 H 112.938 -4.61004 -2.54525 0
M  V30 1129 H 115.429 -3.48441 -1.46277 0
M  V30 1130 H 115.742 -7.34425 -2.405 0
M  V30 1131 H 114.087 -6.60272 -2.16948 0
M  V30 1132 H 117.278 -4.34801 -1.73394 0
M  V30 1133 H 117.451 -6.10805 -2.16381 0
M  V30 1134 N 110.857 0.726932 -1.39834 0
M  V30 1135 C 111.787 1.85405 -1.41941 0
M  V30 1136 C 112.768 1.67751 -0.281728 0
M  V30 1137 O 113.953 1.8795 -0.488717 0
M  V30 1138 C 111.083 3.23243 -1.2701 0
M  V30 1139 C 110.037 3.55549 -2.38262 0
M  V30 1140 C 109.363 4.9241 -2.08415 0
M  V30 1141 C 110.663 3.577 -3.80589 0
M  V30 1142 H 112.357 1.83899 -2.36266 0
M  V30 1143 H 109.903 0.883349 -1.13723 0
M  V30 1144 H 111.856 4.01775 -1.27103 0
M  V30 1145 H 110.58 3.25296 -0.291564 0
M  V30 1146 H 109.239 2.79351 -2.37399 0
M  V30 1147 H 108.887 4.91052 -1.0898 0
M  V30 1148 H 108.587 5.14992 -2.82943 0
M  V30 1149 H 110.111 5.73289 -2.10171 0
M  V30 1150 H 111.525 4.26293 -3.83337 0
M  V30 1151 H 109.922 3.91804 -4.54543 0
M  V30 1152 H 110.992 2.57328 -4.10987 0
M  V30 1153 N 112.336 1.25143 0.95797 0
M  V30 1154 C 113.299 1.05321 2.03569 0
M  V30 1155 C 114.299 0.007152 1.60798 0
M  V30 1156 O 115.489 0.24903 1.72411 0
M  V30 1157 C 112.621 0.598394 3.35607 0
M  V30 1158 H 113.814 2.00986 2.22586 0
M  V30 1159 H 111.367 1.07502 1.13459 0
M  V30 1160 H 112.102 -0.361014 3.22284 0
M  V30 1161 H 111.887 1.35351 3.67998 0
M  V30 1162 H 113.377 0.48104 4.1482 0
M  V30 1163 N 113.814 -1.1601 1.06675 0
M  V30 1164 C 114.777 -2.18724 0.685001 0
M  V30 1165 C 115.777 -1.58496 -0.271246 0
M  V30 1166 O 116.967 -1.74119 -0.0531156 0
M  V30 1167 C 114.099 -3.40899 0.00853648 0
M  V30 1168 H 115.292 -2.54011 1.59431 0
M  V30 1169 H 112.845 -1.30352 0.862441 0
M  V30 1170 H 113.58 -3.11173 -0.913337 0
M  V30 1171 H 113.365 -3.8587 0.696204 0
M  V30 1172 H 114.855 -4.16886 -0.24414 0
M  V30 1173 N 115.292 -0.849877 -1.32721 0
M  V30 1174 C 116.225 -0.235903 -2.26977 0
M  V30 1175 C 117.203 0.623355 -1.50177 0
M  V30 1176 O 118.387 0.581207 -1.79316 0
M  V30 1177 C 115.514 0.667712 -3.32053 0
M  V30 1178 C 114.56 -0.11753 -4.26338 0
M  V30 1179 S 115.393 -1.48277 -5.14562 0
M  V30 1180 C 116.549 -0.584741 -6.23163 0
M  V30 1181 H 116.782 -1.03495 -2.78704 0
M  V30 1182 H 114.315 -0.64724 -1.40179 0
M  V30 1183 H 116.273 1.18343 -3.93072 0
M  V30 1184 H 114.934 1.44052 -2.7912 0
M  V30 1185 H 114.127 0.57051 -5.00761 0
M  V30 1186 H 113.729 -0.564668 -3.69713 0
M  V30 1187 H 116.021 0.212968 -6.77165 0
M  V30 1188 H 116.964 -1.29947 -6.96074 0
M  V30 1189 H 117.372 -0.161202 -5.6427 0
M  V30 1190 N 116.77 1.45427 -0.607355 0
M  V30 1191 C 117.998 2.06614 -0.108814 0
M  V30 1192 C 118.413 1.45204 1.2067 0
M  V30 1193 O 117.77 0.566132 1.73497 0
M  V30 1194 C 117.821 3.61481 0.0375347 0
M  V30 1195 O 117.542 4.20598 -1.22593 0
M  V30 1196 C 119.043 4.39652 0.567561 0
M  V30 1197 H 116.263 0.66747 -0.0687351 0
M  V30 1198 H 118.807 1.86675 -0.835022 0
M  V30 1199 H 116.962 3.80762 0.714068 0
M  V30 1200 H 117.376 5.1377 -1.05547 0
M  V30 1201 H 118.85 5.48518 0.61905 0
M  V30 1202 H 119.327 4.09417 1.58978 0
M  V30 1203 H 119.933 4.25234 -0.0749202 0
M  V30 1204 N 118.248 0.346503 1.53744 0
M  V30 1205 C 119.494 -0.249473 2.0126 0
M  V30 1206 C 119.827 -1.49965 1.23386 0
M  V30 1207 O 119.102 -1.91811 0.32229 0
M  V30 1208 C 119.385 -0.560643 3.55709 0
M  V30 1209 C 119.238 0.701836 4.44291 0
M  V30 1210 C 120.557 -1.36905 4.18264 0
M  V30 1211 H 117.676 -0.0891987 0.731582 0
M  V30 1212 H 120.318 0.467624 1.84156 0
M  V30 1213 H 118.468 -1.17156 3.70414 0
M  V30 1214 H 120.14 1.33974 4.41417 0
M  V30 1215 H 118.383 1.32612 4.13033 0
M  V30 1216 H 119.054 0.43933 5.50249 0
M  V30 1217 H 121.53 -0.852448 4.07275 0
M  V30 1218 H 120.406 -1.55553 5.26398 0
M  V30 1219 H 120.667 -2.37203 3.73078 0
M  V30 1220 N 119.726 -1.57421 0.075193 0
M  V30 1221 C 120.636 -2.1642 -0.905511 0
M  V30 1222 C 121.652 -1.12828 -1.32461 0
M  V30 1223 O 122.828 -1.45109 -1.39661 0
M  V30 1224 C 119.893 -2.71693 -2.15369 0
M  V30 1225 C 118.954 -3.90171 -1.79068 0
M  V30 1226 C 118.187 -4.42798 -2.97936 0
M  V30 1227 O 118.41 -3.94416 -4.12058 0
M  V30 1228 O 117.344 -5.34085 -2.77555 0
M  V30 1229 H 121.17 -3.00588 -0.433626 0
M  V30 1230 H 118.755 -1.48664 -0.148067 0
M  V30 1231 H 120.637 -3.07104 -2.88557 0
M  V30 1232 H 119.312 -1.90582 -2.61649 0
M  V30 1233 H 118.219 -3.59606 -1.03122 0
M  V30 1234 H 119.552 -4.72584 -1.37569 0
M  V30 1235 N 121.204 0.198386 -1.56346 0
M  V30 1236 C 122.137 1.27381 -1.89339 0
M  V30 1237 C 123.115 1.44106 -0.753134 0
M  V30 1238 O 124.299 1.59549 -1.00381 0
M  V30 1239 C 121.426 2.6409 -2.12071 0
M  V30 1240 C 120.472 2.64253 -3.34772 0
M  V30 1241 S 121.305 2.16013 -4.89999 0
M  V30 1242 C 122.461 3.54553 -5.15794 0
M  V30 1243 H 122.694 0.992058 -2.8026 0
M  V30 1244 H 120.227 0.401726 -1.49082 0
M  V30 1245 H 122.185 3.42786 -2.2585 0
M  V30 1246 H 120.846 2.89478 -1.21906 0
M  V30 1247 H 120.039 3.64768 -3.47794 0
M  V30 1248 H 119.641 1.93637 -3.1997 0
M  V30 1249 H 121.933 4.50396 -5.06112 0
M  V30 1250 H 122.876 3.46428 -6.1757 0
M  V30 1251 H 123.284 3.49313 -4.43442 0
M  V30 1252 N 122.682 1.50554 0.465978 0
M  V30 1253 C 123.614 1.65949 1.58093 0
M  V30 1254 C 124.627 0.540827 1.53554 0
M  V30 1255 O 125.816 0.814187 1.5885 0
M  V30 1256 C 122.916 1.63261 2.96983 0
M  V30 1257 C 122.089 2.91245 3.26336 0
M  V30 1258 C 121.148 2.8113 4.44806 0
M  V30 1259 O 120.174 3.55086 4.44862 0
M  V30 1260 N 121.376 1.95032 5.46756 0
M  V30 1261 H 124.141 2.62122 1.45301 0
M  V30 1262 H 121.702 1.48082 0.65448 0
M  V30 1263 H 123.694 1.54101 3.74212 0
M  V30 1264 H 122.264 0.748032 3.03518 0
M  V30 1265 H 121.484 3.14493 2.37672 0
M  V30 1266 H 122.772 3.76022 3.42761 0
M  V30 1267 H 122.17 1.3427 5.49534 0
M  V30 1268 H 120.727 1.91772 6.2295 0
M  V30 1269 N 124.16 -0.719506 1.40217 0
M  V30 1270 C 125.407 -1.47933 1.38283 0
M  V30 1271 C 125.735 -1.94493 -0.0161536 0
M  V30 1272 O 124.99 -1.68224 -0.999956 0
M  V30 1273 C 125.289 -2.72271 2.31524 0
M  V30 1274 C 124.955 -2.44496 3.78857 0
M  V30 1275 C 123.617 -2.36631 4.18998 0
M  V30 1276 C 125.969 -2.21104 4.71977 0
M  V30 1277 C 123.297 -2.03437 5.503 0
M  V30 1278 C 125.649 -1.89423 6.03574 0
M  V30 1279 C 124.313 -1.80038 6.42762 0
M  V30 1280 H 123.583 -0.541325 0.506012 0
M  V30 1281 H 126.23 -0.824502 1.72842 0
M  V30 1282 H 124.535 -3.42572 1.90137 0
M  V30 1283 H 126.232 -3.30348 2.27313 0
M  V30 1284 H 122.822 -2.51503 3.47051 0
M  V30 1285 H 127.006 -2.26139 4.41786 0
M  V30 1286 H 122.262 -1.94705 5.79569 0
M  V30 1287 H 126.436 -1.70336 6.75247 0
M  V30 1288 H 124.063 -1.54083 7.44421 0
M  V30 1289 N 125.638 -1.25649 -0.95132 0
M  V30 1290 C 126.915 -1.01361 -1.67288 0
M  V30 1291 C 127.295 0.459135 -2.06046 0
M  V30 1292 O 126.643 1.43723 -1.7764 0
M  V30 1293 C 126.853 -1.95256 -2.89268 0
M  V30 1294 C 128.201 -2.23289 -3.61147 0
M  V30 1295 O 129.225 -1.93041 -2.99355 0
M  V30 1296 O 128.084 -2.74741 -4.72419 0
M  V30 1297 H 125.178 -0.38464 -0.732107 0
M  V30 1298 H 127.724 -1.36817 -1.00395 0
M  V30 1299 H 126.496 -2.94685 -2.57442 0
M  V30 1300 H 126.119 -1.60218 -3.6389 0
M  V30 1301 N 127.117 1.15442 -1.07289 0
M  V30 1302 C 128.08 2.18358 -0.696591 0
M  V30 1303 C 129.08 1.58637 0.262837 0
M  V30 1304 O 130.27 1.74145 0.0438809 0
M  V30 1305 C 127.402 3.4089 -0.0266151 0
M  V30 1306 H 128.595 2.53162 -1.60776 0
M  V30 1307 H 126.148 1.29893 -0.869342 0
M  V30 1308 H 126.883 3.11653 0.896822 0
M  V30 1309 H 126.668 3.85495 -0.716657 0
M  V30 1310 H 128.158 4.17009 0.222028 0
M  V30 1311 N 128.595 0.856903 1.32268 0
M  V30 1312 C 129.841 0.462069 1.97466 0
M  V30 1313 C 130.174 -0.980298 1.67642 0
M  V30 1314 O 129.449 -1.68824 0.965858 0
M  V30 1315 C 129.732 0.704336 3.53145 0
M  V30 1316 C 129.585 2.19529 3.9259 0
M  V30 1317 C 130.904 0.1622 4.39801 0
M  V30 1318 H 128.023 0.169357 0.717278 0
M  V30 1319 H 130.665 1.07574 1.56614 0
M  V30 1320 H 128.815 0.181999 3.88073 0
M  V30 1321 H 130.487 2.78387 3.67829 0
M  V30 1322 H 128.73 2.67292 3.41668 0
M  V30 1323 H 129.401 2.31549 5.01088 0
M  V30 1324 H 131.877 0.608905 4.11621 0
M  V30 1325 H 130.753 0.361265 5.4771 0
M  V30 1326 H 131.014 -0.935158 4.32096 0
M  V30 1327 N 130.073 -1.45103 0.615059 0
M  V30 1328 C 131.484 -1.85654 0.197383 0
M  V30 1329 C 131.835 -1.51433 -1.24749 0
M  V30 1330 O 130.96 -0.944608 -1.94695 0
M  V30 1331 C 131.555 -3.36972 0.351448 0
M  V30 1332 C 130.114 -3.76398 -0.011593 0
M  V30 1333 C 129.261 -2.69024 0.672394 0
M  V30 1334 H 132.212 -1.35797 0.821263 0
M  V30 1335 H 132.233 -3.78239 -0.414227 0
M  V30 1336 H 131.745 -3.61847 1.40314 0
M  V30 1337 H 129.846 -3.5714 -1.06217 0
M  V30 1338 H 129.959 -4.77532 0.387265 0
M  V30 1339 H 128.323 -2.54465 0.109284 0
M  V30 1340 H 129.106 -2.96735 1.72636 0
M  V30 1341 N 131.551 -0.354651 -1.53558 0
M  V30 1342 C 132.799 0.237972 -2.00694 0
M  V30 1343 C 133.12 1.50173 -1.24391 0
M  V30 1344 O 132.39 1.92673 -0.354135 0
M  V30 1345 H 130.97 0.0909256 -0.741446 0
M  V30 1346 H 133.632 -0.478368 -1.88938 0
M  V30 1347 H 132.728 0.47264 -3.085 0
M  V30 1348 N 133.029 1.57378 -0.0835403 0
M  V30 1349 C 133.992 2.12252 0.864959 0
M  V30 1350 C 134.992 1.04916 1.21858 0
M  V30 1351 O 136.182 1.30853 1.14991 0
M  V30 1352 C 133.314 2.63358 2.16461 0
M  V30 1353 H 134.507 2.97371 0.388676 0
M  V30 1354 H 132.06 1.55423 0.165317 0
M  V30 1355 H 132.795 1.81727 2.686 0
M  V30 1356 H 132.58 3.41826 1.92087 0
M  V30 1357 H 134.07 3.05847 2.84337 0
M  V30 1358 N 134.507 -0.190092 1.56449 0
M  V30 1359 C 135.47 -1.21925 1.9408 0
M  V30 1360 C 136.47 -1.38176 0.822431 0
M  V30 1361 O 137.66 -1.35903 1.08977 0
M  V30 1362 C 134.792 -2.58773 2.21922 0
M  V30 1363 H 135.985 -0.897464 2.86157 0
M  V30 1364 H 133.538 -0.43181 1.50217 0
M  V30 1365 H 134.273 -2.95998 1.32499 0
M  V30 1366 H 134.058 -2.48348 3.03424 0
M  V30 1367 H 135.548 -3.32978 2.52022 0
M  V30 1368 N 135.985 -1.50799 -0.457987 0
M  V30 1369 C 136.895 -1.73426 -1.57989 0
M  V30 1370 C 137.911 -0.617745 -1.62665 0
M  V30 1371 O 139.087 -0.897614 -1.80291 0
M  V30 1372 C 136.152 -1.83557 -2.94122 0
M  V30 1373 C 135.213 -3.07345 -2.99729 0
M  V30 1374 C 134.446 -3.16983 -4.29368 0
M  V30 1375 O 134.669 -2.33077 -5.20607 0
M  V30 1376 O 133.603 -4.09812 -4.40837 0
M  V30 1377 H 137.429 -2.68555 -1.41817 0
M  V30 1378 H 135.014 -1.35052 -0.638859 0
M  V30 1379 H 136.896 -1.92326 -3.74952 0
M  V30 1380 H 135.571 -0.916137 -3.10465 0
M  V30 1381 H 134.478 -3.04068 -2.1793 0
M  V30 1382 H 135.811 -3.9891 -2.88326 0
M  V30 1383 N 137.463 0.71206 -1.40597 0
M  V30 1384 C 138.711 1.46907 -1.38791 0
M  V30 1385 C 139.032 1.94998 0.00780391 0
M  V30 1386 O 138.302 1.70587 0.963174 0
M  V30 1387 H 136.882 0.545043 -0.51082 0
M  V30 1388 H 139.544 0.843882 -1.75683 0
M  V30 1389 H 138.64 2.34021 -2.06496 0
M  V30 1390 N 138.941 1.26152 0.944643 0
M  V30 1391 C 140.181 1.12708 1.70517 0
M  V30 1392 C 140.545 -0.324727 1.89234 0
M  V30 1393 O 141.746 -0.581211 2.62441 0
M  V30 1394 C 140.017 1.8713 3.04495 0
M  V30 1395 S 141.576 1.89698 3.95677 0
M  V30 1396 H 138.394 0.402665 0.585988 0
M  V30 1397 H 140.996 1.59821 1.12594 0
M  V30 1398 H 139.7 2.91833 2.88551 0
M  V30 1399 H 139.231 1.40444 3.67477 0
M  V30 1400 H 141.246 0.981198 4.86402 0
M  V30 1401 N 140.419 -1.14872 1.07899 0
M  V30 1402 C 141.382 -2.17986 0.708161 0
M  V30 1403 C 142.382 -1.58775 -0.25442 0
M  V30 1404 O 143.572 -1.74166 -0.034645 0
M  V30 1405 C 140.704 -3.40871 0.0446929 0
M  V30 1406 H 141.897 -2.52306 1.62116 0
M  V30 1407 H 139.45 -1.2943 0.876218 0
M  V30 1408 H 140.185 -3.12124 -0.880281 0
M  V30 1409 H 139.97 -3.8511 0.737091 0
M  V30 1410 H 141.46 -4.17121 -0.19991 0
M  V30 1411 N 141.898 -0.863906 -1.31812 0
M  V30 1412 C 142.861 -0.320212 -2.26952 0
M  V30 1413 C 143.861 0.525369 -1.51975 0
M  V30 1414 O 145.051 0.335547 -1.70938 0
M  V30 1415 C 142.183 0.545919 -3.365 0
M  V30 1416 H 143.376 -1.16004 -2.76556 0
M  V30 1417 H 140.929 -0.638995 -1.42641 0
M  V30 1418 H 141.664 1.40718 -2.92179 0
M  V30 1419 H 141.449 -0.0594674 -3.92055 0
M  V30 1420 H 142.939 0.918796 -4.07367 0
M  V30 1421 N 143.376 1.44774 -0.622745 0
M  V30 1422 C 144.622 2.0242 -0.124083 0
M  V30 1423 C 144.955 1.4881 1.24777 0
M  V30 1424 O 144.23 0.668799 1.8264 0
M  V30 1425 C 144.513 3.59957 -0.101619 0
M  V30 1426 C 144.366 4.23867 -1.50521 0
M  V30 1427 C 145.685 4.36284 0.578272 0
M  V30 1428 H 142.804 0.735528 -0.0465645 0
M  V30 1429 H 145.446 1.72447 -0.797617 0
M  V30 1430 H 143.596 3.85623 0.471934 0
M  V30 1431 H 145.268 4.09336 -2.12701 0
M  V30 1432 H 143.511 3.81684 -2.06154 0
M  V30 1433 H 144.182 5.32843 -1.4416 0
M  V30 1434 H 146.658 4.16001 0.0906057 0
M  V30 1435 H 145.534 5.46004 0.563149 0
M  V30 1436 H 145.795 4.10271 1.64713 0
M  V30 1437 N 144.854 0.36279 1.53368 0
M  V30 1438 C 146.1 -0.228113 2.01513 0
M  V30 1439 C 146.433 -1.48648 1.2497 0
M  V30 1440 O 145.708 -1.91459 0.342616 0
M  V30 1441 C 145.991 -0.522884 3.56284 0
M  V30 1442 C 145.844 0.74892 4.43521 0
M  V30 1443 C 147.163 -1.32461 4.19693 0
M  V30 1444 H 144.282 -0.0814343 0.732487 0
M  V30 1445 H 146.924 0.48713 1.83649 0
M  V30 1446 H 145.074 -1.1322 3.71636 0
M  V30 1447 H 146.746 1.38648 4.39971 0
M  V30 1448 H 144.989 1.36986 4.11603 0
M  V30 1449 H 145.66 0.497667 5.49752 0
M  V30 1450 H 148.136 -0.809203 4.08156 0
M  V30 1451 H 147.012 -1.49961 5.28018 0
M  V30 1452 H 147.273 -2.33232 3.75573 0
M  V30 1453 N 146.332 -1.57332 0.0918853 0
M  V30 1454 C 147.295 -2.12708 -0.85369 0
M  V30 1455 C 148.295 -1.05561 -1.213 0
M  V30 1456 O 149.485 -1.31461 -1.14296 0
M  V30 1457 C 146.617 -2.64503 -2.15061 0
M  V30 1458 H 147.81 -2.97573 -0.3729 0
M  V30 1459 H 145.363 -1.55509 -0.157072 0
M  V30 1460 H 146.098 -1.83149 -2.67632 0
M  V30 1461 H 145.883 -3.4284 -1.90272 0
M  V30 1462 H 147.373 -3.07351 -2.82711 0
M  V30 1463 N 147.81 0.181792 -1.56548 0
M  V30 1464 C 149.056 0.901431 -1.81665 0
M  V30 1465 C 149.389 1.82347 -0.668075 0
M  V30 1466 O 148.664 1.91669 0.330615 0
M  V30 1467 C 148.947 1.70618 -3.17115 0
M  V30 1468 C 148.8 0.807964 -4.42484 0
M  V30 1469 C 150.119 2.67605 -3.49393 0
M  V30 1470 H 147.238 0.32627 -0.660846 0
M  V30 1471 H 149.88 0.168134 -1.89255 0
M  V30 1472 H 148.03 2.33133 -3.10775 0
M  V30 1473 H 149.702 0.19649 -4.60881 0
M  V30 1474 H 147.945 0.115411 -4.33646 0
M  V30 1475 H 148.616 1.40632 -5.33785 0
M  V30 1476 H 151.092 2.15218 -3.56118 0
M  V30 1477 H 149.968 3.20985 -4.45264 0
M  V30 1478 H 150.229 3.47298 -2.73563 0
M  V30 1479 N 149.288 1.51039 0.449983 0
M  V30 1480 C 150.536 1.62759 1.19808 0
M  V30 1481 C 150.857 0.339981 1.92013 0
M  V30 1482 O 150.127 -0.643606 1.85026 0
M  V30 1483 H 148.707 0.599811 0.445237 0
M  V30 1484 H 151.369 1.87914 0.517138 0
M  V30 1485 H 150.465 2.44911 1.93455 0
M  V30 1486 N 150.766 -0.704594 1.40972 0
M  V30 1487 C 152.043 -1.45847 1.30338 0
M  V30 1488 C 152.423 -2.10973 -0.0732344 0
M  V30 1489 O 151.771 -2.00997 -1.08685 0
M  V30 1490 C 151.981 -2.48525 2.45023 0
M  V30 1491 C 153.329 -3.1404 2.8577 0
M  V30 1492 O 154.353 -2.58848 2.44696 0
M  V30 1493 O 153.212 -4.13981 3.56766 0
M  V30 1494 H 150.306 -0.649092 0.512454 0
M  V30 1495 H 152.852 -0.735836 1.52917 0
M  V30 1496 H 151.624 -1.98994 3.36923 0
M  V30 1497 H 151.247 -3.2831 2.24272 0
M  V30 1498 N 152.244 -1.26651 -0.937939 0
M  V30 1499 C 153.174 -1.10993 -2.05433 0
M  V30 1500 C 154.155 -0.0142161 -1.70094 0
M  V30 1501 O 155.34 -0.186837 -1.93299 0
M  V30 1502 C 152.47 -0.745561 -3.39203 0
M  V30 1503 C 151.424 -1.79337 -3.88616 0
M  V30 1504 C 150.75 -1.28324 -5.19073 0
M  V30 1505 C 152.05 -3.19553 -4.13138 0
M  V30 1506 H 153.744 -2.0438 -2.1879 0
M  V30 1507 H 151.29 -0.984041 -1.05131 0
M  V30 1508 H 153.243 -0.622888 -4.16771 0
M  V30 1509 H 151.967 0.22401 -3.25831 0
M  V30 1510 H 150.626 -1.90477 -3.13231 0
M  V30 1511 H 150.274 -0.303414 -5.02084 0
M  V30 1512 H 149.974 -1.98369 -5.53103 0
M  V30 1513 H 151.498 -1.1733 -5.99221 0
M  V30 1514 H 152.912 -3.11471 -4.81309 0
M  V30 1515 H 151.309 -3.87218 -4.58457 0
M  V30 1516 H 152.379 -3.65368 -3.18801 0
M  V30 1517 N 153.722 1.14298 -1.08507 0
M  V30 1518 C 154.685 2.17607 -0.719711 0
M  V30 1519 C 155.685 1.58907 0.245997 0
M  V30 1520 O 156.875 1.74181 0.0254081 0
M  V30 1521 C 154.007 3.40842 -0.0627695 0
M  V30 1522 H 155.2 2.51443 -1.63452 0
M  V30 1523 H 152.753 1.28963 -0.88307 0
M  V30 1524 H 153.488 3.12587 0.863716 0
M  V30 1525 H 153.273 3.84713 -0.757504 0
M  V30 1526 H 154.763 4.17221 0.177786 0
M  V30 1527 N 155.201 0.870884 1.31352 0
M  V30 1528 C 156.164 0.332243 2.26779 0
M  V30 1529 C 157.164 -0.517302 1.52252 0
M  V30 1530 O 158.354 -0.326477 1.71113 0
M  V30 1531 C 155.486 -0.528066 3.36785 0
M  V30 1532 H 156.679 1.17469 2.75937 0
M  V30 1533 H 154.232 0.64655 1.423 0
M  V30 1534 H 154.967 -1.39167 2.92922 0
M  V30 1535 H 154.752 0.0802582 3.92018 0
M  V30 1536 H 156.242 -0.897179 4.07849 0
M  V30 1537 N 156.679 -1.44442 0.630414 0
M  V30 1538 C 157.642 -2.29107 -0.0652523 0
M  V30 1539 C 158.642 -1.41002 -0.772995 0
M  V30 1540 O 159.832 -1.62881 -0.617692 0
M  V30 1541 C 156.964 -3.22564 -1.10296 0
M  V30 1542 H 158.157 -2.92103 0.679401 0
M  V30 1543 H 155.71 -1.51343 0.390517 0
M  V30 1544 H 156.445 -2.64416 -1.87762 0
M  V30 1545 H 156.23 -3.87491 -0.59941 0
M  V30 1546 H 157.72 -3.86167 -1.5895 0
M  V30 1547 N 158.157 -0.370918 -1.53173 0
M  V30 1548 C 159.385 0.217704 -2.05751 0
M  V30 1549 C 159.8 1.42018 -1.24404 0
M  V30 1550 O 159.157 1.80245 -0.286033 0
M  V30 1551 C 159.208 0.605954 -3.56385 0
M  V30 1552 O 158.929 -0.548734 -4.3465 0
M  V30 1553 C 160.43 1.2524 -4.25241 0
M  V30 1554 H 157.65 0.0371659 -0.66997 0
M  V30 1555 H 160.194 -0.530832 -1.9749 0
M  V30 1556 H 158.349 1.3044 -3.6478 0
M  V30 1557 H 158.763 -0.23376 -5.23979 0
M  V30 1558 H 160.237 1.47458 -5.3194 0
M  V30 1559 H 160.714 2.2143 -3.79296 0
M  V30 1560 H 161.32 0.595233 -4.21114 0
M  V30 1561 N 159.635 1.57281 -0.100228 0
M  V30 1562 C 160.883 1.94153 0.561157 0
M  V30 1563 C 161.204 0.983157 1.68401 0
M  V30 1564 O 160.474 0.0361132 1.95867 0
M  V30 1565 H 159.054 0.716791 0.210283 0
M  V30 1566 H 161.716 1.94202 -0.164765 0
M  V30 1567 H 160.812 2.96709 0.968008 0
M  V30 1568 N 161.113 -0.173488 1.56642 0
M  V30 1569 C 162.359 -0.891784 1.8214 0
M  V30 1570 C 162.692 -1.8199 0.677736 0
M  V30 1571 O 161.967 -1.91842 -0.320446 0
M  V30 1572 C 162.25 -1.68933 3.18015 0
M  V30 1573 C 162.103 -0.784487 4.42906 0
M  V30 1574 C 163.422 -2.65748 3.50808 0
M  V30 1575 H 160.541 -0.322761 0.662567 0
M  V30 1576 H 163.183 -0.158095 1.89341 0
M  V30 1577 H 161.333 -2.31482 3.12007 0
M  V30 1578 H 163.005 -0.172046 4.60979 0
M  V30 1579 H 161.248 -0.0924117 4.33702 0
M  V30 1580 H 161.919 -1.37799 5.34524 0
M  V30 1581 H 164.395 -2.13327 3.57255 0
M  V30 1582 H 163.271 -3.18619 4.4696 0
M  V30 1583 H 163.532 -3.45842 2.75401 0
M  V30 1584 N 162.591 -1.51276 -0.441967 0
M  V30 1585 C 164.007 -1.39349 -0.778083 0
M  V30 1586 C 164.207 -0.472212 -1.95889 0
M  V30 1587 O 163.263 0.0743551 -2.5239 0
M  V30 1588 C 164.576 -2.81292 -1.0628 0
M  V30 1589 C 166.124 -2.9041 -1.16751 0
M  V30 1590 C 166.599 -4.33251 -1.48519 0
M  V30 1591 N 168.09 -4.36336 -1.55453 0
M  V30 1592 C 168.825 -5.43885 -1.81596 0
M  V30 1593 N 168.321 -6.61601 -2.05562 0
M  V30 1594 N 170.114 -5.3136 -1.8334 0
M  V30 1595 H 162.265 -2.09729 0.335774 0
M  V30 1596 H 164.528 -0.943925 0.0878028 0
M  V30 1597 H 164.234 -3.50678 -0.267905 0
M  V30 1598 H 164.108 -3.20334 -1.99163 0
M  V30 1599 H 166.495 -2.21225 -1.95304 0
M  V30 1600 H 166.576 -2.54871 -0.217801 0
M  V30 1601 H 166.22 -5.02984 -0.704958 0
M  V30 1602 H 166.15 -4.66299 -2.44689 0
M  V30 1603 H 168.641 -3.51466 -1.38853 0
M  V30 1604 H 168.954 -7.39361 -2.24867 0
M  V30 1605 H 167.299 -6.64725 -2.02894 0
M  V30 1606 H 170.49 -4.38382 -1.64132 0
M  V30 1607 H 170.663 -6.15258 -2.03377 0
M  V30 1608 N 164.069 0.697108 -1.41344 0
M  V30 1609 C 165.294 1.49096 -1.44171 0
M  V30 1610 C 165.719 1.88038 -0.0481568 0
M  V30 1611 O 165.077 1.54525 0.948243 0
M  V30 1612 C 165.125 2.73088 -2.3549 0
M  V30 1613 O 164.229 3.70514 -1.81088 0
M  V30 1614 H 163.57 0.448801 -0.489361 0
M  V30 1615 H 166.1 0.856992 -1.85787 0
M  V30 1616 H 166.11 3.21413 -2.51312 0
M  V30 1617 H 164.785 2.44081 -3.36745 0
M  V30 1618 H 163.362 3.29441 -1.74708 0
M  V30 1619 N 165.547 1.27147 0.931209 0
M  V30 1620 C 166.793 1.13446 1.68101 0
M  V30 1621 C 167.126 -0.319628 1.91552 0
M  V30 1622 O 166.401 -1.23407 1.50336 0
M  V30 1623 C 166.684 1.91482 3.0497 0
M  V30 1624 C 166.537 3.44855 2.88782 0
M  V30 1625 C 167.856 1.71651 4.05246 0
M  V30 1626 H 164.975 0.413498 0.610072 0
M  V30 1627 H 167.617 1.56261 1.08086 0
M  V30 1628 H 165.767 1.55095 3.56199 0
M  V30 1629 H 167.439 3.9105 2.44698 0
M  V30 1630 H 165.682 3.71373 2.24198 0
M  V30 1631 H 166.353 3.94694 3.85902 0
M  V30 1632 H 168.829 2.0337 3.63015 0
M  V30 1633 H 167.705 2.28651 4.99009 0
M  V30 1634 H 167.966 0.663555 4.37092 0
M  V30 1635 N 167.025 -1.13721 1.09112 0
M  V30 1636 C 167.988 -2.17222 0.731241 0
M  V30 1637 C 168.988 -1.59035 -0.237566 0
M  V30 1638 O 170.178 -1.74192 -0.0161704 0
M  V30 1639 C 167.31 -3.40804 0.0808443 0
M  V30 1640 H 168.503 -2.50573 1.64783 0
M  V30 1641 H 166.056 -1.28493 0.889897 0
M  V30 1642 H 166.791 -3.1304 -0.847127 0
M  V30 1643 H 166.576 -3.84306 0.777896 0
M  V30 1644 H 168.066 -4.1731 -0.155657 0
M  V30 1645 N 168.503 -0.877838 -1.30888 0
M  V30 1646 C 169.413 -0.343096 -2.32078 0
M  V30 1647 C 170.429 0.551022 -1.65045 0
M  V30 1648 O 171.605 0.445854 -1.96403 0
M  V30 1649 C 168.67 0.439905 -3.43898 0
M  V30 1650 C 167.731 -0.483111 -4.26573 0
M  V30 1651 C 166.964 0.262616 -5.33053 0
M  V30 1652 O 167.187 1.48967 -5.50604 0
M  V30 1653 O 166.121 -0.383593 -6.00676 0
M  V30 1654 H 169.947 -1.18203 -2.79753 0
M  V30 1655 H 167.532 -0.64145 -1.34929 0
M  V30 1656 H 169.414 0.883504 -4.12034 0
M  V30 1657 H 168.089 1.25526 -2.98371 0
M  V30 1658 H 166.996 -0.975374 -3.61161 0
M  V30 1659 H 168.329 -1.26427 -4.75686 0
M  V30 1660 N 169.982 1.44106 -0.638065 0
M  V30 1661 C 170.929 2.30715 0.062701 0
M  V30 1662 C 171.899 1.43882 0.829883 0
M  V30 1663 O 173.084 1.72775 0.809532 0
M  V30 1664 C 170.224 3.29258 1.03358 0
M  V30 1665 C 169.337 4.31192 0.26409 0
M  V30 1666 C 168.472 5.16825 1.22741 0
M  V30 1667 C 167.511 6.10462 0.447475 0
M  V30 1668 N 166.648 6.8877 1.36161 0
M  V30 1669 H 171.488 2.90096 -0.681781 0
M  V30 1670 H 169.025 1.42925 -0.347988 0
M  V30 1671 H 170.983 3.84886 1.60992 0
M  V30 1672 H 169.613 2.71562 1.74511 0
M  V30 1673 H 168.665 3.77981 -0.428295 0
M  V30 1674 H 169.977 4.97619 -0.343052 0
M  V30 1675 H 169.131 5.77004 1.87487 0
M  V30 1676 H 167.87 4.50488 1.86847 0
M  V30 1677 H 166.875 5.49386 -0.213433 0
M  V30 1678 H 168.1 6.78837 -0.188968 0
M  V30 1679 H 166.046 6.25096 1.98975 0
M  V30 1680 H 165.963 7.51663 0.808656 0
M  V30 1681 H 167.231 7.53467 1.99769 0
M  V30 1682 N 171.46 0.379036 1.52974 0
M  V30 1683 C 172.39 -0.452706 2.29069 0
M  V30 1684 C 173.371 -1.07237 1.32039 0
M  V30 1685 O 174.556 -1.08708 1.60923 0
M  V30 1686 C 171.686 -1.5856 3.08992 0
M  V30 1687 C 170.64 -1.0925 4.13822 0
M  V30 1688 C 169.966 -2.31668 4.81907 0
M  V30 1689 C 171.266 -0.167702 5.22031 0
M  V30 1690 H 172.96 0.182181 2.98845 0
M  V30 1691 H 170.506 0.0890592 1.43724 0
M  V30 1692 H 172.459 -2.1742 3.6098 0
M  V30 1693 H 171.183 -2.24792 2.36931 0
M  V30 1694 H 169.842 -0.526494 3.628 0
M  V30 1695 H 169.49 -2.96386 4.06404 0
M  V30 1696 H 169.19 -1.9934 5.52754 0
M  V30 1697 H 170.714 -2.91189 5.36695 0
M  V30 1698 H 172.128 -0.664186 5.6944 0
M  V30 1699 H 170.525 0.0653265 6.00064 0
M  V30 1700 H 171.595 0.786347 4.78482 0
M  V30 1701 N 172.938 -1.57226 0.108567 0
M  V30 1702 C 174.186 -1.94448 -0.550853 0
M  V30 1703 C 174.507 -0.992074 -1.67878 0
M  V30 1704 O 173.777 -0.0465 -1.95845 0
M  V30 1705 H 172.357 -0.717897 -0.206479 0
M  V30 1706 H 175.019 -1.94112 0.175062 0
M  V30 1707 H 174.115 -2.97218 -0.952259 0
M  V30 1708 N 174.416 0.165178 -1.56732 0
M  V30 1709 C 175.346 1.20651 -1.99914 0
M  V30 1710 C 176.327 1.45827 -0.875705 0
M  V30 1711 O 177.512 1.57057 -1.14223 0
M  V30 1712 C 174.642 2.54401 -2.36427 0
M  V30 1713 C 173.596 2.43782 -3.51787 0
M  V30 1714 C 172.922 3.82078 -3.7406 0
M  V30 1715 C 174.222 1.93732 -4.85041 0
M  V30 1716 H 175.916 0.847534 -2.87154 0
M  V30 1717 H 173.462 0.40625 -1.38151 0
M  V30 1718 H 175.415 3.27458 -2.65234 0
M  V30 1719 H 174.139 2.92098 -1.46103 0
M  V30 1720 H 172.798 1.73178 -3.23117 0
M  V30 1721 H 172.446 4.17179 -2.81017 0
M  V30 1722 H 172.146 3.7584 -4.51684 0
M  V30 1723 H 173.67 4.56712 -4.05274 0
M  V30 1724 H 175.084 2.56569 -5.12684 0
M  V30 1725 H 173.481 1.98428 -5.66345 0
M  V30 1726 H 174.551 0.891962 -4.76626 0
M  V30 1727 N 175.894 1.51508 0.433938 0
M  V30 1728 C 177.305 1.56784 1.01369 0
M  V30 1729 C 177.656 0.393349 1.92217 0
M  V30 1730 O 176.781 -0.489441 2.10792 0
M  V30 1731 C 177.376 2.84144 1.8452 0
M  V30 1732 C 175.935 2.9198 2.37539 0
M  V30 1733 C 175.082 2.51482 1.16843 0
M  V30 1734 H 178.033 1.57236 0.215081 0
M  V30 1735 H 178.054 2.68098 2.70007 0
M  V30 1736 H 177.566 3.69607 1.18373 0
M  V30 1737 H 175.667 2.10955 3.0713 0
M  V30 1738 H 175.78 3.95704 2.70103 0
M  V30 1739 H 174.144 2.04758 1.51481 0
M  V30 1740 H 174.927 3.39293 0.523015 0
M  V30 1741 N 177.372 -0.689602 1.41712 0
M  V30 1742 C 178.619 -1.44966 1.4139 0
M  V30 1743 C 178.947 -1.94484 0.025105 0
M  V30 1744 O 178.202 -1.70307 -0.964048 0
M  V30 1745 C 178.501 -2.67298 2.37247 0
M  V30 1746 C 178.167 -2.36405 3.83958 0
M  V30 1747 C 176.829 -2.27691 4.23923 0
M  V30 1748 C 179.181 -2.11043 4.76561 0
M  V30 1749 C 176.509 -1.91719 5.54492 0
M  V30 1750 C 178.861 -1.76578 6.07456 0
M  V30 1751 C 177.525 -1.66363 6.46436 0
M  V30 1752 H 176.795 -0.53047 0.517381 0
M  V30 1753 H 179.442 -0.787655 1.74552 0
M  V30 1754 H 177.747 -3.38461 1.9736 0
M  V30 1755 H 179.444 -3.25452 2.34269 0
M  V30 1756 H 176.034 -2.44085 3.52308 0
M  V30 1757 H 180.218 -2.16717 4.46483 0
M  V30 1758 H 175.474 -1.82367 5.83568 0
M  V30 1759 H 179.648 -1.55974 6.78708 0
M  V30 1760 H 177.275 -1.38258 7.47522 0
M  V30 1761 N 178.85 -1.27639 -0.924453 0
M  V30 1762 C 180.097 -1.14167 -1.67249 0
M  V30 1763 C 180.425 0.311863 -1.91984 0
M  V30 1764 O 179.68 1.24425 -1.51053 0
M  V30 1765 C 179.979 -1.87407 -3.04325 0
M  V30 1766 C 179.645 -3.37249 -2.99289 0
M  V30 1767 C 178.307 -3.7812 -2.97622 0
M  V30 1768 C 180.659 -4.32845 -2.90336 0
M  V30 1769 C 177.987 -5.12944 -2.8479 0
M  V30 1770 C 180.339 -5.6773 -2.79045 0
M  V30 1771 C 179.003 -6.07889 -2.7573 0
M  V30 1772 H 178.273 -0.417766 -0.612007 0
M  V30 1773 H 180.92 -1.58286 -1.07786 0
M  V30 1774 H 179.225 -1.35805 -3.67511 0
M  V30 1775 H 180.922 -1.74408 -3.61086 0
M  V30 1776 H 177.512 -3.04748 -3.01374 0
M  V30 1777 H 181.696 -4.02239 -2.90719 0
M  V30 1778 H 176.952 -5.432 -2.80612 0
M  V30 1779 H 181.126 -6.41472 -2.71083 0
M  V30 1780 H 178.753 -7.12314 -2.65544 0
M  V30 1781 N 180.328 1.1314 -1.09713 0
M  V30 1782 C 181.558 1.88048 -0.855656 0
M  V30 1783 C 181.966 1.79537 0.596919 0
M  V30 1784 O 181.309 1.16196 1.42282 0
M  V30 1785 C 181.371 3.38314 -1.21589 0
M  V30 1786 C 181.035 3.70605 -2.67397 0
M  V30 1787 C 182.032 3.69596 -3.65643 0
M  V30 1788 C 179.717 4.0017 -3.03593 0
M  V30 1789 C 181.711 3.977 -4.9811 0
M  V30 1790 C 179.398 4.27935 -4.36251 0
M  V30 1791 C 180.396 4.26685 -5.33318 0
M  V30 1792 O 180.084 4.53767 -6.63589 0
M  V30 1793 H 179.816 0.60208 -0.307368 0
M  V30 1794 H 182.37 1.44128 -1.46343 0
M  V30 1795 H 180.6 3.82752 -0.551177 0
M  V30 1796 H 182.289 3.94552 -0.953083 0
M  V30 1797 H 183.055 3.46826 -3.39023 0
M  V30 1798 H 178.934 4.00289 -2.2867 0
M  V30 1799 H 182.478 3.9664 -5.73866 0
M  V30 1800 H 178.375 4.50178 -4.62613 0
M  V30 1801 H 179.143 4.71422 -6.69107 0
M  V30 1802 N 181.806 0.884767 1.30421 0
M  V30 1803 C 183.031 0.517288 2.00845 0
M  V30 1804 C 183.456 -0.886779 1.65885 0
M  V30 1805 O 182.814 -1.58768 0.875354 0
M  V30 1806 C 182.862 0.698994 3.5376 0
M  V30 1807 O 181.966 -0.255208 4.1161 0
M  V30 1808 H 181.307 0.203872 0.631927 0
M  V30 1809 H 183.837 1.19225 1.66272 0
M  V30 1810 H 183.847 0.597912 4.03595 0
M  V30 1811 H 182.522 1.72271 3.78544 0
M  V30 1812 H 181.099 -0.10784 3.72744 0
M  V30 1813 N 183.284 -1.43765 0.645699 0
M  V30 1814 C 184.53 -2.02197 0.156271 0
M  V30 1815 C 184.863 -1.50776 -1.22393 0
M  V30 1816 O 184.138 -0.697771 -1.81553 0
M  V30 1817 C 184.421 -3.59749 0.158872 0
M  V30 1818 C 184.274 -4.21419 1.57245 0
M  V30 1819 C 185.593 -4.37149 -0.50879 0
M  V30 1820 H 182.712 -0.734694 0.0582602 0
M  V30 1821 H 185.354 -1.71157 0.824951 0
M  V30 1822 H 183.504 -3.86325 -0.410525 0
M  V30 1823 H 185.176 -4.059 2.19186 0
M  V30 1824 H 183.419 -3.78356 2.122 0
M  V30 1825 H 184.09 -5.30482 1.52619 0
M  V30 1826 H 186.566 -4.16093 -0.024412 0
M  V30 1827 H 185.442 -5.4683 -0.476213 0
M  V30 1828 H 185.703 -4.12839 -1.58165 0
M  V30 1829 N 184.763 -0.387143 -1.52771 0
M  V30 1830 C 186.174 0.0873634 -1.86495 0
M  V30 1831 C 186.525 1.46336 -1.30691 0
M  V30 1832 O 185.65 2.068 -0.637409 0
M  V30 1833 C 186.245 0.165305 -3.38396 0
M  V30 1834 C 184.804 0.584101 -3.7184 0
M  V30 1835 C 183.951 -0.255279 -2.76122 0
M  V30 1836 H 186.902 -0.605104 -1.46711 0
M  V30 1837 H 186.923 0.984848 -3.67534 0
M  V30 1838 H 186.435 -0.836301 -3.78982 0
M  V30 1839 H 184.536 1.59315 -3.36823 0
M  V30 1840 H 184.649 0.343749 -4.77865 0
M  V30 1841 H 183.013 0.279126 -2.53166 0
M  V30 1842 H 183.796 -1.25482 -3.19545 0
M  V30 1843 N 186.241 1.57166 -0.116904 0
M  V30 1844 C 187.466 1.999 0.55271 0
M  V30 1845 C 187.891 0.996039 1.59564 0
M  V30 1846 O 187.249 -0.032556 1.81271 0
M  V30 1847 C 187.297 3.4152 1.15742 0
M  V30 1848 O 186.401 3.44106 2.27299 0
M  V30 1849 H 185.742 0.649447 0.138258 0
M  V30 1850 H 188.272 2.03573 -0.204759 0
M  V30 1851 H 188.282 3.79684 1.49346 0
M  V30 1852 H 186.957 4.14034 0.393493 0
M  V30 1853 H 185.534 3.17759 1.9515 0
M  V30 1854 N 187.719 -0.156864 1.56817 0
M  V30 1855 C 189.13 -0.717916 1.72345 0
M  V30 1856 C 189.481 -1.82124 0.729747 0
M  V30 1857 O 188.606 -2.16141 -0.105781 0
M  V30 1858 C 189.201 -1.30904 3.12489 0
M  V30 1859 C 187.76 -1.81676 3.29653 0
M  V30 1860 C 186.907 -0.701349 2.68284 0
M  V30 1861 H 189.858 0.0686989 1.58551 0
M  V30 1862 H 189.879 -2.17882 3.11942 0
M  V30 1863 H 189.391 -0.505796 3.8479 0
M  V30 1864 H 187.492 -2.64598 2.62333 0
M  V30 1865 H 187.605 -1.95226 4.3752 0
M  V30 1866 H 185.969 -1.12548 2.28484 0
M  V30 1867 H 186.752 0.0902846 3.43181 0
M  V30 1868 N 189.197 -1.51736 -0.425897 0
M  V30 1869 C 190.443 -1.65214 -1.1761 0
M  V30 1870 C 190.776 -0.372778 -1.90589 0
M  V30 1871 O 190.051 0.628139 -1.84078 0
M  V30 1872 C 190.334 -2.86312 -2.18398 0
M  V30 1873 C 190.187 -4.24254 -1.49426 0
M  V30 1874 C 191.506 -3.02925 -3.19256 0
M  V30 1875 H 188.625 -0.601263 -0.426206 0
M  V30 1876 H 191.267 -1.8425 -0.463882 0
M  V30 1877 H 189.417 -2.70213 -2.79137 0
M  V30 1878 H 191.089 -4.52046 -0.919362 0
M  V30 1879 H 189.332 -4.26426 -0.796432 0
M  V30 1880 H 190.003 -5.05001 -2.22885 0
M  V30 1881 H 192.479 -3.1781 -2.68581 0
M  V30 1882 H 191.355 -3.89199 -3.8706 0
M  V30 1883 H 191.616 -2.15497 -3.86023 0
M  V30 1884 N 190.675 0.682077 -1.42076 0
M  V30 1885 C 191.905 1.46844 -1.45329 0
M  V30 1886 C 192.313 1.89102 -0.0609328 0
M  V30 1887 O 191.656 1.58238 0.933082 0
M  V30 1888 C 191.718 2.75375 -2.31104 0
M  V30 1889 C 191.382 2.55238 -3.79081 0
M  V30 1890 C 192.379 2.20309 -4.70914 0
M  V30 1891 C 190.064 2.70459 -4.2327 0
M  V30 1892 C 192.058 2.00859 -6.04925 0
M  V30 1893 C 189.745 2.50624 -5.57343 0
M  V30 1894 C 190.743 2.15876 -6.47986 0
M  V30 1895 O 190.431 1.96227 -7.79583 0
M  V30 1896 H 190.163 0.4586 -0.496651 0
M  V30 1897 H 192.717 0.846131 -1.87162 0
M  V30 1898 H 190.947 3.40061 -1.84107 0
M  V30 1899 H 192.636 3.37231 -2.25898 0
M  V30 1900 H 193.402 2.08153 -4.38061 0
M  V30 1901 H 189.281 2.96485 -3.53012 0
M  V30 1902 H 192.825 1.7366 -6.75639 0
M  V30 1903 H 188.722 2.62375 -5.89771 0
M  V30 1904 H 189.49 2.10883 -7.90867 0
M  V30 1905 N 192.153 1.28127 0.917671 0
M  V30 1906 C 193.083 1.14248 2.03641 0
M  V30 1907 C 194.064 0.0412748 1.7005 0
M  V30 1908 O 195.249 0.217566 1.92977 0
M  V30 1909 C 192.379 0.799431 3.37974 0
M  V30 1910 C 191.333 1.85497 3.85713 0
M  V30 1911 C 190.659 1.36565 5.16966 0
M  V30 1912 C 191.959 3.26085 4.08002 0
M  V30 1913 H 193.653 2.07835 2.15511 0
M  V30 1914 H 191.199 1.00064 1.03553 0
M  V30 1915 H 193.152 0.689114 4.15727 0
M  V30 1916 H 191.876 -0.172145 3.26146 0
M  V30 1917 H 190.535 1.95437 3.10161 0
M  V30 1918 H 190.183 0.383253 5.01538 0
M  V30 1919 H 189.883 2.07143 5.49878 0
M  V30 1920 H 191.407 1.26848 5.97279 0
M  V30 1921 H 192.821 3.19089 4.76293 0
M  V30 1922 H 191.218 3.94462 4.52238 0
M  V30 1923 H 192.288 3.70394 3.12948 0
M  V30 1924 N 193.631 -1.12557 1.10312 0
M  V30 1925 C 194.594 -2.16434 0.75424 0
M  V30 1926 C 195.594 -1.59278 -0.220685 0
M  V30 1927 O 196.784 -1.742 0.00230591 0
M  V30 1928 C 193.916 -3.40699 0.116987 0
M  V30 1929 H 195.109 -2.48811 1.67431 0
M  V30 1930 H 192.662 -1.27542 0.903475 0
M  V30 1931 H 193.397 -3.13921 -0.813877 0
M  V30 1932 H 193.182 -3.83459 0.818613 0
M  V30 1933 H 194.672 -4.17451 -0.111387 0
M  V30 1934 N 195.109 -0.891671 -1.2995 0
M  V30 1935 C 196.334 -0.527932 -2.00568 0
M  V30 1936 C 196.759 0.877969 -1.66353 0
M  V30 1937 O 196.117 1.58301 -0.883762 0
M  V30 1938 C 196.165 -0.717745 -3.53385 0
M  V30 1939 O 195.269 0.233376 -4.11739 0
M  V30 1940 H 194.61 -0.20722 -0.630837 0
M  V30 1941 H 197.14 -1.20105 -1.65638 0
M  V30 1942 H 197.15 -0.619307 -4.03272 0
M  V30 1943 H 195.825 -1.74276 -3.77625 0
M  V30 1944 H 194.402 0.0880706 -3.72796 0
M  V30 1945 N 196.587 1.43421 -0.653314 0
M  V30 1946 C 197.998 1.85065 -0.246537 0
M  V30 1947 C 198.349 1.54688 1.2069 0
M  V30 1948 O 197.474 0.995896 1.92122 0
M  V30 1949 C 198.069 3.35922 -0.440666 0
M  V30 1950 C 196.628 3.76297 -0.0882064 0
M  V30 1951 C 195.775 2.67147 -0.743484 0
M  V30 1952 H 198.726 1.33572 -0.856979 0
M  V30 1953 H 198.747 3.79204 0.313798 0
M  V30 1954 H 198.259 3.58 -1.49858 0
M  V30 1955 H 196.36 3.5983 0.96711 0
M  V30 1956 H 196.473 4.76338 -0.513738 0
M  V30 1957 H 194.837 2.54086 -0.176712 0
M  V30 1958 H 195.62 2.92053 -1.80443 0
M  V30 1959 N 198.065 0.39524 1.52563 0
M  V30 1960 C 199.015 -0.4541 2.23432 0
M  V30 1961 C 199.999 -1.02482 1.24042 0
M  V30 1962 O 201.191 -0.949938 1.49349 0
M  V30 1963 C 198.32 -1.57769 3.049 0
M  V30 1964 C 197.406 -1.01842 4.1169 0
M  V30 1965 N 197.797 -0.184613 5.05463 0
M  V30 1966 C 196.095 -1.29033 4.26927 0
M  V30 1967 C 196.796 0.125013 5.81566 0
M  V30 1968 N 195.772 -0.480498 5.41472 0
M  V30 1969 H 199.574 0.189413 2.93289 0
M  V30 1970 H 197.088 0.204877 1.61102 0
M  V30 1971 H 199.085 -2.19862 3.54212 0
M  V30 1972 H 197.745 -2.22397 2.36579 0
M  V30 1973 H 198.756 0.178602 5.17592 0
M  V30 1974 H 195.433 -1.93721 3.69836 0
M  V30 1975 H 196.823 0.800962 6.67109 0
M  V30 1976 N 199.544 -1.57102 0.125237 0
M  V30 1977 C 200.474 -2.18659 -0.819174 0
M  V30 1978 C 201.455 -1.12843 -1.27281 0
M  V30 1979 O 202.64 -1.41104 -1.33429 0
M  V30 1980 C 199.77 -2.79096 -2.06695 0
M  V30 1981 C 198.724 -3.90548 -1.75088 0
M  V30 1982 C 198.05 -4.37821 -3.06948 0
M  V30 1983 C 199.35 -5.12356 -1.01435 0
M  V30 1984 H 201.044 -2.9783 -0.306202 0
M  V30 1985 H 198.59 -1.4326 -0.145839 0
M  V30 1986 H 200.543 -3.2082 -2.73226 0
M  V30 1987 H 199.267 -1.97223 -2.60328 0
M  V30 1988 H 197.926 -3.49409 -1.10944 0
M  V30 1989 H 197.574 -3.52799 -3.58527 0
M  V30 1990 H 197.274 -5.12982 -2.86571 0
M  V30 1991 H 198.798 -4.822 -3.74587 0
M  V30 1992 H 200.212 -5.5106 -1.58132 0
M  V30 1993 H 198.609 -5.9314 -0.911319 0
M  V30 1994 H 199.679 -4.849 -0.00218681 0
M  V30 1995 N 201.022 0.148545 -1.56898 0
M  V30 1996 C 202.433 0.708766 -1.72723 0
M  V30 1997 C 202.784 1.81734 -0.739395 0
M  V30 1998 O 201.909 2.16194 0.0943169 0
M  V30 1999 C 202.504 1.29245 -3.13179 0
M  V30 2000 C 201.063 1.79925 -3.30611 0
M  V30 2001 C 200.21 0.687111 -2.68652 0
M  V30 2002 H 203.161 -0.0771063 -1.58513 0
M  V30 2003 H 203.182 2.16224 -3.13093 0
M  V30 2004 H 202.694 0.485382 -3.85053 0
M  V30 2005 H 200.795 2.63203 -2.63732 0
M  V30 2006 H 200.908 1.92903 -4.38549 0
M  V30 2007 H 199.272 1.11335 -2.29078 0
M  V30 2008 H 200.055 -0.108483 -3.43129 0
M  V30 2009 N 202.5 1.5196 0.417844 0
M  V30 2010 C 203.911 1.57851 0.997 0
M  V30 2011 C 204.262 0.413714 1.91789 0
M  V30 2012 O 203.387 -0.467057 2.113 0
M  V30 2013 C 203.982 2.86085 1.81496 0
M  V30 2014 C 202.541 2.94483 2.34428 0
M  V30 2015 C 201.688 2.52707 1.14169 0
M  V30 2016 H 204.639 1.57455 0.198392 0
M  V30 2017 H 204.66 2.70947 2.67148 0
M  V30 2018 H 204.172 3.70842 1.14446 0
M  V30 2019 H 202.273 2.142 3.04875 0
M  V30 2020 H 202.386 3.98546 2.65891 0
M  V30 2021 H 200.75 2.06353 1.49301 0
M  V30 2022 H 201.533 3.39828 0.486999 0
M  V30 2023 N 203.978 -0.674533 1.42435 0
M  V30 2024 C 204.941 -1.76986 1.45632 0
M  V30 2025 C 205.941 -1.5708 0.343871 0
M  V30 2026 O 207.131 -1.63367 0.604709 0
M  V30 2027 C 204.263 -3.15623 1.28822 0
M  V30 2028 H 205.456 -1.75539 2.43158 0
M  V30 2029 H 203.009 -0.884189 1.28887 0
M  V30 2030 H 203.744 -3.22696 0.322193 0
M  V30 2031 H 203.529 -3.31475 2.09444 0
M  V30 2032 H 205.019 -3.95537 1.33942 0
M  V30 2033 N 205.456 -1.28612 -0.910864 0
M  V30 2034 C 206.686 -1.1862 -1.69153 0
M  V30 2035 C 207.094 0.257324 -1.87442 0
M  V30 2036 O 206.437 1.18543 -1.40332 0
M  V30 2037 C 206.499 -1.81606 -3.10257 0
M  V30 2038 C 206.163 -3.30864 -3.15243 0
M  V30 2039 C 207.16 -4.27256 -2.96223 0
M  V30 2040 C 204.845 -3.71871 -3.37664 0
M  V30 2041 C 206.839 -5.62631 -2.99541 0
M  V30 2042 C 204.526 -5.07371 -3.40614 0
M  V30 2043 C 205.524 -6.02561 -3.21573 0
M  V30 2044 O 205.212 -7.35589 -3.2429 0
M  V30 2045 H 204.944 -0.412633 -0.535453 0
M  V30 2046 H 207.498 -1.70306 -1.14827 0
M  V30 2047 H 205.728 -1.24418 -3.66138 0
M  V30 2048 H 207.417 -1.66092 -3.70362 0
M  V30 2049 H 208.183 -3.9691 -2.78725 0
M  V30 2050 H 204.062 -2.98241 -3.5153 0
M  V30 2051 H 207.606 -6.36907 -2.84597 0
M  V30 2052 H 203.503 -5.37366 -3.57642 0
M  V30 2053 H 204.271 -7.44252 -3.40633 0
M  V30 2054 N 206.934 1.1197 -1.10907 0
M  V30 2055 C 208.211 1.79959 -0.766432 0
M  V30 2056 C 208.591 1.97466 0.746363 0
M  V30 2057 O 207.939 1.55491 1.67436 0
M  V30 2058 C 208.149 3.14009 -1.52314 0
M  V30 2059 C 209.497 3.89134 -1.69883 0
M  V30 2060 O 210.521 3.2368 -1.48692 0
M  V30 2061 O 209.38 5.06572 -2.05054 0
M  V30 2062 H 206.474 0.779208 -0.277062 0
M  V30 2063 H 209.02 1.18762 -1.21217 0
M  V30 2064 H 207.792 2.96587 -2.55249 0
M  V30 2065 H 207.415 3.82915 -1.07059 0
M  V30 2066 N 208.412 0.89855 1.29475 0
M  V30 2067 C 209.322 0.379974 2.31502 0
M  V30 2068 C 210.338 -0.524695 1.659 0
M  V30 2069 O 211.514 -0.414551 1.97087 0
M  V30 2070 C 208.579 -0.385138 3.44554 0
M  V30 2071 C 207.64 0.550914 4.2575 0
M  V30 2072 C 206.873 -0.177778 5.33404 0
M  V30 2073 O 207.096 -1.40189 5.52904 0
M  V30 2074 O 206.03 0.479106 5.9999 0
M  V30 2075 H 209.856 1.22639 2.77837 0
M  V30 2076 H 207.441 0.662834 1.33891 0
M  V30 2077 H 209.323 -0.817841 4.13388 0
M  V30 2078 H 207.998 -1.20763 3.0033 0
M  V30 2079 H 206.905 1.03271 3.59564 0
M  V30 2080 H 208.238 1.33979 4.73614 0
M  V30 2081 N 209.89 -1.43072 0.660911 0
M  V30 2082 C 211.301 -1.84932 0.256348 0
M  V30 2083 C 211.652 -1.55325 -1.19868 0
M  V30 2084 O 210.777 -1.00607 -1.91591 0
M  V30 2085 C 211.372 -3.35684 0.458475 0
M  V30 2086 C 209.931 -3.76245 0.108161 0
M  V30 2087 C 209.078 -2.66749 0.757641 0
M  V30 2088 H 212.029 -1.33116 0.864051 0
M  V30 2089 H 212.05 -3.79365 -0.293683 0
M  V30 2090 H 211.562 -3.572 1.51755 0
M  V30 2091 H 209.663 -3.60338 -0.948014 0
M  V30 2092 H 209.776 -4.76058 0.538992 0
M  V30 2093 H 208.14 -2.53989 0.190185 0
M  V30 2094 H 208.923 -2.91092 1.81989 0
M  V30 2095 N 211.368 -0.403325 -1.52352 0
M  V30 2096 C 212.596 0.174012 -2.06167 0
M  V30 2097 C 213.011 1.39347 -1.27388 0
M  V30 2098 O 212.368 1.79597 -0.324201 0
M  V30 2099 C 212.419 0.530223 -3.5759 0
M  V30 2100 O 212.14 -0.640806 -4.33388 0
M  V30 2101 C 213.641 1.16192 -4.27802 0
M  V30 2102 H 210.861 0.0229464 -0.670608 0
M  V30 2103 H 213.405 -0.572604 -1.9632 0
M  V30 2104 H 211.56 1.22673 -3.67464 0
M  V30 2105 H 211.974 -0.344851 -5.23365 0
M  V30 2106 H 213.448 1.36141 -5.34948 0
M  V30 2107 H 213.925 2.13335 -3.83907 0
M  V30 2108 H 214.531 0.505775 -4.22282 0
M  V30 2109 N 212.846 1.57033 -0.133567 0
M  V30 2110 C 214.074 2.00044 0.528195 0
M  V30 2111 C 214.489 1.01349 1.59291 0
M  V30 2112 O 213.846 0.00848369 1.82498 0
M  V30 2113 C 213.897 3.43018 1.1411 0
M  V30 2114 O 213.618 4.37939 0.11892 0
M  V30 2115 C 215.119 4.01237 1.88477 0
M  V30 2116 H 212.339 0.656517 0.138661 0
M  V30 2117 H 214.883 2.03267 -0.224196 0
M  V30 2118 H 213.038 3.40688 1.84418 0
M  V30 2119 H 213.452 5.21436 0.56613 0
M  V30 2120 H 214.926 5.03314 2.26669 0
M  V30 2121 H 215.403 3.41193 2.76558 0
M  V30 2122 H 216.009 4.07156 1.22898 0
M  V30 2123 N 214.325 -0.140222 1.56975 0
M  V30 2124 C 215.736 -0.699596 1.73097 0
M  V30 2125 C 216.087 -1.8134 0.749022 0
M  V30 2126 O 215.212 -2.16241 -0.0828503 0
M  V30 2127 C 215.807 -1.27582 3.1386 0
M  V30 2128 C 214.366 -1.78169 3.31561 0
M  V30 2129 C 213.513 -0.672855 2.69013 0
M  V30 2130 H 216.464 0.0855115 1.58469 0
M  V30 2131 H 216.485 -2.14561 3.14235 0
M  V30 2132 H 215.997 -0.464955 3.85305 0
M  V30 2133 H 214.098 -2.61801 2.65124 0
M  V30 2134 H 214.211 -1.90574 4.39566 0
M  V30 2135 H 212.575 -1.10118 2.29665 0
M  V30 2136 H 213.358 0.126679 3.43066 0
M  V30 2137 N 215.803 -1.52179 -0.40978 0
M  V30 2138 C 217.051 -1.65878 -1.15451 0
M  V30 2139 C 217.372 -0.390771 -1.91044 0
M  V30 2140 O 216.642 0.594323 -1.86667 0
M  V30 2141 H 215.222 -0.611405 -0.429177 0
M  V30 2142 H 217.884 -1.89219 -0.467134 0
M  V30 2143 H 216.98 -2.49954 -1.86894 0
M  V30 2144 N 217.281 0.66697 -1.42791 0
M  V30 2145 C 218.527 1.4291 -1.43891 0
M  V30 2146 C 218.86 1.94114 -0.0578972 0
M  V30 2147 O 218.135 1.71414 0.91911 0
M  V30 2148 C 218.418 2.62049 -2.46987 0
M  V30 2149 C 218.271 2.16426 -3.94309 0
M  V30 2150 C 219.59 3.64266 -2.46978 0
M  V30 2151 H 216.709 0.518306 -0.523954 0
M  V30 2152 H 219.351 0.757321 -1.74255 0
M  V30 2153 H 217.501 3.19361 -2.21225 0
M  V30 2154 H 219.173 1.64221 -4.31079 0
M  V30 2155 H 217.416 1.47925 -4.078 0
M  V30 2156 H 218.087 3.02038 -4.62036 0
M  V30 2157 H 220.563 3.16686 -2.69906 0
M  V30 2158 H 219.439 4.45196 -3.21079 0
M  V30 2159 H 219.7 4.15927 -1.49857 0
M  V30 2160 N 218.759 1.29093 0.90403 0
M  V30 2161 C 219.987 1.19689 1.68766 0
M  V30 2162 C 220.402 -0.243113 1.87228 0
M  V30 2163 O 219.759 -1.16326 1.40621 0
M  V30 2164 C 219.81 1.90144 3.07453 0
M  V30 2165 O 219.531 3.2852 2.89838 0
M  V30 2166 C 221.032 1.87162 4.01852 0
M  V30 2167 H 218.252 0.415035 0.527244 0
M  V30 2168 H 220.796 1.7039 1.13082 0
M  V30 2169 H 218.951 1.43289 3.59926 0
M  V30 2170 H 219.365 3.63944 3.77684 0
M  V30 2171 H 220.839 2.41032 4.96596 0
M  V30 2172 H 221.316 0.84617 4.30972 0
M  V30 2173 H 221.922 2.33741 3.5531 0
M  V30 2174 N 220.237 -1.11381 1.11499 0
M  V30 2175 C 221.514 -1.7955 0.775965 0
M  V30 2176 C 221.894 -1.97859 -0.73588 0
M  V30 2177 O 221.242 -1.56376 -1.66609 0
M  V30 2178 C 221.452 -3.13196 1.53977 0
M  V30 2179 C 222.8 -3.88227 1.71944 0
M  V30 2180 O 223.824 -3.22887 1.50407 0
M  V30 2181 O 222.683 -5.05477 2.07738 0
M  V30 2182 H 219.777 -0.777728 0.28119 0
M  V30 2183 H 222.323 -1.18118 1.21845 0
M  V30 2184 H 221.095 -2.95229 2.56818 0
M  V30 2185 H 220.718 -3.82342 1.09088 0
M  V30 2186 N 221.715 -0.905404 -1.28997 0
M  V30 2187 C 222.964 -0.530191 -1.94607 0
M  V30 2188 C 223.277 0.929185 -1.72121 0
M  V30 2189 O 224.483 1.41218 -2.31883 0
M  V30 2190 C 222.939 -0.897333 -3.48534 0
M  V30 2191 C 222.547 -2.37587 -3.79811 0
M  V30 2192 C 224.291 -0.592304 -4.20347 0
M  V30 2193 C 222.198 -2.68357 -5.27009 0
M  V30 2194 H 221.128 -0.194558 -0.728466 0
M  V30 2195 H 223.779 -1.10318 -1.46636 0
M  V30 2196 H 222.161 -0.253214 -3.9519 0
M  V30 2197 H 223.335 -3.06602 -3.43994 0
M  V30 2198 H 221.65 -2.6505 -3.2115 0
M  V30 2199 H 224.247 -0.798975 -5.28697 0
M  V30 2200 H 224.59 0.469474 -4.13644 0
M  V30 2201 H 225.123 -1.19452 -3.79442 0
M  V30 2202 H 221.862 -3.73355 -5.38782 0
M  V30 2203 H 221.382 -2.03971 -5.64053 0
M  V30 2204 H 223.061 -2.54922 -5.94663 0
M  V30 2205 N 223.193 1.4272 -0.668489 0
M  V30 2206 C 224.609 1.55992 -0.33745 0
M  V30 2207 C 224.809 1.64933 1.15756 0
M  V30 2208 O 223.865 1.61278 1.94282 0
M  V30 2209 C 225.178 2.81314 -1.06222 0
M  V30 2210 C 226.726 2.95078 -1.04394 0
M  V30 2211 C 227.201 4.23252 -1.74991 0
M  V30 2212 N 228.692 4.3015 -1.71829 0
M  V30 2213 C 229.427 5.28127 -2.23315 0
M  V30 2214 N 228.923 6.32293 -2.83156 0
M  V30 2215 N 230.716 5.19882 -2.13726 0
M  V30 2216 H 222.867 1.3516 -1.63846 0
M  V30 2217 H 225.13 0.650174 -0.689912 0
M  V30 2218 H 224.836 2.80823 -2.11734 0
M  V30 2219 H 224.71 3.72012 -0.62344 0
M  V30 2220 H 227.097 2.951 0.0028244 0
M  V30 2221 H 227.178 2.05627 -1.52155 0
M  V30 2222 H 226.822 4.2399 -2.79633 0
M  V30 2223 H 226.752 5.11626 -1.24685 0
M  V30 2224 H 229.243 3.55499 -1.28175 0
M  V30 2225 H 229.556 7.03398 -3.20079 0
M  V30 2226 H 227.901 6.32873 -2.87223 0
M  V30 2227 H 231.092 4.37423 -1.66669 0
M  V30 2228 H 231.265 5.96077 -2.54158 0
M  V30 2229 N 224.671 0.411399 1.52136 0
M  V30 2230 C 225.917 -0.163888 2.02137 0
M  V30 2231 C 226.25 -1.44597 1.29636 0
M  V30 2232 O 225.525 -1.90272 0.403353 0
M  V30 2233 C 225.808 -0.40927 3.57767 0
M  V30 2234 C 225.661 0.889643 4.40914 0
M  V30 2235 C 226.98 -1.19042 4.23694 0
M  V30 2236 H 224.099 -0.0580896 0.734707 0
M  V30 2237 H 226.741 0.54531 1.82007 0
M  V30 2238 H 224.891 -1.0134 3.7505 0
M  V30 2239 H 226.563 1.52575 4.35337 0
M  V30 2240 H 224.806 1.50011 4.07037 0
M  V30 2241 H 225.477 0.672314 5.4789 0
M  V30 2242 H 227.953 -0.678942 4.10524 0
M  V30 2243 H 226.829 -1.33086 5.32522 0
M  V30 2244 H 227.09 -2.21166 3.82803 0
M  V30 2245 N 226.149 -1.5696 0.141893 0
M  V30 2246 C 227.079 -2.19516 -0.795936 0
M  V30 2247 C 228.06 -1.14187 -1.26077 0
M  V30 2248 O 229.245 -1.42511 -1.31925 0
M  V30 2249 C 226.375 -2.81272 -2.03723 0
M  V30 2250 C 225.329 -3.92384 -1.70936 0
M  V30 2251 C 224.655 -4.41052 -3.02287 0
M  V30 2252 C 225.955 -5.13403 -0.959954 0
M  V30 2253 H 227.649 -2.98138 -0.274596 0
M  V30 2254 H 225.195 -1.43406 -0.130636 0
M  V30 2255 H 227.148 -3.237 -2.69808 0
M  V30 2256 H 225.872 -1.99973 -2.58221 0
M  V30 2257 H 224.531 -3.50566 -1.07232 0
M  V30 2258 H 224.179 -3.56582 -3.54765 0
M  V30 2259 H 223.879 -5.15993 -2.81114 0
M  V30 2260 H 225.403 -4.86146 -3.69451 0
M  V30 2261 H 226.817 -5.52706 -1.52279 0
M  V30 2262 H 225.214 -5.94073 -0.848357 0
M  V30 2263 H 226.284 -4.84875 0.0492434 0
M  V30 2264 N 227.627 0.131896 -1.57047 0
M  V30 2265 C 228.873 0.838268 -1.85323 0
M  V30 2266 C 229.228 1.78098 -0.727937 0
M  V30 2267 O 228.521 1.89645 0.27304 0
M  V30 2268 C 228.715 1.63703 -3.17704 0
M  V30 2269 C 228.544 0.773167 -4.43004 0
M  V30 2270 C 227.314 0.432956 -5.03442 0
M  V30 2271 C 229.512 0.0966216 -5.14209 0
M  V30 2272 N 227.494 -0.442924 -6.123 0
M  V30 2273 C 228.865 -0.638778 -6.16701 0
M  V30 2274 C 230.92 0.018861 -4.97896 0
M  V30 2275 C 229.623 -1.44462 -7.04644 0
M  V30 2276 C 231.649 -0.773762 -5.86316 0
M  V30 2277 C 231.011 -1.4974 -6.883 0
M  V30 2278 H 227.11 0.284086 -0.728573 0
M  V30 2279 H 229.694 0.102731 -1.94429 0
M  V30 2280 H 227.865 2.3437 -3.09718 0
M  V30 2281 H 229.597 2.28774 -3.33833 0
M  V30 2282 H 226.352 0.772237 -4.67262 0
M  V30 2283 H 226.776 -0.872332 -6.71356 0
M  V30 2284 H 231.418 0.56397 -4.19022 0
M  V30 2285 H 229.136 -2.00093 -7.82936 0
M  V30 2286 H 232.722 -0.83612 -5.75761 0
M  V30 2287 H 231.602 -2.10087 -7.55535 0
M  V30 2288 N 229.106 1.52395 0.401703 0
M  V30 2289 C 230.016 1.7917 1.51444 0
M  V30 2290 C 231.032 0.677691 1.6026 0
M  V30 2291 O 232.208 0.963909 1.76835 0
M  V30 2292 C 229.273 1.94347 2.87107 0
M  V30 2293 C 228.334 3.18257 2.88116 0
M  V30 2294 C 227.567 3.32701 4.17308 0
M  V30 2295 O 227.79 2.52238 5.11598 0
M  V30 2296 O 226.724 4.25891 4.25324 0
M  V30 2297 H 230.55 2.73633 1.31752 0
M  V30 2298 H 228.135 1.3733 0.588296 0
M  V30 2299 H 230.017 2.06109 3.67555 0
M  V30 2300 H 228.692 1.03073 3.06851 0
M  V30 2301 H 227.599 3.11947 2.06494 0
M  V30 2302 H 228.932 4.09336 2.73322 0
M  V30 2303 N 230.584 -0.659388 1.43143 0
M  V30 2304 C 231.494 -1.80167 1.50256 0
M  V30 2305 C 232.51 -1.69571 0.390106 0
M  V30 2306 O 233.686 -1.90849 0.643319 0
M  V30 2307 C 230.751 -3.16409 1.41725 0
M  V30 2308 C 229.812 -3.38848 2.63591 0
M  V30 2309 C 229.045 -4.68591 2.55458 0
M  V30 2310 O 229.268 -5.47532 1.59891 0
M  V30 2311 O 228.202 -4.92614 3.45854 0
M  V30 2312 H 232.028 -1.77121 2.46702 0
M  V30 2313 H 229.613 -0.817092 1.25076 0
M  V30 2314 H 231.495 -3.9768 1.39387 0
M  V30 2315 H 230.17 -3.20059 0.484118 0
M  V30 2316 H 229.077 -2.57366 2.71502 0
M  V30 2317 H 230.41 -3.4004 3.55856 0
M  V30 2318 N 232.062 -1.29571 -0.897171 0
M  V30 2319 C 233.478 -1.07637 -1.17841 0
M  V30 2320 C 233.678 0.170713 -2.00776 0
M  V30 2321 O 232.734 0.867768 -2.3712 0
M  V30 2322 C 234.047 -2.3332 -1.8969 0
M  V30 2323 C 235.595 -2.38664 -2.02505 0
M  V30 2324 C 236.07 -3.64157 -2.77765 0
M  V30 2325 N 237.561 -3.64894 -2.85318 0
M  V30 2326 C 238.296 -4.58679 -3.44094 0
M  V30 2327 N 237.792 -5.62799 -4.04017 0
M  V30 2328 N 239.585 -4.46245 -3.41793 0
M  V30 2329 H 231.736 -2.09598 -0.343883 0
M  V30 2330 H 233.999 -0.923333 -0.214848 0
M  V30 2331 H 233.705 -3.24262 -1.36187 0
M  V30 2332 H 233.579 -2.41025 -2.9015 0
M  V30 2333 H 235.966 -1.48208 -2.55183 0
M  V30 2334 H 236.047 -2.34943 -1.01171 0
M  V30 2335 H 235.691 -4.54965 -2.25763 0
M  V30 2336 H 235.621 -3.65137 -3.7945 0
M  V30 2337 H 238.112 -2.89613 -2.42761 0
M  V30 2338 H 238.425 -6.3048 -4.46895 0
M  V30 2339 H 236.77 -5.66605 -4.02472 0
M  V30 2340 H 239.961 -3.64094 -2.94199 0
M  V30 2341 H 240.134 -5.19518 -3.87304 0
M  V30 2342 N 233.54 1.10788 -1.12088 0
M  V30 2343 C 234.503 2.15207 -0.788577 0
M  V30 2344 C 235.503 1.59609 0.195317 0
M  V30 2345 O 236.693 1.74174 -0.0300193 0
M  V30 2346 C 233.825 3.4047 -0.171174 0
M  V30 2347 H 235.018 2.46116 -1.71368 0
M  V30 2348 H 232.571 1.26089 -0.923652 0
M  V30 2349 H 233.306 3.15176 0.763832 0
M  V30 2350 H 233.091 3.82109 -0.879514 0
M  V30 2351 H 234.581 4.17576 0.04496 0
M  V30 2352 N 235.018 0.912232 1.28515 0
M  V30 2353 C 235.981 0.404223 2.25607 0
M  V30 2354 C 236.981 -0.468602 1.53821 0
M  V30 2355 O 238.171 -0.271873 1.72065 0
M  V30 2356 C 235.303 -0.420653 3.38295 0
M  V30 2357 H 236.496 1.26188 2.7206 0
M  V30 2358 H 234.049 0.691495 1.40171 0
M  V30 2359 H 234.784 -1.29777 2.97201 0
M  V30 2360 H 234.569 0.204935 3.91564 0
M  V30 2361 H 236.059 -0.766971 4.10496 0
M  V30 2362 N 236.496 -1.42363 0.676048 0
M  V30 2363 C 237.912 -1.55811 0.345718 0
M  V30 2364 C 238.112 -1.65544 -1.14879 0
M  V30 2365 O 237.168 -1.62306 -1.93424 0
M  V30 2366 C 238.481 -2.80746 1.07713 0
M  V30 2367 C 240.029 -2.9452 1.05958 0
M  V30 2368 C 240.504 -4.22318 1.77233 0
M  V30 2369 N 241.995 -4.29233 1.74108 0
M  V30 2370 C 242.73 -5.26935 2.26113 0
M  V30 2371 N 242.226 -6.30783 2.86505 0
M  V30 2372 N 244.019 -5.18741 2.1648 0
M  V30 2373 H 236.17 -1.34289 1.6456 0
M  V30 2374 H 238.433 -0.646506 0.69335 0
M  V30 2375 H 238.139 -2.79696 2.13221 0
M  V30 2376 H 238.013 -3.71676 0.64316 0
M  V30 2377 H 240.4 -2.95097 0.0128255 0
M  V30 2378 H 240.481 -2.04817 1.53244 0
M  V30 2379 H 240.125 -4.22502 2.81877 0
M  V30 2380 H 240.055 -5.10958 1.27396 0
M  V30 2381 H 242.546 -3.54814 1.30059 0
M  V30 2382 H 242.859 -7.01691 3.23805 0
M  V30 2383 H 241.204 -6.31341 2.90575 0
M  V30 2384 H 244.395 -4.36533 1.68987 0
M  V30 2385 H 244.568 -5.94721 2.57316 0
M  V30 2386 N 237.974 -0.419461 -1.51915 0
M  V30 2387 C 239.221 0.152939 -2.01922 0
M  V30 2388 C 239.549 1.4426 -1.30458 0
M  V30 2389 O 238.804 1.91514 -0.402593 0
M  V30 2390 C 239.103 0.437067 -3.54717 0
M  V30 2391 C 238.769 -0.764632 -4.44369 0
M  V30 2392 C 237.431 -1.09423 -4.68594 0
M  V30 2393 C 239.783 -1.56713 -4.97082 0
M  V30 2394 C 237.111 -2.22732 -5.42777 0
M  V30 2395 C 239.463 -2.69107 -5.72507 0
M  V30 2396 C 238.127 -3.02541 -5.95 0
M  V30 2397 H 237.397 0.0559644 -0.738884 0
M  V30 2398 H 240.044 -0.562998 -1.83037 0
M  V30 2399 H 238.349 1.23469 -3.71837 0
M  V30 2400 H 240.046 0.893083 -3.90928 0
M  V30 2401 H 236.636 -0.497775 -4.257 0
M  V30 2402 H 240.82 -1.32571 -4.78266 0
M  V30 2403 H 236.076 -2.48971 -5.58411 0
M  V30 2404 H 240.25 -3.31671 -6.12346 0
M  V30 2405 H 237.877 -3.90457 -6.52264 0
M  V30 2406 N 239.452 1.56882 -0.150215 0
M  V30 2407 C 240.415 2.1573 0.774157 0
M  V30 2408 C 241.415 1.0999 1.17298 0
M  V30 2409 O 242.605 1.35613 1.09338 0
M  V30 2410 C 239.737 2.72302 2.05096 0
M  V30 2411 H 240.93 2.98752 0.262201 0
M  V30 2412 H 238.483 1.55985 0.099248 0
M  V30 2413 H 239.218 1.92956 2.6065 0
M  V30 2414 H 239.003 3.49665 1.77416 0
M  V30 2415 H 240.493 3.17632 2.71109 0
M  V30 2416 N 240.93 -0.123565 1.57115 0
M  V30 2417 C 242.207 -0.862196 1.75572 0
M  V30 2418 C 242.587 -1.98279 0.724475 0
M  V30 2419 O 241.935 -2.27102 -0.252407 0
M  V30 2420 C 242.145 -1.38309 3.20424 0
M  V30 2421 C 243.493 -1.83724 3.82793 0
M  V30 2422 O 244.517 -1.47999 3.23998 0
M  V30 2423 O 243.376 -2.49685 4.86127 0
M  V30 2424 H 240.47 -0.409113 0.718718 0
M  V30 2425 H 243.016 -0.107661 1.69358 0
M  V30 2426 H 241.788 -0.578889 3.86994 0
M  V30 2427 H 241.411 -2.20046 3.31158 0
M  V30 2428 N 242.408 -1.52605 -0.393616 0
M  V30 2429 C 243.824 -1.41753 -0.733357 0
M  V30 2430 C 244.024 -0.534293 -1.94287 0
M  V30 2431 O 243.08 -0.0059787 -2.52499 0
M  V30 2432 C 244.393 -2.84531 -0.972772 0
M  V30 2433 C 245.941 -2.93978 -1.07453 0
M  V30 2434 C 246.416 -4.37756 -1.3466 0
M  V30 2435 N 247.907 -4.4106 -1.41492 0
M  V30 2436 C 248.642 -5.49387 -1.642 0
M  V30 2437 N 248.138 -6.67806 -1.8441 0
M  V30 2438 N 249.931 -5.36923 -1.66342 0
M  V30 2439 H 242.082 -2.08555 0.402328 0
M  V30 2440 H 244.345 -0.940654 0.117789 0
M  V30 2441 H 244.051 -3.51353 -0.156204 0
M  V30 2442 H 243.925 -3.26508 -1.88871 0
M  V30 2443 H 246.312 -2.27326 -1.88167 0
M  V30 2444 H 246.393 -2.55435 -0.136605 0
M  V30 2445 H 246.037 -5.04972 -0.544581 0
M  V30 2446 H 245.967 -4.73848 -2.2973 0
M  V30 2447 H 248.458 -3.55705 -1.27601 0
M  V30 2448 H 248.771 -7.46141 -2.01231 0
M  V30 2449 H 247.116 -6.70843 -1.81644 0
M  V30 2450 H 250.307 -4.43381 -1.50102 0
M  V30 2451 H 250.48 -6.21416 -1.837 0
M  V30 2452 N 243.887 0.651787 -1.4349 0
M  V30 2453 C 245.117 1.43728 -1.48411 0
M  V30 2454 C 245.525 1.8893 -0.10103 0
M  V30 2455 O 244.868 1.60182 0.899307 0
M  V30 2456 C 244.93 2.70411 -2.36893 0
M  V30 2457 C 244.594 2.4714 -3.8441 0
M  V30 2458 C 245.591 2.10271 -4.75481 0
M  V30 2459 C 243.276 2.6142 -4.28912 0
M  V30 2460 C 245.27 1.87982 -6.0905 0
M  V30 2461 C 242.957 2.38746 -5.62533 0
M  V30 2462 C 243.955 2.02083 -6.5242 0
M  V30 2463 O 243.643 1.79647 -7.8357 0
M  V30 2464 H 243.375 0.447962 -0.506267 0
M  V30 2465 H 245.929 0.80624 -1.88915 0
M  V30 2466 H 244.159 3.36079 -1.91278 0
M  V30 2467 H 245.848 3.32364 -2.33 0
M  V30 2468 H 246.614 1.98814 -4.42378 0
M  V30 2469 H 242.493 2.88931 -3.59222 0
M  V30 2470 H 246.037 1.5929 -6.7917 0
M  V30 2471 H 241.934 2.49806 -5.95203 0
M  V30 2472 H 242.702 1.9406 -7.95162 0
M  V30 2473 N 245.365 1.30045 0.890287 0
M  V30 2474 C 246.613 1.18327 1.63839 0
M  V30 2475 C 246.934 -0.263455 1.93212 0
M  V30 2476 O 246.204 -1.17856 1.56482 0
M  V30 2477 H 244.784 0.434933 0.607324 0
M  V30 2478 H 247.446 1.631 1.06698 0
M  V30 2479 H 246.542 1.74024 2.59079 0
M  V30 2480 N 246.843 -1.10192 1.12674 0
M  V30 2481 C 248.254 -1.63707 0.897604 0
M  V30 2482 C 248.605 -1.87812 -0.567546 0
M  V30 2483 O 247.73 -1.62196 -1.43253 0
M  V30 2484 C 248.325 -2.974 1.62292 0
M  V30 2485 C 246.884 -3.47772 1.43986 0
M  V30 2486 C 246.031 -2.22332 1.65722 0
M  V30 2487 H 248.982 -0.936587 1.28116 0
M  V30 2488 H 249.003 -3.64986 1.07541 0
M  V30 2489 H 248.515 -2.79824 2.68924 0
M  V30 2490 H 246.616 -3.70487 0.396206 0
M  V30 2491 H 246.729 -4.25723 2.19765 0
M  V30 2492 H 245.093 -2.30599 1.08149 0
M  V30 2493 H 245.876 -2.07285 2.73657 0
M  V30 2494 N 248.321 -0.919034 -1.28029 0
M  V30 2495 C 249.549 -0.570971 -1.98866 0
M  V30 2496 C 249.964 0.848996 -1.68634 0
M  V30 2497 O 249.321 1.56307 -0.942036 0
M  V30 2498 C 249.372 -0.776876 -3.53054 0
M  V30 2499 O 249.093 -2.14097 -3.82222 0
M  V30 2500 C 250.594 -0.436356 -4.41147 0
M  V30 2501 H 247.814 -0.217175 -0.634883 0
M  V30 2502 H 250.358 -1.23368 -1.63097 0
M  V30 2503 H 248.513 -0.161085 -3.87065 0
M  V30 2504 H 248.927 -2.18455 -4.76841 0
M  V30 2505 H 250.401 -0.63117 -5.4838 0
M  V30 2506 H 250.878 0.627686 -4.34692 0
M  V30 2507 H 251.484 -1.02991 -4.12641 0
M  V30 2508 N 249.799 1.42003 -0.683588 0
M  V30 2509 C 250.729 2.33487 -0.024866 0
M  V30 2510 C 251.71 1.51163 0.779975 0
M  V30 2511 O 252.895 1.79739 0.735362 0
M  V30 2512 C 250.025 3.3487 0.920836 0
M  V30 2513 C 248.979 4.27414 0.223958 0
M  V30 2514 C 248.305 5.19074 1.2832 0
M  V30 2515 C 249.605 5.14445 -0.90242 0
M  V30 2516 H 251.299 2.88819 -0.788921 0
M  V30 2517 H 248.845 1.38873 -0.38083 0
M  V30 2518 H 250.798 3.97787 1.39081 0
M  V30 2519 H 249.522 2.77861 1.71642 0
M  V30 2520 H 248.181 3.65904 -0.225864 0
M  V30 2521 H 247.829 4.58387 2.071 0
M  V30 2522 H 247.529 5.81822 0.821995 0
M  V30 2523 H 249.053 5.84867 1.75392 0
M  V30 2524 H 250.467 5.70998 -0.513272 0
M  V30 2525 H 248.864 5.86072 -1.28997 0
M  V30 2526 H 249.934 4.52322 -1.74737 0
M  V30 2527 N 251.277 0.427512 1.51691 0
M  V30 2528 C 252.225 -0.403359 2.29076 0
M  V30 2529 C 253.219 -1.02962 1.34518 0
M  V30 2530 O 254.425 -0.965715 1.51901 0
M  V30 2531 H 250.8 -0.148879 0.737115 0
M  V30 2532 H 252.771 0.270295 2.97173 0
M  V30 2533 C 251.52 -1.49763 3.13794 0
M  V30 2534 H 250.843 -1.02508 3.86435 0
M  V30 2535 H 252.283 -2.05244 3.71014 0
M  V30 2536 C 250.742 -2.47536 2.28533 0
M  V30 2537 O 251.272 -3.51848 1.93819 0
M  V30 2538 N 249.478 -2.18187 1.91945 0
M  V30 2539 H 249.025 -1.33389 2.20375 0
M  V30 2540 H 248.983 -2.83848 1.35195 0
M  V30 2541 N 252.755 -1.56801 0.158532 0
M  V30 2542 C 254.171 -1.5837 -0.197774 0
M  V30 2543 C 254.371 -1.17334 -1.63814 0
M  V30 2544 O 253.427 -0.878988 -2.36707 0
M  V30 2545 C 254.74 -3.00615 0.0714459 0
M  V30 2546 C 256.288 -3.12999 0.00864533 0
M  V30 2547 C 256.763 -4.57313 0.250685 0
M  V30 2548 N 258.254 -4.62777 0.198014 0
M  V30 2549 C 258.989 -5.72271 0.359642 0
M  V30 2550 N 258.485 -6.90371 0.579625 0
M  V30 2551 N 260.278 -5.61318 0.296438 0
M  V30 2552 H 252.429 -1.81765 1.09887 0
M  V30 2553 H 254.692 -0.841849 0.435884 0
M  V30 2554 H 254.398 -3.35068 1.06874 0
M  V30 2555 H 254.272 -3.71683 -0.642757 0
M  V30 2556 H 256.659 -2.7838 -0.979217 0
M  V30 2557 H 256.74 -2.44393 0.755359 0
M  V30 2558 H 256.384 -4.92639 1.2357 0
M  V30 2559 H 256.314 -5.24061 -0.516489 0
M  V30 2560 H 258.805 -3.77885 0.0331115 0
M  V30 2561 H 259.118 -7.69689 0.69275 0
M  V30 2562 H 257.463 -6.92264 0.616087 0
M  V30 2563 H 260.654 -4.67932 0.125258 0
M  V30 2564 H 260.827 -6.46599 0.425831 0
M  V30 2565 N 254.233 0.115231 -1.57178 0
M  V30 2566 C 255.649 0.468877 -1.52557 0
M  V30 2567 C 255.849 1.81649 -0.872125 0
M  V30 2568 O 254.905 2.48347 -0.45606 0
M  V30 2569 C 256.218 0.4499 -2.97315 0
M  V30 2570 C 257.766 0.533185 -3.08425 0
M  V30 2571 C 258.241 0.54456 -4.54751 0
M  V30 2572 N 259.732 0.605892 -4.5922 0
M  V30 2573 C 260.467 0.636203 -5.6986 0
M  V30 2574 N 259.963 0.623931 -6.89985 0
M  V30 2575 N 261.756 0.679496 -5.57978 0
M  V30 2576 H 253.907 -0.767712 -1.9804 0
M  V30 2577 H 256.17 -0.283609 -0.904583 0
M  V30 2578 H 255.876 -0.472721 -3.48509 0
M  V30 2579 H 255.75 1.27632 -3.5495 0
M  V30 2580 H 258.137 1.44623 -2.57232 0
M  V30 2581 H 258.218 -0.320995 -2.53778 0
M  V30 2582 H 257.862 -0.364452 -5.06591 0
M  V30 2583 H 257.792 1.41568 -5.07214 0
M  V30 2584 H 260.283 0.621386 -3.72756 0
M  V30 2585 H 260.596 0.649787 -7.70063 0
M  V30 2586 H 258.941 0.591296 -6.9248 0
M  V30 2587 H 262.132 0.686472 -4.63039 0
M  V30 2588 H 262.305 0.69965 -6.44212 0
M  V30 2589 N 255.711 1.52812 0.385517 0
M  V30 2590 C 257.127 1.4214 0.725829 0
M  V30 2591 C 257.327 0.544589 1.94001 0
M  V30 2592 O 256.383 0.0193693 2.52493 0
M  V30 2593 C 257.696 2.85042 0.957668 0
M  V30 2594 C 259.244 2.94543 1.05892 0
M  V30 2595 C 259.719 4.38464 1.32337 0
M  V30 2596 N 261.21 4.41804 1.39151 0
M  V30 2597 C 261.945 5.5025 1.61285 0
M  V30 2598 N 261.441 6.68775 1.80866 0
M  V30 2599 N 263.234 5.37798 1.63492 0
M  V30 2600 H 255.385 2.08338 -0.413383 0
M  V30 2601 H 257.648 0.940016 -0.122775 0
M  V30 2602 H 257.354 3.51431 0.137568 0
M  V30 2603 H 257.228 3.27505 1.87137 0
M  V30 2604 H 259.615 2.28321 1.86959 0
M  V30 2605 H 259.696 2.55504 0.123057 0
M  V30 2606 H 259.34 5.05254 0.517793 0
M  V30 2607 H 259.27 4.75059 2.27214 0
M  V30 2608 H 261.761 3.56377 1.25713 0
M  V30 2609 H 262.074 7.47197 1.97271 0
M  V30 2610 H 260.419 6.71797 1.78083 0
M  V30 2611 H 263.61 4.44171 1.47749 0
M  V30 2612 H 263.783 6.22382 1.80402 0
M  V30 2613 N 257.189 -0.644168 1.43834 0
M  V30 2614 C 258.152 -1.73857 1.49353 0
M  V30 2615 C 259.152 -1.56315 0.377112 0
M  V30 2616 O 260.342 -1.62048 0.639226 0
M  V30 2617 C 257.474 -3.12819 1.35488 0
M  V30 2618 H 258.667 -1.70342 2.46827 0
M  V30 2619 H 256.22 -0.856652 1.30733 0
M  V30 2620 H 256.955 -3.2194 0.390569 0
M  V30 2621 H 256.74 -3.26958 2.16428 0
M  V30 2622 H 258.23 -3.92606 1.42302 0
M  V30 2623 N 258.668 -1.30515 -0.883378 0
M  V30 2624 C 259.578 -1.18959 -2.02203 0
M  V30 2625 C 260.594 -0.109172 -1.73657 0
M  V30 2626 O 261.77 -0.324413 -1.9877 0
M  V30 2627 C 258.835 -0.883871 -3.35244 0
M  V30 2628 C 257.896 -2.04982 -3.77201 0
M  V30 2629 C 257.129 -1.75859 -5.03894 0
M  V30 2630 O 257.352 -0.687276 -5.66244 0
M  V30 2631 O 256.286 -2.61146 -5.42297 0
M  V30 2632 H 260.112 -2.14616 -2.1488 0
M  V30 2633 H 257.697 -1.10124 -1.0096 0
M  V30 2634 H 259.579 -0.728644 -4.15053 0
M  V30 2635 H 258.254 0.0427798 -3.23672 0
M  V30 2636 H 257.161 -2.26038 -2.9809 0
M  V30 2637 H 258.494 -2.95825 -3.93381 0
M  V30 2638 N 260.146 1.09593 -1.13257 0
M  V30 2639 C 261.395 1.81105 -0.887917 0
M  V30 2640 C 261.708 1.86563 0.587672 0
M  V30 2641 O 262.914 2.54367 0.949204 0
M  V30 2642 C 261.37 3.25338 -1.53895 0
M  V30 2643 C 260.978 3.28151 -3.04994 0
M  V30 2644 C 262.722 4.01617 -1.37492 0
M  V30 2645 C 260.629 4.66897 -3.6299 0
M  V30 2646 H 259.559 0.678661 -0.328534 0
M  V30 2647 H 262.21 1.23183 -1.36008 0
M  V30 2648 H 260.592 3.8331 -0.994446 0
M  V30 2649 H 261.766 2.79953 -3.66009 0
M  V30 2650 H 260.081 2.65361 -3.20893 0
M  V30 2651 H 262.678 5.04119 -1.78235 0
M  V30 2652 H 263.021 4.15072 -0.31957 0
M  V30 2653 H 263.554 3.50082 -1.88912 0
M  V30 2654 H 260.293 4.58643 -4.68323 0
M  V30 2655 H 259.813 5.15426 -3.06752 0
M  V30 2656 H 261.492 5.3587 -3.62563 0
M  V30 2657 N 261.624 0.925811 1.2754 0
M  V30 2658 C 262.872 0.564138 1.94067 0
M  V30 2659 C 263.193 -0.897188 1.73134 0
M  V30 2660 O 262.463 -1.63573 1.07799 0
M  V30 2661 H 261.043 0.205645 0.718136 0
M  V30 2662 H 263.705 1.1778 1.55287 0
M  V30 2663 H 262.801 0.76881 3.02483 0
M  V30 2664 N 263.102 -1.41638 0.69111 0
M  V30 2665 C 264.032 -2.3347 0.037248 0
M  V30 2666 C 265.013 -1.51575 -0.771947 0
M  V30 2667 O 266.198 -1.80126 -0.72582 0
M  V30 2668 C 263.328 -3.35354 -0.903064 0
M  V30 2669 C 262.282 -4.27526 -0.201288 0
M  V30 2670 C 261.608 -5.19747 -1.25565 0
M  V30 2671 C 262.908 -5.13959 0.929689 0
M  V30 2672 H 264.602 -2.88397 0.804227 0
M  V30 2673 H 262.148 -1.38669 0.388189 0
M  V30 2674 H 264.101 -3.98519 -1.36969 0
M  V30 2675 H 262.825 -2.78767 -1.70166 0
M  V30 2676 H 261.484 -3.65779 0.245265 0
M  V30 2677 H 261.132 -4.59479 -2.04666 0
M  V30 2678 H 260.832 -5.8225 -0.791128 0
M  V30 2679 H 262.356 -5.85789 -1.72288 0
M  V30 2680 H 263.77 -5.70718 0.543546 0
M  V30 2681 H 262.167 -5.85379 1.32103 0
M  V30 2682 H 263.237 -4.51389 1.77133 0
M  V30 2683 N 264.58 -0.43555 -1.51462 0
M  V30 2684 C 265.991 0.0279871 -1.86679 0
M  V30 2685 C 266.342 1.42104 -1.35281 0
M  V30 2686 O 265.467 2.04667 -0.702878 0
M  V30 2687 C 266.062 0.0575626 -3.38751 0
M  V30 2688 C 264.621 0.465507 -3.7351 0
M  V30 2689 C 263.768 -0.342996 -2.75171 0
M  V30 2690 H 266.719 -0.651473 -1.44712 0
M  V30 2691 H 266.74 0.867421 -3.70481 0
M  V30 2692 H 266.252 -0.956448 -3.7613 0
M  V30 2693 H 264.353 1.48519 -3.41721 0
M  V30 2694 H 264.466 0.191546 -4.78717 0
M  V30 2695 H 262.83 0.198442 -2.53926 0
M  V30 2696 H 263.613 -1.35585 -3.15391 0
M  V30 2697 N 266.058 1.56714 -0.166846 0
M  V30 2698 C 267.469 1.83378 0.350646 0
M  V30 2699 C 267.82 1.08646 1.63372 0
M  V30 2700 O 266.945 0.338058 2.13743 0
M  V30 2701 C 267.54 3.32643 0.642963 0
M  V30 2702 C 266.099 3.59818 1.10491 0
M  V30 2703 C 265.246 2.76954 0.138411 0
M  V30 2704 H 268.197 1.53803 -0.391193 0
M  V30 2705 H 268.218 3.49878 1.49551 0
M  V30 2706 H 267.73 3.87007 -0.291055 0
M  V30 2707 H 265.831 3.1086 2.05418 0
M  V30 2708 H 265.944 4.68178 1.01716 0
M  V30 2709 H 264.308 2.4666 0.634911 0
M  V30 2710 H 265.091 3.34097 -0.789549 0
M  V30 2711 N 267.536 -0.106894 1.57237 0
M  V30 2712 C 268.782 -0.81373 1.85759 0
M  V30 2713 C 269.115 -1.78952 0.754315 0
M  V30 2714 O 268.39 -1.93029 -0.23879 0
M  V30 2715 C 268.673 -1.55293 3.24894 0
M  V30 2716 C 268.526 -0.595929 4.45835 0
M  V30 2717 C 269.845 -2.5063 3.61763 0
M  V30 2718 H 266.964 -0.294369 0.67566 0
M  V30 2719 H 269.606 -0.0776472 1.89841 0
M  V30 2720 H 267.756 -2.1804 3.21544 0
M  V30 2721 H 269.428 0.0236262 4.61294 0
M  V30 2722 H 267.671 0.0916191 4.33703 0
M  V30 2723 H 268.342 -1.15004 5.39887 0
M  V30 2724 H 270.818 -1.97982 3.65981 0
M  V30 2725 H 269.694 -2.99376 4.60071 0
M  V30 2726 H 269.955 -3.3385 2.89821 0
M  V30 2727 N 269.014 -1.53014 -0.377408 0
M  V30 2728 C 269.924 -1.81557 -1.48574 0
M  V30 2729 C 270.94 -0.703102 -1.59162 0
M  V30 2730 O 272.116 -0.99192 -1.75279 0
M  V30 2731 C 269.181 -1.9889 -2.83978 0
M  V30 2732 C 268.242 -3.22801 -2.83016 0
M  V30 2733 C 267.475 -3.39298 -4.11962 0
M  V30 2734 O 267.698 -2.60345 -5.0752 0
M  V30 2735 O 266.632 -4.32604 -4.18494 0
M  V30 2736 H 270.458 -2.75695 -1.27382 0
M  V30 2737 H 268.043 -1.38248 -0.566373 0
M  V30 2738 H 269.925 -2.11931 -3.6423 0
M  V30 2739 H 268.6 -1.07942 -3.05172 0
M  V30 2740 H 267.507 -3.15193 -2.01505 0
M  V30 2741 H 268.84 -4.13632 -2.66775 0
M  V30 2742 N 270.492 0.636531 -1.44174 0
M  V30 2743 C 271.769 1.39463 -1.37148 0
M  V30 2744 C 272.149 2.11082 -0.027507 0
M  V30 2745 O 271.497 2.05954 0.989716 0
M  V30 2746 C 271.707 2.36552 -2.56601 0
M  V30 2747 C 273.055 3.00048 -3.00427 0
M  V30 2748 O 274.079 2.46878 -2.56767 0
M  V30 2749 O 272.938 3.96488 -3.76111 0
M  V30 2750 H 270.032 0.623903 -0.542839 0
M  V30 2751 H 272.578 0.662039 -1.56253 0
M  V30 2752 H 271.35 1.82692 -3.46034 0
M  V30 2753 H 270.973 3.17236 -2.39681 0
M  V30 2754 N 271.97 1.30982 0.876444 0
M  V30 2755 C 273.216 1.20474 1.63138 0
M  V30 2756 C 273.549 -0.238096 1.92735 0
M  V30 2757 O 272.824 -1.1692 1.55435 0
M  V30 2758 C 273.107 2.04244 2.96574 0
M  V30 2759 C 272.96 3.56793 2.73896 0
M  V30 2760 C 274.279 1.88684 3.97601 0
M  V30 2761 H 271.398 0.439001 0.591985 0
M  V30 2762 H 274.04 1.60704 1.01361 0
M  V30 2763 H 272.19 1.70063 3.493 0
M  V30 2764 H 273.862 4.01077 2.27892 0
M  V30 2765 H 272.105 3.80548 2.08245 0
M  V30 2766 H 272.776 4.10706 3.68815 0
M  V30 2767 H 275.252 2.18584 3.54062 0
M  V30 2768 H 274.128 2.4961 4.88862 0
M  V30 2769 H 274.389 0.848343 4.33884 0
M  V30 2770 N 273.449 -1.08991 1.13837 0
M  V30 2771 C 274.696 -1.81258 0.902882 0
M  V30 2772 C 275.024 -1.85936 -0.570803 0
M  V30 2773 O 274.279 -1.3267 -1.43865 0
M  V30 2774 C 274.578 -3.27042 1.44147 0
M  V30 2775 C 274.244 -3.4249 2.93276 0
M  V30 2776 C 272.906 -3.46414 3.33992 0
M  V30 2777 C 275.258 -3.4666 3.892 0
M  V30 2778 C 272.586 -3.52091 4.69307 0
M  V30 2779 C 274.938 -3.53872 5.24364 0
M  V30 2780 C 273.602 -3.56066 5.646 0
M  V30 2781 H 272.872 -0.663268 0.330388 0
M  V30 2782 H 275.519 -1.28368 1.42105 0
M  V30 2783 H 273.824 -3.82599 0.844097 0
M  V30 2784 H 275.521 -3.81499 1.23528 0
M  V30 2785 H 272.111 -3.40124 2.60794 0
M  V30 2786 H 276.295 -3.42865 3.58828 0
M  V30 2787 H 271.551 -3.52079 4.9985 0
M  V30 2788 H 275.725 -3.56043 5.98503 0
M  V30 2789 H 273.352 -3.60218 6.69438 0
M  V30 2790 N 274.927 -0.932562 -1.27047 0
M  V30 2791 C 276.175 -0.574422 -1.93765 0
M  V30 2792 C 276.496 0.887993 -1.73608 0
M  V30 2793 O 275.766 1.62999 -1.08665 0
M  V30 2794 H 274.346 -0.209451 -0.717035 0
M  V30 2795 H 277.008 -1.18601 -1.5466 0
M  V30 2796 H 276.104 -0.784841 -3.02071 0
M  V30 2797 N 276.405 1.4127 -0.698611 0
M  V30 2798 C 277.635 2.05205 -0.239644 0
M  V30 2799 C 278.043 1.52684 1.11733 0
M  V30 2800 O 277.386 0.671222 1.70998 0
M  V30 2801 C 277.448 3.59289 -0.123126 0
M  V30 2802 C 277.112 4.34619 -1.41263 0
M  V30 2803 C 278.109 4.63701 -2.35111 0
M  V30 2804 C 275.794 4.73837 -1.66684 0
M  V30 2805 C 277.788 5.30966 -3.52639 0
M  V30 2806 C 275.475 5.40837 -2.84498 0
M  V30 2807 C 276.473 5.69329 -3.77298 0
M  V30 2808 O 276.161 6.34949 -4.93047 0
M  V30 2809 H 275.893 0.66723 -0.108537 0
M  V30 2810 H 278.447 1.81974 -0.952602 0
M  V30 2811 H 276.677 3.81272 0.645628 0
M  V30 2812 H 278.366 4.04797 0.299056 0
M  V30 2813 H 279.132 4.33882 -2.16729 0
M  V30 2814 H 275.011 4.51039 -0.953135 0
M  V30 2815 H 278.555 5.53121 -4.25091 0
M  V30 2816 H 274.452 5.70075 -3.02795 0
M  V30 2817 H 275.22 6.53445 -4.92902 0
M  V30 2818 N 277.883 0.443576 1.51229 0
M  V30 2819 C 279.131 -0.120557 2.0174 0
M  V30 2820 C 279.452 -1.42665 1.32935 0
M  V30 2821 O 278.722 -1.9028 0.465866 0
M  V30 2822 H 277.302 -0.0475426 0.745486 0
M  V30 2823 H 279.964 0.587711 1.85828 0
M  V30 2824 H 279.06 -0.291972 3.10731 0
M  V30 2825 N 279.361 -1.56624 0.175154 0
M  V30 2826 C 280.311 -2.14747 -0.766004 0
M  V30 2827 C 281.295 -1.08275 -1.19018 0
M  V30 2828 O 282.487 -1.34388 -1.15191 0
M  V30 2829 C 279.616 -2.79478 -1.99366 0
M  V30 2830 C 278.702 -3.93114 -1.5913 0
M  V30 2831 N 279.093 -4.97752 -0.89872 0
M  V30 2832 C 277.391 -4.04345 -1.88204 0
M  V30 2833 C 278.092 -5.77473 -0.700012 0
M  V30 2834 N 277.068 -5.29207 -1.24263 0
M  V30 2835 H 280.87 -2.93015 -0.22793 0
M  V30 2836 H 278.384 -1.6238 -0.0253843 0
M  V30 2837 H 280.381 -3.19498 -2.67818 0
M  V30 2838 H 279.041 -2.02692 -2.53665 0
M  V30 2839 H 280.052 -5.14903 -0.556347 0
M  V30 2840 H 276.729 -3.38667 -2.44153 0
M  V30 2841 H 278.119 -6.71728 -0.152047 0
M  V30 2842 N 280.839 0.0985539 -1.57292 0
M  V30 2843 C 282.087 0.801092 -1.85545 0
M  V30 2844 C 282.408 1.79438 -0.763353 0
M  V30 2845 O 281.678 1.94763 0.21073 0
M  V30 2846 H 280.258 0.29884 -0.684619 0
M  V30 2847 H 282.92 0.0810064 -1.94732 0
M  V30 2848 H 282.016 1.3338 -2.82163 0
M  V30 2849 N 282.317 1.53212 0.369288 0
M  V30 2850 C 283.227 1.82342 1.47609 0
M  V30 2851 C 284.243 0.711532 1.58787 0
M  V30 2852 O 285.419 1.0012 1.74751 0
M  V30 2853 C 282.484 2.00393 2.8292 0
M  V30 2854 C 281.545 3.24297 2.81301 0
M  V30 2855 C 280.778 3.41478 4.10157 0
M  V30 2856 O 281.001 2.63033 5.06132 0
M  V30 2857 O 279.935 4.34817 4.16194 0
M  V30 2858 H 283.761 2.76366 1.25918 0
M  V30 2859 H 281.346 1.38547 0.559034 0
M  V30 2860 H 283.228 2.13859 3.63101 0
M  V30 2861 H 281.903 1.09559 3.04596 0
M  V30 2862 H 280.81 3.16257 1.99831 0
M  V30 2863 H 282.143 4.15041 2.64578 0
M  V30 2864 N 283.795 -0.628877 1.44509 0
M  V30 2865 C 285.211 -0.947305 1.28446 0
M  V30 2866 C 285.411 -2.00275 0.221872 0
M  V30 2867 O 284.467 -2.49447 -0.391471 0
M  V30 2868 C 285.78 -1.40843 2.65676 0
M  V30 2869 C 287.328 -1.52379 2.73404 0
M  V30 2870 C 287.803 -2.01875 4.11109 0
M  V30 2871 N 289.294 -2.09142 4.13296 0
M  V30 2872 C 290.029 -2.48615 5.16699 0
M  V30 2873 N 289.525 -2.87209 6.30462 0
M  V30 2874 N 291.318 -2.48768 5.04054 0
M  V30 2875 H 283.469 0.0690977 2.12288 0
M  V30 2876 H 285.732 -0.0317164 0.947469 0
M  V30 2877 H 285.438 -0.707206 3.44516 0
M  V30 2878 H 285.312 -2.37902 2.92716 0
M  V30 2879 H 287.699 -2.21598 1.9488 0
M  V30 2880 H 287.78 -0.536898 2.50102 0
M  V30 2881 H 287.424 -1.3325 4.90109 0
M  V30 2882 H 287.354 -3.0144 4.31789 0
M  V30 2883 H 289.845 -1.81991 3.31191 0
M  V30 2884 H 290.158 -3.16149 7.05174 0
M  V30 2885 H 288.503 -2.84955 6.33897 0
M  V30 2886 H 291.694 -2.18009 4.14234 0
M  V30 2887 H 291.867 -2.79207 5.84763 0
M  V30 2888 N 285.273 -1.31445 -0.869486 0
M  V30 2889 C 286.684 -1.19042 -1.43826 0
M  V30 2890 C 287.035 0.202919 -1.95148 0
M  V30 2891 O 286.16 1.10071 -1.86315 0
M  V30 2892 C 286.755 -2.15499 -2.6143 0
M  V30 2893 C 285.314 -2.07028 -3.14351 0
M  V30 2894 C 284.461 -2.04701 -1.87063 0
M  V30 2895 H 287.412 -1.43489 -0.677984 0
M  V30 2896 H 287.433 -1.74488 -3.38134 0
M  V30 2897 H 286.945 -3.16899 -2.24046 0
M  V30 2898 H 285.046 -1.08825 -3.56354 0
M  V30 2899 H 285.159 -2.96157 -3.766 0
M  V30 2900 H 283.523 -1.49724 -2.06046 0
M  V30 2901 H 284.306 -3.07857 -1.51917 0
M  V30 2902 N 286.751 1.08385 -1.14413 0
M  V30 2903 C 287.991 1.8238 -0.922868 0
M  V30 2904 C 288.355 1.84225 0.540842 0
M  V30 2905 O 289.556 2.53985 0.880058 0
M  V30 2906 C 287.827 3.24048 -1.50757 0
M  V30 2907 S 289.386 4.14917 -1.4279 0
M  V30 2908 H 286.204 0.628524 -0.332384 0
M  V30 2909 H 288.806 1.30278 -1.45766 0
M  V30 2910 H 287.51 3.20288 -2.56601 0
M  V30 2911 H 287.041 3.81224 -0.971178 0
M  V30 2912 H 289.056 4.94473 -0.413582 0
M  V30 2913 N 288.23 0.939286 1.26551 0
M  V30 2914 C 289.476 0.596234 1.94465 0
M  V30 2915 C 289.831 -0.855013 1.72358 0
M  V30 2916 O 289.124 -1.6034 1.04889 0
M  V30 2917 C 289.318 0.872106 3.46596 0
M  V30 2918 C 289.147 2.34862 3.83497 0
M  V30 2919 C 287.917 3.00344 4.06352 0
M  V30 2920 C 290.115 3.32697 3.92195 0
M  V30 2921 N 288.097 4.38027 4.30123 0
M  V30 2922 C 289.468 4.55631 4.20476 0
M  V30 2923 C 291.523 3.27747 3.74815 0
M  V30 2924 C 290.226 5.74233 4.33185 0
M  V30 2925 C 292.252 4.45672 3.88755 0
M  V30 2926 C 291.614 5.67388 4.17433 0
M  V30 2927 H 287.713 0.268515 0.734455 0
M  V30 2928 H 290.297 1.2083 1.5267 0
M  V30 2929 H 288.468 0.289102 3.87323 0
M  V30 2930 H 290.2 0.490513 4.01716 0
M  V30 2931 H 286.955 2.50969 4.01636 0
M  V30 2932 H 287.379 5.09288 4.46044 0
M  V30 2933 H 292.021 2.34703 3.51673 0
M  V30 2934 H 289.739 6.67731 4.55149 0
M  V30 2935 H 293.325 4.43372 3.76713 0
M  V30 2936 H 292.205 6.57115 4.27983 0
M  V30 2937 N 289.708 -1.40897 0.706093 0
M  V30 2938 C 291.119 -1.84023 0.315052 0
M  V30 2939 C 291.47 -1.5906 -1.14866 0
M  V30 2940 O 290.595 -1.06651 -1.88293 0
M  V30 2941 C 291.19 -3.34055 0.565038 0
M  V30 2942 C 289.749 -3.7571 0.227806 0
M  V30 2943 C 288.896 -2.64204 0.842122 0
M  V30 2944 H 291.847 -1.303 0.905963 0
M  V30 2945 H 291.868 -3.80107 -0.172843 0
M  V30 2946 H 291.38 -3.52192 1.63042 0
M  V30 2947 H 289.481 -3.63172 -0.832895 0
M  V30 2948 H 289.594 -4.74103 0.690174 0
M  V30 2949 H 287.958 -2.53255 0.270893 0
M  V30 2950 H 288.741 -2.85155 1.91158 0
M  V30 2951 N 291.186 -0.45159 -1.50991 0
M  V30 2952 C 292.149 0.341117 -2.26647 0
M  V30 2953 C 293.149 0.937422 -1.30649 0
M  V30 2954 O 294.339 0.809644 -1.54241 0
M  V30 2955 C 291.471 1.48398 -3.06905 0
M  V30 2956 H 292.664 -0.322117 -2.98165 0
M  V30 2957 H 290.217 -0.205122 -1.54948 0
M  V30 2958 H 290.952 2.18284 -2.39838 0
M  V30 2959 H 290.737 1.06241 -3.77432 0
M  V30 2960 H 292.227 2.04367 -3.64176 0
M  V30 2961 N 292.664 1.56529 -0.183458 0
M  V30 2962 C 293.941 1.88959 0.50536 0
M  V30 2963 C 294.321 1.09523 1.80466 0
M  V30 2964 O 293.669 0.19278 2.27685 0
M  V30 2965 C 293.879 3.41162 0.73547 0
M  V30 2966 C 295.227 4.11155 1.06005 0
M  V30 2967 O 296.251 3.46548 0.823594 0
M  V30 2968 O 295.11 5.25318 1.50675 0
M  V30 2969 H 292.204 0.78441 0.261973 0
M  V30 2970 H 294.75 1.68231 -0.222802 0
M  V30 2971 H 293.522 3.90874 -0.182561 0
M  V30 2972 H 293.145 3.67543 1.51651 0
M  V30 2973 N 294.142 -0.090211 1.57342 0
M  V30 2974 C 295.553 -0.644173 1.75235 0
M  V30 2975 C 295.904 -1.78865 0.806335 0
M  V30 2976 O 295.029 -2.16395 -0.0140128 0
M  V30 2977 C 295.624 -1.17532 3.1776 0
M  V30 2978 C 294.183 -1.67531 3.37061 0
M  V30 2979 C 293.33 -0.58693 2.71017 0
M  V30 2980 H 296.281 0.135884 1.58117 0
M  V30 2981 H 296.302 -2.04455 3.20902 0
M  V30 2982 H 295.814 -0.342138 3.86589 0
M  V30 2983 H 293.915 -2.53234 2.73319 0
M  V30 2984 H 294.028 -1.76493 4.45406 0
M  V30 2985 H 292.392 -1.02756 2.33052 0
M  V30 2986 H 293.175 0.235758 3.4249 0
M  V30 2987 N 295.62 -1.53406 -0.361157 0
M  V30 2988 C 296.866 -1.70054 -1.10496 0
M  V30 2989 C 297.199 -0.453278 -1.88836 0
M  V30 2990 O 296.474 0.5495 -1.86576 0
M  V30 2991 C 296.757 -2.95317 -2.06058 0
M  V30 2992 C 296.61 -4.3021 -1.31298 0
M  V30 2993 C 297.929 -3.16193 -3.06121 0
M  V30 2994 H 295.048 -0.618799 -0.400321 0
M  V30 2995 H 297.69 -1.86052 -0.385318 0
M  V30 2996 H 295.84 -2.81809 -2.67425 0
M  V30 2997 H 297.512 -4.55538 -0.726807 0
M  V30 2998 H 295.755 -4.29421 -0.614853 0
M  V30 2999 H 296.426 -5.14 -2.01265 0
M  V30 3000 H 298.902 -3.28916 -2.5486 0
M  V30 3001 H 297.778 -4.05266 -3.70204 0
M  V30 3002 H 298.039 -2.31676 -3.76535 0
M  V30 3003 N 297.098 0.621204 -1.44841 0
M  V30 3004 C 298.028 1.74366 -1.55303 0
M  V30 3005 C 299.009 1.65199 -0.405385 0
M  V30 3006 O 300.194 1.83807 -0.626787 0
M  V30 3007 C 297.324 3.12931 -1.50637 0
M  V30 3008 C 296.278 3.36896 -2.63979 0
M  V30 3009 C 295.604 4.75594 -2.44366 0
M  V30 3010 C 296.904 3.28483 -4.06074 0
M  V30 3011 H 298.598 1.65867 -2.49256 0
M  V30 3012 H 296.144 0.796558 -1.19962 0
M  V30 3013 H 298.097 3.9124 -1.56555 0
M  V30 3014 H 296.821 3.22237 -0.532057 0
M  V30 3015 H 295.48 2.60972 -2.57467 0
M  V30 3016 H 295.128 4.81616 -1.45105 0
M  V30 3017 H 294.828 4.92586 -3.20364 0
M  V30 3018 H 296.352 5.5612 -2.52117 0
M  V30 3019 H 297.766 3.96684 -4.13902 0
M  V30 3020 H 296.163 3.57008 -4.82354 0
M  V30 3021 H 297.233 2.26133 -4.28943 0
M  V30 3022 N 298.576 1.31904 0.862503 0
M  V30 3023 C 299.539 1.20131 1.95195 0
M  V30 3024 C 300.539 0.126409 1.60302 0
M  V30 3025 O 301.729 0.376234 1.70089 0
M  V30 3026 C 298.861 0.845691 3.30244 0
M  V30 3027 H 300.054 2.16943 2.07064 0
M  V30 3028 H 297.607 1.15622 1.05172 0
M  V30 3029 H 298.342 -0.120957 3.24074 0
M  V30 3030 H 298.127 1.62276 3.56944 0
M  V30 3031 H 299.617 0.787418 4.10109 0
M  V30 3032 N 300.054 -1.07777 1.14986 0
M  V30 3033 C 301.465 -1.61766 0.932127 0
M  V30 3034 C 301.816 -1.88974 -0.527581 0
M  V30 3035 O 300.941 -1.65198 -1.39781 0
M  V30 3036 C 301.536 -2.93891 1.68563 0
M  V30 3037 C 300.095 -3.44639 1.5133 0
M  V30 3038 C 299.242 -2.18767 1.704 0
M  V30 3039 H 302.193 -0.909201 1.30074 0
M  V30 3040 H 302.214 -3.62623 1.15259 0
M  V30 3041 H 301.726 -2.74057 2.74799 0
M  V30 3042 H 299.827 -3.69564 0.474702 0
M  V30 3043 H 299.94 -4.20966 2.28746 0
M  V30 3044 H 298.304 -2.28253 1.13016 0
M  V30 3045 H 299.087 -2.01433 2.77992 0
M  V30 3046 N 301.532 -0.945985 -1.26051 0
M  V30 3047 C 302.462 -0.477172 -2.28572 0
M  V30 3048 C 303.443 0.472032 -1.63419 0
M  V30 3049 O 304.628 0.372853 -1.90587 0
M  V30 3050 C 301.758 0.253975 -3.4637 0
M  V30 3051 C 300.712 -0.609135 -4.23643 0
M  V30 3052 C 300.038 0.252252 -5.34105 0
M  V30 3053 C 301.338 -1.8829 -4.8718 0
M  V30 3054 H 303.032 -1.33402 -2.68038 0
M  V30 3055 H 300.578 -0.642904 -1.28852 0
M  V30 3056 H 302.531 0.593016 -4.17207 0
M  V30 3057 H 301.255 1.145 -3.05871 0
M  V30 3058 H 299.914 -0.931138 -3.54578 0
M  V30 3059 H 299.562 1.14278 -4.89846 0
M  V30 3060 H 299.262 -0.32188 -5.86718 0
M  V30 3061 H 300.786 0.586454 -6.07777 0
M  V30 3062 H 302.2 -1.61081 -5.50205 0
M  V30 3063 H 300.597 -2.40199 -5.49931 0
M  V30 3064 H 301.667 -2.59134 -4.09851 0
M  V30 3065 N 303.011 1.40521 -0.713556 0
M  V30 3066 C 303.943 2.29191 -0.0203126 0
M  V30 3067 C 304.956 1.45723 0.725864 0
M  V30 3068 O 306.145 1.69033 0.573581 0
M  V30 3069 C 303.245 3.2395 0.995486 0
M  V30 3070 C 302.418 4.36262 0.315256 0
M  V30 3071 C 301.477 5.11474 1.23616 0
M  V30 3072 O 300.503 5.64606 0.721719 0
M  V30 3073 N 301.705 5.20638 2.56743 0
M  V30 3074 H 304.47 2.89327 -0.781652 0
M  V30 3075 H 302.031 1.51869 -0.561022 0
M  V30 3076 H 304.023 3.71137 1.61368 0
M  V30 3077 H 302.593 2.64995 1.6582 0
M  V30 3078 H 301.813 3.91228 -0.483106 0
M  V30 3079 H 303.101 5.08558 -0.157004 0
M  V30 3080 H 302.499 4.7895 3.01037 0
M  V30 3081 H 301.056 5.71339 3.13712 0
M  V30 3082 N 304.489 0.459591 1.5075 0
M  V30 3083 C 305.9 0.00171547 1.867 0
M  V30 3084 C 306.251 -1.39934 1.37525 0
M  V30 3085 O 305.376 -2.03523 0.735349 0
M  V30 3086 C 305.971 -0.00366298 3.388 0
M  V30 3087 C 304.53 -0.406026 3.74204 0
M  V30 3088 C 303.677 0.38673 2.7459 0
M  V30 3089 H 306.628 0.674413 1.43657 0
M  V30 3090 H 306.649 -0.808371 3.71814 0
M  V30 3091 H 306.161 1.01617 3.74561 0
M  V30 3092 H 304.262 -1.43063 3.4404 0
M  V30 3093 H 304.375 -0.115362 4.78961 0
M  V30 3094 H 302.739 -0.158019 2.54209 0
M  V30 3095 H 303.522 1.40585 3.13194 0
M  V30 3096 N 305.967 -1.56429 0.191757 0
M  V30 3097 C 307.244 -1.89224 -0.495332 0
M  V30 3098 C 307.624 -1.10478 -1.79883 0
M  V30 3099 O 306.972 -0.204852 -2.2758 0
M  V30 3100 C 307.182 -3.41548 -0.717367 0
M  V30 3101 C 308.53 -4.11711 -1.03823 0
M  V30 3102 O 309.554 -3.4698 -0.805204 0
M  V30 3103 O 308.413 -5.2611 -1.47887 0
M  V30 3104 H 305.507 -0.785788 -0.25781 0
M  V30 3105 H 308.053 -1.68111 0.231721 0
M  V30 3106 H 306.825 -3.90772 0.203287 0
M  V30 3107 H 306.448 -3.68342 -1.497 0
M  V30 3108 N 307.445 0.0818655 -1.57387 0
M  V30 3109 C 308.691 0.784074 -1.8703 0
M  V30 3110 C 309.024 1.77729 -0.782689 0
M  V30 3111 O 308.299 1.93384 0.208051 0
M  V30 3112 C 308.582 1.50105 -3.27323 0
M  V30 3113 C 308.435 0.524925 -4.46727 0
M  V30 3114 C 309.754 2.44843 -3.65705 0
M  V30 3115 H 306.873 0.283582 -0.680257 0
M  V30 3116 H 309.515 0.0474352 -1.89941 0
M  V30 3117 H 307.665 2.12897 -3.24972 0
M  V30 3118 H 309.337 -0.0970111 -4.61198 0
M  V30 3119 H 307.58 -0.160606 -4.33503 0
M  V30 3120 H 308.251 1.064 -5.41648 0
M  V30 3121 H 310.727 1.92135 -3.69085 0
M  V30 3122 H 309.603 2.92018 -4.64776 0
M  V30 3123 H 309.864 3.29197 -2.95096 0
M  V30 3124 N 308.923 1.53595 0.353017 0
M  V30 3125 C 310.2 1.61002 1.11075 0
M  V30 3126 C 310.58 0.425356 2.0677 0
M  V30 3127 O 309.928 -0.583267 2.2093 0
M  V30 3128 C 310.138 2.96631 1.83877 0
M  V30 3129 C 311.486 3.51653 2.37961 0
M  V30 3130 O 312.51 2.98743 1.93987 0
M  V30 3131 O 311.369 4.44177 3.18386 0
M  V30 3132 H 308.463 0.650825 0.510251 0
M  V30 3133 H 311.009 1.6594 0.35527 0
M  V30 3134 H 309.781 3.74293 1.14108 0
M  V30 3135 H 309.404 2.95242 2.66304 0
M  V30 3136 N 310.401 -0.613514 1.45168 0
M  V30 3137 C 311.364 -1.7065 1.53007 0
M  V30 3138 C 312.364 -1.5548 0.410184 0
M  V30 3139 O 313.554 -1.60656 0.673455 0
M  V30 3140 C 310.686 -3.09875 1.42093 0
M  V30 3141 H 311.879 -1.65068 2.50385 0
M  V30 3142 H 309.432 -0.828728 1.32521 0
M  V30 3143 H 310.167 -3.21039 0.458769 0
M  V30 3144 H 309.952 -3.22293 2.23315 0
M  V30 3145 H 311.442 -3.895 1.50598 0
M  V30 3146 N 311.879 -1.3236 -0.855495 0
M  V30 3147 C 313.125 -1.23054 -1.612 0
M  V30 3148 C 313.458 0.207404 -1.93089 0
M  V30 3149 O 312.733 1.14432 -1.57275 0
M  V30 3150 C 313.016 -2.08937 -2.93287 0
M  V30 3151 C 312.869 -3.61105 -2.68185 0
M  V30 3152 C 314.188 -1.94986 -3.94549 0
M  V30 3153 H 311.307 -0.448364 -0.584926 0
M  V30 3154 H 313.949 -1.62297 -0.987917 0
M  V30 3155 H 312.099 -1.75599 -3.46551 0
M  V30 3156 H 313.771 -4.04652 -2.21483 0
M  V30 3157 H 312.014 -3.83813 -2.02164 0
M  V30 3158 H 312.685 -4.16522 -3.62234 0
M  V30 3159 H 315.161 -2.24189 -3.5054 0
M  V30 3160 H 314.037 -2.57356 -4.84829 0
M  V30 3161 H 314.298 -0.917263 -4.3248 0
M  V30 3162 N 313.357 1.07166 -1.15556 0
M  V30 3163 C 314.289 2.14341 -0.811815 0
M  V30 3164 C 315.302 1.61835 0.177015 0
M  V30 3165 O 316.491 1.78439 -0.0464996 0
M  V30 3166 C 313.591 3.38387 -0.186481 0
M  V30 3167 C 312.764 4.20238 -1.21321 0
M  V30 3168 C 311.823 5.2266 -0.609302 0
M  V30 3169 O 310.849 5.54719 -1.27576 0
M  V30 3170 N 312.051 5.77306 0.608099 0
M  V30 3171 H 314.816 2.44431 -1.73417 0
M  V30 3172 H 312.377 1.23089 -1.0517 0
M  V30 3173 H 314.369 4.04044 0.230339 0
M  V30 3174 H 312.939 3.05994 0.639249 0
M  V30 3175 H 312.159 3.50369 -1.80652 0
M  V30 3176 H 313.447 4.71736 -1.90638 0
M  V30 3177 H 312.845 5.53513 1.1679 0
M  V30 3178 H 311.402 6.44583 0.96725 0
M  V30 3179 N 314.835 0.952656 1.25548 0
M  V30 3180 C 316.063 0.623496 1.97282 0
M  V30 3181 C 316.478 -0.803987 1.70826 0
M  V30 3182 O 315.835 -1.53755 0.983147 0
M  V30 3183 C 315.886 0.870209 3.5087 0
M  V30 3184 O 315.607 2.24156 3.76412 0
M  V30 3185 C 317.108 0.553164 4.39835 0
M  V30 3186 H 314.328 0.233931 0.628902 0
M  V30 3187 H 316.872 1.27649 1.59768 0
M  V30 3188 H 315.027 0.263652 3.86502 0
M  V30 3189 H 315.441 2.31021 4.70882 0
M  V30 3190 H 316.915 0.776342 5.46513 0
M  V30 3191 H 317.392 -0.512215 4.36203 0
M  V30 3192 H 317.998 1.13896 4.09766 0
M  V30 3193 N 316.313 -1.40141 0.720998 0
M  V30 3194 C 317.561 -2.0039 0.262323 0
M  V30 3195 C 317.882 -1.57469 -1.15015 0
M  V30 3196 O 317.152 -0.816582 -1.78069 0
M  V30 3197 H 315.732 -0.741063 0.093996 0
M  V30 3198 H 318.394 -1.71398 0.927835 0
M  V30 3199 H 317.49 -3.10658 0.299671 0
M  V30 3200 N 317.792 -0.46758 -1.50504 0
M  V30 3201 C 318.755 0.317059 -2.26996 0
M  V30 3202 C 319.755 0.923513 -1.31635 0
M  V30 3203 O 320.945 0.793239 -1.55091 0
M  V30 3204 C 318.077 1.45134 -3.08462 0
M  V30 3205 H 319.27 -0.353723 -2.97807 0
M  V30 3206 H 316.823 -0.221545 -1.54722 0
M  V30 3207 H 317.558 2.15728 -2.4214 0
M  V30 3208 H 317.343 1.02232 -3.78538 0
M  V30 3209 H 318.833 2.00493 -3.66323 0
M  V30 3210 N 319.27 1.56325 -0.20005 0
M  V30 3211 C 320.516 1.98772 0.431408 0
M  V30 3212 C 320.871 1.0849 1.58895 0
M  V30 3213 O 320.164 0.130331 1.91156 0
M  V30 3214 C 320.358 3.4495 0.935103 0
M  V30 3215 C 320.187 4.49371 -0.172096 0
M  V30 3216 C 318.957 5.0134 -0.631377 0
M  V30 3217 C 321.155 5.04822 -0.982806 0
M  V30 3218 N 319.137 5.89433 -1.71588 0
M  V30 3219 C 320.508 5.89632 -1.91661 0
M  V30 3220 C 322.563 4.87242 -1.02467 0
M  V30 3221 C 321.266 6.58741 -2.88881 0
M  V30 3222 C 323.292 5.57094 -1.98494 0
M  V30 3223 C 322.654 6.41655 -2.90617 0
M  V30 3224 H 318.753 0.771922 0.125144 0
M  V30 3225 H 321.337 1.92266 -0.306883 0
M  V30 3226 H 319.508 3.51946 1.64282 0
M  V30 3227 H 321.24 3.74354 1.53758 0
M  V30 3228 H 317.995 4.73071 -0.223827 0
M  V30 3229 H 318.419 6.38182 -2.25948 0
M  V30 3230 H 323.061 4.21538 -0.326408 0
M  V30 3231 H 320.779 7.23641 -3.5968 0
M  V30 3232 H 324.365 5.45466 -2.0238 0
M  V30 3233 H 323.245 6.94755 -3.63711 0
M  V30 3234 N 320.748 -0.0735177 1.57428 0
M  V30 3235 C 321.678 -1.0879 2.06608 0
M  V30 3236 C 322.659 -1.40473 0.959237 0
M  V30 3237 O 323.844 -1.5013 1.23185 0
M  V30 3238 C 320.974 -2.40183 2.50857 0
M  V30 3239 C 319.928 -2.22858 3.65402 0
M  V30 3240 C 319.254 -3.59619 3.957 0
M  V30 3241 C 320.554 -1.65123 4.95511 0
M  V30 3242 H 322.248 -0.678673 2.91607 0
M  V30 3243 H 319.794 -0.325013 1.40284 0
M  V30 3244 H 321.747 -3.11437 2.83874 0
M  V30 3245 H 320.471 -2.83083 1.62885 0
M  V30 3246 H 319.13 -1.54045 3.32664 0
M  V30 3247 H 318.778 -4.00086 3.04861 0
M  V30 3248 H 318.478 -3.48866 4.72828 0
M  V30 3249 H 320.002 -4.32306 4.31212 0
M  V30 3250 H 321.416 -2.26241 5.26771 0
M  V30 3251 H 319.813 -1.65071 5.7695 0
M  V30 3252 H 320.883 -0.612559 4.81015 0
M  V30 3253 N 322.226 -1.5378 -0.344866 0
M  V30 3254 C 323.156 -1.84662 -1.42906 0
M  V30 3255 C 324.137 -0.701648 -1.54955 0
M  V30 3256 O 325.322 -0.953438 -1.69184 0
M  V30 3257 C 322.452 -2.05503 -2.79974 0
M  V30 3258 C 321.406 -3.21318 -2.82734 0
M  V30 3259 C 320.732 -3.2749 -4.22675 0
M  V30 3260 C 322.032 -4.59456 -2.48389 0
M  V30 3261 H 323.726 -2.75461 -1.17311 0
M  V30 3262 H 321.272 -1.32542 -0.562896 0
M  V30 3263 H 323.225 -2.25691 -3.55867 0
M  V30 3264 H 321.949 -1.11434 -3.07002 0
M  V30 3265 H 320.608 -3.00984 -2.09294 0
M  V30 3266 H 320.256 -2.31019 -4.4681 0
M  V30 3267 H 319.956 -4.05316 -4.25433 0
M  V30 3268 H 321.48 -3.49887 -5.00412 0
M  V30 3269 H 322.894 -4.79667 -3.13995 0
M  V30 3270 H 321.291 -5.39675 -2.62432 0
M  V30 3271 H 322.361 -4.63155 -1.4358 0
M  V30 3272 N 323.704 0.605807 -1.45491 0
M  V30 3273 C 324.929 1.39625 -1.53361 0
M  V30 3274 C 325.354 1.87351 -0.167645 0
M  V30 3275 O 324.712 1.60243 0.848051 0
M  V30 3276 C 324.76 2.57559 -2.5238 0
M  V30 3277 O 323.864 3.58248 -2.04285 0
M  V30 3278 H 323.205 0.416771 -0.516912 0
M  V30 3279 H 325.735 0.737103 -1.90861 0
M  V30 3280 H 325.745 3.0478 -2.71244 0
M  V30 3281 H 324.42 2.22171 -3.51586 0
M  V30 3282 H 322.997 3.17664 -1.95305 0
M  V30 3283 N 325.182 1.32811 0.848464 0
M  V30 3284 C 326.459 1.14334 1.58704 0
M  V30 3285 C 326.839 -0.293948 2.09043 0
M  V30 3286 O 326.187 -1.29153 1.88499 0
M  V30 3287 C 326.397 2.17626 2.72837 0
M  V30 3288 C 327.745 2.51282 3.42261 0
M  V30 3289 O 328.769 2.16219 2.83068 0
M  V30 3290 O 327.628 3.11413 4.49093 0
M  V30 3291 H 324.722 0.441601 0.699226 0
M  V30 3292 H 327.268 1.44362 0.892053 0
M  V30 3293 H 326.04 3.14211 2.3321 0
M  V30 3294 H 325.663 1.88628 3.50008 0
M  V30 3295 N 326.66 -1.06551 1.16123 0
M  V30 3296 C 327.57 -2.17484 0.879662 0
M  V30 3297 C 328.586 -1.73377 -0.147104 0
M  V30 3298 O 329.762 -2.01379 0.0289128 0
M  V30 3299 C 326.827 -3.44591 0.381829 0
M  V30 3300 C 325.888 -4.0322 1.4735 0
M  V30 3301 C 325.121 -5.24261 0.999324 0
M  V30 3302 O 325.344 -5.70198 -0.151957 0
M  V30 3303 O 324.278 -5.74775 1.78653 0
M  V30 3304 H 328.104 -2.44075 1.80724 0
M  V30 3305 H 325.689 -1.16042 0.940992 0
M  V30 3306 H 327.571 -4.21254 0.111053 0
M  V30 3307 H 326.246 -3.19532 -0.51777 0
M  V30 3308 H 325.153 -3.2806 1.79798 0
M  V30 3309 H 326.486 -4.32568 2.34831 0
M  V30 3310 N 328.138 -0.959301 -1.25041 0
M  V30 3311 C 329.554 -0.664474 -1.4511 0
M  V30 3312 C 329.754 0.776481 -1.85938 0
M  V30 3313 O 328.81 1.55128 -1.99227 0
M  V30 3314 C 330.123 -1.64139 -2.5195 0
M  V30 3315 C 331.671 -1.65309 -2.65786 0
M  V30 3316 C 332.146 -2.61777 -3.75815 0
M  V30 3317 N 333.637 -2.60169 -3.83231 0
M  V30 3318 C 334.372 -3.31489 -4.6787 0
M  V30 3319 N 333.868 -4.12298 -5.56761 0
M  V30 3320 N 335.661 -3.20354 -4.61876 0
M  V30 3321 H 327.812 -1.89043 -0.968332 0
M  V30 3322 H 330.075 -0.813408 -0.4869 0
M  V30 3323 H 329.781 -2.67086 -2.28819 0
M  V30 3324 H 329.655 -1.40756 -3.49954 0
M  V30 3325 H 332.042 -0.630778 -2.8828 0
M  V30 3326 H 332.123 -1.92753 -1.68167 0
M  V30 3327 H 331.767 -3.64137 -3.54071 0
M  V30 3328 H 331.697 -2.31616 -4.72929 0
M  V30 3329 H 334.188 -2.01507 -3.19692 0
M  V30 3330 H 334.501 -4.63625 -6.18281 0
M  V30 3331 H 332.846 -4.16395 -5.56454 0
M  V30 3332 H 336.037 -2.56692 -3.91442 0
M  V30 3333 H 336.21 -3.76201 -5.27614 0
M  V30 3334 N 329.616 1.39756 -0.72842 0
M  V30 3335 C 331.027 1.83498 -0.344289 0
M  V30 3336 C 331.378 1.60868 1.12321 0
M  V30 3337 O 330.503 1.09634 1.86573 0
M  V30 3338 C 331.098 3.33114 -0.618112 0
M  V30 3339 C 329.657 3.753 -0.287549 0
M  V30 3340 C 328.804 2.62831 -0.884048 0
M  V30 3341 H 331.755 1.28842 -0.926578 0
M  V30 3342 H 331.776 3.80334 0.112349 0
M  V30 3343 H 331.288 3.49553 -1.68625 0
M  V30 3344 H 329.389 3.64451 0.775012 0
M  V30 3345 H 329.502 4.72945 -0.765512 0
M  V30 3346 H 327.866 2.52792 -0.311149 0
M  V30 3347 H 328.649 2.82078 -1.95671 0
M  V30 3348 N 331.094 0.475555 1.50254 0
M  V30 3349 C 332.024 -0.30611 2.31485 0
M  V30 3350 C 333.005 -0.986228 1.38591 0
M  V30 3351 O 334.19 -0.982541 1.67511 0
M  V30 3352 C 331.32 -1.38588 3.1845 0
M  V30 3353 C 330.274 -0.827115 4.19932 0
M  V30 3354 C 329.6 -2.00551 4.95665 0
M  V30 3355 C 330.9 0.16463 5.2204 0
M  V30 3356 H 332.594 0.371866 2.97082 0
M  V30 3357 H 330.14 0.180282 1.42867 0
M  V30 3358 H 332.093 -1.94023 3.74076 0
M  V30 3359 H 330.817 -2.09269 2.50747 0
M  V30 3360 H 329.476 -0.294702 3.65414 0
M  V30 3361 H 329.124 -2.6994 4.2443 0
M  V30 3362 H 328.824 -1.63784 5.64313 0
M  V30 3363 H 330.348 -2.56468 5.54127 0
M  V30 3364 H 331.762 -0.300699 5.72511 0
M  V30 3365 H 330.159 0.446813 5.98434 0
M  V30 3366 H 331.229 1.08905 4.72512 0
M  V30 3367 N 332.573 -1.56217 0.208337 0
M  V30 3368 C 333.984 -1.84243 -0.301904 0
M  V30 3369 C 334.335 -1.12939 -1.60434 0
M  V30 3370 O 333.46 -0.39461 -2.12772 0
M  V30 3371 C 334.055 -3.34231 -0.554543 0
M  V30 3372 C 332.614 -3.62621 -1.00912 0
M  V30 3373 C 331.761 -2.77224 -0.064933 0
M  V30 3374 H 334.712 -1.52712 0.431833 0
M  V30 3375 H 334.733 -3.5372 -1.40223 0
M  V30 3376 H 334.245 -3.86099 0.393561 0
M  V30 3377 H 332.346 -3.16197 -1.97104 0
M  V30 3378 H 332.459 -4.7071 -0.892674 0
M  V30 3379 H 330.823 -2.48256 -0.56929 0
M  V30 3380 H 331.606 -3.31887 0.877851 0
M  V30 3381 N 334.051 0.0651679 -1.57465 0
M  V30 3382 C 335.462 0.616213 -1.76238 0
M  V30 3383 C 335.813 1.7756 -0.834689 0
M  V30 3384 O 334.938 2.1639 -0.0204156 0
M  V30 3385 C 335.533 1.12462 -3.1959 0
M  V30 3386 C 334.092 1.62147 -3.39684 0
M  V30 3387 C 333.239 0.543739 -2.71917 0
M  V30 3388 H 336.19 -0.161022 -1.57881 0
M  V30 3389 H 336.211 1.99324 -3.24114 0
M  V30 3390 H 335.723 0.280592 -3.87084 0
M  V30 3391 H 333.824 2.48854 -2.77313 0
M  V30 3392 H 333.937 1.69385 -4.48158 0
M  V30 3393 H 332.301 0.990352 -2.34657 0
M  V30 3394 H 333.084 -0.290216 -3.42071 0
M  V30 3395 N 335.529 1.53961 0.336706 0
M  V30 3396 C 336.439 1.85432 1.43708 0
M  V30 3397 C 337.455 0.745053 1.57242 0
M  V30 3398 O 338.631 1.03804 1.72588 0
M  V30 3399 C 335.696 2.06349 2.78605 0
M  V30 3400 C 334.757 3.30191 2.74358 0
M  V30 3401 C 333.99 3.50101 4.02822 0
M  V30 3402 O 334.213 2.7371 5.00439 0
M  V30 3403 O 333.147 4.43547 4.06878 0
M  V30 3404 H 336.973 2.78975 1.20028 0
M  V30 3405 H 334.558 1.39701 0.52952 0
M  V30 3406 H 336.44 2.21513 3.58483 0
M  V30 3407 H 335.115 1.15995 3.02203 0
M  V30 3408 H 334.022 3.20425 1.93078 0
M  V30 3409 H 335.355 4.2056 2.55715 0
M  V30 3410 N 337.007 -0.598083 1.45811 0
M  V30 3411 C 337.937 -1.71873 1.58057 0
M  V30 3412 C 338.918 -1.64533 0.431615 0
M  V30 3413 O 340.103 -1.82787 0.65595 0
M  V30 3414 C 337.233 -3.10495 1.55597 0
M  V30 3415 C 336.187 -3.32654 2.69305 0
M  V30 3416 C 335.513 -4.71646 2.51902 0
M  V30 3417 C 336.813 -3.21981 4.11248 0
M  V30 3418 H 338.507 -1.61881 2.51863 0
M  V30 3419 H 336.053 -0.777372 1.21214 0
M  V30 3420 H 338.006 -3.88699 1.6276 0
M  V30 3421 H 336.73 -3.2135 0.583255 0
M  V30 3422 H 335.389 -2.56843 2.61586 0
M  V30 3423 H 335.037 -4.79246 1.52748 0
M  V30 3424 H 334.737 -4.87426 3.2816 0
M  V30 3425 H 336.261 -5.52038 2.60933 0
M  V30 3426 H 337.675 -3.90049 4.20161 0
M  V30 3427 H 336.072 -3.49289 4.87972 0
M  V30 3428 H 337.142 -2.1928 4.32486 0
M  V30 3429 N 338.485 -1.33259 -0.841409 0
M  V30 3430 C 339.395 -1.25332 -1.98316 0
M  V30 3431 C 340.411 -0.164364 -1.73222 0
M  V30 3432 O 341.587 -0.387486 -1.97637 0
M  V30 3433 C 338.652 -0.990078 -3.32262 0
M  V30 3434 C 337.713 -2.16879 -3.70489 0
M  V30 3435 C 336.946 -1.91801 -4.98044 0
M  V30 3436 O 337.169 -0.867075 -5.63771 0
M  V30 3437 O 336.103 -2.78267 -5.33714 0
M  V30 3438 H 339.929 -2.21344 -2.07944 0
M  V30 3439 H 337.514 -1.1328 -0.974058 0
M  V30 3440 H 339.396 -0.860321 -4.12524 0
M  V30 3441 H 338.071 -0.0602155 -3.23644 0
M  V30 3442 H 336.978 -2.35407 -2.90748 0
M  V30 3443 H 338.311 -3.0819 -3.8377 0
M  V30 3444 N 339.963 1.05934 -1.16686 0
M  V30 3445 C 340.926 2.11669 -0.879144 0
M  V30 3446 C 341.926 1.60294 0.127445 0
M  V30 3447 O 343.116 1.7389 -0.103865 0
M  V30 3448 C 340.248 3.39438 -0.315425 0
M  V30 3449 H 341.441 2.38626 -1.81653 0
M  V30 3450 H 338.994 1.22058 -0.976299 0
M  V30 3451 H 339.729 3.18132 0.629468 0
M  V30 3452 H 339.514 3.78034 -1.04079 0
M  V30 3453 H 341.004 4.17391 -0.132189 0
M  V30 3454 N 341.441 0.965919 1.2453 0
M  V30 3455 C 342.688 0.626831 1.92554 0
M  V30 3456 C 343.016 -0.837739 1.75534 0
M  V30 3457 O 342.271 -1.61793 1.10098 0
M  V30 3458 C 342.57 0.945428 3.44669 0
M  V30 3459 C 342.236 2.39785 3.81856 0
M  V30 3460 C 340.898 2.79483 3.91718 0
M  V30 3461 C 343.25 3.34055 4.00071 0
M  V30 3462 C 340.578 4.12496 4.1721 0
M  V30 3463 C 342.93 4.66694 4.27059 0
M  V30 3464 C 341.594 5.06172 4.3514 0
M  V30 3465 H 340.864 0.229374 0.704605 0
M  V30 3466 H 343.511 1.21707 1.4785 0
M  V30 3467 H 341.816 0.272926 3.90848 0
M  V30 3468 H 343.513 0.661484 3.95507 0
M  V30 3469 H 340.103 2.08003 3.74743 0
M  V30 3470 H 344.287 3.04571 3.91855 0
M  V30 3471 H 339.543 4.42709 4.21685 0
M  V30 3472 H 343.717 5.3971 4.40097 0
M  V30 3473 H 341.344 6.09262 4.54646 0
M  V30 3474 N 342.919 -1.39368 0.735821 0
M  V30 3475 C 343.849 -2.33234 0.111506 0
M  V30 3476 C 344.83 -1.53954 -0.723334 0
M  V30 3477 O 346.015 -1.82344 -0.668147 0
M  V30 3478 C 343.145 -3.38057 -0.795917 0
M  V30 3479 C 342.099 -4.2795 -0.065172 0
M  V30 3480 C 341.425 -5.23479 -1.08967 0
M  V30 3481 C 342.725 -5.10741 1.09273 0
M  V30 3482 H 344.419 -2.85692 0.895571 0
M  V30 3483 H 341.965 -1.37364 0.432109 0
M  V30 3484 H 343.918 -4.02675 -1.24221 0
M  V30 3485 H 342.642 -2.8404 -1.61211 0
M  V30 3486 H 341.301 -3.64813 0.361511 0
M  V30 3487 H 340.949 -4.65758 -1.89944 0
M  V30 3488 H 340.649 -5.84472 -0.605489 0
M  V30 3489 H 342.173 -5.90974 -1.53565 0
M  V30 3490 H 343.587 -5.68699 0.724841 0
M  V30 3491 H 341.984 -5.8088 1.50659 0
M  V30 3492 H 343.054 -4.45525 1.91404 0
M  V30 3493 N 344.397 -0.483516 -1.5 0
M  V30 3494 C 345.36 0.292965 -2.2732 0
M  V30 3495 C 346.36 0.909499 -1.32608 0
M  V30 3496 O 347.55 0.776745 -1.55924 0
M  V30 3497 C 344.682 1.41854 -3.09984 0
M  V30 3498 H 345.875 -0.385289 -2.97415 0
M  V30 3499 H 343.428 -0.237942 -1.54478 0
M  V30 3500 H 344.163 2.13148 -2.44414 0
M  V30 3501 H 343.948 0.982114 -3.79601 0
M  V30 3502 H 345.438 1.96597 -3.68429 0
M  V30 3503 N 345.875 1.56104 -0.216619 0
M  V30 3504 C 346.838 2.18819 0.681962 0
M  V30 3505 C 347.838 1.14866 1.12528 0
M  V30 3506 O 349.028 1.40128 1.03488 0
M  V30 3507 C 346.16 2.80756 1.93362 0
M  V30 3508 H 347.353 2.99595 0.135254 0
M  V30 3509 H 344.906 1.56265 0.0330003 0
M  V30 3510 H 345.641 2.03837 2.52232 0
M  V30 3511 H 345.426 3.56876 1.62426 0
M  V30 3512 H 346.916 3.28844 2.57393 0
M  V30 3513 N 347.353 -0.0568162 1.57498 0
M  V30 3514 C 348.601 -0.751617 1.87604 0
M  V30 3515 C 348.922 -1.77351 0.81066 0
M  V30 3516 O 348.192 -1.95254 -0.159018 0
M  V30 3517 H 346.772 -0.280583 0.692302 0
M  V30 3518 H 349.434 -0.0293483 1.94878 0
M  V30 3519 H 348.53 -1.25852 2.856 0
M  V30 3520 N 348.832 -1.54138 -0.328536 0
M  V30 3521 C 350.057 -1.76378 -1.09112 0
M  V30 3522 C 350.482 -0.508596 -1.81094 0
M  V30 3523 O 349.84 0.539598 -1.73084 0
M  V30 3524 C 349.888 -2.95358 -2.06872 0
M  V30 3525 O 348.992 -2.66556 -3.14677 0
M  V30 3526 H 348.333 -0.584614 -0.314838 0
M  V30 3527 H 350.863 -2.01146 -0.374348 0
M  V30 3528 H 350.873 -3.22566 -2.4983 0
M  V30 3529 H 349.548 -3.86385 -1.5388 0
M  V30 3530 H 348.125 -2.50282 -2.7643 0
M  V30 3531 N 350.31 0.590341 -1.46126 0
M  V30 3532 C 351.721 1.17243 -1.45296 0
M  V30 3533 C 352.072 1.95281 -0.189723 0
M  V30 3534 O 351.197 2.04502 0.707674 0
M  V30 3535 C 351.792 2.13284 -2.6324 0
M  V30 3536 C 350.351 2.66832 -2.65476 0
M  V30 3537 C 349.498 1.42557 -2.3785 0
M  V30 3538 H 352.449 0.378692 -1.54116 0
M  V30 3539 H 352.47 2.96619 -2.38323 0
M  V30 3540 H 351.982 1.56459 -3.55165 0
M  V30 3541 H 350.083 3.27548 -1.77603 0
M  V30 3542 H 350.196 3.10088 -3.65215 0
M  V30 3543 H 348.56 1.72107 -1.87753 0
M  V30 3544 H 349.343 0.875741 -3.31942 0
M  V30 3545 N 351.788 1.33704 0.83433 0
M  V30 3546 C 353.199 1.22813 1.4062 0
M  V30 3547 C 353.55 -0.151107 1.95617 0
M  V30 3548 O 352.675 -1.05092 1.89168 0
M  V30 3549 C 353.27 2.22355 2.55624 0
M  V30 3550 C 351.829 2.1529 3.08751 0
M  V30 3551 C 350.976 2.09589 1.8157 0
M  V30 3552 H 353.927 1.45236 0.639702 0
M  V30 3553 H 353.948 1.83391 3.33389 0
M  V30 3554 H 353.46 3.22728 2.15566 0
M  V30 3555 H 351.561 1.18235 3.53343 0
M  V30 3556 H 351.674 3.06038 3.68616 0
M  V30 3557 H 350.038 1.55134 2.02004 0
M  V30 3558 H 350.821 3.11777 1.43701 0
M  V30 3559 N 353.266 -1.05314 1.17247 0
M  V30 3560 C 354.512 -1.78557 0.961513 0
M  V30 3561 C 354.845 -1.87419 -0.508697 0
M  V30 3562 O 354.12 -1.37307 -1.37757 0
M  V30 3563 C 354.403 -3.22514 1.60176 0
M  V30 3564 C 354.256 -3.21673 3.14399 0
M  V30 3565 C 355.575 -4.20318 1.30463 0
M  V30 3566 H 352.694 -0.6482 0.350723 0
M  V30 3567 H 355.336 -1.23102 1.44727 0
M  V30 3568 H 353.486 -3.69867 1.18871 0
M  V30 3569 H 355.158 -2.82405 3.64753 0
M  V30 3570 H 353.401 -2.60048 3.47214 0
M  V30 3571 H 354.072 -4.23271 3.54324 0
M  V30 3572 H 356.548 -3.81454 1.66229 0
M  V30 3573 H 355.424 -5.19289 1.77848 0
M  V30 3574 H 355.685 -4.41526 0.22521 0
M  V30 3575 N 354.744 -0.972509 -1.24016 0
M  V30 3576 C 355.694 -0.477561 -2.22942 0
M  V30 3577 C 356.678 0.44308 -1.54679 0
M  V30 3578 O 357.87 0.273219 -1.74879 0
M  V30 3579 C 354.999 0.226348 -3.42553 0
M  V30 3580 C 354.085 -0.713403 -4.18057 0
M  V30 3581 N 354.476 -1.8527 -4.70647 0
M  V30 3582 C 352.774 -0.525145 -4.42898 0
M  V30 3583 C 353.475 -2.44089 -5.28011 0
M  V30 3584 N 352.451 -1.72556 -5.15486 0
M  V30 3585 H 356.253 -1.34678 -2.61226 0
M  V30 3586 H 353.767 -0.832196 -1.39457 0
M  V30 3587 H 355.764 0.598184 -4.12586 0
M  V30 3588 H 354.424 1.09195 -3.05788 0
M  V30 3589 H 355.435 -2.2341 -4.67235 0
M  V30 3590 H 352.112 0.296096 -4.16449 0
M  V30 3591 H 353.502 -3.40259 -5.79374 0
M  V30 3592 N 356.222 1.38976 -0.743202 0
M  V30 3593 C 357.471 1.99581 -0.291592 0
M  V30 3594 C 357.784 1.59656 1.13001 0
M  V30 3595 O 358.99 2.13157 1.68156 0
M  V30 3596 C 357.446 3.56813 -0.470391 0
M  V30 3597 C 357.054 4.05695 -1.90041 0
M  V30 3598 C 358.798 4.24423 -0.0809709 0
M  V30 3599 C 356.705 5.5553 -2.02832 0
M  V30 3600 H 355.635 0.746615 -0.105272 0
M  V30 3601 H 358.286 1.58872 -0.918258 0
M  V30 3602 H 356.668 3.95359 0.225299 0
M  V30 3603 H 357.842 3.78464 -2.62872 0
M  V30 3604 H 356.157 3.50775 -2.24379 0
M  V30 3605 H 358.754 5.34474 -0.155445 0
M  V30 3606 H 359.097 4.04962 0.96497 0
M  V30 3607 H 359.63 3.9108 -0.728124 0
M  V30 3608 H 356.369 5.79881 -3.05643 0
M  V30 3609 H 355.889 5.84537 -1.34448 0
M  V30 3610 H 357.568 6.21069 -1.81335 0
M  V30 3611 N 357.7 0.491464 1.49741 0
M  V30 3612 C 358.948 -0.0563141 2.02022 0
M  V30 3613 C 359.269 -1.38363 1.37407 0
M  V30 3614 O 358.539 -1.88702 0.526166 0
M  V30 3615 H 357.119 -0.0238014 0.746621 0
M  V30 3616 H 359.781 0.646533 1.83864 0
M  V30 3617 H 358.877 -0.192967 3.11503 0
M  V30 3618 N 359.178 -1.55987 0.224894 0
M  V30 3619 C 360.425 -1.9839 -0.4059 0
M  V30 3620 C 360.753 -1.11261 -1.59535 0
M  V30 3621 O 360.008 -0.158314 -1.95059 0
M  V30 3622 C 360.307 -3.46394 -0.880106 0
M  V30 3623 C 359.973 -4.5046 0.19918 0
M  V30 3624 C 358.635 -4.7864 0.495661 0
M  V30 3625 C 360.987 -5.12855 0.928939 0
M  V30 3626 C 358.315 -5.66497 1.52636 0
M  V30 3627 C 360.667 -6.01828 1.949 0
M  V30 3628 C 359.331 -6.28351 2.25236 0
M  V30 3629 H 358.601 -0.725961 -0.148529 0
M  V30 3630 H 361.248 -1.88668 0.328113 0
M  V30 3631 H 359.553 -3.53337 -1.69294 0
M  V30 3632 H 361.25 -3.76577 -1.37808 0
M  V30 3633 H 357.84 -4.28579 -0.0420526 0
M  V30 3634 H 362.024 -4.9115 0.713129 0
M  V30 3635 H 357.28 -5.8531 1.76698 0
M  V30 3636 H 361.454 -6.49225 2.51951 0
M  V30 3637 H 359.081 -6.96226 3.05244 0
M  V30 3638 N 360.656 0.0484629 -1.57525 0
M  V30 3639 C 361.904 0.741657 -1.88 0
M  V30 3640 C 362.225 1.76918 -0.820054 0
M  V30 3641 O 361.495 1.95335 0.148661 0
M  V30 3642 H 360.075 0.276908 -0.69378 0
M  V30 3643 H 362.737 0.019013 -1.94891 0
M  V30 3644 H 361.833 1.24336 -2.86264 0
M  V30 3645 N 362.134 1.5431 0.320358 0
M  V30 3646 C 363.359 1.76954 1.08175 0
M  V30 3647 C 363.784 0.518193 1.80821 0
M  V30 3648 O 363.142 -0.530411 1.73368 0
M  V30 3649 C 363.19 2.96451 2.05303 0
M  V30 3650 O 362.294 2.68221 3.13259 0
M  V30 3651 H 361.635 0.586275 0.311733 0
M  V30 3652 H 364.165 2.01342 0.363676 0
M  V30 3653 H 364.175 3.23887 2.48116 0
M  V30 3654 H 362.85 3.87196 1.51829 0
M  V30 3655 H 361.427 2.51744 2.75099 0
M  V30 3656 N 363.613 -0.582584 1.46437 0
M  V30 3657 C 364.838 -1.37168 1.55563 0
M  V30 3658 C 365.263 -1.87061 0.19743 0
M  V30 3659 O 364.621 -1.61572 -0.822451 0
M  V30 3660 C 364.669 -2.53511 2.56446 0
M  V30 3661 O 363.773 -3.54953 2.09958 0
M  V30 3662 H 363.114 -0.408494 0.523477 0
M  V30 3663 H 365.644 -0.706646 1.9201 0
M  V30 3664 H 365.654 -3.00426 2.76058 0
M  V30 3665 H 364.329 -2.16549 3.55076 0
M  V30 3666 H 362.906 -3.14516 2.00334 0
M  V30 3667 N 365.091 -1.34144 -0.827227 0
M  V30 3668 C 366.316 -1.29476 -1.62021 0
M  V30 3669 C 366.741 0.129292 -1.87655 0
M  V30 3670 O 366.099 1.08967 -1.449 0
M  V30 3671 C 366.147 -2.08702 -2.94068 0
M  V30 3672 O 365.251 -1.45359 -3.85933 0
M  V30 3673 H 364.592 -0.444881 -0.492927 0
M  V30 3674 H 367.122 -1.76882 -1.02829 0
M  V30 3675 H 367.132 -2.19898 -3.43669 0
M  V30 3676 H 365.807 -3.12241 -2.74734 0
M  V30 3677 H 364.384 -1.42879 -3.44442 0
M  V30 3678 N 366.569 1.04691 -1.17803 0
M  V30 3679 C 367.817 1.7743 -0.967617 0
M  V30 3680 C 368.138 1.88359 0.504574 0
M  V30 3681 O 367.408 1.40402 1.36617 0
M  V30 3682 H 365.988 0.657242 -0.355024 0
M  V30 3683 H 368.65 1.2638 -1.48371 0
M  V30 3684 H 367.746 2.78924 -1.40027 0
M  V30 3685 N 368.047 0.979072 1.23499 0
M  V30 3686 C 369.463 0.687475 1.44034 0
M  V30 3687 C 369.663 -0.746801 1.8715 0
M  V30 3688 O 368.719 -1.51939 2.0167 0
M  V30 3689 C 370.032 1.68127 2.49307 0
M  V30 3690 C 371.58 1.69516 2.63122 0
M  V30 3691 C 372.055 2.67723 3.71603 0
M  V30 3692 N 373.546 2.66233 3.79044 0
M  V30 3693 C 374.281 3.38891 4.62537 0
M  V30 3694 N 373.777 4.21103 5.50131 0
M  V30 3695 N 375.57 3.27661 4.56721 0
M  V30 3696 H 367.721 1.90559 0.938135 0
M  V30 3697 H 369.984 0.821051 0.473897 0
M  V30 3698 H 369.69 2.70693 2.2454 0
M  V30 3699 H 369.564 1.46306 3.4767 0
M  V30 3700 H 371.951 0.676561 2.8724 0
M  V30 3701 H 372.032 1.95404 1.65079 0
M  V30 3702 H 371.676 3.69724 3.48233 0
M  V30 3703 H 371.606 2.39111 4.69184 0
M  V30 3704 H 374.097 2.06568 3.16446 0
M  V30 3705 H 374.41 4.73403 6.10827 0
M  V30 3706 H 372.755 4.25195 5.49759 0
M  V30 3707 H 375.946 2.62887 3.87309 0
M  V30 3708 H 376.119 3.84547 5.21562 0
M  V30 3709 N 369.525 -1.3858 0.750561 0
M  V30 3710 C 370.773 -1.99789 0.30477 0
M  V30 3711 C 371.094 -1.59874 -1.11649 0
M  V30 3712 O 370.364 -0.85417 -1.76297 0
M  V30 3713 H 368.944 -0.738902 0.109694 0
M  V30 3714 H 371.606 -1.69391 0.963983 0
M  V30 3715 H 370.702 -3.09952 0.365499 0
M  V30 3716 N 371.003 -0.499398 -1.49478 0
M  V30 3717 C 372.252 0.0475259 -2.01644 0
M  V30 3718 C 372.565 1.38195 -1.38425 0
M  V30 3719 O 373.771 2.01547 -1.8191 0
M  V30 3720 C 372.227 0.135164 -3.59646 0
M  V30 3721 C 371.835 -1.19252 -4.31837 0
M  V30 3722 C 373.579 0.632538 -4.19761 0
M  V30 3723 C 371.486 -1.06713 -5.81693 0
M  V30 3724 H 370.416 0.0215349 -0.753692 0
M  V30 3725 H 373.067 -0.638577 -1.7203 0
M  V30 3726 H 371.449 0.885681 -3.85969 0
M  V30 3727 H 372.623 -1.9562 -4.17216 0
M  V30 3728 H 370.938 -1.62321 -3.83459 0
M  V30 3729 H 373.535 0.743833 -5.29501 0
M  V30 3730 H 373.878 1.63098 -3.83021 0
M  V30 3731 H 374.411 -0.0613987 -3.97753 0
M  V30 3732 H 371.15 -2.03979 -6.22955 0
M  V30 3733 H 370.67 -0.344307 -5.98811 0
M  V30 3734 H 372.349 -0.745208 -6.42694 0
M  V30 3735 N 372.481 1.55866 -0.233164 0
M  V30 3736 C 373.444 2.1953 0.658715 0
M  V30 3737 C 374.444 1.16053 1.11303 0
M  V30 3738 O 375.634 1.41218 1.01996 0
M  V30 3739 C 372.766 2.82791 1.90373 0
M  V30 3740 H 373.959 2.99721 0.10347 0
M  V30 3741 H 371.512 1.56291 0.0164245 0
M  V30 3742 H 372.247 2.06501 2.50056 0
M  V30 3743 H 372.032 3.58578 1.58632 0
M  V30 3744 H 373.522 3.31556 2.53891 0
M  V30 3745 N 373.959 -0.0401083 1.57549 0
M  V30 3746 C 375.236 -0.767917 1.79896 0
M  V30 3747 C 375.616 -1.9416 0.82856 0
M  V30 3748 O 374.964 -2.2812 -0.131671 0
M  V30 3749 C 375.174 -1.2113 3.27305 0
M  V30 3750 C 376.522 -1.63175 3.91994 0
M  V30 3751 O 377.546 -1.30616 3.31388 0
M  V30 3752 O 376.405 -2.23565 4.98679 0
M  V30 3753 H 373.499 -0.370441 0.739393 0
M  V30 3754 H 376.045 -0.017737 1.69691 0
M  V30 3755 H 374.817 -0.372937 3.89519 0
M  V30 3756 H 374.44 -2.02183 3.42356 0
M  V30 3757 N 375.437 -1.54477 -0.31217 0
M  V30 3758 C 376.4 -1.83923 -1.36766 0
M  V30 3759 C 377.4 -0.711563 -1.44199 0
M  V30 3760 O 378.59 -0.979866 -1.44029 0
M  V30 3761 C 375.722 -2.0095 -2.75376 0
M  V30 3762 H 376.915 -2.78239 -1.11906 0
M  V30 3763 H 374.468 -1.46369 -0.548257 0
M  V30 3764 H 375.203 -1.08883 -3.05475 0
M  V30 3765 H 374.988 -2.83018 -2.71373 0
M  V30 3766 H 376.478 -2.2514 -3.51713 0
M  V30 3767 N 376.915 0.57481 -1.46744 0
M  V30 3768 C 377.878 1.66533 -1.57478 0
M  V30 3769 C 378.878 1.54338 -0.451263 0
M  V30 3770 O 380.068 1.58814 -0.715813 0
M  V30 3771 C 377.2 3.05999 -1.50259 0
M  V30 3772 H 378.393 1.58372 -2.54673 0
M  V30 3773 H 375.946 0.793301 -1.34672 0
M  V30 3774 H 376.681 3.19709 -0.543725 0
M  V30 3775 H 376.466 3.16259 -2.31781 0
M  V30 3776 H 377.956 3.8537 -1.60872 0
M  V30 3777 N 378.394 1.34581 0.820102 0
M  V30 3778 C 379.341 1.2639 1.93117 0
M  V30 3779 C 380.311 0.138554 1.65521 0
M  V30 3780 O 381.496 0.320004 1.88097 0
M  V30 3781 C 378.636 1.02812 3.29429 0
M  V30 3782 C 377.749 2.24146 3.693 0
M  V30 3783 C 376.884 1.93829 4.94574 0
M  V30 3784 C 375.923 3.1129 5.27034 0
M  V30 3785 N 375.06 2.80838 6.43486 0
M  V30 3786 H 379.9 2.21408 1.99455 0
M  V30 3787 H 377.437 1.10077 0.975784 0
M  V30 3788 H 379.395 0.871788 4.0799 0
M  V30 3789 H 378.025 0.114612 3.22596 0
M  V30 3790 H 377.077 2.50691 2.86109 0
M  V30 3791 H 378.389 3.11899 3.89257 0
M  V30 3792 H 377.543 1.74948 5.80929 0
M  V30 3793 H 376.282 1.03341 4.76626 0
M  V30 3794 H 375.287 3.30764 4.39175 0
M  V30 3795 H 376.512 4.02561 5.4692 0
M  V30 3796 H 374.458 1.92929 6.26988 0
M  V30 3797 H 374.375 3.62123 6.63629 0
M  V30 3798 H 375.643 2.65467 7.32903 0
M  V30 3799 N 379.872 -1.04064 1.18357 0
M  V30 3800 C 381.118 -1.77528 0.980397 0
M  V30 3801 C 381.451 -1.87948 -0.48879 0
M  V30 3802 O 380.726 -1.3876 -1.36293 0
M  V30 3803 C 381.009 -3.20797 1.63588 0
M  V30 3804 C 380.862 -3.1832 3.17793 0
M  V30 3805 C 382.181 -4.18911 1.34914 0
M  V30 3806 H 379.3 -0.644443 0.357578 0
M  V30 3807 H 381.942 -1.2156 1.46024 0
M  V30 3808 H 380.092 -3.68586 1.22788 0
M  V30 3809 H 381.764 -2.78521 3.67728 0
M  V30 3810 H 380.007 -2.56351 3.49952 0
M  V30 3811 H 380.678 -4.19489 3.58794 0
M  V30 3812 H 383.154 -3.7967 1.70265 0
M  V30 3813 H 382.03 -5.17374 1.83346 0
M  V30 3814 H 382.291 -4.41262 0.272027 0
M  V30 3815 N 381.35 -0.985608 -1.22978 0
M  V30 3816 C 382.313 -0.535071 -2.22867 0
M  V30 3817 C 383.313 0.378123 -1.56291 0
M  V30 3818 O 384.503 0.171092 -1.73358 0
M  V30 3819 C 381.635 0.222702 -3.40172 0
M  V30 3820 H 382.828 -1.41835 -2.6424 0
M  V30 3821 H 380.381 -0.772042 -1.35901 0
M  V30 3822 H 381.116 1.12229 -3.04262 0
M  V30 3823 H 380.901 -0.43288 -3.89703 0
M  V30 3824 H 382.391 0.526335 -4.1427 0
M  V30 3825 N 382.828 1.3818 -0.7579 0
M  V30 3826 C 384.074 2.00316 -0.316453 0
M  V30 3827 C 384.407 1.60026 1.10025 0
M  V30 3828 O 383.682 0.839835 1.75434 0
M  V30 3829 C 383.965 3.57349 -0.444245 0
M  V30 3830 C 383.818 4.07591 -1.90236 0
M  V30 3831 C 385.137 4.3981 0.1598 0
M  V30 3832 H 382.256 0.727741 -0.116459 0
M  V30 3833 H 384.898 1.6406 -0.958352 0
M  V30 3834 H 383.048 3.88365 0.102233 0
M  V30 3835 H 384.72 3.87199 -2.50748 0
M  V30 3836 H 382.963 3.60297 -2.41595 0
M  V30 3837 H 383.634 5.16677 -1.94291 0
M  V30 3838 H 386.11 4.14971 -0.306314 0
M  V30 3839 H 384.986 5.48885 0.0401675 0
M  V30 3840 H 385.247 4.24102 1.24859 0
M  V30 3841 N 384.306 0.507319 1.49211 0
M  V30 3842 C 385.216 -0.272136 2.33016 0
M  V30 3843 C 386.232 -0.961206 1.45041 0
M  V30 3844 O 387.408 -0.941191 1.78055 0
M  V30 3845 C 384.473 -1.31895 3.20631 0
M  V30 3846 C 383.534 -0.642648 4.24463 0
M  V30 3847 C 382.767 -1.63959 5.07891 0
M  V30 3848 O 382.99 -2.87007 4.92933 0
M  V30 3849 O 381.924 -1.19143 5.8999 0
M  V30 3850 H 385.75 0.413982 3.00865 0
M  V30 3851 H 383.335 0.268556 1.46966 0
M  V30 3852 H 385.217 -1.92446 3.7489 0
M  V30 3853 H 383.892 -1.98788 2.5547 0
M  V30 3854 H 382.799 0.00276252 3.741 0
M  V30 3855 H 384.132 -0.0160534 4.92197 0
M  V30 3856 N 385.784 -1.5574 0.241426 0
M  V30 3857 C 386.747 -2.19877 -0.647063 0
M  V30 3858 C 387.747 -1.16642 -1.10686 0
M  V30 3859 O 388.937 -1.41757 -1.01245 0
M  V30 3860 C 386.069 -2.83797 -1.88871 0
M  V30 3861 H 387.262 -2.99772 -0.087574 0
M  V30 3862 H 384.815 -1.56298 -0.00813574 0
M  V30 3863 H 385.55 -2.07824 -2.48957 0
M  V30 3864 H 385.335 -3.59414 -1.56728 0
M  V30 3865 H 386.825 -3.32898 -2.52129 0
M  V30 3866 N 387.262 0.0317525 -1.57568 0
M  V30 3867 C 388.511 0.722131 -1.8833 0
M  V30 3868 C 388.824 1.76664 -0.839587 0
M  V30 3869 O 390.03 2.50942 -1.03635 0
M  V30 3870 C 388.486 1.33544 -3.34207 0
M  V30 3871 C 388.094 0.327415 -4.46802 0
M  V30 3872 C 389.838 2.00585 -3.7412 0
M  V30 3873 C 387.745 0.948915 -5.83738 0
M  V30 3874 H 386.675 0.273466 -0.702661 0
M  V30 3875 H 389.326 -0.0235811 -1.83485 0
M  V30 3876 H 387.708 2.13077 -3.33788 0
M  V30 3877 H 388.882 -0.441006 -4.58685 0
M  V30 3878 H 387.197 -0.240758 -4.15703 0
M  V30 3879 H 389.794 2.47932 -4.73744 0
M  V30 3880 H 390.137 2.82285 -3.05975 0
M  V30 3881 H 390.67 1.27831 -3.76702 0
M  V30 3882 H 387.409 0.171387 -6.55276 0
M  V30 3883 H 386.929 1.68724 -5.7558 0
M  V30 3884 H 388.608 1.45705 -6.3038 0
M  V30 3885 N 388.74 1.54641 0.303973 0
M  V30 3886 C 390.156 1.45788 0.649463 0
M  V30 3887 C 390.356 0.64666 1.90842 0
M  V30 3888 O 389.412 0.153183 2.52035 0
M  V30 3889 C 390.725 2.89718 0.805227 0
M  V30 3890 C 392.273 2.99742 0.901305 0
M  V30 3891 C 392.748 4.44863 1.08909 0
M  V30 3892 N 394.239 4.48559 1.15536 0
M  V30 3893 C 394.974 5.58026 1.3189 0
M  V30 3894 N 394.47 6.77422 1.45161 0
M  V30 3895 N 396.263 5.45708 1.34755 0
M  V30 3896 H 388.414 2.05854 -0.523237 0
M  V30 3897 H 390.677 0.932186 -0.172431 0
M  V30 3898 H 390.383 3.51666 -0.0489108 0
M  V30 3899 H 390.257 3.36964 1.69513 0
M  V30 3900 H 392.644 2.3791 1.74593 0
M  V30 3901 H 392.725 2.55797 -0.0125531 0
M  V30 3902 H 392.369 5.07288 0.249241 0
M  V30 3903 H 392.299 4.86436 2.01713 0
M  V30 3904 H 394.79 3.6254 1.06646 0
M  V30 3905 H 395.103 7.56604 1.57387 0
M  V30 3906 H 393.448 6.80292 1.42223 0
M  V30 3907 H 396.639 4.51378 1.23996 0
M  V30 3908 H 396.812 6.3107 1.47157 0
M  V30 3909 N 390.218 -0.567019 1.47046 0
M  V30 3910 C 391.181 -1.65696 1.58359 0
M  V30 3911 C 392.181 -1.54097 0.459441 0
M  V30 3912 O 393.371 -1.58432 0.724225 0
M  V30 3913 C 390.503 -3.05197 1.51879 0
M  V30 3914 H 391.696 -1.57019 2.5551 0
M  V30 3915 H 389.249 -0.786148 1.3509 0
M  V30 3916 H 389.984 -3.19417 0.560673 0
M  V30 3917 H 389.769 -3.15025 2.33455 0
M  V30 3918 H 391.259 -3.84511 1.62913 0
M  V30 3919 N 391.696 -1.35014 -0.812953 0
M  V30 3920 C 392.628 -1.23262 -1.93233 0
M  V30 3921 C 393.641 -0.157371 -1.62038 0
M  V30 3922 O 394.83 -0.410096 -1.73725 0
M  V30 3923 C 391.93 -0.87392 -3.27438 0
M  V30 3924 C 391.103 -2.04622 -3.86586 0
M  V30 3925 C 390.162 -1.66432 -4.99186 0
M  V30 3926 O 389.188 -2.38222 -5.16951 0
M  V30 3927 N 390.39 -0.584248 -5.77552 0
M  V30 3928 H 393.155 -2.19699 -2.03844 0
M  V30 3929 H 390.716 -1.281 -0.99005 0
M  V30 3930 H 392.708 -0.600039 -4.00227 0
M  V30 3931 H 391.278 0.00057392 -3.126 0
M  V30 3932 H 390.498 -2.48427 -3.06068 0
M  V30 3933 H 391.786 -2.82999 -4.22835 0
M  V30 3934 H 391.184 0.0123526 -5.65699 0
M  V30 3935 H 389.741 -0.37013 -6.50748 0
M  V30 3936 N 393.175 1.03435 -1.18907 0
M  V30 3937 C 394.423 1.76394 -0.986382 0
M  V30 3938 C 394.744 1.88883 0.484567 0
M  V30 3939 O 394.014 1.41843 1.3512 0
M  V30 3940 H 392.594 0.65344 -0.361975 0
M  V30 3941 H 395.256 1.248 -1.49703 0
M  V30 3942 H 394.352 2.77424 -1.42978 0
M  V30 3943 N 394.653 0.992116 1.22453 0
M  V30 3944 C 396.069 0.702713 1.43297 0
M  V30 3945 C 396.269 -0.726909 1.87932 0
M  V30 3946 O 395.325 -1.49792 2.0327 0
M  V30 3947 C 396.638 1.70762 2.47509 0
M  V30 3948 C 398.186 1.72298 2.61309 0
M  V30 3949 C 398.661 2.71649 3.68742 0
M  V30 3950 N 400.152 2.70239 3.76199 0
M  V30 3951 C 400.887 3.43778 4.58917 0
M  V30 3952 N 400.383 4.26914 5.45633 0
M  V30 3953 N 402.176 3.32487 4.5322 0
M  V30 3954 H 394.327 1.91543 0.917871 0
M  V30 3955 H 396.59 0.826031 0.465162 0
M  V30 3956 H 396.296 2.73059 2.21657 0
M  V30 3957 H 396.17 1.49985 3.46099 0
M  V30 3958 H 398.557 0.706989 2.86506 0
M  V30 3959 H 398.638 1.97143 1.62997 0
M  V30 3960 H 398.282 3.73397 3.44292 0
M  V30 3961 H 398.212 2.44074 4.66622 0
M  V30 3962 H 400.703 2.09912 3.14237 0
M  V30 3963 H 401.016 4.79855 6.05771 0
M  V30 3964 H 399.361 4.31002 5.45218 0
M  V30 3965 H 402.552 2.6698 3.84499 0
M  V30 3966 H 402.725 3.90058 5.17454 0
M  V30 3967 N 396.131 -1.37776 0.765217 0
M  V30 3968 C 397.547 -1.53297 0.444108 0
M  V30 3969 C 397.747 -1.72515 -1.04119 0
M  V30 3970 O 396.803 -1.74278 -1.82711 0
M  V30 3971 C 398.116 -2.73328 1.25349 0
M  V30 3972 C 399.664 -2.87185 1.24473 0
M  V30 3973 C 400.139 -4.10191 2.03733 0
M  V30 3974 N 401.63 -4.17291 2.01053 0
M  V30 3975 C 402.365 -5.11488 2.59166 0
M  V30 3976 N 401.861 -6.11285 3.26041 0
M  V30 3977 N 403.654 -5.03924 2.49032 0
M  V30 3978 H 395.805 -1.23552 1.72768 0
M  V30 3979 H 398.068 -0.601103 0.733062 0
M  V30 3980 H 397.774 -2.6557 2.30577 0
M  V30 3981 H 397.648 -3.66834 0.87823 0
M  V30 3982 H 400.035 -2.94418 0.20047 0
M  V30 3983 H 400.116 -1.94657 1.65959 0
M  V30 3984 H 399.76 -4.0372 3.08176 0
M  V30 3985 H 399.69 -5.01821 1.59633 0
M  V30 3986 H 402.181 -3.45825 1.5236 0
M  V30 3987 H 402.494 -6.79678 3.67774 0
M  V30 3988 H 400.839 -6.11583 3.30138 0
M  V30 3989 H 404.03 -4.24902 1.96407 0
M  V30 3990 H 404.203 -5.77152 2.94617 0
M  V30 3991 N 397.609 -0.515225 -1.4894 0
M  V30 3992 C 398.855 0.0242508 -2.02785 0
M  V30 3993 C 399.188 1.35323 -1.39289 0
M  V30 3994 O 398.463 1.87041 -0.533469 0
M  V30 3995 C 398.746 0.16184 -3.59736 0
M  V30 3996 C 398.599 -1.19127 -4.33738 0
M  V30 3997 C 399.918 0.895719 -4.30888 0
M  V30 3998 H 397.037 0.00733914 -0.736963 0
M  V30 3999 H 399.679 -0.669395 -1.77818 0
M  V30 4000 H 397.829 0.752624 -3.8114 0
M  V30 4001 H 399.501 -1.82202 -4.23792 0
M  V30 4002 H 397.744 -1.77695 -3.95736 0
M  V30 4003 H 398.415 -1.04815 -5.41957 0
M  V30 4004 H 400.891 0.394528 -4.14225 0
M  V30 4005 H 399.767 0.960859 -5.40425 0
M  V30 4006 H 400.028 1.9427 -3.97129 0
M  V30 4007 N 399.087 1.5561 -0.249682 0
M  V30 4008 C 400.336 1.98187 0.37479 0
M  V30 4009 C 400.649 1.14111 1.58865 0
M  V30 4010 O 401.855 1.46714 2.28445 0
M  V30 4011 C 400.311 3.52661 0.718192 0
M  V30 4012 C 399.919 4.45481 -0.474428 0
M  V30 4013 C 401.663 4.03888 1.3067 0
M  V30 4014 C 399.57 5.91303 -0.107026 0
M  V30 4015 H 398.5 0.740159 0.143808 0
M  V30 4016 H 401.151 1.80125 -0.350336 0
M  V30 4017 H 399.533 3.66429 1.50152 0
M  V30 4018 H 400.707 4.43473 -1.25172 0
M  V30 4019 H 399.022 4.04751 -0.978052 0
M  V30 4020 H 401.619 5.10358 1.59496 0
M  V30 4021 H 401.962 3.51401 2.23211 0
M  V30 4022 H 402.495 3.93457 0.586211 0
M  V30 4023 H 399.234 6.47833 -0.999642 0
M  V30 4024 H 398.754 5.9644 0.634013 0
M  V30 4025 H 400.433 6.46258 0.309807 0
M  V30 4026 N 400.565 -0.0233959 1.57583 0
M  V30 4027 C 401.495 -1.02162 2.09965 0
M  V30 4028 C 402.476 -1.3735 1.00344 0
M  V30 4029 O 403.661 -1.46135 1.27899 0
M  V30 4030 C 400.791 -2.32081 2.58371 0
M  V30 4031 C 399.745 -2.1112 3.72307 0
M  V30 4032 C 399.071 -3.46848 4.06941 0
M  V30 4033 C 400.371 -1.49276 5.00514 0
M  V30 4034 H 402.065 -0.585557 2.93618 0
M  V30 4035 H 399.611 -0.280218 1.41247 0
M  V30 4036 H 401.564 -3.02249 2.93639 0
M  V30 4037 H 400.288 -2.77758 1.71808 0
M  V30 4038 H 398.947 -1.43384 3.37397 0
M  V30 4039 H 398.595 -3.90184 3.17436 0
M  V30 4040 H 398.295 -3.33646 4.83688 0
M  V30 4041 H 399.819 -4.18369 4.44747 0
M  V30 4042 H 401.233 -2.09368 5.33702 0
M  V30 4043 H 399.63 -1.46632 5.8191 0
M  V30 4044 H 400.7 -0.459217 4.82721 0
M  V30 4045 N 402.043 -1.548 -0.295768 0
M  V30 4046 C 403.268 -1.78653 -1.05346 0
M  V30 4047 C 403.693 -0.546894 -1.79974 0
M  V30 4048 O 403.051 0.502763 -1.7419 0
M  V30 4049 C 403.099 -2.99679 -2.00561 0
M  V30 4050 O 402.203 -2.7317 -3.08953 0
M  V30 4051 H 401.544 -0.59116 -0.302367 0
M  V30 4052 H 404.074 -2.01895 -0.331598 0
M  V30 4053 H 404.084 -3.27793 -2.42932 0
M  V30 4054 H 402.759 -3.89562 -1.4565 0
M  V30 4055 H 401.336 -2.56089 -2.71059 0
M  V30 4056 N 403.521 0.559213 -1.47345 0
M  V30 4057 C 404.937 0.884943 -1.32819 0
M  V30 4058 C 405.137 1.98988 -0.317173 0
M  V30 4059 O 404.193 2.51031 0.272011 0
M  V30 4060 C 405.506 1.28007 -2.72093 0
M  V30 4061 C 407.054 1.39161 -2.80363 0
M  V30 4062 C 407.529 1.82031 -4.20272 0
M  V30 4063 N 409.02 1.89185 -4.22804 0
M  V30 4064 C 409.755 2.2368 -5.27973 0
M  V30 4065 N 409.251 2.56802 -6.43447 0
M  V30 4066 N 411.044 2.24436 -5.15349 0
M  V30 4067 H 403.195 -0.170304 -2.11716 0
M  V30 4068 H 405.458 -0.0135247 -0.947904 0
M  V30 4069 H 405.164 0.542027 -3.47498 0
M  V30 4070 H 405.038 2.23665 -3.03733 0
M  V30 4071 H 407.425 2.12048 -2.05231 0
M  V30 4072 H 407.506 0.41696 -2.52379 0
M  V30 4073 H 407.15 1.09715 -4.95908 0
M  V30 4074 H 407.08 2.80495 -4.45679 0
M  V30 4075 H 409.571 1.65982 -3.39497 0
M  V30 4076 H 409.884 2.82144 -7.19454 0
M  V30 4077 H 408.229 2.54387 -6.46771 0
M  V30 4078 H 411.42 1.97998 -4.24163 0
M  V30 4079 H 411.593 2.50989 -5.97418 0
M  V30 4080 N 404.999 1.35443 0.805782 0
M  V30 4081 C 406.247 1.28507 1.55982 0
M  V30 4082 C 406.568 -0.140046 1.94496 0
M  V30 4083 O 405.838 -1.07666 1.63661 0
M  V30 4084 H 404.418 0.472676 0.578434 0
M  V30 4085 H 407.08 1.69555 0.961098 0
M  V30 4086 H 406.176 1.90148 2.47488 0
M  V30 4087 N 406.477 -1.02803 1.19454 0
M  V30 4088 C 407.723 -1.76598 1.0092 0
M  V30 4089 C 408.078 -1.86939 -0.455142 0
M  V30 4090 O 407.371 -1.37575 -1.33355 0
M  V30 4091 C 407.565 -3.18941 1.6128 0
M  V30 4092 C 407.394 -3.22476 3.13431 0
M  V30 4093 C 406.164 -3.30375 3.82336 0
M  V30 4094 C 408.362 -3.09451 4.10785 0
M  V30 4095 N 406.344 -3.23292 5.21877 0
M  V30 4096 C 407.715 -3.10012 5.36929 0
M  V30 4097 C 409.77 -2.93585 4.02135 0
M  V30 4098 C 408.473 -2.96334 6.55423 0
M  V30 4099 C 410.499 -2.81256 5.20239 0
M  V30 4100 C 409.861 -2.82472 6.45282 0
M  V30 4101 H 405.96 -0.657447 0.423424 0
M  V30 4102 H 408.544 -1.22369 1.5144 0
M  V30 4103 H 406.715 -3.71489 1.1336 0
M  V30 4104 H 408.447 -3.81102 1.36173 0
M  V30 4105 H 405.202 -3.3663 3.33132 0
M  V30 4106 H 405.626 -3.23156 5.94894 0
M  V30 4107 H 410.268 -2.91466 3.0628 0
M  V30 4108 H 407.986 -2.97203 7.51463 0
M  V30 4109 H 411.572 -2.70014 5.15348 0
M  V30 4110 H 410.452 -2.73036 7.35133 0
M  V30 4111 N 407.956 -0.998596 -1.21925 0
M  V30 4112 C 409.184 -0.696286 -1.94832 0
M  V30 4113 C 409.599 0.740032 -1.73692 0
M  V30 4114 O 408.956 1.5 -1.03953 0
M  V30 4115 C 409.007 -0.999833 -3.47398 0
M  V30 4116 O 408.728 -2.37972 -3.67833 0
M  V30 4117 C 410.229 -0.716025 -4.37479 0
M  V30 4118 H 407.449 -0.257111 -0.619786 0
M  V30 4119 H 409.993 -1.33491 -1.54921 0
M  V30 4120 H 408.148 -0.406918 -3.85257 0
M  V30 4121 H 408.562 -2.48338 -4.61983 0
M  V30 4122 H 410.036 -0.978642 -5.43256 0
M  V30 4123 H 410.513 0.349968 -4.37803 0
M  V30 4124 H 411.119 -1.29025 -4.05256 0
M  V30 4125 N 409.434 1.37368 -0.772513 0
M  V30 4126 C 410.344 2.34053 -0.160081 0
M  V30 4127 C 411.36 1.60216 0.678728 0
M  V30 4128 O 412.536 1.92303 0.59847 0
M  V30 4129 C 409.601 3.3939 0.708182 0
M  V30 4130 C 408.662 4.29048 -0.147172 0
M  V30 4131 C 407.895 5.29354 0.679744 0
M  V30 4132 O 408.118 5.3723 1.91678 0
M  V30 4133 O 407.052 6.01835 0.0885444 0
M  V30 4134 H 410.878 2.88159 -0.959053 0
M  V30 4135 H 408.463 1.39543 -0.533685 0
M  V30 4136 H 410.345 4.03839 1.20384 0
M  V30 4137 H 409.02 2.8761 1.48533 0
M  V30 4138 H 407.927 3.67697 -0.689205 0
M  V30 4139 H 409.26 4.84134 -0.887423 0
M  V30 4140 N 410.912 0.523116 1.48665 0
M  V30 4141 C 411.842 -0.23231 2.32342 0
M  V30 4142 C 412.823 -0.941637 1.41659 0
M  V30 4143 O 414.008 -0.928751 1.70552 0
M  V30 4144 C 411.138 -1.28387 3.22698 0
M  V30 4145 C 410.092 -0.693098 4.22351 0
M  V30 4146 C 409.418 -1.8468 5.01794 0
M  V30 4147 C 410.718 0.33063 5.21252 0
M  V30 4148 H 412.412 0.466192 2.95748 0
M  V30 4149 H 409.958 0.225643 1.42221 0
M  V30 4150 H 411.911 -1.82024 3.80059 0
M  V30 4151 H 410.635 -2.01186 2.57278 0
M  V30 4152 H 409.294 -0.178299 3.66166 0
M  V30 4153 H 408.942 -2.56301 4.32804 0
M  V30 4154 H 408.642 -1.45747 5.69238 0
M  V30 4155 H 410.166 -2.38709 5.62006 0
M  V30 4156 H 411.58 -0.118407 5.73178 0
M  V30 4157 H 409.977 0.636974 5.9671 0
M  V30 4158 H 411.047 1.23883 4.68808 0
M  V30 4159 N 412.39 -1.55475 0.257931 0
M  V30 4160 C 413.636 -1.99502 -0.364266 0
M  V30 4161 C 413.969 -1.146 -1.56782 0
M  V30 4162 O 413.244 -0.211968 -1.93342 0
M  V30 4163 C 413.527 -3.51917 -0.763333 0
M  V30 4164 C 413.38 -4.4758 0.446371 0
M  V30 4165 C 414.699 -4.09742 -1.60623 0
M  V30 4166 H 411.818 -0.725277 -0.130929 0
M  V30 4167 H 414.46 -1.8653 0.361446 0
M  V30 4168 H 412.61 -3.63101 -1.38166 0
M  V30 4169 H 414.282 -4.48362 1.08487 0
M  V30 4170 H 412.525 -4.19947 1.08753 0
M  V30 4171 H 413.196 -5.51862 0.123645 0
M  V30 4172 H 415.672 -4.01727 -1.08418 0
M  V30 4173 H 414.548 -5.16631 -1.85429 0
M  V30 4174 H 414.809 -3.58889 -2.58169 0
M  V30 4175 N 413.868 0.0150385 -1.57593 0
M  V30 4176 C 414.798 1.01047 -2.10503 0
M  V30 4177 C 415.779 1.36816 -1.01071 0
M  V30 4178 O 416.964 1.45455 -1.28672 0
M  V30 4179 C 414.094 2.30708 -2.59598 0
M  V30 4180 C 413.048 2.09142 -3.73421 0
M  V30 4181 C 412.374 3.44685 -4.08774 0
M  V30 4182 C 413.674 1.46619 -5.01298 0
M  V30 4183 H 415.368 0.569978 -2.93925 0
M  V30 4184 H 412.914 0.272724 -1.41394 0
M  V30 4185 H 414.867 3.00687 -2.95238 0
M  V30 4186 H 413.591 2.76843 -1.73279 0
M  V30 4187 H 412.25 1.41592 -3.38153 0
M  V30 4188 H 411.898 3.88495 -3.195 0
M  V30 4189 H 411.598 3.31077 -4.8545 0
M  V30 4190 H 413.122 4.16004 -4.4696 0
M  V30 4191 H 414.536 2.06535 -5.34805 0
M  V30 4192 H 412.933 1.43544 -5.82679 0
M  V30 4193 H 414.003 0.433611 -4.82957 0
M  V30 4194 N 415.346 1.54954 0.287554 0
M  V30 4195 C 416.757 1.65732 0.859634 0
M  V30 4196 C 417.108 0.574767 1.87592 0
M  V30 4197 O 416.233 -0.286299 2.14498 0
M  V30 4198 C 416.828 3.00438 1.56597 0
M  V30 4199 C 415.387 3.13292 2.08627 0
M  V30 4200 C 414.534 2.61473 0.923416 0
M  V30 4201 H 417.485 1.5857 0.0642338 0
M  V30 4202 H 417.506 2.92613 2.43224 0
M  V30 4203 H 417.018 3.79207 0.826053 0
M  V30 4204 H 415.119 2.39268 2.85625 0
M  V30 4205 H 415.232 4.19647 2.31157 0
M  V30 4206 H 413.596 2.18264 1.31275 0
M  V30 4207 H 414.379 3.42733 0.197241 0
M  V30 4208 N 416.824 -0.551391 1.4764 0
M  V30 4209 C 418.101 -1.31229 1.45046 0
M  V30 4210 C 418.481 -2.10563 0.150527 0
M  V30 4211 O 417.829 -2.11374 -0.867956 0
M  V30 4212 C 418.039 -2.21189 2.69956 0
M  V30 4213 C 419.387 -2.82021 3.1741 0
M  V30 4214 O 420.411 -2.31488 2.70724 0
M  V30 4215 O 419.27 -3.73885 3.98588 0
M  V30 4216 H 416.364 -0.591193 0.578291 0
M  V30 4217 H 418.91 -0.569813 1.59847 0
M  V30 4218 H 417.682 -1.62207 3.56096 0
M  V30 4219 H 417.305 -3.02722 2.57769 0
M  V30 4220 N 418.302 -1.35869 -0.798587 0
M  V30 4221 C 419.579 -1.20145 -1.54352 0
M  V30 4222 C 419.959 0.216161 -2.0999 0
M  V30 4223 O 419.307 1.22068 -1.93162 0
M  V30 4224 C 419.517 -2.27602 -2.64572 0
M  V30 4225 C 420.865 -2.63811 -3.32699 0
M  V30 4226 O 421.889 -2.26576 -2.74849 0
M  V30 4227 O 420.748 -3.27866 -4.37226 0
M  V30 4228 H 417.842 -0.467248 -0.682355 0
M  V30 4229 H 420.388 -1.47574 -0.837859 0
M  V30 4230 H 419.16 -3.2265 -2.21388 0
M  V30 4231 H 418.783 -2.01488 -3.42766 0
M  V30 4232 N 419.78 1.02168 -1.19998 0
M  V30 4233 C 421.196 1.27969 -0.953737 0
M  V30 4234 C 421.396 1.98079 0.369703 0
M  V30 4235 O 420.452 2.27306 1.09947 0
M  V30 4236 C 421.765 2.11971 -2.13281 0
M  V30 4237 C 423.313 2.25255 -2.17323 0
M  V30 4238 C 423.788 3.12632 -3.34702 0
M  V30 4239 N 425.279 3.2022 -3.34684 0
M  V30 4240 C 426.014 3.88039 -4.22153 0
M  V30 4241 N 425.51 4.58027 -5.19791 0
M  V30 4242 N 427.303 3.84511 -4.10009 0
M  V30 4243 H 419.454 0.550794 -2.05134 0
M  V30 4244 H 421.717 0.305683 -0.897364 0
M  V30 4245 H 421.423 1.67785 -3.09097 0
M  V30 4246 H 421.297 3.12699 -2.10949 0
M  V30 4247 H 423.684 2.68667 -1.22073 0
M  V30 4248 H 423.765 1.24053 -2.23706 0
M  V30 4249 H 423.409 2.69926 -4.30235 0
M  V30 4250 H 423.339 4.13909 -3.25556 0
M  V30 4251 H 425.83 2.70382 -2.64012 0
M  V30 4252 H 426.143 5.07429 -5.82868 0
M  V30 4253 H 424.488 4.56869 -5.23733 0
M  V30 4254 H 427.679 3.28978 -3.33003 0
M  V30 4255 H 427.852 4.3709 -4.78389 0
M  V30 4256 N 421.258 1.00505 1.21394 0
M  V30 4257 C 422.535 0.603277 1.86064 0
M  V30 4258 C 422.915 -0.919095 1.90042 0
M  V30 4259 O 422.263 -1.80607 1.39977 0
M  V30 4260 C 422.473 1.23772 3.26315 0
M  V30 4261 C 423.821 1.34586 4.02705 0
M  V30 4262 O 424.845 1.19304 3.35626 0
M  V30 4263 O 423.704 1.59169 5.22807 0
M  V30 4264 H 420.798 0.206634 0.800769 0
M  V30 4265 H 423.344 1.1017 1.29076 0
M  V30 4266 H 422.116 2.27848 3.18121 0
M  V30 4267 H 421.739 0.725648 3.90922 0
M  V30 4268 N 422.737 -1.36956 0.779787 0
M  V30 4269 C 424.014 -1.93697 0.272156 0
M  V30 4270 C 424.394 -1.71267 -1.23413 0
M  V30 4271 O 423.742 -1.06607 -2.02107 0
M  V30 4272 C 423.952 -3.42812 0.654291 0
M  V30 4273 C 425.3 -4.19921 0.628602 0
M  V30 4274 O 426.324 -3.51209 0.594172 0
M  V30 4275 O 425.183 -5.42465 0.662864 0
M  V30 4276 H 422.277 -0.824447 0.0649286 0
M  V30 4277 H 424.823 -1.46196 0.861682 0
M  V30 4278 H 423.595 -3.52754 1.69353 0
M  V30 4279 H 423.218 -3.97582 0.0381369 0
M  V30 4280 N 424.215 -0.530993 -1.48385 0
M  V30 4281 C 425.455 0.000718982 -2.044 0
M  V30 4282 C 425.819 1.31485 -1.39913 0
M  V30 4283 O 427.02 1.93265 -1.86821 0
M  V30 4284 C 425.291 0.119177 -3.57201 0
M  V30 4285 S 426.85 0.600806 -4.34667 0
M  V30 4286 H 423.668 -0.0125473 -0.710889 0
M  V30 4287 H 426.27 -0.711783 -1.82082 0
M  V30 4288 H 424.974 -0.842061 -4.01668 0
M  V30 4289 H 424.505 0.856026 -3.83974 0
M  V30 4290 H 426.52 1.86514 -4.59812 0
M  V30 4291 N 425.693 1.55336 -0.266172 0
M  V30 4292 C 426.94 1.99397 0.353158 0
M  V30 4293 C 427.268 1.15451 1.56529 0
M  V30 4294 O 426.523 0.209974 1.9457 0
M  V30 4295 C 426.822 3.48606 0.787957 0
M  V30 4296 C 426.488 4.49773 -0.318541 0
M  V30 4297 C 425.15 4.77158 -0.62239 0
M  V30 4298 C 427.502 5.10212 -1.06459 0
M  V30 4299 C 424.83 5.62251 -1.67602 0
M  V30 4300 C 427.182 5.96449 -2.10788 0
M  V30 4301 C 425.846 6.22158 -2.41817 0
M  V30 4302 H 425.116 0.729644 0.12923 0
M  V30 4303 H 427.763 1.87732 -0.37802 0
M  V30 4304 H 426.068 3.57701 1.59866 0
M  V30 4305 H 427.765 3.80098 1.27775 0
M  V30 4306 H 424.355 4.2854 -0.0715925 0
M  V30 4307 H 428.539 4.89086 -0.843098 0
M  V30 4308 H 423.795 5.80419 -1.92155 0
M  V30 4309 H 427.969 6.42317 -2.69076 0
M  V30 4310 H 425.596 6.87888 -3.23596 0
M  V30 4311 N 427.171 -0.0066808 1.57599 0
M  V30 4312 C 428.134 -0.985035 2.06953 0
M  V30 4313 C 429.134 -1.27663 0.977687 0
M  V30 4314 O 430.324 -1.22293 1.24057 0
M  V30 4315 C 427.456 -2.3118 2.50536 0
M  V30 4316 H 428.649 -0.558255 2.94658 0
M  V30 4317 H 426.202 -0.254011 1.54222 0
M  V30 4318 H 426.937 -2.78561 1.66054 0
M  V30 4319 H 426.722 -2.11338 3.3027 0
M  V30 4320 H 428.212 -3.01377 2.8907 0
M  V30 4321 N 428.649 -1.55105 -0.279332 0
M  V30 4322 C 429.898 -1.74618 -1.00952 0
M  V30 4323 C 430.211 -0.551096 -1.87676 0
M  V30 4324 O 431.417 -0.628507 -2.64125 0
M  V30 4325 C 429.873 -3.09025 -1.84476 0
M  V30 4326 C 429.481 -4.36081 -1.0265 0
M  V30 4327 C 431.225 -3.37891 -2.56963 0
M  V30 4328 C 429.132 -5.6153 -1.85576 0
M  V30 4329 H 428.062 -0.650868 -0.38064 0
M  V30 4330 H 430.713 -1.81569 -0.265475 0
M  V30 4331 H 429.095 -2.96095 -2.62952 0
M  V30 4332 H 430.269 -4.59909 -0.286354 0
M  V30 4333 H 428.584 -4.14312 -0.416464 0
M  V30 4334 H 431.181 -4.28822 -3.19399 0
M  V30 4335 H 431.524 -2.57737 -3.26921 0
M  V30 4336 H 432.057 -3.5189 -1.85522 0
M  V30 4337 H 428.796 -6.44413 -1.2005 0
M  V30 4338 H 428.316 -5.41854 -2.57204 0
M  V30 4339 H 429.995 -5.99594 -2.43096 0
M  V30 4340 N 430.127 0.543554 -1.4793 0
M  V30 4341 C 431.404 1.30458 -1.4574 0
M  V30 4342 C 431.784 2.1048 -0.161692 0
M  V30 4343 O 431.132 2.11831 0.856734 0
M  V30 4344 C 431.342 2.19754 -2.71126 0
M  V30 4345 C 432.69 2.80334 -3.18901 0
M  V30 4346 O 433.714 2.30049 -2.71948 0
M  V30 4347 O 432.573 3.71766 -4.00565 0
M  V30 4348 H 429.667 0.588117 -0.581418 0
M  V30 4349 H 432.213 0.561328 -1.60147 0
M  V30 4350 H 430.985 1.60316 -3.56952 0
M  V30 4351 H 430.608 3.01351 -2.59371 0
M  V30 4352 N 431.605 1.3629 0.791371 0
M  V30 4353 C 432.515 1.32606 1.93527 0
M  V30 4354 C 433.531 0.228541 1.72493 0
M  V30 4355 O 434.707 0.460571 1.96063 0
M  V30 4356 C 431.772 1.11271 3.28359 0
M  V30 4357 C 430.833 2.3048 3.62185 0
M  V30 4358 C 430.066 2.10154 4.90583 0
M  V30 4359 O 430.289 1.07572 5.60165 0
M  V30 4360 O 429.223 2.97884 5.23019 0
M  V30 4361 H 433.049 2.28909 1.99585 0
M  V30 4362 H 430.634 1.16818 0.931344 0
M  V30 4363 H 432.516 1.01283 4.09047 0
M  V30 4364 H 431.191 0.180292 3.23198 0
M  V30 4365 H 430.098 2.46036 2.81811 0
M  V30 4366 H 431.431 3.22221 3.72068 0
M  V30 4367 N 433.083 -1.0153 1.20538 0
M  V30 4368 C 434.329 -1.75408 1.01783 0
M  V30 4369 C 434.662 -1.88943 -0.448814 0
M  V30 4370 O 433.937 -1.4162 -1.33319 0
M  V30 4371 C 434.22 -3.17255 1.70356 0
M  V30 4372 C 434.073 -3.11508 3.24473 0
M  V30 4373 C 435.392 -4.15955 1.43769 0
M  V30 4374 H 432.511 -0.636713 0.371167 0
M  V30 4375 H 435.153 -1.18436 1.4857 0
M  V30 4376 H 433.303 -3.65898 1.30578 0
M  V30 4377 H 434.975 -2.70658 3.73553 0
M  V30 4378 H 433.218 -2.4887 3.55311 0
M  V30 4379 H 433.889 -4.11784 3.67611 0
M  V30 4380 H 436.365 -3.75973 1.7828 0
M  V30 4381 H 435.241 -5.13368 1.94279 0
M  V30 4382 H 435.502 -4.40586 0.365564 0
M  V30 4383 N 434.561 -1.01147 -1.20859 0
M  V30 4384 C 435.509 -0.57059 -2.25493 0
M  V30 4385 C 436.503 0.388109 -1.64894 0
M  V30 4386 O 437.709 0.258592 -1.78133 0
M  V30 4387 H 434.084 -0.166191 -0.733406 0
M  V30 4388 H 436.055 -1.46411 -2.60012 0
M  V30 4389 C 434.804 0.0805241 -3.47607 0
M  V30 4390 H 434.127 -0.648156 -3.94511 0
M  V30 4391 H 435.567 0.352197 -4.22535 0
M  V30 4392 C 434.026 1.32175 -3.09889 0
M  V30 4393 O 434.556 2.41553 -3.20959 0
M  V30 4394 N 432.762 1.20392 -2.64488 0
M  V30 4395 H 432.309 0.313905 -2.5568 0
M  V30 4396 H 432.267 2.03541 -2.39621 0
M  V30 4397 N 436.039 1.36541 -0.78704 0
M  V30 4398 C 437.286 1.99304 -0.358341 0
M  V30 4399 C 437.614 1.62467 1.06933 0
M  V30 4400 O 436.869 0.870019 1.75297 0
M  V30 4401 C 437.168 3.54343 -0.466485 0
M  V30 4402 C 436.834 4.10993 -1.85461 0
M  V30 4403 C 435.496 4.26177 -2.23443 0
M  V30 4404 C 437.848 4.41895 -2.76366 0
M  V30 4405 C 435.176 4.69573 -3.51736 0
M  V30 4406 C 437.528 4.86722 -4.04084 0
M  V30 4407 C 436.192 5.00112 -4.42091 0
M  V30 4408 H 435.462 0.729306 -0.131126 0
M  V30 4409 H 438.109 1.63068 -1.00404 0
M  V30 4410 H 436.414 3.90918 0.262719 0
M  V30 4411 H 438.111 4.00833 -0.115854 0
M  V30 4412 H 434.701 3.99612 -1.54946 0
M  V30 4413 H 438.885 4.29735 -2.48277 0
M  V30 4414 H 434.141 4.78127 -3.81057 0
M  V30 4415 H 438.315 5.09598 -4.7464 0
M  V30 4416 H 435.942 5.33498 -5.41557 0
M  V30 4417 N 437.518 0.538854 1.48102 0
M  V30 4418 C 438.45 -0.256278 2.27763 0
M  V30 4419 C 439.463 -0.89633 1.35904 0
M  V30 4420 O 440.652 -0.773275 1.60881 0
M  V30 4421 C 437.752 -1.37896 3.09577 0
M  V30 4422 C 436.925 -0.839159 4.29275 0
M  V30 4423 C 435.984 -1.84405 4.9283 0
M  V30 4424 O 435.01 -1.39746 5.51779 0
M  V30 4425 N 436.212 -3.17666 4.85869 0
M  V30 4426 H 438.977 0.426968 2.96643 0
M  V30 4427 H 436.538 0.373747 1.57527 0
M  V30 4428 H 438.53 -2.04955 3.48963 0
M  V30 4429 H 437.1 -1.96572 2.4306 0
M  V30 4430 H 436.32 0.00769287 3.94199 0
M  V30 4431 H 437.608 -0.457548 5.06739 0
M  V30 4432 H 437.006 -3.56609 4.39143 0
M  V30 4433 H 435.563 -3.80334 5.29329 0
M  V30 4434 N 438.996 -1.55193 0.274407 0
M  V30 4435 C 439.959 -2.212 -0.600279 0
M  V30 4436 C 440.959 -1.18963 -1.08187 0
M  V30 4437 O 442.149 -1.43873 -0.982158 0
M  V30 4438 C 439.281 -2.87739 -1.82809 0
M  V30 4439 H 440.474 -2.9989 -0.0239682 0
M  V30 4440 H 438.027 -1.5628 0.0250192 0
M  V30 4441 H 438.762 -2.13058 -2.44493 0
M  V30 4442 H 438.547 -3.62658 -1.49069 0
M  V30 4443 H 440.037 -3.38171 -2.45011 0
M  V30 4444 N 440.474 -0.00167713 -1.576 0
M  V30 4445 C 441.404 0.988091 -2.11563 0
M  V30 4446 C 442.385 1.35736 -1.02517 0
M  V30 4447 O 443.57 1.44082 -1.30208 0
M  V30 4448 C 440.7 2.27941 -2.62031 0
M  V30 4449 C 439.654 2.0517 -3.75619 0
M  V30 4450 C 438.98 3.4033 -4.12407 0
M  V30 4451 C 440.28 1.41294 -5.02825 0
M  V30 4452 H 441.974 0.538771 -2.94513 0
M  V30 4453 H 439.52 0.257712 -1.41675 0
M  V30 4454 H 441.473 2.97539 -2.9841 0
M  V30 4455 H 440.197 2.74989 -1.76205 0
M  V30 4456 H 438.856 1.37998 -3.39635 0
M  V30 4457 H 438.504 3.85085 -3.23603 0
M  V30 4458 H 438.204 3.25909 -4.88935 0
M  V30 4459 H 439.728 4.1124 -4.51347 0
M  V30 4460 H 441.142 2.00851 -5.36965 0
M  V30 4461 H 439.539 1.37356 -5.84169 0
M  V30 4462 H 440.609 0.382362 -4.8339 0
M  V30 4463 N 441.952 1.55251 0.271103 0
M  V30 4464 C 443.199 1.75946 1.00245 0
M  V30 4465 C 443.527 0.561611 1.86215 0
M  V30 4466 O 442.782 -0.455832 1.90317 0
M  V30 4467 C 443.081 3.01879 1.91321 0
M  V30 4468 C 442.747 4.34337 1.21086 0
M  V30 4469 C 441.409 4.70338 1.01666 0
M  V30 4470 C 443.761 5.16325 0.71119 0
M  V30 4471 C 441.089 5.8588 0.310099 0
M  V30 4472 C 443.441 6.32597 0.0182157 0
M  V30 4473 C 442.105 6.67236 -0.18768 0
M  V30 4474 H 441.375 0.643833 0.366824 0
M  V30 4475 H 444.022 1.89521 0.27458 0
M  V30 4476 H 442.327 2.83212 2.70736 0
M  V30 4477 H 444.024 3.15088 2.48033 0
M  V30 4478 H 440.614 4.06043 1.37213 0
M  V30 4479 H 444.798 4.88987 0.848844 0
M  V30 4480 H 440.054 6.1124 0.139873 0
M  V30 4481 H 444.228 6.9538 -0.376711 0
M  V30 4482 H 441.855 7.56618 -0.73715 0
M  V30 4483 N 443.43 -0.535701 1.48216 0
M  V30 4484 C 444.846 -0.863701 1.3421 0
M  V30 4485 C 445.046 -1.98458 0.34879 0
M  V30 4486 O 444.102 -2.51432 -0.23204 0
M  V30 4487 C 445.415 -1.23662 2.74095 0
M  V30 4488 C 446.963 -1.34683 2.82541 0
M  V30 4489 C 447.438 -1.75322 4.23115 0
M  V30 4490 N 448.929 -1.82434 4.2576 0
M  V30 4491 C 449.664 -2.15252 5.31464 0
M  V30 4492 N 449.16 -2.46533 6.47452 0
M  V30 4493 N 450.953 -2.16209 5.18855 0
M  V30 4494 H 443.104 0.203965 2.11418 0
M  V30 4495 H 445.367 0.0286033 0.947568 0
M  V30 4496 H 445.073 -0.486674 3.48316 0
M  V30 4497 H 444.947 -2.18805 3.07253 0
M  V30 4498 H 447.334 -2.08756 2.08579 0
M  V30 4499 H 447.415 -0.376756 2.5301 0
M  V30 4500 H 447.059 -1.01812 4.97591 0
M  V30 4501 H 446.989 -2.7337 4.50085 0
M  V30 4502 H 449.48 -1.6056 3.42095 0
M  V30 4503 H 449.793 -2.70662 7.23852 0
M  V30 4504 H 448.138 -2.44065 6.50736 0
M  V30 4505 H 451.329 -1.91224 4.2726 0
M  V30 4506 H 451.502 -2.41453 6.01335 0
M  V30 4507 N 444.908 -1.36708 -0.784132 0
M  V30 4508 C 446.324 -1.17237 -1.08294 0
M  V30 4509 C 446.524 -5.93947e-05 -2.015 0
M  V30 4510 O 445.58 0.663686 -2.43622 0
M  V30 4511 C 446.893 -2.48557 -1.69233 0
M  V30 4512 C 448.441 -2.54968 -1.8155 0
M  V30 4513 C 448.916 -3.86388 -2.45904 0
M  V30 4514 N 450.407 -3.87762 -2.53367 0
M  V30 4515 C 451.142 -4.86191 -3.03983 0
M  V30 4516 N 450.638 -5.95015 -3.54866 0
M  V30 4517 N 452.431 -4.73606 -3.02743 0
M  V30 4518 H 444.582 -2.11758 -0.16501 0
M  V30 4519 H 446.845 -0.93822 -0.135822 0
M  V30 4520 H 446.551 -3.34638 -1.08215 0
M  V30 4521 H 446.425 -2.64748 -2.68679 0
M  V30 4522 H 448.812 -1.69302 -2.41704 0
M  V30 4523 H 448.893 -2.42672 -0.80895 0
M  V30 4524 H 448.537 -4.72462 -1.86392 0
M  V30 4525 H 448.467 -3.95982 -3.4714 0
M  V30 4526 H 450.958 -3.09145 -2.17343 0
M  V30 4527 H 451.271 -6.66086 -3.91854 0
M  V30 4528 H 449.616 -5.98676 -3.53003 0
M  V30 4529 H 452.807 -3.87717 -2.62284 0
M  V30 4530 H 452.98 -5.50473 -3.41881 0
M  V30 4531 N 446.386 1.0089 -1.21074 0
M  V30 4532 C 447.632 1.74866 -1.02712 0
M  V30 4533 C 447.965 1.89178 0.438787 0
M  V30 4534 O 447.24 1.42325 1.32567 0
M  V30 4535 C 447.523 3.16347 -1.72036 0
M  V30 4536 C 447.376 3.09782 -3.26121 0
M  V30 4537 C 448.695 4.15187 -1.45973 0
M  V30 4538 H 445.814 0.634736 -0.374539 0
M  V30 4539 H 448.456 1.17646 -1.49196 0
M  V30 4540 H 446.606 3.65201 -1.32517 0
M  V30 4541 H 448.278 2.68673 -3.74983 0
M  V30 4542 H 446.521 2.46982 -3.56626 0
M  V30 4543 H 447.192 4.09829 -3.6979 0
M  V30 4544 H 449.668 3.75022 -1.80272 0
M  V30 4545 H 448.544 5.12331 -1.96999 0
M  V30 4546 H 448.805 4.40386 -0.388924 0
M  V30 4547 N 447.864 1.01787 1.20321 0
M  V30 4548 C 448.827 0.593972 2.2137 0
M  V30 4549 C 449.827 -0.336553 1.57239 0
M  V30 4550 O 451.017 -0.125069 1.7375 0
M  V30 4551 C 448.149 -0.132433 3.40643 0
M  V30 4552 H 449.342 1.48791 2.60387 0
M  V30 4553 H 446.895 0.807803 1.33807 0
M  V30 4554 H 447.63 -1.04123 3.0713 0
M  V30 4555 H 447.415 0.53605 3.88418 0
M  V30 4556 H 448.905 -0.416314 4.1552 0
M  V30 4557 N 449.342 -1.36122 0.79427 0
M  V30 4558 C 450.305 -2.28309 0.201889 0
M  V30 4559 C 451.305 -1.49041 -0.603603 0
M  V30 4560 O 452.495 -1.68964 -0.423888 0
M  V30 4561 C 449.627 -3.3321 -0.719978 0
M  V30 4562 H 450.82 -2.82208 1.01481 0
M  V30 4563 H 448.373 -1.45768 0.564037 0
M  V30 4564 H 449.108 -2.84475 -1.55706 0
M  V30 4565 H 448.893 -3.91835 -0.144266 0
M  V30 4566 H 450.383 -4.02044 -1.12916 0
M  V30 4567 N 450.82 -0.546701 -1.47814 0
M  V30 4568 C 452.066 -0.0187684 -2.02791 0
M  V30 4569 C 452.399 1.32338 -1.42128 0
M  V30 4570 O 451.674 1.85867 -0.573023 0
M  V30 4571 C 451.957 0.0854985 -3.59998 0
M  V30 4572 C 451.81 -1.283 -4.31114 0
M  V30 4573 C 453.129 0.80412 -4.32691 0
M  V30 4574 H 450.248 -0.0082946 -0.736953 0
M  V30 4575 H 452.89 -0.706962 -1.76358 0
M  V30 4576 H 451.04 0.671609 -3.82651 0
M  V30 4577 H 452.712 -1.91151 -4.19832 0
M  V30 4578 H 450.955 -1.86049 -3.91878 0
M  V30 4579 H 451.626 -1.16287 -5.39612 0
M  V30 4580 H 454.102 0.306576 -4.14969 0
M  V30 4581 H 452.978 0.846011 -5.42341 0
M  V30 4582 H 453.239 1.85802 -4.01161 0
M  V30 4583 N 452.299 1.55045 -0.282633 0
M  V30 4584 C 453.548 1.98938 0.332667 0
M  V30 4585 C 453.861 1.17455 1.56409 0
M  V30 4586 O 455.067 1.51527 2.25282 0
M  V30 4587 C 453.523 3.54105 0.643226 0
M  V30 4588 C 453.131 4.44374 -0.568814 0
M  V30 4589 C 454.875 4.06569 1.22074 0
M  V30 4590 C 452.782 5.90943 -0.232426 0
M  V30 4591 H 451.712 0.743043 0.128075 0
M  V30 4592 H 454.363 1.79341 -0.388464 0
M  V30 4593 H 452.745 3.69532 1.42346 0
M  V30 4594 H 453.919 4.40718 -1.34551 0
M  V30 4595 H 452.234 4.02585 -1.06369 0
M  V30 4596 H 454.831 5.13626 1.48635 0
M  V30 4597 H 455.174 3.56057 2.15707 0
M  V30 4598 H 455.707 3.94612 0.502621 0
M  V30 4599 H 452.446 6.45567 -1.13683 0
M  V30 4600 H 451.966 5.9765 0.507357 0
M  V30 4601 H 453.645 6.4677 0.172657 0
M  V30 4602 N 453.777 0.010035 1.57597 0
M  V30 4603 C 454.727 -0.986858 2.05536 0
M  V30 4604 C 455.711 -1.29711 0.952042 0
M  V30 4605 O 456.903 -1.28641 1.21575 0
M  V30 4606 C 454.032 -2.2756 2.57043 0
M  V30 4607 C 453.118 -1.99455 3.74271 0
M  V30 4608 N 453.509 -1.41546 4.85591 0
M  V30 4609 C 451.807 -2.29547 3.82393 0
M  V30 4610 C 452.508 -1.3014 5.66956 0
M  V30 4611 N 451.484 -1.79044 5.13268 0
M  V30 4612 H 455.286 -0.533778 2.89012 0
M  V30 4613 H 452.8 -0.195432 1.6122 0
M  V30 4614 H 454.797 -2.99829 2.89669 0
M  V30 4615 H 453.457 -2.73512 1.7499 0
M  V30 4616 H 454.468 -1.09294 5.06236 0
M  V30 4617 H 451.145 -2.78304 3.11213 0
M  V30 4618 H 452.535 -0.855237 6.66435 0
M  V30 4619 N 455.255 -1.55392 -0.262866 0
M  V30 4620 C 456.205 -1.85355 -1.32768 0
M  V30 4621 C 457.189 -0.713188 -1.44231 0
M  V30 4622 O 458.381 -0.974765 -1.47741 0
M  V30 4623 C 455.51 -2.13781 -2.68612 0
M  V30 4624 C 454.596 -3.34104 -2.61219 0
M  V30 4625 N 454.987 -4.53766 -2.2345 0
M  V30 4626 C 453.285 -3.36895 -2.92263 0
M  V30 4627 C 453.986 -5.35877 -2.26298 0
M  V30 4628 N 452.962 -4.74536 -2.65172 0
M  V30 4629 H 456.764 -2.75413 -1.02591 0
M  V30 4630 H 454.278 -1.55405 -0.471503 0
M  V30 4631 H 456.275 -2.33407 -3.45437 0
M  V30 4632 H 454.935 -1.25013 -2.99669 0
M  V30 4633 H 455.946 -4.79682 -1.95258 0
M  V30 4634 H 452.623 -2.58351 -3.27965 0
M  V30 4635 H 454.013 -6.41577 -1.99572 0
M  V30 4636 N 456.733 0.527833 -1.48498 0
M  V30 4637 C 457.981 1.28101 -1.56316 0
M  V30 4638 C 458.302 1.9352 -0.239781 0
M  V30 4639 O 457.572 1.81433 0.738849 0
M  V30 4640 H 456.152 0.475793 -0.575873 0
M  V30 4641 H 458.814 0.614052 -1.84974 0
M  V30 4642 H 457.91 2.05916 -2.34532 0
M  V30 4643 N 458.211 1.37122 0.776871 0
M  V30 4644 C 459.436 1.354 1.57104 0
M  V30 4645 C 459.861 -0.0595562 1.88006 0
M  V30 4646 O 459.219 -1.03514 1.48844 0
M  V30 4647 C 459.267 2.19472 2.8612 0
M  V30 4648 O 458.371 1.59582 3.80273 0
M  V30 4649 H 457.712 0.462869 0.476076 0
M  V30 4650 H 460.242 1.80577 0.961932 0
M  V30 4651 H 460.252 2.32502 3.35271 0
M  V30 4652 H 458.927 3.22222 2.62956 0
M  V30 4653 H 457.504 1.55564 3.38902 0
M  V30 4654 N 459.689 -1.00246 1.21608 0
M  V30 4655 C 460.652 -2.07233 0.979133 0
M  V30 4656 C 461.652 -1.6072 -0.0508219 0
M  V30 4657 O 462.842 -1.73196 0.186712 0
M  V30 4658 C 459.974 -3.37546 0.477016 0
M  V30 4659 H 461.167 -2.29687 1.92831 0
M  V30 4660 H 458.72 -1.17261 1.03342 0
M  V30 4661 H 459.455 -3.20773 -0.476966 0
M  V30 4662 H 459.24 -3.72638 1.21997 0
M  V30 4663 H 460.73 -4.16285 0.331181 0
M  V30 4664 N 461.167 -1.02423 -1.1978 0
M  V30 4665 C 462.415 -0.716569 -1.8897 0
M  V30 4666 C 462.736 0.756769 -1.79716 0
M  V30 4667 O 462.006 1.5449 -1.20456 0
M  V30 4668 H 460.586 -0.262062 -0.699523 0
M  V30 4669 H 463.248 -1.29747 -1.45436 0
M  V30 4670 H 462.344 -1.00675 -2.95417 0
M  V30 4671 N 462.645 1.35699 -0.801477 0
M  V30 4672 C 463.873 2.03157 -0.391768 0
M  V30 4673 C 464.288 1.60412 0.995668 0
M  V30 4674 O 463.645 0.799228 1.64069 0
M  V30 4675 C 463.696 3.58566 -0.459671 0
M  V30 4676 O 463.417 3.99756 -1.7924 0
M  V30 4677 C 464.918 4.4328 -0.0421205 0
M  V30 4678 H 462.138 0.651688 -0.159825 0
M  V30 4679 H 464.682 1.73426 -1.08368 0
M  V30 4680 H 462.837 3.86963 0.183939 0
M  V30 4681 H 463.251 4.94387 -1.75162 0
M  V30 4682 H 464.725 5.51821 -0.140754 0
M  V30 4683 H 465.202 4.27383 1.01196 0
M  V30 4684 H 465.808 4.20168 -0.658687 0
M  V30 4685 N 464.123 0.554532 1.47522 0
M  V30 4686 C 465.033 -0.197865 2.33764 0
M  V30 4687 C 466.049 -0.914576 1.48025 0
M  V30 4688 O 467.225 -0.884067 1.80959 0
M  V30 4689 C 464.29 -1.21628 3.24665 0
M  V30 4690 C 463.351 -0.507283 4.26292 0
M  V30 4691 C 462.584 -1.47718 5.1285 0
M  V30 4692 O 462.807 -2.7118 5.01814 0
M  V30 4693 O 461.741 -1.00313 5.93482 0
M  V30 4694 H 465.567 0.50949 2.99396 0
M  V30 4695 H 463.152 0.315176 1.46038 0
M  V30 4696 H 465.034 -1.80421 3.80823 0
M  V30 4697 H 463.709 -1.9056 2.61665 0
M  V30 4698 H 462.616 0.121778 3.73902 0
M  V30 4699 H 463.949 0.140544 4.91999 0
M  V30 4700 N 465.601 -1.54893 0.290851 0
M  V30 4701 C 466.551 -2.19838 -0.604599 0
M  V30 4702 C 467.535 -1.16805 -1.10659 0
M  V30 4703 O 468.727 -1.42562 -1.04905 0
M  V30 4704 C 465.856 -2.93497 -1.78086 0
M  V30 4705 C 464.942 -4.03835 -1.29531 0
M  V30 4706 N 465.333 -5.03047 -0.527024 0
M  V30 4707 C 463.631 -4.17192 -1.57693 0
M  V30 4708 C 464.332 -5.81074 -0.269728 0
M  V30 4709 N 463.308 -5.36966 -0.846651 0
M  V30 4710 H 467.11 -2.93898 -0.00995032 0
M  V30 4711 H 464.624 -1.62121 0.0951353 0
M  V30 4712 H 466.621 -3.38484 -2.43381 0
M  V30 4713 H 465.281 -2.2095 -2.37931 0
M  V30 4714 H 466.292 -5.17611 -0.172872 0
M  V30 4715 H 462.969 -3.55845 -2.18359 0
M  V30 4716 H 464.359 -6.71005 0.346643 0
M  V30 4717 N 467.08 -0.0183926 -1.57589 0
M  V30 4718 C 468.326 0.663543 -1.91638 0
M  V30 4719 C 468.659 1.72392 -0.894134 0
M  V30 4720 O 467.934 1.94316 0.0846449 0
M  V30 4721 C 468.217 1.28984 -3.36207 0
M  V30 4722 C 468.07 0.239761 -4.49161 0
M  V30 4723 C 469.389 2.2109 -3.80536 0
M  V30 4724 H 466.508 0.239746 -0.696915 0
M  V30 4725 H 469.15 -0.073456 -1.89858 0
M  V30 4726 H 467.3 1.91799 -3.37854 0
M  V30 4727 H 468.972 -0.390119 -4.59647 0
M  V30 4728 H 467.215 -0.435972 -4.31604 0
M  V30 4729 H 467.886 0.717383 -5.47319 0
M  V30 4730 H 470.362 1.68273 -3.80557 0
M  V30 4731 H 469.238 2.61869 -4.82406 0
M  V30 4732 H 469.499 3.09764 -3.15434 0
M  V30 4733 N 468.558 1.5553 0.254621 0
M  V30 4734 C 469.521 1.88872 1.29846 0
M  V30 4735 C 470.521 0.764591 1.41459 0
M  V30 4736 O 471.711 1.03265 1.40293 0
M  V30 4737 C 468.843 2.11032 2.67728 0
M  V30 4738 H 470.036 2.82201 1.01502 0
M  V30 4739 H 467.589 1.48303 0.493556 0
M  V30 4740 H 468.324 1.20146 3.01223 0
M  V30 4741 H 468.109 2.92895 2.60682 0
M  V30 4742 H 469.599 2.38038 3.43115 0
M  V30 4743 N 470.036 -0.519951 1.48776 0
M  V30 4744 C 471.264 -1.29971 1.60982 0
M  V30 4745 C 471.679 -1.86803 0.273885 0
M  V30 4746 O 471.036 -1.66904 -0.738193 0
M  V30 4747 C 471.087 -2.44346 2.66415 0
M  V30 4748 O 470.808 -1.89855 3.94825 0
M  V30 4749 C 472.309 -3.36014 2.89153 0
M  V30 4750 H 469.529 -0.394891 0.542496 0
M  V30 4751 H 472.073 -0.626214 1.94676 0
M  V30 4752 H 470.228 -3.07562 2.35552 0
M  V30 4753 H 470.642 -2.64798 4.5275 0
M  V30 4754 H 472.116 -4.12593 3.66703 0
M  V30 4755 H 472.593 -3.91859 1.98351 0
M  V30 4756 H 473.199 -2.78582 3.21359 0
M  V30 4757 N 471.514 -1.37532 -0.769588 0
M  V30 4758 C 472.93 -1.18379 -1.07045 0
M  V30 4759 C 473.13 -0.0214312 -2.01489 0
M  V30 4760 O 472.186 0.637809 -2.44312 0
M  V30 4761 C 473.499 -2.50338 -1.66588 0
M  V30 4762 C 475.047 -2.56879 -1.78835 0
M  V30 4763 C 475.522 -3.88974 -2.41792 0
M  V30 4764 N 477.013 -3.90428 -2.4924 0
M  V30 4765 C 477.748 -4.89388 -2.98809 0
M  V30 4766 N 477.244 -5.98745 -3.48535 0
M  V30 4767 N 479.037 -4.76791 -2.97703 0
M  V30 4768 H 471.188 -2.11921 -0.142541 0
M  V30 4769 H 473.451 -0.939608 -0.125863 0
M  V30 4770 H 473.157 -3.35767 -1.0466 0
M  V30 4771 H 473.031 -2.67583 -2.65856 0
M  V30 4772 H 475.418 -1.71856 -2.39895 0
M  V30 4773 H 475.499 -2.43516 -0.783166 0
M  V30 4774 H 475.143 -4.74412 -1.81371 0
M  V30 4775 H 475.073 -3.99641 -3.4292 0
M  V30 4776 H 477.564 -3.11433 -2.14052 0
M  V30 4777 H 477.877 -6.70205 -3.84767 0
M  V30 4778 H 476.222 -6.02387 -3.46634 0
M  V30 4779 H 479.413 -3.90478 -2.58157 0
M  V30 4780 H 479.586 -5.54069 -3.36024 0
M  V30 4781 N 472.992 0.995999 -1.22138 0
M  V30 4782 C 473.955 2.06711 -0.990109 0
M  V30 4783 C 474.955 1.60744 0.0422978 0
M  V30 4784 O 476.145 1.73095 -0.195895 0
M  V30 4785 C 473.277 3.37288 -0.49491 0
M  V30 4786 H 474.47 2.28661 -1.94047 0
M  V30 4787 H 472.023 1.16711 -1.03963 0
M  V30 4788 H 472.758 3.21022 0.459948 0
M  V30 4789 H 472.543 3.71986 -1.23971 0
M  V30 4790 H 474.033 4.16103 -0.353253 0
M  V30 4791 N 474.47 1.03057 1.19235 0
M  V30 4792 C 475.718 0.726581 1.88587 0
M  V30 4793 C 476.039 -0.747227 1.80115 0
M  V30 4794 O 475.309 -1.53849 1.21274 0
M  V30 4795 H 473.889 0.265768 0.698124 0
M  V30 4796 H 476.551 1.30516 1.44746 0
M  V30 4797 H 475.647 1.0224 2.94879 0
M  V30 4798 N 475.948 -1.35272 0.808662 0
M  V30 4799 C 477.194 -1.99003 0.390581 0
M  V30 4800 C 477.527 -1.63999 -1.0401 0
M  V30 4801 O 476.802 -0.904368 -1.72196 0
M  V30 4802 C 477.085 -3.55454 0.576566 0
M  V30 4803 C 476.938 -4.00249 2.05233 0
M  V30 4804 C 478.257 -4.401 0.00354277 0
M  V30 4805 H 475.376 -0.722917 0.143388 0
M  V30 4806 H 478.018 -1.6039 1.01858 0
M  V30 4807 H 476.168 -3.88477 0.0419766 0
M  V30 4808 H 477.84 -3.77626 2.64946 0
M  V30 4809 H 476.083 -3.51082 2.54801 0
M  V30 4810 H 476.754 -5.0911 2.13333 0
M  V30 4811 H 479.23 -4.13548 0.460117 0
M  V30 4812 H 478.106 -5.48656 0.163575 0
M  V30 4813 H 478.367 -4.28444 -1.09032 0
M  V30 4814 N 477.426 -0.562348 -1.47226 0
M  V30 4815 C 478.837 -0.130325 -1.86245 0
M  V30 4816 C 479.188 1.30128 -1.46838 0
M  V30 4817 O 478.313 1.97974 -0.873805 0
M  V30 4818 C 478.908 -0.229738 -3.3802 0
M  V30 4819 C 477.467 0.14728 -3.76112 0
M  V30 4820 C 476.614 -0.574971 -2.71274 0
M  V30 4821 H 479.565 -0.771773 -1.3867 0
M  V30 4822 H 479.586 0.550316 -3.76499 0
M  V30 4823 H 479.098 -1.27178 -3.66671 0
M  V30 4824 H 477.199 1.19023 -3.53078 0
M  V30 4825 H 477.312 -0.214858 -4.78618 0
M  V30 4826 H 475.676 -0.0174756 -2.54694 0
M  V30 4827 H 476.459 -1.61827 -3.02766 0
M  V30 4828 N 478.904 1.54736 -0.299062 0
M  V30 4829 C 479.836 2.20891 0.61153 0
M  V30 4830 C 480.849 1.20104 1.09904 0
M  V30 4831 O 482.038 1.46707 1.01683 0
M  V30 4832 C 479.138 2.84018 1.84897 0
M  V30 4833 C 478.311 4.10719 1.50428 0
M  V30 4834 C 477.37 4.57667 2.59667 0
M  V30 4835 O 476.396 5.2291 2.24842 0
M  V30 4836 N 477.598 4.29821 3.90172 0
M  V30 4837 H 480.363 2.99666 0.0452001 0
M  V30 4838 H 477.924 1.61446 -0.121178 0
M  V30 4839 H 479.916 3.1236 2.5732 0
M  V30 4840 H 478.486 2.09095 2.32375 0
M  V30 4841 H 477.706 3.89408 0.612781 0
M  V30 4842 H 478.994 4.93223 1.24934 0
M  V30 4843 H 478.392 3.77549 4.21276 0
M  V30 4844 H 476.949 4.62877 4.58899 0
M  V30 4845 N 480.382 0.0267497 1.57577 0
M  V30 4846 C 481.312 -0.954308 2.13108 0
M  V30 4847 C 482.293 -1.34088 1.04663 0
M  V30 4848 O 483.478 -1.41992 1.32484 0
M  V30 4849 C 480.608 -2.23744 2.65624 0
M  V30 4850 C 479.562 -1.99168 3.78835 0
M  V30 4851 C 478.888 -3.33726 4.17769 0
M  V30 4852 C 480.188 -1.33277 5.0501 0
M  V30 4853 H 481.882 -0.491848 2.95332 0
M  V30 4854 H 479.428 -0.23514 1.42067 0
M  V30 4855 H 481.381 -2.92754 3.03106 0
M  V30 4856 H 480.105 -2.72151 1.80558 0
M  V30 4857 H 478.764 -1.32577 3.41788 0
M  V30 4858 H 478.412 -3.79888 3.29688 0
M  V30 4859 H 478.112 -3.18089 4.94058 0
M  V30 4860 H 479.636 -4.04008 4.57832 0
M  V30 4861 H 481.05 -1.92283 5.40093 0
M  V30 4862 H 479.447 -1.28045 5.8628 0
M  V30 4863 H 480.517 -0.305411 4.83937 0
M  V30 4864 N 481.861 -1.55662 -0.24637 0
M  V30 4865 C 483.107 -1.77782 -0.975779 0
M  V30 4866 C 483.44 -0.592103 -1.84953 0
M  V30 4867 O 482.715 0.409588 -1.90138 0
M  V30 4868 C 482.998 -3.09788 -1.83584 0
M  V30 4869 C 482.851 -4.38764 -0.990241 0
M  V30 4870 C 484.17 -3.38029 -2.81823 0
M  V30 4871 H 481.289 -0.646789 -0.353317 0
M  V30 4872 H 483.931 -1.88398 -0.246248 0
M  V30 4873 H 482.081 -3.00869 -2.45784 0
M  V30 4874 H 483.753 -4.59675 -0.386897 0
M  V30 4875 H 481.996 -4.32798 -0.294626 0
M  V30 4876 H 482.667 -5.27514 -1.62584 0
M  V30 4877 H 485.143 -3.46915 -2.2976 0
M  V30 4878 H 484.019 -4.3161 -3.39122 0
M  V30 4879 H 484.28 -2.58968 -3.58313 0
M  V30 4880 N 483.339 0.512053 -1.4905 0
M  V30 4881 C 484.588 1.26343 -1.57227 0
M  V30 4882 C 484.901 1.93876 -0.259155 0
M  V30 4883 O 486.107 2.70612 -0.219358 0
M  V30 4884 C 484.563 2.29343 -2.77362 0
M  V30 4885 C 484.171 1.67799 -4.15388 0
M  V30 4886 C 485.915 3.05378 -2.94864 0
M  V30 4887 C 483.822 2.68845 -5.2676 0
M  V30 4888 H 482.752 0.475231 -0.585382 0
M  V30 4889 H 485.403 0.53862 -1.75417 0
M  V30 4890 H 483.785 3.04938 -2.52643 0
M  V30 4891 H 484.959 0.982715 -4.50199 0
M  V30 4892 H 483.274 1.04194 -4.03153 0
M  V30 4893 H 485.871 3.80921 -3.75238 0
M  V30 4894 H 486.214 3.62327 -2.05 0
M  V30 4895 H 486.747 2.36898 -3.19569 0
M  V30 4896 H 483.486 2.16692 -6.18647 0
M  V30 4897 H 483.006 3.36647 -4.96416 0
M  V30 4898 H 484.685 3.31487 -5.5563 0
M  V30 4899 N 484.817 1.37938 0.762283 0
M  V30 4900 C 486.228 1.30094 1.33912 0
M  V30 4901 C 486.579 -0.0472026 1.96143 0
M  V30 4902 O 485.704 -0.94917 1.94473 0
M  V30 4903 C 486.299 2.35592 2.43478 0
M  V30 4904 C 484.858 2.31353 2.96905 0
M  V30 4905 C 484.005 2.18919 1.70205 0
M  V30 4906 H 486.956 1.48423 0.561816 0
M  V30 4907 H 486.977 2.00806 3.23199 0
M  V30 4908 H 486.489 3.33701 1.98155 0
M  V30 4909 H 484.59 1.36799 3.46579 0
M  V30 4910 H 484.703 3.25147 3.51875 0
M  V30 4911 H 483.067 1.65624 1.93496 0
M  V30 4912 H 483.85 3.18956 1.26973 0
M  V30 4913 N 486.295 -0.989507 1.22664 0
M  V30 4914 C 487.711 -1.25395 0.987331 0
M  V30 4915 C 487.911 -1.9899 -0.317056 0
M  V30 4916 O 486.967 -2.30141 -1.03882 0
M  V30 4917 C 488.28 -2.06242 2.18826 0
M  V30 4918 C 489.828 -2.19413 2.23219 0
M  V30 4919 C 490.303 -3.03648 3.42873 0
M  V30 4920 N 491.794 -3.11234 3.43056 0
M  V30 4921 C 492.529 -3.7671 4.32293 0
M  V30 4922 N 492.025 -4.44085 5.31752 0
M  V30 4923 N 493.818 -3.73505 4.2006 0
M  V30 4924 H 485.969 -0.496212 2.06522 0
M  V30 4925 H 488.232 -0.281784 0.905153 0
M  V30 4926 H 487.938 -1.59531 3.13437 0
M  V30 4927 H 487.812 -3.06996 2.19165 0
M  V30 4928 H 490.199 -2.65336 1.29154 0
M  V30 4929 H 490.28 -1.18078 2.26917 0
M  V30 4930 H 489.924 -2.58424 4.37241 0
M  V30 4931 H 489.854 -4.05132 3.36416 0
M  V30 4932 H 492.345 -2.63287 2.71088 0
M  V30 4933 H 492.658 -4.91797 5.96117 0
M  V30 4934 H 491.003 -4.42822 5.35662 0
M  V30 4935 H 494.194 -3.20033 3.41609 0
M  V30 4936 H 494.367 -4.24253 4.8981 0
M  V30 4937 N 487.773 -1.03688 -1.18687 0
M  V30 4938 C 488.721 -0.618292 -2.24232 0
M  V30 4939 C 489.715 0.353045 -1.6568 0
M  V30 4940 O 490.921 0.220749 -1.78641 0
M  V30 4941 H 487.296 -0.181711 -0.729716 0
M  V30 4942 H 489.267 -1.51893 -2.56848 0
M  V30 4943 C 488.016 0.00677342 -3.47699 0
M  V30 4944 H 487.339 -0.731692 -3.93047 0
M  V30 4945 H 488.779 0.262492 -4.23187 0
M  V30 4946 C 487.238 1.25572 -3.12623 0
M  V30 4947 O 487.768 2.34691 -3.26011 0
M  V30 4948 N 485.974 1.14755 -2.66982 0
M  V30 4949 H 485.521 0.259601 -2.56289 0
M  V30 4950 H 485.479 1.98412 -2.43885 0
M  V30 4951 N 489.251 1.34841 -0.815825 0
M  V30 4952 C 490.479 2.0273 -0.413294 0
M  V30 4953 C 490.894 1.61459 0.978599 0
M  V30 4954 O 490.251 0.816584 1.63212 0
M  V30 4955 C 490.302 3.58058 -0.497676 0
M  V30 4956 O 490.023 3.97832 -1.8347 0
M  V30 4957 C 491.524 4.4321 -0.0891339 0
M  V30 4958 H 488.744 0.649956 -0.166728 0
M  V30 4959 H 491.288 1.72267 -1.10201 0
M  V30 4960 H 489.443 3.87136 0.142886 0
M  V30 4961 H 489.857 4.92501 -1.80396 0
M  V30 4962 H 491.331 5.5164 -0.199274 0
M  V30 4963 H 491.808 4.28432 0.966571 0
M  V30 4964 H 492.414 4.19446 -0.703214 0
M  V30 4965 N 490.729 0.570148 1.46925 0
M  V30 4966 C 492.006 -0.0153259 1.95594 0
M  V30 4967 C 492.386 -1.47232 1.51281 0
M  V30 4968 O 491.734 -2.15574 0.757624 0
M  V30 4969 C 491.944 0.143624 3.48704 0
M  V30 4970 C 493.292 0.00494484 4.246 0
M  V30 4971 O 494.316 0.0718214 3.56128 0
M  V30 4972 O 493.175 -0.141175 5.46318 0
M  V30 4973 H 490.269 -0.0568819 0.825041 0
M  V30 4974 H 492.815 0.637583 1.57267 0
M  V30 4975 H 491.587 1.15699 3.73804 0
M  V30 4976 H 491.21 -0.5463 3.93829 0
M  V30 4977 N 492.207 -1.54576 0.307264 0
M  V30 4978 C 493.139 -2.21212 -0.599807 0
M  V30 4979 C 494.152 -1.20685 -1.09266 0
M  V30 4980 O 495.341 -1.47244 -1.00903 0
M  V30 4981 C 492.441 -2.84994 -1.83389 0
M  V30 4982 C 491.614 -4.11511 -1.48248 0
M  V30 4983 C 490.673 -4.59038 -2.57237 0
M  V30 4984 O 489.699 -5.24095 -2.22065 0
M  V30 4985 N 490.901 -4.31884 -3.87887 0
M  V30 4986 H 493.666 -2.99686 -0.0293075 0
M  V30 4987 H 491.227 -1.61379 0.129738 0
M  V30 4988 H 493.219 -3.1372 -2.5566 0
M  V30 4989 H 491.789 -2.10324 -2.31263 0
M  V30 4990 H 491.009 -3.89728 -0.592122 0
M  V30 4991 H 492.297 -4.93879 -1.22316 0
M  V30 4992 H 491.695 -3.79778 -4.19268 0
M  V30 4993 H 490.252 -4.65304 -4.56438 0
M  V30 4994 N 493.685 -0.035106 -1.57561 0
M  V30 4995 C 495.096 0.502885 -1.798 0
M  V30 4996 C 495.447 1.71892 -0.945921 0
M  V30 4997 O 494.572 2.15822 -0.157991 0
M  V30 4998 C 495.167 0.919097 -3.26095 0
M  V30 4999 C 493.726 1.40216 -3.49308 0
M  V30 5000 C 492.873 0.369709 -2.74824 0
M  V30 5001 H 495.824 -0.261102 -1.56537 0
M  V30 5002 H 495.845 1.78308 -3.36135 0
M  V30 5003 H 495.357 0.0338526 -3.88085 0
M  V30 5004 H 493.458 2.30714 -2.92578 0
M  V30 5005 H 493.571 1.40541 -4.58023 0
M  V30 5006 H 491.935 0.839113 -2.40481 0
M  V30 5007 H 492.718 -0.507173 -3.39533 0
M  V30 5008 N 495.163 1.55791 0.238111 0
M  V30 5009 C 496.393 1.81834 0.980809 0
M  V30 5010 C 496.801 0.609741 1.79106 0
M  V30 5011 O 496.144 -0.431073 1.78571 0
M  V30 5012 C 496.206 3.01363 1.96011 0
M  V30 5013 C 495.87 4.37037 1.33597 0
M  V30 5014 C 496.867 5.14692 0.734063 0
M  V30 5015 C 494.552 4.83743 1.3527 0
M  V30 5016 C 496.546 6.37206 0.157208 0
M  V30 5017 C 494.233 6.06204 0.77199 0
M  V30 5018 C 495.231 6.82775 0.175282 0
M  V30 5019 O 494.919 8.02922 -0.396432 0
M  V30 5020 H 494.651 0.6088 0.293834 0
M  V30 5021 H 497.205 2.03702 0.263552 0
M  V30 5022 H 495.435 2.75273 2.71591 0
M  V30 5023 H 497.124 3.14422 2.56697 0
M  V30 5024 H 497.89 4.79722 0.713582 0
M  V30 5025 H 493.769 4.24129 1.80653 0
M  V30 5026 H 497.313 6.96915 -0.30917 0
M  V30 5027 H 493.21 6.4065 0.789828 0
M  V30 5028 H 493.978 8.17989 -0.289145 0
M  V30 5029 N 496.642 -0.504142 1.49319 0
M  V30 5030 C 497.889 -1.25846 1.58647 0
M  V30 5031 C 498.217 -1.92592 0.27177 0
M  V30 5032 O 497.472 -1.81167 -0.74007 0
M  V30 5033 C 497.771 -2.35021 2.69258 0
M  V30 5034 C 497.437 -1.85755 4.1086 0
M  V30 5035 C 496.099 -1.72038 4.49395 0
M  V30 5036 C 498.451 -1.48844 4.99495 0
M  V30 5037 C 495.779 -1.19783 5.74342 0
M  V30 5038 C 498.131 -0.980422 6.24956 0
M  V30 5039 C 496.795 -0.829622 6.62324 0
M  V30 5040 H 496.065 -0.460505 0.580531 0
M  V30 5041 H 498.712 -0.559716 1.83138 0
M  V30 5042 H 497.017 -3.10672 2.38726 0
M  V30 5043 H 498.714 -2.93083 2.73685 0
M  V30 5044 H 495.304 -1.9739 3.80441 0
M  V30 5045 H 499.488 -1.5829 4.70381 0
M  V30 5046 H 494.744 -1.06817 6.01997 0
M  V30 5047 H 498.918 -0.685608 6.93017 0
M  V30 5048 H 496.545 -0.42253 7.59025 0
M  V30 5049 N 498.12 -1.38341 -0.754957 0
M  V30 5050 C 499.083 -1.35262 -1.85032 0
M  V30 5051 C 500.083 -0.253393 -1.58791 0
M  V30 5052 O 501.273 -0.510205 -1.66561 0
M  V30 5053 C 498.405 -1.10544 -3.22479 0
M  V30 5054 H 499.598 -2.32712 -1.8917 0
M  V30 5055 H 497.151 -1.23614 -0.956515 0
M  V30 5056 H 497.886 -0.136952 -3.24011 0
M  V30 5057 H 497.671 -1.90127 -3.4292 0
M  V30 5058 H 499.161 -1.11082 -4.02555 0
M  V30 5059 N 499.598 0.982988 -1.23187 0
M  V30 5060 C 500.846 1.72052 -1.06031 0
M  V30 5061 C 501.167 1.90769 0.404019 0
M  V30 5062 O 500.437 1.47446 1.28982 0
M  V30 5063 H 499.017 0.637499 -0.389363 0
M  V30 5064 H 501.679 1.18338 -1.54862 0
M  V30 5065 H 500.775 2.7111 -1.54615 0
M  V30 5066 N 501.076 1.04316 1.18135 0
M  V30 5067 C 502.492 0.762858 1.40188 0
M  V30 5068 C 502.692 -0.646547 1.90846 0
M  V30 5069 O 501.748 -1.41036 2.0944 0
M  V30 5070 C 503.061 1.81106 2.40044 0
M  V30 5071 C 504.609 1.83226 2.53766 0
M  V30 5072 C 505.084 2.87044 3.56889 0
M  V30 5073 N 506.575 2.85951 3.64398 0
M  V30 5074 C 507.31 3.62932 4.43923 0
M  V30 5075 N 506.806 4.49672 5.27036 0
M  V30 5076 N 508.599 3.51411 4.38711 0
M  V30 5077 H 500.75 1.95264 0.835805 0
M  V30 5078 H 503.013 0.845017 0.429709 0
M  V30 5079 H 502.719 2.82214 2.09876 0
M  V30 5080 H 502.593 1.64529 3.39426 0
M  V30 5081 H 504.98 0.827869 2.8325 0
M  V30 5082 H 505.061 2.03879 1.54489 0
M  V30 5083 H 504.705 3.87663 3.28145 0
M  V30 5084 H 504.635 2.63645 4.5585 0
M  V30 5085 H 507.126 2.23051 3.05052 0
M  V30 5086 H 507.439 5.05116 5.84874 0
M  V30 5087 H 505.784 4.53738 5.26447 0
M  V30 5088 H 508.975 2.83047 3.72829 0
M  V30 5089 H 509.148 4.11654 5.00445 0
M  V30 5090 N 502.554 -1.34406 0.822964 0
M  V30 5091 C 503.8 -1.98578 0.411666 0
M  V30 5092 C 504.133 -1.65093 -1.02264 0
M  V30 5093 O 503.408 -0.92258 -1.71227 0
M  V30 5094 C 503.691 -3.54823 0.614235 0
M  V30 5095 C 503.544 -3.9805 2.09466 0
M  V30 5096 C 504.863 -4.40071 0.050221 0
M  V30 5097 H 501.982 -0.721355 0.151047 0
M  V30 5098 H 504.624 -1.59301 1.03554 0
M  V30 5099 H 502.774 -3.88411 0.0831774 0
M  V30 5100 H 504.446 -3.74795 2.68936 0
M  V30 5101 H 502.689 -3.4836 2.5851 0
M  V30 5102 H 503.36 -5.06819 2.18721 0
M  V30 5103 H 505.836 -4.13037 0.503953 0
M  V30 5104 H 504.712 -5.48452 0.221759 0
M  V30 5105 H 504.973 -4.29576 -1.04482 0
M  V30 5106 N 504.032 -0.577932 -1.46621 0
M  V30 5107 C 504.995 0.147805 -2.28723 0
M  V30 5108 C 505.995 0.823325 -1.38123 0
M  V30 5109 O 507.185 0.676011 -1.60548 0
M  V30 5110 C 504.317 1.21853 -3.18378 0
M  V30 5111 H 505.51 -0.573654 -2.94362 0
M  V30 5112 H 503.063 -0.335703 -1.52652 0
M  V30 5113 H 503.798 1.97173 -2.57475 0
M  V30 5114 H 503.583 0.738714 -3.85078 0
M  V30 5115 H 505.073 1.72768 -3.80186 0
M  V30 5116 N 505.51 1.54411 -0.315457 0
M  V30 5117 C 506.473 2.22713 0.54142 0
M  V30 5118 C 507.473 1.2179 1.04995 0
M  V30 5119 O 508.663 1.46426 0.943667 0
M  V30 5120 C 505.795 2.92485 1.75116 0
M  V30 5121 H 506.988 2.99849 -0.0555508 0
M  V30 5122 H 504.541 1.56159 -0.0664453 0
M  V30 5123 H 505.276 2.19466 2.38758 0
M  V30 5124 H 505.061 3.66483 1.39401 0
M  V30 5125 H 506.551 3.44548 2.35959 0
M  V30 5126 N 506.988 0.0434614 1.5754 0
M  V30 5127 C 507.918 -0.931651 2.14109 0
M  V30 5128 C 508.899 -1.32971 1.06079 0
M  V30 5129 O 510.084 -1.40579 1.33982 0
M  V30 5130 C 507.214 -2.20914 2.67982 0
M  V30 5131 C 506.168 -1.95139 3.80926 0
M  V30 5132 C 505.494 -3.29276 4.21285 0
M  V30 5133 C 506.794 -1.27913 5.06395 0
M  V30 5134 H 508.488 -0.460497 2.95837 0
M  V30 5135 H 506.034 -0.220058 1.42309 0
M  V30 5136 H 507.987 -2.89522 3.06194 0
M  V30 5137 H 506.711 -2.70221 1.83434 0
M  V30 5138 H 505.37 -1.28945 3.43175 0
M  V30 5139 H 505.018 -3.76369 3.33699 0
M  V30 5140 H 504.718 -3.12831 4.97404 0
M  V30 5141 H 506.242 -3.99129 4.62091 0
M  V30 5142 H 507.656 -1.86544 5.42102 0
M  V30 5143 H 506.053 -1.2182 5.87605 0
M  V30 5144 H 507.123 -0.254066 4.84234 0
M  V30 5145 N 508.466 -1.55915 -0.229846 0
M  V30 5146 C 509.714 -1.7819 -0.953565 0
M  V30 5147 C 510.035 -0.610504 -1.85197 0
M  V30 5148 O 509.305 0.372988 -1.92316 0
M  V30 5149 H 507.885 -0.657208 -0.355087 0
M  V30 5150 H 510.547 -1.9337 -0.243693 0
M  V30 5151 H 509.643 -2.70011 -1.56527 0
M  V30 5152 N 509.944 0.496216 -1.49584 0
M  V30 5153 C 511.193 1.24668 -1.58558 0
M  V30 5154 C 511.506 1.9359 -0.279703 0
M  V30 5155 O 512.712 2.70365 -0.248048 0
M  V30 5156 C 511.168 2.26388 -2.79779 0
M  V30 5157 C 510.776 1.63384 -4.17145 0
M  V30 5158 C 512.52 3.02233 -2.98086 0
M  V30 5159 C 510.427 2.63243 -5.29582 0
M  V30 5160 H 509.357 0.468995 -0.590389 0
M  V30 5161 H 512.008 0.519985 -1.75978 0
M  V30 5162 H 510.39 3.02241 -2.55863 0
M  V30 5163 H 511.564 0.93491 -4.51216 0
M  V30 5164 H 509.879 0.999121 -4.04236 0
M  V30 5165 H 512.476 3.76919 -3.79257 0
M  V30 5166 H 512.819 3.60132 -2.08831 0
M  V30 5167 H 513.352 2.33495 -3.22063 0
M  V30 5168 H 510.091 2.10119 -6.20911 0
M  V30 5169 H 509.611 3.31363 -4.99959 0
M  V30 5170 H 511.29 3.25575 -5.59115 0
M  V30 5171 N 511.423 1.38739 0.74761 0
M  V30 5172 C 512.671 1.35007 1.50391 0
M  V30 5173 C 512.992 -0.0574274 1.94915 0
M  V30 5174 O 512.262 -1.00628 1.6808 0
M  V30 5175 H 510.842 0.496784 0.557866 0
M  V30 5176 H 513.504 1.73479 0.888319 0
M  V30 5177 H 512.6 2.00474 2.392 0
M  V30 5178 N 512.901 -0.976442 1.23707 0
M  V30 5179 C 514.147 -1.72081 1.07312 0
M  V30 5180 C 514.48 -1.90275 -0.388476 0
M  V30 5181 O 513.755 -1.4579 -1.28746 0
M  V30 5182 C 514.038 -3.11675 1.80363 0
M  V30 5183 C 513.891 -3.01027 3.3422 0
M  V30 5184 C 515.21 -4.1117 1.5693 0
M  V30 5185 H 512.329 -0.624583 0.391236 0
M  V30 5186 H 514.971 -1.13649 1.52263 0
M  V30 5187 H 513.121 -3.61559 1.42153 0
M  V30 5188 H 514.793 -2.58637 3.81975 0
M  V30 5189 H 513.036 -2.3744 3.63049 0
M  V30 5190 H 513.707 -3.9988 3.80525 0
M  V30 5191 H 516.183 -3.7011 1.90151 0
M  V30 5192 H 515.059 -5.06928 2.10513 0
M  V30 5193 H 515.32 -4.392 0.505548 0
M  V30 5194 N 514.379 -1.04941 -1.1758 0
M  V30 5195 C 515.342 -0.652456 -2.19717 0
M  V30 5196 C 516.342 0.294745 -1.58076 0
M  V30 5197 O 517.532 0.0789579 -1.74021 0
M  V30 5198 C 514.664 0.0420712 -3.40874 0
M  V30 5199 H 515.857 -1.55642 -2.5635 0
M  V30 5200 H 513.41 -0.842995 -1.31618 0
M  V30 5201 H 514.145 0.95943 -3.09783 0
M  V30 5202 H 513.93 -0.638844 -3.86861 0
M  V30 5203 H 515.42 0.306 -4.16477 0
M  V30 5204 N 515.857 1.33968 -0.830081 0
M  V30 5205 C 516.807 2.26845 -0.229242 0
M  V30 5206 C 517.791 1.48862 0.610659 0
M  V30 5207 O 518.983 1.70808 0.464067 0
M  V30 5208 C 516.112 3.3798 0.602057 0
M  V30 5209 C 515.198 4.23369 -0.248866 0
M  V30 5210 N 515.589 4.88182 -1.32334 0
M  V30 5211 C 513.887 4.45987 -0.0344077 0
M  V30 5212 C 514.588 5.51671 -1.84482 0
M  V30 5213 N 513.564 5.31348 -1.14762 0
M  V30 5214 H 517.366 2.74464 -1.05104 0
M  V30 5215 H 514.88 1.4777 -0.673623 0
M  V30 5216 H 516.877 4.03494 1.04873 0
M  V30 5217 H 515.537 2.9191 1.42193 0
M  V30 5218 H 516.548 4.88988 -1.70619 0
M  V30 5219 H 513.225 4.10658 0.752727 0
M  V30 5220 H 514.615 6.13308 -2.74413 0
M  V30 5221 N 517.335 0.585699 1.46312 0
M  V30 5222 C 518.612 0.00542031 1.95599 0
M  V30 5223 C 518.992 -1.45619 1.52834 0
M  V30 5224 O 518.34 -2.14759 0.780446 0
M  V30 5225 C 518.55 0.180601 3.48532 0
M  V30 5226 C 519.898 0.049979 4.24571 0
M  V30 5227 O 520.922 0.109589 3.56031 0
M  V30 5228 O 519.781 -0.0832226 5.46437 0
M  V30 5229 H 516.875 -0.0481281 0.825598 0
M  V30 5230 H 519.421 0.654227 1.56582 0
M  V30 5231 H 518.193 1.19657 3.72556 0
M  V30 5232 H 517.816 -0.504498 3.94386 0
M  V30 5233 N 518.813 -1.54241 0.323641 0
M  V30 5234 C 520.061 -2.00174 -0.278359 0
M  V30 5235 C 520.382 -1.2134 -1.52648 0
M  V30 5236 O 519.652 -0.315244 -1.93347 0
M  V30 5237 H 518.232 -0.739463 -0.105845 0
M  V30 5238 H 520.894 -1.89864 0.440204 0
M  V30 5239 H 519.99 -3.07486 -0.5347 0
M  V30 5240 N 520.291 -0.0518155 -1.57515 0
M  V30 5241 C 521.702 0.483787 -1.80323 0
M  V30 5242 C 522.053 1.70879 -0.964099 0
M  V30 5243 O 521.178 2.15643 -0.180872 0
M  V30 5244 C 521.773 0.884459 -3.27052 0
M  V30 5245 C 520.332 1.36504 -3.50776 0
M  V30 5246 C 519.479 0.340539 -2.75201 0
M  V30 5247 H 522.43 -0.277691 -1.56252 0
M  V30 5248 H 522.451 1.74733 -3.38007 0
M  V30 5249 H 521.963 -0.00731093 -3.88099 0
M  V30 5250 H 520.064 2.27598 -2.95009 0
M  V30 5251 H 520.177 1.35675 -4.59488 0
M  V30 5252 H 518.541 0.81356 -2.41357 0
M  V30 5253 H 519.324 -0.543156 -3.38976 0
M  V30 5254 N 521.769 1.56035 0.221574 0
M  V30 5255 C 522.997 1.8313 0.962864 0
M  V30 5256 C 523.412 0.630934 1.77946 0
M  V30 5257 O 522.769 -0.400519 1.78051 0
M  V30 5258 C 522.82 3.08742 1.88045 0
M  V30 5259 O 522.541 4.24147 1.09686 0
M  V30 5260 C 524.042 3.48824 2.73563 0
M  V30 5261 H 521.262 0.608775 0.282194 0
M  V30 5262 H 523.806 2.03124 0.23681 0
M  V30 5263 H 521.961 2.90723 2.56045 0
M  V30 5264 H 522.375 4.95505 1.71974 0
M  V30 5265 H 523.849 4.39752 3.3365 0
M  V30 5266 H 524.326 2.70575 3.45956 0
M  V30 5267 H 524.932 3.69282 2.10976 0
M  V30 5268 N 523.247 -0.488276 1.49845 0
M  V30 5269 C 524.658 -1.06955 1.53028 0
M  V30 5270 C 525.009 -1.9351 0.323797 0
M  V30 5271 O 524.134 -2.08891 -0.565116 0
M  V30 5272 C 524.729 -1.94643 2.77307 0
M  V30 5273 C 523.288 -2.4791 2.83227 0
M  V30 5274 C 522.435 -1.25833 2.47106 0
M  V30 5275 H 525.386 -0.271626 1.56358 0
M  V30 5276 H 525.407 -2.79496 2.5819 0
M  V30 5277 H 524.919 -1.31621 3.65099 0
M  V30 5278 H 523.02 -3.14535 1.99745 0
M  V30 5279 H 523.133 -2.84193 3.85709 0
M  V30 5280 H 521.497 -1.58764 1.99163 0
M  V30 5281 H 522.28 -0.644993 3.37186 0
M  V30 5282 N 524.725 -1.39134 -0.740242 0
M  V30 5283 C 525.953 -1.39334 -1.5295 0
M  V30 5284 C 526.368 0.0135008 -1.88795 0
M  V30 5285 O 525.725 0.983524 -1.5373 0
M  V30 5286 C 525.776 -2.2614 -2.82034 0
M  V30 5287 O 525.497 -3.61345 -2.47712 0
M  V30 5288 C 526.998 -2.34666 -3.76094 0
M  V30 5289 H 524.218 -0.476103 -0.472828 0
M  V30 5290 H 526.762 -1.82883 -0.9151 0
M  V30 5291 H 524.917 -1.86018 -3.39818 0
M  V30 5292 H 525.331 -4.07194 -3.30595 0
M  V30 5293 H 526.805 -2.99663 -4.63579 0
M  V30 5294 H 527.282 -1.36426 -4.17474 0
M  V30 5295 H 527.888 -2.75236 -3.2423 0
M  V30 5296 N 526.204 0.969867 -1.24223 0
M  V30 5297 C 527.451 1.71256 -1.08063 0
M  V30 5298 C 527.779 1.90734 0.380872 0
M  V30 5299 O 527.034 1.46469 1.29789 0
M  V30 5300 C 527.333 3.10883 -1.76314 0
M  V30 5301 C 526.999 3.11252 -3.26241 0
M  V30 5302 C 525.661 3.1106 -3.67144 0
M  V30 5303 C 528.013 3.05751 -4.22097 0
M  V30 5304 C 525.341 3.03097 -5.02344 0
M  V30 5305 C 527.693 2.9933 -5.57301 0
M  V30 5306 C 526.357 2.97466 -5.97554 0
M  V30 5307 H 525.627 0.62667 -0.395431 0
M  V30 5308 H 528.274 1.13422 -1.54297 0
M  V30 5309 H 526.579 3.72168 -1.22468 0
M  V30 5310 H 528.276 3.67138 -1.61277 0
M  V30 5311 H 524.866 3.12165 -2.93685 0
M  V30 5312 H 529.05 3.05031 -3.91497 0
M  V30 5313 H 524.306 3.00013 -5.32731 0
M  V30 5314 H 528.48 2.94033 -6.31283 0
M  V30 5315 H 526.107 2.91051 -7.02277 0
M  V30 5316 N 527.682 1.05563 1.17022 0
M  V30 5317 C 528.592 0.670758 2.24807 0
M  V30 5318 C 529.608 -0.309865 1.71219 0
M  V30 5319 O 530.784 -0.161025 2.00755 0
M  V30 5320 C 527.849 0.055337 3.46656 0
M  V30 5321 C 526.91 1.08688 4.15314 0
M  V30 5322 C 526.143 0.500736 5.31346 0
M  V30 5323 O 526.366 -0.688718 5.66227 0
M  V30 5324 O 525.3 1.23683 5.89055 0
M  V30 5325 H 529.126 1.56914 2.60023 0
M  V30 5326 H 526.711 0.827428 1.24395 0
M  V30 5327 H 528.593 -0.286492 4.20425 0
M  V30 5328 H 527.268 -0.816638 3.13229 0
M  V30 5329 H 526.175 1.48077 3.43546 0
M  V30 5330 H 527.508 1.93014 4.52777 0
M  V30 5331 N 529.16 -1.33526 0.837174 0
M  V30 5332 C 530.385 -2.0258 0.444545 0
M  V30 5333 C 530.81 -1.6258 -0.946006 0
M  V30 5334 O 530.168 -0.817548 -1.6182 0
M  V30 5335 C 530.216 -3.5605 0.571006 0
M  V30 5336 O 529.32 -4.10422 -0.403431 0
M  V30 5337 H 528.661 -0.638866 0.180958 0
M  V30 5338 H 531.191 -1.70462 1.13154 0
M  V30 5339 H 531.201 -4.05488 0.452024 0
M  V30 5340 H 529.876 -3.84509 1.58512 0
M  V30 5341 H 528.453 -3.72113 -0.242147 0
M  V30 5342 N 530.638 -0.59345 -1.46 0
M  V30 5343 C 531.568 0.121192 -2.33185 0
M  V30 5344 C 532.549 0.872977 -1.4599 0
M  V30 5345 O 533.734 0.846321 -1.74789 0
M  V30 5346 C 530.864 1.12844 -3.28456 0
M  V30 5347 C 529.818 0.4908 -4.25177 0
M  V30 5348 C 529.144 1.60529 -5.10034 0
M  V30 5349 C 530.444 -0.578949 -5.19081 0
M  V30 5350 H 532.138 -0.606767 -2.93187 0
M  V30 5351 H 529.684 -0.293242 -1.40983 0
M  V30 5352 H 531.637 1.63684 -3.88311 0
M  V30 5353 H 530.361 1.88681 -2.66584 0
M  V30 5354 H 529.02 0.00339328 -3.666 0
M  V30 5355 H 528.668 2.35359 -4.44539 0
M  V30 5356 H 528.368 1.18422 -5.75543 0
M  V30 5357 H 529.892 2.11623 -5.72755 0
M  V30 5358 H 531.306 -0.155199 -5.7309 0
M  V30 5359 H 529.703 -0.920947 -5.92991 0
M  V30 5360 H 530.773 -1.46109 -4.62364 0
M  V30 5361 N 532.116 1.54067 -0.331816 0
M  V30 5362 C 533.341 2.05599 0.272705 0
M  V30 5363 C 533.766 1.2059 1.44359 0
M  V30 5364 O 533.124 0.216907 1.79998 0
M  V30 5365 C 533.172 3.54188 0.677021 0
M  V30 5366 O 532.276 3.72082 1.77844 0
M  V30 5367 H 531.617 0.662286 0.0476801 0
M  V30 5368 H 534.147 1.98826 -0.482624 0
M  V30 5369 H 534.157 3.96608 0.957415 0
M  V30 5370 H 532.832 4.15513 -0.179325 0
M  V30 5371 H 531.409 3.41566 1.49622 0
M  V30 5372 N 533.594 0.0601682 1.57485 0
M  V30 5373 C 534.557 -0.896373 2.10945 0
M  V30 5374 C 535.557 -1.23402 1.03095 0
M  V30 5375 O 536.747 -1.16921 1.29132 0
M  V30 5376 C 533.879 -2.20346 2.60116 0
M  V30 5377 H 535.072 -0.432778 2.96761 0
M  V30 5378 H 532.625 -0.188372 1.55161 0
M  V30 5379 H 533.36 -2.71268 1.7772 0
M  V30 5380 H 533.145 -1.9714 3.38937 0
M  V30 5381 H 534.635 -2.88846 3.01592 0
M  V30 5382 N 535.072 -1.5615 -0.213296 0
M  V30 5383 C 536.035 -1.92249 -1.24792 0
M  V30 5384 C 537.035 -0.801828 -1.39382 0
M  V30 5385 O 538.225 -1.06948 -1.37506 0
M  V30 5386 C 535.357 -2.18056 -2.62039 0
M  V30 5387 H 536.55 -2.84793 -0.939845 0
M  V30 5388 H 534.103 -1.49559 -0.454062 0
M  V30 5389 H 534.838 -1.2809 -2.97932 0
M  V30 5390 H 534.623 -2.99703 -2.52825 0
M  V30 5391 H 536.113 -2.47051 -3.36683 0
M  V30 5392 N 536.55 0.480323 -1.50102 0
M  V30 5393 C 537.48 1.58769 -1.71215 0
M  V30 5394 C 538.461 1.60583 -0.560997 0
M  V30 5395 O 539.646 1.76996 -0.799127 0
M  V30 5396 C 536.776 2.97148 -1.79778 0
M  V30 5397 C 535.73 3.10201 -2.94888 0
M  V30 5398 C 535.056 4.50137 -2.88584 0
M  V30 5399 C 536.356 2.88283 -4.35534 0
M  V30 5400 H 538.05 1.41354 -2.6393 0
M  V30 5401 H 535.596 0.678591 -1.27008 0
M  V30 5402 H 537.549 3.74536 -1.93133 0
M  V30 5403 H 536.273 3.15699 -0.836772 0
M  V30 5404 H 534.932 2.35244 -2.81169 0
M  V30 5405 H 534.58 4.65593 -1.90349 0
M  V30 5406 H 534.28 4.59808 -3.65856 0
M  V30 5407 H 535.804 5.29558 -3.03976 0
M  V30 5408 H 537.218 3.55427 -4.49827 0
M  V30 5409 H 535.615 3.09408 -5.14186 0
M  V30 5410 H 536.685 1.84219 -4.48544 0
M  V30 5411 N 538.028 1.39524 0.732853 0
M  V30 5412 C 539.256 1.40143 1.52209 0
M  V30 5413 C 539.671 -0.00348836 1.888 0
M  V30 5414 O 539.028 -0.975357 1.5425 0
M  V30 5415 C 539.079 2.27632 2.8083 0
M  V30 5416 O 538.8 3.62654 2.45792 0
M  V30 5417 C 540.301 2.36658 3.74844 0
M  V30 5418 H 537.521 0.478604 0.470297 0
M  V30 5419 H 540.065 1.83366 0.905388 0
M  V30 5420 H 538.22 1.87818 3.38826 0
M  V30 5421 H 538.634 4.08941 3.28431 0
M  V30 5422 H 540.108 3.02118 4.61984 0
M  V30 5423 H 540.585 1.38638 4.16745 0
M  V30 5424 H 541.191 2.76951 3.22766 0
M  V30 5425 N 539.506 -0.963266 1.24736 0
M  V30 5426 C 540.734 -1.74166 1.11686 0
M  V30 5427 C 541.149 -1.8589 -0.330187 0
M  V30 5428 O 540.506 -1.35042 -1.2276 0
M  V30 5429 C 540.557 -3.15989 1.75595 0
M  V30 5430 O 540.278 -3.04847 3.14642 0
M  V30 5431 C 541.779 -4.10145 1.68213 0
M  V30 5432 H 538.999 -0.546031 0.389989 0
M  V30 5433 H 541.543 -1.20907 1.64929 0
M  V30 5434 H 539.698 -3.66219 1.26343 0
M  V30 5435 H 540.112 -3.9425 3.4593 0
M  V30 5436 H 541.586 -5.07299 2.17604 0
M  V30 5437 H 542.063 -4.3445 0.644208 0
M  V30 5438 H 542.669 -3.65827 2.16912 0
M  V30 5439 N 540.985 -1.06182 -1.16461 0
M  V30 5440 C 542.231 -0.779015 -1.87241 0
M  V30 5441 C 542.564 0.692715 -1.81425 0
M  V30 5442 O 541.839 1.5074 -1.22913 0
M  V30 5443 C 542.122 -1.2728 -3.36856 0
M  V30 5444 C 541.975 -2.80821 -3.51368 0
M  V30 5445 C 543.294 -0.879799 -4.31216 0
M  V30 5446 H 540.413 -0.284464 -0.679889 0
M  V30 5447 H 543.055 -1.31755 -1.36896 0
M  V30 5448 H 541.205 -0.814673 -3.79862 0
M  V30 5449 H 542.877 -3.34833 -3.17308 0
M  V30 5450 H 541.12 -3.19606 -2.93316 0
M  V30 5451 H 541.791 -3.10435 -4.56436 0
M  V30 5452 H 544.267 -1.27436 -3.96105 0
M  V30 5453 H 543.143 -1.25278 -5.34412 0
M  V30 5454 H 543.404 0.215372 -4.41575 0
M  V30 5455 N 542.463 1.3308 -0.844243 0
M  V30 5456 C 543.393 2.3161 -0.296493 0
M  V30 5457 C 544.374 1.59215 0.598707 0
M  V30 5458 O 545.559 1.87077 0.521134 0
M  V30 5459 C 542.689 3.43313 0.524762 0
M  V30 5460 C 541.643 4.27115 -0.275106 0
M  V30 5461 C 540.969 5.30483 0.670236 0
M  V30 5462 C 542.269 5.00443 -1.49514 0
M  V30 5463 H 543.963 2.77672 -1.11976 0
M  V30 5464 H 541.509 1.33496 -0.539899 0
M  V30 5465 H 543.462 4.11273 0.918298 0
M  V30 5466 H 542.186 2.95952 1.3813 0
M  V30 5467 H 540.845 3.60787 -0.650267 0
M  V30 5468 H 540.493 4.79379 1.52332 0
M  V30 5469 H 540.193 5.87435 0.139123 0
M  V30 5470 H 541.717 6.01308 1.06117 0
M  V30 5471 H 543.131 5.61141 -1.17447 0
M  V30 5472 H 541.528 5.67071 -1.96343 0
M  V30 5473 H 542.598 4.28906 -2.26202 0
M  V30 5474 N 543.941 0.601185 1.45683 0
M  V30 5475 C 544.904 -0.111398 2.28929 0
M  V30 5476 C 545.904 -0.801246 1.39416 0
M  V30 5477 O 547.094 -0.650383 1.61603 0
M  V30 5478 C 544.226 -1.16773 3.20276 0
M  V30 5479 H 545.419 0.620412 2.93413 0
M  V30 5480 H 542.972 0.359946 1.52099 0
M  V30 5481 H 543.707 -1.93051 2.60579 0
M  V30 5482 H 543.492 -0.677358 3.86205 0
M  V30 5483 H 544.982 -1.66698 3.82886 0
M  V30 5484 N 545.419 -1.53889 0.339982 0
M  V30 5485 C 546.83 -1.86139 -0.144671 0
M  V30 5486 C 547.181 -1.2613 -1.50285 0
M  V30 5487 O 546.306 -0.573515 -2.08662 0
M  V30 5488 C 546.901 -3.37728 -0.269285 0
M  V30 5489 C 545.46 -3.69868 -0.698168 0
M  V30 5490 C 544.607 -2.76777 0.170249 0
M  V30 5491 H 547.558 -1.48503 0.559704 0
M  V30 5492 H 547.579 -3.64331 -1.0974 0
M  V30 5493 H 547.091 -3.81375 0.719366 0
M  V30 5494 H 545.192 -3.31764 -1.69597 0
M  V30 5495 H 545.305 -4.76582 -0.490533 0
M  V30 5496 H 543.669 -2.52188 -0.356844 0
M  V30 5497 H 544.452 -3.23253 1.15597 0
M  V30 5498 N 546.897 -0.0685191 -1.57451 0
M  V30 5499 C 547.807 0.914677 -2.16034 0
M  V30 5500 C 548.823 1.32938 -1.12265 0
M  V30 5501 O 549.999 1.40275 -1.44516 0
M  V30 5502 C 547.064 2.16519 -2.70777 0
M  V30 5503 C 546.125 1.80721 -3.89408 0
M  V30 5504 C 545.358 2.9981 -4.41531 0
M  V30 5505 O 545.581 4.13727 -3.92666 0
M  V30 5506 O 544.515 2.79817 -5.32903 0
M  V30 5507 H 548.341 0.446364 -3.00402 0
M  V30 5508 H 545.926 0.154367 -1.486 0
M  V30 5509 H 547.808 2.89856 -3.05878 0
M  V30 5510 H 546.483 2.62454 -1.89471 0
M  V30 5511 H 545.39 1.04646 -3.59166 0
M  V30 5512 H 546.723 1.39571 -4.71997 0
M  V30 5513 N 548.375 1.56261 0.205012 0
M  V30 5514 C 549.603 1.84141 0.943386 0
M  V30 5515 C 550.018 0.649772 1.77266 0
M  V30 5516 O 549.375 -0.381612 1.78466 0
M  V30 5517 C 549.426 3.10719 1.84759 0
M  V30 5518 O 549.147 4.25286 1.05181 0
M  V30 5519 C 550.648 3.51706 2.69848 0
M  V30 5520 H 547.868 0.611734 0.275721 0
M  V30 5521 H 550.412 2.03364 0.215253 0
M  V30 5522 H 548.567 2.93422 2.52947 0
M  V30 5523 H 548.981 4.97301 1.66709 0
M  V30 5524 H 550.455 4.43266 3.28967 0
M  V30 5525 H 550.932 2.7423 3.43067 0
M  V30 5526 H 551.538 3.71499 2.07047 0
M  V30 5527 N 549.853 -0.472356 1.50355 0
M  V30 5528 C 551.269 -0.806001 1.37753 0
M  V30 5529 C 551.469 -1.968 0.432649 0
M  V30 5530 O 550.525 -2.52189 -0.12519 0
M  V30 5531 C 551.838 -1.11926 2.79093 0
M  V30 5532 C 553.386 -1.22579 2.87999 0
M  V30 5533 C 553.861 -1.57218 4.3017 0
M  V30 5534 N 555.352 -1.64212 4.33115 0
M  V30 5535 C 556.087 -1.92517 5.40116 0
M  V30 5536 N 555.583 -2.1885 6.57325 0
M  V30 5537 N 557.376 -1.94008 5.27558 0
M  V30 5538 H 549.527 0.293451 2.10363 0
M  V30 5539 H 551.79 0.0687672 0.945503 0
M  V30 5540 H 551.496 -0.338504 3.50067 0
M  V30 5541 H 551.37 -2.05577 3.16256 0
M  V30 5542 H 553.757 -1.99722 2.17245 0
M  V30 5543 H 553.838 -0.269107 2.54381 0
M  V30 5544 H 553.482 -0.806154 5.01461 0
M  V30 5545 H 553.412 -2.54034 4.61275 0
M  V30 5546 H 555.903 -1.45906 3.48597 0
M  V30 5547 H 556.216 -2.39718 7.3468 0
M  V30 5548 H 554.561 -2.16245 6.60502 0
M  V30 5549 H 557.752 -1.72931 4.34986 0
M  V30 5550 H 557.925 -2.15731 6.11035 0
M  V30 5551 N 551.331 -1.39911 -0.725443 0
M  V30 5552 C 552.294 -1.39156 -1.82121 0
M  V30 5553 C 553.294 -0.287018 -1.58218 0
M  V30 5554 O 554.484 -0.545421 -1.65441 0
M  V30 5555 C 551.616 -1.1736 -3.20062 0
M  V30 5556 H 552.809 -2.36672 -1.84191 0
M  V30 5557 H 550.362 -1.25615 -0.930079 0
M  V30 5558 H 551.097 -0.205648 -3.23647 0
M  V30 5559 H 550.882 -1.97358 -3.3881 0
M  V30 5560 H 552.372 -1.19596 -4.00108 0
M  V30 5561 N 552.809 0.956637 -1.25245 0
M  V30 5562 C 554.225 1.22733 -1.02023 0
M  V30 5563 C 554.425 1.99761 0.264186 0
M  V30 5564 O 553.481 2.32814 0.977436 0
M  V30 5565 C 554.794 2.00367 -2.24217 0
M  V30 5566 C 556.342 2.13418 -2.28958 0
M  V30 5567 C 556.817 2.9445 -3.50803 0
M  V30 5568 N 558.308 3.02029 -3.51187 0
M  V30 5569 C 559.043 3.65116 -4.42129 0
M  V30 5570 N 558.539 4.2983 -5.43339 0
M  V30 5571 N 560.332 3.62237 -4.29815 0
M  V30 5572 H 552.483 0.441282 -2.07765 0
M  V30 5573 H 554.746 0.257686 -0.912306 0
M  V30 5574 H 554.452 1.51165 -3.17556 0
M  V30 5575 H 554.326 3.01077 -2.27228 0
M  V30 5576 H 556.713 2.61819 -1.36143 0
M  V30 5577 H 556.794 1.1202 -2.29968 0
M  V30 5578 H 556.438 2.46741 -4.43939 0
M  V30 5579 H 556.368 3.9607 -3.47039 0
M  V30 5580 H 558.859 2.56007 -2.77973 0
M  V30 5581 H 559.172 4.75819 -6.08947 0
M  V30 5582 H 557.517 4.28465 -5.47214 0
M  V30 5583 H 560.708 3.10863 -3.49974 0
M  V30 5584 H 560.881 4.11117 -5.00886 0
M  V30 5585 N 554.287 1.06798 1.15896 0
M  V30 5586 C 555.25 0.687328 2.18651 0
M  V30 5587 C 556.25 -0.269559 1.58524 0
M  V30 5588 O 557.44 -0.0512627 1.74125 0
M  V30 5589 C 554.572 0.0121642 3.40898 0
M  V30 5590 H 555.765 1.59701 2.53842 0
M  V30 5591 H 553.318 0.863828 1.3026 0
M  V30 5592 H 554.053 -0.910025 3.1127 0
M  V30 5593 H 553.838 0.700309 3.85795 0
M  V30 5594 H 555.328 -0.239703 4.16911 0
M  V30 5595 N 555.766 -1.3263 0.851289 0
M  V30 5596 C 556.676 -2.32722 0.296268 0
M  V30 5597 C 557.692 -1.63901 -0.584162 0
M  V30 5598 O 558.868 -1.95465 -0.485334 0
M  V30 5599 C 555.933 -3.42942 -0.509103 0
M  V30 5600 C 554.994 -4.2746 0.397069 0
M  V30 5601 C 554.227 -5.32416 -0.36996 0
M  V30 5602 O 554.45 -5.47491 -1.6003 0
M  V30 5603 O 553.384 -6.01327 0.262493 0
M  V30 5604 H 557.21 -2.82078 1.12543 0
M  V30 5605 H 554.795 -1.36194 0.614135 0
M  V30 5606 H 556.677 -4.1017 -0.96634 0
M  V30 5607 H 555.352 -2.95781 -1.31512 0
M  V30 5608 H 554.259 -3.63053 0.902411 0
M  V30 5609 H 555.592 -4.78136 1.16818 0
M  V30 5610 N 557.244 -0.608902 -1.45362 0
M  V30 5611 C 558.207 0.0992563 -2.28985 0
M  V30 5612 C 559.207 0.793841 -1.39838 0
M  V30 5613 O 560.397 0.641804 -1.61946 0
M  V30 5614 C 557.529 1.15073 -3.20891 0
M  V30 5615 H 558.722 -0.635964 -2.93079 0
M  V30 5616 H 556.275 -0.368007 -1.51906 0
M  V30 5617 H 557.01 1.91667 -2.616 0
M  V30 5618 H 556.795 0.656867 -3.86559 0
M  V30 5619 H 558.285 1.64665 -3.83765 0
M  V30 5620 N 558.722 1.53707 -0.348139 0
M  V30 5621 C 559.968 2.01286 0.247332 0
M  V30 5622 C 560.301 1.23546 1.49834 0
M  V30 5623 O 559.576 0.324331 1.91777 0
M  V30 5624 C 559.859 3.55768 0.556858 0
M  V30 5625 C 559.712 4.44216 -0.706564 0
M  V30 5626 C 561.031 4.1841 1.3646 0
M  V30 5627 H 558.15 0.731677 0.0884201 0
M  V30 5628 H 560.792 1.84106 -0.469584 0
M  V30 5629 H 558.942 3.70539 1.16761 0
M  V30 5630 H 560.614 4.41274 -1.34444 0
M  V30 5631 H 558.857 4.12892 -1.33052 0
M  V30 5632 H 559.528 5.50202 -0.445186 0
M  V30 5633 H 562.004 4.07365 0.848113 0
M  V30 5634 H 560.88 5.26563 1.54992 0
M  V30 5635 H 561.141 3.7333 2.36805 0
M  V30 5636 N 560.2 0.0768682 1.57412 0
M  V30 5637 C 561.163 -0.873949 2.11884 0
M  V30 5638 C 562.163 -1.22301 1.04398 0
M  V30 5639 O 563.353 -1.15545 1.30365 0
M  V30 5640 C 560.485 -2.17575 2.62438 0
M  V30 5641 H 561.678 -0.401278 2.97203 0
M  V30 5642 H 559.231 -0.171904 1.55352 0
M  V30 5643 H 559.966 -2.69368 1.80587 0
M  V30 5644 H 559.751 -1.93534 3.41009 0
M  V30 5645 H 561.241 -2.85631 3.04639 0
M  V30 5646 N 561.678 -1.56367 -0.196722 0
M  V30 5647 C 562.926 -1.80172 -0.915554 0
M  V30 5648 C 563.247 -0.649649 -1.8386 0
M  V30 5649 O 562.517 0.332111 -1.93064 0
M  V30 5650 H 561.097 -0.664592 -0.341067 0
M  V30 5651 H 563.759 -1.93844 -0.202622 0
M  V30 5652 H 562.855 -2.7327 -1.50764 0
M  V30 5653 N 563.156 0.464375 -1.50603 0
M  V30 5654 C 564.089 1.58052 -1.64605 0
M  V30 5655 C 565.067 1.54914 -0.494016 0
M  V30 5656 O 566.251 1.74438 -0.714393 0
M  V30 5657 C 563.378 2.96634 -1.63481 0
M  V30 5658 C 562.424 3.17901 -2.84325 0
M  V30 5659 S 563.257 2.97083 -4.45536 0
M  V30 5660 C 564.413 4.37994 -4.47115 0
M  V30 5661 H 564.646 1.45937 -2.59017 0
M  V30 5662 H 562.179 0.652189 -1.39949 0
M  V30 5663 H 564.137 3.76527 -1.63517 0
M  V30 5664 H 562.798 3.06134 -0.702928 0
M  V30 5665 H 561.991 4.19158 -2.79862 0
M  V30 5666 H 561.593 2.45792 -2.81891 0
M  V30 5667 H 563.885 5.30743 -4.21091 0
M  V30 5668 H 564.828 4.47499 -5.48772 0
M  V30 5669 H 565.236 4.20386 -3.76743 0
M  V30 5670 N 564.634 1.40294 0.718013 0
M  V30 5671 C 565.88 1.38645 1.48005 0
M  V30 5672 C 566.213 -0.0121202 1.94196 0
M  V30 5673 O 565.488 -0.980309 1.67989 0
M  V30 5674 C 565.771 2.37379 2.70782 0
M  V30 5675 C 565.624 3.8625 2.30501 0
M  V30 5676 C 566.943 2.33685 3.72933 0
M  V30 5677 H 564.062 0.504928 0.536858 0
M  V30 5678 H 566.704 1.71411 0.819649 0
M  V30 5679 H 564.854 2.09568 3.27129 0
M  V30 5680 H 566.526 4.24879 1.79655 0
M  V30 5681 H 564.769 4.02202 1.6253 0
M  V30 5682 H 565.44 4.50847 3.18498 0
M  V30 5683 H 567.916 2.58314 3.2621 0
M  V30 5684 H 566.792 3.0482 4.56482 0
M  V30 5685 H 567.053 1.34765 4.21059 0
M  V30 5686 N 566.112 -0.949982 1.2575 0
M  V30 5687 C 567.042 -2.06483 1.09028 0
M  V30 5688 C 568.023 -1.701 -0.00201532 0
M  V30 5689 O 569.208 -1.93469 0.168383 0
M  V30 5690 C 566.338 -3.39899 0.71316 0
M  V30 5691 C 565.292 -3.90309 1.75621 0
M  V30 5692 C 564.618 -5.20274 1.23365 0
M  V30 5693 C 565.918 -4.16169 3.15596 0
M  V30 5694 H 567.612 -2.20731 2.02283 0
M  V30 5695 H 565.158 -1.06066 0.973964 0
M  V30 5696 H 567.111 -4.17346 0.58309 0
M  V30 5697 H 565.835 -3.25602 -0.255091 0
M  V30 5698 H 564.494 -3.15035 1.8748 0
M  V30 5699 H 564.142 -5.02351 0.255491 0
M  V30 5700 H 563.842 -5.54971 1.93082 0
M  V30 5701 H 565.366 -6.00314 1.11607 0
M  V30 5702 H 566.78 -4.84259 3.06864 0
M  V30 5703 H 565.177 -4.62131 3.82825 0
M  V30 5704 H 566.247 -3.22273 3.6231 0
M  V30 5705 N 567.59 -1.07411 -1.15328 0
M  V30 5706 C 568.818 -0.818782 -1.90009 0
M  V30 5707 C 569.233 0.628072 -1.78047 0
M  V30 5708 O 568.59 1.43085 -1.13282 0
M  V30 5709 C 568.641 -1.21874 -3.40337 0
M  V30 5710 O 568.362 -2.60883 -3.51954 0
M  V30 5711 C 569.863 -0.992796 -4.3204 0
M  V30 5712 H 567.083 -0.296007 -0.60218 0
M  V30 5713 H 569.627 -1.43073 -1.46117 0
M  V30 5714 H 567.782 -0.651103 -3.81889 0
M  V30 5715 H 568.196 -2.77216 -4.45255 0
M  V30 5716 H 569.67 -1.32215 -5.35932 0
M  V30 5717 H 570.147 0.0708331 -4.39143 0
M  V30 5718 H 570.753 -1.54537 -3.9623 0
M  V30 5719 N 569.068 1.32177 -0.85831 0
M  V30 5720 C 570.345 1.91781 -0.384624 0
M  V30 5721 C 570.725 1.78171 1.13217 0
M  V30 5722 O 570.073 1.18209 1.95548 0
M  V30 5723 C 570.283 3.38414 -0.853047 0
M  V30 5724 C 571.631 4.15542 -0.872359 0
M  V30 5725 O 572.655 3.47148 -0.797926 0
M  V30 5726 O 571.514 5.37678 -0.978009 0
M  V30 5727 H 568.608 0.819259 -0.112886 0
M  V30 5728 H 571.154 1.40923 -0.945453 0
M  V30 5729 H 569.926 3.4228 -1.89632 0
M  V30 5730 H 569.549 3.96683 -0.269874 0
M  V30 5731 N 570.547 0.616602 1.45037 0
M  V30 5732 C 571.795 0.115103 2.01772 0
M  V30 5733 C 572.116 -1.2622 1.48639 0
M  V30 5734 O 571.386 -1.83563 0.684199 0
M  V30 5735 H 569.966 0.0395607 0.745952 0
M  V30 5736 H 572.628 0.800032 1.77723 0
M  V30 5737 H 571.724 0.0717274 3.12018 0
M  V30 5738 N 572.025 -1.5352 0.356285 0
M  V30 5739 C 572.988 -2.24071 -0.482182 0
M  V30 5740 C 573.988 -1.24531 -1.01729 0
M  V30 5741 O 575.178 -1.48876 -0.904513 0
M  V30 5742 C 572.31 -2.97025 -1.67299 0
M  V30 5743 H 573.503 -2.99596 0.135031 0
M  V30 5744 H 571.056 -1.55928 0.107825 0
M  V30 5745 H 571.791 -2.25719 -2.32855 0
M  V30 5746 H 571.576 -3.7005 -1.29636 0
M  V30 5747 H 573.066 -3.50683 -2.26741 0
M  V30 5748 N 573.503 -0.0852151 -1.57369 0
M  V30 5749 C 574.466 0.8627 -2.12344 0
M  V30 5750 C 575.466 1.21746 -1.05046 0
M  V30 5751 O 576.656 1.14852 -1.30976 0
M  V30 5752 C 573.788 2.1618 -2.63589 0
M  V30 5753 H 574.981 0.385511 -2.97412 0
M  V30 5754 H 572.534 0.163663 -1.55441 0
M  V30 5755 H 573.269 2.68406 -1.82013 0
M  V30 5756 H 573.054 1.91723 -3.4203 0
M  V30 5757 H 574.544 2.84011 -3.06149 0
M  V30 5758 N 574.981 1.5647 0.188427 0
M  V30 5759 C 575.944 1.9421 1.21718 0
M  V30 5760 C 576.944 0.823901 1.38089 0
M  V30 5761 O 578.134 1.09122 1.35787 0
M  V30 5762 C 575.266 2.22197 2.58537 0
M  V30 5763 H 576.459 2.86252 0.894418 0
M  V30 5764 H 574.012 1.50263 0.430211 0
M  V30 5765 H 574.747 1.32814 2.95856 0
M  V30 5766 H 574.532 3.03688 2.48025 0
M  V30 5767 H 576.022 2.52376 3.3271 0
M  V30 5768 N 576.459 -0.456382 1.50847 0
M  V30 5769 C 577.422 -1.53493 1.70213 0
M  V30 5770 C 578.422 -1.50264 0.572481 0
M  V30 5771 O 579.612 -1.52623 0.839751 0
M  V30 5772 C 576.744 -2.93091 1.741 0
M  V30 5773 H 577.937 -1.37633 2.66453 0
M  V30 5774 H 575.49 -0.683776 1.4055 0
M  V30 5775 H 576.225 -3.14378 0.796063 0
M  V30 5776 H 576.01 -2.9684 2.5618 0
M  V30 5777 H 577.5 -3.71368 1.90987 0
M  V30 5778 N 577.937 -1.40673 -0.710563 0
M  V30 5779 C 578.9 -1.4108 -1.80635 0
M  V30 5780 C 579.9 -0.303783 -1.57904 0
M  V30 5781 O 581.09 -0.562937 -1.64853 0
M  V30 5782 C 578.222 -1.20748 -3.18799 0
M  V30 5783 H 579.415 -2.38612 -1.81671 0
M  V30 5784 H 576.968 -1.26595 -0.916704 0
M  V30 5785 H 577.703 -0.239964 -3.23411 0
M  V30 5786 H 577.488 -2.00941 -3.36698 0
M  V30 5787 H 578.978 -1.23833 -3.98817 0
M  V30 5788 N 579.415 0.9433 -1.26252 0
M  V30 5789 C 580.692 1.66639 -1.02424 0
M  V30 5790 C 581.072 2.06335 0.446006 0
M  V30 5791 O 580.42 1.78551 1.42589 0
M  V30 5792 C 580.63 2.88019 -1.97094 0
M  V30 5793 C 581.978 3.59718 -2.25584 0
M  V30 5794 O 583.002 2.9812 -1.94943 0
M  V30 5795 O 581.861 4.7066 -2.77743 0
M  V30 5796 H 578.955 0.729643 -0.389294 0
M  V30 5797 H 581.501 0.995218 -1.37454 0
M  V30 5798 H 580.273 2.5556 -2.96319 0
M  V30 5799 H 579.896 3.62863 -1.62532 0
M  V30 5800 N 580.893 1.08022 1.14757 0
M  V30 5801 C 581.823 0.728248 2.21853 0
M  V30 5802 C 582.804 -0.287486 1.67653 0
M  V30 5803 O 583.989 -0.158727 1.9355 0
M  V30 5804 C 581.119 0.132549 3.47047 0
M  V30 5805 C 580.073 1.07619 4.14249 0
M  V30 5806 C 579.399 0.342907 5.33599 0
M  V30 5807 C 580.699 2.41268 4.63235 0
M  V30 5808 H 582.393 1.62365 2.51551 0
M  V30 5809 H 579.939 0.782125 1.20908 0
M  V30 5810 H 581.892 -0.125665 4.21213 0
M  V30 5811 H 580.616 -0.797971 3.16702 0
M  V30 5812 H 579.275 1.31944 3.42033 0
M  V30 5813 H 578.923 -0.59129 4.99513 0
M  V30 5814 H 578.623 0.971955 5.79506 0
M  V30 5815 H 580.147 0.0926538 6.1053 0
M  V30 5816 H 581.561 2.21232 5.28894 0
M  V30 5817 H 579.958 2.9983 5.19829 0
M  V30 5818 H 581.028 3.03079 3.78512 0
M  V30 5819 N 582.371 -1.3172 0.865308 0
M  V30 5820 C 583.617 -1.97168 0.474633 0
M  V30 5821 C 583.95 -1.68263 -0.969604 0
M  V30 5822 O 583.225 -0.976588 -1.68205 0
M  V30 5823 C 583.508 -3.52689 0.726808 0
M  V30 5824 C 583.361 -3.91185 2.22024 0
M  V30 5825 C 584.68 -4.39689 0.190201 0
M  V30 5826 H 581.799 -0.716185 0.17392 0
M  V30 5827 H 584.441 -1.55925 1.08569 0
M  V30 5828 H 582.591 -3.8795 0.206705 0
M  V30 5829 H 584.263 -3.66049 2.80724 0
M  V30 5830 H 582.506 -3.3996 2.69462 0
M  V30 5831 H 583.177 -4.99604 2.34735 0
M  V30 5832 H 585.653 -4.11225 0.635103 0
M  V30 5833 H 584.529 -5.47469 0.396132 0
M  V30 5834 H 584.79 -4.32683 -0.907625 0
M  V30 5835 N 583.85 -0.624285 -1.44708 0
M  V30 5836 C 584.779 0.0717025 -2.3339 0
M  V30 5837 C 585.76 0.841814 -1.47809 0
M  V30 5838 O 586.946 0.809056 -1.76544 0
M  V30 5839 C 584.076 1.05852 -3.30776 0
M  V30 5840 C 583.029 0.400503 -4.26122 0
M  V30 5841 C 582.356 1.49674 -5.13324 0
M  V30 5842 C 583.656 -0.688924 -5.17737 0
M  V30 5843 H 585.35 -0.668819 -2.91834 0
M  V30 5844 H 582.896 -0.32308 -1.40329 0
M  V30 5845 H 584.849 1.5541 -3.91696 0
M  V30 5846 H 583.572 1.82984 -2.70526 0
M  V30 5847 H 582.231 -0.0743687 -3.66525 0
M  V30 5848 H 581.88 2.25877 -4.49431 0
M  V30 5849 H 581.58 1.06188 -5.77926 0
M  V30 5850 H 583.104 1.99427 -5.77115 0
M  V30 5851 H 584.518 -0.276724 -5.72632 0
M  V30 5852 H 582.915 -1.04652 -5.90904 0
M  V30 5853 H 583.985 -1.55884 -4.5916 0
M  V30 5854 N 585.328 1.53329 -0.364422 0
M  V30 5855 C 586.291 2.24323 0.470292 0
M  V30 5856 C 587.291 1.25068 1.01067 0
M  V30 5857 O 588.481 1.49354 0.896605 0
M  V30 5858 C 585.613 2.97908 1.65722 0
M  V30 5859 H 586.806 2.9952 -0.150917 0
M  V30 5860 H 584.359 1.55868 -0.116092 0
M  V30 5861 H 585.094 2.2695 2.31655 0
M  V30 5862 H 584.879 3.70732 1.27671 0
M  V30 5863 H 586.369 3.5188 2.24878 0
M  V30 5864 N 586.806 0.0935595 1.57322 0
M  V30 5865 C 587.769 -0.851426 2.12799 0
M  V30 5866 C 588.769 -1.21187 1.0569 0
M  V30 5867 O 589.959 -1.14156 1.31583 0
M  V30 5868 C 587.091 -2.14779 2.64731 0
M  V30 5869 H 588.284 -0.369733 2.97612 0
M  V30 5870 H 585.837 -0.155417 1.55525 0
M  V30 5871 H 586.572 -2.67437 1.83434 0
M  V30 5872 H 586.357 -1.89907 3.43042 0
M  V30 5873 H 587.847 -2.82383 3.07651 0
M  V30 5874 N 588.284 -1.56567 -0.180126 0
M  V30 5875 C 589.53 -1.81761 -0.899497 0
M  V30 5876 C 589.863 -0.670015 -1.82276 0
M  V30 5877 O 589.138 0.328575 -1.91705 0
M  V30 5878 C 589.421 -3.17296 -1.7028 0
M  V30 5879 C 589.274 -4.4257 -0.803255 0
M  V30 5880 C 590.593 -3.49678 -2.67233 0
M  V30 5881 H 587.712 -0.661192 -0.325567 0
M  V30 5882 H 590.354 -1.89272 -0.16612 0
M  V30 5883 H 588.504 -3.11023 -2.32802 0
M  V30 5884 H 590.176 -4.60902 -0.191585 0
M  V30 5885 H 588.419 -4.33658 -0.110796 0
M  V30 5886 H 589.09 -5.33935 -1.40064 0
M  V30 5887 H 591.566 -3.56347 -2.14839 0
M  V30 5888 H 590.442 -4.45605 -3.20511 0
M  V30 5889 H 590.703 -2.73932 -3.47007 0
M  V30 5890 N 589.762 0.448376 -1.51087 0
M  V30 5891 C 591.01 1.19635 -1.62886 0
M  V30 5892 C 591.331 1.91977 -0.342024 0
M  V30 5893 O 590.601 1.85094 0.641636 0
M  V30 5894 H 589.181 0.444598 -0.600285 0
M  V30 5895 H 591.843 0.515138 -1.87969 0
M  V30 5896 H 590.939 1.93194 -2.45117 0
M  V30 5897 N 591.24 1.41047 0.703093 0
M  V30 5898 C 592.656 1.23351 1.01275 0
M  V30 5899 C 592.856 0.11754 2.01157 0
M  V30 5900 O 591.912 -0.520518 2.47077 0
M  V30 5901 C 593.225 2.58001 1.54454 0
M  V30 5902 C 594.773 2.65119 1.66376 0
M  V30 5903 C 595.248 4.00067 2.22958 0
M  V30 5904 N 596.739 4.01875 2.30328 0
M  V30 5905 C 597.474 5.03087 2.75119 0
M  V30 5906 N 596.97 6.14692 3.19571 0
M  V30 5907 N 598.763 4.90451 2.74616 0
M  V30 5908 H 590.914 2.1236 0.0412686 0
M  V30 5909 H 593.177 0.944543 0.08089 0
M  V30 5910 H 592.883 3.40378 0.88521 0
M  V30 5911 H 592.757 2.79962 2.52786 0
M  V30 5912 H 595.144 1.83106 2.31422 0
M  V30 5913 H 595.225 2.46975 0.666089 0
M  V30 5914 H 594.869 4.82526 1.58529 0
M  V30 5915 H 594.799 4.15547 3.23462 0
M  V30 5916 H 597.29 3.21291 1.98949 0
M  V30 5917 H 597.603 6.87799 3.52352 0
M  V30 5918 H 595.948 6.18239 3.17498 0
M  V30 5919 H 599.139 4.0235 2.39233 0
M  V30 5920 H 599.312 5.6947 3.09206 0
M  V30 5921 N 592.718 -0.936591 1.26751 0
M  V30 5922 C 593.628 -2.06949 1.10496 0
M  V30 5923 C 594.644 -1.7396 0.037271 0
M  V30 5924 O 595.82 -1.99941 0.241944 0
M  V30 5925 C 592.885 -3.38612 0.744491 0
M  V30 5926 C 591.946 -3.85355 1.89209 0
M  V30 5927 C 591.179 -5.10735 1.54873 0
M  V30 5928 O 591.402 -5.68602 0.452546 0
M  V30 5929 O 590.336 -5.52632 2.38499 0
M  V30 5930 H 594.162 -2.23571 2.05547 0
M  V30 5931 H 591.747 -1.05428 1.05855 0
M  V30 5932 H 593.629 -4.17711 0.556396 0
M  V30 5933 H 592.304 -3.23218 -0.176582 0
M  V30 5934 H 591.211 -3.07182 2.13518 0
M  V30 5935 H 592.544 -4.05277 2.79305 0
M  V30 5936 N 594.196 -1.08629 -1.14182 0
M  V30 5937 C 595.143 -0.718299 -2.19338 0
M  V30 5938 C 596.113 0.296587 -1.63431 0
M  V30 5939 O 597.298 0.180079 -1.89948 0
M  V30 5940 C 594.438 -0.136203 -3.44831 0
M  V30 5941 C 593.551 -1.20414 -4.14879 0
M  V30 5942 C 592.686 -0.585666 -5.27962 0
M  V30 5943 C 591.725 -1.63548 -5.89846 0
M  V30 5944 N 590.862 -1.03864 -6.94375 0
M  V30 5945 H 595.702 -1.61932 -2.50164 0
M  V30 5946 H 593.239 -0.80919 -1.22844 0
M  V30 5947 H 595.197 0.219021 -4.16625 0
M  V30 5948 H 593.827 0.728121 -3.14481 0
M  V30 5949 H 592.879 -1.67676 -3.41451 0
M  V30 5950 H 594.191 -1.99959 -4.56966 0
M  V30 5951 H 593.345 -0.178818 -6.06436 0
M  V30 5952 H 592.084 0.24142 -4.87102 0
M  V30 5953 H 591.089 -2.05197 -5.10073 0
M  V30 5954 H 592.314 -2.46509 -6.3278 0
M  V30 5955 H 590.26 -0.232687 -6.55587 0
M  V30 5956 H 590.177 -1.77116 -7.3496 0
M  V30 5957 H 591.445 -0.657724 -7.7672 0
M  V30 5958 N 595.674 1.31259 -0.872281 0
M  V30 5959 C 597.085 1.78822 -0.536617 0
M  V30 5960 C 597.436 1.71855 0.946594 0
M  V30 5961 O 596.561 1.28769 1.73918 0
M  V30 5962 C 597.156 3.24698 -0.967294 0
M  V30 5963 C 595.715 3.70147 -0.683251 0
M  V30 5964 C 594.862 2.51994 -1.15733 0
M  V30 5965 H 597.813 1.18308 -1.05777 0
M  V30 5966 H 597.834 3.79386 -0.290929 0
M  V30 5967 H 597.346 3.29737 -2.04683 0
M  V30 5968 H 595.447 3.70607 0.384825 0
M  V30 5969 H 595.56 4.62183 -1.2619 0
M  V30 5970 H 593.924 2.48078 -0.577024 0
M  V30 5971 H 594.707 2.59778 -2.24434 0
M  V30 5972 N 597.152 0.631951 1.44375 0
M  V30 5973 C 598.115 -0.0628142 2.29114 0
M  V30 5974 C 599.115 -0.771494 1.41084 0
M  V30 5975 O 600.305 -0.615959 1.62947 0
M  V30 5976 C 597.437 -1.09953 3.22681 0
M  V30 5977 H 598.63 0.682509 2.92031 0
M  V30 5978 H 596.183 0.392128 1.51301 0
M  V30 5979 H 596.918 -1.87481 2.64616 0
M  V30 5980 H 596.703 -0.595286 3.87555 0
M  V30 5981 H 598.193 -1.58538 3.86336 0
M  V30 5982 N 598.631 -1.53133 0.372548 0
M  V30 5983 C 599.877 -2.01654 -0.215277 0
M  V30 5984 C 600.21 -1.25914 -1.47849 0
M  V30 5985 O 599.485 -0.3548 -1.91237 0
M  V30 5986 C 599.768 -3.56609 -0.500187 0
M  V30 5987 C 599.621 -4.43036 0.777145 0
M  V30 5988 C 600.94 -4.20528 -1.29786 0
M  V30 5989 H 598.059 -0.732991 -0.0767686 0
M  V30 5990 H 600.701 -1.83335 0.498814 0
M  V30 5991 H 598.851 -3.7235 -1.10852 0
M  V30 5992 H 600.523 -4.39079 1.41447 0
M  V30 5993 H 598.766 -4.10723 1.39604 0
M  V30 5994 H 599.437 -5.49424 0.532662 0
M  V30 5995 H 601.913 -4.08663 -0.783198 0
M  V30 5996 H 600.789 -5.28962 -1.46596 0
M  V30 5997 H 601.05 -3.77051 -2.30836 0
M  V30 5998 N 600.109 -0.101901 -1.5727 0
M  V30 5999 C 601.52 0.426173 -1.81771 0
M  V30 6000 C 601.871 1.67725 -1.01797 0
M  V30 6001 O 600.996 2.14958 -0.249386 0
M  V30 6002 C 601.591 0.779962 -3.297 0
M  V30 6003 C 600.15 1.25275 -3.54941 0
M  V30 6004 C 599.297 0.252814 -2.76145 0
M  V30 6005 H 602.248 -0.32726 -1.55289 0
M  V30 6006 H 602.269 1.63891 -3.43395 0
M  V30 6007 H 601.781 -0.130778 -3.8788 0
M  V30 6008 H 599.882 2.18097 -3.021 0
M  V30 6009 H 599.995 1.20988 -4.63572 0
M  V30 6010 H 598.359 0.736362 -2.43823 0
M  V30 6011 H 599.142 -0.650724 -3.37076 0
M  V30 6012 N 601.587 1.56661 0.17182 0
M  V30 6013 C 602.55 1.9549 1.19651 0
M  V30 6014 C 603.55 0.838501 1.37207 0
M  V30 6015 O 604.74 1.10556 1.34622 0
M  V30 6016 C 601.872 2.24927 2.56166 0
M  V30 6017 H 603.065 2.87184 0.864007 0
M  V30 6018 H 600.618 1.50711 0.41425 0
M  V30 6019 H 601.353 1.35944 2.94431 0
M  V30 6020 H 601.138 3.06301 2.4479 0
M  V30 6021 H 602.628 2.55891 3.30014 0
M  V30 6022 O 603.104 -0.316804 1.58362 0
M  V30 6023 H 603.795 -0.964883 1.67957 0
M  V30 END ATOM
M  V30 BEGIN BOND
M  V30 END BOND
M  V30 END CTAB
M  END
$$$$
