drugbank_target|Q9AGP8 Dimethylglycine oxidase (DB03147; DB03256)
 OpenBabel12092120263D

  0  0  0     0  0            999 V3000
M  V30 BEGIN CTAB
M  V30 COUNTS 12569 12717 0 0 0
M  V30 BEGIN ATOM
M  V30 1 H -0.908 1.98254 -0.117106 0
M  V30 2 N 0 1.576 0 0
M  V30 3 C 0.933 2.03868 1.02534 0
M  V30 4 C 1.911 0.928543 1.3348 0
M  V30 5 O 3.095 1.19667 1.45644 0
M  V30 6 C 0.222 2.43627 2.35294 0
M  V30 7 C -0.732 3.65373 2.2001 0
M  V30 8 S 0.101 5.13292 1.52614 0
M  V30 9 C 1.257 5.56322 2.86805 0
M  V30 10 H 1.49 2.90518 0.631377 0
M  V30 11 H -0.977 1.52953 0.210867 0
M  V30 12 H 0.981 2.67203 3.11629 0
M  V30 13 H -0.358 1.57376 2.7183 0
M  V30 14 H -1.165 3.90944 3.18086 0
M  V30 15 H -1.563 3.418 1.51819 0
M  V30 16 H 0.729 5.58782 3.83104 0
M  V30 17 H 1.672 6.56266 2.65933 0
M  V30 18 H 2.08 4.83886 2.90714 0
M  V30 19 N 1.4781 -0.272755 1.55222 0
M  V30 20 C 2.4411 -1.32041 1.87344 0
M  V30 21 C 3.4411 -1.42342 0.74803 0
M  V30 22 O 4.6311 -1.41488 1.0162 0
M  V30 23 C 1.7631 -2.70173 2.07893 0
M  V30 24 H 2.9561 -1.04789 2.80997 0
M  V30 25 H 0.5091 -0.51083 1.47717 0
M  V30 26 H 1.2441 -3.02605 1.16622 0
M  V30 27 H 1.0291 -2.64082 2.89833 0
M  V30 28 H 2.5191 -3.45869 2.34017 0
M  V30 29 N 2.9562 -1.48159 -0.537278 0
M  V30 30 C 4.1812 -1.59707 -1.32319 0
M  V30 31 C 4.6062 -0.254859 -1.86365 0
M  V30 32 O 3.9642 0.772378 -1.64024 0
M  V30 33 C 4.0122 -2.6412 -2.45505 0
M  V30 34 O 3.1162 -2.20774 -3.48328 0
M  V30 35 H 2.4572 -0.535791 -0.392204 0
M  V30 36 H 4.9872 -1.94092 -0.647268 0
M  V30 37 H 4.9972 -2.85166 -2.91795 0
M  V30 38 H 3.6722 -3.61567 -2.05528 0
M  V30 39 H 2.2492 -2.09911 -3.08207 0
M  V30 40 N 4.4343 0.785586 -1.36625 0
M  V30 41 C 5.6623 1.57448 -1.3423 0
M  V30 42 C 6.0773 1.88649 0.0755653 0
M  V30 43 O 5.4343 1.50414 1.03354 0
M  V30 44 C 5.4853 2.89316 -2.16745 0
M  V30 45 O 5.2063 2.59459 -3.53005 0
M  V30 46 C 6.7073 3.83606 -2.22174 0
M  V30 47 H 3.9273 0.488226 -0.4603 0
M  V30 48 H 6.4713 0.974733 -1.79775 0
M  V30 49 H 4.6263 3.4575 -1.74745 0
M  V30 50 H 5.0403 3.43804 -3.96105 0
M  V30 51 H 6.5143 4.73181 -2.8426 0
M  V30 52 H 6.9913 4.21734 -1.22627 0
M  V30 53 H 7.5973 3.33104 -2.64427 0
M  V30 54 N 5.9124 1.20967 1.01018 0
M  V30 55 C 7.3234 1.02319 1.56165 0
M  V30 56 C 7.6744 -0.418546 1.91684 0
M  V30 57 O 6.7994 -1.30096 1.72928 0
M  V30 58 C 7.3944 1.85109 2.8376 0
M  V30 59 C 5.9534 1.70809 3.35412 0
M  V30 60 C 5.1004 1.82643 2.08655 0
M  V30 61 H 8.0514 1.35065 0.833255 0
M  V30 62 H 8.0724 1.35827 3.55431 0
M  V30 63 H 7.5844 2.90035 2.57878 0
M  V30 64 H 5.6854 0.685464 3.66241 0
M  V30 65 H 5.7984 2.52467 4.07182 0
M  V30 66 H 4.1624 1.25896 2.21409 0
M  V30 67 H 4.9454 2.89066 1.85191 0
M  V30 68 N 7.3905 -1.2043 1.01659 0
M  V30 69 C 8.8065 -1.41852 0.731442 0
M  V30 70 C 9.0065 -1.89358 -0.688898 0
M  V30 71 O 8.0625 -2.06247 -1.45666 0
M  V30 72 C 9.3755 -2.44019 1.75714 0
M  V30 73 C 10.9235 -2.57785 1.77527 0
M  V30 74 C 11.3985 -3.63194 2.79023 0
M  V30 75 N 12.8895 -3.70678 2.77763 0
M  V30 76 C 13.6245 -4.51897 3.52954 0
M  V30 77 N 13.1205 -5.36921 4.37821 0
M  V30 78 N 14.9135 -4.4643 3.41551 0
M  V30 79 H 7.0645 -0.879093 1.93354 0
M  V30 80 H 9.3275 -0.448425 0.835236 0
M  V30 81 H 9.0335 -2.1611 2.77469 0
M  V30 82 H 8.9075 -3.43007 1.56927 0
M  V30 83 H 11.2945 -2.85023 0.764569 0
M  V30 84 H 11.3755 -1.58992 2.00387 0
M  V30 85 H 11.0195 -3.36699 3.80258 0
M  V30 86 H 10.9495 -4.61609 2.53425 0
M  V30 87 H 13.4405 -3.09944 2.16201 0
M  V30 88 H 13.7535 -5.95981 4.91962 0
M  V30 89 H 12.0985 -5.36424 4.41899 0
M  V30 90 H 15.2895 -3.79042 2.74672 0
M  V30 91 H 15.4625 -5.09491 4.00404 0
M  V30 92 N 8.8686 -0.792821 -1.36206 0
M  V30 93 C 10.1176 -0.363353 -1.984 0
M  V30 94 C 10.4306 1.07172 -1.63626 0
M  V30 95 O 11.6366 1.60362 -2.19081 0
M  V30 96 C 10.0926 -0.59872 -3.54885 0
M  V30 97 C 9.7006 -2.04543 -3.9858 0
M  V30 98 C 11.4446 -0.233926 -4.23855 0
M  V30 99 C 9.3516 -2.22727 -5.47856 0
M  V30 100 H 8.2816 -0.13212 -0.742334 0
M  V30 101 H 10.9326 -0.974935 -1.55458 0
M  V30 102 H 9.3146 0.0826222 -3.95914 0
M  V30 103 H 10.4886 -2.76345 -3.68741 0
M  V30 104 H 8.8036 -2.36879 -3.42458 0
M  V30 105 H 11.4006 -0.348027 -5.33566 0
M  V30 106 H 11.7436 0.818351 -4.08177 0
M  V30 107 H 12.2766 -0.868639 -3.882 0
M  V30 108 H 9.0156 -3.2635 -5.68486 0
M  V30 109 H 8.5356 -1.55434 -5.7931 0
M  V30 110 H 10.2146 -2.03607 -6.14128 0
M  V30 111 N 10.3467 1.47872 -0.545128 0
M  V30 112 C 11.5927 2.02793 -0.0166104 0
M  V30 113 C 11.9257 1.41987 1.32489 0
M  V30 114 O 11.2007 0.571045 1.85928 0
M  V30 115 C 11.4837 3.59989 0.0893294 0
M  V30 116 C 11.3367 4.3125 -1.27841 0
M  V30 117 C 12.6557 4.32606 0.808724 0
M  V30 118 H 9.7747 0.736962 -0.00751035 0
M  V30 119 H 12.4167 1.76433 -0.705085 0
M  V30 120 H 10.5667 3.82579 0.675681 0
M  V30 121 H 12.2387 4.20035 -1.90704 0
M  V30 122 H 10.4817 3.92076 -1.85632 0
M  V30 123 H 11.1527 5.39736 -1.15713 0
M  V30 124 H 13.6287 4.14936 0.310992 0
M  V30 125 H 12.5047 5.42251 0.851782 0
M  V30 126 H 12.7657 4.00963 1.86229 0
M  V30 127 N 11.8248 0.280983 1.55075 0
M  V30 128 C 13.0738 -0.334784 1.98902 0
M  V30 129 C 13.3868 -1.56534 1.17288 0
M  V30 130 O 14.5928 -2.25443 1.51287 0
M  V30 131 C 13.0488 -0.646994 3.54037 0
M  V30 132 C 12.6568 0.564085 4.44435 0
M  V30 133 C 14.4008 -1.22506 4.06439 0
M  V30 134 C 12.3078 0.226137 5.90967 0
M  V30 135 H 11.2378 -0.128866 0.742906 0
M  V30 136 H 13.8888 0.386556 1.79382 0
M  V30 137 H 12.2708 -1.42739 3.6938 0
M  V30 138 H 13.4448 1.34082 4.40861 0
M  V30 139 H 11.7598 1.0594 4.02698 0
M  V30 140 H 14.3568 -1.49182 5.13468 0
M  V30 141 H 14.6998 -2.16085 3.55827 0
M  V30 142 H 15.2328 -0.50682 3.94558 0
M  V30 143 H 11.9718 1.12996 6.45687 0
M  V30 144 H 11.4918 -0.513717 5.97596 0
M  V30 145 H 13.1708 -0.179539 6.46751 0
M  V30 146 N 13.3029 -1.57598 0.00835791 0
M  V30 147 C 14.5519 -1.90107 -0.673968 0
M  V30 148 C 14.8649 -0.884275 -1.7447 0
M  V30 149 O 16.0709 -1.09987 -2.48224 0
M  V30 150 C 14.5269 -3.37497 -1.24995 0
M  V30 151 C 14.1349 -4.47491 -0.2136 0
M  V30 152 C 15.8789 -3.79104 -1.90999 0
M  V30 153 C 13.7859 -5.85963 -0.80005 0
M  V30 154 H 12.7159 -0.709393 -0.255495 0
M  V30 155 H 15.3669 -1.83365 0.0702693 0
M  V30 156 H 13.7489 -3.39102 -2.04513 0
M  V30 157 H 14.9229 -4.57414 0.557596 0
M  V30 158 H 13.2379 -4.14956 0.346474 0
M  V30 159 H 15.8349 -4.79901 -2.35795 0
M  V30 160 H 16.1779 -3.1306 -2.74407 0
M  V30 161 H 16.7109 -3.79833 -1.18203 0
M  V30 162 H 13.4499 -6.555 -0.00456708 0
M  V30 163 H 12.9699 -5.79687 -1.54021 0
M  V30 164 H 14.6489 -6.33884 -1.29615 0
M  V30 165 N 14.781 0.264519 -1.55364 0
M  V30 166 C 16.029 0.993021 -1.76021 0
M  V30 167 C 16.35 1.86511 -0.569099 0
M  V30 168 O 15.62 1.91438 0.415735 0
M  V30 169 H 14.2 0.369639 -0.649135 0
M  V30 170 H 16.862 0.286707 -1.9278 0
M  V30 171 H 15.958 1.62502 -2.66457 0
M  V30 172 N 16.2591 1.48442 0.529413 0
M  V30 173 C 17.2221 1.62524 1.61612 0
M  V30 174 C 18.2221 0.498509 1.52877 0
M  V30 175 O 19.4121 0.76431 1.56537 0
M  V30 176 C 16.5441 1.59597 3.01233 0
M  V30 177 H 17.7371 2.59423 1.50465 0
M  V30 178 H 15.2901 1.37047 0.751514 0
M  V30 179 H 16.0251 0.641781 3.17886 0
M  V30 180 H 15.8101 2.41397 3.08982 0
M  V30 181 H 17.3001 1.72646 3.80241 0
M  V30 182 N 17.7372 -0.778329 1.37039 0
M  V30 183 C 18.9852 -1.53361 1.31623 0
M  V30 184 C 19.3062 -1.94739 -0.100831 0
M  V30 185 O 18.5762 -1.65797 -1.04347 0
M  V30 186 H 17.1562 -0.568794 0.484234 0
M  V30 187 H 19.8182 -0.926742 1.71457 0
M  V30 188 H 18.9142 -2.43606 1.95096 0
M  V30 189 N 19.2153 -1.21501 -1.00376 0
M  V30 190 C 20.4643 -1.02718 -1.73586 0
M  V30 191 C 20.7773 0.439589 -1.90596 0
M  V30 192 O 21.9833 0.746848 -2.61026 0
M  V30 193 C 20.4393 -1.78929 -3.1227 0
M  V30 194 C 20.0473 -3.29783 -3.03228 0
M  V30 195 C 21.7913 -1.68557 -3.89601 0
M  V30 196 C 19.6983 -3.98479 -4.36999 0
M  V30 197 H 18.6283 -0.380733 -0.650814 0
M  V30 198 H 21.2793 -1.45248 -1.1214 0
M  V30 199 H 19.6613 -1.29192 -3.74333 0
M  V30 200 H 20.8353 -3.86832 -2.50395 0
M  V30 201 H 19.1503 -3.40711 -2.39385 0
M  V30 202 H 21.7473 -2.17211 -4.88593 0
M  V30 203 H 22.0903 -0.644021 -4.11288 0
M  V30 204 H 22.6233 -2.15778 -3.34193 0
M  V30 205 H 19.3623 -5.02841 -4.20513 0
M  V30 206 H 18.8823 -3.46219 -4.89788 0
M  V30 207 H 20.5613 -4.03462 -5.05794 0
M  V30 208 N 20.6934 1.19889 -1.02296 0
M  V30 209 C 21.9394 1.89701 -0.717033 0
M  V30 210 C 22.2724 1.7905 0.751989 0
M  V30 211 O 21.5474 1.17891 1.547 0
M  V30 212 C 21.8304 3.40858 -1.16136 0
M  V30 213 C 21.6834 3.60411 -2.69117 0
M  V30 214 C 23.0024 4.33876 -0.737549 0
M  V30 215 H 20.1214 0.688874 -0.261957 0
M  V30 216 H 22.7634 1.41154 -1.27183 0
M  V30 217 H 20.9134 3.82335 -0.689342 0
M  V30 218 H 22.5854 3.28145 -3.2422 0
M  V30 219 H 20.8284 3.03665 -3.0979 0
M  V30 220 H 21.4994 4.66396 -2.95261 0
M  V30 221 H 23.9754 4.00081 -1.14344 0
M  V30 222 H 22.8514 5.38242 -1.0764 0
M  V30 223 H 23.1124 4.40628 0.360436 0
M  V30 224 N 22.1715 0.800033 1.35784 0
M  V30 225 C 23.4195 0.376597 1.9856 0
M  V30 226 C 23.7405 -1.05812 1.63795 0
M  V30 227 O 23.0105 -1.73103 0.917171 0
M  V30 228 H 21.5905 0.136261 0.734467 0
M  V30 229 H 24.2525 1.02442 1.65806 0
M  V30 230 H 23.3485 0.477002 3.08433 0
M  V30 231 N 23.6496 -1.47581 0.552962 0
M  V30 232 C 24.8776 -2.06875 0.0320556 0
M  V30 233 C 25.2926 -1.40625 -1.25976 0
M  V30 234 O 24.6496 -0.501349 -1.75479 0
M  V30 235 C 24.7006 -3.61092 -0.17167 0
M  V30 236 O 24.4216 -4.24858 1.06899 0
M  V30 237 C 25.9226 -4.37242 -0.730344 0
M  V30 238 H 23.1426 -0.669561 0.043915 0
M  V30 239 H 25.6866 -1.89646 0.765163 0
M  V30 240 H 23.8416 -3.7785 -0.854894 0
M  V30 241 H 24.2556 -5.17334 0.864059 0
M  V30 242 H 25.7296 -5.45842 -0.822203 0
M  V30 243 H 26.2066 -4.03235 -1.74064 0
M  V30 244 H 26.8126 -4.25219 -0.0829543 0
M  V30 245 N 25.1277 -0.289203 -1.54924 0
M  V30 246 C 26.0757 0.607966 -2.24514 0
M  V30 247 C 27.0697 1.14655 -1.24702 0
M  V30 248 O 28.2757 1.09856 -1.4259 0
M  V30 249 H 24.6507 0.21464 -0.720718 0
M  V30 250 H 26.6217 -0.00164182 -2.984 0
M  V30 251 C 25.3707 1.77406 -2.99036 0
M  V30 252 H 24.6937 1.36884 -3.75637 0
M  V30 253 H 26.1337 2.37814 -3.51028 0
M  V30 254 C 24.5927 2.67107 -2.05318 0
M  V30 255 O 25.1227 3.6787 -1.61353 0
M  V30 256 N 23.3287 2.34582 -1.71521 0
M  V30 257 H 22.8757 1.52688 -2.07471 0
M  V30 258 H 22.8337 2.94867 -1.0909 0
M  V30 259 N 26.6058 1.57591 -0.0167156 0
M  V30 260 C 27.5358 2.12496 0.967858 0
M  V30 261 C 28.5168 1.03807 1.34752 0
M  V30 262 O 29.7018 1.31577 1.42833 0
M  V30 263 C 26.8318 2.64194 2.25431 0
M  V30 264 C 25.7858 3.77559 2.01576 0
M  V30 265 C 25.1118 4.15636 3.36379 0
M  V30 266 C 26.4118 5.04151 1.36489 0
M  V30 267 H 28.1058 2.95013 0.510643 0
M  V30 268 H 25.6518 1.41915 0.244181 0
M  V30 269 H 27.6048 3.01236 2.94678 0
M  V30 270 H 26.3288 1.78821 2.73296 0
M  V30 271 H 24.9878 3.40937 1.34751 0
M  V30 272 H 24.6358 3.27263 3.81979 0
M  V30 273 H 24.3358 4.92022 3.21229 0
M  V30 274 H 25.8598 4.5525 4.06915 0
M  V30 275 H 27.2738 5.38857 1.95718 0
M  V30 276 H 25.6708 5.85453 1.31776 0
M  V30 277 H 26.7408 4.83733 0.336219 0
M  V30 278 N 28.0839 -0.256276 1.55502 0
M  V30 279 C 29.0469 -1.30047 1.88734 0
M  V30 280 C 30.0469 -1.4154 0.763086 0
M  V30 281 O 31.2369 -1.40403 1.03115 0
M  V30 282 C 28.3689 -2.67953 2.10747 0
M  V30 283 H 29.5619 -1.01802 2.82093 0
M  V30 284 H 27.1149 -0.495134 1.4825 0
M  V30 285 H 27.8499 -3.01351 1.19825 0
M  V30 286 H 27.6349 -2.60993 2.92617 0
M  V30 287 H 29.1249 -3.43368 2.37673 0
M  V30 288 N 29.562 -1.4872 -0.521534 0
M  V30 289 C 30.839 -1.4766 -1.2828 0
M  V30 290 C 31.219 -0.19292 -2.10217 0
M  V30 291 O 30.567 0.825193 -2.13079 0
M  V30 292 C 30.777 -2.74358 -2.15705 0
M  V30 293 C 32.125 -3.23028 -2.75569 0
M  V30 294 O 33.149 -2.75333 -2.25987 0
M  V30 295 O 32.008 -4.0604 -3.65778 0
M  V30 296 H 29.102 -0.590085 -0.579421 0
M  V30 297 H 31.648 -1.60963 -0.537492 0
M  V30 298 H 30.42 -3.59292 -1.54999 0
M  V30 299 H 30.043 -2.63816 -2.97467 0
M  V30 300 N 31.0401 0.771051 -1.3745 0
M  V30 301 C 31.9501 1.91538 -1.35464 0
M  V30 302 C 32.9661 1.72134 -0.254123 0
M  V30 303 O 34.1421 1.95358 -0.489626 0
M  V30 304 C 31.2071 3.26671 -1.16134 0
M  V30 305 C 30.2681 3.58723 -2.35831 0
M  V30 306 C 29.5011 4.87409 -2.17413 0
M  V30 307 O 29.7241 5.58506 -1.15876 0
M  V30 308 O 28.6581 5.18539 -3.05615 0
M  V30 309 H 32.4841 1.96165 -2.31847 0
M  V30 310 H 30.0691 0.9139 -1.18187 0
M  V30 311 H 31.9511 4.07499 -1.07345 0
M  V30 312 H 30.6261 3.22894 -0.228251 0
M  V30 313 H 29.5331 2.78127 -2.50192 0
M  V30 314 H 30.8661 3.67243 -3.27709 0
M  V30 315 N 32.5182 1.22032 0.997298 0
M  V30 316 C 33.4482 1.01065 2.10495 0
M  V30 317 C 34.4292 -0.0669542 1.69968 0
M  V30 318 O 35.6142 0.0943987 1.9397 0
M  V30 319 C 32.7442 0.582874 3.42374 0
M  V30 320 C 31.6982 1.60592 3.96729 0
M  V30 321 C 31.0242 1.03412 5.24605 0
M  V30 322 C 32.3242 2.99478 4.27914 0
M  V30 323 H 34.0182 1.93708 2.28292 0
M  V30 324 H 31.5642 0.932761 1.09707 0
M  V30 325 H 33.5172 0.423332 4.19268 0
M  V30 326 H 32.2412 -0.379213 3.24391 0
M  V30 327 H 30.9002 1.75316 3.21963 0
M  V30 328 H 30.5482 0.063518 5.0296 0
M  V30 329 H 30.2482 1.71754 5.61938 0
M  V30 330 H 31.7722 0.886066 6.04137 0
M  V30 331 H 33.1862 2.88153 4.95622 0
M  V30 332 H 31.5832 3.64903 4.76409 0
M  V30 333 H 32.6532 3.49742 3.3587 0
M  V30 334 N 33.9963 -1.19345 1.0293 0
M  V30 335 C 35.2423 -1.89318 0.727083 0
M  V30 336 C 35.5753 -1.79446 -0.742483 0
M  V30 337 O 34.8503 -1.1871 -1.54072 0
M  V30 338 C 35.1333 -3.40238 1.17942 0
M  V30 339 C 34.9863 -3.58979 2.71024 0
M  V30 340 C 36.3053 -4.33479 0.760548 0
M  V30 341 H 33.4243 -0.687475 0.265606 0
M  V30 342 H 36.0663 -1.40477 1.2793 0
M  V30 343 H 34.2163 -3.81964 0.709608 0
M  V30 344 H 35.8883 -3.26421 3.25955 0
M  V30 345 H 34.1313 -3.02018 3.11396 0
M  V30 346 H 34.8023 -4.64823 2.9773 0
M  V30 347 H 37.2783 -3.99469 1.16464 0
M  V30 348 H 36.1543 -5.37664 1.10493 0
M  V30 349 H 36.4153 -4.40813 -0.337063 0
M  V30 350 N 35.4744 -0.807222 -1.35358 0
M  V30 351 C 36.7024 -0.400377 -2.02989 0
M  V30 352 C 37.1174 0.988859 -1.60832 0
M  V30 353 O 36.4744 1.63729 -0.806175 0
M  V30 354 C 36.5254 -0.474867 -3.58368 0
M  V30 355 O 36.2464 -1.80933 -3.98992 0
M  V30 356 C 37.7474 -0.0609112 -4.43258 0
M  V30 357 H 34.9674 -0.162587 -0.651004 0
M  V30 358 H 37.5114 -1.09102 -1.72965 0
M  V30 359 H 35.6664 0.167534 -3.87038 0
M  V30 360 H 36.0804 -1.77256 -4.9364 0
M  V30 361 H 37.5544 -0.164145 -5.51756 0
M  V30 362 H 38.0314 0.993831 -4.27808 0
M  V30 363 H 38.6374 -0.676492 -4.19885 0
M  V30 364 N 36.9525 1.47285 -0.560781 0
M  V30 365 C 38.3685 1.58065 -0.22081 0
M  V30 366 C 38.5685 1.55892 1.27671 0
M  V30 367 O 37.6245 1.46422 2.0571 0
M  V30 368 C 38.9375 2.88418 -0.850625 0
M  V30 369 C 40.4855 3.02009 -0.822184 0
M  V30 370 C 40.9605 4.35066 -1.43113 0
M  V30 371 N 42.4515 4.41711 -1.39448 0
M  V30 372 C 43.1865 5.43237 -1.83525 0
M  V30 373 N 42.6825 6.51555 -2.35474 0
M  V30 374 N 44.4755 5.34304 -1.74574 0
M  V30 375 H 36.6265 1.46941 -1.53369 0
M  V30 376 H 38.8895 0.699558 -0.639783 0
M  V30 377 H 38.5955 2.95755 -1.9032 0
M  V30 378 H 38.4695 3.75612 -0.345773 0
M  V30 379 H 40.8565 2.94266 0.221714 0
M  V30 380 H 40.9375 2.16347 -1.36483 0
M  V30 381 H 40.5815 4.43565 -2.47412 0
M  V30 382 H 40.5115 5.19465 -0.863899 0
M  V30 383 H 43.0025 3.64027 -1.01452 0
M  V30 384 H 43.3155 7.25203 -2.67021 0
M  V30 385 H 41.6605 6.52435 -2.39487 0
M  V30 386 H 44.8515 4.48581 -1.33763 0
M  V30 387 H 45.0245 6.13288 -2.09242 0
M  V30 388 N 38.4306 0.297415 1.54768 0
M  V30 389 C 39.6786 -0.312295 1.99673 0
M  V30 390 C 39.9996 -1.54686 1.18732 0
M  V30 391 O 39.2696 -1.93854 0.282382 0
M  V30 392 H 37.8496 -0.118381 0.73756 0
M  V30 393 H 40.5116 0.407915 1.90583 0
M  V30 394 H 39.6076 -0.586813 3.06534 0
M  V30 395 N 39.9087 -1.5758 0.0250728 0
M  V30 396 C 41.1547 -1.92746 -0.649648 0
M  V30 397 C 41.5097 -0.901588 -1.69968 0
M  V30 398 O 40.8027 0.0829251 -1.9142 0
M  V30 399 C 40.9967 -3.32421 -1.31268 0
M  V30 400 C 40.8257 -4.48499 -0.328394 0
M  V30 401 C 39.5957 -5.05251 0.070284 0
M  V30 402 C 41.7937 -5.12618 0.415665 0
M  V30 403 N 39.7757 -6.04851 1.05016 0
M  V30 404 C 41.1467 -6.0728 1.24943 0
M  V30 405 C 43.2017 -4.95612 0.476803 0
M  V30 406 C 41.9047 -6.86766 2.1388 0
M  V30 407 C 43.9307 -5.75703 1.3535 0
M  V30 408 C 43.2927 -6.69978 2.17504 0
M  V30 409 H 39.3917 -0.753231 -0.210159 0
M  V30 410 H 41.9757 -1.94486 0.0912999 0
M  V30 411 H 40.1467 -3.31508 -2.02379 0
M  V30 412 H 41.8787 -3.54946 -1.94411 0
M  V30 413 H 38.6337 -4.72628 -0.303323 0
M  V30 414 H 39.0577 -6.5934 1.53622 0
M  V30 415 H 43.6997 -4.22554 -0.144105 0
M  V30 416 H 41.4177 -7.59132 2.77027 0
M  V30 417 H 45.0037 -5.64579 1.40504 0
M  V30 418 H 43.8837 -7.30873 2.84244 0
M  V30 419 N 41.3868 0.248026 -1.55636 0
M  V30 420 C 42.3348 1.32683 -1.91045 0
M  V30 421 C 43.3288 1.49883 -0.789401 0
M  V30 422 O 44.5348 1.51371 -0.974007 0
M  V30 423 H 40.9098 0.444272 -0.606734 0
M  V30 424 H 42.8808 1.00085 -2.81115 0
M  V30 425 C 41.6298 2.6755 -2.22064 0
M  V30 426 H 40.9528 2.55114 -3.07826 0
M  V30 427 H 42.3928 3.41912 -2.50743 0
M  V30 428 C 40.8518 3.20556 -1.0366 0
M  V30 429 O 41.3818 4.00695 -0.284016 0
M  V30 430 N 39.5878 2.78568 -0.82753 0
M  V30 431 H 39.1348 2.1351 -1.44123 0
M  V30 432 H 39.0928 3.14378 -0.0369803 0
M  V30 433 N 42.8649 1.48995 0.513639 0
M  V30 434 C 43.8129 1.65199 1.63744 0
M  V30 435 C 44.8069 0.51809 1.61283 0
M  V30 436 O 46.0129 0.697335 1.65943 0
M  V30 437 H 42.3879 0.52069 0.542574 0
M  V30 438 H 44.3589 2.59552 1.47226 0
M  V30 439 C 43.1079 1.72409 3.01945 0
M  V30 440 H 42.4309 2.59029 3.04539 0
M  V30 441 H 43.8709 1.87785 3.80148 0
M  V30 442 C 42.3299 0.46618 3.33659 0
M  V30 443 O 42.8599 -0.413744 3.99564 0
M  V30 444 N 41.0659 0.332931 2.88687 0
M  V30 445 H 40.6129 1.04996 2.35231 0
M  V30 446 H 40.5709 -0.507665 3.10274 0
M  V30 447 N 44.343 -0.763751 1.37857 0
M  V30 448 C 45.592 -1.51789 1.32827 0
M  V30 449 C 45.905 -1.95426 -0.0823719 0
M  V30 450 O 47.111 -2.70298 -0.255172 0
M  V30 451 C 45.567 -2.74133 2.33193 0
M  V30 452 C 45.175 -2.37562 3.79827 0
M  V30 453 C 46.919 -3.52054 2.37188 0
M  V30 454 C 44.826 -3.56456 4.71904 0
M  V30 455 H 43.756 -0.569896 0.493695 0
M  V30 456 H 46.407 -0.835822 1.63359 0
M  V30 457 H 44.789 -3.4427 1.9569 0
M  V30 458 H 45.963 -1.75157 4.26212 0
M  V30 459 H 44.278 -1.72798 3.78853 0
M  V30 460 H 46.875 -4.40437 3.03182 0
M  V30 461 H 47.218 -3.92486 1.38782 0
M  V30 462 H 47.751 -2.88921 2.7344 0
M  V30 463 H 44.49 -3.21099 5.71468 0
M  V30 464 H 44.01 -4.17938 4.30218 0
M  V30 465 H 45.689 -4.23168 4.89426 0
M  V30 466 N 45.8211 -1.22559 -0.990812 0
M  V30 467 C 47.0491 -1.07779 -1.76611 0
M  V30 468 C 47.4641 0.371513 -1.85109 0
M  V30 469 O 46.8211 1.25737 -1.32274 0
M  V30 470 C 46.8721 -1.68512 -3.19822 0
M  V30 471 O 46.5931 -3.07774 -3.1178 0
M  V30 472 C 48.0941 -1.59035 -4.13791 0
M  V30 473 H 45.3141 -0.377729 -0.554583 0
M  V30 474 H 47.8581 -1.62195 -1.24551 0
M  V30 475 H 46.0131 -1.18154 -3.68942 0
M  V30 476 H 46.4271 -3.37062 -4.01858 0
M  V30 477 H 47.9011 -2.0625 -5.1202 0
M  V30 478 H 48.3781 -0.547273 -4.35777 0
M  V30 479 H 48.9841 -2.08709 -3.70568 0
M  V30 480 N 47.2992 1.18797 -1.03562 0
M  V30 481 C 48.5452 1.8893 -0.737113 0
M  V30 482 C 48.8782 1.79837 0.732956 0
M  V30 483 O 48.1532 1.19525 1.5344 0
M  V30 484 C 48.4362 3.39607 -1.19745 0
M  V30 485 C 48.2892 3.57537 -2.72924 0
M  V30 486 C 49.6082 4.33069 -0.783526 0
M  V30 487 H 46.7272 0.686057 -0.269249 0
M  V30 488 H 49.3692 1.39797 -1.28673 0
M  V30 489 H 47.5192 3.81583 -0.729855 0
M  V30 490 H 49.1912 3.24688 -3.27682 0
M  V30 491 H 47.4342 3.00363 -3.12993 0
M  V30 492 H 48.1052 4.63238 -3.00191 0
M  V30 493 H 50.5812 3.98846 -1.18581 0
M  V30 494 H 49.4572 5.3707 -1.13343 0
M  V30 495 H 49.7182 4.40986 0.313681 0
M  V30 496 N 48.7773 0.814389 1.34928 0
M  V30 497 C 49.7073 0.244827 2.32213 0
M  V30 498 C 50.6883 -0.634024 1.57842 0
M  V30 499 O 51.8733 -0.562676 1.8587 0
M  V30 500 C 49.0033 -0.601106 3.42058 0
M  V30 501 C 47.9573 0.179896 4.27622 0
M  V30 502 C 47.2833 -0.788237 5.28858 0
M  V30 503 C 48.5833 1.38329 5.03649 0
M  V30 504 H 50.2773 1.05763 2.80097 0
M  V30 505 H 47.8233 0.510029 1.34665 0
M  V30 506 H 49.7763 -1.00968 4.09125 0
M  V30 507 H 48.5003 -1.44688 2.92802 0
M  V30 508 H 47.1593 0.569739 3.62146 0
M  V30 509 H 46.8073 -1.62973 4.75866 0
M  V30 510 H 46.5073 -0.269942 5.8698 0
M  V30 511 H 48.0313 -1.19485 5.98795 0
M  V30 512 H 49.4453 1.04918 5.63618 0
M  V30 513 H 47.8423 1.83662 5.71304 0
M  V30 514 H 48.9123 2.16592 4.33839 0
M  V30 515 N 50.2554 -1.46986 0.568584 0
M  V30 516 C 51.5324 -1.95592 -0.0174074 0
M  V30 517 C 51.9124 -1.51124 -1.47393 0
M  V30 518 O 51.2604 -0.755329 -2.15655 0
M  V30 519 C 51.4704 -3.48719 0.139913 0
M  V30 520 C 52.8184 -4.246 0.000426376 0
M  V30 521 O 53.8424 -3.56135 0.0680316 0
M  V30 522 O 52.7014 -5.46302 -0.146988 0
M  V30 523 H 49.7954 -0.82498 -0.0577599 0
M  V30 524 H 52.3414 -1.57335 0.635909 0
M  V30 525 H 51.1134 -3.73927 1.15301 0
M  V30 526 H 50.7364 -3.93771 -0.550491 0
M  V30 527 N 51.7335 -0.305618 -1.54608 0
M  V30 528 C 52.6655 0.602161 -2.21149 0
M  V30 529 C 53.6785 1.09394 -1.20569 0
M  V30 530 O 54.8675 1.0106 -1.47136 0
M  V30 531 C 51.9675 1.83692 -2.84799 0
M  V30 532 C 51.1405 1.48686 -4.11353 0
M  V30 533 C 50.1995 2.57725 -4.58764 0
M  V30 534 O 49.2255 2.22623 -5.23858 0
M  V30 535 N 50.4275 3.88346 -4.31471 0
M  V30 536 H 53.1925 0.0324966 -2.99682 0
M  V30 537 H 50.7535 -0.128021 -1.61393 0
M  V30 538 H 52.7455 2.55994 -3.13448 0
M  V30 539 H 51.3155 2.31486 -2.10078 0
M  V30 540 H 50.5355 0.596269 -3.89664 0
M  V30 541 H 51.8235 1.22842 -4.93748 0
M  V30 542 H 51.2215 4.19671 -3.79331 0
M  V30 543 H 49.7785 4.56932 -4.64818 0
M  V30 544 N 53.2116 1.57565 -0.0334293 0
M  V30 545 C 54.4596 1.91598 0.642999 0
M  V30 546 C 54.7806 0.910847 1.7242 0
M  V30 547 O 54.0506 -0.0469931 1.95844 0
M  V30 548 H 52.6306 0.707228 0.240496 0
M  V30 549 H 55.2926 1.94726 -0.0822488 0
M  V30 550 H 54.3886 2.92336 1.09298 0
M  V30 551 N 54.6897 -0.239769 1.55765 0
M  V30 552 C 56.1007 -0.808263 1.68297 0
M  V30 553 C 56.4517 -1.85736 0.632181 0
M  V30 554 O 55.5767 -2.15277 -0.220204 0
M  V30 555 C 56.1717 -1.47284 3.05111 0
M  V30 556 C 54.7307 -1.98895 3.19559 0
M  V30 557 C 53.8777 -0.842575 2.64189 0
M  V30 558 H 56.8287 -0.0154422 1.58692 0
M  V30 559 H 56.8497 -2.34111 2.99954 0
M  V30 560 H 56.3617 -0.709053 3.81568 0
M  V30 561 H 54.4627 -2.78132 2.47938 0
M  V30 562 H 54.5757 -2.18143 4.26556 0
M  V30 563 H 52.9397 -1.24501 2.22197 0
M  V30 564 H 53.7227 -0.0917552 3.43177 0
M  V30 565 N 56.1678 -1.49265 -0.50573 0
M  V30 566 C 57.0978 -1.68495 -1.61653 0
M  V30 567 C 58.0788 -0.53366 -1.61512 0
M  V30 568 O 59.2638 -0.76897 -1.78327 0
M  V30 569 C 56.3938 -1.74709 -3.00157 0
M  V30 570 C 55.3478 -2.89581 -3.15162 0
M  V30 571 C 54.6738 -2.80903 -4.5497 0
M  V30 572 C 55.9738 -4.30578 -2.95634 0
M  V30 573 H 57.6678 -2.61493 -1.45814 0
M  V30 574 H 55.2138 -1.25838 -0.70005 0
M  V30 575 H 57.1668 -1.86748 -3.77761 0
M  V30 576 H 55.8908 -0.783067 -3.17074 0
M  V30 577 H 54.5498 -2.77136 -2.39982 0
M  V30 578 H 54.1978 -1.82419 -4.68756 0
M  V30 579 H 53.8978 -3.57999 -4.65951 0
M  V30 580 H 55.4218 -2.94944 -5.34641 0
M  V30 581 H 56.8358 -4.4373 -3.63011 0
M  V30 582 H 55.2328 -5.0886 -3.18091 0
M  V30 583 H 56.3028 -4.45352 -1.91806 0
M  V30 584 N 57.6459 0.756429 -1.3826 0
M  V30 585 C 58.5939 1.89149 -1.35372 0
M  V30 586 C 59.5879 1.67691 -0.24004 0
M  V30 587 O 60.7939 1.75294 -0.408919 0
M  V30 588 H 57.1689 0.622271 -0.422236 0
M  V30 589 H 59.1399 1.88701 -2.31159 0
M  V30 590 C 57.8889 3.26599 -1.19284 0
M  V30 591 H 57.2119 3.43695 -2.0424 0
M  V30 592 H 58.6519 4.06274 -1.21316 0
M  V30 593 C 57.1109 3.3675 0.100454 0
M  V30 594 O 57.6409 3.86951 1.07851 0
M  V30 595 N 55.8469 2.90179 0.15633 0
M  V30 596 H 55.3939 2.49517 -0.640253 0
M  V30 597 H 55.3519 2.97352 1.02123 0
M  V30 598 N 59.124 1.23083 0.984299 0
M  V30 599 C 60.057 0.951786 2.07404 0
M  V30 600 C 61.035 -0.10848 1.62238 0
M  V30 601 O 62.219 0.0249467 1.88483 0
M  V30 602 C 59.346 0.433142 3.35919 0
M  V30 603 C 58.392 1.47941 4.0002 0
M  V30 604 S 59.225 3.05556 4.39768 0
M  V30 605 C 60.381 2.55351 5.71442 0
M  V30 606 H 60.614 1.87456 2.30754 0
M  V30 607 H 58.147 1.06284 1.11996 0
M  V30 608 H 60.105 0.140506 4.10259 0
M  V30 609 H 58.766 -0.468656 3.10584 0
M  V30 610 H 57.959 1.06658 4.92585 0
M  V30 611 H 57.561 1.7212 3.3204 0
M  V30 612 H 59.853 1.97128 6.48187 0
M  V30 613 H 60.796 3.46441 6.17563 0
M  V30 614 H 61.204 1.96339 5.29255 0
M  V30 615 N 60.6021 -1.18246 1.0419 0
M  V30 616 C 62.0131 -1.69914 0.773698 0
M  V30 617 C 62.3641 -1.83085 -0.705297 0
M  V30 618 O 61.4891 -1.51123 -1.5489 0
M  V30 619 C 62.0841 -3.08619 1.39784 0
M  V30 620 C 60.6431 -3.57494 1.17792 0
M  V30 621 C 59.7901 -2.34013 1.48773 0
M  V30 622 H 62.7411 -1.02904 1.20816 0
M  V30 623 H 62.7621 -3.71958 0.801714 0
M  V30 624 H 62.2741 -2.99001 2.47426 0
M  V30 625 H 60.3751 -3.72406 0.120295 0
M  V30 626 H 60.4881 -4.40852 1.87581 0
M  V30 627 H 58.8521 -2.37986 0.907463 0
M  V30 628 H 59.6351 -2.27013 2.57527 0
M  V30 629 N 62.0802 -0.821533 -1.34494 0
M  V30 630 C 63.3282 -0.408139 -1.97936 0
M  V30 631 C 63.6492 1.03193 -1.65457 0
M  V30 632 O 62.9192 1.71622 -0.944595 0
M  V30 633 H 61.4992 -0.147928 -0.732206 0
M  V30 634 H 64.1612 -1.05067 -1.64155 0
M  V30 635 H 63.2572 -0.52601 -3.07635 0
M  V30 636 N 63.5583 1.46682 -0.576371 0
M  V30 637 C 64.8063 2.02013 -0.0594163 0
M  V30 638 C 65.1273 1.45101 1.30271 0
M  V30 639 O 64.3973 0.633317 1.8538 0
M  V30 640 H 62.9773 0.746759 -0.0189745 0
M  V30 641 H 65.6393 1.79862 -0.750717 0
M  V30 642 H 64.7353 3.12097 0.014345 0
M  V30 643 N 65.0364 0.313813 1.54444 0
M  V30 644 C 66.2614 -0.296681 2.05267 0
M  V30 645 C 66.6864 -1.45757 1.18897 0
M  V30 646 O 66.0444 -1.80239 0.195886 0
M  V30 647 C 66.0924 -0.71831 3.53373 0
M  V30 648 O 65.1964 -1.82175 3.69981 0
M  V30 649 H 64.5374 -0.0554061 0.661684 0
M  V30 650 H 67.0674 0.459387 1.99376 0
M  V30 651 H 67.0774 -1.00364 3.95463 0
M  V30 652 H 65.7524 0.130821 4.15694 0
M  V30 653 H 64.3294 -1.53598 3.39797 0
M  V30 654 N 66.5145 -1.57545 0.0417849 0
M  V30 655 C 67.7425 -1.96624 -0.643928 0
M  V30 656 C 68.1575 -0.918897 -1.64929 0
M  V30 657 O 67.5145 0.0979323 -1.82237 0
M  V30 658 C 67.5655 -3.35781 -1.33914 0
M  V30 659 O 67.2865 -4.365 -0.374048 0
M  V30 660 C 68.7875 -3.89566 -2.1155 0
M  V30 661 H 66.0075 -0.647316 -0.176702 0
M  V30 662 H 68.5515 -2.04229 0.105304 0
M  V30 663 H 66.7065 -3.29357 -2.03968 0
M  V30 664 H 67.1205 -5.17248 -0.869179 0
M  V30 665 H 68.5945 -4.89242 -2.55628 0
M  V30 666 H 69.0715 -3.24488 -2.9598 0
M  V30 667 H 69.6775 -3.99298 -1.46427 0
M  V30 668 N 67.9926 0.231505 -1.5589 0
M  V30 669 C 69.2176 0.978689 -1.82856 0
M  V30 670 C 69.6426 1.77559 -0.620846 0
M  V30 671 O 69.0006 1.76119 0.430305 0
M  V30 672 C 69.0486 1.87997 -3.07716 0
M  V30 673 O 68.1526 2.97393 -2.85712 0
M  V30 674 H 67.4936 0.277663 -0.603158 0
M  V30 675 H 70.0236 0.24783 -2.03093 0
M  V30 676 H 70.0336 2.2917 -3.37558 0
M  V30 677 H 68.7086 1.29417 -3.95252 0
M  V30 678 H 67.2856 2.60238 -2.67078 0
M  V30 679 N 69.4707 1.49531 0.497807 0
M  V30 680 C 70.4207 1.62829 1.59596 0
M  V30 681 C 71.4047 0.483824 1.53453 0
M  V30 682 O 72.5967 0.736937 1.60929 0
M  V30 683 C 69.7257 1.7011 2.98191 0
M  V30 684 C 68.8117 2.90144 3.09317 0
M  V30 685 N 69.2027 4.1418 2.90324 0
M  V30 686 C 67.5007 2.88148 3.40422 0
M  V30 687 C 68.2017 4.94886 3.05717 0
M  V30 688 N 67.1777 4.28314 3.34736 0
M  V30 689 H 70.9797 2.56446 1.4357 0
M  V30 690 H 68.4937 1.46347 0.704001 0
M  V30 691 H 70.4907 1.77735 3.77115 0
M  V30 692 H 69.1507 0.776315 3.15283 0
M  V30 693 H 70.1617 4.44109 2.66436 0
M  V30 694 H 66.8387 2.05061 3.63671 0
M  V30 695 H 68.2287 6.03432 2.95499 0
M  V30 696 N 70.9488 -0.749086 1.3866 0
M  V30 697 C 71.9118 -1.84457 1.36045 0
M  V30 698 C 72.9118 -1.58682 0.260122 0
M  V30 699 O 74.1018 -1.66343 0.517261 0
M  V30 700 C 71.2338 -3.22008 1.11911 0
M  V30 701 H 72.4268 -1.88182 2.33512 0
M  V30 702 H 69.9798 -0.951266 1.24019 0
M  V30 703 H 70.7148 -3.2395 0.150686 0
M  V30 704 H 70.4998 -3.42111 1.91579 0
M  V30 705 H 71.9898 -4.0208 1.12788 0
M  V30 706 N 72.4269 -1.23603 -0.977757 0
M  V30 707 C 73.8379 -1.06424 -1.53398 0
M  V30 708 C 74.1889 0.367578 -1.92726 0
M  V30 709 O 73.3139 1.25465 -1.76316 0
M  V30 710 C 73.9089 -1.92568 -2.78753 0
M  V30 711 C 72.4679 -1.79642 -3.30765 0
M  V30 712 C 71.6149 -1.88111 -2.03739 0
M  V30 713 H 74.5659 -1.37227 -0.797152 0
M  V30 714 H 74.5869 -1.45203 -3.51705 0
M  V30 715 H 74.0989 -2.96771 -2.50098 0
M  V30 716 H 72.1999 -0.782325 -3.64294 0
M  V30 717 H 72.3129 -2.63174 -4.00345 0
M  V30 718 H 70.6769 -1.31723 -2.17994 0
M  V30 719 H 71.4599 -2.93875 -1.77461 0
M  V30 720 N 73.905 1.17692 -1.04816 0
M  V30 721 C 75.153 1.87488 -0.754497 0
M  V30 722 C 75.474 1.81205 0.720407 0
M  V30 723 O 74.744 1.23544 1.52032 0
M  V30 724 H 73.324 0.694101 -0.276102 0
M  V30 725 H 75.986 1.42793 -1.32651 0
M  V30 726 H 75.082 2.93328 -1.06606 0
M  V30 727 N 75.3831 0.828654 1.34056 0
M  V30 728 C 76.3131 0.269443 2.3194 0
M  V30 729 C 77.2941 -0.617247 1.58506 0
M  V30 730 O 78.4791 -0.542931 1.86456 0
M  V30 731 C 75.6091 -0.564793 3.42677 0
M  V30 732 C 74.5631 0.225241 4.27407 0
M  V30 733 C 73.8891 -0.7321 5.29664 0
M  V30 734 C 75.1891 1.43663 5.02154 0
M  V30 735 H 76.8831 1.08728 2.7896 0
M  V30 736 H 74.4291 0.524283 1.34117 0
M  V30 737 H 76.3821 -0.966233 4.10173 0
M  V30 738 H 75.1061 -1.41574 2.9432 0
M  V30 739 H 73.7651 0.608117 3.61521 0
M  V30 740 H 73.4131 -1.57916 4.77568 0
M  V30 741 H 73.1131 -0.20767 5.87233 0
M  V30 742 H 74.6371 -1.13128 6.00029 0
M  V30 743 H 76.0511 1.1089 5.62473 0
M  V30 744 H 74.4481 1.89711 5.69324 0
M  V30 745 H 75.5181 2.21181 4.31517 0
M  V30 746 N 76.8612 -1.46375 0.584142 0
M  V30 747 C 78.1072 -2.02678 0.0703716 0
M  V30 748 C 78.4402 -1.4545 -1.28678 0
M  V30 749 O 77.7152 -0.62014 -1.84349 0
M  V30 750 C 77.9982 -3.60099 0.00614674 0
M  V30 751 C 77.8512 -4.27709 1.3923 0
M  V30 752 C 79.1702 -4.34598 -0.693742 0
M  V30 753 H 76.2892 -0.736504 0.027047 0
M  V30 754 H 78.9312 -1.74501 0.751615 0
M  V30 755 H 77.0812 -3.84236 -0.574009 0
M  V30 756 H 78.7532 -4.14832 2.01773 0
M  V30 757 H 76.9962 -3.87016 1.95962 0
M  V30 758 H 77.6672 -5.36478 1.29982 0
M  V30 759 H 80.1432 -4.15615 -0.200869 0
M  V30 760 H 79.0192 -5.44318 -0.707714 0
M  V30 761 H 79.2802 -4.05759 -1.75533 0
M  V30 762 N 78.3393 -0.321999 -1.54275 0
M  V30 763 C 79.5863 0.281044 -2.0054 0
M  V30 764 C 79.9143 1.52265 -1.21019 0
M  V30 765 O 79.1693 1.93687 -0.279982 0
M  V30 766 C 79.4683 0.661769 -3.5122 0
M  V30 767 C 79.1343 -0.480482 -4.48333 0
M  V30 768 C 77.7963 -0.794005 -4.74604 0
M  V30 769 C 80.1483 -1.24783 -5.06042 0
M  V30 770 C 77.4763 -1.87763 -5.55844 0
M  V30 771 C 79.8283 -2.32153 -5.88462 0
M  V30 772 C 78.4923 -2.64089 -6.13036 0
M  V30 773 H 77.7623 0.102841 -0.733829 0
M  V30 774 H 80.4093 -0.445453 -1.86247 0
M  V30 775 H 78.7143 1.46867 -3.63232 0
M  V30 776 H 80.4113 1.13989 -3.84457 0
M  V30 777 H 77.0013 -0.226039 -4.28004 0
M  V30 778 H 81.1853 -1.01887 -4.85729 0
M  V30 779 H 76.4413 -2.12954 -5.73115 0
M  V30 780 H 80.6153 -2.92057 -6.32199 0
M  V30 781 H 78.2423 -3.48185 -6.75775 0
M  V30 782 N 79.8174 1.5752 -0.0501392 0
M  V30 783 C 80.7494 2.08413 0.95376 0
M  V30 784 C 81.7624 1.01175 1.27544 0
M  V30 785 O 82.9514 1.28744 1.23641 0
M  V30 786 C 80.0514 2.51138 2.27559 0
M  V30 787 C 79.2244 3.817 2.13598 0
M  V30 788 C 78.2834 4.10749 3.28895 0
M  V30 789 O 77.3094 4.80685 3.04845 0
M  V30 790 N 78.5114 3.62579 4.5334 0
M  V30 791 H 81.2764 2.95165 0.519383 0
M  V30 792 H 78.8374 1.61327 0.136127 0
M  V30 793 H 80.8294 2.67648 3.03557 0
M  V30 794 H 79.3994 1.6964 2.62567 0
M  V30 795 H 78.6194 3.74782 1.22197 0
M  V30 796 H 79.9074 4.67201 2.01496 0
M  V30 797 H 79.3054 3.06039 4.75769 0
M  V30 798 H 77.8624 3.84329 5.26436 0
M  V30 799 N 81.2955 -0.223234 1.56011 0
M  V30 800 C 82.5235 -0.964812 1.83027 0
M  V30 801 C 82.9385 -1.78013 0.62904 0
M  V30 802 O 82.2955 -1.78008 -0.402414 0
M  V30 803 C 82.3465 -1.88373 3.08542 0
M  V30 804 O 82.0675 -1.10137 4.2403 0
M  V30 805 C 83.5685 -2.73934 3.48533 0
M  V30 806 H 80.7885 -0.282842 0.608475 0
M  V30 807 H 83.3325 -0.238971 2.03099 0
M  V30 808 H 81.4875 -2.56354 2.9045 0
M  V30 809 H 81.9015 -1.72501 4.95322 0
M  V30 810 H 83.3755 -3.34117 4.39397 0
M  V30 811 H 83.8525 -3.46244 2.70207 0
M  V30 812 H 84.4585 -2.11369 3.69057 0
M  V30 813 N 82.7736 -1.49793 -0.48987 0
M  V30 814 C 83.7216 -1.67783 -1.61095 0
M  V30 815 C 84.7156 -0.543683 -1.60438 0
M  V30 816 O 85.9216 -0.723647 -1.64813 0
M  V30 817 H 82.2966 -0.529255 -0.534222 0
M  V30 818 H 84.2676 -2.61861 -1.43078 0
M  V30 819 C 83.0166 -1.77191 -2.99164 0
M  V30 820 H 82.3396 -2.63841 -3.0038 0
M  V30 821 H 83.7796 -1.93809 -3.77113 0
M  V30 822 C 82.2386 -0.519203 -3.32875 0
M  V30 823 O 82.7686 0.350124 -4.00171 0
M  V30 824 N 80.9746 -0.378816 -2.8812 0
M  V30 825 H 80.5216 -1.08725 -2.33531 0
M  V30 826 H 80.4796 0.458239 -3.11043 0
M  V30 827 N 84.2517 0.741722 -1.39055 0
M  V30 828 C 85.6627 1.31966 -1.32068 0
M  V30 829 C 86.0137 1.96192 0.0180797 0
M  V30 830 O 85.1387 1.95861 0.920196 0
M  V30 831 C 85.7337 2.39954 -2.39181 0
M  V30 832 C 84.2927 2.93438 -2.35735 0
M  V30 833 C 83.4397 1.66936 -2.21422 0
M  V30 834 H 86.3907 0.539721 -1.4924 0
M  V30 835 H 86.4117 3.20182 -2.05581 0
M  V30 836 H 85.9237 1.9318 -3.36605 0
M  V30 837 H 84.0247 3.4451 -1.41929 0
M  V30 838 H 84.1377 3.4701 -3.30335 0
M  V30 839 H 82.5017 1.91016 -1.68478 0
M  V30 840 H 83.2847 1.22224 -3.20806 0
M  V30 841 N 85.7298 1.2412 0.971189 0
M  V30 842 C 86.9548 1.10667 1.75407 0
M  V30 843 C 87.3798 -0.337048 1.85056 0
M  V30 844 O 86.7378 -1.24396 1.31892 0
M  V30 845 C 86.7858 1.74726 3.15441 0
M  V30 846 O 85.8898 1.01566 3.99697 0
M  V30 847 H 85.2308 0.387341 0.539317 0
M  V30 848 H 87.7608 1.64358 1.2185 0
M  V30 849 H 87.7708 1.80341 3.6598 0
M  V30 850 H 86.4458 2.79773 3.07734 0
M  V30 851 H 85.0228 1.03713 3.58187 0
M  V30 852 N 87.2079 -1.17134 1.05439 0
M  V30 853 C 88.1549 -2.21235 0.657539 0
M  V30 854 C 89.1249 -1.62551 -0.341543 0
M  V30 855 O 90.3099 -1.89379 -0.232393 0
M  V30 856 C 87.4499 -3.45076 0.0410575 0
M  V30 857 C 86.5629 -4.18042 1.08927 0
M  V30 858 C 85.6979 -5.29376 0.439848 0
M  V30 859 C 84.7369 -5.94132 1.4722 0
M  V30 860 N 83.8739 -6.96975 0.846756 0
M  V30 861 H 88.7139 -2.54534 1.54972 0
M  V30 862 H 86.2509 -1.25028 0.775006 0
M  V30 863 H 88.2089 -4.15862 -0.33383 0
M  V30 864 H 86.8389 -3.12353 -0.814568 0
M  V30 865 H 85.8909 -3.45945 1.58196 0
M  V30 866 H 87.2029 -4.62306 1.87282 0
M  V30 867 H 86.3569 -6.06699 0.0115125 0
M  V30 868 H 85.0959 -4.86251 -0.375656 0
M  V30 869 H 84.1009 -5.15538 1.91052 0
M  V30 870 H 85.3259 -6.39337 2.28965 0
M  V30 871 H 83.2719 -6.5598 0.0518075 0
M  V30 872 H 83.1889 -7.39565 1.5678 0
M  V30 873 H 84.4569 -7.78239 0.443277 0
M  V30 874 N 88.686 -0.835752 -1.33615 0
M  V30 875 C 89.914 -0.443344 -2.02094 0
M  V30 876 C 90.329 0.954522 -1.62894 0
M  V30 877 O 89.686 1.61982 -0.840723 0
M  V30 878 C 89.737 -0.550775 -3.5728 0
M  V30 879 O 89.458 -1.89356 -3.95065 0
M  V30 880 C 90.959 -0.154919 -4.43029 0
M  V30 881 H 88.179 -0.176359 -0.647409 0
M  V30 882 H 90.723 -1.12746 -1.70612 0
M  V30 883 H 88.878 0.0853997 -3.87306 0
M  V30 884 H 89.292 -1.87687 -4.89769 0
M  V30 885 H 90.766 -0.281144 -5.51284 0
M  V30 886 H 91.243 0.902863 -4.2982 0
M  V30 887 H 91.849 -0.765404 -4.18356 0
M  V30 888 N 90.1641 1.46063 -0.591896 0
M  V30 889 C 91.0971 2.27452 0.184617 0
M  V30 890 C 92.0751 1.36188 0.888351 0
M  V30 891 O 93.2591 1.65606 0.90039 0
M  V30 892 C 90.3861 3.14162 1.26571 0
M  V30 893 C 89.4321 4.21255 0.666814 0
M  V30 894 S 90.2651 5.33034 -0.513345 0
M  V30 895 C 91.4211 6.23311 0.56872 0
M  V30 896 H 91.6541 2.92963 -0.505939 0
M  V30 897 H 89.1871 1.49676 -0.379014 0
M  V30 898 H 91.1451 3.6468 1.88463 0
M  V30 899 H 89.8061 2.47946 1.92826 0
M  V30 900 H 88.9991 4.81788 1.47974 0
M  V30 901 H 88.6011 3.73797 0.123359 0
M  V30 902 H 90.8931 6.61758 1.45198 0
M  V30 903 H 91.8361 7.081 -7.23824e-05 0
M  V30 904 H 92.2441 5.57646 0.876996 0
M  V30 905 N 91.6422 0.330177 1.54103 0
M  V30 906 C 92.6052 -0.520144 2.2322 0
M  V30 907 C 93.6052 -1.03828 1.22786 0
M  V30 908 O 94.7952 -0.929652 1.4732 0
M  V30 909 C 91.9272 -1.72317 2.94142 0
M  V30 910 H 93.1202 0.0841605 2.99782 0
M  V30 911 H 90.6732 0.0813433 1.56088 0
M  V30 912 H 91.4082 -2.36653 2.21734 0
M  V30 913 H 91.1932 -1.35898 3.67796 0
M  V30 914 H 92.6832 -2.3266 3.46784 0
M  V30 915 N 93.1203 -1.57491 0.0584922 0
M  V30 916 C 94.3453 -1.97711 -0.62652 0
M  V30 917 C 94.7703 -0.936132 -1.63151 0
M  V30 918 O 94.1283 0.099811 -1.81025 0
M  V30 919 C 94.1763 -3.36989 -1.28338 0
M  V30 920 O 93.2803 -3.35433 -2.39913 0
M  V30 921 H 92.6213 -0.643868 -0.162266 0
M  V30 922 H 95.1513 -2.04193 0.129064 0
M  V30 923 H 95.1613 -3.73879 -1.63335 0
M  V30 924 H 93.8363 -4.12289 -0.546889 0
M  V30 925 H 92.4133 -3.10298 -2.06809 0
M  V30 926 N 94.5984 0.214957 -1.56127 0
M  V30 927 C 95.8454 0.938372 -1.79446 0
M  V30 928 C 96.1734 1.8407 -0.628378 0
M  V30 929 O 95.4284 1.91837 0.386925 0
M  V30 930 C 95.7274 1.80314 -3.0858 0
M  V30 931 C 95.3934 1.05349 -4.3842 0
M  V30 932 C 94.0554 0.846435 -4.73697 0
M  V30 933 C 96.4074 0.524588 -5.18553 0
M  V30 934 C 93.7354 0.098683 -5.86617 0
M  V30 935 C 96.0874 -0.209853 -6.32252 0
M  V30 936 C 94.7514 -0.428102 -6.66126 0
M  V30 937 H 94.0214 0.343375 -0.656639 0
M  V30 938 H 96.6684 0.206077 -1.90388 0
M  V30 939 H 94.9734 2.6035 -2.92789 0
M  V30 940 H 96.6704 2.36513 -3.23825 0
M  V30 941 H 93.2604 1.22486 -4.10725 0
M  V30 942 H 97.4444 0.672008 -4.91729 0
M  V30 943 H 92.7004 -0.0805753 -6.11347 0
M  V30 944 H 96.8744 -0.627157 -6.9357 0
M  V30 945 H 94.5014 -1.00944 -7.53468 0
M  V30 946 N 96.0765 1.50051 0.48192 0
M  V30 947 C 97.0395 1.67584 1.5636 0
M  V30 948 C 98.0395 0.546894 1.51214 0
M  V30 949 O 99.2295 0.813725 1.54026 0
M  V30 950 C 96.3615 1.691 2.96003 0
M  V30 951 H 97.5545 2.64078 1.42136 0
M  V30 952 H 95.1075 1.39369 0.707533 0
M  V30 953 H 95.8425 0.742589 3.15684 0
M  V30 954 H 95.6275 2.51105 3.01146 0
M  V30 955 H 97.1175 1.84656 3.74556 0
M  V30 956 N 97.5546 -0.734337 1.39446 0
M  V30 957 C 98.5016 -1.84835 1.38219 0
M  V30 958 C 99.4716 -1.64331 0.24179 0
M  V30 959 O 100.657 -1.85728 0.437002 0
M  V30 960 C 97.7966 -3.22355 1.23212 0
M  V30 961 C 96.9096 -3.5456 2.46801 0
M  V30 962 C 96.0446 -4.81485 2.24377 0
M  V30 963 C 95.0836 -5.06536 3.43639 0
M  V30 964 N 94.2206 -6.24665 3.20528 0
M  V30 965 H 99.0606 -1.85219 2.33448 0
M  V30 966 H 96.5976 -0.905039 1.15963 0
M  V30 967 H 98.5556 -4.0174 1.12522 0
M  V30 968 H 97.1856 -3.21248 0.316121 0
M  V30 969 H 96.2376 -2.69872 2.68092 0
M  V30 970 H 97.5496 -3.6899 3.3563 0
M  V30 971 H 96.7036 -5.68852 2.10933 0
M  V30 972 H 95.4426 -4.6923 1.32944 0
M  V30 973 H 94.4476 -4.17632 3.5758 0
M  V30 974 H 95.6726 -5.20676 4.35974 0
M  V30 975 H 93.6186 -6.13696 2.3176 0
M  V30 976 H 93.5356 -6.39685 4.02913 0
M  V30 977 H 94.8036 -7.14868 3.10779 0
M  V30 978 N 99.0327 -1.24633 -0.964593 0
M  V30 979 C 100.263 -1.11339 -1.74032 0
M  V30 980 C 100.671 0.336593 -1.86182 0
M  V30 981 O 100.014 1.24389 -1.35178 0
M  V30 982 C 100.076 -1.68284 -3.1768 0
M  V30 983 C 99.7397 -3.17196 -3.28992 0
M  V30 984 C 100.737 -4.14308 -3.14078 0
M  V30 985 C 98.4217 -3.57215 -3.53133 0
M  V30 986 C 100.416 -5.4942 -3.23135 0
M  V30 987 C 98.1027 -4.92468 -3.61827 0
M  V30 988 C 99.1007 -5.8838 -3.46841 0
M  V30 989 O 98.7887 -7.21173 -3.55197 0
M  V30 990 H 98.5207 -0.389551 -0.552472 0
M  V30 991 H 101.075 -1.65282 -1.21946 0
M  V30 992 H 99.3047 -1.08777 -3.71085 0
M  V30 993 H 100.994 -1.50234 -3.77074 0
M  V30 994 H 101.76 -3.84731 -2.95308 0
M  V30 995 H 97.6387 -2.83063 -3.63863 0
M  V30 996 H 101.183 -6.24263 -3.11355 0
M  V30 997 H 97.0797 -5.21714 -3.80111 0
M  V30 998 H 97.8477 -7.29135 -3.71892 0
M  V30 999 N 100.511 1.16574 -1.06058 0
M  V30 1000 C 101.739 1.90952 -0.796552 0
M  V30 1001 C 102.154 1.77302 0.648808 0
M  V30 1002 O 101.511 1.11605 1.44397 0
M  V30 1003 C 101.562 3.41736 -1.17894 0
M  V30 1004 O 101.283 3.54975 -2.56758 0
M  V30 1005 C 102.784 4.33169 -0.942308 0
M  V30 1006 H 100.004 0.605594 -0.288959 0
M  V30 1007 H 102.548 1.47777 -1.41358 0
M  V30 1008 H 100.703 3.82623 -0.606491 0
M  V30 1009 H 101.117 4.4846 -2.72 0
M  V30 1010 H 102.591 5.37439 -1.25952 0
M  V30 1011 H 103.068 4.3903 0.122078 0
M  V30 1012 H 103.674 3.98007 -1.49902 0
M  V30 1013 N 101.989 0.842826 1.3317 0
M  V30 1014 C 103.235 0.441099 1.97945 0
M  V30 1015 C 103.568 -0.998024 1.66593 0
M  V30 1016 O 102.843 -1.69839 0.947898 0
M  V30 1017 C 103.126 0.666841 3.53872 0
M  V30 1018 C 102.979 2.15352 3.94897 0
M  V30 1019 C 104.298 0.115544 4.39948 0
M  V30 1020 H 101.417 0.161739 0.719034 0
M  V30 1021 H 104.059 1.05907 1.57746 0
M  V30 1022 H 102.209 0.140828 3.88245 0
M  V30 1023 H 103.881 2.7447 3.70761 0
M  V30 1024 H 102.124 2.63653 3.44484 0
M  V30 1025 H 102.795 2.26221 5.03516 0
M  V30 1026 H 105.271 0.565213 4.12243 0
M  V30 1027 H 104.147 0.303152 5.48062 0
M  V30 1028 H 104.408 -0.980935 4.3108 0
M  V30 1029 N 103.467 -1.45747 0.599634 0
M  V30 1030 C 104.377 -2.34262 -0.125888 0
M  V30 1031 C 105.393 -1.50768 -0.868625 0
M  V30 1032 O 106.569 -1.83592 -0.828003 0
M  V30 1033 C 103.634 -3.28252 -1.11587 0
M  V30 1034 C 102.695 -4.27651 -0.375956 0
M  V30 1035 C 101.928 -5.1715 -1.31877 0
M  V30 1036 O 102.151 -5.09916 -2.55621 0
M  V30 1037 O 101.085 -5.96286 -0.820157 0
M  V30 1038 H 104.911 -2.97688 0.601315 0
M  V30 1039 H 102.496 -1.44999 0.359934 0
M  V30 1040 H 104.378 -3.86191 -1.68626 0
M  V30 1041 H 103.053 -2.67401 -1.82424 0
M  V30 1042 H 101.96 -3.7335 0.236698 0
M  V30 1043 H 103.293 -4.91334 0.29177 0
M  V30 1044 N 104.945 -0.338344 -1.53925 0
M  V30 1045 C 105.892 0.520845 -2.24846 0
M  V30 1046 C 106.862 1.09976 -1.24477 0
M  V30 1047 O 108.047 1.13735 -1.53196 0
M  V30 1048 C 105.187 1.6685 -3.02084 0
M  V30 1049 C 104.3 1.11739 -4.17299 0
M  V30 1050 C 103.435 2.23193 -4.82036 0
M  V30 1051 C 102.474 1.65407 -5.89328 0
M  V30 1052 N 101.611 2.70582 -6.47866 0
M  V30 1053 H 106.451 -0.0904881 -2.97863 0
M  V30 1054 H 103.988 -0.0564282 -1.46992 0
M  V30 1055 H 105.946 2.34407 -3.45122 0
M  V30 1056 H 104.576 2.2509 -2.31375 0
M  V30 1057 H 103.628 0.332919 -3.7894 0
M  V30 1058 H 104.94 0.654677 -4.94485 0
M  V30 1059 H 104.094 2.98626 -5.28117 0
M  V30 1060 H 102.833 2.72807 -4.04262 0
M  V30 1061 H 101.838 0.884779 -5.42634 0
M  V30 1062 H 103.063 1.16652 -6.69006 0
M  V30 1063 H 101.009 3.1946 -5.72959 0
M  V30 1064 H 100.926 2.28917 -7.20509 0
M  V30 1065 H 102.194 3.45799 -6.98601 0
M  V30 1066 N 106.423 1.57458 -0.0668435 0
M  V30 1067 C 107.353 2.15468 0.899764 0
M  V30 1068 C 108.334 1.08042 1.31381 0
M  V30 1069 O 109.519 1.36054 1.38574 0
M  V30 1070 C 106.649 2.71232 2.16911 0
M  V30 1071 C 105.603 3.83781 1.89463 0
M  V30 1072 C 104.929 4.26127 3.22986 0
M  V30 1073 C 106.229 5.08238 1.20381 0
M  V30 1074 H 107.923 2.96488 0.416529 0
M  V30 1075 H 105.469 1.4262 0.198908 0
M  V30 1076 H 107.422 3.10458 2.84945 0
M  V30 1077 H 106.146 1.87426 2.67468 0
M  V30 1078 H 104.805 3.45051 1.23836 0
M  V30 1079 H 104.453 3.39249 3.71374 0
M  V30 1080 H 104.153 5.01993 3.05413 0
M  V30 1081 H 105.677 4.67966 3.92225 0
M  V30 1082 H 107.091 5.44811 1.78475 0
M  V30 1083 H 105.488 5.89349 1.13083 0
M  V30 1084 H 106.558 4.84558 0.182153 0
M  V30 1085 N 107.901 -0.206675 1.56239 0
M  V30 1086 C 108.831 -1.25909 1.96645 0
M  V30 1087 C 109.812 -1.48097 0.836734 0
M  V30 1088 O 110.997 -1.6003 1.10019 0
M  V30 1089 C 108.127 -2.6058 2.29599 0
M  V30 1090 C 107.081 -2.53024 3.452 0
M  V30 1091 C 106.407 -3.91861 3.63798 0
M  V30 1092 C 107.707 -2.06524 4.79734 0
M  V30 1093 H 109.401 -0.923369 2.84806 0
M  V30 1094 H 106.947 -0.442735 1.37025 0
M  V30 1095 H 108.9 -3.34375 2.56459 0
M  V30 1096 H 107.624 -2.95869 1.38307 0
M  V30 1097 H 106.283 -1.81684 3.18412 0
M  V30 1098 H 105.931 -4.24483 2.69857 0
M  V30 1099 H 105.631 -3.87683 4.4156 0
M  V30 1100 H 107.155 -4.67296 3.93022 0
M  V30 1101 H 108.569 -2.70072 5.05702 0
M  V30 1102 H 106.966 -2.13374 5.60885 0
M  V30 1103 H 108.036 -1.01802 4.74093 0
M  V30 1104 N 109.379 -1.50304 -0.473955 0
M  V30 1105 C 110.604 -1.65175 -1.25427 0
M  V30 1106 C 111.029 -0.333673 -1.85117 0
M  V30 1107 O 110.387 0.702114 -1.67153 0
M  V30 1108 C 110.435 -2.74295 -2.34082 0
M  V30 1109 O 109.539 -2.35349 -3.38651 0
M  V30 1110 H 108.88 -0.551944 -0.369126 0
M  V30 1111 H 111.41 -1.96662 -0.564364 0
M  V30 1112 H 111.42 -2.97285 -2.79438 0
M  V30 1113 H 110.095 -3.69959 -1.90008 0
M  V30 1114 H 108.672 -2.22794 -2.99027 0
M  V30 1115 N 110.857 0.726932 -1.39834 0
M  V30 1116 C 111.787 1.85405 -1.41941 0
M  V30 1117 C 112.768 1.67751 -0.281728 0
M  V30 1118 O 113.953 1.8795 -0.488717 0
M  V30 1119 C 111.083 3.23243 -1.2701 0
M  V30 1120 C 110.037 3.55549 -2.38262 0
M  V30 1121 C 109.363 4.9241 -2.08415 0
M  V30 1122 C 110.663 3.577 -3.80589 0
M  V30 1123 H 112.357 1.83899 -2.36266 0
M  V30 1124 H 109.903 0.883349 -1.13723 0
M  V30 1125 H 111.856 4.01775 -1.27103 0
M  V30 1126 H 110.58 3.25296 -0.291564 0
M  V30 1127 H 109.239 2.79351 -2.37399 0
M  V30 1128 H 108.887 4.91052 -1.0898 0
M  V30 1129 H 108.587 5.14992 -2.82943 0
M  V30 1130 H 110.111 5.73289 -2.10171 0
M  V30 1131 H 111.525 4.26293 -3.83337 0
M  V30 1132 H 109.922 3.91804 -4.54543 0
M  V30 1133 H 110.992 2.57328 -4.10987 0
M  V30 1134 N 112.336 1.25143 0.95797 0
M  V30 1135 C 113.564 1.12424 1.73691 0
M  V30 1136 C 113.979 -0.322304 1.86029 0
M  V30 1137 O 113.336 -1.22186 1.35561 0
M  V30 1138 C 113.387 1.76933 3.15241 0
M  V30 1139 O 113.108 3.15932 3.03511 0
M  V30 1140 C 114.609 1.6995 4.09429 0
M  V30 1141 H 111.829 0.3923 0.544373 0
M  V30 1142 H 114.373 1.6544 1.20207 0
M  V30 1143 H 112.528 1.27895 3.6568 0
M  V30 1144 H 112.942 3.47598 3.9278 0
M  V30 1145 H 114.416 2.19753 5.06372 0
M  V30 1146 H 114.893 0.662619 4.34173 0
M  V30 1147 H 115.499 2.18461 3.64904 0
M  V30 1148 N 113.814 -1.1601 1.06675 0
M  V30 1149 C 114.724 -2.24156 0.692179 0
M  V30 1150 C 115.74 -1.71507 -0.293513 0
M  V30 1151 O 116.916 -2.009 -0.141861 0
M  V30 1152 C 113.981 -3.46587 0.0884131 0
M  V30 1153 C 113.042 -4.14257 1.12646 0
M  V30 1154 C 112.275 -5.30844 0.551416 0
M  V30 1155 O 112.498 -5.66858 -0.634656 0
M  V30 1156 O 111.432 -5.87848 1.29298 0
M  V30 1157 H 115.258 -2.58513 1.59388 0
M  V30 1158 H 112.843 -1.23599 0.83926 0
M  V30 1159 H 114.725 -4.20679 -0.246361 0
M  V30 1160 H 113.4 -3.13994 -0.786712 0
M  V30 1161 H 112.307 -3.42118 1.51348 0
M  V30 1162 H 113.64 -4.50914 1.97325 0
M  V30 1163 N 115.292 -0.849877 -1.32721 0
M  V30 1164 C 116.569 -0.372405 -1.92022 0
M  V30 1165 C 116.949 1.1435 -1.77447 0
M  V30 1166 O 116.297 1.96296 -1.16962 0
M  V30 1167 C 116.507 -0.831482 -3.3895 0
M  V30 1168 C 117.855 -0.845882 -4.16089 0
M  V30 1169 O 118.879 -0.775806 -3.47649 0
M  V30 1170 O 117.738 -0.943753 -5.38289 0
M  V30 1171 H 114.832 -0.107667 -0.819961 0
M  V30 1172 H 117.378 -0.93646 -1.41522 0
M  V30 1173 H 116.15 -1.87448 -3.4348 0
M  V30 1174 H 115.773 -0.24461 -3.96847 0
M  V30 1175 N 116.77 1.45427 -0.607355 0
M  V30 1176 C 118.018 2.01841 -0.102253 0
M  V30 1177 C 118.339 1.47832 1.27164 0
M  V30 1178 O 117.609 0.672497 1.83995 0
M  V30 1179 H 116.189 0.746188 -0.0348101 0
M  V30 1180 H 118.851 1.78229 -0.7887 0
M  V30 1181 H 117.947 3.12057 -0.0518585 0
M  V30 1182 N 118.248 0.346503 1.53744 0
M  V30 1183 C 119.494 -0.249473 2.0126 0
M  V30 1184 C 119.827 -1.49965 1.23386 0
M  V30 1185 O 119.102 -1.91811 0.32229 0
M  V30 1186 C 119.385 -0.560643 3.55709 0
M  V30 1187 C 119.238 0.701836 4.44291 0
M  V30 1188 C 120.557 -1.36905 4.18264 0
M  V30 1189 H 117.676 -0.0891987 0.731582 0
M  V30 1190 H 120.318 0.467624 1.84156 0
M  V30 1191 H 118.468 -1.17156 3.70414 0
M  V30 1192 H 120.14 1.33974 4.41417 0
M  V30 1193 H 118.383 1.32612 4.13033 0
M  V30 1194 H 119.054 0.43933 5.50249 0
M  V30 1195 H 121.53 -0.852448 4.07275 0
M  V30 1196 H 120.406 -1.55553 5.26398 0
M  V30 1197 H 120.667 -2.37203 3.73078 0
M  V30 1198 N 119.726 -1.57421 0.075193 0
M  V30 1199 C 120.951 -1.98364 -0.605515 0
M  V30 1200 C 121.376 -0.953383 -1.62149 0
M  V30 1201 O 120.734 0.0806053 -1.81121 0
M  V30 1202 C 120.782 -3.38332 -1.24756 0
M  V30 1203 O 119.886 -3.37959 -2.36342 0
M  V30 1204 H 119.227 -0.645553 -0.155428 0
M  V30 1205 H 121.757 -2.04044 0.150714 0
M  V30 1206 H 121.767 -3.75591 -1.5936 0
M  V30 1207 H 120.442 -4.12846 -0.503129 0
M  V30 1208 H 119.019 -3.12474 -2.03506 0
M  V30 1209 N 121.204 0.198386 -1.56346 0
M  V30 1210 C 122.444 0.92609 -1.82217 0
M  V30 1211 C 122.808 1.80584 -0.652195 0
M  V30 1212 O 124.009 2.56907 -0.790716 0
M  V30 1213 C 122.28 1.72354 -3.13096 0
M  V30 1214 S 123.839 2.50371 -3.6036 0
M  V30 1215 H 120.657 0.310677 -0.639532 0
M  V30 1216 H 123.259 0.189755 -1.94577 0
M  V30 1217 H 121.963 1.0678 -3.96265 0
M  V30 1218 H 121.494 2.50175 -3.03605 0
M  V30 1219 H 123.509 3.74488 -3.25535 0
M  V30 1220 N 122.682 1.50554 0.465978 0
M  V30 1221 C 123.929 1.61798 1.21768 0
M  V30 1222 C 124.257 0.320696 1.91838 0
M  V30 1223 O 123.512 -0.693724 1.82992 0
M  V30 1224 C 123.811 2.75152 2.28093 0
M  V30 1225 C 123.477 4.15454 1.75239 0
M  V30 1226 C 122.139 4.53628 1.60546 0
M  V30 1227 C 124.491 5.03121 1.36083 0
M  V30 1228 C 121.819 5.77204 1.05128 0
M  V30 1229 C 124.171 6.27249 0.821056 0
M  V30 1230 C 122.835 6.64221 0.660795 0
M  V30 1231 H 122.105 0.592063 0.445582 0
M  V30 1232 H 124.752 1.84503 0.512927 0
M  V30 1233 H 123.057 2.46556 3.04496 0
M  V30 1234 H 124.754 2.81055 2.86023 0
M  V30 1235 H 121.344 3.85341 1.87644 0
M  V30 1236 H 125.528 4.74257 1.46267 0
M  V30 1237 H 120.784 6.0452 0.91462 0
M  V30 1238 H 124.958 6.94537 0.509018 0
M  V30 1239 H 122.585 7.59854 0.229226 0
M  V30 1240 N 124.16 -0.719506 1.40217 0
M  V30 1241 C 125.108 -1.85493 1.40339 0
M  V30 1242 C 126.102 -1.66995 0.284415 0
M  V30 1243 O 127.308 -1.74148 0.455252 0
M  V30 1244 H 123.683 -0.610857 0.438586 0
M  V30 1245 H 125.654 -1.82506 2.36081 0
M  V30 1246 C 124.403 -3.23321 1.27901 0
M  V30 1247 H 123.726 -3.38159 2.1328 0
M  V30 1248 H 125.166 -4.02914 1.32045 0
M  V30 1249 C 123.625 -3.36898 -0.0111355 0
M  V30 1250 O 124.155 -3.89674 -0.975538 0
M  V30 1251 N 122.361 -2.90492 -0.0793393 0
M  V30 1252 H 121.908 -2.47731 0.706183 0
M  V30 1253 H 121.866 -2.99955 -0.942038 0
M  V30 1254 N 125.638 -1.25649 -0.95132 0
M  V30 1255 C 126.57 -1.02112 -2.05197 0
M  V30 1256 C 127.583 0.0150571 -1.62793 0
M  V30 1257 O 128.772 -0.223874 -1.77091 0
M  V30 1258 C 125.872 -0.522361 -3.3485 0
M  V30 1259 C 125.045 -1.62546 -4.06076 0
M  V30 1260 C 124.104 -1.12649 -5.14001 0
M  V30 1261 O 123.13 -1.82156 -5.39266 0
M  V30 1262 N 124.332 0.03047 -5.80492 0
M  V30 1263 H 127.097 -1.96885 -2.25957 0
M  V30 1264 H 124.658 -1.16899 -1.1201 0
M  V30 1265 H 126.65 -0.172961 -4.0433 0
M  V30 1266 H 125.22 0.33151 -3.10837 0
M  V30 1267 H 124.44 -2.14628 -3.30649 0
M  V30 1268 H 125.728 -2.36644 -4.50419 0
M  V30 1269 H 125.126 0.611169 -5.62389 0
M  V30 1270 H 123.683 0.320875 -6.5101 0
M  V30 1271 N 127.117 1.15442 -1.07289 0
M  V30 1272 C 128.363 1.86489 -0.796846 0
M  V30 1273 C 128.696 1.82078 0.675371 0
M  V30 1274 O 127.971 1.24346 1.4956 0
M  V30 1275 C 128.254 3.35626 -1.30489 0
M  V30 1276 C 128.107 3.48673 -2.84161 0
M  V30 1277 C 129.426 4.30357 -0.920907 0
M  V30 1278 H 126.545 0.677144 -0.290939 0
M  V30 1279 H 129.187 1.35633 -1.33056 0
M  V30 1280 H 127.337 3.79068 -0.850883 0
M  V30 1281 H 129.009 3.14099 -3.37846 0
M  V30 1282 H 127.252 2.90253 -3.22391 0
M  V30 1283 H 127.923 4.53453 -3.14777 0
M  V30 1284 H 130.399 3.94871 -1.3121 0
M  V30 1285 H 129.275 5.33193 -1.30372 0
M  V30 1286 H 129.536 4.4176 0.173226 0
M  V30 1287 N 128.595 0.856903 1.32268 0
M  V30 1288 C 129.843 0.460474 1.96784 0
M  V30 1289 C 130.164 -0.987701 1.68135 0
M  V30 1290 O 129.434 -1.69058 0.989765 0
M  V30 1291 H 128.014 0.167289 0.728027 0
M  V30 1292 H 130.676 1.09383 1.61312 0
M  V30 1293 H 129.772 0.60739 3.06133 0
M  V30 1294 N 130.073 -1.45103 0.615059 0
M  V30 1295 C 131.321 -2.01784 0.112955 0
M  V30 1296 C 131.642 -1.48504 -1.26378 0
M  V30 1297 O 130.912 -0.682245 -1.83636 0
M  V30 1298 H 129.492 -0.745993 0.0387668 0
M  V30 1299 H 132.154 -1.77808 0.798141 0
M  V30 1300 H 131.25 -3.12025 0.0684069 0
M  V30 1301 N 131.551 -0.354651 -1.53558 0
M  V30 1302 C 132.481 0.489091 -2.2832 0
M  V30 1303 C 133.462 1.09324 -1.30316 0
M  V30 1304 O 134.647 1.11255 -1.59173 0
M  V30 1305 C 131.777 1.63456 -3.0643 0
M  V30 1306 C 130.731 1.1582 -4.12031 0
M  V30 1307 C 130.057 2.39305 -4.7816 0
M  V30 1308 C 131.357 0.250731 -5.21698 0
M  V30 1309 H 133.051 -0.134614 -2.99097 0
M  V30 1310 H 130.597 -0.0661826 -1.43848 0
M  V30 1311 H 132.55 2.23136 -3.57475 0
M  V30 1312 H 131.274 2.28533 -2.33325 0
M  V30 1313 H 129.933 0.584146 -3.61916 0
M  V30 1314 H 129.581 3.02814 -4.01637 0
M  V30 1315 H 129.281 2.08109 -5.49513 0
M  V30 1316 H 130.805 2.99691 -5.31994 0
M  V30 1317 H 132.219 0.754695 -5.68311 0
M  V30 1318 H 130.616 0.0301468 -6.00092 0
M  V30 1319 H 131.686 -0.710125 -4.79672 0
M  V30 1320 N 133.029 1.57378 -0.0835403 0
M  V30 1321 C 133.939 2.16897 0.894021 0
M  V30 1322 C 134.955 1.13528 1.31861 0
M  V30 1323 O 136.131 1.45848 1.3889 0
M  V30 1324 C 133.196 2.72831 2.13925 0
M  V30 1325 C 132.257 3.91115 1.76997 0
M  V30 1326 C 131.49 4.44371 2.95584 0
M  V30 1327 O 131.713 3.96596 4.09961 0
M  V30 1328 O 130.647 5.35549 2.74719 0
M  V30 1329 H 134.473 3.00814 0.417679 0
M  V30 1330 H 132.058 1.48741 0.140181 0
M  V30 1331 H 133.94 3.0863 2.86924 0
M  V30 1332 H 132.615 1.91967 2.60635 0
M  V30 1333 H 131.522 3.60148 1.01214 0
M  V30 1334 H 132.855 4.73307 1.3506 0
M  V30 1335 N 134.507 -0.190092 1.56449 0
M  V30 1336 C 135.753 -0.911052 1.81184 0
M  V30 1337 C 136.086 -1.82699 0.658396 0
M  V30 1338 O 135.361 -1.91491 -0.340775 0
M  V30 1339 C 135.644 -1.72297 3.16205 0
M  V30 1340 C 135.497 -0.831419 4.42049 0
M  V30 1341 C 136.816 -2.69454 3.47969 0
M  V30 1342 H 133.935 -0.32977 0.659106 0
M  V30 1343 H 136.577 -0.178169 1.89163 0
M  V30 1344 H 134.727 -2.34778 3.09534 0
M  V30 1345 H 136.399 -0.220929 4.60771 0
M  V30 1346 H 134.642 -0.138406 4.33579 0
M  V30 1347 H 135.313 -1.43461 5.33032 0
M  V30 1348 H 137.789 -2.17104 3.54972 0
M  V30 1349 H 136.665 -3.23342 4.43555 0
M  V30 1350 H 136.926 -3.48744 2.71717 0
M  V30 1351 N 135.985 -1.50799 -0.457987 0
M  V30 1352 C 136.948 -1.7005 -1.53674 0
M  V30 1353 C 137.948 -0.570881 -1.50325 0
M  V30 1354 O 139.138 -0.838126 -1.52712 0
M  V30 1355 C 136.27 -1.73788 -2.93276 0
M  V30 1356 H 137.463 -2.66306 -1.37917 0
M  V30 1357 H 135.016 -1.40477 -0.685271 0
M  V30 1358 H 135.751 -0.792717 -3.14462 0
M  V30 1359 H 135.536 -2.55864 -2.97113 0
M  V30 1360 H 137.026 -1.90591 -3.71571 0
M  V30 1361 N 137.463 0.71206 -1.40597 0
M  V30 1362 C 138.691 1.50111 -1.42388 0
M  V30 1363 C 139.106 1.88784 -0.0245395 0
M  V30 1364 O 138.463 1.55681 0.952351 0
M  V30 1365 C 138.514 2.7742 -2.31776 0
M  V30 1366 O 138.235 2.40382 -3.66262 0
M  V30 1367 C 139.736 3.7129 -2.42196 0
M  V30 1368 H 136.956 0.46314 -0.485533 0
M  V30 1369 H 139.5 0.878068 -1.8469 0
M  V30 1370 H 137.655 3.36001 -1.92827 0
M  V30 1371 H 138.069 3.22324 -4.13772 0
M  V30 1372 H 139.543 4.57448 -3.08943 0
M  V30 1373 H 140.02 4.14641 -1.44809 0
M  V30 1374 H 140.626 3.18619 -2.81712 0
M  V30 1375 N 138.941 1.26152 0.944643 0
M  V30 1376 C 140.169 1.14259 1.72489 0
M  V30 1377 C 140.584 -0.302555 1.8636 0
M  V30 1378 O 139.941 -1.20741 1.36849 0
M  V30 1379 C 139.992 1.80266 3.13347 0
M  V30 1380 O 139.713 3.19133 3.00143 0
M  V30 1381 C 141.214 1.74283 4.07603 0
M  V30 1382 H 138.434 0.398051 0.540181 0
M  V30 1383 H 140.978 1.66706 1.18446 0
M  V30 1384 H 139.133 1.31766 3.64303 0
M  V30 1385 H 139.547 3.51744 3.89071 0
M  V30 1386 H 141.021 2.25111 5.04013 0
M  V30 1387 H 141.498 0.708631 4.33446 0
M  V30 1388 H 142.104 2.22319 3.62567 0
M  V30 1389 N 140.419 -1.14872 1.07899 0
M  V30 1390 C 141.329 -2.2341 0.715915 0
M  V30 1391 C 142.345 -1.71808 -0.275306 0
M  V30 1392 O 143.521 -2.01039 -0.120545 0
M  V30 1393 C 140.586 -3.46474 0.125168 0
M  V30 1394 C 139.647 -4.13039 1.17034 0
M  V30 1395 C 138.88 -5.30229 0.607688 0
M  V30 1396 O 139.103 -5.675 -0.574497 0
M  V30 1397 O 138.037 -5.86444 1.35526 0
M  V30 1398 H 141.863 -2.56808 1.62121 0
M  V30 1399 H 139.448 -1.22702 0.852322 0
M  V30 1400 H 141.33 -4.20917 -0.201729 0
M  V30 1401 H 140.005 -3.14811 -0.753364 0
M  V30 1402 H 138.912 -3.40493 1.54968 0
M  V30 1403 H 140.245 -4.48796 2.02097 0
M  V30 1404 N 141.898 -0.863906 -1.31812 0
M  V30 1405 C 143.126 -0.486111 -2.01108 0
M  V30 1406 C 143.541 0.919755 -1.64882 0
M  V30 1407 O 142.898 1.60162 -0.874893 0
M  V30 1408 C 142.949 -0.626435 -3.56031 0
M  V30 1409 O 142.67 -1.97693 -3.90959 0
M  V30 1410 C 144.171 -0.248857 -4.42601 0
M  V30 1411 H 141.391 -0.190052 -0.643523 0
M  V30 1412 H 143.935 -1.1634 -1.68182 0
M  V30 1413 H 142.09 0.00322717 -3.874 0
M  V30 1414 H 142.504 -1.98034 -4.85678 0
M  V30 1415 H 143.978 -0.398016 -5.50563 0
M  V30 1416 H 144.455 0.811489 -4.31638 0
M  V30 1417 H 145.061 -0.853971 -4.16638 0
M  V30 1418 N 143.376 1.44774 -0.622745 0
M  V30 1419 C 144.792 1.56986 -0.287652 0
M  V30 1420 C 144.992 1.61167 1.20944 0
M  V30 1421 O 144.048 1.55015 1.99315 0
M  V30 1422 C 145.361 2.84551 -0.972188 0
M  V30 1423 C 146.909 2.9825 -0.949536 0
M  V30 1424 C 147.384 4.28605 -1.61437 0
M  V30 1425 N 148.875 4.35399 -1.58057 0
M  V30 1426 C 149.61 5.34964 -2.064 0
M  V30 1427 N 149.106 6.40981 -2.62897 0
M  V30 1428 N 150.899 5.26419 -1.97078 0
M  V30 1429 H 143.05 1.40304 -1.59463 0
M  V30 1430 H 145.313 0.671794 -0.668878 0
M  V30 1431 H 145.019 2.87417 -2.02693 0
M  V30 1432 H 144.893 3.73807 -0.504771 0
M  V30 1433 H 147.28 2.94941 0.0967067 0
M  V30 1434 H 147.361 2.10364 -1.45536 0
M  V30 1435 H 147.005 4.32672 -2.66002 0
M  V30 1436 H 146.935 5.15334 -1.08344 0
M  V30 1437 H 149.426 3.59397 -1.16801 0
M  V30 1438 H 149.739 7.13225 -2.97539 0
M  V30 1439 H 148.084 6.4169 -2.66943 0
M  V30 1440 H 151.275 4.42504 -1.52669 0
M  V30 1441 H 151.448 6.03861 -2.35066 0
M  V30 1442 N 144.854 0.36279 1.53368 0
M  V30 1443 C 145.784 -0.476976 2.28576 0
M  V30 1444 C 146.765 -1.08631 1.30894 0
M  V30 1445 O 147.95 -1.10409 1.59761 0
M  V30 1446 C 145.08 -1.61828 3.07293 0
M  V30 1447 C 144.034 -1.13633 4.1264 0
M  V30 1448 C 143.36 -2.36766 4.79423 0
M  V30 1449 C 144.66 -0.223061 5.21823 0
M  V30 1450 H 146.354 0.150474 2.99022 0
M  V30 1451 H 143.9 0.0738103 1.43811 0
M  V30 1452 H 145.853 -2.21237 3.58653 0
M  V30 1453 H 144.577 -2.27292 2.34533 0
M  V30 1454 H 143.236 -0.564945 3.62221 0
M  V30 1455 H 142.884 -3.0068 4.03238 0
M  V30 1456 H 142.584 -2.05192 5.50609 0
M  V30 1457 H 144.108 -2.96865 5.33576 0
M  V30 1458 H 145.522 -0.724545 5.68703 0
M  V30 1459 H 143.919 0.001678 6.001 0
M  V30 1460 H 144.989 0.735553 4.79289 0
M  V30 1461 N 146.332 -1.57332 0.0918853 0
M  V30 1462 C 147.295 -2.12708 -0.85369 0
M  V30 1463 C 148.295 -1.05561 -1.213 0
M  V30 1464 O 149.485 -1.31461 -1.14296 0
M  V30 1465 C 146.617 -2.64503 -2.15061 0
M  V30 1466 H 147.81 -2.97573 -0.3729 0
M  V30 1467 H 145.363 -1.55509 -0.157072 0
M  V30 1468 H 146.098 -1.83149 -2.67632 0
M  V30 1469 H 145.883 -3.4284 -1.90272 0
M  V30 1470 H 147.373 -3.07351 -2.82711 0
M  V30 1471 N 147.81 0.181792 -1.56548 0
M  V30 1472 C 149.087 0.926765 -1.72251 0
M  V30 1473 C 149.467 2.00831 -0.650386 0
M  V30 1474 O 148.815 2.26008 0.336521 0
M  V30 1475 C 149.025 1.50106 -3.1507 0
M  V30 1476 C 150.373 1.97805 -3.75711 0
M  V30 1477 O 151.397 1.59922 -3.18282 0
M  V30 1478 O 150.256 2.67555 -4.76525 0
M  V30 1479 H 147.35 0.435506 -0.703039 0
M  V30 1480 H 149.896 0.170443 -1.68842 0
M  V30 1481 H 148.668 0.72212 -3.84579 0
M  V30 1482 H 148.291 2.32186 -3.22763 0
M  V30 1483 N 149.288 1.51039 0.449983 0
M  V30 1484 C 150.218 1.74379 1.55288 0
M  V30 1485 C 151.199 0.593236 1.5942 0
M  V30 1486 O 152.384 0.834625 1.7535 0
M  V30 1487 C 149.514 1.85728 2.93466 0
M  V30 1488 C 148.468 3.01078 3.04197 0
M  V30 1489 C 147.794 2.97595 4.44231 0
M  V30 1490 C 149.094 4.41254 2.7945 0
M  V30 1491 H 150.788 2.66725 1.36008 0
M  V30 1492 H 148.334 1.2835 0.652864 0
M  V30 1493 H 150.287 2.0064 3.70569 0
M  V30 1494 H 149.011 0.900207 3.13949 0
M  V30 1495 H 147.67 2.85851 2.29531 0
M  V30 1496 H 147.318 1.99691 4.61663 0
M  V30 1497 H 147.018 3.75046 4.52343 0
M  V30 1498 H 148.542 3.14583 5.23326 0
M  V30 1499 H 149.956 4.56897 3.46292 0
M  V30 1500 H 148.353 5.20315 2.98985 0
M  V30 1501 H 149.423 4.52164 1.75144 0
M  V30 1502 N 150.766 -0.704594 1.40972 0
M  V30 1503 C 151.713 -1.81862 1.42109 0
M  V30 1504 C 152.683 -1.63781 0.276593 0
M  V30 1505 O 153.868 -1.84759 0.4763 0
M  V30 1506 C 151.008 -3.19669 1.30022 0
M  V30 1507 C 150.121 -3.49246 2.54267 0
M  V30 1508 C 149.256 -4.76618 2.3454 0
M  V30 1509 C 148.295 -4.99133 3.54306 0
M  V30 1510 N 147.432 -6.17726 3.33706 0
M  V30 1511 H 152.272 -1.80226 2.37324 0
M  V30 1512 H 149.809 -0.880238 1.17857 0
M  V30 1513 H 151.767 -3.99263 1.21018 0
M  V30 1514 H 150.397 -3.20506 0.384192 0
M  V30 1515 H 149.449 -2.64125 2.73756 0
M  V30 1516 H 150.761 -3.61788 3.43381 0
M  V30 1517 H 149.915 -5.64249 2.22952 0
M  V30 1518 H 148.654 -4.66305 1.42867 0
M  V30 1519 H 147.659 -4.09953 3.66359 0
M  V30 1520 H 148.884 -5.11311 4.4692 0
M  V30 1521 H 146.83 -6.08642 2.44725 0
M  V30 1522 H 146.747 -6.30995 4.16391 0
M  V30 1523 H 148.015 -7.08115 3.25873 0
M  V30 1524 N 152.244 -1.26651 -0.937939 0
M  V30 1525 C 153.66 -1.03834 -1.21205 0
M  V30 1526 C 153.86 0.234502 -2.00131 0
M  V30 1527 O 152.916 0.942767 -2.3424 0
M  V30 1528 C 154.229 -2.27167 -1.97017 0
M  V30 1529 C 155.777 -2.32101 -2.09996 0
M  V30 1530 C 156.252 -3.55136 -2.8921 0
M  V30 1531 N 157.743 -3.55632 -2.96783 0
M  V30 1532 C 158.478 -4.475 -3.58512 0
M  V30 1533 N 157.974 -5.4966 -4.21717 0
M  V30 1534 N 159.767 -4.35145 -3.55816 0
M  V30 1535 H 151.918 -2.08398 -0.410391 0
M  V30 1536 H 154.181 -0.916031 -0.244114 0
M  V30 1537 H 153.887 -3.19765 -1.46434 0
M  V30 1538 H 153.761 -2.31672 -2.97671 0
M  V30 1539 H 156.148 -1.40015 -2.59769 0
M  V30 1540 H 156.229 -2.31605 -1.08594 0
M  V30 1541 H 155.873 -4.47553 -2.40123 0
M  V30 1542 H 155.803 -3.5288 -3.90875 0
M  V30 1543 H 158.294 -2.81743 -2.51852 0
M  V30 1544 H 158.607 -6.15943 -4.66727 0
M  V30 1545 H 156.952 -5.53514 -4.20294 0
M  V30 1546 H 160.143 -3.5455 -3.05634 0
M  V30 1547 H 160.316 -5.06934 -4.03636 0
M  V30 1548 N 153.722 1.14298 -1.08507 0
M  V30 1549 C 154.669 2.19414 -0.715965 0
M  V30 1550 C 155.639 1.63399 0.298326 0
M  V30 1551 O 156.824 1.89929 0.182101 0
M  V30 1552 C 153.964 3.44845 -0.132534 0
M  V30 1553 C 153.077 4.15007 -1.19973 0
M  V30 1554 C 152.212 5.28024 -0.580048 0
M  V30 1555 C 151.251 5.9002 -1.62921 0
M  V30 1556 N 150.388 6.94485 -1.03125 0
M  V30 1557 H 155.228 2.50336 -1.61666 0
M  V30 1558 H 152.765 1.2293 -0.807882 0
M  V30 1559 H 154.723 4.16601 0.223454 0
M  V30 1560 H 153.353 3.14403 0.731467 0
M  V30 1561 H 152.405 3.41629 -1.67313 0
M  V30 1562 H 153.717 4.57178 -1.99473 0
M  V30 1563 H 152.871 6.06455 -0.172364 0
M  V30 1564 H 151.61 4.87076 0.246603 0
M  V30 1565 H 150.615 5.10291 -2.04654 0
M  V30 1566 H 151.84 6.33042 -2.45835 0
M  V30 1567 H 149.786 6.55612 -0.225711 0
M  V30 1568 H 149.703 7.35148 -1.76334 0
M  V30 1569 H 150.971 7.7679 -0.649458 0
M  V30 1570 N 155.201 0.870884 1.31352 0
M  V30 1571 C 156.131 0.343096 2.30966 0
M  V30 1572 C 157.112 -0.566507 1.60389 0
M  V30 1573 O 158.297 -0.483336 1.88089 0
M  V30 1574 C 155.427 -0.455487 3.443 0
M  V30 1575 C 154.381 0.361103 4.26474 0
M  V30 1576 C 153.707 -0.563221 5.31725 0
M  V30 1577 C 155.007 1.59566 4.97329 0
M  V30 1578 H 156.701 1.17548 2.75359 0
M  V30 1579 H 154.247 0.566686 1.32381 0
M  V30 1580 H 156.2 -0.83525 4.13039 0
M  V30 1581 H 154.924 -1.32139 2.98675 0
M  V30 1582 H 153.583 0.722825 3.59403 0
M  V30 1583 H 153.231 -1.42643 4.82351 0
M  V30 1584 H 152.931 -0.0207409 5.87596 0
M  V30 1585 H 154.455 -0.939808 6.03324 0
M  V30 1586 H 155.869 1.28728 5.58661 0
M  V30 1587 H 154.266 2.07728 5.63 0
M  V30 1588 H 155.336 2.34798 4.24262 0
M  V30 1589 N 156.679 -1.44442 0.630414 0
M  V30 1590 C 157.927 -2.01653 0.134351 0
M  V30 1591 C 158.248 -1.49836 -1.24796 0
M  V30 1592 O 157.518 -0.701684 -1.82902 0
M  V30 1593 H 156.098 -0.74554 0.0466769 0
M  V30 1594 H 158.76 -1.76952 0.816955 0
M  V30 1595 H 157.856 -3.11935 0.101498 0
M  V30 1596 N 158.157 -0.370918 -1.53173 0
M  V30 1597 C 159.387 0.217389 -2.05453 0
M  V30 1598 C 159.795 1.42568 -1.24382 0
M  V30 1599 O 159.138 1.81571 -0.278839 0
M  V30 1600 C 159.2 0.669827 -3.53205 0
M  V30 1601 C 158.864 -0.4225 -4.55043 0
M  V30 1602 C 159.861 -1.27407 -5.04047 0
M  V30 1603 C 157.546 -0.58427 -4.9889 0
M  V30 1604 C 159.54 -2.27271 -5.95505 0
M  V30 1605 C 157.227 -1.58627 -5.90153 0
M  V30 1606 C 158.225 -2.42892 -6.38351 0
M  V30 1607 O 157.913 -3.41382 -7.27814 0
M  V30 1608 H 157.645 0.0408171 -0.674767 0
M  V30 1609 H 160.199 -0.5292 -1.98466 0
M  V30 1610 H 158.429 1.4681 -3.57748 0
M  V30 1611 H 160.118 1.18173 -3.88317 0
M  V30 1612 H 160.884 -1.16031 -4.70916 0
M  V30 1613 H 156.763 0.061851 -4.60959 0
M  V30 1614 H 160.307 -2.93079 -6.33049 0
M  V30 1615 H 156.204 -1.70048 -6.22699 0
M  V30 1616 H 156.972 -3.37173 -7.45826 0
M  V30 1617 N 159.635 1.57281 -0.100228 0
M  V30 1618 C 160.598 2.13158 0.842398 0
M  V30 1619 C 161.598 1.06202 1.20738 0
M  V30 1620 O 162.788 1.32066 1.13597 0
M  V30 1621 C 159.92 2.65639 2.13655 0
M  V30 1622 H 161.113 2.97766 0.357114 0
M  V30 1623 H 158.666 1.5559 0.148823 0
M  V30 1624 H 159.401 1.84566 2.66657 0
M  V30 1625 H 159.186 3.43844 1.88451 0
M  V30 1626 H 160.676 3.08846 2.81077 0
M  V30 1627 N 161.113 -0.173488 1.56642 0
M  V30 1628 C 162.076 -1.19859 1.95362 0
M  V30 1629 C 163.076 -1.37296 0.83704 0
M  V30 1630 O 164.266 -1.34739 1.10413 0
M  V30 1631 C 161.398 -2.56405 2.24654 0
M  V30 1632 H 162.591 -0.867062 2.87092 0
M  V30 1633 H 160.144 -0.415853 1.50666 0
M  V30 1634 H 160.879 -2.94576 1.35631 0
M  V30 1635 H 160.664 -2.45115 3.06041 0
M  V30 1636 H 162.154 -3.30287 2.5554 0
M  V30 1637 N 162.591 -1.51276 -0.441967 0
M  V30 1638 C 163.554 -1.7167 -1.51862 0
M  V30 1639 C 164.554 -0.586793 -1.49711 0
M  V30 1640 O 165.744 -0.854276 -1.51815 0
M  V30 1641 C 162.876 -1.76889 -2.91416 0
M  V30 1642 H 164.069 -2.67754 -1.35084 0
M  V30 1643 H 161.622 -1.41196 -0.670333 0
M  V30 1644 H 162.357 -0.826026 -3.13604 0
M  V30 1645 H 162.142 -2.59001 -2.94382 0
M  V30 1646 H 163.632 -1.94522 -3.69528 0
M  V30 1647 N 164.069 0.697108 -1.41344 0
M  V30 1648 C 165.315 1.45796 -1.41828 0
M  V30 1649 C 165.67 1.92382 -0.0261743 0
M  V30 1650 O 164.963 1.66522 0.947688 0
M  V30 1651 C 165.157 2.68553 -2.35826 0
M  V30 1652 C 164.986 2.33975 -3.84039 0
M  V30 1653 C 163.756 2.24414 -4.52732 0
M  V30 1654 C 165.954 1.97048 -4.75054 0
M  V30 1655 N 163.936 1.82705 -5.86082 0
M  V30 1656 C 165.307 1.66086 -5.9734 0
M  V30 1657 C 167.362 1.83845 -4.62715 0
M  V30 1658 C 166.065 1.23246 -7.08663 0
M  V30 1659 C 168.091 1.4241 -5.73998 0
M  V30 1660 C 167.453 1.12357 -6.95381 0
M  V30 1661 H 163.552 0.530859 -0.574206 0
M  V30 1662 H 166.136 0.806674 -1.77203 0
M  V30 1663 H 164.307 3.31404 -2.02549 0
M  V30 1664 H 166.039 3.35015 -2.2704 0
M  V30 1665 H 162.794 2.4276 -4.0665 0
M  V30 1666 H 163.218 1.64337 -6.56751 0
M  V30 1667 H 167.86 2.05734 -3.69369 0
M  V30 1668 H 165.578 1.00102 -8.01876 0
M  V30 1669 H 169.164 1.32746 -5.66454 0
M  V30 1670 H 168.044 0.807795 -7.80028 0
M  V30 1671 N 165.547 1.27147 0.931209 0
M  V30 1672 C 166.795 1.13055 1.6752 0
M  V30 1673 C 167.116 -0.324791 1.92276 0
M  V30 1674 O 166.386 -1.22775 1.52654 0
M  V30 1675 H 164.966 0.415391 0.620854 0
M  V30 1676 H 167.628 1.59623 1.11833 0
M  V30 1677 H 166.724 1.65694 2.64485 0
M  V30 1678 N 167.025 -1.13721 1.09112 0
M  V30 1679 C 168.274 -1.84275 0.82009 0
M  V30 1680 C 168.587 -1.84253 -0.656509 0
M  V30 1681 O 169.793 -2.50668 -1.04296 0
M  V30 1682 C 168.249 -3.30825 1.41714 0
M  V30 1683 C 167.857 -3.39244 2.92605 0
M  V30 1684 C 169.601 -4.06443 1.22492 0
M  V30 1685 C 167.508 -4.80047 3.45411 0
M  V30 1686 H 166.438 -0.690387 0.30312 0
M  V30 1687 H 169.089 -1.28146 1.31343 0
M  V30 1688 H 167.471 -3.86737 0.851498 0
M  V30 1689 H 168.645 -2.93344 3.55367 0
M  V30 1690 H 166.96 -2.77088 3.10823 0
M  V30 1691 H 169.557 -5.10387 1.59402 0
M  V30 1692 H 169.9 -4.15972 0.165299 0
M  V30 1693 H 170.433 -3.56852 1.75788 0
M  V30 1694 H 167.172 -4.75709 4.50978 0
M  V30 1695 H 166.692 -5.26455 2.87411 0
M  V30 1696 H 168.371 -5.48957 3.42425 0
M  V30 1697 N 168.503 -0.877838 -1.30888 0
M  V30 1698 C 169.413 -0.343096 -2.32078 0
M  V30 1699 C 170.429 0.551022 -1.65045 0
M  V30 1700 O 171.605 0.445854 -1.96403 0
M  V30 1701 C 168.67 0.439905 -3.43898 0
M  V30 1702 C 167.731 -0.483111 -4.26573 0
M  V30 1703 C 166.964 0.262616 -5.33053 0
M  V30 1704 O 167.187 1.48967 -5.50604 0
M  V30 1705 O 166.121 -0.383593 -6.00676 0
M  V30 1706 H 169.947 -1.18203 -2.79753 0
M  V30 1707 H 167.532 -0.64145 -1.34929 0
M  V30 1708 H 169.414 0.883504 -4.12034 0
M  V30 1709 H 168.089 1.25526 -2.98371 0
M  V30 1710 H 166.996 -0.975374 -3.61161 0
M  V30 1711 H 168.329 -1.26427 -4.75686 0
M  V30 1712 N 169.982 1.44106 -0.638065 0
M  V30 1713 C 171.23 2.01579 -0.145043 0
M  V30 1714 C 171.551 1.50496 1.24 0
M  V30 1715 O 170.821 0.711374 1.82527 0
M  V30 1716 H 169.401 0.745282 -0.05063 0
M  V30 1717 H 172.063 1.76516 -0.826327 0
M  V30 1718 H 171.159 3.11877 -0.118039 0
M  V30 1719 N 171.46 0.379036 1.52974 0
M  V30 1720 C 172.876 0.0285448 1.59574 0
M  V30 1721 C 173.076 -1.45542 1.39355 0
M  V30 1722 O 172.132 -2.2187 1.20541 0
M  V30 1723 C 173.445 0.496535 2.96572 0
M  V30 1724 C 174.993 0.451909 3.0972 0
M  V30 1725 C 175.468 0.895924 4.49152 0
M  V30 1726 N 176.959 0.851522 4.55306 0
M  V30 1727 C 177.694 1.16661 5.61407 0
M  V30 1728 N 177.19 1.55166 6.752 0
M  V30 1729 N 178.983 1.08853 5.51459 0
M  V30 1730 H 171.134 1.34525 1.64367 0
M  V30 1731 H 173.397 0.550733 0.771619 0
M  V30 1732 H 173.103 1.53258 3.16552 0
M  V30 1733 H 172.977 -0.109802 3.7704 0
M  V30 1734 H 175.364 -0.575029 2.89443 0
M  V30 1735 H 175.445 1.09392 2.3123 0
M  V30 1736 H 175.089 1.92104 4.70168 0
M  V30 1737 H 175.019 0.23103 5.26093 0
M  V30 1738 H 177.51 0.568038 3.73606 0
M  V30 1739 H 177.823 1.776 7.52116 0
M  V30 1740 H 176.168 1.59044 6.76557 0
M  V30 1741 H 179.359 0.786803 4.6144 0
M  V30 1742 H 179.532 1.33742 6.34048 0
M  V30 1743 N 172.938 -1.57226 0.108567 0
M  V30 1744 C 173.868 -2.17778 -0.84232 0
M  V30 1745 C 174.849 -1.11487 -1.2847 0
M  V30 1746 O 176.034 -1.39681 -1.34918 0
M  V30 1747 C 173.164 -2.76888 -2.09644 0
M  V30 1748 C 172.118 -3.88669 -1.79221 0
M  V30 1749 C 171.444 -4.34541 -3.11574 0
M  V30 1750 C 172.744 -5.11251 -1.06864 0
M  V30 1751 H 174.438 -2.97489 -0.337774 0
M  V30 1752 H 171.984 -1.43097 -0.161025 0
M  V30 1753 H 173.937 -3.17904 -2.76614 0
M  V30 1754 H 172.661 -1.94451 -2.62405 0
M  V30 1755 H 171.32 -3.48213 -1.14644 0
M  V30 1756 H 170.968 -3.48977 -3.62249 0
M  V30 1757 H 170.668 -5.09914 -2.91996 0
M  V30 1758 H 172.192 -4.782 -3.7968 0
M  V30 1759 H 173.606 -5.49352 -1.63968 0
M  V30 1760 H 172.003 -5.9214 -0.974178 0
M  V30 1761 H 173.073 -4.8487 -0.0536168 0
M  V30 1762 N 174.416 0.165178 -1.56732 0
M  V30 1763 C 175.346 1.20651 -1.99914 0
M  V30 1764 C 176.327 1.45827 -0.875705 0
M  V30 1765 O 177.512 1.57057 -1.14223 0
M  V30 1766 C 174.642 2.54401 -2.36427 0
M  V30 1767 C 173.596 2.43782 -3.51787 0
M  V30 1768 C 172.922 3.82078 -3.7406 0
M  V30 1769 C 174.222 1.93732 -4.85041 0
M  V30 1770 H 175.916 0.847534 -2.87154 0
M  V30 1771 H 173.462 0.40625 -1.38151 0
M  V30 1772 H 175.415 3.27458 -2.65234 0
M  V30 1773 H 174.139 2.92098 -1.46103 0
M  V30 1774 H 172.798 1.73178 -3.23117 0
M  V30 1775 H 172.446 4.17179 -2.81017 0
M  V30 1776 H 172.146 3.7584 -4.51684 0
M  V30 1777 H 173.67 4.56712 -4.05274 0
M  V30 1778 H 175.084 2.56569 -5.12684 0
M  V30 1779 H 173.481 1.98428 -5.66345 0
M  V30 1780 H 174.551 0.891962 -4.76626 0
M  V30 1781 N 175.894 1.51508 0.433938 0
M  V30 1782 C 177.119 1.68443 1.21003 0
M  V30 1783 C 177.544 0.382636 1.84167 0
M  V30 1784 O 176.902 -0.65755 1.68956 0
M  V30 1785 C 176.95 2.80405 2.26727 0
M  V30 1786 O 176.054 2.44245 3.32292 0
M  V30 1787 H 175.395 0.561536 0.354363 0
M  V30 1788 H 177.925 1.9809 0.512024 0
M  V30 1789 H 177.935 3.0459 2.71457 0
M  V30 1790 H 176.61 3.74867 1.80132 0
M  V30 1791 H 175.187 2.30644 2.93015 0
M  V30 1792 N 177.372 -0.689602 1.41712 0
M  V30 1793 C 178.783 -1.26973 1.36875 0
M  V30 1794 C 179.134 -1.96124 0.054748 0
M  V30 1795 O 178.259 -1.99141 -0.84687 0
M  V30 1796 C 178.854 -2.30912 2.47922 0
M  V30 1797 C 177.413 -2.84486 2.46464 0
M  V30 1798 C 176.56 -1.58603 2.27465 0
M  V30 1799 H 179.511 -0.48396 1.51141 0
M  V30 1800 H 179.532 -3.12331 2.17323 0
M  V30 1801 H 179.044 -1.80554 3.43543 0
M  V30 1802 H 177.145 -3.39005 1.54617 0
M  V30 1803 H 177.258 -3.34511 3.42986 0
M  V30 1804 H 175.622 -1.84632 1.75451 0
M  V30 1805 H 176.405 -1.10233 3.25121 0
M  V30 1806 N 178.85 -1.27639 -0.924453 0
M  V30 1807 C 179.813 -1.10681 -2.00705 0
M  V30 1808 C 180.813 -0.0497823 -1.60723 0
M  V30 1809 O 182.003 -0.294654 -1.7169 0
M  V30 1810 C 179.135 -0.687164 -3.33902 0
M  V30 1811 H 180.328 -2.06817 -2.17179 0
M  V30 1812 H 177.881 -1.10473 -1.10569 0
M  V30 1813 H 178.616 0.275439 -3.23128 0
M  V30 1814 H 178.401 -1.45061 -3.6428 0
M  V30 1815 H 179.891 -0.590853 -4.13399 0
M  V30 1816 N 180.328 1.1314 -1.09713 0
M  V30 1817 C 181.238 2.22242 -0.751367 0
M  V30 1818 C 182.254 1.72224 0.247938 0
M  V30 1819 O 183.43 2.01205 0.0885463 0
M  V30 1820 C 180.495 3.46231 -0.180274 0
M  V30 1821 C 179.556 4.11125 -1.2359 0
M  V30 1822 C 178.789 5.29195 -0.691966 0
M  V30 1823 O 179.012 5.68342 0.48414 0
M  V30 1824 O 177.946 5.84214 -1.44838 0
M  V30 1825 H 181.772 2.54197 -1.66186 0
M  V30 1826 H 179.357 1.21331 -0.871735 0
M  V30 1827 H 181.239 4.21185 0.134739 0
M  V30 1828 H 179.914 3.1597 0.703185 0
M  V30 1829 H 178.821 3.37985 -1.60366 0
M  V30 1830 H 180.154 4.45524 -2.09211 0
M  V30 1831 N 181.806 0.884767 1.30421 0
M  V30 1832 C 183.046 0.509806 1.9794 0
M  V30 1833 C 183.41 -0.923736 1.68319 0
M  V30 1834 O 184.611 -1.40481 2.29169 0
M  V30 1835 C 182.882 0.776732 3.48858 0
M  V30 1836 S 184.441 0.503843 4.35898 0
M  V30 1837 H 181.259 0.189699 0.685227 0
M  V30 1838 H 183.861 1.14399 1.58535 0
M  V30 1839 H 182.565 1.81857 3.67908 0
M  V30 1840 H 182.096 0.1301 3.93185 0
M  V30 1841 H 184.111 -0.657625 4.91823 0
M  V30 1842 N 183.284 -1.43765 0.645699 0
M  V30 1843 C 184.216 -2.29027 -0.0890605 0
M  V30 1844 C 185.229 -1.42093 -0.794563 0
M  V30 1845 O 186.418 -1.66104 -0.653575 0
M  V30 1846 C 183.518 -3.18831 -1.14891 0
M  V30 1847 C 182.691 -4.34261 -0.523043 0
M  V30 1848 C 181.75 -5.04994 -1.47878 0
M  V30 1849 O 180.776 -5.6052 -0.990277 0
M  V30 1850 N 181.978 -5.07795 -2.81291 0
M  V30 1851 H 184.743 -2.92727 0.64272 0
M  V30 1852 H 182.304 -1.54373 0.487924 0
M  V30 1853 H 184.296 -3.63015 -1.78892 0
M  V30 1854 H 182.866 -2.56782 -1.78275 0
M  V30 1855 H 182.086 -3.93088 0.295896 0
M  V30 1856 H 183.374 -5.08728 -0.0858147 0
M  V30 1857 H 182.772 -4.64042 -3.23546 0
M  V30 1858 H 181.329 -5.55721 -3.40614 0
M  V30 1859 N 184.763 -0.387143 -1.52771 0
M  V30 1860 C 185.673 0.456442 -2.30117 0
M  V30 1861 C 186.689 1.07342 -1.36944 0
M  V30 1862 O 187.865 1.07971 -1.70013 0
M  V30 1863 C 184.93 1.56957 -3.09136 0
M  V30 1864 C 183.991 0.977916 -4.18014 0
M  V30 1865 C 183.224 2.038 -4.93256 0
M  V30 1866 O 183.447 3.25271 -4.68567 0
M  V30 1867 O 182.381 1.6565 -5.78657 0
M  V30 1868 H 186.207 -0.17359 -3.03203 0
M  V30 1869 H 183.792 -0.150919 -1.48636 0
M  V30 1870 H 185.674 2.21628 -3.58412 0
M  V30 1871 H 184.349 2.18461 -2.38865 0
M  V30 1872 H 183.256 0.294525 -3.72939 0
M  V30 1873 H 184.589 0.407128 -4.90513 0
M  V30 1874 N 186.241 1.57166 -0.116904 0
M  V30 1875 C 187.171 2.18222 0.830759 0
M  V30 1876 C 188.152 1.12167 1.27877 0
M  V30 1877 O 189.337 1.40394 1.34176 0
M  V30 1878 C 186.467 2.77996 2.08172 0
M  V30 1879 C 185.421 3.89614 1.77157 0
M  V30 1880 C 184.747 4.36187 3.09265 0
M  V30 1881 C 186.047 5.1181 1.04151 0
M  V30 1882 H 187.741 2.97664 0.321992 0
M  V30 1883 H 185.287 1.4318 0.153434 0
M  V30 1884 H 187.24 3.19366 2.74924 0
M  V30 1885 H 185.964 1.9584 2.6137 0
M  V30 1886 H 184.623 3.48816 1.12796 0
M  V30 1887 H 184.271 3.50893 3.60393 0
M  V30 1888 H 183.971 5.11455 2.89288 0
M  V30 1889 H 185.495 4.80207 3.77139 0
M  V30 1890 H 186.909 5.50214 1.61052 0
M  V30 1891 H 185.306 5.92648 0.942762 0
M  V30 1892 H 186.376 4.84892 0.0279022 0
M  V30 1893 N 187.719 -0.156864 1.56817 0
M  V30 1894 C 188.949 -0.885031 1.86684 0
M  V30 1895 C 189.357 -1.75696 0.701954 0
M  V30 1896 O 188.7 -1.80569 -0.337732 0
M  V30 1897 C 188.762 -1.80092 3.11138 0
M  V30 1898 C 188.426 -1.10714 4.43386 0
M  V30 1899 C 189.423 -0.465714 5.1781 0
M  V30 1900 C 187.108 -1.09959 4.90117 0
M  V30 1901 C 189.102 0.174002 6.37162 0
M  V30 1902 C 186.789 -0.456055 6.09396 0
M  V30 1903 C 187.787 0.179622 6.82764 0
M  V30 1904 O 187.475 0.812975 7.99779 0
M  V30 1905 H 187.207 -0.261813 0.623242 0
M  V30 1906 H 189.761 -0.157383 2.04796 0
M  V30 1907 H 187.991 -2.56926 2.89009 0
M  V30 1908 H 189.68 -2.40018 3.27332 0
M  V30 1909 H 190.446 -0.463427 4.82781 0
M  V30 1910 H 186.325 -1.58378 4.3294 0
M  V30 1911 H 189.869 0.670765 6.94368 0
M  V30 1912 H 185.766 -0.455975 6.43888 0
M  V30 1913 H 186.534 0.71366 8.15383 0
M  V30 1914 N 189.197 -1.51736 -0.425897 0
M  V30 1915 C 190.608 -1.5732 -1.00536 0
M  V30 1916 C 190.959 -0.403537 -1.92005 0
M  V30 1917 O 190.084 0.478256 -2.11049 0
M  V30 1918 C 190.679 -2.85119 -1.8301 0
M  V30 1919 C 189.238 -2.93236 -2.35987 0
M  V30 1920 C 188.385 -2.52098 -1.15508 0
M  V30 1921 H 191.336 -1.57348 -0.206739 0
M  V30 1922 H 191.357 -2.69526 -2.68581 0
M  V30 1923 H 190.869 -3.7023 -1.16411 0
M  V30 1924 H 188.97 -2.12581 -3.06007 0
M  V30 1925 H 189.083 -3.9713 -2.68001 0
M  V30 1926 H 187.447 -2.05558 -1.50393 0
M  V30 1927 H 188.23 -3.39565 -0.505014 0
M  V30 1928 N 190.675 0.682077 -1.42076 0
M  V30 1929 C 191.605 1.80796 -1.47767 0
M  V30 1930 C 192.586 1.6677 -0.334954 0
M  V30 1931 O 193.771 1.863 -0.548264 0
M  V30 1932 C 190.901 3.19038 -1.37229 0
M  V30 1933 C 189.855 3.47789 -2.49453 0
M  V30 1934 C 189.181 4.8553 -2.23975 0
M  V30 1935 C 190.481 3.45411 -3.91776 0
M  V30 1936 H 192.175 1.7629 -2.41997 0
M  V30 1937 H 189.721 0.846721 -1.16476 0
M  V30 1938 H 191.674 3.97528 -1.39821 0
M  V30 1939 H 190.398 3.24204 -0.394907 0
M  V30 1940 H 189.057 2.71657 -2.46166 0
M  V30 1941 H 188.705 4.87337 -1.24547 0
M  V30 1942 H 188.405 5.0573 -2.99184 0
M  V30 1943 H 189.929 5.66312 -2.28304 0
M  V30 1944 H 191.343 4.13882 -3.96705 0
M  V30 1945 H 189.74 3.77145 -4.66778 0
M  V30 1946 H 190.81 2.44122 -4.18966 0
M  V30 1947 N 192.153 1.28127 0.917671 0
M  V30 1948 C 193.083 1.14248 2.03641 0
M  V30 1949 C 194.064 0.0412748 1.7005 0
M  V30 1950 O 195.249 0.217566 1.92977 0
M  V30 1951 C 192.379 0.799431 3.37974 0
M  V30 1952 C 191.333 1.85497 3.85713 0
M  V30 1953 C 190.659 1.36565 5.16966 0
M  V30 1954 C 191.959 3.26085 4.08002 0
M  V30 1955 H 193.653 2.07835 2.15511 0
M  V30 1956 H 191.199 1.00064 1.03553 0
M  V30 1957 H 193.152 0.689114 4.15727 0
M  V30 1958 H 191.876 -0.172145 3.26146 0
M  V30 1959 H 190.535 1.95437 3.10161 0
M  V30 1960 H 190.183 0.383253 5.01538 0
M  V30 1961 H 189.883 2.07143 5.49878 0
M  V30 1962 H 191.407 1.26848 5.97279 0
M  V30 1963 H 192.821 3.19089 4.76293 0
M  V30 1964 H 191.218 3.94462 4.52238 0
M  V30 1965 H 192.288 3.70394 3.12948 0
M  V30 1966 N 193.631 -1.12557 1.10312 0
M  V30 1967 C 194.908 -1.80363 0.756878 0
M  V30 1968 C 195.288 -1.97067 -0.756824 0
M  V30 1969 O 194.636 -1.54601 -1.68259 0
M  V30 1970 C 194.846 -3.14812 1.50647 0
M  V30 1971 C 196.194 -3.90029 1.67817 0
M  V30 1972 O 197.218 -3.24464 1.46974 0
M  V30 1973 O 196.077 -5.07652 2.02365 0
M  V30 1974 H 193.171 -0.780667 0.272926 0
M  V30 1975 H 195.717 -1.19404 1.20586 0
M  V30 1976 H 194.489 -2.97936 2.53672 0
M  V30 1977 H 194.112 -3.83478 1.05026 0
M  V30 1978 N 195.109 -0.891671 -1.2995 0
M  V30 1979 C 196.357 -0.512486 -1.95494 0
M  V30 1980 C 196.678 0.942776 -1.70695 0
M  V30 1981 O 195.948 1.66374 -1.03424 0
M  V30 1982 H 194.528 -0.186533 -0.723336 0
M  V30 1983 H 197.19 -1.13621 -1.58355 0
M  V30 1984 H 196.286 -0.688342 -3.04415 0
M  V30 1985 N 196.587 1.43421 -0.653314 0
M  V30 1986 C 197.497 2.34568 0.0388565 0
M  V30 1987 C 198.513 1.53888 0.81207 0
M  V30 1988 O 199.689 1.86539 0.759294 0
M  V30 1989 C 196.754 3.32167 0.993269 0
M  V30 1990 C 195.815 4.28751 0.216977 0
M  V30 1991 C 195.048 5.21688 1.12593 0
M  V30 1992 O 195.271 5.19052 2.36519 0
M  V30 1993 O 194.205 5.98919 0.598284 0
M  V30 1994 H 198.031 2.95251 -0.711386 0
M  V30 1995 H 195.616 1.43564 -0.413502 0
M  V30 1996 H 197.498 3.92183 1.54176 0
M  V30 1997 H 196.173 2.73987 1.72374 0
M  V30 1998 H 195.08 3.72215 -0.375101 0
M  V30 1999 H 196.413 4.89913 -0.473924 0
M  V30 2000 N 198.065 0.39524 1.52563 0
M  V30 2001 C 199.013 -0.451859 2.28169 0
M  V30 2002 C 200.007 -1.05792 1.32304 0
M  V30 2003 O 201.213 -0.997718 1.49818 0
M  V30 2004 H 197.588 -0.164481 0.733792 0
M  V30 2005 H 199.559 0.207199 2.9768 0
M  V30 2006 C 198.308 -1.56385 3.10546 0
M  V30 2007 H 197.631 -1.10682 3.84174 0
M  V30 2008 H 199.071 -2.13067 3.66577 0
M  V30 2009 C 197.53 -2.52328 2.23231 0
M  V30 2010 O 198.06 -3.5588 1.86312 0
M  V30 2011 N 196.266 -2.22209 1.87274 0
M  V30 2012 H 195.813 -1.38033 2.17496 0
M  V30 2013 H 195.771 -2.86652 1.29143 0
M  V30 2014 N 199.544 -1.57102 0.125237 0
M  V30 2015 C 200.793 -1.94582 -0.531095 0
M  V30 2016 C 201.106 -1.01126 -1.6743 0
M  V30 2017 O 202.312 -1.28097 -2.39381 0
M  V30 2018 C 200.768 -3.45839 -0.996164 0
M  V30 2019 C 200.376 -4.47842 0.118926 0
M  V30 2020 C 202.12 -3.92227 -1.62352 0
M  V30 2021 C 200.027 -5.90284 -0.363192 0
M  V30 2022 H 198.957 -0.726391 -0.20217 0
M  V30 2023 H 201.608 -1.82339 0.206092 0
M  V30 2024 H 199.99 -3.53338 -1.78796 0
M  V30 2025 H 201.164 -4.52018 0.895358 0
M  V30 2026 H 199.479 -4.11243 0.653324 0
M  V30 2027 H 202.076 -4.96069 -1.99548 0
M  V30 2028 H 202.419 -3.32552 -2.50429 0
M  V30 2029 H 202.952 -3.87554 -0.897019 0
M  V30 2030 H 199.691 -6.53728 0.481679 0
M  V30 2031 H 199.211 -5.89515 -1.10597 0
M  V30 2032 H 200.89 -6.41752 -0.822377 0
M  V30 2033 N 201.022 0.148545 -1.56898 0
M  V30 2034 C 201.952 1.18524 -2.01182 0
M  V30 2035 C 202.933 1.4489 -0.891123 0
M  V30 2036 O 204.118 1.55836 -1.15882 0
M  V30 2037 C 201.248 2.51879 -2.39112 0
M  V30 2038 C 200.202 2.40038 -3.54353 0
M  V30 2039 C 199.528 3.78089 -3.78091 0
M  V30 2040 C 200.828 1.88577 -4.87069 0
M  V30 2041 H 202.522 0.817029 -2.88036 0
M  V30 2042 H 200.068 0.391575 -1.38574 0
M  V30 2043 H 202.021 3.24627 -2.68692 0
M  V30 2044 H 200.745 2.90532 -1.49193 0
M  V30 2045 H 199.404 1.69742 -3.24936 0
M  V30 2046 H 199.052 4.14175 -2.85426 0
M  V30 2047 H 198.752 3.71028 -4.55645 0
M  V30 2048 H 200.276 4.52387 -4.10095 0
M  V30 2049 H 201.69 2.51117 -5.15377 0
M  V30 2050 H 200.087 1.9241 -5.68417 0
M  V30 2051 H 201.157 0.84136 -4.77545 0
M  V30 2052 N 202.5 1.5196 0.417844 0
M  V30 2053 C 203.748 1.65263 1.16329 0
M  V30 2054 C 204.069 0.380634 1.91249 0
M  V30 2055 O 203.339 -0.604214 1.86349 0
M  V30 2056 H 201.919 0.60912 0.432414 0
M  V30 2057 H 204.581 1.88969 0.477162 0
M  V30 2058 H 203.677 2.4896 1.88217 0
M  V30 2059 N 203.978 -0.674533 1.42435 0
M  V30 2060 C 205.226 -1.43175 1.42637 0
M  V30 2061 C 205.547 -1.94951 0.0438992 0
M  V30 2062 O 204.817 -1.7308 -0.917607 0
M  V30 2063 H 203.397 -0.531307 0.525092 0
M  V30 2064 H 206.059 -0.797006 1.77859 0
M  V30 2065 H 205.155 -2.28463 2.12629 0
M  V30 2066 N 205.456 -1.28612 -0.910864 0
M  V30 2067 C 206.386 -1.15326 -2.03032 0
M  V30 2068 C 207.367 -0.0502924 -1.70026 0
M  V30 2069 O 208.552 -0.227797 -1.92859 0
M  V30 2070 C 205.682 -0.817343 -3.37545 0
M  V30 2071 C 204.636 -1.8754 -3.84724 0
M  V30 2072 C 203.962 -1.39305 -5.16235 0
M  V30 2073 C 205.262 -3.28244 -4.06267 0
M  V30 2074 H 206.956 -2.08975 -2.14406 0
M  V30 2075 H 204.502 -1.00612 -1.03021 0
M  V30 2076 H 206.455 -0.711151 -4.15356 0
M  V30 2077 H 205.179 0.154846 -3.26233 0
M  V30 2078 H 203.838 -1.97079 -3.09121 0
M  V30 2079 H 203.486 -0.409846 -5.01328 0
M  V30 2080 H 203.186 -2.10057 -5.48771 0
M  V30 2081 H 204.71 -1.30014 -5.96598 0
M  V30 2082 H 206.124 -3.21611 -4.74594 0
M  V30 2083 H 204.521 -3.96855 -4.5014 0
M  V30 2084 H 205.591 -3.72048 -3.10979 0
M  V30 2085 N 206.934 1.1197 -1.10907 0
M  V30 2086 C 207.884 2.15946 -0.731538 0
M  V30 2087 C 208.868 1.58758 0.261699 0
M  V30 2088 O 210.06 1.76863 0.0696722 0
M  V30 2089 C 207.189 3.42877 -0.170299 0
M  V30 2090 C 206.275 4.07037 -1.19087 0
M  V30 2091 N 206.666 4.46135 -2.38322 0
M  V30 2092 C 204.964 4.33884 -1.03252 0
M  V30 2093 C 205.665 4.96331 -3.03366 0
M  V30 2094 N 204.641 4.9214 -2.30865 0
M  V30 2095 H 208.443 2.43947 -1.63912 0
M  V30 2096 H 205.957 1.28927 -0.987505 0
M  V30 2097 H 207.954 4.16732 0.118271 0
M  V30 2098 H 206.614 3.16343 0.731935 0
M  V30 2099 H 207.625 4.38345 -2.75815 0
M  V30 2100 H 204.302 4.17084 -0.186256 0
M  V30 2101 H 205.692 5.36257 -4.04818 0
M  V30 2102 N 208.412 0.89855 1.29475 0
M  V30 2103 C 209.658 0.524658 1.95896 0
M  V30 2104 C 209.991 -0.926468 1.70676 0
M  V30 2105 O 209.266 -1.65665 1.01908 0
M  V30 2106 C 209.549 0.81633 3.50725 0
M  V30 2107 C 209.402 2.31907 3.85408 0
M  V30 2108 C 210.721 0.302038 4.39062 0
M  V30 2109 H 207.84 0.19209 0.711527 0
M  V30 2110 H 210.482 1.12502 1.53112 0
M  V30 2111 H 208.632 0.305369 3.87298 0
M  V30 2112 H 210.304 2.89949 3.58786 0
M  V30 2113 H 208.547 2.78027 3.32992 0
M  V30 2114 H 209.218 2.47373 4.93468 0
M  V30 2115 H 211.694 0.739551 4.09475 0
M  V30 2116 H 210.57 0.535331 5.46283 0
M  V30 2117 H 210.831 -0.797216 4.34853 0
M  V30 2118 N 209.89 -1.43072 0.660911 0
M  V30 2119 C 211.301 -1.84932 0.256348 0
M  V30 2120 C 211.652 -1.55325 -1.19868 0
M  V30 2121 O 210.777 -1.00607 -1.91591 0
M  V30 2122 C 211.372 -3.35684 0.458475 0
M  V30 2123 C 209.931 -3.76245 0.108161 0
M  V30 2124 C 209.078 -2.66749 0.757641 0
M  V30 2125 H 212.029 -1.33116 0.864051 0
M  V30 2126 H 212.05 -3.79365 -0.293683 0
M  V30 2127 H 211.562 -3.572 1.51755 0
M  V30 2128 H 209.663 -3.60338 -0.948014 0
M  V30 2129 H 209.776 -4.76058 0.538992 0
M  V30 2130 H 208.14 -2.53989 0.190185 0
M  V30 2131 H 208.923 -2.91092 1.81989 0
M  V30 2132 N 211.368 -0.403325 -1.52352 0
M  V30 2133 C 212.593 0.176499 -2.06648 0
M  V30 2134 C 213.018 1.38577 -1.27193 0
M  V30 2135 O 212.376 1.7879 -0.300637 0
M  V30 2136 C 212.424 0.511061 -3.5696 0
M  V30 2137 O 211.528 1.60294 -3.79973 0
M  V30 2138 H 210.869 0.0167337 -0.663789 0
M  V30 2139 H 213.399 -0.574848 -1.96359 0
M  V30 2140 H 213.409 0.771362 -4.00642 0
M  V30 2141 H 212.084 -0.37296 -4.14224 0
M  V30 2142 H 210.661 1.33526 -3.48174 0
M  V30 2143 N 212.846 1.57033 -0.133567 0
M  V30 2144 C 214.123 1.87256 0.56522 0
M  V30 2145 C 214.503 1.03726 1.83859 0
M  V30 2146 O 213.851 0.120247 2.28183 0
M  V30 2147 C 214.061 3.3865 0.843636 0
M  V30 2148 C 215.409 4.07574 1.19032 0
M  V30 2149 O 216.433 3.43752 0.933429 0
M  V30 2150 O 215.292 5.20259 1.67312 0
M  V30 2151 H 212.386 0.775678 0.286796 0
M  V30 2152 H 214.932 1.68855 -0.169168 0
M  V30 2153 H 213.704 3.91257 -0.0581149 0
M  V30 2154 H 213.327 3.62532 1.63268 0
M  V30 2155 N 214.325 -0.140222 1.56975 0
M  V30 2156 C 215.573 -0.850005 1.83356 0
M  V30 2157 C 215.894 -1.81399 0.71551 0
M  V30 2158 O 215.164 -1.94136 -0.262294 0
M  V30 2159 H 213.744 -0.316886 0.676456 0
M  V30 2160 H 216.406 -0.132608 1.94448 0
M  V30 2161 H 215.502 -1.40814 2.78528 0
M  V30 2162 N 215.803 -1.52179 -0.40978 0
M  V30 2163 C 216.733 -1.78435 -1.5061 0
M  V30 2164 C 217.714 -0.635295 -1.57791 0
M  V30 2165 O 218.899 -0.880823 -1.73076 0
M  V30 2166 C 216.029 -1.93444 -2.88439 0
M  V30 2167 C 214.983 -3.09038 -2.96108 0
M  V30 2168 C 214.309 -3.09268 -4.36185 0
M  V30 2169 C 215.609 -4.48508 -2.67652 0
M  V30 2170 H 217.303 -2.70237 -1.28889 0
M  V30 2171 H 214.849 -1.30036 -0.618605 0
M  V30 2172 H 216.802 -2.10394 -3.65119 0
M  V30 2173 H 215.526 -0.983129 -3.11452 0
M  V30 2174 H 214.185 -2.91837 -2.21872 0
M  V30 2175 H 213.833 -2.11861 -4.56206 0
M  V30 2176 H 213.533 -3.86907 -4.42241 0
M  V30 2177 H 215.057 -3.28348 -5.14801 0
M  V30 2178 H 216.471 -4.65918 -3.34056 0
M  V30 2179 H 214.868 -5.28059 -2.85085 0
M  V30 2180 H 215.938 -4.56649 -1.63095 0
M  V30 2181 N 217.281 0.66697 -1.42791 0
M  V30 2182 C 218.244 1.76211 -1.46568 0
M  V30 2183 C 219.244 1.56896 -0.352196 0
M  V30 2184 O 220.434 1.63044 -0.613364 0
M  V30 2185 C 217.566 3.14935 -1.30494 0
M  V30 2186 H 218.759 1.74247 -2.44086 0
M  V30 2187 H 216.312 0.877342 -1.29354 0
M  V30 2188 H 217.047 3.2252 -0.339301 0
M  V30 2189 H 216.832 3.30359 -2.11199 0
M  V30 2190 H 218.322 3.94821 -1.36038 0
M  V30 2191 N 218.759 1.29093 0.90403 0
M  V30 2192 C 219.984 1.19809 1.69294 0
M  V30 2193 C 220.409 -0.238481 1.86582 0
M  V30 2194 O 219.767 -1.1723 1.383 0
M  V30 2195 C 219.815 1.91202 3.05736 0
M  V30 2196 O 218.919 1.22611 3.93752 0
M  V30 2197 H 218.26 0.415385 0.518027 0
M  V30 2198 H 220.79 1.70586 1.12967 0
M  V30 2199 H 220.8 1.99487 3.55906 0
M  V30 2200 H 219.475 2.95692 2.92471 0
M  V30 2201 H 218.052 1.22554 3.52186 0
M  V30 2202 N 220.237 -1.11381 1.11499 0
M  V30 2203 C 221.2 -2.15622 0.777153 0
M  V30 2204 C 222.2 -1.59504 -0.203779 0
M  V30 2205 O 223.39 -1.74188 0.020782 0
M  V30 2206 C 220.522 -3.40556 0.153116 0
M  V30 2207 H 221.715 -2.47021 1.70061 0
M  V30 2208 H 219.268 -1.26577 0.916952 0
M  V30 2209 H 220.003 -3.14767 -0.780536 0
M  V30 2210 H 219.788 -3.8257 0.859238 0
M  V30 2211 H 221.278 -4.17546 -0.0671044 0
M  V30 2212 N 221.715 -0.905404 -1.28997 0
M  V30 2213 C 222.678 -0.392253 -2.25819 0
M  V30 2214 C 223.678 0.476753 -1.5357 0
M  V30 2215 O 224.868 0.280994 -1.71919 0
M  V30 2216 C 222 0.438588 -3.38067 0
M  V30 2217 H 223.193 -1.24743 -2.72725 0
M  V30 2218 H 220.746 -0.684051 -1.40536 0
M  V30 2219 H 221.481 1.31352 -2.96508 0
M  V30 2220 H 221.266 -0.184167 -3.91667 0
M  V30 2221 H 222.756 0.78873 -4.10084 0
M  V30 2222 N 223.193 1.4272 -0.668489 0
M  V30 2223 C 224.609 1.55992 -0.33745 0
M  V30 2224 C 224.809 1.64933 1.15756 0
M  V30 2225 O 223.865 1.61278 1.94282 0
M  V30 2226 C 225.178 2.81314 -1.06222 0
M  V30 2227 C 226.726 2.95078 -1.04394 0
M  V30 2228 C 227.201 4.23252 -1.74991 0
M  V30 2229 N 228.692 4.3015 -1.71829 0
M  V30 2230 C 229.427 5.28127 -2.23315 0
M  V30 2231 N 228.923 6.32293 -2.83156 0
M  V30 2232 N 230.716 5.19882 -2.13726 0
M  V30 2233 H 222.867 1.3516 -1.63846 0
M  V30 2234 H 225.13 0.650174 -0.689912 0
M  V30 2235 H 224.836 2.80823 -2.11734 0
M  V30 2236 H 224.71 3.72012 -0.62344 0
M  V30 2237 H 227.097 2.951 0.0028244 0
M  V30 2238 H 227.178 2.05627 -1.52155 0
M  V30 2239 H 226.822 4.2399 -2.79633 0
M  V30 2240 H 226.752 5.11626 -1.24685 0
M  V30 2241 H 229.243 3.55499 -1.28175 0
M  V30 2242 H 229.556 7.03398 -3.20079 0
M  V30 2243 H 227.901 6.32873 -2.87223 0
M  V30 2244 H 231.092 4.37423 -1.66669 0
M  V30 2245 H 231.265 5.96077 -2.54158 0
M  V30 2246 N 224.671 0.411399 1.52136 0
M  V30 2247 C 225.634 -0.401089 2.25663 0
M  V30 2248 C 226.634 -0.971732 1.28117 0
M  V30 2249 O 227.824 -0.850254 1.52041 0
M  V30 2250 C 224.956 -1.56483 3.02863 0
M  V30 2251 H 226.149 0.24295 2.98914 0
M  V30 2252 H 223.702 0.163968 1.55438 0
M  V30 2253 H 224.437 -2.24567 2.33967 0
M  V30 2254 H 224.222 -1.16211 3.74483 0
M  V30 2255 H 225.712 -2.13951 3.58629 0
M  V30 2256 N 226.149 -1.5696 0.141893 0
M  V30 2257 C 227.395 -1.9625 -0.511248 0
M  V30 2258 C 227.728 -1.02654 -1.64851 0
M  V30 2259 O 227.003 -0.0679676 -1.94381 0
M  V30 2260 C 227.286 -3.45285 -1.02227 0
M  V30 2261 C 227.139 -4.49658 0.113138 0
M  V30 2262 C 228.458 -3.96698 -1.90574 0
M  V30 2263 H 225.577 -0.713567 -0.184367 0
M  V30 2264 H 228.219 -1.88698 0.222087 0
M  V30 2265 H 226.369 -3.51852 -1.64719 0
M  V30 2266 H 228.041 -4.55174 0.749302 0
M  V30 2267 H 226.284 -4.26857 0.773026 0
M  V30 2268 H 226.955 -5.51258 -0.286053 0
M  V30 2269 H 229.431 -3.92578 -1.37918 0
M  V30 2270 H 228.307 -5.01453 -2.2324 0
M  V30 2271 H 228.568 -3.3875 -2.84079 0
M  V30 2272 N 227.627 0.131896 -1.57047 0
M  V30 2273 C 228.559 1.1878 -1.9602 0
M  V30 2274 C 229.572 1.38363 -0.857875 0
M  V30 2275 O 230.761 1.37666 -1.13623 0
M  V30 2276 C 227.861 2.55008 -2.23213 0
M  V30 2277 C 227.034 2.56201 -3.54513 0
M  V30 2278 C 226.093 3.7408 -3.70069 0
M  V30 2279 O 225.119 3.58258 -4.42312 0
M  V30 2280 N 226.321 4.92137 -3.07866 0
M  V30 2281 H 229.086 0.85639 -2.87204 0
M  V30 2282 H 226.647 0.321309 -1.5868 0
M  V30 2283 H 228.639 3.32404 -2.30846 0
M  V30 2284 H 227.209 2.80382 -1.3822 0
M  V30 2285 H 226.429 1.64613 -3.58185 0
M  V30 2286 H 227.717 2.54043 -4.4084 0
M  V30 2287 H 227.115 5.07895 -2.49116 0
M  V30 2288 H 225.672 5.67254 -3.21039 0
M  V30 2289 N 229.106 1.52395 0.401703 0
M  V30 2290 C 230.036 1.79231 1.49661 0
M  V30 2291 C 231.017 0.643654 1.57452 0
M  V30 2292 O 232.202 0.889989 1.72606 0
M  V30 2293 C 229.332 1.94971 2.87409 0
M  V30 2294 C 228.286 3.10604 2.94465 0
M  V30 2295 C 227.612 3.11577 4.34538 0
M  V30 2296 C 228.912 4.49921 2.6527 0
M  V30 2297 H 230.606 2.70917 1.27454 0
M  V30 2298 H 228.152 1.30362 0.6117 0
M  V30 2299 H 230.105 2.12328 3.63999 0
M  V30 2300 H 228.829 0.999632 3.10926 0
M  V30 2301 H 227.488 2.93009 2.20321 0
M  V30 2302 H 227.136 2.14277 4.55076 0
M  V30 2303 H 226.836 3.89247 4.40183 0
M  V30 2304 H 228.36 3.31073 5.13053 0
M  V30 2305 H 229.774 4.67683 3.31581 0
M  V30 2306 H 228.171 5.29564 2.82281 0
M  V30 2307 H 229.241 4.57507 1.60671 0
M  V30 2308 N 230.584 -0.659388 1.43143 0
M  V30 2309 C 231.514 -1.78422 1.50625 0
M  V30 2310 C 232.495 -1.66216 0.361443 0
M  V30 2311 O 233.68 -1.85404 0.577834 0
M  V30 2312 C 230.81 -3.16815 1.42287 0
M  V30 2313 C 229.764 -3.43777 2.54954 0
M  V30 2314 C 229.09 -4.81905 2.31671 0
M  V30 2315 C 230.39 -3.39134 3.97222 0
M  V30 2316 H 232.084 -1.72417 2.44771 0
M  V30 2317 H 229.63 -0.828084 1.17808 0
M  V30 2318 H 231.583 -3.95253 1.46127 0
M  V30 2319 H 230.307 -3.23534 0.446435 0
M  V30 2320 H 228.966 -2.67707 2.50457 0
M  V30 2321 H 228.614 -4.85294 1.32284 0
M  V30 2322 H 228.314 -5.00906 3.07192 0
M  V30 2323 H 229.838 -5.62609 2.37284 0
M  V30 2324 H 231.252 -4.07518 4.03239 0
M  V30 2325 H 229.649 -3.69671 4.72719 0
M  V30 2326 H 230.719 -2.37426 4.22797 0
M  V30 2327 N 232.062 -1.29571 -0.897171 0
M  V30 2328 C 233.311 -1.1706 -1.64256 0
M  V30 2329 C 233.624 0.276476 -1.93636 0
M  V30 2330 O 234.83 0.52294 -2.66416 0
M  V30 2331 C 233.286 -2.0475 -2.95982 0
M  V30 2332 C 232.894 -3.54295 -2.74187 0
M  V30 2333 C 234.638 -2.0097 -3.73914 0
M  V30 2334 C 232.545 -4.34081 -4.01656 0
M  V30 2335 H 231.475 -0.43452 -0.616205 0
M  V30 2336 H 234.126 -1.54229 -0.994268 0
M  V30 2337 H 232.508 -1.60452 -3.62038 0
M  V30 2338 H 233.682 -4.06662 -2.1671 0
M  V30 2339 H 231.997 -3.59773 -2.09648 0
M  V30 2340 H 234.594 -2.57838 -4.68427 0
M  V30 2341 H 234.937 -0.990273 -4.0435 0
M  V30 2342 H 235.47 -2.43325 -3.14703 0
M  V30 2343 H 232.209 -5.36671 -3.76384 0
M  V30 2344 H 231.729 -3.86483 -4.58684 0
M  V30 2345 H 233.408 -4.44877 -4.69781 0
M  V30 2346 N 233.54 1.10788 -1.12088 0
M  V30 2347 C 234.487 2.17025 -0.785407 0
M  V30 2348 C 235.457 1.64265 0.246191 0
M  V30 2349 O 236.642 1.90412 0.121584 0
M  V30 2350 C 233.782 3.44249 -0.242177 0
M  V30 2351 C 232.895 4.1098 -1.33115 0
M  V30 2352 C 232.03 5.25911 -0.747741 0
M  V30 2353 C 231.069 5.84538 -1.81609 0
M  V30 2354 N 230.206 6.90853 -1.25167 0
M  V30 2355 H 235.046 2.45066 -1.69548 0
M  V30 2356 H 232.583 1.20297 -0.846582 0
M  V30 2357 H 234.541 4.17101 0.0908026 0
M  V30 2358 H 233.171 3.16571 0.631072 0
M  V30 2359 H 232.223 3.36133 -1.78097 0
M  V30 2360 H 233.535 4.50601 -2.13917 0
M  V30 2361 H 232.689 6.056 -0.365216 0
M  V30 2362 H 231.428 4.87614 0.0915188 0
M  V30 2363 H 230.433 5.03522 -2.20785 0
M  V30 2364 H 231.658 6.249 -2.6585 0
M  V30 2365 H 229.604 6.54562 -0.434174 0
M  V30 2366 H 229.521 7.29166 -1.99633 0
M  V30 2367 H 230.789 7.7433 -0.896259 0
M  V30 2368 N 235.018 0.912232 1.28515 0
M  V30 2369 C 236.434 0.610159 1.47476 0
M  V30 2370 C 236.634 -0.844955 1.82928 0
M  V30 2371 O 235.69 -1.62416 1.93332 0
M  V30 2372 C 237.003 1.54675 2.57868 0
M  V30 2373 C 238.551 1.55331 2.71738 0
M  V30 2374 C 239.026 2.47649 3.85272 0
M  V30 2375 N 240.517 2.45767 3.92623 0
M  V30 2376 C 241.252 3.13896 4.79851 0
M  V30 2377 N 240.748 3.9135 5.71679 0
M  V30 2378 N 242.541 3.02991 4.73448 0
M  V30 2379 H 234.692 1.85318 1.03783 0
M  V30 2380 H 236.955 0.794777 0.516753 0
M  V30 2381 H 236.661 2.5841 2.38574 0
M  V30 2382 H 236.535 1.27671 3.54937 0
M  V30 2383 H 238.922 0.52335 2.90422 0
M  V30 2384 H 239.003 1.86378 1.75205 0
M  V30 2385 H 238.647 3.50745 3.67342 0
M  V30 2386 H 238.577 2.13904 4.81199 0
M  V30 2387 H 241.068 1.89503 3.26951 0
M  V30 2388 H 241.381 4.40359 6.35062 0
M  V30 2389 H 239.726 3.95455 5.71524 0
M  V30 2390 H 242.917 2.41987 4.007 0
M  V30 2391 H 243.09 3.5636 5.41213 0
M  V30 2392 N 236.496 -1.42363 0.676048 0
M  V30 2393 C 237.724 -2.05859 0.207268 0
M  V30 2394 C 238.139 -1.50796 -1.13605 0
M  V30 2395 O 237.496 -0.648265 -1.70598 0
M  V30 2396 C 237.547 -3.61248 0.134975 0
M  V30 2397 O 237.268 -4.1427 1.42521 0
M  V30 2398 C 238.769 -4.41859 -0.357151 0
M  V30 2399 H 235.989 -0.663431 0.100503 0
M  V30 2400 H 238.533 -1.82479 0.923136 0
M  V30 2401 H 236.688 -3.83735 -0.531588 0
M  V30 2402 H 237.102 -5.0815 1.29939 0
M  V30 2403 H 238.576 -5.50847 -0.356641 0
M  V30 2404 H 239.053 -4.16536 -1.39264 0
M  V30 2405 H 239.659 -4.24392 0.27772 0
M  V30 2406 N 237.974 -0.419461 -1.51915 0
M  V30 2407 C 238.884 0.407528 -2.31033 0
M  V30 2408 C 239.9 1.04413 -1.3919 0
M  V30 2409 O 241.076 1.0434 -1.72265 0
M  V30 2410 C 238.141 1.50365 -3.12396 0
M  V30 2411 C 237.202 0.889029 -4.19994 0
M  V30 2412 C 236.435 1.93291 -4.97468 0
M  V30 2413 O 236.658 3.15259 -4.75361 0
M  V30 2414 O 235.592 1.53339 -5.8204 0
M  V30 2415 H 239.418 -0.237865 -3.02767 0
M  V30 2416 H 237.003 -0.182413 -1.48282 0
M  V30 2417 H 238.885 2.13975 -3.63032 0
M  V30 2418 H 237.56 2.13345 -2.43445 0
M  V30 2419 H 236.467 0.215353 -3.7348 0
M  V30 2420 H 237.8 0.302991 -4.91267 0
M  V30 2421 N 239.452 1.56882 -0.150215 0
M  V30 2422 C 240.677 2.01027 0.510184 0
M  V30 2423 C 241.102 1.02966 1.57415 0
M  V30 2424 O 240.46 0.00590158 1.81299 0
M  V30 2425 C 240.508 3.43899 1.08472 0
M  V30 2426 O 239.612 3.4885 2.19948 0
M  V30 2427 H 238.953 0.652233 0.124451 0
M  V30 2428 H 241.483 2.03093 -0.247894 0
M  V30 2429 H 241.493 3.82766 1.41259 0
M  V30 2430 H 240.168 4.14776 0.305582 0
M  V30 2431 H 238.745 3.21827 1.88366 0
M  V30 2432 N 240.93 -0.123565 1.57115 0
M  V30 2433 C 241.893 -1.13583 1.99076 0
M  V30 2434 C 242.893 -1.34564 0.880296 0
M  V30 2435 O 244.083 -1.31158 1.14644 0
M  V30 2436 C 241.215 -2.49128 2.32698 0
M  V30 2437 H 242.408 -0.775287 2.89706 0
M  V30 2438 H 239.961 -0.36771 1.51913 0
M  V30 2439 H 240.696 -2.90111 1.44934 0
M  V30 2440 H 240.481 -2.35255 3.13684 0
M  V30 2441 H 241.971 -3.2199 2.65918 0
M  V30 2442 N 242.408 -1.52605 -0.393616 0
M  V30 2443 C 243.656 -1.67093 -1.13685 0
M  V30 2444 C 243.977 -0.411011 -1.90619 0
M  V30 2445 O 243.247 0.574491 -1.87287 0
M  V30 2446 H 241.827 -0.615923 -0.422668 0
M  V30 2447 H 244.489 -1.89704 -0.447039 0
M  V30 2448 H 243.585 -2.51922 -1.84232 0
M  V30 2449 N 243.887 0.651787 -1.4349 0
M  V30 2450 C 245.133 1.41376 -1.45398 0
M  V30 2451 C 245.466 1.94041 -0.0784823 0
M  V30 2452 O 244.741 1.72379 0.900878 0
M  V30 2453 C 245.024 2.59414 -2.49752 0
M  V30 2454 C 244.877 2.12232 -3.96582 0
M  V30 2455 C 246.196 3.61626 -2.50827 0
M  V30 2456 H 243.315 0.512719 -0.529422 0
M  V30 2457 H 245.957 0.738796 -1.75048 0
M  V30 2458 H 244.107 3.16997 -2.246 0
M  V30 2459 H 245.779 1.59639 -4.32797 0
M  V30 2460 H 244.022 1.43592 -4.09346 0
M  V30 2461 H 244.693 2.9712 -4.65214 0
M  V30 2462 H 247.169 3.13805 -2.7325 0
M  V30 2463 H 246.045 4.41766 -3.25783 0
M  V30 2464 H 246.306 4.14314 -1.5426 0
M  V30 2465 N 245.365 1.30045 0.890287 0
M  V30 2466 C 246.593 1.21472 1.67487 0
M  V30 2467 C 247.008 -0.223241 1.87476 0
M  V30 2468 O 246.365 -1.14828 1.41847 0
M  V30 2469 C 246.416 1.93394 3.05419 0
M  V30 2470 O 246.137 3.31576 2.86337 0
M  V30 2471 C 247.638 1.91414 3.99844 0
M  V30 2472 H 244.858 0.420604 0.522813 0
M  V30 2473 H 247.402 1.7158 1.11268 0
M  V30 2474 H 245.557 1.47099 3.58386 0
M  V30 2475 H 245.971 3.67929 3.73802 0
M  V30 2476 H 247.445 2.46285 4.94012 0
M  V30 2477 H 247.922 0.891833 4.3005 0
M  V30 2478 H 248.528 2.37496 3.52811 0
M  V30 2479 N 246.843 -1.10192 1.12674 0
M  V30 2480 C 248.073 -1.85713 0.905213 0
M  V30 2481 C 248.481 -1.81056 -0.549108 0
M  V30 2482 O 247.824 -1.19927 -1.39151 0
M  V30 2483 C 247.886 -3.34972 1.30516 0
M  V30 2484 C 247.55 -3.63385 2.77129 0
M  V30 2485 C 248.547 -3.59772 3.75313 0
M  V30 2486 C 246.232 -3.91981 3.14096 0
M  V30 2487 C 248.226 -3.84354 5.08479 0
M  V30 2488 C 245.913 -4.16218 4.47443 0
M  V30 2489 C 246.911 -4.12395 5.44444 0
M  V30 2490 O 246.599 -4.36014 6.75387 0
M  V30 2491 H 246.331 -0.593719 0.323223 0
M  V30 2492 H 248.885 -1.40198 1.50112 0
M  V30 2493 H 247.115 -3.81156 0.652463 0
M  V30 2494 H 248.804 -3.91886 1.05736 0
M  V30 2495 H 249.57 -3.37716 3.48099 0
M  V30 2496 H 245.449 -3.94085 2.39202 0
M  V30 2497 H 248.993 -3.81285 5.84181 0
M  V30 2498 H 244.89 -4.37754 4.74386 0
M  V30 2499 H 245.658 -4.53516 6.8137 0
M  V30 2500 N 248.321 -0.919034 -1.28029 0
M  V30 2501 C 249.737 -0.617972 -1.4715 0
M  V30 2502 C 249.937 0.835242 -1.83374 0
M  V30 2503 O 248.993 1.61388 -1.94191 0
M  V30 2504 C 250.306 -1.56041 -2.57044 0
M  V30 2505 C 251.854 -1.56769 -2.7091 0
M  V30 2506 C 252.329 -2.49688 -3.83953 0
M  V30 2507 N 253.82 -2.47845 -3.91314 0
M  V30 2508 C 254.555 -3.16437 -4.78179 0
M  V30 2509 N 254.051 -3.94376 -5.69596 0
M  V30 2510 N 255.844 -3.05498 -4.71834 0
M  V30 2511 H 247.995 -1.85866 -1.02798 0
M  V30 2512 H 250.258 -0.797506 -0.512531 0
M  V30 2513 H 249.964 -2.59671 -2.372 0
M  V30 2514 H 249.838 -1.29551 -3.54255 0
M  V30 2515 H 252.225 -0.538745 -2.90141 0
M  V30 2516 H 252.306 -1.87305 -1.74214 0
M  V30 2517 H 251.95 -3.52688 -3.65477 0
M  V30 2518 H 251.88 -2.16453 -4.80058 0
M  V30 2519 H 254.371 -1.91234 -3.25941 0
M  V30 2520 H 254.684 -4.43721 -6.32718 0
M  V30 2521 H 253.029 -3.98481 -5.69419 0
M  V30 2522 H 256.22 -2.44108 -3.99411 0
M  V30 2523 H 256.393 -3.59225 -5.39316 0
M  V30 2524 N 249.799 1.42003 -0.683588 0
M  V30 2525 C 251.047 2.01015 -0.209101 0
M  V30 2526 C 251.368 1.54365 1.19149 0
M  V30 2527 O 250.638 0.769083 1.80172 0
M  V30 2528 H 249.218 0.743294 -0.074315 0
M  V30 2529 H 251.88 1.73798 -0.882066 0
M  V30 2530 H 250.976 3.11343 -0.2172 0
M  V30 2531 N 251.277 0.427512 1.51691 0
M  V30 2532 C 252.502 -0.143601 2.06902 0
M  V30 2533 C 252.927 -1.36536 1.29382 0
M  V30 2534 O 252.285 -1.78289 0.329043 0
M  V30 2535 C 252.333 -0.454207 3.57728 0
M  V30 2536 O 251.437 -1.54228 3.82475 0
M  V30 2537 H 250.778 -0.00617128 0.663971 0
M  V30 2538 H 253.308 0.606014 1.95419 0
M  V30 2539 H 253.318 -0.707525 4.01818 0
M  V30 2540 H 251.993 0.438812 4.13579 0
M  V30 2541 H 250.57 -1.2797 3.50254 0
M  V30 2542 N 252.755 -1.56801 0.158532 0
M  V30 2543 C 253.983 -2.00859 -0.496303 0
M  V30 2544 C 254.398 -1.03871 -1.57659 0
M  V30 2545 O 253.755 -0.0375165 -1.82461 0
M  V30 2546 C 253.806 -3.4479 -1.08638 0
M  V30 2547 O 253.527 -4.38072 -0.0492322 0
M  V30 2548 C 255.028 -4.04185 -1.8207 0
M  V30 2549 H 252.248 -0.65864 -0.128199 0
M  V30 2550 H 254.792 -2.02885 0.256506 0
M  V30 2551 H 252.947 -3.43579 -1.78975 0
M  V30 2552 H 253.361 -5.2227 -0.483102 0
M  V30 2553 H 254.835 -5.06857 -2.18633 0
M  V30 2554 H 255.312 -3.45549 -2.71095 0
M  V30 2555 H 255.918 -4.0906 -1.16405 0
M  V30 2556 N 254.233 0.115231 -1.57178 0
M  V30 2557 C 255.461 0.836437 -1.89239 0
M  V30 2558 C 255.876 1.73256 -0.750175 0
M  V30 2559 O 255.233 1.80357 0.278832 0
M  V30 2560 C 255.284 1.66671 -3.20785 0
M  V30 2561 O 255.005 0.806652 -4.3061 0
M  V30 2562 C 256.506 2.49274 -3.66575 0
M  V30 2563 H 253.726 0.240253 -0.626514 0
M  V30 2564 H 256.27 0.0984932 -2.04263 0
M  V30 2565 H 254.425 2.35737 -3.0742 0
M  V30 2566 H 254.839 1.37969 -5.06028 0
M  V30 2567 H 256.313 3.03055 -4.6137 0
M  V30 2568 H 256.79 3.26807 -2.93417 0
M  V30 2569 H 257.396 1.85443 -3.82741 0
M  V30 2570 N 255.711 1.52812 0.385517 0
M  V30 2571 C 256.957 1.68275 1.13188 0
M  V30 2572 C 257.29 0.423179 1.89533 0
M  V30 2573 O 256.565 -0.579113 1.85679 0
M  V30 2574 C 256.848 2.92001 2.1073 0
M  V30 2575 C 256.701 4.28067 1.38125 0
M  V30 2576 C 258.02 3.11283 3.11113 0
M  V30 2577 H 255.139 0.612352 0.410115 0
M  V30 2578 H 257.781 1.85415 0.414869 0
M  V30 2579 H 255.931 2.77519 2.71874 0
M  V30 2580 H 257.603 4.54324 0.799187 0
M  V30 2581 H 255.846 4.28388 0.683092 0
M  V30 2582 H 256.517 5.10733 2.09417 0
M  V30 2583 H 258.993 3.2482 2.6006 0
M  V30 2584 H 257.869 3.99325 3.76605 0
M  V30 2585 H 258.13 2.25656 3.80173 0
M  V30 2586 N 257.189 -0.644168 1.43834 0
M  V30 2587 C 258.417 -1.43147 1.49387 0
M  V30 2588 C 258.832 -1.88452 0.114583 0
M  V30 2589 O 258.189 -1.60047 -0.876989 0
M  V30 2590 C 258.24 -2.66046 2.44748 0
M  V30 2591 O 257.961 -2.22633 3.77314 0
M  V30 2592 C 259.462 -3.59311 2.59635 0
M  V30 2593 H 256.682 -0.439447 0.507077 0
M  V30 2594 H 259.226 -0.78895 1.88669 0
M  V30 2595 H 257.381 -3.26418 2.08638 0
M  V30 2596 H 257.795 -3.02216 4.28679 0
M  V30 2597 H 259.269 -4.42187 3.30416 0
M  V30 2598 H 259.746 -4.07259 1.64427 0
M  V30 2599 H 260.352 -3.04816 2.96593 0
M  V30 2600 N 258.668 -1.30515 -0.883378 0
M  V30 2601 C 259.916 -1.19194 -1.63209 0
M  V30 2602 C 260.237 0.253205 -1.93349 0
M  V30 2603 O 259.507 1.17025 -1.57105 0
M  V30 2604 H 258.087 -0.438148 -0.605009 0
M  V30 2605 H 260.749 -1.63663 -1.05832 0
M  V30 2606 H 259.845 -1.75396 -2.58153 0
M  V30 2607 N 260.146 1.09593 -1.13257 0
M  V30 2608 C 261.395 1.81105 -0.887917 0
M  V30 2609 C 261.708 1.86563 0.587672 0
M  V30 2610 O 262.914 2.54367 0.949204 0
M  V30 2611 C 261.37 3.25338 -1.53895 0
M  V30 2612 C 260.978 3.28151 -3.04994 0
M  V30 2613 C 262.722 4.01617 -1.37492 0
M  V30 2614 C 260.629 4.66897 -3.6299 0
M  V30 2615 H 259.559 0.678661 -0.328534 0
M  V30 2616 H 262.21 1.23183 -1.36008 0
M  V30 2617 H 260.592 3.8331 -0.994446 0
M  V30 2618 H 261.766 2.79953 -3.66009 0
M  V30 2619 H 260.081 2.65361 -3.20893 0
M  V30 2620 H 262.678 5.04119 -1.78235 0
M  V30 2621 H 263.021 4.15072 -0.31957 0
M  V30 2622 H 263.554 3.50082 -1.88912 0
M  V30 2623 H 260.293 4.58643 -4.68323 0
M  V30 2624 H 259.813 5.15426 -3.06752 0
M  V30 2625 H 261.492 5.3587 -3.62563 0
M  V30 2626 N 261.624 0.925811 1.2754 0
M  V30 2627 C 262.534 0.428993 2.30644 0
M  V30 2628 C 263.55 -0.489387 1.66976 0
M  V30 2629 O 264.726 -0.372653 1.97922 0
M  V30 2630 C 261.791 -0.311967 3.45294 0
M  V30 2631 C 260.852 0.641098 4.24486 0
M  V30 2632 C 260.085 -0.0645955 5.33661 0
M  V30 2633 O 260.308 -1.28429 5.55754 0
M  V30 2634 O 259.242 0.606265 5.98839 0
M  V30 2635 H 263.068 1.28504 2.75173 0
M  V30 2636 H 260.653 0.691086 1.32455 0
M  V30 2637 H 262.535 -0.729972 4.15029 0
M  V30 2638 H 261.21 -1.14365 3.02824 0
M  V30 2639 H 260.117 1.10874 3.57292 0
M  V30 2640 H 261.45 1.43995 4.70666 0
M  V30 2641 N 263.102 -1.41638 0.69111 0
M  V30 2642 C 264.034 -2.29194 -0.0161523 0
M  V30 2643 C 265.047 -1.44549 -0.748955 0
M  V30 2644 O 266.236 -1.681 -0.6004 0
M  V30 2645 C 263.336 -3.22325 -1.0469 0
M  V30 2646 C 262.509 -4.35706 -0.384621 0
M  V30 2647 C 261.568 -5.09443 -1.31737 0
M  V30 2648 O 260.594 -5.63386 -0.811451 0
M  V30 2649 N 261.796 -5.16487 -2.64993 0
M  V30 2650 H 264.561 -2.90534 0.735523 0
M  V30 2651 H 262.122 -1.52742 0.53679 0
M  V30 2652 H 264.114 -3.68522 -1.67252 0
M  V30 2653 H 262.684 -2.62323 -1.70015 0
M  V30 2654 H 261.904 -3.91948 0.420804 0
M  V30 2655 H 263.192 -5.08743 0.0760765 0
M  V30 2656 H 262.59 -4.741 -3.08619 0
M  V30 2657 H 261.147 -5.66276 -3.22761 0
M  V30 2658 N 264.58 -0.43555 -1.51462 0
M  V30 2659 C 265.805 0.132627 -2.06976 0
M  V30 2660 C 266.23 1.35848 -1.30104 0
M  V30 2661 O 265.588 1.78112 -0.338493 0
M  V30 2662 C 265.636 0.43523 -3.57964 0
M  V30 2663 O 264.74 1.52198 -3.83288 0
M  V30 2664 H 264.081 0.00265 -0.663995 0
M  V30 2665 H 266.611 -0.616369 -1.95095 0
M  V30 2666 H 266.621 0.686206 -4.02188 0
M  V30 2667 H 265.296 -0.460739 -4.1334 0
M  V30 2668 H 263.873 1.2611 -3.50928 0
M  V30 2669 N 266.058 1.56714 -0.166846 0
M  V30 2670 C 267.306 1.96358 0.478305 0
M  V30 2671 C 267.627 1.0537 1.6408 0
M  V30 2672 O 266.897 0.119154 1.95537 0
M  V30 2673 H 265.477 0.725065 0.179692 0
M  V30 2674 H 268.139 1.93329 -0.246985 0
M  V30 2675 H 267.235 3.00547 0.841292 0
M  V30 2676 N 267.536 -0.106894 1.57237 0
M  V30 2677 C 268.784 -0.810921 1.85117 0
M  V30 2678 C 269.105 -1.7984 0.753827 0
M  V30 2679 O 268.375 -1.94649 -0.221056 0
M  V30 2680 H 266.955 -0.302466 0.683025 0
M  V30 2681 H 269.617 -0.0913324 1.94686 0
M  V30 2682 H 268.713 -1.34875 2.81452 0
M  V30 2683 N 269.014 -1.53014 -0.377408 0
M  V30 2684 C 270.43 -1.42523 -0.718281 0
M  V30 2685 C 270.63 -0.55487 -1.9371 0
M  V30 2686 O 269.686 -0.0327593 -2.52479 0
M  V30 2687 C 270.999 -2.85546 -0.942539 0
M  V30 2688 C 272.547 -2.95101 -1.04329 0
M  V30 2689 C 273.022 -4.3916 -1.3001 0
M  V30 2690 N 274.513 -4.42536 -1.36806 0
M  V30 2691 C 275.248 -5.51097 -1.58364 0
M  V30 2692 N 274.744 -6.69724 -1.77317 0
M  V30 2693 N 276.537 -5.38657 -1.60638 0
M  V30 2694 H 268.688 -2.08116 0.424426 0
M  V30 2695 H 270.951 -0.939352 0.127759 0
M  V30 2696 H 270.657 -3.51499 -0.118929 0
M  V30 2697 H 270.531 -3.28493 -1.85397 0
M  V30 2698 H 272.918 -2.29309 -1.85745 0
M  V30 2699 H 272.999 -2.55566 -0.109505 0
M  V30 2700 H 272.643 -5.05521 -0.490991 0
M  V30 2701 H 272.573 -4.76258 -2.24691 0
M  V30 2702 H 275.064 -3.57039 -1.23821 0
M  V30 2703 H 275.377 -7.48233 -1.93306 0
M  V30 2704 H 273.722 -6.72732 -1.74518 0
M  V30 2705 H 276.913 -4.44948 -1.45391 0
M  V30 2706 H 277.086 -6.2333 -1.77098 0
M  V30 2707 N 270.492 0.636531 -1.44174 0
M  V30 2708 C 271.738 1.39826 -1.4689 0
M  V30 2709 C 272.071 1.93947 -0.0990585 0
M  V30 2710 O 271.346 1.73325 0.882544 0
M  V30 2711 C 271.629 2.56751 -2.5249 0
M  V30 2712 C 271.482 2.08014 -3.98811 0
M  V30 2713 C 272.801 3.58946 -2.54649 0
M  V30 2714 H 269.92 0.507075 -0.53483 0
M  V30 2715 H 272.562 0.720188 -1.75822 0
M  V30 2716 H 270.712 3.14597 -2.2795 0
M  V30 2717 H 272.384 1.5504 -4.34466 0
M  V30 2718 H 270.627 1.39242 -4.10846 0
M  V30 2719 H 271.298 2.92169 -4.68339 0
M  V30 2720 H 273.774 3.1089 -2.76563 0
M  V30 2721 H 272.65 4.38286 -3.3045 0
M  V30 2722 H 272.911 4.12655 -1.58646 0
M  V30 2723 N 271.97 1.30982 0.876444 0
M  V30 2724 C 273.198 1.23242 1.6619 0
M  V30 2725 C 273.613 -0.203345 1.87702 0
M  V30 2726 O 272.97 -1.13317 1.43057 0
M  V30 2727 C 273.021 1.96623 3.03351 0
M  V30 2728 O 272.742 3.34594 2.82804 0
M  V30 2729 C 274.243 1.95644 3.97792 0
M  V30 2730 H 271.463 0.426126 0.518322 0
M  V30 2731 H 274.007 1.7275 1.09442 0
M  V30 2732 H 272.162 1.50892 3.56806 0
M  V30 2733 H 272.576 3.71873 3.69879 0
M  V30 2734 H 274.05 2.51511 4.91372 0
M  V30 2735 H 274.527 0.937395 4.2908 0
M  V30 2736 H 275.133 2.41225 3.50272 0
M  V30 2737 N 273.449 -1.08991 1.13837 0
M  V30 2738 C 274.697 -1.80899 0.901098 0
M  V30 2739 C 275.018 -1.86356 -0.574134 0
M  V30 2740 O 274.288 -1.35235 -1.41733 0
M  V30 2741 H 272.868 -0.669966 0.330386 0
M  V30 2742 H 275.53 -1.318 1.43578 0
M  V30 2743 H 274.626 -2.83929 1.29578 0
M  V30 2744 N 274.927 -0.932562 -1.27047 0
M  V30 2745 C 276.173 -0.576412 -1.94436 0
M  V30 2746 C 276.506 0.880891 -1.73072 0
M  V30 2747 O 275.781 1.62905 -1.06264 0
M  V30 2748 C 276.064 -0.909031 -3.48437 0
M  V30 2749 C 275.917 -2.42044 -3.79123 0
M  V30 2750 C 277.236 -0.418341 -4.38107 0
M  V30 2751 H 274.355 -0.210888 -0.706184 0
M  V30 2752 H 276.997 -1.16522 -1.50075 0
M  V30 2753 H 275.147 -0.407947 -3.86352 0
M  V30 2754 H 276.819 -2.99359 -3.50973 0
M  V30 2755 H 275.062 -2.86758 -3.25503 0
M  V30 2756 H 275.733 -2.6037 -4.86736 0
M  V30 2757 H 278.209 -0.847856 -4.0737 0
M  V30 2758 H 277.085 -0.679981 -5.44672 0
M  V30 2759 H 277.346 0.681642 -4.36814 0
M  V30 2760 N 276.405 1.4127 -0.698611 0
M  V30 2761 C 277.337 2.292 0.00399731 0
M  V30 2762 C 278.35 1.44944 0.741279 0
M  V30 2763 O 279.539 1.68416 0.591477 0
M  V30 2764 C 276.639 3.22875 1.02979 0
M  V30 2765 C 275.812 4.35904 0.36151 0
M  V30 2766 C 274.871 5.10134 1.29033 0
M  V30 2767 O 273.897 5.63809 0.781562 0
M  V30 2768 N 275.099 5.17885 2.6225 0
M  V30 2769 H 277.864 2.9014 -0.750921 0
M  V30 2770 H 275.425 1.52455 -0.544882 0
M  V30 2771 H 277.417 3.69404 1.65296 0
M  V30 2772 H 275.987 2.63221 1.68622 0
M  V30 2773 H 275.207 3.91719 -0.441584 0
M  V30 2774 H 276.495 5.08696 -0.103055 0
M  V30 2775 H 275.893 4.7573 3.061 0
M  V30 2776 H 274.45 5.6798 3.19754 0
M  V30 2777 N 277.883 0.443576 1.51229 0
M  V30 2778 C 279.111 -0.11929 2.06556 0
M  V30 2779 C 279.526 -1.35921 1.31038 0
M  V30 2780 O 278.883 -1.78675 0.371704 0
M  V30 2781 C 278.934 -0.435228 3.5887 0
M  V30 2782 O 278.655 0.755486 4.31537 0
M  V30 2783 C 280.156 -1.04808 4.30732 0
M  V30 2784 H 277.376 -0.0051584 0.67098 0
M  V30 2785 H 279.92 0.624453 1.94733 0
M  V30 2786 H 278.075 -1.12887 3.70588 0
M  V30 2787 H 278.489 0.483491 5.22267 0
M  V30 2788 H 279.963 -1.2191 5.3837 0
M  V30 2789 H 280.44 -2.03081 3.89429 0
M  V30 2790 H 281.046 -0.393637 4.23474 0
M  V30 2791 N 279.361 -1.56624 0.175154 0
M  V30 2792 C 280.324 -2.16934 -0.739738 0
M  V30 2793 C 281.324 -1.11842 -1.15533 0
M  V30 2794 O 282.514 -1.37335 -1.07167 0
M  V30 2795 C 279.646 -2.75531 -2.00738 0
M  V30 2796 H 280.839 -2.99131 -0.214639 0
M  V30 2797 H 278.392 -1.56123 -0.0744197 0
M  V30 2798 H 279.127 -1.97078 -2.57548 0
M  V30 2799 H 278.912 -3.52444 -1.71831 0
M  V30 2800 H 280.402 -3.21904 -2.66021 0
M  V30 2801 N 280.839 0.0985539 -1.57292 0
M  V30 2802 C 282.116 0.834155 -1.76921 0
M  V30 2803 C 282.496 1.97101 -0.755928 0
M  V30 2804 O 281.844 2.27474 0.216245 0
M  V30 2805 C 282.054 1.33194 -3.22584 0
M  V30 2806 C 283.402 1.77611 -3.85668 0
M  V30 2807 O 284.426 1.42825 -3.26312 0
M  V30 2808 O 283.285 2.4192 -4.90038 0
M  V30 2809 H 280.379 0.397628 -0.725135 0
M  V30 2810 H 282.925 0.0807044 -1.69508 0
M  V30 2811 H 281.697 0.517248 -3.87866 0
M  V30 2812 H 281.32 2.1475 -3.34616 0
M  V30 2813 N 282.317 1.53212 0.369288 0
M  V30 2814 C 283.565 1.68881 1.11012 0
M  V30 2815 C 283.886 0.441285 1.89941 0
M  V30 2816 O 283.156 -0.544623 1.88177 0
M  V30 2817 H 281.736 0.622569 0.412816 0
M  V30 2818 H 284.398 1.90391 0.416802 0
M  V30 2819 H 283.494 2.54822 1.80201 0
M  V30 2820 N 283.795 -0.628877 1.44509 0
M  V30 2821 C 285.041 -1.39045 1.47629 0
M  V30 2822 C 285.374 -1.93892 0.109343 0
M  V30 2823 O 284.649 -1.7379 -0.87334 0
M  V30 2824 C 284.932 -2.55408 2.53848 0
M  V30 2825 C 284.785 -2.05896 3.99909 0
M  V30 2826 C 286.104 -3.5759 2.56549 0
M  V30 2827 H 283.223 -0.504232 0.537512 0
M  V30 2828 H 285.865 -0.710854 1.76201 0
M  V30 2829 H 284.015 -3.13384 2.29615 0
M  V30 2830 H 285.687 -1.52734 4.35282 0
M  V30 2831 H 283.93 -1.37061 4.11578 0
M  V30 2832 H 284.601 -2.89681 4.69882 0
M  V30 2833 H 287.077 -3.09419 2.78207 0
M  V30 2834 H 285.953 -4.36527 3.32769 0
M  V30 2835 H 286.214 -4.11808 1.60832 0
M  V30 2836 N 285.273 -1.31445 -0.869486 0
M  V30 2837 C 286.522 -1.20517 -1.61736 0
M  V30 2838 C 286.835 0.235341 -1.94179 0
M  V30 2839 O 288.041 0.466312 -2.67465 0
M  V30 2840 C 286.497 -2.10982 -2.91573 0
M  V30 2841 C 286.105 -3.60032 -2.66611 0
M  V30 2842 C 287.849 -2.08856 -3.69567 0
M  V30 2843 C 285.756 -4.42503 -3.92358 0
M  V30 2844 H 284.686 -0.447493 -0.606849 0
M  V30 2845 H 287.337 -1.56303 -0.96133 0
M  V30 2846 H 285.719 -1.68095 -3.58553 0
M  V30 2847 H 286.893 -4.11167 -2.08035 0
M  V30 2848 H 285.208 -3.64139 -2.0197 0
M  V30 2849 H 287.805 -2.67716 -4.62852 0
M  V30 2850 H 288.148 -1.07582 -4.02159 0
M  V30 2851 H 288.681 -2.49945 -3.09471 0
M  V30 2852 H 285.42 -5.44533 -3.64916 0
M  V30 2853 H 284.94 -3.96125 -4.50383 0
M  V30 2854 H 286.619 -4.54741 -4.60238 0
M  V30 2855 N 286.751 1.08385 -1.14413 0
M  V30 2856 C 288.162 1.62258 -0.923535 0
M  V30 2857 C 288.513 1.88691 0.537595 0
M  V30 2858 O 287.638 1.64454 1.40655 0
M  V30 2859 C 288.233 2.94781 -1.67002 0
M  V30 2860 C 286.792 3.45437 -1.495 0
M  V30 2861 C 285.939 2.19668 -1.69238 0
M  V30 2862 H 288.89 0.916086 -1.2959 0
M  V30 2863 H 288.911 3.63229 -1.13334 0
M  V30 2864 H 288.423 2.7551 -2.73342 0
M  V30 2865 H 286.524 3.6981 -0.455097 0
M  V30 2866 H 286.637 4.22173 -2.2651 0
M  V30 2867 H 285.001 2.28849 -1.11804 0
M  V30 2868 H 285.784 2.02905 -2.7692 0
M  V30 2869 N 288.23 0.939286 1.26551 0
M  V30 2870 C 289.193 0.451987 2.24699 0
M  V30 2871 C 290.193 -0.435869 1.5478 0
M  V30 2872 O 291.383 -0.235314 1.72603 0
M  V30 2873 C 288.515 -0.348801 3.39111 0
M  V30 2874 H 289.708 1.3193 2.69322 0
M  V30 2875 H 287.261 0.721072 1.38673 0
M  V30 2876 H 287.996 -1.23444 2.99887 0
M  V30 2877 H 287.781 0.287945 3.91041 0
M  V30 2878 H 289.271 -0.679726 4.12031 0
M  V30 2879 N 289.708 -1.40897 0.706093 0
M  V30 2880 C 290.985 -1.94868 0.169099 0
M  V30 2881 C 291.365 -1.64485 -1.32318 0
M  V30 2882 O 290.713 -0.95744 -2.07474 0
M  V30 2883 C 290.923 -3.45798 0.471654 0
M  V30 2884 C 292.271 -4.22663 0.405127 0
M  V30 2885 O 293.295 -3.53865 0.407168 0
M  V30 2886 O 292.154 -5.45216 0.374383 0
M  V30 2887 H 289.248 -0.82673 0.0211352 0
M  V30 2888 H 291.794 -1.50558 0.782976 0
M  V30 2889 H 290.566 -3.61235 1.50416 0
M  V30 2890 H 290.189 -3.97225 -0.172666 0
M  V30 2891 N 291.186 -0.45159 -1.50991 0
M  V30 2892 C 292.435 0.111653 -2.01391 0
M  V30 2893 C 292.748 1.42529 -1.33959 0
M  V30 2894 O 293.954 2.07232 -1.75405 0
M  V30 2895 C 292.41 0.249514 -3.59034 0
M  V30 2896 C 292.018 -1.05453 -4.35412 0
M  V30 2897 C 293.762 0.765762 -4.17536 0
M  V30 2898 C 291.669 -0.881529 -5.84793 0
M  V30 2899 H 290.599 0.0455022 -0.752626 0
M  V30 2900 H 293.25 -0.583524 -1.73975 0
M  V30 2901 H 291.632 1.00803 -3.82955 0
M  V30 2902 H 292.806 -1.82248 -4.23229 0
M  V30 2903 H 291.121 -1.50039 -3.88429 0
M  V30 2904 H 293.718 0.911913 -5.26866 0
M  V30 2905 H 294.061 1.75201 -3.77638 0
M  V30 2906 H 294.594 0.0651744 -3.97747 0
M  V30 2907 H 291.333 -1.84057 -6.29129 0
M  V30 2908 H 290.853 -0.153625 -5.99603 0
M  V30 2909 H 292.532 -0.540363 -6.4474 0
M  V30 2910 N 292.664 1.56529 -0.183458 0
M  V30 2911 C 293.91 1.97537 0.459036 0
M  V30 2912 C 294.243 1.06989 1.62071 0
M  V30 2913 O 293.518 0.11948 1.94133 0
M  V30 2914 C 293.801 3.47874 0.930368 0
M  V30 2915 C 293.654 4.492 -0.232317 0
M  V30 2916 C 294.973 4.01612 1.79989 0
M  V30 2917 H 292.092 0.718204 0.165383 0
M  V30 2918 H 294.734 1.88042 -0.272038 0
M  V30 2919 H 292.884 3.56095 1.55333 0
M  V30 2920 H 294.556 4.53027 -0.86972 0
M  V30 2921 H 292.799 4.24657 -0.885928 0
M  V30 2922 H 293.47 5.51823 0.139796 0
M  V30 2923 H 295.946 3.96097 1.27461 0
M  V30 2924 H 294.822 5.07195 2.09867 0
M  V30 2925 H 295.083 3.46163 2.74998 0
M  V30 2926 N 294.142 -0.090211 1.57342 0
M  V30 2927 C 295.388 -0.793982 1.86611 0
M  V30 2928 C 295.721 -1.78142 0.773252 0
M  V30 2929 O 294.996 -1.93271 -0.218304 0
M  V30 2930 C 295.279 -1.51839 3.26523 0
M  V30 2931 C 295.132 -0.548609 4.46442 0
M  V30 2932 C 296.451 -2.46779 3.64401 0
M  V30 2933 H 293.57 -0.287186 0.678744 0
M  V30 2934 H 296.212 -0.0575076 1.89913 0
M  V30 2935 H 294.362 -2.14617 3.23839 0
M  V30 2936 H 296.034 0.0725513 4.61243 0
M  V30 2937 H 294.277 0.137614 4.33582 0
M  V30 2938 H 294.948 -1.09271 5.41076 0
M  V30 2939 H 297.424 -1.94089 3.68061 0
M  V30 2940 H 296.3 -2.94479 4.63221 0
M  V30 2941 H 296.561 -3.30758 2.93346 0
M  V30 2942 N 295.62 -1.53406 -0.361157 0
M  V30 2943 C 296.845 -1.74024 -1.12829 0
M  V30 2944 C 297.27 -0.470069 -1.82132 0
M  V30 2945 O 296.628 0.57619 -1.719 0
M  V30 2946 C 296.676 -2.90903 -2.13091 0
M  V30 2947 O 295.78 -2.59821 -3.20261 0
M  V30 2948 H 295.121 -0.577804 -0.327168 0
M  V30 2949 H 297.651 -2.00307 -0.41693 0
M  V30 2950 H 297.661 -3.17194 -2.56616 0
M  V30 2951 H 296.336 -3.83034 -1.62042 0
M  V30 2952 H 294.913 -2.44362 -2.81677 0
M  V30 2953 N 297.098 0.621204 -1.44841 0
M  V30 2954 C 298.338 1.39201 -1.49674 0
M  V30 2955 C 298.702 1.91561 -0.129764 0
M  V30 2956 O 299.903 2.68748 -0.0527814 0
M  V30 2957 C 298.174 2.519 -2.53537 0
M  V30 2958 S 299.733 3.39916 -2.77494 0
M  V30 2959 H 296.551 0.474758 -0.529269 0
M  V30 2960 H 299.153 0.718171 -1.81831 0
M  V30 2961 H 297.857 2.11761 -3.51547 0
M  V30 2962 H 297.388 3.241 -2.22986 0
M  V30 2963 H 299.403 4.49646 -2.0984 0
M  V30 2964 N 298.576 1.31904 0.862503 0
M  V30 2965 C 299.539 1.20131 1.95195 0
M  V30 2966 C 300.539 0.126409 1.60302 0
M  V30 2967 O 301.729 0.376234 1.70089 0
M  V30 2968 C 298.861 0.845691 3.30244 0
M  V30 2969 H 300.054 2.16943 2.07064 0
M  V30 2970 H 297.607 1.15622 1.05172 0
M  V30 2971 H 298.342 -0.120957 3.24074 0
M  V30 2972 H 298.127 1.62276 3.56944 0
M  V30 2973 H 299.617 0.787418 4.10109 0
M  V30 2974 N 300.054 -1.07777 1.14986 0
M  V30 2975 C 301.302 -1.79934 0.920235 0
M  V30 2976 C 301.623 -1.86955 -0.554336 0
M  V30 2977 O 300.893 -1.36731 -1.40291 0
M  V30 2978 H 299.473 -0.666424 0.337473 0
M  V30 2979 H 302.135 -1.3027 1.44968 0
M  V30 2980 H 301.231 -2.82539 1.32583 0
M  V30 2981 N 301.532 -0.945985 -1.26051 0
M  V30 2982 C 302.779 -0.596118 -1.93527 0
M  V30 2983 C 303.107 0.865559 -1.74179 0
M  V30 2984 O 302.362 1.63524 -1.0751 0
M  V30 2985 C 302.661 -0.890475 -3.46129 0
M  V30 2986 C 302.327 -2.3368 -3.85622 0
M  V30 2987 C 300.989 -2.73216 -3.96114 0
M  V30 2988 C 303.341 -3.27648 -4.05334 0
M  V30 2989 C 300.669 -4.05806 -4.2372 0
M  V30 2990 C 303.021 -4.59841 -4.3443 0
M  V30 2991 C 301.685 -4.99185 -4.43137 0
M  V30 2992 H 300.955 -0.218135 -0.708165 0
M  V30 2993 H 303.602 -1.1934 -1.49768 0
M  V30 2994 H 301.907 -0.210711 -3.91233 0
M  V30 2995 H 303.604 -0.598478 -3.96509 0
M  V30 2996 H 300.194 -2.02015 -3.78005 0
M  V30 2997 H 304.378 -2.98298 -3.96651 0
M  V30 2998 H 299.634 -4.35945 -4.28675 0
M  V30 2999 H 303.808 -5.32641 -4.48628 0
M  V30 3000 H 301.435 -6.01952 -4.64282 0
M  V30 3001 N 303.011 1.40521 -0.713556 0
M  V30 3002 C 304.257 2.01714 -0.261382 0
M  V30 3003 C 304.612 1.55562 1.13217 0
M  V30 3004 O 303.905 0.764893 1.7567 0
M  V30 3005 C 304.099 3.56317 -0.278 0
M  V30 3006 C 303.928 4.17476 -1.67163 0
M  V30 3007 C 302.698 4.50998 -2.2788 0
M  V30 3008 C 304.896 4.42472 -2.6215 0
M  V30 3009 N 302.878 4.9754 -3.5962 0
M  V30 3010 C 304.249 4.90985 -3.78594 0
M  V30 3011 C 306.304 4.24508 -2.60188 0
M  V30 3012 C 305.007 5.2342 -4.9338 0
M  V30 3013 C 307.033 4.58043 -3.741 0
M  V30 3014 C 306.395 5.06743 -4.89276 0
M  V30 3015 H 302.494 0.769104 -0.141434 0
M  V30 3016 H 305.078 1.70785 -0.934915 0
M  V30 3017 H 303.249 3.8668 0.36509 0
M  V30 3018 H 304.981 4.0425 0.190695 0
M  V30 3019 H 301.736 4.38062 -1.79997 0
M  V30 3020 H 302.16 5.25196 -4.27198 0
M  V30 3021 H 306.802 3.86078 -1.72348 0
M  V30 3022 H 304.52 5.60765 -5.81866 0
M  V30 3023 H 308.106 4.45785 -3.73854 0
M  V30 3024 H 306.986 5.32204 -5.75959 0
M  V30 3025 N 304.489 0.459591 1.5075 0
M  V30 3026 C 305.737 -0.0991532 2.01857 0
M  V30 3027 C 306.058 -1.41247 1.34441 0
M  V30 3028 O 305.328 -1.89775 0.486022 0
M  V30 3029 H 303.908 -0.039633 0.745948 0
M  V30 3030 H 306.57 0.607387 1.85194 0
M  V30 3031 H 305.666 -0.258998 3.11023 0
M  V30 3032 N 305.967 -1.56429 0.191757 0
M  V30 3033 C 306.93 -2.17707 -0.716688 0
M  V30 3034 C 307.93 -1.13061 -1.14341 0
M  V30 3035 O 309.12 -1.38464 -1.05704 0
M  V30 3036 C 306.252 -2.77644 -1.97804 0
M  V30 3037 H 307.445 -2.99342 -0.1829 0
M  V30 3038 H 304.998 -1.56193 -0.0578566 0
M  V30 3039 H 305.733 -1.99799 -2.55443 0
M  V30 3040 H 305.518 -3.54246 -1.68083 0
M  V30 3041 H 307.008 -3.24708 -2.62592 0
M  V30 3042 N 307.445 0.0818655 -1.57387 0
M  V30 3043 C 308.392 1.09834 -2.0299 0
M  V30 3044 C 309.362 1.39043 -0.908639 0
M  V30 3045 O 310.547 1.50282 -1.17559 0
M  V30 3046 C 307.687 2.40971 -2.47037 0
M  V30 3047 C 306.8 2.18379 -3.7274 0
M  V30 3048 C 305.935 3.43008 -4.0561 0
M  V30 3049 C 304.974 3.15736 -5.24383 0
M  V30 3050 N 304.111 4.32667 -5.52941 0
M  V30 3051 H 308.951 0.702472 -2.89602 0
M  V30 3052 H 306.488 0.33531 -1.43227 0
M  V30 3053 H 308.446 3.1752 -2.70623 0
M  V30 3054 H 307.076 2.78379 -1.63417 0
M  V30 3055 H 306.128 1.32569 -3.56552 0
M  V30 3056 H 307.44 1.94227 -4.59431 0
M  V30 3057 H 306.594 4.27958 -4.30043 0
M  V30 3058 H 305.333 3.70225 -3.17466 0
M  V30 3059 H 304.338 2.2918 -4.99757 0
M  V30 3060 H 305.563 2.8985 -6.14136 0
M  V30 3061 H 303.509 4.59935 -4.67756 0
M  V30 3062 H 303.426 4.11753 -6.34031 0
M  V30 3063 H 304.694 5.18644 -5.81918 0
M  V30 3064 N 308.923 1.53595 0.353017 0
M  V30 3065 C 310.172 1.69603 1.09168 0
M  V30 3066 C 310.485 0.460925 1.90092 0
M  V30 3067 O 311.691 0.501774 2.66823 0
M  V30 3068 C 310.147 2.99872 1.9901 0
M  V30 3069 C 309.755 4.30687 1.23339 0
M  V30 3070 C 311.499 3.25246 2.72792 0
M  V30 3071 C 309.406 5.52036 2.12156 0
M  V30 3072 H 308.336 0.631966 0.411261 0
M  V30 3073 H 310.987 1.80096 0.351802 0
M  V30 3074 H 309.369 2.83212 2.7678 0
M  V30 3075 H 310.543 4.58019 0.505456 0
M  V30 3076 H 308.858 4.11853 0.613663 0
M  V30 3077 H 311.455 4.13095 3.39495 0
M  V30 3078 H 311.798 2.41846 3.38846 0
M  V30 3079 H 312.331 3.42638 2.021 0
M  V30 3080 H 309.07 6.37951 1.50659 0
M  V30 3081 H 308.59 5.28966 2.82764 0
M  V30 3082 H 310.269 5.87313 2.71427 0
M  V30 3083 N 310.401 -0.613514 1.45168 0
M  V30 3084 C 311.649 -1.36997 1.48581 0
M  V30 3085 C 311.97 -1.94589 0.126545 0
M  V30 3086 O 311.24 -1.76816 -0.843372 0
M  V30 3087 H 309.82 -0.508558 0.547154 0
M  V30 3088 H 312.482 -0.720853 1.81079 0
M  V30 3089 H 311.578 -2.1924 2.22127 0
M  V30 3090 N 311.879 -1.3236 -0.855495 0
M  V30 3091 C 312.842 -1.21164 -1.94556 0
M  V30 3092 C 313.842 -0.134908 -1.60233 0
M  V30 3093 O 315.032 -0.385249 -1.69887 0
M  V30 3094 C 312.164 -0.863192 -3.29791 0
M  V30 3095 H 313.357 -2.18038 -2.05911 0
M  V30 3096 H 310.91 -1.16179 -1.04557 0
M  V30 3097 H 311.645 0.103769 -3.24134 0
M  V30 3098 H 311.43 -1.64166 -3.56078 0
M  V30 3099 H 312.92 -0.809156 -4.09686 0
M  V30 3100 N 313.357 1.07166 -1.15556 0
M  V30 3101 C 314.29 2.13808 -0.797593 0
M  V30 3102 C 315.268 1.6101 0.226812 0
M  V30 3103 O 316.452 1.88161 0.112932 0
M  V30 3104 C 313.579 3.38187 -0.186371 0
M  V30 3105 C 312.625 4.09766 -1.18297 0
M  V30 3106 S 313.458 4.60932 -2.72584 0
M  V30 3107 C 314.614 5.88583 -2.12886 0
M  V30 3108 H 314.847 2.43843 -1.70083 0
M  V30 3109 H 312.38 1.19467 -0.978106 0
M  V30 3110 H 314.338 4.10189 0.159837 0
M  V30 3111 H 312.999 3.06326 0.694489 0
M  V30 3112 H 312.192 4.99065 -0.703562 0
M  V30 3113 H 311.794 3.43736 -1.47381 0
M  V30 3114 H 314.086 6.60866 -1.49208 0
M  V30 3115 H 315.029 6.41241 -3.0036 0
M  V30 3116 H 315.437 5.42194 -1.57116 0
M  V30 3117 N 314.835 0.952656 1.25548 0
M  V30 3118 C 316.084 0.602053 1.92505 0
M  V30 3119 C 316.397 -0.864663 1.75451 0
M  V30 3120 O 317.603 -1.32514 2.36965 0
M  V30 3121 C 316.059 1.02607 3.44963 0
M  V30 3122 C 315.667 2.51519 3.70732 0
M  V30 3123 C 317.411 0.747905 4.1786 0
M  V30 3124 C 315.318 2.87732 5.16686 0
M  V30 3125 H 314.248 0.22146 0.720744 0
M  V30 3126 H 316.899 1.15684 1.42441 0
M  V30 3127 H 315.281 0.399712 3.93978 0
M  V30 3128 H 316.455 3.19157 3.32378 0
M  V30 3129 H 314.77 2.76786 3.11092 0
M  V30 3130 H 317.367 0.994647 5.25367 0
M  V30 3131 H 317.71 -0.315629 4.15102 0
M  V30 3132 H 318.243 1.33452 3.74747 0
M  V30 3133 H 314.982 3.93095 5.24554 0
M  V30 3134 H 314.502 2.24765 5.56094 0
M  V30 3135 H 316.181 2.76817 5.84792 0
M  V30 3136 N 316.313 -1.40141 0.720998 0
M  V30 3137 C 317.561 -2.0039 0.262323 0
M  V30 3138 C 317.882 -1.57469 -1.15015 0
M  V30 3139 O 317.152 -0.816582 -1.78069 0
M  V30 3140 H 315.732 -0.741063 0.093996 0
M  V30 3141 H 318.394 -1.71398 0.927835 0
M  V30 3142 H 317.49 -3.10658 0.299671 0
M  V30 3143 N 317.792 -0.46758 -1.50504 0
M  V30 3144 C 318.725 0.374324 -2.25109 0
M  V30 3145 C 319.703 0.99921 -1.28275 0
M  V30 3146 O 320.887 1.03583 -1.57489 0
M  V30 3147 C 318.014 1.52419 -3.02467 0
M  V30 3148 C 317.06 1.01702 -4.14197 0
M  V30 3149 S 317.893 -0.0654477 -5.3546 0
M  V30 3150 C 319.049 1.08837 -6.16365 0
M  V30 3151 H 319.282 -0.258983 -2.9617 0
M  V30 3152 H 316.815 -0.252421 -1.52323 0
M  V30 3153 H 318.773 2.18322 -3.47628 0
M  V30 3154 H 317.434 2.129 -2.30938 0
M  V30 3155 H 316.627 1.87776 -4.67714 0
M  V30 3156 H 316.229 0.435757 -3.71453 0
M  V30 3157 H 318.521 2.00071 -6.47285 0
M  V30 3158 H 319.464 0.592538 -7.05616 0
M  V30 3159 H 319.872 1.34061 -5.4835 0
M  V30 3160 N 319.27 1.56325 -0.20005 0
M  V30 3161 C 320.233 2.18084 0.705132 0
M  V30 3162 C 321.233 1.13666 1.1374 0
M  V30 3163 O 322.423 1.39023 1.04968 0
M  V30 3164 C 319.555 2.78689 1.96329 0
M  V30 3165 H 320.748 2.99435 0.167023 0
M  V30 3166 H 318.301 1.56221 0.0495725 0
M  V30 3167 H 319.036 2.0115 2.5438 0
M  V30 3168 H 318.821 3.55133 1.66202 0
M  V30 3169 H 320.311 3.26096 2.60866 0
M  V30 3170 N 320.748 -0.0735177 1.57428 0
M  V30 3171 C 321.994 -0.774145 1.87443 0
M  V30 3172 C 322.327 -1.77311 0.792103 0
M  V30 3173 O 321.602 -1.93492 -0.197793 0
M  V30 3174 C 321.885 -1.48367 3.28115 0
M  V30 3175 C 321.738 -0.501227 4.46999 0
M  V30 3176 C 323.057 -2.429 3.66998 0
M  V30 3177 H 320.176 -0.279971 0.681752 0
M  V30 3178 H 322.818 -0.0373616 1.89963 0
M  V30 3179 H 320.968 -2.11171 3.26097 0
M  V30 3180 H 322.64 0.121468 4.6114 0
M  V30 3181 H 320.883 0.183593 4.33411 0
M  V30 3182 H 321.554 -1.03526 5.42205 0
M  V30 3183 H 324.03 -1.90175 3.70098 0
M  V30 3184 H 322.906 -2.89549 4.66318 0
M  V30 3185 H 323.167 -3.27628 2.96837 0
M  V30 3186 N 322.226 -1.5378 -0.344866 0
M  V30 3187 C 323.637 -1.62428 -0.920552 0
M  V30 3188 C 323.988 -0.504747 -1.89596 0
M  V30 3189 O 323.113 0.365711 -2.13287 0
M  V30 3190 C 323.708 -2.94419 -1.67639 0
M  V30 3191 C 322.267 -3.05333 -2.20111 0
M  V30 3192 C 321.414 -2.57866 -1.01982 0
M  V30 3193 H 324.365 -1.58222 -0.123042 0
M  V30 3194 H 324.386 -2.83384 -2.53917 0
M  V30 3195 H 323.898 -3.7588 -0.966224 0
M  V30 3196 H 321.999 -2.28502 -2.94308 0
M  V30 3197 H 322.112 -4.10778 -2.46573 0
M  V30 3198 H 320.476 -2.13241 -1.39285 0
M  V30 3199 H 321.259 -3.41765 -0.324308 0
M  V30 3200 N 323.704 0.605807 -1.45491 0
M  V30 3201 C 324.634 1.72709 -1.57143 0
M  V30 3202 C 325.615 1.6476 -0.422884 0
M  V30 3203 O 326.8 1.83132 -0.646247 0
M  V30 3204 C 323.93 3.11316 -1.53948 0
M  V30 3205 C 322.884 3.34077 -2.67537 0
M  V30 3206 C 322.21 4.72975 -2.49397 0
M  V30 3207 C 323.51 3.24158 -4.09535 0
M  V30 3208 H 325.204 1.63214 -2.51001 0
M  V30 3209 H 322.75 0.78379 -1.208 0
M  V30 3210 H 324.703 3.89557 -1.60696 0
M  V30 3211 H 323.427 3.21655 -0.566205 0
M  V30 3212 H 322.086 2.58227 -2.6022 0
M  V30 3213 H 321.734 4.8005 -1.50205 0
M  V30 3214 H 321.434 4.8916 -3.25571 0
M  V30 3215 H 322.958 5.53414 -2.58002 0
M  V30 3216 H 324.372 3.92271 -4.18086 0
M  V30 3217 H 322.769 3.51872 -4.86113 0
M  V30 3218 H 323.839 2.2157 -4.31317 0
M  V30 3219 N 325.182 1.32811 0.848464 0
M  V30 3220 C 326.112 1.24882 1.97299 0
M  V30 3221 C 327.093 0.131357 1.69592 0
M  V30 3222 O 328.278 0.319553 1.91553 0
M  V30 3223 C 325.408 0.97746 3.33261 0
M  V30 3224 C 324.362 2.05682 3.75338 0
M  V30 3225 C 323.688 1.63777 5.09 0
M  V30 3226 C 324.988 3.47254 3.90144 0
M  V30 3227 H 326.682 2.18966 2.04191 0
M  V30 3228 H 324.228 1.05413 0.981029 0
M  V30 3229 H 326.181 0.908513 4.1149 0
M  V30 3230 H 324.905 0.000980011 3.266 0
M  V30 3231 H 323.564 2.11603 2.99366 0
M  V30 3232 H 323.212 0.648569 4.98801 0
M  V30 3233 H 322.912 2.36 5.38124 0
M  V30 3234 H 324.436 1.5833 5.89715 0
M  V30 3235 H 325.85 3.43888 4.58709 0
M  V30 3236 H 324.247 4.1788 4.30693 0
M  V30 3237 H 325.317 3.86462 2.92874 0
M  V30 3238 N 326.66 -1.06551 1.16123 0
M  V30 3239 C 328.071 -1.60768 0.949232 0
M  V30 3240 C 328.422 -1.89523 -0.507508 0
M  V30 3241 O 327.547 -1.66671 -1.38021 0
M  V30 3242 C 328.142 -2.92086 1.71671 0
M  V30 3243 C 326.701 -3.43015 1.54977 0
M  V30 3244 C 325.848 -2.16947 1.72711 0
M  V30 3245 H 328.799 -0.895354 1.31031 0
M  V30 3246 H 328.82 -3.6138 1.19099 0
M  V30 3247 H 328.332 -2.71127 2.7769 0
M  V30 3248 H 326.433 -3.69039 0.513873 0
M  V30 3249 H 326.546 -4.18516 2.33198 0
M  V30 3250 H 324.91 -2.27041 1.15431 0
M  V30 3251 H 325.693 -1.98473 2.80113 0
M  V30 3252 N 328.138 -0.959301 -1.25041 0
M  V30 3253 C 329.068 -0.501388 -2.28053 0
M  V30 3254 C 330.049 0.454673 -1.63911 0
M  V30 3255 O 331.234 0.352618 -1.90972 0
M  V30 3256 C 328.364 0.217224 -3.4662 0
M  V30 3257 C 327.318 -0.654034 -4.22973 0
M  V30 3258 C 326.644 0.195589 -5.34342 0
M  V30 3259 C 327.944 -1.93447 -4.85155 0
M  V30 3260 H 329.638 -1.36238 -2.66608 0
M  V30 3261 H 327.184 -0.656534 -1.28163 0
M  V30 3262 H 329.137 0.548732 -4.17812 0
M  V30 3263 H 327.861 1.1125 -3.07068 0
M  V30 3264 H 326.52 -0.968693 -3.5357 0
M  V30 3265 H 326.168 1.09076 -4.91031 0
M  V30 3266 H 325.868 -0.384091 -5.86343 0
M  V30 3267 H 327.392 0.521958 -6.08365 0
M  V30 3268 H 328.806 -1.66908 -5.48466 0
M  V30 3269 H 327.203 -2.46018 -5.47353 0
M  V30 3270 H 328.273 -2.63466 -4.07079 0
M  V30 3271 N 329.616 1.39756 -0.72842 0
M  V30 3272 C 330.579 2.29012 -0.0927297 0
M  V30 3273 C 331.579 1.45992 0.674025 0
M  V30 3274 O 332.769 1.66749 0.50402 0
M  V30 3275 C 329.901 3.29396 0.878137 0
M  V30 3276 H 331.094 2.86729 -0.879011 0
M  V30 3277 H 328.647 1.48293 -0.493847 0
M  V30 3278 H 329.382 2.76722 1.69101 0
M  V30 3279 H 329.167 3.907 0.331051 0
M  V30 3280 H 330.657 3.96199 1.3197 0
M  V30 3281 N 331.094 0.475555 1.50254 0
M  V30 3282 C 332.044 -0.335025 2.25525 0
M  V30 3283 C 333.028 -0.957625 1.29299 0
M  V30 3284 O 334.22 -0.869436 1.54175 0
M  V30 3285 C 331.349 -1.41385 3.12834 0
M  V30 3286 C 330.435 -0.798762 4.1651 0
M  V30 3287 N 330.826 0.0835815 5.05731 0
M  V30 3288 C 329.124 -1.06221 4.33166 0
M  V30 3289 C 329.825 0.433113 5.80085 0
M  V30 3290 N 328.801 -0.1928 5.43258 0
M  V30 3291 H 332.603 0.344612 2.91873 0
M  V30 3292 H 330.117 0.289986 1.5979 0
M  V30 3293 H 332.114 -2.00777 3.65368 0
M  V30 3294 H 330.774 -2.09543 2.48036 0
M  V30 3295 H 331.785 0.452715 5.15918 0
M  V30 3296 H 328.462 -1.73844 3.79585 0
M  V30 3297 H 329.852 1.15346 6.61925 0
M  V30 3298 N 332.573 -1.56217 0.208337 0
M  V30 3299 C 333.505 -2.1695 -0.739276 0
M  V30 3300 C 334.518 -1.13492 -1.1672 0
M  V30 3301 O 335.707 -1.40529 -1.10063 0
M  V30 3302 C 332.807 -2.72755 -2.01142 0
M  V30 3303 C 331.98 -4.0125 -1.74118 0
M  V30 3304 C 331.039 -4.41749 -2.85909 0
M  V30 3305 O 330.065 -5.08912 -2.54946 0
M  V30 3306 N 331.267 -4.06342 -4.14568 0
M  V30 3307 H 334.032 -2.98893 -0.219837 0
M  V30 3308 H 331.593 -1.61878 0.0268445 0
M  V30 3309 H 333.585 -2.96826 -2.75094 0
M  V30 3310 H 332.155 -1.95191 -2.4417 0
M  V30 3311 H 331.375 -3.85173 -0.838775 0
M  V30 3312 H 332.663 -4.851 -1.53477 0
M  V30 3313 H 332.061 -3.52345 -4.42571 0
M  V30 3314 H 330.618 -4.35335 -4.85105 0
M  V30 3315 N 334.051 0.0651679 -1.57465 0
M  V30 3316 C 335.281 0.774683 -1.91526 0
M  V30 3317 C 335.689 1.71305 -0.803196 0
M  V30 3318 O 335.032 1.82231 0.231881 0
M  V30 3319 C 335.094 1.61645 -3.21109 0
M  V30 3320 C 334.758 0.846753 -4.49087 0
M  V30 3321 C 335.755 0.163024 -5.19644 0
M  V30 3322 C 333.44 0.811966 -4.95694 0
M  V30 3323 C 335.434 -0.54519 -6.35064 0
M  V30 3324 C 333.121 0.0999836 -6.11018 0
M  V30 3325 C 334.119 -0.577388 -6.80555 0
M  V30 3326 O 333.807 -1.27789 -7.93678 0
M  V30 3327 H 333.539 0.225031 -0.637446 0
M  V30 3328 H 336.093 0.0377134 -2.05365 0
M  V30 3329 H 334.323 2.39638 -3.03497 0
M  V30 3330 H 336.012 2.20525 -3.40769 0
M  V30 3331 H 336.778 0.181163 -4.84662 0
M  V30 3332 H 332.657 1.32867 -4.41438 0
M  V30 3333 H 336.201 -1.07446 -6.89276 0
M  V30 3334 H 332.098 0.0797945 -6.45451 0
M  V30 3335 H 332.866 -1.18784 -8.09835 0
M  V30 3336 N 335.529 1.53961 0.336706 0
M  V30 3337 C 336.775 1.7179 1.07777 0
M  V30 3338 C 337.108 0.483263 1.88091 0
M  V30 3339 O 336.383 -0.519747 1.87427 0
M  V30 3340 C 336.666 2.98558 2.01334 0
M  V30 3341 C 336.519 4.32245 1.24437 0
M  V30 3342 C 337.838 3.21023 3.01052 0
M  V30 3343 H 334.957 0.625089 0.390426 0
M  V30 3344 H 337.599 1.86641 0.35567 0
M  V30 3345 H 335.749 2.86028 2.62908 0
M  V30 3346 H 337.421 4.56637 0.654243 0
M  V30 3347 H 335.664 4.30344 0.546458 0
M  V30 3348 H 336.335 5.17137 1.93063 0
M  V30 3349 H 338.811 3.32929 2.49595 0
M  V30 3350 H 337.687 4.11104 3.6371 0
M  V30 3351 H 337.948 2.37637 3.72802 0
M  V30 3352 N 337.007 -0.598083 1.45811 0
M  V30 3353 C 337.954 -1.7082 1.55207 0
M  V30 3354 C 338.924 -1.61278 0.39732 0
M  V30 3355 O 340.109 -1.80717 0.612038 0
M  V30 3356 C 337.249 -3.09144 1.53376 0
M  V30 3357 C 336.362 -3.29423 2.79472 0
M  V30 3358 C 335.497 -4.57907 2.69248 0
M  V30 3359 C 334.536 -4.71476 3.90354 0
M  V30 3360 N 333.673 -5.9127 3.78608 0
M  V30 3361 H 338.513 -1.62125 2.50039 0
M  V30 3362 H 336.05 -0.790389 1.24062 0
M  V30 3363 H 338.008 -3.89186 1.50301 0
M  V30 3364 H 336.638 -3.16773 0.620876 0
M  V30 3365 H 335.69 -2.43091 2.92594 0
M  V30 3366 H 337.002 -3.3532 3.69272 0
M  V30 3367 H 336.156 -5.46157 2.64192 0
M  V30 3368 H 334.895 -4.54423 1.77063 0
M  V30 3369 H 333.9 -3.81648 3.95759 0
M  V30 3370 H 335.125 -4.76751 4.83617 0
M  V30 3371 H 333.071 -5.88813 2.89199 0
M  V30 3372 H 332.988 -5.98369 4.6205 0
M  V30 3373 H 334.256 -6.81992 3.77501 0
M  V30 3374 N 338.485 -1.33259 -0.841409 0
M  V30 3375 C 339.713 -1.27605 -1.62864 0
M  V30 3376 C 340.128 0.153507 -1.88175 0
M  V30 3377 O 339.485 1.09485 -1.46011 0
M  V30 3378 C 339.536 -2.04596 -2.98031 0
M  V30 3379 O 339.257 -3.41975 -2.73834 0
M  V30 3380 C 340.758 -2.06122 -3.92465 0
M  V30 3381 H 337.978 -0.439718 -0.506842 0
M  V30 3382 H 340.522 -1.75591 -1.04824 0
M  V30 3383 H 338.677 -1.60299 -3.5268 0
M  V30 3384 H 339.091 -3.81549 -3.59889 0
M  V30 3385 H 340.565 -2.64451 -4.84531 0
M  V30 3386 H 341.042 -1.05083 -4.26444 0
M  V30 3387 H 341.648 -2.50427 -3.43753 0
M  V30 3388 N 339.963 1.05934 -1.16686 0
M  V30 3389 C 341.191 1.8249 -0.974929 0
M  V30 3390 C 341.606 1.82679 0.476861 0
M  V30 3391 O 340.963 1.2486 1.33103 0
M  V30 3392 C 341.014 3.28943 -1.49929 0
M  V30 3393 O 340.735 3.28886 -2.89423 0
M  V30 3394 C 342.236 4.22215 -1.35089 0
M  V30 3395 H 339.456 0.575295 -0.345365 0
M  V30 3396 H 342 1.33631 -1.548 0
M  V30 3397 H 340.155 3.751 -0.968423 0
M  V30 3398 H 340.569 4.20493 -3.13506 0
M  V30 3399 H 342.043 5.22987 -1.76603 0
M  V30 3400 H 342.52 4.38195 -0.296935 0
M  V30 3401 H 343.126 3.81907 -1.87155 0
M  V30 3402 N 341.441 0.965919 1.2453 0
M  V30 3403 C 342.852 0.665929 1.7442 0
M  V30 3404 C 343.203 -0.818407 1.78316 0
M  V30 3405 O 342.328 -1.64037 1.41141 0
M  V30 3406 C 342.923 1.20211 3.16757 0
M  V30 3407 C 341.482 0.952059 3.6416 0
M  V30 3408 C 340.629 1.33848 2.42858 0
M  V30 3409 H 343.58 1.14144 1.10258 0
M  V30 3410 H 343.601 0.567544 3.76244 0
M  V30 3411 H 343.113 2.28244 3.13889 0
M  V30 3412 H 341.214 -0.112821 3.72429 0
M  V30 3413 H 341.327 1.59645 4.51719 0
M  V30 3414 H 339.691 0.756864 2.43195 0
M  V30 3415 H 340.474 2.42827 2.42673 0
M  V30 3416 N 342.919 -1.39368 0.735821 0
M  V30 3417 C 344.165 -2.00794 0.284544 0
M  V30 3418 C 344.498 -1.58255 -1.12557 0
M  V30 3419 O 343.773 -0.811819 -1.76748 0
M  V30 3420 C 344.056 -3.58011 0.387337 0
M  V30 3421 C 343.909 -4.10566 1.83728 0
M  V30 3422 C 345.228 -4.395 -0.22975 0
M  V30 3423 H 342.347 -0.729501 0.104866 0
M  V30 3424 H 344.989 -1.65564 0.93213 0
M  V30 3425 H 343.139 -3.88154 -0.164006 0
M  V30 3426 H 344.811 -3.91139 2.44556 0
M  V30 3427 H 343.054 -3.64095 2.35833 0
M  V30 3428 H 343.725 -5.19702 1.86047 0
M  V30 3429 H 346.201 -4.15406 0.240257 0
M  V30 3430 H 345.077 -5.48752 -0.127485 0
M  V30 3431 H 345.338 -4.22062 -1.3159 0
M  V30 3432 N 344.397 -0.483516 -1.5 0
M  V30 3433 C 345.808 -0.0314176 -1.86674 0
M  V30 3434 C 346.159 1.37728 -1.39733 0
M  V30 3435 O 345.284 2.02327 -0.767635 0
M  V30 3436 C 345.879 -0.0502376 -3.38763 0
M  V30 3437 C 344.438 0.346442 -3.74802 0
M  V30 3438 C 343.585 -0.430366 -2.7394 0
M  V30 3439 H 346.536 -0.697182 -1.42566 0
M  V30 3440 H 346.557 0.749116 -3.73053 0
M  V30 3441 H 346.069 -1.07563 -3.72897 0
M  V30 3442 H 344.17 1.37572 -3.46273 0
M  V30 3443 H 344.283 0.0391486 -4.79084 0
M  V30 3444 H 342.647 0.117557 -2.54429 0
M  V30 3445 H 343.43 -1.4555 -3.10918 0
M  V30 3446 N 345.875 1.56104 -0.216619 0
M  V30 3447 C 346.838 2.18819 0.681962 0
M  V30 3448 C 347.838 1.14866 1.12528 0
M  V30 3449 O 349.028 1.40128 1.03488 0
M  V30 3450 C 346.16 2.80756 1.93362 0
M  V30 3451 H 347.353 2.99595 0.135254 0
M  V30 3452 H 344.906 1.56265 0.0330003 0
M  V30 3453 H 345.641 2.03837 2.52232 0
M  V30 3454 H 345.426 3.56876 1.62426 0
M  V30 3455 H 346.916 3.28844 2.57393 0
M  V30 3456 N 347.353 -0.0568162 1.57498 0
M  V30 3457 C 348.285 -1.09292 2.01464 0
M  V30 3458 C 349.298 -1.34112 0.922913 0
M  V30 3459 O 350.487 -1.32089 1.20062 0
M  V30 3460 C 347.587 -2.44068 2.35125 0
M  V30 3461 C 346.76 -2.38995 3.66333 0
M  V30 3462 C 345.819 -3.55997 3.87495 0
M  V30 3463 O 344.845 -3.36746 4.58901 0
M  V30 3464 N 346.047 -4.76888 3.30996 0
M  V30 3465 H 348.812 -0.718386 2.90963 0
M  V30 3466 H 346.373 -0.245235 1.60032 0
M  V30 3467 H 348.365 -3.21011 2.46443 0
M  V30 3468 H 346.935 -2.73468 1.5144 0
M  V30 3469 H 346.155 -1.47336 3.65631 0
M  V30 3470 H 347.443 -2.3272 4.52458 0
M  V30 3471 H 346.841 -4.95431 2.73065 0
M  V30 3472 H 345.398 -5.51291 3.47738 0
M  V30 3473 N 348.832 -1.54138 -0.328536 0
M  V30 3474 C 349.764 -1.79509 -1.4251 0
M  V30 3475 C 350.777 -0.67688 -1.48061 0
M  V30 3476 O 351.966 -0.953898 -1.50874 0
M  V30 3477 C 349.066 -1.89337 -2.81078 0
M  V30 3478 C 348.239 -3.19443 -2.98789 0
M  V30 3479 C 347.298 -3.20036 -4.17688 0
M  V30 3480 O 346.324 -3.93697 -4.11086 0
M  V30 3481 N 347.526 -2.43467 -5.26976 0
M  V30 3482 H 350.291 -2.74139 -1.21111 0
M  V30 3483 H 347.852 -1.53373 -0.518499 0
M  V30 3484 H 349.844 -1.87167 -3.58818 0
M  V30 3485 H 348.414 -1.01826 -2.95551 0
M  V30 3486 H 347.634 -3.34614 -2.08391 0
M  V30 3487 H 348.922 -4.05354 -3.07515 0
M  V30 3488 H 348.32 -1.83201 -5.35214 0
M  V30 3489 H 346.877 -2.4708 -6.03154 0
M  V30 3490 N 350.31 0.590341 -1.46126 0
M  V30 3491 C 351.558 1.34616 -1.50742 0
M  V30 3492 C 351.879 1.94363 -0.157486 0
M  V30 3493 O 351.149 1.78136 0.815136 0
M  V30 3494 H 349.729 0.499789 -0.555175 0
M  V30 3495 H 352.391 0.691953 -1.82203 0
M  V30 3496 H 351.487 2.15678 -2.25587 0
M  V30 3497 N 351.788 1.33704 0.83433 0
M  V30 3498 C 353.204 1.13137 1.12571 0
M  V30 3499 C 353.404 -0.0747261 2.01361 0
M  V30 3500 O 352.46 -0.753647 2.4099 0
M  V30 3501 C 353.773 2.42105 1.78342 0
M  V30 3502 C 355.321 2.48054 1.90888 0
M  V30 3503 C 355.796 3.76995 2.60075 0
M  V30 3504 N 357.287 3.78092 2.67584 0
M  V30 3505 C 358.022 4.74574 3.21818 0
M  V30 3506 N 357.518 5.81434 3.76705 0
M  V30 3507 N 359.311 4.62044 3.20112 0
M  V30 3508 H 351.462 2.11 0.243489 0
M  V30 3509 H 353.725 0.932532 0.17055 0
M  V30 3510 H 353.431 3.30391 1.20561 0
M  V30 3511 H 353.305 2.54594 2.7832 0
M  V30 3512 H 355.692 1.60215 2.47821 0
M  V30 3513 H 355.773 2.39502 0.898459 0
M  V30 3514 H 355.417 4.65219 2.03799 0
M  V30 3515 H 355.347 3.82825 3.61597 0
M  V30 3516 H 357.838 3.00865 2.28667 0
M  V30 3517 H 358.151 6.51084 4.16305 0
M  V30 3518 H 356.496 5.85163 3.7498 0
M  V30 3519 H 359.687 3.77716 2.76493 0
M  V30 3520 H 359.86 5.37406 3.62076 0
M  V30 3521 N 353.266 -1.05314 1.17247 0
M  V30 3522 C 354.214 -2.15137 0.884238 0
M  V30 3523 C 355.208 -1.68729 -0.15063 0
M  V30 3524 O 356.414 -1.8 -0.00366673 0
M  V30 3525 H 352.789 -0.702471 0.2684 0
M  V30 3526 H 354.76 -2.36652 1.81764 0
M  V30 3527 C 353.509 -3.45243 0.412659 0
M  V30 3528 H 352.832 -3.81352 1.20043 0
M  V30 3529 H 354.272 -4.23263 0.249858 0
M  V30 3530 C 352.731 -3.25487 -0.86948 0
M  V30 3531 O 353.261 -3.51938 -1.93655 0
M  V30 3532 N 351.467 -2.78875 -0.817147 0
M  V30 3533 H 351.014 -2.57549 0.0514211 0
M  V30 3534 H 350.972 -2.66036 -1.67547 0
M  V30 3535 N 354.744 -0.972509 -1.24016 0
M  V30 3536 C 356.021 -0.553733 -1.87598 0
M  V30 3537 C 356.401 0.969158 -1.87538 0
M  V30 3538 O 355.749 1.84255 -1.35139 0
M  V30 3539 C 355.959 -1.15076 -3.29482 0
M  V30 3540 C 357.307 -1.23862 -4.06132 0
M  V30 3541 O 358.331 -1.10363 -3.38672 0
M  V30 3542 O 357.19 -1.45252 -5.26844 0
M  V30 3543 H 354.284 -0.185331 -0.805966 0
M  V30 3544 H 356.83 -1.06709 -1.31952 0
M  V30 3545 H 355.602 -2.19333 -3.2405 0
M  V30 3546 H 355.225 -0.621746 -3.92709 0
M  V30 3547 N 356.222 1.38976 -0.743202 0
M  V30 3548 C 357.154 2.29096 -0.0689228 0
M  V30 3549 C 358.167 1.47229 0.694791 0
M  V30 3550 O 359.356 1.70212 0.537597 0
M  V30 3551 C 356.456 3.25988 0.926548 0
M  V30 3552 C 355.629 4.36833 0.222647 0
M  V30 3553 C 354.688 5.13981 1.12739 0
M  V30 3554 O 353.714 5.6601 0.601795 0
M  V30 3555 N 354.916 5.25966 2.45641 0
M  V30 3556 H 357.681 2.87604 -0.842846 0
M  V30 3557 H 355.242 1.50645 -0.593109 0
M  V30 3558 H 357.234 3.74476 1.5346 0
M  V30 3559 H 355.804 2.68453 1.60162 0
M  V30 3560 H 355.024 3.90116 -0.565983 0
M  V30 3561 H 356.312 5.0811 -0.264841 0
M  V30 3562 H 355.71 4.85228 2.9081 0
M  V30 3563 H 354.267 5.77865 3.01522 0
M  V30 3564 N 357.7 0.491464 1.49741 0
M  V30 3565 C 359.111 0.0413169 1.86654 0
M  V30 3566 C 359.462 -1.36985 1.40462 0
M  V30 3567 O 358.587 -2.01917 0.778354 0
M  V30 3568 C 359.182 0.0682023 3.38731 0
M  V30 3569 C 357.741 -0.32656 3.74981 0
M  V30 3570 C 356.888 0.444888 2.73708 0
M  V30 3571 H 359.839 0.704733 1.42194 0
M  V30 3572 H 359.86 -0.729322 3.73445 0
M  V30 3573 H 359.372 1.09539 3.72321 0
M  V30 3574 H 357.473 -1.35734 3.46997 0
M  V30 3575 H 357.586 -0.013741 4.79098 0
M  V30 3576 H 355.95 -0.104062 2.54487 0
M  V30 3577 H 356.733 1.47197 3.10142 0
M  V30 3578 N 359.178 -1.55987 0.224894 0
M  V30 3579 C 360.126 -2.21808 -0.700283 0
M  V30 3580 C 361.12 -1.19854 -1.19714 0
M  V30 3581 O 362.326 -1.37925 -1.15658 0
M  V30 3582 H 358.701 -0.711226 -0.244258 0
M  V30 3583 H 360.672 -2.98152 -0.121749 0
M  V30 3584 C 359.421 -2.91444 -1.8962 0
M  V30 3585 H 358.744 -3.69655 -1.52299 0
M  V30 3586 H 360.184 -3.40894 -2.52125 0
M  V30 3587 C 358.643 -1.94098 -2.75368 0
M  V30 3588 O 359.173 -1.46004 -3.74227 0
M  V30 3589 N 357.379 -1.61675 -2.41474 0
M  V30 3590 H 356.926 -2.00979 -1.61137 0
M  V30 3591 H 356.884 -0.968036 -2.99126 0
M  V30 3592 N 360.656 0.0484629 -1.57525 0
M  V30 3593 C 361.904 0.741657 -1.88 0
M  V30 3594 C 362.225 1.76918 -0.820054 0
M  V30 3595 O 361.495 1.95335 0.148661 0
M  V30 3596 H 360.075 0.276908 -0.69378 0
M  V30 3597 H 362.737 0.019013 -1.94891 0
M  V30 3598 H 361.833 1.24336 -2.86264 0
M  V30 3599 N 362.134 1.5431 0.320358 0
M  V30 3600 C 363.097 1.83195 1.3774 0
M  V30 3601 C 364.097 0.703906 1.44575 0
M  V30 3602 O 365.287 0.972214 1.44546 0
M  V30 3603 C 362.419 1.99487 2.76438 0
M  V30 3604 H 363.612 2.77642 1.1338 0
M  V30 3605 H 361.165 1.46076 0.556012 0
M  V30 3606 H 361.9 1.07262 3.06048 0
M  V30 3607 H 361.685 2.81575 2.7287 0
M  V30 3608 H 363.175 2.23271 3.52902 0
M  V30 3609 N 363.613 -0.582584 1.46437 0
M  V30 3610 C 365.029 -0.905962 1.31394 0
M  V30 3611 C 365.229 -1.99468 0.285476 0
M  V30 3612 O 364.285 -2.50566 -0.311914 0
M  V30 3613 C 365.598 -1.3232 2.70022 0
M  V30 3614 C 367.146 -1.43604 2.78113 0
M  V30 3615 C 367.621 -1.88694 4.17323 0
M  V30 3616 N 369.112 -1.95887 4.19741 0
M  V30 3617 C 369.847 -2.32051 5.24347 0
M  V30 3618 N 369.343 -2.67006 6.39281 0
M  V30 3619 N 371.136 -2.32606 5.11713 0
M  V30 3620 H 363.287 0.1366 2.1196 0
M  V30 3621 H 365.55 -0.00155736 0.947999 0
M  V30 3622 H 365.256 -0.597242 3.46592 0
M  V30 3623 H 365.13 -2.28469 3.00136 0
M  V30 3624 H 367.517 -2.15286 2.01832 0
M  V30 3625 H 367.598 -0.457059 2.51684 0
M  V30 3626 H 367.242 -1.1759 4.941 0
M  V30 3627 H 367.172 -2.8755 4.4116 0
M  V30 3628 H 369.663 -1.71362 3.36814 0
M  V30 3629 H 369.976 -2.93554 7.14875 0
M  V30 3630 H 368.321 -2.64644 6.42642 0
M  V30 3631 H 371.512 -2.04721 4.2096 0
M  V30 3632 H 371.685 -2.60462 5.93349 0
M  V30 3633 N 365.091 -1.34144 -0.827227 0
M  V30 3634 C 366.021 -1.28005 -1.95287 0
M  V30 3635 C 367.002 -0.158321 -1.69362 0
M  V30 3636 O 368.187 -0.349987 -1.9102 0
M  V30 3637 C 365.317 -1.03036 -3.31664 0
M  V30 3638 C 364.271 -2.11628 -3.72019 0
M  V30 3639 C 363.597 -1.71854 -5.0633 0
M  V30 3640 C 364.897 -3.53417 -3.8457 0
M  V30 3641 H 366.591 -2.22187 -2.00682 0
M  V30 3642 H 364.137 -1.0696 -0.964135 0
M  V30 3643 H 366.09 -0.973863 -4.09993 0
M  V30 3644 H 364.814 -0.0529391 -3.26557 0
M  V30 3645 H 363.473 -2.16339 -2.95961 0
M  V30 3646 H 363.121 -0.727841 -4.97706 0
M  V30 3647 H 362.821 -2.44531 -5.34302 0
M  V30 3648 H 364.345 -1.67692 -5.87122 0
M  V30 3649 H 365.759 -3.51142 -4.5318 0
M  V30 3650 H 364.156 -4.24679 -4.2399 0
M  V30 3651 H 365.226 -3.91072 -2.86689 0
M  V30 3652 N 366.569 1.04691 -1.17803 0
M  V30 3653 C 367.98 1.59238 -0.974689 0
M  V30 3654 C 368.331 1.90306 0.477292 0
M  V30 3655 O 367.456 1.68846 1.35352 0
M  V30 3656 C 368.051 2.89318 -1.76296 0
M  V30 3657 C 366.61 3.40506 -1.60414 0
M  V30 3658 C 365.757 2.14172 -1.76141 0
M  V30 3659 H 368.708 0.874395 -1.32439 0
M  V30 3660 H 368.729 3.5944 -1.24833 0
M  V30 3661 H 368.241 2.66675 -2.81968 0
M  V30 3662 H 366.342 3.68175 -0.572519 0
M  V30 3663 H 366.455 4.14753 -2.39827 0
M  V30 3664 H 364.819 2.25176 -1.19028 0
M  V30 3665 H 365.602 1.93992 -2.83235 0
M  V30 3666 N 368.047 0.979072 1.23499 0
M  V30 3667 C 369.296 0.642751 1.91185 0
M  V30 3668 C 369.609 -0.827253 1.77245 0
M  V30 3669 O 370.815 -1.27458 2.39722 0
M  V30 3670 C 369.271 1.09901 3.42709 0
M  V30 3671 C 368.879 2.59327 3.65313 0
M  V30 3672 C 370.623 0.836371 4.16179 0
M  V30 3673 C 368.53 2.98627 5.10467 0
M  V30 3674 H 367.46 0.236698 0.715884 0
M  V30 3675 H 370.111 1.1868 1.39955 0
M  V30 3676 H 368.493 0.48319 3.93041 0
M  V30 3677 H 369.667 3.26136 3.25533 0
M  V30 3678 H 367.982 2.83323 3.05151 0
M  V30 3679 H 370.579 1.10586 5.23139 0
M  V30 3680 H 370.922 -0.227509 4.15678 0
M  V30 3681 H 371.455 1.41371 3.71832 0
M  V30 3682 H 368.194 4.04133 5.16098 0
M  V30 3683 H 367.714 2.3651 5.51201 0
M  V30 3684 H 369.393 2.89159 5.78788 0
M  V30 3685 N 369.525 -1.3858 0.750561 0
M  V30 3686 C 370.455 -2.33102 0.136237 0
M  V30 3687 C 371.436 -1.54713 -0.706965 0
M  V30 3688 O 372.621 -1.83043 -0.648769 0
M  V30 3689 C 369.751 -3.38882 -0.760017 0
M  V30 3690 C 368.705 -4.27995 -0.0197785 0
M  V30 3691 C 368.031 -5.24605 -1.03408 0
M  V30 3692 C 369.331 -5.09554 1.14684 0
M  V30 3693 H 371.025 -2.84726 0.925822 0
M  V30 3694 H 368.571 -1.36898 0.446654 0
M  V30 3695 H 370.524 -4.0397 -1.19943 0
M  V30 3696 H 369.248 -2.85734 -1.58189 0
M  V30 3697 H 367.907 -3.64409 0.400184 0
M  V30 3698 H 367.555 -4.67746 -1.84994 0
M  V30 3699 H 367.255 -5.85081 -0.543464 0
M  V30 3700 H 368.779 -5.9257 -1.47288 0
M  V30 3701 H 370.193 -5.67899 0.785118 0
M  V30 3702 H 368.59 -5.7925 1.56812 0
M  V30 3703 H 369.66 -4.4347 1.96118 0
M  V30 3704 N 371.003 -0.499398 -1.49478 0
M  V30 3705 C 372.419 -0.155261 -1.58843 0
M  V30 3706 C 372.619 1.34008 -1.50479 0
M  V30 3707 O 371.675 2.11589 -1.37791 0
M  V30 3708 C 372.988 -0.730636 -2.91689 0
M  V30 3709 C 374.536 -0.696599 -3.0515 0
M  V30 3710 C 375.011 -1.25001 -4.40612 0
M  V30 3711 N 376.502 -1.21064 -4.47099 0
M  V30 3712 C 377.237 -1.60905 -5.50361 0
M  V30 3713 N 376.733 -2.08331 -6.60735 0
M  V30 3714 N 378.526 -1.52331 -5.41065 0
M  V30 3715 H 370.677 -1.47162 -1.53158 0
M  V30 3716 H 372.94 -0.610309 -0.725415 0
M  V30 3717 H 372.646 -1.77928 -3.03372 0
M  V30 3718 H 372.52 -0.190161 -3.7672 0
M  V30 3719 H 374.907 0.343204 -2.93097 0
M  V30 3720 H 374.988 -1.2742 -2.21806 0
M  V30 3721 H 374.632 -2.28859 -4.53416 0
M  V30 3722 H 374.562 -0.64836 -5.22593 0
M  V30 3723 H 377.053 -0.863128 -3.67911 0
M  V30 3724 H 377.366 -2.36805 -7.35624 0
M  V30 3725 H 375.711 -2.12304 -6.6178 0
M  V30 3726 H 378.902 -1.151 -4.53729 0
M  V30 3727 H 379.075 -1.83704 -6.21415 0
M  V30 3728 N 372.481 1.55866 -0.233164 0
M  V30 3729 C 373.431 2.17442 0.685774 0
M  V30 3730 C 374.415 1.12617 1.14918 0
M  V30 3731 O 375.607 1.3857 1.10124 0
M  V30 3732 C 372.736 2.86685 1.88856 0
M  V30 3733 C 371.822 3.98749 1.4443 0
M  V30 3734 N 372.213 5.00744 0.713364 0
M  V30 3735 C 370.511 4.11052 1.73068 0
M  V30 3736 C 371.212 5.79673 0.485205 0
M  V30 3737 N 370.188 5.33454 1.04536 0
M  V30 3738 H 373.99 2.93659 0.119022 0
M  V30 3739 H 371.504 1.62362 -0.0348995 0
M  V30 3740 H 373.501 3.29218 2.55776 0
M  V30 3741 H 372.161 2.11967 2.45967 0
M  V30 3742 H 373.172 5.16613 0.364861 0
M  V30 3743 H 369.849 3.47495 2.31416 0
M  V30 3744 H 371.239 6.71829 -0.097365 0
M  V30 3745 N 373.959 -0.0401083 1.57549 0
M  V30 3746 C 374.891 -1.07149 2.02612 0
M  V30 3747 C 375.904 -1.33126 0.937085 0
M  V30 3748 O 377.093 -1.30808 1.21456 0
M  V30 3749 C 374.193 -2.41561 2.37701 0
M  V30 3750 C 373.366 -2.35096 3.68848 0
M  V30 3751 C 372.425 -3.51867 3.91249 0
M  V30 3752 O 371.451 -3.3186 4.62447 0
M  V30 3753 N 372.653 -4.73351 3.36035 0
M  V30 3754 H 375.418 -0.687485 2.91708 0
M  V30 3755 H 372.979 -0.228248 1.60283 0
M  V30 3756 H 374.971 -3.18379 2.49833 0
M  V30 3757 H 373.541 -2.71846 1.54332 0
M  V30 3758 H 372.761 -1.4345 3.67173 0
M  V30 3759 H 374.049 -2.27908 4.54901 0
M  V30 3760 H 373.447 -4.92507 2.78304 0
M  V30 3761 H 372.004 -5.47572 3.53565 0
M  V30 3762 N 375.437 -1.54477 -0.31217 0
M  V30 3763 C 376.714 -1.63891 -1.06767 0
M  V30 3764 C 377.094 -0.480028 -2.0557 0
M  V30 3765 O 376.442 0.524487 -2.22399 0
M  V30 3766 C 376.652 -3.01402 -1.75948 0
M  V30 3767 C 378 -3.57838 -2.28554 0
M  V30 3768 O 379.024 -3.03782 -1.85998 0
M  V30 3769 O 377.883 -4.52462 -3.06497 0
M  V30 3770 H 374.977 -0.664125 -0.492816 0
M  V30 3771 H 377.523 -1.66823 -0.311149 0
M  V30 3772 H 376.295 -3.77187 -1.04144 0
M  V30 3773 H 375.918 -3.02199 -2.58383 0
M  V30 3774 N 376.915 0.57481 -1.46744 0
M  V30 3775 C 377.847 1.69804 -1.53946 0
M  V30 3776 C 378.86 1.57098 -0.427106 0
M  V30 3777 O 380.049 1.64378 -0.695863 0
M  V30 3778 C 377.149 3.08125 -1.4111 0
M  V30 3779 C 376.322 3.46757 -2.66605 0
M  V30 3780 C 375.381 4.6417 -2.47855 0
M  V30 3781 O 374.407 4.69634 -3.21609 0
M  V30 3782 N 375.609 5.59553 -1.54534 0
M  V30 3783 H 378.374 1.64077 -2.50796 0
M  V30 3784 H 375.935 0.761 -1.429 0
M  V30 3785 H 377.927 3.84478 -1.26328 0
M  V30 3786 H 376.497 3.08175 -0.524109 0
M  V30 3787 H 375.717 2.6003 -2.96274 0
M  V30 3788 H 377.005 3.69337 -3.49954 0
M  V30 3789 H 376.403 5.57881 -0.937304 0
M  V30 3790 H 374.96 6.35304 -1.45711 0
M  V30 3791 N 378.394 1.34581 0.820102 0
M  V30 3792 C 379.671 1.17675 1.56244 0
M  V30 3793 C 380.051 -0.249541 2.0962 0
M  V30 3794 O 379.399 -1.25125 1.91196 0
M  V30 3795 C 379.609 2.23364 2.6816 0
M  V30 3796 C 380.957 2.58485 3.36854 0
M  V30 3797 O 381.981 2.22175 2.78418 0
M  V30 3798 O 380.84 3.20868 4.42386 0
M  V30 3799 H 377.934 0.456333 0.689702 0
M  V30 3800 H 380.48 1.46222 0.861231 0
M  V30 3801 H 379.252 3.19087 2.26493 0
M  V30 3802 H 378.875 1.96009 3.45928 0
M  V30 3803 N 379.872 -1.04064 1.18357 0
M  V30 3804 C 380.802 -2.14001 0.934113 0
M  V30 3805 C 381.783 -1.69616 -0.128186 0
M  V30 3806 O 382.968 -1.94185 0.0244093 0
M  V30 3807 C 380.098 -3.44253 0.459066 0
M  V30 3808 C 379.052 -4.02261 1.46185 0
M  V30 3809 C 378.378 -5.27992 0.844322 0
M  V30 3810 C 379.678 -4.38432 2.83856 0
M  V30 3811 H 381.372 -2.35127 1.85352 0
M  V30 3812 H 378.918 -1.12998 0.892604 0
M  V30 3813 H 380.871 -4.20522 0.271907 0
M  V30 3814 H 379.595 -3.22813 -0.495912 0
M  V30 3815 H 378.254 -3.28074 1.63595 0
M  V30 3816 H 377.902 -5.02862 -0.117845 0
M  V30 3817 H 377.602 -5.67765 1.51384 0
M  V30 3818 H 379.126 -6.06938 0.667693 0
M  V30 3819 H 380.54 -5.05688 2.70098 0
M  V30 3820 H 378.937 -4.89254 3.47491 0
M  V30 3821 H 380.007 -3.4826 3.37406 0
M  V30 3822 N 381.35 -0.985608 -1.22978 0
M  V30 3823 C 382.58 -0.674603 -1.95276 0
M  V30 3824 C 382.988 0.763483 -1.73111 0
M  V30 3825 O 382.331 1.52601 -1.02268 0
M  V30 3826 C 382.393 -0.891597 -3.48268 0
M  V30 3827 C 382.057 -2.31275 -3.94158 0
M  V30 3828 C 383.054 -3.29179 -4.02415 0
M  V30 3829 C 380.739 -2.64524 -4.27004 0
M  V30 3830 C 382.733 -4.58407 -4.42879 0
M  V30 3831 C 380.42 -3.93974 -4.67149 0
M  V30 3832 C 381.418 -4.90727 -4.75053 0
M  V30 3833 O 381.106 -6.17865 -5.14294 0
M  V30 3834 H 380.838 -0.249251 -0.628371 0
M  V30 3835 H 383.392 -1.32106 -1.5728 0
M  V30 3836 H 381.622 -0.187962 -3.86243 0
M  V30 3837 H 383.311 -0.576957 -4.01779 0
M  V30 3838 H 384.077 -3.04823 -3.77237 0
M  V30 3839 H 379.956 -1.89923 -4.2006 0
M  V30 3840 H 383.5 -5.33926 -4.48964 0
M  V30 3841 H 379.397 -4.18122 -4.91777 0
M  V30 3842 H 380.165 -6.21694 -5.32389 0
M  V30 3843 N 382.828 1.3818 -0.7579 0
M  V30 3844 C 384.058 2.04004 -0.326463 0
M  V30 3845 C 384.466 1.57286 1.05156 0
M  V30 3846 O 383.809 0.743144 1.67997 0
M  V30 3847 C 383.871 3.58444 -0.275402 0
M  V30 3848 C 383.535 4.28237 -1.59569 0
M  V30 3849 C 384.532 4.53312 -2.54566 0
M  V30 3850 C 382.217 4.66341 -1.86631 0
M  V30 3851 C 384.211 5.15531 -3.74842 0
M  V30 3852 C 381.898 5.28283 -3.0718 0
M  V30 3853 C 382.896 5.52814 -4.01106 0
M  V30 3854 O 382.584 6.13465 -5.19534 0
M  V30 3855 H 382.316 0.662026 -0.136739 0
M  V30 3856 H 384.87 1.7777 -1.02893 0
M  V30 3857 H 383.1 3.83667 0.483337 0
M  V30 3858 H 384.789 4.05701 0.127099 0
M  V30 3859 H 385.555 4.24299 -2.34936 0
M  V30 3860 H 381.434 4.46591 -1.14358 0
M  V30 3861 H 384.978 5.34594 -4.48168 0
M  V30 3862 H 380.875 5.56719 -3.26702 0
M  V30 3863 H 381.643 6.31951 -5.20173 0
M  V30 3864 N 384.306 0.507319 1.49211 0
M  V30 3865 C 385.722 0.163682 1.58758 0
M  V30 3866 C 385.922 -1.33208 1.51188 0
M  V30 3867 O 384.978 -2.10855 1.38911 0
M  V30 3868 C 386.291 0.746095 2.91297 0
M  V30 3869 C 387.839 0.712773 3.04776 0
M  V30 3870 C 388.314 1.27336 4.39943 0
M  V30 3871 N 389.805 1.23433 4.46451 0
M  V30 3872 C 390.54 1.63821 5.495 0
M  V30 3873 N 390.036 2.11832 6.5962 0
M  V30 3874 N 391.829 1.55198 5.4025 0
M  V30 3875 H 383.98 1.47972 1.52375 0
M  V30 3876 H 386.243 0.614147 0.722168 0
M  V30 3877 H 385.949 1.79534 3.02424 0
M  V30 3878 H 385.823 0.210137 3.76614 0
M  V30 3879 H 388.21 -0.327656 2.93275 0
M  V30 3880 H 388.291 1.28595 2.21127 0
M  V30 3881 H 387.935 2.3126 4.52196 0
M  V30 3882 H 387.865 0.676066 5.22242 0
M  V30 3883 H 390.356 0.882627 3.67448 0
M  V30 3884 H 390.669 2.40703 7.34358 0
M  V30 3885 H 389.014 2.1581 6.60644 0
M  V30 3886 H 392.205 1.17505 4.53112 0
M  V30 3887 H 392.378 1.86997 6.20432 0
M  V30 3888 N 385.784 -1.5574 0.241426 0
M  V30 3889 C 386.694 -2.2479 -0.671305 0
M  V30 3890 C 387.71 -1.26217 -1.19772 0
M  V30 3891 O 388.886 -1.59079 -1.23514 0
M  V30 3892 C 385.951 -2.92966 -1.85396 0
M  V30 3893 C 385.012 -4.06935 -1.36756 0
M  V30 3894 C 384.245 -4.71851 -2.49384 0
M  V30 3895 O 384.468 -4.35823 -3.67987 0
M  V30 3896 O 383.402 -5.60467 -2.19454 0
M  V30 3897 H 387.228 -3.0349 -0.112966 0
M  V30 3898 H 384.813 -1.49397 0.0101513 0
M  V30 3899 H 386.695 -3.35927 -2.54423 0
M  V30 3900 H 385.37 -2.17211 -2.40002 0
M  V30 3901 H 384.277 -3.68503 -0.644726 0
M  V30 3902 H 385.61 -4.84492 -0.867647 0
M  V30 3903 N 387.262 0.0317525 -1.57568 0
M  V30 3904 C 388.212 1.04101 -2.02847 0
M  V30 3905 C 389.196 1.3219 -0.917317 0
M  V30 3906 O 390.388 1.31819 -1.18121 0
M  V30 3907 C 387.517 2.34295 -2.5092 0
M  V30 3908 C 386.603 2.09308 -3.68851 0
M  V30 3909 N 386.994 1.5437 -4.81667 0
M  V30 3910 C 385.292 2.39604 -3.76172 0
M  V30 3911 C 385.993 1.45126 -5.63306 0
M  V30 3912 N 384.969 1.92589 -5.08341 0
M  V30 3913 H 388.771 0.610217 -2.87495 0
M  V30 3914 H 386.285 0.238108 -1.60645 0
M  V30 3915 H 388.282 3.07404 -2.81617 0
M  V30 3916 H 386.942 2.78055 -1.67677 0
M  V30 3917 H 387.953 1.22678 -5.03161 0
M  V30 3918 H 384.63 2.86457 -3.03724 0
M  V30 3919 H 386.02 1.03163 -6.63933 0
M  V30 3920 N 388.74 1.54641 0.303973 0
M  V30 3921 C 389.988 1.73437 1.0375 0
M  V30 3922 C 390.309 0.521449 1.87899 0
M  V30 3923 O 389.579 -0.46432 1.90318 0
M  V30 3924 H 388.159 0.639518 0.386039 0
M  V30 3925 H 390.821 1.91988 0.335675 0
M  V30 3926 H 389.917 2.62235 1.69231 0
M  V30 3927 N 390.218 -0.567019 1.47046 0
M  V30 3928 C 391.495 -1.3276 1.43646 0
M  V30 3929 C 391.875 -2.1071 0.128186 0
M  V30 3930 O 391.223 -2.10441 -0.890326 0
M  V30 3931 C 391.433 -2.2404 2.67595 0
M  V30 3932 C 392.781 -2.85372 3.14401 0
M  V30 3933 O 393.805 -2.34346 2.68254 0
M  V30 3934 O 392.664 -3.78091 3.946 0
M  V30 3935 H 389.758 -0.597293 0.571988 0
M  V30 3936 H 392.304 -0.586735 1.59234 0
M  V30 3937 H 391.076 -1.65975 3.54356 0
M  V30 3938 H 390.699 -3.05439 2.54544 0
M  V30 3939 N 391.696 -1.35014 -0.812953 0
M  V30 3940 C 393.112 -1.14914 -1.10757 0
M  V30 3941 C 393.312 0.0426818 -2.01455 0
M  V30 3942 O 392.368 0.715212 -2.42159 0
M  V30 3943 C 393.681 -2.44911 -1.74468 0
M  V30 3944 C 395.229 -2.5106 -1.86917 0
M  V30 3945 C 395.704 -3.81085 -2.54044 0
M  V30 3946 N 397.195 -3.82301 -2.61535 0
M  V30 3947 C 397.93 -4.79634 -3.14227 0
M  V30 3948 N 397.426 -5.87353 -3.67407 0
M  V30 3949 N 399.219 -4.67078 -3.12721 0
M  V30 3950 H 391.37 -2.1136 -0.20989 0
M  V30 3951 H 393.633 -0.935128 -0.155692 0
M  V30 3952 H 393.339 -3.32267 -1.15289 0
M  V30 3953 H 393.213 -2.58989 -2.74234 0
M  V30 3954 H 395.6 -1.64137 -2.45241 0
M  V30 3955 H 395.681 -2.40901 -0.860242 0
M  V30 3956 H 395.325 -4.68402 -1.96372 0
M  V30 3957 H 395.255 -3.88529 -3.55461 0
M  V30 3958 H 397.746 -3.04465 -2.23851 0
M  V30 3959 H 398.059 -6.57624 -4.05894 0
M  V30 3960 H 396.404 -5.91054 -3.65623 0
M  V30 3961 H 399.595 -3.82067 -2.70449 0
M  V30 3962 H 399.768 -5.43098 -3.53481 0
M  V30 3963 N 393.175 1.03435 -1.18907 0
M  V30 3964 C 394.405 1.8012 -1.01195 0
M  V30 3965 C 394.813 1.8395 0.442613 0
M  V30 3966 O 394.156 1.27836 1.31923 0
M  V30 3967 C 394.218 3.26792 -1.49823 0
M  V30 3968 C 393.882 3.46609 -2.97844 0
M  V30 3969 C 394.879 3.37278 -3.95651 0
M  V30 3970 C 392.564 3.73001 -3.36416 0
M  V30 3971 C 394.558 3.54054 -5.30023 0
M  V30 3972 C 392.245 3.89423 -4.70949 0
M  V30 3973 C 393.243 3.79951 -5.67562 0
M  V30 3974 O 392.931 3.95895 -6.99659 0
M  V30 3975 H 392.663 0.573865 -0.357289 0
M  V30 3976 H 395.217 1.31207 -1.58031 0
M  V30 3977 H 393.447 3.76703 -0.873578 0
M  V30 3978 H 395.136 3.85055 -1.28404 0
M  V30 3979 H 395.902 3.16846 -3.67197 0
M  V30 3980 H 391.781 3.79469 -2.61772 0
M  V30 3981 H 395.325 3.46577 -6.05417 0
M  V30 3982 H 391.222 4.09351 -4.99101 0
M  V30 3983 H 391.99 4.13019 -7.06653 0
M  V30 3984 N 394.653 0.992116 1.22453 0
M  V30 3985 C 395.901 0.666215 1.90804 0
M  V30 3986 C 396.222 -0.804152 1.77647 0
M  V30 3987 O 395.492 -1.57629 1.16318 0
M  V30 3988 H 394.072 0.243423 0.706225 0
M  V30 3989 H 396.734 1.25845 1.48825 0
M  V30 3990 H 395.83 0.928069 2.97982 0
M  V30 3991 N 396.131 -1.37776 0.765217 0
M  V30 3992 C 397.38 -1.99092 0.323307 0
M  V30 3993 C 397.693 -1.61434 -1.10446 0
M  V30 3994 O 398.899 -2.15805 -1.64743 0
M  V30 3995 C 397.355 -3.56019 0.527098 0
M  V30 3996 C 396.963 -4.0262 1.96471 0
M  V30 3997 C 398.707 -4.2424 0.148483 0
M  V30 3998 C 396.614 -5.52233 2.11644 0
M  V30 3999 H 395.544 -0.744846 0.117137 0
M  V30 4000 H 398.195 -1.57391 0.943417 0
M  V30 4001 H 396.577 -3.95667 -0.162372 0
M  V30 4002 H 397.751 -3.74234 2.68859 0
M  V30 4003 H 396.066 -3.47161 2.29931 0
M  V30 4004 H 398.663 -5.34159 0.240456 0
M  V30 4005 H 399.006 -4.06446 -0.900422 0
M  V30 4006 H 399.539 -3.89872 0.79025 0
M  V30 4007 H 396.278 -5.74945 3.1483 0
M  V30 4008 H 395.798 -5.82324 1.4373 0
M  V30 4009 H 397.477 -6.18106 1.91193 0
M  V30 4010 N 397.609 -0.515225 -1.4894 0
M  V30 4011 C 398.857 0.0241671 -2.02086 0
M  V30 4012 C 399.178 1.3616 -1.3959 0
M  V30 4013 O 398.448 1.87841 -0.556121 0
M  V30 4014 H 397.028 0.0119203 -0.746905 0
M  V30 4015 H 399.69 -0.675702 -1.82812 0
M  V30 4016 H 398.786 0.143385 -3.1177 0
M  V30 4017 N 399.087 1.5561 -0.249682 0
M  V30 4018 C 400.312 2.03865 0.381305 0
M  V30 4019 C 400.737 1.12769 1.50548 0
M  V30 4020 O 400.095 0.121189 1.80895 0
M  V30 4021 C 400.143 3.50101 0.863816 0
M  V30 4022 O 399.247 3.62132 1.97318 0
M  V30 4023 H 398.588 0.658827 0.0827194 0
M  V30 4024 H 401.118 2.01105 -0.376552 0
M  V30 4025 H 401.128 3.90975 1.1663 0
M  V30 4026 H 399.803 4.1588 0.0411816 0
M  V30 4027 H 398.38 3.33155 1.67517 0
M  V30 4028 N 400.565 -0.0233959 1.57583 0
M  V30 4029 C 401.795 -0.723631 1.93513 0
M  V30 4030 C 402.203 -1.69115 0.848333 0
M  V30 4031 O 401.546 -1.82781 -0.183484 0
M  V30 4032 C 401.608 -1.53075 3.25282 0
M  V30 4033 C 401.272 -0.727388 4.51174 0
M  V30 4034 C 402.269 -0.0251924 5.19894 0
M  V30 4035 C 399.954 -0.680256 4.97672 0
M  V30 4036 C 401.948 0.713374 6.33395 0
M  V30 4037 C 399.635 0.0620523 6.11068 0
M  V30 4038 C 400.633 0.757622 6.78785 0
M  V30 4039 O 400.321 1.48787 7.90011 0
M  V30 4040 H 400.053 -0.208051 0.643188 0
M  V30 4041 H 402.607 0.0167489 2.05393 0
M  V30 4042 H 400.837 -2.31508 3.09744 0
M  V30 4043 H 402.526 -2.11413 3.46496 0
M  V30 4044 H 403.292 -0.0526003 4.84971 0
M  V30 4045 H 399.171 -1.21116 4.44805 0
M  V30 4046 H 402.715 1.25683 6.86185 0
M  V30 4047 H 398.612 0.0913634 6.45435 0
M  V30 4048 H 399.38 1.40213 8.06401 0
M  V30 4049 N 402.043 -1.548 -0.295768 0
M  V30 4050 C 403.006 -1.85363 -1.34808 0
M  V30 4051 C 404.006 -0.726817 -1.43436 0
M  V30 4052 O 405.196 -0.995088 -1.42981 0
M  V30 4053 C 402.328 -2.03859 -2.73229 0
M  V30 4054 H 403.521 -2.7941 -1.08949 0
M  V30 4055 H 401.074 -1.46942 -0.532702 0
M  V30 4056 H 401.809 -1.12117 -3.04303 0
M  V30 4057 H 401.594 -2.8588 -2.68356 0
M  V30 4058 H 403.084 -2.28857 -3.49305 0
M  V30 4059 N 403.521 0.559213 -1.47345 0
M  V30 4060 C 404.471 1.66192 -1.5609 0
M  V30 4061 C 405.455 1.55323 -0.419957 0
M  V30 4062 O 406.647 1.63839 -0.669762 0
M  V30 4063 C 403.776 3.0497 -1.57634 0
M  V30 4064 C 402.862 3.2105 -2.77106 0
M  V30 4065 N 403.253 3.07203 -4.01821 0
M  V30 4066 C 401.551 3.52046 -2.73825 0
M  V30 4067 C 402.252 3.25919 -4.81821 0
M  V30 4068 N 401.228 3.52161 -4.14106 0
M  V30 4069 H 405.03 1.54052 -2.5029 0
M  V30 4070 H 402.544 0.763914 -1.43311 0
M  V30 4071 H 404.541 3.84142 -1.61989 0
M  V30 4072 H 403.201 3.18224 -0.645281 0
M  V30 4073 H 404.212 2.84572 -4.32711 0
M  V30 4074 H 400.889 3.71839 -1.89848 0
M  V30 4075 H 402.279 3.20198 -5.90697 0
M  V30 4076 N 404.999 1.35443 0.805782 0
M  V30 4077 C 406.415 1.15499 1.10146 0
M  V30 4078 C 406.615 -0.0319975 2.01475 0
M  V30 4079 O 405.671 -0.70236 2.42535 0
M  V30 4080 C 406.984 2.45833 1.73166 0
M  V30 4081 C 408.532 2.52047 1.85583 0
M  V30 4082 C 409.007 3.82427 2.52019 0
M  V30 4083 N 410.498 3.83682 2.59504 0
M  V30 4084 C 411.233 4.81294 3.11679 0
M  V30 4085 N 410.729 5.89294 3.64287 0
M  V30 4086 N 412.522 4.6873 3.1024 0
M  V30 4087 H 404.673 2.11469 0.198678 0
M  V30 4088 H 406.936 0.93594 0.150731 0
M  V30 4089 H 406.642 3.32874 1.13526 0
M  V30 4090 H 406.516 2.6044 2.72857 0
M  V30 4091 H 408.903 1.65435 2.44367 0
M  V30 4092 H 408.984 2.41354 0.847455 0
M  V30 4093 H 408.628 4.69437 1.93885 0
M  V30 4094 H 408.558 3.90409 3.53395 0
M  V30 4095 H 411.049 3.05648 2.22234 0
M  V30 4096 H 411.362 6.59768 4.02401 0
M  V30 4097 H 409.707 5.92985 3.62483 0
M  V30 4098 H 412.898 3.83496 2.68419 0
M  V30 4099 H 413.071 5.44965 3.50596 0
M  V30 4100 N 406.477 -1.02803 1.19454 0
M  V30 4101 C 407.888 -1.57667 0.999899 0
M  V30 4102 C 408.239 -1.91041 -0.446956 0
M  V30 4103 O 407.364 -1.70978 -1.32648 0
M  V30 4104 C 407.959 -2.86477 1.80877 0
M  V30 4105 C 406.518 -3.37911 1.65811 0
M  V30 4106 C 405.665 -2.11343 1.79526 0
M  V30 4107 H 408.616 -0.853214 1.33813 0
M  V30 4108 H 408.637 -3.57408 1.30536 0
M  V30 4109 H 408.149 -2.62155 2.86175 0
M  V30 4110 H 406.25 -3.67218 0.63102 0
M  V30 4111 H 406.363 -4.10885 2.46395 0
M  V30 4112 H 404.727 -2.23254 1.22596 0
M  V30 4113 H 405.51 -1.89461 2.86285 0
M  V30 4114 N 407.956 -0.998596 -1.21925 0
M  V30 4115 C 408.889 -0.498517 -2.22688 0
M  V30 4116 C 409.867 0.444301 -1.56412 0
M  V30 4117 O 411.051 0.368518 -1.84863 0
M  V30 4118 C 408.178 0.276639 -3.37568 0
M  V30 4119 C 407.224 -0.61302 -4.22071 0
M  V30 4120 S 408.057 -2.07168 -4.93803 0
M  V30 4121 C 409.213 -1.30617 -6.12119 0
M  V30 4122 H 409.446 -1.35234 -2.64762 0
M  V30 4123 H 406.979 -0.806018 -1.31692 0
M  V30 4124 H 408.937 0.717817 -4.04175 0
M  V30 4125 H 407.598 1.10581 -2.93991 0
M  V30 4126 H 406.791 -0.0162909 -5.03997 0
M  V30 4127 H 406.393 -0.991202 -3.60626 0
M  V30 4128 H 408.685 -0.57675 -6.75041 0
M  V30 4129 H 409.628 -2.10091 -6.76215 0
M  V30 4130 H 410.036 -0.816957 -5.58557 0
M  V30 4131 N 409.434 1.37368 -0.772513 0
M  V30 4132 C 410.845 1.8231 -0.402493 0
M  V30 4133 C 411.196 1.6436 1.07146 0
M  V30 4134 O 410.321 1.15514 1.82991 0
M  V30 4135 C 410.916 3.30979 -0.723776 0
M  V30 4136 C 409.475 3.74195 -0.406802 0
M  V30 4137 C 408.622 2.59885 -0.967218 0
M  V30 4138 H 411.573 1.25829 -0.967099 0
M  V30 4139 H 411.594 3.80499 -0.00870832 0
M  V30 4140 H 411.106 3.44011 -1.7966 0
M  V30 4141 H 409.207 3.66732 0.658673 0
M  V30 4142 H 409.32 4.7027 -0.915588 0
M  V30 4143 H 407.684 2.51674 -0.391416 0
M  V30 4144 H 408.467 2.7571 -2.04546 0
M  V30 4145 N 410.912 0.523116 1.48665 0
M  V30 4146 C 412.158 -0.0134963 2.02796 0
M  V30 4147 C 412.491 -1.34582 1.40004 0
M  V30 4148 O 411.766 -1.86756 0.543381 0
M  V30 4149 C 412.049 -0.14276 3.59817 0
M  V30 4150 C 411.902 1.21425 4.331 0
M  V30 4151 C 413.221 -0.872856 4.31357 0
M  V30 4152 H 410.34 -0.00343074 0.736992 0
M  V30 4153 H 412.982 0.678816 1.7746 0
M  V30 4154 H 411.132 -0.732401 3.81534 0
M  V30 4155 H 412.804 1.84447 4.2282 0
M  V30 4156 H 411.047 1.79791 3.94788 0
M  V30 4157 H 411.718 1.07687 5.41394 0
M  V30 4158 H 414.194 -0.372555 4.14429 0
M  V30 4159 H 413.07 -0.932185 5.40927 0
M  V30 4160 H 413.331 -1.92161 3.98154 0
M  V30 4161 N 412.39 -1.55475 0.257931 0
M  V30 4162 C 413.667 -1.91155 -0.414629 0
M  V30 4163 C 414.047 -1.18008 -1.75035 0
M  V30 4164 O 413.395 -0.301193 -2.26506 0
M  V30 4165 C 413.605 -3.44283 -0.571859 0
M  V30 4166 C 414.953 -4.15744 -0.862678 0
M  V30 4167 O 415.977 -3.50083 -0.657314 0
M  V30 4168 O 414.836 -5.31909 -1.2544 0
M  V30 4169 H 411.93 -0.796016 -0.22425 0
M  V30 4170 H 414.476 -1.66976 0.302814 0
M  V30 4171 H 413.248 -3.89558 0.368844 0
M  V30 4172 H 412.871 -3.7436 -1.33943 0
M  V30 4173 N 413.868 0.0150385 -1.57593 0
M  V30 4174 C 415.114 0.704043 -1.90187 0
M  V30 4175 C 415.447 1.74249 -0.857366 0
M  V30 4176 O 414.722 1.94092 0.125843 0
M  V30 4177 C 415.005 1.36087 -3.33395 0
M  V30 4178 C 414.858 0.334981 -4.48551 0
M  V30 4179 C 416.177 2.29112 -3.7576 0
M  V30 4180 H 413.296 0.254475 -0.691673 0
M  V30 4181 H 415.938 -0.0331678 -1.89971 0
M  V30 4182 H 414.088 1.98922 -3.3371 0
M  V30 4183 H 415.76 -0.292534 -4.60372 0
M  V30 4184 H 414.003 -0.344325 -4.32431 0
M  V30 4185 H 414.674 0.833316 -5.45674 0
M  V30 4186 H 417.15 1.76308 -3.76902 0
M  V30 4187 H 416.026 2.72043 -4.76743 0
M  V30 4188 H 416.287 3.16385 -3.08793 0
M  V30 4189 N 415.346 1.54954 0.287554 0
M  V30 4190 C 416.623 1.65569 1.04146 0
M  V30 4191 C 417.003 0.512672 2.0478 0
M  V30 4192 O 416.351 -0.489038 2.23205 0
M  V30 4193 C 416.561 3.04163 1.71131 0
M  V30 4194 C 417.909 3.61429 2.22832 0
M  V30 4195 O 418.933 3.06702 1.81141 0
M  V30 4196 O 417.792 4.57281 2.9926 0
M  V30 4197 H 414.886 0.671881 0.482188 0
M  V30 4198 H 417.432 1.67297 0.28457 0
M  V30 4199 H 416.204 3.78796 0.981303 0
M  V30 4200 H 415.827 3.06271 2.53543 0
M  V30 4201 N 416.824 -0.551391 1.4764 0
M  V30 4202 C 418.052 -1.33357 1.58189 0
M  V30 4203 C 418.467 -1.87342 0.234199 0
M  V30 4204 O 417.824 -1.65301 -0.77343 0
M  V30 4205 C 417.875 -2.49942 2.61173 0
M  V30 4206 O 417.596 -1.98187 3.90709 0
M  V30 4207 C 419.097 -3.42072 2.8196 0
M  V30 4208 H 416.317 -0.40631 0.533998 0
M  V30 4209 H 418.861 -0.667367 1.93304 0
M  V30 4210 H 417.016 -3.12489 2.28975 0
M  V30 4211 H 417.43 -2.74342 4.47031 0
M  V30 4212 H 418.904 -4.20278 3.57869 0
M  V30 4213 H 419.381 -3.95978 1.89995 0
M  V30 4214 H 419.987 -2.85336 3.15378 0
M  V30 4215 N 418.302 -1.35869 -0.798587 0
M  V30 4216 C 419.232 -1.32118 -1.92528 0
M  V30 4217 C 420.213 -0.194209 -1.68988 0
M  V30 4218 O 421.398 -0.390426 -1.90235 0
M  V30 4219 C 418.528 -1.10047 -3.29404 0
M  V30 4220 C 417.482 -2.19471 -3.67446 0
M  V30 4221 C 416.808 -1.82555 -5.02571 0
M  V30 4222 C 418.108 -3.61495 -3.76987 0
M  V30 4223 H 419.802 -2.26394 -1.95924 0
M  V30 4224 H 417.348 -1.08981 -0.94123 0
M  V30 4225 H 419.301 -1.06061 -4.07835 0
M  V30 4226 H 418.025 -0.122195 -3.26371 0
M  V30 4227 H 416.684 -2.22568 -2.91306 0
M  V30 4228 H 416.332 -0.833249 -4.9605 0
M  V30 4229 H 416.032 -2.5581 -5.28995 0
M  V30 4230 H 417.556 -1.80108 -5.83432 0
M  V30 4231 H 418.97 -3.60676 -4.4563 0
M  V30 4232 H 417.367 -4.33577 -4.14887 0
M  V30 4233 H 418.437 -3.97065 -2.78329 0
M  V30 4234 N 419.78 1.02168 -1.19998 0
M  V30 4235 C 421.028 1.75338 -1.00504 0
M  V30 4236 C 421.349 1.89387 0.464506 0
M  V30 4237 O 420.619 1.43268 1.33608 0
M  V30 4238 H 419.199 0.649564 -0.368885 0
M  V30 4239 H 421.861 1.23205 -1.51018 0
M  V30 4240 H 420.957 2.75892 -1.45912 0
M  V30 4241 N 421.258 1.00505 1.21394 0
M  V30 4242 C 422.221 0.570459 2.21987 0
M  V30 4243 C 423.221 -0.353211 1.56873 0
M  V30 4244 O 424.411 -0.14349 1.73608 0
M  V30 4245 C 421.543 -0.168555 3.40483 0
M  V30 4246 H 422.736 1.46021 2.6195 0
M  V30 4247 H 420.289 0.793565 1.34656 0
M  V30 4248 H 421.024 -1.07374 3.06009 0
M  V30 4249 H 420.809 0.494823 3.88965 0
M  V30 4250 H 422.299 -0.460362 4.15055 0
M  V30 4251 N 422.737 -1.36956 0.779787 0
M  V30 4252 C 423.967 -2.03459 0.358877 0
M  V30 4253 C 424.375 -1.58939 -1.02641 0
M  V30 4254 O 423.718 -0.769777 -1.66794 0
M  V30 4255 C 423.78 -3.5796 0.332393 0
M  V30 4256 C 423.444 -4.25644 1.66362 0
M  V30 4257 C 424.441 -4.49205 2.61746 0
M  V30 4258 C 422.126 -4.63313 1.94027 0
M  V30 4259 C 424.12 -5.09503 3.82996 0
M  V30 4260 C 421.807 -5.2333 3.15546 0
M  V30 4261 C 422.805 -5.46363 4.0985 0
M  V30 4262 O 422.493 -6.05122 5.29228 0
M  V30 4263 H 422.225 -0.659767 0.147254 0
M  V30 4264 H 424.779 -1.76111 1.05708 0
M  V30 4265 H 423.009 -3.84388 -0.422237 0
M  V30 4266 H 424.698 -4.05852 -0.0625389 0
M  V30 4267 H 425.464 -4.20508 2.41657 0
M  V30 4268 H 421.343 -4.44715 1.21448 0
M  V30 4269 H 424.887 -5.27397 4.56617 0
M  V30 4270 H 420.784 -5.51451 3.35517 0
M  V30 4271 H 421.552 -6.23595 5.30161 0
M  V30 4272 N 424.215 -0.530993 -1.48385 0
M  V30 4273 C 425.178 0.220497 -2.28137 0
M  V30 4274 C 426.178 0.866851 -1.35434 0
M  V30 4275 O 427.368 0.726746 -1.58316 0
M  V30 4276 C 424.5 1.31921 -3.1434 0
M  V30 4277 H 425.693 -0.479714 -2.96038 0
M  V30 4278 H 423.246 -0.286968 -1.53643 0
M  V30 4279 H 423.981 2.05264 -2.51072 0
M  V30 4280 H 423.766 0.86085 -3.82533 0
M  V30 4281 H 425.256 1.84776 -3.74497 0
M  V30 4282 N 425.693 1.55336 -0.266172 0
M  V30 4283 C 427.104 1.85236 0.233315 0
M  V30 4284 C 427.455 1.18816 1.56132 0
M  V30 4285 O 426.58 0.473307 2.11161 0
M  V30 4286 C 427.175 3.36059 0.430113 0
M  V30 4287 C 425.734 3.66116 0.873842 0
M  V30 4288 C 424.881 2.77274 -0.0380016 0
M  V30 4289 H 427.832 1.51004 -0.488214 0
M  V30 4290 H 427.853 3.58681 1.26998 0
M  V30 4291 H 427.365 3.84373 -0.536588 0
M  V30 4292 H 425.466 3.23295 1.85233 0
M  V30 4293 H 425.579 4.73699 0.717358 0
M  V30 4294 H 423.943 2.50198 0.476759 0
M  V30 4295 H 424.726 3.284 -1.00042 0
M  V30 4296 N 427.171 -0.0066808 1.57599 0
M  V30 4297 C 428.081 -1.01671 2.11424 0
M  V30 4298 C 429.097 -1.38143 1.05795 0
M  V30 4299 O 430.273 -1.47011 1.37658 0
M  V30 4300 C 427.338 -2.29192 2.60139 0
M  V30 4301 C 426.399 -1.99094 3.80342 0
M  V30 4302 C 425.632 -3.20535 4.26724 0
M  V30 4303 O 425.855 -4.3199 3.72479 0
M  V30 4304 O 424.789 -3.04924 5.18946 0
M  V30 4305 H 428.615 -0.589181 2.9793 0
M  V30 4306 H 426.2 -0.225091 1.47695 0
M  V30 4307 H 428.082 -3.0412 2.917 0
M  V30 4308 H 426.757 -2.71195 1.76733 0
M  V30 4309 H 425.664 -1.21663 3.53764 0
M  V30 4310 H 426.997 -1.61931 4.648 0
M  V30 4311 N 428.649 -1.55105 -0.279332 0
M  V30 4312 C 429.877 -1.7943 -1.03017 0
M  V30 4313 C 430.292 -0.564456 -1.80165 0
M  V30 4314 O 429.649 0.466326 -1.76442 0
M  V30 4315 C 429.7 -3.0155 -1.99374 0
M  V30 4316 O 429.421 -4.19784 -1.25352 0
M  V30 4317 C 430.922 -3.3843 -2.86321 0
M  V30 4318 H 428.142 -0.597882 -0.304594 0
M  V30 4319 H 430.686 -2.02105 -0.312035 0
M  V30 4320 H 428.841 -2.81019 -2.66659 0
M  V30 4321 H 429.255 -4.88781 -1.90246 0
M  V30 4322 H 430.729 -4.27066 -3.49741 0
M  V30 4323 H 431.206 -2.57549 -3.5576 0
M  V30 4324 H 431.812 -3.61197 -2.24536 0
M  V30 4325 N 430.127 0.543554 -1.4793 0
M  V30 4326 C 431.373 1.30201 -1.55485 0
M  V30 4327 C 431.706 1.92925 -0.222201 0
M  V30 4328 O 430.981 1.78586 0.77053 0
M  V30 4329 C 431.264 2.40174 -2.68307 0
M  V30 4330 C 431.117 1.8223 -4.11233 0
M  V30 4331 C 432.436 3.42024 -2.76961 0
M  V30 4332 H 429.555 0.472036 -0.565996 0
M  V30 4333 H 432.197 0.606914 -1.80046 0
M  V30 4334 H 430.347 2.99463 -2.47495 0
M  V30 4335 H 432.019 1.27096 -4.43446 0
M  V30 4336 H 430.262 1.12832 -4.18869 0
M  V30 4337 H 430.933 2.61793 -4.85972 0
M  V30 4338 H 433.409 2.92672 -2.95774 0
M  V30 4339 H 432.285 4.16383 -3.57654 0
M  V30 4340 H 432.546 4.0173 -1.84568 0
M  V30 4341 N 431.605 1.3629 0.791371 0
M  V30 4342 C 432.83 1.33726 1.58531 0
M  V30 4343 C 433.255 -0.0794933 1.87932 0
M  V30 4344 O 432.613 -1.05087 1.47738 0
M  V30 4345 C 432.661 2.16425 2.88431 0
M  V30 4346 O 431.765 1.5554 3.81944 0
M  V30 4347 H 431.106 0.457793 0.480959 0
M  V30 4348 H 433.636 1.79547 0.981031 0
M  V30 4349 H 433.646 2.28933 3.37718 0
M  V30 4350 H 432.321 3.19415 2.66359 0
M  V30 4351 H 430.898 1.51961 3.40532 0
M  V30 4352 N 433.083 -1.0153 1.20538 0
M  V30 4353 C 433.993 -2.13557 0.971113 0
M  V30 4354 C 435.009 -1.73845 -0.0734366 0
M  V30 4355 O 436.185 -2.01075 0.114299 0
M  V30 4356 C 433.25 -3.42661 0.527639 0
M  V30 4357 C 432.311 -3.96608 1.64319 0
M  V30 4358 C 431.544 -5.1955 1.22078 0
M  V30 4359 O 431.767 -5.70329 0.0900198 0
M  V30 4360 O 430.701 -5.66681 2.02871 0
M  V30 4361 H 434.527 -2.3619 1.90913 0
M  V30 4362 H 432.112 -1.11946 0.989362 0
M  V30 4363 H 433.994 -4.20404 0.289621 0
M  V30 4364 H 432.669 -3.21441 -0.381779 0
M  V30 4365 H 431.576 -3.20139 1.93551 0
M  V30 4366 H 432.909 -4.22219 2.52966 0
M  V30 4367 N 434.561 -1.01147 -1.20859 0
M  V30 4368 C 435.511 -0.548247 -2.2131 0
M  V30 4369 C 436.495 0.393646 -1.5601 0
M  V30 4370 O 437.687 0.217445 -1.75659 0
M  V30 4371 C 434.816 0.117252 -3.431 0
M  V30 4372 C 433.902 -0.846043 -4.15575 0
M  V30 4373 N 434.293 -2.00149 -4.64515 0
M  V30 4374 C 432.591 -0.665783 -4.41003 0
M  V30 4375 C 433.292 -2.60764 -5.19978 0
M  V30 4376 N 432.268 -1.88868 -5.09735 0
M  V30 4377 H 436.07 -1.42921 -2.56809 0
M  V30 4378 H 433.584 -0.876142 -1.36739 0
M  V30 4379 H 435.581 0.46662 -4.1428 0
M  V30 4380 H 434.241 0.994115 -3.09107 0
M  V30 4381 H 435.252 -2.38162 -4.5989 0
M  V30 4382 H 431.929 0.163456 -4.1718 0
M  V30 4383 H 433.319 -3.58519 -5.68255 0
M  V30 4384 N 436.039 1.36541 -0.78704 0
M  V30 4385 C 436.989 2.27459 -0.156957 0
M  V30 4386 C 437.973 1.46843 0.657709 0
M  V30 4387 O 439.165 1.69245 0.518173 0
M  V30 4388 C 436.294 3.35893 0.709278 0
M  V30 4389 C 435.38 4.23947 -0.114049 0
M  V30 4390 N 435.771 4.92145 -1.16736 0
M  V30 4391 C 434.069 4.4587 0.107497 0
M  V30 4392 C 434.77 5.57261 -1.66837 0
M  V30 4393 N 433.746 5.3473 -0.977992 0
M  V30 4394 H 437.548 2.77669 -0.963185 0
M  V30 4395 H 435.062 1.49839 -0.62627 0
M  V30 4396 H 437.059 3.99953 1.17656 0
M  V30 4397 H 435.719 2.87238 1.51408 0
M  V30 4398 H 436.73 4.94169 -1.54976 0
M  V30 4399 H 433.407 4.08056 0.882994 0
M  V30 4400 H 434.797 6.21728 -2.54762 0
M  V30 4401 N 437.518 0.538854 1.48102 0
M  V30 4402 C 438.451 -0.266495 2.26639 0
M  V30 4403 C 439.429 -0.93687 1.32897 0
M  V30 4404 O 440.613 -0.959507 1.62252 0
M  V30 4405 C 437.74 -1.37814 3.09394 0
M  V30 4406 C 436.786 -0.818247 4.18577 0
M  V30 4407 S 437.619 0.320848 5.34538 0
M  V30 4408 C 438.775 -0.793059 6.20855 0
M  V30 4409 H 439.008 0.399994 2.94597 0
M  V30 4410 H 436.541 0.324808 1.50945 0
M  V30 4411 H 438.499 -2.01488 3.57649 0
M  V30 4412 H 437.16 -2.01639 2.40833 0
M  V30 4413 H 436.353 -1.65247 4.7614 0
M  V30 4414 H 435.955 -0.258036 3.73109 0
M  V30 4415 H 438.247 -1.68961 6.56093 0
M  V30 4416 H 439.19 -0.255204 7.0764 0
M  V30 4417 H 439.598 -1.07746 5.54122 0
M  V30 4418 N 438.996 -1.55193 0.274407 0
M  V30 4419 C 440.407 -1.85358 -0.223488 0
M  V30 4420 C 440.758 -1.19642 -1.555 0
M  V30 4421 O 439.883 -0.484498 -2.10907 0
M  V30 4422 C 440.478 -3.36282 -0.412285 0
M  V30 4423 C 439.037 -3.66574 -0.854413 0
M  V30 4424 C 438.184 -2.7725 0.0527056 0
M  V30 4425 H 441.135 -1.50743 0.496215 0
M  V30 4426 H 441.156 -3.59349 -1.25094 0
M  V30 4427 H 440.668 -3.84083 0.556965 0
M  V30 4428 H 438.769 -3.24273 -1.83516 0
M  V30 4429 H 438.882 -4.74073 -0.692226 0
M  V30 4430 H 437.246 -2.50447 -0.463484 0
M  V30 4431 H 438.029 -3.27865 1.01783 0
M  V30 4432 N 440.474 -0.00167713 -1.576 0
M  V30 4433 C 441.699 0.69739 -1.95323 0
M  V30 4434 C 442.124 1.6642 -0.876706 0
M  V30 4435 O 441.482 1.80548 0.165007 0
M  V30 4436 C 441.53 1.40403 -3.32144 0
M  V30 4437 O 440.634 2.5185 -3.26566 0
M  V30 4438 H 439.975 0.185373 -0.637599 0
M  V30 4439 H 442.505 -0.0553665 -2.04525 0
M  V30 4440 H 442.515 1.76707 -3.67748 0
M  V30 4441 H 441.19 0.695167 -4.10049 0
M  V30 4442 H 439.767 2.17861 -3.0264 0
M  V30 4443 N 441.952 1.55251 0.271103 0
M  V30 4444 C 443.368 1.47133 0.618393 0
M  V30 4445 C 443.568 0.686994 1.89427 0
M  V30 4446 O 442.624 0.206609 2.51653 0
M  V30 4447 C 443.937 2.91361 0.743593 0
M  V30 4448 C 445.485 3.01587 0.837522 0
M  V30 4449 C 445.96 4.47073 0.994483 0
M  V30 4450 N 447.451 4.50909 1.05996 0
M  V30 4451 C 448.186 5.60698 1.20024 0
M  V30 4452 N 447.682 6.80348 1.30759 0
M  V30 4453 N 449.475 5.48444 1.23149 0
M  V30 4454 H 441.626 2.04698 -0.566784 0
M  V30 4455 H 443.889 0.928319 -0.192165 0
M  V30 4456 H 443.595 3.51483 -0.123493 0
M  V30 4457 H 443.469 3.40484 1.62328 0
M  V30 4458 H 445.856 2.4156 1.69507 0
M  V30 4459 H 445.937 2.55713 -0.0668086 0
M  V30 4460 H 445.581 5.07703 0.141582 0
M  V30 4461 H 445.511 4.90605 1.91349 0
M  V30 4462 H 448.002 3.6472 0.989316 0
M  V30 4463 H 448.315 7.59772 1.41303 0
M  V30 4464 H 446.66 6.83156 1.27761 0
M  V30 4465 H 449.851 4.53907 1.14394 0
M  V30 4466 H 450.024 6.34049 1.33738 0
M  V30 4467 N 443.43 -0.535701 1.48216 0
M  V30 4468 C 444.36 -1.65014 1.65204 0
M  V30 4469 C 445.341 -1.62554 0.501011 0
M  V30 4470 O 446.526 -1.7984 0.732886 0
M  V30 4471 C 443.656 -3.03616 1.68626 0
M  V30 4472 C 442.61 -3.20932 2.83172 0
M  V30 4473 C 441.936 -4.60537 2.71679 0
M  V30 4474 C 443.236 -3.04249 4.24535 0
M  V30 4475 H 444.93 -1.51053 2.58502 0
M  V30 4476 H 442.476 -0.725262 1.24402 0
M  V30 4477 H 444.429 -3.81446 1.79099 0
M  V30 4478 H 443.153 -3.18587 0.719026 0
M  V30 4479 H 441.812 -2.45517 2.72244 0
M  V30 4480 H 441.46 -4.72336 1.72937 0
M  V30 4481 H 441.16 -4.73069 3.48538 0
M  V30 4482 H 442.684 -5.40475 2.84112 0
M  V30 4483 H 444.098 -3.71877 4.36326 0
M  V30 4484 H 442.495 -3.28278 5.02348 0
M  V30 4485 H 443.565 -2.00739 4.41397 0
M  V30 4486 N 444.908 -1.36708 -0.784132 0
M  V30 4487 C 446.185 -1.21776 -1.53069 0
M  V30 4488 C 446.565 0.193876 -2.10208 0
M  V30 4489 O 445.913 1.20012 -1.94446 0
M  V30 4490 C 446.123 -2.30395 -2.62143 0
M  V30 4491 C 447.471 -2.67325 -3.29882 0
M  V30 4492 O 448.495 -2.29478 -2.7243 0
M  V30 4493 O 447.354 -3.32485 -4.33724 0
M  V30 4494 H 444.448 -0.474459 -0.677361 0
M  V30 4495 H 446.994 -1.48454 -0.82216 0
M  V30 4496 H 445.766 -3.2498 -2.17953 0
M  V30 4497 H 445.389 -2.05112 -3.40609 0
M  V30 4498 N 446.386 1.0089 -1.21074 0
M  V30 4499 C 447.633 1.74607 -1.0256 0
M  V30 4500 C 447.961 1.89426 0.44136 0
M  V30 4501 O 447.216 1.42266 1.34384 0
M  V30 4502 C 447.515 3.16335 -1.66334 0
M  V30 4503 C 447.181 3.21474 -3.16173 0
M  V30 4504 C 445.843 3.22583 -3.57062 0
M  V30 4505 C 448.195 3.19025 -4.12156 0
M  V30 4506 C 445.523 3.18925 -4.92446 0
M  V30 4507 C 447.875 3.16909 -5.47496 0
M  V30 4508 C 446.539 3.16326 -5.87787 0
M  V30 4509 H 445.809 0.638933 -0.375294 0
M  V30 4510 H 448.456 1.18274 -1.50611 0
M  V30 4511 H 446.761 3.75876 -1.10566 0
M  V30 4512 H 448.458 3.72083 -1.49516 0
M  V30 4513 H 445.048 3.2135 -2.83605 0
M  V30 4514 H 449.232 3.17332 -3.81595 0
M  V30 4515 H 444.488 3.16809 -5.22917 0
M  V30 4516 H 448.662 3.13968 -6.21609 0
M  V30 4517 H 446.289 3.13246 -6.92662 0
M  V30 4518 N 447.864 1.01787 1.20321 0
M  V30 4519 C 449.092 0.727194 1.937 0
M  V30 4520 C 449.507 -0.712305 1.74848 0
M  V30 4521 O 448.864 -1.48327 1.06327 0
M  V30 4522 C 448.915 1.05497 3.45764 0
M  V30 4523 O 448.636 2.43794 3.64 0
M  V30 4524 C 450.137 0.785534 4.36285 0
M  V30 4525 H 447.357 0.266939 0.615617 0
M  V30 4526 H 449.901 1.35939 1.52777 0
M  V30 4527 H 448.056 0.468158 3.84561 0
M  V30 4528 H 448.47 2.55656 4.57974 0
M  V30 4529 H 449.944 1.06495 5.4163 0
M  V30 4530 H 450.421 -0.280273 4.38305 0
M  V30 4531 H 451.027 1.35456 4.03152 0
M  V30 4532 N 449.342 -1.36122 0.79427 0
M  V30 4533 C 450.272 -2.32551 0.210328 0
M  V30 4534 C 451.253 -1.56884 -0.657386 0
M  V30 4535 O 452.438 -1.85014 -0.590207 0
M  V30 4536 C 449.568 -3.41128 -0.651819 0
M  V30 4537 C 448.522 -4.27842 0.116395 0
M  V30 4538 C 447.848 -5.2763 -0.86666 0
M  V30 4539 C 449.148 -5.05647 1.30837 0
M  V30 4540 H 450.842 -2.81636 1.01594 0
M  V30 4541 H 448.388 -1.35407 0.489981 0
M  V30 4542 H 450.341 -4.07581 -1.07031 0
M  V30 4543 H 449.065 -2.90622 -1.49019 0
M  V30 4544 H 447.724 -3.62952 0.515915 0
M  V30 4545 H 447.372 -4.73395 -1.70019 0
M  V30 4546 H 447.072 -5.86514 -0.35705 0
M  V30 4547 H 448.596 -5.96955 -1.28361 0
M  V30 4548 H 450.01 -5.65113 0.965393 0
M  V30 4549 H 448.407 -5.73967 1.75161 0
M  V30 4550 H 449.477 -4.37006 2.10128 0
M  V30 4551 N 450.82 -0.546701 -1.47814 0
M  V30 4552 C 451.73 0.21026 -2.33656 0
M  V30 4553 C 452.746 0.922413 -1.47538 0
M  V30 4554 O 453.922 0.893652 -1.80488 0
M  V30 4555 C 450.987 1.23348 -3.24016 0
M  V30 4556 C 450.048 0.529883 -4.26017 0
M  V30 4557 C 449.281 1.50435 -5.12059 0
M  V30 4558 O 449.504 2.73837 -5.00369 0
M  V30 4559 O 448.438 1.03459 -5.92942 0
M  V30 4560 H 452.264 -0.493605 -2.99662 0
M  V30 4561 H 449.849 -0.307427 -1.46203 0
M  V30 4562 H 451.731 1.82438 -3.79861 0
M  V30 4563 H 450.406 1.91945 -2.60651 0
M  V30 4564 H 449.313 -0.101948 -3.73961 0
M  V30 4565 H 450.646 -0.11445 -4.92067 0
M  V30 4566 N 452.299 1.55045 -0.282633 0
M  V30 4567 C 453.576 1.9179 0.384166 0
M  V30 4568 C 453.956 1.20778 1.73136 0
M  V30 4569 O 453.304 0.33719 2.25998 0
M  V30 4570 C 453.514 3.45149 0.517014 0
M  V30 4571 C 454.862 4.17064 0.796427 0
M  V30 4572 O 455.886 3.51084 0.601535 0
M  V30 4573 O 454.745 5.33837 1.16962 0
M  V30 4574 H 451.839 0.799483 0.211558 0
M  V30 4575 H 454.385 1.66474 -0.32934 0
M  V30 4576 H 453.157 3.88922 -0.430772 0
M  V30 4577 H 452.78 3.76443 1.2797 0
M  V30 4578 N 453.777 0.010035 1.57597 0
M  V30 4579 C 455.024 -0.6727 1.91 0
M  V30 4580 C 455.352 -1.73219 0.884614 0
M  V30 4581 O 454.607 -1.95395 -0.109215 0
M  V30 4582 C 454.906 -1.34434 3.31153 0
M  V30 4583 C 454.572 -0.417083 4.48967 0
M  V30 4584 C 453.234 -0.161809 4.80928 0
M  V30 4585 C 455.586 0.220753 5.20732 0
M  V30 4586 C 452.914 0.739426 5.82022 0
M  V30 4587 C 455.266 1.10993 6.22787 0
M  V30 4588 C 453.93 1.37428 6.532 0
M  V30 4589 H 453.2 -0.246158 0.698918 0
M  V30 4590 H 455.847 0.0677145 1.9138 0
M  V30 4591 H 454.152 -2.15905 3.26944 0
M  V30 4592 H 455.849 -1.87883 3.54261 0
M  V30 4593 H 452.439 -0.626217 4.24001 0
M  V30 4594 H 456.623 0.0365643 4.96287 0
M  V30 4595 H 451.879 0.952139 6.03941 0
M  V30 4596 H 456.053 1.61046 6.77523 0
M  V30 4597 H 453.68 2.0743 7.31353 0
M  V30 4598 N 455.255 -1.55392 -0.262866 0
M  V30 4599 C 456.185 -1.91978 -1.32917 0
M  V30 4600 C 457.166 -0.7828 -1.51017 0
M  V30 4601 O 458.351 -1.04178 -1.63892 0
M  V30 4602 C 455.481 -2.20055 -2.68687 0
M  V30 4603 C 454.435 -3.35854 -2.65304 0
M  V30 4604 C 453.761 -3.49435 -4.04721 0
M  V30 4605 C 455.061 -4.71977 -2.23685 0
M  V30 4606 H 456.755 -2.81292 -1.02544 0
M  V30 4607 H 454.301 -1.3534 -0.491846 0
M  V30 4608 H 456.254 -2.44237 -3.43404 0
M  V30 4609 H 454.978 -1.27551 -3.00663 0
M  V30 4610 H 453.637 -3.11655 -1.93045 0
M  V30 4611 H 453.285 -2.54379 -4.33936 0
M  V30 4612 H 452.985 -4.27297 -4.0335 0
M  V30 4613 H 454.509 -3.7592 -4.81161 0
M  V30 4614 H 455.923 -4.95637 -2.88127 0
M  V30 4615 H 454.32 -5.52828 -2.33456 0
M  V30 4616 H 455.39 -4.70115 -1.18827 0
M  V30 4617 N 456.733 0.527833 -1.48498 0
M  V30 4618 C 458.144 1.10975 -1.50138 0
M  V30 4619 C 458.495 1.943 -0.272378 0
M  V30 4620 O 457.62 2.07319 0.620301 0
M  V30 4621 C 458.215 2.01927 -2.72049 0
M  V30 4622 C 456.774 2.55332 -2.76554 0
M  V30 4623 C 455.921 1.32341 -2.43683 0
M  V30 4624 H 458.872 0.312986 -1.55583 0
M  V30 4625 H 458.893 2.86244 -2.50689 0
M  V30 4626 H 458.405 1.41254 -3.61481 0
M  V30 4627 H 456.506 3.19721 -1.91336 0
M  V30 4628 H 456.619 2.94319 -3.78038 0
M  V30 4629 H 454.983 1.63989 -1.94884 0
M  V30 4630 H 455.766 0.734165 -3.35358 0
M  V30 4631 N 458.211 1.37122 0.776871 0
M  V30 4632 C 459.174 1.32301 1.8716 0
M  V30 4633 C 460.174 0.228099 1.59174 0
M  V30 4634 O 461.364 0.483642 1.67352 0
M  V30 4635 C 458.496 1.054 3.24197 0
M  V30 4636 H 459.689 2.29673 1.92848 0
M  V30 4637 H 457.242 1.22077 0.97606 0
M  V30 4638 H 457.977 0.0853872 3.24188 0
M  V30 4639 H 457.762 1.84648 3.45901 0
M  V30 4640 H 459.252 1.04664 4.04271 0
M  V30 4641 N 459.689 -1.00246 1.21608 0
M  V30 4642 C 460.935 -1.74417 1.04643 0
M  V30 4643 C 461.29 -1.87862 -0.415387 0
M  V30 4644 O 460.583 -1.40373 -1.30407 0
M  V30 4645 C 460.777 -3.15448 1.68009 0
M  V30 4646 C 460.606 -3.15755 3.20201 0
M  V30 4647 C 459.376 -3.2219 3.89258 0
M  V30 4648 C 461.574 -3.00668 4.17257 0
M  V30 4649 N 459.556 -3.1215 5.28617 0
M  V30 4650 C 460.927 -2.98553 5.43384 0
M  V30 4651 C 462.982 -2.84989 4.08272 0
M  V30 4652 C 461.685 -2.82364 6.61561 0
M  V30 4653 C 463.711 -2.70158 5.26088 0
M  V30 4654 C 463.073 -2.68721 6.51128 0
M  V30 4655 H 459.172 -0.648317 0.437274 0
M  V30 4656 H 461.756 -1.19129 1.54001 0
M  V30 4657 H 459.927 -3.69001 1.21215 0
M  V30 4658 H 461.659 -3.78128 1.44226 0
M  V30 4659 H 458.414 -3.29488 3.40198 0
M  V30 4660 H 458.838 -3.10465 6.01615 0
M  V30 4661 H 463.48 -2.84904 3.12393 0
M  V30 4662 H 461.198 -2.81196 7.57598 0
M  V30 4663 H 464.784 -2.59022 5.20959 0
M  V30 4664 H 463.664 -2.57382 7.40759 0
M  V30 4665 N 461.167 -1.02423 -1.1978 0
M  V30 4666 C 462.077 -0.610919 -2.26506 0
M  V30 4667 C 463.093 0.355152 -1.70337 0
M  V30 4668 O 464.269 0.214195 -2.00258 0
M  V30 4669 C 461.334 0.0365921 -3.46681 0
M  V30 4670 C 460.395 -0.976389 -4.18049 0
M  V30 4671 C 459.628 -0.359683 -5.32487 0
M  V30 4672 O 459.851 0.838601 -5.64202 0
M  V30 4673 O 458.785 -1.08022 -5.92127 0
M  V30 4674 H 462.611 -1.49965 -2.64091 0
M  V30 4675 H 460.196 -0.794156 -1.26545 0
M  V30 4676 H 462.078 0.39786 -4.19518 0
M  V30 4677 H 460.753 0.899398 -3.10954 0
M  V30 4678 H 459.66 -1.38916 -3.47352 0
M  V30 4679 H 460.993 -1.80941 -4.57735 0
M  V30 4680 N 462.645 1.35699 -0.801477 0
M  V30 4681 C 463.608 2.28199 -0.213994 0
M  V30 4682 C 464.608 1.49359 0.595691 0
M  V30 4683 O 465.798 1.69186 0.414921 0
M  V30 4684 C 462.93 3.33587 0.702297 0
M  V30 4685 H 464.123 2.81666 -1.02976 0
M  V30 4686 H 461.676 1.45467 -0.571759 0
M  V30 4687 H 462.411 2.85297 1.54195 0
M  V30 4688 H 462.196 3.91906 0.123484 0
M  V30 4689 H 463.686 4.02638 1.10783 0
M  V30 4690 N 464.123 0.554532 1.47522 0
M  V30 4691 C 465.351 0.034257 2.06872 0
M  V30 4692 C 465.766 -1.25826 1.40759 0
M  V30 4693 O 465.123 -1.75425 0.503217 0
M  V30 4694 C 465.174 -0.167827 3.6111 0
M  V30 4695 O 464.895 1.07351 4.24744 0
M  V30 4696 C 466.396 -0.72569 4.3732 0
M  V30 4697 H 463.616 0.0446275 0.669514 0
M  V30 4698 H 466.16 0.767181 1.89564 0
M  V30 4699 H 464.315 -0.850872 3.7794 0
M  V30 4700 H 464.729 0.869563 5.17242 0
M  V30 4701 H 466.203 -0.816394 5.45929 0
M  V30 4702 H 466.68 -1.73635 4.0342 0
M  V30 4703 H 467.286 -0.0784292 4.25228 0
M  V30 4704 N 465.601 -1.54893 0.290851 0
M  V30 4705 C 466.548 -2.23138 -0.58974 0
M  V30 4706 C 467.518 -1.21036 -1.13752 0
M  V30 4707 O 468.703 -1.49626 -1.18392 0
M  V30 4708 C 465.843 -2.96811 -1.76061 0
M  V30 4709 C 464.956 -4.13665 -1.24519 0
M  V30 4710 C 464.091 -4.74944 -2.3791 0
M  V30 4711 C 463.13 -5.83963 -1.83451 0
M  V30 4712 N 462.267 -6.39239 -2.90376 0
M  V30 4713 H 467.107 -2.98 -0.00114915 0
M  V30 4714 H 464.644 -1.47096 0.0112006 0
M  V30 4715 H 466.602 -3.37751 -2.44909 0
M  V30 4716 H 465.232 -2.24344 -2.32098 0
M  V30 4717 H 464.284 -3.77737 -0.449288 0
M  V30 4718 H 465.596 -4.92238 -0.806424 0
M  V30 4719 H 464.75 -5.18684 -3.14724 0
M  V30 4720 H 463.489 -3.95682 -2.85109 0
M  V30 4721 H 462.494 -5.39657 -1.05122 0
M  V30 4722 H 463.719 -6.65103 -1.37169 0
M  V30 4723 H 461.665 -5.62864 -3.36927 0
M  V30 4724 H 461.582 -7.13129 -2.50965 0
M  V30 4725 H 462.85 -6.87637 -3.67118 0
M  V30 4726 N 467.08 -0.0183926 -1.57589 0
M  V30 4727 C 468.012 0.995557 -2.06449 0
M  V30 4728 C 469.025 1.29556 -0.985849 0
M  V30 4729 O 470.214 1.2621 -1.26227 0
M  V30 4730 C 467.314 2.32572 -2.46502 0
M  V30 4731 C 466.487 2.21245 -3.77319 0
M  V30 4732 C 465.546 3.37104 -4.04039 0
M  V30 4733 O 464.572 3.14468 -4.74445 0
M  V30 4734 N 465.774 4.60553 -3.53372 0
M  V30 4735 H 468.539 0.578746 -2.94059 0
M  V30 4736 H 466.1 0.168603 -1.6102 0
M  V30 4737 H 468.092 3.08887 -2.61478 0
M  V30 4738 H 466.662 2.65931 -1.64315 0
M  V30 4739 H 465.882 1.29723 -3.72244 0
M  V30 4740 H 467.17 2.10868 -4.63047 0
M  V30 4741 H 466.568 4.81839 -2.96391 0
M  V30 4742 H 465.125 5.34072 -3.73644 0
M  V30 4743 N 468.558 1.5553 0.254621 0
M  V30 4744 C 469.488 1.9268 1.31897 0
M  V30 4745 C 470.469 0.790797 1.506 0
M  V30 4746 O 471.654 1.05045 1.63337 0
M  V30 4747 C 468.784 2.21477 2.67517 0
M  V30 4748 C 467.738 3.37256 2.63519 0
M  V30 4749 C 467.064 3.51576 4.02862 0
M  V30 4750 C 468.364 4.73157 2.21179 0
M  V30 4751 H 470.058 2.81832 1.01051 0
M  V30 4752 H 467.604 1.35599 0.484662 0
M  V30 4753 H 469.557 2.46055 3.42104 0
M  V30 4754 H 468.281 1.29144 2.99982 0
M  V30 4755 H 466.94 3.12675 1.9139 0
M  V30 4756 H 466.588 2.56676 4.32581 0
M  V30 4757 H 466.288 4.2943 4.01078 0
M  V30 4758 H 467.812 3.78467 4.79161 0
M  V30 4759 H 469.226 4.97158 2.85494 0
M  V30 4760 H 467.623 5.54058 2.30521 0
M  V30 4761 H 468.693 4.70739 1.16332 0
M  V30 4762 N 470.036 -0.519951 1.48776 0
M  V30 4763 C 470.966 -1.63253 1.66945 0
M  V30 4764 C 471.947 -1.62014 0.518224 0
M  V30 4765 O 473.132 -1.79053 0.751919 0
M  V30 4766 C 470.262 -3.0181 1.71836 0
M  V30 4767 C 469.216 -3.17911 2.8656 0
M  V30 4768 C 468.542 -4.5763 2.76548 0
M  V30 4769 C 469.842 -2.99729 4.27738 0
M  V30 4770 H 471.536 -1.48302 2.6009 0
M  V30 4771 H 469.082 -0.712026 1.25165 0
M  V30 4772 H 471.035 -3.79525 1.83135 0
M  V30 4773 H 469.759 -3.17806 0.752775 0
M  V30 4774 H 468.418 -2.42616 2.74833 0
M  V30 4775 H 468.066 -4.70476 1.77937 0
M  V30 4776 H 467.766 -4.69346 3.53536 0
M  V30 4777 H 469.29 -5.37431 2.89828 0
M  V30 4778 H 470.704 -3.67228 4.40246 0
M  V30 4779 H 469.101 -3.22932 5.05801 0
M  V30 4780 H 470.171 -1.96047 4.43502 0
M  V30 4781 N 471.514 -1.37532 -0.769588 0
M  V30 4782 C 472.925 -1.29382 -1.346 0
M  V30 4783 C 473.276 0.0576039 -1.96115 0
M  V30 4784 O 472.401 0.95947 -1.93967 0
M  V30 4785 C 472.996 -2.34298 -2.44724 0
M  V30 4786 C 471.555 -2.29776 -2.98128 0
M  V30 4787 C 470.702 -2.18013 -1.71364 0
M  V30 4788 H 473.653 -1.48123 -0.56968 0
M  V30 4789 H 473.674 -1.99089 -3.24259 0
M  V30 4790 H 473.186 -3.32645 -1.99922 0
M  V30 4791 H 471.287 -1.34959 -3.47299 0
M  V30 4792 H 471.4 -3.23276 -3.53595 0
M  V30 4793 H 469.764 -1.64595 -1.94372 0
M  V30 4794 H 470.547 -3.18278 -1.28662 0
M  V30 4795 N 472.992 0.995999 -1.22138 0
M  V30 4796 C 473.955 2.06711 -0.990109 0
M  V30 4797 C 474.955 1.60744 0.0422978 0
M  V30 4798 O 476.145 1.73095 -0.195895 0
M  V30 4799 C 473.277 3.37288 -0.49491 0
M  V30 4800 H 474.47 2.28661 -1.94047 0
M  V30 4801 H 472.023 1.16711 -1.03963 0
M  V30 4802 H 472.758 3.21022 0.459948 0
M  V30 4803 H 472.543 3.71986 -1.23971 0
M  V30 4804 H 474.033 4.16103 -0.353253 0
M  V30 4805 N 474.47 1.03057 1.19235 0
M  V30 4806 C 475.4 0.633497 2.24742 0
M  V30 4807 C 476.381 -0.358335 1.66283 0
M  V30 4808 O 477.566 -0.240676 1.92703 0
M  V30 4809 C 474.696 -0.0147648 3.47297 0
M  V30 4810 C 473.65 0.899527 4.18441 0
M  V30 4811 C 472.976 0.116281 5.34574 0
M  V30 4812 C 474.276 2.21404 4.73051 0
M  V30 4813 H 475.97 1.5155 2.58211 0
M  V30 4814 H 473.516 0.73014 1.24117 0
M  V30 4815 H 475.469 -0.304202 4.20301 0
M  V30 4816 H 474.193 -0.931577 3.13032 0
M  V30 4817 H 472.852 1.17319 3.47321 0
M  V30 4818 H 472.5 -0.802619 4.96555 0
M  V30 4819 H 472.2 0.725293 5.83107 0
M  V30 4820 H 473.724 -0.166376 6.10373 0
M  V30 4821 H 475.138 1.98601 5.37802 0
M  V30 4822 H 473.535 2.77512 5.32078 0
M  V30 4823 H 474.605 2.86752 3.91026 0
M  V30 4824 N 475.948 -1.35272 0.808662 0
M  V30 4825 C 476.911 -2.28082 0.226093 0
M  V30 4826 C 477.911 -1.49673 -0.587762 0
M  V30 4827 O 479.101 -1.69404 -0.405943 0
M  V30 4828 C 476.233 -3.33955 -0.684596 0
M  V30 4829 H 477.426 -2.81116 1.04469 0
M  V30 4830 H 474.979 -1.45162 0.579466 0
M  V30 4831 H 475.714 -2.86111 -1.5268 0
M  V30 4832 H 475.499 -3.91965 -0.102699 0
M  V30 4833 H 476.989 -4.03219 -1.08646 0
M  V30 4834 N 477.426 -0.562348 -1.47226 0
M  V30 4835 C 478.703 0.0256985 -1.95583 0
M  V30 4836 C 479.083 1.48032 -1.50498 0
M  V30 4837 O 478.431 2.15973 -0.746181 0
M  V30 4838 C 478.641 -0.125129 -3.48776 0
M  V30 4839 C 479.989 0.0175728 -4.24596 0
M  V30 4840 O 481.013 -0.0529341 -3.56161 0
M  V30 4841 O 479.872 0.170145 -5.46235 0
M  V30 4842 H 476.966 0.0612565 -0.824728 0
M  V30 4843 H 479.512 -0.629233 -1.57603 0
M  V30 4844 H 478.284 -1.13715 -3.74412 0
M  V30 4845 H 477.907 0.567178 -3.93534 0
M  V30 4846 N 478.904 1.54736 -0.299062 0
M  V30 4847 C 480.129 2.04975 0.316254 0
M  V30 4848 C 480.554 1.17501 1.46885 0
M  V30 4849 O 479.912 0.178678 1.80417 0
M  V30 4850 C 479.96 3.52672 0.751997 0
M  V30 4851 O 479.064 3.68226 1.85697 0
M  V30 4852 H 478.405 0.661126 0.0617175 0
M  V30 4853 H 480.935 1.99805 -0.440341 0
M  V30 4854 H 480.945 3.94488 1.04133 0
M  V30 4855 H 479.62 4.158 -0.0911482 0
M  V30 4856 H 478.197 3.38316 1.56834 0
M  V30 4857 N 480.382 0.0267497 1.57577 0
M  V30 4858 C 481.292 -0.971633 2.13533 0
M  V30 4859 C 482.308 -1.35868 1.08701 0
M  V30 4860 O 483.484 -1.44058 1.40746 0
M  V30 4861 C 480.549 -2.23622 2.64941 0
M  V30 4862 C 479.61 -1.90982 3.8448 0
M  V30 4863 C 478.843 -3.11411 4.33427 0
M  V30 4864 O 479.066 -4.23992 3.81558 0
M  V30 4865 O 478 -2.93848 5.25297 0
M  V30 4866 H 481.826 -0.525853 2.99113 0
M  V30 4867 H 479.411 -0.193712 1.48139 0
M  V30 4868 H 481.293 -2.97864 2.98086 0
M  V30 4869 H 479.968 -2.67386 1.82446 0
M  V30 4870 H 478.875 -1.14132 3.56265 0
M  V30 4871 H 480.208 -1.52036 4.6813 0
M  V30 4872 N 481.861 -1.55662 -0.24637 0
M  V30 4873 C 483.11 -1.7672 -0.972254 0
M  V30 4874 C 483.423 -0.59078 -1.86465 0
M  V30 4875 O 484.629 -0.684391 -2.62732 0
M  V30 4876 C 483.085 -3.12869 -1.7788 0
M  V30 4877 C 482.693 -4.38161 -0.933768 0
M  V30 4878 C 484.437 -3.43265 -2.49738 0
M  V30 4879 C 482.344 -5.6534 -1.73623 0
M  V30 4880 H 481.274 -0.658795 -0.366749 0
M  V30 4881 H 483.925 -1.82092 -0.226902 0
M  V30 4882 H 482.307 -3.01606 -2.56612 0
M  V30 4883 H 483.481 -4.60413 -0.188736 0
M  V30 4884 H 481.796 -4.15102 -0.328488 0
M  V30 4885 H 484.393 -4.35501 -3.10231 0
M  V30 4886 H 484.736 -2.64614 -3.2138 0
M  V30 4887 H 485.269 -3.55746 -1.78016 0
M  V30 4888 H 482.008 -6.46814 -1.06354 0
M  V30 4889 H 481.528 -5.47188 -2.45653 0
M  V30 4890 H 483.207 -6.04616 -2.30323 0
M  V30 4891 N 483.339 0.512053 -1.4905 0
M  V30 4892 C 484.249 1.64139 -1.67617 0
M  V30 4893 C 485.265 1.64786 -0.558701 0
M  V30 4894 O 486.441 1.8341 -0.832034 0
M  V30 4895 C 483.506 3.00548 -1.72835 0
M  V30 4896 C 482.567 3.10615 -2.96339 0
M  V30 4897 C 481.8 4.40517 -3.01298 0
M  V30 4898 O 482.023 5.28671 -2.14157 0
M  V30 4899 O 480.957 4.55325 -3.93653 0
M  V30 4900 H 484.783 1.51407 -2.63267 0
M  V30 4901 H 482.368 0.687131 -1.32661 0
M  V30 4902 H 484.25 3.81641 -1.78683 0
M  V30 4903 H 482.925 3.13566 -0.803616 0
M  V30 4904 H 481.832 2.2875 -2.96014 0
M  V30 4905 H 483.165 3.0252 -3.88256 0
M  V30 4906 N 484.817 1.37938 0.762283 0
M  V30 4907 C 486.094 1.24196 1.51112 0
M  V30 4908 C 486.474 -0.160409 2.1049 0
M  V30 4909 O 485.822 -1.16904 1.96331 0
M  V30 4910 C 486.032 2.34537 2.58445 0
M  V30 4911 C 487.38 2.7254 3.25588 0
M  V30 4912 O 488.404 2.33783 2.68745 0
M  V30 4913 O 487.263 3.39343 4.28379 0
M  V30 4914 H 484.357 0.485175 0.669727 0
M  V30 4915 H 486.903 1.49743 0.798438 0
M  V30 4916 H 485.675 3.28406 2.12756 0
M  V30 4917 H 485.298 2.10505 3.37303 0
M  V30 4918 N 486.295 -0.989507 1.22664 0
M  V30 4919 C 487.543 -1.72612 1.05117 0
M  V30 4920 C 487.864 -1.90552 -0.414131 0
M  V30 4921 O 487.134 -1.4676 -1.29762 0
M  V30 4922 H 485.714 -0.639555 0.385977 0
M  V30 4923 H 488.376 -1.19158 1.54232 0
M  V30 4924 H 487.472 -2.71926 1.53175 0
M  V30 4925 N 487.773 -1.03688 -1.18687 0
M  V30 4926 C 489.02 -0.73803 -1.88572 0
M  V30 4927 C 489.348 0.733973 -1.8012 0
M  V30 4928 O 488.603 1.55098 -1.19344 0
M  V30 4929 C 488.902 -1.14477 -3.3857 0
M  V30 4930 C 488.568 -2.61641 -3.67226 0
M  V30 4931 C 487.23 -3.01846 -3.74757 0
M  V30 4932 C 489.582 -3.56812 -3.79914 0
M  V30 4933 C 486.91 -4.36118 -3.92451 0
M  V30 4934 C 489.262 -4.90799 -3.99123 0
M  V30 4935 C 487.926 -5.3068 -4.04888 0
M  V30 4936 H 487.196 -0.270064 -0.690034 0
M  V30 4937 H 489.843 -1.3012 -1.40503 0
M  V30 4938 H 488.148 -0.500337 -3.88592 0
M  V30 4939 H 489.845 -0.89095 -3.90977 0
M  V30 4940 H 486.435 -2.29498 -3.61979 0
M  V30 4941 H 490.619 -3.26899 -3.73431 0
M  V30 4942 H 485.875 -4.66542 -3.95157 0
M  V30 4943 H 490.049 -5.64451 -4.07882 0
M  V30 4944 H 487.676 -6.34733 -4.18351 0
M  V30 4945 N 489.251 1.34841 -0.815825 0
M  V30 4946 C 490.199 2.31549 -0.220888 0
M  V30 4947 C 491.193 1.5707 0.634457 0
M  V30 4948 O 492.399 1.72125 0.526589 0
M  V30 4949 H 488.774 0.750153 -0.0526782 0
M  V30 4950 H 490.745 2.7926 -1.05149 0
M  V30 4951 C 489.494 3.42335 0.608427 0
M  V30 4952 H 488.817 3.9978 -0.0404121 0
M  V30 4953 H 490.257 4.12258 0.990931 0
M  V30 4954 C 488.716 2.86173 1.77782 0
M  V30 4955 O 489.246 2.80474 2.87571 0
M  V30 4956 N 487.452 2.43093 1.59229 0
M  V30 4957 H 486.999 2.47928 0.699237 0
M  V30 4958 H 486.957 2.05866 2.37627 0
M  V30 4959 N 490.729 0.570148 1.46925 0
M  V30 4960 C 491.977 0.0508523 2.02036 0
M  V30 4961 C 492.298 -1.30885 1.44548 0
M  V30 4962 O 491.568 -1.85647 0.625453 0
M  V30 4963 H 490.148 0.0158088 0.746833 0
M  V30 4964 H 492.81 0.743086 1.80178 0
M  V30 4965 H 491.906 -0.027575 3.12088 0
M  V30 4966 N 492.207 -1.54576 0.307264 0
M  V30 4967 C 493.456 -1.99442 -0.300976 0
M  V30 4968 C 493.769 -1.19928 -1.5452 0
M  V30 4969 O 494.975 -1.55092 -2.22842 0
M  V30 4970 C 493.431 -3.55084 -0.586809 0
M  V30 4971 C 493.039 -4.43413 0.639438 0
M  V30 4972 C 494.783 -4.0846 -1.1559 0
M  V30 4973 C 492.69 -5.90499 0.326411 0
M  V30 4974 H 491.62 -0.744986 -0.116238 0
M  V30 4975 H 494.271 -1.787 0.416947 0
M  V30 4976 H 492.653 -3.71749 -1.36449 0
M  V30 4977 H 493.827 -4.38522 1.41545 0
M  V30 4978 H 492.142 -4.00842 1.1276 0
M  V30 4979 H 494.739 -5.15926 -1.40445 0
M  V30 4980 H 495.082 -3.59443 -2.10015 0
M  V30 4981 H 495.615 -3.95362 -0.439778 0
M  V30 4982 H 492.354 -6.43676 1.23939 0
M  V30 4983 H 491.874 -5.98382 -0.412212 0
M  V30 4984 H 493.553 -6.46962 -0.0697393 0
M  V30 4985 N 493.685 -0.035106 -1.57561 0
M  V30 4986 C 494.932 0.642229 -1.92046 0
M  V30 4987 C 495.26 1.7179 -0.91206 0
M  V30 4988 O 494.515 1.95544 0.0781153 0
M  V30 4989 C 494.814 1.29149 -3.3325 0
M  V30 4990 C 494.48 0.345604 -4.49574 0
M  V30 4991 C 493.142 0.0852775 -4.81124 0
M  V30 4992 C 495.494 -0.303569 -5.20315 0
M  V30 4993 C 492.822 -0.831927 -5.80772 0
M  V30 4994 C 495.174 -1.20886 -6.20942 0
M  V30 4995 C 493.838 -1.47802 -6.50931 0
M  V30 4996 H 493.108 0.235008 -0.702746 0
M  V30 4997 H 495.755 -0.0981529 -1.91248 0
M  V30 4998 H 494.06 2.10676 -3.30337 0
M  V30 4999 H 495.757 1.82223 -3.57205 0
M  V30 5000 H 492.347 0.558683 -4.24943 0
M  V30 5001 H 496.531 -0.115515 -4.96166 0
M  V30 5002 H 491.787 -1.0481 -6.02349 0
M  V30 5003 H 495.961 -1.71804 -6.74875 0
M  V30 5004 H 493.588 -2.19039 -7.2796 0
M  V30 5005 N 495.163 1.55791 0.238111 0
M  V30 5006 C 496.388 1.8244 0.986432 0
M  V30 5007 C 496.813 0.613314 1.7782 0
M  V30 5008 O 496.171 -0.437767 1.75935 0
M  V30 5009 C 496.219 3.06917 1.893 0
M  V30 5010 O 495.323 2.84449 2.98601 0
M  V30 5011 H 494.664 0.601975 0.280218 0
M  V30 5012 H 497.194 2.02987 0.256437 0
M  V30 5013 H 497.204 3.36583 2.30598 0
M  V30 5014 H 495.879 3.947 1.31091 0
M  V30 5015 H 494.456 2.65972 2.61368 0
M  V30 5016 N 496.642 -0.504142 1.49319 0
M  V30 5017 C 497.889 -1.25846 1.58647 0
M  V30 5018 C 498.217 -1.92592 0.27177 0
M  V30 5019 O 497.472 -1.81167 -0.74007 0
M  V30 5020 C 497.771 -2.35021 2.69258 0
M  V30 5021 C 497.437 -1.85755 4.1086 0
M  V30 5022 C 496.099 -1.72038 4.49395 0
M  V30 5023 C 498.451 -1.48844 4.99495 0
M  V30 5024 C 495.779 -1.19783 5.74342 0
M  V30 5025 C 498.131 -0.980422 6.24956 0
M  V30 5026 C 496.795 -0.829622 6.62324 0
M  V30 5027 H 496.065 -0.460505 0.580531 0
M  V30 5028 H 498.712 -0.559716 1.83138 0
M  V30 5029 H 497.017 -3.10672 2.38726 0
M  V30 5030 H 498.714 -2.93083 2.73685 0
M  V30 5031 H 495.304 -1.9739 3.80441 0
M  V30 5032 H 499.488 -1.5829 4.70381 0
M  V30 5033 H 494.744 -1.06817 6.01997 0
M  V30 5034 H 498.918 -0.685608 6.93017 0
M  V30 5035 H 496.545 -0.42253 7.59025 0
M  V30 5036 N 498.12 -1.38341 -0.754957 0
M  V30 5037 C 499.348 -1.37704 -1.54419 0
M  V30 5038 C 499.763 0.0335243 -1.8877 0
M  V30 5039 O 499.12 0.999773 -1.52679 0
M  V30 5040 C 499.171 -2.23136 -2.84416 0
M  V30 5041 O 498.892 -3.58697 -2.51531 0
M  V30 5042 C 500.393 -2.30664 -3.78562 0
M  V30 5043 H 497.613 -0.471061 -0.477852 0
M  V30 5044 H 500.157 -1.81902 -0.934446 0
M  V30 5045 H 498.312 -1.82403 -3.41772 0
M  V30 5046 H 498.726 -4.03665 -3.34896 0
M  V30 5047 H 500.2 -2.9473 -4.66732 0
M  V30 5048 H 500.677 -1.3199 -4.18898 0
M  V30 5049 H 501.283 -2.71781 -3.27131 0
M  V30 5050 N 499.598 0.982988 -1.23187 0
M  V30 5051 C 501.009 1.53847 -1.05773 0
M  V30 5052 C 501.36 1.92568 0.375744 0
M  V30 5053 O 500.485 1.75783 1.26211 0
M  V30 5054 C 501.08 2.79567 -1.91384 0
M  V30 5055 C 499.639 3.31524 -1.78238 0
M  V30 5056 C 498.786 2.04534 -1.87246 0
M  V30 5057 H 501.737 0.802962 -1.36888 0
M  V30 5058 H 501.758 3.52317 -1.43711 0
M  V30 5059 H 501.27 2.51353 -2.95708 0
M  V30 5060 H 499.371 3.64623 -0.766875 0
M  V30 5061 H 499.484 4.01457 -2.61475 0
M  V30 5062 H 497.848 2.1855 -1.30797 0
M  V30 5063 H 498.631 1.78706 -2.9312 0
M  V30 5064 N 501.076 1.04316 1.18135 0
M  V30 5065 C 502.353 0.662166 1.84051 0
M  V30 5066 C 502.733 -0.858169 1.9287 0
M  V30 5067 O 502.081 -1.76062 1.45652 0
M  V30 5068 C 502.291 1.3409 3.22212 0
M  V30 5069 C 503.639 1.4733 3.9822 0
M  V30 5070 O 504.663 1.29921 3.31661 0
M  V30 5071 O 503.522 1.75722 5.17479 0
M  V30 5072 H 500.616 0.232005 0.79379 0
M  V30 5073 H 503.162 1.1422 1.25506 0
M  V30 5074 H 501.934 2.37853 3.10711 0
M  V30 5075 H 501.557 0.849649 3.88416 0
M  V30 5076 N 502.554 -1.34406 0.822964 0
M  V30 5077 C 503.802 -1.97892 0.410245 0
M  V30 5078 C 504.123 -1.65567 -1.03017 0
M  V30 5079 O 503.393 -0.94642 -1.71522 0
M  V30 5080 H 501.973 -0.732049 0.148707 0
M  V30 5081 H 504.635 -1.64043 1.05242 0
M  V30 5082 H 503.731 -3.07579 0.529284 0
M  V30 5083 N 504.032 -0.577932 -1.46621 0
M  V30 5084 C 505.28 -0.061566 -2.02006 0
M  V30 5085 C 505.601 1.30117 -1.4524 0
M  V30 5086 O 504.871 1.85313 -0.63529 0
M  V30 5087 H 503.451 -0.0197692 -0.746738 0
M  V30 5088 H 506.113 -0.752631 -1.79782 0
M  V30 5089 H 505.209 0.0110238 -3.12098 0
M  V30 5090 N 505.51 1.54411 -0.315457 0
M  V30 5091 C 506.921 1.85885 0.174265 0
M  V30 5092 C 507.272 1.23723 1.52273 0
M  V30 5093 O 506.397 0.540246 2.09548 0
M  V30 5094 C 506.992 3.37257 0.322981 0
M  V30 5095 C 505.551 3.68711 0.756922 0
M  V30 5096 C 504.698 2.77013 -0.126195 0
M  V30 5097 H 507.649 1.49374 -0.536007 0
M  V30 5098 H 507.67 3.62539 1.15522 0
M  V30 5099 H 507.182 3.82471 -0.658602 0
M  V30 5100 H 505.283 3.29024 1.74854 0
M  V30 5101 H 505.396 4.75741 0.566291 0
M  V30 5102 H 503.76 2.51588 0.39692 0
M  V30 5103 H 504.543 3.25051 -1.1044 0
M  V30 5104 N 506.988 0.0434614 1.5754 0
M  V30 5105 C 507.918 -0.931651 2.14109 0
M  V30 5106 C 508.899 -1.32971 1.06079 0
M  V30 5107 O 510.084 -1.40579 1.33982 0
M  V30 5108 C 507.214 -2.20914 2.67982 0
M  V30 5109 C 506.168 -1.95139 3.80926 0
M  V30 5110 C 505.494 -3.29276 4.21285 0
M  V30 5111 C 506.794 -1.27913 5.06395 0
M  V30 5112 H 508.488 -0.460497 2.95837 0
M  V30 5113 H 506.034 -0.220058 1.42309 0
M  V30 5114 H 507.987 -2.89522 3.06194 0
M  V30 5115 H 506.711 -2.70221 1.83434 0
M  V30 5116 H 505.37 -1.28945 3.43175 0
M  V30 5117 H 505.018 -3.76369 3.33699 0
M  V30 5118 H 504.718 -3.12831 4.97404 0
M  V30 5119 H 506.242 -3.99129 4.62091 0
M  V30 5120 H 507.656 -1.86544 5.42102 0
M  V30 5121 H 506.053 -1.2182 5.87605 0
M  V30 5122 H 507.123 -0.254066 4.84234 0
M  V30 5123 N 508.466 -1.55915 -0.229846 0
M  V30 5124 C 509.396 -1.94754 -1.28815 0
M  V30 5125 C 510.377 -0.814657 -1.49323 0
M  V30 5126 O 511.562 -1.07631 -1.61645 0
M  V30 5127 C 508.692 -2.25705 -2.63959 0
M  V30 5128 C 507.646 -3.41406 -2.5812 0
M  V30 5129 C 506.972 -3.57941 -3.97218 0
M  V30 5130 C 508.272 -4.76616 -2.13623 0
M  V30 5131 H 509.966 -2.83404 -0.965547 0
M  V30 5132 H 507.512 -1.36353 -0.463028 0
M  V30 5133 H 509.465 -2.51467 -3.38146 0
M  V30 5134 H 508.189 -1.339 -2.9789 0
M  V30 5135 H 506.848 -3.1568 -1.86391 0
M  V30 5136 H 506.496 -2.63526 -4.28443 0
M  V30 5137 H 506.196 -4.35757 -3.94195 0
M  V30 5138 H 507.72 -3.86042 -4.73079 0
M  V30 5139 H 509.134 -5.01637 -2.77549 0
M  V30 5140 H 507.531 -5.57655 -2.21677 0
M  V30 5141 H 508.601 -4.7253 -1.08829 0
M  V30 5142 N 509.944 0.496216 -1.49584 0
M  V30 5143 C 511.192 1.24756 -1.58998 0
M  V30 5144 C 511.513 1.92968 -0.280775 0
M  V30 5145 O 510.783 1.82959 0.700198 0
M  V30 5146 H 509.363 0.463471 -0.585836 0
M  V30 5147 H 512.025 0.574678 -1.86235 0
M  V30 5148 H 511.121 2.00895 -2.38847 0
M  V30 5149 N 511.423 1.38739 0.74761 0
M  V30 5150 C 512.333 1.38696 1.89211 0
M  V30 5151 C 513.349 0.283303 1.71678 0
M  V30 5152 O 514.525 0.522713 1.94498 0
M  V30 5153 C 511.59 1.21662 3.24653 0
M  V30 5154 C 510.651 2.41886 3.54669 0
M  V30 5155 C 509.884 2.25655 4.83648 0
M  V30 5156 O 510.107 1.25339 5.56459 0
M  V30 5157 O 509.041 3.14372 5.13277 0
M  V30 5158 H 512.867 2.35143 1.92202 0
M  V30 5159 H 510.452 1.19721 0.893708 0
M  V30 5160 H 512.334 1.14246 4.05618 0
M  V30 5161 H 511.009 0.283024 3.2246 0
M  V30 5162 H 509.916 2.54877 2.73841 0
M  V30 5163 H 511.249 3.33895 3.61628 0
M  V30 5164 N 512.901 -0.976442 1.23707 0
M  V30 5165 C 514.126 -1.75875 1.09922 0
M  V30 5166 C 514.551 -1.84911 -0.34489 0
M  V30 5167 O 513.909 -1.31363 -1.24954 0
M  V30 5168 C 513.957 -3.16179 1.73388 0
M  V30 5169 O 513.061 -4.00124 0.99871 0
M  V30 5170 H 512.402 -0.540954 0.385052 0
M  V30 5171 H 514.932 -1.22546 1.6384 0
M  V30 5172 H 514.942 -3.66741 1.78788 0
M  V30 5173 H 513.617 -3.08917 2.78466 0
M  V30 5174 H 512.194 -3.58624 1.02193 0
M  V30 5175 N 514.379 -1.04941 -1.1758 0
M  V30 5176 C 515.326 -0.648155 -2.21512 0
M  V30 5177 C 516.296 0.348431 -1.62404 0
M  V30 5178 O 517.481 0.240419 -1.89279 0
M  V30 5179 C 514.621 -0.0264291 -3.4509 0
M  V30 5180 C 513.734 -1.07154 -4.185 0
M  V30 5181 C 512.869 -0.417403 -5.29558 0
M  V30 5182 C 511.908 -1.447 -5.94751 0
M  V30 5183 N 511.045 -0.817203 -6.97328 0
M  V30 5184 H 515.885 -1.53891 -2.55189 0
M  V30 5185 H 513.422 -0.769699 -1.25356 0
M  V30 5186 H 515.38 0.351456 -4.15717 0
M  V30 5187 H 514.01 0.827802 -3.12005 0
M  V30 5188 H 513.062 -1.56728 -3.46613 0
M  V30 5189 H 514.374 -1.8532 -4.63096 0
M  V30 5190 H 513.528 0.0142061 -6.06698 0
M  V30 5191 H 512.267 0.396265 -4.86087 0
M  V30 5192 H 511.272 -1.88865 -5.16343 0
M  V30 5193 H 512.497 -2.26252 -6.40302 0
M  V30 5194 H 510.443 -0.0239995 -6.55996 0
M  V30 5195 H 510.36 -1.53644 -7.40223 0
M  V30 5196 H 511.628 -0.410283 -7.7842 0
M  V30 5197 N 515.857 1.33968 -0.830081 0
M  V30 5198 C 516.767 2.33164 -0.259207 0
M  V30 5199 C 517.783 1.62951 0.610164 0
M  V30 5200 O 518.959 1.94668 0.516369 0
M  V30 5201 C 516.024 3.42088 0.563598 0
M  V30 5202 C 515.085 4.28037 -0.329014 0
M  V30 5203 C 514.318 5.3176 0.454616 0
M  V30 5204 O 514.541 5.44876 1.6872 0
M  V30 5205 O 513.475 6.01669 -0.166794 0
M  V30 5206 H 517.301 2.83832 -1.08041 0
M  V30 5207 H 514.886 1.37154 -0.59239 0
M  V30 5208 H 516.768 4.08581 1.03147 0
M  V30 5209 H 515.443 2.93651 1.36201 0
M  V30 5210 H 514.35 3.64443 -0.844538 0
M  V30 5211 H 515.683 4.79934 -1.09196 0
M  V30 5212 N 517.335 0.585699 1.46312 0
M  V30 5213 C 518.265 -0.133556 2.33118 0
M  V30 5214 C 519.246 -0.880707 1.45525 0
M  V30 5215 O 520.431 -0.855579 1.74337 0
M  V30 5216 C 517.561 -1.14585 3.27853 0
M  V30 5217 C 516.515 -0.513341 4.2491 0
M  V30 5218 C 515.841 -1.63231 5.09175 0
M  V30 5219 C 517.141 0.551413 5.19381 0
M  V30 5220 H 518.835 0.59121 2.93505 0
M  V30 5221 H 516.381 0.285761 1.41136 0
M  V30 5222 H 518.334 -1.65741 3.87438 0
M  V30 5223 H 517.058 -1.90093 2.65579 0
M  V30 5224 H 515.717 -0.0228349 3.66593 0
M  V30 5225 H 515.365 -2.37713 4.43285 0
M  V30 5226 H 515.065 -1.21473 5.74907 0
M  V30 5227 H 516.589 -2.14658 5.71624 0
M  V30 5228 H 518.003 0.124804 5.73164 0
M  V30 5229 H 516.4 0.889486 5.93471 0
M  V30 5230 H 517.47 1.43655 4.63132 0
M  V30 5231 N 518.813 -1.54241 0.323641 0
M  V30 5232 C 520.09 -1.92741 -0.333181 0
M  V30 5233 C 520.47 -1.25326 -1.69872 0
M  V30 5234 O 519.818 -0.396991 -2.25025 0
M  V30 5235 C 520.028 -3.46399 -0.425322 0
M  V30 5236 C 521.376 -4.19029 -0.68557 0
M  V30 5237 O 522.4 -3.52555 -0.50824 0
M  V30 5238 O 521.259 -5.36751 -1.02767 0
M  V30 5239 H 518.353 -0.804811 -0.190286 0
M  V30 5240 H 520.899 -1.65542 0.373361 0
M  V30 5241 H 519.671 -3.87643 0.533737 0
M  V30 5242 H 519.294 -3.79704 -1.17944 0
M  V30 5243 N 520.291 -0.0518155 -1.57515 0
M  V30 5244 C 521.539 0.620595 -1.92336 0
M  V30 5245 C 521.86 1.71345 -0.930907 0
M  V30 5246 O 521.13 1.95885 0.0241341 0
M  V30 5247 H 519.71 0.232226 -0.709986 0
M  V30 5248 H 522.372 -0.104969 -1.94617 0
M  V30 5249 H 521.468 1.05879 -2.93592 0
M  V30 5250 N 521.769 1.56035 0.221574 0
M  V30 5251 C 523.016 1.79047 0.94597 0
M  V30 5252 C 523.344 0.62057 1.84334 0
M  V30 5253 O 522.599 -0.395053 1.91671 0
M  V30 5254 C 522.898 3.07813 1.8162 0
M  V30 5255 C 522.564 4.3797 1.07206 0
M  V30 5256 C 521.226 4.73334 0.866508 0
M  V30 5257 C 523.578 5.18326 0.546565 0
M  V30 5258 C 520.906 5.8657 0.123549 0
M  V30 5259 C 523.258 6.32335 -0.18305 0
M  V30 5260 C 521.922 6.66301 -0.399861 0
M  V30 5261 H 521.192 0.655178 0.346155 0
M  V30 5262 H 523.839 1.90299 0.214146 0
M  V30 5263 H 522.144 2.91682 2.61589 0
M  V30 5264 H 523.841 3.2282 2.37884 0
M  V30 5265 H 520.431 4.10202 1.24226 0
M  V30 5266 H 524.615 4.9144 0.692847 0
M  V30 5267 H 519.871 6.11376 -0.0546591 0
M  V30 5268 H 524.045 6.9383 -0.59775 0
M  V30 5269 H 521.672 7.53889 -0.977489 0
M  V30 5270 N 523.247 -0.488276 1.49845 0
M  V30 5271 C 524.477 -1.26344 1.63465 0
M  V30 5272 C 524.885 -1.86637 0.310379 0
M  V30 5273 O 524.228 -1.69184 -0.715712 0
M  V30 5274 C 524.29 -2.42407 2.65479 0
M  V30 5275 C 523.954 -2.02886 4.09495 0
M  V30 5276 C 524.951 -1.56124 4.95904 0
M  V30 5277 C 522.636 -2.12131 4.55308 0
M  V30 5278 C 524.63 -1.19129 6.26169 0
M  V30 5279 C 522.317 -1.74747 5.85582 0
M  V30 5280 C 523.315 -1.28322 6.70837 0
M  V30 5281 O 523.003 -0.914491 7.98682 0
M  V30 5282 H 522.735 -0.388921 0.552916 0
M  V30 5283 H 525.289 -0.591288 1.96705 0
M  V30 5284 H 523.519 -3.12739 2.27445 0
M  V30 5285 H 525.208 -3.04409 2.68495 0
M  V30 5286 H 525.974 -1.48417 4.61733 0
M  V30 5287 H 521.853 -2.47217 3.89107 0
M  V30 5288 H 525.397 -0.828211 6.92666 0
M  V30 5289 H 521.294 -1.82109 6.19279 0
M  V30 5290 H 522.062 -1.04485 8.11804 0
M  V30 5291 N 524.725 -1.39134 -0.740242 0
M  V30 5292 C 525.971 -1.36273 -1.50192 0
M  V30 5293 C 526.304 0.0430136 -1.94152 0
M  V30 5294 O 525.579 1.00691 -1.66408 0
M  V30 5295 C 525.862 -2.33041 -2.74525 0
M  V30 5296 C 525.715 -3.82535 -2.36617 0
M  V30 5297 C 527.034 -2.27723 -3.76604 0
M  V30 5298 H 524.153 -0.496323 -0.544823 0
M  V30 5299 H 526.795 -1.70085 -0.846815 0
M  V30 5300 H 524.945 -2.04337 -3.30422 0
M  V30 5301 H 526.617 -4.21967 -1.86391 0
M  V30 5302 H 524.86 -3.99565 -1.68909 0
M  V30 5303 H 525.531 -4.45723 -3.2563 0
M  V30 5304 H 528.007 -2.53091 -3.30279 0
M  V30 5305 H 526.883 -2.97519 -4.61274 0
M  V30 5306 H 527.144 -1.28049 -4.2315 0
M  V30 5307 N 526.204 0.969867 -1.24223 0
M  V30 5308 C 527.167 2.04564 -1.03373 0
M  V30 5309 C 528.167 1.60798 0.00819206 0
M  V30 5310 O 529.357 1.72641 -0.232567 0
M  V30 5311 C 526.489 3.36163 -0.566343 0
M  V30 5312 H 527.682 2.24494 -1.98853 0
M  V30 5313 H 525.235 1.1448 -1.06415 0
M  V30 5314 H 525.97 3.21925 0.391751 0
M  V30 5315 H 525.755 3.69273 -1.31834 0
M  V30 5316 H 527.245 4.1526 -0.441435 0
M  V30 5317 N 527.682 1.05563 1.17022 0
M  V30 5318 C 528.592 0.670758 2.24807 0
M  V30 5319 C 529.608 -0.309865 1.71219 0
M  V30 5320 O 530.784 -0.161025 2.00755 0
M  V30 5321 C 527.849 0.055337 3.46656 0
M  V30 5322 C 526.91 1.08688 4.15314 0
M  V30 5323 C 526.143 0.500736 5.31346 0
M  V30 5324 O 526.366 -0.688718 5.66227 0
M  V30 5325 O 525.3 1.23683 5.89055 0
M  V30 5326 H 529.126 1.56914 2.60023 0
M  V30 5327 H 526.711 0.827428 1.24395 0
M  V30 5328 H 528.593 -0.286492 4.20425 0
M  V30 5329 H 527.268 -0.816638 3.13229 0
M  V30 5330 H 526.175 1.48077 3.43546 0
M  V30 5331 H 527.508 1.93014 4.52777 0
M  V30 5332 N 529.16 -1.33526 0.837174 0
M  V30 5333 C 530.123 -2.27551 0.274421 0
M  V30 5334 C 531.123 -1.50886 -0.555881 0
M  V30 5335 O 532.313 -1.70227 -0.369918 0
M  V30 5336 C 529.445 -3.35332 -0.613605 0
M  V30 5337 H 530.638 -2.78837 1.10408 0
M  V30 5338 H 528.191 -1.439 0.610126 0
M  V30 5339 H 528.926 -2.89285 -1.46577 0
M  V30 5340 H 528.711 -3.92095 -0.0195341 0
M  V30 5341 H 530.201 -4.05433 -1.00068 0
M  V30 5342 N 530.638 -0.59345 -1.46 0
M  V30 5343 C 531.884 -0.0832754 -2.02629 0
M  V30 5344 C 532.217 1.27749 -1.46266 0
M  V30 5345 O 531.492 1.8395 -0.631866 0
M  V30 5346 C 531.775 -0.0290756 -3.60088 0
M  V30 5347 C 531.628 -1.41951 -4.26814 0
M  V30 5348 C 532.947 0.666055 -4.35031 0
M  V30 5349 H 530.066 -0.031736 -0.736316 0
M  V30 5350 H 532.708 -0.762711 -1.74019 0
M  V30 5351 H 530.858 0.549532 -3.84594 0
M  V30 5352 H 532.53 -2.04411 -4.13538 0
M  V30 5353 H 530.773 -1.98422 -3.8576 0
M  V30 5354 H 531.444 -1.33395 -5.3564 0
M  V30 5355 H 533.92 0.174401 -4.15734 0
M  V30 5356 H 532.796 0.673041 -5.44758 0
M  V30 5357 H 533.057 1.72946 -4.06869 0
M  V30 5358 N 532.116 1.54067 -0.331816 0
M  V30 5359 C 533.362 2.01713 0.261395 0
M  V30 5360 C 533.717 1.21566 1.49129 0
M  V30 5361 O 533.01 0.291867 1.89364 0
M  V30 5362 C 533.204 3.51634 0.639392 0
M  V30 5363 C 533.033 4.46295 -0.552321 0
M  V30 5364 C 531.803 4.94185 -1.05399 0
M  V30 5365 C 534.001 4.94677 -1.40711 0
M  V30 5366 N 531.983 5.7277 -2.20925 0
M  V30 5367 C 533.354 5.71267 -2.40943 0
M  V30 5368 C 535.409 4.76805 -1.43392 0
M  V30 5369 C 534.112 6.31889 -3.4367 0
M  V30 5370 C 536.138 5.38268 -2.44994 0
M  V30 5371 C 535.5 6.14716 -3.43952 0
M  V30 5372 H 531.599 0.77975 0.0592729 0
M  V30 5373 H 534.183 1.88974 -0.468726 0
M  V30 5374 H 532.354 3.64603 1.33863 0
M  V30 5375 H 534.086 3.86038 1.21478 0
M  V30 5376 H 530.841 4.69472 -0.623952 0
M  V30 5377 H 531.265 6.16737 -2.79222 0
M  V30 5378 H 535.907 4.17255 -0.682489 0
M  V30 5379 H 533.625 6.90554 -4.19715 0
M  V30 5380 H 537.211 5.26352 -2.4788 0
M  V30 5381 H 536.091 6.6143 -4.21283 0
M  V30 5382 N 533.594 0.0601682 1.57485 0
M  V30 5383 C 534.84 -0.612501 1.93329 0
M  V30 5384 C 535.173 -1.6996 0.939526 0
M  V30 5385 O 534.448 -1.94472 -0.0330957 0
M  V30 5386 C 534.731 -1.20025 3.39508 0
M  V30 5387 C 534.584 -0.12059 4.49638 0
M  V30 5388 C 535.903 -2.10923 3.86264 0
M  V30 5389 H 533.022 -0.221185 0.703027 0
M  V30 5390 H 535.664 0.123768 1.89596 0
M  V30 5391 H 533.814 -1.82774 3.42821 0
M  V30 5392 H 535.486 0.51185 4.58452 0
M  V30 5393 H 533.729 0.550251 4.30296 0
M  V30 5394 H 534.4 -0.572019 5.49028 0
M  V30 5395 H 536.876 -1.58124 3.84884 0
M  V30 5396 H 535.752 -2.48987 4.8918 0
M  V30 5397 H 536.013 -3.01292 3.23536 0
M  V30 5398 N 535.072 -1.5615 -0.213296 0
M  V30 5399 C 536.3 -1.83638 -0.953139 0
M  V30 5400 C 536.715 -0.640362 -1.77609 0
M  V30 5401 O 536.072 0.391071 -1.78261 0
M  V30 5402 C 536.123 -3.09735 -1.86405 0
M  V30 5403 O 535.844 -4.24723 -1.07435 0
M  V30 5404 C 537.345 -3.5027 -2.71709 0
M  V30 5405 H 534.565 -0.610263 -0.278962 0
M  V30 5406 H 537.109 -2.03247 -0.226035 0
M  V30 5407 H 535.264 -2.92077 -2.545 0
M  V30 5408 H 535.678 -4.9641 -1.69343 0
M  V30 5409 H 537.152 -4.41515 -3.31313 0
M  V30 5410 H 537.629 -2.72406 -3.44516 0
M  V30 5411 H 538.235 -3.70396 -2.09015 0
M  V30 5412 N 536.55 0.480323 -1.50102 0
M  V30 5413 C 537.5 1.57685 -1.6468 0
M  V30 5414 C 538.484 1.52878 -0.5017 0
M  V30 5415 O 539.676 1.60058 -0.755668 0
M  V30 5416 C 536.805 2.96185 -1.73578 0
M  V30 5417 C 535.891 3.0591 -2.93734 0
M  V30 5418 N 536.282 2.85471 -4.1754 0
M  V30 5419 C 534.58 3.37036 -2.92101 0
M  V30 5420 C 535.281 2.99921 -4.9842 0
M  V30 5421 N 534.257 3.29715 -4.32191 0
M  V30 5422 H 538.059 1.40568 -2.58104 0
M  V30 5423 H 535.573 0.686874 -1.47159 0
M  V30 5424 H 537.57 3.75015 -1.82124 0
M  V30 5425 H 536.23 3.14356 -0.813057 0
M  V30 5426 H 537.241 2.61235 -4.47188 0
M  V30 5427 H 533.918 3.61253 -2.09291 0
M  V30 5428 H 535.308 2.88436 -6.06839 0
M  V30 5429 N 538.028 1.39524 0.732853 0
M  V30 5430 C 539.253 1.40329 1.52717 0
M  V30 5431 C 539.678 0.000286574 1.881 0
M  V30 5432 O 539.036 -0.987262 1.52062 0
M  V30 5433 C 539.084 2.28464 2.78992 0
M  V30 5434 O 538.188 1.716 3.75003 0
M  V30 5435 H 537.529 0.47778 0.461109 0
M  V30 5436 H 540.059 1.83546 0.903996 0
M  V30 5437 H 540.069 2.43051 3.27705 0
M  V30 5438 H 538.744 3.30425 2.52572 0
M  V30 5439 H 537.321 1.66267 3.33781 0
M  V30 5440 N 539.506 -0.963266 1.24736 0
M  V30 5441 C 540.469 -2.04013 1.04457 0
M  V30 5442 C 541.469 -1.608 0.000335555 0
M  V30 5443 O 542.659 -1.72515 0.241719 0
M  V30 5444 C 539.791 -3.35858 0.584162 0
M  V30 5445 H 540.984 -2.23436 2.00041 0
M  V30 5446 H 538.537 -1.13914 1.07021 0
M  V30 5447 H 539.272 -3.22128 -0.374673 0
M  V30 5448 H 539.057 -3.68568 1.3379 0
M  V30 5449 H 540.547 -4.1502 0.463451 0
M  V30 5450 N 540.985 -1.06182 -1.16461 0
M  V30 5451 C 542.233 -0.776326 -1.86595 0
M  V30 5452 C 542.554 0.69921 -1.82033 0
M  V30 5453 O 541.824 1.50579 -1.2531 0
M  V30 5454 H 540.404 -0.284184 -0.690832 0
M  V30 5455 H 543.066 -1.34308 -1.41235 0
M  V30 5456 H 542.162 -1.10022 -2.92064 0
M  V30 5457 N 542.463 1.3308 -0.844243 0
M  V30 5458 C 543.709 1.97898 -0.443206 0
M  V30 5459 C 544.042 1.66699 0.99625 0
M  V30 5460 O 543.317 0.949704 1.69738 0
M  V30 5461 C 543.6 3.53801 -0.670606 0
M  V30 5462 C 543.453 3.94667 -2.15772 0
M  V30 5463 C 544.772 4.39936 -0.120226 0
M  V30 5464 H 541.891 0.718861 -0.162504 0
M  V30 5465 H 544.533 1.57633 -1.06075 0
M  V30 5466 H 542.683 3.88229 -0.14496 0
M  V30 5467 H 544.355 3.70469 -2.74865 0
M  V30 5468 H 542.598 3.44203 -2.6402 0
M  V30 5469 H 543.269 5.03275 -2.26757 0
M  V30 5470 H 545.745 4.12183 -0.5696 0
M  V30 5471 H 544.621 5.4803 -0.308984 0
M  V30 5472 H 544.882 4.31184 0.976347 0
M  V30 5473 N 543.941 0.601185 1.45683 0
M  V30 5474 C 544.904 -0.111398 2.28929 0
M  V30 5475 C 545.904 -0.801246 1.39416 0
M  V30 5476 O 547.094 -0.650383 1.61603 0
M  V30 5477 C 544.226 -1.16773 3.20276 0
M  V30 5478 H 545.419 0.620412 2.93413 0
M  V30 5479 H 542.972 0.359946 1.52099 0
M  V30 5480 H 543.707 -1.93051 2.60579 0
M  V30 5481 H 543.492 -0.677358 3.86205 0
M  V30 5482 H 544.982 -1.66698 3.82886 0
M  V30 5483 N 545.419 -1.53889 0.339982 0
M  V30 5484 C 546.366 -2.24902 -0.518452 0
M  V30 5485 C 547.336 -1.24593 -1.09844 0
M  V30 5486 O 548.521 -1.53317 -1.13572 0
M  V30 5487 C 545.661 -3.02262 -1.66529 0
M  V30 5488 C 544.774 -4.17418 -1.11295 0
M  V30 5489 C 543.909 -4.82273 -2.2268 0
M  V30 5490 C 542.948 -5.89503 -1.6478 0
M  V30 5491 N 542.085 -6.48153 -2.69893 0
M  V30 5492 H 546.925 -2.97853 0.0936579 0
M  V30 5493 H 544.462 -1.46986 0.0579924 0
M  V30 5494 H 546.42 -3.45371 -2.3404 0
M  V30 5495 H 545.05 -2.31614 -2.24844 0
M  V30 5496 H 544.102 -3.78976 -0.328886 0
M  V30 5497 H 545.414 -4.94554 -0.649414 0
M  V30 5498 H 544.568 -5.28435 -2.98063 0
M  V30 5499 H 543.307 -4.04552 -2.72376 0
M  V30 5500 H 542.312 -5.42728 -0.879004 0
M  V30 5501 H 543.537 -6.6913 -1.1594 0
M  V30 5502 H 541.483 -5.73298 -3.1885 0
M  V30 5503 H 541.4 -7.20752 -2.28151 0
M  V30 5504 H 542.668 -6.98968 -3.45056 0
M  V30 5505 N 546.897 -0.0685191 -1.57451 0
M  V30 5506 C 547.86 0.885173 -2.11417 0
M  V30 5507 C 548.86 1.22853 -1.03748 0
M  V30 5508 O 550.05 1.16235 -1.2975 0
M  V30 5509 C 547.182 2.18964 -2.61281 0
M  V30 5510 H 548.375 0.417034 -2.96986 0
M  V30 5511 H 545.928 0.18014 -1.55258 0
M  V30 5512 H 546.663 2.70321 -1.79156 0
M  V30 5513 H 546.448 1.9534 -3.39977 0
M  V30 5514 H 547.938 2.87242 -3.0312 0
M  V30 5515 N 548.375 1.56261 0.205012 0
M  V30 5516 C 549.308 1.88797 1.28183 0
M  V30 5517 C 550.286 0.747018 1.44424 0
M  V30 5518 O 551.47 0.997039 1.59973 0
M  V30 5519 C 548.597 2.10949 2.64987 0
M  V30 5520 C 547.643 3.33649 2.6567 0
M  V30 5521 S 548.476 4.89078 2.18088 0
M  V30 5522 C 549.632 5.14286 3.56736 0
M  V30 5523 H 549.865 2.79837 1.00393 0
M  V30 5524 H 547.398 1.48911 0.408042 0
M  V30 5525 H 549.356 2.24395 3.4374 0
M  V30 5526 H 548.017 1.20678 2.89993 0
M  V30 5527 H 547.21 3.46245 3.66239 0
M  V30 5528 H 546.812 3.19146 1.94992 0
M  V30 5529 H 549.104 5.04198 4.52537 0
M  V30 5530 H 550.047 6.16096 3.49043 0
M  V30 5531 H 550.455 4.41957 3.51189 0
M  V30 5532 N 549.853 -0.472356 1.50355 0
M  V30 5533 C 550.816 -1.5529 1.68576 0
M  V30 5534 C 551.816 -1.50863 0.556511 0
M  V30 5535 O 553.006 -1.53505 0.823516 0
M  V30 5536 C 550.138 -2.94921 1.70981 0
M  V30 5537 H 551.331 -1.40451 2.64978 0
M  V30 5538 H 548.884 -0.698645 1.39816 0
M  V30 5539 H 549.619 -3.15204 0.762675 0
M  V30 5540 H 549.404 -2.99541 2.53017 0
M  V30 5541 H 550.894 -3.73372 1.87037 0
M  V30 5542 N 551.331 -1.39911 -0.725443 0
M  V30 5543 C 552.241 -1.41688 -1.8698 0
M  V30 5544 C 553.257 -0.310579 -1.71206 0
M  V30 5545 O 554.433 -0.55359 -1.93642 0
M  V30 5546 C 551.498 -1.26811 -3.22676 0
M  V30 5547 C 550.559 -2.47497 -3.50776 0
M  V30 5548 C 549.792 -2.3332 -4.79997 0
M  V30 5549 O 550.015 -1.34175 -5.54394 0
M  V30 5550 O 548.949 -3.22498 -5.08211 0
M  V30 5551 H 552.775 -2.38171 -1.88436 0
M  V30 5552 H 550.36 -1.21128 -0.874548 0
M  V30 5553 H 552.242 -1.20684 -4.03749 0
M  V30 5554 H 550.917 -0.334289 -3.21969 0
M  V30 5555 H 549.824 -2.59201 -2.69751 0
M  V30 5556 H 551.157 -3.39606 -3.5627 0
M  V30 5557 N 552.809 0.956637 -1.25245 0
M  V30 5558 C 553.739 2.07058 -1.07931 0
M  V30 5559 C 554.72 1.70096 0.0110361 0
M  V30 5560 O 555.905 1.93555 -0.158121 0
M  V30 5561 C 553.035 3.40272 -0.695124 0
M  V30 5562 C 551.989 3.91235 -1.73549 0
M  V30 5563 C 551.315 5.20921 -1.20604 0
M  V30 5564 C 552.615 4.17837 -3.13385 0
M  V30 5565 H 554.309 2.218 -2.01109 0
M  V30 5566 H 551.855 1.06581 -0.968326 0
M  V30 5567 H 553.808 4.1765 -0.560949 0
M  V30 5568 H 552.532 3.25462 0.272355 0
M  V30 5569 H 551.191 3.16025 -1.85807 0
M  V30 5570 H 550.839 5.02479 -0.228846 0
M  V30 5571 H 550.539 5.55987 -1.90136 0
M  V30 5572 H 552.063 6.00897 -1.08421 0
M  V30 5573 H 553.477 4.8588 -3.04292 0
M  V30 5574 H 551.874 4.64154 -3.80369 0
M  V30 5575 H 552.944 3.2419 -3.60595 0
M  V30 5576 N 554.287 1.06798 1.15896 0
M  V30 5577 C 555.217 0.704677 2.22613 0
M  V30 5578 C 556.198 -0.305252 1.67339 0
M  V30 5579 O 557.383 -0.179247 1.93371 0
M  V30 5580 C 554.513 0.0957325 3.47168 0
M  V30 5581 C 553.467 1.0322 4.15367 0
M  V30 5582 C 552.793 0.286293 5.33933 0
M  V30 5583 C 554.093 2.36341 4.65768 0
M  V30 5584 H 555.787 1.59688 2.53259 0
M  V30 5585 H 553.333 0.769257 1.21731 0
M  V30 5586 H 555.286 -0.170333 4.21056 0
M  V30 5587 H 554.01 -0.831516 3.15838 0
M  V30 5588 H 552.669 1.28309 3.43413 0
M  V30 5589 H 552.317 -0.644237 4.98857 0
M  V30 5590 H 552.017 0.910436 5.80504 0
M  V30 5591 H 553.541 0.0278938 6.10594 0
M  V30 5592 H 554.955 2.1561 5.31211 0
M  V30 5593 H 553.352 2.94299 5.2298 0
M  V30 5594 H 554.422 2.99047 3.81705 0
M  V30 5595 N 555.766 -1.3263 0.851289 0
M  V30 5596 C 556.994 -2.01563 0.466899 0
M  V30 5597 C 557.409 -1.63996 -0.935447 0
M  V30 5598 O 556.766 -0.85957 -1.6099 0
M  V30 5599 C 556.817 -3.56613 0.592433 0
M  V30 5600 O 556.538 -3.92828 1.93954 0
M  V30 5601 C 558.039 -4.42818 0.206612 0
M  V30 5602 H 555.259 -0.645307 0.183902 0
M  V30 5603 H 557.803 -1.69285 1.1473 0
M  V30 5604 H 555.958 -3.87379 -0.0401936 0
M  V30 5605 H 556.372 -4.87545 1.9339 0
M  V30 5606 H 557.846 -5.50918 0.345462 0
M  V30 5607 H 558.323 -4.30844 -0.85264 0
M  V30 5608 H 558.929 -4.17434 0.814176 0
M  V30 5609 N 557.244 -0.608902 -1.45362 0
M  V30 5610 C 558.472 -0.111013 -2.06602 0
M  V30 5611 C 558.887 1.20516 -1.45332 0
M  V30 5612 O 558.244 1.73437 -0.567978 0
M  V30 5613 C 558.295 0.033688 -3.61484 0
M  V30 5614 O 558.016 -1.23041 -4.20467 0
M  V30 5615 C 559.517 0.562882 -4.39712 0
M  V30 5616 H 556.737 -0.0694453 -0.667397 0
M  V30 5617 H 559.281 -0.837008 -1.86586 0
M  V30 5618 H 557.436 0.710016 -3.80838 0
M  V30 5619 H 557.85 -1.06094 -5.13658 0
M  V30 5620 H 559.324 0.613213 -5.48583 0
M  V30 5621 H 559.801 1.58543 -4.09586 0
M  V30 5622 H 560.407 -0.0794454 -4.25226 0
M  V30 5623 N 558.722 1.53707 -0.348139 0
M  V30 5624 C 559.97 2.00591 0.246478 0
M  V30 5625 C 560.291 1.23753 1.50699 0
M  V30 5626 O 559.561 0.345964 1.92821 0
M  V30 5627 H 558.141 0.741053 0.0940679 0
M  V30 5628 H 560.803 1.89139 -0.470354 0
M  V30 5629 H 559.899 3.08297 0.485714 0
M  V30 5630 N 560.2 0.0768682 1.57412 0
M  V30 5631 C 561.616 -0.279772 1.57129 0
M  V30 5632 C 561.816 -1.69688 1.08666 0
M  V30 5633 O 560.872 -2.40953 0.754843 0
M  V30 5634 C 562.185 -0.0848055 3.0058 0
M  V30 5635 C 563.733 -0.153954 3.12621 0
M  V30 5636 C 564.208 0.0127946 4.57998 0
M  V30 5637 N 565.699 -0.0426435 4.6318 0
M  V30 5638 C 566.434 0.0618892 5.73367 0
M  V30 5639 N 565.93 0.220229 6.9245 0
M  V30 5640 N 567.723 0.00446072 5.621 0
M  V30 5641 H 559.874 1.00297 1.87228 0
M  V30 5642 H 562.137 0.391565 0.863354 0
M  V30 5643 H 561.843 0.89325 3.40168 0
M  V30 5644 H 561.717 -0.834961 3.67843 0
M  V30 5645 H 564.104 -1.1225 2.72917 0
M  V30 5646 H 564.185 0.627389 2.47987 0
M  V30 5647 H 563.829 0.978128 4.98392 0
M  V30 5648 H 563.759 -0.788016 5.20671 0
M  V30 5649 H 566.25 -0.163226 3.77547 0
M  V30 5650 H 566.563 0.291999 7.72248 0
M  V30 5651 H 564.908 0.255658 6.9453 0
M  V30 5652 H 568.099 -0.117979 4.67951 0
M  V30 5653 H 568.272 0.0893796 6.47938 0
M  V30 5654 N 561.678 -1.56367 -0.196722 0
M  V30 5655 C 562.903 -1.84991 -0.937714 0
M  V30 5656 C 563.328 -0.660244 -1.76132 0
M  V30 5657 O 562.686 0.390967 -1.77034 0
M  V30 5658 C 562.734 -3.11828 -1.81096 0
M  V30 5659 O 561.838 -2.92266 -2.90955 0
M  V30 5660 H 561.179 -0.609193 -0.264159 0
M  V30 5661 H 563.709 -2.03595 -0.202529 0
M  V30 5662 H 563.719 -3.42579 -2.21594 0
M  V30 5663 H 562.394 -3.98037 -1.2058 0
M  V30 5664 H 560.971 -2.72809 -2.54224 0
M  V30 5665 N 563.156 0.464375 -1.50603 0
M  V30 5666 C 564.066 1.58723 -1.72754 0
M  V30 5667 C 565.082 1.62925 -0.610844 0
M  V30 5668 O 566.258 1.8067 -0.889963 0
M  V30 5669 C 563.323 2.94897 -1.82309 0
M  V30 5670 C 562.384 3.0103 -3.06071 0
M  V30 5671 C 561.617 4.30708 -3.1516 0
M  V30 5672 O 561.84 5.2159 -2.30868 0
M  V30 5673 O 560.774 4.42571 -4.0794 0
M  V30 5674 H 564.6 1.42954 -2.67951 0
M  V30 5675 H 562.185 0.644579 -1.3478 0
M  V30 5676 H 564.067 3.75764 -1.90735 0
M  V30 5677 H 562.742 3.10851 -0.902967 0
M  V30 5678 H 561.649 2.19217 -3.03142 0
M  V30 5679 H 562.982 2.90014 -3.97684 0
M  V30 5680 N 564.634 1.40294 0.718013 0
M  V30 5681 C 565.862 1.4175 1.50714 0
M  V30 5682 C 566.277 0.0165366 1.88793 0
M  V30 5683 O 565.634 -0.958942 1.55276 0
M  V30 5684 C 565.685 2.30598 2.784 0
M  V30 5685 O 565.406 3.6524 2.41932 0
M  V30 5686 C 566.907 2.4062 3.72313 0
M  V30 5687 H 564.127 0.483565 0.465194 0
M  V30 5688 H 566.671 1.84316 0.885889 0
M  V30 5689 H 564.826 1.91401 3.36815 0
M  V30 5690 H 565.24 4.12402 3.24076 0
M  V30 5691 H 566.714 3.07001 4.58753 0
M  V30 5692 H 567.191 1.4305 4.15251 0
M  V30 5693 H 567.797 2.80359 3.19811 0
M  V30 5694 N 566.112 -0.949982 1.2575 0
M  V30 5695 C 567.389 -1.6718 1.01539 0
M  V30 5696 C 567.769 -2.06095 -0.456942 0
M  V30 5697 O 567.117 -1.77792 -1.43534 0
M  V30 5698 C 567.327 -2.8906 1.95564 0
M  V30 5699 C 568.675 -3.60909 2.23673 0
M  V30 5700 O 569.699 -2.9915 1.9336 0
M  V30 5701 O 568.558 -4.72127 2.75243 0
M  V30 5702 H 565.652 -0.731697 0.385419 0
M  V30 5703 H 568.198 -1.00249 1.36924 0
M  V30 5704 H 566.97 -2.57128 2.94959 0
M  V30 5705 H 566.593 -3.63719 1.60605 0
M  V30 5706 N 567.59 -1.07411 -1.15328 0
M  V30 5707 C 568.52 -0.716472 -2.22236 0
M  V30 5708 C 569.501 0.296373 -1.67498 0
M  V30 5709 O 570.686 0.168989 -1.93463 0
M  V30 5710 C 567.816 -0.114142 -3.47112 0
M  V30 5711 C 566.77 -1.05421 -4.14814 0
M  V30 5712 C 566.096 -0.314604 -5.33774 0
M  V30 5713 C 567.396 -2.38808 -4.64508 0
M  V30 5714 H 569.09 -1.61029 -2.52408 0
M  V30 5715 H 566.636 -0.775702 -1.21321 0
M  V30 5716 H 568.589 0.148001 -4.2114 0
M  V30 5717 H 567.313 0.814755 -3.16274 0
M  V30 5718 H 565.972 -1.30128 -3.42728 0
M  V30 5719 H 565.62 0.617772 -4.99192 0
M  V30 5720 H 565.32 -0.941209 -5.80013 0
M  V30 5721 H 566.844 -0.0602747 -6.1057 0
M  V30 5722 H 568.258 -2.18424 -5.3006 0
M  V30 5723 H 566.655 -2.97069 -5.21412 0
M  V30 5724 H 567.725 -3.01067 -3.80114 0
M  V30 5725 N 569.068 1.32177 -0.85831 0
M  V30 5726 C 570.316 1.96735 -0.462568 0
M  V30 5727 C 570.637 1.6824 0.985911 0
M  V30 5728 O 569.907 0.991564 1.68952 0
M  V30 5729 H 568.487 0.727849 -0.168064 0
M  V30 5730 H 571.149 1.61195 -1.09554 0
M  V30 5731 H 570.245 3.06068 -0.610647 0
M  V30 5732 N 570.547 0.616602 1.45037 0
M  V30 5733 C 571.457 -0.0985401 2.34393 0
M  V30 5734 C 572.473 -0.850971 1.51771 0
M  V30 5735 O 573.649 -0.806521 1.84546 0
M  V30 5736 C 570.714 -1.07748 3.29532 0
M  V30 5737 C 569.775 -0.326022 4.2806 0
M  V30 5738 C 569.008 -1.25833 5.18654 0
M  V30 5739 O 569.231 -2.49652 5.12864 0
M  V30 5740 O 568.165 -0.750512 5.97203 0
M  V30 5741 H 571.991 0.636016 2.96966 0
M  V30 5742 H 569.576 0.376832 1.44569 0
M  V30 5743 H 571.458 -1.64107 3.88133 0
M  V30 5744 H 570.133 -1.79291 2.69512 0
M  V30 5745 H 569.04 0.280253 3.73049 0
M  V30 5746 H 570.373 0.349091 4.9096 0
M  V30 5747 N 572.025 -1.5352 0.356285 0
M  V30 5748 C 573.265 -2.03027 -0.23649 0
M  V30 5749 C 573.629 -1.23813 -1.46746 0
M  V30 5750 O 574.83 -1.63281 -2.13525 0
M  V30 5751 C 573.101 -3.53442 -0.530415 0
M  V30 5752 S 574.66 -4.24836 -1.09819 0
M  V30 5753 H 571.478 -0.707591 -0.0695378 0
M  V30 5754 H 574.08 -1.89077 0.496999 0
M  V30 5755 H 572.784 -4.087 0.373114 0
M  V30 5756 H 572.315 -3.71536 -1.29323 0
M  V30 5757 H 574.33 -4.35228 -2.38309 0
M  V30 5758 N 573.503 -0.0852151 -1.57369 0
M  V30 5759 C 574.78 0.622534 -1.85429 0
M  V30 5760 C 575.16 1.86962 -0.980229 0
M  V30 5761 O 574.508 2.28445 -0.0500219 0
M  V30 5762 C 574.718 0.947374 -3.35896 0
M  V30 5763 C 576.066 1.31509 -4.03721 0
M  V30 5764 O 577.09 1.03869 -3.40719 0
M  V30 5765 O 575.949 1.83231 -5.14868 0
M  V30 5766 H 573.043 0.310513 -0.766492 0
M  V30 5767 H 575.589 -0.117164 -1.69295 0
M  V30 5768 H 574.361 0.0622264 -3.91251 0
M  V30 5769 H 573.984 1.74338 -3.5734 0
M  V30 5770 N 574.981 1.5647 0.188427 0
M  V30 5771 C 576.23 1.80207 0.905995 0
M  V30 5772 C 576.543 0.659579 1.84144 0
M  V30 5773 O 577.749 0.781431 2.60011 0
M  V30 5774 C 576.205 3.19255 1.66145 0
M  V30 5775 C 575.813 4.41324 0.770504 0
M  V30 5776 C 577.557 3.52298 2.36826 0
M  V30 5777 C 575.464 5.71394 1.52521 0
M  V30 5778 H 574.394 0.671953 0.342045 0
M  V30 5779 H 577.045 1.82808 0.159164 0
M  V30 5780 H 575.427 3.10922 2.45242 0
M  V30 5781 H 576.601 4.60797 0.0177261 0
M  V30 5782 H 574.916 4.16035 0.174199 0
M  V30 5783 H 577.513 4.46715 2.93854 0
M  V30 5784 H 577.856 2.76359 3.11338 0
M  V30 5785 H 578.389 3.62108 1.6469 0
M  V30 5786 H 575.128 6.50316 0.82275 0
M  V30 5787 H 574.648 5.55928 2.25175 0
M  V30 5788 H 576.327 6.12747 2.07725 0
M  V30 5789 N 576.459 -0.456382 1.50847 0
M  V30 5790 C 577.687 -1.23026 1.66349 0
M  V30 5791 C 578.102 -1.85473 0.352868 0
M  V30 5792 O 577.459 -1.69885 -0.666739 0
M  V30 5793 C 577.51 -2.32827 2.76539 0
M  V30 5794 O 577.231 -1.72938 4.02522 0
M  V30 5795 C 578.732 -3.23448 3.03144 0
M  V30 5796 H 575.952 -0.371527 0.558756 0
M  V30 5797 H 578.496 -0.543082 1.97157 0
M  V30 5798 H 576.651 -2.97294 2.48384 0
M  V30 5799 H 577.065 -2.45357 4.63573 0
M  V30 5800 H 578.539 -3.96669 3.83872 0
M  V30 5801 H 579.016 -3.83094 2.14793 0
M  V30 5802 H 579.622 -2.64702 3.32886 0
M  V30 5803 N 577.937 -1.40673 -0.710563 0
M  V30 5804 C 579.353 -1.22813 -1.01928 0
M  V30 5805 C 579.553 -0.10687 -2.01216 0
M  V30 5806 O 578.609 0.533614 -2.46797 0
M  V30 5807 C 579.922 -2.57178 -1.5582 0
M  V30 5808 C 581.47 -2.64233 -1.67779 0
M  V30 5809 C 581.945 -3.98879 -2.25076 0
M  V30 5810 N 583.436 -4.00647 -2.32456 0
M  V30 5811 C 584.171 -5.01621 -2.77784 0
M  V30 5812 N 583.667 -6.12989 -3.22826 0
M  V30 5813 N 585.46 -4.88988 -2.77213 0
M  V30 5814 H 577.611 -2.12335 -0.05253 0
M  V30 5815 H 579.874 -0.9441 -0.085898 0
M  V30 5816 H 579.58 -3.39903 -0.903249 0
M  V30 5817 H 579.454 -2.78618 -2.54267 0
M  V30 5818 H 581.841 -1.81876 -2.3239 0
M  V30 5819 H 581.922 -2.46619 -0.679178 0
M  V30 5820 H 581.566 -4.81678 -1.61086 0
M  V30 5821 H 581.496 -4.13826 -3.25661 0
M  V30 5822 H 583.987 -3.20231 -2.0065 0
M  V30 5823 H 584.3 -6.85921 -3.55995 0
M  V30 5824 H 582.645 -6.16547 -3.20773 0
M  V30 5825 H 585.836 -4.01075 -2.41363 0
M  V30 5826 H 586.009 -5.67822 -3.12221 0
M  V30 5827 N 579.415 0.9433 -1.26252 0
M  V30 5828 C 580.662 1.68925 -1.11672 0
M  V30 5829 C 580.99 1.91499 0.340329 0
M  V30 5830 O 580.245 1.49189 1.26653 0
M  V30 5831 C 580.544 3.07073 -1.82868 0
M  V30 5832 C 580.21 3.04262 -3.32769 0
M  V30 5833 C 578.872 3.03203 -3.7366 0
M  V30 5834 C 581.224 2.96729 -4.28487 0
M  V30 5835 C 578.552 2.92373 -5.0866 0
M  V30 5836 C 580.904 2.87442 -5.63525 0
M  V30 5837 C 579.568 2.84724 -6.03729 0
M  V30 5838 H 578.838 0.618141 -0.408635 0
M  V30 5839 H 581.485 1.10124 -1.56668 0
M  V30 5840 H 579.79 3.69486 -1.30335 0
M  V30 5841 H 581.487 3.63635 -1.69029 0
M  V30 5842 H 578.077 3.05865 -3.00241 0
M  V30 5843 H 582.261 2.96658 -3.97879 0
M  V30 5844 H 577.517 2.88645 -5.38975 0
M  V30 5845 H 581.691 2.80576 -6.37377 0
M  V30 5846 H 579.318 2.76089 -7.08293 0
M  V30 5847 N 580.893 1.08022 1.14757 0
M  V30 5848 C 581.803 0.718292 2.23333 0
M  V30 5849 C 582.819 -0.273477 1.71837 0
M  V30 5850 O 583.995 -0.118406 2.01052 0
M  V30 5851 C 581.06 0.128855 3.4646 0
M  V30 5852 C 580.121 1.17473 4.12915 0
M  V30 5853 C 579.354 0.61333 5.30164 0
M  V30 5854 O 579.577 -0.568458 5.6756 0
M  V30 5855 O 578.511 1.3615 5.86299 0
M  V30 5856 H 582.337 1.62394 2.56636 0
M  V30 5857 H 579.922 0.853628 1.22611 0
M  V30 5858 H 581.804 -0.197249 4.20938 0
M  V30 5859 H 580.479 -0.750014 3.14891 0
M  V30 5860 H 579.386 1.5533 3.40328 0
M  V30 5861 H 580.719 2.02574 4.48581 0
M  V30 5862 N 582.371 -1.3172 0.865308 0
M  V30 5863 C 583.648 -1.91574 0.394789 0
M  V30 5864 C 584.028 -1.78769 -1.12271 0
M  V30 5865 O 583.376 -1.19245 -1.94918 0
M  V30 5866 C 583.586 -3.37957 0.870982 0
M  V30 5867 C 584.934 -4.15073 0.894384 0
M  V30 5868 O 585.958 -3.4672 0.816325 0
M  V30 5869 O 584.817 -5.37151 1.00651 0
M  V30 5870 H 581.911 -0.818649 0.117229 0
M  V30 5871 H 584.457 -1.4042 0.952913 0
M  V30 5872 H 583.229 -3.41269 1.91444 0
M  V30 5873 H 582.852 -3.96534 0.290907 0
M  V30 5874 N 583.85 -0.624285 -1.44708 0
M  V30 5875 C 585.096 -0.126237 -2.02407 0
M  V30 5876 C 585.428 1.24618 -1.48943 0
M  V30 5877 O 584.704 1.82569 -0.670742 0
M  V30 5878 C 584.986 -0.105449 -3.59946 0
M  V30 5879 C 584.84 -1.50972 -4.23707 0
M  V30 5880 C 586.159 0.573629 -4.36346 0
M  V30 5881 H 583.278 -0.0473472 -0.735478 0
M  V30 5882 H 585.92 -0.799452 -1.72362 0
M  V30 5883 H 584.07 0.46783 -3.85673 0
M  V30 5884 H 585.742 -2.13136 -4.0911 0
M  V30 5885 H 583.985 -2.0656 -3.81465 0
M  V30 5886 H 584.656 -1.44727 -5.32689 0
M  V30 5887 H 587.132 0.0861787 -4.16011 0
M  V30 5888 H 586.008 0.557338 -5.46063 0
M  V30 5889 H 586.269 1.64276 -4.10446 0
M  V30 5890 N 585.328 1.53329 -0.364422 0
M  V30 5891 C 586.26 2.23286 0.517293 0
M  V30 5892 C 587.273 1.24657 1.04711 0
M  V30 5893 O 588.462 1.50887 0.95369 0
M  V30 5894 C 585.562 2.91604 1.72685 0
M  V30 5895 C 584.735 4.1673 1.32873 0
M  V30 5896 C 583.794 4.68269 2.40022 0
M  V30 5897 O 582.82 5.31976 2.02461 0
M  V30 5898 N 584.022 4.45983 3.7159 0
M  V30 5899 H 586.787 2.99588 -0.0819391 0
M  V30 5900 H 584.348 1.60787 -0.189544 0
M  V30 5901 H 586.34 3.22992 2.4384 0
M  V30 5902 H 584.91 2.18763 2.23297 0
M  V30 5903 H 584.13 3.91657 0.447069 0
M  V30 5904 H 585.418 4.98078 1.03902 0
M  V30 5905 H 584.816 3.95077 4.04883 0
M  V30 5906 H 583.373 4.81924 4.38854 0
M  V30 5907 N 586.806 0.0935595 1.57322 0
M  V30 5908 C 587.736 -0.863062 2.16964 0
M  V30 5909 C 588.717 -1.29528 1.10256 0
M  V30 5910 O 589.902 -1.36245 1.38387 0
M  V30 5911 C 587.032 -2.12276 2.74875 0
M  V30 5912 C 585.986 -1.82921 3.86942 0
M  V30 5913 C 585.312 -3.15707 4.31548 0
M  V30 5914 C 586.612 -1.11737 5.10208 0
M  V30 5915 H 588.306 -0.366145 2.97153 0
M  V30 5916 H 585.852 -0.174673 1.42937 0
M  V30 5917 H 587.805 -2.79634 3.1525 0
M  V30 5918 H 586.529 -2.64248 1.91938 0
M  V30 5919 H 585.188 -1.17961 3.47103 0
M  V30 5920 H 584.836 -3.65563 3.45504 0
M  V30 5921 H 584.536 -2.96849 5.07104 0
M  V30 5922 H 586.06 -3.84226 4.74555 0
M  V30 5923 H 587.474 -1.69203 5.47762 0
M  V30 5924 H 585.871 -1.03064 5.91183 0
M  V30 5925 H 586.941 -0.0998818 4.84797 0
M  V30 5926 N 588.284 -1.56567 -0.180126 0
M  V30 5927 C 589.512 -1.85618 -0.913972 0
M  V30 5928 C 589.927 -0.677892 -1.7621 0
M  V30 5929 O 589.284 0.353171 -1.7905 0
M  V30 5930 C 589.335 -3.13619 -1.79793 0
M  V30 5931 O 589.056 -4.26906 -0.98402 0
M  V30 5932 C 590.557 -3.55954 -2.64219 0
M  V30 5933 H 587.777 -0.616043 -0.265954 0
M  V30 5934 H 590.321 -2.03681 -0.182872 0
M  V30 5935 H 588.476 -2.97409 -2.48247 0
M  V30 5936 H 588.89 -4.9989 -1.58776 0
M  V30 5937 H 590.364 -4.48444 -3.21873 0
M  V30 5938 H 590.841 -2.79653 -3.38661 0
M  V30 5939 H 591.447 -3.74746 -2.01111 0
M  V30 5940 N 589.762 0.448376 -1.51087 0
M  V30 5941 C 591.173 1.0286 -1.5581 0
M  V30 5942 C 591.524 1.92583 -0.374989 0
M  V30 5943 O 590.649 2.10316 0.509533 0
M  V30 5944 C 591.244 1.87223 -2.8237 0
M  V30 5945 C 589.803 2.40314 -2.897 0
M  V30 5946 C 588.95 1.19238 -2.50355 0
M  V30 5947 H 591.901 0.230075 -1.57023 0
M  V30 5948 H 591.922 2.72553 -2.6551 0
M  V30 5949 H 591.434 1.21894 -3.68461 0
M  V30 5950 H 589.535 3.09129 -2.08014 0
M  V30 5951 H 589.648 2.73866 -3.93108 0
M  V30 5952 H 588.012 1.53428 -2.03303 0
M  V30 5953 H 588.795 0.555367 -3.38778 0
M  V30 5954 N 591.24 1.41047 0.703093 0
M  V30 5955 C 592.15 1.44645 1.84703 0
M  V30 5956 C 593.166 0.337778 1.7069 0
M  V30 5957 O 594.342 0.584327 1.92737 0
M  V30 5958 C 591.407 1.31928 3.20618 0
M  V30 5959 C 590.468 2.53047 3.46794 0
M  V30 5960 C 589.701 2.40927 4.76224 0
M  V30 5961 O 589.924 1.42978 5.5219 0
M  V30 5962 O 588.858 3.30543 5.03016 0
M  V30 5963 H 592.684 2.41139 1.84624 0
M  V30 5964 H 590.269 1.22504 0.855167 0
M  V30 5965 H 592.151 1.27092 4.01778 0
M  V30 5966 H 590.826 0.385469 3.21397 0
M  V30 5967 H 589.733 2.6346 2.65593 0
M  V30 5968 H 591.066 3.45231 3.50822 0
M  V30 5969 N 592.718 -0.936591 1.26751 0
M  V30 5970 C 593.948 -1.71509 1.15188 0
M  V30 5971 C 594.356 -1.86885 -0.295037 0
M  V30 5972 O 593.699 -1.37915 -1.21347 0
M  V30 5973 C 593.761 -3.13853 1.75318 0
M  V30 5974 C 593.425 -3.21845 3.24445 0
M  V30 5975 C 594.422 -3.04771 4.21201 0
M  V30 5976 C 592.107 -3.45088 3.64992 0
M  V30 5977 C 594.101 -3.10816 5.56482 0
M  V30 5978 C 591.788 -3.50767 5.00405 0
M  V30 5979 C 592.786 -3.33648 5.9596 0
M  V30 5980 O 592.474 -3.39045 7.28906 0
M  V30 5981 H 592.206 -0.543658 0.401761 0
M  V30 5982 H 594.76 -1.18234 1.67958 0
M  V30 5983 H 592.99 -3.6857 1.17016 0
M  V30 5984 H 594.679 -3.73634 1.58596 0
M  V30 5985 H 595.445 -2.86665 3.91214 0
M  V30 5986 H 591.324 -3.57467 2.91098 0
M  V30 5987 H 594.868 -2.97372 6.31043 0
M  V30 5988 H 590.765 -3.68396 5.30052 0
M  V30 5989 H 591.533 -3.55558 7.37238 0
M  V30 5990 N 594.196 -1.08629 -1.14182 0
M  V30 5991 C 595.442 -0.818556 -1.85546 0
M  V30 5992 C 595.775 0.654076 -1.82854 0
M  V30 5993 O 595.05 1.48099 -1.26083 0
M  V30 5994 C 595.333 -1.34397 -3.3408 0
M  V30 5995 C 595.186 -2.8821 -3.45333 0
M  V30 5996 C 596.505 -0.971069 -4.29253 0
M  V30 5997 H 593.624 -0.298821 -0.673702 0
M  V30 5998 H 596.266 -1.34629 -1.34071 0
M  V30 5999 H 594.416 -0.895064 -3.78049 0
M  V30 6000 H 596.088 -3.41488 -3.10134 0
M  V30 6001 H 594.331 -3.25756 -2.86471 0
M  V30 6002 H 595.002 -3.20047 -4.49749 0
M  V30 6003 H 597.478 -1.35809 -3.93313 0
M  V30 6004 H 596.354 -1.36586 -5.31635 0
M  V30 6005 H 596.615 0.121659 -4.41933 0
M  V30 6006 N 595.674 1.31259 -0.872281 0
M  V30 6007 C 596.899 2.0133 -0.498099 0
M  V30 6008 C 597.324 1.65031 0.902568 0
M  V30 6009 O 596.682 0.860164 1.59596 0
M  V30 6010 C 596.73 3.54411 -0.665205 0
M  V30 6011 O 595.834 4.11347 0.294473 0
M  V30 6012 H 595.175 0.633844 -0.197832 0
M  V30 6013 H 597.705 1.67402 -1.17633 0
M  V30 6014 H 597.715 4.04147 -0.559373 0
M  V30 6015 H 596.39 3.80171 -1.68651 0
M  V30 6016 H 594.967 3.72624 0.143403 0
M  V30 6017 N 597.152 0.631951 1.44375 0
M  V30 6018 C 598.062 -0.073674 2.34484 0
M  V30 6019 C 599.078 -0.834825 1.52665 0
M  V30 6020 O 600.254 -0.786902 1.85391 0
M  V30 6021 C 597.319 -1.04247 3.30656 0
M  V30 6022 C 596.38 -0.280602 4.28382 0
M  V30 6023 C 595.613 -1.20325 5.19959 0
M  V30 6024 O 595.836 -2.44199 5.15484 0
M  V30 6025 O 594.77 -0.687128 5.97965 0
M  V30 6026 H 598.596 0.667477 2.96274 0
M  V30 6027 H 596.181 0.392144 1.44162 0
M  V30 6028 H 598.063 -1.59981 3.89851 0
M  V30 6029 H 596.738 -1.76422 2.71398 0
M  V30 6030 H 595.645 0.319804 3.72731 0
M  V30 6031 H 596.978 0.401144 4.90563 0
M  V30 6032 N 598.631 -1.53133 0.372548 0
M  V30 6033 C 599.859 -2.05774 -0.215515 0
M  V30 6034 C 600.274 -1.24555 -1.41886 0
M  V30 6035 O 599.631 -0.287951 -1.80214 0
M  V30 6036 C 599.682 -3.5645 -0.602161 0
M  V30 6037 O 599.403 -4.34591 0.553359 0
M  V30 6038 C 600.904 -4.25374 -1.24787 0
M  V30 6039 H 598.124 -0.670009 -0.0364529 0
M  V30 6040 H 600.668 -1.97434 0.532934 0
M  V30 6041 H 598.823 -3.64918 -1.30052 0
M  V30 6042 H 599.237 -5.23954 0.239336 0
M  V30 6043 H 600.711 -5.32097 -1.46891 0
M  V30 6044 H 601.188 -3.79531 -2.21026 0
M  V30 6045 H 601.794 -4.21177 -0.590752 0
M  V30 6046 N 600.109 -0.101901 -1.5727 0
M  V30 6047 C 601.334 0.571759 -1.99363 0
M  V30 6048 C 601.759 1.60507 -0.980768 0
M  V30 6049 O 601.117 1.81231 0.0498517 0
M  V30 6050 C 601.165 1.18996 -3.404 0
M  V30 6051 O 600.269 2.30572 -3.41922 0
M  V30 6052 H 599.61 0.144449 -0.648098 0
M  V30 6053 H 602.14 -0.185325 -2.03759 0
M  V30 6054 H 602.15 1.52962 -3.78241 0
M  V30 6055 H 600.825 0.432984 -4.1364 0
M  V30 6056 H 599.402 1.98173 -3.15883 0
M  V30 6057 N 601.587 1.56661 0.17182 0
M  V30 6058 C 602.519 1.92934 1.2373 0
M  V30 6059 C 603.532 0.822385 1.40502 0
M  V30 6060 O 604.721 1.10083 1.40514 0
M  V30 6061 C 601.821 2.16651 2.60607 0
M  V30 6062 C 600.994 3.47878 2.6514 0
M  V30 6063 C 600.053 3.60429 3.83377 0
M  V30 6064 O 599.079 4.33051 3.69398 0
M  V30 6065 N 600.281 2.95241 4.99813 0
M  V30 6066 H 603.046 2.84931 0.929205 0
M  V30 6067 H 600.607 1.5781 0.361588 0
M  V30 6068 H 602.599 2.22312 3.38171 0
M  V30 6069 H 601.169 1.3104 2.83809 0
M  V30 6070 H 600.389 3.53879 1.73675 0
M  V30 6071 H 601.677 4.34232 2.6518 0
M  V30 6072 H 601.075 2.3611 5.14071 0
M  V30 6073 H 599.632 3.06499 5.75241 0
M  V30 6074 N 603.065 -0.440357 1.51323 0
M  V30 6075 C 603.997 -1.55254 1.68609 0
M  V30 6076 C 605.01 -1.52614 0.566812 0
M  V30 6077 O 606.199 -1.57445 0.841032 0
M  V30 6078 C 603.299 -2.94169 1.68279 0
M  V30 6079 C 602.472 -3.21346 2.96742 0
M  V30 6080 C 601.531 -4.3997 2.8864 0
M  V30 6081 O 600.557 -4.38771 3.62586 0
M  V30 6082 N 601.759 -5.43367 2.04285 0
M  V30 6083 H 604.524 -1.40831 2.6455 0
M  V30 6084 H 602.085 -0.629251 1.49171 0
M  V30 6085 H 604.077 -3.71543 1.60431 0
M  V30 6086 H 602.647 -3.02205 0.799441 0
M  V30 6087 H 601.867 -2.32299 3.18482 0
M  V30 6088 H 603.155 -3.3633 3.81785 0
M  V30 6089 H 602.553 -5.47176 1.43578 0
M  V30 6090 H 601.11 -6.19605 2.02318 0
M  V30 6091 N 604.543 -1.41418 -0.695603 0
M  V30 6092 C 605.491 -1.43467 -1.83084 0
M  V30 6093 C 606.485 -0.312719 -1.66489 0
M  V30 6094 O 607.691 -0.484744 -1.7335 0
M  V30 6095 H 604.066 -0.448891 -0.603325 0
M  V30 6096 H 606.037 -2.39144 -1.78473 0
M  V30 6097 C 604.786 -1.3337 -3.21104 0
M  V30 6098 H 604.109 -2.18989 -3.3449 0
M  V30 6099 H 605.549 -1.38865 -4.00615 0
M  V30 6100 C 604.008 -0.0460484 -3.36869 0
M  V30 6101 O 604.538 0.909258 -3.91274 0
M  V30 6102 N 602.744 0.0300222 -2.90584 0
M  V30 6103 H 602.291 -0.748129 -2.46497 0
M  V30 6104 H 602.249 0.890991 -3.01511 0
M  V30 6105 N 606.021 0.929856 -1.27246 0
M  V30 6106 C 607.268 1.67731 -1.13457 0
M  V30 6107 C 607.596 1.9185 0.319998 0
M  V30 6108 O 606.851 1.50524 1.25064 0
M  V30 6109 C 607.15 3.05116 -1.86115 0
M  V30 6110 C 606.816 3.00715 -3.35978 0
M  V30 6111 C 605.478 2.99222 -3.76855 0
M  V30 6112 C 607.83 2.92168 -4.3161 0
M  V30 6113 C 605.158 2.86962 -5.11732 0
M  V30 6114 C 607.51 2.81449 -5.66542 0
M  V30 6115 C 606.174 2.78305 -6.06715 0
M  V30 6116 H 605.444 0.613772 -0.415168 0
M  V30 6117 H 608.091 1.08456 -1.57827 0
M  V30 6118 H 606.396 3.68083 -1.34246 0
M  V30 6119 H 608.093 3.61822 -1.72876 0
M  V30 6120 H 604.683 3.02664 -3.03468 0
M  V30 6121 H 608.867 2.92421 -4.01003 0
M  V30 6122 H 604.123 2.82913 -5.42006 0
M  V30 6123 H 608.297 2.738 -6.40317 0
M  V30 6124 H 605.924 2.68561 -7.11181 0
M  V30 6125 N 607.499 1.09233 1.13605 0
M  V30 6126 C 608.745 0.828385 1.8511 0
M  V30 6127 C 609.078 -0.64437 1.83198 0
M  V30 6128 O 608.353 -1.47428 1.26867 0
M  V30 6129 C 608.636 1.36167 3.33363 0
M  V30 6130 C 608.489 2.90038 3.438 0
M  V30 6131 C 609.808 0.993819 4.28732 0
M  V30 6132 H 606.927 0.30239 0.672108 0
M  V30 6133 H 609.569 1.35339 1.33355 0
M  V30 6134 H 607.719 0.9151 3.77569 0
M  V30 6135 H 609.391 3.43128 3.08319 0
M  V30 6136 H 607.634 3.27271 2.84739 0
M  V30 6137 H 608.305 3.22428 4.48045 0
M  V30 6138 H 610.781 1.37893 3.92587 0
M  V30 6139 H 609.657 1.39403 5.30903 0
M  V30 6140 H 609.918 -0.0982206 4.41991 0
M  V30 6141 N 608.977 -1.30795 0.87923 0
M  V30 6142 C 609.887 -2.32041 0.345565 0
M  V30 6143 C 610.903 -1.65103 -0.549265 0
M  V30 6144 O 612.079 -1.9645 -0.443763 0
M  V30 6145 C 609.144 -3.43944 -0.436245 0
M  V30 6146 C 608.205 -4.26521 0.48765 0
M  V30 6147 C 607.438 -5.33081 -0.256943 0
M  V30 6148 O 607.661 -5.50762 -1.48381 0
M  V30 6149 O 606.595 -6.00635 0.389985 0
M  V30 6150 H 610.421 -2.79627 1.18501 0
M  V30 6151 H 608.006 -1.3486 0.642885 0
M  V30 6152 H 609.888 -4.12128 -0.879119 0
M  V30 6153 H 608.563 -2.98504 -1.25208 0
M  V30 6154 H 607.47 -3.61057 0.979216 0
M  V30 6155 H 608.803 -4.75551 1.26933 0
M  V30 6156 N 610.455 -0.639598 -1.44038 0
M  V30 6157 C 611.704 -0.144885 -2.01179 0
M  V30 6158 C 612.017 1.24372 -1.50967 0
M  V30 6159 O 613.223 1.83291 -2.00292 0
M  V30 6160 C 611.679 -0.208244 -3.59297 0
M  V30 6161 C 611.287 -1.59869 -4.18504 0
M  V30 6162 C 613.031 0.229568 -4.23879 0
M  V30 6163 C 610.938 -1.61671 -5.68873 0
M  V30 6164 H 609.868 -0.0504005 -0.752314 0
M  V30 6165 H 612.519 -0.799639 -1.65161 0
M  V30 6166 H 610.901 0.513767 -3.92653 0
M  V30 6167 H 612.075 -2.34496 -3.96671 0
M  V30 6168 H 610.39 -1.98131 -3.66242 0
M  V30 6169 H 612.987 0.235758 -5.3418 0
M  V30 6170 H 613.33 1.25848 -3.96822 0
M  V30 6171 H 613.863 -0.440233 -3.95357 0
M  V30 6172 H 610.602 -2.62427 -6.00677 0
M  V30 6173 H 610.122 -0.913489 -5.92803 0
M  V30 6174 H 611.801 -1.35439 -6.32665 0
M  V30 6175 N 611.933 1.52934 -0.380664 0
M  V30 6176 C 613.163 2.05587 0.204302 0
M  V30 6177 C 613.571 1.25288 1.41773 0
M  V30 6178 O 612.914 0.290394 1.8139 0
M  V30 6179 C 612.976 3.53624 0.647324 0
M  V30 6180 C 612.64 4.54765 -0.451465 0
M  V30 6181 C 613.637 5.03226 -1.30614 0
M  V30 6182 C 611.322 4.98508 -0.616025 0
M  V30 6183 C 613.316 5.94046 -2.31058 0
M  V30 6184 C 611.003 5.89131 -1.62381 0
M  V30 6185 C 612.001 6.36792 -2.46952 0
M  V30 6186 O 611.689 7.25626 -3.46009 0
M  V30 6187 H 611.421 0.675013 0.0365198 0
M  V30 6188 H 613.975 1.98125 -0.541827 0
M  V30 6189 H 612.205 3.58676 1.44529 0
M  V30 6190 H 613.894 3.89061 1.15698 0
M  V30 6191 H 614.66 4.70167 -1.19027 0
M  V30 6192 H 610.539 4.60989 0.0324987 0
M  V30 6193 H 614.083 6.3117 -2.97104 0
M  V30 6194 H 609.98 6.21603 -1.7401 0
M  V30 6195 H 610.748 7.43664 -3.41916 0
M  V30 6196 N 613.412 0.11024 1.57214 0
M  V30 6197 C 614.689 -0.592956 1.86396 0
M  V30 6198 C 615.069 -1.85379 1.00985 0
M  V30 6199 O 614.417 -2.28337 0.0863592 0
M  V30 6200 C 614.627 -0.893816 3.3736 0
M  V30 6201 C 615.975 -1.25069 4.05762 0
M  V30 6202 O 616.999 -0.984356 3.42329 0
M  V30 6203 O 615.858 -1.75017 5.17718 0
M  V30 6204 H 612.952 -0.29828 0.771335 0
M  V30 6205 H 615.498 0.144083 1.69087 0
M  V30 6206 H 614.27 2.6031e-05 3.913 0
M  V30 6207 H 613.893 -1.68631 3.60068 0
M  V30 6208 N 614.89 -1.56749 -0.16351 0
M  V30 6209 C 616.136 -1.82704 -0.880168 0
M  V30 6210 C 616.469 -0.689311 -1.81555 0
M  V30 6211 O 615.744 0.308224 -1.92042 0
M  V30 6212 C 616.027 -3.19084 -1.66905 0
M  V30 6213 C 615.88 -4.43397 -0.756269 0
M  V30 6214 C 617.199 -3.52493 -2.63509 0
M  V30 6215 H 614.318 -0.664608 -0.318535 0
M  V30 6216 H 616.96 -1.89438 -0.146036 0
M  V30 6217 H 615.11 -3.13475 -2.2949 0
M  V30 6218 H 616.782 -4.61079 -0.14269 0
M  V30 6219 H 615.025 -4.33752 -0.0647944 0
M  V30 6220 H 615.696 -5.3539 -1.34393 0
M  V30 6221 H 618.172 -3.58606 -2.11047 0
M  V30 6222 H 617.048 -4.48979 -3.15767 0
M  V30 6223 H 617.309 -2.77597 -3.44082 0
M  V30 6224 N 616.368 0.432326 -1.51554 0
M  V30 6225 C 617.298 1.53242 -1.76179 0
M  V30 6226 C 618.279 1.58717 -0.611801 0
M  V30 6227 O 619.464 1.74364 -0.855033 0
M  V30 6228 C 616.594 2.91278 -1.89141 0
M  V30 6229 C 615.548 3.00663 -3.04608 0
M  V30 6230 C 614.874 4.40728 -3.02759 0
M  V30 6231 C 616.174 2.74281 -4.44485 0
M  V30 6232 H 617.868 1.32886 -2.68294 0
M  V30 6233 H 615.414 0.637841 -1.29103 0
M  V30 6234 H 617.367 3.68203 -2.04951 0
M  V30 6235 H 616.091 3.12877 -0.936785 0
M  V30 6236 H 614.75 2.26179 -2.88511 0
M  V30 6237 H 614.398 4.59301 -2.05065 0
M  V30 6238 H 614.098 4.47936 -3.80299 0
M  V30 6239 H 615.622 5.19619 -3.20669 0
M  V30 6240 H 617.036 3.40936 -4.60907 0
M  V30 6241 H 615.433 2.92893 -5.23769 0
M  V30 6242 H 616.503 1.69856 -4.54177 0
M  V30 6243 N 617.846 1.41785 0.688094 0
M  V30 6244 C 618.796 1.40684 1.79421 0
M  V30 6245 C 619.78 0.280096 1.58443 0
M  V30 6246 O 620.972 0.521332 1.69148 0
M  V30 6247 C 618.101 1.29874 3.17785 0
M  V30 6248 C 617.187 2.47442 3.44432 0
M  V30 6249 N 617.578 3.72895 3.41736 0
M  V30 6250 C 615.876 2.41416 3.75013 0
M  V30 6251 C 616.577 4.50912 3.67496 0
M  V30 6252 N 615.553 3.81131 3.87608 0
M  V30 6253 H 619.355 2.35591 1.7571 0
M  V30 6254 H 616.869 1.35946 0.888393 0
M  V30 6255 H 618.866 1.27168 3.97031 0
M  V30 6256 H 617.526 0.359587 3.22703 0
M  V30 6257 H 618.537 4.05676 3.21943 0
M  V30 6258 H 615.214 1.56011 3.87256 0
M  V30 6259 H 616.604 5.59865 3.71484 0
M  V30 6260 N 619.324 -0.923095 1.27737 0
M  V30 6261 C 620.735 -1.48626 1.12993 0
M  V30 6262 C 621.086 -1.94142 -0.283439 0
M  V30 6263 O 620.211 -1.81605 -1.17681 0
M  V30 6264 C 620.806 -2.70117 2.04505 0
M  V30 6265 C 619.365 -3.22642 1.93853 0
M  V30 6266 C 618.512 -1.95368 1.96791 0
M  V30 6267 H 621.463 -0.736737 1.40563 0
M  V30 6268 H 621.484 -3.4506 1.60356 0
M  V30 6269 H 620.996 -2.36959 3.07363 0
M  V30 6270 H 619.097 -3.60549 0.939968 0
M  V30 6271 H 619.21 -3.88525 2.80331 0
M  V30 6272 H 617.574 -2.12061 1.41076 0
M  V30 6273 H 618.357 -1.64517 3.01312 0
M  V30 6274 N 620.802 -1.09834 -1.13024 0
M  V30 6275 C 621.732 -0.763451 -2.20666 0
M  V30 6276 C 622.713 0.260778 -1.68089 0
M  V30 6277 O 623.898 0.127915 -1.93778 0
M  V30 6278 C 621.028 -0.187744 -3.46792 0
M  V30 6279 C 619.982 -1.14196 -4.12484 0
M  V30 6280 C 619.308 -0.427755 -5.32986 0
M  V30 6281 C 620.608 -2.48607 -4.59338 0
M  V30 6282 H 622.302 -1.66347 -2.48936 0
M  V30 6283 H 619.848 -0.801261 -1.19649 0
M  V30 6284 H 621.801 0.0586375 -4.21359 0
M  V30 6285 H 620.525 0.747485 -3.17931 0
M  V30 6286 H 619.184 -1.37369 -3.3989 0
M  V30 6287 H 618.832 0.511747 -5.0039 0
M  V30 6288 H 618.532 -1.06403 -5.77886 0
M  V30 6289 H 620.056 -0.189772 -6.10305 0
M  V30 6290 H 621.47 -2.29618 -5.25308 0
M  V30 6291 H 619.867 -3.08062 -5.14993 0
M  V30 6292 H 620.937 -3.09062 -3.73642 0
M  V30 6293 N 622.28 1.30327 -0.886154 0
M  V30 6294 C 623.212 2.27079 -0.311072 0
M  V30 6295 C 624.225 1.53758 0.53502 0
M  V30 6296 O 625.414 1.74947 0.354378 0
M  V30 6297 C 622.514 3.33965 0.576228 0
M  V30 6298 C 621.687 4.36735 -0.241064 0
M  V30 6299 C 620.746 5.23028 0.576916 0
M  V30 6300 O 619.772 5.692 -0.000802231 0
M  V30 6301 N 620.974 5.49016 1.88579 0
M  V30 6302 H 623.739 2.77065 -1.14259 0
M  V30 6303 H 621.3 1.43519 -0.749258 0
M  V30 6304 H 623.292 3.88618 1.12953 0
M  V30 6305 H 621.862 2.839 1.30842 0
M  V30 6306 H 621.082 3.81932 -0.975805 0
M  V30 6307 H 622.37 5.02451 -0.801272 0
M  V30 6308 H 621.768 5.13288 2.37806 0
M  V30 6309 H 620.325 6.06539 2.38651 0
M  V30 6310 N 623.758 0.647228 1.43697 0
M  V30 6311 C 625.169 0.238689 1.85168 0
M  V30 6312 C 625.52 -1.21345 1.54175 0
M  V30 6313 O 624.645 -1.92542 0.987743 0
M  V30 6314 C 625.24 0.426422 3.36106 0
M  V30 6315 C 623.799 0.0722541 3.76331 0
M  V30 6316 C 622.946 0.732153 2.6746 0
M  V30 6317 H 625.897 0.851309 1.33934 0
M  V30 6318 H 625.918 -0.32987 3.79067 0
M  V30 6319 H 625.43 1.48339 3.58632 0
M  V30 6320 H 623.531 -0.982355 3.59417 0
M  V30 6321 H 623.644 0.493541 4.76551 0
M  V30 6322 H 622.008 0.16594 2.54159 0
M  V30 6323 H 622.791 1.79204 2.92816 0
M  V30 6324 N 625.236 -1.5273 0.388769 0
M  V30 6325 C 626.652 -1.59553 0.0387049 0
M  V30 6326 C 626.852 -1.40278 -1.44652 0
M  V30 6327 O 625.908 -1.21951 -2.21098 0
M  V30 6328 C 627.221 -2.9625 0.515409 0
M  V30 6329 C 628.769 -3.09426 0.471621 0
M  V30 6330 C 629.244 -4.48572 0.924505 0
M  V30 6331 N 630.735 -4.54754 0.880496 0
M  V30 6332 C 631.47 -5.60653 1.20234 0
M  V30 6333 N 630.966 -6.74198 1.59463 0
M  V30 6334 N 632.759 -5.50755 1.12363 0
M  V30 6335 H 624.91 -1.63508 1.35569 0
M  V30 6336 H 627.173 -0.768097 0.555636 0
M  V30 6337 H 626.879 -3.15569 1.5527 0
M  V30 6338 H 626.753 -3.77102 -0.085792 0
M  V30 6339 H 629.14 -2.89804 -0.556588 0
M  V30 6340 H 629.221 -2.30528 1.10862 0
M  V30 6341 H 628.865 -4.68936 1.95094 0
M  V30 6342 H 628.795 -5.25935 0.264524 0
M  V30 6343 H 631.286 -3.73237 0.591815 0
M  V30 6344 H 631.599 -7.5097 1.82385 0
M  V30 6345 H 629.944 -6.75531 1.63349 0
M  V30 6346 H 633.135 -4.6093 0.816169 0
M  V30 6347 H 633.308 -6.33184 1.37777 0
M  V30 6348 N 626.714 -0.118576 -1.57153 0
M  V30 6349 C 627.644 0.828436 -2.1831 0
M  V30 6350 C 628.625 1.27758 -1.12303 0
M  V30 6351 O 629.81 1.34026 -1.40537 0
M  V30 6352 C 626.94 2.07876 -2.78217 0
M  V30 6353 C 625.894 1.76742 -3.89803 0
M  V30 6354 C 625.22 3.08801 -4.36516 0
M  V30 6355 C 626.52 1.03606 -5.11921 0
M  V30 6356 H 628.214 0.318824 -2.97698 0
M  V30 6357 H 625.76 0.151911 -1.43196 0
M  V30 6358 H 627.713 2.74584 -3.19659 0
M  V30 6359 H 626.437 2.61161 -1.96118 0
M  V30 6360 H 625.096 1.12424 -3.48936 0
M  V30 6361 H 624.744 3.6002 -3.51276 0
M  V30 6362 H 624.444 2.88743 -5.11763 0
M  V30 6363 H 625.968 3.76627 -4.80608 0
M  V30 6364 H 627.382 1.60467 -5.50385 0
M  V30 6365 H 625.779 0.936454 -5.92748 0
M  V30 6366 H 626.849 0.0227421 -4.84895 0
M  V30 6367 N 628.193 1.56834 0.155195 0
M  V30 6368 C 629.418 1.87412 0.888337 0
M  V30 6369 C 629.843 0.70671 1.74319 0
M  V30 6370 O 629.201 -0.343892 1.78009 0
M  V30 6371 C 629.249 3.1652 1.72765 0
M  V30 6372 O 628.353 2.99877 2.83103 0
M  V30 6373 H 627.694 0.615983 0.247914 0
M  V30 6374 H 630.224 2.04061 0.148478 0
M  V30 6375 H 630.234 3.48334 2.12433 0
M  V30 6376 H 628.909 4.01094 1.09985 0
M  V30 6377 H 627.486 2.79453 2.46902 0
M  V30 6378 N 629.671 -0.424282 1.51781 0
M  V30 6379 C 631.082 -1.00368 1.57427 0
M  V30 6380 C 631.433 -1.91962 0.40558 0
M  V30 6381 O 630.558 -2.111 -0.47601 0
M  V30 6382 C 631.153 -1.82707 2.85313 0
M  V30 6383 C 629.712 -2.35675 2.93487 0
M  V30 6384 C 628.859 -1.1524 2.5222 0
M  V30 6385 H 631.81 -0.205064 1.5737 0
M  V30 6386 H 631.831 -2.68294 2.69812 0
M  V30 6387 H 631.343 -1.16017 3.70353 0
M  V30 6388 H 629.444 -3.05781 2.12906 0
M  V30 6389 H 629.557 -2.67578 3.97415 0
M  V30 6390 H 627.921 -1.50174 2.05718 0
M  V30 6391 H 628.704 -0.5014 3.39619 0
M  V30 6392 N 631.149 -1.42148 -0.680565 0
M  V30 6393 C 632.565 -1.24947 -0.992995 0
M  V30 6394 C 632.765 -0.149527 -2.00944 0
M  V30 6395 O 631.821 0.481145 -2.47873 0
M  V30 6396 C 633.134 -2.60426 -1.5033 0
M  V30 6397 C 634.682 -2.67733 -1.62137 0
M  V30 6398 C 635.157 -4.03564 -2.16565 0
M  V30 6399 N 636.648 -4.05488 -2.23905 0
M  V30 6400 C 637.383 -5.07401 -2.67081 0
M  V30 6401 N 636.879 -6.19698 -3.09751 0
M  V30 6402 N 638.672 -4.94758 -2.66778 0
M  V30 6403 H 630.823 -2.12399 -0.0074788 0
M  V30 6404 H 633.086 -0.94571 -0.0658529 0
M  V30 6405 H 632.792 -3.41743 -0.830947 0
M  V30 6406 H 632.666 -2.83949 -2.483 0
M  V30 6407 H 635.053 -1.86765 -2.2848 0
M  V30 6408 H 635.134 -2.48004 -0.626713 0
M  V30 6409 H 634.778 -4.84987 -1.50833 0
M  V30 6410 H 634.708 -4.20641 -3.1681 0
M  V30 6411 H 637.199 -3.24415 -1.93812 0
M  V30 6412 H 637.512 -6.93318 -3.41365 0
M  V30 6413 H 635.857 -6.23212 -3.07623 0
M  V30 6414 H 639.048 -4.06105 -2.32801 0
M  V30 6415 H 639.221 -5.74317 -3.00107 0
M  V30 6416 N 632.627 0.916307 -1.28225 0
M  V30 6417 C 633.575 2.03977 -1.11786 0
M  V30 6418 C 634.569 1.69358 -0.0378265 0
M  V30 6419 O 635.775 1.78925 -0.196405 0
M  V30 6420 H 632.15 0.66829 -0.344809 0
M  V30 6421 H 634.121 2.14985 -2.06939 0
M  V30 6422 C 632.87 3.38518 -0.7938 0
M  V30 6423 H 632.193 3.65649 -1.61682 0
M  V30 6424 H 633.633 4.17864 -0.718719 0
M  V30 6425 C 632.092 3.33134 0.502353 0
M  V30 6426 O 632.622 3.71281 1.53341 0
M  V30 6427 N 630.828 2.86229 0.502147 0
M  V30 6428 H 630.375 2.55382 -0.337338 0
M  V30 6429 H 630.333 2.83009 1.36942 0
M  V30 6430 N 634.105 1.10431 1.1244 0
M  V30 6431 C 635.035 0.775143 2.20258 0
M  V30 6432 C 636.016 -0.25186 1.68225 0
M  V30 6433 O 637.201 -0.117637 1.93843 0
M  V30 6434 C 634.331 0.206133 3.46688 0
M  V30 6435 C 633.285 1.16382 4.11873 0
M  V30 6436 C 632.611 0.456014 5.32752 0
M  V30 6437 C 633.911 2.5104 4.58013 0
M  V30 6438 H 635.605 1.67665 2.4805 0
M  V30 6439 H 633.151 0.807595 1.19222 0
M  V30 6440 H 635.104 -0.036291 4.21384 0
M  V30 6441 H 633.828 -0.730614 3.18323 0
M  V30 6442 H 632.487 1.39169 3.39157 0
M  V30 6443 H 632.135 -0.485203 5.00654 0
M  V30 6444 H 631.835 1.09466 5.77314 0
M  V30 6445 H 633.359 0.222135 6.10196 0
M  V30 6446 H 634.773 2.32401 5.24083 0
M  V30 6447 H 633.17 3.10789 5.13352 0
M  V30 6448 H 634.24 3.11039 3.71998 0
M  V30 6449 N 635.583 -1.29855 0.893053 0
M  V30 6450 C 636.999 -1.48366 0.588199 0
M  V30 6451 C 637.199 -1.81654 -0.872018 0
M  V30 6452 O 636.255 -1.909 -1.65268 0
M  V30 6453 C 637.568 -2.60136 1.5083 0
M  V30 6454 C 639.116 -2.74014 1.51279 0
M  V30 6455 C 639.591 -3.88905 2.41902 0
M  V30 6456 N 641.082 -3.96228 2.39911 0
M  V30 6457 C 641.817 -4.84458 3.06738 0
M  V30 6458 N 641.313 -5.77426 3.8282 0
M  V30 6459 N 643.106 -4.77894 2.95929 0
M  V30 6460 H 635.257 -1.06522 1.83757 0
M  V30 6461 H 637.52 -0.528495 0.787018 0
M  V30 6462 H 637.226 -2.42383 2.54839 0
M  V30 6463 H 637.1 -3.56793 1.22388 0
M  V30 6464 H 639.487 -2.91167 0.480179 0
M  V30 6465 H 639.568 -1.77952 1.83757 0
M  V30 6466 H 639.212 -3.72508 3.45253 0
M  V30 6467 H 639.142 -4.84322 2.06737 0
M  V30 6468 H 641.633 -3.29728 1.84629 0
M  V30 6469 H 641.946 -6.41529 4.30883 0
M  V30 6470 H 640.291 -5.77332 3.86927 0
M  V30 6471 H 643.482 -4.04248 2.36012 0
M  V30 6472 H 643.655 -5.46444 3.48286 0
M  V30 6473 N 637.061 -0.65484 -1.43351 0
M  V30 6474 C 638.307 -0.169142 -2.02093 0
M  V30 6475 C 638.64 1.21431 -1.51553 0
M  V30 6476 O 637.915 1.81105 -0.709317 0
M  V30 6477 C 638.198 -0.181775 -3.59641 0
M  V30 6478 C 638.051 -1.59926 -4.20409 0
M  V30 6479 C 639.37 0.480945 -4.37464 0
M  V30 6480 H 636.489 -0.0629371 -0.734308 0
M  V30 6481 H 639.131 -0.835833 -1.70628 0
M  V30 6482 H 637.281 0.385918 -3.86578 0
M  V30 6483 H 638.953 -2.21766 -4.04497 0
M  V30 6484 H 637.196 -2.14605 -3.76998 0
M  V30 6485 H 637.867 -1.55994 -5.295 0
M  V30 6486 H 640.343 -0.00208273 -4.161 0
M  V30 6487 H 639.219 0.441384 -5.47122 0
M  V30 6488 H 639.48 1.55533 -4.13838 0
M  V30 6489 N 638.539 1.52521 -0.396863 0
M  V30 6490 C 639.764 2.06571 0.185258 0
M  V30 6491 C 640.189 1.26605 1.39115 0
M  V30 6492 O 639.547 0.293055 1.78916 0
M  V30 6493 C 639.595 3.5674 0.526189 0
M  V30 6494 O 638.699 3.7929 1.61903 0
M  V30 6495 H 638.04 0.663712 0.0195474 0
M  V30 6496 H 640.57 1.966 -0.566519 0
M  V30 6497 H 640.58 4.00311 0.788338 0
M  V30 6498 H 639.255 4.14379 -0.355397 0
M  V30 6499 H 637.832 3.47605 1.35 0
M  V30 6500 N 640.017 0.126909 1.57088 0
M  V30 6501 C 641.428 -0.397201 1.82426 0
M  V30 6502 C 641.779 -1.66084 1.04453 0
M  V30 6503 O 640.904 -2.14534 0.283552 0
M  V30 6504 C 641.499 -0.727411 3.30899 0
M  V30 6505 C 640.058 -1.19612 3.56889 0
M  V30 6506 C 639.205 -0.20885 2.76512 0
M  V30 6507 H 642.156 0.351924 1.54749 0
M  V30 6508 H 642.177 -1.58407 3.45959 0
M  V30 6509 H 641.689 0.19247 3.87622 0
M  V30 6510 H 639.79 -2.13263 3.05532 0
M  V30 6511 H 639.903 -1.13598 4.65438 0
M  V30 6512 H 638.267 -0.697479 2.44964 0
M  V30 6513 H 639.05 0.704267 3.35998 0
M  V30 6514 N 641.495 -1.56914 -0.146875 0
M  V30 6515 C 642.742 -1.83356 -0.859467 0
M  V30 6516 C 643.07 -0.707811 -1.81164 0
M  V30 6517 O 642.325 0.303155 -1.93338 0
M  V30 6518 C 642.624 -3.16128 -1.66727 0
M  V30 6519 C 642.29 -4.42586 -0.861881 0
M  V30 6520 C 640.952 -4.76929 -0.639687 0
M  V30 6521 C 643.304 -5.20344 -0.298643 0
M  V30 6522 C 640.632 -5.86491 0.156451 0
M  V30 6523 C 642.984 -6.30742 0.484536 0
M  V30 6524 C 641.648 -6.63635 0.717306 0
M  V30 6525 H 640.918 -0.670947 -0.314501 0
M  V30 6526 H 643.565 -1.91104 -0.123108 0
M  V30 6527 H 641.87 -3.03831 -2.47374 0
M  V30 6528 H 643.567 -3.33802 -2.2221 0
M  V30 6529 H 640.157 -4.15662 -1.04513 0
M  V30 6530 H 644.341 -4.94186 -0.457585 0
M  V30 6531 H 639.597 -6.10419 0.346292 0
M  V30 6532 H 643.771 -6.90188 0.928105 0
M  V30 6533 H 641.398 -7.48367 1.33607 0
M  V30 6534 N 642.974 0.416227 -1.52004 0
M  V30 6535 C 643.924 1.50558 -1.7122 0
M  V30 6536 C 644.908 1.50613 -0.56609 0
M  V30 6537 O 646.1 1.56709 -0.822874 0
M  V30 6538 C 643.229 2.88556 -1.85984 0
M  V30 6539 C 642.315 2.93177 -3.06445 0
M  V30 6540 N 642.706 2.67505 -4.29272 0
M  V30 6541 C 641.004 3.24343 -3.06133 0
M  V30 6542 C 641.705 2.78511 -5.10692 0
M  V30 6543 N 640.681 3.11087 -4.45787 0
M  V30 6544 H 644.483 1.29494 -2.63834 0
M  V30 6545 H 641.997 0.62384 -1.4994 0
M  V30 6546 H 643.994 3.66954 -1.97865 0
M  V30 6547 H 642.654 3.10624 -0.945654 0
M  V30 6548 H 643.665 2.42033 -4.57865 0
M  V30 6549 H 640.342 3.52051 -2.24425 0
M  V30 6550 H 641.732 2.62438 -6.18527 0
M  V30 6551 N 644.452 1.42507 0.673017 0
M  V30 6552 C 645.415 1.4582 1.76831 0
M  V30 6553 C 646.415 0.345542 1.57043 0
M  V30 6554 O 647.605 0.606447 1.63303 0
M  V30 6555 C 644.737 1.29158 3.15485 0
M  V30 6556 H 645.93 2.43345 1.7528 0
M  V30 6557 H 643.483 1.28981 0.882817 0
M  V30 6558 H 644.218 0.325626 3.22661 0
M  V30 6559 H 644.003 2.09797 3.31252 0
M  V30 6560 H 645.493 1.34363 3.95394 0
M  V30 6561 N 645.93 -0.909495 1.28709 0
M  V30 6562 C 647.346 -1.18862 1.06508 0
M  V30 6563 C 647.546 -2.00604 -0.189864 0
M  V30 6564 O 646.602 -2.36281 -0.890355 0
M  V30 6565 C 647.915 -1.91908 2.31499 0
M  V30 6566 C 649.463 -2.04773 2.36721 0
M  V30 6567 C 649.938 -2.81228 3.6149 0
M  V30 6568 N 651.429 -2.88787 3.62155 0
M  V30 6569 C 652.164 -3.48455 4.55375 0
M  V30 6570 N 651.66 -4.09369 5.58918 0
M  V30 6571 N 653.453 -3.46035 4.42963 0
M  V30 6572 H 645.604 -0.363867 2.0926 0
M  V30 6573 H 647.867 -0.223649 0.921241 0
M  V30 6574 H 647.573 -1.39275 3.22948 0
M  V30 6575 H 647.447 -2.92436 2.38245 0
M  V30 6576 H 649.834 -2.56585 1.45767 0
M  V30 6577 H 649.915 -1.03408 2.33967 0
M  V30 6578 H 649.559 -2.30094 4.5279 0
M  V30 6579 H 649.489 -3.82917 3.61499 0
M  V30 6580 H 651.98 -2.45514 2.87283 0
M  V30 6581 H 652.293 -4.52891 6.26187 0
M  V30 6582 H 650.638 -4.0786 5.62739 0
M  V30 6583 H 653.829 -2.9766 3.6127 0
M  V30 6584 H 654.002 -3.92244 5.15799 0
M  V30 6585 N 647.408 -1.11026 -1.11852 0
M  V30 6586 C 648.358 -0.733836 -2.15868 0
M  V30 6587 C 649.342 0.26001 -1.58785 0
M  V30 6588 O 650.534 0.0677901 -1.7687 0
M  V30 6589 C 647.663 -0.173948 -3.42859 0
M  V30 6590 C 646.749 -1.1952 -4.0691 0
M  V30 6591 N 647.14 -2.38797 -4.45881 0
M  V30 6592 C 645.438 -1.03714 -4.33773 0
M  V30 6593 C 646.139 -3.03894 -4.96007 0
M  V30 6594 N 645.115 -2.31389 -4.91894 0
M  V30 6595 H 648.917 -1.64171 -2.43773 0
M  V30 6596 H 646.431 -0.988877 -1.28822 0
M  V30 6597 H 648.428 0.113836 -4.16745 0
M  V30 6598 H 647.088 0.728568 -3.16421 0
M  V30 6599 H 648.099 -2.76281 -4.38051 0
M  V30 6600 H 644.776 -0.190694 -4.17064 0
M  V30 6601 H 646.166 -4.05389 -5.35826 0
M  V30 6602 N 648.886 1.2938 -0.899927 0
M  V30 6603 C 649.833 2.27713 -0.376243 0
M  V30 6604 C 650.803 1.57016 0.541774 0
M  V30 6605 O 651.988 1.84997 0.466966 0
M  V30 6606 C 649.128 3.42889 0.39 0
M  V30 6607 C 648.241 4.28369 -0.558938 0
M  V30 6608 C 647.376 5.30726 0.224379 0
M  V30 6609 C 646.415 6.07862 -0.719068 0
M  V30 6610 N 645.552 7.02094 0.0298569 0
M  V30 6611 H 650.392 2.71888 -1.21988 0
M  V30 6612 H 647.929 1.33724 -0.612879 0
M  V30 6613 H 649.887 4.08443 0.850314 0
M  V30 6614 H 648.517 2.99743 1.19809 0
M  V30 6615 H 647.569 3.62986 -1.13777 0
M  V30 6616 H 648.881 4.82068 -1.2811 0
M  V30 6617 H 648.035 6.02098 0.745881 0
M  V30 6618 H 646.774 4.77759 0.979674 0
M  V30 6619 H 645.779 5.35353 -1.25207 0
M  V30 6620 H 647.004 6.62917 -1.4737 0
M  V30 6621 H 644.95 6.51496 0.767415 0
M  V30 6622 H 644.867 7.5335 -0.632391 0
M  V30 6623 H 646.135 7.77685 0.531615 0
M  V30 6624 N 650.364 0.662433 1.43002 0
M  V30 6625 C 651.274 -0.0239199 2.34588 0
M  V30 6626 C 652.29 -0.802255 1.54402 0
M  V30 6627 O 653.466 -0.747401 1.87018 0
M  V30 6628 C 650.531 -0.972098 3.32793 0
M  V30 6629 C 649.592 -0.189673 4.28881 0
M  V30 6630 C 648.825 -1.09269 5.22395 0
M  V30 6631 O 649.048 -2.33209 5.20547 0
M  V30 6632 O 647.982 -0.560136 5.99288 0
M  V30 6633 H 651.808 0.730171 2.94792 0
M  V30 6634 H 649.393 0.422635 1.43297 0
M  V30 6635 H 651.275 -1.51676 3.93157 0
M  V30 6636 H 649.95 -1.70626 2.75079 0
M  V30 6637 H 648.857 0.398794 3.71968 0
M  V30 6638 H 650.19 0.50511 4.89601 0
M  V30 6639 N 651.842 -1.52309 0.404946 0
M  V30 6640 C 652.772 -2.29805 -0.41376 0
M  V30 6641 C 653.753 -1.3384 -1.0498 0
M  V30 6642 O 654.938 -1.62745 -1.05961 0
M  V30 6643 C 652.068 -3.11639 -1.53292 0
M  V30 6644 C 651.022 -4.15616 -1.02211 0
M  V30 6645 C 650.348 -4.8577 -2.23455 0
M  V30 6646 C 651.648 -5.2224 -0.0790725 0
M  V30 6647 H 653.342 -2.98493 0.232878 0
M  V30 6648 H 650.888 -1.43552 0.113441 0
M  V30 6649 H 652.841 -3.64618 -2.11262 0
M  V30 6650 H 651.565 -2.40712 -2.20738 0
M  V30 6651 H 650.224 -3.63641 -0.46484 0
M  V30 6652 H 649.872 -4.11376 -2.89445 0
M  V30 6653 H 649.572 -5.56058 -1.89929 0
M  V30 6654 H 651.096 -5.4156 -2.82038 0
M  V30 6655 H 652.51 -5.70485 -0.567438 0
M  V30 6656 H 650.907 -5.99867 0.167167 0
M  V30 6657 H 651.977 -4.77078 0.867447 0
M  V30 6658 N 653.32 -0.135238 -1.57019 0
M  V30 6659 C 654.568 0.51777 -1.95355 0
M  V30 6660 C 654.889 1.6617 -1.02042 0
M  V30 6661 O 654.159 1.95738 -0.0797343 0
M  V30 6662 H 652.739 0.194264 -0.721298 0
M  V30 6663 H 655.401 -0.207983 -1.93787 0
M  V30 6664 H 654.497 0.901675 -2.98791 0
M  V30 6665 N 654.798 1.5699 0.138552 0
M  V30 6666 C 655.761 1.97984 1.15478 0
M  V30 6667 C 656.761 0.867416 1.35398 0
M  V30 6668 O 657.951 1.13387 1.32246 0
M  V30 6669 C 655.083 2.3031 2.51337 0
M  V30 6670 H 656.276 2.88953 0.802896 0
M  V30 6671 H 653.829 1.51555 0.382189 0
M  V30 6672 H 654.564 1.42159 2.91481 0
M  V30 6673 H 654.349 3.11425 2.38237 0
M  V30 6674 H 655.839 2.62834 3.24512 0
M  V30 6675 N 656.276 -0.40816 1.52223 0
M  V30 6676 C 657.523 -1.15502 1.66329 0
M  V30 6677 C 657.851 -1.90474 0.393701 0
M  V30 6678 O 657.106 -1.85507 -0.623356 0
M  V30 6679 C 657.405 -2.17422 2.83659 0
M  V30 6680 C 657.071 -1.5925 4.21841 0
M  V30 6681 C 655.733 -1.4311 4.59427 0
M  V30 6682 C 658.085 -1.16776 5.0795 0
M  V30 6683 C 655.413 -0.830148 5.80797 0
M  V30 6684 C 657.765 -0.580988 6.29926 0
M  V30 6685 C 656.429 -0.406729 6.6626 0
M  V30 6686 H 655.699 -0.422653 0.608642 0
M  V30 6687 H 658.346 -0.442114 1.86327 0
M  V30 6688 H 656.651 -2.94861 2.58001 0
M  V30 6689 H 658.348 -2.75084 2.9177 0
M  V30 6690 H 654.938 -1.72796 3.92224 0
M  V30 6691 H 659.122 -1.28055 4.79495 0
M  V30 6692 H 654.378 -0.68316 6.07571 0
M  V30 6693 H 658.552 -0.243488 6.95974 0
M  V30 6694 H 656.179 0.0610366 7.60175 0
M  V30 6695 N 657.755 -1.42862 -0.66545 0
M  V30 6696 C 659.002 -1.4383 -1.42546 0
M  V30 6697 C 659.33 -0.0581114 -1.94413 0
M  V30 6698 O 658.585 0.935002 -1.71919 0
M  V30 6699 C 658.884 -2.4175 -2.63233 0
M  V30 6700 C 658.55 -3.87915 -2.29854 0
M  V30 6701 C 657.212 -4.27726 -2.20463 0
M  V30 6702 C 659.564 -4.80074 -2.02924 0
M  V30 6703 C 656.892 -5.57666 -1.82279 0
M  V30 6704 C 659.244 -6.10366 -1.66242 0
M  V30 6705 C 657.908 -6.49167 -1.55367 0
M  V30 6706 H 657.178 -0.52631 -0.521612 0
M  V30 6707 H 659.825 -1.75863 -0.757914 0
M  V30 6708 H 658.13 -2.03077 -3.35063 0
M  V30 6709 H 659.827 -2.39759 -3.21429 0
M  V30 6710 H 656.417 -3.564 -2.3807 0
M  V30 6711 H 660.601 -4.50097 -2.09108 0
M  V30 6712 H 655.857 -5.8658 -1.72436 0
M  V30 6713 H 660.031 -6.81258 -1.44432 0
M  V30 6714 H 657.658 -7.49761 -1.2555 0
M  V30 6715 N 659.233 0.902656 -1.29189 0
M  V30 6716 C 660.163 2.02294 -1.16616 0
M  V30 6717 C 661.144 1.6999 -0.0611175 0
M  V30 6718 O 662.329 1.9271 -0.240072 0
M  V30 6719 C 659.459 3.37018 -0.83882 0
M  V30 6720 C 658.413 3.83522 -1.89986 0
M  V30 6721 C 657.739 5.15337 -1.42589 0
M  V30 6722 C 659.039 4.04169 -3.30824 0
M  V30 6723 H 660.733 2.13071 -2.10336 0
M  V30 6724 H 658.279 1.02378 -1.01266 0
M  V30 6725 H 660.232 4.14895 -0.737584 0
M  V30 6726 H 658.956 3.26325 0.134071 0
M  V30 6727 H 657.615 3.07859 -1.99043 0
M  V30 6728 H 657.263 5.01056 -0.441759 0
M  V30 6729 H 656.963 5.47423 -2.13547 0
M  V30 6730 H 658.487 5.95758 -1.3381 0
M  V30 6731 H 659.901 4.72537 -3.24626 0
M  V30 6732 H 658.298 4.47604 -3.99713 0
M  V30 6733 H 659.368 3.08604 -3.74021 0
M  V30 6734 N 660.711 1.11618 1.11262 0
M  V30 6735 C 661.621 0.78898 2.20935 0
M  V30 6736 C 662.637 -0.21867 1.7262 0
M  V30 6737 O 663.813 -0.0543826 2.01327 0
M  V30 6738 C 660.878 0.239014 3.45875 0
M  V30 6739 C 659.939 1.3055 4.08968 0
M  V30 6740 C 659.172 0.781687 5.27944 0
M  V30 6741 O 659.395 -0.387605 5.69082 0
M  V30 6742 O 658.329 1.54734 5.81671 0
M  V30 6743 H 662.155 1.70477 2.51339 0
M  V30 6744 H 659.74 0.892203 1.19834 0
M  V30 6745 H 661.622 -0.0632312 4.21353 0
M  V30 6746 H 660.297 -0.649454 3.17118 0
M  V30 6747 H 659.204 1.66079 3.35214 0
M  V30 6748 H 660.537 2.16743 4.41909 0
M  V30 6749 N 662.189 -1.289 0.906776 0
M  V30 6750 C 663.152 -2.25777 0.394656 0
M  V30 6751 C 664.152 -1.53621 -0.475119 0
M  V30 6752 O 665.342 -1.71949 -0.279165 0
M  V30 6753 C 662.474 -3.38113 -0.43499 0
M  V30 6754 H 663.667 -2.72592 1.25033 0
M  V30 6755 H 661.22 -1.40463 0.685547 0
M  V30 6756 H 661.955 -2.96648 -1.31036 0
M  V30 6757 H 661.74 -3.91647 0.188334 0
M  V30 6758 H 663.23 -4.10168 -0.784365 0
M  V30 6759 N 663.667 -0.670007 -1.42649 0
M  V30 6760 C 664.915 -0.18991 -2.01206 0
M  V30 6761 C 665.236 1.20617 -1.53221 0
M  V30 6762 O 664.506 1.80898 -0.751856 0
M  V30 6763 H 663.086 -0.0672189 -0.743969 0
M  V30 6764 H 665.748 -0.865442 -1.74631 0
M  V30 6765 H 664.844 -0.187481 -3.11536 0
M  V30 6766 N 665.145 1.52092 -0.413018 0
M  V30 6767 C 666.393 2.01456 0.161178 0
M  V30 6768 C 666.714 1.30034 1.45314 0
M  V30 6769 O 665.984 0.427435 1.9118 0
M  V30 6770 H 664.564 0.744376 0.0625526 0
M  V30 6771 H 667.226 1.86974 -0.550151 0
M  V30 6772 H 666.322 3.1008 0.354517 0
M  V30 6773 N 666.623 0.143563 1.56945 0
M  V30 6774 C 667.869 -0.502787 1.97088 0
M  V30 6775 C 668.224 -1.62703 1.02691 0
M  V30 6776 O 667.517 -1.91502 0.0613323 0
M  V30 6777 C 667.711 -1.05885 3.41355 0
M  V30 6778 C 667.54 0.00998209 4.49699 0
M  V30 6779 C 666.31 0.450229 5.0329 0
M  V30 6780 C 668.508 0.800174 5.08037 0
M  V30 6781 N 666.49 1.50227 5.95235 0
M  V30 6782 C 667.861 1.70279 5.96158 0
M  V30 6783 C 669.916 0.848344 4.9062 0
M  V30 6784 C 668.619 2.64945 6.68728 0
M  V30 6785 C 670.645 1.78281 5.63888 0
M  V30 6786 C 670.007 2.67296 6.51715 0
M  V30 6787 H 666.106 -0.152891 0.766908 0
M  V30 6788 H 668.69 0.23737 1.93248 0
M  V30 6789 H 666.861 -1.76863 3.45795 0
M  V30 6790 H 668.593 -1.67154 3.68567 0
M  V30 6791 H 665.348 0.0531355 4.7357 0
M  V30 6792 H 665.772 2.02795 6.45913 0
M  V30 6793 H 670.414 0.174228 4.22441 0
M  V30 6794 H 668.132 3.33358 7.36137 0
M  V30 6795 H 671.718 1.82584 5.52408 0
M  V30 6796 H 670.598 3.38428 7.07415 0
M  V30 6797 N 668.101 -1.57061 -0.130224 0
M  V30 6798 C 669.011 -2.02802 -1.17934 0
M  V30 6799 C 670.027 -0.946378 -1.46013 0
M  V30 6800 O 671.203 -1.25708 -1.57351 0
M  V30 6801 C 668.268 -2.41368 -2.48882 0
M  V30 6802 C 667.329 -3.63561 -2.28301 0
M  V30 6803 C 666.562 -4.00279 -3.53005 0
M  V30 6804 O 666.785 -3.37463 -4.59864 0
M  V30 6805 O 665.719 -4.93441 -3.44673 0
M  V30 6806 H 669.545 -2.92394 -0.820958 0
M  V30 6807 H 667.13 -1.45475 -0.340197 0
M  V30 6808 H 669.012 -2.66958 -3.26054 0
M  V30 6809 H 667.687 -1.54926 -2.84217 0
M  V30 6810 H 666.594 -3.43136 -1.49025 0
M  V30 6811 H 667.927 -4.50673 -1.97875 0
M  V30 6812 N 669.579 0.400081 -1.52437 0
M  V30 6813 C 670.995 0.739359 -1.41441 0
M  V30 6814 C 671.195 1.94512 -0.526053 0
M  V30 6815 O 670.251 2.525 0.00472502 0
M  V30 6816 C 671.564 0.984824 -2.84116 0
M  V30 6817 C 673.112 1.08698 -2.93519 0
M  V30 6818 C 673.587 1.36515 -4.37181 0
M  V30 6819 N 675.078 1.43361 -4.40457 0
M  V30 6820 C 675.813 1.66528 -5.48686 0
M  V30 6821 N 675.309 1.87239 -6.67018 0
M  V30 6822 N 677.102 1.68617 -5.36213 0
M  V30 6823 H 669.253 -0.393484 -2.08723 0
M  V30 6824 H 671.516 -0.1138 -0.941145 0
M  V30 6825 H 671.222 0.171096 -3.51284 0
M  V30 6826 H 671.096 1.90253 -3.25705 0
M  V30 6827 H 673.483 1.89129 -2.26526 0
M  V30 6828 H 673.564 0.147432 -2.55375 0
M  V30 6829 H 673.208 0.565982 -5.04737 0
M  V30 6830 H 673.138 2.31737 -4.7287 0
M  V30 6831 H 675.629 1.29108 -3.55161 0
M  V30 6832 H 675.942 2.04392 -7.45281 0
M  V30 6833 H 674.287 1.84486 -6.70067 0
M  V30 6834 H 677.478 1.5198 -4.42741 0
M  V30 6835 H 677.651 1.86332 -6.20632 0
M  V30 6836 N 671.057 1.43213 0.657864 0
M  V30 6837 C 672.468 1.39669 1.23893 0
M  V30 6838 C 672.819 0.0984217 1.95953 0
M  V30 6839 O 671.944 -0.8023 2.00978 0
M  V30 6840 C 672.539 2.53004 2.25332 0
M  V30 6841 C 671.098 2.5274 2.78926 0
M  V30 6842 C 670.245 2.30941 1.53497 0
M  V30 6843 H 673.196 1.52181 0.450172 0
M  V30 6844 H 673.217 2.24226 3.07413 0
M  V30 6845 H 672.729 3.4748 1.72856 0
M  V30 6846 H 670.83 1.6213 3.35477 0
M  V30 6847 H 670.943 3.50352 3.26787 0
M  V30 6848 H 669.307 1.7952 1.80678 0
M  V30 6849 H 670.09 3.27496 1.02963 0
M  V30 6850 N 672.536 -0.895792 1.29666 0
M  V30 6851 C 673.766 -1.67757 1.20586 0
M  V30 6852 C 674.174 -1.87729 -0.235432 0
M  V30 6853 O 673.517 -1.41706 -1.16898 0
M  V30 6854 C 673.579 -3.08117 1.85215 0
M  V30 6855 C 673.243 -3.1136 3.3452 0
M  V30 6856 C 674.24 -2.91217 4.30684 0
M  V30 6857 C 671.925 -3.33302 3.75786 0
M  V30 6858 C 673.919 -2.92955 5.66089 0
M  V30 6859 C 671.606 -3.3467 5.11311 0
M  V30 6860 C 672.604 -3.14519 6.06273 0
M  V30 6861 O 672.292 -3.15684 7.39323 0
M  V30 6862 H 672.024 -0.530601 0.418854 0
M  V30 6863 H 674.578 -1.12831 1.71634 0
M  V30 6864 H 672.808 -3.64661 1.28683 0
M  V30 6865 H 674.497 -3.68399 1.70403 0
M  V30 6866 H 675.263 -2.74074 4.00136 0
M  V30 6867 H 671.142 -3.48025 3.02324 0
M  V30 6868 H 674.686 -2.77145 6.40185 0
M  V30 6869 H 670.583 -3.51346 5.41504 0
M  V30 6870 H 671.351 -3.31924 7.48177 0
M  V30 6871 N 674.014 -1.12206 -1.10668 0
M  V30 6872 C 675.26 -0.887096 -1.83036 0
M  V30 6873 C 675.615 0.580887 -1.83422 0
M  V30 6874 O 674.908 1.42379 -1.28213 0
M  V30 6875 C 675.102 -1.39276 -3.29146 0
M  V30 6876 C 674.931 -2.90837 -3.42992 0
M  V30 6877 C 673.701 -3.59047 -3.55546 0
M  V30 6878 C 675.899 -3.8885 -3.36601 0
M  V30 6879 N 673.881 -4.98747 -3.57945 0
M  V30 6880 C 675.252 -5.14666 -3.45716 0
M  V30 6881 C 677.307 -3.81296 -3.20184 0
M  V30 6882 C 676.01 -6.33814 -3.40106 0
M  V30 6883 C 678.036 -4.99965 -3.15895 0
M  V30 6884 C 677.398 -6.24637 -3.25589 0
M  V30 6885 H 673.497 -0.377857 -0.684652 0
M  V30 6886 H 676.081 -1.42791 -1.32358 0
M  V30 6887 H 674.252 -0.879026 -3.78322 0
M  V30 6888 H 675.984 -1.10011 -3.89461 0
M  V30 6889 H 672.739 -3.09533 -3.5845 0
M  V30 6890 H 673.163 -5.71606 -3.62762 0
M  V30 6891 H 677.805 -2.85806 -3.11569 0
M  V30 6892 H 675.523 -7.29574 -3.47487 0
M  V30 6893 H 679.109 -4.95847 -3.04347 0
M  V30 6894 H 677.989 -7.14921 -3.22269 0
M  V30 6895 N 675.492 1.28418 -0.913599 0
M  V30 6896 C 676.739 1.94981 -0.546674 0
M  V30 6897 C 677.067 1.7192 0.909606 0
M  V30 6898 O 676.322 1.03314 1.66207 0
M  V30 6899 C 676.621 3.48283 -0.802099 0
M  V30 6900 C 676.287 3.91444 -2.2379 0
M  V30 6901 C 674.949 4.02939 -2.63046 0
M  V30 6902 C 677.301 4.13542 -3.17227 0
M  V30 6903 C 674.629 4.3391 -3.94891 0
M  V30 6904 C 676.981 4.45992 -4.48636 0
M  V30 6905 C 675.645 4.55698 -4.87746 0
M  V30 6906 H 674.915 0.713487 -0.200042 0
M  V30 6907 H 677.562 1.52756 -1.15489 0
M  V30 6908 H 675.867 3.91643 -0.111076 0
M  V30 6909 H 677.564 3.97903 -0.497375 0
M  V30 6910 H 674.154 3.83024 -1.9233 0
M  V30 6911 H 678.338 4.04114 -2.88107 0
M  V30 6912 H 673.594 4.39631 -4.24894 0
M  V30 6913 H 677.768 4.62038 -5.21051 0
M  V30 6914 H 675.395 4.79451 -5.89942 0
M  V30 6915 N 676.97 0.677563 1.42291 0
M  V30 6916 C 677.88 0.000962654 2.346 0
M  V30 6917 C 678.896 -0.785833 1.55244 0
M  V30 6918 O 680.072 -0.727523 1.87801 0
M  V30 6919 C 677.137 -0.936746 3.33805 0
M  V30 6920 C 676.198 -0.144173 4.29058 0
M  V30 6921 C 675.431 -1.03722 5.23524 0
M  V30 6922 O 675.654 -2.27675 5.22992 0
M  V30 6923 O 674.588 -0.496542 5.99848 0
M  V30 6924 H 678.414 0.761397 2.94001 0
M  V30 6925 H 675.999 0.43781 1.42841 0
M  V30 6926 H 677.881 -1.47497 3.94744 0
M  V30 6927 H 676.556 -1.67698 2.76874 0
M  V30 6928 H 675.463 0.438224 3.71524 0
M  V30 6929 H 676.796 0.55701 4.89038 0
M  V30 6930 N 678.448 -1.51871 0.421078 0
M  V30 6931 C 679.411 -2.25914 -0.386712 0
M  V30 6932 C 680.411 -1.28733 -0.963555 0
M  V30 6933 O 681.601 -1.52579 -0.840556 0
M  V30 6934 C 678.733 -3.03853 -1.54551 0
M  V30 6935 H 679.926 -2.98754 0.261978 0
M  V30 6936 H 677.479 -1.5533 0.173862 0
M  V30 6937 H 678.214 -2.35392 -2.23072 0
M  V30 6938 H 677.999 -3.75215 -1.13824 0
M  V30 6939 H 679.489 -3.59984 -2.11663 0
M  V30 6940 N 679.926 -0.151884 -1.56866 0
M  V30 6941 C 680.874 0.80299 -2.183 0
M  V30 6942 C 681.868 1.25174 -1.14139 0
M  V30 6943 O 683.074 1.21966 -1.3238 0
M  V30 6944 H 679.449 0.277169 -0.699057 0
M  V30 6945 H 681.42 0.260699 -2.97259 0
M  V30 6946 C 680.169 2.03009 -2.82281 0
M  V30 6947 H 679.492 1.69377 -3.62148 0
M  V30 6948 H 680.932 2.67753 -3.28762 0
M  V30 6949 C 679.391 2.84123 -1.81041 0
M  V30 6950 O 679.921 3.8063 -1.28388 0
M  V30 6951 N 678.127 2.48753 -1.50234 0
M  V30 6952 H 677.674 1.70337 -1.93244 0
M  V30 6953 H 677.632 3.03316 -0.827445 0
M  V30 6954 N 681.404 1.57128 0.121893 0
M  V30 6955 C 682.367 1.99197 1.13372 0
M  V30 6956 C 683.367 0.881728 1.3447 0
M  V30 6957 O 684.557 1.14783 1.31036 0
M  V30 6958 C 681.689 2.32963 2.4888 0
M  V30 6959 H 682.882 2.89788 0.772204 0
M  V30 6960 H 680.435 1.51952 0.366093 0
M  V30 6961 H 681.17 1.45243 2.89957 0
M  V30 6962 H 680.955 3.13934 2.34921 0
M  V30 6963 H 682.445 2.66261 3.21706 0
M  V30 6964 N 682.882 -0.391992 1.52647 0
M  V30 6965 C 683.845 -1.46135 1.7657 0
M  V30 6966 C 684.845 -1.47701 0.635698 0
M  V30 6967 O 686.035 -1.48924 0.903728 0
M  V30 6968 C 683.167 -2.85443 1.86374 0
M  V30 6969 H 684.36 -1.26208 2.72051 0
M  V30 6970 H 681.913 -0.623549 1.43323 0
M  V30 6971 H 682.648 -3.10718 0.928685 0
M  V30 6972 H 682.433 -2.85708 2.68539 0
M  V30 6973 H 683.923 -3.62933 2.06566 0
M  V30 6974 N 684.36 -1.4356 -0.65026 0
M  V30 6975 C 685.29 -1.51758 -1.77459 0
M  V30 6976 C 686.271 -0.372019 -1.65982 0
M  V30 6977 O 687.456 -0.589627 -1.85033 0
M  V30 6978 C 684.586 -1.44302 -3.15902 0
M  V30 6979 C 683.54 -2.57138 -3.42146 0
M  V30 6980 C 682.866 -2.34735 -4.8042 0
M  V30 6981 C 684.166 -3.99373 -3.36598 0
M  V30 6982 H 685.86 -2.45863 -1.70855 0
M  V30 6983 H 683.406 -1.18333 -0.820566 0
M  V30 6984 H 685.359 -1.48641 -3.94314 0
M  V30 6985 H 684.083 -0.467026 -3.23244 0
M  V30 6986 H 682.742 -2.52157 -2.66106 0
M  V30 6987 H 682.39 -1.35372 -4.84441 0
M  V30 6988 H 682.09 -3.10375 -4.9894 0
M  V30 6989 H 683.614 -2.40862 -5.61086 0
M  V30 6990 H 685.028 -4.05826 -4.04942 0
M  V30 6991 H 683.425 -4.75063 -3.66654 0
M  V30 6992 H 684.495 -4.243 -2.34729 0
M  V30 6993 N 685.838 0.888903 -1.30139 0
M  V30 6994 C 686.768 2.01046 -1.18755 0
M  V30 6995 C 687.749 1.69916 -0.0791438 0
M  V30 6996 O 688.934 1.92445 -0.260498 0
M  V30 6997 C 686.064 3.36109 -0.874518 0
M  V30 6998 C 685.018 3.81486 -1.94043 0
M  V30 6999 C 684.344 5.13796 -1.48047 0
M  V30 7000 C 685.644 4.00637 -3.35093 0
M  V30 7001 H 687.338 2.10828 -2.12584 0
M  V30 7002 H 684.884 1.01298 -1.02346 0
M  V30 7003 H 686.837 4.14089 -0.781548 0
M  V30 7004 H 685.561 3.26449 0.0994519 0
M  V30 7005 H 684.22 3.05731 -2.02297 0
M  V30 7006 H 683.868 5.0056 -0.494878 0
M  V30 7007 H 683.568 5.45127 -2.19341 0
M  V30 7008 H 685.092 5.94305 -1.40121 0
M  V30 7009 H 686.506 4.69067 -3.2962 0
M  V30 7010 H 684.903 4.43339 -4.04438 0
M  V30 7011 H 685.973 3.0462 -3.77273 0
M  V30 7012 N 687.317 1.12792 1.10072 0
M  V30 7013 C 688.264 0.79921 2.16521 0
M  V30 7014 C 689.234 -0.235726 1.64419 0
M  V30 7015 O 690.419 -0.109457 1.90486 0
M  V30 7016 C 687.559 0.264091 3.44088 0
M  V30 7017 C 686.672 1.35729 4.10124 0
M  V30 7018 C 685.807 0.781212 5.25424 0
M  V30 7019 C 684.846 1.85327 5.8337 0
M  V30 7020 N 683.983 1.29564 6.90042 0
M  V30 7021 H 688.823 1.71105 2.43981 0
M  V30 7022 H 686.36 0.854225 1.19756 0
M  V30 7023 H 688.318 -0.0642423 4.17151 0
M  V30 7024 H 686.948 -0.610901 3.16967 0
M  V30 7025 H 686 1.80234 3.34993 0
M  V30 7026 H 687.312 2.16782 4.4923 0
M  V30 7027 H 686.466 0.403769 6.05355 0
M  V30 7028 H 685.205 -0.0604686 4.87663 0
M  V30 7029 H 684.21 2.23986 5.02106 0
M  V30 7030 H 685.435 2.69824 6.23195 0
M  V30 7031 H 683.381 0.475844 6.54272 0
M  V30 7032 H 683.298 2.04271 7.2788 0
M  V30 7033 H 684.566 0.945545 7.73744 0
M  V30 7034 N 688.795 -1.27931 0.920396 0
M  V30 7035 C 689.705 -2.30824 0.419212 0
M  V30 7036 C 690.721 -1.66767 -0.496461 0
M  V30 7037 O 691.897 -1.97763 -0.38104 0
M  V30 7038 C 688.962 -3.45158 -0.326601 0
M  V30 7039 C 688.023 -4.24754 0.623098 0
M  V30 7040 C 687.256 -5.33629 -0.0872172 0
M  V30 7041 O 687.479 -5.55204 -1.30784 0
M  V30 7042 O 686.413 -5.99091 0.580875 0
M  V30 7043 H 690.239 -2.75716 1.27337 0
M  V30 7044 H 687.824 -1.32747 0.685465 0
M  V30 7045 H 689.706 -4.14716 -0.747559 0
M  V30 7046 H 688.381 -3.02336 -1.15648 0
M  V30 7047 H 687.288 -3.57759 1.09359 0
M  V30 7048 H 688.621 -4.71272 1.41998 0
M  V30 7049 N 690.273 -0.685099 -1.4193 0
M  V30 7050 C 691.206 0.0371639 -2.2817 0
M  V30 7051 C 692.184 0.798436 -1.41647 0
M  V30 7052 O 693.368 0.791428 -1.71081 0
M  V30 7053 C 690.495 1.05993 -3.21688 0
M  V30 7054 C 689.541 0.393043 -4.24685 0
M  V30 7055 S 690.374 -0.856921 -5.28599 0
M  V30 7056 C 691.53 0.164508 -6.25684 0
M  V30 7057 H 691.763 -0.694305 -2.89079 0
M  V30 7058 H 689.296 -0.474999 -1.46912 0
M  V30 7059 H 691.254 1.64489 -3.76103 0
M  V30 7060 H 689.915 1.7639 -2.59895 0
M  V30 7061 H 689.108 1.16513 -4.90348 0
M  V30 7062 H 688.71 -0.118589 -3.73812 0
M  V30 7063 H 691.002 1.02106 -6.69762 0
M  V30 7064 H 691.945 -0.457917 -7.06618 0
M  V30 7065 H 692.353 0.514596 -5.6215 0
M  V30 7066 N 691.751 1.51645 -0.429126 0
M  V30 7067 C 693.162 1.86665 0.0359003 0
M  V30 7068 C 693.513 1.34677 1.42676 0
M  V30 7069 O 692.638 0.694195 2.04963 0
M  V30 7070 C 693.233 3.38724 0.0719221 0
M  V30 7071 C 691.792 3.7331 0.481336 0
M  V30 7072 C 690.939 2.75313 -0.331329 0
M  V30 7073 H 693.89 1.44987 -0.645333 0
M  V30 7074 H 693.911 3.7011 0.883118 0
M  V30 7075 H 693.423 3.76532 -0.940495 0
M  V30 7076 H 691.524 3.41088 1.49966 0
M  V30 7077 H 691.637 4.78631 0.211837 0
M  V30 7078 H 690.001 2.53839 0.209204 0
M  V30 7079 H 690.784 3.15963 -1.34247 0
M  V30 7080 N 693.229 0.160201 1.56784 0
M  V30 7081 C 694.192 -0.760405 2.16219 0
M  V30 7082 C 695.192 -1.16595 1.10735 0
M  V30 7083 O 696.382 -1.08472 1.36306 0
M  V30 7084 C 693.514 -2.03358 2.73603 0
M  V30 7085 H 694.707 -0.243173 2.98912 0
M  V30 7086 H 692.26 -0.0893139 1.56045 0
M  V30 7087 H 692.995 -2.59416 1.94612 0
M  V30 7088 H 692.78 -1.75186 3.50788 0
M  V30 7089 H 694.27 -2.69081 3.19351 0
M  V30 7090 N 694.707 -1.5719 -0.113559 0
M  V30 7091 C 695.617 -2.04041 -1.15777 0
M  V30 7092 C 696.633 -0.961812 -1.45001 0
M  V30 7093 O 697.809 -1.2737 -1.56009 0
M  V30 7094 C 694.874 -2.43994 -2.46308 0
M  V30 7095 C 693.935 -3.65962 -2.24433 0
M  V30 7096 C 693.168 -4.04 -3.4874 0
M  V30 7097 O 693.391 -3.42321 -4.56259 0
M  V30 7098 O 692.325 -4.97069 -3.3942 0
M  V30 7099 H 696.151 -2.93248 -0.789899 0
M  V30 7100 H 693.736 -1.45828 -0.324748 0
M  V30 7101 H 695.618 -2.70401 -3.23204 0
M  V30 7102 H 694.293 -1.57932 -2.82558 0
M  V30 7103 H 693.2 -3.44697 -1.45377 0
M  V30 7104 H 694.533 -4.52746 -1.93084 0
M  V30 7105 N 696.185 0.383891 -1.52853 0
M  V30 7106 C 697.431 1.12667 -1.69345 0
M  V30 7107 C 697.786 1.87519 -0.430635 0
M  V30 7108 O 697.079 1.82742 0.575846 0
M  V30 7109 C 697.273 2.12881 -2.87082 0
M  V30 7110 C 697.102 1.47873 -4.24692 0
M  V30 7111 C 695.872 1.24064 -4.89833 0
M  V30 7112 C 698.07 0.926118 -5.05893 0
M  V30 7113 N 696.052 0.552138 -6.11412 0
M  V30 7114 C 697.423 0.365966 -6.18919 0
M  V30 7115 C 699.478 0.823023 -4.91051 0
M  V30 7116 C 698.181 -0.287204 -7.18726 0
M  V30 7117 C 700.207 0.183666 -5.91115 0
M  V30 7118 C 699.569 -0.365693 -7.0345 0
M  V30 7119 H 695.668 0.398064 -0.673104 0
M  V30 7120 H 698.252 0.415504 -1.90215 0
M  V30 7121 H 696.423 2.81329 -2.67784 0
M  V30 7122 H 698.155 2.79703 -2.92486 0
M  V30 7123 H 694.91 1.51701 -4.48647 0
M  V30 7124 H 695.334 0.223783 -6.7663 0
M  V30 7125 H 699.976 1.23354 -4.04405 0
M  V30 7126 H 697.694 -0.709719 -8.04977 0
M  V30 7127 H 701.28 0.105074 -5.81705 0
M  V30 7128 H 700.16 -0.85261 -7.79551 0
M  V30 7129 N 697.663 1.43903 0.642637 0
M  V30 7130 C 698.593 1.52697 1.76652 0
M  V30 7131 C 699.574 0.380816 1.65782 0
M  V30 7132 O 700.759 0.599432 1.84717 0
M  V30 7133 C 697.889 1.45975 3.15133 0
M  V30 7134 C 696.843 2.58949 3.40778 0
M  V30 7135 C 696.169 2.37279 4.79169 0
M  V30 7136 C 697.469 4.01153 3.34475 0
M  V30 7137 H 699.163 2.46766 1.69549 0
M  V30 7138 H 696.709 1.18767 0.814279 0
M  V30 7139 H 698.662 1.5073 3.93521 0
M  V30 7140 H 697.386 0.484162 3.22991 0
M  V30 7141 H 696.045 2.53564 2.64765 0
M  V30 7142 H 695.693 1.37939 4.83717 0
M  V30 7143 H 695.393 3.13016 4.97287 0
M  V30 7144 H 696.917 2.43834 5.59801 0
M  V30 7145 H 698.331 4.07968 4.02784 0
M  V30 7146 H 696.728 4.77001 3.64129 0
M  V30 7147 H 697.798 4.25539 2.32475 0
M  V30 7148 N 699.141 -0.881989 1.30609 0
M  V30 7149 C 700.552 -1.44956 1.17664 0
M  V30 7150 C 700.903 -1.94945 -0.221531 0
M  V30 7151 O 700.028 -1.85257 -1.11844 0
M  V30 7152 C 700.623 -2.63474 2.12995 0
M  V30 7153 C 699.182 -3.16312 2.04019 0
M  V30 7154 C 698.329 -1.89008 2.02907 0
M  V30 7155 H 701.28 -0.691645 1.42835 0
M  V30 7156 H 701.301 -3.39783 1.71253 0
M  V30 7157 H 700.813 -2.2706 3.14746 0
M  V30 7158 H 698.914 -3.57376 1.0542 0
M  V30 7159 H 699.027 -3.79409 2.9255 0
M  V30 7160 H 697.391 -2.07465 1.47751 0
M  V30 7161 H 698.174 -1.54848 3.06394 0
M  V30 7162 N 700.619 -1.13374 -1.09472 0
M  V30 7163 C 702.03 -0.90801 -1.63132 0
M  V30 7164 C 702.381 0.555576 -1.8817 0
M  V30 7165 O 701.506 1.42218 -1.63104 0
M  V30 7166 C 702.101 -1.64182 -2.96361 0
M  V30 7167 C 700.66 -1.46197 -3.46848 0
M  V30 7168 C 699.807 -1.67134 -2.21273 0
M  V30 7169 H 702.758 -1.2871 -0.928411 0
M  V30 7170 H 702.779 -1.09863 -3.64294 0
M  V30 7171 H 702.291 -2.707 -2.78106 0
M  V30 7172 H 700.392 -0.419788 -3.70228 0
M  V30 7173 H 700.505 -2.22472 -4.24315 0
M  V30 7174 H 698.869 -1.09616 -2.29905 0
M  V30 7175 H 699.652 -2.74971 -2.05538 0
M  V30 7176 N 702.098 1.27442 -0.927168 0
M  V30 7177 C 703.061 2.2512 -0.430525 0
M  V30 7178 C 704.061 1.54357 0.450619 0
M  V30 7179 O 705.251 1.72371 0.251774 0
M  V30 7180 C 702.383 3.38763 0.381144 0
M  V30 7181 H 703.576 2.70569 -1.29354 0
M  V30 7182 H 701.129 1.39355 -0.707806 0
M  V30 7183 H 701.864 2.98695 1.263 0
M  V30 7184 H 701.649 3.91298 -0.250618 0
M  V30 7185 H 703.139 4.11364 0.719012 0
M  V30 7186 N 703.576 0.692616 1.41565 0
M  V30 7187 C 704.992 0.363878 1.55397 0
M  V30 7188 C 705.192 -1.1294 1.66874 0
M  V30 7189 O 704.248 -1.91517 1.64552 0
M  V30 7190 C 705.561 1.10982 2.7947 0
M  V30 7191 C 707.109 1.09387 2.93263 0
M  V30 7192 C 707.584 1.8215 4.20221 0
M  V30 7193 N 709.075 1.79105 4.27172 0
M  V30 7194 C 709.81 2.32247 5.2426 0
M  V30 7195 N 709.306 2.93847 6.27396 0
M  V30 7196 N 711.099 2.22519 5.1618 0
M  V30 7197 H 703.25 1.66116 1.3236 0
M  V30 7198 H 705.513 0.700848 0.63837 0
M  V30 7199 H 705.219 2.1647 2.77188 0
M  V30 7200 H 705.093 0.686492 3.709 0
M  V30 7201 H 707.48 0.0472638 2.95062 0
M  V30 7202 H 707.561 1.55623 2.03015 0
M  V30 7203 H 707.205 2.86789 4.19183 0
M  V30 7204 H 707.135 1.33351 5.09436 0
M  V30 7205 H 709.626 1.34191 3.53272 0
M  V30 7206 H 709.939 3.31972 6.97864 0
M  V30 7207 H 708.284 2.97924 6.27906 0
M  V30 7208 H 711.475 1.7407 4.34531 0
M  V30 7209 H 711.648 2.64239 5.91677 0
M  V30 7210 N 705.054 -1.51416 0.437162 0
M  V30 7211 C 706.331 -1.94682 -0.189292 0
M  V30 7212 C 706.711 -1.37581 -1.60108 0
M  V30 7213 O 706.059 -0.562815 -2.2146 0
M  V30 7214 C 706.269 -3.48599 -0.167201 0
M  V30 7215 C 707.617 -4.2296 -0.372856 0
M  V30 7216 O 708.641 -3.55354 -0.245323 0
M  V30 7217 O 707.5 -5.42895 -0.626693 0
M  V30 7218 H 704.594 -0.816708 -0.130063 0
M  V30 7219 H 707.14 -1.62316 0.495128 0
M  V30 7220 H 705.912 -3.82616 0.81981 0
M  V30 7221 H 705.535 -3.87406 -0.894537 0
M  V30 7222 N 706.532 -0.168513 -1.56696 0
M  V30 7223 C 707.495 0.748928 -2.16619 0
M  V30 7224 C 708.495 1.16007 -1.11351 0
M  V30 7225 O 709.685 1.07748 -1.3688 0
M  V30 7226 C 706.817 2.01904 -2.74677 0
M  V30 7227 H 708.01 0.227317 -2.99037 0
M  V30 7228 H 705.563 0.0810372 -1.5609 0
M  V30 7229 H 706.298 2.58381 -1.95985 0
M  V30 7230 H 706.083 1.73323 -3.51712 0
M  V30 7231 H 707.573 2.67383 -3.20774 0
M  V30 7232 N 708.01 1.57248 0.105221 0
M  V30 7233 C 709.256 1.86719 0.806692 0
M  V30 7234 C 709.611 0.758061 1.76837 0
M  V30 7235 O 708.904 -0.240812 1.90081 0
M  V30 7236 C 709.098 3.20437 1.58287 0
M  V30 7237 C 708.927 4.44252 0.697864 0
M  V30 7238 C 707.697 5.04104 0.347444 0
M  V30 7239 C 709.895 5.14299 0.00933014 0
M  V30 7240 N 707.877 6.1146 -0.546786 0
M  V30 7241 C 709.248 6.15528 -0.74336 0
M  V30 7242 C 711.303 4.97857 -0.0656505 0
M  V30 7243 C 710.006 7.02091 -1.56401 0
M  V30 7244 C 712.032 5.84919 -0.873167 0
M  V30 7245 C 711.394 6.8566 -1.61401 0
M  V30 7246 H 707.493 0.73329 0.271679 0
M  V30 7247 H 710.077 1.94575 0.0697152 0
M  V30 7248 H 708.248 3.13651 2.29079 0
M  V30 7249 H 709.98 3.37668 2.23075 0
M  V30 7250 H 706.735 4.68505 0.692817 0
M  V30 7251 H 707.159 6.69779 -0.986157 0
M  V30 7252 H 711.801 4.19919 0.492768 0
M  V30 7253 H 709.519 7.79427 -2.13353 0
M  V30 7254 H 713.105 5.74259 -0.933724 0
M  V30 7255 H 711.985 7.5186 -2.2288 0
M  V30 7256 N 709.488 -0.375779 1.53054 0
M  V30 7257 C 710.713 -1.14484 1.7294 0
M  V30 7258 C 711.138 -1.82572 0.452668 0
M  V30 7259 O 710.496 -1.71343 -0.592567 0
M  V30 7260 C 710.544 -2.15857 2.88857 0
M  V30 7261 O 709.648 -3.22725 2.56753 0
M  V30 7262 H 708.989 -0.332666 0.574656 0
M  V30 7263 H 711.519 -0.436025 1.999 0
M  V30 7264 H 711.529 -2.59631 3.14731 0
M  V30 7265 H 710.204 -1.65689 3.81471 0
M  V30 7266 H 708.781 -2.83996 2.41663 0
M  V30 7267 N 710.966 -1.44241 -0.634997 0
M  V30 7268 C 712.214 -1.46531 -1.39187 0
M  V30 7269 C 712.535 -0.0976441 -1.94755 0
M  V30 7270 O 711.805 0.869528 -1.75545 0
M  V30 7271 H 710.385 -0.539544 -0.516625 0
M  V30 7272 H 713.047 -1.79989 -0.747655 0
M  V30 7273 H 712.143 -2.18848 -2.22513 0
M  V30 7274 N 712.444 0.87505 -1.31075 0
M  V30 7275 C 713.377 1.98471 -1.12625 0
M  V30 7276 C 714.355 1.6257 -0.0311379 0
M  V30 7277 O 715.539 1.87574 -0.186594 0
M  V30 7278 C 712.666 3.30963 -0.719799 0
M  V30 7279 C 711.712 3.85849 -1.81722 0
M  V30 7280 S 712.545 4.11926 -3.42165 0
M  V30 7281 C 713.701 5.47423 -3.03445 0
M  V30 7282 H 713.934 2.13817 -2.06566 0
M  V30 7283 H 711.467 1.02463 -1.15502 0
M  V30 7284 H 713.425 4.07541 -0.492035 0
M  V30 7285 H 712.086 3.1346 0.200413 0
M  V30 7286 H 711.279 4.81616 -1.48533 0
M  V30 7287 H 710.881 3.16046 -1.99977 0
M  V30 7288 H 713.173 6.28881 -2.52023 0
M  V30 7289 H 714.116 5.85557 -3.98157 0
M  V30 7290 H 714.524 5.10455 -2.41031 0
M  V30 7291 N 713.922 1.13953 1.08869 0
M  V30 7292 C 715.169 0.90481 1.81161 0
M  V30 7293 C 715.497 -0.568824 1.85996 0
M  V30 7294 O 714.752 -1.43723 1.32823 0
M  V30 7295 C 715.051 1.44495 3.26888 0
M  V30 7296 C 714.717 2.93641 3.42178 0
M  V30 7297 C 713.379 3.34361 3.46059 0
M  V30 7298 C 715.731 3.89568 3.46246 0
M  V30 7299 C 713.059 4.69681 3.51592 0
M  V30 7300 C 715.411 5.2474 3.53314 0
M  V30 7301 C 714.075 5.64979 3.55465 0
M  V30 7302 H 713.345 0.331094 0.662916 0
M  V30 7303 H 715.992 1.42242 1.28217 0
M  V30 7304 H 714.297 0.848169 3.82509 0
M  V30 7305 H 715.994 1.23934 3.81368 0
M  V30 7306 H 712.584 2.61156 3.39846 0
M  V30 7307 H 716.768 3.59192 3.42483 0
M  V30 7308 H 712.024 5.00224 3.51547 0
M  V30 7309 H 716.198 5.98882 3.55406 0
M  V30 7310 H 713.825 6.69821 3.59505 0
M  V30 7311 N 715.4 -1.26948 0.933913 0
M  V30 7312 C 716.625 -1.98724 0.593589 0
M  V30 7313 C 717.05 -1.6915 -0.822801 0
M  V30 7314 O 716.408 -0.93533 -1.5531 0
M  V30 7315 C 716.456 -3.50834 0.833542 0
M  V30 7316 O 715.56 -4.12284 -0.0978788 0
M  V30 7317 H 714.901 -0.623683 0.227849 0
M  V30 7318 H 717.431 -1.61599 1.25486 0
M  V30 7319 H 717.441 -4.01018 0.75156 0
M  V30 7320 H 716.116 -3.71691 1.86597 0
M  V30 7321 H 714.693 -3.72884 0.0345443 0
M  V30 7322 N 716.879 -0.700114 -1.41195 0
M  V30 7323 C 718.104 -0.240704 -2.05998 0
M  V30 7324 C 718.529 1.10313 -1.52357 0
M  V30 7325 O 717.887 1.69154 -0.652424 0
M  V30 7326 C 717.935 -0.213783 -3.59966 0
M  V30 7327 O 717.039 0.809933 -4.04368 0
M  V30 7328 H 716.38 -0.116471 -0.653705 0
M  V30 7329 H 718.91 -0.956251 -1.80878 0
M  V30 7330 H 718.92 -0.0461852 -4.07974 0
M  V30 7331 H 717.595 -1.19454 -3.98376 0
M  V30 7332 H 716.172 0.611319 -3.67855 0
M  V30 7333 N 718.357 1.51182 -0.445186 0
M  V30 7334 C 719.768 1.86693 0.0160999 0
M  V30 7335 C 720.119 1.36183 1.4124 0
M  V30 7336 O 719.244 0.715895 2.04215 0
M  V30 7337 C 719.839 3.38781 0.0359918 0
M  V30 7338 C 718.398 3.73799 0.441715 0
M  V30 7339 C 717.545 2.74947 -0.360511 0
M  V30 7340 H 720.496 1.44294 -0.660674 0
M  V30 7341 H 720.517 3.71026 0.843813 0
M  V30 7342 H 720.029 3.75513 -0.980378 0
M  V30 7343 H 718.13 3.42659 1.4634 0
M  V30 7344 H 718.243 4.78829 0.16106 0
M  V30 7345 H 716.607 2.54047 0.182269 0
M  V30 7346 H 717.39 3.14521 -1.3759 0
M  V30 7347 N 719.835 0.176821 1.56605 0
M  V30 7348 C 721.084 -0.466833 1.96223 0
M  V30 7349 C 721.397 -1.64015 1.06576 0
M  V30 7350 O 722.603 -2.3504 1.35898 0
M  V30 7351 C 721.059 -0.881921 3.48927 0
M  V30 7352 C 720.667 0.266102 4.47209 0
M  V30 7353 C 722.411 -1.49368 3.97353 0
M  V30 7354 C 720.318 -0.168923 5.91159 0
M  V30 7355 H 719.248 -0.178178 0.732645 0
M  V30 7356 H 721.899 0.265929 1.81563 0
M  V30 7357 H 720.281 -1.67082 3.59026 0
M  V30 7358 H 721.455 1.04349 4.4883 0
M  V30 7359 H 719.77 0.788178 4.08872 0
M  V30 7360 H 722.367 -1.8313 5.02362 0
M  V30 7361 H 722.71 -2.3936 3.40606 0
M  V30 7362 H 723.243 -0.769114 3.90294 0
M  V30 7363 H 719.982 0.696351 6.51791 0
M  V30 7364 H 719.502 -0.911552 5.92833 0
M  V30 7365 H 721.181 -0.610938 6.44109 0
M  V30 7366 N 721.313 -1.57302 -0.09688 0
M  V30 7367 C 722.276 -2.00976 -1.10188 0
M  V30 7368 C 723.276 -0.903009 -1.3305 0
M  V30 7369 O 724.466 -1.16853 -1.29194 0
M  V30 7370 C 721.598 -2.36893 -2.45142 0
M  V30 7371 H 722.791 -2.9098 -0.726003 0
M  V30 7372 H 720.344 -1.52515 -0.341872 0
M  V30 7373 H 721.079 -1.49837 -2.8761 0
M  V30 7374 H 720.864 -3.17632 -2.29897 0
M  V30 7375 H 722.354 -2.71345 -3.1743 0
M  V30 7376 N 722.791 0.367657 -1.53252 0
M  V30 7377 C 723.754 1.43308 -1.78873 0
M  V30 7378 C 724.754 1.46671 -0.659115 0
M  V30 7379 O 725.944 1.47468 -0.927306 0
M  V30 7380 C 723.076 2.82442 -1.90892 0
M  V30 7381 H 724.269 1.21864 -2.74024 0
M  V30 7382 H 721.822 0.600668 -1.44297 0
M  V30 7383 H 722.557 3.09202 -0.978 0
M  V30 7384 H 722.342 2.81399 -2.73051 0
M  V30 7385 H 723.832 3.59601 -2.12314 0
M  V30 7386 N 724.269 1.44576 0.627338 0
M  V30 7387 C 725.232 1.51372 1.72102 0
M  V30 7388 C 726.232 0.395329 1.55865 0
M  V30 7389 O 727.422 0.658094 1.61291 0
M  V30 7390 C 724.554 1.39129 3.11217 0
M  V30 7391 H 725.747 2.48798 1.6745 0
M  V30 7392 H 723.3 1.31724 0.841336 0
M  V30 7393 H 724.035 0.428114 3.21462 0
M  V30 7394 H 723.82 2.20229 3.24409 0
M  V30 7395 H 725.31 1.46874 3.90919 0
M  V30 7396 N 725.747 -0.868086 1.31537 0
M  V30 7397 C 726.657 -2.00801 1.21311 0
M  V30 7398 C 727.673 -1.73518 0.129431 0
M  V30 7399 O 728.849 -1.98378 0.347588 0
M  V30 7400 C 725.914 -3.3419 0.922935 0
M  V30 7401 C 724.975 -3.74783 2.0937 0
M  V30 7402 C 724.208 -5.01807 1.81728 0
M  V30 7403 O 724.431 -5.65404 0.753313 0
M  V30 7404 O 723.365 -5.39213 2.67457 0
M  V30 7405 H 727.191 -2.12361 2.17109 0
M  V30 7406 H 724.776 -0.996684 1.11295 0
M  V30 7407 H 726.658 -4.14174 0.777033 0
M  V30 7408 H 725.333 -3.237 -0.00500301 0
M  V30 7409 H 724.24 -2.95432 2.29501 0
M  V30 7410 H 725.573 -3.89902 3.00396 0
M  V30 7411 N 727.225 -1.14528 -1.08264 0
M  V30 7412 C 728.188 -0.83632 -2.13397 0
M  V30 7413 C 729.188 0.159715 -1.60005 0
M  V30 7414 O 730.378 -0.0688098 -1.74064 0
M  V30 7415 C 727.51 -0.246973 -3.40004 0
M  V30 7416 H 728.703 -1.76808 -2.42237 0
M  V30 7417 H 726.256 -0.951509 -1.24 0
M  V30 7418 H 726.991 0.693436 -3.168 0
M  V30 7419 H 726.776 -0.964412 -3.80055 0
M  V30 7420 H 728.266 -0.0480679 -4.17572 0
M  V30 7421 N 728.703 1.26451 -0.940633 0
M  V30 7422 C 729.949 1.94401 -0.598303 0
M  V30 7423 C 730.304 1.72449 0.853178 0
M  V30 7424 O 729.597 1.0506 1.60228 0
M  V30 7425 C 729.791 3.46503 -0.875794 0
M  V30 7426 C 729.62 3.83247 -2.3527 0
M  V30 7427 C 728.39 4.06032 -3.00776 0
M  V30 7428 C 730.588 3.91841 -3.33114 0
M  V30 7429 N 728.57 4.29656 -4.38485 0
M  V30 7430 C 729.941 4.19991 -4.56078 0
M  V30 7431 C 731.996 3.74466 -3.28146 0
M  V30 7432 C 730.699 4.32574 -5.74693 0
M  V30 7433 C 732.725 3.88281 -4.46085 0
M  V30 7434 C 732.087 4.16829 -5.67831 0
M  V30 7435 H 728.186 0.734168 -0.269297 0
M  V30 7436 H 730.77 1.52541 -1.20992 0
M  V30 7437 H 728.941 3.87292 -0.293223 0
M  V30 7438 H 730.673 4.01664 -0.494788 0
M  V30 7439 H 727.428 4.01369 -2.51396 0
M  V30 7440 H 727.852 4.45501 -5.09762 0
M  V30 7441 H 732.494 3.51424 -2.35077 0
M  V30 7442 H 730.212 4.54438 -6.68215 0
M  V30 7443 H 733.798 3.76241 -4.43773 0
M  V30 7444 H 732.678 4.27284 -6.5757 0
M  V30 7445 N 730.181 0.707592 1.40822 0
M  V30 7446 C 731.128 0.0499029 2.30746 0
M  V30 7447 C 732.098 -0.758718 1.47759 0
M  V30 7448 O 733.283 -0.724299 1.76518 0
M  V30 7449 C 730.423 -0.871756 3.33908 0
M  V30 7450 C 729.536 -0.0534655 4.31967 0
M  V30 7451 C 728.671 -0.973869 5.22197 0
M  V30 7452 C 727.71 -0.149194 6.11918 0
M  V30 7453 N 726.847 -1.02404 6.94592 0
M  V30 7454 H 731.687 0.822461 2.86426 0
M  V30 7455 H 729.224 0.417285 1.41057 0
M  V30 7456 H 731.182 -1.42028 3.9228 0
M  V30 7457 H 729.812 -1.61058 2.7975 0
M  V30 7458 H 728.864 0.612142 3.75442 0
M  V30 7459 H 730.176 0.585354 4.95353 0
M  V30 7460 H 729.33 -1.59121 5.85462 0
M  V30 7461 H 728.069 -1.64652 4.59065 0
M  V30 7462 H 727.074 0.481137 5.47691 0
M  V30 7463 H 728.299 0.519841 6.77107 0
M  V30 7464 H 726.245 -1.6825 6.34057 0
M  V30 7465 H 726.162 -0.441076 7.54712 0
M  V30 7466 H 727.43 -1.62782 7.62314 0
M  V30 7467 N 731.66 -1.50943 0.453197 0
M  V30 7468 C 732.888 -2.06628 -0.106135 0
M  V30 7469 C 733.303 -1.31901 -1.35084 0
M  V30 7470 O 732.66 -0.383074 -1.78434 0
M  V30 7471 C 732.711 -3.5914 -0.412368 0
M  V30 7472 O 732.432 -4.31047 0.782948 0
M  V30 7473 C 733.933 -4.31391 -1.02064 0
M  V30 7474 H 731.153 -0.670999 -0.000885896 0
M  V30 7475 H 733.697 -1.94331 0.63684 0
M  V30 7476 H 731.852 -3.71299 -1.10526 0
M  V30 7477 H 732.266 -5.21948 0.516736 0
M  V30 7478 H 733.74 -5.39135 -1.1848 0
M  V30 7479 H 734.217 -3.90714 -2.00598 0
M  V30 7480 H 734.823 -4.23716 -0.366664 0
M  V30 7481 N 733.138 -0.185124 -1.56509 0
M  V30 7482 C 734.554 0.170865 -1.58683 0
M  V30 7483 C 734.754 1.61799 -1.20098 0
M  V30 7484 O 733.81 2.35181 -0.919038 0
M  V30 7485 C 735.123 -0.122459 -3.00451 0
M  V30 7486 C 736.671 -0.0617699 -3.12939 0
M  V30 7487 C 737.146 -0.328269 -4.56822 0
M  V30 7488 N 738.637 -0.276533 -4.62374 0
M  V30 7489 C 739.372 -0.456722 -5.71578 0
M  V30 7490 N 738.868 -0.69672 -6.89288 0
M  V30 7491 N 740.661 -0.391669 -5.60734 0
M  V30 7492 H 732.812 -1.12956 -1.79874 0
M  V30 7493 H 735.075 -0.45011 -0.834329 0
M  V30 7494 H 734.781 -1.12546 -3.33206 0
M  V30 7495 H 734.655 0.579578 -3.72721 0
M  V30 7496 H 737.042 0.931826 -2.80002 0
M  V30 7497 H 737.123 -0.796732 -2.43076 0
M  V30 7498 H 736.767 -1.31914 -4.9047 0
M  V30 7499 H 736.697 0.427465 -5.24862 0
M  V30 7500 H 739.188 -0.0972458 -3.77775 0
M  V30 7501 H 739.501 -0.823291 -7.68402 0
M  V30 7502 H 737.846 -0.733497 -6.91119 0
M  V30 7503 H 741.037 -0.204663 -4.67652 0
M  V30 7504 H 741.21 -0.535518 -6.45783 0
M  V30 7505 N 734.616 1.57351 0.0885366 0
M  V30 7506 C 735.844 1.90631 0.804196 0
M  V30 7507 C 736.259 0.779474 1.71958 0
M  V30 7508 O 735.616 -0.248179 1.80805 0
M  V30 7509 C 735.667 3.23568 1.61202 0
M  V30 7510 O 735.388 4.31917 0.733447 0
M  V30 7511 C 736.889 3.70753 2.43016 0
M  V30 7512 H 734.109 0.630501 0.229585 0
M  V30 7513 H 736.653 2.044 0.0638092 0
M  V30 7514 H 734.808 3.11377 2.30485 0
M  V30 7515 H 735.222 5.08297 1.29361 0
M  V30 7516 H 736.696 4.66447 2.9518 0
M  V30 7517 H 737.173 2.98922 3.2178 0
M  V30 7518 H 737.779 3.85834 1.7892 0
M  V30 7519 N 736.094 -0.359525 1.53444 0
M  V30 7520 C 737.057 -1.42357 1.7963 0
M  V30 7521 C 738.057 -1.46319 0.666884 0
M  V30 7522 O 739.247 -1.46974 0.935113 0
M  V30 7523 C 736.379 -2.81425 1.92387 0
M  V30 7524 H 737.572 -1.20409 2.74666 0
M  V30 7525 H 735.125 -0.593007 1.44614 0
M  V30 7526 H 735.86 -3.08679 0.994384 0
M  V30 7527 H 735.645 -2.79947 2.74539 0
M  V30 7528 H 737.135 -3.5847 2.14218 0
M  V30 7529 N 737.572 -1.44907 -0.619662 0
M  V30 7530 C 738.818 -1.48512 -1.38102 0
M  V30 7531 C 739.151 -0.121686 -1.93818 0
M  V30 7532 O 738.426 0.862256 -1.74343 0
M  V30 7533 C 738.709 -2.55469 -2.53787 0
M  V30 7534 C 738.562 -4.01212 -2.03345 0
M  V30 7535 C 739.881 -2.58821 -3.55949 0
M  V30 7536 H 737 -0.540712 -0.500799 0
M  V30 7537 H 739.642 -1.7665 -0.69962 0
M  V30 7538 H 737.792 -2.31606 -3.11915 0
M  V30 7539 H 739.464 -4.36245 -1.49959 0
M  V30 7540 H 737.707 -4.12443 -1.34438 0
M  V30 7541 H 738.378 -4.71717 -2.86683 0
M  V30 7542 H 740.854 -2.80172 -3.07641 0
M  V30 7543 H 739.73 -3.35542 -4.34399 0
M  V30 7544 H 739.991 -1.63451 -4.10775 0
M  V30 7545 N 739.05 0.861098 -1.31996 0
M  V30 7546 C 740.013 1.95068 -1.20338 0
M  V30 7547 C 741.013 1.60289 -0.128114 0
M  V30 7548 O 742.203 1.70048 -0.378044 0
M  V30 7549 C 739.335 3.30153 -0.849205 0
M  V30 7550 H 740.528 2.06833 -2.17164 0
M  V30 7551 H 738.081 1.05049 -1.15734 0
M  V30 7552 H 738.816 3.24087 0.117508 0
M  V30 7553 H 738.601 3.56771 -1.62655 0
M  V30 7554 H 740.091 4.10025 -0.791782 0
M  V30 7555 N 740.528 1.15101 1.07655 0
M  V30 7556 C 741.461 0.788522 2.14144 0
M  V30 7557 C 742.439 -0.233635 1.60913 0
M  V30 7558 O 743.623 -0.120908 1.88112 0
M  V30 7559 C 740.75 0.172033 3.38263 0
M  V30 7560 C 739.796 1.16559 4.10264 0
M  V30 7561 S 740.629 2.70627 4.62084 0
M  V30 7562 C 741.785 2.10389 5.8948 0
M  V30 7563 H 742.018 1.69047 2.44561 0
M  V30 7564 H 739.551 0.973033 1.19881 0
M  V30 7565 H 741.509 -0.177223 4.10117 0
M  V30 7566 H 740.17 -0.707468 3.06029 0
M  V30 7567 H 739.363 0.6824 4.99359 0
M  V30 7568 H 738.965 1.45923 3.44358 0
M  V30 7569 H 741.257 1.46405 6.61492 0
M  V30 7570 H 742.2 2.97639 6.42508 0
M  V30 7571 H 742.608 1.54816 5.42856 0
M  V30 7572 N 742.006 -1.2595 0.947325 0
M  V30 7573 C 743.236 -1.97258 0.614235 0
M  V30 7574 C 743.644 -1.70682 -0.816355 0
M  V30 7575 O 742.987 -0.97527 -1.55673 0
M  V30 7576 C 743.049 -3.50845 0.784081 0
M  V30 7577 C 742.713 -4.01084 2.19045 0
M  V30 7578 C 743.71 -4.12347 3.16648 0
M  V30 7579 C 741.395 -4.34936 2.51268 0
M  V30 7580 C 743.389 -4.56766 4.44572 0
M  V30 7581 C 741.076 -4.79043 3.79422 0
M  V30 7582 C 742.074 -4.89919 4.75887 0
M  V30 7583 O 741.762 -5.3305 6.01758 0
M  V30 7584 H 741.494 -0.635738 0.22981 0
M  V30 7585 H 744.048 -1.61268 1.27207 0
M  V30 7586 H 742.278 -3.86638 0.069101 0
M  V30 7587 H 743.967 -4.03363 0.453135 0
M  V30 7588 H 744.733 -3.86432 2.93079 0
M  V30 7589 H 740.612 -4.25702 1.76916 0
M  V30 7590 H 744.156 -4.6517 5.19868 0
M  V30 7591 H 740.053 -5.04402 4.02802 0
M  V30 7592 H 740.821 -5.51255 6.05029 0
M  V30 7593 N 743.484 -0.715051 -1.40445 0
M  V30 7594 C 744.761 -0.181503 -1.94756 0
M  V30 7595 C 745.141 1.31268 -1.65324 0
M  V30 7596 O 744.489 2.0686 -0.970631 0
M  V30 7597 C 744.699 -0.493663 -3.45491 0
M  V30 7598 C 746.047 -0.432032 -4.22396 0
M  V30 7599 O 747.071 -0.429692 -3.53599 0
M  V30 7600 O 745.93 -0.409091 -5.44967 0
M  V30 7601 H 743.024 -0.0263989 -0.826579 0
M  V30 7602 H 745.57 -0.792546 -1.50056 0
M  V30 7603 H 744.342 -1.52713 -3.6027 0
M  V30 7604 H 743.965 0.14737 -3.97327 0
M  V30 7605 N 744.962 1.50701 -0.461195 0
M  V30 7606 C 745.895 2.24948 0.383863 0
M  V30 7607 C 746.873 1.27851 1.00464 0
M  V30 7608 O 748.057 1.57049 1.04249 0
M  V30 7609 C 745.184 3.01818 1.537 0
M  V30 7610 C 744.23 4.13762 1.03457 0
M  V30 7611 S 745.063 5.35483 -0.0427485 0
M  V30 7612 C 746.219 6.15898 1.11449 0
M  V30 7613 H 746.452 2.96277 -0.246425 0
M  V30 7614 H 743.985 1.52428 -0.245961 0
M  V30 7615 H 745.943 3.467 2.19794 0
M  V30 7616 H 744.604 2.30034 2.13877 0
M  V30 7617 H 743.797 4.66914 1.89757 0
M  V30 7618 H 743.399 3.71265 0.4515 0
M  V30 7619 H 745.691 6.46431 2.02813 0
M  V30 7620 H 746.634 7.05359 0.622444 0
M  V30 7621 H 747.042 5.47777 1.36385 0
M  V30 7622 N 746.441 0.193421 1.56409 0
M  V30 7623 C 747.669 -0.451438 2.01915 0
M  V30 7624 C 748.084 -1.55306 1.07357 0
M  V30 7625 O 747.441 -1.82333 0.0781512 0
M  V30 7626 C 747.492 -1.00931 3.47124 0
M  V30 7627 O 747.213 0.0483623 4.38073 0
M  V30 7628 C 748.714 -1.73021 4.0814 0
M  V30 7629 H 745.934 -0.113495 0.661332 0
M  V30 7630 H 748.478 0.301636 2.02263 0
M  V30 7631 H 746.633 -1.71277 3.47481 0
M  V30 7632 H 747.047 -0.366644 5.23217 0
M  V30 7633 H 748.521 -2.07289 5.11601 0
M  V30 7634 H 748.998 -2.6333 3.51502 0
M  V30 7635 H 749.604 -1.07264 4.11551 0
M  V30 7636 N 747.919 -1.57396 -0.0801906 0
M  V30 7637 C 749.33 -1.75642 -0.633002 0
M  V30 7638 C 749.681 -0.817708 -1.78348 0
M  V30 7639 O 748.806 0.000233743 -2.164 0
M  V30 7640 C 749.401 -3.18502 -1.15507 0
M  V30 7641 C 747.96 -3.38121 -1.65381 0
M  V30 7642 C 747.107 -2.71386 -0.569661 0
M  V30 7643 H 750.058 -1.58027 0.145949 0
M  V30 7644 H 750.079 -3.22198 -2.02408 0
M  V30 7645 H 749.591 -3.86799 -0.317515 0
M  V30 7646 H 747.692 -2.74926 -2.51488 0
M  V30 7647 H 747.805 -4.46521 -1.73654 0
M  V30 7648 H 746.169 -2.33702 -1.0127 0
M  V30 7649 H 746.952 -3.42332 0.257561 0
M  V30 7650 N 749.397 0.351382 -1.53633 0
M  V30 7651 C 750.327 1.43688 -1.84055 0
M  V30 7652 C 751.308 1.55251 -0.695073 0
M  V30 7653 O 752.493 1.69587 -0.946257 0
M  V30 7654 C 749.623 2.80843 -2.04315 0
M  V30 7655 C 748.577 2.84094 -3.20117 0
M  V30 7656 C 747.903 4.2406 -3.25696 0
M  V30 7657 C 749.203 2.50334 -4.58399 0
M  V30 7658 H 750.897 1.18478 -2.74961 0
M  V30 7659 H 748.443 0.568509 -1.32303 0
M  V30 7660 H 750.396 3.56821 -2.2418 0
M  V30 7661 H 749.12 3.07471 -1.10132 0
M  V30 7662 H 747.779 2.10568 -3.00094 0
M  V30 7663 H 747.427 4.47785 -2.29123 0
M  V30 7664 H 747.127 4.27147 -4.03509 0
M  V30 7665 H 748.651 5.0189 -3.47762 0
M  V30 7666 H 750.065 3.16025 -4.78332 0
M  V30 7667 H 748.462 2.64717 -5.38558 0
M  V30 7668 H 749.532 1.45542 -4.62543 0
M  V30 7669 N 750.875 1.45233 0.611969 0
M  V30 7670 C 751.822 1.5357 1.72293 0
M  V30 7671 C 752.792 0.381912 1.6165 0
M  V30 7672 O 753.977 0.594765 1.81293 0
M  V30 7673 C 751.117 1.50419 3.10593 0
M  V30 7674 C 750.23 2.76316 3.32074 0
M  V30 7675 C 749.365 2.64866 4.60456 0
M  V30 7676 C 748.404 3.85838 4.7518 0
M  V30 7677 N 747.541 3.72949 5.94856 0
M  V30 7678 H 752.381 2.4848 1.64504 0
M  V30 7679 H 749.918 1.23302 0.802191 0
M  V30 7680 H 751.876 1.4658 3.90602 0
M  V30 7681 H 750.506 0.590621 3.17351 0
M  V30 7682 H 749.558 2.90261 2.45872 0
M  V30 7683 H 750.87 3.66055 3.38829 0
M  V30 7684 H 750.024 2.58969 5.48653 0
M  V30 7685 H 748.763 1.72719 4.56092 0
M  V30 7686 H 747.768 3.92099 3.85407 0
M  V30 7687 H 748.993 4.79045 4.81344 0
M  V30 7688 H 746.939 2.83567 5.91545 0
M  V30 7689 H 746.856 4.56319 6.02751 0
M  V30 7690 H 748.124 3.70976 6.85563 0
M  V30 7691 N 752.353 -0.854086 1.3245 0
M  V30 7692 C 753.769 -1.14238 1.11453 0
M  V30 7693 C 753.969 -2.01228 -0.10461 0
M  V30 7694 O 753.025 -2.39845 -0.789339 0
M  V30 7695 C 754.338 -1.81916 2.39431 0
M  V30 7696 C 755.886 -1.94549 2.45193 0
M  V30 7697 C 756.361 -2.65642 3.73093 0
M  V30 7698 N 757.852 -2.73167 3.74078 0
M  V30 7699 C 758.587 -3.28828 4.69744 0
M  V30 7700 N 758.083 -3.85295 5.75778 0
M  V30 7701 N 759.876 -3.26936 4.57241 0
M  V30 7702 H 752.027 -0.274786 2.10615 0
M  V30 7703 H 754.29 -0.184375 0.929898 0
M  V30 7704 H 753.996 -1.25452 3.28565 0
M  V30 7705 H 753.87 -2.82068 2.50434 0
M  V30 7706 H 756.257 -2.50172 1.56518 0
M  V30 7707 H 756.338 -0.933914 2.38142 0
M  V30 7708 H 755.982 -2.10683 4.62142 0
M  V30 7709 H 755.912 -3.6724 3.77415 0
M  V30 7710 H 758.403 -2.33108 2.97438 0
M  V30 7711 H 758.716 -4.25925 6.44832 0
M  V30 7712 H 757.061 -3.83625 5.79531 0
M  V30 7713 H 760.252 -2.8207 3.7357 0
M  V30 7714 H 760.425 -3.70014 5.31971 0
M  V30 7715 N 753.831 -1.1567 -1.07043 0
M  V30 7716 C 754.761 -0.879348 -2.16309 0
M  V30 7717 C 755.742 0.171311 -1.69235 0
M  V30 7718 O 756.927 0.0250175 -1.94184 0
M  V30 7719 C 754.057 -0.371307 -3.45309 0
M  V30 7720 C 753.011 -1.359 -4.05851 0
M  V30 7721 C 752.337 -0.709678 -5.29969 0
M  V30 7722 C 753.637 -2.72606 -4.45514 0
M  V30 7723 H 755.331 -1.79308 -2.39768 0
M  V30 7724 H 752.877 -0.863558 -1.15233 0
M  V30 7725 H 754.83 -0.164798 -4.21078 0
M  V30 7726 H 753.554 0.577906 -3.21446 0
M  V30 7727 H 752.213 -1.55193 -3.32131 0
M  V30 7728 H 751.861 0.245782 -5.02399 0
M  V30 7729 H 751.561 -1.36886 -5.71433 0
M  V30 7730 H 753.085 -0.513015 -6.08441 0
M  V30 7731 H 754.499 -2.57141 -5.12398 0
M  V30 7732 H 752.896 -3.34927 -4.97939 0
M  V30 7733 H 753.966 -3.28434 -3.56734 0
M  V30 7734 N 755.309 1.25446 -0.953992 0
M  V30 7735 C 756.219 2.29632 -0.480264 0
M  V30 7736 C 757.235 1.68025 0.452071 0
M  V30 7737 O 758.411 1.98703 0.328472 0
M  V30 7738 C 755.476 3.45903 0.234974 0
M  V30 7739 C 754.537 4.22953 -0.735495 0
M  V30 7740 C 753.77 5.33672 -0.0542957 0
M  V30 7741 O 753.993 5.58477 1.16018 0
M  V30 7742 O 752.927 5.9734 -0.739509 0
M  V30 7743 H 756.753 2.72242 -1.34602 0
M  V30 7744 H 754.338 1.30883 -0.720419 0
M  V30 7745 H 756.22 4.16552 0.637341 0
M  V30 7746 H 754.895 3.05296 1.07592 0
M  V30 7747 H 753.802 3.54734 -1.18806 0
M  V30 7748 H 755.135 4.67341 -1.54444 0
M  V30 7749 N 756.787 0.722489 1.40064 0
M  V30 7750 C 758.033 0.265371 2.01056 0
M  V30 7751 C 758.366 -1.14062 1.57174 0
M  V30 7752 O 757.641 -1.77514 0.794916 0
M  V30 7753 C 757.924 0.353157 3.58364 0
M  V30 7754 C 757.777 1.79802 4.123 0
M  V30 7755 C 759.096 -0.271677 4.39261 0
M  V30 7756 H 756.215 0.0979002 0.730469 0
M  V30 7757 H 758.857 0.916289 1.66446 0
M  V30 7758 H 757.007 -0.201037 3.87979 0
M  V30 7759 H 758.679 2.40813 3.93455 0
M  V30 7760 H 756.922 2.32348 3.66329 0
M  V30 7761 H 757.593 1.81079 5.21454 0
M  V30 7762 H 760.069 0.200607 4.15616 0
M  V30 7763 H 758.945 -0.179843 5.48605 0
M  V30 7764 H 759.206 -1.35611 4.20787 0
M  V30 7765 N 758.265 -1.50454 0.469181 0
M  V30 7766 C 759.49 -2.0722 -0.0864892 0
M  V30 7767 C 759.915 -1.33098 -1.32916 0
M  V30 7768 O 759.273 -0.378084 -1.77314 0
M  V30 7769 C 759.321 -3.58845 -0.355384 0
M  V30 7770 O 758.425 -3.86583 -1.43622 0
M  V30 7771 H 757.766 -0.663889 0.0121414 0
M  V30 7772 H 760.296 -1.93674 0.659674 0
M  V30 7773 H 760.306 -4.03617 -0.596447 0
M  V30 7774 H 758.981 -4.12211 0.552698 0
M  V30 7775 H 757.558 -3.5365 -1.18262 0
M  V30 7776 N 759.743 -0.201713 -1.56304 0
M  V30 7777 C 760.991 0.434447 -1.97375 0
M  V30 7778 C 761.312 1.61692 -1.08998 0
M  V30 7779 O 760.582 1.95223 -0.162682 0
M  V30 7780 H 759.162 0.163497 -0.728888 0
M  V30 7781 H 761.824 -0.289988 -1.92731 0
M  V30 7782 H 760.92 0.774136 -3.02347 0
M  V30 7783 N 761.222 1.57436 0.0718424 0
M  V30 7784 C 762.633 1.75975 0.623678 0
M  V30 7785 C 762.984 0.827155 1.77912 0
M  V30 7786 O 762.109 0.0112425 2.16397 0
M  V30 7787 C 762.704 3.1911 1.13816 0
M  V30 7788 C 761.263 3.38994 1.63586 0
M  V30 7789 C 760.41 2.71684 0.555261 0
M  V30 7790 H 763.361 1.57948 -0.154328 0
M  V30 7791 H 763.382 3.23267 2.00696 0
M  V30 7792 H 762.894 3.86962 0.296998 0
M  V30 7793 H 760.995 2.76256 2.50027 0
M  V30 7794 H 761.108 4.47436 1.71283 0
M  V30 7795 H 759.472 2.34236 1.00029 0
M  V30 7796 H 760.255 3.42191 -0.275712 0
M  V30 7797 N 762.7 -0.34323 1.53817 0
M  V30 7798 C 763.948 -1.0813 1.70741 0
M  V30 7799 C 764.269 -1.89165 0.473461 0
M  V30 7800 O 763.539 -1.89075 -0.512605 0
M  V30 7801 H 762.119 -0.40219 0.629486 0
M  V30 7802 H 764.781 -0.384426 1.91071 0
M  V30 7803 H 763.877 -1.7585 2.57843 0
M  V30 7804 N 764.178 -1.45556 -0.604258 0
M  V30 7805 C 765.141 -1.54091 -1.69672 0
M  V30 7806 C 766.141 -0.420076 -1.55216 0
M  V30 7807 O 767.331 -0.683671 -1.60224 0
M  V30 7808 C 764.463 -1.44063 -3.08964 0
M  V30 7809 H 765.656 -2.51431 -1.6347 0
M  V30 7810 H 763.209 -1.33046 -0.820273 0
M  V30 7811 H 763.944 -0.479201 -3.2074 0
M  V30 7812 H 763.729 -2.25362 -3.20865 0
M  V30 7813 H 765.219 -1.53075 -3.88533 0
M  V30 7814 N 765.656 0.84705 -1.32902 0
M  V30 7815 C 766.586 1.97166 -1.25091 0
M  V30 7816 C 767.567 1.69578 -0.133161 0
M  V30 7817 O 768.752 1.91519 -0.321591 0
M  V30 7818 C 765.882 3.33157 -0.981006 0
M  V30 7819 C 764.836 3.75119 -2.06082 0
M  V30 7820 C 764.162 5.08826 -1.64318 0
M  V30 7821 C 765.462 3.89774 -3.47669 0
M  V30 7822 H 767.156 2.03958 -2.19184 0
M  V30 7823 H 764.702 0.979907 -1.05517 0
M  V30 7824 H 766.655 4.11393 -0.912891 0
M  V30 7825 H 765.379 3.266 -0.00445559 0
M  V30 7826 H 764.038 2.9914 -2.11921 0
M  V30 7827 H 763.686 4.98732 -0.653876 0
M  V30 7828 H 763.386 5.37873 -2.36572 0
M  V30 7829 H 764.91 5.89546 -1.58958 0
M  V30 7830 H 766.324 4.58343 -3.44376 0
M  V30 7831 H 764.721 4.30248 -4.18338 0
M  V30 7832 H 765.791 2.92463 -3.86773 0
M  V30 7833 N 767.134 1.16236 1.06428 0
M  V30 7834 C 768.081 0.86769 2.13869 0
M  V30 7835 C 769.051 -0.183298 1.65086 0
M  V30 7836 O 770.236 -0.0488002 1.90738 0
M  V30 7837 C 767.376 0.373427 3.43074 0
M  V30 7838 C 766.489 1.48708 4.05598 0
M  V30 7839 C 765.624 0.947977 5.22673 0
M  V30 7840 C 764.663 2.03793 5.77178 0
M  V30 7841 N 763.8 1.51451 6.85571 0
M  V30 7842 H 768.64 1.78781 2.38414 0
M  V30 7843 H 766.177 0.891892 1.16977 0
M  V30 7844 H 768.135 0.0685035 4.17144 0
M  V30 7845 H 766.765 -0.509752 3.1875 0
M  V30 7846 H 765.817 1.908 3.29089 0
M  V30 7847 H 767.129 2.30964 4.42105 0
M  V30 7848 H 766.283 0.596154 6.03764 0
M  V30 7849 H 765.022 0.0947081 4.87608 0
M  V30 7850 H 764.027 2.39847 4.94726 0
M  V30 7851 H 765.252 2.89514 6.14295 0
M  V30 7852 H 763.198 0.683755 6.52427 0
M  V30 7853 H 763.115 2.27325 7.21013 0
M  V30 7854 H 764.383 1.19123 7.70344 0
M  V30 7855 N 768.612 -1.24939 0.960631 0
M  V30 7856 C 769.542 -2.28 0.503815 0
M  V30 7857 C 770.523 -1.63959 -0.452928 0
M  V30 7858 O 771.708 -1.91009 -0.350585 0
M  V30 7859 C 768.838 -3.46643 -0.213535 0
M  V30 7860 C 767.792 -4.22903 0.658535 0
M  V30 7861 C 767.118 -5.34363 -0.189902 0
M  V30 7862 C 768.418 -4.84949 1.93963 0
M  V30 7863 H 770.112 -2.66462 1.36521 0
M  V30 7864 H 767.658 -1.28093 0.657897 0
M  V30 7865 H 769.611 -4.1787 -0.544286 0
M  V30 7866 H 768.335 -3.07187 -1.10923 0
M  V30 7867 H 766.994 -3.53467 0.972455 0
M  V30 7868 H 766.642 -4.91147 -1.08553 0
M  V30 7869 H 766.342 -5.86302 0.390331 0
M  V30 7870 H 767.866 -6.0842 -0.515484 0
M  V30 7871 H 769.28 -5.48288 1.67491 0
M  V30 7872 H 767.677 -5.47091 2.46601 0
M  V30 7873 H 768.747 -4.06799 2.639 0
M  V30 7874 N 770.09 -0.729906 -1.39679 0
M  V30 7875 C 771.02 -0.101618 -2.33279 0
M  V30 7876 C 772.001 0.729854 -1.53646 0
M  V30 7877 O 773.186 0.67587 -1.82059 0
M  V30 7878 C 770.316 0.81024 -3.37716 0
M  V30 7879 C 769.27 0.0833126 -4.27919 0
M  V30 7880 C 768.596 1.11185 -5.23012 0
M  V30 7881 C 769.896 -1.07107 -5.112 0
M  V30 7882 H 771.59 -0.883452 -2.86069 0
M  V30 7883 H 769.136 -0.426283 -1.37546 0
M  V30 7884 H 771.089 1.25927 -4.02145 0
M  V30 7885 H 769.813 1.62413 -2.83354 0
M  V30 7886 H 768.472 -0.346043 -3.64963 0
M  V30 7887 H 768.12 1.91917 -4.64948 0
M  V30 7888 H 767.82 0.63026 -5.8421 0
M  V30 7889 H 769.344 1.56068 -5.90318 0
M  V30 7890 H 770.758 -0.700726 -5.69002 0
M  V30 7891 H 769.155 -1.48196 -5.81514 0
M  V30 7892 H 770.225 -1.89513 -4.46332 0
M  V30 7893 N 771.568 1.50203 -0.477153 0
M  V30 7894 C 772.5 2.26508 0.350239 0
M  V30 7895 C 773.513 1.32081 0.95176 0
M  V30 7896 O 774.702 1.57546 0.839139 0
M  V30 7897 C 771.802 3.0361 1.50579 0
M  V30 7898 C 770.975 4.25438 1.01595 0
M  V30 7899 C 770.034 4.84783 2.04626 0
M  V30 7900 O 769.06 5.45528 1.62442 0
M  V30 7901 N 770.262 4.72318 3.37485 0
M  V30 7902 H 773.027 2.98155 -0.30394 0
M  V30 7903 H 770.588 1.58938 -0.308289 0
M  V30 7904 H 772.58 3.4019 2.1921 0
M  V30 7905 H 771.15 2.34724 2.06455 0
M  V30 7906 H 770.37 3.93894 0.155316 0
M  V30 7907 H 771.658 5.04413 0.666694 0
M  V30 7908 H 771.056 4.24022 3.74462 0
M  V30 7909 H 769.613 5.13149 4.01897 0
M  V30 7910 N 773.046 0.209999 1.56195 0
M  V30 7911 C 773.956 -0.716459 2.23392 0
M  V30 7912 C 774.972 -1.22291 1.23778 0
M  V30 7913 O 776.148 -1.26694 1.56558 0
M  V30 7914 C 773.213 -1.91261 2.89172 0
M  V30 7915 C 772.274 -1.44927 4.04097 0
M  V30 7916 C 771.507 -2.5884 4.66731 0
M  V30 7917 O 771.73 -3.76693 4.2832 0
M  V30 7918 O 770.664 -2.30701 5.55932 0
M  V30 7919 H 774.49 -0.174089 3.03201 0
M  V30 7920 H 772.075 -0.0199505 1.49387 0
M  V30 7921 H 773.957 -2.6114 3.30733 0
M  V30 7922 H 772.632 -2.4433 2.12331 0
M  V30 7923 H 771.539 -0.718839 3.67129 0
M  V30 7924 H 772.872 -0.965084 4.82646 0
M  V30 7925 N 774.524 -1.57472 -0.0634922 0
M  V30 7926 C 775.454 -2.07297 -1.07473 0
M  V30 7927 C 776.435 -0.968162 -1.39859 0
M  V30 7928 O 777.62 -1.24139 -1.49343 0
M  V30 7929 C 774.75 -2.52381 -2.38581 0
M  V30 7930 C 773.704 -3.66813 -2.20526 0
M  V30 7931 C 773.03 -3.97982 -3.57092 0
M  V30 7932 C 774.33 -4.96553 -1.61965 0
M  V30 7933 H 776.024 -2.92033 -0.660092 0
M  V30 7934 H 773.57 -1.40488 -0.316074 0
M  V30 7935 H 775.523 -2.85852 -3.09624 0
M  V30 7936 H 774.247 -1.64684 -2.8204 0
M  V30 7937 H 772.906 -3.33639 -1.51924 0
M  V30 7938 H 772.554 -3.07403 -3.98136 0
M  V30 7939 H 772.254 -4.7504 -3.45848 0
M  V30 7940 H 773.778 -4.33956 -4.29552 0
M  V30 7941 H 775.192 -5.28201 -2.22883 0
M  V30 7942 H 773.589 -5.7799 -1.61394 0
M  V30 7943 H 774.659 -4.81396 -0.581918 0
M  V30 7944 N 776.003 0.335068 -1.53997 0
M  V30 7945 C 777.231 1.09418 -1.756 0
M  V30 7946 C 777.646 1.82083 -0.499138 0
M  V30 7947 O 777.003 1.74646 0.529631 0
M  V30 7948 C 777.054 2.10115 -2.94166 0
M  V30 7949 O 776.775 1.40404 -4.14992 0
M  V30 7950 C 778.276 2.98336 -3.27888 0
M  V30 7951 H 775.496 0.32595 -0.586513 0
M  V30 7952 H 778.04 0.384693 -2.00849 0
M  V30 7953 H 776.195 2.76616 -2.71224 0
M  V30 7954 H 776.609 2.07743 -4.81605 0
M  V30 7955 H 778.083 3.6491 -4.1418 0
M  V30 7956 H 778.56 3.64814 -2.44556 0
M  V30 7957 H 779.166 2.37412 -3.52868 0
M  V30 7958 N 777.481 1.45874 0.596531 0
M  V30 7959 C 778.709 1.54013 1.38158 0
M  V30 7960 C 779.124 0.17648 1.87973 0
M  V30 7961 O 778.481 -0.823895 1.62844 0
M  V30 7962 C 778.532 2.53363 2.57855 0
M  V30 7963 O 778.253 3.8443 2.10108 0
M  V30 7964 C 779.754 2.71308 3.50581 0
M  V30 7965 H 776.974 0.521251 0.422538 0
M  V30 7966 H 779.518 1.9116 0.726493 0
M  V30 7967 H 777.673 2.19257 3.19382 0
M  V30 7968 H 778.087 4.38384 2.87958 0
M  V30 7969 H 779.561 3.44776 4.31084 0
M  V30 7970 H 780.038 1.77728 4.01633 0
M  V30 7971 H 780.644 3.06455 2.94899 0
M  V30 7972 N 778.959 -0.83999 1.33349 0
M  V30 7973 C 779.922 -1.93128 1.23426 0
M  V30 7974 C 780.922 -1.60065 0.153599 0
M  V30 7975 O 782.112 -1.69425 0.405049 0
M  V30 7976 C 779.244 -3.28761 0.901622 0
M  V30 7977 H 780.437 -2.03352 2.20427 0
M  V30 7978 H 777.99 -1.03194 1.17391 0
M  V30 7979 H 778.725 -3.24233 -0.0659337 0
M  V30 7980 H 778.51 -3.54138 1.68311 0
M  V30 7981 H 780 -4.08714 0.856913 0
M  V30 7982 N 780.437 -1.16799 -1.0581 0
M  V30 7983 C 781.714 -0.862616 -1.75551 0
M  V30 7984 C 782.094 0.6385 -2.01212 0
M  V30 7985 O 781.442 1.58784 -1.64317 0
M  V30 7986 C 781.652 -1.6907 -3.05314 0
M  V30 7987 C 783 -1.90675 -3.79379 0
M  V30 7988 O 784.024 -1.65976 -3.15167 0
M  V30 7989 O 782.883 -2.32145 -4.94743 0
M  V30 7990 H 779.977 -0.318789 -0.763088 0
M  V30 7991 H 782.523 -1.27461 -1.12034 0
M  V30 7992 H 781.295 -2.70912 -2.82352 0
M  V30 7993 H 780.918 -1.27606 -3.76567 0
M  V30 7994 N 781.915 1.24427 -0.967243 0
M  V30 7995 C 782.845 2.2773 -0.515899 0
M  V30 7996 C 783.826 1.64197 0.444227 0
M  V30 7997 O 785.011 1.91193 0.340451 0
M  V30 7998 C 782.141 3.46751 0.195149 0
M  V30 7999 C 781.095 4.22548 -0.680953 0
M  V30 8000 C 780.421 5.34456 0.161561 0
M  V30 8001 C 781.721 4.83914 -1.96532 0
M  V30 8002 H 783.415 2.65735 -1.37933 0
M  V30 8003 H 780.961 1.27742 -0.664681 0
M  V30 8004 H 782.914 4.18153 0.522117 0
M  V30 8005 H 781.638 3.07771 1.09292 0
M  V30 8006 H 780.297 3.52946 -0.991186 0
M  V30 8007 H 779.945 4.91716 1.05947 0
M  V30 8008 H 779.645 5.86087 -0.421418 0
M  V30 8009 H 781.169 6.08685 0.483211 0
M  V30 8010 H 782.583 5.47392 -1.70396 0
M  V30 8011 H 780.98 5.45775 -2.49499 0
M  V30 8012 H 782.05 4.05393 -2.66053 0
M  V30 8013 N 783.393 0.737304 1.3929 0
M  V30 8014 C 784.356 0.10731 2.28949 0
M  V30 8015 C 785.356 -0.664716 1.46418 0
M  V30 8016 O 786.546 -0.493392 1.67067 0
M  V30 8017 C 783.678 -0.857145 3.29948 0
M  V30 8018 H 784.871 0.89725 2.86163 0
M  V30 8019 H 782.424 0.503279 1.47976 0
M  V30 8020 H 783.159 -1.67336 2.77794 0
M  V30 8021 H 782.944 -0.306167 3.90903 0
M  V30 8022 H 784.434 -1.29444 3.97031 0
M  V30 8023 N 784.871 -1.49948 0.485112 0
M  V30 8024 C 785.818 -2.28819 -0.301729 0
M  V30 8025 C 786.788 -1.34496 -0.974683 0
M  V30 8026 O 787.973 -1.63444 -0.984418 0
M  V30 8027 C 785.113 -3.16758 -1.36961 0
M  V30 8028 C 784.226 -4.26125 -0.710027 0
M  V30 8029 C 783.361 -5.01302 -1.75699 0
M  V30 8030 C 782.4 -6.02525 -1.07841 0
M  V30 8031 N 781.537 -6.70927 -2.06886 0
M  V30 8032 H 786.377 -2.95604 0.377127 0
M  V30 8033 H 783.914 -1.45764 0.197826 0
M  V30 8034 H 785.872 -3.66106 -2.00056 0
M  V30 8035 H 784.502 -2.51991 -2.01744 0
M  V30 8036 H 783.554 -3.80385 0.0338278 0
M  V30 8037 H 784.866 -4.98493 -0.175079 0
M  V30 8038 H 784.02 -5.54438 -2.46339 0
M  V30 8039 H 782.759 -4.28672 -2.32577 0
M  V30 8040 H 781.764 -5.48635 -0.357706 0
M  V30 8041 H 782.989 -6.77134 -0.516345 0
M  V30 8042 H 780.935 -6.01079 -2.62755 0
M  V30 8043 H 780.852 -7.39216 -1.58414 0
M  V30 8044 H 782.12 -7.28675 -2.76863 0
M  V30 8045 N 786.349 -0.21828 -1.56081 0
M  V30 8046 C 787.296 0.693189 -2.20144 0
M  V30 8047 C 788.266 1.19274 -1.15598 0
M  V30 8048 O 789.451 1.25243 -1.4394 0
M  V30 8049 C 786.591 1.89715 -2.88275 0
M  V30 8050 C 785.704 1.4368 -4.07407 0
M  V30 8051 C 784.839 2.59807 -4.63329 0
M  V30 8052 C 783.878 2.10492 -5.74769 0
M  V30 8053 N 783.015 3.1988 -6.24997 0
M  V30 8054 H 787.855 0.14016 -2.9767 0
M  V30 8055 H 785.392 0.0574292 -1.46988 0
M  V30 8056 H 787.35 2.60398 -3.25958 0
M  V30 8057 H 785.98 2.42311 -2.13273 0
M  V30 8058 H 785.032 0.625007 -3.7523 0
M  V30 8059 H 786.344 1.03517 -4.8794 0
M  V30 8060 H 785.498 3.38577 -5.03438 0
M  V30 8061 H 784.237 3.03256 -3.81951 0
M  V30 8062 H 783.242 1.30182 -5.34165 0
M  V30 8063 H 784.467 1.68045 -6.5798 0
M  V30 8064 H 782.413 3.62817 -5.46534 0
M  V30 8065 H 782.33 2.83958 -7.00645 0
M  V30 8066 H 783.598 3.98796 -6.69763 0
M  V30 8067 N 787.827 1.57504 0.0551401 0
M  V30 8068 C 789.238 1.76626 0.604979 0
M  V30 8069 C 789.589 0.845978 1.77024 0
M  V30 8070 O 788.714 0.0341936 2.16373 0
M  V30 8071 C 789.309 3.203 1.10425 0
M  V30 8072 C 787.868 3.4071 1.59981 0
M  V30 8073 C 787.015 2.72258 0.526414 0
M  V30 8074 H 789.966 1.57775 -0.171072 0
M  V30 8075 H 789.987 3.25377 1.97256 0
M  V30 8076 H 789.499 3.87255 0.255939 0
M  V30 8077 H 787.6 2.78892 2.47083 0
M  V30 8078 H 787.713 4.49227 1.66528 0
M  V30 8079 H 786.077 2.35283 0.97539 0
M  V30 8080 H 786.86 3.41879 -0.311991 0
M  V30 8081 N 789.305 -0.326896 1.54172 0
M  V30 8082 C 790.553 -1.06313 1.71878 0
M  V30 8083 C 790.874 -1.88652 0.493498 0
M  V30 8084 O 790.144 -1.89608 -0.492522 0
M  V30 8085 H 788.724 -0.39549 0.633716 0
M  V30 8086 H 791.386 -0.364139 1.91468 0
M  V30 8087 H 790.482 -1.73105 2.59694 0
M  V30 8088 N 790.784 -1.46188 -0.588786 0
M  V30 8089 C 791.747 -1.55882 -1.68029 0
M  V30 8090 C 792.747 -0.436515 -1.54762 0
M  V30 8091 O 793.937 -0.700626 -1.59489 0
M  V30 8092 C 791.069 -1.47332 -3.07418 0
M  V30 8093 H 792.262 -2.5315 -1.60795 0
M  V30 8094 H 789.815 -1.33908 -0.806116 0
M  V30 8095 H 790.55 -0.513193 -3.20214 0
M  V30 8096 H 790.335 -2.28753 -3.18456 0
M  V30 8097 H 791.825 -1.57187 -3.86887 0
M  V30 8098 N 792.262 0.832906 -1.33792 0
M  V30 8099 C 793.508 1.59089 -1.25772 0
M  V30 8100 C 793.841 1.93414 0.174601 0
M  V30 8101 O 793.116 1.59195 1.11746 0
M  V30 8102 C 793.399 2.89699 -2.13885 0
M  V30 8103 C 793.252 2.62017 -3.65605 0
M  V30 8104 C 794.571 3.91182 -2.01654 0
M  V30 8105 H 791.69 0.577232 -0.458227 0
M  V30 8106 H 794.332 0.960227 -1.6395 0
M  V30 8107 H 792.482 3.4352 -1.81456 0
M  V30 8108 H 794.154 2.14582 -4.08353 0
M  V30 8109 H 792.397 1.95621 -3.87189 0
M  V30 8110 H 793.068 3.55112 -4.2261 0
M  V30 8111 H 795.544 3.46684 -2.30107 0
M  V30 8112 H 794.42 4.80391 -2.65548 0
M  V30 8113 H 794.681 4.30861 -0.990536 0
M  V30 8114 N 793.74 1.17359 1.05189 0
M  V30 8115 C 794.968 0.986529 1.81866 0
M  V30 8116 C 795.383 -0.46522 1.82979 0
M  V30 8117 O 794.74 -1.32305 1.25705 0
M  V30 8118 C 794.791 1.52021 3.27982 0
M  V30 8119 O 794.512 2.91511 3.27037 0
M  V30 8120 C 796.013 1.37774 4.21347 0
M  V30 8121 H 793.233 0.349021 0.573084 0
M  V30 8122 H 795.777 1.55648 1.32643 0
M  V30 8123 H 793.932 0.992287 3.74476 0
M  V30 8124 H 794.346 3.16178 4.18488 0
M  V30 8125 H 795.82 1.7993 5.21852 0
M  V30 8126 H 796.297 0.32483 4.37997 0
M  V30 8127 H 796.903 1.89583 3.80708 0
M  V30 8128 N 795.218 -1.23913 0.973828 0
M  V30 8129 C 796.448 -1.95911 0.655938 0
M  V30 8130 C 796.856 -1.72375 -0.779967 0
M  V30 8131 O 796.199 -1.00807 -1.5357 0
M  V30 8132 C 796.261 -3.49103 0.858324 0
M  V30 8133 C 795.925 -3.96347 2.27504 0
M  V30 8134 C 796.922 -4.05537 3.25324 0
M  V30 8135 C 794.607 -4.29509 2.60437 0
M  V30 8136 C 796.601 -4.47233 4.5416 0
M  V30 8137 C 794.288 -4.70887 3.89498 0
M  V30 8138 C 795.286 -4.79714 4.86172 0
M  V30 8139 O 794.974 -5.20166 6.1293 0
M  V30 8140 H 794.706 -0.630721 0.243244 0
M  V30 8141 H 797.26 -1.58534 1.30599 0
M  V30 8142 H 795.49 -3.86405 0.151097 0
M  V30 8143 H 797.179 -4.02311 0.538592 0
M  V30 8144 H 797.945 -3.80128 3.0121 0
M  V30 8145 H 793.824 -4.21853 1.85906 0
M  V30 8146 H 797.368 -4.54038 5.29618 0
M  V30 8147 H 793.265 -4.95744 4.1341 0
M  V30 8148 H 794.033 -5.38298 6.16586 0
M  V30 8149 N 796.696 -0.74468 -1.38897 0
M  V30 8150 C 797.924 -0.307428 -2.04603 0
M  V30 8151 C 798.339 1.06115 -1.56157 0
M  V30 8152 O 797.696 1.67233 -0.730701 0
M  V30 8153 C 797.747 -0.31101 -3.6016 0
M  V30 8154 O 797.468 -1.62557 -4.06825 0
M  V30 8155 C 798.969 0.141213 -4.43075 0
M  V30 8156 H 796.189 -0.132741 -0.657739 0
M  V30 8157 H 798.733 -1.01104 -1.77759 0
M  V30 8158 H 796.888 0.343792 -3.85872 0
M  V30 8159 H 797.302 -1.54569 -5.01207 0
M  V30 8160 H 798.776 0.0875449 -5.51931 0
M  V30 8161 H 799.253 1.18782 -4.22833 0
M  V30 8162 H 799.859 -0.484383 -4.22533 0
M  V30 8163 N 798.174 1.49689 -0.493057 0
M  V30 8164 C 799.104 2.31826 0.279073 0
M  V30 8165 C 800.085 1.39733 0.969987 0
M  V30 8166 O 801.27 1.68646 0.962925 0
M  V30 8167 C 798.4 3.20046 1.34862 0
M  V30 8168 C 797.354 4.20869 0.77805 0
M  V30 8169 C 796.68 4.97971 1.94753 0
M  V30 8170 C 797.98 5.21813 -0.225543 0
M  V30 8171 H 799.674 2.96627 -0.406512 0
M  V30 8172 H 797.22 1.42647 -0.196943 0
M  V30 8173 H 799.173 3.76315 1.89645 0
M  V30 8174 H 797.897 2.53172 2.06328 0
M  V30 8175 H 796.556 3.65733 0.252036 0
M  V30 8176 H 796.204 4.27552 2.64969 0
M  V30 8177 H 795.904 5.66186 1.57187 0
M  V30 8178 H 797.428 5.57082 2.49984 0
M  V30 8179 H 798.842 5.72823 0.233864 0
M  V30 8180 H 797.239 5.97872 -0.516622 0
M  V30 8181 H 798.309 4.71209 -1.14412 0
M  V30 8182 N 799.652 0.226554 1.55963 0
M  V30 8183 C 800.582 -0.676079 2.23498 0
M  V30 8184 C 801.563 -1.19718 1.20837 0
M  V30 8185 O 802.748 -1.24027 1.49436 0
M  V30 8186 C 799.878 -1.88217 2.91876 0
M  V30 8187 C 798.832 -1.4947 4.01052 0
M  V30 8188 C 798.158 -2.77997 4.56751 0
M  V30 8189 C 799.458 -0.680951 5.17842 0
M  V30 8190 H 801.152 -0.112989 2.99187 0
M  V30 8191 H 798.698 -0.0529046 1.43903 0
M  V30 8192 H 800.651 -2.51911 3.37815 0
M  V30 8193 H 799.375 -2.47031 2.13643 0
M  V30 8194 H 798.034 -0.881199 3.55852 0
M  V30 8195 H 797.682 -3.34966 3.75243 0
M  V30 8196 H 797.382 -2.52803 5.30438 0
M  V30 8197 H 798.906 -3.42625 5.05411 0
M  V30 8198 H 800.32 -1.22171 5.60131 0
M  V30 8199 H 798.717 -0.525898 5.97791 0
M  V30 8200 H 799.787 0.311346 4.83899 0
M  V30 8201 N 801.13 -1.57531 -0.0467866 0
M  V30 8202 C 802.06 -2.08425 -1.05268 0
M  V30 8203 C 803.041 -0.982941 -1.38825 0
M  V30 8204 O 804.226 -1.25716 -1.48018 0
M  V30 8205 C 801.356 -2.54897 -2.35891 0
M  V30 8206 C 800.31 -3.69132 -2.16623 0
M  V30 8207 C 799.636 -4.01747 -3.52851 0
M  V30 8208 C 800.936 -4.98243 -1.56689 0
M  V30 8209 H 802.63 -2.92716 -0.62908 0
M  V30 8210 H 800.176 -1.40816 -0.301156 0
M  V30 8211 H 802.129 -2.8912 -3.06574 0
M  V30 8212 H 800.853 -1.67666 -2.80278 0
M  V30 8213 H 799.512 -3.35231 -1.48377 0
M  V30 8214 H 799.16 -3.11608 -3.94853 0
M  V30 8215 H 798.86 -4.78681 -3.4079 0
M  V30 8216 H 800.384 -4.38487 -4.24925 0
M  V30 8217 H 801.798 -5.30535 -2.17268 0
M  V30 8218 H 800.195 -5.79669 -1.55255 0
M  V30 8219 H 801.265 -4.81986 -0.530827 0
M  V30 8220 N 802.608 0.318715 -1.54344 0
M  V30 8221 C 803.885 1.07461 -1.63437 0
M  V30 8222 C 804.265 2.05771 -0.47131 0
M  V30 8223 O 803.613 2.22175 0.53391 0
M  V30 8224 C 803.823 1.77224 -3.00654 0
M  V30 8225 C 805.171 2.30069 -3.56866 0
M  V30 8226 O 806.195 1.87284 -3.0299 0
M  V30 8227 O 805.054 3.08412 -4.51159 0
M  V30 8228 H 802.148 0.495627 -0.66203 0
M  V30 8229 H 804.694 0.318218 -1.6669 0
M  V30 8230 H 803.466 1.05742 -3.76742 0
M  V30 8231 H 803.089 2.59662 -3.01101 0
M  V30 8232 N 804.086 1.46499 0.581025 0
M  V30 8233 C 805.036 1.53606 1.68491 0
M  V30 8234 C 806.02 0.396853 1.55929 0
M  V30 8235 O 807.212 0.645366 1.64815 0
M  V30 8236 C 804.341 1.53089 3.07276 0
M  V30 8237 C 803.427 2.72309 3.25128 0
M  V30 8238 N 803.818 3.97216 3.13134 0
M  V30 8239 C 802.116 2.68568 3.56072 0
M  V30 8240 C 802.817 4.7693 3.33036 0
M  V30 8241 N 801.793 4.08833 3.58269 0
M  V30 8242 H 805.595 2.47976 1.5775 0
M  V30 8243 H 803.109 1.42161 0.785104 0
M  V30 8244 H 805.106 1.56268 3.86505 0
M  V30 8245 H 803.766 0.597969 3.19146 0
M  V30 8246 H 804.777 4.28439 2.90964 0
M  V30 8247 H 801.454 1.84307 3.74616 0
M  V30 8248 H 802.844 5.85879 3.28932 0
M  V30 8249 N 805.565 -0.825799 1.34232 0
M  V30 8250 C 806.528 -1.91808 1.25468 0
M  V30 8251 C 807.528 -1.59893 0.170567 0
M  V30 8252 O 808.718 -1.68986 0.422996 0
M  V30 8253 C 805.85 -3.27786 0.93644 0
M  V30 8254 H 807.043 -2.01003 2.22571 0
M  V30 8255 H 804.596 -1.01944 1.18479 0
M  V30 8256 H 805.331 -3.24285 -0.0315408 0
M  V30 8257 H 805.116 -3.52333 1.72057 0
M  V30 8258 H 806.606 -4.07782 0.900214 0
M  V30 8259 N 807.043 -1.17915 -1.04565 0
M  V30 8260 C 808.291 -0.969505 -1.77327 0
M  V30 8261 C 808.612 0.502569 -1.88412 0
M  V30 8262 O 807.882 1.36467 -1.40547 0
M  V30 8263 H 806.462 -0.355723 -0.656864 0
M  V30 8264 H 809.124 -1.48506 -1.26223 0
M  V30 8265 H 808.22 -1.40324 -2.78775 0
M  V30 8266 N 808.521 1.23394 -0.980386 0
M  V30 8267 C 809.769 1.91431 -0.647978 0
M  V30 8268 C 810.09 1.76871 0.821066 0
M  V30 8269 O 809.36 1.14808 1.58732 0
M  V30 8270 H 807.94 0.708516 -0.236673 0
M  V30 8271 H 810.602 1.50019 -1.2442 0
M  V30 8272 H 809.698 2.98854 -0.899592 0
M  V30 8273 N 809.999 0.752036 1.385 0
M  V30 8274 C 811.245 0.307958 2.00448 0
M  V30 8275 C 811.578 -1.10702 1.59558 0
M  V30 8276 O 810.853 -1.75788 0.832391 0
M  V30 8277 C 811.136 0.429092 3.57534 0
M  V30 8278 C 810.989 1.88507 4.08393 0
M  V30 8279 C 812.308 -0.178442 4.39738 0
M  V30 8280 H 809.427 0.113373 0.728228 0
M  V30 8281 H 812.069 0.951389 1.64465 0
M  V30 8282 H 810.219 -0.118695 3.88319 0
M  V30 8283 H 811.891 2.49104 3.88259 0
M  V30 8284 H 810.134 2.40066 3.61318 0
M  V30 8285 H 810.805 1.92099 5.17496 0
M  V30 8286 H 813.281 0.28872 4.15097 0
M  V30 8287 H 812.157 -0.0634349 5.48863 0
M  V30 8288 H 812.418 -1.26655 4.23569 0
M  V30 8289 N 811.477 -1.49425 0.500989 0
M  V30 8290 C 812.893 -1.58826 0.156951 0
M  V30 8291 C 813.093 -1.50622 -1.33848 0
M  V30 8292 O 812.149 -1.38016 -2.11442 0
M  V30 8293 C 813.462 -2.91611 0.73374 0
M  V30 8294 C 815.01 -3.05076 0.699846 0
M  V30 8295 C 815.485 -4.40479 1.2547 0
M  V30 8296 N 816.976 -4.4697 1.2154 0
M  V30 8297 C 817.711 -5.50189 1.6149 0
M  V30 8298 N 817.207 -6.60512 2.09034 0
M  V30 8299 N 819 -5.40903 1.52907 0
M  V30 8300 H 811.151 -1.53001 1.47324 0
M  V30 8301 H 813.414 -0.724765 0.61108 0
M  V30 8302 H 813.12 -3.03182 1.78251 0
M  V30 8303 H 812.994 -3.767 0.19417 0
M  V30 8304 H 815.381 -2.93134 -0.340085 0
M  V30 8305 H 815.462 -2.2167 1.27656 0
M  V30 8306 H 815.106 -4.53172 2.29341 0
M  V30 8307 H 815.036 -5.22524 0.653921 0
M  V30 8308 H 817.527 -3.67819 0.867043 0
M  V30 8309 H 817.84 -7.35372 2.37588 0
M  V30 8310 H 816.185 -6.61553 2.13008 0
M  V30 8311 H 819.376 -4.53606 1.15583 0
M  V30 8312 H 819.549 -6.21219 1.84365 0
M  V30 8313 N 812.955 -0.234822 -1.55841 0
M  V30 8314 C 814.18 0.400741 -2.03492 0
M  V30 8315 C 814.605 1.51618 -1.11327 0
M  V30 8316 O 813.963 1.81002 -0.103922 0
M  V30 8317 C 814.011 0.897184 -3.49261 0
M  V30 8318 O 813.115 2.00764 -3.60233 0
M  V30 8319 H 812.456 0.0890023 -0.658008 0
M  V30 8320 H 814.986 -0.357345 -2.01455 0
M  V30 8321 H 814.996 1.20356 -3.89844 0
M  V30 8322 H 813.671 0.0808639 -4.15821 0
M  V30 8323 H 812.248 1.70689 -3.31541 0
M  V30 8324 N 814.433 1.57553 0.0384317 0
M  V30 8325 C 815.71 1.79977 0.766002 0
M  V30 8326 C 816.09 0.830625 1.94072 0
M  V30 8327 O 815.438 -0.129243 2.28134 0
M  V30 8328 C 815.648 3.27434 1.20781 0
M  V30 8329 C 816.996 3.92167 1.62758 0
M  V30 8330 O 818.02 3.31527 1.30263 0
M  V30 8331 O 816.879 4.98917 2.23035 0
M  V30 8332 H 813.973 0.739787 0.369654 0
M  V30 8333 H 816.519 1.69693 0.0159312 0
M  V30 8334 H 815.291 3.89558 0.368792 0
M  V30 8335 H 814.914 3.42571 2.01819 0
M  V30 8336 N 815.911 -0.310526 1.54511 0
M  V30 8337 C 817.16 -1.0445 1.72549 0
M  V30 8338 C 817.473 -1.88748 0.513172 0
M  V30 8339 O 818.679 -2.65338 0.575165 0
M  V30 8340 C 817.135 -1.90665 3.05246 0
M  V30 8341 C 816.743 -1.11415 4.33925 0
M  V30 8342 C 818.487 -2.63719 3.32645 0
M  V30 8343 C 816.394 -1.96852 5.57677 0
M  V30 8344 H 815.324 -0.393676 0.643067 0
M  V30 8345 H 817.975 -0.302003 1.80998 0
M  V30 8346 H 816.357 -2.68864 2.90737 0
M  V30 8347 H 817.531 -0.378956 4.59239 0
M  V30 8348 H 815.846 -0.499853 4.13389 0
M  V30 8349 H 818.443 -3.27974 4.223 0
M  V30 8350 H 818.786 -3.32047 2.51098 0
M  V30 8351 H 819.319 -1.92574 3.48081 0
M  V30 8352 H 816.058 -1.33009 6.41864 0
M  V30 8353 H 815.578 -2.68069 5.36562 0
M  V30 8354 H 817.257 -2.55127 5.94575 0
M  V30 8355 N 817.389 -1.46805 -0.573248 0
M  V30 8356 C 818.617 -1.56191 -1.3569 0
M  V30 8357 C 819.032 -0.206362 -1.87669 0
M  V30 8358 O 818.389 0.797883 -1.64134 0
M  V30 8359 C 818.44 -2.57433 -2.53792 0
M  V30 8360 O 818.161 -3.87724 -2.03965 0
M  V30 8361 C 819.662 -2.76851 -3.4622 0
M  V30 8362 H 816.882 -0.527907 -0.414192 0
M  V30 8363 H 819.426 -1.92292 -0.695989 0
M  V30 8364 H 817.581 -2.24311 -3.15854 0
M  V30 8365 H 817.995 -4.42909 -2.80948 0
M  V30 8366 H 819.469 -3.5159 -4.25545 0
M  V30 8367 H 819.946 -1.84095 -3.98755 0
M  V30 8368 H 820.552 -3.11107 -2.89987 0
M  V30 8369 N 818.867 0.818669 -1.34668 0
M  V30 8370 C 820.113 1.57746 -1.27453 0
M  V30 8371 C 820.446 1.93588 0.154077 0
M  V30 8372 O 819.721 1.60371 1.10051 0
M  V30 8373 C 820.004 2.87414 -2.16945 0
M  V30 8374 C 819.857 2.58125 -3.68363 0
M  V30 8375 C 821.176 3.89021 -2.05792 0
M  V30 8376 H 818.295 0.572339 -0.464324 0
M  V30 8377 H 820.937 0.942784 -1.64959 0
M  V30 8378 H 819.087 3.41576 -1.85089 0
M  V30 8379 H 820.759 2.10239 -4.10606 0
M  V30 8380 H 819.002 1.91503 -3.89242 0
M  V30 8381 H 819.673 3.5061 -4.26353 0
M  V30 8382 H 822.149 3.44224 -2.33771 0
M  V30 8383 H 821.025 4.77548 -2.70628 0
M  V30 8384 H 821.286 4.29786 -1.03618 0
M  V30 8385 N 820.346 1.18468 1.03938 0
M  V30 8386 C 821.309 0.914944 2.10146 0
M  V30 8387 C 822.309 -0.10022 1.60487 0
M  V30 8388 O 823.499 0.133365 1.73689 0
M  V30 8389 C 820.631 0.372993 3.38853 0
M  V30 8390 H 821.824 1.85677 2.35508 0
M  V30 8391 H 819.377 0.996876 1.20383 0
M  V30 8392 H 820.112 -0.57538 3.19155 0
M  V30 8393 H 819.897 1.1048 3.76213 0
M  V30 8394 H 821.387 0.203014 4.17106 0
M  V30 8395 N 821.824 -1.22873 0.986916 0
M  V30 8396 C 823.24 -1.43594 0.696633 0
M  V30 8397 C 823.44 -1.87622 -0.734869 0
M  V30 8398 O 822.496 -2.02633 -1.50652 0
M  V30 8399 C 823.809 -2.48231 1.69711 0
M  V30 8400 C 825.357 -2.62037 1.71188 0
M  V30 8401 C 825.832 -3.6989 2.70084 0
M  V30 8402 N 827.323 -3.77341 2.68641 0
M  V30 8403 C 828.058 -4.6037 3.41829 0
M  V30 8404 N 827.554 -5.47438 4.24598 0
M  V30 8405 N 829.347 -4.54626 3.30563 0
M  V30 8406 H 821.498 -0.925982 1.91153 0
M  V30 8407 H 823.761 -0.46866 0.824052 0
M  V30 8408 H 823.467 -2.22812 2.72117 0
M  V30 8409 H 823.341 -3.46731 1.48516 0
M  V30 8410 H 825.728 -2.86803 0.694837 0
M  V30 8411 H 825.809 -1.63831 1.96451 0
M  V30 8412 H 825.453 -3.45872 3.71934 0
M  V30 8413 H 825.383 -4.67652 2.42093 0
M  V30 8414 H 827.874 -3.15124 2.08578 0
M  V30 8415 H 828.187 -6.078 4.77283 0
M  V30 8416 H 826.532 -5.4704 4.28687 0
M  V30 8417 H 829.723 -3.85627 2.65347 0
M  V30 8418 H 829.896 -5.19103 3.8786 0
M  V30 8419 N 823.302 -0.75937 -1.38099 0
M  V30 8420 C 824.232 -0.151077 -2.33011 0
M  V30 8421 C 825.213 0.697099 -1.5516 0
M  V30 8422 O 826.398 0.637101 -1.83452 0
M  V30 8423 C 823.528 0.738423 -3.39359 0
M  V30 8424 C 822.482 -0.0074741 -4.27999 0
M  V30 8425 C 821.808 1.00066 -5.25253 0
M  V30 8426 C 823.108 -1.17926 -5.08813 0
M  V30 8427 H 824.802 -0.943933 -2.84131 0
M  V30 8428 H 822.348 -0.455362 -1.36611 0
M  V30 8429 H 824.301 1.17369 -4.04725 0
M  V30 8430 H 823.025 1.56366 -2.86735 0
M  V30 8431 H 821.684 -0.423379 -3.64147 0
M  V30 8432 H 821.332 1.82012 -4.68914 0
M  V30 8433 H 821.032 0.506199 -5.85416 0
M  V30 8434 H 822.556 1.43512 -5.93495 0
M  V30 8435 H 823.97 -0.821262 -5.67387 0
M  V30 8436 H 822.367 -1.60497 -5.78239 0
M  V30 8437 H 823.437 -1.98938 -4.42212 0
M  V30 8438 N 824.78 1.49157 -0.508906 0
M  V30 8439 C 826.005 2.07376 0.0315182 0
M  V30 8440 C 826.43 1.36575 1.2934 0
M  V30 8441 O 825.788 0.424963 1.76249 0
M  V30 8442 C 825.836 3.59661 0.260118 0
M  V30 8443 O 824.94 3.90255 1.33322 0
M  V30 8444 H 824.281 0.663334 -0.029739 0
M  V30 8445 H 826.811 1.91857 -0.710791 0
M  V30 8446 H 826.821 4.05056 0.489225 0
M  V30 8447 H 825.496 4.10601 -0.661794 0
M  V30 8448 H 824.073 3.56661 1.08844 0
M  V30 8449 N 826.258 0.243083 1.55714 0
M  V30 8450 C 827.168 -0.668913 2.24862 0
M  V30 8451 C 828.184 -1.19638 1.26344 0
M  V30 8452 O 829.36 -1.23345 1.5921 0
M  V30 8453 C 826.425 -1.85084 2.93163 0
M  V30 8454 C 825.486 -1.36323 4.07081 0
M  V30 8455 C 824.719 -2.48882 4.72116 0
M  V30 8456 O 824.942 -3.67523 4.36214 0
M  V30 8457 O 823.876 -2.18857 5.60701 0
M  V30 8458 H 827.702 -0.109737 3.03502 0
M  V30 8459 H 825.287 0.0117411 1.49395 0
M  V30 8460 H 827.169 -2.54065 3.36197 0
M  V30 8461 H 825.844 -2.39771 2.17466 0
M  V30 8462 H 824.751 -0.640804 3.68571 0
M  V30 8463 H 826.084 -0.86249 4.84584 0
M  V30 8464 N 827.736 -1.57571 -0.0300757 0
M  V30 8465 C 829.013 -1.80381 -0.756447 0
M  V30 8466 C 829.393 -0.840906 -1.93628 0
M  V30 8467 O 828.741 0.117143 -2.282 0
M  V30 8468 C 828.951 -3.2807 -1.19043 0
M  V30 8469 C 830.299 -3.93025 -1.60676 0
M  V30 8470 O 831.323 -3.32213 -1.28503 0
M  V30 8471 O 830.182 -5.00092 -2.20386 0
M  V30 8472 H 827.276 -0.741737 -0.365725 0
M  V30 8473 H 829.822 -1.69699 -0.00693177 0
M  V30 8474 H 828.594 -3.89748 -0.348128 0
M  V30 8475 H 828.217 -3.43637 -1.99999 0
M  V30 8476 N 829.214 0.302327 -1.54673 0
M  V30 8477 C 830.442 1.05669 -1.77881 0
M  V30 8478 C 830.857 1.80983 -0.537648 0
M  V30 8479 O 830.214 1.7573 0.492467 0
M  V30 8480 C 830.265 2.03828 -2.98557 0
M  V30 8481 O 829.986 1.3157 -4.17877 0
M  V30 8482 C 831.487 2.91314 -3.34143 0
M  V30 8483 H 828.707 0.313436 -0.593295 0
M  V30 8484 H 831.251 0.342003 -2.0162 0
M  V30 8485 H 829.406 2.70801 -2.7703 0
M  V30 8486 H 829.82 1.97481 -4.85903 0
M  V30 8487 H 831.294 3.56042 -4.21827 0
M  V30 8488 H 831.771 3.59544 -2.52239 0
M  V30 8489 H 832.377 2.29874 -3.57824 0
M  V30 8490 N 830.692 1.47107 0.565454 0
M  V30 8491 C 831.939 1.53308 1.32299 0
M  V30 8492 C 832.267 0.1919 1.93551 0
M  V30 8493 O 831.522 -0.81435 1.77952 0
M  V30 8494 C 831.821 2.59309 2.45954 0
M  V30 8495 C 831.487 4.02827 2.02586 0
M  V30 8496 C 830.149 4.41897 1.90474 0
M  V30 8497 C 832.501 4.92913 1.6937 0
M  V30 8498 C 829.829 5.68898 1.4343 0
M  V30 8499 C 832.181 6.20368 1.238 0
M  V30 8500 C 830.845 6.58327 1.10278 0
M  V30 8501 H 830.115 0.560993 0.484116 0
M  V30 8502 H 832.762 1.80667 0.634965 0
M  V30 8503 H 831.067 2.25676 3.20277 0
M  V30 8504 H 832.764 2.61332 3.04149 0
M  V30 8505 H 829.354 3.71953 2.12952 0
M  V30 8506 H 833.538 4.63433 1.77605 0
M  V30 8507 H 828.794 5.97065 1.31618 0
M  V30 8508 H 832.968 6.89589 0.971586 0
M  V30 8509 H 830.595 7.56628 0.736027 0
M  V30 8510 N 832.17 -0.811516 1.35101 0
M  V30 8511 C 833.102 -1.93102 1.23468 0
M  V30 8512 C 834.115 -1.62021 0.159095 0
M  V30 8513 O 835.304 -1.73682 0.411945 0
M  V30 8514 C 832.404 -3.27345 0.877404 0
M  V30 8515 C 831.577 -3.86368 2.05033 0
M  V30 8516 C 830.636 -4.99009 1.66963 0
M  V30 8517 O 829.662 -5.16698 2.38772 0
M  V30 8518 N 830.864 -5.7749 0.590394 0
M  V30 8519 H 833.629 -2.0361 2.19916 0
M  V30 8520 H 831.19 -0.988687 1.28205 0
M  V30 8521 H 833.182 -4.00163 0.604298 0
M  V30 8522 H 831.752 -3.126 0.00275267 0
M  V30 8523 H 830.972 -3.05804 2.48752 0
M  V30 8524 H 832.26 -4.22533 2.83449 0
M  V30 8525 H 831.658 -5.657 -0.00633259 0
M  V30 8526 H 830.215 -6.50708 0.377055 0
M  V30 8527 N 833.648 -1.19017 -1.03309 0
M  V30 8528 C 834.578 -0.94772 -2.13402 0
M  V30 8529 C 835.559 0.117383 -1.69694 0
M  V30 8530 O 836.744 -0.0367733 -1.94165 0
M  V30 8531 C 833.874 -0.480977 -3.43953 0
M  V30 8532 C 832.828 -1.48743 -4.01322 0
M  V30 8533 C 832.154 -0.877924 -5.27443 0
M  V30 8534 C 833.454 -2.86642 -4.36616 0
M  V30 8535 H 835.148 -1.86846 -2.33942 0
M  V30 8536 H 832.694 -0.899781 -1.12427 0
M  V30 8537 H 834.647 -0.298677 -4.2034 0
M  V30 8538 H 833.371 0.475348 -3.23122 0
M  V30 8539 H 832.03 -1.65681 -3.27025 0
M  V30 8540 H 831.678 0.0858232 -5.02927 0
M  V30 8541 H 831.378 -1.54996 -5.66789 0
M  V30 8542 H 832.902 -0.706326 -6.06501 0
M  V30 8543 H 834.316 -2.73312 -5.03958 0
M  V30 8544 H 832.713 -3.50599 -4.87032 0
M  V30 8545 H 833.783 -3.39617 -3.46105 0
M  V30 8546 N 835.127 1.22348 -0.993418 0
M  V30 8547 C 836.375 1.90733 -0.668246 0
M  V30 8548 C 836.696 1.77732 0.802261 0
M  V30 8549 O 835.966 1.16486 1.57505 0
M  V30 8550 H 834.546 0.705966 -0.244174 0
M  V30 8551 H 837.208 1.48691 -1.26004 0
M  V30 8552 H 836.304 2.97883 -0.931239 0
M  V30 8553 N 836.605 0.766683 1.37694 0
M  V30 8554 C 837.568 0.155849 2.2867 0
M  V30 8555 C 838.568 -0.633509 1.47795 0
M  V30 8556 O 839.758 -0.457844 1.68076 0
M  V30 8557 C 836.89 -0.786965 3.31692 0
M  V30 8558 H 838.083 0.957748 2.84196 0
M  V30 8559 H 835.636 0.534554 1.46875 0
M  V30 8560 H 836.371 -1.61406 2.8128 0
M  V30 8561 H 836.156 -0.223182 3.91464 0
M  V30 8562 H 837.646 -1.20994 3.99688 0
M  V30 8563 N 838.083 -1.48885 0.516809 0
M  V30 8564 C 839.031 -2.31066 -0.266656 0
M  V30 8565 C 840.025 -1.40393 -0.94795 0
M  V30 8566 O 841.231 -1.57366 -0.873836 0
M  V30 8567 H 837.606 -0.744654 -0.104858 0
M  V30 8568 H 839.577 -2.95045 0.446236 0
M  V30 8569 C 838.326 -3.22131 -1.3087 0
M  V30 8570 H 837.649 -3.91839 -0.793865 0
M  V30 8571 H 839.089 -3.82544 -1.82856 0
M  V30 8572 C 837.548 -2.42825 -2.33533 0
M  V30 8573 O 838.078 -2.14364 -3.39722 0
M  V30 8574 N 836.284 -2.04559 -2.06407 0
M  V30 8575 H 835.831 -2.27905 -1.20071 0
M  V30 8576 H 835.789 -1.51807 -2.75322 0
M  V30 8577 N 839.561 -0.251338 -1.55583 0
M  V30 8578 C 840.809 0.371434 -1.98657 0
M  V30 8579 C 841.13 1.58143 -1.14087 0
M  V30 8580 O 840.4 1.94607 -0.224708 0
M  V30 8581 H 838.98 0.140225 -0.733721 0
M  V30 8582 H 841.642 -0.351157 -1.9171 0
M  V30 8583 H 840.738 0.677554 -3.04657 0
M  V30 8584 N 841.039 1.57585 0.0217189 0
M  V30 8585 C 841.987 2.08134 1.03842 0
M  V30 8586 C 842.981 0.996662 1.36978 0
M  V30 8587 O 844.187 1.18149 1.35797 0
M  V30 8588 H 840.562 0.664298 0.352438 0
M  V30 8589 H 842.533 2.92583 0.58634 0
M  V30 8590 C 841.282 2.58218 2.32849 0
M  V30 8591 H 840.605 3.41302 2.08214 0
M  V30 8592 H 842.045 2.97289 3.02316 0
M  V30 8593 C 840.504 1.48664 3.02325 0
M  V30 8594 O 841.034 0.857075 3.9245 0
M  V30 8595 N 839.24 1.21938 2.63779 0
M  V30 8596 H 838.787 1.73319 1.90574 0
M  V30 8597 H 838.745 0.488523 3.10581 0
M  V30 8598 N 842.517 -0.29412 1.54831 0
M  V30 8599 C 843.766 -1.02614 1.73647 0
M  V30 8600 C 844.079 -1.88193 0.533162 0
M  V30 8601 O 845.285 -2.64713 0.603275 0
M  V30 8602 C 843.741 -1.87417 3.07251 0
M  V30 8603 C 843.349 -1.06806 4.35082 0
M  V30 8604 C 845.093 -2.60176 3.35423 0
M  V30 8605 C 843 -1.90926 5.59733 0
M  V30 8606 H 841.93 -0.386834 0.647206 0
M  V30 8607 H 844.581 -0.282789 1.81308 0
M  V30 8608 H 842.963 -2.65765 2.93572 0
M  V30 8609 H 844.137 -0.330226 4.59615 0
M  V30 8610 H 842.452 -0.455979 4.13896 0
M  V30 8611 H 845.049 -3.23476 4.25755 0
M  V30 8612 H 845.392 -3.29365 2.54606 0
M  V30 8613 H 845.925 -1.88871 3.50103 0
M  V30 8614 H 842.664 -1.26194 6.43238 0
M  V30 8615 H 842.184 -2.62363 5.39375 0
M  V30 8616 H 843.863 -2.48807 5.97247 0
M  V30 8617 N 843.995 -1.47404 -0.557645 0
M  V30 8618 C 845.272 -1.44488 -1.31843 0
M  V30 8619 C 845.652 -0.1416 -2.10625 0
M  V30 8620 O 845 0.876908 -2.11004 0
M  V30 8621 C 845.21 -2.69016 -2.22331 0
M  V30 8622 C 846.558 -3.16212 -2.83364 0
M  V30 8623 O 847.582 -2.69741 -2.32634 0
M  V30 8624 O 846.441 -3.96999 -3.75571 0
M  V30 8625 H 843.535 -0.57578 -0.593639 0
M  V30 8626 H 846.081 -1.59605 -0.576584 0
M  V30 8627 H 844.853 -3.55406 -1.63715 0
M  V30 8628 H 844.476 -2.56484 -3.03812 0
M  V30 8629 N 845.473 0.80434 -1.35529 0
M  V30 8630 C 846.701 1.59283 -1.32048 0
M  V30 8631 C 847.116 1.88527 0.101556 0
M  V30 8632 O 846.473 1.48975 1.05417 0
M  V30 8633 C 846.524 2.92276 -2.12737 0
M  V30 8634 O 846.245 2.64299 -3.49396 0
M  V30 8635 C 847.746 3.86631 -2.16867 0
M  V30 8636 H 844.966 0.494523 -0.453528 0
M  V30 8637 H 847.51 0.999415 -1.78415 0
M  V30 8638 H 845.665 3.48125 -1.69964 0
M  V30 8639 H 846.079 3.4923 -3.91329 0
M  V30 8640 H 847.553 4.77053 -2.77712 0
M  V30 8641 H 848.03 4.23384 -1.16803 0
M  V30 8642 H 848.636 3.36717 -2.59811 0
M  V30 8643 N 846.951 1.19563 1.02676 0
M  V30 8644 C 847.914 0.937182 2.09164 0
M  V30 8645 C 848.914 -0.0831927 1.60585 0
M  V30 8646 O 850.104 0.15178 1.73538 0
M  V30 8647 C 847.236 0.408912 3.38439 0
M  V30 8648 H 848.429 1.88164 2.33526 0
M  V30 8649 H 845.982 1.00959 1.19319 0
M  V30 8650 H 846.717 -0.541497 3.19747 0
M  V30 8651 H 846.502 1.14464 3.7502 0
M  V30 8652 H 847.992 0.247242 4.16867 0
M  V30 8653 N 848.429 -1.21819 0.999893 0
M  V30 8654 C 849.659 -1.94475 0.697346 0
M  V30 8655 C 850.067 -1.73991 -0.743228 0
M  V30 8656 O 849.41 -1.04042 -1.51397 0
M  V30 8657 C 849.472 -3.47204 0.932181 0
M  V30 8658 C 849.136 -3.91432 2.3586 0
M  V30 8659 C 850.133 -3.98545 3.33853 0
M  V30 8660 C 847.818 -4.23888 2.69489 0
M  V30 8661 C 849.812 -4.37499 4.63545 0
M  V30 8662 C 847.499 -4.62519 3.99399 0
M  V30 8663 C 848.497 -4.69294 4.96238 0
M  V30 8664 O 848.185 -5.07048 6.23825 0
M  V30 8665 H 847.917 -0.625419 0.256567 0
M  V30 8666 H 850.471 -1.55728 1.33933 0
M  V30 8667 H 848.701 -3.85997 0.233025 0
M  V30 8668 H 850.39 -4.01078 0.623807 0
M  V30 8669 H 851.156 -3.73654 3.09205 0
M  V30 8670 H 847.035 -4.17815 1.94812 0
M  V30 8671 H 850.579 -4.42702 5.3913 0
M  V30 8672 H 846.476 -4.86864 4.23833 0
M  V30 8673 H 847.244 -5.25098 6.27865 0
M  V30 8674 N 849.908 -0.773975 -1.37286 0
M  V30 8675 C 851.155 -0.339306 -1.99637 0
M  V30 8676 C 851.483 1.08478 -1.61439 0
M  V30 8677 O 850.738 1.7612 -0.853252 0
M  V30 8678 C 851.037 -0.432651 -3.54772 0
M  V30 8679 C 850.703 -1.81531 -4.12744 0
M  V30 8680 C 849.365 -2.19366 -4.2829 0
M  V30 8681 C 851.717 -2.72137 -4.44512 0
M  V30 8682 C 849.045 -3.47239 -4.72908 0
M  V30 8683 C 851.397 -3.99421 -4.90556 0
M  V30 8684 C 850.061 -4.37298 -5.04308 0
M  V30 8685 H 849.331 -0.124161 -0.730524 0
M  V30 8686 H 851.978 -0.988432 -1.64019 0
M  V30 8687 H 850.283 0.30001 -3.9065 0
M  V30 8688 H 851.98 -0.0776 -4.00925 0
M  V30 8689 H 848.57 -1.51126 -4.01072 0
M  V30 8690 H 852.754 -2.44165 -4.32084 0
M  V30 8691 H 848.01 -3.76477 -4.81742 0
M  V30 8692 H 852.184 -4.69756 -5.14104 0
M  V30 8693 H 849.811 -5.36442 -5.38641 0
M  V30 8694 N 851.386 1.48609 -0.524698 0
M  V30 8695 C 852.296 2.33318 0.244923 0
M  V30 8696 C 853.312 1.46153 0.944214 0
M  V30 8697 O 854.488 1.79141 0.920347 0
M  V30 8698 C 851.553 3.22149 1.28144 0
M  V30 8699 C 850.614 4.25184 0.593068 0
M  V30 8700 C 849.847 5.0977 1.5802 0
M  V30 8701 O 850.07 4.96249 2.81235 0
M  V30 8702 O 849.004 5.9134 1.1225 0
M  V30 8703 H 852.83 3.00362 -0.449066 0
M  V30 8704 H 850.415 1.46643 -0.285689 0
M  V30 8705 H 852.297 3.77111 1.88057 0
M  V30 8706 H 850.972 2.57772 1.95793 0
M  V30 8707 H 849.879 3.74071 -0.0464214 0
M  V30 8708 H 851.212 4.92183 -0.0413893 0
M  V30 8709 N 852.864 0.259585 1.55447 0
M  V30 8710 C 854.28 -0.094961 1.59317 0
M  V30 8711 C 854.48 -1.55884 1.2768 0
M  V30 8712 O 853.536 -2.30528 1.0302 0
M  V30 8713 C 854.849 0.265669 2.99524 0
M  V30 8714 C 856.397 0.211007 3.12288 0
M  V30 8715 C 856.872 0.545851 4.54736 0
M  V30 8716 N 858.363 0.496823 4.60528 0
M  V30 8717 C 859.098 0.728909 5.68748 0
M  V30 8718 N 858.594 1.02479 6.85179 0
M  V30 8719 N 860.387 0.658756 5.58226 0
M  V30 8720 H 852.538 1.2141 1.7428 0
M  V30 8721 H 854.801 0.489404 0.811904 0
M  V30 8722 H 854.507 1.28316 3.27457 0
M  V30 8723 H 854.381 -0.401089 3.75061 0
M  V30 8724 H 856.768 -0.797172 2.84129 0
M  V30 8725 H 856.849 0.911799 2.38998 0
M  V30 8726 H 856.493 1.55164 4.83618 0
M  V30 8727 H 856.423 -0.17656 5.26304 0
M  V30 8728 H 858.914 0.277376 3.76881 0
M  V30 8729 H 859.227 1.18897 7.63599 0
M  V30 8730 H 857.572 1.0624 6.86832 0
M  V30 8731 H 860.763 0.427553 4.66143 0
M  V30 8732 H 860.936 0.84302 6.42493 0
M  V30 8733 N 854.342 -1.57594 -0.0133615 0
M  V30 8734 C 855.305 -2.06534 -0.993799 0
M  V30 8735 C 856.305 -0.972267 -1.28077 0
M  V30 8736 O 857.495 -1.23537 -1.22818 0
M  V30 8737 C 854.627 -2.49554 -2.3224 0
M  V30 8738 H 855.82 -2.94419 -0.570741 0
M  V30 8739 H 853.373 -1.54113 -0.260546 0
M  V30 8740 H 854.108 -1.64872 -2.79263 0
M  V30 8741 H 853.893 -3.29371 -2.12737 0
M  V30 8742 H 855.383 -2.8779 -3.026 0
M  V30 8743 N 855.82 0.285905 -1.54985 0
M  V30 8744 C 856.783 1.33625 -1.86218 0
M  V30 8745 C 857.783 1.42971 -0.735936 0
M  V30 8746 O 858.973 1.42345 -1.00417 0
M  V30 8747 C 856.105 2.71926 -2.05595 0
M  V30 8748 H 857.298 1.07167 -2.80099 0
M  V30 8749 H 854.851 0.523335 -1.47278 0
M  V30 8750 H 855.586 3.03583 -1.14053 0
M  V30 8751 H 855.371 2.6653 -2.87583 0
M  V30 8752 H 856.861 3.47841 -2.31077 0
M  V30 8753 N 857.298 1.47698 0.54982 0
M  V30 8754 C 858.714 1.3338 0.876468 0
M  V30 8755 C 858.914 0.329837 1.98782 0
M  V30 8756 O 857.97 -0.256022 2.51199 0
M  V30 8757 C 859.283 2.72903 1.26272 0
M  V30 8758 C 860.831 2.81243 1.37373 0
M  V30 8759 C 861.306 4.21423 1.79351 0
M  V30 8760 N 862.797 4.24 1.86489 0
M  V30 8761 C 863.532 5.29386 2.20313 0
M  V30 8762 N 863.028 6.4507 2.527 0
M  V30 8763 N 864.821 5.16768 2.2115 0
M  V30 8764 H 856.972 2.11603 -0.183781 0
M  V30 8765 H 859.235 0.947798 -0.0195601 0
M  V30 8766 H 858.941 3.47836 0.519889 0
M  V30 8767 H 858.815 3.05151 2.21727 0
M  V30 8768 H 861.202 2.06577 2.10737 0
M  V30 8769 H 861.283 2.52639 0.400882 0
M  V30 8770 H 860.927 4.96597 1.06555 0
M  V30 8771 H 860.857 4.47456 2.77652 0
M  V30 8772 H 863.348 3.40547 1.63817 0
M  V30 8773 H 863.661 7.21236 2.77557 0
M  V30 8774 H 862.006 6.48377 2.50263 0
M  V30 8775 H 865.197 4.25416 1.95293 0
M  V30 8776 H 865.37 5.99004 2.4718 0
M  V30 8777 N 858.776 -0.797141 1.35954 0
M  V30 8778 C 859.726 -1.89899 1.26184 0
M  V30 8779 C 860.71 -1.60152 0.155007 0
M  V30 8780 O 861.902 -1.72715 0.387108 0
M  V30 8781 C 859.031 -3.2699 1.04559 0
M  V30 8782 C 858.117 -3.62772 2.19675 0
M  V30 8783 N 858.508 -3.6992 3.44953 0
M  V30 8784 C 856.806 -3.92786 2.1127 0
M  V30 8785 C 857.507 -4.01718 4.20711 0
M  V30 8786 N 856.483 -4.16298 3.49567 0
M  V30 8787 H 860.285 -1.9364 2.2109 0
M  V30 8788 H 857.799 -0.992246 1.28562 0
M  V30 8789 H 859.796 -4.0578 0.956474 0
M  V30 8790 H 858.456 -3.24529 0.105467 0
M  V30 8791 H 859.467 -3.52759 3.79185 0
M  V30 8792 H 856.144 -3.98295 1.25168 0
M  V30 8793 H 857.534 -4.14237 5.29016 0
M  V30 8794 N 860.254 -1.20106 -1.0204 0
M  V30 8795 C 861.186 -0.904236 -2.10609 0
M  V30 8796 C 862.199 0.106487 -1.62451 0
M  V30 8797 O 863.388 -0.124035 -1.78069 0
M  V30 8798 C 860.488 -0.333423 -3.37256 0
M  V30 8799 C 859.661 -1.39476 -4.14566 0
M  V30 8800 C 858.72 -0.835961 -5.19517 0
M  V30 8801 O 857.746 -1.51573 -5.48648 0
M  V30 8802 N 858.948 0.356531 -5.79404 0
M  V30 8803 H 861.713 -1.8388 -2.36661 0
M  V30 8804 H 859.274 -1.10422 -1.184 0
M  V30 8805 H 861.266 0.0544571 -4.04663 0
M  V30 8806 H 859.836 0.505608 -3.08484 0
M  V30 8807 H 859.056 -1.95714 -3.42184 0
M  V30 8808 H 860.344 -2.10967 -4.63001 0
M  V30 8809 H 859.742 0.926143 -5.58067 0
M  V30 8810 H 858.299 0.686093 -6.48179 0
M  V30 8811 N 861.732 1.21287 -1.00634 0
M  V30 8812 C 862.96 1.94385 -0.708678 0
M  V30 8813 C 863.375 1.7416 0.728957 0
M  V30 8814 O 862.732 1.04906 1.49335 0
M  V30 8815 C 862.783 3.46755 -1.02193 0
M  V30 8816 O 862.504 3.6631 -2.40309 0
M  V30 8817 C 864.005 4.37014 -0.743867 0
M  V30 8818 H 861.225 0.618136 -0.261052 0
M  V30 8819 H 863.769 1.54067 -1.34475 0
M  V30 8820 H 861.924 3.8499 -0.431441 0
M  V30 8821 H 862.338 4.60393 -2.51274 0
M  V30 8822 H 863.812 5.42621 -1.01321 0
M  V30 8823 H 864.289 4.38017 0.322084 0
M  V30 8824 H 864.895 4.04426 -1.31603 0
M  V30 8825 N 863.21 0.781244 1.36873 0
M  V30 8826 C 864.142 0.132075 2.28819 0
M  V30 8827 C 865.155 -0.653925 1.49089 0
M  V30 8828 O 866.344 -0.490453 1.7163 0
M  V30 8829 C 863.444 -0.836297 3.28419 0
M  V30 8830 C 862.617 -0.102097 4.37281 0
M  V30 8831 C 861.676 -0.985217 5.16894 0
M  V30 8832 O 860.702 -0.445478 5.67454 0
M  V30 8833 N 861.904 -2.31043 5.3254 0
M  V30 8834 H 864.669 0.921838 2.85171 0
M  V30 8835 H 862.23 0.634427 1.48952 0
M  V30 8836 H 864.222 -1.43074 3.78566 0
M  V30 8837 H 862.792 -1.52698 2.72767 0
M  V30 8838 H 862.012 0.67335 3.88407 0
M  V30 8839 H 863.3 0.404862 5.07187 0
M  V30 8840 H 862.698 -2.77318 4.93063 0
M  V30 8841 H 861.255 -2.85472 5.8596 0
M  V30 8842 N 864.689 -1.48329 0.532571 0
M  V30 8843 C 865.914 -2.074 0.00147755 0
M  V30 8844 C 866.339 -1.38615 -1.27151 0
M  V30 8845 O 865.697 -0.452949 -1.75551 0
M  V30 8846 C 865.745 -3.60029 -0.202866 0
M  V30 8847 O 864.849 -3.92327 -1.27097 0
M  V30 8848 H 864.19 -0.662777 0.0402883 0
M  V30 8849 H 866.72 -1.90701 0.741224 0
M  V30 8850 H 866.73 -4.05783 -0.424722 0
M  V30 8851 H 865.405 -4.09496 0.727033 0
M  V30 8852 H 863.982 -3.58348 -1.03156 0
M  V30 8853 N 866.167 -0.267825 -1.55308 0
M  V30 8854 C 867.415 0.350343 -1.9904 0
M  V30 8855 C 867.736 1.56924 -1.15758 0
M  V30 8856 O 867.006 1.94358 -0.245336 0
M  V30 8857 H 865.586 0.132435 -0.735167 0
M  V30 8858 H 868.248 -0.371471 -1.91327 0
M  V30 8859 H 867.344 0.645203 -3.05358 0
M  V30 8860 N 867.645 1.57599 0.00500368 0
M  V30 8861 C 868.87 1.95026 0.705663 0
M  V30 8862 C 869.295 0.869643 1.6679 0
M  V30 8863 O 868.653 -0.172659 1.80476 0
M  V30 8864 C 868.701 3.31545 1.4181 0
M  V30 8865 O 867.805 3.25495 2.53232 0
M  V30 8866 H 867.146 0.636808 0.188074 0
M  V30 8867 H 869.676 2.04547 -0.046696 0
M  V30 8868 H 869.686 3.66996 1.78265 0
M  V30 8869 H 868.361 4.09751 0.712543 0
M  V30 8870 H 866.938 3.01714 2.19142 0
M  V30 8871 N 869.123 -0.277682 1.55134 0
M  V30 8872 C 870.086 -1.32635 1.86924 0
M  V30 8873 C 871.086 -1.42578 0.743507 0
M  V30 8874 O 872.276 -1.4181 1.01171 0
M  V30 8875 C 869.408 -2.70832 2.07034 0
M  V30 8876 H 870.601 -1.0568 2.80663 0
M  V30 8877 H 868.154 -0.515517 1.47554 0
M  V30 8878 H 868.889 -3.02974 1.15661 0
M  V30 8879 H 868.674 -2.65001 2.88993 0
M  V30 8880 H 870.164 -3.46611 2.32918 0
M  V30 8881 N 870.601 -1.47988 -0.541979 0
M  V30 8882 C 871.829 -1.59034 -1.32347 0
M  V30 8883 C 872.244 -0.246123 -1.87189 0
M  V30 8884 O 871.601 0.762889 -1.6579 0
M  V30 8885 C 871.652 -2.62759 -2.48274 0
M  V30 8886 O 871.373 -3.91963 -1.95695 0
M  V30 8887 C 872.874 -2.84133 -3.4027 0
M  V30 8888 H 870.094 -0.536574 -0.402901 0
M  V30 8889 H 872.638 -1.93725 -0.655045 0
M  V30 8890 H 870.793 -2.3096 -3.11025 0
M  V30 8891 H 871.207 -4.48769 -2.7149 0
M  V30 8892 H 872.681 -3.60538 -4.17991 0
M  V30 8893 H 873.158 -1.92512 -3.9476 0
M  V30 8894 H 873.764 -3.17188 -2.83322 0
M  V30 8895 N 872.079 0.78992 -1.36375 0
M  V30 8896 C 873.356 1.53584 -1.21126 0
M  V30 8897 C 873.736 2.10124 0.202785 0
M  V30 8898 O 873.084 1.93936 1.20835 0
M  V30 8899 C 873.294 2.63117 -2.29282 0
M  V30 8900 C 874.642 3.31013 -2.65924 0
M  V30 8901 O 875.666 2.734 -2.28321 0
M  V30 8902 O 874.525 4.35129 -3.30643 0
M  V30 8903 H 871.619 0.679366 -0.471583 0
M  V30 8904 H 874.165 0.828446 -1.48104 0
M  V30 8905 H 872.937 2.19329 -3.24053 0
M  V30 8906 H 872.56 3.41476 -2.03666 0
M  V30 8907 N 873.557 1.20646 1.01402 0
M  V30 8908 C 874.803 1.02974 1.75408 0
M  V30 8909 C 875.158 -0.433294 1.87458 0
M  V30 8910 O 874.451 -1.31741 1.39122 0
M  V30 8911 C 874.645 1.64991 3.17037 0
M  V30 8912 C 874.474 3.17174 3.18796 0
M  V30 8913 C 873.244 3.86165 3.2589 0
M  V30 8914 C 875.442 4.14369 3.04636 0
M  V30 8915 N 873.424 5.25614 3.1718 0
M  V30 8916 C 874.795 5.4051 3.03724 0
M  V30 8917 C 876.85 4.05534 2.88872 0
M  V30 8918 C 875.553 6.58836 2.88664 0
M  V30 8919 C 877.579 5.23486 2.75166 0
M  V30 8920 C 876.941 6.48535 2.74922 0
M  V30 8921 H 873.04 0.431068 0.65246 0
M  V30 8922 H 875.624 1.52858 1.20593 0
M  V30 8923 H 873.795 1.17688 3.70141 0
M  V30 8924 H 875.527 1.40612 3.79487 0
M  V30 8925 H 872.282 3.37038 3.32719 0
M  V30 8926 H 872.706 5.98625 3.16192 0
M  V30 8927 H 877.348 3.09661 2.87872 0
M  V30 8928 H 875.066 7.5488 2.88413 0
M  V30 8929 H 878.652 5.18464 2.63982 0
M  V30 8930 H 877.532 7.3827 2.64439 0
M  V30 8931 N 875.035 -1.20752 1.01276 0
M  V30 8932 C 876.281 -1.90302 0.700924 0
M  V30 8933 C 876.614 -1.78406 -0.767142 0
M  V30 8934 O 875.889 -1.16575 -1.55694 0
M  V30 8935 C 876.172 -3.41831 1.13242 0
M  V30 8936 C 876.025 -3.6268 2.66051 0
M  V30 8937 C 877.344 -4.34486 0.700738 0
M  V30 8938 H 874.463 -0.69107 0.256107 0
M  V30 8939 H 877.105 -1.42227 1.25982 0
M  V30 8940 H 875.255 -3.82906 0.656902 0
M  V30 8941 H 876.927 -3.30882 3.21426 0
M  V30 8942 H 875.17 -3.06281 3.07204 0
M  V30 8943 H 875.841 -4.68882 2.91296 0
M  V30 8944 H 878.317 -4.01036 1.10948 0
M  V30 8945 H 877.193 -5.39136 1.03073 0
M  V30 8946 H 877.454 -4.40307 -0.39778 0
M  V30 8947 N 876.513 -0.788492 -1.36457 0
M  V30 8948 C 877.445 -0.144208 -2.28746 0
M  V30 8949 C 878.458 0.646009 -1.49434 0
M  V30 8950 O 879.647 0.481344 -1.71888 0
M  V30 8951 C 876.747 0.818869 -3.28858 0
M  V30 8952 C 875.92 0.0789055 -4.37329 0
M  V30 8953 C 874.979 0.957791 -5.1741 0
M  V30 8954 O 874.005 0.415378 -5.67682 0
M  V30 8955 N 875.207 2.28216 -5.33758 0
M  V30 8956 H 877.972 -0.936949 -2.84678 0
M  V30 8957 H 875.533 -0.642317 -1.48613 0
M  V30 8958 H 877.525 1.41065 -3.79319 0
M  V30 8959 H 876.095 1.51249 -2.73573 0
M  V30 8960 H 875.315 -0.693939 -3.88044 0
M  V30 8961 H 876.603 -0.431753 -5.06965 0
M  V30 8962 H 876.001 2.747 -4.94527 0
M  V30 8963 H 874.558 2.8236 -5.87466 0
M  V30 8964 N 877.991 1.48044 -0.54043 0
M  V30 8965 C 879.237 2.02797 -0.0101718 0
M  V30 8966 C 879.57 1.41565 1.32939 0
M  V30 8967 O 878.845 0.565139 1.86109 0
M  V30 8968 C 879.128 3.59959 0.100758 0
M  V30 8969 C 878.981 4.31654 -1.26471 0
M  V30 8970 C 880.3 4.32347 0.822455 0
M  V30 8971 H 877.419 0.736982 -0.00517052 0
M  V30 8972 H 880.061 1.76656 -0.69948 0
M  V30 8973 H 878.211 3.82363 0.687824 0
M  V30 8974 H 879.883 4.20639 -1.89369 0
M  V30 8975 H 878.126 3.92663 -1.84386 0
M  V30 8976 H 878.797 5.401 -1.13998 0
M  V30 8977 H 881.273 4.14835 0.324164 0
M  V30 8978 H 880.149 5.41978 0.868993 0
M  V30 8979 H 880.41 4.00369 1.87501 0
M  V30 8980 N 879.47 0.276058 1.55163 0
M  V30 8981 C 880.886 -0.0780579 1.59409 0
M  V30 8982 C 881.086 -1.54521 1.29327 0
M  V30 8983 O 880.142 -2.29422 1.05459 0
M  V30 8984 C 881.455 0.297422 2.99225 0
M  V30 8985 C 883.003 0.244117 3.12047 0
M  V30 8986 C 883.478 0.594051 4.54131 0
M  V30 8987 N 884.969 0.54564 4.59975 0
M  V30 8988 C 885.704 0.789192 5.67943 0
M  V30 8989 N 885.2 1.09741 6.84053 0
M  V30 8990 N 886.993 0.717926 5.57496 0
M  V30 8991 H 879.144 1.23251 1.72982 0
M  V30 8992 H 881.407 0.497988 0.806667 0
M  V30 8993 H 881.113 1.31782 3.26077 0
M  V30 8994 H 880.987 -0.361286 3.75466 0
M  V30 8995 H 883.374 -0.766992 2.84958 0
M  V30 8996 H 883.455 0.937097 2.38017 0
M  V30 8997 H 883.099 1.60285 4.81945 0
M  V30 8998 H 883.029 -0.120728 5.26462 0
M  V30 8999 H 885.52 0.317334 3.76565 0
M  V30 9000 H 885.833 1.26989 7.62295 0
M  V30 9001 H 884.178 1.13519 6.85666 0
M  V30 9002 H 887.369 0.47697 4.65664 0
M  V30 9003 H 887.542 0.911118 6.41563 0
M  V30 9004 N 880.948 -1.576 0.00335426 0
M  V30 9005 C 882.225 -1.81945 -0.718015 0
M  V30 9006 C 882.605 -0.881788 -1.91801 0
M  V30 9007 O 881.953 0.0687118 -2.28397 0
M  V30 9008 C 882.163 -3.30521 -1.12058 0
M  V30 9009 C 883.511 -3.96345 -1.52303 0
M  V30 9010 O 884.535 -3.34864 -1.21428 0
M  V30 9011 O 883.394 -5.04655 -2.09728 0
M  V30 9012 H 880.488 -0.749328 -0.34991 0
M  V30 9013 H 883.034 -1.69675 0.0290654 0
M  V30 9014 H 881.806 -3.90399 -0.265378 0
M  V30 9015 H 881.429 -3.47802 -1.92665 0
M  V30 9016 N 882.426 0.269451 -1.5528 0
M  V30 9017 C 883.654 1.01872 -1.80082 0
M  V30 9018 C 884.069 1.79802 -0.575917 0
M  V30 9019 O 883.426 1.76735 0.455081 0
M  V30 9020 C 883.477 1.9745 -3.02813 0
M  V30 9021 O 883.198 1.22677 -4.20573 0
M  V30 9022 C 884.699 2.8416 -3.40247 0
M  V30 9023 H 881.919 0.300781 -0.59981 0
M  V30 9024 H 884.463 0.29916 -2.023 0
M  V30 9025 H 882.618 2.64864 -2.82712 0
M  V30 9026 H 883.032 1.87129 -4.89982 0
M  V30 9027 H 884.506 3.47014 -4.29284 0
M  V30 9028 H 884.983 3.54113 -2.59809 0
M  V30 9029 H 885.589 2.22232 -3.6262 0
M  V30 9030 N 883.904 1.48273 0.534124 0
M  V30 9031 C 885.132 1.59734 1.31501 0
M  V30 9032 C 885.547 0.256047 1.87056 0
M  V30 9033 O 884.904 -0.754086 1.66192 0
M  V30 9034 C 884.955 2.64072 2.46877 0
M  V30 9035 O 884.676 3.92995 1.93613 0
M  V30 9036 C 886.177 2.85933 3.38758 0
M  V30 9037 H 883.397 0.538703 0.40005 0
M  V30 9038 H 885.941 1.9407 0.644762 0
M  V30 9039 H 884.096 2.32606 3.09795 0
M  V30 9040 H 884.51 4.50203 2.69106 0
M  V30 9041 H 885.984 3.62749 4.16073 0
M  V30 9042 H 886.461 1.94603 3.93734 0
M  V30 9043 H 887.067 3.18687 2.81636 0
M  V30 9044 N 885.382 -0.782676 1.36792 0
M  V30 9045 C 886.63 -1.53778 1.31136 0
M  V30 9046 C 886.951 -1.94706 -0.107014 0
M  V30 9047 O 886.221 -1.65465 -1.04872 0
M  V30 9048 H 884.801 -0.570328 0.482426 0
M  V30 9049 H 887.463 -0.932181 1.71162 0
M  V30 9050 H 886.559 -2.44224 1.94321 0
M  V30 9051 N 886.86 -1.21182 -1.00761 0
M  V30 9052 C 888.108 -1.02543 -1.74153 0
M  V30 9053 C 888.429 0.442372 -1.89916 0
M  V30 9054 O 887.699 1.31927 -1.44818 0
M  V30 9055 H 886.279 -0.37644 -0.645214 0
M  V30 9056 H 888.941 -1.52446 -1.21434 0
M  V30 9057 H 888.037 -1.49122 -2.7417 0
M  V30 9058 N 888.338 1.20213 -1.01915 0
M  V30 9059 C 889.566 1.93622 -0.729255 0
M  V30 9060 C 889.981 1.74923 0.710444 0
M  V30 9061 O 889.338 1.06484 1.48214 0
M  V30 9062 C 889.389 3.45651 -1.05865 0
M  V30 9063 O 889.11 3.63741 -2.44181 0
M  V30 9064 C 890.611 4.36201 -0.790176 0
M  V30 9065 H 887.831 0.615333 -0.267594 0
M  V30 9066 H 890.375 1.52633 -1.36101 0
M  V30 9067 H 888.53 3.84511 -0.47225 0
M  V30 9068 H 888.944 4.57702 -2.56143 0
M  V30 9069 H 890.418 5.41516 -1.07071 0
M  V30 9070 H 890.895 4.38334 0.275609 0
M  V30 9071 H 891.501 4.03008 -1.35885 0
M  V30 9072 N 889.816 0.795718 1.36037 0
M  V30 9073 C 891.056 0.376514 2.00902 0
M  V30 9074 C 891.42 -1.03405 1.61776 0
M  V30 9075 O 892.621 -1.55468 2.19279 0
M  V30 9076 C 890.892 0.542086 3.53265 0
M  V30 9077 S 892.451 0.211694 4.38289 0
M  V30 9078 H 889.269 0.143527 0.696363 0
M  V30 9079 H 891.871 1.03559 1.65819 0
M  V30 9080 H 890.575 1.56888 3.79229 0
M  V30 9081 H 890.106 -0.132698 3.93176 0
M  V30 9082 H 892.121 -0.98452 4.86335 0
M  V30 9083 N 891.294 -1.47756 0.548274 0
M  V30 9084 C 892.534 -2.04387 0.0231354 0
M  V30 9085 C 892.898 -1.41438 -1.29843 0
M  V30 9086 O 894.099 -1.89064 -1.91072 0
M  V30 9087 C 892.37 -3.57316 -0.077482 0
M  V30 9088 S 893.929 -4.35339 -0.550038 0
M  V30 9089 H 890.747 -0.710694 0.0208428 0
M  V30 9090 H 893.349 -1.81239 0.732984 0
M  V30 9091 H 892.053 -4.00658 0.88888 0
M  V30 9092 H 891.584 -3.84947 -0.811157 0
M  V30 9093 H 893.599 -4.61957 -1.81135 0
M  V30 9094 N 892.772 -0.284283 -1.55015 0
M  V30 9095 C 894.021 0.33055 -1.98973 0
M  V30 9096 C 894.334 1.56284 -1.17621 0
M  V30 9097 O 895.54 2.2512 -1.51767 0
M  V30 9098 C 893.996 0.639457 -3.54174 0
M  V30 9099 C 893.604 -0.573543 -4.44313 0
M  V30 9100 C 895.348 1.21641 -4.06699 0
M  V30 9101 C 893.255 -0.238715 -5.90918 0
M  V30 9102 H 892.185 0.127285 -0.743179 0
M  V30 9103 H 894.836 -0.390372 -1.793 0
M  V30 9104 H 893.218 1.41953 -3.69683 0
M  V30 9105 H 894.392 -1.3502 -4.40575 0
M  V30 9106 H 892.707 -1.06797 -4.02472 0
M  V30 9107 H 895.304 1.48088 -5.13784 0
M  V30 9108 H 895.647 2.15328 -3.56286 0
M  V30 9109 H 896.18 0.498422 -3.94665 0
M  V30 9110 H 892.919 -1.1437 -6.45445 0
M  V30 9111 H 892.439 0.500997 -5.97704 0
M  V30 9112 H 894.118 0.165774 -6.46788 0
M  V30 9113 N 894.251 1.57596 -0.0117121 0
M  V30 9114 C 895.499 1.90694 0.669342 0
M  V30 9115 C 895.82 0.886999 1.73659 0
M  V30 9116 O 895.09 -0.0739779 1.9576 0
M  V30 9117 H 893.67 0.703846 0.250219 0
M  V30 9118 H 896.332 1.94821 -0.0554057 0
M  V30 9119 H 895.428 2.90802 1.13316 0
M  V30 9120 N 895.729 -0.261212 1.5542 0
M  V30 9121 C 896.659 -1.32712 1.92119 0
M  V30 9122 C 897.64 -1.50934 0.784406 0
M  V30 9123 O 898.825 -1.63781 1.04352 0
M  V30 9124 C 895.955 -2.68453 2.20341 0
M  V30 9125 C 894.909 -2.64947 3.36136 0
M  V30 9126 C 894.235 -4.04349 3.49865 0
M  V30 9127 C 895.535 -2.23182 4.72215 0
M  V30 9128 H 897.229 -1.02245 2.81401 0
M  V30 9129 H 894.775 -0.490406 1.35392 0
M  V30 9130 H 896.728 -3.43144 2.44603 0
M  V30 9131 H 895.452 -3.00527 1.27871 0
M  V30 9132 H 894.111 -1.92714 3.11861 0
M  V30 9133 H 893.759 -4.33665 2.5484 0
M  V30 9134 H 893.459 -4.02895 4.27726 0
M  V30 9135 H 894.983 -4.80761 3.76432 0
M  V30 9136 H 896.397 -2.87599 4.95943 0
M  V30 9137 H 894.794 -2.32867 5.53076 0
M  V30 9138 H 895.864 -1.18327 4.70241 0
M  V30 9139 N 897.207 -1.48554 -0.526253 0
M  V30 9140 C 898.453 -1.57972 -1.28127 0
M  V30 9141 C 898.808 -0.251973 -1.90743 0
M  V30 9142 O 898.101 0.745524 -1.76501 0
M  V30 9143 C 898.295 -2.65739 -2.38993 0
M  V30 9144 C 898.124 -4.08864 -1.87244 0
M  V30 9145 C 896.894 -4.75959 -1.6968 0
M  V30 9146 C 899.092 -4.94912 -1.39882 0
M  V30 9147 N 897.074 -6.03486 -1.12596 0
M  V30 9148 C 898.445 -6.12714 -0.947696 0
M  V30 9149 C 900.5 -4.81107 -1.2822 0
M  V30 9150 C 899.203 -7.18234 -0.391507 0
M  V30 9151 C 901.229 -5.86752 -0.740001 0
M  V30 9152 C 900.591 -7.03765 -0.298968 0
M  V30 9153 H 896.69 -0.632588 -0.459735 0
M  V30 9154 H 899.274 -1.85452 -0.59294 0
M  V30 9155 H 897.445 -2.40075 -3.05317 0
M  V30 9156 H 899.177 -2.64821 -3.06026 0
M  V30 9157 H 895.932 -4.32351 -1.93312 0
M  V30 9158 H 896.356 -6.71509 -0.860541 0
M  V30 9159 H 900.998 -3.90978 -1.60922 0
M  V30 9160 H 898.716 -8.08083 -0.0521685 0
M  V30 9161 H 902.302 -5.78125 -0.652889 0
M  V30 9162 H 901.182 -7.84117 0.114052 0
M  V30 9163 N 898.685 0.775411 -1.37205 0
M  V30 9164 C 899.933 1.53081 -1.3195 0
M  V30 9165 C 900.254 1.9476 0.0966864 0
M  V30 9166 O 899.524 1.66019 1.03993 0
M  V30 9167 H 898.104 0.567762 -0.485444 0
M  V30 9168 H 900.766 0.92309 -1.71654 0
M  V30 9169 H 899.862 2.4319 -1.95614 0
M  V30 9170 N 900.163 1.21714 1.00117 0
M  V30 9171 C 901.574 1.03477 1.55401 0
M  V30 9172 C 901.925 -0.40429 1.91989 0
M  V30 9173 O 901.05 -1.28807 1.7389 0
M  V30 9174 C 901.645 1.87213 2.82377 0
M  V30 9175 C 900.204 1.73297 3.34133 0
M  V30 9176 C 899.351 1.84189 2.07291 0
M  V30 9177 H 902.302 1.3568 0.823195 0
M  V30 9178 H 902.323 1.38465 3.54412 0
M  V30 9179 H 901.835 2.91944 2.55715 0
M  V30 9180 H 899.936 0.712662 3.65721 0
M  V30 9181 H 900.049 2.55486 4.05294 0
M  V30 9182 H 898.413 1.27538 2.20468 0
M  V30 9183 H 899.196 2.90435 1.83037 0
M  V30 9184 N 901.641 -1.19671 1.02551 0
M  V30 9185 C 902.571 -2.25009 0.623965 0
M  V30 9186 C 903.552 -1.66129 -0.36538 0
M  V30 9187 O 904.737 -1.92599 -0.248842 0
M  V30 9188 C 901.867 -3.47287 -0.0294869 0
M  V30 9189 C 900.821 -4.18818 0.881781 0
M  V30 9190 C 900.147 -5.34618 0.0936189 0
M  V30 9191 C 901.447 -4.73986 2.19396 0
M  V30 9192 H 903.141 -2.58851 1.50454 0
M  V30 9193 H 900.687 -1.24425 0.724872 0
M  V30 9194 H 902.64 -4.20168 -0.322016 0
M  V30 9195 H 901.364 -3.12635 -0.944838 0
M  V30 9196 H 900.023 -3.47815 1.15845 0
M  V30 9197 H 899.671 -4.9621 -0.823661 0
M  V30 9198 H 899.371 -5.83409 0.700568 0
M  V30 9199 H 900.895 -6.10297 -0.192249 0
M  V30 9200 H 902.309 -5.38639 1.96319 0
M  V30 9201 H 900.706 -5.3325 2.75254 0
M  V30 9202 H 901.776 -3.92238 2.85092 0
M  V30 9203 N 903.119 -0.802921 -1.35613 0
M  V30 9204 C 904.082 -0.216422 -2.28176 0
M  V30 9205 C 905.082 0.594101 -1.49422 0
M  V30 9206 O 906.272 0.41312 -1.6923 0
M  V30 9207 C 903.404 0.698746 -3.33662 0
M  V30 9208 H 904.597 -1.03276 -2.81557 0
M  V30 9209 H 902.15 -0.573307 -1.45406 0
M  V30 9210 H 902.885 1.53891 -2.85461 0
M  V30 9211 H 902.67 0.119314 -3.91918 0
M  V30 9212 H 904.16 1.10354 -4.02755 0
M  V30 9213 N 904.597 1.47463 -0.556102 0
M  V30 9214 C 906.013 1.58134 -0.21579 0
M  V30 9215 C 906.213 1.55486 1.28166 0
M  V30 9216 O 905.269 1.45768 2.06174 0
M  V30 9217 C 906.582 2.88686 -0.841464 0
M  V30 9218 C 908.13 3.02268 -0.812591 0
M  V30 9219 C 908.605 4.35518 -1.41731 0
M  V30 9220 N 910.096 4.42151 -1.38045 0
M  V30 9221 C 910.831 5.43817 -1.81799 0
M  V30 9222 N 910.327 6.52299 -2.33404 0
M  V30 9223 N 912.12 5.34855 -1.72877 0
M  V30 9224 H 904.271 1.47428 -1.52901 0
M  V30 9225 H 906.534 0.701586 -0.637559 0
M  V30 9226 H 906.24 2.96358 -1.8938 0
M  V30 9227 H 906.114 3.7572 -0.333846 0
M  V30 9228 H 908.501 2.94194 0.231056 0
M  V30 9229 H 908.582 2.16779 -1.35796 0
M  V30 9230 H 908.226 4.44348 -2.46002 0
M  V30 9231 H 908.156 5.19737 -0.847402 0
M  V30 9232 H 910.647 3.64348 -1.00296 0
M  V30 9233 H 910.96 7.26047 -2.64717 0
M  V30 9234 H 909.305 6.53192 -2.37414 0
M  V30 9235 H 912.496 4.49004 -1.32338 0
M  V30 9236 H 912.669 6.13949 -2.07294 0
M  V30 9237 N 906.075 0.2925 1.54862 0
M  V30 9238 C 907.352 -0.371946 1.92031 0
M  V30 9239 C 907.732 -1.72363 1.21878 0
M  V30 9240 O 907.08 -2.25779 0.351573 0
M  V30 9241 C 907.29 -0.495027 3.45471 0
M  V30 9242 C 908.638 -0.769855 4.17562 0
M  V30 9243 O 909.662 -0.579168 3.5146 0
M  V30 9244 O 908.521 -1.13561 5.34571 0
M  V30 9245 H 905.615 -0.206463 0.800813 0
M  V30 9246 H 908.161 0.339933 1.6626 0
M  V30 9247 H 906.933 0.455528 3.88639 0
M  V30 9248 H 906.556 -1.2557 3.7725 0
M  V30 9249 N 907.553 -1.57587 0.0200696 0
M  V30 9250 C 908.483 -2.12702 -0.963333 0
M  V30 9251 C 909.464 -1.04094 -1.34531 0
M  V30 9252 O 910.649 -1.31881 -1.42552 0
M  V30 9253 C 907.779 -2.64673 -2.24868 0
M  V30 9254 C 906.733 -3.77987 -2.00772 0
M  V30 9255 C 906.059 -4.16351 -3.35494 0
M  V30 9256 C 907.359 -5.0444 -1.35416 0
M  V30 9257 H 909.053 -2.95121 -0.504363 0
M  V30 9258 H 906.599 -1.41966 -0.24116 0
M  V30 9259 H 908.552 -3.01862 -2.94036 0
M  V30 9260 H 907.276 -1.79403 -2.72914 0
M  V30 9261 H 905.935 -3.41223 -1.34025 0
M  V30 9262 H 905.583 -3.28075 -3.81282 0
M  V30 9263 H 905.283 -4.92705 -3.20181 0
M  V30 9264 H 906.807 -4.56115 -4.05945 0
M  V30 9265 H 908.221 -5.39273 -1.94571 0
M  V30 9266 H 906.618 -5.85732 -1.30529 0
M  V30 9267 H 907.688 -4.83803 -0.325923 0
M  V30 9268 N 909.032 0.252966 -1.55557 0
M  V30 9269 C 910.278 0.983306 -1.77367 0
M  V30 9270 C 910.611 1.85203 -0.584258 0
M  V30 9271 O 909.886 1.89963 0.417644 0
M  V30 9272 C 910.169 1.84896 -3.09007 0
M  V30 9273 C 910.022 1.00883 -4.38341 0
M  V30 9274 C 911.341 2.83254 -3.36831 0
M  V30 9275 H 908.46 0.356056 -0.645286 0
M  V30 9276 H 911.102 0.254232 -1.88291 0
M  V30 9277 H 909.252 2.47058 -2.99825 0
M  V30 9278 H 910.924 0.40638 -4.59507 0
M  V30 9279 H 909.167 0.31297 -4.3267 0
M  V30 9280 H 909.838 1.64818 -5.2682 0
M  V30 9281 H 912.314 2.31228 -3.45937 0
M  V30 9282 H 911.19 3.40949 -4.30169 0
M  V30 9283 H 911.451 3.59407 -2.57447 0
M  V30 9284 N 910.51 1.48831 0.518367 0
M  V30 9285 C 911.735 1.61379 1.30275 0
M  V30 9286 C 912.16 0.278571 1.86026 0
M  V30 9287 O 911.518 -0.751427 1.64995 0
M  V30 9288 C 911.566 2.67225 2.42122 0
M  V30 9289 O 910.67 2.25192 3.45489 0
M  V30 9290 H 910.011 0.540742 0.385349 0
M  V30 9291 H 912.541 1.949 0.622498 0
M  V30 9292 H 912.551 2.88859 2.8814 0
M  V30 9293 H 911.226 3.64155 2.00907 0
M  V30 9294 H 909.803 2.13819 3.05509 0
M  V30 9295 N 911.988 -0.768124 1.37614 0
M  V30 9296 C 912.935 -1.88151 1.33671 0
M  V30 9297 C 913.905 -1.64871 0.201645 0
M  V30 9298 O 915.09 -1.86739 0.391582 0
M  V30 9299 C 912.23 -3.25264 1.15314 0
M  V30 9300 C 911.343 -3.60473 2.38082 0
M  V30 9301 C 910.478 -4.86814 2.12569 0
M  V30 9302 C 909.517 -5.14765 3.31184 0
M  V30 9303 N 908.654 -6.32295 3.052 0
M  V30 9304 H 913.494 -1.90857 2.28862 0
M  V30 9305 H 911.031 -0.933048 1.13722 0
M  V30 9306 H 912.989 -4.04364 1.02691 0
M  V30 9307 H 911.619 -3.21924 0.237689 0
M  V30 9308 H 910.671 -2.7633 2.61431 0
M  V30 9309 H 911.983 -3.77065 3.26532 0
M  V30 9310 H 911.137 -5.73826 1.96999 0
M  V30 9311 H 909.876 -4.72333 1.21462 0
M  V30 9312 H 908.881 -4.26227 3.4729 0
M  V30 9313 H 910.106 -5.31153 4.23147 0
M  V30 9314 H 908.052 -6.19166 2.16726 0
M  V30 9315 H 907.969 -6.4932 3.87195 0
M  V30 9316 H 909.237 -7.22234 2.93254 0
M  V30 9317 N 913.466 -1.22244 -0.994698 0
M  V30 9318 C 914.712 -1.04746 -1.73655 0
M  V30 9319 C 915.045 0.41668 -1.89677 0
M  V30 9320 O 914.32 1.30897 -1.43862 0
M  V30 9321 C 914.603 -1.75716 -3.14318 0
M  V30 9322 C 914.456 -3.29714 -3.05955 0
M  V30 9323 C 915.775 -1.50809 -4.13455 0
M  V30 9324 H 912.894 -0.381921 -0.630322 0
M  V30 9325 H 915.536 -1.50559 -1.15897 0
M  V30 9326 H 913.686 -1.3677 -3.63629 0
M  V30 9327 H 915.358 -3.78093 -2.64279 0
M  V30 9328 H 913.601 -3.59484 -2.42804 0
M  V30 9329 H 914.272 -3.74547 -4.05485 0
M  V30 9330 H 916.748 -1.84636 -3.72892 0
M  V30 9331 H 915.624 -2.02964 -5.09997 0
M  V30 9332 H 915.885 -0.440292 -4.39902 0
M  V30 9333 N 914.944 1.19125 -1.03184 0
M  V30 9334 C 916.169 1.93379 -0.749628 0
M  V30 9335 C 916.594 1.75153 0.685785 0
M  V30 9336 O 915.952 1.05579 1.47386 0
M  V30 9337 C 916 3.43101 -1.1097 0
M  V30 9338 O 915.104 4.11758 -0.230053 0
M  V30 9339 H 914.445 0.603605 -0.276689 0
M  V30 9340 H 916.975 1.51116 -1.37931 0
M  V30 9341 H 916.985 3.93778 -1.06785 0
M  V30 9342 H 915.66 3.55688 -2.15544 0
M  V30 9343 H 914.237 3.7143 -0.330748 0
M  V30 9344 N 916.422 0.810101 1.35185 0
M  V30 9345 C 917.699 0.315235 1.93043 0
M  V30 9346 C 918.079 -1.19567 1.73974 0
M  V30 9347 O 917.427 -1.99682 1.11083 0
M  V30 9348 C 917.637 0.730492 3.41269 0
M  V30 9349 C 918.985 0.721985 4.18417 0
M  V30 9350 O 920.009 0.672258 3.49799 0
M  V30 9351 O 918.868 0.783535 5.40854 0
M  V30 9352 H 915.962 0.0832774 0.822796 0
M  V30 9353 H 918.508 0.894034 1.4424 0
M  V30 9354 H 917.28 1.77169 3.48894 0
M  V30 9355 H 916.903 0.12669 3.97398 0
M  V30 9356 N 917.9 -1.47166 0.563914 0
M  V30 9357 C 919.177 -1.95586 -0.0236172 0
M  V30 9358 C 919.557 -1.50655 -1.47872 0
M  V30 9359 O 918.905 -0.748479 -2.15894 0
M  V30 9360 C 919.115 -3.48762 0.128841 0
M  V30 9361 C 920.463 -4.24598 -0.0130544 0
M  V30 9362 O 921.487 -3.56155 0.0567242 0
M  V30 9363 O 920.346 -5.46253 -0.164332 0
M  V30 9364 H 917.44 -0.824793 -0.0603789 0
M  V30 9365 H 919.986 -1.57536 0.63091 0
M  V30 9366 H 918.758 -3.74291 1.14113 0
M  V30 9367 H 918.381 -3.93594 -0.56299 0
M  V30 9368 N 919.378 -0.300708 -1.54705 0
M  V30 9369 C 920.655 0.361757 -1.92226 0
M  V30 9370 C 921.035 1.71714 -1.2279 0
M  V30 9371 O 920.383 2.2559 -0.363542 0
M  V30 9372 C 920.593 0.476699 -3.45729 0
M  V30 9373 C 921.941 0.7477 -4.17965 0
M  V30 9374 O 922.965 0.560521 -3.51762 0
M  V30 9375 O 921.824 1.10724 -5.35166 0
M  V30 9376 H 918.918 0.202213 -0.801897 0
M  V30 9377 H 921.464 -0.348746 -1.66078 0
M  V30 9378 H 920.236 -0.476132 -3.88392 0
M  V30 9379 H 919.859 1.23568 -3.77911 0
M  V30 9380 N 920.856 1.57574 -0.0284266 0
M  V30 9381 C 922.103 1.91772 0.650364 0
M  V30 9382 C 922.431 0.904769 1.72175 0
M  V30 9383 O 921.686 -0.0864038 1.95509 0
M  V30 9384 C 921.985 3.32699 1.3056 0
M  V30 9385 C 921.651 4.49423 0.364658 0
M  V30 9386 C 920.313 4.81084 0.105672 0
M  V30 9387 C 922.665 5.20439 -0.28151 0
M  V30 9388 C 919.993 5.81119 -0.8073 0
M  V30 9389 C 922.345 6.21449 -1.18253 0
M  V30 9390 C 921.009 6.51551 -1.45042 0
M  V30 9391 H 920.279 0.701744 0.237985 0
M  V30 9392 H 922.926 1.91288 -0.0900448 0
M  V30 9393 H 921.231 3.29441 2.12075 0
M  V30 9394 H 922.928 3.5643 1.83736 0
M  V30 9395 H 919.518 4.24703 0.576692 0
M  V30 9396 H 923.702 4.9621 -0.0944806 0
M  V30 9397 H 918.958 6.02788 -1.02256 0
M  V30 9398 H 923.132 6.75597 -1.68942 0
M  V30 9399 H 920.759 7.28882 -2.15951 0
M  V30 9400 N 922.334 -0.244713 1.55689 0
M  V30 9401 C 923.562 -0.989944 1.8168 0
M  V30 9402 C 923.977 -1.78863 0.604449 0
M  V30 9403 O 923.334 -1.77437 -0.426907 0
M  V30 9404 C 923.385 -1.92607 3.05916 0
M  V30 9405 O 923.106 -1.1597 4.22472 0
M  V30 9406 C 924.607 -2.78711 3.44724 0
M  V30 9407 H 921.827 -0.2912 0.604519 0
M  V30 9408 H 924.371 -0.266938 2.0275 0
M  V30 9409 H 922.526 -2.60333 2.8689 0
M  V30 9410 H 922.94 -1.79311 4.92898 0
M  V30 9411 H 924.414 -3.40141 4.34751 0
M  V30 9412 H 924.891 -3.49935 2.6541 0
M  V30 9413 H 925.497 -2.16435 3.66109 0
M  V30 9414 N 923.813 -1.49104 -0.510467 0
M  V30 9415 C 924.761 -1.65547 -1.63392 0
M  V30 9416 C 925.755 -0.521522 -1.61172 0
M  V30 9417 O 926.961 -0.700865 -1.65795 0
M  V30 9418 H 923.336 -0.521843 -0.541464 0
M  V30 9419 H 925.307 -2.59864 -1.46673 0
M  V30 9420 C 924.056 -1.73051 -3.01577 0
M  V30 9421 H 923.379 -2.59676 -3.03987 0
M  V30 9422 H 924.819 -1.88594 -3.79748 0
M  V30 9423 C 923.278 -0.47328 -3.33559 0
M  V30 9424 O 923.808 0.405239 -3.99651 0
M  V30 9425 N 922.014 -0.339074 -2.88615 0
M  V30 9426 H 921.561 -1.05497 -2.35007 0
M  V30 9427 H 921.519 0.501061 -3.10382 0
M  V30 9428 N 925.291 0.760815 -1.38019 0
M  V30 9429 C 926.568 1.5098 -1.24356 0
M  V30 9430 C 926.948 2.10507 0.158169 0
M  V30 9431 O 926.296 1.96455 1.16695 0
M  V30 9432 C 926.506 2.58195 -2.34811 0
M  V30 9433 C 927.854 3.25297 -2.72886 0
M  V30 9434 O 928.878 2.68496 -2.34069 0
M  V30 9435 O 927.737 4.28018 -3.39799 0
M  V30 9436 H 924.831 0.66921 -0.485888 0
M  V30 9437 H 927.377 0.796844 -1.49828 0
M  V30 9438 H 926.149 2.12406 -3.28633 0
M  V30 9439 H 925.772 3.37079 -2.10864 0
M  V30 9440 N 926.769 1.22769 0.988202 0
M  V30 9441 C 928.017 1.05301 1.725 0
M  V30 9442 C 928.338 -0.412103 1.90596 0
M  V30 9443 O 927.608 -1.29606 1.46898 0
M  V30 9444 H 926.188 0.386658 0.639144 0
M  V30 9445 H 928.85 1.54359 1.18993 0
M  V30 9446 H 927.946 1.53465 2.71763 0
M  V30 9447 N 928.247 -1.18576 1.03814 0
M  V30 9448 C 929.177 -2.24334 0.647795 0
M  V30 9449 C 930.158 -1.66508 -0.34774 0
M  V30 9450 O 931.343 -1.92852 -0.228401 0
M  V30 9451 C 928.473 -3.47299 0.00734922 0
M  V30 9452 C 927.427 -4.17859 0.926152 0
M  V30 9453 C 926.753 -5.34489 0.150317 0
M  V30 9454 C 928.053 -4.71632 2.24411 0
M  V30 9455 H 929.747 -2.57241 1.53191 0
M  V30 9456 H 927.293 -1.23649 0.738028 0
M  V30 9457 H 929.246 -4.20486 -0.277434 0
M  V30 9458 H 927.97 -3.13619 -0.911626 0
M  V30 9459 H 926.629 -3.46567 1.19528 0
M  V30 9460 H 926.277 -4.97056 -0.770985 0
M  V30 9461 H 925.977 -5.82633 0.762407 0
M  V30 9462 H 927.501 -6.10467 -0.127508 0
M  V30 9463 H 928.915 -5.36526 2.02021 0
M  V30 9464 H 927.312 -5.303 2.80894 0
M  V30 9465 H 928.382 -3.89192 2.89236 0
M  V30 9466 N 929.725 -0.817259 -1.34754 0
M  V30 9467 C 930.672 -0.233108 -2.2962 0
M  V30 9468 C 931.642 0.638902 -1.53321 0
M  V30 9469 O 932.827 0.581739 -1.81715 0
M  V30 9470 C 929.967 0.603659 -3.39779 0
M  V30 9471 C 929.08 -0.289967 -4.31026 0
M  V30 9472 C 928.215 0.555825 -5.28284 0
M  V30 9473 C 927.254 -0.337539 -6.11169 0
M  V30 9474 N 926.391 0.468847 -7.00533 0
M  V30 9475 H 931.231 -1.04747 -2.78984 0
M  V30 9476 H 928.768 -0.528056 -1.37295 0
M  V30 9477 H 930.726 1.10407 -4.02326 0
M  V30 9478 H 929.356 1.38319 -2.91664 0
M  V30 9479 H 928.408 -0.908552 -3.69391 0
M  V30 9480 H 929.72 -0.977136 -4.89135 0
M  V30 9481 H 928.874 1.12094 -5.96255 0
M  V30 9482 H 927.613 1.27652 -4.70698 0
M  V30 9483 H 926.618 -0.914839 -5.42135 0
M  V30 9484 H 927.843 -1.05626 -6.70835 0
M  V30 9485 H 925.789 1.17332 -6.45422 0
M  V30 9486 H 925.706 -0.160052 -7.55831 0
M  V30 9487 H 926.974 1.01689 -7.72839 0
M  V30 9488 N 931.203 1.46865 -0.571711 0
M  V30 9489 C 932.433 2.06518 -0.0583129 0
M  V30 9490 C 932.841 1.4227 1.24723 0
M  V30 9491 O 932.184 0.518293 1.76237 0
M  V30 9492 C 932.246 3.5898 0.193214 0
M  V30 9493 C 931.91 4.45355 -1.02507 0
M  V30 9494 C 932.907 4.82575 -1.93435 0
M  V30 9495 C 930.592 4.86656 -1.24382 0
M  V30 9496 C 932.586 5.59912 -3.04595 0
M  V30 9497 C 930.273 5.63754 -2.35849 0
M  V30 9498 C 931.271 6.00294 -3.25785 0
M  V30 9499 O 930.959 6.75836 -4.35318 0
M  V30 9500 H 930.691 0.674188 -0.0494584 0
M  V30 9501 H 933.245 1.89644 -0.788934 0
M  V30 9502 H 931.475 3.7412 0.978319 0
M  V30 9503 H 933.164 4.006 0.653769 0
M  V30 9504 H 933.93 4.51256 -1.77745 0
M  V30 9505 H 929.809 4.57672 -0.55292 0
M  V30 9506 H 933.353 5.88351 -3.74818 0
M  V30 9507 H 929.25 5.94487 -2.51506 0
M  V30 9508 H 930.018 6.94247 -4.33547 0
M  V30 9509 N 932.681 0.308908 1.54543 0
M  V30 9510 C 933.928 -0.298036 2.00295 0
M  V30 9511 C 934.256 -1.53285 1.19724 0
M  V30 9512 O 933.511 -1.93917 0.263551 0
M  V30 9513 C 933.81 -0.691522 3.50646 0
M  V30 9514 C 933.476 0.442454 4.48724 0
M  V30 9515 C 932.138 0.753739 4.7526 0
M  V30 9516 C 934.49 1.20488 5.07082 0
M  V30 9517 C 931.818 1.83044 5.57415 0
M  V30 9518 C 934.17 2.27156 5.90409 0
M  V30 9519 C 932.834 2.58882 6.15253 0
M  V30 9520 H 932.104 -0.109059 0.73293 0
M  V30 9521 H 934.751 0.429647 1.86618 0
M  V30 9522 H 933.056 -1.49941 3.61974 0
M  V30 9523 H 934.753 -1.17244 3.83477 0
M  V30 9524 H 931.343 0.189744 4.2818 0
M  V30 9525 H 935.527 0.977653 4.86575 0
M  V30 9526 H 930.783 2.08088 5.749 0
M  V30 9527 H 934.957 2.86687 6.34652 0
M  V30 9528 H 932.584 3.42443 6.78702 0
M  V30 9529 N 934.159 -1.57557 0.0367827 0
M  V30 9530 C 935.575 -1.56366 -0.31967 0
M  V30 9531 C 935.775 -1.04313 -1.72398 0
M  V30 9532 O 934.831 -0.693278 -2.42796 0
M  V30 9533 C 936.144 -3.00267 -0.161274 0
M  V30 9534 C 937.692 -3.12128 -0.233464 0
M  V30 9535 C 938.167 -4.57882 -0.103767 0
M  V30 9536 N 939.658 -4.62922 -0.160506 0
M  V30 9537 C 940.393 -5.73338 -0.0840493 0
M  V30 9538 N 939.889 -6.92786 0.043933 0
M  V30 9539 N 941.682 -5.61929 -0.138592 0
M  V30 9540 H 933.833 -1.8972 0.954996 0
M  V30 9541 H 936.096 -0.87304 0.369467 0
M  V30 9542 H 935.802 -3.42331 0.80639 0
M  V30 9543 H 935.676 -3.65599 -0.928304 0
M  V30 9544 H 938.063 -2.69972 -1.19159 0
M  V30 9545 H 938.144 -2.49503 0.564075 0
M  V30 9546 H 937.788 -5.0072 0.850973 0
M  V30 9547 H 937.718 -5.18496 -0.920268 0
M  V30 9548 H 940.209 -3.7701 -0.259257 0
M  V30 9549 H 940.522 -7.72741 0.095372 0
M  V30 9550 H 938.867 -6.94955 0.0788211 0
M  V30 9551 H 942.058 -4.67499 -0.237031 0
M  V30 9552 H 942.231 -6.47956 -0.075546 0
M  V30 9553 N 935.637 0.236453 -1.55816 0
M  V30 9554 C 936.6 1.27633 -1.90375 0
M  V30 9555 C 937.6 1.40557 -0.781048 0
M  V30 9556 O 938.79 1.39078 -1.04895 0
M  V30 9557 C 935.922 2.65247 -2.14142 0
M  V30 9558 H 937.115 0.982019 -2.83366 0
M  V30 9559 H 934.668 0.476215 -1.48869 0
M  V30 9560 H 935.403 2.99801 -1.23653 0
M  V30 9561 H 935.188 2.57246 -2.95917 0
M  V30 9562 H 936.678 3.40313 -2.42026 0
M  V30 9563 N 937.115 1.49373 0.502552 0
M  V30 9564 C 938.062 1.65927 1.60427 0
M  V30 9565 C 939.032 0.500768 1.58371 0
M  V30 9566 O 940.217 0.727606 1.76382 0
M  V30 9567 C 937.357 1.73043 2.9858 0
M  V30 9568 C 936.47 3.00187 3.10663 0
M  V30 9569 C 935.605 2.98292 4.3954 0
M  V30 9570 C 934.644 4.20022 4.4525 0
M  V30 9571 N 933.781 4.16046 5.65553 0
M  V30 9572 H 938.621 2.59998 1.45619 0
M  V30 9573 H 936.158 1.28912 0.708519 0
M  V30 9574 H 938.116 1.7515 3.78653 0
M  V30 9575 H 936.746 0.824397 3.12095 0
M  V30 9576 H 935.798 3.07699 2.23663 0
M  V30 9577 H 937.11 3.9018 3.10742 0
M  V30 9578 H 936.264 2.98953 5.27932 0
M  V30 9579 H 935.003 2.06075 4.42023 0
M  V30 9580 H 934.008 4.19607 3.5526 0
M  V30 9581 H 935.233 5.13431 4.44484 0
M  V30 9582 H 933.179 3.26665 5.68881 0
M  V30 9583 H 933.096 4.99773 5.67242 0
M  V30 9584 H 934.364 4.20807 6.56156 0
M  V30 9585 N 938.594 -0.753485 1.38421 0
M  V30 9586 C 939.542 -1.8886 1.35774 0
M  V30 9587 C 940.536 -1.67639 0.243608 0
M  V30 9588 O 941.742 -1.75206 0.412649 0
M  V30 9589 H 938.117 -0.62137 0.42356 0
M  V30 9590 H 940.088 -1.88209 2.3156 0
M  V30 9591 C 938.837 -3.26344 1.19979 0
M  V30 9592 H 938.16 -3.43259 2.04971 0
M  V30 9593 H 939.6 -4.06015 1.22181 0
M  V30 9594 C 938.059 -3.36771 -0.0932867 0
M  V30 9595 O 938.589 -3.8718 -1.07027 0
M  V30 9596 N 936.795 -2.90212 -0.150154 0
M  V30 9597 H 936.342 -2.4938 0.645562 0
M  V30 9598 H 936.3 -2.97569 -1.0149 0
M  V30 9599 N 940.072 -1.23292 -0.981677 0
M  V30 9600 C 941.318 -1.06582 -1.72535 0
M  V30 9601 C 941.651 0.396538 -1.90108 0
M  V30 9602 O 940.926 1.29363 -1.45243 0
M  V30 9603 C 941.209 -1.7904 -3.12437 0
M  V30 9604 C 941.062 -3.32941 -3.02441 0
M  V30 9605 C 942.381 -1.55185 -4.11832 0
M  V30 9606 H 939.5 -0.388585 -0.626236 0
M  V30 9607 H 942.142 -1.51779 -1.14293 0
M  V30 9608 H 940.292 -1.40619 -3.62158 0
M  V30 9609 H 941.964 -3.80875 -2.60254 0
M  V30 9610 H 940.207 -3.62039 -2.38977 0
M  V30 9611 H 940.878 -3.78827 -4.0149 0
M  V30 9612 H 943.354 -1.88581 -3.70913 0
M  V30 9613 H 942.23 -2.08362 -5.07815 0
M  V30 9614 H 942.491 -0.486925 -4.3941 0
M  V30 9615 N 941.55 1.18024 -1.04442 0
M  V30 9616 C 942.796 1.88377 -0.751133 0
M  V30 9617 C 943.129 1.80377 0.719571 0
M  V30 9618 O 942.404 1.20662 1.52548 0
M  V30 9619 C 942.687 3.38708 -1.22265 0
M  V30 9620 C 942.54 3.55499 -2.75574 0
M  V30 9621 C 943.859 4.32475 -0.815688 0
M  V30 9622 H 940.978 0.684037 -0.27434 0
M  V30 9623 H 943.62 1.38837 -1.29709 0
M  V30 9624 H 941.77 3.8103 -0.758192 0
M  V30 9625 H 943.442 3.22244 -3.30086 0
M  V30 9626 H 941.685 2.98028 -3.15217 0
M  V30 9627 H 942.356 4.60994 -3.03625 0
M  V30 9628 H 944.832 3.97953 -1.21542 0
M  V30 9629 H 943.708 5.36213 -1.17331 0
M  V30 9630 H 943.969 4.41207 0.280901 0
M  V30 9631 N 943.028 0.824394 1.34319 0
M  V30 9632 C 944.277 0.40956 1.97498 0
M  V30 9633 C 944.59 -1.03323 1.66083 0
M  V30 9634 O 945.796 -1.55205 2.22764 0
M  V30 9635 C 944.252 0.681384 3.53391 0
M  V30 9636 C 943.86 2.1379 3.93698 0
M  V30 9637 C 945.604 0.332788 4.23194 0
M  V30 9638 C 943.511 2.35453 5.42509 0
M  V30 9639 H 942.441 0.149409 0.739049 0
M  V30 9640 H 945.092 1.01095 1.5314 0
M  V30 9641 H 943.474 0.00980375 3.95999 0
M  V30 9642 H 944.648 2.84876 3.62191 0
M  V30 9643 H 942.963 2.44807 3.36836 0
M  V30 9644 H 945.56 0.472463 5.32609 0
M  V30 9645 H 945.903 -0.722862 4.09976 0
M  V30 9646 H 946.436 0.959005 3.86067 0
M  V30 9647 H 943.175 3.39529 5.60714 0
M  V30 9648 H 942.695 1.68912 5.75525 0
M  V30 9649 H 944.374 2.17885 6.09209 0
M  V30 9650 N 944.506 -1.46559 0.579492 0
M  V30 9651 C 945.754 -2.02 0.0637157 0
M  V30 9652 C 946.075 -1.45378 -1.29962 0
M  V30 9653 O 945.345 -0.637262 -1.85245 0
M  V30 9654 H 943.925 -0.746717 0.0205638 0
M  V30 9655 H 946.587 -1.79702 0.754544 0
M  V30 9656 H 945.683 -3.12099 -0.00770254 0
M  V30 9657 N 945.984 -0.3171 -1.54377 0
M  V30 9658 C 947.232 0.286842 -2.00054 0
M  V30 9659 C 947.553 1.53161 -1.20692 0
M  V30 9660 O 946.823 1.93479 -0.307045 0
M  V30 9661 H 945.403 0.108979 -0.739008 0
M  V30 9662 H 948.065 -0.432152 -1.90049 0
M  V30 9663 H 947.161 0.547729 -3.07256 0
M  V30 9664 N 947.462 1.57535 -0.0451378 0
M  V30 9665 C 948.711 1.91628 0.629415 0
M  V30 9666 C 949.024 0.924754 1.72359 0
M  V30 9667 O 950.23 1.15751 2.45589 0
M  V30 9668 C 948.686 3.40322 1.17084 0
M  V30 9669 C 948.294 4.47867 0.109101 0
M  V30 9670 C 950.038 3.83458 1.82099 0
M  V30 9671 C 947.945 5.87671 0.663072 0
M  V30 9672 H 946.875 0.715163 0.238868 0
M  V30 9673 H 949.526 1.83151 -0.113046 0
M  V30 9674 H 947.908 3.43783 1.96543 0
M  V30 9675 H 949.082 4.55988 -0.664201 0
M  V30 9676 H 947.397 4.14034 -0.443227 0
M  V30 9677 H 949.994 4.85273 2.2453 0
M  V30 9678 H 950.337 3.19379 2.67026 0
M  V30 9679 H 950.87 3.82488 1.09305 0
M  V30 9680 H 947.609 6.55332 -0.148423 0
M  V30 9681 H 947.129 5.83124 1.4045 0
M  V30 9682 H 948.808 6.36737 1.14785 0
M  V30 9683 N 948.94 -0.228186 1.55939 0
M  V30 9684 C 950.351 -0.795734 1.68893 0
M  V30 9685 C 950.702 -1.85261 0.645967 0
M  V30 9686 O 949.827 -2.15434 -0.2042 0
M  V30 9687 C 950.422 -1.45013 3.06197 0
M  V30 9688 C 948.981 -1.96514 3.21028 0
M  V30 9689 C 948.128 -0.822918 2.64808 0
M  V30 9690 H 951.079 -0.0036485 1.587 0
M  V30 9691 H 951.1 -2.31875 3.01685 0
M  V30 9692 H 950.612 -0.680678 3.82084 0
M  V30 9693 H 948.713 -2.76282 2.49998 0
M  V30 9694 H 948.826 -2.14967 4.28166 0
M  V30 9695 H 947.19 -1.22846 2.23116 0
M  V30 9696 H 947.973 -0.0662493 3.43236 0
M  V30 9697 N 950.418 -1.49637 -0.494624 0
M  V30 9698 C 951.664 -1.59681 -1.25019 0
M  V30 9699 C 951.997 -0.285511 -1.9209 0
M  V30 9700 O 951.272 0.711398 -1.81023 0
M  V30 9701 C 951.555 -2.76058 -2.31222 0
M  V30 9702 C 951.408 -4.17002 -1.68611 0
M  V30 9703 C 952.727 -2.88056 -3.32734 0
M  V30 9704 H 949.846 -0.581209 -0.453172 0
M  V30 9705 H 952.488 -1.81944 -0.547391 0
M  V30 9706 H 950.638 -2.57207 -2.91164 0
M  V30 9707 H 952.31 -4.47385 -1.12447 0
M  V30 9708 H 950.553 -4.22352 -0.989991 0
M  V30 9709 H 951.224 -4.94316 -2.45674 0
M  V30 9710 H 953.7 -3.05237 -2.82789 0
M  V30 9711 H 952.576 -3.71151 -4.04399 0
M  V30 9712 H 952.837 -1.97676 -3.95445 0
M  V30 9713 N 951.896 0.746133 -1.38819 0
M  V30 9714 C 953.124 1.53539 -1.38685 0
M  V30 9715 C 953.539 1.88788 0.0215039 0
M  V30 9716 O 952.896 1.53312 0.990031 0
M  V30 9717 C 952.947 2.8299 -2.24942 0
M  V30 9718 O 952.668 2.49242 -3.60292 0
M  V30 9719 C 954.169 3.77085 -2.3307 0
M  V30 9720 H 951.389 0.474842 -0.474095 0
M  V30 9721 H 953.933 0.922844 -1.82493 0
M  V30 9722 H 952.088 3.40603 -1.84576 0
M  V30 9723 H 952.502 3.32319 -4.05789 0
M  V30 9724 H 953.976 4.64845 -2.97696 0
M  V30 9725 H 954.453 4.18049 -1.34655 0
M  V30 9726 H 955.059 3.25394 -2.73859 0
M  V30 9727 N 953.375 1.23811 0.975125 0
M  V30 9728 C 954.338 1.02505 2.05001 0
M  V30 9729 C 955.338 -0.0150084 1.60793 0
M  V30 9730 O 956.528 0.225246 1.72738 0
M  V30 9731 C 953.66 0.552087 3.364 0
M  V30 9732 H 954.853 1.979 2.25335 0
M  V30 9733 H 952.406 1.05929 1.1493 0
M  V30 9734 H 953.141 -0.405394 3.21756 0
M  V30 9735 H 952.926 1.30267 3.69828 0
M  V30 9736 H 954.416 0.423828 4.15444 0
M  V30 9737 N 954.853 -1.17469 1.05066 0
M  V30 9738 C 955.786 -2.2031 0.594863 0
M  V30 9739 C 956.764 -1.58196 -0.375878 0
M  V30 9740 O 957.948 -1.8629 -0.287798 0
M  V30 9741 C 955.075 -3.38452 -0.129614 0
M  V30 9742 C 954.121 -4.19007 0.795943 0
M  V30 9743 S 954.954 -4.8433 2.28441 0
M  V30 9744 C 956.11 -6.05862 1.57107 0
M  V30 9745 H 956.343 -2.58632 1.46618 0
M  V30 9746 H 953.876 -1.28063 0.862511 0
M  V30 9747 H 955.834 -4.06914 -0.541416 0
M  V30 9748 H 954.495 -2.98521 -0.976948 0
M  V30 9749 H 953.688 -5.0345 0.235396 0
M  V30 9750 H 953.29 -3.55976 1.14705 0
M  V30 9751 H 955.582 -6.71895 0.86969 0
M  V30 9752 H 956.525 -6.66442 2.39292 0
M  V30 9753 H 956.933 -5.54477 1.05903 0
M  V30 9754 N 956.331 -0.831506 -1.3388 0
M  V30 9755 C 957.747 -0.518349 -1.50948 0
M  V30 9756 C 957.947 0.955807 -1.77388 0
M  V30 9757 O 957.003 1.73993 -1.82983 0
M  V30 9758 C 958.316 -1.38531 -2.66889 0
M  V30 9759 C 959.864 -1.38332 -2.80772 0
M  V30 9760 C 960.339 -2.23497 -3.99766 0
M  V30 9761 N 961.83 -2.21167 -4.06988 0
M  V30 9762 C 962.565 -2.83805 -4.98239 0
M  V30 9763 N 962.061 -3.55468 -5.94655 0
M  V30 9764 N 963.854 -2.73314 -4.91178 0
M  V30 9765 H 956.005 -1.78588 -1.14978 0
M  V30 9766 H 958.268 -0.761508 -0.564633 0
M  V30 9767 H 957.974 -2.43255 -2.54007 0
M  V30 9768 H 957.848 -1.05611 -3.62114 0
M  V30 9769 H 960.235 -0.343832 -2.9309 0
M  V30 9770 H 960.316 -1.75256 -1.86331 0
M  V30 9771 H 959.96 -3.27501 -3.88208 0
M  V30 9772 H 959.89 -1.83919 -4.93438 0
M  V30 9773 H 962.381 -1.69046 -3.37982 0
M  V30 9774 H 962.694 -4.00487 -6.60931 0
M  V30 9775 H 961.039 -3.59575 -5.94753 0
M  V30 9776 H 964.23 -2.16897 -4.14817 0
M  V30 9777 H 964.403 -3.22416 -5.62096 0
M  V30 9778 N 957.809 1.4625 -0.587256 0
M  V30 9779 C 958.739 2.33132 0.131076 0
M  V30 9780 C 959.72 1.45619 0.879158 0
M  V30 9781 O 960.905 1.74428 0.853723 0
M  V30 9782 C 958.035 3.27975 1.14236 0
M  V30 9783 C 956.989 4.24965 0.508819 0
M  V30 9784 C 956.315 5.09349 1.62689 0
M  V30 9785 C 957.615 5.19322 -0.55694 0
M  V30 9786 H 959.309 2.93442 -0.594333 0
M  V30 9787 H 956.855 1.41106 -0.287263 0
M  V30 9788 H 958.808 3.87614 1.65328 0
M  V30 9789 H 957.532 2.65781 1.8981 0
M  V30 9790 H 956.191 3.66595 0.0189337 0
M  V30 9791 H 955.839 4.43537 2.37242 0
M  V30 9792 H 955.539 5.75036 1.20861 0
M  V30 9793 H 957.063 5.71852 2.14049 0
M  V30 9794 H 958.477 5.73151 -0.130903 0
M  V30 9795 H 956.874 5.93376 -0.895801 0
M  V30 9796 H 957.944 4.62979 -1.44148 0
M  V30 9797 N 959.287 0.325282 1.54207 0
M  V30 9798 C 960.512 -0.281418 2.05482 0
M  V30 9799 C 960.937 -1.44869 1.19977 0
M  V30 9800 O 960.295 -1.80088 0.209275 0
M  V30 9801 C 960.343 -0.692029 3.53897 0
M  V30 9802 O 959.447 -1.7942 3.71325 0
M  V30 9803 H 958.788 -0.0504872 0.662078 0
M  V30 9804 H 961.318 0.474191 1.99029 0
M  V30 9805 H 961.328 -0.974219 3.96198 0
M  V30 9806 H 960.003 0.161709 4.15586 0
M  V30 9807 H 958.58 -1.51069 3.40929 0
M  V30 9808 N 960.765 -1.57509 0.0534917 0
M  V30 9809 C 961.995 -1.96812 -0.628386 0
M  V30 9810 C 962.403 -0.929808 -1.64776 0
M  V30 9811 O 961.746 0.0941155 -1.83459 0
M  V30 9812 C 961.808 -3.32361 -1.37027 0
M  V30 9813 C 961.472 -4.54185 -0.506465 0
M  V30 9814 C 962.469 -5.19398 0.228412 0
M  V30 9815 C 960.154 -5.00398 -0.43671 0
M  V30 9816 C 962.148 -6.29162 1.02146 0
M  V30 9817 C 959.835 -6.10039 0.360022 0
M  V30 9818 C 960.833 -6.74282 1.08779 0
M  V30 9819 O 960.521 -7.81814 1.87142 0
M  V30 9820 H 960.253 -0.65257 -0.176432 0
M  V30 9821 H 962.807 -2.05067 0.116908 0
M  V30 9822 H 961.037 -3.20667 -2.16125 0
M  V30 9823 H 962.726 -3.56395 -1.94261 0
M  V30 9824 H 963.492 -4.84651 0.184003 0
M  V30 9825 H 959.371 -4.50183 -0.992772 0
M  V30 9826 H 962.915 -6.79238 1.59002 0
M  V30 9827 H 958.812 -6.44222 0.406061 0
M  V30 9828 H 959.58 -7.98602 1.79378 0
M  V30 9829 N 962.243 0.219913 -1.56058 0
M  V30 9830 C 963.489 0.945463 -1.79412 0
M  V30 9831 C 963.822 1.83922 -0.62341 0
M  V30 9832 O 963.097 1.90806 0.377256 0
M  V30 9833 C 963.38 1.783 -3.1286 0
M  V30 9834 C 963.233 0.915626 -4.40382 0
M  V30 9835 C 964.552 2.76045 -3.42764 0
M  V30 9836 H 961.671 0.342288 -0.652693 0
M  V30 9837 H 964.313 0.214235 -1.88788 0
M  V30 9838 H 962.463 2.40642 -3.04998 0
M  V30 9839 H 964.135 0.30882 -4.60265 0
M  V30 9840 H 962.378 0.221124 -4.33236 0
M  V30 9841 H 963.049 1.53607 -5.30197 0
M  V30 9842 H 965.525 2.23838 -3.50764 0
M  V30 9843 H 964.401 3.31748 -4.37304 0
M  V30 9844 H 964.662 3.53866 -2.65012 0
M  V30 9845 N 963.721 1.49897 0.486681 0
M  V30 9846 C 964.969 1.59789 1.23742 0
M  V30 9847 C 965.29 0.293056 1.92785 0
M  V30 9848 O 964.56 -0.688534 1.83401 0
M  V30 9849 H 963.14 0.588775 0.459731 0
M  V30 9850 H 965.802 1.86597 0.562808 0
M  V30 9851 H 964.898 2.40121 1.9937 0
M  V30 9852 N 965.199 -0.738761 1.39212 0
M  V30 9853 C 966.109 -1.88324 1.39897 0
M  V30 9854 C 967.125 -1.71494 0.294229 0
M  V30 9855 O 968.301 -1.94162 0.535087 0
M  V30 9856 C 965.366 -3.23871 1.23726 0
M  V30 9857 C 964.427 -3.53121 2.44139 0
M  V30 9858 C 963.66 -4.82202 2.2873 0
M  V30 9859 O 963.883 -5.55649 1.28879 0
M  V30 9860 O 962.817 -5.11265 3.17634 0
M  V30 9861 H 966.643 -1.90701 2.36362 0
M  V30 9862 H 964.228 -0.886067 1.20288 0
M  V30 9863 H 966.11 -4.04882 1.16826 0
M  V30 9864 H 964.785 -3.22274 0.303551 0
M  V30 9865 H 963.692 -2.72212 2.56615 0
M  V30 9866 H 965.025 -3.59495 3.36191 0
M  V30 9867 N 966.677 -1.24326 -0.968545 0
M  V30 9868 C 967.607 -1.05951 -2.08079 0
M  V30 9869 C 968.588 0.0272666 -1.70078 0
M  V30 9870 O 969.773 -0.139644 -1.93697 0
M  V30 9871 C 966.903 -0.662623 -3.4092 0
M  V30 9872 C 965.857 -1.69807 -3.92873 0
M  V30 9873 C 965.183 -1.15628 -5.22048 0
M  V30 9874 C 966.483 -3.09383 -4.20808 0
M  V30 9875 H 968.177 -1.98984 -2.23709 0
M  V30 9876 H 965.723 -0.958112 -1.075 0
M  V30 9877 H 967.676 -0.521071 -4.18166 0
M  V30 9878 H 966.4 0.303399 -3.25188 0
M  V30 9879 H 965.059 -1.82783 -3.17783 0
M  V30 9880 H 964.707 -0.180888 -5.02675 0
M  V30 9881 H 964.407 -1.84822 -5.57776 0
M  V30 9882 H 965.931 -1.02683 -6.01904 0
M  V30 9883 H 967.345 -2.99642 -4.88761 0
M  V30 9884 H 965.742 -3.75923 -4.67763 0
M  V30 9885 H 966.812 -3.57486 -3.27616 0
M  V30 9886 N 968.156 1.1691 -1.05688 0
M  V30 9887 C 969.404 1.86922 -0.768409 0
M  V30 9888 C 969.725 1.81735 0.706921 0
M  V30 9889 O 968.995 1.24671 1.51109 0
M  V30 9890 H 967.575 0.69203 -0.281253 0
M  V30 9891 H 970.237 1.41803 -1.33708 0
M  V30 9892 H 969.333 2.92528 -1.08783 0
M  V30 9893 N 969.634 0.838594 1.33437 0
M  V30 9894 C 970.88 0.444042 1.98494 0
M  V30 9895 C 971.235 -0.985759 1.65229 0
M  V30 9896 O 970.528 -1.67972 0.921736 0
M  V30 9897 C 970.722 0.601425 3.52303 0
M  V30 9898 C 970.551 2.04497 4.00513 0
M  V30 9899 C 969.321 2.68015 4.28364 0
M  V30 9900 C 971.519 3.01367 4.16752 0
M  V30 9901 N 969.501 4.03448 4.62713 0
M  V30 9902 C 970.872 4.21745 4.54457 0
M  V30 9903 C 972.927 2.97776 3.99041 0
M  V30 9904 C 971.63 5.39009 4.76301 0
M  V30 9905 C 973.656 4.14269 4.22061 0
M  V30 9906 C 973.018 5.33402 4.60067 0
M  V30 9907 H 969.117 0.210906 0.753022 0
M  V30 9908 H 971.701 1.0866 1.61558 0
M  V30 9909 H 969.872 -0.0113326 3.88398 0
M  V30 9910 H 971.604 0.178343 4.04307 0
M  V30 9911 H 968.359 2.19153 4.19844 0
M  V30 9912 H 968.783 4.73264 4.84098 0
M  V30 9913 H 973.425 2.06801 3.68773 0
M  V30 9914 H 971.143 6.30529 5.0543 0
M  V30 9915 H 974.729 4.12908 4.09876 0
M  V30 9916 H 973.609 6.22045 4.77525 0
M  V30 9917 N 971.112 -1.45937 0.595003 0
M  V30 9918 C 972.022 -2.34221 -0.133325 0
M  V30 9919 C 973.038 -1.50491 -0.873407 0
M  V30 9920 O 974.214 -1.83328 -0.833828 0
M  V30 9921 C 971.279 -3.27896 -1.12628 0
M  V30 9922 C 970.34 -4.27529 -0.389532 0
M  V30 9923 C 969.573 -5.16729 -1.33519 0
M  V30 9924 O 969.796 -5.09102 -2.57238 0
M  V30 9925 O 968.73 -5.96023 -0.839084 0
M  V30 9926 H 972.556 -2.97877 0.591861 0
M  V30 9927 H 970.141 -1.45113 0.355329 0
M  V30 9928 H 972.023 -3.85654 -1.69851 0
M  V30 9929 H 970.698 -2.6682 -1.83272 0
M  V30 9930 H 969.605 -3.73424 0.224843 0
M  V30 9931 H 970.938 -4.91425 0.276169 0
M  V30 9932 N 972.59 -0.333456 -1.54032 0
M  V30 9933 C 973.52 0.52051 -2.27625 0
M  V30 9934 C 974.501 1.1111 -1.28797 0
M  V30 9935 O 975.686 1.13438 -1.57625 0
M  V30 9936 C 972.816 1.67663 -3.04149 0
M  V30 9937 C 971.77 1.21487 -4.10396 0
M  V30 9938 C 971.096 2.45872 -4.74817 0
M  V30 9939 C 972.396 0.322603 -5.21303 0
M  V30 9940 H 974.09 -0.0933823 -2.99254 0
M  V30 9941 H 971.636 -0.0463526 -1.43925 0
M  V30 9942 H 973.589 2.28041 -3.54366 0
M  V30 9943 H 972.313 2.31727 -2.30153 0
M  V30 9944 H 970.972 0.633966 -3.61077 0
M  V30 9945 H 970.62 3.0832 -3.97426 0
M  V30 9946 H 970.32 2.15662 -5.46593 0
M  V30 9947 H 971.844 3.06994 -5.27814 0
M  V30 9948 H 973.258 0.832942 -5.67217 0
M  V30 9949 H 971.655 0.112843 -5.99994 0
M  V30 9950 H 972.725 -0.643954 -4.80605 0
M  V30 9951 N 974.068 1.57479 -0.061844 0
M  V30 9952 C 975.298 1.97142 0.61794 0
M  V30 9953 C 975.706 0.938533 1.64281 0
M  V30 9954 O 975.049 -0.084385 1.83506 0
M  V30 9955 C 975.111 3.33083 1.35263 0
M  V30 9956 C 974.775 4.54447 0.482372 0
M  V30 9957 C 975.772 5.1927 -0.255954 0
M  V30 9958 C 973.457 5.00623 0.410167 0
M  V30 9959 C 975.451 6.28612 -1.05481 0
M  V30 9960 C 973.138 6.09839 -0.392369 0
M  V30 9961 C 974.136 6.73696 -1.12354 0
M  V30 9962 O 973.824 7.80811 -1.91285 0
M  V30 9963 H 973.556 0.653497 0.172969 0
M  V30 9964 H 976.11 2.05002 -0.127781 0
M  V30 9965 H 974.34 3.21808 2.14421 0
M  V30 9966 H 976.029 3.5742 1.92368 0
M  V30 9967 H 976.795 4.84546 -0.209703 0
M  V30 9968 H 972.674 4.50704 0.968883 0
M  V30 9969 H 976.218 6.78385 -1.62602 0
M  V30 9970 H 972.115 6.43997 -0.44022 0
M  V30 9971 H 972.883 7.9764 -1.83611 0
M  V30 9972 N 975.546 -0.211634 1.56173 0
M  V30 9973 C 976.774 -0.951184 1.83739 0
M  V30 9974 C 977.189 -1.7754 0.642252 0
M  V30 9975 O 976.546 -1.78302 -0.389174 0
M  V30 9976 C 976.597 -1.86075 3.09933 0
M  V30 9977 O 976.318 -1.06983 4.24837 0
M  V30 9978 C 977.819 -2.71337 3.50559 0
M  V30 9979 H 975.039 -0.278312 0.61056 0
M  V30 9980 H 977.583 -0.223871 2.03271 0
M  V30 9981 H 975.738 -2.54189 2.92347 0
M  V30 9982 H 976.152 -1.68815 4.9659 0
M  V30 9983 H 977.626 -3.30843 4.41868 0
M  V30 9984 H 978.103 -3.44226 2.72773 0
M  V30 9985 H 978.709 -2.0862 3.70618 0
M  V30 9986 N 977.024 -1.50153 -0.478725 0
M  V30 9987 C 978.249 -1.64776 -1.2595 0
M  V30 9988 C 978.674 -0.327794 -1.85222 0
M  V30 9989 O 978.032 0.707418 -1.66929 0
M  V30 9990 C 978.08 -2.73551 -2.34952 0
M  V30 9991 O 977.184 -2.34273 -3.39397 0
M  V30 9992 H 976.525 -0.550769 -0.370877 0
M  V30 9993 H 979.055 -1.96482 -0.570605 0
M  V30 9994 H 979.065 -2.96397 -2.8038 0
M  V30 9995 H 977.74 -3.69354 -1.91181 0
M  V30 9996 H 976.317 -2.21844 -2.99733 0
M  V30 9997 N 978.502 0.731368 -1.39602 0
M  V30 9998 C 979.465 1.8271 -1.38383 0
M  V30 9999 C 980.465 1.58338 -0.280309 0
M  V30 10000 O 981.655 1.65671 -0.538402 0
M  V30 10001 C 978.787 3.20556 -1.16002 0
M  V30 10002 H 979.98 1.85193 -2.35889 0
M  V30 10003 H 977.533 0.935396 -1.2522 0
M  V30 10004 H 978.268 3.23732 -0.191927 0
M  V30 10005 H 978.053 3.39643 -1.9592 0
M  V30 10006 H 979.543 4.00612 -1.17899 0
M  V30 10007 N 979.98 1.24838 0.961938 0
M  V30 10008 C 981.257 0.99939 1.68141 0
M  V30 10009 C 981.637 -0.476588 2.0565 0
M  V30 10010 O 980.985 -1.45224 1.76415 0
M  V30 10011 C 981.195 1.92797 2.90913 0
M  V30 10012 C 982.543 2.20219 3.63027 0
M  V30 10013 O 983.567 1.90496 3.00981 0
M  V30 10014 O 982.426 2.70725 4.74731 0
M  V30 10015 H 979.52 0.37842 0.735342 0
M  V30 10016 H 982.066 1.35961 1.01551 0
M  V30 10017 H 980.838 2.92492 2.59931 0
M  V30 10018 H 980.461 1.57127 3.65235 0
M  V30 10019 N 981.458 -1.16348 1.06306 0
M  V30 10020 C 982.406 -2.22799 0.668087 0
M  V30 10021 C 983.4 -1.66426 -0.316051 0
M  V30 10022 O 984.606 -1.79089 -0.180902 0
M  V30 10023 H 980.981 -0.725487 0.19792 0
M  V30 10024 H 982.952 -2.53401 1.57577 0
M  V30 10025 C 981.701 -3.47628 0.0706797 0
M  V30 10026 H 981.024 -3.9132 0.819064 0
M  V30 10027 H 982.464 -4.23666 -0.16816 0
M  V30 10028 C 980.923 -3.15343 -1.18577 0
M  V30 10029 O 981.453 -3.31158 -2.27371 0
M  V30 10030 N 979.659 -2.69472 -1.08779 0
M  V30 10031 H 979.206 -2.56803 -0.202447 0
M  V30 10032 H 979.164 -2.48244 -1.92931 0
M  V30 10033 N 982.937 -0.845659 -1.3299 0
M  V30 10034 C 984.185 -0.443774 -1.97168 0
M  V30 10035 C 984.506 1.00192 -1.67292 0
M  V30 10036 O 983.776 1.69891 -0.975397 0
M  V30 10037 H 982.356 -0.161111 -0.729419 0
M  V30 10038 H 985.018 -1.08011 -1.62233 0
M  V30 10039 H 984.114 -0.581414 -3.06637 0
M  V30 10040 N 984.415 1.45619 -0.602734 0
M  V30 10041 C 985.347 2.28662 0.157012 0
M  V30 10042 C 986.36 1.39672 0.836396 0
M  V30 10043 O 987.549 1.64091 0.702599 0
M  V30 10044 C 984.649 3.1528 1.24306 0
M  V30 10045 C 983.822 4.32517 0.651731 0
M  V30 10046 C 982.881 5.00381 1.62804 0
M  V30 10047 O 981.907 5.57333 1.15624 0
M  V30 10048 N 983.109 4.99221 2.96241 0
M  V30 10049 H 985.874 2.94506 -0.555535 0
M  V30 10050 H 983.435 1.55753 -0.441881 0
M  V30 10051 H 985.427 3.57544 1.8959 0
M  V30 10052 H 983.997 2.51376 1.85819 0
M  V30 10053 H 983.217 3.93793 -0.17907 0
M  V30 10054 H 984.505 5.08249 0.236802 0
M  V30 10055 H 983.903 4.54232 3.37179 0
M  V30 10056 H 982.46 5.45364 3.56961 0
M  V30 10057 N 985.893 0.34162 1.53853 0
M  V30 10058 C 987.309 -0.0103769 1.59597 0
M  V30 10059 C 987.509 -1.48897 1.35764 0
M  V30 10060 O 986.565 -2.24743 1.15095 0
M  V30 10061 C 987.878 0.424067 2.97695 0
M  V30 10062 C 989.426 0.376247 3.1073 0
M  V30 10063 C 989.901 0.786129 4.51203 0
M  V30 10064 N 991.392 0.74024 4.57247 0
M  V30 10065 C 992.127 1.02937 5.64085 0
M  V30 10066 N 991.623 1.38655 6.78783 0
M  V30 10067 N 993.416 0.953734 5.5395 0
M  V30 10068 H 985.567 1.30477 1.67599 0
M  V30 10069 H 987.83 0.531753 0.78482 0
M  V30 10070 H 987.536 1.45493 3.20195 0
M  V30 10071 H 987.41 -0.201713 3.7666 0
M  V30 10072 H 989.797 -0.645441 2.87955 0
M  V30 10073 H 989.878 1.0372 2.33828 0
M  V30 10074 H 989.522 1.80582 4.74713 0
M  V30 10075 H 989.452 0.102671 5.265 0
M  V30 10076 H 991.943 0.476763 3.7488 0
M  V30 10077 H 992.256 1.59206 7.56223 0
M  V30 10078 H 990.601 1.42498 6.80235 0
M  V30 10079 H 993.792 0.674044 4.63222 0
M  V30 10080 H 993.965 1.18241 6.37121 0
M  V30 10081 N 987.371 -1.57444 0.0701946 0
M  V30 10082 C 988.301 -2.15659 -0.895176 0
M  V30 10083 C 989.282 -1.08321 -1.31151 0
M  V30 10084 O 990.467 -1.36349 -1.38284 0
M  V30 10085 C 987.597 -2.71693 -2.16334 0
M  V30 10086 C 986.551 -3.84183 -1.88645 0
M  V30 10087 C 985.877 -4.26814 -3.22078 0
M  V30 10088 C 987.177 -5.08493 -1.19299 0
M  V30 10089 H 988.871 -2.96576 -0.410217 0
M  V30 10090 H 986.417 -1.42662 -0.195872 0
M  V30 10091 H 988.37 -3.11064 -2.84284 0
M  V30 10092 H 987.094 -1.87994 -2.67069 0
M  V30 10093 H 985.753 -3.45314 -1.23101 0
M  V30 10094 H 985.401 -3.40039 -3.70651 0
M  V30 10095 H 985.101 -5.02642 -3.04344 0
M  V30 10096 H 986.625 -4.68799 -3.91228 0
M  V30 10097 H 988.039 -5.4519 -1.77316 0
M  V30 10098 H 986.436 -5.89588 -1.11828 0
M  V30 10099 H 987.506 -4.84595 -0.171839 0
M  V30 10100 N 988.849 0.203349 -1.56283 0
M  V30 10101 C 990.095 0.921876 -1.81309 0
M  V30 10102 C 990.45 1.81231 -0.645994 0
M  V30 10103 O 989.743 1.88203 0.359206 0
M  V30 10104 C 989.937 1.78016 -3.09912 0
M  V30 10105 C 989.766 0.974308 -4.39019 0
M  V30 10106 C 988.536 0.662001 -5.00945 0
M  V30 10107 C 990.734 0.330925 -5.13234 0
M  V30 10108 N 988.716 -0.163344 -6.13683 0
M  V30 10109 C 990.087 -0.356989 -6.18971 0
M  V30 10110 C 992.142 0.245809 -4.97293 0
M  V30 10111 C 990.845 -1.1219 -7.10497 0
M  V30 10112 C 992.871 -0.505684 -5.89234 0
M  V30 10113 C 992.233 -1.18207 -6.94411 0
M  V30 10114 H 988.332 0.317003 -0.714866 0
M  V30 10115 H 990.916 0.191255 -1.93758 0
M  V30 10116 H 989.087 2.48245 -2.98712 0
M  V30 10117 H 990.819 2.43754 -3.23057 0
M  V30 10118 H 987.574 0.984437 -4.63256 0
M  V30 10119 H 987.998 -0.565386 -6.74635 0
M  V30 10120 H 992.64 0.754396 -4.16015 0
M  V30 10121 H 990.358 -1.64195 -7.91243 0
M  V30 10122 H 993.944 -0.572788 -5.78974 0
M  V30 10123 H 992.824 -1.75427 -7.64327 0
M  V30 10124 N 990.327 1.50405 0.470755 0
M  V30 10125 C 991.604 1.51929 1.23195 0
M  V30 10126 C 991.984 0.264159 2.09441 0
M  V30 10127 O 991.332 -0.752395 2.15757 0
M  V30 10128 C 991.542 2.81521 2.06269 0
M  V30 10129 C 992.89 3.32195 2.64446 0
M  V30 10130 O 993.914 2.82845 2.16511 0
M  V30 10131 O 992.773 4.18221 3.51786 0
M  V30 10132 H 989.867 0.609411 0.559059 0
M  V30 10133 H 992.413 1.62695 0.482549 0
M  V30 10134 H 991.185 3.64346 1.42715 0
M  V30 10135 H 990.808 2.7376 2.88342 0
M  V30 10136 N 991.805 -0.723954 1.39988 0
M  V30 10137 C 992.768 -1.81973 1.3935 0
M  V30 10138 C 993.768 -1.58187 0.288702 0
M  V30 10139 O 994.958 -1.65383 0.547181 0
M  V30 10140 C 992.09 -3.19937 1.177 0
M  V30 10141 H 993.283 -1.83939 2.36868 0
M  V30 10142 H 990.836 -0.928742 1.25714 0
M  V30 10143 H 991.571 -3.23625 0.209093 0
M  V30 10144 H 991.356 -3.386 1.97719 0
M  V30 10145 H 992.846 -3.99981 1.20022 0
M  V30 10146 N 993.283 -1.25346 -0.955304 0
M  V30 10147 C 994.213 -1.08152 -2.06943 0
M  V30 10148 C 995.194 0.00922598 -1.70097 0
M  V30 10149 O 996.379 -0.160181 -1.93538 0
M  V30 10150 C 993.509 -0.698745 -3.40198 0
M  V30 10151 C 992.463 -1.73965 -3.9105 0
M  V30 10152 C 991.789 -1.21158 -5.20792 0
M  V30 10153 C 993.089 -3.13829 -4.17503 0
M  V30 10154 H 994.783 -2.01345 -2.21586 0
M  V30 10155 H 992.329 -0.969459 -1.06478 0
M  V30 10156 H 994.282 -0.565394 -4.1759 0
M  V30 10157 H 993.006 0.268892 -3.25491 0
M  V30 10158 H 991.665 -1.86143 -3.15827 0
M  V30 10159 H 991.313 -0.234193 -5.02455 0
M  V30 10160 H 991.013 -1.90728 -5.55785 0
M  V30 10161 H 992.537 -1.09061 -6.00781 0
M  V30 10162 H 993.951 -3.04809 -4.85556 0
M  V30 10163 H 992.348 -3.80863 -4.63749 0
M  V30 10164 H 993.418 -3.6094 -3.23806 0
M  V30 10165 N 994.761 1.15782 -1.06922 0
M  V30 10166 C 996.007 1.86975 -0.800747 0
M  V30 10167 C 996.362 1.80512 0.665818 0
M  V30 10168 O 995.655 1.21432 1.48205 0
M  V30 10169 C 995.849 3.35284 -1.2377 0
M  V30 10170 C 995.678 3.56186 -2.74521 0
M  V30 10171 C 994.448 3.71908 -3.42071 0
M  V30 10172 C 996.646 3.54373 -3.72725 0
M  V30 10173 N 994.628 3.80821 -4.81507 0
M  V30 10174 C 995.999 3.69347 -4.97978 0
M  V30 10175 C 998.054 3.37622 -3.65945 0
M  V30 10176 C 996.757 3.69302 -6.17259 0
M  V30 10177 C 998.783 3.38873 -4.84684 0
M  V30 10178 C 998.145 3.54373 -6.08769 0
M  V30 10179 H 994.244 0.701533 -0.345507 0
M  V30 10180 H 996.828 1.38875 -1.36462 0
M  V30 10181 H 994.999 3.82011 -0.701588 0
M  V30 10182 H 996.731 3.94169 -0.917235 0
M  V30 10183 H 993.486 3.72499 -2.92475 0
M  V30 10184 H 993.91 3.89031 -5.54061 0
M  V30 10185 H 998.552 3.24562 -2.7096 0
M  V30 10186 H 996.27 3.81142 -7.1257 0
M  V30 10187 H 999.856 3.27146 -4.8111 0
M  V30 10188 H 998.736 3.55268 -6.9911 0
M  V30 10189 N 996.239 0.8527 1.3254 0
M  V30 10190 C 997.171 0.253181 2.27797 0
M  V30 10191 C 998.184 -0.573977 1.52346 0
M  V30 10192 O 999.373 -0.398786 1.73988 0
M  V30 10193 C 996.473 -0.661034 3.32391 0
M  V30 10194 C 995.646 0.12984 4.37207 0
M  V30 10195 C 994.705 -0.709837 5.2139 0
M  V30 10196 O 993.731 -0.144056 5.69018 0
M  V30 10197 N 994.933 -2.0249 5.44039 0
M  V30 10198 H 997.698 1.07171 2.79883 0
M  V30 10199 H 995.259 0.712491 1.45379 0
M  V30 10200 H 997.251 -1.22806 3.85617 0
M  V30 10201 H 995.821 -1.38025 2.80478 0
M  V30 10202 H 995.041 0.878289 3.84291 0
M  V30 10203 H 996.329 0.673141 5.04328 0
M  V30 10204 H 995.727 -2.50792 5.0707 0
M  V30 10205 H 994.284 -2.5401 6.00269 0
M  V30 10206 N 997.718 -1.45297 0.610449 0
M  V30 10207 C 998.681 -2.28995 -0.0968194 0
M  V30 10208 C 999.681 -1.39923 -0.792353 0
M  V30 10209 O 1000.87 -1.62014 -0.64008 0
M  V30 10210 C 998.003 -3.21013 -1.14731 0
M  V30 10211 H 999.196 -2.93012 0.639082 0
M  V30 10212 H 996.749 -1.51867 0.369624 0
M  V30 10213 H 997.484 -2.61803 -1.91388 0
M  V30 10214 H 997.269 -3.86628 -0.652753 0
M  V30 10215 H 998.759 -3.8394 -1.64256 0
M  V30 10216 N 999.196 -0.349774 -1.5367 0
M  V30 10217 C 1000.44 0.244343 -2.00617 0
M  V30 10218 C 1000.76 1.50567 -1.23914 0
M  V30 10219 O 1000.03 1.92784 -0.348016 0
M  V30 10220 H 998.615 0.0932792 -0.741153 0
M  V30 10221 H 1001.28 -0.472367 -1.89089 0
M  V30 10222 H 1000.37 0.482433 -3.08349 0
M  V30 10223 N 1000.67 1.57404 -0.0785433 0
M  V30 10224 C 1001.61 2.101 0.916013 0
M  V30 10225 C 1002.62 1.03459 1.25698 0
M  V30 10226 O 1003.81 1.30954 1.21299 0
M  V30 10227 C 1000.91 2.55202 2.22992 0
M  V30 10228 C 1000.08 3.85491 2.06678 0
M  V30 10229 C 999.14 4.16614 3.21433 0
M  V30 10230 O 998.166 4.86105 2.96126 0
M  V30 10231 N 999.368 3.70697 4.46726 0
M  V30 10232 H 1002.13 2.96054 0.466059 0
M  V30 10233 H 999.694 1.61546 0.107006 0
M  V30 10234 H 1001.69 2.7308 2.9868 0
M  V30 10235 H 1000.26 1.74348 2.59464 0
M  V30 10236 H 999.476 3.76925 1.15417 0
M  V30 10237 H 1000.76 4.70759 1.93036 0
M  V30 10238 H 1000.16 3.14571 4.70172 0
M  V30 10239 H 998.719 3.93762 5.19418 0
M  V30 10240 N 1002.15 -0.195058 1.56388 0
M  V30 10241 C 1003.56 -0.75973 1.70543 0
M  V30 10242 C 1003.91 -1.83849 0.685118 0
M  V30 10243 O 1003.04 -2.15819 -0.158457 0
M  V30 10244 C 1003.63 -1.38485 3.09204 0
M  V30 10245 C 1002.19 -1.89661 3.25124 0
M  V30 10246 C 1001.34 -0.766563 2.66494 0
M  V30 10247 H 1004.29 0.0300148 1.58672 0
M  V30 10248 H 1004.31 -2.25424 3.06536 0
M  V30 10249 H 1003.82 -0.599479 3.83442 0
M  V30 10250 H 1001.92 -2.70917 2.55802 0
M  V30 10251 H 1002.04 -2.05837 4.32629 0
M  V30 10252 H 1000.4 -1.18086 2.25672 0
M  V30 10253 H 1001.18 0.00657102 3.43299 0
M  V30 10254 N 1003.63 -1.50653 -0.462772 0
M  V30 10255 C 1004.88 -1.62057 -1.21424 0
M  V30 10256 C 1005.2 -0.324778 -1.91769 0
M  V30 10257 O 1004.46 0.689828 -1.83139 0
M  V30 10258 C 1004.76 -2.75637 -2.27507 0
M  V30 10259 C 1004.42 -4.15826 -1.74354 0
M  V30 10260 C 1003.09 -4.53969 -1.5958 0
M  V30 10261 C 1005.44 -5.03409 -1.35012 0
M  V30 10262 C 1002.77 -5.77427 -1.03899 0
M  V30 10263 C 1005.12 -6.27422 -0.807704 0
M  V30 10264 C 1003.78 -6.6436 -0.646657 0
M  V30 10265 H 1003.05 -0.59301 -0.44432 0
M  V30 10266 H 1005.7 -1.84612 -0.508999 0
M  V30 10267 H 1004 -2.47203 -3.0397 0
M  V30 10268 H 1005.7 -2.81663 -2.85424 0
M  V30 10269 H 1002.29 -3.85739 -1.86823 0
M  V30 10270 H 1006.48 -4.74567 -1.45258 0
M  V30 10271 H 1001.73 -6.04713 -0.901751 0
M  V30 10272 H 1005.91 -6.94644 -0.494234 0
M  V30 10273 H 1003.53 -7.59901 -0.213053 0
M  V30 10274 N 1005.11 0.71652 -1.4037 0
M  V30 10275 C 1006.36 1.47347 -1.38324 0
M  V30 10276 C 1006.68 1.94995 0.0139949 0
M  V30 10277 O 1005.95 1.7028 0.968585 0
M  V30 10278 H 1004.53 0.546662 -0.509087 0
M  V30 10279 H 1007.19 0.849455 -1.75415 0
M  V30 10280 H 1006.29 2.34675 -2.05752 0
M  V30 10281 N 1006.59 1.25851 0.948643 0
M  V30 10282 C 1007.83 1.11119 1.69648 0
M  V30 10283 C 1008.17 -0.345995 1.91093 0
M  V30 10284 O 1007.44 -1.25467 1.48621 0
M  V30 10285 C 1007.72 1.87261 3.0758 0
M  V30 10286 C 1007.58 3.40842 2.93507 0
M  V30 10287 C 1008.9 1.6605 4.07573 0
M  V30 10288 H 1006.01 0.405052 0.615713 0
M  V30 10289 H 1008.66 1.54756 1.10229 0
M  V30 10290 H 1006.81 1.50172 3.58303 0
M  V30 10291 H 1008.48 3.87641 2.50064 0
M  V30 10292 H 1006.72 3.68248 2.29294 0
M  V30 10293 H 1007.39 3.89339 3.91305 0
M  V30 10294 H 1009.87 1.98348 3.65783 0
M  V30 10295 H 1008.74 2.21753 5.02113 0
M  V30 10296 H 1009.01 0.603256 4.37965 0
M  V30 10297 N 1008.06 -1.15214 1.07534 0
M  V30 10298 C 1009.31 -1.85388 0.794617 0
M  V30 10299 C 1009.63 -1.83331 -0.681838 0
M  V30 10300 O 1010.83 -2.49207 -1.0774 0
M  V30 10301 C 1009.29 -3.32747 1.37141 0
M  V30 10302 C 1008.9 -3.43244 2.87902 0
M  V30 10303 C 1010.64 -4.08093 1.16879 0
M  V30 10304 C 1008.55 -4.84762 3.38763 0
M  V30 10305 H 1007.48 -0.694499 0.293577 0
M  V30 10306 H 1010.13 -1.29944 1.29564 0
M  V30 10307 H 1008.51 -3.87874 0.798121 0
M  V30 10308 H 1009.68 -2.98214 3.51291 0
M  V30 10309 H 1008 -2.81345 3.06975 0
M  V30 10310 H 1010.6 -5.12535 1.52353 0
M  V30 10311 H 1010.94 -4.1616 0.107958 0
M  V30 10312 H 1011.47 -3.59241 1.70854 0
M  V30 10313 H 1008.21 -4.81879 4.4438 0
M  V30 10314 H 1007.73 -5.30366 2.80128 0
M  V30 10315 H 1009.41 -5.53624 3.34827 0
M  V30 10316 N 1009.54 -0.859717 -1.32086 0
M  V30 10317 C 1010.51 -0.313005 -2.27053 0
M  V30 10318 C 1011.51 0.530191 -1.51808 0
M  V30 10319 O 1012.7 0.340972 -1.7083 0
M  V30 10320 C 1009.83 0.5566 -3.36325 0
M  V30 10321 H 1011.02 -1.15125 -2.76923 0
M  V30 10322 H 1008.57 -0.634463 -1.42843 0
M  V30 10323 H 1009.31 1.41645 -2.91731 0
M  V30 10324 H 1009.09 -0.0470197 -3.92072 0
M  V30 10325 H 1010.58 0.931725 -4.07073 0
M  V30 10326 N 1011.02 1.44971 -0.618145 0
M  V30 10327 C 1011.98 2.29044 0.0846739 0
M  V30 10328 C 1012.98 1.40341 0.784921 0
M  V30 10329 O 1014.17 1.62351 0.631479 0
M  V30 10330 C 1011.31 3.21617 1.13027 0
M  V30 10331 H 1012.5 2.92668 -0.654612 0
M  V30 10332 H 1010.05 1.51668 -0.377672 0
M  V30 10333 H 1010.79 2.62815 1.89997 0
M  V30 10334 H 1010.57 3.86969 0.63224 0
M  V30 10335 H 1012.06 3.84805 1.62218 0
M  V30 10336 N 1012.5 0.357919 1.53482 0
M  V30 10337 C 1013.75 -0.2337 2.00744 0
M  V30 10338 C 1014.07 -1.49908 1.2471 0
M  V30 10339 O 1013.34 -1.92597 0.358235 0
M  V30 10340 H 1011.92 -0.0893474 0.741637 0
M  V30 10341 H 1014.58 0.482388 1.88836 0
M  V30 10342 H 1013.68 -0.466073 3.086 0
M  V30 10343 N 1013.98 -1.5736 0.0868897 0
M  V30 10344 C 1015.39 -1.57304 -0.269762 0
M  V30 10345 C 1015.59 -1.09745 -1.68992 0
M  V30 10346 O 1014.65 -0.77017 -2.40468 0
M  V30 10347 C 1015.96 -3.00628 -0.0656646 0
M  V30 10348 C 1017.51 -3.12713 -0.134045 0
M  V30 10349 C 1017.98 -4.57981 0.0419569 0
M  V30 10350 N 1019.48 -4.63198 -0.0131501 0
M  V30 10351 C 1020.21 -5.73316 0.0983964 0
M  V30 10352 N 1019.71 -6.92296 0.264315 0
M  V30 10353 N 1021.5 -5.62086 0.0402517 0
M  V30 10354 H 1013.65 -1.86585 1.01487 0
M  V30 10355 H 1015.91 -0.860843 0.397055 0
M  V30 10356 H 1015.62 -3.39592 0.914891 0
M  V30 10357 H 1015.49 -3.68367 -0.811522 0
M  V30 10358 H 1017.88 -2.73627 -1.1051 0
M  V30 10359 H 1017.96 -2.47582 0.643167 0
M  V30 10360 H 1017.61 -4.9776 1.00984 0
M  V30 10361 H 1017.54 -5.21162 -0.754847 0
M  V30 10362 H 1020.03 -3.77644 -0.139183 0
M  V30 10363 H 1020.34 -7.72047 0.341165 0
M  V30 10364 H 1018.68 -6.94353 0.299876 0
M  V30 10365 H 1021.88 -4.68017 -0.0881801 0
M  V30 10366 H 1022.05 -6.47868 0.130635 0
M  V30 10367 N 1015.45 0.186762 -1.56489 0
M  V30 10368 C 1016.42 1.21511 -1.94339 0
M  V30 10369 C 1017.42 1.38001 -0.82537 0
M  V30 10370 O 1018.61 1.3567 -1.09266 0
M  V30 10371 C 1015.74 2.583 -2.22472 0
M  V30 10372 H 1016.93 0.891371 -2.86347 0
M  V30 10373 H 1014.49 0.428612 -1.50308 0
M  V30 10374 H 1015.22 2.95715 -1.33129 0
M  V30 10375 H 1015.01 2.47701 -3.03951 0
M  V30 10376 H 1016.5 3.32441 -2.5273 0
M  V30 10377 N 1016.93 1.50896 0.454776 0
M  V30 10378 C 1017.9 1.70377 1.53312 0
M  V30 10379 C 1018.9 0.57408 1.50203 0
M  V30 10380 O 1020.09 0.841374 1.52534 0
M  V30 10381 C 1017.22 1.74411 2.92905 0
M  V30 10382 H 1018.41 2.66599 1.37349 0
M  V30 10383 H 1015.96 1.40622 0.68228 0
M  V30 10384 H 1016.7 0.799408 3.14293 0
M  V30 10385 H 1016.48 2.56496 2.96568 0
M  V30 10386 H 1017.97 1.91382 3.71164 0
M  V30 10387 N 1018.41 -0.709066 1.40748 0
M  V30 10388 C 1019.66 -1.46901 1.39378 0
M  V30 10389 C 1019.99 -1.945 -0.0016993 0
M  V30 10390 O 1019.24 -1.68963 -0.987426 0
M  V30 10391 C 1019.54 -2.70543 2.33541 0
M  V30 10392 C 1019.21 -2.41674 3.80663 0
M  V30 10393 C 1017.87 -2.33511 4.20745 0
M  V30 10394 C 1020.22 -2.1759 4.73607 0
M  V30 10395 C 1017.55 -1.99342 5.51797 0
M  V30 10396 C 1019.9 -1.84933 6.04965 0
M  V30 10397 C 1018.56 -1.75256 6.44082 0
M  V30 10398 H 1017.83 -0.537549 0.510021 0
M  V30 10399 H 1020.48 -0.811635 1.7345 0
M  V30 10400 H 1018.79 -3.41149 1.92677 0
M  V30 10401 H 1020.48 -3.2865 2.29761 0
M  V30 10402 H 1017.07 -2.48917 3.4891 0
M  V30 10403 H 1021.26 -2.22849 4.43454 0
M  V30 10404 H 1016.51 -1.90392 5.81 0
M  V30 10405 H 1020.69 -1.65313 6.76494 0
M  V30 10406 H 1018.31 -1.48547 7.45545 0
M  V30 10407 N 1019.89 -1.26353 -0.941956 0
M  V30 10408 C 1021.11 -1.14731 -1.72776 0
M  V30 10409 C 1021.54 0.293766 -1.85792 0
M  V30 10410 O 1020.9 1.21284 -1.34759 0
M  V30 10411 C 1020.95 -1.82041 -3.11277 0
M  V30 10412 O 1020.05 -1.10867 -3.97218 0
M  V30 10413 H 1019.39 -0.399823 -0.53013 0
M  V30 10414 H 1021.92 -1.67157 -1.17981 0
M  V30 10415 H 1021.93 -1.88834 -3.61671 0
M  V30 10416 H 1020.61 -2.86879 -3.0112 0
M  V30 10417 H 1019.18 -1.12044 -3.55669 0
M  V30 10418 N 1021.37 1.14642 -1.08144 0
M  V30 10419 C 1022.59 1.90025 -0.830972 0
M  V30 10420 C 1023.02 1.77904 0.610879 0
M  V30 10421 O 1022.38 1.11735 1.42776 0
M  V30 10422 C 1022.42 3.38085 -1.25422 0
M  V30 10423 O 1021.53 4.10412 -0.404486 0
M  V30 10424 H 1020.87 0.591327 -0.302041 0
M  V30 10425 H 1023.4 1.4513 -1.44216 0
M  V30 10426 H 1023.41 3.88894 -1.23391 0
M  V30 10427 H 1022.08 3.46226 -2.30435 0
M  V30 10428 H 1020.66 3.69693 -0.487987 0
M  V30 10429 N 1022.85 0.866709 1.31628 0
M  V30 10430 C 1023.78 0.335762 2.31073 0
M  V30 10431 C 1024.76 -0.571597 1.60209 0
M  V30 10432 O 1025.94 -0.489306 1.87935 0
M  V30 10433 C 1023.07 -0.466416 3.44154 0
M  V30 10434 C 1022.03 0.347561 4.26586 0
M  V30 10435 C 1021.35 -0.5801 5.31544 0
M  V30 10436 C 1022.65 1.57986 4.97833 0
M  V30 10437 H 1024.35 1.16673 2.75731 0
M  V30 10438 H 1021.89 0.56248 1.3256 0
M  V30 10439 H 1023.84 -0.84836 4.12772 0
M  V30 10440 H 1022.57 -1.33086 2.98254 0
M  V30 10441 H 1021.23 0.71141 3.59631 0
M  V30 10442 H 1020.88 -1.44174 4.81895 0
M  V30 10443 H 1020.58 -0.0393965 5.87587 0
M  V30 10444 H 1022.1 -0.958958 6.03023 0
M  V30 10445 H 1023.51 1.26954 5.59067 0
M  V30 10446 H 1021.91 2.05939 5.63657 0
M  V30 10447 H 1022.98 2.3345 4.25005 0
M  V30 10448 N 1024.32 -1.44642 0.625825 0
M  V30 10449 C 1025.74 -1.56925 0.290992 0
M  V30 10450 C 1025.94 -1.61424 -1.20601 0
M  V30 10451 O 1025 -1.55439 -1.98985 0
M  V30 10452 C 1026.31 -2.84343 0.978242 0
M  V30 10453 C 1027.86 -2.98047 0.955882 0
M  V30 10454 C 1028.33 -4.2826 1.62349 0
M  V30 10455 N 1029.82 -4.35062 1.58983 0
M  V30 10456 C 1030.56 -5.34524 2.07538 0
M  V30 10457 N 1030.05 -6.4042 2.6426 0
M  V30 10458 N 1031.85 -5.25998 1.98198 0
M  V30 10459 H 1024 -1.39965 1.59761 0
M  V30 10460 H 1026.26 -0.670368 0.670306 0
M  V30 10461 H 1025.97 -2.86985 2.03304 0
M  V30 10462 H 1025.84 -3.73699 0.512726 0
M  V30 10463 H 1028.23 -2.94961 -0.0904292 0
M  V30 10464 H 1028.31 -2.10053 1.45984 0
M  V30 10465 H 1027.95 -4.32105 2.66923 0
M  V30 10466 H 1027.88 -5.15102 1.09441 0
M  V30 10467 H 1030.37 -3.59147 1.17565 0
M  V30 10468 H 1030.69 -7.1259 2.99056 0
M  V30 10469 H 1029.03 -6.41121 2.68308 0
M  V30 10470 H 1032.22 -4.42178 1.5361 0
M  V30 10471 H 1032.4 -6.03359 2.3635 0
M  V30 10472 N 1025.8 -0.366053 -1.5329 0
M  V30 10473 C 1026.73 0.47211 -2.28677 0
M  V30 10474 C 1027.71 1.08353 -1.31125 0
M  V30 10475 O 1028.9 1.10069 -1.59995 0
M  V30 10476 C 1026.03 1.61174 -3.07637 0
M  V30 10477 C 1024.98 1.12755 -4.12881 0
M  V30 10478 C 1024.31 2.35745 -4.79925 0
M  V30 10479 C 1025.61 0.211954 -5.2187 0
M  V30 10480 H 1027.3 -0.156838 -2.98989 0
M  V30 10481 H 1024.85 -0.0768709 -1.43795 0
M  V30 10482 H 1026.8 2.20473 -3.59123 0
M  V30 10483 H 1025.52 2.26793 -2.35016 0
M  V30 10484 H 1024.18 0.557234 -3.6234 0
M  V30 10485 H 1023.83 2.99821 -4.03877 0
M  V30 10486 H 1023.53 2.04019 -5.51044 0
M  V30 10487 H 1025.06 2.95729 -5.34207 0
M  V30 10488 H 1026.47 0.71244 -5.68856 0
M  V30 10489 H 1024.87 -0.0144501 -6.00098 0
M  V30 10490 H 1025.94 -0.745753 -4.79131 0
M  V30 10491 N 1027.28 1.57312 -0.0952337 0
M  V30 10492 C 1028.19 2.17556 0.877877 0
M  V30 10493 C 1029.21 1.14505 1.31014 0
M  V30 10494 O 1030.38 1.46876 1.37802 0
M  V30 10495 C 1027.45 2.74413 2.11892 0
M  V30 10496 C 1026.51 3.92419 1.74085 0
M  V30 10497 C 1025.74 4.46556 2.92273 0
M  V30 10498 O 1025.96 3.99631 4.07002 0
M  V30 10499 O 1024.9 5.37576 2.70732 0
M  V30 10500 H 1028.72 3.01116 0.395312 0
M  V30 10501 H 1026.31 1.48841 0.129123 0
M  V30 10502 H 1028.19 3.10754 2.84622 0
M  V30 10503 H 1026.87 1.93899 2.59201 0
M  V30 10504 H 1025.77 3.6089 0.985346 0
M  V30 10505 H 1027.11 4.74298 1.31539 0
M  V30 10506 N 1028.76 -0.17846 1.56586 0
M  V30 10507 C 1029.7 -1.22104 1.95855 0
M  V30 10508 C 1030.67 -1.44366 0.821447 0
M  V30 10509 O 1031.86 -1.57224 1.08098 0
M  V30 10510 C 1029 -2.55701 2.31757 0
M  V30 10511 C 1028.11 -2.40879 3.5861 0
M  V30 10512 C 1027.25 -3.67293 3.83757 0
M  V30 10513 C 1026.29 -3.47373 5.03982 0
M  V30 10514 N 1025.42 -4.65839 5.25298 0
M  V30 10515 H 1030.26 -0.879168 2.84736 0
M  V30 10516 H 1027.8 -0.422721 1.40895 0
M  V30 10517 H 1029.76 -3.33556 2.50592 0
M  V30 10518 H 1028.39 -2.87898 1.45995 0
M  V30 10519 H 1027.44 -1.54236 3.47729 0
M  V30 10520 H 1028.75 -2.22102 4.46623 0
M  V30 10521 H 1027.91 -4.53584 4.02922 0
M  V30 10522 H 1026.65 -3.89041 2.94107 0
M  V30 10523 H 1025.65 -2.59467 4.84723 0
M  V30 10524 H 1026.88 -3.27055 5.95157 0
M  V30 10525 H 1024.82 -4.8782 4.38598 0
M  V30 10526 H 1024.74 -4.4995 6.0752 0
M  V30 10527 H 1026.01 -5.53435 5.48936 0
M  V30 10528 N 1030.24 -1.51135 -0.446768 0
M  V30 10529 C 1031.48 -1.63013 -1.19461 0
M  V30 10530 C 1031.8 -0.344067 -1.91941 0
M  V30 10531 O 1031.07 0.639666 -1.85162 0
M  V30 10532 H 1029.65 -0.600757 -0.443959 0
M  V30 10533 H 1032.32 -1.88024 -0.513137 0
M  V30 10534 H 1031.41 -2.45322 -1.92933 0
M  V30 10535 N 1031.71 0.701592 -1.41122 0
M  V30 10536 C 1032.94 1.48833 -1.43291 0
M  V30 10537 C 1033.35 1.89168 -0.0348668 0
M  V30 10538 O 1032.69 1.56937 0.9548 0
M  V30 10539 C 1032.76 2.78533 -2.27287 0
M  V30 10540 C 1032.42 2.60438 -3.75528 0
M  V30 10541 C 1033.42 2.26778 -4.67833 0
M  V30 10542 C 1031.1 2.76266 -4.19503 0
M  V30 10543 C 1033.1 2.09176 -6.021 0
M  V30 10544 C 1030.78 2.58281 -5.53836 0
M  V30 10545 C 1031.78 2.24786 -6.4495 0
M  V30 10546 O 1031.47 2.06952 -7.76805 0
M  V30 10547 H 1031.2 0.465401 -0.490284 0
M  V30 10548 H 1033.76 0.871843 -1.85979 0
M  V30 10549 H 1031.99 3.42566 -1.79403 0
M  V30 10550 H 1033.67 3.40312 -2.21229 0
M  V30 10551 H 1034.44 2.1417 -4.35151 0
M  V30 10552 H 1030.32 3.01322 -3.48893 0
M  V30 10553 H 1033.86 1.82955 -6.73181 0
M  V30 10554 H 1029.76 2.70478 -5.86099 0
M  V30 10555 H 1030.53 2.21762 -7.87886 0
M  V30 10556 N 1033.19 1.2685 0.935242 0
M  V30 10557 C 1034.61 1.04091 1.20984 0
M  V30 10558 C 1034.81 -0.230242 2.0018 0
M  V30 10559 O 1033.86 -0.93778 2.3444 0
M  V30 10560 C 1035.18 2.27586 1.96533 0
M  V30 10561 C 1036.72 2.32547 2.09501 0
M  V30 10562 C 1037.2 3.55751 2.88454 0
M  V30 10563 N 1038.69 3.56263 2.96025 0
M  V30 10564 C 1039.43 4.48262 3.57559 0
M  V30 10565 N 1038.92 5.50557 4.20546 0
M  V30 10566 N 1040.71 4.35901 3.5489 0
M  V30 10567 H 1032.87 2.08484 0.405954 0
M  V30 10568 H 1035.13 0.916548 0.242164 0
M  V30 10569 H 1034.83 3.20076 1.45753 0
M  V30 10570 H 1034.71 2.32305 2.97177 0
M  V30 10571 H 1037.1 1.40568 2.5947 0
M  V30 10572 H 1037.18 2.31836 1.08101 0
M  V30 10573 H 1036.82 4.48063 2.3917 0
M  V30 10574 H 1036.75 3.53711 3.90123 0
M  V30 10575 H 1039.24 2.82278 2.51252 0
M  V30 10576 H 1039.55 6.16935 4.65415 0
M  V30 10577 H 1037.9 5.54407 4.19115 0
M  V30 10578 H 1041.09 3.552 3.04879 0
M  V30 10579 H 1041.26 5.07792 4.02557 0
M  V30 10580 N 1034.67 -1.14067 1.0875 0
M  V30 10581 C 1035.9 -1.89582 0.841038 0
M  V30 10582 C 1036.32 -1.78226 -0.601436 0
M  V30 10583 O 1035.68 -1.12491 -1.42181 0
M  V30 10584 C 1035.73 -3.37415 1.27213 0
M  V30 10585 O 1034.83 -4.10191 0.426246 0
M  V30 10586 H 1034.17 -0.589716 0.305173 0
M  V30 10587 H 1036.7 -1.44364 1.44984 0
M  V30 10588 H 1036.71 -3.88234 1.25451 0
M  V30 10589 H 1035.39 -3.44999 2.32268 0
M  V30 10590 H 1033.96 -3.69429 0.507585 0
M  V30 10591 N 1036.15 -0.873678 -1.31166 0
M  V30 10592 C 1037.39 -0.496513 -1.97247 0
M  V30 10593 C 1037.75 0.941605 -1.67784 0
M  V30 10594 O 1037.04 1.65469 -0.965947 0
M  V30 10595 C 1037.24 -0.69462 -3.50585 0
M  V30 10596 C 1037.07 -2.15044 -3.94951 0
M  V30 10597 C 1035.84 -2.79278 -4.21108 0
M  V30 10598 C 1038.03 -3.1231 -4.08616 0
M  V30 10599 N 1036.02 -4.15574 -4.51853 0
M  V30 10600 C 1037.39 -4.33646 -4.43115 0
M  V30 10601 C 1039.44 -3.08251 -3.91006 0
M  V30 10602 C 1038.14 -5.51447 -4.61842 0
M  V30 10603 C 1040.17 -4.25314 -4.10929 0
M  V30 10604 C 1039.53 -5.45413 -4.45763 0
M  V30 10605 H 1035.63 -0.230797 -0.747166 0
M  V30 10606 H 1038.22 -1.12905 -1.58621 0
M  V30 10607 H 1036.39 -0.0916484 -3.88292 0
M  V30 10608 H 1038.12 -0.285475 -4.03692 0
M  V30 10609 H 1034.87 -2.30207 -4.13886 0
M  V30 10610 H 1035.3 -4.85932 -4.7138 0
M  V30 10611 H 1039.94 -2.16505 -3.6316 0
M  V30 10612 H 1037.66 -6.43707 -4.88535 0
M  V30 10613 H 1041.24 -4.2363 -3.98785 0
M  V30 10614 H 1040.12 -6.34487 -4.60865 0
M  V30 10615 N 1037.63 1.44308 -0.633487 0
M  V30 10616 C 1038.87 2.01624 -0.138643 0
M  V30 10617 C 1039.2 1.50101 1.24477 0
M  V30 10618 O 1038.47 0.705575 1.82752 0
M  V30 10619 H 1037.05 0.745439 -0.0482636 0
M  V30 10620 H 1039.71 1.76777 -0.820719 0
M  V30 10621 H 1038.8 3.11913 -0.108136 0
M  V30 10622 N 1039.1 0.374177 1.53094 0
M  V30 10623 C 1040.33 -0.213325 2.05797 0
M  V30 10624 C 1040.75 -1.41753 1.24706 0
M  V30 10625 O 1040.1 -1.80183 0.289868 0
M  V30 10626 C 1040.16 -0.598367 3.56513 0
M  V30 10627 O 1039.88 0.557983 4.34532 0
M  V30 10628 C 1041.38 -1.24334 4.25507 0
M  V30 10629 H 1038.6 -0.0357398 0.670048 0
M  V30 10630 H 1041.14 0.535035 1.97377 0
M  V30 10631 H 1039.3 -1.29663 3.65056 0
M  V30 10632 H 1039.71 0.244911 5.23928 0
M  V30 10633 H 1041.18 -1.46325 5.32253 0
M  V30 10634 H 1041.66 -2.20622 3.79766 0
M  V30 10635 H 1042.27 -0.586269 4.2124 0
M  V30 10636 N 1040.58 -1.57259 0.103575 0
M  V30 10637 C 1041.86 -1.86143 -0.600852 0
M  V30 10638 C 1042.24 -1.00198 -1.85805 0
M  V30 10639 O 1041.59 -0.0766791 -2.28371 0
M  V30 10640 C 1041.8 -3.36978 -0.908108 0
M  V30 10641 C 1043.15 -4.05228 -1.26788 0
M  V30 10642 O 1044.17 -3.41908 -0.998859 0
M  V30 10643 O 1043.03 -5.16971 -1.7721 0
M  V30 10644 H 1040.12 -0.770064 -0.301547 0
M  V30 10645 H 1042.67 -1.69147 0.136914 0
M  V30 10646 H 1041.44 -3.91296 -0.0165615 0
M  V30 10647 H 1041.06 -3.5935 -1.70156 0
M  V30 10648 N 1042.06 0.170153 -1.56679 0
M  V30 10649 C 1042.99 1.23945 -1.91606 0
M  V30 10650 C 1043.97 1.42725 -0.779004 0
M  V30 10651 O 1045.16 1.57712 -1.03243 0
M  V30 10652 C 1042.28 2.60222 -2.168 0
M  V30 10653 C 1041.33 2.58172 -3.39484 0
M  V30 10654 S 1042.16 2.0714 -4.93815 0
M  V30 10655 C 1043.32 3.45192 -5.22105 0
M  V30 10656 H 1043.55 0.941345 -2.82004 0
M  V30 10657 H 1041.08 0.374771 -1.49783 0
M  V30 10658 H 1043.04 3.38656 -2.31996 0
M  V30 10659 H 1041.7 2.87232 -1.27107 0
M  V30 10660 H 1040.9 3.58435 -3.54317 0
M  V30 10661 H 1040.5 1.87834 -3.2341 0
M  V30 10662 H 1042.79 4.41194 -5.14154 0
M  V30 10663 H 1043.73 3.35233 -6.23718 0
M  V30 10664 H 1044.14 3.41257 -4.49671 0
M  V30 10665 N 1043.54 1.5137 0.438746 0
M  V30 10666 C 1044.77 1.67774 1.21077 0
M  V30 10667 C 1045.18 0.374489 1.85049 0
M  V30 10668 O 1044.54 -0.646867 1.70651 0
M  V30 10669 C 1044.59 2.79238 2.29584 0
M  V30 10670 O 1044.31 4.04513 1.68228 0
M  V30 10671 C 1045.81 3.06898 3.19888 0
M  V30 10672 H 1043.03 0.563054 0.364981 0
M  V30 10673 H 1045.58 1.97777 0.520035 0
M  V30 10674 H 1043.73 2.51837 2.94375 0
M  V30 10675 H 1044.14 4.66405 2.3993 0
M  V30 10676 H 1045.62 3.88476 3.92162 0
M  V30 10677 H 1046.1 2.19249 3.80561 0
M  V30 10678 H 1046.7 3.35952 2.60799 0
M  V30 10679 N 1045.02 -0.694098 1.41492 0
M  V30 10680 C 1046.24 -1.48286 1.44288 0
M  V30 10681 C 1046.66 -1.88737 0.0485783 0
M  V30 10682 O 1046.02 -1.56881 -0.932449 0
M  V30 10683 C 1046.07 -2.74446 2.3529 0
M  V30 10684 O 1045.79 -2.35698 3.69294 0
M  V30 10685 C 1047.29 -3.68175 2.46905 0
M  V30 10686 H 1044.51 -0.45692 0.491391 0
M  V30 10687 H 1047.05 -0.854477 1.85793 0
M  V30 10688 H 1045.21 -3.33518 1.9709 0
M  V30 10689 H 1045.62 -3.17029 4.17843 0
M  V30 10690 H 1047.1 -4.53476 3.14743 0
M  V30 10691 H 1047.57 -4.12763 1.50078 0
M  V30 10692 H 1048.18 -3.15006 2.85747 0
M  V30 10693 N 1046.49 -1.27344 -0.928501 0
M  V30 10694 C 1047.4 -1.11812 -2.06241 0
M  V30 10695 C 1048.42 -0.048347 -1.73933 0
M  V30 10696 O 1049.6 -0.25467 -1.99783 0
M  V30 10697 C 1046.66 -0.766036 -3.38131 0
M  V30 10698 C 1045.72 -1.91659 -3.84142 0
M  V30 10699 C 1044.96 -1.58121 -5.09738 0
M  V30 10700 O 1045.18 -0.488742 -5.68302 0
M  V30 10701 O 1044.11 -2.42013 -5.51102 0
M  V30 10702 H 1047.94 -2.06967 -2.22258 0
M  V30 10703 H 1045.52 -1.06524 -1.04752 0
M  V30 10704 H 1047.41 -0.582982 -4.17348 0
M  V30 10705 H 1046.08 0.155998 -3.23324 0
M  V30 10706 H 1044.99 -2.1547 -3.05816 0
M  V30 10707 H 1046.32 -2.8188 -4.0349 0
M  V30 10708 N 1047.97 1.13488 -1.09353 0
M  V30 10709 C 1048.92 2.16933 -0.701709 0
M  V30 10710 C 1049.91 1.58382 0.283553 0
M  V30 10711 O 1051.1 1.7675 0.0940391 0
M  V30 10712 C 1048.23 3.43079 -0.123031 0
M  V30 10713 C 1047.31 4.08639 -1.13466 0
M  V30 10714 N 1047.7 4.49377 -2.32152 0
M  V30 10715 C 1046 4.35265 -0.972632 0
M  V30 10716 C 1046.7 5.00464 -2.96497 0
M  V30 10717 N 1045.68 4.95275 -2.24061 0
M  V30 10718 H 1049.48 2.46183 -1.60534 0
M  V30 10719 H 1047 1.30275 -0.969644 0
M  V30 10720 H 1048.99 4.1653 0.17569 0
M  V30 10721 H 1047.65 3.15304 0.775461 0
M  V30 10722 H 1048.66 4.42105 -2.69748 0
M  V30 10723 H 1045.34 4.17301 -0.12876 0
M  V30 10724 H 1046.73 5.41785 -3.9739 0
M  V30 10725 N 1049.45 0.880621 1.30701 0
M  V30 10726 C 1050.73 0.41712 1.91101 0
M  V30 10727 C 1051.11 -1.10177 1.80067 0
M  V30 10728 O 1050.46 -1.93513 1.21511 0
M  V30 10729 C 1050.67 0.910364 3.36917 0
M  V30 10730 C 1052.01 0.942764 4.14001 0
M  V30 10731 O 1053.04 0.856733 3.45743 0
M  V30 10732 O 1051.9 1.06913 5.3594 0
M  V30 10733 H 1048.99 0.126775 0.817225 0
M  V30 10734 H 1051.54 0.969236 1.39298 0
M  V30 10735 H 1050.31 1.95414 3.39012 0
M  V30 10736 H 1049.93 0.337164 3.96168 0
M  V30 10737 N 1050.93 -1.4397 0.641131 0
M  V30 10738 C 1052.34 -1.85267 0.230838 0
M  V30 10739 C 1052.69 -1.53659 -1.21998 0
M  V30 10740 O 1051.82 -0.979572 -1.92959 0
M  V30 10741 C 1052.41 -3.36284 0.412171 0
M  V30 10742 C 1050.97 -3.76358 0.0563004 0
M  V30 10743 C 1050.12 -2.67768 0.720809 0
M  V30 10744 H 1053.07 -1.34294 0.845624 0
M  V30 10745 H 1053.09 -3.78924 -0.345936 0
M  V30 10746 H 1052.6 -3.59258 1.46818 0
M  V30 10747 H 1050.7 -3.58997 -0.997582 0
M  V30 10748 H 1050.82 -4.76756 0.473335 0
M  V30 10749 H 1049.18 -2.54227 0.155164 0
M  V30 10750 H 1049.96 -2.93573 1.77961 0
M  V30 10751 N 1052.41 -0.382291 -1.52893 0
M  V30 10752 C 1053.65 0.202133 -2.01489 0
M  V30 10753 C 1053.98 1.47399 -1.26901 0
M  V30 10754 O 1053.24 1.92439 -0.355771 0
M  V30 10755 C 1053.54 0.523437 -3.53546 0
M  V30 10756 C 1053.2 -0.656042 -4.46102 0
M  V30 10757 C 1051.86 -0.979633 -4.71123 0
M  V30 10758 C 1054.22 -1.44545 -5.00756 0
M  V30 10759 C 1051.54 -2.0943 -5.48047 0
M  V30 10760 C 1053.9 -2.55066 -5.78899 0
M  V30 10761 C 1052.56 -2.87942 -6.02201 0
M  V30 10762 H 1051.83 0.0739659 -0.737299 0
M  V30 10763 H 1054.48 -0.518196 -1.84356 0
M  V30 10764 H 1052.78 1.325 -3.68715 0
M  V30 10765 H 1054.48 0.988148 -3.88634 0
M  V30 10766 H 1051.07 -0.393818 -4.26787 0
M  V30 10767 H 1055.25 -1.20869 -4.81357 0
M  V30 10768 H 1050.51 -2.3528 -5.64317 0
M  V30 10769 H 1054.68 -3.1664 -6.20252 0
M  V30 10770 H 1052.31 -3.74435 -6.61591 0
M  V30 10771 N 1053.89 1.57202 -0.111913 0
M  V30 10772 C 1054.8 2.18475 0.854753 0
M  V30 10773 C 1055.81 1.15888 1.29792 0
M  V30 10774 O 1056.99 1.48329 1.36237 0
M  V30 10775 C 1054.05 2.76645 2.0897 0
M  V30 10776 C 1053.11 3.94244 1.69913 0
M  V30 10777 C 1052.35 4.49631 2.8752 0
M  V30 10778 O 1052.57 4.03926 4.02741 0
M  V30 10779 O 1051.5 5.40417 2.65015 0
M  V30 10780 H 1055.33 3.01519 0.363352 0
M  V30 10781 H 1052.91 1.4897 0.113329 0
M  V30 10782 H 1054.8 3.13755 2.81311 0
M  V30 10783 H 1053.47 1.96637 2.5713 0
M  V30 10784 H 1052.38 3.61915 0.947013 0
M  V30 10785 H 1053.71 4.75666 1.26501 0
M  V30 10786 N 1055.36 -0.161842 1.56767 0
M  V30 10787 C 1056.33 -1.18404 1.96247 0
M  V30 10788 C 1057.33 -1.3667 0.84722 0
M  V30 10789 O 1058.52 -1.33915 1.11411 0
M  V30 10790 C 1055.65 -2.54728 2.26553 0
M  V30 10791 H 1056.84 -0.845703 2.87729 0
M  V30 10792 H 1054.39 -0.404645 1.50971 0
M  V30 10793 H 1055.13 -2.93559 1.37816 0
M  V30 10794 H 1054.91 -2.42834 3.07854 0
M  V30 10795 H 1056.4 -3.28378 2.57987 0
M  V30 10796 N 1056.84 -1.516 -0.430713 0
M  V30 10797 C 1058.09 -1.64271 -1.17726 0
M  V30 10798 C 1058.41 -0.364406 -1.91565 0
M  V30 10799 O 1057.68 0.619991 -1.8583 0
M  V30 10800 H 1056.26 -0.605432 -0.437562 0
M  V30 10801 H 1058.92 -1.88557 -0.493166 0
M  V30 10802 H 1058.02 -2.47355 -1.90321 0
M  V30 10803 N 1058.32 0.686584 -1.41858 0
M  V30 10804 C 1059.25 1.81264 -1.47193 0
M  V30 10805 C 1060.23 1.66875 -0.329657 0
M  V30 10806 O 1061.42 1.86473 -0.542347 0
M  V30 10807 C 1058.55 3.19472 -1.36216 0
M  V30 10808 C 1057.5 3.4858 -2.48347 0
M  V30 10809 C 1056.83 4.86239 -2.22432 0
M  V30 10810 C 1058.13 3.46653 -3.90678 0
M  V30 10811 H 1059.82 1.77057 -2.41436 0
M  V30 10812 H 1057.37 0.850415 -1.16206 0
M  V30 10813 H 1059.32 3.97969 -1.38558 0
M  V30 10814 H 1058.04 3.24327 -0.384611 0
M  V30 10815 H 1056.7 2.72437 -2.45303 0
M  V30 10816 H 1056.35 4.8773 -1.22999 0
M  V30 10817 H 1056.05 5.06677 -2.97577 0
M  V30 10818 H 1057.57 5.67034 -2.26505 0
M  V30 10819 H 1058.99 4.15139 -3.95389 0
M  V30 10820 H 1057.38 3.78625 -4.65578 0
M  V30 10821 H 1058.45 2.45451 -4.18189 0
M  V30 10822 N 1059.8 1.27835 0.921735 0
M  V30 10823 C 1061.05 1.14296 1.66676 0
M  V30 10824 C 1061.37 -0.310493 1.92512 0
M  V30 10825 O 1060.64 -1.21637 1.53562 0
M  V30 10826 H 1059.22 0.419994 0.617749 0
M  V30 10827 H 1061.88 1.60449 1.10644 0
M  V30 10828 H 1060.97 1.67654 2.63246 0
M  V30 10829 N 1061.28 -1.12907 1.09954 0
M  V30 10830 C 1062.52 -1.84306 0.838912 0
M  V30 10831 C 1062.85 -1.83825 -0.635508 0
M  V30 10832 O 1062.11 -1.27556 -1.48418 0
M  V30 10833 C 1062.4 -3.31885 1.32616 0
M  V30 10834 C 1062.07 -3.52542 2.81114 0
M  V30 10835 C 1060.73 -3.57888 3.21667 0
M  V30 10836 C 1063.08 -3.60065 3.76833 0
M  V30 10837 C 1060.41 -3.68296 4.567 0
M  V30 10838 C 1062.76 -3.72001 5.11662 0
M  V30 10839 C 1061.43 -3.75602 5.51797 0
M  V30 10840 H 1060.7 -0.674422 0.30698 0
M  V30 10841 H 1063.35 -1.33261 1.37527 0
M  V30 10842 H 1061.65 -3.85318 0.709719 0
M  V30 10843 H 1063.35 -3.85588 1.10105 0
M  V30 10844 H 1059.94 -3.4904 2.48735 0
M  V30 10845 H 1064.12 -3.55209 3.46612 0
M  V30 10846 H 1059.38 -3.69352 4.87226 0
M  V30 10847 H 1063.55 -3.76765 5.8568 0
M  V30 10848 H 1061.18 -3.83419 6.56425 0
M  V30 10849 N 1062.75 -0.88754 -1.30232 0
M  V30 10850 C 1063.72 -0.361095 -2.26338 0
M  V30 10851 C 1064.72 0.497871 -1.52898 0
M  V30 10852 O 1065.91 0.30466 -1.71515 0
M  V30 10853 C 1063.04 0.485135 -3.3743 0
M  V30 10854 H 1064.23 -1.20973 -2.74419 0
M  V30 10855 H 1061.78 -0.664619 -1.41466 0
M  V30 10856 H 1062.52 1.35425 -2.9467 0
M  V30 10857 H 1062.3 -0.130173 -3.91884 0
M  V30 10858 H 1063.79 0.845169 -4.08958 0
M  V30 10859 N 1064.23 1.43628 -0.648757 0
M  V30 10860 C 1065.48 2.02163 -0.160574 0
M  V30 10861 C 1065.81 1.51037 1.22072 0
M  V30 10862 O 1065.09 0.701633 1.81404 0
M  V30 10863 C 1065.37 3.59715 -0.166528 0
M  V30 10864 C 1065.22 4.21083 -1.58142 0
M  V30 10865 C 1066.54 4.37256 0.499485 0
M  V30 10866 H 1063.66 0.734568 -0.0598238 0
M  V30 10867 H 1066.3 1.70981 -0.828592 0
M  V30 10868 H 1064.45 3.86411 0.402302 0
M  V30 10869 H 1066.12 4.05433 -2.2005 0
M  V30 10870 H 1064.37 3.77904 -2.13005 0
M  V30 10871 H 1065.04 5.30156 -1.53748 0
M  V30 10872 H 1067.51 4.16097 0.0155561 0
M  V30 10873 H 1066.39 5.4693 0.464574 0
M  V30 10874 H 1066.65 4.13175 1.57286 0
M  V30 10875 N 1065.71 0.390394 1.52688 0
M  V30 10876 C 1066.66 -0.444229 2.26485 0
M  V30 10877 C 1067.63 -1.05688 1.28138 0
M  V30 10878 O 1068.81 -1.0847 1.56968 0
M  V30 10879 C 1065.95 -1.56501 3.07574 0
M  V30 10880 C 1065.07 -0.975111 4.20851 0
M  V30 10881 C 1064.2 -2.06704 4.89333 0
M  V30 10882 C 1063.24 -1.45309 5.94602 0
M  V30 10883 N 1062.38 -2.48437 6.56676 0
M  V30 10884 H 1067.22 0.191535 2.97384 0
M  V30 10885 H 1064.75 0.106287 1.46716 0
M  V30 10886 H 1066.71 -2.22558 3.52879 0
M  V30 10887 H 1065.34 -2.17107 2.38881 0
M  V30 10888 H 1064.39 -0.204109 3.79852 0
M  V30 10889 H 1065.71 -0.486465 4.96422 0
M  V30 10890 H 1064.86 -2.80528 5.37949 0
M  V30 10891 H 1063.6 -2.58928 4.13289 0
M  V30 10892 H 1062.6 -0.700091 5.45324 0
M  V30 10893 H 1063.83 -0.938775 6.7258 0
M  V30 10894 H 1061.77 -2.99829 5.83471 0
M  V30 10895 H 1061.69 -2.04331 7.27863 0
M  V30 10896 H 1062.96 -3.21888 7.09935 0
M  V30 10897 N 1067.19 -1.57141 0.120249 0
M  V30 10898 C 1068.12 -2.11097 -0.8668 0
M  V30 10899 C 1069.1 -1.02768 -1.26006 0
M  V30 10900 O 1070.28 -1.3043 -1.36089 0
M  V30 10901 C 1067.41 -2.6087 -2.1602 0
M  V30 10902 C 1066.46 -3.81095 -1.91491 0
M  V30 10903 S 1067.29 -5.23441 -1.13005 0
M  V30 10904 C 1068.45 -5.76583 -2.43521 0
M  V30 10905 H 1068.68 -2.94489 -0.407871 0
M  V30 10906 H 1066.21 -1.54116 -0.0935491 0
M  V30 10907 H 1068.17 -2.90201 -2.90333 0
M  V30 10908 H 1066.83 -1.77657 -2.5903 0
M  V30 10909 H 1066.02 -4.14074 -2.8733 0
M  V30 10910 H 1065.63 -3.52387 -1.25297 0
M  V30 10911 H 1067.92 -5.86384 -3.39352 0
M  V30 10912 H 1068.86 -6.74644 -2.15085 0
M  V30 10913 H 1069.27 -5.04657 -2.52946 0
M  V30 10914 N 1068.67 0.153526 -1.5685 0
M  V30 10915 C 1069.63 1.17362 -1.96873 0
M  V30 10916 C 1070.63 1.36219 -0.854456 0
M  V30 10917 O 1071.82 1.33322 -1.1212 0
M  V30 10918 C 1068.95 2.53523 -2.27901 0
M  V30 10919 H 1070.14 0.830432 -2.88173 0
M  V30 10920 H 1067.7 0.396633 -1.51184 0
M  V30 10921 H 1068.43 2.92824 -1.39371 0
M  V30 10922 H 1068.22 2.41198 -3.09137 0
M  V30 10923 H 1069.71 3.27006 -2.59725 0
M  V30 10924 N 1070.14 1.51827 0.422667 0
M  V30 10925 C 1071.09 1.74198 1.51406 0
M  V30 10926 C 1072.06 0.584013 1.55494 0
M  V30 10927 O 1073.25 0.820079 1.72277 0
M  V30 10928 C 1070.39 1.88627 2.88988 0
M  V30 10929 C 1069.5 3.16233 2.94314 0
M  V30 10930 C 1068.63 3.21172 4.2311 0
M  V30 10931 C 1067.67 4.43033 4.2236 0
M  V30 10932 N 1066.81 4.4544 5.42704 0
M  V30 10933 H 1071.65 2.67352 1.31632 0
M  V30 10934 H 1069.19 1.32487 0.63919 0
M  V30 10935 H 1071.15 1.94976 3.68837 0
M  V30 10936 H 1069.78 0.988673 3.07287 0
M  V30 10937 H 1068.83 3.19123 2.07039 0
M  V30 10938 H 1070.14 4.06104 2.89623 0
M  V30 10939 H 1069.29 3.26517 5.11343 0
M  V30 10940 H 1068.03 2.29216 4.30478 0
M  V30 10941 H 1067.04 4.37849 3.32518 0
M  V30 10942 H 1068.26 5.3627 4.16643 0
M  V30 10943 H 1066.21 3.56361 5.50766 0
M  V30 10944 H 1066.13 5.29138 5.39953 0
M  V30 10945 H 1067.39 4.54997 6.32928 0
M  V30 10946 N 1071.62 -0.679052 1.4222 0
M  V30 10947 C 1072.53 -1.82221 1.47759 0
M  V30 10948 C 1073.55 -1.70092 0.3667 0
M  V30 10949 O 1074.72 -1.91718 0.616957 0
M  V30 10950 C 1071.79 -3.18332 1.37351 0
M  V30 10951 C 1070.85 -3.42449 2.58896 0
M  V30 10952 C 1070.08 -4.72067 2.48976 0
M  V30 10953 O 1070.31 -5.49683 1.5233 0
M  V30 10954 O 1069.24 -4.97333 3.39033 0
M  V30 10955 H 1073.07 -1.80504 2.44238 0
M  V30 10956 H 1070.65 -0.834251 1.23938 0
M  V30 10957 H 1072.53 -3.99563 1.33893 0
M  V30 10958 H 1071.21 -3.20696 0.439965 0
M  V30 10959 H 1070.12 -2.61083 2.6793 0
M  V30 10960 H 1071.45 -3.44912 3.51136 0
M  V30 10961 N 1073.1 -1.28322 -0.914942 0
M  V30 10962 C 1074.33 -1.1837 -1.70304 0
M  V30 10963 C 1074.75 0.254291 -1.86373 0
M  V30 10964 O 1074.11 1.18398 -1.37301 0
M  V30 10965 C 1074.16 -1.88603 -3.07346 0
M  V30 10966 O 1073.26 -1.19268 -3.94777 0
M  V30 10967 H 1072.6 -0.410978 -0.52153 0
M  V30 10968 H 1075.13 -1.69622 -1.14409 0
M  V30 10969 H 1075.14 -1.96463 -3.57584 0
M  V30 10970 H 1073.82 -2.93201 -2.94967 0
M  V30 10971 H 1072.39 -1.19563 -3.53212 0
M  V30 10972 N 1074.58 1.12322 -1.10551 0
M  V30 10973 C 1075.83 1.83858 -0.848674 0
M  V30 10974 C 1076.15 1.84159 0.62575 0
M  V30 10975 O 1075.41 1.28341 1.4774 0
M  V30 10976 C 1075.71 3.31177 -1.34375 0
M  V30 10977 C 1075.37 3.51046 -2.8298 0
M  V30 10978 C 1074.04 3.56177 -3.23561 0
M  V30 10979 C 1076.39 3.58061 -3.78737 0
M  V30 10980 C 1073.72 3.65868 -4.58647 0
M  V30 10981 C 1076.07 3.69283 -5.13627 0
M  V30 10982 C 1074.73 3.7267 -5.53781 0
M  V30 10983 H 1074 0.672784 -0.310552 0
M  V30 10984 H 1076.65 1.3253 -1.38232 0
M  V30 10985 H 1074.95 3.84937 -0.730144 0
M  V30 10986 H 1076.65 3.84998 -1.12148 0
M  V30 10987 H 1073.24 3.47716 -2.50582 0
M  V30 10988 H 1077.42 3.53366 -3.48491 0
M  V30 10989 H 1072.68 3.66763 -4.89178 0
M  V30 10990 H 1076.85 3.73654 -5.8767 0
M  V30 10991 H 1074.48 3.79932 -6.58449 0
M  V30 10992 N 1076.06 0.894434 1.2976 0
M  V30 10993 C 1077.31 0.513673 1.95049 0
M  V30 10994 C 1077.62 -0.943744 1.71327 0
M  V30 10995 O 1078.82 -1.43179 2.30678 0
M  V30 10996 C 1077.28 0.867751 3.49282 0
M  V30 10997 C 1076.89 2.34358 3.81812 0
M  V30 10998 C 1078.63 0.556645 4.20835 0
M  V30 10999 C 1076.54 2.63879 5.29265 0
M  V30 11000 H 1075.47 0.188375 0.73009 0
M  V30 11001 H 1078.12 1.09071 1.47566 0
M  V30 11002 H 1076.5 0.2197 3.9539 0
M  V30 11003 H 1077.68 3.03674 3.46581 0
M  V30 11004 H 1075.99 2.62318 3.23386 0
M  V30 11005 H 1078.59 0.754123 5.29355 0
M  V30 11006 H 1078.93 -0.504526 4.13231 0
M  V30 11007 H 1079.46 1.1623 3.80441 0
M  V30 11008 H 1076.2 3.68774 5.41928 0
M  V30 11009 H 1075.72 1.99182 5.65762 0
M  V30 11010 H 1077.4 2.49871 5.96803 0
M  V30 11011 N 1077.53 -1.43282 0.656365 0
M  V30 11012 C 1078.78 -2.01378 0.170702 0
M  V30 11013 C 1079.1 -1.52063 -1.22073 0
M  V30 11014 O 1078.37 -0.73456 -1.81607 0
M  V30 11015 H 1076.95 -0.744577 0.0601168 0
M  V30 11016 H 1079.62 -1.75449 0.848739 0
M  V30 11017 H 1078.71 -3.11701 0.157745 0
M  V30 11018 N 1079.01 -0.398486 -1.52479 0
M  V30 11019 C 1079.96 0.432212 -2.26717 0
M  V30 11020 C 1080.93 1.05007 -1.28696 0
M  V30 11021 O 1082.12 1.07636 -1.57541 0
M  V30 11022 C 1079.26 1.54868 -3.08399 0
M  V30 11023 C 1078.37 0.952779 -4.21362 0
M  V30 11024 C 1077.5 2.04106 -4.90423 0
M  V30 11025 C 1076.54 1.42153 -5.95364 0
M  V30 11026 N 1075.68 2.44951 -6.57984 0
M  V30 11027 H 1080.52 -0.207303 -2.97278 0
M  V30 11028 H 1078.06 -0.114066 -1.46657 0
M  V30 11029 H 1080.01 2.20684 -3.54054 0
M  V30 11030 H 1078.64 2.15837 -2.4003 0
M  V30 11031 H 1077.7 0.183962 -3.79955 0
M  V30 11032 H 1079.01 0.460131 -4.96673 0
M  V30 11033 H 1078.16 2.77672 -5.39429 0
M  V30 11034 H 1076.9 2.56733 -4.14656 0
M  V30 11035 H 1075.91 0.671161 -5.45688 0
M  V30 11036 H 1077.13 0.903093 -6.73068 0
M  V30 11037 H 1075.08 2.9673 -5.85053 0
M  V30 11038 H 1074.99 2.00468 -7.28937 0
M  V30 11039 H 1076.26 3.18119 -7.11632 0
M  V30 11040 N 1080.49 1.57075 -0.12858 0
M  V30 11041 C 1081.74 1.95134 0.526046 0
M  V30 11042 C 1082.06 1.01337 1.66601 0
M  V30 11043 O 1081.33 0.0714361 1.9577 0
M  V30 11044 H 1079.91 0.720468 0.19732 0
M  V30 11045 H 1082.57 1.93874 -0.199767 0
M  V30 11046 H 1081.67 2.98406 0.914332 0
M  V30 11047 N 1081.97 -0.145205 1.5693 0
M  V30 11048 C 1082.93 -1.16316 1.97492 0
M  V30 11049 C 1083.93 -1.35764 0.861668 0
M  V30 11050 O 1085.12 -1.32726 1.12825 0
M  V30 11051 C 1082.25 -2.52311 2.29242 0
M  V30 11052 H 1083.45 -0.815138 2.8861 0
M  V30 11053 H 1081 -0.38861 1.51392 0
M  V30 11054 H 1081.74 -2.92081 1.40922 0
M  V30 11055 H 1081.52 -2.39555 3.10412 0
M  V30 11056 H 1083.01 -3.25624 2.61456 0
M  V30 11057 N 1083.45 -1.52049 -0.414609 0
M  V30 11058 C 1084.38 -1.77956 -1.51175 0
M  V30 11059 C 1085.36 -0.630282 -1.57992 0
M  V30 11060 O 1086.54 -0.875324 -1.73354 0
M  V30 11061 C 1083.67 -1.92527 -2.89051 0
M  V30 11062 C 1082.63 -3.08096 -2.97087 0
M  V30 11063 C 1081.95 -3.07882 -4.37164 0
M  V30 11064 C 1083.25 -4.47656 -2.69075 0
M  V30 11065 H 1084.95 -2.69827 -1.29746 0
M  V30 11066 H 1082.49 -1.29839 -0.62273 0
M  V30 11067 H 1084.45 -2.09234 -3.65786 0
M  V30 11068 H 1083.17 -0.973235 -3.11762 0
M  V30 11069 H 1081.83 -2.91131 -2.22797 0
M  V30 11070 H 1081.48 -2.10411 -4.56877 0
M  V30 11071 H 1081.18 -3.85501 -4.43467 0
M  V30 11072 H 1082.7 -3.26712 -5.15841 0
M  V30 11073 H 1084.12 -4.64855 -3.35534 0
M  V30 11074 H 1082.51 -5.27151 -2.8676 0
M  V30 11075 H 1083.58 -4.56129 -1.64544 0
M  V30 11076 N 1084.93 0.6715 -1.42579 0
M  V30 11077 C 1085.84 1.81435 -1.48723 0
M  V30 11078 C 1086.85 1.69895 -0.375716 0
M  V30 11079 O 1088.03 1.91388 -0.627115 0
M  V30 11080 C 1085.09 3.17599 -1.39038 0
M  V30 11081 C 1084.15 3.41071 -2.60709 0
M  V30 11082 C 1083.39 4.7074 -2.51476 0
M  V30 11083 O 1083.61 5.48868 -1.55243 0
M  V30 11084 O 1082.54 4.95528 -3.41666 0
M  V30 11085 H 1086.37 1.79206 -2.45191 0
M  V30 11086 H 1083.95 0.827666 -1.24379 0
M  V30 11087 H 1085.84 3.98847 -1.3601 0
M  V30 11088 H 1084.51 3.20458 -0.456966 0
M  V30 11089 H 1083.42 2.59659 -2.69311 0
M  V30 11090 H 1084.75 3.43045 -3.5296 0
M  V30 11091 N 1086.4 1.28806 0.908124 0
M  V30 11092 C 1087.65 1.16058 1.65454 0
M  V30 11093 C 1087.97 -0.290057 1.92831 0
M  V30 11094 O 1087.24 -1.20001 1.54843 0
M  V30 11095 H 1085.82 0.426522 0.61326 0
M  V30 11096 H 1088.48 1.61614 1.08936 0
M  V30 11097 H 1087.58 1.70437 2.61453 0
M  V30 11098 N 1087.88 -1.11734 1.11145 0
M  V30 11099 C 1089.3 -1.35412 0.844736 0
M  V30 11100 C 1089.5 -1.94347 -0.532111 0
M  V30 11101 O 1088.55 -2.17443 -1.28353 0
M  V30 11102 C 1089.87 -2.28869 1.95037 0
M  V30 11103 C 1091.41 -2.42442 1.97967 0
M  V30 11104 C 1091.89 -3.39219 3.07725 0
M  V30 11105 N 1093.38 -3.4678 3.07079 0
M  V30 11106 C 1094.12 -4.21595 3.88646 0
M  V30 11107 N 1093.61 -4.99411 4.80167 0
M  V30 11108 N 1095.4 -4.17075 3.76835 0
M  V30 11109 H 1087.56 -0.718412 1.99881 0
M  V30 11110 H 1089.82 -0.378787 0.869037 0
M  V30 11111 H 1089.52 -1.92752 2.94176 0
M  V30 11112 H 1089.4 -3.2906 1.84389 0
M  V30 11113 H 1091.79 -2.77835 0.994561 0
M  V30 11114 H 1091.87 -1.42113 2.12691 0
M  V30 11115 H 1091.51 -3.04553 4.0646 0
M  V30 11116 H 1091.44 -4.39394 2.90242 0
M  V30 11117 H 1093.93 -2.91272 2.40767 0
M  V30 11118 H 1094.24 -5.53856 5.38946 0
M  V30 11119 H 1092.59 -4.98582 4.84191 0
M  V30 11120 H 1095.78 -3.55369 3.04681 0
M  V30 11121 H 1095.95 -4.75125 4.40637 0
M  V30 11122 N 1089.36 -0.901303 -1.29284 0
M  V30 11123 C 1090.59 -0.543511 -1.99634 0
M  V30 11124 C 1091 0.872154 -1.67448 0
M  V30 11125 O 1090.36 1.57591 -0.920406 0
M  V30 11126 C 1090.41 -0.728148 -3.54091 0
M  V30 11127 O 1090.13 -2.08809 -3.85137 0
M  V30 11128 C 1091.63 -0.375519 -4.41707 0
M  V30 11129 H 1088.85 -0.208405 -0.637815 0
M  V30 11130 H 1091.4 -1.21109 -1.64781 0
M  V30 11131 H 1089.55 -0.107728 -3.8725 0
M  V30 11132 H 1089.97 -2.11863 -4.79807 0
M  V30 11133 H 1091.44 -0.555538 -5.49197 0
M  V30 11134 H 1091.92 0.687532 -4.33785 0
M  V30 11135 H 1092.52 -0.972949 -4.14021 0
M  V30 11136 N 1090.84 1.42931 -0.663954 0
M  V30 11137 C 1091.75 2.3459 0.0214234 0
M  V30 11138 C 1092.76 1.54487 0.800611 0
M  V30 11139 O 1093.94 1.87098 0.74541 0
M  V30 11140 C 1091 3.32896 0.968556 0
M  V30 11141 C 1090.07 4.28901 0.185108 0
M  V30 11142 C 1089.3 5.2251 1.08713 0
M  V30 11143 O 1089.52 5.20795 2.32655 0
M  V30 11144 O 1088.46 5.99347 0.553758 0
M  V30 11145 H 1092.28 2.94714 -0.733308 0
M  V30 11146 H 1089.87 1.43252 -0.424159 0
M  V30 11147 H 1091.75 3.93318 1.51257 0
M  V30 11148 H 1090.42 2.75261 1.70333 0
M  V30 11149 H 1089.33 3.71926 -0.402752 0
M  V30 11150 H 1090.66 4.89547 -0.510319 0
M  V30 11151 N 1092.32 0.406567 1.52266 0
M  V30 11152 C 1093.23 -0.4271 2.30679 0
M  V30 11153 C 1094.24 -1.0559 1.383 0
M  V30 11154 O 1095.42 -1.05797 1.71374 0
M  V30 11155 C 1092.48 -1.53008 3.1111 0
M  V30 11156 C 1091.54 -0.924604 4.19225 0
M  V30 11157 C 1090.78 -1.97502 4.95811 0
M  V30 11158 O 1091 -3.19277 4.72671 0
M  V30 11159 O 1089.93 -1.58268 5.80719 0
M  V30 11160 H 1093.76 0.212187 3.02958 0
M  V30 11161 H 1091.34 0.169835 1.48432 0
M  V30 11162 H 1093.23 -2.17046 3.61205 0
M  V30 11163 H 1091.9 -2.15401 2.41628 0
M  V30 11164 H 1090.81 -0.247009 3.73284 0
M  V30 11165 H 1092.14 -0.34463 4.90992 0
M  V30 11166 N 1093.79 -1.57004 0.136909 0
M  V30 11167 C 1094.76 -2.15066 -0.792419 0
M  V30 11168 C 1095.76 -1.08991 -1.18226 0
M  V30 11169 O 1096.95 -1.34681 -1.10484 0
M  V30 11170 C 1094.08 -2.70554 -2.07397 0
M  V30 11171 H 1095.27 -2.98519 -0.28752 0
M  V30 11172 H 1092.83 -1.55895 -0.112469 0
M  V30 11173 H 1093.56 -1.90739 -2.62277 0
M  V30 11174 H 1093.35 -3.48149 -1.80374 0
M  V30 11175 H 1094.84 -3.15322 -2.73792 0
M  V30 11176 N 1095.27 0.136881 -1.57004 0
M  V30 11177 C 1096.5 0.866405 -1.88436 0
M  V30 11178 C 1096.92 1.73483 -0.727006 0
M  V30 11179 O 1096.28 1.78398 0.323094 0
M  V30 11180 C 1096.33 1.69059 -3.18514 0
M  V30 11181 O 1095.43 2.79584 -3.03161 0
M  V30 11182 H 1094.77 0.240709 -0.618834 0
M  V30 11183 H 1097.3 0.124653 -2.0422 0
M  V30 11184 H 1097.31 2.08353 -3.50789 0
M  V30 11185 H 1095.99 1.05296 -4.0235 0
M  V30 11186 H 1094.57 2.43623 -2.82315 0
M  V30 11187 N 1096.75 1.52266 0.40654 0
M  V30 11188 C 1097.71 1.75168 1.47814 0
M  V30 11189 C 1098.71 0.621575 1.48301 0
M  V30 11190 O 1099.9 0.889476 1.4978 0
M  V30 11191 C 1097.04 1.83642 2.87208 0
M  V30 11192 H 1098.23 2.70834 1.28798 0
M  V30 11193 H 1095.78 1.42722 0.637196 0
M  V30 11194 H 1096.52 0.898994 3.1159 0
M  V30 11195 H 1096.3 2.65801 2.88257 0
M  V30 11196 H 1097.79 2.03093 3.64888 0
M  V30 11197 N 1098.23 -0.663929 1.42933 0
M  V30 11198 C 1099.64 -0.978346 1.26097 0
M  V30 11199 C 1099.84 -2.00756 0.172968 0
M  V30 11200 O 1098.9 -2.48418 -0.452184 0
M  V30 11201 C 1100.21 -1.4728 2.62162 0
M  V30 11202 C 1101.76 -1.59001 2.69606 0
M  V30 11203 C 1102.24 -2.1184 4.06064 0
M  V30 11204 N 1103.73 -2.19158 4.08074 0
M  V30 11205 C 1104.46 -2.61141 5.10483 0
M  V30 11206 N 1103.96 -3.02498 6.23271 0
M  V30 11207 N 1105.75 -2.60986 4.97838 0
M  V30 11208 H 1097.9 0.0173096 2.12393 0
M  V30 11209 H 1100.17 -0.0548116 0.946414 0
M  V30 11210 H 1099.87 -0.791008 3.42689 0
M  V30 11211 H 1099.75 -2.4497 2.86827 0
M  V30 11212 H 1102.13 -2.26284 1.89418 0
M  V30 11213 H 1102.21 -0.597728 2.48718 0
M  V30 11214 H 1101.86 -1.45162 4.86714 0
M  V30 11215 H 1101.79 -3.1188 4.2431 0
M  V30 11216 H 1104.28 -1.90013 3.26655 0
M  V30 11217 H 1104.59 -3.33251 6.97254 0
M  V30 11218 H 1102.94 -3.00328 6.2676 0
M  V30 11219 H 1106.13 -2.28046 4.08794 0
M  V30 11220 H 1106.3 -2.93384 5.7778 0
M  V30 11221 N 1099.71 -1.29285 -0.901281 0
M  V30 11222 C 1101.12 -1.07263 -1.18182 0
M  V30 11223 C 1101.32 0.177087 -2.0072 0
M  V30 11224 O 1100.38 0.875292 -2.36844 0
M  V30 11225 C 1101.69 -2.32717 -1.9043 0
M  V30 11226 C 1103.24 -2.3802 -2.03262 0
M  V30 11227 C 1103.71 -3.63273 -2.7892 0
M  V30 11228 N 1105.21 -3.63986 -2.86475 0
M  V30 11229 C 1105.94 -4.57585 -3.45549 0
M  V30 11230 N 1105.44 -5.61513 -4.05801 0
M  V30 11231 N 1107.23 -4.45157 -3.43208 0
M  V30 11232 H 1099.38 -2.09487 -0.350536 0
M  V30 11233 H 1101.64 -0.922647 -0.217778 0
M  V30 11234 H 1101.35 -3.23828 -1.37216 0
M  V30 11235 H 1101.22 -2.40102 -2.90913 0
M  V30 11236 H 1103.61 -1.47398 -2.55652 0
M  V30 11237 H 1103.69 -2.3462 -1.01916 0
M  V30 11238 H 1103.34 -4.54246 -2.27206 0
M  V30 11239 H 1103.27 -3.6393 -3.80608 0
M  V30 11240 H 1105.76 -2.8884 -2.43679 0
M  V30 11241 H 1106.07 -6.29058 -4.48894 0
M  V30 11242 H 1104.41 -5.65325 -4.04268 0
M  V30 11243 H 1107.61 -3.63158 -2.95354 0
M  V30 11244 H 1107.78 -5.18286 -3.88952 0
M  V30 11245 N 1101.18 1.11143 -1.11736 0
M  V30 11246 C 1102.11 2.19339 -0.800795 0
M  V30 11247 C 1103.1 1.68508 0.23221 0
M  V30 11248 O 1104.28 1.93967 0.0950063 0
M  V30 11249 C 1101.41 3.46424 -0.246579 0
M  V30 11250 C 1100.36 4.10487 -1.21181 0
M  V30 11251 C 1099.69 5.32183 -0.518158 0
M  V30 11252 C 1100.99 4.55052 -2.56368 0
M  V30 11253 H 1102.68 2.46077 -1.70548 0
M  V30 11254 H 1100.23 1.18271 -0.821454 0
M  V30 11255 H 1102.18 4.21398 -0.0128889 0
M  V30 11256 H 1100.91 3.19154 0.693415 0
M  V30 11257 H 1099.57 3.3751 -1.43118 0
M  V30 11258 H 1099.21 5.01187 0.426742 0
M  V30 11259 H 1098.91 5.75997 -1.16196 0
M  V30 11260 H 1100.44 6.09895 -0.293333 0
M  V30 11261 H 1101.85 5.21335 -2.38501 0
M  V30 11262 H 1100.25 5.0969 -3.16758 0
M  V30 11263 H 1101.32 3.68343 -3.1536 0
M  V30 11264 N 1102.66 0.908147 1.28804 0
M  V30 11265 C 1104.08 0.605474 1.47669 0
M  V30 11266 C 1104.28 -0.850759 1.82659 0
M  V30 11267 O 1103.33 -1.63029 1.92816 0
M  V30 11268 C 1104.65 1.53856 2.58358 0
M  V30 11269 C 1106.2 1.54467 2.7223 0
M  V30 11270 C 1106.67 2.46424 3.86056 0
M  V30 11271 N 1108.16 2.44519 3.93402 0
M  V30 11272 C 1108.9 3.12371 4.80845 0
M  V30 11273 N 1108.39 3.89533 5.72919 0
M  V30 11274 N 1110.19 3.01486 4.74407 0
M  V30 11275 H 1102.34 1.84988 1.04371 0
M  V30 11276 H 1104.6 0.793132 0.519274 0
M  V30 11277 H 1104.31 2.57651 2.39393 0
M  V30 11278 H 1104.18 1.26543 3.5534 0
M  V30 11279 H 1106.57 0.514127 2.90587 0
M  V30 11280 H 1106.65 1.85821 1.75796 0
M  V30 11281 H 1106.29 3.49577 3.68454 0
M  V30 11282 H 1106.22 2.12375 4.81876 0
M  V30 11283 H 1108.71 1.88464 3.27551 0
M  V30 11284 H 1109.03 4.3834 6.36457 0
M  V30 11285 H 1107.37 3.93639 5.72777 0
M  V30 11286 H 1110.56 2.40713 4.01466 0
M  V30 11287 H 1110.73 3.5464 5.42342 0
M  V30 11288 N 1104.14 -1.42577 0.671525 0
M  V30 11289 C 1105.38 -2.03455 0.196271 0
M  V30 11290 C 1105.74 -1.51934 -1.17389 0
M  V30 11291 O 1106.95 -2.04577 -1.74361 0
M  V30 11292 C 1105.22 -3.56687 0.225624 0
M  V30 11293 S 1106.78 -4.38434 -0.179107 0
M  V30 11294 H 1103.59 -0.706371 0.0809995 0
M  V30 11295 H 1106.2 -1.74375 0.883948 0
M  V30 11296 H 1104.9 -3.91684 1.22524 0
M  V30 11297 H 1104.43 -3.90436 -0.481994 0
M  V30 11298 H 1106.45 -4.75646 -1.41332 0
M  V30 11299 N 1105.62 -0.414636 -1.52048 0
M  V30 11300 C 1106.55 0.399119 -2.30064 0
M  V30 11301 C 1107.53 1.04126 -1.34506 0
M  V30 11302 O 1108.71 1.04923 -1.63416 0
M  V30 11303 C 1105.84 1.51305 -3.12608 0
M  V30 11304 C 1104.8 0.995621 -4.16259 0
M  V30 11305 C 1104.12 2.20357 -4.87183 0
M  V30 11306 C 1105.42 0.0458178 -5.2228 0
M  V30 11307 H 1107.12 -0.251879 -2.98339 0
M  V30 11308 H 1104.66 -0.122579 -1.43477 0
M  V30 11309 H 1106.62 2.08936 -3.65956 0
M  V30 11310 H 1105.34 2.19201 -2.42113 0
M  V30 11311 H 1104 0.441676 -3.6393 0
M  V30 11312 H 1103.65 2.8682 -4.13211 0
M  V30 11313 H 1103.35 1.86385 -5.57256 0
M  V30 11314 H 1104.87 2.78584 -5.43345 0
M  V30 11315 H 1106.29 0.531102 -5.70835 0
M  V30 11316 H 1104.68 -0.20536 -5.99749 0
M  V30 11317 H 1105.75 -0.897807 -4.76516 0
M  V30 11318 N 1107.1 1.56929 -0.145233 0
M  V30 11319 C 1108.32 2.00431 0.513314 0
M  V30 11320 C 1108.74 1.0253 1.58534 0
M  V30 11321 O 1108.1 0.0220459 1.82487 0
M  V30 11322 C 1108.15 3.43856 1.11557 0
M  V30 11323 O 1107.87 4.38015 0.0863707 0
M  V30 11324 C 1109.37 4.02627 1.8549 0
M  V30 11325 H 1106.59 0.657529 0.133778 0
M  V30 11326 H 1109.13 2.03095 -0.239296 0
M  V30 11327 H 1107.29 3.4205 1.81881 0
M  V30 11328 H 1107.7 5.21842 0.527363 0
M  V30 11329 H 1109.18 5.04985 2.22923 0
M  V30 11330 H 1109.65 3.43239 2.74014 0
M  V30 11331 H 1110.26 4.08058 1.19869 0
M  V30 11332 N 1108.58 -0.128553 1.57075 0
M  V30 11333 C 1109.82 -0.836536 1.83535 0
M  V30 11334 C 1110.14 -1.81491 0.7294 0
M  V30 11335 O 1111.34 -2.56838 0.880128 0
M  V30 11336 C 1109.8 -1.53836 3.25365 0
M  V30 11337 C 1109.41 -0.601454 4.43944 0
M  V30 11338 C 1111.15 -2.23204 3.61082 0
M  V30 11339 C 1109.06 -1.30596 5.768 0
M  V30 11340 H 1107.99 -0.316142 0.684522 0
M  V30 11341 H 1110.64 -0.0892555 1.83283 0
M  V30 11342 H 1109.02 -2.33192 3.20058 0
M  V30 11343 H 1110.2 0.158209 4.60528 0
M  V30 11344 H 1108.51 -0.0152393 4.16397 0
M  V30 11345 H 1111.11 -2.76585 4.57608 0
M  V30 11346 H 1111.45 -3.0056 2.88044 0
M  V30 11347 H 1111.98 -1.50746 3.68131 0
M  V30 11348 H 1108.72 -0.573874 6.52983 0
M  V30 11349 H 1108.24 -2.03787 5.6412 0
M  V30 11350 H 1109.92 -1.8418 6.20231 0
M  V30 11351 N 1110.05 -1.5248 -0.398459 0
M  V30 11352 C 1111.33 -1.57634 -1.15805 0
M  V30 11353 C 1111.71 -0.363785 -2.07942 0
M  V30 11354 O 1111.06 0.648598 -2.19101 0
M  V30 11355 C 1111.27 -2.91042 -1.92602 0
M  V30 11356 C 1112.62 -3.44433 -2.48296 0
M  V30 11357 O 1113.64 -2.92853 -2.0277 0
M  V30 11358 O 1112.5 -4.34529 -3.31432 0
M  V30 11359 H 1109.59 -0.63539 -0.529347 0
M  V30 11360 H 1112.14 -1.64812 -0.404376 0
M  V30 11361 H 1110.91 -3.7074 -1.25169 0
M  V30 11362 H 1110.53 -2.87206 -2.74952 0
M  V30 11363 N 1111.53 0.65634 -1.43283 0
M  V30 11364 C 1112.81 1.41339 -1.35213 0
M  V30 11365 C 1113.19 2.111 0.00158494 0
M  V30 11366 O 1112.54 2.0457 1.018 0
M  V30 11367 C 1112.75 2.40066 -2.53317 0
M  V30 11368 C 1114.09 3.04159 -2.96264 0
M  V30 11369 O 1115.12 2.50393 -2.53341 0
M  V30 11370 O 1113.98 4.01633 -3.70612 0
M  V30 11371 H 1111.07 0.631325 -0.534189 0
M  V30 11372 H 1113.62 0.68351 -1.55326 0
M  V30 11373 H 1112.39 1.87444 -3.43483 0
M  V30 11374 H 1112.01 3.20509 -2.35287 0
M  V30 11375 N 1113.01 1.29761 0.894412 0
M  V30 11376 C 1114.26 1.17806 1.64214 0
M  V30 11377 C 1114.58 -0.269588 1.93127 0
M  V30 11378 O 1113.85 -1.18352 1.56107 0
M  V30 11379 H 1112.43 0.433002 0.608702 0
M  V30 11380 H 1115.09 1.6276 1.07216 0
M  V30 11381 H 1114.19 1.73201 2.5963 0
M  V30 11382 N 1114.49 -1.10549 1.12324 0
M  V30 11383 C 1115.9 -1.34508 0.85905 0
M  V30 11384 C 1116.1 -1.94901 -0.511468 0
M  V30 11385 O 1115.16 -2.18793 -1.2604 0
M  V30 11386 C 1116.47 -2.26788 1.97453 0
M  V30 11387 C 1118.02 -2.40328 2.00528 0
M  V30 11388 C 1118.5 -3.35936 3.11305 0
M  V30 11389 N 1119.99 -3.43504 3.1074 0
M  V30 11390 C 1120.72 -4.17449 3.93096 0
M  V30 11391 N 1120.22 -4.9429 4.85437 0
M  V30 11392 N 1122.01 -4.13055 3.81237 0
M  V30 11393 H 1114.16 -0.697171 2.00632 0
M  V30 11394 H 1116.42 -0.369548 0.873005 0
M  V30 11395 H 1116.13 -1.89621 2.96204 0
M  V30 11396 H 1116 -3.27086 1.87869 0
M  V30 11397 H 1118.39 -2.76765 1.02397 0
M  V30 11398 H 1118.47 -1.39849 2.14186 0
M  V30 11399 H 1118.12 -3.00225 4.09667 0
M  V30 11400 H 1118.05 -4.36291 2.94886 0
M  V30 11401 H 1120.54 -2.88702 2.43843 0
M  V30 11402 H 1120.85 -5.48109 5.4479 0
M  V30 11403 H 1119.2 -4.93419 4.89452 0
M  V30 11404 H 1122.39 -3.52117 3.08433 0
M  V30 11405 H 1122.56 -4.70424 4.45651 0
M  V30 11406 N 1115.97 -0.914965 -1.28321 0
M  V30 11407 C 1117.19 -0.564023 -1.99583 0
M  V30 11408 C 1117.62 0.847821 -1.6791 0
M  V30 11409 O 1116.97 1.56682 -0.912171 0
M  V30 11410 C 1117.02 -0.781368 -3.52033 0
M  V30 11411 O 1116.13 0.159072 -4.12093 0
M  V30 11412 H 1115.47 -0.218565 -0.626997 0
M  V30 11413 H 1118 -1.23074 -1.63444 0
M  V30 11414 H 1118.01 -0.691946 -4.0209 0
M  V30 11415 H 1116.68 -1.81059 -3.7442 0
M  V30 11416 H 1115.26 0.0208145 -3.72894 0
M  V30 11417 N 1117.44 1.42219 -0.679077 0
M  V30 11418 C 1118.69 2.00703 -0.200309 0
M  V30 11419 C 1119.01 1.54339 1.20161 0
M  V30 11420 O 1120.21 2.0527 1.77698 0
M  V30 11421 C 1118.67 3.58586 -0.307248 0
M  V30 11422 C 1118.28 4.13937 -1.71349 0
M  V30 11423 C 1120.02 4.24351 0.112588 0
M  V30 11424 C 1117.93 5.64198 -1.77297 0
M  V30 11425 H 1116.86 0.750638 -0.0711279 0
M  V30 11426 H 1119.51 1.62893 -0.844881 0
M  V30 11427 H 1117.89 3.93921 0.40529 0
M  V30 11428 H 1119.06 3.90054 -2.45346 0
M  V30 11429 H 1117.38 3.60639 -2.08155 0
M  V30 11430 H 1119.98 5.34627 0.0883578 0
M  V30 11431 H 1120.32 4.00142 1.14857 0
M  V30 11432 H 1120.85 3.93992 -0.549093 0
M  V30 11433 H 1117.59 5.93211 -2.78892 0
M  V30 11434 H 1117.11 5.90058 -1.07662 0
M  V30 11435 H 1118.79 6.2869 -1.52835 0
M  V30 11436 N 1118.92 0.422693 1.51826 0
M  V30 11437 C 1120.17 -0.148861 2.02253 0
M  V30 11438 C 1120.5 -1.43629 1.30707 0
M  V30 11439 O 1119.78 -1.89967 0.417482 0
M  V30 11440 C 1120.06 -0.382672 3.58061 0
M  V30 11441 C 1119.91 0.922386 4.40241 0
M  V30 11442 C 1121.23 -1.1589 4.24567 0
M  V30 11443 H 1118.35 -0.0526279 0.735119 0
M  V30 11444 H 1120.99 0.558821 1.81596 0
M  V30 11445 H 1119.14 -0.985495 3.75793 0
M  V30 11446 H 1120.81 1.55806 4.34191 0
M  V30 11447 H 1119.06 1.53032 4.05911 0
M  V30 11448 H 1119.73 0.713012 5.47376 0
M  V30 11449 H 1122.2 -0.648415 4.11017 0
M  V30 11450 H 1121.08 -1.29125 5.33496 0
M  V30 11451 H 1121.34 -2.18315 3.84436 0
M  V30 11452 N 1120.4 -1.5685 0.153553 0
M  V30 11453 C 1121.33 -2.20101 -0.779601 0
M  V30 11454 C 1122.31 -1.15121 -1.25225 0
M  V30 11455 O 1123.5 -1.43487 -1.30862 0
M  V30 11456 C 1120.63 -2.82778 -2.01628 0
M  V30 11457 C 1119.58 -3.93643 -1.68015 0
M  V30 11458 C 1118.91 -4.43286 -2.99001 0
M  V30 11459 C 1120.21 -5.14102 -0.921774 0
M  V30 11460 H 1121.9 -2.98334 -0.252432 0
M  V30 11461 H 1119.45 -1.43499 -0.119975 0
M  V30 11462 H 1121.4 -3.25696 -2.67395 0
M  V30 11463 H 1120.12 -2.01887 -2.56728 0
M  V30 11464 H 1118.78 -3.51354 -1.04624 0
M  V30 11465 H 1118.43 -3.59208 -3.52106 0
M  V30 11466 H 1118.13 -5.18068 -2.77272 0
M  V30 11467 H 1119.65 -4.88878 -3.65828 0
M  V30 11468 H 1121.07 -5.53823 -1.48167 0
M  V30 11469 H 1119.46 -5.94687 -0.804185 0
M  V30 11470 H 1120.53 -4.84825 0.0852757 0
M  V30 11471 N 1121.88 0.120221 -1.57141 0
M  V30 11472 C 1123.13 0.826586 -1.84423 0
M  V30 11473 C 1123.45 1.80473 -0.738553 0
M  V30 11474 O 1122.72 1.94454 0.23755 0
M  V30 11475 H 1121.3 0.308246 -0.680436 0
M  V30 11476 H 1123.96 0.107835 -1.94601 0
M  V30 11477 H 1123.05 1.37256 -2.80298 0
M  V30 11478 N 1123.36 1.52689 0.390367 0
M  V30 11479 C 1124.3 1.7737 1.47677 0
M  V30 11480 C 1125.27 0.616864 1.54221 0
M  V30 11481 O 1126.46 0.856437 1.70499 0
M  V30 11482 C 1123.6 1.94715 2.84921 0
M  V30 11483 C 1122.71 3.22405 2.8754 0
M  V30 11484 C 1121.85 3.30074 4.16202 0
M  V30 11485 C 1120.89 4.51893 4.12867 0
M  V30 11486 N 1120.02 4.56851 5.33134 0
M  V30 11487 H 1124.86 2.70084 1.25932 0
M  V30 11488 H 1122.4 1.33813 0.610943 0
M  V30 11489 H 1124.36 2.02755 3.64618 0
M  V30 11490 H 1122.99 1.05363 3.0512 0
M  V30 11491 H 1122.04 3.23442 2.00223 0
M  V30 11492 H 1123.35 4.12156 2.80943 0
M  V30 11493 H 1122.51 3.3729 5.04302 0
M  V30 11494 H 1121.24 2.38295 4.25519 0
M  V30 11495 H 1120.25 4.44803 3.23156 0
M  V30 11496 H 1121.47 5.44987 4.05174 0
M  V30 11497 H 1119.42 3.67963 5.43083 0
M  V30 11498 H 1119.34 5.40472 5.28607 0
M  V30 11499 H 1120.61 4.6832 6.23134 0
M  V30 11500 N 1124.83 -0.648732 1.43629 0
M  V30 11501 C 1125.74 -1.79046 1.51591 0
M  V30 11502 C 1126.76 -1.69276 0.402697 0
M  V30 11503 O 1127.94 -1.90366 0.657484 0
M  V30 11504 C 1125 -3.15347 1.44073 0
M  V30 11505 C 1124.06 -3.3688 2.66102 0
M  V30 11506 C 1123.3 -4.66679 2.58933 0
M  V30 11507 O 1123.52 -5.46328 1.63956 0
M  V30 11508 O 1122.45 -4.9003 3.49506 0
M  V30 11509 H 1126.28 -1.75283 2.48011 0
M  V30 11510 H 1123.86 -0.807774 1.2568 0
M  V30 11511 H 1125.75 -3.96633 1.42339 0
M  V30 11512 H 1124.42 -3.19691 0.50789 0
M  V30 11513 H 1123.33 -2.55341 2.73407 0
M  V30 11514 H 1124.66 -3.37386 3.58373 0
M  V30 11515 N 1126.31 -1.30234 -0.887518 0
M  V30 11516 C 1127.72 -1.17048 -1.45453 0
M  V30 11517 C 1128.07 0.229793 -1.9485 0
M  V30 11518 O 1127.2 1.12628 -1.84781 0
M  V30 11519 C 1127.79 -2.11876 -2.64375 0
M  V30 11520 C 1126.35 -2.02676 -3.17174 0
M  V30 11521 C 1125.5 -2.02104 -1.89866 0
M  V30 11522 H 1128.45 -1.42541 -0.697694 0
M  V30 11523 H 1128.47 -1.69811 -3.40506 0
M  V30 11524 H 1127.98 -3.13781 -2.28392 0
M  V30 11525 H 1126.09 -1.03904 -3.57819 0
M  V30 11526 H 1126.2 -2.90939 -3.80646 0
M  V30 11527 H 1124.56 -1.4687 -2.0809 0
M  V30 11528 H 1125.35 -3.05735 -1.56145 0
M  V30 11529 N 1127.79 1.09952 -1.12909 0
M  V30 11530 C 1129.04 1.82286 -0.888797 0
M  V30 11531 C 1129.37 1.85218 0.58379 0
M  V30 11532 O 1128.64 1.31645 1.43177 0
M  V30 11533 C 1128.93 3.28706 -1.47053 0
M  V30 11534 C 1128.78 3.34078 -3.01184 0
M  V30 11535 C 1130.1 4.25233 -1.13424 0
M  V30 11536 H 1127.22 0.661803 -0.324324 0
M  V30 11537 H 1129.86 1.28833 -1.3965 0
M  V30 11538 H 1128.01 3.74356 -1.03874 0
M  V30 11539 H 1129.68 2.96871 -3.5308 0
M  V30 11540 H 1127.93 2.73825 -3.36455 0
M  V30 11541 H 1128.6 4.37202 -3.36984 0
M  V30 11542 H 1131.07 3.87841 -1.50726 0
M  V30 11543 H 1129.95 5.26033 -1.56783 0
M  V30 11544 H 1130.21 4.42075 -0.0471496 0
M  V30 11545 N 1129.27 0.921757 1.27833 0
M  V30 11546 C 1130.52 0.559078 1.94629 0
M  V30 11547 C 1130.84 -0.898641 1.72495 0
M  V30 11548 O 1130.1 -1.65546 1.0437 0
M  V30 11549 C 1130.4 0.824259 3.47765 0
M  V30 11550 C 1130.06 2.26278 3.90011 0
M  V30 11551 C 1128.73 2.65607 4.01256 0
M  V30 11552 C 1131.08 3.19853 4.11513 0
M  V30 11553 C 1128.41 3.97646 4.31387 0
M  V30 11554 C 1130.76 4.51467 4.43126 0
M  V30 11555 C 1129.42 4.90637 4.52583 0
M  V30 11556 H 1128.69 0.204581 0.712199 0
M  V30 11557 H 1131.34 1.1646 1.52018 0
M  V30 11558 H 1129.64 0.136011 3.91564 0
M  V30 11559 H 1131.34 0.522701 3.97579 0
M  V30 11560 H 1127.93 1.94765 3.81791 0
M  V30 11561 H 1132.11 2.90674 4.02271 0
M  V30 11562 H 1127.37 4.27685 4.36916 0
M  V30 11563 H 1131.54 5.23982 4.58711 0
M  V30 11564 H 1129.17 5.92982 4.75685 0
M  V30 11565 N 1130.75 -1.41857 0.686609 0
M  V30 11566 C 1131.98 -2.05401 0.222238 0
M  V30 11567 C 1132.38 -1.51731 -1.13023 0
M  V30 11568 O 1131.73 -0.656701 -1.71561 0
M  V30 11569 C 1131.79 -3.59381 0.0926608 0
M  V30 11570 C 1131.45 -4.35801 1.37573 0
M  V30 11571 C 1132.45 -4.65678 2.31171 0
M  V30 11572 C 1130.14 -4.75233 1.62661 0
M  V30 11573 C 1132.13 -5.33936 3.48125 0
M  V30 11574 C 1129.82 -5.43229 2.79902 0
M  V30 11575 C 1130.81 -5.72507 3.72458 0
M  V30 11576 O 1130.5 -6.39106 4.87646 0
M  V30 11577 H 1130.23 -0.668126 0.102876 0
M  V30 11578 H 1132.79 -1.82775 0.93714 0
M  V30 11579 H 1131.02 -3.80711 -0.67793 0
M  V30 11580 H 1132.71 -4.04529 -0.333364 0
M  V30 11581 H 1133.47 -4.35704 2.13042 0
M  V30 11582 H 1129.35 -4.51831 0.914862 0
M  V30 11583 H 1132.9 -5.56706 4.20386 0
M  V30 11584 H 1128.79 -5.72621 2.97951 0
M  V30 11585 H 1129.56 -6.576 4.87344 0
M  V30 11586 N 1132.22 -0.430739 -1.51599 0
M  V30 11587 C 1133.17 0.384024 -2.27583 0
M  V30 11588 C 1134.14 1.02254 -1.30895 0
M  V30 11589 O 1135.33 1.0427 -1.59789 0
M  V30 11590 C 1132.47 1.48291 -3.11615 0
M  V30 11591 C 1131.58 0.863187 -4.23288 0
M  V30 11592 C 1130.71 1.93657 -4.94642 0
M  V30 11593 C 1129.75 1.29493 -5.98246 0
M  V30 11594 N 1128.89 2.30939 -6.63032 0
M  V30 11595 H 1133.73 -0.270314 -2.96771 0
M  V30 11596 H 1131.27 -0.145148 -1.46382 0
M  V30 11597 H 1133.23 2.13124 -3.58656 0
M  V30 11598 H 1131.86 2.10697 -2.44554 0
M  V30 11599 H 1130.91 0.103326 -3.8026 0
M  V30 11600 H 1132.22 0.354676 -4.97537 0
M  V30 11601 H 1131.37 2.66167 -5.45197 0
M  V30 11602 H 1130.11 2.4788 -4.20008 0
M  V30 11603 H 1129.12 0.555262 -5.46989 0
M  V30 11604 H 1130.34 0.760122 -6.74833 0
M  V30 11605 H 1128.29 2.84254 -5.91216 0
M  V30 11606 H 1128.21 1.84961 -7.33025 0
M  V30 11607 H 1129.47 3.02953 -7.1822 0
M  V30 11608 N 1133.7 1.56767 -0.161869 0
M  V30 11609 C 1134.61 2.21083 0.784814 0
M  V30 11610 C 1135.63 1.19959 1.26039 0
M  V30 11611 O 1136.8 1.52588 1.31449 0
M  V30 11612 C 1133.87 2.83153 2.00063 0
M  V30 11613 C 1132.93 3.9945 1.57285 0
M  V30 11614 C 1132.16 4.5855 2.7307 0
M  V30 11615 O 1132.39 4.16534 3.89686 0
M  V30 11616 O 1131.32 5.48575 2.47688 0
M  V30 11617 H 1135.15 3.02522 0.267243 0
M  V30 11618 H 1132.73 1.49255 0.0658783 0
M  V30 11619 H 1134.61 3.22546 2.71186 0
M  V30 11620 H 1133.29 2.04718 2.50744 0
M  V30 11621 H 1132.2 3.64745 0.831393 0
M  V30 11622 H 1133.53 4.7945 1.11304 0
M  V30 11623 N 1135.18 -0.111886 1.57202 0
M  V30 11624 C 1136.11 -1.16274 1.97517 0
M  V30 11625 C 1137.13 -1.37259 0.875425 0
M  V30 11626 O 1138.31 -1.36208 1.15367 0
M  V30 11627 C 1135.41 -2.52145 2.26442 0
M  V30 11628 C 1134.59 -2.51666 3.57747 0
M  V30 11629 C 1133.65 -3.69337 3.74802 0
M  V30 11630 O 1132.67 -3.52596 4.46839 0
M  V30 11631 N 1133.87 -4.88177 3.14108 0
M  V30 11632 H 1136.64 -0.819747 2.88271 0
M  V30 11633 H 1134.2 -0.301076 1.59076 0
M  V30 11634 H 1136.19 -3.29437 2.3506 0
M  V30 11635 H 1134.76 -2.78599 1.41779 0
M  V30 11636 H 1133.98 -1.60038 3.60252 0
M  V30 11637 H 1135.27 -2.48408 4.44039 0
M  V30 11638 H 1134.67 -5.04682 2.55564 0
M  V30 11639 H 1133.23 -5.6312 3.28237 0
M  V30 11640 N 1136.66 -1.52894 -0.382264 0
M  V30 11641 C 1137.62 -1.77497 -1.45008 0
M  V30 11642 C 1138.62 -0.64509 -1.47293 0
M  V30 11643 O 1139.81 -0.913192 -1.48346 0
M  V30 11644 C 1136.94 -1.88188 -2.8425 0
M  V30 11645 H 1138.14 -2.72849 -1.24473 0
M  V30 11646 H 1135.69 -1.43717 -0.61441 0
M  V30 11647 H 1136.42 -0.948451 -3.10121 0
M  V30 11648 H 1136.21 -2.70353 -2.83992 0
M  V30 11649 H 1137.7 -2.08873 -3.6161 0
M  V30 11650 N 1138.14 0.641106 -1.43971 0
M  V30 11651 C 1139.38 1.40291 -1.46445 0
M  V30 11652 C 1139.72 1.93978 -0.0929004 0
M  V30 11653 O 1138.99 1.73043 0.888043 0
M  V30 11654 C 1139.27 2.57551 -2.51673 0
M  V30 11655 C 1139.13 2.09279 -3.98149 0
M  V30 11656 C 1140.45 3.59752 -2.53508 0
M  V30 11657 H 1137.57 0.508771 -0.533218 0
M  V30 11658 H 1140.21 0.725767 -1.75592 0
M  V30 11659 H 1138.36 3.15319 -2.2695 0
M  V30 11660 H 1140.03 1.56418 -4.33971 0
M  V30 11661 H 1138.27 1.40545 -4.10402 0
M  V30 11662 H 1138.94 2.93655 -4.67409 0
M  V30 11663 H 1141.42 3.11766 -2.75574 0
M  V30 11664 H 1140.3 4.39332 -3.29057 0
M  V30 11665 H 1140.56 4.13156 -1.57335 0
M  V30 11666 N 1139.62 1.30703 0.880598 0
M  V30 11667 C 1140.86 1.19541 1.62955 0
M  V30 11668 C 1141.18 -0.249089 1.93403 0
M  V30 11669 O 1140.45 -1.1669 1.57354 0
M  V30 11670 H 1139.03 0.439434 0.604075 0
M  V30 11671 H 1141.7 1.63888 1.05483 0
M  V30 11672 H 1140.79 1.75945 2.57779 0
M  V30 11673 N 1141.09 -1.09351 1.1349 0
M  V30 11674 C 1142.32 -1.85036 0.918989 0
M  V30 11675 C 1142.73 -1.8146 -0.535638 0
M  V30 11676 O 1142.07 -1.20958 -1.38256 0
M  V30 11677 C 1142.14 -3.33992 1.33001 0
M  V30 11678 C 1141.8 -3.61315 2.79822 0
M  V30 11679 C 1142.8 -3.56973 3.77976 0
M  V30 11680 C 1140.48 -3.89636 3.17001 0
M  V30 11681 C 1142.48 -3.80564 5.11321 0
M  V30 11682 C 1140.16 -4.12882 4.50524 0
M  V30 11683 C 1141.16 -4.08338 5.47494 0
M  V30 11684 O 1140.85 -4.30983 6.78608 0
M  V30 11685 H 1140.58 -0.591301 0.327627 0
M  V30 11686 H 1143.14 -1.39078 1.5115 0
M  V30 11687 H 1141.37 -3.8066 0.68077 0
M  V30 11688 H 1143.05 -3.9109 1.08645 0
M  V30 11689 H 1143.82 -3.3512 3.50599 0
M  V30 11690 H 1139.7 -3.92297 2.42124 0
M  V30 11691 H 1143.24 -3.76933 5.86998 0
M  V30 11692 H 1139.14 -4.34216 4.77626 0
M  V30 11693 H 1139.91 -4.4844 6.84722 0
M  V30 11694 N 1142.57 -0.928524 -1.27343 0
M  V30 11695 C 1143.82 -0.570235 -1.94618 0
M  V30 11696 C 1144.15 0.886381 -1.72792 0
M  V30 11697 O 1143.43 1.63242 -1.05747 0
M  V30 11698 C 1143.71 -0.897964 -3.48724 0
M  V30 11699 C 1143.56 -2.40839 -3.7989 0
M  V30 11700 C 1144.88 -0.404429 -4.38238 0
M  V30 11701 H 1142 -0.208645 -0.70685 0
M  V30 11702 H 1144.64 -1.16045 -1.50444 0
M  V30 11703 H 1142.79 -0.395679 -3.8648 0
M  V30 11704 H 1144.46 -2.98243 -3.51921 0
M  V30 11705 H 1142.71 -2.85723 -3.26412 0
M  V30 11706 H 1143.38 -2.58823 -4.8756 0
M  V30 11707 H 1145.85 -0.834918 -4.07637 0
M  V30 11708 H 1144.73 -0.662684 -5.44885 0
M  V30 11709 H 1144.99 0.695507 -4.36595 0
M  V30 11710 N 1144.05 1.41491 -0.694123 0
M  V30 11711 C 1145.28 2.05579 -0.233466 0
M  V30 11712 C 1145.69 1.5223 1.11675 0
M  V30 11713 O 1145.05 0.669937 1.69759 0
M  V30 11714 C 1145.1 3.61047 -0.180967 0
M  V30 11715 O 1144.82 4.12421 -1.47785 0
M  V30 11716 C 1146.32 4.42278 0.300853 0
M  V30 11717 H 1143.54 0.662097 -0.108943 0
M  V30 11718 H 1146.09 1.81288 -0.946299 0
M  V30 11719 H 1144.24 3.84381 0.482678 0
M  V30 11720 H 1144.66 5.06454 -1.364 0
M  V30 11721 H 1146.13 5.51256 0.286464 0
M  V30 11722 H 1146.61 4.18276 1.33948 0
M  V30 11723 H 1147.21 4.24004 -0.331741 0
M  V30 11724 N 1145.53 0.438773 1.51369 0
M  V30 11725 C 1146.75 -0.128221 2.07003 0
M  V30 11726 C 1147.18 -1.3557 1.30393 0
M  V30 11727 O 1146.54 -1.7804 0.342283 0
M  V30 11728 C 1146.58 -0.42761 3.58056 0
M  V30 11729 O 1145.69 -1.51382 3.83611 0
M  V30 11730 H 1145.03 -0.00123679 0.663999 0
M  V30 11731 H 1147.56 0.62052 1.94963 0
M  V30 11732 H 1147.57 -0.677645 4.02333 0
M  V30 11733 H 1146.24 0.469535 4.13241 0
M  V30 11734 H 1144.82 -1.25363 3.51196 0
M  V30 11735 N 1147.01 -1.56678 0.170181 0
M  V30 11736 C 1147.97 -2.16698 -0.746622 0
M  V30 11737 C 1148.97 -1.11475 -1.15888 0
M  V30 11738 O 1150.16 -1.36994 -1.07602 0
M  V30 11739 C 1147.29 -2.74892 -2.01612 0
M  V30 11740 H 1148.48 -2.99061 -0.224135 0
M  V30 11741 H 1146.04 -1.56098 -0.0793761 0
M  V30 11742 H 1146.77 -1.96259 -2.58172 0
M  V30 11743 H 1146.56 -3.51896 -1.72949 0
M  V30 11744 H 1148.05 -3.21058 -2.67042 0
M  V30 11745 N 1148.48 0.103547 -1.57259 0
M  V30 11746 C 1149.45 1.11039 -2.00507 0
M  V30 11747 C 1150.45 1.33432 -0.897361 0
M  V30 11748 O 1151.64 1.29688 -1.16304 0
M  V30 11749 C 1148.77 2.46144 -2.35851 0
M  V30 11750 H 1149.96 0.738332 -2.90669 0
M  V30 11751 H 1147.51 0.348334 -1.52369 0
M  V30 11752 H 1148.25 2.88242 -1.48617 0
M  V30 11753 H 1148.03 2.31241 -3.16654 0
M  V30 11754 H 1149.52 3.18577 -2.69997 0
M  V30 11755 N 1149.96 1.53094 0.37415 0
M  V30 11756 C 1151.19 1.72508 1.13687 0
M  V30 11757 C 1151.6 0.449922 1.83773 0
M  V30 11758 O 1150.94 -0.586391 1.74089 0
M  V30 11759 C 1151 2.82965 2.21746 0
M  V30 11760 C 1150.67 4.23599 1.71501 0
M  V30 11761 C 1151.67 5.06245 1.1837 0
M  V30 11762 C 1149.35 4.69978 1.77273 0
M  V30 11763 C 1151.34 6.33357 0.71679 0
M  V30 11764 C 1149.03 5.9707 1.30194 0
M  V30 11765 C 1150.03 6.7859 0.774856 0
M  V30 11766 O 1149.72 8.03298 0.310981 0
M  V30 11767 H 1149.45 0.580611 0.346218 0
M  V30 11768 H 1152 2.00596 0.441614 0
M  V30 11769 H 1150.23 2.5033 2.9474 0
M  V30 11770 H 1151.92 2.90638 2.83345 0
M  V30 11771 H 1152.69 4.71591 1.13256 0
M  V30 11772 H 1148.57 4.06605 2.17241 0
M  V30 11773 H 1152.11 6.96934 0.30471 0
M  V30 11774 H 1148.01 6.31225 1.34999 0
M  V30 11775 H 1148.78 8.17364 0.431098 0
M  V30 11776 N 1151.44 -0.633461 1.44309 0
M  V30 11777 C 1152.69 -1.39031 1.46679 0
M  V30 11778 C 1153.01 -1.94745 0.0997165 0
M  V30 11779 O 1152.28 -1.75637 -0.867659 0
M  V30 11780 H 1150.86 -0.516051 0.540093 0
M  V30 11781 H 1153.52 -0.745739 1.80069 0
M  V30 11782 H 1152.62 -2.2228 2.19085 0
M  V30 11783 N 1152.92 -1.31168 -0.873655 0
M  V30 11784 C 1154.15 -1.23416 -1.65686 0
M  V30 11785 C 1154.56 0.203534 -1.88102 0
M  V30 11786 O 1153.9 1.14476 -1.4367 0
M  V30 11787 C 1153.96 -1.90418 -3.04929 0
M  V30 11788 C 1153.63 -3.39757 -3.05637 0
M  V30 11789 C 1154.62 -4.35565 -2.83865 0
M  V30 11790 C 1152.31 -3.81389 -3.26875 0
M  V30 11791 C 1154.3 -5.70979 -2.83304 0
M  V30 11792 C 1151.99 -5.16918 -3.25943 0
M  V30 11793 C 1152.99 -6.11524 -3.04184 0
M  V30 11794 O 1152.67 -7.44575 -3.0309 0
M  V30 11795 H 1152.41 -0.4278 -0.523415 0
M  V30 11796 H 1154.96 -1.73525 -1.09902 0
M  V30 11797 H 1153.19 -1.34854 -3.62424 0
M  V30 11798 H 1154.88 -1.76631 -3.65453 0
M  V30 11799 H 1155.65 -4.0473 -2.67243 0
M  V30 11800 H 1151.52 -3.08187 -3.42844 0
M  V30 11801 H 1155.07 -6.44796 -2.66239 0
M  V30 11802 H 1150.97 -5.47389 -3.42104 0
M  V30 11803 H 1151.73 -7.53703 -3.19177 0
M  V30 11804 N 1154.4 1.08748 -1.14068 0
M  V30 11805 C 1155.62 1.84814 -0.930138 0
M  V30 11806 C 1156.04 1.81461 0.521267 0
M  V30 11807 O 1155.4 1.21577 1.36108 0
M  V30 11808 C 1155.45 3.32501 -1.41863 0
M  V30 11809 O 1155.17 3.35846 -2.81317 0
M  V30 11810 C 1156.67 4.25384 -1.24753 0
M  V30 11811 H 1153.89 0.583546 -0.331233 0
M  V30 11812 H 1156.43 1.37366 -1.51495 0
M  V30 11813 H 1154.59 3.7735 -0.876664 0
M  V30 11814 H 1155 4.28013 -3.03159 0
M  V30 11815 H 1156.48 5.27138 -1.63798 0
M  V30 11816 H 1156.95 4.38789 -0.18999 0
M  V30 11817 H 1157.56 3.86357 -1.77787 0
M  V30 11818 N 1155.87 0.935264 1.26849 0
M  V30 11819 C 1157.12 0.580548 1.94313 0
M  V30 11820 C 1157.45 -0.877205 1.73259 0
M  V30 11821 O 1156.73 -1.62679 1.06611 0
M  V30 11822 C 1157.01 0.916445 3.48243 0
M  V30 11823 C 1156.86 2.42851 3.78607 0
M  V30 11824 C 1158.18 0.427665 4.38017 0
M  V30 11825 H 1155.3 0.21239 0.705733 0
M  V30 11826 H 1157.94 1.16841 1.49827 0
M  V30 11827 H 1156.09 0.416169 3.86265 0
M  V30 11828 H 1157.77 3.00106 3.50335 0
M  V30 11829 H 1156.01 2.8745 3.24892 0
M  V30 11830 H 1156.68 2.61405 4.8618 0
M  V30 11831 H 1159.16 0.856525 4.07189 0
M  V30 11832 H 1158.03 0.691571 5.44526 0
M  V30 11833 H 1158.29 -0.672344 4.36958 0
M  V30 11834 N 1157.35 -1.41121 0.701616 0
M  V30 11835 C 1158.32 -2.29148 0.0490091 0
M  V30 11836 C 1159.32 -1.44679 -0.701763 0
M  V30 11837 O 1160.51 -1.65757 -0.53575 0
M  V30 11838 C 1157.64 -3.2766 -0.940837 0
M  V30 11839 H 1158.83 -2.88354 0.824133 0
M  V30 11840 H 1156.38 -1.49209 0.465457 0
M  V30 11841 H 1157.12 -2.73445 -1.74351 0
M  V30 11842 H 1156.9 -3.89997 -0.405551 0
M  V30 11843 H 1158.39 -3.93609 -1.39507 0
M  V30 11844 N 1158.83 -0.446794 -1.51134 0
M  V30 11845 C 1159.78 0.359865 -2.27977 0
M  V30 11846 C 1160.75 1.0086 -1.31972 0
M  V30 11847 O 1161.93 1.02569 -1.60886 0
M  V30 11848 C 1159.07 1.44978 -3.1317 0
M  V30 11849 C 1158.19 0.818243 -4.2418 0
M  V30 11850 C 1157.32 1.884 -4.96668 0
M  V30 11851 C 1156.36 1.2314 -5.99586 0
M  V30 11852 N 1155.5 2.23894 -6.65444 0
M  V30 11853 H 1160.34 -0.301775 -2.96468 0
M  V30 11854 H 1157.87 -0.160666 -1.4622 0
M  V30 11855 H 1159.83 2.09308 -3.60896 0
M  V30 11856 H 1158.46 2.08092 -2.46775 0
M  V30 11857 H 1157.51 0.0629889 -3.80348 0
M  V30 11858 H 1158.83 0.301885 -4.97886 0
M  V30 11859 H 1157.98 2.6037 -5.4799 0
M  V30 11860 H 1156.72 2.43411 -4.22614 0
M  V30 11861 H 1155.72 0.497215 -5.47547 0
M  V30 11862 H 1156.95 0.688505 -6.75601 0
M  V30 11863 H 1154.89 2.77967 -5.94197 0
M  V30 11864 H 1154.81 1.77176 -7.34945 0
M  V30 11865 H 1156.08 2.95318 -7.21393 0
M  V30 11866 N 1160.31 1.56586 -0.178487 0
M  V30 11867 C 1161.72 1.83633 0.337009 0
M  V30 11868 C 1162.07 1.09857 1.6256 0
M  V30 11869 O 1161.2 0.353933 2.13486 0
M  V30 11870 C 1161.79 3.33112 0.618225 0
M  V30 11871 C 1160.35 3.60629 1.07814 0
M  V30 11872 C 1159.5 2.7705 0.117825 0
M  V30 11873 H 1162.45 1.53508 -0.402612 0
M  V30 11874 H 1162.47 3.5098 1.46947 0
M  V30 11875 H 1161.98 3.8678 -0.319808 0
M  V30 11876 H 1160.08 3.12378 2.03103 0
M  V30 11877 H 1160.19 4.68921 0.982339 0
M  V30 11878 H 1158.56 2.47125 0.616563 0
M  V30 11879 H 1159.34 3.33501 -0.814356 0
M  V30 11880 N 1161.79 -0.095206 1.57312 0
M  V30 11881 C 1163.04 -0.797417 1.85268 0
M  V30 11882 C 1163.35 -1.79903 0.767733 0
M  V30 11883 O 1164.55 -2.54914 0.934409 0
M  V30 11884 C 1163.01 -1.469 3.28555 0
M  V30 11885 C 1162.62 -0.507152 4.4512 0
M  V30 11886 C 1164.36 -2.15494 3.65735 0
M  V30 11887 C 1162.27 -1.18331 5.79441 0
M  V30 11888 H 1161.2 -0.301552 0.691074 0
M  V30 11889 H 1163.85 -0.0503584 1.83431 0
M  V30 11890 H 1162.23 -2.26351 3.24933 0
M  V30 11891 H 1163.41 0.255858 4.60089 0
M  V30 11892 H 1161.72 0.0730882 4.16336 0
M  V30 11893 H 1164.32 -2.66816 4.63371 0
M  V30 11894 H 1164.66 -2.94383 2.94354 0
M  V30 11895 H 1165.19 -1.42903 3.71246 0
M  V30 11896 H 1161.93 -0.435238 6.54053 0
M  V30 11897 H 1161.45 -1.91775 5.68315 0
M  V30 11898 H 1163.13 -1.70983 6.23998 0
M  V30 11899 N 1163.26 -1.53291 -0.366026 0
M  V30 11900 C 1164.23 -1.79025 -1.43117 0
M  V30 11901 C 1165.23 -0.660676 -1.46601 0
M  V30 11902 O 1166.42 -0.928875 -1.47369 0
M  V30 11903 C 1163.55 -1.91192 -2.82238 0
M  V30 11904 H 1164.74 -2.74154 -1.21572 0
M  V30 11905 H 1162.3 -1.44361 -0.599132 0
M  V30 11906 H 1163.03 -0.98129 -3.09097 0
M  V30 11907 H 1162.82 -2.7335 -2.81109 0
M  V30 11908 H 1164.31 -2.12696 -3.59375 0
M  V30 11909 N 1164.74 0.6258 -1.44643 0
M  V30 11910 C 1165.97 1.41028 -1.50979 0
M  V30 11911 C 1166.38 1.88717 -0.135092 0
M  V30 11912 O 1165.72 1.61778 0.870268 0
M  V30 11913 C 1165.79 2.66094 -2.41732 0
M  V30 11914 C 1165.45 2.40166 -3.88805 0
M  V30 11915 C 1166.45 2.01661 -4.79196 0
M  V30 11916 C 1164.13 2.53641 -4.33557 0
M  V30 11917 C 1166.13 1.76966 -6.12341 0
M  V30 11918 C 1163.81 2.2856 -5.66748 0
M  V30 11919 C 1164.81 1.90282 -6.55959 0
M  V30 11920 O 1164.5 1.65484 -7.86683 0
M  V30 11921 H 1164.23 0.438757 -0.514265 0
M  V30 11922 H 1166.78 0.772034 -1.90339 0
M  V30 11923 H 1165.01 3.32575 -1.97309 0
M  V30 11924 H 1166.7 3.28107 -2.38957 0
M  V30 11925 H 1167.47 1.90802 -4.45892 0
M  V30 11926 H 1163.35 2.82404 -3.64375 0
M  V30 11927 H 1166.89 1.47014 -6.81933 0
M  V30 11928 H 1162.79 2.3903 -5.99612 0
M  V30 11929 H 1163.56 1.79686 -7.98533 0
M  V30 11930 N 1166.22 1.31629 0.866686 0
M  V30 11931 C 1167.45 1.24609 1.65793 0
M  V30 11932 C 1167.87 -0.184944 1.87189 0
M  V30 11933 O 1167.23 -1.1322 1.41601 0
M  V30 11934 C 1167.28 1.9988 3.00134 0
M  V30 11935 O 1166.38 1.33838 3.90079 0
M  V30 11936 H 1165.72 0.430051 0.505917 0
M  V30 11937 H 1168.25 1.73752 1.08035 0
M  V30 11938 H 1168.26 2.09599 3.50046 0
M  V30 11939 H 1166.94 3.03947 2.83882 0
M  V30 11940 H 1165.51 1.3259 3.48532 0
M  V30 11941 N 1167.7 -1.08142 1.14644 0
M  V30 11942 C 1168.93 -1.8405 0.938563 0
M  V30 11943 C 1169.34 -1.82017 -0.516361 0
M  V30 11944 O 1168.68 -1.22418 -1.36966 0
M  V30 11945 C 1168.74 -3.32563 1.36536 0
M  V30 11946 C 1168.41 -3.58327 2.83638 0
M  V30 11947 C 1169.4 -3.52944 3.81741 0
M  V30 11948 C 1167.09 -3.86251 3.21115 0
M  V30 11949 C 1169.08 -3.7512 5.15329 0
M  V30 11950 C 1166.77 -4.0808 4.54878 0
M  V30 11951 C 1167.77 -4.02508 5.51794 0
M  V30 11952 O 1167.46 -4.23761 6.83141 0
M  V30 11953 H 1167.19 -0.587793 0.33388 0
M  V30 11954 H 1169.74 -1.37467 1.52617 0
M  V30 11955 H 1167.97 -3.79917 0.721106 0
M  V30 11956 H 1169.66 -3.89915 1.12787 0
M  V30 11957 H 1170.43 -3.31382 3.54134 0
M  V30 11958 H 1166.31 -3.89707 2.46272 0
M  V30 11959 H 1169.85 -3.70686 5.90963 0
M  V30 11960 H 1165.75 -4.29126 4.82204 0
M  V30 11961 H 1166.51 -4.41152 6.8944 0
M  V30 11962 N 1169.18 -0.941978 -1.26351 0
M  V30 11963 C 1170.11 -0.469913 -2.28723 0
M  V30 11964 C 1171.09 0.477218 -1.63269 0
M  V30 11965 O 1172.27 0.378902 -1.90468 0
M  V30 11966 C 1169.4 0.264971 -3.46288 0
M  V30 11967 C 1168.36 -0.595682 -4.23834 0
M  V30 11968 C 1167.68 0.269208 -5.34022 0
M  V30 11969 C 1168.98 -1.86743 -4.87775 0
M  V30 11970 H 1170.68 -1.32551 -2.6846 0
M  V30 11971 H 1168.22 -0.638809 -1.29055 0
M  V30 11972 H 1170.18 0.606259 -4.17016 0
M  V30 11973 H 1168.9 1.15471 -3.05506 0
M  V30 11974 H 1167.56 -0.919875 -3.54872 0
M  V30 11975 H 1167.21 1.15832 -4.89481 0
M  V30 11976 H 1166.91 -0.30325 -5.86817 0
M  V30 11977 H 1168.43 0.605748 -6.07588 0
M  V30 11978 H 1169.85 -1.59333 -5.50714 0
M  V30 11979 H 1168.24 -2.38452 -5.50691 0
M  V30 11980 H 1169.31 -2.57831 -4.10671 0
M  V30 11981 N 1170.66 1.40747 -0.709091 0
M  V30 11982 C 1172.07 1.83955 -0.318968 0
M  V30 11983 C 1172.42 1.59304 1.14527 0
M  V30 11984 O 1171.54 1.07052 1.88066 0
M  V30 11985 C 1172.14 3.33934 -0.572147 0
M  V30 11986 C 1170.7 3.75661 -0.235802 0
M  V30 11987 C 1169.84 2.64024 -0.847743 0
M  V30 11988 H 1172.79 1.30107 -0.908734 0
M  V30 11989 H 1172.82 3.80143 0.164752 0
M  V30 11990 H 1172.33 3.51844 -1.63791 0
M  V30 11991 H 1170.43 3.63348 0.825164 0
M  V30 11992 H 1170.54 4.73955 -0.700263 0
M  V30 11993 H 1168.91 2.53197 -0.276283 0
M  V30 11994 H 1169.69 2.84748 -1.91765 0
M  V30 11995 N 1172.13 0.454803 1.50895 0
M  V30 11996 C 1173.38 -0.105562 2.01824 0
M  V30 11997 C 1173.7 -1.41673 1.33992 0
M  V30 11998 O 1172.97 -1.89929 0.479994 0
M  V30 11999 H 1171.55 -0.0420011 0.745818 0
M  V30 12000 H 1174.21 0.601504 1.85386 0
M  V30 12001 H 1173.31 -0.268872 3.1094 0
M  V30 12002 N 1173.61 -1.56489 0.186789 0
M  V30 12003 C 1174.84 -2.01722 -0.459993 0
M  V30 12004 C 1175.25 -1.06697 -1.5576 0
M  V30 12005 O 1174.61 -0.0704212 -1.82364 0
M  V30 12006 C 1174.66 -3.46693 -1.02401 0
M  V30 12007 O 1174.38 -4.3809 0.0297916 0
M  V30 12008 C 1175.88 -4.07403 -1.7475 0
M  V30 12009 H 1173.1 -0.660845 -0.116298 0
M  V30 12010 H 1175.65 -2.02389 0.293059 0
M  V30 12011 H 1173.8 -3.46752 -1.72749 0
M  V30 12012 H 1174.22 -5.23057 -0.388821 0
M  V30 12013 H 1175.69 -5.10718 -2.09455 0
M  V30 12014 H 1176.17 -3.50383 -2.64818 0
M  V30 12015 H 1176.77 -4.11093 -1.09007 0
M  V30 12016 N 1175.09 0.086862 -1.5736 0
M  V30 12017 C 1176.34 0.790008 -1.8678 0
M  V30 12018 C 1176.67 1.77977 -0.777042 0
M  V30 12019 O 1175.94 1.93317 0.21419 0
M  V30 12020 C 1176.23 1.51143 -3.26845 0
M  V30 12021 C 1176.08 0.539106 -4.46558 0
M  V30 12022 C 1177.4 2.46003 -3.64926 0
M  V30 12023 H 1174.52 0.285741 -0.679354 0
M  V30 12024 H 1177.16 0.0534655 -1.89925 0
M  V30 12025 H 1175.31 2.13928 -3.24295 0
M  V30 12026 H 1176.98 -0.0823679 -4.61226 0
M  V30 12027 H 1175.22 -0.146842 -4.33551 0
M  V30 12028 H 1175.9 1.0812 -5.41308 0
M  V30 12029 H 1178.37 1.93306 -3.68473 0
M  V30 12030 H 1177.25 2.93493 -4.63846 0
M  V30 12031 H 1177.51 3.30133 -2.94049 0
M  V30 12032 N 1176.57 1.53483 0.357892 0
M  V30 12033 C 1177.79 1.74264 1.12458 0
M  V30 12034 C 1178.22 0.473944 1.82031 0
M  V30 12035 O 1177.58 -0.57253 1.72023 0
M  V30 12036 C 1177.62 2.91356 2.12471 0
M  V30 12037 O 1176.73 2.60502 3.19707 0
M  V30 12038 H 1176.07 0.578499 0.325937 0
M  V30 12039 H 1178.6 2.00395 0.412666 0
M  V30 12040 H 1178.61 3.1774 2.5594 0
M  V30 12041 H 1177.28 3.83378 1.61226 0
M  V30 12042 H 1175.86 2.44961 2.81156 0
M  V30 12043 N 1178.05 -0.61812 1.44973 0
M  V30 12044 C 1179.29 -1.37944 1.48658 0
M  V30 12045 C 1179.62 -1.93805 0.123749 0
M  V30 12046 O 1178.9 -1.74434 -0.860401 0
M  V30 12047 C 1179.18 -2.53515 2.55739 0
M  V30 12048 C 1179.04 -2.02918 4.01428 0
M  V30 12049 C 1180.35 -3.55674 2.59199 0
M  V30 12050 H 1177.47 -0.500223 0.541244 0
M  V30 12051 H 1180.12 -0.69774 1.76725 0
M  V30 12052 H 1178.27 -3.11669 2.31937 0
M  V30 12053 H 1179.94 -1.49494 4.36405 0
M  V30 12054 H 1178.18 -1.33999 4.12586 0
M  V30 12055 H 1178.85 -2.86181 4.72021 0
M  V30 12056 H 1181.33 -3.07343 2.80499 0
M  V30 12057 H 1180.2 -4.34042 3.36004 0
M  V30 12058 H 1180.46 -4.10601 1.63888 0
M  V30 12059 N 1179.52 -1.32087 -0.859693 0
M  V30 12060 C 1180.77 -1.22119 -1.61033 0
M  V30 12061 C 1181.09 0.218289 -1.93774 0
M  V30 12062 O 1180.36 1.14172 -1.5919 0
M  V30 12063 H 1178.94 -0.448989 -0.597008 0
M  V30 12064 H 1181.6 -1.65545 -1.02863 0
M  V30 12065 H 1180.7 -1.80023 -2.54947 0
M  V30 12066 N 1181 1.07532 -1.15215 0
M  V30 12067 C 1182.28 1.76813 -0.83646 0
M  V30 12068 C 1182.66 2.00242 0.6683 0
M  V30 12069 O 1182.01 1.61941 1.61206 0
M  V30 12070 C 1182.22 3.0779 -1.64519 0
M  V30 12071 C 1183.56 3.82168 -1.85022 0
M  V30 12072 O 1184.59 3.17596 -1.61279 0
M  V30 12073 O 1183.45 4.98135 -2.24775 0
M  V30 12074 H 1180.54 0.767736 -0.307426 0
M  V30 12075 H 1183.09 1.13914 -1.25784 0
M  V30 12076 H 1181.86 2.86342 -2.6669 0
M  V30 12077 H 1181.48 3.78419 -1.22002 0
M  V30 12078 N 1182.48 0.948665 1.2585 0
M  V30 12079 C 1183.71 0.616741 1.98018 0
M  V30 12080 C 1184.13 -0.803005 1.70098 0
M  V30 12081 O 1183.49 -1.54208 0.953392 0
M  V30 12082 C 1183.54 0.874429 3.49837 0
M  V30 12083 O 1182.64 -0.0497568 4.1237 0
M  V30 12084 H 1181.98 0.235112 0.620982 0
M  V30 12085 H 1184.51 1.27364 1.60124 0
M  V30 12086 H 1184.52 0.798309 4.00114 0
M  V30 12087 H 1183.2 1.90922 3.69488 0
M  V30 12088 H 1181.77 0.0780591 3.72818 0
M  V30 12089 N 1183.96 -1.40369 0.716545 0
M  V30 12090 C 1185.2 -2.01167 0.256846 0
M  V30 12091 C 1185.54 -1.56689 -1.14727 0
M  V30 12092 O 1184.81 -0.787384 -1.7785 0
M  V30 12093 C 1185.1 -3.58511 0.337963 0
M  V30 12094 C 1184.95 -4.13059 1.78052 0
M  V30 12095 C 1186.27 -4.39142 -0.290295 0
M  V30 12096 H 1183.39 -0.730877 0.0948028 0
M  V30 12097 H 1186.03 -1.66833 0.909225 0
M  V30 12098 H 1184.18 -3.87891 -0.217482 0
M  V30 12099 H 1185.85 -3.94472 2.39143 0
M  V30 12100 H 1184.09 -3.67311 2.30793 0
M  V30 12101 H 1184.76 -5.22217 1.78867 0
M  V30 12102 H 1187.24 -4.15697 0.182987 0
M  V30 12103 H 1186.12 -5.48524 -0.203097 0
M  V30 12104 H 1186.38 -4.20209 -1.37394 0
M  V30 12105 N 1185.44 -0.462799 -1.50652 0
M  V30 12106 C 1186.71 0.156221 -1.94975 0
M  V30 12107 C 1187.09 1.5775 -1.40279 0
M  V30 12108 O 1186.44 2.20473 -0.600323 0
M  V30 12109 C 1186.65 0.108008 -3.48833 0
M  V30 12110 C 1188 0.301013 -4.23532 0
M  V30 12111 O 1189.02 0.184973 -3.55719 0
M  V30 12112 O 1187.88 0.534457 -5.4388 0
M  V30 12113 H 1184.98 0.116182 -0.818798 0
M  V30 12114 H 1187.52 -0.522607 -1.61453 0
M  V30 12115 H 1186.29 -0.884634 -3.81169 0
M  V30 12116 H 1185.92 0.828653 -3.88869 0
M  V30 12117 N 1186.91 1.56388 -0.195085 0
M  V30 12118 C 1188.16 1.96755 0.443901 0
M  V30 12119 C 1188.48 1.08483 1.6276 0
M  V30 12120 O 1189.68 1.38632 2.33438 0
M  V30 12121 C 1188.14 3.49933 0.841139 0
M  V30 12122 C 1187.75 4.46868 -0.318275 0
M  V30 12123 C 1189.49 3.99069 1.44721 0
M  V30 12124 C 1187.4 5.91316 0.0999211 0
M  V30 12125 H 1186.33 0.734674 0.169616 0
M  V30 12126 H 1188.98 1.8124 -0.287101 0
M  V30 12127 H 1187.36 3.60951 1.62881 0
M  V30 12128 H 1188.53 4.47581 -1.0958 0
M  V30 12129 H 1186.85 4.07925 -0.835842 0
M  V30 12130 H 1189.45 5.04465 1.77255 0
M  V30 12131 H 1189.79 3.43376 2.35369 0
M  V30 12132 H 1190.32 3.91165 0.723513 0
M  V30 12133 H 1187.06 6.50934 -0.77237 0
M  V30 12134 H 1186.58 5.93856 0.842304 0
M  V30 12135 H 1188.26 6.44778 0.535726 0
M  V30 12136 N 1188.39 -0.0785156 1.57404 0
M  V30 12137 C 1189.3 -1.11203 2.0657 0
M  V30 12138 C 1190.32 -1.42822 0.993872 0
M  V30 12139 O 1191.49 -1.53133 1.30814 0
M  V30 12140 C 1188.56 -2.40812 2.4942 0
M  V30 12141 C 1187.62 -2.16225 3.70871 0
M  V30 12142 C 1186.85 -3.39654 4.11668 0
M  V30 12143 O 1187.08 -4.48521 3.524 0
M  V30 12144 O 1186.01 -3.28263 5.04507 0
M  V30 12145 H 1189.84 -0.724381 2.94935 0
M  V30 12146 H 1187.42 -0.292184 1.46515 0
M  V30 12147 H 1189.3 -3.17101 2.77534 0
M  V30 12148 H 1187.98 -2.7897 1.64187 0
M  V30 12149 H 1186.89 -1.37663 3.4785 0
M  V30 12150 H 1188.22 -1.82951 4.56935 0
M  V30 12151 N 1189.87 -1.5367 -0.349747 0
M  V30 12152 C 1191.1 -1.74294 -1.10928 0
M  V30 12153 C 1191.51 -0.479102 -1.83033 0
M  V30 12154 O 1190.85 0.558621 -1.75 0
M  V30 12155 C 1190.91 -2.86457 -2.17216 0
M  V30 12156 C 1190.58 -4.26274 -1.6474 0
M  V30 12157 C 1191.57 -5.08065 -1.10302 0
M  V30 12158 C 1189.26 -4.72739 -1.69774 0
M  V30 12159 C 1191.25 -6.34417 -0.615938 0
M  V30 12160 C 1188.94 -5.99066 -1.20678 0
M  V30 12161 C 1189.94 -6.79737 -0.6668 0
M  V30 12162 O 1189.63 -8.03691 -0.183143 0
M  V30 12163 H 1189.36 -0.586046 -0.336937 0
M  V30 12164 H 1191.91 -2.01274 -0.409645 0
M  V30 12165 H 1190.14 -2.54988 -2.9072 0
M  V30 12166 H 1191.83 -2.95109 -2.78686 0
M  V30 12167 H 1192.6 -4.73333 -1.05739 0
M  V30 12168 H 1188.48 -4.1001 -2.10744 0
M  V30 12169 H 1192.02 -6.97331 -0.193795 0
M  V30 12170 H 1187.92 -6.33293 -1.24939 0
M  V30 12171 H 1188.69 -8.17946 -0.301008 0
M  V30 12172 N 1191.35 0.610423 -1.45298 0
M  V30 12173 C 1192.6 1.36951 -1.49167 0
M  V30 12174 C 1192.92 1.9405 -0.132292 0
M  V30 12175 O 1192.18 1.75363 0.868686 0
M  V30 12176 C 1192.48 2.53812 -2.51623 0
M  V30 12177 C 1192.14 2.14877 -3.96407 0
M  V30 12178 C 1190.81 2.03972 -4.35831 0
M  V30 12179 C 1193.16 1.84448 -4.87472 0
M  V30 12180 C 1190.49 1.60856 -5.64218 0
M  V30 12181 C 1192.84 1.42818 -6.16268 0
M  V30 12182 C 1191.5 1.3047 -6.54625 0
M  V30 12183 H 1190.77 0.501138 -0.54584 0
M  V30 12184 H 1193.42 0.690221 -1.78629 0
M  V30 12185 H 1191.72 3.27066 -2.1572 0
M  V30 12186 H 1193.42 3.12041 -2.51856 0
M  V30 12187 H 1190.01 2.2429 -3.65229 0
M  V30 12188 H 1194.19 1.91771 -4.57753 0
M  V30 12189 H 1189.45 1.49916 -5.92735 0
M  V30 12190 H 1193.62 1.18318 -6.86275 0
M  V30 12191 H 1191.25 0.968347 -7.54007 0
M  V30 12192 N 1192.83 1.32541 0.852676 0
M  V30 12193 C 1194.07 1.22971 1.60383 0
M  V30 12194 C 1194.4 -0.208009 1.93887 0
M  V30 12195 O 1193.67 -1.13326 1.59794 0
M  V30 12196 H 1192.25 0.452149 0.594618 0
M  V30 12197 H 1194.91 1.66089 1.01983 0
M  V30 12198 H 1194 1.81373 2.53989 0
M  V30 12199 N 1194.3 -1.0692 1.15784 0
M  V30 12200 C 1195.72 -1.31707 0.901408 0
M  V30 12201 C 1195.92 -1.96429 -0.449203 0
M  V30 12202 O 1194.98 -2.22692 -1.19015 0
M  V30 12203 C 1196.29 -2.20391 2.04568 0
M  V30 12204 C 1197.84 -2.33827 2.08072 0
M  V30 12205 C 1198.31 -3.25862 3.21835 0
M  V30 12206 N 1199.8 -3.33444 3.21511 0
M  V30 12207 C 1200.54 -4.04731 4.06177 0
M  V30 12208 N 1200.03 -4.78596 5.00917 0
M  V30 12209 N 1201.83 -4.00717 3.94185 0
M  V30 12210 H 1193.98 -0.632989 2.02749 0
M  V30 12211 H 1196.24 -0.341587 0.88432 0
M  V30 12212 H 1195.95 -1.80102 3.02087 0
M  V30 12213 H 1195.82 -3.20943 1.9818 0
M  V30 12214 H 1198.21 -2.73367 1.11151 0
M  V30 12215 H 1198.29 -1.32964 2.18527 0
M  V30 12216 H 1197.93 -2.8704 4.19012 0
M  V30 12217 H 1197.86 -4.26689 3.08617 0
M  V30 12218 H 1200.35 -2.80798 2.52905 0
M  V30 12219 H 1200.67 -5.30499 5.61952 0
M  V30 12220 H 1199.01 -4.77598 5.04902 0
M  V30 12221 H 1202.2 -3.42126 3.1948 0
M  V30 12222 H 1202.38 -4.56008 4.60392 0
M  V30 12223 N 1195.78 -0.955326 -1.25345 0
M  V30 12224 C 1197.2 -0.659863 -1.4532 0
M  V30 12225 C 1197.4 0.78238 -1.85691 0
M  V30 12226 O 1196.45 1.5576 -1.98734 0
M  V30 12227 C 1197.77 -1.63339 -2.5247 0
M  V30 12228 C 1199.32 -1.64464 -2.66309 0
M  V30 12229 C 1199.79 -2.60583 -3.76644 0
M  V30 12230 N 1201.28 -2.58951 -3.84055 0
M  V30 12231 C 1202.02 -3.30002 -4.6892 0
M  V30 12232 N 1201.51 -4.10528 -5.58067 0
M  V30 12233 N 1203.31 -3.18886 -4.62891 0
M  V30 12234 H 1195.46 -1.88734 -0.97433 0
M  V30 12235 H 1197.72 -0.811858 -0.48948 0
M  V30 12236 H 1197.43 -2.66358 -2.29665 0
M  V30 12237 H 1197.3 -1.39644 -3.50399 0
M  V30 12238 H 1199.69 -0.621622 -2.88479 0
M  V30 12239 H 1199.77 -1.92218 -1.68778 0
M  V30 12240 H 1199.41 -3.63011 -3.55226 0
M  V30 12241 H 1199.34 -2.30113 -4.73662 0
M  V30 12242 H 1201.83 -2.00491 -3.20331 0
M  V30 12243 H 1202.15 -4.6166 -6.1975 0
M  V30 12244 H 1200.49 -4.14626 -5.57773 0
M  V30 12245 H 1203.68 -2.55447 -3.92255 0
M  V30 12246 H 1203.85 -3.74524 -5.28806 0
M  V30 12247 N 1197.26 1.39987 -0.723979 0
M  V30 12248 C 1198.51 1.99964 -0.26406 0
M  V30 12249 C 1198.82 1.58084 1.1519 0
M  V30 12250 O 1200.03 2.10819 1.71077 0
M  V30 12251 C 1198.49 3.57427 -0.421174 0
M  V30 12252 C 1198.09 4.08276 -1.84432 0
M  V30 12253 C 1199.84 4.24494 -0.0224734 0
M  V30 12254 C 1197.74 5.58272 -1.95157 0
M  V30 12255 H 1196.67 0.747995 -0.0949728 0
M  V30 12256 H 1199.33 1.60122 -0.896276 0
M  V30 12257 H 1197.71 3.95011 0.279762 0
M  V30 12258 H 1198.88 3.82051 -2.57631 0
M  V30 12259 H 1197.2 3.53834 -2.19523 0
M  V30 12260 H 1199.79 5.34637 -0.0817744 0
M  V30 12261 H 1200.14 4.03593 1.02069 0
M  V30 12262 H 1200.67 3.92046 -0.67416 0
M  V30 12263 H 1197.41 5.84038 -2.97623 0
M  V30 12264 H 1196.93 5.86335 -1.2638 0
M  V30 12265 H 1198.61 6.23509 -1.72759 0
M  V30 12266 N 1198.74 0.470782 1.50404 0
M  V30 12267 C 1199.97 -0.0820134 2.06737 0
M  V30 12268 C 1200.38 -1.33535 1.33468 0
M  V30 12269 O 1199.74 -1.77975 0.403872 0
M  V30 12270 C 1199.79 -0.370427 3.59597 0
M  V30 12271 O 1199.51 0.8332 4.30104 0
M  V30 12272 C 1201.01 -0.970222 4.32552 0
M  V30 12273 H 1198.23 0.00694502 0.670964 0
M  V30 12274 H 1200.78 0.659476 1.93575 0
M  V30 12275 H 1198.93 -1.06185 3.72563 0
M  V30 12276 H 1199.35 0.577614 5.2131 0
M  V30 12277 H 1200.82 -1.1218 5.40481 0
M  V30 12278 H 1201.3 -1.96024 3.93028 0
M  V30 12279 H 1201.9 -0.31719 4.24116 0
M  V30 12280 N 1200.22 -1.56282 0.203376 0
M  V30 12281 C 1201.18 -2.18233 -0.700489 0
M  V30 12282 C 1202.18 -1.13908 -1.13497 0
M  V30 12283 O 1203.37 -1.39246 -1.04672 0
M  V30 12284 C 1200.5 -2.79107 -1.95735 0
M  V30 12285 H 1201.7 -2.99469 -0.160649 0
M  V30 12286 H 1199.25 -1.56232 -0.0462475 0
M  V30 12287 H 1199.98 -2.01691 -2.53951 0
M  V30 12288 H 1199.77 -3.55486 -1.65446 0
M  V30 12289 H 1201.26 -3.2665 -2.60172 0
M  V30 12290 N 1201.7 0.070167 -1.57444 0
M  V30 12291 C 1202.92 0.781894 -1.91557 0
M  V30 12292 C 1203.34 1.71037 -0.799489 0
M  V30 12293 O 1202.7 1.81082 0.227062 0
M  V30 12294 C 1202.75 1.57415 -3.25427 0
M  V30 12295 O 1202.47 0.682991 -4.32743 0
M  V30 12296 C 1203.97 2.38673 -3.73564 0
M  V30 12297 H 1201.19 0.222211 -0.633138 0
M  V30 12298 H 1203.73 0.0399504 -2.04461 0
M  V30 12299 H 1201.89 2.26835 -3.14045 0
M  V30 12300 H 1202.3 1.2342 -5.09772 0
M  V30 12301 H 1203.78 2.89716 -4.6986 0
M  V30 12302 H 1204.25 3.18269 -3.02657 0
M  V30 12303 H 1204.86 1.74405 -3.87896 0
M  V30 12304 N 1203.17 1.53854 0.341593 0
M  V30 12305 C 1204.42 1.71447 1.08322 0
M  V30 12306 C 1204.75 0.477289 1.88243 0
M  V30 12307 O 1204.03 -0.525695 1.87261 0
M  V30 12308 C 1204.31 2.97917 2.02281 0
M  V30 12309 C 1204.16 4.31847 1.25809 0
M  V30 12310 C 1205.48 3.20065 3.0207 0
M  V30 12311 H 1202.6 0.623847 0.392408 0
M  V30 12312 H 1205.24 1.86527 0.361594 0
M  V30 12313 H 1203.39 2.85191 2.63815 0
M  V30 12314 H 1205.07 4.56427 0.668737 0
M  V30 12315 H 1203.31 4.30169 0.560119 0
M  V30 12316 H 1203.98 5.16522 1.94704 0
M  V30 12317 H 1206.46 3.32135 2.50651 0
M  V30 12318 H 1205.33 4.09947 3.65013 0
M  V30 12319 H 1205.59 2.36452 3.73554 0
M  V30 12320 N 1204.65 -0.602709 1.4562 0
M  V30 12321 C 1205.88 -1.3881 1.53426 0
M  V30 12322 C 1206.29 -1.88046 0.16851 0
M  V30 12323 O 1205.65 -1.62493 -0.830791 0
M  V30 12324 C 1205.7 -2.58927 2.52268 0
M  V30 12325 O 1205.42 -2.11735 3.83536 0
M  V30 12326 C 1206.92 -3.51728 2.69819 0
M  V30 12327 H 1204.14 -0.424744 0.519455 0
M  V30 12328 H 1206.69 -0.73459 1.90851 0
M  V30 12329 H 1204.84 -3.20309 2.17902 0
M  V30 12330 H 1205.26 -2.89814 4.37159 0
M  V30 12331 H 1206.73 -4.32542 3.42945 0
M  V30 12332 H 1207.21 -4.02383 1.76024 0
M  V30 12333 H 1207.81 -2.96196 3.05202 0
M  V30 12334 N 1206.13 -1.32992 -0.845635 0
M  V30 12335 C 1207.04 -1.24701 -1.98713 0
M  V30 12336 C 1208.06 -0.158864 -1.73273 0
M  V30 12337 O 1209.23 -0.381209 -1.97759 0
M  V30 12338 C 1206.3 -0.979524 -3.32575 0
M  V30 12339 C 1205.36 -2.15701 -3.71176 0
M  V30 12340 C 1204.59 -1.90219 -4.98651 0
M  V30 12341 O 1204.81 -0.849171 -5.64044 0
M  V30 12342 O 1203.75 -2.76571 -5.34595 0
M  V30 12343 H 1207.57 -2.20683 -2.08645 0
M  V30 12344 H 1205.16 -1.12971 -0.97765 0
M  V30 12345 H 1207.04 -0.847219 -4.12796 0
M  V30 12346 H 1205.72 -0.0499398 -3.23661 0
M  V30 12347 H 1204.62 -2.34483 -2.91494 0
M  V30 12348 H 1205.96 -3.0697 -3.84747 0
M  V30 12349 N 1207.61 1.06304 -1.1635 0
M  V30 12350 C 1208.88 1.75916 -0.855166 0
M  V30 12351 C 1209.26 2.0094 0.647024 0
M  V30 12352 O 1208.61 1.63642 1.59479 0
M  V30 12353 C 1208.82 3.06028 -1.67774 0
M  V30 12354 C 1210.17 3.80184 -1.89065 0
M  V30 12355 O 1211.19 3.15868 -1.64639 0
M  V30 12356 O 1210.05 4.95723 -2.30045 0
M  V30 12357 H 1207.15 0.764432 -0.315551 0
M  V30 12358 H 1209.69 1.12574 -1.26985 0
M  V30 12359 H 1208.47 2.83498 -2.69712 0
M  V30 12360 H 1208.09 3.77104 -1.26009 0
M  V30 12361 N 1209.09 0.96196 1.24836 0
M  V30 12362 C 1210.5 0.660388 1.7463 0
M  V30 12363 C 1210.85 -0.824064 1.78055 0
M  V30 12364 O 1209.97 -1.64485 1.40619 0
M  V30 12365 C 1210.57 1.19205 3.17137 0
M  V30 12366 C 1209.13 0.940493 3.64461 0
M  V30 12367 C 1208.27 1.33076 2.43282 0
M  V30 12368 H 1211.22 1.13794 1.1062 0
M  V30 12369 H 1211.25 0.555595 3.76422 0
M  V30 12370 H 1210.76 2.27247 3.14612 0
M  V30 12371 H 1208.86 -0.124645 3.72391 0
M  V30 12372 H 1208.97 1.5821 4.52224 0
M  V30 12373 H 1207.34 0.749139 2.43434 0
M  V30 12374 H 1208.12 2.42055 2.43442 0
M  V30 12375 N 1210.56 -1.39601 0.731392 0
M  V30 12376 C 1211.49 -2.33268 0.1041 0
M  V30 12377 C 1212.47 -1.53724 -0.728219 0
M  V30 12378 O 1213.66 -1.82131 -0.673933 0
M  V30 12379 C 1210.79 -3.37802 -0.806646 0
M  V30 12380 C 1209.74 -4.27928 -0.0787588 0
M  V30 12381 C 1209.07 -5.23131 -1.10628 0
M  V30 12382 C 1210.37 -5.11086 1.07651 0
M  V30 12383 H 1212.06 -2.85975 0.886496 0
M  V30 12384 H 1209.61 -1.375 0.427746 0
M  V30 12385 H 1211.56 -4.02278 -1.25499 0
M  V30 12386 H 1210.29 -2.83527 -1.62112 0
M  V30 12387 H 1208.95 -3.64926 0.349926 0
M  V30 12388 H 1208.59 -4.65152 -1.91422 0
M  V30 12389 H 1208.29 -5.84277 -0.624043 0
M  V30 12390 H 1209.82 -5.90483 -1.5544 0
M  V30 12391 H 1211.23 -5.68927 0.706781 0
M  V30 12392 H 1209.63 -5.81356 1.48814 0
M  V30 12393 H 1210.7 -4.46131 1.89988 0
M  V30 12394 N 1212.04 -0.478751 -1.50152 0
M  V30 12395 C 1213.27 0.0709455 -2.06478 0
M  V30 12396 C 1213.68 1.33376 -1.34192 0
M  V30 12397 O 1213.02 1.79133 -0.40707 0
M  V30 12398 C 1213.09 0.417322 -3.5707 0
M  V30 12399 C 1212.75 -0.744563 -4.50894 0
M  V30 12400 C 1213.75 -1.62879 -4.93727 0
M  V30 12401 C 1211.43 -0.937062 -4.93482 0
M  V30 12402 C 1213.43 -2.68985 -5.77863 0
M  V30 12403 C 1211.11 -2.00134 -5.77399 0
M  V30 12404 C 1212.11 -2.87609 -6.19492 0
M  V30 12405 O 1211.8 -3.92203 -7.01735 0
M  V30 12406 H 1211.53 -0.00720177 -0.675962 0
M  V30 12407 H 1214.08 -0.668797 -1.94207 0
M  V30 12408 H 1212.31 1.21036 -3.6727 0
M  V30 12409 H 1214 0.903002 -3.95728 0
M  V30 12410 H 1214.77 -1.49179 -4.61488 0
M  V30 12411 H 1210.65 -0.265636 -4.60234 0
M  V30 12412 H 1214.19 -3.37293 -6.10639 0
M  V30 12413 H 1210.09 -2.13837 -6.09052 0
M  V30 12414 H 1210.86 -3.89284 -7.2 0
M  V30 12415 N 1213.52 1.56172 -0.211661 0
M  V30 12416 C 1214.8 1.8984 0.471195 0
M  V30 12417 C 1215.18 1.1276 1.78461 0
M  V30 12418 O 1214.53 0.233817 2.27301 0
M  V30 12419 C 1214.74 3.42434 0.673814 0
M  V30 12420 C 1216.08 4.13 0.985719 0
M  V30 12421 O 1217.11 3.47977 0.760953 0
M  V30 12422 O 1215.97 5.2795 1.41176 0
M  V30 12423 H 1213.06 0.789008 0.247782 0
M  V30 12424 H 1215.61 1.67802 -0.25311 0
M  V30 12425 H 1214.38 3.90481 -0.253034 0
M  V30 12426 H 1214 3.70218 1.44997 0
M  V30 12427 N 1215 -0.0618163 1.57479 0
M  V30 12428 C 1216.41 -0.612461 1.76368 0
M  V30 12429 C 1216.76 -1.77381 0.838466 0
M  V30 12430 O 1215.89 -2.16386 0.0250211 0
M  V30 12431 C 1216.48 -1.11782 3.19829 0
M  V30 12432 C 1215.04 -1.61424 3.40028 0
M  V30 12433 C 1214.19 -0.53795 2.72032 0
M  V30 12434 H 1217.14 0.164382 1.57846 0
M  V30 12435 H 1217.16 -1.98634 3.24538 0
M  V30 12436 H 1216.67 -0.272353 3.87143 0
M  V30 12437 H 1214.77 -2.48263 2.77842 0
M  V30 12438 H 1214.88 -1.68431 4.48517 0
M  V30 12439 H 1213.25 -0.985355 2.34868 0
M  V30 12440 H 1214.03 0.297495 3.42009 0
M  V30 12441 N 1216.48 -1.54033 -0.333429 0
M  V30 12442 C 1217.42 -1.82729 -1.40992 0
M  V30 12443 C 1218.39 -0.673677 -1.51825 0
M  V30 12444 O 1219.58 -0.919126 -1.67203 0
M  V30 12445 C 1216.72 -2.05155 -2.77498 0
M  V30 12446 C 1215.83 -3.32854 -2.75376 0
M  V30 12447 C 1214.97 -3.45294 -4.03665 0
M  V30 12448 C 1214.01 -4.66905 -3.95811 0
M  V30 12449 N 1213.14 -4.76323 -5.1581 0
M  V30 12450 H 1217.98 -2.74572 -1.15821 0
M  V30 12451 H 1215.52 -1.35988 -0.560859 0
M  V30 12452 H 1217.48 -2.16148 -3.56841 0
M  V30 12453 H 1216.11 -1.16615 -3.01 0
M  V30 12454 H 1215.16 -3.30651 -1.88081 0
M  V30 12455 H 1216.47 -4.22299 -2.65453 0
M  V30 12456 H 1215.63 -3.55775 -4.91436 0
M  V30 12457 H 1214.36 -2.53924 -4.16382 0
M  V30 12458 H 1213.37 -4.56491 -3.06425 0
M  V30 12459 H 1214.59 -5.59649 -3.84668 0
M  V30 12460 H 1212.54 -3.87866 -5.29052 0
M  V30 12461 H 1212.46 -5.59719 -5.08184 0
M  V30 12462 H 1213.73 -4.91125 -6.05324 0
M  V30 12463 N 1217.95 0.594978 -1.45938 0
M  V30 12464 C 1218.89 1.71911 -1.50072 0
M  V30 12465 C 1219.87 1.58657 -0.355913 0
M  V30 12466 O 1221.05 1.80043 -0.558272 0
M  V30 12467 C 1218.18 3.09858 -1.3677 0
M  V30 12468 C 1217.22 3.41667 -2.55277 0
M  V30 12469 S 1218.06 3.35101 -4.17693 0
M  V30 12470 C 1219.21 4.75606 -4.06878 0
M  V30 12471 H 1219.44 1.68143 -2.45184 0
M  V30 12472 H 1216.98 0.772698 -1.33674 0
M  V30 12473 H 1218.94 3.89444 -1.29782 0
M  V30 12474 H 1217.6 3.11128 -0.431073 0
M  V30 12475 H 1216.79 4.42138 -2.41929 0
M  V30 12476 H 1216.39 2.69622 -2.59191 0
M  V30 12477 H 1218.68 5.65708 -3.72801 0
M  V30 12478 H 1219.63 4.9401 -5.07306 0
M  V30 12479 H 1220.03 4.5188 -3.38327 0
M  V30 12480 N 1219.43 1.33438 0.838571 0
M  V30 12481 C 1220.66 1.27951 1.62592 0
M  V30 12482 C 1221.08 -0.149502 1.88207 0
M  V30 12483 O 1220.43 -1.09174 1.46244 0
M  V30 12484 C 1220.48 2.0523 2.97595 0
M  V30 12485 O 1220.2 3.42557 2.73105 0
M  V30 12486 C 1221.71 2.06957 3.92025 0
M  V30 12487 H 1218.93 0.440796 0.505905 0
M  V30 12488 H 1221.47 1.75814 1.0445 0
M  V30 12489 H 1219.62 1.61049 3.52338 0
M  V30 12490 H 1220.04 3.82314 3.59076 0
M  V30 12491 H 1221.51 2.65481 4.83967 0
M  V30 12492 H 1221.99 1.0599 4.26219 0
M  V30 12493 H 1222.6 2.51158 3.4322 0
M  V30 12494 N 1220.91 -1.05686 1.16912 0
M  V30 12495 C 1222.33 -1.30744 0.915327 0
M  V30 12496 C 1222.53 -1.96895 -0.428344 0
M  V30 12497 O 1221.58 -2.23941 -1.16647 0
M  V30 12498 C 1222.9 -2.18209 2.06894 0
M  V30 12499 C 1224.44 -2.31607 2.1054 0
M  V30 12500 C 1224.92 -3.2243 3.25273 0
M  V30 12501 N 1226.41 -3.30015 3.2503 0
M  V30 12502 C 1227.14 -4.00401 4.10447 0
M  V30 12503 N 1226.64 -4.73256 5.05965 0
M  V30 12504 N 1228.43 -3.96514 3.98413 0
M  V30 12505 H 1220.58 -0.611449 2.03409 0
M  V30 12506 H 1222.85 -0.332188 0.887894 0
M  V30 12507 H 1222.55 -1.76887 3.0398 0
M  V30 12508 H 1222.43 -3.18823 2.01573 0
M  V30 12509 H 1224.81 -2.72173 1.14044 0
M  V30 12510 H 1224.9 -1.30639 2.19925 0
M  V30 12511 H 1224.54 -2.82579 4.22032 0
M  V30 12512 H 1224.47 -4.23392 3.13125 0
M  V30 12513 H 1226.96 -2.781 2.55869 0
M  V30 12514 H 1227.27 -5.24509 5.67547 0
M  V30 12515 H 1225.62 -4.72215 5.09939 0
M  V30 12516 H 1228.81 -3.38719 3.2309 0
M  V30 12517 H 1228.98 -4.511 4.65202 0
M  V30 12518 N 1222.39 -0.968567 -1.24324 0
M  V30 12519 C 1223.32 -0.518323 -2.27674 0
M  V30 12520 C 1224.3 0.442479 -1.64244 0
M  V30 12521 O 1225.48 0.338416 -1.91229 0
M  V30 12522 C 1222.61 0.191459 -3.46772 0
M  V30 12523 C 1221.57 -0.685449 -4.22476 0
M  V30 12524 C 1220.89 0.155873 -5.34473 0
M  V30 12525 C 1222.19 -1.97047 -4.83704 0
M  V30 12526 H 1223.89 -1.38215 -2.65588 0
M  V30 12527 H 1221.43 -0.66604 -1.27671 0
M  V30 12528 H 1223.39 0.517667 -4.18208 0
M  V30 12529 H 1222.11 1.08965 -3.07887 0
M  V30 12530 H 1220.77 -0.994942 -3.52841 0
M  V30 12531 H 1220.42 1.05424 -4.91828 0
M  V30 12532 H 1220.12 -0.427655 -5.86042 0
M  V30 12533 H 1221.64 0.476733 -6.08736 0
M  V30 12534 H 1223.06 -1.70979 -5.4721 0
M  V30 12535 H 1221.45 -2.50079 -5.45509 0
M  V30 12536 H 1222.52 -2.66484 -4.0511 0
M  V30 12537 N 1223.87 1.39211 -0.738786 0
M  V30 12538 C 1225.28 1.54116 -0.414773 0
M  V30 12539 C 1225.48 1.70497 1.07392 0
M  V30 12540 O 1224.54 1.7076 1.86003 0
M  V30 12541 C 1225.85 2.7567 -1.2011 0
M  V30 12542 C 1227.4 2.89508 -1.1897 0
M  V30 12543 C 1227.87 4.14005 -1.95868 0
M  V30 12544 N 1229.37 4.21052 -1.93053 0
M  V30 12545 C 1230.1 5.16341 -2.49358 0
M  V30 12546 N 1229.6 6.17396 -3.14316 0
M  V30 12547 N 1231.39 5.08585 -2.3937 0
M  V30 12548 H 1223.54 1.26827 -1.70378 0
M  V30 12549 H 1225.8 0.614983 -0.721457 0
M  V30 12550 H 1225.51 2.69922 -2.25467 0
M  V30 12551 H 1225.38 3.68443 -0.808065 0
M  V30 12552 H 1227.77 2.94747 -0.144248 0
M  V30 12553 H 1227.85 1.97788 -1.62214 0
M  V30 12554 H 1227.5 4.09527 -3.00416 0
M  V30 12555 H 1227.43 5.04776 -1.50028 0
M  V30 12556 H 1229.92 3.48669 -1.45733 0
M  V30 12557 H 1230.23 6.86572 -3.54737 0
M  V30 12558 H 1228.57 6.17772 -3.18407 0
M  V30 12559 H 1231.77 4.28573 -1.88262 0
M  V30 12560 H 1231.94 5.8267 -2.83549 0
M  V30 12561 N 1225.34 0.486708 1.49896 0
M  V30 12562 C 1226.59 -0.0627279 2.02003 0
M  V30 12563 C 1226.91 -1.38799 1.36967 0
M  V30 12564 O 1226.18 -1.88868 0.520173 0
M  V30 12565 H 1224.76 -0.0261718 0.746541 0
M  V30 12566 H 1227.43 0.640692 1.84068 0
M  V30 12567 H 1226.52 -0.202856 3.1144 0
M  V30 12568 O 1226.86 -1.57402 0.361503 0
M  V30 12569 H 1227.55 -1.92766 -0.189998 0
M  V30 END ATOM
M  V30 BEGIN BOND
M  V30 END BOND
M  V30 END CTAB
M  END
$$$$
