drugbank_target|Q9BPV8 P2Y purinoceptor 13 (DB01069)
 OpenBabel12092121213D

  0  0  0     0  0            999 V3000
M  V30 BEGIN CTAB
M  V30 COUNTS 5889 5960 0 0 0
M  V30 BEGIN ATOM
M  V30 1 H -0.908 1.98254 -0.117106 0
M  V30 2 N 0 1.576 0 0
M  V30 3 C 0.933 2.03868 1.02534 0
M  V30 4 C 1.911 0.928543 1.3348 0
M  V30 5 O 3.095 1.19667 1.45644 0
M  V30 6 C 0.222 2.43627 2.35294 0
M  V30 7 C -0.732 3.65373 2.2001 0
M  V30 8 S 0.101 5.13292 1.52614 0
M  V30 9 C 1.257 5.56322 2.86805 0
M  V30 10 H 1.49 2.90518 0.631377 0
M  V30 11 H -0.977 1.52953 0.210867 0
M  V30 12 H 0.981 2.67203 3.11629 0
M  V30 13 H -0.358 1.57376 2.7183 0
M  V30 14 H -1.165 3.90944 3.18086 0
M  V30 15 H -1.563 3.418 1.51819 0
M  V30 16 H 0.729 5.58782 3.83104 0
M  V30 17 H 1.672 6.56266 2.65933 0
M  V30 18 H 2.08 4.83886 2.90714 0
M  V30 19 N 1.4781 -0.272755 1.55222 0
M  V30 20 C 2.7061 -1.02255 1.79865 0
M  V30 21 C 3.1211 -1.79924 0.572088 0
M  V30 22 O 2.4781 -1.76638 -0.458842 0
M  V30 23 C 2.5291 -1.98094 3.02392 0
M  V30 24 O 2.2501 -1.23572 4.20311 0
M  V30 25 C 3.7511 -2.84884 3.39641 0
M  V30 26 H 0.9711 -0.302057 0.599168 0
M  V30 27 H 3.5151 -0.303465 2.02236 0
M  V30 28 H 1.6701 -2.65465 2.82147 0
M  V30 29 H 2.0841 -1.88172 4.89583 0
M  V30 30 H 3.5581 -3.47927 4.28545 0
M  V30 31 H 4.0351 -3.54665 2.59055 0
M  V30 32 H 4.6411 -2.23003 3.62146 0
M  V30 33 N 2.9562 -1.48159 -0.537278 0
M  V30 34 C 3.9192 -1.61665 -1.62472 0
M  V30 35 C 4.9192 -0.490395 -1.5314 0
M  V30 36 O 6.1092 -0.755998 -1.5694 0
M  V30 37 C 3.2412 -1.57997 -3.02076 0
M  V30 38 H 4.4342 -2.58621 -1.51839 0
M  V30 39 H 1.9872 -1.36647 -0.758771 0
M  V30 40 H 2.7222 -0.624913 -3.18222 0
M  V30 41 H 2.5072 -2.39755 -3.10258 0
M  V30 42 H 3.9972 -1.70627 -3.81151 0
M  V30 43 N 4.4343 0.785586 -1.36625 0
M  V30 44 C 5.3973 1.87999 -1.31107 0
M  V30 45 C 6.3973 1.59316 -0.217959 0
M  V30 46 O 7.5873 1.67656 -0.472977 0
M  V30 47 C 4.7193 3.24861 -1.03334 0
M  V30 48 H 5.9123 1.94307 -2.2844 0
M  V30 49 H 3.4653 0.983813 -1.21453 0
M  V30 50 H 4.2003 3.24235 -0.0647432 0
M  V30 51 H 3.9853 3.4707 -1.82441 0
M  V30 52 H 5.4753 4.04929 -1.02088 0
M  V30 53 N 5.9124 1.20967 1.01018 0
M  V30 54 C 7.1614 1.01796 1.74128 0
M  V30 55 C 7.4744 -0.449691 1.90361 0
M  V30 56 O 8.6804 -0.76068 2.60626 0
M  V30 57 C 7.1364 1.7727 3.13215 0
M  V30 58 C 6.7444 3.28171 3.04972 0
M  V30 59 C 8.4884 1.66489 3.90489 0
M  V30 60 C 6.3954 3.96156 4.39107 0
M  V30 61 H 5.3254 0.377276 0.652824 0
M  V30 62 H 7.9764 1.44651 1.12909 0
M  V30 63 H 6.3584 1.27205 3.75013 0
M  V30 64 H 7.5324 3.85499 2.52443 0
M  V30 65 H 5.8474 3.39437 2.41188 0
M  V30 66 H 8.4444 2.14617 4.89738 0
M  V30 67 H 8.7874 0.6222 4.11624 0
M  V30 68 H 9.3204 2.14003 3.35332 0
M  V30 69 H 6.0594 5.00604 4.23174 0
M  V30 70 H 5.5794 3.43617 4.91617 0
M  V30 71 H 7.2584 4.00774 5.07926 0
M  V30 72 N 7.3905 -1.2043 1.01659 0
M  V30 73 C 8.8065 -1.41852 0.731442 0
M  V30 74 C 9.0065 -1.89358 -0.688898 0
M  V30 75 O 8.0625 -2.06247 -1.45666 0
M  V30 76 C 9.3755 -2.44019 1.75714 0
M  V30 77 C 10.9235 -2.57785 1.77527 0
M  V30 78 C 11.3985 -3.63194 2.79023 0
M  V30 79 N 12.8895 -3.70678 2.77763 0
M  V30 80 C 13.6245 -4.51897 3.52954 0
M  V30 81 N 13.1205 -5.36921 4.37821 0
M  V30 82 N 14.9135 -4.4643 3.41551 0
M  V30 83 H 7.0645 -0.879093 1.93354 0
M  V30 84 H 9.3275 -0.448425 0.835236 0
M  V30 85 H 9.0335 -2.1611 2.77469 0
M  V30 86 H 8.9075 -3.43007 1.56927 0
M  V30 87 H 11.2945 -2.85023 0.764569 0
M  V30 88 H 11.3755 -1.58992 2.00387 0
M  V30 89 H 11.0195 -3.36699 3.80258 0
M  V30 90 H 10.9495 -4.61609 2.53425 0
M  V30 91 H 13.4405 -3.09944 2.16201 0
M  V30 92 H 13.7535 -5.95981 4.91962 0
M  V30 93 H 12.0985 -5.36424 4.41899 0
M  V30 94 H 15.2895 -3.79042 2.74672 0
M  V30 95 H 15.4625 -5.09491 4.00404 0
M  V30 96 N 8.8686 -0.792821 -1.36206 0
M  V30 97 C 10.2846 -0.474903 -1.52371 0
M  V30 98 C 10.4846 1.00622 -1.74578 0
M  V30 99 O 9.5406 1.79162 -1.77924 0
M  V30 100 C 10.8536 -1.3083 -2.70747 0
M  V30 101 C 12.4016 -1.30234 -2.84619 0
M  V30 102 C 12.8766 -2.11956 -4.06004 0
M  V30 103 N 14.3676 -2.09419 -4.13156 0
M  V30 104 C 15.1026 -2.69419 -5.06163 0
M  V30 105 N 14.5986 -3.3829 -6.04592 0
M  V30 106 N 16.3916 -2.59134 -4.98804 0
M  V30 107 H 8.5426 -1.75222 -1.20046 0
M  V30 108 H 10.8056 -0.745024 -0.586211 0
M  V30 109 H 10.5116 -2.35881 -2.6087 0
M  V30 110 H 10.3856 -0.95196 -3.6499 0
M  V30 111 H 12.7726 -0.259748 -2.93955 0
M  V30 112 H 12.8536 -1.69847 -1.91274 0
M  V30 113 H 12.4976 -3.16248 -3.97429 0
M  V30 114 H 12.4276 -1.69711 -4.98503 0
M  V30 115 H 14.9186 -1.59297 -3.42685 0
M  V30 116 H 15.2316 -3.81394 -6.7213 0
M  V30 117 H 13.5766 -3.42393 -6.04807 0
M  V30 118 H 16.7676 -2.04927 -4.20859 0
M  V30 119 H 16.9406 -3.06185 -5.711 0
M  V30 120 N 10.3467 1.47872 -0.545128 0
M  V30 121 C 11.2787 2.27869 0.246621 0
M  V30 122 C 12.2917 1.36282 0.890561 0
M  V30 123 O 13.4807 1.61207 0.766449 0
M  V30 124 C 10.5807 3.10159 1.36582 0
M  V30 125 C 9.7537 4.29627 0.820954 0
M  V30 126 C 8.8127 4.93607 1.82314 0
M  V30 127 O 7.8387 5.52366 1.37406 0
M  V30 128 N 9.0407 4.87211 3.15603 0
M  V30 129 H 11.8057 2.96459 -0.439539 0
M  V30 130 H 9.3667 1.57367 -0.380421 0
M  V30 131 H 11.3587 3.49829 2.03474 0
M  V30 132 H 9.9287 2.43891 1.9554 0
M  V30 133 H 9.1487 3.94192 -0.0244032 0
M  V30 134 H 10.4367 5.06928 0.436063 0
M  V30 135 H 9.8347 4.40651 3.54744 0
M  V30 136 H 8.3917 5.30937 3.78087 0
M  V30 137 N 11.8248 0.280983 1.55075 0
M  V30 138 C 13.2408 -0.0729964 1.59433 0
M  V30 139 C 13.4408 -1.5411 1.29817 0
M  V30 140 O 12.4968 -2.29086 1.06187 0
M  V30 141 C 13.8098 0.306921 2.9913 0
M  V30 142 C 15.3578 0.254023 3.11968 0
M  V30 143 C 15.8328 0.608467 4.5394 0
M  V30 144 N 17.3238 0.560241 4.59799 0
M  V30 145 C 18.0588 0.80722 5.6769 0
M  V30 146 N 17.5548 1.11912 6.83701 0
M  V30 147 N 19.3478 0.735623 5.57266 0
M  V30 148 H 11.4988 1.238 1.7259 0
M  V30 149 H 13.7618 0.500547 0.805082 0
M  V30 150 H 13.4678 1.32816 3.25657 0
M  V30 151 H 13.3418 -0.349363 3.75579 0
M  V30 152 H 15.7288 -0.75794 2.852 0
M  V30 153 H 15.8098 0.944649 2.37718 0
M  V30 154 H 15.4538 1.61814 4.81434 0
M  V30 155 H 15.3838 -0.104013 5.26497 0
M  V30 156 H 17.8748 0.329288 3.76463 0
M  V30 157 H 18.1878 1.29409 7.61888 0
M  V30 158 H 16.5328 1.15695 6.85303 0
M  V30 159 H 19.7238 0.491752 4.6551 0
M  V30 160 H 19.8968 0.931482 6.4127 0
M  V30 161 N 13.3029 -1.57598 0.00835791 0
M  V30 162 C 14.2129 -2.12385 -0.996487 0
M  V30 163 C 15.2289 -1.07108 -1.37127 0
M  V30 164 O 16.4049 -1.39055 -1.4569 0
M  V30 165 C 13.4699 -2.62314 -2.26699 0
M  V30 166 C 12.5309 -3.82225 -1.95456 0
M  V30 167 C 11.7639 -4.29763 -3.16449 0
M  V30 168 O 11.9869 -3.76584 -4.28416 0
M  V30 169 O 10.9209 -5.21832 -2.99958 0
M  V30 170 H 14.7469 -2.98479 -0.560725 0
M  V30 171 H 12.3319 -1.47903 -0.210987 0
M  V30 172 H 14.2139 -2.94589 -3.01322 0
M  V30 173 H 12.8889 -1.79313 -2.69497 0
M  V30 174 H 11.7959 -3.54909 -1.18282 0
M  V30 175 H 13.1289 -4.66324 -1.57489 0
M  V30 176 N 14.781 0.264519 -1.55364 0
M  V30 177 C 15.711 1.33121 -1.91836 0
M  V30 178 C 16.692 1.51101 -0.781192 0
M  V30 179 O 17.877 1.64003 -1.04003 0
M  V30 180 C 15.007 2.68921 -2.19769 0
M  V30 181 C 13.961 2.65661 -3.35571 0
M  V30 182 C 13.287 4.05093 -3.49004 0
M  V30 183 C 14.587 2.24187 -4.71739 0
M  V30 184 H 16.281 1.02844 -2.81182 0
M  V30 185 H 13.827 0.493286 -1.35287 0
M  V30 186 H 15.78 3.43663 -2.43872 0
M  V30 187 H 14.504 3.00799 -1.27231 0
M  V30 188 H 13.163 1.93377 -3.1145 0
M  V30 189 H 12.811 4.34206 -2.53917 0
M  V30 190 H 12.511 4.03804 -4.26868 0
M  V30 191 H 14.035 4.81561 -3.75408 0
M  V30 192 H 15.449 2.88654 -4.9533 0
M  V30 193 H 13.846 2.34044 -5.52579 0
M  V30 194 H 14.916 1.19327 -4.69988 0
M  V30 195 N 16.2591 1.48442 0.529413 0
M  V30 196 C 17.4841 1.60406 1.31471 0
M  V30 197 C 17.9091 0.264738 1.86228 0
M  V30 198 O 17.2671 -0.763668 1.64432 0
M  V30 199 C 17.3151 2.65419 2.44101 0
M  V30 200 O 16.4191 2.22618 3.47153 0
M  V30 201 H 15.7601 0.537863 0.389357 0
M  V30 202 H 18.2901 1.94432 0.636965 0
M  V30 203 H 18.3001 2.86709 2.90279 0
M  V30 204 H 16.9751 3.62652 2.03608 0
M  V30 205 H 15.5521 2.11543 3.0709 0
M  V30 206 N 17.7372 -0.778329 1.37039 0
M  V30 207 C 18.9862 -1.53189 1.3121 0
M  V30 208 C 19.2992 -1.95328 -0.103095 0
M  V30 209 O 20.5052 -2.70012 -0.283826 0
M  V30 210 C 18.9612 -2.76591 2.30272 0
M  V30 211 C 18.5692 -2.41577 3.77286 0
M  V30 212 C 20.3132 -3.5455 2.33441 0
M  V30 213 C 18.2202 -3.61441 4.68096 0
M  V30 214 H 17.1502 -0.5751 0.487622 0
M  V30 215 H 19.8012 -0.853101 1.62464 0
M  V30 216 H 18.1832 -3.46326 1.92027 0
M  V30 217 H 19.3572 -1.79668 4.2433 0
M  V30 218 H 17.6722 -1.76806 3.76999 0
M  V30 219 H 20.2692 -4.43628 2.98493 0
M  V30 220 H 20.6122 -3.93936 1.34611 0
M  V30 221 H 21.1452 -2.91805 2.7036 0
M  V30 222 H 17.8842 -3.27142 5.6803 0
M  V30 223 H 17.4042 -4.22478 4.25761 0
M  V30 224 H 19.0832 -4.28335 4.8491 0
M  V30 225 N 19.2153 -1.21501 -1.00376 0
M  V30 226 C 20.1453 -0.999478 -2.11028 0
M  V30 227 C 21.1263 0.0759671 -1.6993 0
M  V30 228 O 22.3113 -0.0841106 -1.94018 0
M  V30 229 C 19.4413 -0.564709 -3.42678 0
M  V30 230 C 18.3953 -1.58486 -3.97576 0
M  V30 231 C 17.7213 -1.00628 -5.25146 0
M  V30 232 C 19.0213 -2.97204 -4.29496 0
M  V30 233 H 20.7153 -1.92495 -2.29317 0
M  V30 234 H 18.2613 -0.92693 -1.102 0
M  V30 235 H 20.2143 -0.401091 -4.19487 0
M  V30 236 H 18.9383 0.396411 -3.24185 0
M  V30 237 H 17.5973 -1.73606 -3.22888 0
M  V30 238 H 17.2453 -0.0368439 -5.02987 0
M  V30 239 H 16.9453 -1.68771 -5.62841 0
M  V30 240 H 18.4693 -0.854015 -6.04598 0
M  V30 241 H 19.8833 -2.8552 -4.97143 0
M  V30 242 H 18.2803 -3.62372 -4.78338 0
M  V30 243 H 19.3503 -3.47956 -3.3772 0
M  V30 244 N 20.6934 1.19889 -1.02296 0
M  V30 245 C 22.1044 1.71124 -0.746568 0
M  V30 246 C 22.4554 1.81939 0.734335 0
M  V30 247 O 21.5804 1.48639 1.57275 0
M  V30 248 C 22.1754 3.10804 -1.34857 0
M  V30 249 C 20.7344 3.59323 -1.1209 0
M  V30 250 C 19.8814 2.3635 -1.45031 0
M  V30 251 H 22.8324 1.04813 -1.19163 0
M  V30 252 H 22.8534 3.73186 -0.742437 0
M  V30 253 H 22.3654 3.029 -2.42638 0
M  V30 254 H 20.4664 3.7255 -0.0610337 0
M  V30 255 H 20.5794 4.4378 -1.80544 0
M  V30 256 H 18.9434 2.39399 -0.869487 0
M  V30 257 H 19.7264 2.31081 -2.53883 0
M  V30 258 N 22.1715 0.800033 1.35784 0
M  V30 259 C 23.1185 0.203848 2.29898 0
M  V30 260 C 24.0885 -0.658375 1.52495 0
M  V30 261 O 25.2735 -0.604832 1.8096 0
M  V30 262 C 22.4135 -0.64688 3.38983 0
M  V30 263 C 21.5265 0.235054 4.3136 0
M  V30 264 C 20.6615 -0.623054 5.27533 0
M  V30 265 C 19.7005 0.259682 6.11549 0
M  V30 266 N 18.8375 -0.558019 6.99879 0
M  V30 267 H 23.6775 1.01186 2.80295 0
M  V30 268 H 21.2145 0.51053 1.37957 0
M  V30 269 H 23.1725 -1.15521 4.00887 0
M  V30 270 H 21.8025 -1.42021 2.89879 0
M  V30 271 H 20.8545 0.861438 3.70518 0
M  V30 272 H 22.1665 0.914768 4.9034 0
M  V30 273 H 21.3205 -1.19678 5.94779 0
M  V30 274 H 20.0595 -1.33636 4.69034 0
M  V30 275 H 19.0645 0.845726 5.43256 0
M  V30 276 H 20.2895 0.970748 6.72126 0
M  V30 277 H 18.2355 -1.25542 6.43875 0
M  V30 278 H 18.1525 0.0637872 7.55973 0
M  V30 279 H 19.4205 -1.11523 7.71481 0
M  V30 280 N 23.6496 -1.47581 0.552962 0
M  V30 281 C 24.8956 -2.02782 0.0273648 0
M  V30 282 C 25.2286 -1.42687 -1.31734 0
M  V30 283 O 24.5036 -0.580897 -1.85623 0
M  V30 284 C 24.7866 -3.60031 -0.0702371 0
M  V30 285 C 24.6396 -4.30566 1.30126 0
M  V30 286 C 25.9586 -4.33028 -0.785771 0
M  V30 287 H 23.0776 -0.736912 0.0114185 0
M  V30 288 H 25.7196 -1.76056 0.714432 0
M  V30 289 H 23.8696 -3.82932 -0.655382 0
M  V30 290 H 25.5416 -4.19018 1.92929 0
M  V30 291 H 23.7846 -3.91086 1.87709 0
M  V30 292 H 24.4556 -5.39114 1.18573 0
M  V30 293 H 26.9316 -4.15095 -0.288982 0
M  V30 294 H 25.8076 -5.42695 -0.823013 0
M  V30 295 H 26.0686 -4.01945 -1.841 0
M  V30 296 N 25.1277 -0.289203 -1.54924 0
M  V30 297 C 26.3557 0.326463 -2.04308 0
M  V30 298 C 26.7707 1.48413 -1.16701 0
M  V30 299 O 26.1277 1.81507 -0.190087 0
M  V30 300 C 26.1787 0.794014 -3.52672 0
M  V30 301 O 25.8997 -0.317564 -4.36948 0
M  V30 302 C 27.4007 1.47605 -4.18004 0
M  V30 303 H 24.6207 0.0726272 -0.667058 0
M  V30 304 H 27.1647 -0.425401 -2.00026 0
M  V30 305 H 25.3197 1.49593 -3.57352 0
M  V30 306 H 25.7337 0.0443186 -5.24481 0
M  V30 307 H 27.2077 1.75447 -5.23376 0
M  V30 308 H 27.6847 2.41224 -3.67025 0
M  V30 309 H 28.2907 0.81762 -4.17367 0
M  V30 310 N 26.6058 1.57591 -0.0167156 0
M  V30 311 C 27.5358 2.12496 0.967858 0
M  V30 312 C 28.5168 1.03807 1.34752 0
M  V30 313 O 29.7018 1.31577 1.42833 0
M  V30 314 C 26.8318 2.64194 2.25431 0
M  V30 315 C 25.7858 3.77559 2.01576 0
M  V30 316 C 25.1118 4.15636 3.36379 0
M  V30 317 C 26.4118 5.04151 1.36489 0
M  V30 318 H 28.1058 2.95013 0.510643 0
M  V30 319 H 25.6518 1.41915 0.244181 0
M  V30 320 H 27.6048 3.01236 2.94678 0
M  V30 321 H 26.3288 1.78821 2.73296 0
M  V30 322 H 24.9878 3.40937 1.34751 0
M  V30 323 H 24.6358 3.27263 3.81979 0
M  V30 324 H 24.3358 4.92022 3.21229 0
M  V30 325 H 25.8598 4.5525 4.06915 0
M  V30 326 H 27.2738 5.38857 1.95718 0
M  V30 327 H 25.6708 5.85453 1.31776 0
M  V30 328 H 26.7408 4.83733 0.336219 0
M  V30 329 N 28.0839 -0.256276 1.55502 0
M  V30 330 C 28.9939 -1.33882 1.92647 0
M  V30 331 C 30.0099 -1.53159 0.825727 0
M  V30 332 O 31.1859 -1.66963 1.12629 0
M  V30 333 C 28.2509 -2.6751 2.20543 0
M  V30 334 C 27.3119 -2.56836 3.43997 0
M  V30 335 C 26.5449 -3.84092 3.70553 0
M  V30 336 O 26.7679 -4.85545 2.99336 0
M  V30 337 O 25.7019 -3.83288 4.64084 0
M  V30 338 H 29.5279 -1.05374 2.84833 0
M  V30 339 H 27.1129 -0.456237 1.42263 0
M  V30 340 H 28.9949 -3.46492 2.39835 0
M  V30 341 H 27.6699 -2.9577 1.31536 0
M  V30 342 H 26.5769 -1.76172 3.30021 0
M  V30 343 H 27.9099 -2.33523 4.33275 0
M  V30 344 N 29.562 -1.4872 -0.521534 0
M  V30 345 C 30.525 -1.63379 -1.60748 0
M  V30 346 C 31.525 -0.50661 -1.52611 0
M  V30 347 O 32.715 -0.772601 -1.5613 0
M  V30 348 C 29.847 -1.61192 -3.00383 0
M  V30 349 H 31.04 -2.60217 -1.49087 0
M  V30 350 H 28.593 -1.37444 -0.744235 0
M  V30 351 H 29.328 -0.65863 -3.17541 0
M  V30 352 H 29.113 -2.43032 -3.07698 0
M  V30 353 H 30.603 -1.7466 -3.7932 0
M  V30 354 N 31.0401 0.771051 -1.3745 0
M  V30 355 C 31.9731 1.89166 -1.27638 0
M  V30 356 C 32.9511 1.61842 -0.156782 0
M  V30 357 O 34.1351 1.85569 -0.331111 0
M  V30 358 C 31.2621 3.24405 -0.973621 0
M  V30 359 C 30.3081 3.70638 -2.1102 0
M  V30 360 S 31.1411 3.84228 -3.73 0
M  V30 361 C 32.2971 5.22313 -3.44876 0
M  V30 362 H 32.5301 1.972 -2.22485 0
M  V30 363 H 30.0631 0.932224 -1.23081 0
M  V30 364 H 32.0211 4.02514 -0.805766 0
M  V30 365 H 30.6821 3.14071 -0.0426279 0
M  V30 366 H 29.8751 4.68685 -1.85338 0
M  V30 367 H 29.4771 2.99632 -2.23822 0
M  V30 368 H 31.7691 6.07505 -2.99908 0
M  V30 369 H 32.7121 5.53008 -4.42253 0
M  V30 370 H 33.1201 4.90284 -2.79789 0
M  V30 371 N 32.5182 1.22032 0.997298 0
M  V30 372 C 33.4662 0.983634 2.10778 0
M  V30 373 C 34.4602 -0.0717564 1.69248 0
M  V30 374 O 35.6662 0.080304 1.79821 0
M  V30 375 H 32.0412 0.300877 0.689186 0
M  V30 376 H 34.0122 1.92606 2.27916 0
M  V30 377 C 32.7612 0.57326 3.42942 0
M  V30 378 H 32.0842 1.37702 3.75338 0
M  V30 379 H 33.5242 0.447031 4.21637 0
M  V30 380 C 31.9832 -0.7167 3.29188 0
M  V30 381 O 32.5132 -1.77027 3.60589 0
M  V30 382 N 30.7192 -0.686167 2.82383 0
M  V30 383 H 30.2662 0.171507 2.57028 0
M  V30 384 H 30.2242 -1.54955 2.73562 0
M  V30 385 N 33.9963 -1.19345 1.0293 0
M  V30 386 C 35.2243 -1.92997 0.745644 0
M  V30 387 C 35.6393 -1.75519 -0.695589 0
M  V30 388 O 34.9963 -1.07737 -1.47306 0
M  V30 389 C 35.0473 -3.44741 1.08792 0
M  V30 390 O 34.7683 -3.61658 2.47256 0
M  V30 391 C 36.2693 -4.35515 0.827129 0
M  V30 392 H 33.4893 -0.613042 0.272801 0
M  V30 393 H 36.0333 -1.51473 1.3739 0
M  V30 394 H 34.1883 -3.84097 0.504832 0
M  V30 395 H 34.6023 -4.55514 2.60015 0
M  V30 396 H 36.0763 -5.40589 1.11658 0
M  V30 397 H 36.5533 -4.38552 -0.238436 0
M  V30 398 H 37.1593 -4.01841 1.39297 0
M  V30 399 N 35.4744 -0.807222 -1.35358 0
M  V30 400 C 36.7024 -0.400377 -2.02989 0
M  V30 401 C 37.1174 0.988859 -1.60832 0
M  V30 402 O 36.4744 1.63729 -0.806175 0
M  V30 403 C 36.5254 -0.474867 -3.58368 0
M  V30 404 O 36.2464 -1.80933 -3.98992 0
M  V30 405 C 37.7474 -0.0609112 -4.43258 0
M  V30 406 H 34.9674 -0.162587 -0.651004 0
M  V30 407 H 37.5114 -1.09102 -1.72965 0
M  V30 408 H 35.6664 0.167534 -3.87038 0
M  V30 409 H 36.0804 -1.77256 -4.9364 0
M  V30 410 H 37.5544 -0.164145 -5.51756 0
M  V30 411 H 38.0314 0.993831 -4.27808 0
M  V30 412 H 38.6374 -0.676492 -4.19885 0
M  V30 413 N 36.9525 1.47285 -0.560781 0
M  V30 414 C 38.1985 2.02764 -0.0381184 0
M  V30 415 C 38.5315 1.43384 1.30976 0
M  V30 416 O 37.8065 0.590733 1.85312 0
M  V30 417 C 38.0895 3.60064 0.0511427 0
M  V30 418 C 37.9425 4.2987 -1.32408 0
M  V30 419 C 39.2615 4.33439 0.762795 0
M  V30 420 H 36.3805 0.736841 -0.0153264 0
M  V30 421 H 39.0225 1.75675 -0.723759 0
M  V30 422 H 37.1725 3.83274 0.635065 0
M  V30 423 H 38.8445 4.17989 -1.95148 0
M  V30 424 H 37.0875 3.90085 -1.8978 0
M  V30 425 H 37.7585 5.38478 -1.21431 0
M  V30 426 H 40.2345 4.15243 0.266965 0
M  V30 427 H 39.1105 5.43124 0.794221 0
M  V30 428 H 39.3715 4.02915 1.81966 0
M  V30 429 N 38.4306 0.297415 1.54768 0
M  V30 430 C 39.3636 -0.622188 2.19554 0
M  V30 431 C 40.3416 -1.13558 1.16376 0
M  V30 432 O 41.5256 -1.20444 1.45002 0
M  V30 433 C 38.6526 -1.8509 2.83653 0
M  V30 434 C 37.6986 -1.47106 4.00328 0
M  V30 435 S 38.5316 -0.53006 5.3287 0
M  V30 436 C 39.6876 -1.76665 6.0045 0
M  V30 437 H 39.9206 -0.0717806 2.97213 0
M  V30 438 H 37.4536 0.0815678 1.54184 0
M  V30 439 H 39.4116 -2.55605 3.21211 0
M  V30 440 H 38.0726 -2.37247 2.05846 0
M  V30 441 H 37.2656 -2.38594 4.43947 0
M  V30 442 H 36.8676 -0.845885 3.64309 0
M  V30 443 H 39.1596 -2.7077 6.21039 0
M  V30 444 H 40.1026 -1.37308 6.9466 0
M  V30 445 H 40.5106 -1.94174 5.30054 0
M  V30 446 N 39.9087 -1.5758 0.0250728 0
M  V30 447 C 40.8407 -2.06869 -0.986796 0
M  V30 448 C 41.8537 -0.991332 -1.29137 0
M  V30 449 O 43.0427 -1.26761 -1.25674 0
M  V30 450 C 40.1427 -2.47486 -2.31525 0
M  V30 451 C 39.3157 -3.78253 -2.19643 0
M  V30 452 C 38.3747 -4.05464 -3.35388 0
M  V30 453 O 37.4007 -4.75774 -3.12454 0
M  V30 454 N 38.6027 -3.55321 -4.59051 0
M  V30 455 H 41.3677 -2.94302 -0.566276 0
M  V30 456 H 38.9287 -1.6109 -0.161776 0
M  V30 457 H 40.9207 -2.62785 -3.07776 0
M  V30 458 H 39.4907 -1.65441 -2.65232 0
M  V30 459 H 38.7107 -3.7279 -1.28144 0
M  V30 460 H 39.9987 -4.63936 -2.08903 0
M  V30 461 H 39.3967 -2.98431 -4.80578 0
M  V30 462 H 37.9537 -3.75905 -5.32483 0
M  V30 463 N 41.3868 0.248026 -1.55636 0
M  V30 464 C 42.6348 0.974295 -1.77065 0
M  V30 465 C 42.9558 1.85897 -0.588849 0
M  V30 466 O 42.2258 1.91868 0.395407 0
M  V30 467 H 40.8058 0.362733 -0.653019 0
M  V30 468 H 43.4678 0.266244 -1.93073 0
M  V30 469 H 42.5638 1.59667 -2.68166 0
M  V30 470 N 42.8649 1.48995 0.513639 0
M  V30 471 C 44.1119 1.57843 1.26854 0
M  V30 472 C 44.4399 0.259501 1.92761 0
M  V30 473 O 43.6949 -0.75159 1.80692 0
M  V30 474 C 43.9939 2.67756 2.36731 0
M  V30 475 C 43.6599 4.09669 1.88368 0
M  V30 476 C 42.3219 4.48291 1.74896 0
M  V30 477 C 44.6739 4.98537 1.52021 0
M  V30 478 C 42.0019 5.73568 1.23438 0
M  V30 479 C 44.3539 6.24319 1.0202 0
M  V30 480 C 43.0179 6.61783 0.871778 0
M  V30 481 H 42.2879 0.577587 0.464192 0
M  V30 482 H 44.9349 1.82778 0.571366 0
M  V30 483 H 43.2399 2.36743 3.12185 0
M  V30 484 H 44.9369 2.71813 2.9482 0
M  V30 485 H 41.5269 3.79176 1.99808 0
M  V30 486 H 45.7109 4.69363 1.61281 0
M  V30 487 H 40.9669 6.01304 1.10648 0
M  V30 488 H 45.1409 6.92566 0.729722 0
M  V30 489 H 42.7679 7.5874 0.470852 0
M  V30 490 N 44.343 -0.763751 1.37857 0
M  V30 491 C 45.291 -1.89864 1.34367 0
M  V30 492 C 46.285 -1.67816 0.231143 0
M  V30 493 O 47.491 -1.75508 0.399617 0
M  V30 494 H 43.866 -0.624501 0.41893 0
M  V30 495 H 45.837 -1.89925 2.30155 0
M  V30 496 C 44.586 -3.27227 1.1755 0
M  V30 497 H 43.909 -3.44773 2.02414 0
M  V30 498 H 45.349 -4.06911 1.1916 0
M  V30 499 C 43.808 -3.36692 -0.118311 0
M  V30 500 O 44.338 -3.86374 -1.09902 0
M  V30 501 N 42.544 -2.90092 -0.171717 0
M  V30 502 H 42.091 -2.49853 0.627012 0
M  V30 503 H 42.049 -2.96806 -1.03699 0
M  V30 504 N 45.8211 -1.22559 -0.990812 0
M  V30 505 C 47.2371 -0.985996 -1.255 0
M  V30 506 C 47.4371 0.319173 -1.98956 0
M  V30 507 O 46.4931 1.04127 -2.3003 0
M  V30 508 C 47.8061 -2.18607 -2.06474 0
M  V30 509 C 49.3541 -2.22985 -2.19651 0
M  V30 510 C 49.8291 -3.4255 -3.04012 0
M  V30 511 N 51.3201 -3.42725 -3.11599 0
M  V30 512 C 52.0551 -4.31892 -3.7717 0
M  V30 513 N 51.5511 -5.31279 -4.44651 0
M  V30 514 N 53.3441 -4.19662 -3.73952 0
M  V30 515 H 45.4951 -2.06469 -0.49841 0
M  V30 516 H 47.7581 -0.904853 -0.282747 0
M  V30 517 H 47.4641 -3.13267 -1.59865 0
M  V30 518 H 47.3381 -2.18838 -3.07229 0
M  V30 519 H 49.7251 -1.28871 -2.65474 0
M  V30 520 H 49.8061 -2.26791 -1.18319 0
M  V30 521 H 49.4501 -4.36965 -2.58889 0
M  V30 522 H 49.3801 -3.35984 -4.0549 0
M  V30 523 H 51.8711 -2.70807 -2.63575 0
M  V30 524 H 52.1841 -5.95593 -4.92431 0
M  V30 525 H 50.5291 -5.3519 -4.43392 0
M  V30 526 H 53.7201 -3.41268 -3.20396 0
M  V30 527 H 53.8931 -4.89358 -4.24774 0
M  V30 528 N 47.2992 1.18797 -1.03562 0
M  V30 529 C 48.5242 1.9314 -0.755764 0
M  V30 530 C 48.9492 1.7537 0.68022 0
M  V30 531 O 48.3072 1.06046 1.47051 0
M  V30 532 C 48.3552 3.42747 -1.12058 0
M  V30 533 O 47.4592 4.11683 -0.243124 0
M  V30 534 H 46.8002 0.602724 -0.278604 0
M  V30 535 H 49.3302 1.50678 -1.3841 0
M  V30 536 H 49.3402 3.93437 -1.08035 0
M  V30 537 H 48.0152 3.55002 -2.16672 0
M  V30 538 H 46.5922 3.71323 -0.342539 0
M  V30 539 N 48.7773 0.814389 1.34928 0
M  V30 540 C 49.6873 0.231978 2.3345 0
M  V30 541 C 50.7033 -0.629139 1.62228 0
M  V30 542 O 51.8793 -0.539052 1.94052 0
M  V30 543 C 48.9443 -0.603482 3.41407 0
M  V30 544 C 48.0053 0.279037 4.28392 0
M  V30 545 C 47.2383 -0.516643 5.31193 0
M  V30 546 O 47.4613 -1.75068 5.4287 0
M  V30 547 O 46.3953 0.0965652 6.01823 0
M  V30 548 H 50.2213 1.04721 2.85074 0
M  V30 549 H 47.8063 0.576343 1.37836 0
M  V30 550 H 49.6883 -1.07908 4.0735 0
M  V30 551 H 48.3633 -1.39618 2.92042 0
M  V30 552 H 47.2703 0.801948 3.65403 0
M  V30 553 H 48.6033 1.03588 4.81176 0
M  V30 554 N 50.2554 -1.46986 0.568584 0
M  V30 555 C 51.6714 -1.57946 0.229189 0
M  V30 556 C 51.8714 -1.56567 -1.26843 0
M  V30 557 O 50.9274 -1.47511 -2.04931 0
M  V30 558 C 52.2404 -2.87963 0.865909 0
M  V30 559 C 53.7884 -3.01568 0.838188 0
M  V30 560 C 54.2634 -4.34301 1.45419 0
M  V30 561 N 55.7544 -4.40965 1.41788 0
M  V30 562 C 56.4894 -5.42256 1.86403 0
M  V30 563 N 55.9854 -6.50297 2.38926 0
M  V30 564 N 57.7784 -5.3337 1.77405 0
M  V30 565 H 49.9294 -1.46126 1.54146 0
M  V30 566 H 52.1924 -0.696156 0.643484 0
M  V30 567 H 51.8984 -2.94742 1.91886 0
M  V30 568 H 51.7724 -3.75423 0.365687 0
M  V30 569 H 54.1594 -2.94379 -0.206106 0
M  V30 570 H 54.2404 -2.1562 1.37629 0
M  V30 571 H 53.8844 -4.42247 2.49761 0
M  V30 572 H 53.8144 -5.19 0.891435 0
M  V30 573 H 56.3054 -3.63484 1.03381 0
M  V30 574 H 56.6184 -7.23777 2.70863 0
M  V30 575 H 54.9634 -6.51155 2.42944 0
M  V30 576 H 58.1544 -4.47865 1.3614 0
M  V30 577 H 58.3274 -6.12169 2.12492 0
M  V30 578 N 51.7335 -0.305618 -1.54608 0
M  V30 579 C 52.9735 0.303114 -2.0214 0
M  V30 580 C 53.3375 1.50737 -1.18921 0
M  V30 581 O 54.5385 2.18778 -1.56172 0
M  V30 582 C 52.8095 0.646332 -3.51507 0
M  V30 583 S 54.3685 1.23727 -4.20995 0
M  V30 584 H 51.1865 0.0927643 -0.704923 0
M  V30 585 H 53.7885 -0.434566 -1.90609 0
M  V30 586 H 52.4925 -0.238541 -4.09706 0
M  V30 587 H 52.0235 1.41468 -3.67084 0
M  V30 588 H 54.0385 2.52489 -4.27158 0
M  V30 589 N 53.2116 1.57565 -0.0334293 0
M  V30 590 C 54.6226 1.79746 0.504798 0
M  V30 591 C 54.9736 0.944091 1.71992 0
M  V30 592 O 54.0986 0.155694 2.15839 0
M  V30 593 C 54.6936 3.25997 0.922567 0
M  V30 594 C 53.2526 3.49159 1.40588 0
M  V30 595 C 52.3996 2.74785 0.372633 0
M  V30 596 H 55.3506 1.56565 -0.259436 0
M  V30 597 H 55.3716 3.35945 1.78666 0
M  V30 598 H 54.8836 3.88081 0.0379825 0
M  V30 599 H 52.9846 2.92332 2.31025 0
M  V30 600 H 53.0976 4.57873 1.41028 0
M  V30 601 H 51.4616 2.40391 0.841672 0
M  V30 602 H 52.2446 3.39587 -0.503559 0
M  V30 603 N 54.6897 -0.239769 1.55765 0
M  V30 604 C 56.1057 -0.588624 1.48349 0
M  V30 605 C 56.3057 -1.88005 0.72502 0
M  V30 606 O 55.3617 -2.51186 0.257269 0
M  V30 607 C 56.6747 -0.68474 2.928 0
M  V30 608 C 58.2227 -0.77659 3.03213 0
M  V30 609 C 58.6977 -0.904207 4.48986 0
M  V30 610 N 60.1887 -0.968896 4.52953 0
M  V30 611 C 60.9237 -1.08703 5.63002 0
M  V30 612 N 60.4197 -1.17026 6.82845 0
M  V30 613 N 62.2127 -1.12074 5.50814 0
M  V30 614 H 54.3637 0.607911 2.03515 0
M  V30 615 H 56.6267 0.21083 0.924259 0
M  V30 616 H 56.3327 0.194284 3.51163 0
M  V30 617 H 56.2067 -1.55435 3.43686 0
M  V30 618 H 58.5937 -1.64606 2.44926 0
M  V30 619 H 58.6747 0.118315 2.55526 0
M  V30 620 H 58.3187 -0.0392633 5.07885 0
M  V30 621 H 58.2487 -1.81426 4.9436 0
M  V30 622 H 60.7397 -0.915633 3.6664 0
M  V30 623 H 61.0527 -1.25966 7.62465 0
M  V30 624 H 59.3977 -1.13971 6.85591 0
M  V30 625 H 62.5887 -1.05226 4.5612 0
M  V30 626 H 62.7617 -1.20936 6.36615 0
M  V30 627 N 56.1678 -1.49265 -0.50573 0
M  V30 628 C 57.4448 -1.49012 -1.26707 0
M  V30 629 C 57.8248 -0.215205 -2.1 0
M  V30 630 O 57.1728 0.802547 -2.13943 0
M  V30 631 C 57.3828 -2.7663 -2.12783 0
M  V30 632 C 58.7308 -3.25932 -2.72127 0
M  V30 633 O 59.7548 -2.77715 -2.23054 0
M  V30 634 O 58.6138 -4.09897 -3.61451 0
M  V30 635 H 55.7078 -0.596197 -0.57313 0
M  V30 636 H 58.2538 -1.61524 -0.52039 0
M  V30 637 H 57.0258 -3.60916 -1.5118 0
M  V30 638 H 56.6488 -2.66956 -2.94653 0
M  V30 639 N 57.6459 0.756429 -1.3826 0
M  V30 640 C 58.8739 1.54565 -1.3754 0
M  V30 641 C 59.2889 1.88767 0.0355331 0
M  V30 642 O 58.6459 1.52572 1.0014 0
M  V30 643 C 58.6969 2.84654 -2.22833 0
M  V30 644 O 58.4179 2.51912 -3.5843 0
M  V30 645 C 59.9189 3.78807 -2.30261 0
M  V30 646 H 57.1389 0.478353 -0.470553 0
M  V30 647 H 59.6829 0.936381 -1.81803 0
M  V30 648 H 57.8379 3.41965 -1.8204 0
M  V30 649 H 58.2519 3.35325 -4.03308 0
M  V30 650 H 59.7259 4.67045 -2.94233 0
M  V30 651 H 60.2029 4.19038 -1.31545 0
M  V30 652 H 60.8089 3.2742 -2.71433 0
M  V30 653 N 59.124 1.23083 0.984299 0
M  V30 654 C 60.54 0.992637 1.24975 0
M  V30 655 C 60.74 -0.308618 1.99123 0
M  V30 656 O 59.796 -1.02905 2.30579 0
M  V30 657 C 61.109 2.19698 2.05312 0
M  V30 658 C 62.657 2.24147 2.18465 0
M  V30 659 C 63.132 3.44157 3.02192 0
M  V30 660 N 64.623 3.44372 3.09777 0
M  V30 661 C 65.358 4.33886 3.74874 0
M  V30 662 N 64.854 5.3363 4.41827 0
M  V30 663 N 66.647 4.21639 3.71721 0
M  V30 664 H 58.798 2.06731 0.487453 0
M  V30 665 H 61.061 0.906339 0.277944 0
M  V30 666 H 60.767 3.1411 1.58201 0
M  V30 667 H 60.641 2.20465 3.06064 0
M  V30 668 H 63.028 1.30277 2.64786 0
M  V30 669 H 63.109 2.27415 1.17115 0
M  V30 670 H 62.753 4.38332 2.56568 0
M  V30 671 H 62.683 3.3813 4.03702 0
M  V30 672 H 65.174 2.72201 2.62135 0
M  V30 673 H 65.487 5.98196 4.89266 0
M  V30 674 H 63.832 5.37534 4.40548 0
M  V30 675 H 67.023 3.42962 3.18582 0
M  V30 676 H 67.196 4.91604 4.22173 0
M  V30 677 N 60.6021 -1.18246 1.0419 0
M  V30 678 C 61.8511 -1.87588 0.741194 0
M  V30 679 C 62.1641 -1.81303 -0.734066 0
M  V30 680 O 63.3701 -2.46019 -1.14834 0
M  V30 681 C 61.8261 -3.36538 1.27555 0
M  V30 682 C 61.4341 -3.51349 2.77953 0
M  V30 683 C 63.1781 -4.11273 1.05143 0
M  V30 684 C 61.0851 -4.94265 3.2474 0
M  V30 685 H 60.0151 -0.702622 0.273565 0
M  V30 686 H 62.6661 -1.33601 1.25789 0
M  V30 687 H 61.0481 -3.9 0.686703 0
M  V30 688 H 62.2221 -3.08153 3.42605 0
M  V30 689 H 60.5371 -2.90022 2.98791 0
M  V30 690 H 63.1341 -5.16689 1.37611 0
M  V30 691 H 63.4771 -4.16298 -0.0112774 0
M  V30 692 H 64.0101 -3.63987 1.60495 0
M  V30 693 H 60.7491 -4.94408 4.30396 0
M  V30 694 H 60.2691 -5.38172 2.64823 0
M  V30 695 H 61.9481 -5.62987 3.18834 0
M  V30 696 N 62.0802 -0.821533 -1.34494 0
M  V30 697 C 63.3262 -0.409552 -1.98622 0
M  V30 698 C 63.6592 1.0244 -1.64984 0
M  V30 699 O 62.9342 1.71325 -0.920758 0
M  V30 700 C 63.2172 -0.610458 -3.54888 0
M  V30 701 C 63.0702 -2.09043 -3.98273 0
M  V30 702 C 64.3892 -0.0455379 -4.40076 0
M  V30 703 H 61.5082 -0.15028 -0.721516 0
M  V30 704 H 64.1502 -1.03384 -1.59411 0
M  V30 705 H 62.3002 -0.079044 -3.8842 0
M  V30 706 H 63.9722 -2.68537 -3.75081 0
M  V30 707 H 62.2152 -2.58139 -3.48635 0
M  V30 708 H 62.8862 -2.18182 -5.07051 0
M  V30 709 H 65.3622 -0.499557 -4.1309 0
M  V30 710 H 64.2382 -0.215922 -5.48475 0
M  V30 711 H 64.4992 1.04939 -4.29465 0
M  V30 712 N 63.5583 1.46682 -0.576371 0
M  V30 713 C 64.4903 2.28341 0.198231 0
M  V30 714 C 65.5033 1.38141 0.861453 0
M  V30 715 O 66.6923 1.62797 0.732082 0
M  V30 716 C 63.7923 3.12986 1.29972 0
M  V30 717 C 62.9653 4.31271 0.729639 0
M  V30 718 C 62.0243 4.97363 1.71803 0
M  V30 719 O 61.0503 5.55156 1.25658 0
M  V30 720 N 62.2523 4.93796 3.05198 0
M  V30 721 H 65.0173 2.9546 -0.502324 0
M  V30 722 H 62.5783 1.56525 -0.413715 0
M  V30 723 H 64.5703 3.54066 1.96008 0
M  V30 724 H 63.1403 2.47984 1.90323 0
M  V30 725 H 62.3603 3.94052 -0.108012 0
M  V30 726 H 63.6483 5.07739 0.328438 0
M  V30 727 H 63.0463 4.48077 3.45317 0
M  V30 728 H 61.6033 5.38837 3.6674 0
M  V30 729 N 65.0364 0.313813 1.54444 0
M  V30 730 C 65.9664 -0.549454 2.26943 0
M  V30 731 C 66.9474 -1.12741 1.27372 0
M  V30 732 O 68.1324 -1.15436 1.56167 0
M  V30 733 C 65.2624 -1.71523 3.01989 0
M  V30 734 C 64.2164 -1.26703 4.08816 0
M  V30 735 C 63.5424 -2.51898 4.71647 0
M  V30 736 C 64.8424 -0.388962 5.2085 0
M  V30 737 H 66.5364 0.0552661 2.99349 0
M  V30 738 H 64.0824 0.0280207 1.43973 0
M  V30 739 H 66.0354 -2.32535 3.51433 0
M  V30 740 H 64.7594 -2.34639 2.27183 0
M  V30 741 H 63.4184 -0.679896 3.6024 0
M  V30 742 H 63.0664 -3.13356 3.93468 0
M  V30 743 H 62.7664 -2.22605 5.43802 0
M  V30 744 H 64.2904 -3.1369 5.23861 0
M  V30 745 H 65.7044 -0.905107 5.6611 0
M  V30 746 H 64.1014 -0.18924 5.99802 0
M  V30 747 H 65.1714 0.582699 4.81386 0
M  V30 748 N 66.5145 -1.57545 0.0417849 0
M  V30 749 C 67.7605 -1.92601 -0.635021 0
M  V30 750 C 68.0935 -0.919627 -1.71045 0
M  V30 751 O 67.3685 0.0557892 -1.9442 0
M  V30 752 C 67.6515 -3.38085 -1.23979 0
M  V30 753 C 67.5045 -4.49467 -0.173057 0
M  V30 754 C 68.8235 -3.83776 -2.15416 0
M  V30 755 H 65.9425 -0.700397 -0.229374 0
M  V30 756 H 68.5845 -1.89728 0.101633 0
M  V30 757 H 66.7345 -3.40664 -1.86762 0
M  V30 758 H 68.4065 -4.59018 0.458312 0
M  V30 759 H 66.6495 -4.30909 0.499996 0
M  V30 760 H 67.3205 -5.48323 -0.636054 0
M  V30 761 H 69.7965 -3.83013 -1.62605 0
M  V30 762 H 68.6725 -4.8624 -2.54679 0
M  V30 763 H 68.9335 -3.19998 -3.05047 0
M  V30 764 N 67.9926 0.231505 -1.5589 0
M  V30 765 C 69.2396 0.957352 -1.78441 0
M  V30 766 C 69.5676 1.84726 -0.60882 0
M  V30 767 O 68.8226 1.91416 0.40725 0
M  V30 768 C 69.1216 1.83577 -3.0665 0
M  V30 769 C 68.7876 1.09993 -4.37278 0
M  V30 770 C 67.4496 0.896629 -4.72773 0
M  V30 771 C 69.8016 0.579558 -5.17968 0
M  V30 772 C 67.1296 0.160896 -5.86479 0
M  V30 773 C 69.4816 -0.142783 -6.32439 0
M  V30 774 C 68.1456 -0.357427 -6.66542 0
M  V30 775 H 67.4156 0.35032 -0.65296 0
M  V30 776 H 70.0626 0.226259 -1.90159 0
M  V30 777 H 68.3676 2.63441 -2.90011 0
M  V30 778 H 70.0646 2.39934 -3.21298 0
M  V30 779 H 66.6546 1.26835 -4.09403 0
M  V30 780 H 70.8386 0.724125 -4.90989 0
M  V30 781 H 66.0946 -0.0157293 -6.11398 0
M  V30 782 H 70.2686 -0.553559 -6.94196 0
M  V30 783 H 67.8956 -0.929466 -7.54497 0
M  V30 784 N 69.4707 1.49531 0.497807 0
M  V30 785 C 70.8817 1.52344 1.07927 0
M  V30 786 C 71.2327 0.311469 1.93712 0
M  V30 787 O 70.3577 -0.578405 2.08527 0
M  V30 788 C 70.9527 2.76062 1.96405 0
M  V30 789 C 69.5117 2.81643 2.49709 0
M  V30 790 C 68.6587 2.46299 1.27404 0
M  V30 791 H 71.6097 1.56182 0.281576 0
M  V30 792 H 71.6307 2.56405 2.81135 0
M  V30 793 H 71.1427 3.64254 1.33943 0
M  V30 794 H 69.2437 1.97739 3.15801 0
M  V30 795 H 69.3567 3.83891 2.86643 0
M  V30 796 H 67.7207 1.98148 1.60029 0
M  V30 797 H 68.5037 3.36769 0.66645 0
M  V30 798 N 70.9488 -0.749086 1.3866 0
M  V30 799 C 71.9118 -1.84457 1.36045 0
M  V30 800 C 72.9118 -1.58682 0.260122 0
M  V30 801 O 74.1018 -1.66343 0.517261 0
M  V30 802 C 71.2338 -3.22008 1.11911 0
M  V30 803 H 72.4268 -1.88182 2.33512 0
M  V30 804 H 69.9798 -0.951266 1.24019 0
M  V30 805 H 70.7148 -3.2395 0.150686 0
M  V30 806 H 70.4998 -3.42111 1.91579 0
M  V30 807 H 71.9898 -4.0208 1.12788 0
M  V30 808 N 72.4269 -1.23603 -0.977757 0
M  V30 809 C 73.3569 -1.04401 -2.0886 0
M  V30 810 C 74.3379 0.0399052 -1.70053 0
M  V30 811 O 75.5229 -0.125246 -1.93796 0
M  V30 812 C 72.6529 -0.637269 -3.41403 0
M  V30 813 C 71.6069 -1.66883 -3.94124 0
M  V30 814 C 70.9329 -1.11745 -5.22893 0
M  V30 815 C 72.2329 -3.06247 -4.23096 0
M  V30 816 H 73.9269 -1.97316 -2.25182 0
M  V30 817 H 71.4729 -0.950096 -1.08209 0
M  V30 818 H 73.4259 -0.48998 -4.18542 0
M  V30 819 H 72.1499 0.327557 -3.24953 0
M  V30 820 H 70.8089 -1.80416 -3.19133 0
M  V30 821 H 70.4569 -0.143527 -5.02795 0
M  V30 822 H 70.1569 -1.80672 -5.59134 0
M  V30 823 H 71.6809 -0.982067 -6.02651 0
M  V30 824 H 73.0949 -2.96001 -4.90975 0
M  V30 825 H 71.4919 -3.72436 -4.70544 0
M  V30 826 H 72.5619 -3.55041 -3.30263 0
M  V30 827 N 73.905 1.17692 -1.04816 0
M  V30 828 C 75.135 1.91508 -0.775128 0
M  V30 829 C 75.543 1.76844 0.67253 0
M  V30 830 O 74.886 1.10057 1.47082 0
M  V30 831 C 74.948 3.43167 -1.0713 0
M  V30 832 C 74.612 3.81612 -2.51438 0
M  V30 833 C 75.609 3.84772 -3.49638 0
M  V30 834 C 73.294 4.12687 -2.86348 0
M  V30 835 C 75.288 4.18469 -4.80794 0
M  V30 836 C 72.975 4.46053 -4.17708 0
M  V30 837 C 73.973 4.48921 -5.14741 0
M  V30 838 O 73.661 4.81504 -6.43746 0
M  V30 839 H 73.393 0.614575 -0.281555 0
M  V30 840 H 75.947 1.50206 -1.40098 0
M  V30 841 H 74.177 3.84745 -0.388342 0
M  V30 842 H 75.866 3.98239 -0.784883 0
M  V30 843 H 76.632 3.60893 -3.24008 0
M  V30 844 H 72.511 4.09627 -2.11486 0
M  V30 845 H 76.055 4.20623 -5.56527 0
M  V30 846 H 71.952 4.69393 -4.43103 0
M  V30 847 H 72.72 4.99377 -6.4851 0
M  V30 848 N 75.3831 0.828654 1.34056 0
M  V30 849 C 76.6111 0.43262 2.02326 0
M  V30 850 C 77.0261 -0.963147 1.62385 0
M  V30 851 O 76.3831 -1.62425 0.832121 0
M  V30 852 C 76.4341 0.53182 3.57567 0
M  V30 853 O 76.1551 1.87258 3.96063 0
M  V30 854 C 77.6561 0.131422 4.43105 0
M  V30 855 H 74.8761 0.172923 0.648335 0
M  V30 856 H 77.4201 1.1184 1.71208 0
M  V30 857 H 75.5751 -0.105938 3.87255 0
M  V30 858 H 75.9891 1.85087 4.90758 0
M  V30 859 H 77.4631 0.251904 5.51425 0
M  V30 860 H 77.9401 -0.925645 4.29335 0
M  V30 861 H 78.5461 0.743207 4.18756 0
M  V30 862 N 76.8612 -1.46375 0.584142 0
M  V30 863 C 78.1072 -2.02678 0.0703716 0
M  V30 864 C 78.4402 -1.4545 -1.28678 0
M  V30 865 O 77.7152 -0.62014 -1.84349 0
M  V30 866 C 77.9982 -3.60099 0.00614674 0
M  V30 867 C 77.8512 -4.27709 1.3923 0
M  V30 868 C 79.1702 -4.34598 -0.693742 0
M  V30 869 H 76.2892 -0.736504 0.027047 0
M  V30 870 H 78.9312 -1.74501 0.751615 0
M  V30 871 H 77.0812 -3.84236 -0.574009 0
M  V30 872 H 78.7532 -4.14832 2.01773 0
M  V30 873 H 76.9962 -3.87016 1.95962 0
M  V30 874 H 77.6672 -5.36478 1.29982 0
M  V30 875 H 80.1432 -4.15615 -0.200869 0
M  V30 876 H 79.0192 -5.44318 -0.707714 0
M  V30 877 H 79.2802 -4.05759 -1.75533 0
M  V30 878 N 78.3393 -0.321999 -1.54275 0
M  V30 879 C 79.5853 0.281461 -2.00837 0
M  V30 880 C 79.9183 1.51909 -1.20985 0
M  V30 881 O 79.1933 1.923 -0.291733 0
M  V30 882 C 79.4763 0.617162 -3.54772 0
M  V30 883 C 79.3293 -0.631064 -4.45351 0
M  V30 884 C 80.6483 1.43542 -4.16033 0
M  V30 885 H 77.7673 0.100826 -0.730071 0
M  V30 886 H 80.4093 -0.438268 -1.84876 0
M  V30 887 H 78.5593 1.23034 -3.68504 0
M  V30 888 H 80.2313 -1.26934 -4.43492 0
M  V30 889 H 78.4743 -1.26025 -4.15091 0
M  V30 890 H 79.1453 -0.351735 -5.50878 0
M  V30 891 H 81.6213 0.917134 -4.05867 0
M  V30 892 H 80.4973 1.63907 -5.23856 0
M  V30 893 H 80.7583 2.43108 -3.69257 0
M  V30 894 N 79.8174 1.5752 -0.0501392 0
M  V30 895 C 81.0644 1.9265 0.623874 0
M  V30 896 C 81.3924 0.928411 1.70912 0
M  V30 897 O 80.6474 -0.0594525 1.9561 0
M  V30 898 C 80.9464 3.34467 1.25963 0
M  V30 899 C 80.6124 4.49883 0.302689 0
M  V30 900 C 79.2744 4.81184 0.0393636 0
M  V30 901 C 81.6264 5.20002 -0.353205 0
M  V30 902 C 78.9544 5.79951 -0.887308 0
M  V30 903 C 81.3064 6.1976 -1.26806 0
M  V30 904 C 79.9704 6.49491 -1.54007 0
M  V30 905 H 79.2404 0.704957 0.228292 0
M  V30 906 H 81.8874 1.91146 -0.116398 0
M  V30 907 H 80.1924 3.32333 2.07514 0
M  V30 908 H 81.8894 3.58928 1.78806 0
M  V30 909 H 78.4794 4.25457 0.518109 0
M  V30 910 H 82.6634 4.96033 -0.162854 0
M  V30 911 H 77.9194 6.01322 -1.10553 0
M  V30 912 H 82.0934 6.73205 -1.78236 0
M  V30 913 H 79.7204 7.25837 -2.25976 0
M  V30 914 N 81.2955 -0.223234 1.56011 0
M  V30 915 C 82.2255 -1.27988 1.95298 0
M  V30 916 C 83.2065 -1.48976 0.820979 0
M  V30 917 O 84.3915 -1.61188 1.08315 0
M  V30 918 C 81.5215 -2.63 2.26822 0
M  V30 919 C 80.4755 -2.56671 3.42497 0
M  V30 920 C 79.8015 -3.95697 3.59622 0
M  V30 921 C 81.1015 -2.11601 4.77517 0
M  V30 922 H 82.7955 -0.953525 2.8381 0
M  V30 923 H 80.3415 -0.457244 1.36548 0
M  V30 924 H 82.2945 -3.37077 2.52898 0
M  V30 925 H 81.0185 -2.9732 1.35161 0
M  V30 926 H 79.6775 -1.85051 3.16467 0
M  V30 927 H 79.3255 -4.27322 2.6534 0
M  V30 928 H 79.0255 -3.92345 4.37424 0
M  V30 929 H 80.5495 -4.71438 3.88044 0
M  V30 930 H 81.9635 -2.7542 5.02809 0
M  V30 931 H 80.3605 -2.19311 5.5859 0
M  V30 932 H 81.4305 -1.06824 4.72987 0
M  V30 933 N 82.7736 -1.49793 -0.48987 0
M  V30 934 C 84.0016 -1.63568 -1.26701 0
M  V30 935 C 84.4166 -0.311465 -1.86213 0
M  V30 936 O 83.7736 0.704416 -1.68357 0
M  V30 937 C 83.8246 -2.71284 -2.38929 0
M  V30 938 O 83.5456 -3.9857 -1.81861 0
M  V30 939 C 85.0466 -2.95864 -3.3012 0
M  V30 940 H 82.2666 -0.550342 -0.383881 0
M  V30 941 H 84.8106 -1.95898 -0.586864 0
M  V30 942 H 82.9656 -2.417 -3.02753 0
M  V30 943 H 83.3796 -4.57993 -2.55622 0
M  V30 944 H 84.8536 -3.74941 -4.05121 0
M  V30 945 H 85.3306 -2.06206 -3.87783 0
M  V30 946 H 85.9366 -3.26907 -2.72051 0
M  V30 947 N 84.2517 0.741722 -1.39055 0
M  V30 948 C 85.4997 1.49818 -1.35643 0
M  V30 949 C 85.8207 1.94938 0.0491642 0
M  V30 950 O 85.0907 1.68505 0.999141 0
M  V30 951 H 83.6707 0.555755 -0.499144 0
M  V30 952 H 86.3327 0.880957 -1.73854 0
M  V30 953 H 85.4287 2.38348 -2.01486 0
M  V30 954 N 85.7298 1.2412 0.971189 0
M  V30 955 C 86.9788 1.07284 1.70801 0
M  V30 956 C 87.2918 -0.388902 1.91695 0
M  V30 957 O 88.4978 -0.677379 2.62914 0
M  V30 958 C 86.9538 1.87145 3.07416 0
M  V30 959 C 86.5618 3.37707 2.94377 0
M  V30 960 C 88.3058 1.78828 3.84995 0
M  V30 961 C 86.2128 4.09925 4.26281 0
M  V30 962 H 85.1428 0.397854 0.64049 0
M  V30 963 H 87.7938 1.4817 1.0825 0
M  V30 964 H 86.1758 1.39071 3.70777 0
M  V30 965 H 87.3498 3.93335 2.4005 0
M  V30 966 H 85.6648 3.46938 2.30267 0
M  V30 967 H 88.2618 2.30089 4.82662 0
M  V30 968 H 88.6048 0.75284 4.09436 0
M  V30 969 H 89.1378 2.24563 3.28354 0
M  V30 970 H 85.8768 5.13813 4.07033 0
M  V30 971 H 85.3968 3.59083 4.80437 0
M  V30 972 H 87.0758 4.1673 4.94919 0
M  V30 973 N 87.2079 -1.17134 1.05439 0
M  V30 974 C 88.1379 -2.2342 0.678649 0
M  V30 975 C 89.1189 -1.66971 -0.32476 0
M  V30 976 O 90.3039 -1.93149 -0.201802 0
M  V30 977 C 87.4339 -3.47256 0.0552099 0
M  V30 978 C 86.3879 -4.16543 0.98365 0
M  V30 979 C 85.7139 -5.34231 0.223961 0
M  V30 980 C 87.0139 -4.68495 2.3089 0
M  V30 981 H 88.7079 -2.55105 1.56722 0
M  V30 982 H 86.2539 -1.2262 0.754998 0
M  V30 983 H 88.2069 -4.20828 -0.21946 0
M  V30 984 H 86.9309 -3.14846 -0.868319 0
M  V30 985 H 85.5899 -3.44887 1.24293 0
M  V30 986 H 85.2379 -4.98071 -0.702412 0
M  V30 987 H 84.9379 -5.81527 0.842627 0
M  V30 988 H 86.4619 -6.10585 -0.0433671 0
M  V30 989 H 87.8759 -5.33691 2.09396 0
M  V30 990 H 86.2729 -5.26379 2.88176 0
M  V30 991 H 87.3429 -3.85169 2.94572 0
M  V30 992 N 88.686 -0.835752 -1.33615 0
M  V30 993 C 89.616 -0.281739 -2.31794 0
M  V30 994 C 90.597 0.608833 -1.58831 0
M  V30 995 O 91.782 0.533035 -1.86741 0
M  V30 996 C 88.912 0.546612 -3.42971 0
M  V30 997 C 87.866 -0.247904 -4.27281 0
M  V30 998 C 87.192 0.704001 -5.30045 0
M  V30 999 C 88.492 -1.46324 -5.01385 0
M  V30 1000 H 90.186 -1.10206 -2.78379 0
M  V30 1001 H 87.732 -0.531388 -1.33837 0
M  V30 1002 H 89.685 0.944467 -4.1068 0
M  V30 1003 H 88.409 1.40011 -2.95067 0
M  V30 1004 H 87.068 -0.627281 -3.61194 0
M  V30 1005 H 86.716 1.55381 -4.78399 0
M  V30 1006 H 86.416 0.176524 -5.87335 0
M  V30 1007 H 87.94 1.09944 -6.0062 0
M  V30 1008 H 89.354 -1.13871 -5.61877 0
M  V30 1009 H 87.751 -1.92728 -5.6831 0
M  V30 1010 H 88.821 -2.23467 -4.30338 0
M  V30 1011 N 90.1641 1.46063 -0.591896 0
M  V30 1012 C 91.1121 2.32124 0.148739 0
M  V30 1013 C 92.1061 1.45035 0.875286 0
M  V30 1014 O 93.3121 1.61609 0.792632 0
M  V30 1015 H 89.6871 0.749024 0.066832 0
M  V30 1016 H 91.6581 2.92392 -0.595783 0
M  V30 1017 C 90.4071 3.28373 1.1431 0
M  V30 1018 H 89.7301 3.95371 0.59346 0
M  V30 1019 H 91.1701 3.91352 1.63155 0
M  V30 1020 C 89.6291 2.54393 2.20875 0
M  V30 1021 O 90.1591 2.31373 3.28374 0
M  V30 1022 N 88.3651 2.14797 1.95731 0
M  V30 1023 H 87.9121 2.33719 1.08319 0
M  V30 1024 H 87.8701 1.65619 2.67241 0
M  V30 1025 N 91.6422 0.330177 1.54103 0
M  V30 1026 C 92.8702 -0.272179 2.05102 0
M  V30 1027 C 93.2852 -1.45267 1.20595 0
M  V30 1028 O 92.6422 -1.8094 0.238144 0
M  V30 1029 C 92.6932 -0.70023 3.54653 0
M  V30 1030 O 92.4142 0.433301 4.35952 0
M  V30 1031 C 93.9152 -1.3647 4.21771 0
M  V30 1032 H 91.1352 -0.0549159 0.668749 0
M  V30 1033 H 93.6792 0.478285 1.98828 0
M  V30 1034 H 91.8342 -1.40066 3.61193 0
M  V30 1035 H 92.2482 0.0947539 5.24414 0
M  V30 1036 H 93.7222 -1.61509 5.27843 0
M  V30 1037 H 94.1992 -2.31409 3.73292 0
M  V30 1038 H 94.8052 -0.706675 4.19388 0
M  V30 1039 N 93.1203 -1.57491 0.0584922 0
M  V30 1040 C 94.0503 -2.14988 -0.911178 0
M  V30 1041 C 95.0313 -1.07343 -1.31952 0
M  V30 1042 O 96.2163 -1.35318 -1.39294 0
M  V30 1043 C 93.3463 -2.70078 -2.18347 0
M  V30 1044 C 92.3003 -3.82771 -1.91495 0
M  V30 1045 C 91.6263 -4.24408 -3.25241 0
M  V30 1046 C 92.9263 -5.07592 -1.23075 0
M  V30 1047 H 94.6203 -2.96263 -0.432246 0
M  V30 1048 H 92.1663 -1.42512 -0.206469 0
M  V30 1049 H 94.1193 -3.08943 -2.86587 0
M  V30 1050 H 92.8433 -1.86005 -2.68458 0
M  V30 1051 H 91.5023 -3.44389 -1.25664 0
M  V30 1052 H 91.1503 -3.37275 -3.73168 0
M  V30 1053 H 90.8503 -5.00366 -3.08071 0
M  V30 1054 H 92.3743 -4.65879 -3.94701 0
M  V30 1055 H 93.7883 -5.43857 -1.81362 0
M  V30 1056 H 92.1853 -5.88741 -1.16207 0
M  V30 1057 H 93.2553 -4.84454 -0.207847 0
M  V30 1058 N 94.5984 0.214957 -1.56127 0
M  V30 1059 C 95.5614 1.24997 -1.92116 0
M  V30 1060 C 96.5614 1.39467 -0.800344 0
M  V30 1061 O 97.7514 1.37619 -1.06802 0
M  V30 1062 C 94.8834 2.62271 -2.17777 0
M  V30 1063 H 96.0764 0.942875 -2.84693 0
M  V30 1064 H 93.6294 0.455654 -1.49511 0
M  V30 1065 H 94.3644 2.98068 -1.27773 0
M  V30 1066 H 94.1494 2.53143 -2.99434 0
M  V30 1067 H 95.6394 3.36946 -2.46693 0
M  V30 1068 N 96.0765 1.50051 0.48192 0
M  V30 1069 C 97.0065 1.71046 1.58951 0
M  V30 1070 C 97.9875 0.559288 1.60642 0
M  V30 1071 O 99.1725 0.797243 1.77081 0
M  V30 1072 C 96.3025 1.79462 2.97339 0
M  V30 1073 C 95.2565 2.94558 3.10515 0
M  V30 1074 C 94.5825 2.88105 4.50444 0
M  V30 1075 C 95.8825 4.35227 2.88747 0
M  V30 1076 H 97.5765 2.6378 1.41635 0
M  V30 1077 H 95.1225 1.26936 0.679942 0
M  V30 1078 H 97.0755 1.92734 3.74742 0
M  V30 1079 H 95.7995 0.833412 3.15788 0
M  V30 1080 H 94.4585 2.80918 2.35543 0
M  V30 1081 H 94.1065 1.89853 4.65795 0
M  V30 1082 H 93.8065 3.65366 4.60197 0
M  V30 1083 H 95.3305 3.03412 5.29881 0
M  V30 1084 H 96.7445 4.49449 3.55905 0
M  V30 1085 H 95.1415 5.13856 3.09955 0
M  V30 1086 H 96.2115 4.48347 1.84696 0
M  V30 1087 N 97.5546 -0.734337 1.39446 0
M  V30 1088 C 98.8006 -1.49505 1.37913 0
M  V30 1089 C 99.1556 -1.92384 -0.0248416 0
M  V30 1090 O 98.4486 -1.6395 -0.991506 0
M  V30 1091 C 98.6426 -2.74711 2.28623 0
M  V30 1092 C 98.4716 -2.44075 3.777 0
M  V30 1093 C 97.2416 -2.36338 4.46623 0
M  V30 1094 C 99.4396 -2.09574 4.69663 0
M  V30 1095 N 97.4216 -1.9818 5.81032 0
M  V30 1096 C 98.7926 -1.81865 5.92727 0
M  V30 1097 C 100.848 -1.96048 4.57678 0
M  V30 1098 C 99.5506 -1.41992 7.05146 0
M  V30 1099 C 101.577 -1.57579 5.7002 0
M  V30 1100 C 100.939 -1.30754 6.92158 0
M  V30 1101 H 97.0376 -0.545896 0.55993 0
M  V30 1102 H 99.6216 -0.853373 1.75002 0
M  V30 1103 H 97.7926 -3.36657 1.93692 0
M  V30 1104 H 99.5246 -3.40916 2.18078 0
M  V30 1105 H 96.2796 -2.53456 4.00071 0
M  V30 1106 H 96.7036 -1.81691 6.52163 0
M  V30 1107 H 101.346 -2.15455 3.63784 0
M  V30 1108 H 99.0636 -1.21327 7.9894 0
M  V30 1109 H 102.65 -1.47718 5.62735 0
M  V30 1110 H 101.53 -1.01432 7.77612 0
M  V30 1111 N 99.0327 -1.24633 -0.964593 0
M  V30 1112 C 100.279 -1.08949 -1.71049 0
M  V30 1113 C 100.612 0.370302 -1.90637 0
M  V30 1114 O 99.8867 1.27349 -1.47011 0
M  V30 1115 C 100.17 -1.83329 -3.0994 0
M  V30 1116 C 100.023 -3.37077 -2.97824 0
M  V30 1117 C 101.342 -1.60846 -4.09654 0
M  V30 1118 H 98.4607 -0.397178 -0.620821 0
M  V30 1119 H 101.103 -1.5334 -1.12191 0
M  V30 1120 H 99.2527 -1.45597 -3.60186 0
M  V30 1121 H 100.925 -3.84425 -2.5498 0
M  V30 1122 H 99.1677 -3.65298 -2.33965 0
M  V30 1123 H 99.8387 -3.84324 -3.96231 0
M  V30 1124 H 102.315 -1.93674 -3.68279 0
M  V30 1125 H 101.191 -2.1534 -5.04896 0
M  V30 1126 H 101.452 -0.547434 -4.38698 0
M  V30 1127 N 100.511 1.16574 -1.06058 0
M  V30 1128 C 101.758 1.87047 -0.775873 0
M  V30 1129 C 102.086 1.81562 0.697534 0
M  V30 1130 O 101.341 1.22445 1.52662 0
M  V30 1131 C 101.64 3.36195 -1.21275 0
M  V30 1132 C 101.306 3.6188 -2.68986 0
M  V30 1133 C 99.9678 3.68599 -3.09335 0
M  V30 1134 C 102.32 3.72648 -3.64394 0
M  V30 1135 C 99.6478 3.83584 -4.43937 0
M  V30 1136 C 102 3.89154 -4.98741 0
M  V30 1137 C 100.664 3.94114 -5.3873 0
M  V30 1138 H 99.9338 0.684452 -0.283912 0
M  V30 1139 H 102.581 1.37853 -1.32925 0
M  V30 1140 H 100.886 3.87505 -0.578528 0
M  V30 1141 H 102.583 3.89103 -0.969542 0
M  V30 1142 H 99.1728 3.57281 -2.36744 0
M  V30 1143 H 103.357 3.66769 -3.34356 0
M  V30 1144 H 98.6128 3.85677 -4.74409 0
M  V30 1145 H 102.787 3.96427 -5.72554 0
M  V30 1146 H 100.414 4.05478 -6.43033 0
M  V30 1147 N 101.989 0.842826 1.3317 0
M  V30 1148 C 103.235 0.441099 1.97945 0
M  V30 1149 C 103.568 -0.998024 1.66593 0
M  V30 1150 O 102.843 -1.69839 0.947898 0
M  V30 1151 C 103.126 0.666841 3.53872 0
M  V30 1152 C 102.979 2.15352 3.94897 0
M  V30 1153 C 104.298 0.115544 4.39948 0
M  V30 1154 H 101.417 0.161739 0.719034 0
M  V30 1155 H 104.059 1.05907 1.57746 0
M  V30 1156 H 102.209 0.140828 3.88245 0
M  V30 1157 H 103.881 2.7447 3.70761 0
M  V30 1158 H 102.124 2.63653 3.44484 0
M  V30 1159 H 102.795 2.26221 5.03516 0
M  V30 1160 H 105.271 0.565213 4.12243 0
M  V30 1161 H 104.147 0.303152 5.48062 0
M  V30 1162 H 104.408 -0.980935 4.3108 0
M  V30 1163 N 103.467 -1.45747 0.599634 0
M  V30 1164 C 104.417 -2.27538 -0.145107 0
M  V30 1165 C 105.401 -1.3686 -0.846055 0
M  V30 1166 O 106.593 -1.6091 -0.737357 0
M  V30 1167 C 103.722 -3.23569 -1.14708 0
M  V30 1168 C 102.808 -4.21734 -0.447383 0
M  V30 1169 N 103.199 -5.03257 0.506535 0
M  V30 1170 C 101.497 -4.40536 -0.695966 0
M  V30 1171 C 102.198 -5.74426 0.917068 0
M  V30 1172 N 101.174 -5.42966 0.26253 0
M  V30 1173 H 104.976 -2.87965 0.587672 0
M  V30 1174 H 102.49 -1.56803 0.422697 0
M  V30 1175 H 104.487 -3.8089 -1.69495 0
M  V30 1176 H 103.147 -2.64702 -1.8805 0
M  V30 1177 H 104.158 -5.10319 0.882899 0
M  V30 1178 H 100.835 -3.92802 -1.41467 0
M  V30 1179 H 102.225 -6.4995 1.70338 0
M  V30 1180 N 104.945 -0.338344 -1.53925 0
M  V30 1181 C 106.194 0.260732 -2.00008 0
M  V30 1182 C 106.507 1.52073 -1.23017 0
M  V30 1183 O 107.713 2.19672 -1.5955 0
M  V30 1184 C 106.169 0.51515 -3.56194 0
M  V30 1185 C 105.777 -0.728645 -4.42035 0
M  V30 1186 C 107.521 1.07337 -4.10706 0
M  V30 1187 C 105.428 -0.445315 -5.89721 0
M  V30 1188 H 104.358 0.101205 -0.747177 0
M  V30 1189 H 107.009 -0.452866 -1.77824 0
M  V30 1190 H 105.391 1.28932 -3.74423 0
M  V30 1191 H 106.565 -1.50352 -4.35581 0
M  V30 1192 H 104.88 -1.20813 -3.98489 0
M  V30 1193 H 107.477 1.30022 -5.18651 0
M  V30 1194 H 107.82 2.0273 -3.63602 0
M  V30 1195 H 108.353 0.360034 -3.96167 0
M  V30 1196 H 105.092 -1.36883 -6.41049 0
M  V30 1197 H 104.612 0.291569 -5.99091 0
M  V30 1198 H 106.291 -0.0606218 -6.46972 0
M  V30 1199 N 106.423 1.57458 -0.0668435 0
M  V30 1200 C 107.834 1.80776 0.466558 0
M  V30 1201 C 108.185 0.980361 1.69951 0
M  V30 1202 O 107.31 0.201441 2.1546 0
M  V30 1203 C 107.905 3.27881 0.85321 0
M  V30 1204 C 106.464 3.52062 1.3315 0
M  V30 1205 C 105.611 2.75513 0.314264 0
M  V30 1206 H 108.562 1.5598 -0.292588 0
M  V30 1207 H 108.583 3.39659 1.715 0
M  V30 1208 H 108.095 3.88075 -0.0443439 0
M  V30 1209 H 106.196 2.97167 2.24772 0
M  V30 1210 H 106.309 4.60762 1.31285 0
M  V30 1211 H 104.673 2.42123 0.790492 0
M  V30 1212 H 105.456 3.38442 -0.575477 0
M  V30 1213 N 107.901 -0.206675 1.56239 0
M  V30 1214 C 109.126 -0.949474 1.8439 0
M  V30 1215 C 109.551 -1.76549 0.649016 0
M  V30 1216 O 108.909 -1.76782 -0.402231 0
M  V30 1217 C 108.957 -1.83078 3.10668 0
M  V30 1218 O 108.061 -2.9281 2.90407 0
M  V30 1219 H 107.402 -0.268033 0.607499 0
M  V30 1220 H 109.932 -0.215488 2.03462 0
M  V30 1221 H 109.942 -2.2377 3.41161 0
M  V30 1222 H 108.617 -1.23112 3.97261 0
M  V30 1223 H 107.194 -2.55956 2.71184 0
M  V30 1224 N 109.379 -1.50304 -0.473955 0
M  V30 1225 C 110.604 -1.65175 -1.25427 0
M  V30 1226 C 111.029 -0.333673 -1.85117 0
M  V30 1227 O 110.387 0.702114 -1.67153 0
M  V30 1228 C 110.435 -2.74295 -2.34082 0
M  V30 1229 O 109.539 -2.35349 -3.38651 0
M  V30 1230 H 108.88 -0.551944 -0.369126 0
M  V30 1231 H 111.41 -1.96662 -0.564364 0
M  V30 1232 H 111.42 -2.97285 -2.79438 0
M  V30 1233 H 110.095 -3.69959 -1.90008 0
M  V30 1234 H 108.672 -2.22794 -2.99027 0
M  V30 1235 N 110.857 0.726932 -1.39834 0
M  V30 1236 C 112.082 1.52121 -1.40976 0
M  V30 1237 C 112.507 1.88098 -0.00826029 0
M  V30 1238 O 111.865 1.52479 0.980807 0
M  V30 1239 C 111.913 2.78021 -2.29644 0
M  V30 1240 O 111.017 3.74272 -1.73188 0
M  V30 1241 H 110.358 0.45908 -0.479731 0
M  V30 1242 H 112.888 0.896207 -1.83927 0
M  V30 1243 H 112.898 3.26671 -2.44438 0
M  V30 1244 H 111.573 2.51169 -3.31492 0
M  V30 1245 H 110.15 3.33073 -1.6768 0
M  V30 1246 N 112.336 1.25143 0.95797 0
M  V30 1247 C 113.564 1.12424 1.73691 0
M  V30 1248 C 113.979 -0.322304 1.86029 0
M  V30 1249 O 113.336 -1.22186 1.35561 0
M  V30 1250 C 113.387 1.76933 3.15241 0
M  V30 1251 O 113.108 3.15932 3.03511 0
M  V30 1252 C 114.609 1.6995 4.09429 0
M  V30 1253 H 111.829 0.3923 0.544373 0
M  V30 1254 H 114.373 1.6544 1.20207 0
M  V30 1255 H 112.528 1.27895 3.6568 0
M  V30 1256 H 112.942 3.47598 3.9278 0
M  V30 1257 H 114.416 2.19753 5.06372 0
M  V30 1258 H 114.893 0.662619 4.34173 0
M  V30 1259 H 115.499 2.18461 3.64904 0
M  V30 1260 N 113.814 -1.1601 1.06675 0
M  V30 1261 C 115.061 -1.86633 0.785781 0
M  V30 1262 C 115.389 -1.81929 -0.687896 0
M  V30 1263 O 114.644 -1.23253 -1.52011 0
M  V30 1264 C 114.943 -3.35547 1.23057 0
M  V30 1265 C 114.609 -3.60448 2.70902 0
M  V30 1266 C 113.271 -3.66954 3.11285 0
M  V30 1267 C 115.623 -3.7071 3.66365 0
M  V30 1268 C 112.951 -3.81225 4.45965 0
M  V30 1269 C 115.303 -3.86503 5.00797 0
M  V30 1270 C 113.967 -3.91252 5.40813 0
M  V30 1271 H 113.237 -0.682937 0.287538 0
M  V30 1272 H 115.884 -1.37146 1.33654 0
M  V30 1273 H 114.189 -3.87193 0.59907 0
M  V30 1274 H 115.886 -3.88583 0.990163 0
M  V30 1275 H 112.476 -3.56021 2.38636 0
M  V30 1276 H 116.66 -3.64991 3.36296 0
M  V30 1277 H 111.916 -3.83155 4.76447 0
M  V30 1278 H 116.09 -3.93385 5.74649 0
M  V30 1279 H 113.717 -4.02062 6.45174 0
M  V30 1280 N 115.292 -0.849877 -1.32721 0
M  V30 1281 C 116.541 -0.447175 -1.96681 0
M  V30 1282 C 116.854 1.00135 -1.68025 0
M  V30 1283 O 118.06 1.50926 -2.25685 0
M  V30 1284 C 116.516 -0.7487 -3.52026 0
M  V30 1285 C 116.124 -2.21264 -3.89546 0
M  V30 1286 C 117.868 -0.413487 -4.22481 0
M  V30 1287 C 115.775 -2.45763 -5.37917 0
M  V30 1288 H 114.705 -0.163486 -0.736063 0
M  V30 1289 H 117.356 -1.03999 -1.51183 0
M  V30 1290 H 115.738 -0.0853727 -3.95908 0
M  V30 1291 H 116.912 -2.91736 -3.56689 0
M  V30 1292 H 115.227 -2.5119 -3.32103 0
M  V30 1293 H 117.824 -0.574017 -5.3161 0
M  V30 1294 H 118.167 0.644492 -4.11281 0
M  V30 1295 H 118.7 -1.03251 -3.84167 0
M  V30 1296 H 115.439 -3.50168 -5.54132 0
M  V30 1297 H 114.959 -1.79864 -5.72197 0
M  V30 1298 H 116.638 -2.29471 -6.0494 0
M  V30 1299 N 116.77 1.45427 -0.607355 0
M  V30 1300 C 118.019 2.01452 -0.100036 0
M  V30 1301 C 118.332 1.48159 1.27704 0
M  V30 1302 O 119.538 1.96159 1.87707 0
M  V30 1303 C 117.994 3.59672 -0.128158 0
M  V30 1304 C 117.602 4.21962 -1.50507 0
M  V30 1305 C 119.346 4.23262 0.323932 0
M  V30 1306 C 117.253 5.72333 -1.48959 0
M  V30 1307 H 116.183 0.75325 -0.0336299 0
M  V30 1308 H 118.834 1.66901 -0.76265 0
M  V30 1309 H 117.216 3.91411 0.601105 0
M  V30 1310 H 118.39 4.01796 -2.25602 0
M  V30 1311 H 116.705 3.70565 -1.89923 0
M  V30 1312 H 119.302 5.33522 0.354691 0
M  V30 1313 H 119.645 3.93921 1.34656 0
M  V30 1314 H 120.178 3.96239 -0.352056 0
M  V30 1315 H 116.917 6.06373 -2.48981 0
M  V30 1316 H 116.437 5.94691 -0.781214 0
M  V30 1317 H 118.116 6.35525 -1.21313 0
M  V30 1318 N 118.248 0.346503 1.53744 0
M  V30 1319 C 119.478 -0.250047 2.05081 0
M  V30 1320 C 119.886 -1.44529 1.22098 0
M  V30 1321 O 119.229 -1.81992 0.249917 0
M  V30 1322 C 119.291 -0.725934 3.52094 0
M  V30 1323 C 118.955 0.350053 4.55657 0
M  V30 1324 C 119.952 1.19372 5.0601 0
M  V30 1325 C 117.637 0.504827 4.99757 0
M  V30 1326 C 119.631 2.17768 5.99046 0
M  V30 1327 C 117.318 1.49218 5.92602 0
M  V30 1328 C 118.316 2.32706 6.42135 0
M  V30 1329 O 118.004 3.2976 7.33153 0
M  V30 1330 H 117.736 -0.0515469 0.674032 0
M  V30 1331 H 120.29 0.497559 1.99282 0
M  V30 1332 H 118.52 -1.52483 3.55367 0
M  V30 1333 H 120.209 -1.24336 3.86388 0
M  V30 1334 H 120.975 1.08525 4.72702 0
M  V30 1335 H 116.854 -0.135178 4.60802 0
M  V30 1336 H 120.398 2.82971 6.37631 0
M  V30 1337 H 116.295 1.6012 6.25325 0
M  V30 1338 H 117.063 3.25265 7.51096 0
M  V30 1339 N 119.726 -1.57421 0.075193 0
M  V30 1340 C 120.656 -2.15942 -0.888324 0
M  V30 1341 C 121.637 -1.08737 -1.30806 0
M  V30 1342 O 122.822 -1.36787 -1.37851 0
M  V30 1343 C 119.952 -2.72379 -2.1547 0
M  V30 1344 C 118.906 -3.8478 -1.87425 0
M  V30 1345 C 118.232 -4.27834 -3.20721 0
M  V30 1346 C 119.532 -5.08869 -1.17684 0
M  V30 1347 H 121.226 -2.96705 -0.400799 0
M  V30 1348 H 118.772 -1.42723 -0.191342 0
M  V30 1349 H 120.725 -3.11965 -2.83295 0
M  V30 1350 H 119.449 -1.88841 -2.6647 0
M  V30 1351 H 118.108 -3.45703 -1.22004 0
M  V30 1352 H 117.756 -3.41214 -3.6957 0
M  V30 1353 H 117.456 -5.03605 -3.02746 0
M  V30 1354 H 118.98 -4.70039 -3.89738 0
M  V30 1355 H 120.394 -5.4575 -1.75584 0
M  V30 1356 H 118.791 -5.8994 -1.09956 0
M  V30 1357 H 119.861 -4.84648 -0.156453 0
M  V30 1358 N 121.204 0.198386 -1.56346 0
M  V30 1359 C 122.151 1.24589 -1.94284 0
M  V30 1360 C 123.121 1.454 -0.802997 0
M  V30 1361 O 124.306 1.58588 -1.06087 0
M  V30 1362 C 121.446 2.58631 -2.28482 0
M  V30 1363 C 120.559 2.45426 -3.55514 0
M  V30 1364 C 119.694 3.7215 -3.79049 0
M  V30 1365 C 118.733 3.53763 -4.99518 0
M  V30 1366 N 117.87 4.72491 -5.19323 0
M  V30 1367 H 122.71 0.915356 -2.83593 0
M  V30 1368 H 120.247 0.440629 -1.40346 0
M  V30 1369 H 122.205 3.3672 -2.46324 0
M  V30 1370 H 120.835 2.89734 -1.42317 0
M  V30 1371 H 119.887 1.58652 -3.45737 0
M  V30 1372 H 121.199 2.27772 -4.43758 0
M  V30 1373 H 120.353 4.58679 -3.97113 0
M  V30 1374 H 119.092 3.92754 -2.89129 0
M  V30 1375 H 118.097 2.65619 -4.8138 0
M  V30 1376 H 119.322 3.34607 -5.90944 0
M  V30 1377 H 117.268 4.93365 -4.3235 0
M  V30 1378 H 117.185 4.5765 -6.01741 0
M  V30 1379 H 118.453 5.6038 -5.41843 0
M  V30 1380 N 122.682 1.50554 0.465978 0
M  V30 1381 C 123.63 1.70324 1.58406 0
M  V30 1382 C 124.624 0.569139 1.59553 0
M  V30 1383 O 125.83 0.749776 1.63641 0
M  V30 1384 H 122.205 0.537688 0.525734 0
M  V30 1385 H 124.176 2.64104 1.38894 0
M  V30 1386 C 122.925 1.81928 2.96307 0
M  V30 1387 H 122.248 2.68586 2.96144 0
M  V30 1388 H 123.688 1.99784 3.73982 0
M  V30 1389 C 122.147 0.572095 3.32007 0
M  V30 1390 O 122.677 -0.286416 4.00678 0
M  V30 1391 N 120.883 0.424606 2.87481 0
M  V30 1392 H 120.43 1.12427 2.31771 0
M  V30 1393 H 120.388 -0.408697 3.11732 0
M  V30 1394 N 124.16 -0.719506 1.40217 0
M  V30 1395 C 125.388 -1.50864 1.41589 0
M  V30 1396 C 125.803 -1.88794 0.0145275 0
M  V30 1397 O 125.16 -1.55174 -0.960594 0
M  V30 1398 C 125.211 -2.78646 2.30302 0
M  V30 1399 O 124.932 -2.42321 3.64983 0
M  V30 1400 C 126.433 -3.72569 2.40224 0
M  V30 1401 H 123.653 -0.465709 0.48307 0
M  V30 1402 H 126.197 -0.88785 1.84221 0
M  V30 1403 H 124.352 -3.37019 1.91042 0
M  V30 1404 H 124.766 -3.24514 4.12057 0
M  V30 1405 H 126.24 -4.5908 3.06512 0
M  V30 1406 H 126.717 -4.15403 1.42608 0
M  V30 1407 H 127.323 -3.20109 2.80019 0
M  V30 1408 N 125.638 -1.25649 -0.95132 0
M  V30 1409 C 126.568 -1.08808 -2.06599 0
M  V30 1410 C 127.549 0.00382547 -1.701 0
M  V30 1411 O 128.734 -0.166325 -1.93486 0
M  V30 1412 C 125.864 -0.709542 -3.39975 0
M  V30 1413 C 124.818 -1.75206 -3.90496 0
M  V30 1414 C 124.144 -1.22811 -5.20405 0
M  V30 1415 C 125.444 -3.15153 -4.16504 0
M  V30 1416 H 127.138 -2.02048 -2.20946 0
M  V30 1417 H 124.684 -0.972835 -1.06169 0
M  V30 1418 H 126.637 -0.578649 -4.17408 0
M  V30 1419 H 125.361 0.258556 -3.25575 0
M  V30 1420 H 124.02 -1.87145 -3.15234 0
M  V30 1421 H 123.668 -0.250145 -5.02378 0
M  V30 1422 H 123.368 -1.92492 -5.55176 0
M  V30 1423 H 124.892 -1.10968 -6.00432 0
M  V30 1424 H 126.306 -3.06349 -4.84586 0
M  V30 1425 H 124.703 -3.82333 -4.62538 0
M  V30 1426 H 125.773 -3.61966 -3.22658 0
M  V30 1427 N 127.117 1.15442 -1.07289 0
M  V30 1428 C 128.363 1.86489 -0.796846 0
M  V30 1429 C 128.696 1.82078 0.675371 0
M  V30 1430 O 127.971 1.24346 1.4956 0
M  V30 1431 C 128.254 3.35626 -1.30489 0
M  V30 1432 C 128.107 3.48673 -2.84161 0
M  V30 1433 C 129.426 4.30357 -0.920907 0
M  V30 1434 H 126.545 0.677144 -0.290939 0
M  V30 1435 H 129.187 1.35633 -1.33056 0
M  V30 1436 H 127.337 3.79068 -0.850883 0
M  V30 1437 H 129.009 3.14099 -3.37846 0
M  V30 1438 H 127.252 2.90253 -3.22391 0
M  V30 1439 H 127.923 4.53453 -3.14777 0
M  V30 1440 H 130.399 3.94871 -1.3121 0
M  V30 1441 H 129.275 5.33193 -1.30372 0
M  V30 1442 H 129.536 4.4176 0.173226 0
M  V30 1443 N 128.595 0.856903 1.32268 0
M  V30 1444 C 129.558 0.308171 2.27119 0
M  V30 1445 C 130.558 -0.533421 1.51695 0
M  V30 1446 O 131.748 -0.344607 1.70757 0
M  V30 1447 C 128.88 -0.563757 3.36206 0
M  V30 1448 H 130.073 1.14535 2.77167 0
M  V30 1449 H 127.626 0.631421 1.42978 0
M  V30 1450 H 128.361 -1.42266 2.91429 0
M  V30 1451 H 128.146 0.0386749 3.92081 0
M  V30 1452 H 129.636 -0.940386 4.06874 0
M  V30 1453 N 130.073 -1.45103 0.615059 0
M  V30 1454 C 131.35 -1.95549 0.0448276 0
M  V30 1455 C 131.73 -1.55737 -1.4251 0
M  V30 1456 O 131.078 -0.823556 -2.13143 0
M  V30 1457 C 131.288 -3.48098 0.250785 0
M  V30 1458 C 132.636 -4.24384 0.135509 0
M  V30 1459 O 133.66 -3.55738 0.181299 0
M  V30 1460 O 132.519 -5.46493 0.0268878 0
M  V30 1461 H 129.613 -0.8264 -0.0314845 0
M  V30 1462 H 132.159 -1.55232 0.685642 0
M  V30 1463 H 130.931 -3.7007 1.27139 0
M  V30 1464 H 130.554 -3.95323 -0.424937 0
M  V30 1465 N 131.551 -0.354651 -1.53558 0
M  V30 1466 C 132.481 0.489091 -2.2832 0
M  V30 1467 C 133.462 1.09324 -1.30316 0
M  V30 1468 O 134.647 1.11255 -1.59173 0
M  V30 1469 C 131.777 1.63456 -3.0643 0
M  V30 1470 C 130.731 1.1582 -4.12031 0
M  V30 1471 C 130.057 2.39305 -4.7816 0
M  V30 1472 C 131.357 0.250731 -5.21698 0
M  V30 1473 H 133.051 -0.134614 -2.99097 0
M  V30 1474 H 130.597 -0.0661826 -1.43848 0
M  V30 1475 H 132.55 2.23136 -3.57475 0
M  V30 1476 H 131.274 2.28533 -2.33325 0
M  V30 1477 H 129.933 0.584146 -3.61916 0
M  V30 1478 H 129.581 3.02814 -4.01637 0
M  V30 1479 H 129.281 2.08109 -5.49513 0
M  V30 1480 H 130.805 2.99691 -5.31994 0
M  V30 1481 H 132.219 0.754695 -5.68311 0
M  V30 1482 H 130.616 0.0301468 -6.00092 0
M  V30 1483 H 131.686 -0.710125 -4.79672 0
M  V30 1484 N 133.029 1.57378 -0.0835403 0
M  V30 1485 C 134.278 1.93106 0.582498 0
M  V30 1486 C 134.591 0.96651 1.70053 0
M  V30 1487 O 135.797 1.21705 2.42693 0
M  V30 1488 C 134.253 3.43076 1.08751 0
M  V30 1489 C 133.861 4.48 -0.000146404 0
M  V30 1490 C 135.605 3.87785 1.72694 0
M  V30 1491 C 133.512 5.89113 0.519568 0
M  V30 1492 H 132.442 0.720775 0.221358 0
M  V30 1493 H 135.093 1.82821 -0.157675 0
M  V30 1494 H 133.475 3.48474 1.88101 0
M  V30 1495 H 134.649 4.54233 -0.775199 0
M  V30 1496 H 132.964 4.1283 -0.54406 0
M  V30 1497 H 135.561 4.90604 2.1263 0
M  V30 1498 H 135.904 3.25796 2.59158 0
M  V30 1499 H 136.437 3.8504 0.999457 0
M  V30 1500 H 133.176 6.54775 -0.308186 0
M  V30 1501 H 132.696 5.86376 1.26188 0
M  V30 1502 H 134.375 6.39346 0.992237 0
M  V30 1503 N 134.507 -0.190092 1.56449 0
M  V30 1504 C 135.44 -1.26375 1.90012 0
M  V30 1505 C 136.418 -1.43705 0.760765 0
M  V30 1506 O 137.602 -1.59014 1.01226 0
M  V30 1507 C 134.729 -2.62962 2.13468 0
M  V30 1508 C 133.775 -2.62474 3.36169 0
M  V30 1509 S 134.608 -2.13412 4.91137 0
M  V30 1510 C 135.764 -3.51812 5.17667 0
M  V30 1511 H 135.997 -0.977181 2.80782 0
M  V30 1512 H 133.53 -0.393814 1.49293 0
M  V30 1513 H 135.488 -3.41583 2.27664 0
M  V30 1514 H 134.149 -2.88828 1.23439 0
M  V30 1515 H 133.342 -3.62918 3.49723 0
M  V30 1516 H 132.944 -1.91937 3.20992 0
M  V30 1517 H 135.236 -4.47706 5.08494 0
M  V30 1518 H 136.179 -3.43148 6.19399 0
M  V30 1519 H 136.587 -3.46956 4.45288 0
M  V30 1520 N 135.985 -1.50799 -0.457987 0
M  V30 1521 C 137.213 -1.66218 -1.23203 0
M  V30 1522 C 137.628 -0.350894 -1.85511 0
M  V30 1523 O 136.985 0.668546 -1.69814 0
M  V30 1524 C 137.036 -2.76291 -2.33121 0
M  V30 1525 O 136.757 -4.02338 -1.73366 0
M  V30 1526 C 138.258 -3.028 -3.2377 0
M  V30 1527 H 135.478 -0.558361 -0.372121 0
M  V30 1528 H 138.022 -1.97099 -0.545179 0
M  V30 1529 H 136.177 -2.48068 -2.97558 0
M  V30 1530 H 136.591 -4.63312 -2.4585 0
M  V30 1531 H 138.065 -3.8345 -3.97077 0
M  V30 1532 H 138.542 -2.14385 -3.83322 0
M  V30 1533 H 139.148 -3.32604 -2.65056 0
M  V30 1534 N 137.463 0.71206 -1.40597 0
M  V30 1535 C 138.393 1.83889 -1.43899 0
M  V30 1536 C 139.374 1.67442 -0.299504 0
M  V30 1537 O 140.559 1.87421 -0.508624 0
M  V30 1538 C 137.689 3.21877 -1.30431 0
M  V30 1539 C 136.643 3.53002 -2.42019 0
M  V30 1540 C 135.969 4.90172 -2.13626 0
M  V30 1541 C 137.269 3.53643 -3.84362 0
M  V30 1542 H 138.963 1.81383 -2.38203 0
M  V30 1543 H 136.509 0.871237 -1.14654 0
M  V30 1544 H 138.462 4.00404 -1.31357 0
M  V30 1545 H 137.186 3.24968 -0.326049 0
M  V30 1546 H 135.845 2.76818 -2.40349 0
M  V30 1547 H 135.493 4.89869 -1.14182 0
M  V30 1548 H 135.193 5.11962 -2.88389 0
M  V30 1549 H 136.717 5.71028 -2.1624 0
M  V30 1550 H 138.131 4.22203 -3.87837 0
M  V30 1551 H 136.528 3.86961 -4.58673 0
M  V30 1552 H 137.598 2.52954 -4.13693 0
M  V30 1553 N 138.941 1.26152 0.944643 0
M  V30 1554 C 139.874 1.01729 2.04271 0
M  V30 1555 C 140.852 -0.0568101 1.62501 0
M  V30 1556 O 142.036 0.0848987 1.88309 0
M  V30 1557 C 139.163 0.539792 3.34371 0
M  V30 1558 C 138.209 1.60593 3.9511 0
M  V30 1559 S 139.042 3.19392 4.29825 0
M  V30 1560 C 140.198 2.73402 5.63029 0
M  V30 1561 H 140.431 1.94703 2.24673 0
M  V30 1562 H 137.964 1.09793 1.08558 0
M  V30 1563 H 139.922 0.270956 4.09605 0
M  V30 1564 H 138.583 -0.369609 3.11918 0
M  V30 1565 H 137.776 1.22275 4.88943 0
M  V30 1566 H 137.378 1.82596 3.26397 0
M  V30 1567 H 139.67 2.1765 6.41588 0
M  V30 1568 H 140.613 3.65913 6.06229 0
M  V30 1569 H 141.021 2.13077 5.22741 0
M  V30 1570 N 140.419 -1.14872 1.07899 0
M  V30 1571 C 141.349 -2.2193 0.725887 0
M  V30 1572 C 142.33 -1.67622 -0.28927 0
M  V30 1573 O 143.515 -1.93533 -0.160787 0
M  V30 1574 C 140.645 -3.47061 0.128856 0
M  V30 1575 C 139.599 -4.14363 1.07178 0
M  V30 1576 C 138.925 -5.33636 0.337229 0
M  V30 1577 C 140.225 -4.63492 2.40775 0
M  V30 1578 H 141.919 -2.51724 1.62097 0
M  V30 1579 H 139.465 -1.20991 0.780838 0
M  V30 1580 H 141.418 -4.21199 -0.130147 0
M  V30 1581 H 140.142 -3.16617 -0.80134 0
M  V30 1582 H 138.801 -3.42173 1.3158 0
M  V30 1583 H 138.449 -4.99449 -0.596606 0
M  V30 1584 H 138.149 -5.79609 0.965788 0
M  V30 1585 H 139.673 -6.10539 0.0861567 0
M  V30 1586 H 141.087 -5.2913 2.20669 0
M  V30 1587 H 139.484 -5.20148 2.99276 0
M  V30 1588 H 140.554 -3.78834 3.02676 0
M  V30 1589 N 141.898 -0.863906 -1.31812 0
M  V30 1590 C 143.309 -0.52522 -1.7916 0
M  V30 1591 C 143.66 0.957518 -1.71248 0
M  V30 1592 O 142.785 1.74734 -1.27659 0
M  V30 1593 C 143.38 -0.9466 -3.25307 0
M  V30 1594 C 141.939 -0.659668 -3.70574 0
M  V30 1595 C 141.086 -1.14126 -2.52726 0
M  V30 1596 H 144.037 -1.05022 -1.1898 0
M  V30 1597 H 144.058 -0.266766 -3.79564 0
M  V30 1598 H 143.57 -2.02579 -3.31034 0
M  V30 1599 H 141.671 0.408416 -3.70355 0
M  V30 1600 H 141.784 -1.23245 -4.62977 0
M  V30 1601 H 140.148 -0.561216 -2.4844 0
M  V30 1602 H 140.931 -2.22775 -2.61201 0
M  V30 1603 N 143.376 1.44774 -0.622745 0
M  V30 1604 C 144.623 2.02121 -0.1239 0
M  V30 1605 C 144.951 1.48915 1.25118 0
M  V30 1606 O 144.206 0.660045 1.84233 0
M  V30 1607 C 144.505 3.57364 -0.0508323 0
M  V30 1608 C 144.171 4.29787 -1.36358 0
M  V30 1609 C 142.833 4.4929 -1.72314 0
M  V30 1610 C 145.185 4.71062 -2.23048 0
M  V30 1611 C 142.513 5.07325 -2.94682 0
M  V30 1612 C 144.865 5.30452 -3.44679 0
M  V30 1613 C 143.529 5.48175 -3.80868 0
M  V30 1614 H 142.799 0.739612 -0.0453381 0
M  V30 1615 H 145.446 1.73648 -0.807389 0
M  V30 1616 H 143.751 3.85202 0.715991 0
M  V30 1617 H 145.448 3.99456 0.351533 0
M  V30 1618 H 142.038 4.14932 -1.07375 0
M  V30 1619 H 146.222 4.55715 -1.96565 0
M  V30 1620 H 141.478 5.19235 -3.22809 0
M  V30 1621 H 145.652 5.61385 -4.12092 0
M  V30 1622 H 143.279 5.92912 -4.75773 0
M  V30 1623 N 144.854 0.36279 1.53368 0
M  V30 1624 C 145.801 -0.485008 2.25646 0
M  V30 1625 C 146.771 -1.07982 1.2621 0
M  V30 1626 O 147.956 -1.11284 1.54986 0
M  V30 1627 C 145.096 -1.62023 3.04701 0
M  V30 1628 C 144.209 -1.05086 4.19024 0
M  V30 1629 C 143.344 -2.15496 4.85525 0
M  V30 1630 C 142.383 -1.5601 5.91884 0
M  V30 1631 N 141.52 -2.60241 6.52088 0
M  V30 1632 H 146.36 0.137864 2.97681 0
M  V30 1633 H 143.897 0.0798061 1.46883 0
M  V30 1634 H 145.855 -2.28887 3.48807 0
M  V30 1635 H 144.485 -2.2138 2.34927 0
M  V30 1636 H 143.537 -0.27259 3.79422 0
M  V30 1637 H 144.849 -0.575926 4.95464 0
M  V30 1638 H 144.003 -2.90186 5.32801 0
M  V30 1639 H 142.742 -2.66341 4.08551 0
M  V30 1640 H 141.747 -0.798338 5.43973 0
M  V30 1641 H 142.972 -1.05994 6.70777 0
M  V30 1642 H 140.918 -3.10304 5.77968 0
M  V30 1643 H 140.835 -2.17426 7.24059 0
M  V30 1644 H 142.103 -3.34641 7.04014 0
M  V30 1645 N 146.332 -1.57332 0.0918853 0
M  V30 1646 C 147.581 -1.93412 -0.572249 0
M  V30 1647 C 147.894 -0.975515 -1.69538 0
M  V30 1648 O 149.1 -1.22991 -2.42045 0
M  V30 1649 C 147.556 -3.43648 -1.0693 0
M  V30 1650 C 147.164 -4.47994 0.0239049 0
M  V30 1651 C 148.908 -3.88695 -1.70635 0
M  V30 1652 C 146.815 -5.89381 -0.488319 0
M  V30 1653 H 145.745 -0.721939 -0.217532 0
M  V30 1654 H 148.396 -1.82735 0.167369 0
M  V30 1655 H 146.778 -3.49466 -1.8625 0
M  V30 1656 H 147.952 -4.53815 0.799277 0
M  V30 1657 H 146.267 -4.12536 0.565946 0
M  V30 1658 H 148.864 -4.91725 -2.10025 0
M  V30 1659 H 149.207 -3.27166 -2.57426 0
M  V30 1660 H 149.74 -3.85564 -0.979023 0
M  V30 1661 H 146.479 -6.54602 0.342906 0
M  V30 1662 H 145.999 -5.87037 -1.23077 0
M  V30 1663 H 147.678 -6.39863 -0.958317 0
M  V30 1664 N 147.81 0.181792 -1.56548 0
M  V30 1665 C 148.74 1.22765 -1.98623 0
M  V30 1666 C 149.721 1.46747 -0.860189 0
M  V30 1667 O 150.906 1.58259 -1.12551 0
M  V30 1668 C 148.036 2.56894 -2.33715 0
M  V30 1669 C 146.99 2.475 -3.49182 0
M  V30 1670 C 146.316 3.86023 -3.69986 0
M  V30 1671 C 147.616 1.98866 -4.82959 0
M  V30 1672 H 149.31 0.877942 -2.86239 0
M  V30 1673 H 146.856 0.42088 -1.37712 0
M  V30 1674 H 148.809 3.30253 -2.61746 0
M  V30 1675 H 147.533 2.93632 -1.42997 0
M  V30 1676 H 146.192 1.76596 -3.21262 0
M  V30 1677 H 145.84 4.20136 -2.76576 0
M  V30 1678 H 145.54 3.80609 -4.47672 0
M  V30 1679 H 147.064 4.60984 -4.00407 0
M  V30 1680 H 148.478 2.61992 -5.09934 0
M  V30 1681 H 146.875 2.04424 -5.64208 0
M  V30 1682 H 147.945 0.942465 -4.75653 0
M  V30 1683 N 149.288 1.51039 0.449983 0
M  V30 1684 C 150.513 1.6715 1.22783 0
M  V30 1685 C 150.938 0.363081 1.84563 0
M  V30 1686 O 150.296 -0.675433 1.68249 0
M  V30 1687 C 150.344 2.77985 2.29689 0
M  V30 1688 O 149.448 2.40707 3.34864 0
M  V30 1689 H 148.789 0.557746 0.360299 0
M  V30 1690 H 151.319 1.97535 0.533005 0
M  V30 1691 H 151.329 3.01693 2.74673 0
M  V30 1692 H 150.004 3.72935 1.84098 0
M  V30 1693 H 148.581 2.27523 2.95445 0
M  V30 1694 N 150.766 -0.704594 1.40972 0
M  V30 1695 C 152.043 -1.45847 1.30338 0
M  V30 1696 C 152.423 -2.10973 -0.0732344 0
M  V30 1697 O 151.771 -2.00997 -1.08685 0
M  V30 1698 C 151.981 -2.48525 2.45023 0
M  V30 1699 C 153.329 -3.1404 2.8577 0
M  V30 1700 O 154.353 -2.58848 2.44696 0
M  V30 1701 O 153.212 -4.13981 3.56766 0
M  V30 1702 H 150.306 -0.649092 0.512454 0
M  V30 1703 H 152.852 -0.735836 1.52917 0
M  V30 1704 H 151.624 -1.98994 3.36923 0
M  V30 1705 H 151.247 -3.2831 2.24272 0
M  V30 1706 N 152.244 -1.26651 -0.937939 0
M  V30 1707 C 153.469 -1.15279 -1.72411 0
M  V30 1708 C 153.894 0.287866 -1.85884 0
M  V30 1709 O 153.252 1.20855 -1.35143 0
M  V30 1710 C 153.3 -1.83028 -3.10698 0
M  V30 1711 O 152.404 -1.12128 -3.96864 0
M  V30 1712 H 151.745 -0.401504 -0.528858 0
M  V30 1713 H 154.275 -1.67531 -1.1745 0
M  V30 1714 H 154.285 -1.89981 -3.6107 0
M  V30 1715 H 152.96 -2.87833 -3.00208 0
M  V30 1716 H 151.537 -1.13173 -3.55312 0
M  V30 1717 N 153.722 1.14298 -1.08507 0
M  V30 1718 C 154.672 2.17449 -0.685569 0
M  V30 1719 C 155.656 1.58167 0.295315 0
M  V30 1720 O 156.848 1.76675 0.107172 0
M  V30 1721 C 153.977 3.43161 -0.0975318 0
M  V30 1722 C 153.063 4.09471 -1.10426 0
M  V30 1723 N 153.454 4.51089 -2.28806 0
M  V30 1724 C 151.752 4.35976 -0.940258 0
M  V30 1725 C 152.453 5.02654 -2.9277 0
M  V30 1726 N 151.429 4.96927 -2.20374 0
M  V30 1727 H 155.231 2.47369 -1.587 0
M  V30 1728 H 152.745 1.30992 -0.959936 0
M  V30 1729 H 154.742 4.16388 0.20664 0
M  V30 1730 H 153.402 3.14719 0.798872 0
M  V30 1731 H 154.413 4.44097 -2.66455 0
M  V30 1732 H 151.09 4.17386 -0.0977441 0
M  V30 1733 H 152.48 5.44723 -3.93352 0
M  V30 1734 N 155.201 0.870884 1.31352 0
M  V30 1735 C 156.131 0.343096 2.30966 0
M  V30 1736 C 157.112 -0.566507 1.60389 0
M  V30 1737 O 158.297 -0.483336 1.88089 0
M  V30 1738 C 155.427 -0.455487 3.443 0
M  V30 1739 C 154.381 0.361103 4.26474 0
M  V30 1740 C 153.707 -0.563221 5.31725 0
M  V30 1741 C 155.007 1.59566 4.97329 0
M  V30 1742 H 156.701 1.17548 2.75359 0
M  V30 1743 H 154.247 0.566686 1.32381 0
M  V30 1744 H 156.2 -0.83525 4.13039 0
M  V30 1745 H 154.924 -1.32139 2.98675 0
M  V30 1746 H 153.583 0.722825 3.59403 0
M  V30 1747 H 153.231 -1.42643 4.82351 0
M  V30 1748 H 152.931 -0.0207409 5.87596 0
M  V30 1749 H 154.455 -0.939808 6.03324 0
M  V30 1750 H 155.869 1.28728 5.58661 0
M  V30 1751 H 154.266 2.07728 5.63 0
M  V30 1752 H 155.336 2.34798 4.24262 0
M  V30 1753 N 156.679 -1.44442 0.630414 0
M  V30 1754 C 157.642 -2.29107 -0.0652523 0
M  V30 1755 C 158.642 -1.41002 -0.772995 0
M  V30 1756 O 159.832 -1.62881 -0.617692 0
M  V30 1757 C 156.964 -3.22564 -1.10296 0
M  V30 1758 H 158.157 -2.92103 0.679401 0
M  V30 1759 H 155.71 -1.51343 0.390517 0
M  V30 1760 H 156.445 -2.64416 -1.87762 0
M  V30 1761 H 156.23 -3.87491 -0.59941 0
M  V30 1762 H 157.72 -3.86167 -1.5895 0
M  V30 1763 N 158.157 -0.370918 -1.53173 0
M  V30 1764 C 159.568 0.107139 -1.86392 0
M  V30 1765 C 159.919 1.47714 -1.29132 0
M  V30 1766 O 159.044 2.07464 -0.615439 0
M  V30 1767 C 159.639 0.201187 -3.38202 0
M  V30 1768 C 158.198 0.623507 -3.712 0
M  V30 1769 C 157.345 -0.225978 -2.76378 0
M  V30 1770 H 160.296 -0.58951 -1.47345 0
M  V30 1771 H 160.317 1.02377 -3.66468 0
M  V30 1772 H 159.829 -0.796058 -3.79848 0
M  V30 1773 H 157.93 1.62879 -3.35114 0
M  V30 1774 H 158.043 0.394414 -4.77474 0
M  V30 1775 H 156.407 0.305962 -2.52856 0
M  V30 1776 H 157.19 -1.22086 -3.20858 0
M  V30 1777 N 159.635 1.57281 -0.100228 0
M  V30 1778 C 160.881 1.95626 0.556946 0
M  V30 1779 C 161.236 0.981655 1.65473 0
M  V30 1780 O 160.529 0.00849847 1.91598 0
M  V30 1781 C 160.723 3.38305 1.15259 0
M  V30 1782 C 160.552 4.49555 0.114035 0
M  V30 1783 C 159.322 5.0434 -0.311266 0
M  V30 1784 C 161.52 5.10051 -0.659768 0
M  V30 1785 N 159.502 5.99152 -1.33755 0
M  V30 1786 C 160.873 6.00628 -1.53774 0
M  V30 1787 C 162.928 4.92772 -0.712723 0
M  V30 1788 C 161.631 6.7578 -2.46403 0
M  V30 1789 C 163.657 5.6859 -1.62663 0
M  V30 1790 C 163.019 6.58838 -2.49222 0
M  V30 1791 H 159.118 0.7624 0.173982 0
M  V30 1792 H 161.702 1.93829 -0.183988 0
M  V30 1793 H 159.873 3.40786 1.86332 0
M  V30 1794 H 161.605 3.63817 1.77254 0
M  V30 1795 H 158.36 4.73537 0.0774812 0
M  V30 1796 H 158.784 6.5126 -1.84905 0
M  V30 1797 H 163.426 4.22761 -0.0576648 0
M  V30 1798 H 161.144 7.4505 -3.12931 0
M  V30 1799 H 164.73 5.57233 -1.67281 0
M  V30 1800 H 163.61 7.16479 -3.18791 0
M  V30 1801 N 161.113 -0.173488 1.56642 0
M  V30 1802 C 162.045 -1.23935 1.92802 0
M  V30 1803 C 163.058 -1.40589 0.820889 0
M  V30 1804 O 164.247 -1.40631 1.09933 0
M  V30 1805 C 161.347 -2.60837 2.16373 0
M  V30 1806 C 160.52 -2.6551 3.47596 0
M  V30 1807 C 159.579 -3.8376 3.60021 0
M  V30 1808 O 158.605 -3.69859 4.32658 0
M  V30 1809 N 159.807 -5.00127 2.94709 0
M  V30 1810 H 162.572 -0.932236 2.84832 0
M  V30 1811 H 160.133 -0.363268 1.57772 0
M  V30 1812 H 162.125 -3.38407 2.21952 0
M  V30 1813 H 160.695 -2.83948 1.30738 0
M  V30 1814 H 159.915 -1.74052 3.53694 0
M  V30 1815 H 161.203 -2.65641 4.33949 0
M  V30 1816 H 160.601 -5.14322 2.35563 0
M  V30 1817 H 159.158 -5.75567 3.05886 0
M  V30 1818 N 162.591 -1.51276 -0.441967 0
M  V30 1819 C 163.521 -1.752 -1.54361 0
M  V30 1820 C 164.502 -0.601682 -1.59103 0
M  V30 1821 O 165.687 -0.843913 -1.74905 0
M  V30 1822 C 162.817 -1.87282 -2.92477 0
M  V30 1823 C 161.771 -3.02687 -3.02596 0
M  V30 1824 C 161.097 -2.99947 -4.42647 0
M  V30 1825 C 162.397 -4.4273 -2.77106 0
M  V30 1826 H 164.091 -2.67442 -1.34592 0
M  V30 1827 H 161.637 -1.28694 -0.646048 0
M  V30 1828 H 163.59 -2.02602 -3.695 0
M  V30 1829 H 162.314 -0.916844 -3.13467 0
M  V30 1830 H 160.973 -2.87065 -2.28012 0
M  V30 1831 H 160.621 -2.02136 -4.60597 0
M  V30 1832 H 160.321 -3.77439 -4.50348 0
M  V30 1833 H 161.845 -3.17354 -5.2165 0
M  V30 1834 H 163.259 -4.58727 -3.43864 0
M  V30 1835 H 161.656 -5.21893 -2.96222 0
M  V30 1836 H 162.726 -4.53087 -1.72744 0
M  V30 1837 N 164.069 0.697108 -1.41344 0
M  V30 1838 C 165.485 1.00751 -1.2378 0
M  V30 1839 C 165.685 2.01105 -0.126066 0
M  V30 1840 O 164.741 2.47295 0.51004 0
M  V30 1841 C 166.054 1.53359 -2.58653 0
M  V30 1842 C 167.602 1.6525 -2.65822 0
M  V30 1843 C 168.077 2.2126 -4.01009 0
M  V30 1844 N 169.568 2.28622 -4.02847 0
M  V30 1845 C 170.303 2.72984 -5.04249 0
M  V30 1846 N 169.799 3.16962 -6.16041 0
M  V30 1847 N 171.592 2.72534 -4.91611 0
M  V30 1848 H 163.743 0.0322662 -2.12375 0
M  V30 1849 H 166.006 0.0768853 -0.944877 0
M  V30 1850 H 165.712 0.870773 -3.4075 0
M  V30 1851 H 165.586 2.51597 -2.81032 0
M  V30 1852 H 167.973 2.30644 -1.84086 0
M  V30 1853 H 168.054 0.655614 -2.47256 0
M  V30 1854 H 167.698 1.56482 -4.83193 0
M  V30 1855 H 167.628 3.21698 -4.16915 0
M  V30 1856 H 170.119 1.97585 -3.22131 0
M  V30 1857 H 170.432 3.49434 -6.89287 0
M  V30 1858 H 168.777 3.14875 -6.1958 0
M  V30 1859 H 171.968 2.37525 -4.0336 0
M  V30 1860 H 172.141 3.06789 -5.70775 0
M  V30 1861 N 165.547 1.27147 0.931209 0
M  V30 1862 C 166.51 1.09615 2.01289 0
M  V30 1863 C 167.51 0.0412581 1.60747 0
M  V30 1864 O 168.7 0.285545 1.71844 0
M  V30 1865 C 165.832 0.669447 3.34262 0
M  V30 1866 H 167.025 2.05662 2.18273 0
M  V30 1867 H 164.578 1.09885 1.11153 0
M  V30 1868 H 165.313 -0.292572 3.22978 0
M  V30 1869 H 165.098 1.43127 3.65044 0
M  V30 1870 H 166.588 0.568921 4.13706 0
M  V30 1871 N 167.025 -1.13721 1.09112 0
M  V30 1872 C 168.272 -1.84924 0.825192 0
M  V30 1873 C 168.6 -1.83347 -0.649151 0
M  V30 1874 O 167.855 -1.26449 -1.49362 0
M  V30 1875 C 168.154 -3.32861 1.30146 0
M  V30 1876 C 167.82 -3.54621 2.78486 0
M  V30 1877 C 166.482 -3.60268 3.18999 0
M  V30 1878 C 168.834 -3.62855 3.74146 0
M  V30 1879 C 166.162 -3.71679 4.53951 0
M  V30 1880 C 168.514 -3.75793 5.08883 0
M  V30 1881 C 167.178 -3.79692 5.4899 0
M  V30 1882 H 166.448 -0.676684 0.301959 0
M  V30 1883 H 169.095 -1.3428 1.36533 0
M  V30 1884 H 167.4 -3.85835 0.681064 0
M  V30 1885 H 169.097 -3.86395 1.07236 0
M  V30 1886 H 165.687 -3.50879 2.46134 0
M  V30 1887 H 169.871 -3.57775 3.43963 0
M  V30 1888 H 165.127 -3.72963 4.84467 0
M  V30 1889 H 169.301 -3.81107 5.82864 0
M  V30 1890 H 166.928 -3.88287 6.53558 0
M  V30 1891 N 168.503 -0.877838 -1.30888 0
M  V30 1892 C 169.749 -0.493426 -1.96706 0
M  V30 1893 C 170.082 0.953504 -1.6918 0
M  V30 1894 O 169.357 1.67266 -0.992594 0
M  V30 1895 C 169.64 -0.760429 -3.51979 0
M  V30 1896 C 169.493 -2.25747 -3.89048 0
M  V30 1897 C 170.812 -0.232148 -4.39487 0
M  V30 1898 H 167.931 -0.180746 -0.714493 0
M  V30 1899 H 170.573 -1.10052 -1.54882 0
M  V30 1900 H 168.723 -0.243715 -3.87735 0
M  V30 1901 H 170.395 -2.84204 -3.63354 0
M  V30 1902 H 168.638 -2.72694 -3.37373 0
M  V30 1903 H 169.309 -2.39491 -4.97341 0
M  V30 1904 H 171.785 -0.674314 -4.106 0
M  V30 1905 H 170.661 -0.448355 -5.47066 0
M  V30 1906 H 170.922 0.866297 -4.33529 0
M  V30 1907 N 169.982 1.44106 -0.638065 0
M  V30 1908 C 171.222 2.03858 -0.148733 0
M  V30 1909 C 171.586 1.49153 1.20903 0
M  V30 1910 O 172.787 2.00452 1.79088 0
M  V30 1911 C 171.058 3.57117 -0.142314 0
M  V30 1912 S 172.617 4.37897 0.281385 0
M  V30 1913 H 169.435 0.708069 -0.0644912 0
M  V30 1914 H 172.037 1.7639 -0.843009 0
M  V30 1915 H 170.741 3.94436 -1.13349 0
M  V30 1916 H 170.272 3.89205 0.572988 0
M  V30 1917 H 172.287 4.72218 1.52395 0
M  V30 1918 N 171.46 0.379036 1.52974 0
M  V30 1919 C 172.876 0.0285448 1.59574 0
M  V30 1920 C 173.076 -1.45542 1.39355 0
M  V30 1921 O 172.132 -2.2187 1.20541 0
M  V30 1922 C 173.445 0.496535 2.96572 0
M  V30 1923 C 174.993 0.451909 3.0972 0
M  V30 1924 C 175.468 0.895924 4.49152 0
M  V30 1925 N 176.959 0.851522 4.55306 0
M  V30 1926 C 177.694 1.16661 5.61407 0
M  V30 1927 N 177.19 1.55166 6.752 0
M  V30 1928 N 178.983 1.08853 5.51459 0
M  V30 1929 H 171.134 1.34525 1.64367 0
M  V30 1930 H 173.397 0.550733 0.771619 0
M  V30 1931 H 173.103 1.53258 3.16552 0
M  V30 1932 H 172.977 -0.109802 3.7704 0
M  V30 1933 H 175.364 -0.575029 2.89443 0
M  V30 1934 H 175.445 1.09392 2.3123 0
M  V30 1935 H 175.089 1.92104 4.70168 0
M  V30 1936 H 175.019 0.23103 5.26093 0
M  V30 1937 H 177.51 0.568038 3.73606 0
M  V30 1938 H 177.823 1.776 7.52116 0
M  V30 1939 H 176.168 1.59044 6.76557 0
M  V30 1940 H 179.359 0.786803 4.6144 0
M  V30 1941 H 179.532 1.33742 6.34048 0
M  V30 1942 N 172.938 -1.57226 0.108567 0
M  V30 1943 C 174.185 -1.94833 -0.551943 0
M  V30 1944 C 174.513 -0.991204 -1.67348 0
M  V30 1945 O 173.768 -0.0131878 -1.95696 0
M  V30 1946 C 174.067 -3.38911 -1.13463 0
M  V30 1947 C 173.733 -4.50696 -0.135509 0
M  V30 1948 C 172.395 -4.80998 0.139252 0
M  V30 1949 C 174.747 -5.18333 0.545957 0
M  V30 1950 C 172.075 -5.76259 1.10194 0
M  V30 1951 C 174.427 -6.14627 1.49721 0
M  V30 1952 C 173.091 -6.43327 1.78006 0
M  V30 1953 H 172.361 -0.712944 -0.20197 0
M  V30 1954 H 175.008 -1.90582 0.18726 0
M  V30 1955 H 173.313 -3.39805 -1.95037 0
M  V30 1956 H 175.01 -3.65317 -1.65362 0
M  V30 1957 H 171.6 -4.27087 -0.359846 0
M  V30 1958 H 175.784 -4.95087 0.346842 0
M  V30 1959 H 171.04 -5.96804 1.32795 0
M  V30 1960 H 175.214 -6.66126 2.03099 0
M  V30 1961 H 172.841 -7.1695 2.52759 0
M  V30 1962 N 174.416 0.165178 -1.56732 0
M  V30 1963 C 175.641 0.900253 -1.86843 0
M  V30 1964 C 176.066 1.74766 -0.695596 0
M  V30 1965 O 175.424 1.77786 0.35522 0
M  V30 1966 C 175.472 1.74777 -3.15413 0
M  V30 1967 O 174.576 2.85007 -2.98068 0
M  V30 1968 H 173.917 0.251832 -0.614391 0
M  V30 1969 H 176.447 0.161468 -2.03962 0
M  V30 1970 H 176.457 2.14646 -3.46974 0
M  V30 1971 H 175.132 1.12537 -4.00385 0
M  V30 1972 H 173.709 2.48676 -2.77875 0
M  V30 1973 N 175.894 1.51508 0.433938 0
M  V30 1974 C 177.119 1.68443 1.21003 0
M  V30 1975 C 177.544 0.382636 1.84167 0
M  V30 1976 O 176.902 -0.65755 1.68956 0
M  V30 1977 C 176.95 2.80405 2.26727 0
M  V30 1978 O 176.054 2.44245 3.32292 0
M  V30 1979 H 175.395 0.561536 0.354363 0
M  V30 1980 H 177.925 1.9809 0.512024 0
M  V30 1981 H 177.935 3.0459 2.71457 0
M  V30 1982 H 176.61 3.74867 1.80132 0
M  V30 1983 H 175.187 2.30644 2.93015 0
M  V30 1984 N 177.372 -0.689602 1.41712 0
M  V30 1985 C 178.618 -1.45181 1.41599 0
M  V30 1986 C 178.951 -1.94181 0.0270081 0
M  V30 1987 O 178.226 -1.6993 -0.946265 0
M  V30 1988 C 178.509 -2.65945 2.42787 0
M  V30 1989 C 178.362 -2.22672 3.90816 0
M  V30 1990 C 179.681 -3.68149 2.41151 0
M  V30 1991 H 176.8 -0.526576 0.515642 0
M  V30 1992 H 179.442 -0.784947 1.73028 0
M  V30 1993 H 177.592 -3.2284 2.16116 0
M  V30 1994 H 179.264 -1.71058 4.28412 0
M  V30 1995 H 177.507 -1.54394 4.05395 0
M  V30 1996 H 178.178 -3.0935 4.57172 0
M  V30 1997 H 180.654 -3.2094 2.64834 0
M  V30 1998 H 179.53 -4.50248 3.13955 0
M  V30 1999 H 179.791 -4.18259 1.43221 0
M  V30 2000 N 178.85 -1.27639 -0.924453 0
M  V30 2001 C 180.099 -1.13549 -1.66702 0
M  V30 2002 C 180.412 0.317487 -1.93006 0
M  V30 2003 O 181.618 0.579333 -2.65247 0
M  V30 2004 C 180.074 -1.98426 -3.00259 0
M  V30 2005 C 179.682 -3.484 -2.81641 0
M  V30 2006 C 181.426 -1.92993 -3.78092 0
M  V30 2007 C 179.333 -4.25464 -4.10773 0
M  V30 2008 H 178.263 -0.421351 -0.625283 0
M  V30 2009 H 180.914 -1.52085 -1.02676 0
M  V30 2010 H 179.296 -1.52736 -3.6536 0
M  V30 2011 H 180.47 -4.01973 -2.25287 0
M  V30 2012 H 178.785 -3.55245 -2.17232 0
M  V30 2013 H 181.382 -2.47844 -4.7379 0
M  V30 2014 H 181.725 -0.904281 -4.0636 0
M  V30 2015 H 182.258 -2.36595 -3.19793 0
M  V30 2016 H 178.997 -5.28566 -3.87683 0
M  V30 2017 H 178.517 -3.76667 -4.66779 0
M  V30 2018 H 180.196 -4.34812 -4.79111 0
M  V30 2019 N 180.328 1.1314 -1.09713 0
M  V30 2020 C 181.575 1.84484 -0.834987 0
M  V30 2021 C 181.903 1.83689 0.639418 0
M  V30 2022 O 181.158 1.2724 1.4869 0
M  V30 2023 C 181.457 3.32167 -1.3191 0
M  V30 2024 C 181.123 3.53139 -2.80363 0
M  V30 2025 C 179.785 3.58571 -3.20905 0
M  V30 2026 C 182.137 3.60866 -3.76065 0
M  V30 2027 C 179.465 3.69267 -4.55916 0
M  V30 2028 C 181.817 3.73089 -5.10869 0
M  V30 2029 C 180.481 3.76775 -5.50996 0
M  V30 2030 H 179.751 0.675073 -0.305544 0
M  V30 2031 H 182.398 1.33554 -1.37243 0
M  V30 2032 H 180.703 3.85469 -0.701517 0
M  V30 2033 H 182.4 3.85821 -1.09284 0
M  V30 2034 H 178.99 3.49569 -2.47991 0
M  V30 2035 H 183.174 3.55946 -3.45855 0
M  V30 2036 H 178.43 3.70388 -4.86438 0
M  V30 2037 H 182.604 3.78011 -5.84877 0
M  V30 2038 H 180.231 3.84815 -6.55608 0
M  V30 2039 N 181.806 0.884767 1.30421 0
M  V30 2040 C 183.036 0.517293 2.00019 0
M  V30 2041 C 183.444 -0.898632 1.66497 0
M  V30 2042 O 182.787 -1.60245 0.898181 0
M  V30 2043 C 182.849 0.612025 3.54252 0
M  V30 2044 C 182.513 1.99222 4.1129 0
M  V30 2045 C 183.51 2.9616 4.273 0
M  V30 2046 C 181.195 2.29755 4.46674 0
M  V30 2047 C 183.189 4.21764 4.77906 0
M  V30 2048 C 180.876 3.55606 4.96979 0
M  V30 2049 C 181.874 4.51425 5.12547 0
M  V30 2050 O 181.562 5.75043 5.61766 0
M  V30 2051 H 181.294 0.198529 0.64619 0
M  V30 2052 H 183.848 1.1919 1.67281 0
M  V30 2053 H 182.078 -0.119561 3.86515 0
M  V30 2054 H 183.767 0.255859 4.05093 0
M  V30 2055 H 184.533 2.73882 4.00267 0
M  V30 2056 H 180.412 1.55942 4.33824 0
M  V30 2057 H 183.956 4.96561 4.89972 0
M  V30 2058 H 179.853 3.7772 5.23448 0
M  V30 2059 H 180.621 5.77422 5.80109 0
M  V30 2060 N 183.284 -1.43765 0.645699 0
M  V30 2061 C 184.194 -2.34544 -0.0512957 0
M  V30 2062 C 185.21 -1.53455 -0.82022 0
M  V30 2063 O 186.386 -1.86133 -0.769176 0
M  V30 2064 C 183.451 -3.31636 -1.01087 0
M  V30 2065 C 182.512 -4.2863 -0.239712 0
M  V30 2066 C 181.745 -5.21084 -1.15358 0
M  V30 2067 O 181.968 -5.1779 -2.39269 0
M  V30 2068 O 180.902 -5.98593 -0.630038 0
M  V30 2069 H 184.728 -2.95624 0.695718 0
M  V30 2070 H 182.313 -1.43781 0.405882 0
M  V30 2071 H 184.195 -3.9136 -1.56254 0
M  V30 2072 H 182.87 -2.73069 -1.73824 0
M  V30 2073 H 181.777 -3.72408 0.355356 0
M  V30 2074 H 183.11 -4.90157 0.447936 0
M  V30 2075 N 184.763 -0.387143 -1.52771 0
M  V30 2076 C 185.991 0.195869 -2.05971 0
M  V30 2077 C 186.406 1.40691 -1.25903 0
M  V30 2078 O 185.763 1.79931 -0.305134 0
M  V30 2079 C 185.814 0.56812 -3.57008 0
M  V30 2080 O 185.535 -0.594803 -4.34043 0
M  V30 2081 C 187.036 1.20723 -4.26545 0
M  V30 2082 H 184.256 0.0300578 -0.670326 0
M  V30 2083 H 186.8 -0.551749 -1.96916 0
M  V30 2084 H 184.955 1.26564 -3.66143 0
M  V30 2085 H 185.369 -0.289322 -5.23701 0
M  V30 2086 H 186.843 1.41807 -5.33474 0
M  V30 2087 H 187.32 2.17395 -3.81623 0
M  V30 2088 H 187.926 0.550535 -4.21722 0
M  V30 2089 N 186.241 1.57166 -0.116904 0
M  V30 2090 C 187.174 2.10912 0.871291 0
M  V30 2091 C 188.152 1.025 1.26224 0
M  V30 2092 O 189.336 1.3014 1.36366 0
M  V30 2093 C 186.463 2.6041 2.16574 0
M  V30 2094 C 185.509 3.80687 1.92302 0
M  V30 2095 S 186.342 5.23199 1.14119 0
M  V30 2096 C 187.498 5.76064 2.44748 0
M  V30 2097 H 187.731 2.94401 0.414138 0
M  V30 2098 H 185.264 1.54096 0.096829 0
M  V30 2099 H 187.222 2.89583 2.9095 0
M  V30 2100 H 185.883 1.77106 2.59408 0
M  V30 2101 H 185.076 4.13462 2.8821 0
M  V30 2102 H 184.678 3.5212 1.26047 0
M  V30 2103 H 186.97 5.8566 3.406 0
M  V30 2104 H 187.913 6.74184 2.16521 0
M  V30 2105 H 188.321 5.04117 2.54019 0
M  V30 2106 N 187.719 -0.156864 1.56817 0
M  V30 2107 C 188.949 -0.885031 1.86684 0
M  V30 2108 C 189.357 -1.75696 0.701954 0
M  V30 2109 O 188.7 -1.80569 -0.337732 0
M  V30 2110 C 188.762 -1.80092 3.11138 0
M  V30 2111 C 188.426 -1.10714 4.43386 0
M  V30 2112 C 189.423 -0.465714 5.1781 0
M  V30 2113 C 187.108 -1.09959 4.90117 0
M  V30 2114 C 189.102 0.174002 6.37162 0
M  V30 2115 C 186.789 -0.456055 6.09396 0
M  V30 2116 C 187.787 0.179622 6.82764 0
M  V30 2117 O 187.475 0.812975 7.99779 0
M  V30 2118 H 187.207 -0.261813 0.623242 0
M  V30 2119 H 189.761 -0.157383 2.04796 0
M  V30 2120 H 187.991 -2.56926 2.89009 0
M  V30 2121 H 189.68 -2.40018 3.27332 0
M  V30 2122 H 190.446 -0.463427 4.82781 0
M  V30 2123 H 186.325 -1.58378 4.3294 0
M  V30 2124 H 189.869 0.670765 6.94368 0
M  V30 2125 H 185.766 -0.455975 6.43888 0
M  V30 2126 H 186.534 0.71366 8.15383 0
M  V30 2127 N 189.197 -1.51736 -0.425897 0
M  V30 2128 C 190.443 -1.65214 -1.1761 0
M  V30 2129 C 190.776 -0.372778 -1.90589 0
M  V30 2130 O 190.051 0.628139 -1.84078 0
M  V30 2131 C 190.334 -2.86312 -2.18398 0
M  V30 2132 C 190.187 -4.24254 -1.49426 0
M  V30 2133 C 191.506 -3.02925 -3.19256 0
M  V30 2134 H 188.625 -0.601263 -0.426206 0
M  V30 2135 H 191.267 -1.8425 -0.463882 0
M  V30 2136 H 189.417 -2.70213 -2.79137 0
M  V30 2137 H 191.089 -4.52046 -0.919362 0
M  V30 2138 H 189.332 -4.26426 -0.796432 0
M  V30 2139 H 190.003 -5.05001 -2.22885 0
M  V30 2140 H 192.479 -3.1781 -2.68581 0
M  V30 2141 H 191.355 -3.89199 -3.8706 0
M  V30 2142 H 191.616 -2.15497 -3.86023 0
M  V30 2143 N 190.675 0.682077 -1.42076 0
M  V30 2144 C 191.923 1.4393 -1.41876 0
M  V30 2145 C 192.244 1.94971 -0.0335599 0
M  V30 2146 O 191.514 1.72591 0.926773 0
M  V30 2147 H 190.094 0.534085 -0.522267 0
M  V30 2148 H 192.756 0.806427 -1.77434 0
M  V30 2149 H 191.852 2.29588 -2.11414 0
M  V30 2150 N 192.153 1.28127 0.917671 0
M  V30 2151 C 193.402 1.14432 1.66097 0
M  V30 2152 C 193.715 -0.307247 1.93172 0
M  V30 2153 O 194.921 -0.565259 2.65551 0
M  V30 2154 C 193.377 2.00015 2.99202 0
M  V30 2155 C 192.985 3.49889 2.79789 0
M  V30 2156 C 194.729 1.94996 3.77064 0
M  V30 2157 C 192.636 4.27636 4.08511 0
M  V30 2158 H 191.566 0.424662 0.62304 0
M  V30 2159 H 194.217 1.52628 1.01868 0
M  V30 2160 H 192.599 1.54672 3.64544 0
M  V30 2161 H 193.773 4.03162 2.23152 0
M  V30 2162 H 192.088 3.56392 2.15345 0
M  V30 2163 H 194.685 2.50354 4.72469 0
M  V30 2164 H 195.028 0.925819 4.05875 0
M  V30 2165 H 195.561 2.38287 3.18534 0
M  V30 2166 H 192.3 5.30615 3.84874 0
M  V30 2167 H 191.82 3.79137 4.64774 0
M  V30 2168 H 193.499 4.37346 4.76799 0
M  V30 2169 N 193.631 -1.12557 1.10312 0
M  V30 2170 C 194.877 -1.84311 0.846011 0
M  V30 2171 C 195.21 -1.83805 -0.626859 0
M  V30 2172 O 194.485 -1.28268 -1.46211 0
M  V30 2173 C 194.768 -3.32048 1.39341 0
M  V30 2174 C 194.621 -3.41016 2.93305 0
M  V30 2175 C 195.94 -4.27764 1.03468 0
M  V30 2176 H 193.059 -0.669192 0.30879 0
M  V30 2177 H 195.701 -1.32057 1.36605 0
M  V30 2178 H 193.851 -3.76678 0.951087 0
M  V30 2179 H 195.523 -3.05031 3.46055 0
M  V30 2180 H 193.766 -2.81603 3.29973 0
M  V30 2181 H 194.437 -4.44948 3.26689 0
M  V30 2182 H 196.913 -3.91253 1.41633 0
M  V30 2183 H 195.789 -5.29549 1.44463 0
M  V30 2184 H 196.05 -4.42064 -0.0560404 0
M  V30 2185 N 195.109 -0.891671 -1.2995 0
M  V30 2186 C 196.039 -0.379797 -2.30391 0
M  V30 2187 C 197.02 0.540919 -1.6127 0
M  V30 2188 O 198.205 0.453352 -1.88834 0
M  V30 2189 C 195.335 0.400654 -3.44981 0
M  V30 2190 C 194.289 -0.428905 -4.25846 0
M  V30 2191 C 193.615 0.478557 -5.32554 0
M  V30 2192 C 194.915 -1.67458 -4.94727 0
M  V30 2193 H 196.609 -1.21914 -2.73454 0
M  V30 2194 H 194.155 -0.587675 -1.31462 0
M  V30 2195 H 196.108 0.769434 -4.14316 0
M  V30 2196 H 194.832 1.27371 -3.0074 0
M  V30 2197 H 193.491 -0.779911 -3.58208 0
M  V30 2198 H 193.139 1.34951 -4.84559 0
M  V30 2199 H 192.839 -0.0727433 -5.87555 0
M  V30 2200 H 194.363 0.843705 -6.04743 0
M  V30 2201 H 195.777 -1.376 -5.56542 0
M  V30 2202 H 194.174 -2.16659 -5.59624 0
M  V30 2203 H 195.244 -2.41518 -4.20473 0
M  V30 2204 N 196.587 1.43421 -0.653314 0
M  V30 2205 C 197.517 2.33487 0.0246656 0
M  V30 2206 C 198.498 1.49475 0.811863 0
M  V30 2207 O 199.683 1.78139 0.773322 0
M  V30 2208 C 196.813 3.32841 0.99166 0
M  V30 2209 C 195.767 4.26842 0.314568 0
M  V30 2210 C 195.093 5.16236 1.39302 0
M  V30 2211 C 196.393 5.16243 -0.793095 0
M  V30 2212 H 198.087 2.90427 -0.727481 0
M  V30 2213 H 195.633 1.39649 -0.351287 0
M  V30 2214 H 197.586 3.94747 1.47487 0
M  V30 2215 H 196.31 2.74158 1.77497 0
M  V30 2216 H 194.969 3.663 -0.148199 0
M  V30 2217 H 194.617 4.53891 2.16776 0
M  V30 2218 H 194.317 5.79948 0.945223 0
M  V30 2219 H 195.841 5.81015 1.87759 0
M  V30 2220 H 197.255 5.71958 -0.392039 0
M  V30 2221 H 195.652 5.88676 -1.16536 0
M  V30 2222 H 196.722 4.55927 -1.65103 0
M  V30 2223 N 198.065 0.39524 1.52563 0
M  V30 2224 C 199.313 -0.184678 2.01254 0
M  V30 2225 C 199.634 -1.46822 1.28329 0
M  V30 2226 O 198.904 -1.91666 0.405094 0
M  V30 2227 H 197.484 -0.0712355 0.743596 0
M  V30 2228 H 200.146 0.528293 1.87603 0
M  V30 2229 H 199.242 -0.390681 3.09645 0
M  V30 2230 N 199.544 -1.57102 0.125237 0
M  V30 2231 C 200.474 -2.18659 -0.819174 0
M  V30 2232 C 201.455 -1.12843 -1.27281 0
M  V30 2233 O 202.64 -1.41104 -1.33429 0
M  V30 2234 C 199.77 -2.79096 -2.06695 0
M  V30 2235 C 198.724 -3.90548 -1.75088 0
M  V30 2236 C 198.05 -4.37821 -3.06948 0
M  V30 2237 C 199.35 -5.12356 -1.01435 0
M  V30 2238 H 201.044 -2.9783 -0.306202 0
M  V30 2239 H 198.59 -1.4326 -0.145839 0
M  V30 2240 H 200.543 -3.2082 -2.73226 0
M  V30 2241 H 199.267 -1.97223 -2.60328 0
M  V30 2242 H 197.926 -3.49409 -1.10944 0
M  V30 2243 H 197.574 -3.52799 -3.58527 0
M  V30 2244 H 197.274 -5.12982 -2.86571 0
M  V30 2245 H 198.798 -4.822 -3.74587 0
M  V30 2246 H 200.212 -5.5106 -1.58132 0
M  V30 2247 H 198.609 -5.9314 -0.911319 0
M  V30 2248 H 199.679 -4.849 -0.00218681 0
M  V30 2249 N 201.022 0.148545 -1.56898 0
M  V30 2250 C 202.271 0.85984 -1.82454 0
M  V30 2251 C 202.584 1.82406 -0.706229 0
M  V30 2252 O 203.79 2.57938 -0.847349 0
M  V30 2253 C 202.246 1.57967 -3.2338 0
M  V30 2254 C 201.854 0.65794 -4.43142 0
M  V30 2255 C 203.598 2.27784 -3.58211 0
M  V30 2256 C 201.505 1.3793 -5.75091 0
M  V30 2257 H 200.435 0.324834 -0.68044 0
M  V30 2258 H 203.086 0.112588 -1.83154 0
M  V30 2259 H 201.468 2.37249 -3.17063 0
M  V30 2260 H 202.642 -0.0995497 -4.60692 0
M  V30 2261 H 200.957 0.0682643 -4.16344 0
M  V30 2262 H 203.554 2.8239 -4.54048 0
M  V30 2263 H 203.897 3.04204 -2.84193 0
M  V30 2264 H 204.43 1.55421 -3.66182 0
M  V30 2265 H 201.169 0.656982 -6.52199 0
M  V30 2266 H 200.689 2.10954 -5.61479 0
M  V30 2267 H 202.368 1.92063 -6.17835 0
M  V30 2268 N 202.5 1.5196 0.417844 0
M  V30 2269 C 203.463 1.74065 1.49111 0
M  V30 2270 C 204.463 0.610537 1.48758 0
M  V30 2271 O 205.653 0.87832 1.50437 0
M  V30 2272 C 202.785 1.81502 2.88565 0
M  V30 2273 H 203.978 2.69869 1.30807 0
M  V30 2274 H 201.531 1.42244 0.647785 0
M  V30 2275 H 202.266 0.875813 3.1225 0
M  V30 2276 H 202.051 2.63651 2.90225 0
M  V30 2277 H 203.541 2.00376 3.66387 0
M  V30 2278 N 203.978 -0.674533 1.42435 0
M  V30 2279 C 205.225 -1.43459 1.42919 0
M  V30 2280 C 205.553 -1.94446 0.0457312 0
M  V30 2281 O 204.808 -1.7132 -0.94593 0
M  V30 2282 C 205.107 -2.64767 2.40069 0
M  V30 2283 C 204.773 -2.3232 3.86443 0
M  V30 2284 C 203.435 -2.23182 4.26314 0
M  V30 2285 C 205.787 -2.05977 4.78773 0
M  V30 2286 C 203.115 -1.85827 5.56494 0
M  V30 2287 C 205.467 -1.70125 6.09295 0
M  V30 2288 C 204.131 -1.59498 6.48164 0
M  V30 2289 H 203.401 -0.524952 0.522978 0
M  V30 2290 H 206.048 -0.769097 1.75377 0
M  V30 2291 H 204.353 -3.36349 2.00939 0
M  V30 2292 H 206.05 -3.22949 2.37707 0
M  V30 2293 H 202.64 -2.40334 3.54877 0
M  V30 2294 H 206.824 -2.11969 4.48757 0
M  V30 2295 H 202.08 -1.76168 5.8547 0
M  V30 2296 H 206.254 -1.48767 6.80324 0
M  V30 2297 H 203.881 -1.30322 7.48946 0
M  V30 2298 N 205.456 -1.28612 -0.910864 0
M  V30 2299 C 206.733 -1.06632 -1.63979 0
M  V30 2300 C 207.113 0.393351 -2.07403 0
M  V30 2301 O 206.461 1.37999 -1.82122 0
M  V30 2302 C 206.671 -2.0436 -2.8291 0
M  V30 2303 C 208.019 -2.34666 -3.5386 0
M  V30 2304 O 209.043 -2.02467 -2.93062 0
M  V30 2305 O 207.902 -2.89631 -4.63439 0
M  V30 2306 H 204.996 -0.407737 -0.7195 0
M  V30 2307 H 207.542 -1.39942 -0.959914 0
M  V30 2308 H 206.314 -3.02727 -2.47936 0
M  V30 2309 H 205.937 -1.71714 -3.58609 0
M  V30 2310 N 206.934 1.1197 -1.10907 0
M  V30 2311 C 208.35 1.35591 -0.841852 0
M  V30 2312 C 208.55 1.94233 0.536246 0
M  V30 2313 O 207.606 2.1717 1.28816 0
M  V30 2314 C 208.919 2.29284 -1.94549 0
M  V30 2315 C 210.467 2.42862 -1.97451 0
M  V30 2316 C 210.942 3.39873 -3.07002 0
M  V30 2317 N 212.433 3.47433 -3.06341 0
M  V30 2318 C 213.168 4.22421 -3.87748 0
M  V30 2319 N 212.664 5.00432 -4.79103 0
M  V30 2320 N 214.457 4.17876 -3.75946 0
M  V30 2321 H 206.608 0.722664 -1.99728 0
M  V30 2322 H 208.871 0.380635 -0.868229 0
M  V30 2323 H 208.577 1.93378 -2.93765 0
M  V30 2324 H 208.451 3.29452 -1.83688 0
M  V30 2325 H 210.838 2.78046 -0.988645 0
M  V30 2326 H 210.919 1.42566 -2.12388 0
M  V30 2327 H 210.563 3.05417 -4.05811 0
M  V30 2328 H 210.493 4.40011 -2.89306 0
M  V30 2329 H 212.984 2.91784 -2.40147 0
M  V30 2330 H 213.297 5.55002 -5.37766 0
M  V30 2331 H 211.642 4.99612 -4.83128 0
M  V30 2332 H 214.833 3.56016 -3.03924 0
M  V30 2333 H 215.006 4.76061 -4.39624 0
M  V30 2334 N 208.412 0.89855 1.29475 0
M  V30 2335 C 209.659 0.523882 1.95606 0
M  V30 2336 C 209.987 -0.929608 1.70847 0
M  V30 2337 O 209.242 -1.67401 1.01367 0
M  V30 2338 C 209.541 0.761398 3.49195 0
M  V30 2339 C 209.207 2.19207 3.94029 0
M  V30 2340 C 207.869 2.58326 4.05982 0
M  V30 2341 C 210.221 3.12379 4.17216 0
M  V30 2342 C 207.549 3.898 4.38489 0
M  V30 2343 C 209.901 4.43401 4.51197 0
M  V30 2344 C 208.565 4.82394 4.61359 0
M  V30 2345 H 207.835 0.191702 0.715773 0
M  V30 2346 H 210.482 1.13699 1.54094 0
M  V30 2347 H 208.787 0.0653622 3.91745 0
M  V30 2348 H 210.484 0.450904 3.98457 0
M  V30 2349 H 207.074 1.87846 3.85242 0
M  V30 2350 H 211.258 2.83371 4.07449 0
M  V30 2351 H 206.514 4.19734 4.44559 0
M  V30 2352 H 210.688 5.15623 4.68087 0
M  V30 2353 H 208.315 5.84306 4.86303 0
M  V30 2354 N 209.89 -1.43072 0.660911 0
M  V30 2355 C 210.82 -2.33497 -0.0122829 0
M  V30 2356 C 211.801 -1.49903 -0.803925 0
M  V30 2357 O 212.986 -1.78546 -0.763864 0
M  V30 2358 C 210.116 -3.33363 -0.973994 0
M  V30 2359 C 209.07 -4.27003 -0.291928 0
M  V30 2360 C 208.396 -5.16967 -1.36562 0
M  V30 2361 C 209.696 -5.15816 0.820462 0
M  V30 2362 H 211.39 -2.90038 0.742873 0
M  V30 2363 H 208.936 -1.39461 0.358688 0
M  V30 2364 H 210.889 -3.95524 -1.45392 0
M  V30 2365 H 209.613 -2.75095 -1.7604 0
M  V30 2366 H 208.272 -3.66217 0.167623 0
M  V30 2367 H 207.92 -4.55034 -2.14366 0
M  V30 2368 H 207.62 -5.80441 -0.914454 0
M  V30 2369 H 209.144 -5.82003 -1.84675 0
M  V30 2370 H 210.558 -5.71742 0.422366 0
M  V30 2371 H 208.955 -5.8805 1.19656 0
M  V30 2372 H 210.025 -4.55045 1.67518 0
M  V30 2373 N 211.368 -0.403325 -1.52352 0
M  V30 2374 C 212.315 0.425011 -2.26853 0
M  V30 2375 C 213.285 1.04598 -1.29029 0
M  V30 2376 O 214.47 1.07135 -1.57882 0
M  V30 2377 C 211.61 1.53888 -3.08889 0
M  V30 2378 C 210.723 0.939396 -4.21663 0
M  V30 2379 C 209.858 2.02547 -4.91068 0
M  V30 2380 C 208.897 1.40263 -5.95813 0
M  V30 2381 N 208.034 2.4286 -6.58759 0
M  V30 2382 H 212.874 -0.21674 -2.97211 0
M  V30 2383 H 210.411 -0.118722 -1.4662 0
M  V30 2384 H 212.369 2.19558 -3.54753 0
M  V30 2385 H 210.999 2.15074 -2.40714 0
M  V30 2386 H 210.051 0.171898 -3.80011 0
M  V30 2387 H 211.363 0.44436 -4.96817 0
M  V30 2388 H 210.517 2.75958 -5.40308 0
M  V30 2389 H 209.256 2.55415 -4.15469 0
M  V30 2390 H 208.261 0.653833 -5.45898 0
M  V30 2391 H 209.486 0.881719 -6.73352 0
M  V30 2392 H 207.432 2.94871 -5.85992 0
M  V30 2393 H 207.349 1.98152 -7.2957 0
M  V30 2394 H 208.617 3.15858 -7.12639 0
M  V30 2395 N 212.846 1.57033 -0.133567 0
M  V30 2396 C 214.095 1.94861 0.520768 0
M  V30 2397 C 214.408 1.02012 1.66892 0
M  V30 2398 O 215.614 1.29365 2.38699 0
M  V30 2399 C 214.07 3.46362 0.977809 0
M  V30 2400 C 213.678 4.47773 -0.142674 0
M  V30 2401 C 215.422 3.93083 1.60269 0
M  V30 2402 C 213.329 5.90468 0.331883 0
M  V30 2403 H 212.259 0.727453 0.198315 0
M  V30 2404 H 214.91 1.82227 -0.215759 0
M  V30 2405 H 213.292 3.54282 1.7692 0
M  V30 2406 H 214.466 4.51536 -0.919317 0
M  V30 2407 H 212.781 4.10891 -0.675124 0
M  V30 2408 H 215.378 4.97121 1.96914 0
M  V30 2409 H 215.721 3.33876 2.48662 0
M  V30 2410 H 216.254 3.88025 0.876453 0
M  V30 2411 H 212.993 6.53463 -0.516341 0
M  V30 2412 H 212.513 5.90094 1.07469 0
M  V30 2413 H 214.192 6.42179 0.788332 0
M  V30 2414 N 214.325 -0.140222 1.56975 0
M  V30 2415 C 215.574 -0.850152 1.82908 0
M  V30 2416 C 215.887 -1.82028 0.715892 0
M  V30 2417 O 217.093 -2.57485 0.861016 0
M  V30 2418 C 215.549 -1.5625 3.24213 0
M  V30 2419 C 215.157 -0.63443 4.43485 0
M  V30 2420 C 216.901 -2.25881 3.59413 0
M  V30 2421 C 214.808 -1.34879 5.75814 0
M  V30 2422 H 213.738 -0.321221 0.682153 0
M  V30 2423 H 216.389 -0.102874 1.83211 0
M  V30 2424 H 214.771 -2.35565 3.18316 0
M  V30 2425 H 215.945 0.12398 4.60633 0
M  V30 2426 H 214.26 -0.0461836 4.16374 0
M  V30 2427 H 216.857 -2.79978 4.5554 0
M  V30 2428 H 217.2 -3.02693 2.85802 0
M  V30 2429 H 217.733 -1.53477 3.67001 0
M  V30 2430 H 214.472 -0.622385 6.52539 0
M  V30 2431 H 213.992 -2.07974 5.6259 0
M  V30 2432 H 215.671 -1.88784 6.18845 0
M  V30 2433 N 215.803 -1.52179 -0.40978 0
M  V30 2434 C 217.219 -1.40968 -0.74835 0
M  V30 2435 C 217.419 -0.513657 -1.94843 0
M  V30 2436 O 216.475 0.0208026 -2.52491 0
M  V30 2437 C 217.788 -2.83483 -1.0029 0
M  V30 2438 C 219.336 -2.92821 -1.10565 0
M  V30 2439 C 219.811 -4.36303 -1.39296 0
M  V30 2440 N 221.302 -4.39535 -1.46162 0
M  V30 2441 C 222.037 -5.47614 -1.70018 0
M  V30 2442 N 221.533 -6.65812 -1.91483 0
M  V30 2443 N 223.326 -5.35129 -1.72027 0
M  V30 2444 H 215.477 -2.0897 0.380186 0
M  V30 2445 H 217.74 -0.94185 0.107805 0
M  V30 2446 H 217.446 -3.51168 -0.193461 0
M  V30 2447 H 217.32 -3.24487 -1.92323 0
M  V30 2448 H 219.707 -2.25318 -1.90568 0
M  V30 2449 H 219.788 -2.55276 -0.16369 0
M  V30 2450 H 219.432 -5.04366 -0.598109 0
M  V30 2451 H 219.362 -4.71385 -2.34743 0
M  V30 2452 H 221.853 -3.54332 -1.31367 0
M  V30 2453 H 222.166 -7.43964 -2.09134 0
M  V30 2454 H 220.511 -6.68879 -1.88749 0
M  V30 2455 H 223.702 -4.41764 -1.54796 0
M  V30 2456 H 223.875 -6.19433 -1.9028 0
M  V30 2457 N 217.281 0.66697 -1.42791 0
M  V30 2458 C 218.692 1.2478 -1.38877 0
M  V30 2459 C 219.043 1.96012 -0.0859426 0
M  V30 2460 O 218.168 2.00463 0.815081 0
M  V30 2461 C 218.763 2.26938 -2.51564 0
M  V30 2462 C 217.322 2.80529 -2.50959 0
M  V30 2463 C 216.469 1.54965 -2.29959 0
M  V30 2464 H 219.42 0.459853 -1.51892 0
M  V30 2465 H 219.441 3.08834 -2.22265 0
M  V30 2466 H 218.953 1.75065 -3.46372 0
M  V30 2467 H 217.054 3.36502 -1.59991 0
M  V30 2468 H 217.167 3.29012 -3.48265 0
M  V30 2469 H 215.531 1.81817 -1.78366 0
M  V30 2470 H 216.314 1.05047 -3.26833 0
M  V30 2471 N 218.759 1.29093 0.90403 0
M  V30 2472 C 219.689 1.16401 2.02418 0
M  V30 2473 C 220.67 0.0593085 1.69997 0
M  V30 2474 O 221.855 0.238021 1.92736 0
M  V30 2475 C 218.985 0.835233 3.37107 0
M  V30 2476 C 217.939 1.89578 3.83724 0
M  V30 2477 C 217.265 1.42041 5.15489 0
M  V30 2478 C 218.565 3.30394 4.04521 0
M  V30 2479 H 220.259 2.10109 2.13295 0
M  V30 2480 H 217.805 1.01157 1.02486 0
M  V30 2481 H 219.758 0.733169 4.14973 0
M  V30 2482 H 218.482 -0.137543 3.2631 0
M  V30 2483 H 217.141 1.98715 3.08071 0
M  V30 2484 H 216.789 0.436426 5.01103 0
M  V30 2485 H 216.489 2.12964 5.4765 0
M  V30 2486 H 218.013 1.33176 5.959 0
M  V30 2487 H 219.427 3.24123 4.72882 0
M  V30 2488 H 217.824 3.99237 4.48029 0
M  V30 2489 H 218.894 3.73692 3.09002 0
M  V30 2490 N 220.237 -1.11381 1.11499 0
M  V30 2491 C 221.653 -1.35143 0.849031 0
M  V30 2492 C 221.853 -1.94515 -0.525938 0
M  V30 2493 O 220.909 -2.1785 -1.27662 0
M  V30 2494 C 222.222 -2.28249 1.95762 0
M  V30 2495 C 223.77 -2.41812 1.98736 0
M  V30 2496 C 224.245 -3.3824 3.088 0
M  V30 2497 N 225.736 -3.45803 3.08179 0
M  V30 2498 C 226.471 -4.20358 3.89982 0
M  V30 2499 N 225.967 -4.97884 4.8175 0
M  V30 2500 N 227.76 -4.15877 3.78157 0
M  V30 2501 H 219.911 -0.712062 2.00109 0
M  V30 2502 H 222.174 -0.376025 0.870235 0
M  V30 2503 H 221.88 -1.91817 2.94787 0
M  V30 2504 H 221.754 -3.28473 1.85433 0
M  V30 2505 H 224.141 -2.77518 1.00338 0
M  V30 2506 H 224.222 -1.41437 2.13141 0
M  V30 2507 H 223.866 -3.03261 4.07425 0
M  V30 2508 H 223.796 -4.38471 2.91635 0
M  V30 2509 H 226.287 -2.90506 2.41691 0
M  V30 2510 H 226.6 -5.52142 5.40702 0
M  V30 2511 H 224.945 -4.97043 4.85771 0
M  V30 2512 H 228.136 -3.544 3.05808 0
M  V30 2513 H 228.309 -4.73723 4.42143 0
M  V30 2514 N 221.715 -0.905404 -1.28997 0
M  V30 2515 C 222.663 -0.377431 -2.29517 0
M  V30 2516 C 223.657 0.526461 -1.61012 0
M  V30 2517 O 224.863 0.40863 -1.753 0
M  V30 2518 H 221.238 -0.103437 -0.744852 0
M  V30 2519 H 223.209 -1.23848 -2.71485 0
M  V30 2520 C 221.958 0.374833 -3.45674 0
M  V30 2521 H 221.281 -0.311474 -3.98585 0
M  V30 2522 H 222.721 0.70903 -4.1803 0
M  V30 2523 C 221.18 1.57963 -2.97572 0
M  V30 2524 O 221.71 2.67886 -2.99333 0
M  V30 2525 N 219.916 1.42375 -2.53333 0
M  V30 2526 H 219.463 0.529466 -2.521 0
M  V30 2527 H 219.421 2.23117 -2.21509 0
M  V30 2528 N 223.193 1.4272 -0.668489 0
M  V30 2529 C 224.442 2.00846 -0.185389 0
M  V30 2530 C 224.755 1.53442 1.21305 0
M  V30 2531 O 225.961 2.03944 1.79218 0
M  V30 2532 C 224.417 3.58805 -0.280591 0
M  V30 2533 C 224.025 4.15198 -1.68268 0
M  V30 2534 C 225.769 4.24255 0.14412 0
M  V30 2535 C 223.676 5.655 -1.73099 0
M  V30 2536 H 222.606 0.751145 -0.0655475 0
M  V30 2537 H 225.257 1.63516 -0.832752 0
M  V30 2538 H 223.639 3.93608 0.434553 0
M  V30 2539 H 224.813 3.91866 -2.42441 0
M  V30 2540 H 223.128 3.62176 -2.05469 0
M  V30 2541 H 225.725 5.34547 0.128086 0
M  V30 2542 H 226.068 3.99277 1.17827 0
M  V30 2543 H 226.601 3.94389 -0.519798 0
M  V30 2544 H 223.34 5.95268 -2.74475 0
M  V30 2545 H 222.86 5.90842 -1.03274 0
M  V30 2546 H 224.539 6.29808 -1.48158 0
M  V30 2547 N 224.671 0.411399 1.52136 0
M  V30 2548 C 225.918 -0.163645 2.01838 0
M  V30 2549 C 226.246 -1.4495 1.29691 0
M  V30 2550 O 225.501 -1.91725 0.392431 0
M  V30 2551 C 225.8 -0.455872 3.54481 0
M  V30 2552 C 225.466 0.741055 4.44769 0
M  V30 2553 C 224.128 1.06936 4.69167 0
M  V30 2554 C 226.48 1.54075 4.97906 0
M  V30 2555 C 223.808 2.19851 5.43951 0
M  V30 2556 C 226.16 2.66067 5.73926 0
M  V30 2557 C 224.824 2.99381 5.96596 0
M  V30 2558 H 224.094 -0.0598821 0.738576 0
M  V30 2559 H 226.741 0.553283 1.83333 0
M  V30 2560 H 225.046 -1.2544 3.71177 0
M  V30 2561 H 226.743 -0.913802 3.90449 0
M  V30 2562 H 223.333 0.475192 4.25958 0
M  V30 2563 H 227.517 1.30033 4.78963 0
M  V30 2564 H 222.773 2.46006 5.59724 0
M  V30 2565 H 226.947 3.28419 6.14096 0
M  V30 2566 H 224.574 3.86992 6.54325 0
M  V30 2567 N 226.149 -1.5696 0.141893 0
M  V30 2568 C 227.079 -2.19516 -0.795936 0
M  V30 2569 C 228.06 -1.14187 -1.26077 0
M  V30 2570 O 229.245 -1.42511 -1.31925 0
M  V30 2571 C 226.375 -2.81272 -2.03723 0
M  V30 2572 C 225.329 -3.92384 -1.70936 0
M  V30 2573 C 224.655 -4.41052 -3.02287 0
M  V30 2574 C 225.955 -5.13403 -0.959954 0
M  V30 2575 H 227.649 -2.98138 -0.274596 0
M  V30 2576 H 225.195 -1.43406 -0.130636 0
M  V30 2577 H 227.148 -3.237 -2.69808 0
M  V30 2578 H 225.872 -1.99973 -2.58221 0
M  V30 2579 H 224.531 -3.50566 -1.07232 0
M  V30 2580 H 224.179 -3.56582 -3.54765 0
M  V30 2581 H 223.879 -5.15993 -2.81114 0
M  V30 2582 H 225.403 -4.86146 -3.69451 0
M  V30 2583 H 226.817 -5.52706 -1.52279 0
M  V30 2584 H 225.214 -5.94073 -0.848357 0
M  V30 2585 H 226.284 -4.84875 0.0492434 0
M  V30 2586 N 227.627 0.131896 -1.57047 0
M  V30 2587 C 228.574 1.16236 -1.99393 0
M  V30 2588 C 229.544 1.41863 -0.863943 0
M  V30 2589 O 230.729 1.53946 -1.12718 0
M  V30 2590 C 227.869 2.48708 -2.39245 0
M  V30 2591 C 226.982 2.30127 -3.65603 0
M  V30 2592 C 226.117 3.55738 -3.94492 0
M  V30 2593 C 225.156 3.32259 -5.14073 0
M  V30 2594 N 224.293 4.50039 -5.38896 0
M  V30 2595 H 229.133 0.794251 -2.87221 0
M  V30 2596 H 226.67 0.380707 -1.42088 0
M  V30 2597 H 228.628 3.25969 -2.60384 0
M  V30 2598 H 227.258 2.83437 -1.54478 0
M  V30 2599 H 226.31 1.43845 -3.52154 0
M  V30 2600 H 227.622 2.08746 -4.5302 0
M  V30 2601 H 226.776 4.41423 -4.1621 0
M  V30 2602 H 225.515 3.80138 -3.05526 0
M  V30 2603 H 224.52 2.44963 -4.92212 0
M  V30 2604 H 225.745 3.09242 -6.04604 0
M  V30 2605 H 223.691 4.74584 -4.52886 0
M  V30 2606 H 223.608 4.31716 -6.2061 0
M  V30 2607 H 224.876 5.36895 -5.65123 0
M  V30 2608 N 229.106 1.52395 0.401703 0
M  V30 2609 C 230.053 1.76268 1.48991 0
M  V30 2610 C 231.023 0.605386 1.54675 0
M  V30 2611 O 232.208 0.843742 1.7113 0
M  V30 2612 C 229.348 1.92592 2.86361 0
M  V30 2613 C 228.461 3.20259 2.89928 0
M  V30 2614 C 227.596 3.26972 4.18644 0
M  V30 2615 C 226.635 4.48812 4.16214 0
M  V30 2616 N 225.772 4.52877 5.36514 0
M  V30 2617 H 230.612 2.6914 1.27935 0
M  V30 2618 H 228.149 1.33355 0.620871 0
M  V30 2619 H 230.107 2.0004 3.66115 0
M  V30 2620 H 228.737 1.03093 3.05895 0
M  V30 2621 H 227.789 3.21945 2.02621 0
M  V30 2622 H 229.101 4.10056 2.83999 0
M  V30 2623 H 228.255 3.33533 5.06794 0
M  V30 2624 H 226.994 2.35126 4.27278 0
M  V30 2625 H 225.999 4.4239 3.26453 0
M  V30 2626 H 227.224 5.41961 4.09213 0
M  V30 2627 H 225.17 3.63917 5.45802 0
M  V30 2628 H 225.087 5.36529 5.32609 0
M  V30 2629 H 226.355 4.63676 6.26597 0
M  V30 2630 N 230.584 -0.659388 1.43143 0
M  V30 2631 C 231.995 -1.24041 1.39537 0
M  V30 2632 C 232.346 -1.95963 0.0963364 0
M  V30 2633 O 231.471 -2.00892 -0.804438 0
M  V30 2634 C 232.066 -2.25601 2.52764 0
M  V30 2635 C 230.625 -2.79195 2.52443 0
M  V30 2636 C 229.772 -1.53743 2.30778 0
M  V30 2637 H 232.723 -0.451792 1.52133 0
M  V30 2638 H 232.744 -3.07651 2.23899 0
M  V30 2639 H 232.256 -1.73226 3.47296 0
M  V30 2640 H 230.357 -3.35649 1.61773 0
M  V30 2641 H 230.47 -3.2716 3.50004 0
M  V30 2642 H 228.834 -1.80869 1.79328 0
M  V30 2643 H 229.617 -1.03312 3.27386 0
M  V30 2644 N 232.062 -1.29571 -0.897171 0
M  V30 2645 C 233.308 -1.17863 -1.65034 0
M  V30 2646 C 233.641 0.268729 -1.92332 0
M  V30 2647 O 232.916 1.19378 -1.53555 0
M  V30 2648 C 233.199 -1.995 -2.99786 0
M  V30 2649 C 233.052 -3.5239 -2.79538 0
M  V30 2650 C 234.371 -1.82335 -4.00552 0
M  V30 2651 H 231.49 -0.429528 -0.598895 0
M  V30 2652 H 234.132 -1.59072 -1.03905 0
M  V30 2653 H 232.282 -1.64485 -3.51962 0
M  V30 2654 H 233.954 -3.97401 -2.34244 0
M  V30 2655 H 232.197 -3.77187 -2.14273 0
M  V30 2656 H 232.868 -4.04787 -3.75302 0
M  V30 2657 H 235.344 -2.12924 -3.57495 0
M  V30 2658 H 234.22 -2.41801 -4.92771 0
M  V30 2659 H 234.481 -0.779209 -4.35179 0
M  V30 2660 N 233.54 1.10788 -1.12088 0
M  V30 2661 C 234.787 1.82671 -0.873931 0
M  V30 2662 C 235.115 1.85004 0.600311 0
M  V30 2663 O 234.37 1.30365 1.45957 0
M  V30 2664 C 234.669 3.29294 -1.38926 0
M  V30 2665 C 234.335 3.47113 -2.87791 0
M  V30 2666 C 232.997 3.51684 -3.28439 0
M  V30 2667 C 235.349 3.52808 -3.83635 0
M  V30 2668 C 232.677 3.59513 -4.63646 0
M  V30 2669 C 235.029 3.62169 -5.18668 0
M  V30 2670 C 233.693 3.65003 -5.58864 0
M  V30 2671 H 232.963 0.668441 -0.319794 0
M  V30 2672 H 235.61 1.30613 -1.40045 0
M  V30 2673 H 233.915 3.83894 -0.783122 0
M  V30 2674 H 235.612 3.83416 -1.17443 0
M  V30 2675 H 232.202 3.4423 -2.5535 0
M  V30 2676 H 236.386 3.4853 -3.53328 0
M  V30 2677 H 231.642 3.59987 -4.94185 0
M  V30 2678 H 235.816 3.6552 -5.92763 0
M  V30 2679 H 233.443 3.70822 -6.63623 0
M  V30 2680 N 235.018 0.912232 1.28515 0
M  V30 2681 C 235.981 0.404223 2.25607 0
M  V30 2682 C 236.981 -0.468602 1.53821 0
M  V30 2683 O 238.171 -0.271873 1.72065 0
M  V30 2684 C 235.303 -0.420653 3.38295 0
M  V30 2685 H 236.496 1.26188 2.7206 0
M  V30 2686 H 234.049 0.691495 1.40171 0
M  V30 2687 H 234.784 -1.29777 2.97201 0
M  V30 2688 H 234.569 0.204935 3.91564 0
M  V30 2689 H 236.059 -0.766971 4.10496 0
M  V30 2690 N 236.496 -1.42363 0.676048 0
M  V30 2691 C 237.443 -2.308 -0.00150904 0
M  V30 2692 C 238.413 -1.46032 -0.791444 0
M  V30 2693 O 239.598 -1.74861 -0.76344 0
M  V30 2694 C 236.738 -3.31883 -0.945919 0
M  V30 2695 C 235.851 -4.31741 -0.149675 0
M  V30 2696 C 234.986 -5.19898 -1.08995 0
M  V30 2697 C 234.025 -6.11434 -0.285465 0
M  V30 2698 N 233.162 -6.92138 -1.17851 0
M  V30 2699 H 238.002 -2.88187 0.758455 0
M  V30 2700 H 235.539 -1.41952 0.38576 0
M  V30 2701 H 237.497 -3.89019 -1.50731 0
M  V30 2702 H 236.127 -2.76093 -1.6725 0
M  V30 2703 H 235.179 -3.76713 0.528359 0
M  V30 2704 H 236.491 -4.96534 0.474866 0
M  V30 2705 H 235.645 -5.81772 -1.72123 0
M  V30 2706 H 234.384 -4.55284 -1.74837 0
M  V30 2707 H 233.389 -5.48627 0.359018 0
M  V30 2708 H 234.614 -6.78097 0.368883 0
M  V30 2709 H 232.56 -6.30152 -1.82332 0
M  V30 2710 H 232.477 -7.53542 -0.609082 0
M  V30 2711 H 233.745 -7.58499 -1.79722 0
M  V30 2712 N 237.974 -0.419461 -1.51915 0
M  V30 2713 C 239.202 0.152136 -2.0634 0
M  V30 2714 C 239.617 1.37988 -1.28859 0
M  V30 2715 O 238.974 1.79243 -0.343232 0
M  V30 2716 C 239.025 0.492266 -3.58133 0
M  V30 2717 O 238.746 -0.686736 -4.32684 0
M  V30 2718 C 240.247 1.11648 -4.2901 0
M  V30 2719 H 237.467 0.0158325 -0.670813 0
M  V30 2720 H 240.011 -0.593394 -1.95702 0
M  V30 2721 H 238.166 1.18769 -3.68745 0
M  V30 2722 H 238.58 -0.400341 -5.2297 0
M  V30 2723 H 240.054 1.3046 -5.36362 0
M  V30 2724 H 240.531 2.09251 -3.86148 0
M  V30 2725 H 241.137 0.460958 -4.22795 0
M  V30 2726 N 239.452 1.56882 -0.150215 0
M  V30 2727 C 240.698 1.96518 0.500834 0
M  V30 2728 C 241.031 1.03527 1.64304 0
M  V30 2729 O 240.306 0.0782751 1.94342 0
M  V30 2730 C 240.589 3.45822 1.00395 0
M  V30 2731 C 240.442 4.49591 -0.136983 0
M  V30 2732 C 241.761 3.97704 1.88467 0
M  V30 2733 H 238.88 0.714535 0.18058 0
M  V30 2734 H 241.522 1.88577 -0.232091 0
M  V30 2735 H 239.672 3.5272 1.62851 0
M  V30 2736 H 241.344 4.5477 -0.77343 0
M  V30 2737 H 239.587 4.26441 -0.795652 0
M  V30 2738 H 240.258 5.51402 0.256815 0
M  V30 2739 H 242.734 3.93304 1.35834 0
M  V30 2740 H 241.61 5.0263 2.20578 0
M  V30 2741 H 241.871 3.40252 2.82279 0
M  V30 2742 N 240.93 -0.123565 1.57115 0
M  V30 2743 C 242.155 -0.850398 1.89164 0
M  V30 2744 C 242.58 -1.7286 0.741688 0
M  V30 2745 O 241.938 -1.78665 -0.307958 0
M  V30 2746 C 241.986 -1.66353 3.19936 0
M  V30 2747 O 241.09 -2.77004 3.0552 0
M  V30 2748 H 240.431 -0.235454 0.620852 0
M  V30 2749 H 242.961 -0.107335 2.04318 0
M  V30 2750 H 242.971 -2.05372 3.52543 0
M  V30 2751 H 241.646 -1.01881 4.03228 0
M  V30 2752 H 240.223 -2.41221 2.84371 0
M  V30 2753 N 242.408 -1.52605 -0.393616 0
M  V30 2754 C 243.657 -1.66649 -1.13627 0
M  V30 2755 C 243.97 -0.410364 -1.91247 0
M  V30 2756 O 245.176 -0.430854 -2.68059 0
M  V30 2757 C 243.632 -2.9449 -2.06891 0
M  V30 2758 C 243.24 -4.27266 -1.34714 0
M  V30 2759 C 244.984 -3.17899 -2.81319 0
M  V30 2760 C 242.891 -5.46217 -2.26717 0
M  V30 2761 H 241.821 -0.62084 -0.427871 0
M  V30 2762 H 244.472 -1.791 -0.399428 0
M  V30 2763 H 242.854 -2.75774 -2.84191 0
M  V30 2764 H 244.028 -4.56518 -0.626714 0
M  V30 2765 H 242.343 -4.10081 -0.722643 0
M  V30 2766 H 244.94 -4.03949 -3.50328 0
M  V30 2767 H 245.283 -2.32777 -3.45139 0
M  V30 2768 H 245.816 -3.37159 -2.11113 0
M  V30 2769 H 242.555 -6.33733 -1.67521 0
M  V30 2770 H 242.075 -5.21283 -2.96689 0
M  V30 2771 H 243.754 -5.7991 -2.86903 0
M  V30 2772 N 243.887 0.651787 -1.4349 0
M  V30 2773 C 245.134 1.41167 -1.45183 0
M  V30 2774 C 245.462 1.94349 -0.0766601 0
M  V30 2775 O 244.717 1.72804 0.918555 0
M  V30 2776 C 245.016 2.60914 -2.44251 0
M  V30 2777 C 244.682 2.26142 -3.9009 0
M  V30 2778 C 243.344 2.16371 -4.2981 0
M  V30 2779 C 245.696 1.98334 -4.81989 0
M  V30 2780 C 243.024 1.7695 -5.5938 0
M  V30 2781 C 245.376 1.6041 -6.11924 0
M  V30 2782 C 244.04 1.49166 -6.5062 0
M  V30 2783 H 243.31 0.516566 -0.531263 0
M  V30 2784 H 245.957 0.741099 -1.76579 0
M  V30 2785 H 244.262 3.3311 -2.06265 0
M  V30 2786 H 245.959 3.19127 -2.42815 0
M  V30 2787 H 242.549 2.34658 -3.58655 0
M  V30 2788 H 246.733 2.04803 -4.52072 0
M  V30 2789 H 241.989 1.66831 -5.88198 0
M  V30 2790 H 246.163 1.37925 -6.82605 0
M  V30 2791 H 243.79 1.1839 -7.50925 0
M  V30 2792 N 245.365 1.30045 0.890287 0
M  V30 2793 C 246.614 1.17929 1.63633 0
M  V30 2794 C 246.927 -0.266204 1.9378 0
M  V30 2795 O 248.133 -0.508804 2.6669 0
M  V30 2796 C 246.589 2.06317 2.94892 0
M  V30 2797 C 246.197 3.55745 2.72305 0
M  V30 2798 C 247.941 2.0295 3.72843 0
M  V30 2799 C 245.848 4.36205 3.99348 0
M  V30 2800 H 244.778 0.437782 0.613892 0
M  V30 2801 H 247.429 1.54754 0.986075 0
M  V30 2802 H 245.811 1.6237 3.61182 0
M  V30 2803 H 246.985 4.07805 2.1455 0
M  V30 2804 H 245.3 3.6088 2.07737 0
M  V30 2805 H 247.897 2.60319 4.67053 0
M  V30 2806 H 248.24 1.0117 4.0382 0
M  V30 2807 H 248.773 2.4499 3.13408 0
M  V30 2808 H 245.512 5.38659 3.73533 0
M  V30 2809 H 245.032 3.8891 4.56628 0
M  V30 2810 H 246.711 4.47362 4.67415 0
M  V30 2811 N 246.843 -1.10192 1.12674 0
M  V30 2812 C 248.089 -1.82658 0.894847 0
M  V30 2813 C 248.444 -1.83666 -0.573107 0
M  V30 2814 O 247.737 -1.28816 -1.41835 0
M  V30 2815 C 247.931 -3.28552 1.4067 0
M  V30 2816 C 247.76 -3.41756 2.92289 0
M  V30 2817 C 246.53 -3.54021 3.60551 0
M  V30 2818 C 248.728 -3.34949 3.90274 0
M  V30 2819 N 246.71 -3.55827 5.0026 0
M  V30 2820 C 248.081 -3.43531 5.16127 0
M  V30 2821 C 250.136 -3.18565 3.8265 0
M  V30 2822 C 248.839 -3.37416 6.3525 0
M  V30 2823 C 250.865 -3.13772 5.01299 0
M  V30 2824 C 250.227 -3.22938 6.26012 0
M  V30 2825 H 246.326 -0.683044 0.380756 0
M  V30 2826 H 248.91 -1.31752 1.43351 0
M  V30 2827 H 247.081 -3.77946 0.895055 0
M  V30 2828 H 248.813 -3.88991 1.11661 0
M  V30 2829 H 245.568 -3.57135 3.1105 0
M  V30 2830 H 245.992 -3.60335 5.73138 0
M  V30 2831 H 250.634 -3.10354 2.87124 0
M  V30 2832 H 248.352 -3.44391 7.3104 0
M  V30 2833 H 251.938 -3.02242 4.97133 0
M  V30 2834 H 250.818 -3.19235 7.16281 0
M  V30 2835 N 248.321 -0.919034 -1.28029 0
M  V30 2836 C 249.568 -0.554934 -1.94748 0
M  V30 2837 C 249.896 0.90231 -1.72304 0
M  V30 2838 O 249.151 1.65767 -1.04018 0
M  V30 2839 C 249.45 -0.816855 -3.4794 0
M  V30 2840 C 249.116 -2.25448 -3.90492 0
M  V30 2841 C 247.778 -2.64752 -4.01821 0
M  V30 2842 C 250.13 -3.18977 -4.12193 0
M  V30 2843 C 247.458 -3.96727 -4.32232 0
M  V30 2844 C 249.81 -4.50523 -4.44086 0
M  V30 2845 C 248.474 -4.89673 -4.53626 0
M  V30 2846 H 247.744 -0.203065 -0.712633 0
M  V30 2847 H 250.391 -1.16136 -1.52265 0
M  V30 2848 H 248.696 -0.127677 -3.91592 0
M  V30 2849 H 250.393 -0.514238 -3.97689 0
M  V30 2850 H 246.983 -1.93952 -3.82205 0
M  V30 2851 H 251.167 -2.89817 -4.02889 0
M  V30 2852 H 246.423 -4.26754 -4.37825 0
M  V30 2853 H 250.597 -5.23005 -4.59825 0
M  V30 2854 H 248.224 -5.91969 -4.76946 0
M  V30 2855 N 249.799 1.42003 -0.683588 0
M  V30 2856 C 251.046 2.01413 -0.209514 0
M  V30 2857 C 251.374 1.54088 1.1869 0
M  V30 2858 O 250.629 0.737591 1.81268 0
M  V30 2859 C 250.928 3.56827 -0.202357 0
M  V30 2860 C 250.594 4.23617 -1.54464 0
M  V30 2861 C 249.256 4.41577 -1.91215 0
M  V30 2862 C 251.608 4.61178 -2.42826 0
M  V30 2863 C 248.936 4.9437 -3.15935 0
M  V30 2864 C 251.288 5.15355 -3.66867 0
M  V30 2865 C 249.952 5.31528 -4.03776 0
M  V30 2866 H 249.222 0.737023 -0.0766668 0
M  V30 2867 H 251.869 1.70067 -0.880312 0
M  V30 2868 H 250.174 3.87892 0.551969 0
M  V30 2869 H 251.871 4.00588 0.181793 0
M  V30 2870 H 248.461 4.10004 -1.24877 0
M  V30 2871 H 252.645 4.46968 -2.15717 0
M  V30 2872 H 247.901 5.05076 -3.44541 0
M  V30 2873 H 252.075 5.43402 -4.35531 0
M  V30 2874 H 249.702 5.72199 -5.00492 0
M  V30 2875 N 251.277 0.427512 1.51691 0
M  V30 2876 C 252.207 -0.3796 2.30394 0
M  V30 2877 C 253.188 -1.02982 1.35384 0
M  V30 2878 O 254.373 -1.03534 1.643 0
M  V30 2879 C 251.503 -1.48649 3.1388 0
M  V30 2880 C 250.457 -0.960294 4.17088 0
M  V30 2881 C 249.783 -2.16219 4.89033 0
M  V30 2882 C 251.083 -0.00153679 5.223 0
M  V30 2883 H 252.777 0.277164 2.98114 0
M  V30 2884 H 250.323 0.134739 1.43368 0
M  V30 2885 H 252.276 -2.05826 3.67714 0
M  V30 2886 H 251 -2.1714 2.43962 0
M  V30 2887 H 249.659 -0.410806 3.64291 0
M  V30 2888 H 249.307 -2.83307 4.15628 0
M  V30 2889 H 249.007 -1.81654 5.58816 0
M  V30 2890 H 250.531 -2.73968 5.45687 0
M  V30 2891 H 251.945 -0.482687 5.71264 0
M  V30 2892 H 250.342 0.256199 5.99553 0
M  V30 2893 H 251.412 0.938174 4.75738 0
M  V30 2894 N 252.755 -1.56801 0.158532 0
M  V30 2895 C 254.002 -1.9649 -0.489679 0
M  V30 2896 C 254.33 -1.04394 -1.6411 0
M  V30 2897 O 253.585 -0.0754401 -1.95555 0
M  V30 2898 C 253.884 -3.4235 -1.02623 0
M  V30 2899 C 253.55 -4.50899 0.00794526 0
M  V30 2900 C 252.212 -4.80312 0.292207 0
M  V30 2901 C 254.564 -5.16333 0.710584 0
M  V30 2902 C 251.892 -5.72461 1.28472 0
M  V30 2903 C 254.244 -6.09553 1.69199 0
M  V30 2904 C 252.908 -6.37339 1.98383 0
M  V30 2905 H 252.178 -0.719009 -0.179186 0
M  V30 2906 H 254.825 -1.8989 0.247798 0
M  V30 2907 H 253.13 -3.45838 -1.84128 0
M  V30 2908 H 254.827 -3.70393 -1.53656 0
M  V30 2909 H 251.417 -4.28015 -0.22379 0
M  V30 2910 H 255.601 -4.93732 0.504174 0
M  V30 2911 H 250.857 -5.92278 1.51714 0
M  V30 2912 H 255.031 -6.59327 2.24189 0
M  V30 2913 H 252.658 -7.08546 2.7544 0
M  V30 2914 N 254.233 0.115231 -1.57178 0
M  V30 2915 C 255.48 0.822351 -1.8505 0
M  V30 2916 C 255.808 1.79701 -0.744168 0
M  V30 2917 O 255.063 1.93909 0.26414 0
M  V30 2918 C 255.362 1.60324 -3.19423 0
M  V30 2919 C 255.028 0.772536 -4.44233 0
M  V30 2920 C 253.69 0.543468 -4.78121 0
M  V30 2921 C 256.042 0.193746 -5.2084 0
M  V30 2922 C 253.37 -0.274583 -5.86057 0
M  V30 2923 C 255.722 -0.611517 -6.29637 0
M  V30 2924 C 254.386 -0.850867 -6.62055 0
M  V30 2925 H 253.656 0.30092 -0.677147 0
M  V30 2926 H 256.303 0.0845802 -1.91313 0
M  V30 2927 H 254.608 2.41203 -3.08753 0
M  V30 2928 H 256.305 2.1544 -3.38211 0
M  V30 2929 H 252.895 0.96117 -4.17683 0
M  V30 2930 H 257.079 0.357926 -4.95008 0
M  V30 2931 H 252.335 -0.469206 -6.09597 0
M  V30 2932 H 256.509 -1.06697 -6.88178 0
M  V30 2933 H 254.136 -1.48657 -7.45523 0
M  V30 2934 N 255.711 1.52812 0.385517 0
M  V30 2935 C 256.96 1.67249 1.12741 0
M  V30 2936 C 257.273 0.4205 1.91027 0
M  V30 2937 O 258.479 0.445064 2.67827 0
M  V30 2938 C 256.935 2.95583 2.05326 0
M  V30 2939 C 256.543 4.27974 1.32447 0
M  V30 2940 C 258.287 3.19386 2.7963 0
M  V30 2941 C 256.194 5.47412 2.23818 0
M  V30 2942 H 255.124 0.6231 0.424573 0
M  V30 2943 H 257.775 1.79309 0.389924 0
M  V30 2944 H 256.157 2.77277 2.82725 0
M  V30 2945 H 257.331 4.56844 0.602495 0
M  V30 2946 H 255.646 4.10459 0.700885 0
M  V30 2947 H 258.243 4.05801 3.48181 0
M  V30 2948 H 258.586 2.34604 3.43899 0
M  V30 2949 H 259.119 3.38274 2.09322 0
M  V30 2950 H 255.858 6.34612 1.64157 0
M  V30 2951 H 255.378 5.22849 2.93921 0
M  V30 2952 H 257.057 5.81423 2.83824 0
M  V30 2953 N 257.189 -0.644168 1.43834 0
M  V30 2954 C 258.414 -1.43642 1.49605 0
M  V30 2955 C 258.839 -1.8773 0.117913 0
M  V30 2956 O 258.197 -1.57938 -0.890239 0
M  V30 2957 C 258.245 -2.6416 2.45463 0
M  V30 2958 O 257.349 -3.63538 1.94714 0
M  V30 2959 H 256.69 -0.430329 0.50568 0
M  V30 2960 H 259.22 -0.787448 1.8884 0
M  V30 2961 H 259.23 -3.11864 2.63068 0
M  V30 2962 H 257.905 -2.31414 3.45572 0
M  V30 2963 H 256.482 -3.2273 1.86814 0
M  V30 2964 N 258.668 -1.30515 -0.883378 0
M  V30 2965 C 259.598 -1.19607 -2.00541 0
M  V30 2966 C 260.579 -0.086346 -1.69881 0
M  V30 2967 O 261.764 -0.268654 -1.92333 0
M  V30 2968 C 258.894 -0.888758 -3.35736 0
M  V30 2969 C 257.848 -1.95659 -3.8066 0
M  V30 2970 C 257.174 -1.50224 -5.13164 0
M  V30 2971 C 258.474 -3.36788 -3.99213 0
M  V30 2972 H 260.168 -2.13476 -2.09925 0
M  V30 2973 H 257.714 -1.02775 -1.00863 0
M  V30 2974 H 259.667 -0.799094 -4.13754 0
M  V30 2975 H 258.391 0.0856125 -3.26488 0
M  V30 2976 H 257.05 -2.03591 -3.04871 0
M  V30 2977 H 256.698 -0.516092 -5.00345 0
M  V30 2978 H 256.398 -2.2165 -5.44192 0
M  V30 2979 H 257.922 -1.42639 -5.93706 0
M  V30 2980 H 259.336 -3.31605 -4.67665 0
M  V30 2981 H 257.733 -4.06314 -4.41621 0
M  V30 2982 H 258.803 -3.78561 -3.03017 0
M  V30 2983 N 260.146 1.09593 -1.13257 0
M  V30 2984 C 261.557 1.63229 -0.906274 0
M  V30 2985 C 261.908 1.8811 0.557578 0
M  V30 2986 O 261.033 1.62953 1.42391 0
M  V30 2987 C 261.628 2.96535 -1.63867 0
M  V30 2988 C 260.187 3.47003 -1.45828 0
M  V30 2989 C 259.334 2.2145 -1.66898 0
M  V30 2990 H 262.285 0.92978 -1.28611 0
M  V30 2991 H 262.306 3.64411 -1.09476 0
M  V30 2992 H 261.818 2.78394 -2.70404 0
M  V30 2993 H 259.919 3.70272 -0.415848 0
M  V30 2994 H 260.032 4.24551 -2.2202 0
M  V30 2995 H 258.396 2.30022 -1.09371 0
M  V30 2996 H 259.179 2.0583 -2.74752 0
M  V30 2997 N 261.624 0.925811 1.2754 0
M  V30 2998 C 262.572 0.413897 2.28888 0
M  V30 2999 C 263.566 -0.500779 1.61829 0
M  V30 3000 O 264.772 -0.38069 1.75928 0
M  V30 3001 H 261.147 0.115274 0.743112 0
M  V30 3002 H 263.118 1.28151 2.69481 0
M  V30 3003 C 261.867 -0.319792 3.46226 0
M  V30 3004 H 261.19 0.374846 3.98039 0
M  V30 3005 H 262.63 -0.642435 4.19105 0
M  V30 3006 C 261.089 -1.53209 3.00048 0
M  V30 3007 O 261.619 -2.6309 3.03557 0
M  V30 3008 N 259.825 -1.38326 2.55566 0
M  V30 3009 H 259.372 -0.489292 2.5291 0
M  V30 3010 H 259.33 -2.19564 2.25031 0
M  V30 3011 N 263.102 -1.41638 0.69111 0
M  V30 3012 C 264.33 -2.05628 0.22909 0
M  V30 3013 C 264.745 -1.51992 -1.11999 0
M  V30 3014 O 264.102 -0.666322 -1.69901 0
M  V30 3015 C 264.153 -3.61084 0.173283 0
M  V30 3016 O 263.874 -4.12735 1.46907 0
M  V30 3017 C 265.375 -4.42213 -0.310266 0
M  V30 3018 H 262.595 -0.662327 0.107534 0
M  V30 3019 H 265.139 -1.81489 0.942438 0
M  V30 3020 H 263.294 -3.84278 -0.490858 0
M  V30 3021 H 263.708 -5.06743 1.35322 0
M  V30 3022 H 265.182 -5.51194 -0.298196 0
M  V30 3023 H 265.659 -4.1799 -1.34838 0
M  V30 3024 H 266.265 -4.24074 0.322716 0
M  V30 3025 N 264.58 -0.43555 -1.51462 0
M  V30 3026 C 265.829 0.133007 -2.01261 0
M  V30 3027 C 266.142 1.43942 -1.32439 0
M  V30 3028 O 267.348 2.09081 -1.73198 0
M  V30 3029 C 265.804 0.287581 -3.58749 0
M  V30 3030 C 265.412 -1.00829 -4.36506 0
M  V30 3031 C 267.156 0.810004 -4.167 0
M  V30 3032 C 265.063 -0.819454 -5.85695 0
M  V30 3033 H 263.993 0.0534822 -0.752101 0
M  V30 3034 H 266.644 -0.565038 -1.74584 0
M  V30 3035 H 265.026 1.04859 -3.81865 0
M  V30 3036 H 266.2 -1.77749 -4.25138 0
M  V30 3037 H 264.515 -1.45911 -3.89999 0
M  V30 3038 H 267.112 0.967743 -5.2587 0
M  V30 3039 H 267.455 1.79196 -3.75758 0
M  V30 3040 H 267.988 0.107357 -3.97655 0
M  V30 3041 H 264.727 -1.77374 -6.31046 0
M  V30 3042 H 264.247 -0.0900208 -5.99732 0
M  V30 3043 H 265.926 -0.471949 -6.45276 0
M  V30 3044 N 266.058 1.56714 -0.166846 0
M  V30 3045 C 266.988 2.20754 0.760913 0
M  V30 3046 C 267.969 1.16178 1.24244 0
M  V30 3047 O 269.154 1.44592 1.29641 0
M  V30 3048 C 266.284 2.84478 1.99223 0
M  V30 3049 C 265.238 3.95053 1.64672 0
M  V30 3050 C 264.564 4.45805 2.95232 0
M  V30 3051 C 265.864 5.14865 0.878155 0
M  V30 3052 H 267.558 2.98537 0.22713 0
M  V30 3053 H 265.104 1.43596 0.107805 0
M  V30 3054 H 267.057 3.27951 2.64624 0
M  V30 3055 H 265.781 2.04056 2.55007 0
M  V30 3056 H 264.44 3.52228 1.01641 0
M  V30 3057 H 264.088 3.62181 3.49047 0
M  V30 3058 H 263.788 5.204 2.7287 0
M  V30 3059 H 265.312 4.91962 3.6167 0
M  V30 3060 H 266.726 5.55059 1.43466 0
M  V30 3061 H 265.123 5.95348 0.753738 0
M  V30 3062 H 266.193 4.84735 -0.126377 0
M  V30 3063 N 267.536 -0.106894 1.57237 0
M  V30 3064 C 268.761 -0.830287 1.90055 0
M  V30 3065 C 269.186 -1.72064 0.75998 0
M  V30 3066 O 268.544 -1.78982 -0.288991 0
M  V30 3067 C 268.592 -1.6295 3.21683 0
M  V30 3068 O 267.696 -2.73748 3.08441 0
M  V30 3069 H 267.037 -0.228855 0.623315 0
M  V30 3070 H 269.567 -0.085658 2.04421 0
M  V30 3071 H 269.577 -2.01621 3.54701 0
M  V30 3072 H 268.252 -0.975989 4.04286 0
M  V30 3073 H 266.829 -2.38192 2.86913 0
M  V30 3074 N 269.014 -1.53014 -0.377408 0
M  V30 3075 C 269.962 -1.7927 -1.48206 0
M  V30 3076 C 270.956 -0.661195 -1.55963 0
M  V30 3077 O 272.162 -0.843908 -1.58991 0
M  V30 3078 H 268.537 -0.567425 -0.493491 0
M  V30 3079 H 270.508 -2.71753 -1.2326 0
M  V30 3080 C 269.257 -1.98894 -2.85196 0
M  V30 3081 H 268.58 -2.85395 -2.79981 0
M  V30 3082 H 270.02 -2.21249 -3.61698 0
M  V30 3083 C 268.479 -0.764691 -3.28107 0
M  V30 3084 O 269.009 0.0523226 -4.01666 0
M  V30 3085 N 267.215 -0.591493 -2.84517 0
M  V30 3086 H 266.762 -1.25749 -2.24822 0
M  V30 3087 H 266.72 0.226253 -3.13585 0
M  V30 3088 N 270.492 0.636531 -1.44174 0
M  V30 3089 C 271.439 1.74875 -1.50624 0
M  V30 3090 C 272.409 1.62275 -0.35442 0
M  V30 3091 O 273.594 1.82276 -0.563908 0
M  V30 3092 C 270.734 3.13102 -1.45125 0
M  V30 3093 C 269.847 3.36717 -2.7064 0
M  V30 3094 C 268.982 4.64885 -2.57013 0
M  V30 3095 C 268.021 4.8166 -3.77717 0
M  V30 3096 N 267.158 6.01101 -3.62798 0
M  V30 3097 H 271.998 1.68697 -2.45653 0
M  V30 3098 H 269.535 0.823004 -1.21922 0
M  V30 3099 H 271.493 3.93034 -1.39929 0
M  V30 3100 H 270.123 3.18308 -0.536671 0
M  V30 3101 H 269.175 2.50763 -2.86046 0
M  V30 3102 H 270.487 3.44993 -3.60252 0
M  V30 3103 H 269.641 5.52969 -2.49619 0
M  V30 3104 H 268.38 4.58957 -1.64953 0
M  V30 3105 H 267.385 3.92007 -3.85501 0
M  V30 3106 H 268.61 4.89406 -4.70807 0
M  V30 3107 H 266.556 5.96273 -2.73486 0
M  V30 3108 H 266.473 6.10409 -4.46023 0
M  V30 3109 H 267.741 6.91761 -3.59286 0
M  V30 3110 N 271.97 1.30982 0.876444 0
M  V30 3111 C 272.88 1.2003 2.01569 0
M  V30 3112 C 273.896 0.11838 1.73597 0
M  V30 3113 O 275.072 0.33495 1.98595 0
M  V30 3114 C 272.137 0.901637 3.34771 0
M  V30 3115 C 271.198 2.06979 3.76109 0
M  V30 3116 C 270.431 1.78529 5.02954 0
M  V30 3117 O 270.654 0.717296 5.65872 0
M  V30 3118 O 269.588 2.64019 5.40905 0
M  V30 3119 H 273.414 2.15753 2.13739 0
M  V30 3120 H 270.999 1.10658 1.00375 0
M  V30 3121 H 272.881 0.750645 4.1466 0
M  V30 3122 H 271.556 -0.0256141 3.2369 0
M  V30 3123 H 270.463 2.27616 2.96887 0
M  V30 3124 H 271.796 2.97907 3.91807 0
M  V30 3125 N 273.449 -1.08991 1.13837 0
M  V30 3126 C 274.412 -2.13925 0.822715 0
M  V30 3127 C 275.412 -1.599 -0.1699 0
M  V30 3128 O 276.602 -1.74104 0.0577251 0
M  V30 3129 C 273.734 -3.40155 0.225318 0
M  V30 3130 H 274.927 -2.43358 1.75262 0
M  V30 3131 H 272.48 -1.24603 0.943594 0
M  V30 3132 H 273.215 -3.16352 -0.713594 0
M  V30 3133 H 273 -3.80661 0.940193 0
M  V30 3134 H 274.49 -4.17594 0.0214784 0
M  V30 3135 N 274.927 -0.932562 -1.27047 0
M  V30 3136 C 276.155 -0.592031 -1.98249 0
M  V30 3137 C 276.57 0.831062 -1.69525 0
M  V30 3138 O 275.927 1.55299 -0.958561 0
M  V30 3139 C 275.978 -0.814279 -3.5221 0
M  V30 3140 O 275.699 -2.18139 -3.7993 0
M  V30 3141 C 277.2 -0.483121 -4.4066 0
M  V30 3142 H 274.42 -0.223896 -0.632544 0
M  V30 3143 H 276.964 -1.25091 -1.61779 0
M  V30 3144 H 275.119 -0.20213 -3.86872 0
M  V30 3145 H 275.533 -2.235 -4.74498 0
M  V30 3146 H 277.007 -0.689298 -5.47679 0
M  V30 3147 H 277.484 0.581546 -4.35333 0
M  V30 3148 H 278.09 -1.07362 -4.11526 0
M  V30 3149 N 276.405 1.4127 -0.698611 0
M  V30 3150 C 277.816 1.84187 -0.305289 0
M  V30 3151 C 278.167 1.58449 1.15708 0
M  V30 3152 O 277.292 1.05651 1.88856 0
M  V30 3153 C 277.887 3.3435 -0.547314 0
M  V30 3154 C 276.446 3.75826 -0.207878 0
M  V30 3155 C 275.593 2.64647 -0.828099 0
M  V30 3156 H 278.544 1.30778 -0.89904 0
M  V30 3157 H 278.565 3.8001 0.192998 0
M  V30 3158 H 278.077 3.53051 -1.61172 0
M  V30 3159 H 276.178 3.62725 0.852143 0
M  V30 3160 H 276.291 4.74462 -0.665021 0
M  V30 3161 H 274.655 2.53395 -0.257458 0
M  V30 3162 H 275.438 2.86165 -1.89643 0
M  V30 3163 N 277.883 0.443576 1.51229 0
M  V30 3164 C 279.108 -0.121648 2.07043 0
M  V30 3165 C 279.533 -1.35156 1.30823 0
M  V30 3166 O 278.891 -1.7793 0.347934 0
M  V30 3167 C 278.939 -0.41624 3.5819 0
M  V30 3168 O 278.043 -1.50163 3.8409 0
M  V30 3169 H 277.384 0.000871367 0.663999 0
M  V30 3170 H 279.914 0.626706 1.94765 0
M  V30 3171 H 279.924 -0.664867 4.02546 0
M  V30 3172 H 278.599 0.482653 4.1309 0
M  V30 3173 H 277.176 -1.24248 3.51592 0
M  V30 3174 N 279.361 -1.56624 0.175154 0
M  V30 3175 C 280.586 -2.01813 -0.478137 0
M  V30 3176 C 281.011 -1.05457 -1.55757 0
M  V30 3177 O 280.369 -0.0347439 -1.81267 0
M  V30 3178 C 280.417 -3.45581 -1.02987 0
M  V30 3179 O 279.521 -3.52305 -2.14371 0
M  V30 3180 H 278.862 -0.65413 -0.114059 0
M  V30 3181 H 281.392 -2.02673 0.280173 0
M  V30 3182 H 281.402 -3.84965 -1.35151 0
M  V30 3183 H 280.077 -4.1521 -0.239556 0
M  V30 3184 H 278.654 -3.24783 -1.83222 0
M  V30 3185 N 280.839 0.0985539 -1.57292 0
M  V30 3186 C 282.085 0.803867 -1.86188 0
M  V30 3187 C 282.418 1.78549 -0.763794 0
M  V30 3188 O 281.693 1.93153 0.22855 0
M  V30 3189 C 281.976 1.53568 -3.25713 0
M  V30 3190 C 281.829 0.572277 -4.46145 0
M  V30 3191 C 283.148 2.48708 -3.63087 0
M  V30 3192 H 280.267 0.290781 -0.677211 0
M  V30 3193 H 282.909 0.0675783 -1.8988 0
M  V30 3194 H 281.059 2.16332 -3.22696 0
M  V30 3195 H 282.731 -0.0480894 -4.61275 0
M  V30 3196 H 280.974 -0.114618 -4.33649 0
M  V30 3197 H 281.645 1.12139 -5.40489 0
M  V30 3198 H 284.121 1.96039 -3.67026 0
M  V30 3199 H 282.997 2.96932 -4.61652 0
M  V30 3200 H 283.258 3.32309 -2.91588 0
M  V30 3201 N 282.317 1.53212 0.369288 0
M  V30 3202 C 283.264 1.79388 1.45219 0
M  V30 3203 C 284.234 0.638059 1.53356 0
M  V30 3204 O 285.419 0.879852 1.69302 0
M  V30 3205 C 282.559 1.98623 2.82211 0
M  V30 3206 C 281.672 3.26337 2.8307 0
M  V30 3207 C 280.807 3.35779 4.11614 0
M  V30 3208 C 279.846 4.5754 4.06601 0
M  V30 3209 N 278.983 4.64155 5.26787 0
M  V30 3210 H 283.823 2.71794 1.22198 0
M  V30 3211 H 281.36 1.34642 0.592444 0
M  V30 3212 H 283.318 2.07761 3.61789 0
M  V30 3213 H 281.948 1.09558 3.03639 0
M  V30 3214 H 281 3.26171 1.95747 0
M  V30 3215 H 282.312 4.15988 2.75237 0
M  V30 3216 H 281.466 3.44208 4.99606 0
M  V30 3217 H 280.205 2.44137 4.22195 0
M  V30 3218 H 279.21 4.49215 3.16996 0
M  V30 3219 H 280.435 5.50519 3.97625 0
M  V30 3220 H 278.381 3.75413 5.3796 0
M  V30 3221 H 278.298 5.47706 5.21109 0
M  V30 3222 H 279.566 4.76863 6.16621 0
M  V30 3223 N 283.795 -0.628877 1.44509 0
M  V30 3224 C 284.742 -1.74074 1.51549 0
M  V30 3225 C 285.712 -1.62084 0.363021 0
M  V30 3226 O 286.897 -1.81975 0.573567 0
M  V30 3227 C 284.037 -3.12328 1.46784 0
M  V30 3228 C 283.15 -3.35277 2.72422 0
M  V30 3229 C 282.285 -4.63515 2.59475 0
M  V30 3230 C 281.324 -4.7965 3.80266 0
M  V30 3231 N 280.461 -5.99168 3.65981 0
M  V30 3232 H 285.301 -1.67392 2.46544 0
M  V30 3233 H 282.838 -0.816527 1.22357 0
M  V30 3234 H 284.796 -3.92286 1.42012 0
M  V30 3235 H 283.426 -3.18018 0.553544 0
M  V30 3236 H 282.478 -2.49242 2.87372 0
M  V30 3237 H 283.79 -3.43078 3.62076 0
M  V30 3238 H 282.944 -5.51638 2.52548 0
M  V30 3239 H 281.683 -4.58076 1.67384 0
M  V30 3240 H 280.688 -3.89957 3.87574 0
M  V30 3241 H 281.913 -4.86902 4.73395 0
M  V30 3242 H 279.859 -5.94814 2.76644 0
M  V30 3243 H 279.776 -6.08035 4.49254 0
M  V30 3244 H 281.044 -6.89846 3.6295 0
M  V30 3245 N 285.273 -1.31445 -0.869486 0
M  V30 3246 C 286.513 -1.22458 -1.63656 0
M  V30 3247 C 286.877 0.213846 -1.90805 0
M  V30 3248 O 288.078 0.427212 -2.65383 0
M  V30 3249 C 286.349 -2.04564 -2.93067 0
M  V30 3250 S 287.908 -2.12445 -3.83944 0
M  V30 3251 H 284.726 -0.436145 -0.561514 0
M  V30 3252 H 287.328 -1.66114 -1.03085 0
M  V30 3253 H 286.032 -3.0816 -2.71045 0
M  V30 3254 H 285.563 -1.6163 -3.58663 0
M  V30 3255 H 287.578 -1.26312 -4.79854 0
M  V30 3256 N 286.751 1.08385 -1.14413 0
M  V30 3257 C 287.714 2.13486 -0.834048 0
M  V30 3258 C 288.714 1.59988 0.161418 0
M  V30 3259 O 289.904 1.74071 -0.0669575 0
M  V30 3260 C 287.036 3.4003 -0.243354 0
M  V30 3261 H 288.229 2.42425 -1.7655 0
M  V30 3262 H 285.782 1.24101 -0.950189 0
M  V30 3263 H 286.517 3.16726 0.696807 0
M  V30 3264 H 286.302 3.80157 -0.960367 0
M  V30 3265 H 287.792 4.17577 -0.0436242 0
M  V30 3266 N 288.23 0.939286 1.26551 0
M  V30 3267 C 289.455 0.602008 1.98471 0
M  V30 3268 C 289.88 -0.815624 1.69497 0
M  V30 3269 O 289.238 -1.54912 0.941905 0
M  V30 3270 C 289.286 0.848407 3.50477 0
M  V30 3271 O 288.39 -0.0804009 4.12322 0
M  V30 3272 H 287.731 0.23049 0.622712 0
M  V30 3273 H 290.261 1.2617 1.61066 0
M  V30 3274 H 290.271 0.768553 4.00696 0
M  V30 3275 H 288.946 1.88171 3.70897 0
M  V30 3276 H 287.523 0.0503508 3.72866 0
M  V30 3277 N 289.708 -1.40897 0.706093 0
M  V30 3278 C 290.638 -2.33418 0.0620085 0
M  V30 3279 C 291.619 -1.52385 -0.755827 0
M  V30 3280 O 292.804 -1.80886 -0.706674 0
M  V30 3281 C 289.934 -3.36293 -0.867445 0
M  V30 3282 C 288.888 -4.27716 -0.155932 0
M  V30 3283 C 288.214 -5.2105 -1.20046 0
M  V30 3284 C 289.514 -5.12944 0.984149 0
M  V30 3285 H 291.208 -2.87527 0.83477 0
M  V30 3286 H 288.754 -1.38249 0.402875 0
M  V30 3287 H 290.707 -3.99949 -1.32735 0
M  V30 3288 H 289.431 -2.80556 -1.67199 0
M  V30 3289 H 288.09 -3.65498 0.284047 0
M  V30 3290 H 287.738 -4.61624 -1.99781 0
M  V30 3291 H 287.438 -5.83056 -0.729328 0
M  V30 3292 H 288.962 -5.87584 -1.66066 0
M  V30 3293 H 290.376 -5.70109 0.604048 0
M  V30 3294 H 288.773 -5.83945 1.38304 0
M  V30 3295 H 289.843 -4.49485 1.81911 0
M  V30 3296 N 291.186 -0.45159 -1.50991 0
M  V30 3297 C 292.133 0.352625 -2.2809 0
M  V30 3298 C 293.103 1.0044 -1.32291 0
M  V30 3299 O 294.288 1.02058 -1.6121 0
M  V30 3300 C 291.428 1.43983 -3.13629 0
M  V30 3301 C 290.541 0.804772 -4.24438 0
M  V30 3302 C 289.676 1.86822 -4.97263 0
M  V30 3303 C 288.715 1.21236 -5.99973 0
M  V30 3304 N 287.852 2.2178 -6.66152 0
M  V30 3305 H 292.692 -0.311186 -2.96371 0
M  V30 3306 H 290.229 -0.165308 -1.46168 0
M  V30 3307 H 292.187 2.08161 -3.61559 0
M  V30 3308 H 290.817 2.07307 -2.47434 0
M  V30 3309 H 289.869 0.0509129 -3.80366 0
M  V30 3310 H 291.181 0.286076 -4.97979 0
M  V30 3311 H 290.335 2.58628 -5.48813 0
M  V30 3312 H 289.074 2.42068 -4.23385 0
M  V30 3313 H 288.079 0.479828 -5.47702 0
M  V30 3314 H 289.304 0.667051 -6.75816 0
M  V30 3315 H 287.25 2.76079 -5.95077 0
M  V30 3316 H 287.167 1.74841 -7.35504 0
M  V30 3317 H 288.435 2.93026 -7.22327 0
M  V30 3318 N 292.664 1.56529 -0.183458 0
M  V30 3319 C 293.912 1.96855 0.457452 0
M  V30 3320 C 294.233 1.07104 1.62953 0
M  V30 3321 O 293.503 0.139887 1.954 0
M  V30 3322 H 292.083 0.72693 0.171992 0
M  V30 3323 H 294.745 1.93056 -0.267476 0
M  V30 3324 H 293.841 3.01423 0.809368 0
M  V30 3325 N 294.142 -0.090211 1.57342 0
M  V30 3326 C 295.553 -0.644173 1.75235 0
M  V30 3327 C 295.904 -1.78865 0.806335 0
M  V30 3328 O 295.029 -2.16395 -0.0140128 0
M  V30 3329 C 295.624 -1.17532 3.1776 0
M  V30 3330 C 294.183 -1.67531 3.37061 0
M  V30 3331 C 293.33 -0.58693 2.71017 0
M  V30 3332 H 296.281 0.135884 1.58117 0
M  V30 3333 H 296.302 -2.04455 3.20902 0
M  V30 3334 H 295.814 -0.342138 3.86589 0
M  V30 3335 H 293.915 -2.53234 2.73319 0
M  V30 3336 H 294.028 -1.76493 4.45406 0
M  V30 3337 H 292.392 -1.02756 2.33052 0
M  V30 3338 H 293.175 0.235758 3.4249 0
M  V30 3339 N 295.62 -1.53406 -0.361157 0
M  V30 3340 C 296.55 -1.83136 -1.44857 0
M  V30 3341 C 297.531 -0.685174 -1.5569 0
M  V30 3342 O 298.716 -0.93544 -1.70186 0
M  V30 3343 C 295.846 -2.02522 -2.82138 0
M  V30 3344 C 294.8 -3.18302 -2.86126 0
M  V30 3345 C 294.126 -3.22989 -4.26125 0
M  V30 3346 C 295.426 -4.56796 -2.53248 0
M  V30 3347 H 297.12 -2.74201 -1.20226 0
M  V30 3348 H 294.666 -1.31938 -0.576922 0
M  V30 3349 H 296.619 -2.21904 -3.58241 0
M  V30 3350 H 295.343 -1.08172 -3.08166 0
M  V30 3351 H 294.002 -2.98747 -2.12475 0
M  V30 3352 H 293.65 -2.26267 -4.49235 0
M  V30 3353 H 293.35 -4.00781 -4.29708 0
M  V30 3354 H 294.874 -3.44559 -5.04094 0
M  V30 3355 H 296.288 -4.7631 -3.19064 0
M  V30 3356 H 294.685 -5.36862 -2.68141 0
M  V30 3357 H 295.755 -4.61606 -1.48484 0
M  V30 3358 N 297.098 0.621204 -1.44841 0
M  V30 3359 C 298.346 1.37783 -1.47852 0
M  V30 3360 C 298.667 1.94653 -0.116224 0
M  V30 3361 O 297.937 1.76367 0.852737 0
M  V30 3362 H 296.517 0.511453 -0.544449 0
M  V30 3363 H 299.179 0.730446 -1.80694 0
M  V30 3364 H 298.275 2.20414 -2.20961 0
M  V30 3365 N 298.576 1.31904 0.862503 0
M  V30 3366 C 299.506 1.22782 1.98612 0
M  V30 3367 C 300.487 0.113362 1.69722 0
M  V30 3368 O 301.672 0.299218 1.91881 0
M  V30 3369 C 298.802 0.942058 3.34279 0
M  V30 3370 C 297.756 2.0169 3.77499 0
M  V30 3371 C 297.082 1.58369 5.10709 0
M  V30 3372 C 298.382 3.43096 3.93805 0
M  V30 3373 H 300.076 2.16788 2.06502 0
M  V30 3374 H 297.622 1.04366 0.992154 0
M  V30 3375 H 299.575 0.864818 4.1243 0
M  V30 3376 H 298.299 -0.0336603 3.26583 0
M  V30 3377 H 296.958 2.08416 3.01593 0
M  V30 3378 H 296.606 0.595628 4.99461 0
M  V30 3379 H 296.306 2.30279 5.40597 0
M  V30 3380 H 297.83 1.52067 5.91361 0
M  V30 3381 H 299.244 3.39003 4.62331 0
M  V30 3382 H 297.641 4.13288 4.35101 0
M  V30 3383 H 298.711 3.83334 2.96957 0
M  V30 3384 N 300.054 -1.07777 1.14986 0
M  V30 3385 C 301.001 -2.14867 0.842672 0
M  V30 3386 C 301.971 -1.6486 -0.202552 0
M  V30 3387 O 303.156 -1.90668 -0.0710568 0
M  V30 3388 C 300.296 -3.43486 0.333363 0
M  V30 3389 C 299.409 -4.07306 1.43965 0
M  V30 3390 C 298.544 -5.23744 0.886914 0
M  V30 3391 C 297.583 -5.79517 1.97043 0
M  V30 3392 N 296.72 -6.87291 1.4344 0
M  V30 3393 H 301.56 -2.40485 1.75986 0
M  V30 3394 H 299.097 -1.1801 0.878179 0
M  V30 3395 H 301.055 -4.17195 0.0198163 0
M  V30 3396 H 299.685 -3.18133 -0.546916 0
M  V30 3397 H 298.737 -3.31293 1.86946 0
M  V30 3398 H 300.049 -4.44771 2.25788 0
M  V30 3399 H 299.203 -6.04419 0.525651 0
M  V30 3400 H 297.942 -4.87685 0.0377957 0
M  V30 3401 H 296.947 -4.97491 2.34057 0
M  V30 3402 H 298.172 -6.17632 2.82325 0
M  V30 3403 H 296.118 -6.5318 0.607567 0
M  V30 3404 H 296.035 -7.23617 2.18895 0
M  V30 3405 H 297.303 -7.71682 1.10124 0
M  V30 3406 N 301.532 -0.945985 -1.26051 0
M  V30 3407 C 302.778 -0.606539 -1.94146 0
M  V30 3408 C 303.133 0.84586 -1.72809 0
M  V30 3409 O 302.426 1.59781 -1.05738 0
M  V30 3410 C 302.62 -0.890475 -3.46129 0
M  V30 3411 C 302.449 -2.36892 -3.82246 0
M  V30 3412 C 301.219 -3.02494 -4.04753 0
M  V30 3413 C 303.417 -3.34772 -3.90425 0
M  V30 3414 N 301.399 -4.40302 -4.27794 0
M  V30 3415 C 302.77 -4.57855 -4.18054 0
M  V30 3416 C 304.825 -3.2973 -3.73072 0
M  V30 3417 C 303.528 -5.76522 -4.30134 0
M  V30 3418 C 305.554 -4.47727 -3.86386 0
M  V30 3419 C 304.916 -5.69593 -4.14419 0
M  V30 3420 H 301.015 -0.272407 -0.73302 0
M  V30 3421 H 303.599 -1.21638 -1.52027 0
M  V30 3422 H 301.77 -0.309638 -3.87164 0
M  V30 3423 H 303.502 -0.51181 -4.01451 0
M  V30 3424 H 300.257 -2.53095 -4.003 0
M  V30 3425 H 300.681 -5.11646 -4.43337 0
M  V30 3426 H 305.323 -2.36565 -3.50424 0
M  V30 3427 H 303.041 -6.70136 -4.51601 0
M  V30 3428 H 306.627 -4.45363 -3.74356 0
M  V30 3429 H 305.507 -6.59375 -4.24493 0
M  V30 3430 N 303.011 1.40521 -0.713556 0
M  V30 3431 C 303.961 2.27971 -0.036165 0
M  V30 3432 C 304.945 1.43151 0.734623 0
M  V30 3433 O 306.137 1.66261 0.607158 0
M  V30 3434 C 303.266 3.31661 0.886331 0
M  V30 3435 C 302.352 4.23955 0.110836 0
M  V30 3436 N 302.743 4.97641 -0.904847 0
M  V30 3437 C 301.041 4.44674 0.343692 0
M  V30 3438 C 301.742 5.65322 -1.37064 0
M  V30 3439 N 300.718 5.39162 -0.693168 0
M  V30 3440 H 304.52 2.82384 -0.814645 0
M  V30 3441 H 302.034 1.52948 -0.545963 0
M  V30 3442 H 304.031 3.93154 1.38692 0
M  V30 3443 H 302.691 2.78808 1.66421 0
M  V30 3444 H 303.702 5.01689 -1.28563 0
M  V30 3445 H 300.379 4.02801 1.09805 0
M  V30 3446 H 301.769 6.34359 -2.21447 0
M  V30 3447 N 304.489 0.459591 1.5075 0
M  V30 3448 C 305.421 -0.37665 2.26084 0
M  V30 3449 C 306.434 -0.967109 1.30961 0
M  V30 3450 O 307.623 -0.857468 1.56556 0
M  V30 3451 C 304.723 -1.54112 3.01832 0
M  V30 3452 C 303.896 -1.06553 4.24223 0
M  V30 3453 C 302.955 -2.1027 4.82362 0
M  V30 3454 O 301.981 -1.68798 5.43595 0
M  V30 3455 N 303.183 -3.42974 4.68347 0
M  V30 3456 H 305.948 0.269124 2.98489 0
M  V30 3457 H 303.509 0.28972 1.59287 0
M  V30 3458 H 305.501 -2.23165 3.37608 0
M  V30 3459 H 304.071 -2.0918 2.32298 0
M  V30 3460 H 303.291 -0.201274 3.93686 0
M  V30 3461 H 304.579 -0.725516 5.03601 0
M  V30 3462 H 303.977 -3.79385 4.19623 0
M  V30 3463 H 302.534 -4.07858 5.08424 0
M  V30 3464 N 305.967 -1.56429 0.191757 0
M  V30 3465 C 306.9 -2.14829 -0.76967 0
M  V30 3466 C 307.878 -1.08405 -1.2119 0
M  V30 3467 O 309.062 -1.36498 -1.30002 0
M  V30 3468 C 306.189 -2.70446 -2.03903 0
M  V30 3469 C 305.235 -3.89428 -1.7392 0
M  V30 3470 S 306.068 -5.28048 -0.890265 0
M  V30 3471 C 307.224 -5.87085 -2.16984 0
M  V30 3472 H 307.457 -2.96042 -0.273204 0
M  V30 3473 H 304.99 -1.54383 -0.0231975 0
M  V30 3474 H 306.948 -3.03134 -2.76803 0
M  V30 3475 H 305.609 -1.89281 -2.50662 0
M  V30 3476 H 304.802 -4.26742 -2.68155 0
M  V30 3477 H 304.404 -3.57732 -1.09103 0
M  V30 3478 H 306.696 -6.01244 -3.12269 0
M  V30 3479 H 307.639 -6.83747 -1.84108 0
M  V30 3480 H 308.047 -5.15663 -2.29678 0
M  V30 3481 N 307.445 0.0818655 -1.57387 0
M  V30 3482 C 308.691 0.784074 -1.8703 0
M  V30 3483 C 309.024 1.77729 -0.782689 0
M  V30 3484 O 308.299 1.93384 0.208051 0
M  V30 3485 C 308.582 1.50105 -3.27323 0
M  V30 3486 C 308.435 0.524925 -4.46727 0
M  V30 3487 C 309.754 2.44843 -3.65705 0
M  V30 3488 H 306.873 0.283582 -0.680257 0
M  V30 3489 H 309.515 0.0474352 -1.89941 0
M  V30 3490 H 307.665 2.12897 -3.24972 0
M  V30 3491 H 309.337 -0.0970111 -4.61198 0
M  V30 3492 H 307.58 -0.160606 -4.33503 0
M  V30 3493 H 308.251 1.064 -5.41648 0
M  V30 3494 H 310.727 1.92135 -3.69085 0
M  V30 3495 H 309.603 2.92018 -4.64776 0
M  V30 3496 H 309.864 3.29197 -2.95096 0
M  V30 3497 N 308.923 1.53595 0.353017 0
M  V30 3498 C 309.871 1.81605 1.45335 0
M  V30 3499 C 310.865 0.685923 1.54892 0
M  V30 3500 O 312.071 0.869095 1.57628 0
M  V30 3501 H 308.446 0.575204 0.484401 0
M  V30 3502 H 310.417 2.73679 1.18921 0
M  V30 3503 C 309.166 2.03406 2.81995 0
M  V30 3504 H 308.489 2.89814 2.75405 0
M  V30 3505 H 309.929 2.26975 3.58132 0
M  V30 3506 C 308.388 0.816794 3.26849 0
M  V30 3507 O 308.918 0.0115856 4.01698 0
M  V30 3508 N 307.124 0.636682 2.8354 0
M  V30 3509 H 306.671 1.2931 2.22793 0
M  V30 3510 H 306.629 -0.176336 3.13905 0
M  V30 3511 N 310.401 -0.613514 1.45168 0
M  V30 3512 C 311.349 -1.74572 1.53712 0
M  V30 3513 C 312.343 -1.64426 0.407505 0
M  V30 3514 O 313.549 -1.70291 0.583176 0
M  V30 3515 H 309.924 -0.576641 0.48269 0
M  V30 3516 H 311.895 -1.64492 2.48968 0
M  V30 3517 C 310.644 -3.12943 1.51532 0
M  V30 3518 H 309.967 -3.21407 2.37776 0
M  V30 3519 H 311.407 -3.9201 1.61569 0
M  V30 3520 C 309.866 -3.36053 0.238798 0
M  V30 3521 O 310.396 -3.95837 -0.6838 0
M  V30 3522 N 308.602 -2.9028 0.136359 0
M  V30 3523 H 308.149 -2.41811 0.887999 0
M  V30 3524 H 308.107 -3.06116 -0.716944 0
M  V30 3525 N 311.879 -1.3236 -0.855495 0
M  V30 3526 C 313.128 -1.22226 -1.60448 0
M  V30 3527 C 313.441 0.214733 -1.94418 0
M  V30 3528 O 314.647 0.437917 -2.67945 0
M  V30 3529 C 313.103 -2.14063 -2.89318 0
M  V30 3530 C 312.711 -3.62839 -2.62777 0
M  V30 3531 C 314.455 -2.12764 -3.67331 0
M  V30 3532 C 312.362 -4.4664 -3.87643 0
M  V30 3533 H 311.292 -0.453904 -0.602069 0
M  V30 3534 H 313.943 -1.57314 -0.944698 0
M  V30 3535 H 312.325 -1.71889 -3.5675 0
M  V30 3536 H 313.499 -4.1335 -2.03662 0
M  V30 3537 H 311.814 -3.66261 -1.98096 0
M  V30 3538 H 314.411 -2.72611 -4.59987 0
M  V30 3539 H 314.754 -1.11841 -4.00995 0
M  V30 3540 H 315.287 -2.53214 -3.06802 0
M  V30 3541 H 312.026 -5.48373 -3.5912 0
M  V30 3542 H 311.546 -4.0088 -4.46156 0
M  V30 3543 H 313.225 -4.59597 -4.55389 0
M  V30 3544 N 313.357 1.07166 -1.15556 0
M  V30 3545 C 314.597 1.81391 -0.94216 0
M  V30 3546 C 314.961 1.84788 0.521272 0
M  V30 3547 O 316.162 2.54904 0.85307 0
M  V30 3548 C 314.433 3.22431 -1.54185 0
M  V30 3549 S 315.992 4.13379 -1.47183 0
M  V30 3550 H 312.81 0.624963 -0.339031 0
M  V30 3551 H 315.412 1.28725 -1.4714 0
M  V30 3552 H 314.116 3.17548 -2.59984 0
M  V30 3553 H 313.647 3.80172 -1.01156 0
M  V30 3554 H 315.662 4.94007 -0.466004 0
M  V30 3555 N 314.835 0.952656 1.25548 0
M  V30 3556 C 315.767 0.428609 2.25157 0
M  V30 3557 C 316.78 -0.454428 1.56329 0
M  V30 3558 O 317.969 -0.263023 1.76552 0
M  V30 3559 C 315.069 -0.401972 3.36508 0
M  V30 3560 C 314.242 0.467601 4.34893 0
M  V30 3561 C 313.301 -0.30445 5.25319 0
M  V30 3562 O 312.327 0.296473 5.68427 0
M  V30 3563 N 313.529 -1.59805 5.5807 0
M  V30 3564 H 316.294 1.28497 2.70756 0
M  V30 3565 H 313.855 0.822798 1.39433 0
M  V30 3566 H 315.847 -0.926134 3.9396 0
M  V30 3567 H 314.417 -1.15918 2.90313 0
M  V30 3568 H 313.637 1.17288 3.76347 0
M  V30 3569 H 314.925 1.06119 4.97611 0
M  V30 3570 H 314.323 -2.10823 5.24948 0
M  V30 3571 H 312.88 -2.06822 6.18116 0
M  V30 3572 N 316.313 -1.40141 0.720998 0
M  V30 3573 C 317.56 -2.00787 0.262842 0
M  V30 3574 C 317.888 -1.5718 -1.14563 0
M  V30 3575 O 317.143 -0.785391 -1.79249 0
M  V30 3576 C 317.442 -3.56165 0.296892 0
M  V30 3577 C 317.108 -4.19373 1.65641 0
M  V30 3578 C 315.77 -4.36352 2.02855 0
M  V30 3579 C 318.122 -4.54578 2.54968 0
M  V30 3580 C 315.45 -4.8582 3.28931 0
M  V30 3581 C 317.802 -5.05447 3.80402 0
M  V30 3582 C 316.466 -5.20635 4.17726 0
M  V30 3583 H 315.736 -0.734731 0.0961807 0
M  V30 3584 H 318.383 -1.67673 0.925093 0
M  V30 3585 H 316.688 -3.8922 -0.448932 0
M  V30 3586 H 318.385 -4.00929 -0.0755208 0
M  V30 3587 H 314.975 -4.06549 1.35704 0
M  V30 3588 H 319.159 -4.41091 2.27491 0
M  V30 3589 H 314.415 -4.95764 3.57811 0
M  V30 3590 H 318.589 -5.31663 4.49786 0
M  V30 3591 H 316.216 -5.58728 5.15487 0
M  V30 3592 N 317.792 -0.46758 -1.50504 0
M  V30 3593 C 319.041 0.0902868 -2.01498 0
M  V30 3594 C 319.354 1.411 -1.35463 0
M  V30 3595 O 320.56 2.0536 -1.77594 0
M  V30 3596 C 319.016 0.21142 -3.59278 0
M  V30 3597 C 318.624 -1.10065 -4.34269 0
M  V30 3598 C 320.368 0.721433 -4.18325 0
M  V30 3599 C 318.275 -0.943505 -5.83825 0
M  V30 3600 H 317.205 0.037517 -0.753066 0
M  V30 3601 H 319.856 -0.601943 -1.73346 0
M  V30 3602 H 318.238 0.967352 -3.84003 0
M  V30 3603 H 319.412 -1.86726 -4.21272 0
M  V30 3604 H 317.727 -1.5415 -3.86816 0
M  V30 3605 H 320.324 0.85598 -5.27804 0
M  V30 3606 H 320.667 1.71186 -3.79475 0
M  V30 3607 H 321.2 0.0229843 -3.97793 0
M  V30 3608 H 317.939 -1.90719 -6.27141 0
M  V30 3609 H 317.459 -0.217213 -5.99407 0
M  V30 3610 H 319.138 -0.608715 -6.4413 0
M  V30 3611 N 319.27 1.56325 -0.20005 0
M  V30 3612 C 320.517 1.97719 0.437411 0
M  V30 3613 C 320.845 1.08709 1.61284 0
M  V30 3614 O 320.1 0.127261 1.95286 0
M  V30 3615 C 320.399 3.4495 0.935103 0
M  V30 3616 C 320.065 4.5072 -0.12749 0
M  V30 3617 C 318.727 4.79368 -0.419451 0
M  V30 3618 C 321.079 5.14268 -0.847231 0
M  V30 3619 C 318.407 5.68854 -1.43604 0
M  V30 3620 C 320.759 6.04852 -1.85301 0
M  V30 3621 C 319.423 6.31855 -2.15211 0
M  V30 3622 H 318.693 0.723507 0.16006 0
M  V30 3623 H 321.34 1.89166 -0.298056 0
M  V30 3624 H 319.645 3.50599 1.74894 0
M  V30 3625 H 321.342 3.74337 1.43781 0
M  V30 3626 H 317.932 4.28458 0.11023 0
M  V30 3627 H 322.116 4.92222 -0.634901 0
M  V30 3628 H 317.372 5.88047 -1.67364 0
M  V30 3629 H 321.546 6.53152 -2.41591 0
M  V30 3630 H 319.173 7.00994 -2.94129 0
M  V30 3631 N 320.748 -0.0735177 1.57428 0
M  V30 3632 C 321.994 -0.768909 1.88307 0
M  V30 3633 C 322.349 -1.75273 0.793535 0
M  V30 3634 O 321.642 -1.90527 -0.202466 0
M  V30 3635 C 321.836 -1.51799 3.23561 0
M  V30 3636 C 321.665 -0.608217 4.45568 0
M  V30 3637 C 320.435 -0.245808 5.04702 0
M  V30 3638 C 322.633 0.0942904 5.14214 0
M  V30 3639 N 320.615 0.66987 6.10234 0
M  V30 3640 C 321.986 0.867222 6.13905 0
M  V30 3641 C 324.041 0.165943 4.97623 0
M  V30 3642 C 322.744 1.70515 6.98797 0
M  V30 3643 C 324.77 0.990837 5.83041 0
M  V30 3644 C 324.132 1.75182 6.82269 0
M  V30 3645 H 320.231 -0.25685 0.738615 0
M  V30 3646 H 322.815 -0.030499 1.94676 0
M  V30 3647 H 320.986 -2.22713 3.18203 0
M  V30 3648 H 322.718 -2.16226 3.42094 0
M  V30 3649 H 319.473 -0.598284 4.69806 0
M  V30 3650 H 319.897 1.1209 6.67656 0
M  V30 3651 H 324.539 -0.408064 4.20826 0
M  V30 3652 H 322.257 2.29013 7.7497 0
M  V30 3653 H 325.843 1.04923 5.72261 0
M  V30 3654 H 324.723 2.37983 7.47217 0
M  V30 3655 N 322.226 -1.5378 -0.344866 0
M  V30 3656 C 323.454 -1.74899 -1.10534 0
M  V30 3657 C 323.869 -0.487534 -1.82397 0
M  V30 3658 O 323.226 0.540741 -1.74305 0
M  V30 3659 C 323.277 -2.92822 -2.11984 0
M  V30 3660 O 322.998 -4.14089 -1.43044 0
M  V30 3661 C 324.499 -3.25982 -3.00417 0
M  V30 3662 H 321.719 -0.584426 -0.329678 0
M  V30 3663 H 324.263 -2.006 -0.397474 0
M  V30 3664 H 322.418 -2.69457 -2.78338 0
M  V30 3665 H 322.832 -4.80272 -2.10805 0
M  V30 3666 H 324.306 -4.11848 -3.67539 0
M  V30 3667 H 324.783 -2.42228 -3.66363 0
M  V30 3668 H 325.389 -3.51349 -2.39654 0
M  V30 3669 N 323.704 0.605807 -1.45491 0
M  V30 3670 C 324.95 1.36679 -1.49823 0
M  V30 3671 C 325.283 1.93693 -0.140175 0
M  V30 3672 O 324.558 1.75158 0.845581 0
M  V30 3673 C 324.841 2.51337 -2.57879 0
M  V30 3674 C 324.694 1.99508 -4.03134 0
M  V30 3675 C 326.013 3.53463 -2.62205 0
M  V30 3676 H 323.132 0.495617 -0.545466 0
M  V30 3677 H 325.774 0.682732 -1.7731 0
M  V30 3678 H 323.924 3.09691 -2.34571 0
M  V30 3679 H 325.596 1.45789 -4.37656 0
M  V30 3680 H 323.839 1.30496 -4.13707 0
M  V30 3681 H 324.51 2.82169 -4.74431 0
M  V30 3682 H 326.986 3.04953 -2.83095 0
M  V30 3683 H 325.862 4.31178 -3.39672 0
M  V30 3684 H 326.123 4.09197 -1.67363 0
M  V30 3685 N 325.182 1.32811 0.848464 0
M  V30 3686 C 326.429 1.23724 1.60308 0
M  V30 3687 C 326.757 -0.1994 1.93475 0
M  V30 3688 O 326.012 -1.15406 1.5805 0
M  V30 3689 C 326.311 2.04831 2.92881 0
M  V30 3690 C 325.977 3.54125 2.79117 0
M  V30 3691 C 324.639 3.94829 2.7507 0
M  V30 3692 C 326.991 4.49036 2.64606 0
M  V30 3693 C 324.319 5.28675 2.544 0
M  V30 3694 C 326.671 5.83033 2.4547 0
M  V30 3695 C 325.335 6.22931 2.39819 0
M  V30 3696 H 324.605 0.452737 0.586609 0
M  V30 3697 H 327.252 1.64301 0.983743 0
M  V30 3698 H 325.557 1.57001 3.58968 0
M  V30 3699 H 327.254 1.95164 3.50303 0
M  V30 3700 H 323.844 3.21801 2.83094 0
M  V30 3701 H 328.028 4.18505 2.66772 0
M  V30 3702 H 323.284 5.58637 2.48465 0
M  V30 3703 H 327.458 6.56186 2.33222 0
M  V30 3704 H 325.085 7.26584 2.23562 0
M  V30 3705 N 326.66 -1.06551 1.16123 0
M  V30 3706 C 327.909 -1.78687 0.935622 0
M  V30 3707 C 328.222 -1.88056 -0.538001 0
M  V30 3708 O 329.428 -2.56794 -0.88143 0
M  V30 3709 C 327.884 -3.21143 1.62466 0
M  V30 3710 C 327.492 -3.19949 3.13587 0
M  V30 3711 C 329.236 -3.9783 1.48092 0
M  V30 3712 C 327.143 -4.57108 3.75241 0
M  V30 3713 H 326.073 -0.669712 0.346412 0
M  V30 3714 H 328.724 -1.19534 1.39226 0
M  V30 3715 H 327.106 -3.80539 1.09572 0
M  V30 3716 H 328.28 -2.70151 3.73303 0
M  V30 3717 H 326.595 -2.5676 3.27816 0
M  V30 3718 H 329.192 -4.99217 1.91538 0
M  V30 3719 H 329.535 -4.14078 0.429507 0
M  V30 3720 H 330.068 -3.4495 1.98127 0
M  V30 3721 H 326.807 -4.46065 4.80319 0
M  V30 3722 H 326.327 -5.07111 3.20309 0
M  V30 3723 H 328.006 -5.26069 3.76644 0
M  V30 3724 N 328.138 -0.959301 -1.25041 0
M  V30 3725 C 329.068 -0.501388 -2.28053 0
M  V30 3726 C 330.049 0.454673 -1.63911 0
M  V30 3727 O 331.234 0.352618 -1.90972 0
M  V30 3728 C 328.364 0.217224 -3.4662 0
M  V30 3729 C 327.318 -0.654034 -4.22973 0
M  V30 3730 C 326.644 0.195589 -5.34342 0
M  V30 3731 C 327.944 -1.93447 -4.85155 0
M  V30 3732 H 329.638 -1.36238 -2.66608 0
M  V30 3733 H 327.184 -0.656534 -1.28163 0
M  V30 3734 H 329.137 0.548732 -4.17812 0
M  V30 3735 H 327.861 1.1125 -3.07068 0
M  V30 3736 H 326.52 -0.968693 -3.5357 0
M  V30 3737 H 326.168 1.09076 -4.91031 0
M  V30 3738 H 325.868 -0.384091 -5.86343 0
M  V30 3739 H 327.392 0.521958 -6.08365 0
M  V30 3740 H 328.806 -1.66908 -5.48466 0
M  V30 3741 H 327.203 -2.46018 -5.47353 0
M  V30 3742 H 328.273 -2.63466 -4.07079 0
M  V30 3743 N 329.616 1.39756 -0.72842 0
M  V30 3744 C 330.549 2.28176 -0.0330172 0
M  V30 3745 C 331.527 1.44035 0.754501 0
M  V30 3746 O 332.711 1.73434 0.738445 0
M  V30 3747 C 329.838 3.24795 0.960504 0
M  V30 3748 C 328.884 4.25693 0.262264 0
M  V30 3749 S 329.717 5.25714 -1.01906 0
M  V30 3750 C 330.873 6.25894 -0.0279717 0
M  V30 3751 H 331.106 2.86807 -0.78287 0
M  V30 3752 H 328.639 1.45382 -0.519951 0
M  V30 3753 H 330.597 3.80983 1.52846 0
M  V30 3754 H 329.258 2.65196 1.68315 0
M  V30 3755 H 328.451 4.93699 1.01379 0
M  V30 3756 H 328.053 3.7327 -0.233482 0
M  V30 3757 H 330.345 6.72585 0.814621 0
M  V30 3758 H 331.288 7.04876 -0.67499 0
M  V30 3759 H 331.696 5.63466 0.341489 0
M  V30 3760 N 331.094 0.475555 1.50254 0
M  V30 3761 C 332.024 -0.30611 2.31485 0
M  V30 3762 C 333.005 -0.986228 1.38591 0
M  V30 3763 O 334.19 -0.982541 1.67511 0
M  V30 3764 C 331.32 -1.38588 3.1845 0
M  V30 3765 C 330.274 -0.827115 4.19932 0
M  V30 3766 C 329.6 -2.00551 4.95665 0
M  V30 3767 C 330.9 0.16463 5.2204 0
M  V30 3768 H 332.594 0.371866 2.97082 0
M  V30 3769 H 330.14 0.180282 1.42867 0
M  V30 3770 H 332.093 -1.94023 3.74076 0
M  V30 3771 H 330.817 -2.09269 2.50747 0
M  V30 3772 H 329.476 -0.294702 3.65414 0
M  V30 3773 H 329.124 -2.6994 4.2443 0
M  V30 3774 H 328.824 -1.63784 5.64313 0
M  V30 3775 H 330.348 -2.56468 5.54127 0
M  V30 3776 H 331.762 -0.300699 5.72511 0
M  V30 3777 H 330.159 0.446813 5.98434 0
M  V30 3778 H 331.229 1.08905 4.72512 0
M  V30 3779 N 332.573 -1.56217 0.208337 0
M  V30 3780 C 333.819 -1.98242 -0.427552 0
M  V30 3781 C 334.152 -1.09554 -1.60348 0
M  V30 3782 O 333.427 -0.15035 -1.93918 0
M  V30 3783 C 333.71 -3.4931 -0.874907 0
M  V30 3784 C 333.563 -4.48773 0.303751 0
M  V30 3785 C 334.882 -4.04424 -1.73577 0
M  V30 3786 H 332.001 -0.720744 -0.153936 0
M  V30 3787 H 334.643 -1.87586 0.30192 0
M  V30 3788 H 332.793 -3.58522 -1.49648 0
M  V30 3789 H 334.465 -4.51586 0.941682 0
M  V30 3790 H 332.708 -4.23194 0.953375 0
M  V30 3791 H 333.379 -5.51976 -0.0519883 0
M  V30 3792 H 335.855 -3.98075 -1.21143 0
M  V30 3793 H 334.731 -5.1047 -2.01771 0
M  V30 3794 H 334.992 -3.50494 -2.69456 0
M  V30 3795 N 334.051 0.0651679 -1.57465 0
M  V30 3796 C 335.298 0.763063 -1.87573 0
M  V30 3797 C 335.626 1.77242 -0.800961 0
M  V30 3798 O 334.881 1.94651 0.202316 0
M  V30 3799 C 335.18 1.50081 -3.24362 0
M  V30 3800 C 334.846 0.630816 -4.46466 0
M  V30 3801 C 333.508 0.391082 -4.79608 0
M  V30 3802 C 335.86 0.0279465 -5.21193 0
M  V30 3803 C 333.188 -0.460894 -5.84887 0
M  V30 3804 C 335.54 -0.811522 -6.27373 0
M  V30 3805 C 334.204 -1.06106 -6.59013 0
M  V30 3806 H 333.474 0.279224 -0.686378 0
M  V30 3807 H 336.121 0.0236726 -1.91485 0
M  V30 3808 H 334.426 2.31258 -3.16271 0
M  V30 3809 H 336.123 2.04571 -3.44894 0
M  V30 3810 H 332.713 0.8278 -4.2053 0
M  V30 3811 H 336.897 0.200262 -4.95896 0
M  V30 3812 H 332.153 -0.662907 -6.07796 0
M  V30 3813 H 336.327 -1.28537 -6.84435 0
M  V30 3814 H 333.954 -1.723 -7.40417 0
M  V30 3815 N 335.529 1.53961 0.336706 0
M  V30 3816 C 336.759 1.75229 1.09446 0
M  V30 3817 C 337.167 0.494602 1.82621 0
M  V30 3818 O 336.51 -0.543764 1.75468 0
M  V30 3819 C 336.572 2.88288 2.1478 0
M  V30 3820 C 336.236 4.27656 1.6112 0
M  V30 3821 C 337.233 5.08981 1.0599 0
M  V30 3822 C 334.918 4.74161 1.6576 0
M  V30 3823 C 336.912 6.34916 0.562129 0
M  V30 3824 C 334.599 6.00067 1.15595 0
M  V30 3825 C 335.597 6.80278 0.609147 0
M  V30 3826 O 335.285 8.03818 0.114999 0
M  V30 3827 H 335.017 0.588881 0.331956 0
M  V30 3828 H 337.571 2.01614 0.392566 0
M  V30 3829 H 335.801 2.57443 2.88548 0
M  V30 3830 H 337.49 2.97461 2.76174 0
M  V30 3831 H 338.256 4.74213 1.01722 0
M  V30 3832 H 334.135 4.11781 2.07261 0
M  V30 3833 H 337.679 6.9747 0.134668 0
M  V30 3834 H 333.576 6.3433 1.19566 0
M  V30 3835 H 334.344 8.18172 0.231651 0
M  V30 3836 N 337.007 -0.598083 1.45811 0
M  V30 3837 C 338.253 -1.35882 1.50545 0
M  V30 3838 C 338.586 -1.93616 0.150445 0
M  V30 3839 O 337.861 -1.75604 -0.83628 0
M  V30 3840 C 338.144 -2.49966 2.59208 0
M  V30 3841 C 337.997 -1.97367 4.04186 0
M  V30 3842 C 339.316 -3.52068 2.64076 0
M  V30 3843 H 336.435 -0.492717 0.548087 0
M  V30 3844 H 339.077 -0.673319 1.77669 0
M  V30 3845 H 337.227 -3.08443 2.3621 0
M  V30 3846 H 338.899 -1.43466 4.38423 0
M  V30 3847 H 337.142 -1.283 4.14393 0
M  V30 3848 H 337.813 -2.79649 4.75921 0
M  V30 3849 H 340.289 -3.03448 2.84708 0
M  V30 3850 H 339.165 -4.2937 3.41954 0
M  V30 3851 H 339.426 -4.08304 1.69531 0
M  V30 3852 N 338.485 -1.33259 -0.841409 0
M  V30 3853 C 339.731 -1.24757 -1.59886 0
M  V30 3854 C 340.064 0.186913 -1.93298 0
M  V30 3855 O 339.339 1.12757 -1.5848 0
M  V30 3856 C 339.622 -2.12036 -2.91055 0
M  V30 3857 C 339.475 -3.63929 -2.6434 0
M  V30 3858 C 340.794 -1.9916 -3.92458 0
M  V30 3859 H 337.913 -0.454542 -0.580138 0
M  V30 3860 H 340.555 -1.63335 -0.970647 0
M  V30 3861 H 338.705 -1.79265 -3.44669 0
M  V30 3862 H 340.377 -4.06978 -2.17178 0
M  V30 3863 H 338.62 -3.85935 -1.98082 0
M  V30 3864 H 339.291 -4.20341 -3.57796 0
M  V30 3865 H 341.767 -2.27895 -3.48143 0
M  V30 3866 H 340.643 -2.62484 -4.82072 0
M  V30 3867 H 340.904 -0.963082 -4.31482 0
M  V30 3868 N 339.963 1.05934 -1.16686 0
M  V30 3869 C 341.212 1.78188 -0.945085 0
M  V30 3870 C 341.525 1.88338 0.528021 0
M  V30 3871 O 342.731 2.57258 0.867799 0
M  V30 3872 C 341.187 3.20277 -1.64167 0
M  V30 3873 C 340.795 3.18281 -3.15279 0
M  V30 3874 C 342.539 3.97039 -1.502 0
M  V30 3875 C 340.446 4.55112 -3.7766 0
M  V30 3876 H 339.376 0.667866 -0.349959 0
M  V30 3877 H 342.027 1.18794 -1.39858 0
M  V30 3878 H 340.409 3.79952 -1.11589 0
M  V30 3879 H 341.583 2.68167 -3.74731 0
M  V30 3880 H 339.898 2.55018 -3.29173 0
M  V30 3881 H 342.495 4.98194 -1.94183 0
M  V30 3882 H 342.838 4.13845 -0.451461 0
M  V30 3883 H 343.371 3.43894 -1.99954 0
M  V30 3884 H 340.11 4.43512 -4.82677 0
M  V30 3885 H 339.63 5.05406 -3.22994 0
M  V30 3886 H 341.309 5.24064 -3.79428 0
M  V30 3887 N 341.441 0.965919 1.2453 0
M  V30 3888 C 342.404 0.499547 2.2369 0
M  V30 3889 C 343.404 -0.40294 1.5567 0
M  V30 3890 O 344.594 -0.19865 1.73064 0
M  V30 3891 C 341.726 -0.276792 3.39774 0
M  V30 3892 H 342.919 1.37613 2.66463 0
M  V30 3893 H 340.472 0.750324 1.37112 0
M  V30 3894 H 341.207 -1.17055 3.02438 0
M  V30 3895 H 340.992 0.370826 3.90343 0
M  V30 3896 H 342.482 -0.592175 4.1338 0
M  V30 3897 N 342.919 -1.39368 0.735821 0
M  V30 3898 C 343.866 -2.30599 0.0963825 0
M  V30 3899 C 344.836 -1.49257 -0.728794 0
M  V30 3900 O 346.021 -1.77941 -0.688588 0
M  V30 3901 C 343.161 -3.35596 -0.804305 0
M  V30 3902 C 342.274 -4.31987 0.0335761 0
M  V30 3903 C 341.409 -5.24053 -0.868461 0
M  V30 3904 C 340.448 -6.12095 -0.0258776 0
M  V30 3905 N 339.585 -6.96514 -0.883893 0
M  V30 3906 H 344.425 -2.8471 0.880002 0
M  V30 3907 H 341.962 -1.40188 0.445619 0
M  V30 3908 H 343.92 -3.95062 -1.34096 0
M  V30 3909 H 342.55 -2.82938 -1.55389 0
M  V30 3910 H 341.602 -3.74133 0.68766 0
M  V30 3911 H 342.914 -4.94074 0.685036 0
M  V30 3912 H 342.068 -5.88549 -1.47293 0
M  V30 3913 H 340.807 -4.62289 -1.5537 0
M  V30 3914 H 339.812 -5.4661 0.591386 0
M  V30 3915 H 341.037 -6.75923 0.656156 0
M  V30 3916 H 338.983 -6.37318 -1.55441 0
M  V30 3917 H 338.9 -7.55448 -0.288931 0
M  V30 3918 H 340.168 -7.65439 -1.4739 0
M  V30 3919 N 344.397 -0.483516 -1.5 0
M  V30 3920 C 345.344 0.304164 -2.28787 0
M  V30 3921 C 346.314 0.976114 -1.34392 0
M  V30 3922 O 347.499 0.986156 -1.63339 0
M  V30 3923 C 344.639 1.37298 -3.16612 0
M  V30 3924 C 343.752 0.714561 -4.26049 0
M  V30 3925 C 342.887 1.76232 -5.01114 0
M  V30 3926 C 341.926 1.08483 -6.0241 0
M  V30 3927 N 341.063 2.076 -6.70706 0
M  V30 3928 H 345.903 -0.373981 -2.95644 0
M  V30 3929 H 343.44 -0.196275 -1.45785 0
M  V30 3930 H 345.398 2.00445 -3.65893 0
M  V30 3931 H 344.028 2.02012 -2.51776 0
M  V30 3932 H 343.08 -0.0297798 -3.80388 0
M  V30 3933 H 344.392 0.180383 -4.98474 0
M  V30 3934 H 343.546 2.46929 -5.54176 0
M  V30 3935 H 342.285 2.33033 -4.28424 0
M  V30 3936 H 341.29 0.363545 -5.48597 0
M  V30 3937 H 342.515 0.523551 -6.77079 0
M  V30 3938 H 340.461 2.63394 -6.00799 0
M  V30 3939 H 340.378 1.59201 -7.39047 0
M  V30 3940 H 341.646 2.77639 -7.2838 0
M  V30 3941 N 345.875 1.56104 -0.216619 0
M  V30 3942 C 347.121 1.98466 0.417033 0
M  V30 3943 C 347.454 1.10403 1.59765 0
M  V30 3944 O 346.729 0.160632 1.93836 0
M  V30 3945 C 347.012 3.49769 0.85637 0
M  V30 3946 C 346.865 4.48606 -0.327546 0
M  V30 3947 C 348.184 4.05339 1.7143 0
M  V30 3948 H 345.303 0.721551 0.150112 0
M  V30 3949 H 347.945 1.87423 -0.311864 0
M  V30 3950 H 346.095 3.5931 1.47745 0
M  V30 3951 H 347.767 4.5108 -0.965618 0
M  V30 3952 H 346.01 4.22682 -0.975805 0
M  V30 3953 H 346.681 5.51995 0.0227149 0
M  V30 3954 H 349.157 3.98712 1.19031 0
M  V30 3955 H 348.033 5.11533 1.99061 0
M  V30 3956 H 348.294 3.51918 2.67593 0
M  V30 3957 N 347.353 -0.0568162 1.57498 0
M  V30 3958 C 348.583 -0.764515 1.91934 0
M  V30 3959 C 348.991 -1.70877 0.81227 0
M  V30 3960 O 348.334 -1.82351 -0.222213 0
M  V30 3961 C 348.396 -1.5994 3.21962 0
M  V30 3962 C 348.06 -0.822925 4.4953 0
M  V30 3963 C 349.057 -0.135464 5.19723 0
M  V30 3964 C 346.742 -0.785666 4.96117 0
M  V30 3965 C 348.736 0.578861 6.34766 0
M  V30 3966 C 346.423 -0.0675784 6.11063 0
M  V30 3967 C 347.421 0.613471 6.80239 0
M  V30 3968 O 347.109 1.31996 7.92989 0
M  V30 3969 H 346.841 -0.221647 0.63863 0
M  V30 3970 H 349.395 -0.0268218 2.05382 0
M  V30 3971 H 347.625 -2.38026 3.04763 0
M  V30 3972 H 349.314 -2.18715 3.41934 0
M  V30 3973 H 350.08 -0.155458 4.84751 0
M  V30 3974 H 345.959 -1.30524 4.42136 0
M  V30 3975 H 349.503 1.111 6.88696 0
M  V30 3976 H 345.4 -0.0455636 6.45484 0
M  V30 3977 H 346.168 1.23077 8.09194 0
M  V30 3978 N 348.832 -1.54138 -0.328536 0
M  V30 3979 C 350.109 -1.62749 -1.08499 0
M  V30 3980 C 350.489 -0.458198 -2.06067 0
M  V30 3981 O 349.837 0.548046 -2.2183 0
M  V30 3982 C 350.047 -2.99519 -1.79135 0
M  V30 3983 C 351.395 -3.55394 -2.32337 0
M  V30 3984 O 352.419 -3.01792 -1.89209 0
M  V30 3985 O 351.278 -4.49186 -3.11279 0
M  V30 3986 H 348.372 -0.65886 -0.499832 0
M  V30 3987 H 350.918 -1.66484 -0.328826 0
M  V30 3988 H 349.69 -3.76061 -1.08139 0
M  V30 3989 H 349.313 -2.99441 -2.61574 0
M  V30 3990 N 350.31 0.590341 -1.46126 0
M  V30 3991 C 351.535 1.37991 -1.54833 0
M  V30 3992 C 351.96 1.87163 -0.187506 0
M  V30 3993 O 351.318 1.61133 0.831008 0
M  V30 3994 C 351.366 2.54867 -2.55098 0
M  V30 3995 O 350.47 3.56061 -2.08073 0
M  V30 3996 H 349.811 0.411265 -0.521303 0
M  V30 3997 H 352.341 0.716819 -1.91632 0
M  V30 3998 H 352.351 3.01886 -2.74461 0
M  V30 3999 H 351.026 2.18429 -3.53923 0
M  V30 4000 H 349.603 3.15574 -1.98664 0
M  V30 4001 N 351.788 1.33704 0.83433 0
M  V30 4002 C 353.018 1.28281 1.6195 0
M  V30 4003 C 353.426 -0.147603 1.88623 0
M  V30 4004 O 352.769 -1.1016 1.47005 0
M  V30 4005 C 352.831 1.99386 2.99141 0
M  V30 4006 C 352.495 3.48681 2.95416 0
M  V30 4007 C 353.492 4.438 2.70809 0
M  V30 4008 C 351.177 3.90925 3.15409 0
M  V30 4009 C 353.171 5.79138 2.66229 0
M  V30 4010 C 350.858 5.26366 3.10454 0
M  V30 4011 C 351.856 6.20284 2.85895 0
M  V30 4012 O 351.544 7.53245 2.80852 0
M  V30 4013 H 351.276 0.44315 0.510484 0
M  V30 4014 H 353.83 1.76711 1.04702 0
M  V30 4015 H 352.06 1.45554 3.58261 0
M  V30 4016 H 353.749 1.87403 3.60049 0
M  V30 4017 H 354.515 4.12485 2.5511 0
M  V30 4018 H 350.394 3.18229 3.33543 0
M  V30 4019 H 353.938 6.52416 2.4698 0
M  V30 4020 H 349.835 5.57304 3.25703 0
M  V30 4021 H 350.603 7.62846 2.96661 0
M  V30 4022 N 353.266 -1.05314 1.17247 0
M  V30 4023 C 354.682 -1.30452 0.919473 0
M  V30 4024 C 354.882 -1.9703 -0.42209 0
M  V30 4025 O 353.938 -2.24311 -1.15935 0
M  V30 4026 C 355.251 -2.17551 2.07586 0
M  V30 4027 C 356.799 -2.30937 2.11275 0
M  V30 4028 C 357.274 -3.21396 3.26296 0
M  V30 4029 N 358.765 -3.28981 3.26076 0
M  V30 4030 C 359.5 -3.99095 4.11716 0
M  V30 4031 N 358.996 -4.71648 5.07465 0
M  V30 4032 N 360.789 -3.95247 3.9967 0
M  V30 4033 H 352.94 -0.604988 2.03602 0
M  V30 4034 H 355.203 -0.329368 0.888944 0
M  V30 4035 H 354.909 -1.75921 3.0454 0
M  V30 4036 H 354.783 -3.18182 2.02584 0
M  V30 4037 H 357.17 -2.71809 1.14907 0
M  V30 4038 H 357.251 -1.2994 2.20339 0
M  V30 4039 H 356.895 -2.81238 4.22927 0
M  V30 4040 H 356.825 -4.22395 3.14467 0
M  V30 4041 H 359.316 -2.77286 2.5675 0
M  V30 4042 H 359.629 -5.22705 5.6921 0
M  V30 4043 H 357.974 -4.70594 5.11435 0
M  V30 4044 H 361.165 -3.37691 3.24164 0
M  V30 4045 H 361.338 -4.4962 4.66632 0
M  V30 4046 N 354.744 -0.972509 -1.24016 0
M  V30 4047 C 355.691 -0.505969 -2.25186 0
M  V30 4048 C 356.661 0.451009 -1.5986 0
M  V30 4049 O 357.846 0.360307 -1.87367 0
M  V30 4050 C 354.986 0.193089 -3.44559 0
M  V30 4051 C 354.099 -0.803222 -4.24467 0
M  V30 4052 C 353.234 -0.0797793 -5.3114 0
M  V30 4053 C 352.273 -1.06583 -6.02749 0
M  V30 4054 N 351.41 -0.372074 -7.01113 0
M  V30 4055 H 356.25 -1.37351 -2.64459 0
M  V30 4056 H 353.787 -0.688419 -1.29997 0
M  V30 4057 H 355.745 0.615125 -4.1264 0
M  V30 4058 H 354.375 1.02455 -3.06109 0
M  V30 4059 H 353.427 -1.34368 -3.55878 0
M  V30 4060 H 354.739 -1.55494 -4.73944 0
M  V30 4061 H 353.893 0.400015 -6.0538 0
M  V30 4062 H 352.632 0.704597 -4.82583 0
M  V30 4063 H 351.637 -1.55645 -5.27309 0
M  V30 4064 H 352.862 -1.85074 -6.53395 0
M  V30 4065 H 350.808 0.393238 -6.5482 0
M  V30 4066 H 350.725 -1.06258 -7.48495 0
M  V30 4067 H 351.993 0.0855932 -7.79453 0
M  V30 4068 N 356.222 1.38976 -0.743202 0
M  V30 4069 C 357.447 2.05161 -0.303936 0
M  V30 4070 C 357.872 1.55677 1.05576 0
M  V30 4071 O 357.23 0.704131 1.67068 0
M  V30 4072 C 357.278 3.59138 -0.324373 0
M  V30 4073 O 356.382 4.06668 0.685204 0
M  V30 4074 H 355.723 0.649815 -0.136518 0
M  V30 4075 H 358.253 1.77852 -1.01142 0
M  V30 4076 H 358.263 4.07639 -0.171618 0
M  V30 4077 H 356.938 3.94515 -1.31647 0
M  V30 4078 H 355.515 3.69561 0.497913 0
M  V30 4079 N 357.7 0.491464 1.49741 0
M  V30 4080 C 358.647 -0.292027 2.28945 0
M  V30 4081 C 359.617 -0.968973 1.34908 0
M  V30 4082 O 360.802 -0.97748 1.6386 0
M  V30 4083 C 357.942 -1.35617 3.17336 0
M  V30 4084 C 357.055 -0.691957 4.26422 0
M  V30 4085 C 356.19 -1.73572 5.02042 0
M  V30 4086 C 355.229 -1.05286 6.02977 0
M  V30 4087 N 354.366 -2.0404 6.71798 0
M  V30 4088 H 359.206 0.389654 2.95442 0
M  V30 4089 H 356.743 0.204003 1.45679 0
M  V30 4090 H 358.701 -1.98502 3.66951 0
M  V30 4091 H 357.331 -2.00674 2.52844 0
M  V30 4092 H 356.383 0.0499523 3.80367 0
M  V30 4093 H 357.695 -0.153946 4.98562 0
M  V30 4094 H 356.849 -2.43987 5.55478 0
M  V30 4095 H 355.588 -2.30757 4.29654 0
M  V30 4096 H 354.593 -0.334446 5.48782 0
M  V30 4097 H 355.818 -0.487636 6.77347 0
M  V30 4098 H 353.764 -2.60205 6.02187 0
M  V30 4099 H 353.681 -1.55279 7.39881 0
M  V30 4100 H 354.949 -2.73772 7.29842 0
M  V30 4101 N 359.178 -1.55987 0.224894 0
M  V30 4102 C 360.403 -2.03232 -0.41369 0
M  V30 4103 C 360.828 -1.10359 -1.52323 0
M  V30 4104 O 360.186 -0.092395 -1.81064 0
M  V30 4105 C 360.234 -3.48682 -0.919405 0
M  V30 4106 O 359.338 -3.58947 -2.03054 0
M  V30 4107 H 358.679 -0.657428 -0.0931903 0
M  V30 4108 H 361.209 -2.01679 0.34451 0
M  V30 4109 H 361.219 -3.8907 -1.22835 0
M  V30 4110 H 359.894 -4.15761 -0.107339 0
M  V30 4111 H 358.471 -3.30448 -1.72796 0
M  V30 4112 N 360.656 0.0484629 -1.57525 0
M  V30 4113 C 361.603 1.05504 -2.05275 0
M  V30 4114 C 362.573 1.37084 -0.937927 0
M  V30 4115 O 363.758 1.47754 -1.2072 0
M  V30 4116 C 360.898 2.35676 -2.52093 0
M  V30 4117 C 360.011 2.10423 -3.77288 0
M  V30 4118 C 359.146 3.34327 -4.12794 0
M  V30 4119 C 358.185 3.04542 -5.30962 0
M  V30 4120 N 357.322 4.20841 -5.61994 0
M  V30 4121 H 362.162 0.640885 -2.91027 0
M  V30 4122 H 359.699 0.304854 -1.43906 0
M  V30 4123 H 361.657 3.11709 -2.77297 0
M  V30 4124 H 360.287 2.7485 -1.69285 0
M  V30 4125 H 359.339 1.24976 -3.59284 0
M  V30 4126 H 360.651 1.84438 -4.63448 0
M  V30 4127 H 359.805 4.1874 -4.39024 0
M  V30 4128 H 358.544 3.63408 -3.25247 0
M  V30 4129 H 357.549 2.18528 -5.04505 0
M  V30 4130 H 358.774 2.76758 -6.20146 0
M  V30 4131 H 356.72 4.4991 -4.77406 0
M  V30 4132 H 356.637 3.98212 -6.42622 0
M  V30 4133 H 357.905 5.06184 -5.92789 0
M  V30 4134 N 362.134 1.5431 0.320358 0
M  V30 4135 C 363.411 1.63322 1.07635 0
M  V30 4136 C 363.791 0.46912 2.05821 0
M  V30 4137 O 363.139 -0.536274 2.22118 0
M  V30 4138 C 363.349 3.00465 1.77544 0
M  V30 4139 C 364.697 3.56621 2.30449 0
M  V30 4140 O 365.721 3.02791 1.87606 0
M  V30 4141 O 364.58 4.5083 3.08892 0
M  V30 4142 H 361.674 0.661502 0.496331 0
M  V30 4143 H 364.22 1.66656 0.319992 0
M  V30 4144 H 362.992 3.76629 1.06143 0
M  V30 4145 H 362.615 3.00824 2.59982 0
M  V30 4146 N 363.613 -0.582584 1.46437 0
M  V30 4147 C 365.029 -0.905962 1.31394 0
M  V30 4148 C 365.229 -1.99468 0.285476 0
M  V30 4149 O 364.285 -2.50566 -0.311914 0
M  V30 4150 C 365.598 -1.3232 2.70022 0
M  V30 4151 C 367.146 -1.43604 2.78113 0
M  V30 4152 C 367.621 -1.88694 4.17323 0
M  V30 4153 N 369.112 -1.95887 4.19741 0
M  V30 4154 C 369.847 -2.32051 5.24347 0
M  V30 4155 N 369.343 -2.67006 6.39281 0
M  V30 4156 N 371.136 -2.32606 5.11713 0
M  V30 4157 H 363.287 0.1366 2.1196 0
M  V30 4158 H 365.55 -0.00155736 0.947999 0
M  V30 4159 H 365.256 -0.597242 3.46592 0
M  V30 4160 H 365.13 -2.28469 3.00136 0
M  V30 4161 H 367.517 -2.15286 2.01832 0
M  V30 4162 H 367.598 -0.457059 2.51684 0
M  V30 4163 H 367.242 -1.1759 4.941 0
M  V30 4164 H 367.172 -2.8755 4.4116 0
M  V30 4165 H 369.663 -1.71362 3.36814 0
M  V30 4166 H 369.976 -2.93554 7.14875 0
M  V30 4167 H 368.321 -2.64644 6.42642 0
M  V30 4168 H 371.512 -2.04721 4.2096 0
M  V30 4169 H 371.685 -2.60462 5.93349 0
M  V30 4170 N 365.091 -1.34144 -0.827227 0
M  V30 4171 C 366.038 -1.25364 -1.93785 0
M  V30 4172 C 367.008 -0.129774 -1.65592 0
M  V30 4173 O 368.193 -0.310024 -1.88264 0
M  V30 4174 C 365.333 -1.01064 -3.2997 0
M  V30 4175 C 364.446 -2.22185 -3.70484 0
M  V30 4176 C 363.581 -1.91203 -4.95595 0
M  V30 4177 C 362.62 -3.08491 -5.28677 0
M  V30 4178 N 361.757 -2.77421 -6.44967 0
M  V30 4179 H 366.597 -2.20347 -2.00627 0
M  V30 4180 H 364.134 -1.09558 -0.981608 0
M  V30 4181 H 366.092 -0.850139 -4.08446 0
M  V30 4182 H 364.722 -0.0975026 -3.22653 0
M  V30 4183 H 363.774 -2.4917 -2.87434 0
M  V30 4184 H 365.086 -3.0983 -3.90905 0
M  V30 4185 H 364.24 -1.71864 -5.81848 0
M  V30 4186 H 362.979 -1.00812 -4.77167 0
M  V30 4187 H 361.984 -3.28431 -4.40923 0
M  V30 4188 H 363.209 -3.99655 -5.49047 0
M  V30 4189 H 361.155 -1.89601 -6.28003 0
M  V30 4190 H 361.072 -3.58598 -6.6554 0
M  V30 4191 H 362.34 -2.61577 -7.34301 0
M  V30 4192 N 366.569 1.04691 -1.17803 0
M  V30 4193 C 367.517 2.14665 -0.895635 0
M  V30 4194 C 368.511 1.68806 0.141679 0
M  V30 4195 O 369.717 1.79999 -0.00587914 0
M  V30 4196 H 366.092 0.701038 -0.272121 0
M  V30 4197 H 368.063 2.35685 -1.83017 0
M  V30 4198 C 366.812 3.45019 -0.430962 0
M  V30 4199 H 366.135 3.8071 -1.22064 0
M  V30 4200 H 367.575 4.23125 -0.272301 0
M  V30 4201 C 366.034 3.25943 0.852207 0
M  V30 4202 O 366.564 3.5296 1.91786 0
M  V30 4203 N 364.77 2.79304 0.802346 0
M  V30 4204 H 364.317 2.57518 -0.0650788 0
M  V30 4205 H 364.275 2.66921 1.66134 0
M  V30 4206 N 368.047 0.979072 1.23499 0
M  V30 4207 C 368.995 0.510604 2.26926 0
M  V30 4208 C 369.989 -0.431691 1.63807 0
M  V30 4209 O 371.195 -0.30573 1.77385 0
M  V30 4210 H 367.57 0.146688 0.737554 0
M  V30 4211 H 369.541 1.39466 2.63803 0
M  V30 4212 C 368.29 -0.172658 3.47271 0
M  V30 4213 H 367.613 0.543331 3.96091 0
M  V30 4214 H 369.053 -0.464101 4.21452 0
M  V30 4215 C 367.512 -1.40345 3.06276 0
M  V30 4216 O 368.042 -2.49978 3.14442 0
M  V30 4217 N 366.248 -1.27362 2.61203 0
M  V30 4218 H 365.795 -0.381584 2.54758 0
M  V30 4219 H 365.753 -2.09822 2.34141 0
M  V30 4220 N 369.525 -1.3858 0.750561 0
M  V30 4221 C 370.472 -2.30483 0.120835 0
M  V30 4222 C 371.442 -1.50022 -0.712923 0
M  V30 4223 O 372.627 -1.78662 -0.669676 0
M  V30 4224 C 369.767 -3.36431 -0.768666 0
M  V30 4225 C 368.88 -4.31927 0.0793922 0
M  V30 4226 C 368.015 -5.24944 -0.81283 0
M  V30 4227 C 367.054 -6.12088 0.0390447 0
M  V30 4228 N 366.191 -6.97412 -0.809969 0
M  V30 4229 H 371.031 -2.83761 0.91015 0
M  V30 4230 H 368.568 -1.39707 0.460463 0
M  V30 4231 H 370.526 -3.96462 -1.29898 0
M  V30 4232 H 369.156 -2.8457 -1.5238 0
M  V30 4233 H 368.208 -3.73382 0.727303 0
M  V30 4234 H 369.52 -4.93319 0.737401 0
M  V30 4235 H 368.674 -5.90078 -1.41042 0
M  V30 4236 H 367.413 -4.63911 -1.50458 0
M  V30 4237 H 366.418 -5.45952 0.649328 0
M  V30 4238 H 367.643 -6.75189 0.727809 0
M  V30 4239 H 365.589 -6.38931 -1.48672 0
M  V30 4240 H 365.506 -7.55712 -0.208789 0
M  V30 4241 H 366.774 -7.66959 -1.39263 0
M  V30 4242 N 371.003 -0.499398 -1.49478 0
M  V30 4243 C 371.95 0.279881 -2.29097 0
M  V30 4244 C 372.92 0.961805 -1.3542 0
M  V30 4245 O 374.105 0.968777 -1.64376 0
M  V30 4246 C 371.245 1.33932 -3.18051 0
M  V30 4247 C 370.358 0.669333 -4.26783 0
M  V30 4248 C 369.493 1.70907 -5.02955 0
M  V30 4249 C 368.532 1.02087 -6.03527 0
M  V30 4250 N 367.669 2.00474 -6.7287 0
M  V30 4251 H 372.509 -0.405317 -2.95231 0
M  V30 4252 H 370.046 -0.211726 -1.45568 0
M  V30 4253 H 372.004 1.96553 -3.67998 0
M  V30 4254 H 370.634 1.9933 -2.53904 0
M  V30 4255 H 369.686 -0.0701234 -3.80335 0
M  V30 4256 H 370.998 0.127503 -4.98637 0
M  V30 4257 H 370.152 2.41037 -5.56764 0
M  V30 4258 H 368.891 2.28476 -4.30871 0
M  V30 4259 H 367.896 0.305338 -5.48951 0
M  V30 4260 H 369.121 0.451708 -6.77596 0
M  V30 4261 H 367.067 2.57007 -6.03559 0
M  V30 4262 H 366.984 1.51353 -7.40694 0
M  V30 4263 H 368.252 2.69897 -7.31284 0
M  V30 4264 N 372.481 1.55866 -0.233164 0
M  V30 4265 C 373.411 2.23783 0.666599 0
M  V30 4266 C 374.392 1.21343 1.19205 0
M  V30 4267 O 375.577 1.4996 1.23392 0
M  V30 4268 C 372.707 2.92671 1.86978 0
M  V30 4269 C 371.661 4.01682 1.47768 0
M  V30 4270 C 370.987 4.57926 2.76058 0
M  V30 4271 C 372.287 5.18126 0.658993 0
M  V30 4272 H 373.981 2.99232 0.100306 0
M  V30 4273 H 371.527 1.43924 0.046804 0
M  V30 4274 H 373.48 3.3888 2.50476 0
M  V30 4275 H 372.204 2.14688 2.46123 0
M  V30 4276 H 370.863 3.56222 0.866106 0
M  V30 4277 H 370.511 3.76659 3.33372 0
M  V30 4278 H 370.211 5.31505 2.50552 0
M  V30 4279 H 371.735 5.06859 3.40479 0
M  V30 4280 H 373.149 5.60644 1.19795 0
M  V30 4281 H 371.546 5.98009 0.500552 0
M  V30 4282 H 372.616 4.83763 -0.331856 0
M  V30 4283 N 373.959 -0.0401083 1.57549 0
M  V30 4284 C 374.869 -1.06133 2.0922 0
M  V30 4285 C 375.885 -1.40356 1.0284 0
M  V30 4286 O 377.061 -1.49897 1.34509 0
M  V30 4287 C 374.126 -2.34658 2.55218 0
M  V30 4288 C 373.187 -2.07117 3.76033 0
M  V30 4289 C 372.42 -3.29514 4.19829 0
M  V30 4290 O 372.643 -4.39794 3.63232 0
M  V30 4291 O 371.577 -3.15863 5.12362 0
M  V30 4292 H 375.403 -0.652244 2.96613 0
M  V30 4293 H 372.988 -0.256368 1.47184 0
M  V30 4294 H 374.87 -3.10239 2.85184 0
M  V30 4295 H 373.545 -2.74883 1.70941 0
M  V30 4296 H 372.452 -1.29139 3.51104 0
M  V30 4297 H 373.785 -1.71754 4.61261 0
M  V30 4298 N 375.437 -1.54477 -0.31217 0
M  V30 4299 C 376.685 -1.72884 -1.04668 0
M  V30 4300 C 377.006 -0.511477 -1.88173 0
M  V30 4301 O 376.276 0.474407 -1.90069 0
M  V30 4302 H 374.856 -0.637461 -0.389425 0
M  V30 4303 H 377.518 -1.91807 -0.345852 0
M  V30 4304 H 376.614 -2.61334 -1.70619 0
M  V30 4305 N 376.915 0.57481 -1.46744 0
M  V30 4306 C 377.862 1.68329 -1.57905 0
M  V30 4307 C 378.832 1.60625 -0.422927 0
M  V30 4308 O 380.017 1.79721 -0.640711 0
M  V30 4309 C 377.157 3.06665 -1.58274 0
M  V30 4310 C 376.27 3.24935 -2.84678 0
M  V30 4311 C 375.405 4.53566 -2.76499 0
M  V30 4312 C 374.444 4.65207 -3.97806 0
M  V30 4313 N 373.581 5.85172 -3.87967 0
M  V30 4314 H 378.421 1.58127 -2.52587 0
M  V30 4315 H 375.958 0.770552 -1.25303 0
M  V30 4316 H 377.916 3.86745 -1.56473 0
M  V30 4317 H 376.546 3.15745 -0.671194 0
M  V30 4318 H 375.598 2.38405 -2.96424 0
M  V30 4319 H 376.91 3.29403 -3.7456 0
M  V30 4320 H 376.064 5.41885 -2.72848 0
M  V30 4321 H 374.803 4.51548 -1.8427 0
M  V30 4322 H 373.808 3.75304 -4.0178 0
M  V30 4323 H 375.033 4.68997 -4.9114 0
M  V30 4324 H 372.979 5.84137 -2.98529 0
M  V30 4325 H 372.896 5.90943 -4.71511 0
M  V30 4326 H 374.164 6.759 -3.88303 0
M  V30 4327 N 378.394 1.34581 0.820102 0
M  V30 4328 C 379.64 1.27285 1.57881 0
M  V30 4329 C 379.973 -0.156137 1.93571 0
M  V30 4330 O 379.248 -1.10222 1.60254 0
M  V30 4331 C 379.531 2.16639 2.87645 0
M  V30 4332 C 379.384 3.68088 2.58517 0
M  V30 4333 C 380.703 2.05378 3.8924 0
M  V30 4334 H 377.822 0.463714 0.572833 0
M  V30 4335 H 380.464 1.64859 0.944539 0
M  V30 4336 H 378.614 1.84725 3.41773 0
M  V30 4337 H 380.286 4.10382 2.10676 0
M  V30 4338 H 378.529 3.89038 1.91917 0
M  V30 4339 H 379.2 4.2598 3.51063 0
M  V30 4340 H 381.676 2.33404 3.44473 0
M  V30 4341 H 380.552 2.7012 4.77835 0
M  V30 4342 H 380.813 1.0316 4.29896 0
M  V30 4343 N 379.872 -1.04064 1.18357 0
M  V30 4344 C 381.119 -1.77265 0.978947 0
M  V30 4345 C 381.447 -1.88189 -0.491428 0
M  V30 4346 O 380.702 -1.38653 -1.38108 0
M  V30 4347 C 381.001 -3.20634 1.57888 0
M  V30 4348 C 380.667 -3.29743 3.07539 0
M  V30 4349 C 379.329 -3.31937 3.48384 0
M  V30 4350 C 381.681 -3.29841 4.03552 0
M  V30 4351 C 379.009 -3.3187 4.83818 0
M  V30 4352 C 381.361 -3.31313 5.38901 0
M  V30 4353 C 380.025 -3.31799 5.79194 0
M  V30 4354 H 379.295 -0.648659 0.358222 0
M  V30 4355 H 381.942 -1.22225 1.47422 0
M  V30 4356 H 380.247 -3.78675 1.00561 0
M  V30 4357 H 381.944 -3.75917 1.39598 0
M  V30 4358 H 378.534 -3.28757 2.74986 0
M  V30 4359 H 382.718 -3.27337 3.73047 0
M  V30 4360 H 377.974 -3.30562 5.14333 0
M  V30 4361 H 382.148 -3.30338 6.13066 0
M  V30 4362 H 379.775 -3.315 6.84114 0
M  V30 4363 N 381.35 -0.985608 -1.22978 0
M  V30 4364 C 382.596 -0.65836 -1.91816 0
M  V30 4365 C 382.929 0.806692 -1.76653 0
M  V30 4366 O 382.204 1.58252 -1.13078 0
M  V30 4367 C 382.487 -1.056 -3.44268 0
M  V30 4368 C 382.34 -2.57906 -3.68516 0
M  V30 4369 C 383.659 -0.603781 -4.35939 0
M  V30 4370 H 380.778 -0.24065 -0.696604 0
M  V30 4371 H 383.42 -1.22783 -1.44998 0
M  V30 4372 H 381.57 -0.571445 -3.84274 0
M  V30 4373 H 383.242 -3.13976 -3.3796 0
M  V30 4374 H 381.485 -3.00305 -3.13048 0
M  V30 4375 H 382.156 -2.80779 -4.75255 0
M  V30 4376 H 384.632 -1.01987 -4.03408 0
M  V30 4377 H 383.508 -0.910383 -5.41298 0
M  V30 4378 H 383.769 0.495761 -4.39312 0
M  V30 4379 N 382.828 1.3818 -0.7579 0
M  V30 4380 C 384.074 2.00316 -0.316453 0
M  V30 4381 C 384.407 1.60026 1.10025 0
M  V30 4382 O 383.682 0.839835 1.75434 0
M  V30 4383 C 383.965 3.57349 -0.444245 0
M  V30 4384 C 383.818 4.07591 -1.90236 0
M  V30 4385 C 385.137 4.3981 0.1598 0
M  V30 4386 H 382.256 0.727741 -0.116459 0
M  V30 4387 H 384.898 1.6406 -0.958352 0
M  V30 4388 H 383.048 3.88365 0.102233 0
M  V30 4389 H 384.72 3.87199 -2.50748 0
M  V30 4390 H 382.963 3.60297 -2.41595 0
M  V30 4391 H 383.634 5.16677 -1.94291 0
M  V30 4392 H 386.11 4.14971 -0.306314 0
M  V30 4393 H 384.986 5.48885 0.0401675 0
M  V30 4394 H 385.247 4.24102 1.24859 0
M  V30 4395 N 384.306 0.507319 1.49211 0
M  V30 4396 C 385.552 -0.0350047 2.0277 0
M  V30 4397 C 385.885 -1.3606 1.38569 0
M  V30 4398 O 385.16 -1.87321 0.523542 0
M  V30 4399 C 385.443 -0.180916 3.59645 0
M  V30 4400 C 385.296 1.16825 4.34364 0
M  V30 4401 C 386.615 -0.918558 4.30407 0
M  V30 4402 H 383.734 -0.0112473 0.736914 0
M  V30 4403 H 386.376 0.659956 1.7817 0
M  V30 4404 H 384.526 -0.772826 3.80736 0
M  V30 4405 H 386.198 1.79952 4.24753 0
M  V30 4406 H 384.441 1.75594 3.96673 0
M  V30 4407 H 385.112 1.01939 5.42506 0
M  V30 4408 H 387.588 -0.41649 4.1401 0
M  V30 4409 H 386.464 -0.989505 5.39907 0
M  V30 4410 H 386.725 -1.96373 3.96093 0
M  V30 4411 N 385.784 -1.5574 0.241426 0
M  V30 4412 C 386.747 -2.19877 -0.647063 0
M  V30 4413 C 387.747 -1.16642 -1.10686 0
M  V30 4414 O 388.937 -1.41757 -1.01245 0
M  V30 4415 C 386.069 -2.83797 -1.88871 0
M  V30 4416 H 387.262 -2.99772 -0.087574 0
M  V30 4417 H 384.815 -1.56298 -0.00813574 0
M  V30 4418 H 385.55 -2.07824 -2.48957 0
M  V30 4419 H 385.335 -3.59414 -1.56728 0
M  V30 4420 H 386.825 -3.32898 -2.52129 0
M  V30 4421 N 387.262 0.0317525 -1.57568 0
M  V30 4422 C 388.508 0.724175 -1.8943 0
M  V30 4423 C 388.841 1.75149 -0.838836 0
M  V30 4424 O 388.116 1.93948 0.146422 0
M  V30 4425 C 388.399 1.39615 -3.31933 0
M  V30 4426 C 388.252 0.382537 -4.4817 0
M  V30 4427 C 389.571 2.33084 -3.73309 0
M  V30 4428 H 386.69 0.261797 -0.688935 0
M  V30 4429 H 389.332 -0.013017 -1.89996 0
M  V30 4430 H 387.482 2.02451 -3.31581 0
M  V30 4431 H 389.154 -0.243689 -4.60656 0
M  V30 4432 H 387.397 -0.29844 -4.32772 0
M  V30 4433 H 388.068 0.891145 -5.44759 0
M  V30 4434 H 390.544 1.80295 -3.7501 0
M  V30 4435 H 389.42 2.77084 -4.73831 0
M  V30 4436 H 389.681 3.19643 -3.05419 0
M  V30 4437 N 388.74 1.54641 0.303973 0
M  V30 4438 C 389.987 1.7378 1.03955 0
M  V30 4439 C 390.315 0.521986 1.87365 0
M  V30 4440 O 389.57 -0.496099 1.89308 0
M  V30 4441 C 389.869 2.97753 1.97681 0
M  V30 4442 C 389.535 4.31671 1.30271 0
M  V30 4443 C 388.197 4.68075 1.11619 0
M  V30 4444 C 390.549 5.147 0.82055 0
M  V30 4445 C 387.877 5.8509 0.434304 0
M  V30 4446 C 390.229 6.32416 0.152395 0
M  V30 4447 C 388.893 6.67484 -0.0461067 0
M  V30 4448 H 388.163 0.635908 0.380398 0
M  V30 4449 H 390.81 1.88896 0.314718 0
M  V30 4450 H 389.115 2.77406 2.76682 0
M  V30 4451 H 390.812 3.09756 2.54661 0
M  V30 4452 H 387.402 4.03041 1.45795 0
M  V30 4453 H 391.586 4.87077 0.952374 0
M  V30 4454 H 386.842 6.10806 0.269495 0
M  V30 4455 H 391.016 6.96023 -0.229126 0
M  V30 4456 H 388.643 7.58011 -0.576494 0
M  V30 4457 N 390.218 -0.567019 1.47046 0
M  V30 4458 C 391.465 -1.32462 1.53167 0
M  V30 4459 C 391.793 -1.93571 0.189841 0
M  V30 4460 O 391.048 -1.77865 -0.816243 0
M  V30 4461 C 391.347 -2.4623 2.59047 0
M  V30 4462 C 391.013 -2.03014 4.02612 0
M  V30 4463 C 389.675 -1.90944 4.41694 0
M  V30 4464 C 392.027 -1.69895 4.92732 0
M  V30 4465 C 389.355 -1.44035 5.68745 0
M  V30 4466 C 391.707 -1.2446 6.20236 0
M  V30 4467 C 390.371 -1.10979 6.5821 0
M  V30 4468 H 389.641 -0.484713 0.560477 0
M  V30 4469 H 392.288 -0.636888 1.80599 0
M  V30 4470 H 390.593 -3.20517 2.25335 0
M  V30 4471 H 392.29 -3.04427 2.61008 0
M  V30 4472 H 388.88 -2.13348 3.71726 0
M  V30 4473 H 393.064 -1.78098 4.63244 0
M  V30 4474 H 388.32 -1.32254 5.96925 0
M  V30 4475 H 392.494 -0.978924 6.89485 0
M  V30 4476 H 390.121 -0.744078 7.5655 0
M  V30 4477 N 391.696 -1.35014 -0.812953 0
M  V30 4478 C 392.942 -1.2812 -1.57204 0
M  V30 4479 C 393.275 0.145869 -1.93651 0
M  V30 4480 O 392.55 1.0937 -1.60836 0
M  V30 4481 C 392.833 -2.18162 -2.86492 0
M  V30 4482 C 392.686 -3.69454 -2.56561 0
M  V30 4483 C 394.005 -2.07439 -3.88145 0
M  V30 4484 H 391.124 -0.466746 -0.570366 0
M  V30 4485 H 393.766 -1.65357 -0.935783 0
M  V30 4486 H 391.916 -1.86535 -3.40789 0
M  V30 4487 H 393.588 -4.11493 -2.08497 0
M  V30 4488 H 391.831 -3.9005 -1.89851 0
M  V30 4489 H 392.502 -4.27835 -3.48799 0
M  V30 4490 H 394.978 -2.35228 -3.4323 0
M  V30 4491 H 393.854 -2.7265 -4.76396 0
M  V30 4492 H 394.115 -1.05439 -4.29343 0
M  V30 4493 N 393.175 1.03435 -1.18907 0
M  V30 4494 C 394.415 1.78302 -0.999391 0
M  V30 4495 C 394.779 1.86353 0.462219 0
M  V30 4496 O 395.98 2.57489 0.771543 0
M  V30 4497 C 394.251 3.17362 -1.64365 0
M  V30 4498 S 395.81 4.08488 -1.6026 0
M  V30 4499 H 392.628 0.613861 -0.358742 0
M  V30 4500 H 395.23 1.23979 -1.51161 0
M  V30 4501 H 393.934 3.09116 -2.69955 0
M  V30 4502 H 393.465 3.76762 -1.13199 0
M  V30 4503 H 395.48 4.92274 -0.622932 0
M  V30 4504 N 394.653 0.992116 1.22453 0
M  V30 4505 C 395.9 0.667534 1.91181 0
M  V30 4506 C 396.228 -0.800317 1.77271 0
M  V30 4507 O 395.483 -1.59421 1.13505 0
M  V30 4508 C 395.782 1.01832 3.42586 0
M  V30 4509 C 395.448 2.47831 3.76684 0
M  V30 4510 C 394.11 2.87729 3.85701 0
M  V30 4511 C 396.462 3.42466 3.92895 0
M  V30 4512 C 393.79 4.21252 4.08367 0
M  V30 4513 C 396.142 4.75648 4.17064 0
M  V30 4514 C 394.806 5.15288 4.24305 0
M  V30 4515 H 394.076 0.244268 0.699581 0
M  V30 4516 H 396.723 1.24816 1.45235 0
M  V30 4517 H 395.028 0.355769 3.90181 0
M  V30 4518 H 396.725 0.745228 3.94014 0
M  V30 4519 H 393.315 2.15905 3.70247 0
M  V30 4520 H 397.499 3.12814 3.85307 0
M  V30 4521 H 392.755 4.51554 4.122 0
M  V30 4522 H 396.929 5.48924 4.2855 0
M  V30 4523 H 394.556 6.18769 4.41621 0
M  V30 4524 N 396.131 -1.37776 0.765217 0
M  V30 4525 C 397.094 -2.28686 0.153416 0
M  V30 4526 C 398.094 -1.47727 -0.635081 0
M  V30 4527 O 399.284 -1.68027 -0.459632 0
M  V30 4528 C 396.416 -3.31608 -0.790495 0
M  V30 4529 H 397.609 -2.84297 0.954723 0
M  V30 4530 H 395.162 -1.46932 0.53299 0
M  V30 4531 H 395.897 -2.81109 -1.61705 0
M  V30 4532 H 395.682 -3.9144 -0.227348 0
M  V30 4533 H 397.172 -3.99559 -1.21419 0
M  V30 4534 N 397.609 -0.515225 -1.4894 0
M  V30 4535 C 399.02 -0.0710067 -1.86565 0
M  V30 4536 C 399.371 1.34733 -1.42623 0
M  V30 4537 O 398.496 2.00653 -0.810379 0
M  V30 4538 C 399.091 -0.122083 -3.3858 0
M  V30 4539 C 397.65 0.266863 -3.75453 0
M  V30 4540 C 396.797 -0.488376 -2.72966 0
M  V30 4541 H 399.748 -0.727266 -1.41055 0
M  V30 4542 H 399.769 0.669818 -3.74558 0
M  V30 4543 H 399.281 -1.15448 -3.70531 0
M  V30 4544 H 397.382 1.30196 -3.49113 0
M  V30 4545 H 397.495 -0.0624811 -4.79059 0
M  V30 4546 H 395.859 0.0635622 -2.54621 0
M  V30 4547 H 396.642 -1.52113 -3.07761 0
M  V30 4548 N 399.087 1.5561 -0.249682 0
M  V30 4549 C 400.334 1.99011 0.374287 0
M  V30 4550 C 400.662 1.13785 1.57744 0
M  V30 4551 O 399.917 0.189326 1.94782 0
M  V30 4552 C 400.216 3.4775 0.824887 0
M  V30 4553 C 399.882 4.50086 -0.270819 0
M  V30 4554 C 398.544 4.77791 -0.571746 0
M  V30 4555 C 400.896 5.11312 -1.01041 0
M  V30 4556 C 398.224 5.63997 -1.61629 0
M  V30 4557 C 400.576 5.98651 -2.0445 0
M  V30 4558 C 399.24 6.24688 -2.35204 0
M  V30 4559 H 398.51 0.728233 0.136961 0
M  V30 4560 H 401.157 1.88122 -0.358087 0
M  V30 4561 H 399.462 3.55985 1.63651 0
M  V30 4562 H 401.159 3.78721 1.31799 0
M  V30 4563 H 397.749 4.28592 -0.026136 0
M  V30 4564 H 401.933 4.89953 -0.791177 0
M  V30 4565 H 397.189 5.82425 -1.85988 0
M  V30 4566 H 401.363 6.45135 -2.62248 0
M  V30 4567 H 398.99 6.91281 -3.16282 0
M  V30 4568 N 400.565 -0.0233959 1.57583 0
M  V30 4569 C 401.515 -1.03023 2.03397 0
M  V30 4570 C 402.499 -1.31701 0.924315 0
M  V30 4571 O 403.691 -1.31191 1.18819 0
M  V30 4572 C 400.82 -2.32961 2.52159 0
M  V30 4573 C 399.906 -2.07349 3.69956 0
M  V30 4574 N 400.297 -1.51814 4.82479 0
M  V30 4575 C 398.595 -2.37606 3.77438 0
M  V30 4576 C 399.296 -1.42136 5.64068 0
M  V30 4577 N 398.272 -1.89891 5.09355 0
M  V30 4578 H 402.074 -0.594962 2.87815 0
M  V30 4579 H 399.588 -0.229586 1.60769 0
M  V30 4580 H 401.585 -3.05906 2.83244 0
M  V30 4581 H 400.245 -2.77162 1.69149 0
M  V30 4582 H 401.256 -1.20008 5.03804 0
M  V30 4583 H 397.933 -2.84842 3.05239 0
M  V30 4584 H 399.323 -0.996405 6.64471 0
M  V30 4585 N 402.043 -1.548 -0.295768 0
M  V30 4586 C 403.29 -1.74329 -1.03032 0
M  V30 4587 C 403.618 -0.531915 -1.87085 0
M  V30 4588 O 402.873 0.486052 -1.89568 0
M  V30 4589 C 403.172 -2.98797 -1.961 0
M  V30 4590 C 402.838 -4.32356 -1.2798 0
M  V30 4591 C 401.5 -4.68661 -1.09135 0
M  V30 4592 C 403.852 -5.15128 -0.793243 0
M  V30 4593 C 401.18 -5.85312 -0.403269 0
M  V30 4594 C 403.532 -6.32488 -0.118854 0
M  V30 4595 C 402.196 -6.6745 0.0815043 0
M  V30 4596 H 401.466 -0.637916 -0.37702 0
M  V30 4597 H 404.113 -1.8906 -0.304696 0
M  V30 4598 H 402.418 -2.78869 -2.75207 0
M  V30 4599 H 404.115 -3.11102 -2.53015 0
M  V30 4600 H 400.705 -4.03808 -1.43655 0
M  V30 4601 H 404.889 -4.87575 -0.92653 0
M  V30 4602 H 400.145 -6.1094 -0.237098 0
M  V30 4603 H 404.319 -6.95892 0.266035 0
M  V30 4604 H 401.946 -7.57695 0.616685 0
M  V30 4605 N 403.521 0.559213 -1.47345 0
M  V30 4606 C 404.484 1.64854 -1.59235 0
M  V30 4607 C 405.484 1.53851 -0.467607 0
M  V30 4608 O 406.674 1.58045 -0.732617 0
M  V30 4609 C 403.806 3.04388 -1.53496 0
M  V30 4610 H 404.999 1.55662 -2.56339 0
M  V30 4611 H 402.552 0.778973 -1.35505 0
M  V30 4612 H 403.287 3.19115 -0.577604 0
M  V30 4613 H 403.072 3.13783 -2.35123 0
M  V30 4614 H 404.562 3.83642 -1.6495 0
M  V30 4615 N 404.999 1.35443 0.805782 0
M  V30 4616 C 406.415 1.15499 1.10146 0
M  V30 4617 C 406.615 -0.0319975 2.01475 0
M  V30 4618 O 405.671 -0.70236 2.42535 0
M  V30 4619 C 406.984 2.45833 1.73166 0
M  V30 4620 C 408.532 2.52047 1.85583 0
M  V30 4621 C 409.007 3.82427 2.52019 0
M  V30 4622 N 410.498 3.83682 2.59504 0
M  V30 4623 C 411.233 4.81294 3.11679 0
M  V30 4624 N 410.729 5.89294 3.64287 0
M  V30 4625 N 412.522 4.6873 3.1024 0
M  V30 4626 H 404.673 2.11469 0.198678 0
M  V30 4627 H 406.936 0.93594 0.150731 0
M  V30 4628 H 406.642 3.32874 1.13526 0
M  V30 4629 H 406.516 2.6044 2.72857 0
M  V30 4630 H 408.903 1.65435 2.44367 0
M  V30 4631 H 408.984 2.41354 0.847455 0
M  V30 4632 H 408.628 4.69437 1.93885 0
M  V30 4633 H 408.558 3.90409 3.53395 0
M  V30 4634 H 411.049 3.05648 2.22234 0
M  V30 4635 H 411.362 6.59768 4.02401 0
M  V30 4636 H 409.707 5.92985 3.62483 0
M  V30 4637 H 412.898 3.83496 2.68419 0
M  V30 4638 H 413.071 5.44965 3.50596 0
M  V30 4639 N 406.477 -1.02803 1.19454 0
M  V30 4640 C 407.723 -1.76478 0.999171 0
M  V30 4641 C 408.056 -1.88456 -0.468828 0
M  V30 4642 O 407.331 -1.40198 -1.34814 0
M  V30 4643 C 407.614 -3.19044 1.66981 0
M  V30 4644 C 407.467 -3.14932 3.21151 0
M  V30 4645 C 408.786 -4.17456 1.39349 0
M  V30 4646 H 405.905 -0.640614 0.364393 0
M  V30 4647 H 408.547 -1.20005 1.47305 0
M  V30 4648 H 406.697 -3.67263 1.2669 0
M  V30 4649 H 408.369 -2.74605 3.70661 0
M  V30 4650 H 406.612 -2.52625 3.52652 0
M  V30 4651 H 407.283 -4.1566 3.63223 0
M  V30 4652 H 409.759 -3.77842 1.74283 0
M  V30 4653 H 408.635 -5.154 1.88823 0
M  V30 4654 H 408.896 -4.40949 0.318813 0
M  V30 4655 N 407.956 -0.998596 -1.21925 0
M  V30 4656 C 409.367 -0.711939 -1.72593 0
M  V30 4657 C 409.718 0.770842 -1.80423 0
M  V30 4658 O 408.843 1.60237 -1.4544 0
M  V30 4659 C 409.438 -1.28567 -3.13458 0
M  V30 4660 C 407.997 -1.04828 -3.61508 0
M  V30 4661 C 407.144 -1.4024 -2.39224 0
M  V30 4662 H 410.095 -1.17027 -1.07193 0
M  V30 4663 H 410.116 -0.667098 -3.74607 0
M  V30 4664 H 409.628 -2.36486 -3.07727 0
M  V30 4665 H 407.729 0.0140383 -3.72597 0
M  V30 4666 H 407.842 -1.71566 -4.47328 0
M  V30 4667 H 406.206 -0.821077 -2.41103 0
M  V30 4668 H 406.989 -2.49176 -2.36149 0
M  V30 4669 N 409.434 1.37368 -0.772513 0
M  V30 4670 C 410.664 2.03647 -0.348082 0
M  V30 4671 C 411.072 1.58392 1.03482 0
M  V30 4672 O 410.415 0.760921 1.672 0
M  V30 4673 C 410.477 3.58131 -0.313404 0
M  V30 4674 C 410.141 4.2652 -1.64102 0
M  V30 4675 C 411.138 4.50587 -2.5936 0
M  V30 4676 C 408.823 4.64335 -1.91567 0
M  V30 4677 C 410.817 5.11526 -3.80289 0
M  V30 4678 C 408.504 5.24996 -3.12766 0
M  V30 4679 C 409.502 5.48529 -4.06946 0
M  V30 4680 O 409.19 6.07921 -5.26011 0
M  V30 4681 H 408.922 0.660538 -0.143753 0
M  V30 4682 H 411.476 1.76669 -1.04772 0
M  V30 4683 H 409.706 3.84159 0.442617 0
M  V30 4684 H 411.395 4.05813 0.0840613 0
M  V30 4685 H 412.161 4.21784 -2.39423 0
M  V30 4686 H 408.04 4.45353 -1.19088 0
M  V30 4687 H 411.584 5.29811 -4.53813 0
M  V30 4688 H 407.481 5.53223 -3.32588 0
M  V30 4689 H 408.249 6.26398 -5.26847 0
M  V30 4690 N 410.912 0.523116 1.48665 0
M  V30 4691 C 412.14 -0.0096312 2.06898 0
M  V30 4692 C 412.555 -1.28784 1.38059 0
M  V30 4693 O 411.912 -1.76453 0.465893 0
M  V30 4694 C 411.963 -0.244386 3.60673 0
M  V30 4695 O 411.684 0.983172 4.26925 0
M  V30 4696 C 413.185 -0.818289 4.35682 0
M  V30 4697 H 410.405 0.0304161 0.67031 0
M  V30 4698 H 412.949 0.726799 1.91149 0
M  V30 4699 H 411.104 -0.930847 3.76051 0
M  V30 4700 H 411.518 0.759653 5.1897 0
M  V30 4701 H 412.992 -0.93201 5.44075 0
M  V30 4702 H 413.469 -1.82153 3.99646 0
M  V30 4703 H 414.075 -0.168609 4.24966 0
M  V30 4704 N 412.39 -1.55475 0.257931 0
M  V30 4705 C 413.34 -2.18506 -0.651094 0
M  V30 4706 C 414.324 -1.14431 -1.13112 0
M  V30 4707 O 415.516 -1.40305 -1.07905 0
M  V30 4708 C 412.645 -2.89653 -1.84272 0
M  V30 4709 C 411.731 -4.00996 -1.38068 0
M  V30 4710 N 412.122 -5.01816 -0.633609 0
M  V30 4711 C 410.42 -4.13753 -1.66506 0
M  V30 4712 C 411.121 -5.80371 -0.392922 0
M  V30 4713 N 410.097 -5.3505 -0.960359 0
M  V30 4714 H 413.899 -2.93811 -0.0722883 0
M  V30 4715 H 411.413 -1.62286 0.0607256 0
M  V30 4716 H 413.41 -3.33245 -2.50506 0
M  V30 4717 H 412.07 -2.15854 -2.42564 0
M  V30 4718 H 413.081 -5.17128 -0.282626 0
M  V30 4719 H 409.758 -3.51133 -2.25858 0
M  V30 4720 H 411.148 -6.7159 0.204235 0
M  V30 4721 N 413.868 0.0150385 -1.57593 0
M  V30 4722 C 415.093 0.718067 -1.94573 0
M  V30 4723 C 415.518 1.6734 -0.859005 0
M  V30 4724 O 414.876 1.80362 0.184147 0
M  V30 4725 C 414.924 1.43918 -3.30636 0
M  V30 4726 O 414.028 2.55299 -3.23876 0
M  V30 4727 H 413.369 0.192125 -0.635597 0
M  V30 4728 H 415.899 -0.0336708 -2.04572 0
M  V30 4729 H 415.909 1.80598 -3.65853 0
M  V30 4730 H 414.584 0.738619 -4.09289 0
M  V30 4731 H 413.161 2.21058 -3.00312 0
M  V30 4732 N 415.346 1.54954 0.287554 0
M  V30 4733 C 416.278 1.83224 1.37701 0
M  V30 4734 C 417.291 0.715898 1.46215 0
M  V30 4735 O 418.48 0.993565 1.48292 0
M  V30 4736 C 415.58 1.96723 2.75959 0
M  V30 4737 C 414.753 3.27253 2.90215 0
M  V30 4738 C 413.812 3.30998 4.09056 0
M  V30 4739 O 412.838 4.04457 4.00503 0
M  V30 4740 N 414.04 2.57353 5.20336 0
M  V30 4741 H 416.805 2.77254 1.138 0
M  V30 4742 H 414.366 1.54694 0.477652 0
M  V30 4743 H 416.358 1.96615 3.5373 0
M  V30 4744 H 414.928 1.09626 2.92747 0
M  V30 4745 H 414.148 3.40022 1.99447 0
M  V30 4746 H 415.436 4.13365 2.96659 0
M  V30 4747 H 414.834 1.97327 5.30169 0
M  V30 4748 H 413.391 2.62984 5.96391 0
M  V30 4749 N 416.824 -0.551391 1.4764 0
M  V30 4750 C 418.052 -1.33357 1.58189 0
M  V30 4751 C 418.467 -1.87342 0.234199 0
M  V30 4752 O 417.824 -1.65301 -0.77343 0
M  V30 4753 C 417.875 -2.49942 2.61173 0
M  V30 4754 O 417.596 -1.98187 3.90709 0
M  V30 4755 C 419.097 -3.42072 2.8196 0
M  V30 4756 H 416.317 -0.40631 0.533998 0
M  V30 4757 H 418.861 -0.667367 1.93304 0
M  V30 4758 H 417.016 -3.12489 2.28975 0
M  V30 4759 H 417.43 -2.74342 4.47031 0
M  V30 4760 H 418.904 -4.20278 3.57869 0
M  V30 4761 H 419.381 -3.95978 1.89995 0
M  V30 4762 H 419.987 -2.85336 3.15378 0
M  V30 4763 N 418.302 -1.35869 -0.798587 0
M  V30 4764 C 419.25 -1.29491 -1.93222 0
M  V30 4765 C 420.244 -0.18836 -1.6835 0
M  V30 4766 O 421.45 -0.354822 -1.76468 0
M  V30 4767 H 417.825 -0.402901 -0.63496 0
M  V30 4768 H 419.796 -2.25247 -1.9572 0
M  V30 4769 C 418.545 -1.09184 -3.30112 0
M  V30 4770 H 417.868 -1.93574 -3.49813 0
M  V30 4771 H 419.308 -1.08766 -4.09812 0
M  V30 4772 C 417.767 0.203959 -3.36282 0
M  V30 4773 O 418.297 1.19699 -3.83451 0
M  V30 4774 N 416.503 0.245488 -2.89561 0
M  V30 4775 H 416.05 -0.563223 -2.51367 0
M  V30 4776 H 416.008 1.11219 -2.94071 0
M  V30 4777 N 419.78 1.02168 -1.19998 0
M  V30 4778 C 420.728 2.12717 -0.940967 0
M  V30 4779 C 421.722 1.69069 0.105841 0
M  V30 4780 O 422.928 1.79946 -0.0440583 0
M  V30 4781 H 419.303 0.695108 -0.28693 0
M  V30 4782 H 421.274 2.3175 -1.87975 0
M  V30 4783 C 420.023 3.44027 -0.504049 0
M  V30 4784 H 419.346 3.78036 -1.30112 0
M  V30 4785 H 420.786 4.22452 -0.361991 0
M  V30 4786 C 419.245 3.27678 0.782878 0
M  V30 4787 O 419.775 3.56949 1.84256 0
M  V30 4788 N 417.981 2.80943 0.742921 0
M  V30 4789 H 417.528 2.57322 -0.119687 0
M  V30 4790 H 417.486 2.70385 1.60435 0
M  V30 4791 N 421.258 1.00505 1.21394 0
M  V30 4792 C 422.205 0.565496 2.23765 0
M  V30 4793 C 423.175 -0.408466 1.60999 0
M  V30 4794 O 424.36 -0.310503 1.88257 0
M  V30 4795 C 421.5 -0.101667 3.4495 0
M  V30 4796 C 420.613 0.915479 4.22188 0
M  V30 4797 C 419.748 0.220574 5.30742 0
M  V30 4798 C 418.787 1.22527 5.99711 0
M  V30 4799 N 417.924 0.557831 6.9988 0
M  V30 4800 H 422.764 1.44314 2.60725 0
M  V30 4801 H 420.301 0.722643 1.28126 0
M  V30 4802 H 422.259 -0.505504 4.14126 0
M  V30 4803 H 420.889 -0.94303 3.08718 0
M  V30 4804 H 419.941 1.43756 3.52191 0
M  V30 4805 H 421.253 1.68005 4.69655 0
M  V30 4806 H 420.407 -0.239368 6.06228 0
M  V30 4807 H 419.146 -0.576401 4.84282 0
M  V30 4808 H 418.151 1.69571 5.22997 0
M  V30 4809 H 419.376 2.02332 6.48258 0
M  V30 4810 H 417.322 -0.219486 6.55633 0
M  V30 4811 H 417.239 1.26065 7.45415 0
M  V30 4812 H 418.507 0.121095 7.79406 0
M  V30 4813 N 422.737 -1.36956 0.779787 0
M  V30 4814 C 423.965 -2.03755 0.359398 0
M  V30 4815 C 424.38 -1.58807 -1.02106 0
M  V30 4816 O 423.737 -0.773024 -1.6532 0
M  V30 4817 C 423.788 -3.59251 0.402568 0
M  V30 4818 O 423.509 -4.02557 1.72858 0
M  V30 4819 C 425.01 -4.43291 -0.0284068 0
M  V30 4820 H 422.23 -0.654148 0.149437 0
M  V30 4821 H 424.774 -1.75128 1.05595 0
M  V30 4822 H 422.929 -3.86621 -0.245478 0
M  V30 4823 H 423.343 -4.97111 1.67275 0
M  V30 4824 H 424.817 -5.51975 0.0529466 0
M  V30 4825 H 425.294 -4.25719 -1.07982 0
M  V30 4826 H 425.9 -4.21163 0.591758 0
M  V30 4827 N 424.215 -0.530993 -1.48385 0
M  V30 4828 C 425.492 0.0671788 -1.95485 0
M  V30 4829 C 425.872 1.51191 -1.47324 0
M  V30 4830 O 425.22 2.17507 -0.700202 0
M  V30 4831 C 425.43 -0.0511206 -3.48963 0
M  V30 4832 C 426.778 0.107632 -4.24464 0
M  V30 4833 O 427.802 0.0226248 -3.56193 0
M  V30 4834 O 426.661 0.285972 -5.45751 0
M  V30 4835 H 423.755 0.0787365 -0.823243 0
M  V30 4836 H 426.301 -0.595662 -1.58902 0
M  V30 4837 H 425.073 -1.05747 -3.7674 0
M  V30 4838 H 424.696 0.650525 -3.92242 0
M  V30 4839 N 425.693 1.55336 -0.266172 0
M  V30 4840 C 426.933 2.01303 0.354459 0
M  V30 4841 C 427.297 1.15046 1.53715 0
M  V30 4842 O 428.498 1.50554 2.22681 0
M  V30 4843 C 426.769 3.49748 0.735579 0
M  V30 4844 S 428.328 4.1771 1.34401 0
M  V30 4845 H 425.146 0.702333 0.110674 0
M  V30 4846 H 427.748 1.91653 -0.385916 0
M  V30 4847 H 426.452 4.10181 -0.134196 0
M  V30 4848 H 425.983 3.63364 1.50764 0
M  V30 4849 H 427.998 4.20594 2.63278 0
M  V30 4850 N 427.171 -0.0066808 1.57599 0
M  V30 4851 C 428.587 -0.36267 1.55425 0
M  V30 4852 C 428.787 -1.75209 0.995187 0
M  V30 4853 O 427.843 -2.44616 0.626058 0
M  V30 4854 C 429.156 -0.244017 2.99708 0
M  V30 4855 C 430.704 -0.319451 3.11366 0
M  V30 4856 C 431.179 -0.229998 4.57422 0
M  V30 4857 N 432.67 -0.288105 4.62303 0
M  V30 4858 C 433.405 -0.242127 5.72889 0
M  V30 4859 N 432.901 -0.147133 6.92644 0
M  V30 4860 N 434.694 -0.293502 5.61333 0
M  V30 4861 H 426.845 0.902314 1.92281 0
M  V30 4862 H 429.108 0.34525 0.882896 0
M  V30 4863 H 428.814 0.711678 3.44424 0
M  V30 4864 H 428.688 -1.02877 3.629 0
M  V30 4865 H 431.075 -1.26559 2.66584 0
M  V30 4866 H 431.156 0.495055 2.50964 0
M  V30 4867 H 430.8 0.712566 5.02877 0
M  V30 4868 H 430.73 -1.0629 5.15761 0
M  V30 4869 H 433.221 -0.363126 3.76151 0
M  V30 4870 H 433.534 -0.117763 7.7271 0
M  V30 4871 H 431.879 -0.112857 6.94908 0
M  V30 4872 H 435.07 -0.365864 4.66668 0
M  V30 4873 H 435.243 -0.254204 6.47501 0
M  V30 4874 N 428.649 -1.55105 -0.279332 0
M  V30 4875 C 429.579 -1.90557 -1.34945 0
M  V30 4876 C 430.56 -0.766738 -1.51839 0
M  V30 4877 O 431.745 -1.02434 -1.64988 0
M  V30 4878 C 428.875 -2.17193 -2.71006 0
M  V30 4879 C 427.829 -3.33021 -2.68851 0
M  V30 4880 C 427.155 -3.45123 -4.08405 0
M  V30 4881 C 428.455 -4.69578 -2.28678 0
M  V30 4882 H 430.149 -2.80188 -1.05522 0
M  V30 4883 H 427.695 -1.34811 -0.506173 0
M  V30 4884 H 429.648 -2.40581 -3.45975 0
M  V30 4885 H 428.372 -1.24355 -3.01999 0
M  V30 4886 H 427.031 -3.0959 -1.9634 0
M  V30 4887 H 426.679 -2.49762 -4.3661 0
M  V30 4888 H 426.379 -4.22995 -4.07859 0
M  V30 4889 H 427.903 -3.70796 -4.85121 0
M  V30 4890 H 429.317 -4.92553 -2.93368 0
M  V30 4891 H 427.714 -5.5032 -2.39306 0
M  V30 4892 H 428.784 -4.68828 -1.23807 0
M  V30 4893 N 430.127 0.543554 -1.4793 0
M  V30 4894 C 431.059 1.665 -1.57513 0
M  V30 4895 C 432.072 1.56156 -0.460333 0
M  V30 4896 O 433.261 1.62865 -0.730573 0
M  V30 4897 C 430.361 3.05063 -1.47614 0
M  V30 4898 C 429.534 3.41024 -2.739 0
M  V30 4899 C 428.593 4.58809 -2.57645 0
M  V30 4900 O 427.619 4.62707 -3.31498 0
M  V30 4901 N 428.821 5.56149 -1.66368 0
M  V30 4902 H 431.586 1.5872 -2.5422 0
M  V30 4903 H 429.147 0.730517 -1.44482 0
M  V30 4904 H 431.139 3.81712 -1.34455 0
M  V30 4905 H 429.709 3.06994 -0.589359 0
M  V30 4906 H 428.929 2.53687 -3.01723 0
M  V30 4907 H 430.217 3.61831 -3.57709 0
M  V30 4908 H 429.615 5.55767 -1.05543 0
M  V30 4909 H 428.172 6.32071 -1.59154 0
M  V30 4910 N 431.605 1.3629 0.791371 0
M  V30 4911 C 432.553 1.30514 1.92533 0
M  V30 4912 C 433.547 0.197285 1.68247 0
M  V30 4913 O 434.753 0.364176 1.76278 0
M  V30 4914 H 431.128 0.406263 0.632815 0
M  V30 4915 H 433.099 2.26282 1.94523 0
M  V30 4916 C 431.848 1.10933 3.29529 0
M  V30 4917 H 431.171 1.95427 3.48781 0
M  V30 4918 H 432.611 1.10937 4.0923 0
M  V30 4919 C 431.07 -0.186123 3.36385 0
M  V30 4920 O 431.6 -1.17664 3.84081 0
M  V30 4921 N 429.806 -0.230128 2.89687 0
M  V30 4922 H 429.353 0.576545 2.51065 0
M  V30 4923 H 429.311 -1.09658 2.94657 0
M  V30 4924 N 433.083 -1.0153 1.20538 0
M  V30 4925 C 434.015 -2.10224 0.913155 0
M  V30 4926 C 435.028 -1.62495 -0.0995998 0
M  V30 4927 O 436.217 -1.78014 0.131582 0
M  V30 4928 C 433.317 -3.37111 0.347717 0
M  V30 4929 C 432.49 -4.13971 1.41233 0
M  V30 4930 C 431.549 -5.19158 0.857976 0
M  V30 4931 O 430.575 -5.48 1.53897 0
M  V30 4932 N 431.777 -5.7955 -0.331966 0
M  V30 4933 H 434.542 -2.35879 1.84881 0
M  V30 4934 H 432.103 -1.17931 1.10923 0
M  V30 4935 H 434.095 -4.04683 -0.0373026 0
M  V30 4936 H 432.665 -3.08696 -0.492527 0
M  V30 4937 H 431.885 -3.41351 1.97163 0
M  V30 4938 H 433.173 -4.62103 2.12928 0
M  V30 4939 H 432.571 -5.58455 -0.902478 0
M  V30 4940 H 431.128 -6.48464 -0.65861 0
M  V30 4941 N 434.561 -1.01147 -1.20859 0
M  V30 4942 C 435.491 -0.597663 -2.25722 0
M  V30 4943 C 436.472 0.384744 -1.65692 0
M  V30 4944 O 437.657 0.271303 -1.92296 0
M  V30 4945 C 434.787 0.0700149 -3.47229 0
M  V30 4946 C 433.741 -0.832843 -4.19819 0
M  V30 4947 C 433.067 -0.0312202 -5.34691 0
M  V30 4948 C 434.367 -2.1385 -4.76514 0
M  V30 4949 H 436.061 -1.47423 -2.60589 0
M  V30 4950 H 433.607 -0.710301 -1.25263 0
M  V30 4951 H 435.56 0.37103 -4.19763 0
M  V30 4952 H 434.284 0.981259 -3.11511 0
M  V30 4953 H 432.943 -1.11778 -3.49144 0
M  V30 4954 H 432.591 0.881515 -4.95215 0
M  V30 4955 H 432.291 -0.632434 -5.84187 0
M  V30 4956 H 433.815 0.26346 -6.10031 0
M  V30 4957 H 435.229 -1.9002 -5.40893 0
M  V30 4958 H 433.626 -2.69012 -5.36426 0
M  V30 4959 H 434.696 -2.80495 -3.95538 0
M  V30 4960 N 436.039 1.36541 -0.78704 0
M  V30 4961 C 437.286 1.99304 -0.358341 0
M  V30 4962 C 437.614 1.62467 1.06933 0
M  V30 4963 O 436.869 0.870019 1.75297 0
M  V30 4964 C 437.168 3.54343 -0.466485 0
M  V30 4965 C 436.834 4.10993 -1.85461 0
M  V30 4966 C 435.496 4.26177 -2.23443 0
M  V30 4967 C 437.848 4.41895 -2.76366 0
M  V30 4968 C 435.176 4.69573 -3.51736 0
M  V30 4969 C 437.528 4.86722 -4.04084 0
M  V30 4970 C 436.192 5.00112 -4.42091 0
M  V30 4971 H 435.462 0.729306 -0.131126 0
M  V30 4972 H 438.109 1.63068 -1.00404 0
M  V30 4973 H 436.414 3.90918 0.262719 0
M  V30 4974 H 438.111 4.00833 -0.115854 0
M  V30 4975 H 434.701 3.99612 -1.54946 0
M  V30 4976 H 438.885 4.29735 -2.48277 0
M  V30 4977 H 434.141 4.78127 -3.81057 0
M  V30 4978 H 438.315 5.09598 -4.7464 0
M  V30 4979 H 435.942 5.33498 -5.41557 0
M  V30 4980 N 437.518 0.538854 1.48102 0
M  V30 4981 C 438.767 0.0059532 2.01699 0
M  V30 4982 C 439.08 -1.34476 1.42041 0
M  V30 4983 O 440.286 -1.96653 1.87189 0
M  V30 4984 C 438.742 -0.0397627 3.59878 0
M  V30 4985 C 438.35 1.30659 4.28523 0
M  V30 4986 C 440.094 -0.521024 4.2129 0
M  V30 4987 C 438.001 1.22098 5.78659 0
M  V30 4988 H 436.931 -0.00154456 0.753998 0
M  V30 4989 H 439.582 0.683963 1.70277 0
M  V30 4990 H 437.964 -0.783037 3.88181 0
M  V30 4991 H 439.138 2.06613 4.11883 0
M  V30 4992 H 437.453 1.7243 3.79021 0
M  V30 4993 H 440.05 -0.603184 5.31287 0
M  V30 4994 H 440.393 -1.52885 3.8721 0
M  V30 4995 H 440.926 0.166834 3.9745 0
M  V30 4996 H 437.665 2.20424 6.17328 0
M  V30 4997 H 437.185 0.50295 5.97688 0
M  V30 4998 H 438.864 0.915345 6.40492 0
M  V30 4999 N 438.996 -1.55193 0.274407 0
M  V30 5000 C 439.959 -2.212 -0.600279 0
M  V30 5001 C 440.959 -1.18963 -1.08187 0
M  V30 5002 O 442.149 -1.43873 -0.982158 0
M  V30 5003 C 439.281 -2.87739 -1.82809 0
M  V30 5004 H 440.474 -2.9989 -0.0239682 0
M  V30 5005 H 438.027 -1.5628 0.0250192 0
M  V30 5006 H 438.762 -2.13058 -2.44493 0
M  V30 5007 H 438.547 -3.62658 -1.49069 0
M  V30 5008 H 440.037 -3.38171 -2.45011 0
M  V30 5009 N 440.474 -0.00167713 -1.576 0
M  V30 5010 C 441.421 0.989195 -2.08527 0
M  V30 5011 C 442.391 1.34031 -0.981065 0
M  V30 5012 O 443.576 1.43839 -1.2536 0
M  V30 5013 C 440.716 2.27537 -2.59463 0
M  V30 5014 C 439.829 1.98314 -3.83791 0
M  V30 5015 C 438.964 3.21025 -4.23222 0
M  V30 5016 C 438.003 2.87495 -5.40382 0
M  V30 5017 N 437.14 4.02749 -5.75098 0
M  V30 5018 H 441.98 0.547973 -2.92919 0
M  V30 5019 H 439.517 0.258917 -1.44803 0
M  V30 5020 H 441.475 3.02729 -2.87073 0
M  V30 5021 H 440.105 2.69325 -1.77943 0
M  V30 5022 H 439.157 1.13482 -3.63078 0
M  V30 5023 H 440.469 1.69601 -4.69081 0
M  V30 5024 H 439.623 4.04561 -4.52123 0
M  V30 5025 H 438.362 3.52877 -3.36644 0
M  V30 5026 H 437.367 2.02367 -5.11202 0
M  V30 5027 H 438.592 2.56889 -6.28637 0
M  V30 5028 H 436.538 4.34494 -4.91478 0
M  V30 5029 H 436.455 3.77566 -6.54966 0
M  V30 5030 H 437.723 4.87068 -6.08592 0
M  V30 5031 N 441.952 1.55251 0.271103 0
M  V30 5032 C 442.862 1.9136 1.35714 0
M  V30 5033 C 443.878 0.811075 1.5394 0
M  V30 5034 O 445.054 1.11031 1.6803 0
M  V30 5035 C 442.119 2.1798 2.69603 0
M  V30 5036 C 441.18 3.4153 2.60107 0
M  V30 5037 C 440.413 3.66871 3.8761 0
M  V30 5038 O 440.636 2.94689 4.8838 0
M  V30 5039 O 439.57 4.60405 3.87699 0
M  V30 5040 H 443.396 2.83815 1.08088 0
M  V30 5041 H 440.981 1.41821 0.469792 0
M  V30 5042 H 442.863 2.36518 3.48765 0
M  V30 5043 H 441.538 1.28708 2.97012 0
M  V30 5044 H 440.445 3.28325 1.79314 0
M  V30 5045 H 441.778 4.31027 2.37647 0
M  V30 5046 N 443.43 -0.535701 1.48216 0
M  V30 5047 C 444.658 -1.31671 1.59594 0
M  V30 5048 C 445.073 -1.87083 0.254056 0
M  V30 5049 O 444.43 -1.66112 -0.755854 0
M  V30 5050 C 444.481 -2.47158 2.63809 0
M  V30 5051 O 444.202 -1.94032 3.92789 0
M  V30 5052 C 445.703 -3.39062 2.85573 0
M  V30 5053 H 442.923 -0.400623 0.538277 0
M  V30 5054 H 445.467 -0.646827 1.94001 0
M  V30 5055 H 443.622 -3.10043 2.32276 0
M  V30 5056 H 444.036 -2.69585 4.49916 0
M  V30 5057 H 445.51 -4.16459 3.62306 0
M  V30 5058 H 445.987 -3.93941 1.94184 0
M  V30 5059 H 446.593 -2.81975 3.18387 0
M  V30 5060 N 444.908 -1.36708 -0.784132 0
M  V30 5061 C 446.136 -1.34398 -1.57305 0
M  V30 5062 C 446.551 0.0735577 -1.88657 0
M  V30 5063 O 445.908 1.03193 -1.50524 0
M  V30 5064 C 445.959 -2.17053 -2.89085 0
M  V30 5065 O 445.68 -3.53281 -2.59083 0
M  V30 5066 C 447.181 -2.22583 -3.83369 0
M  V30 5067 H 444.401 -0.460819 -0.487736 0
M  V30 5068 H 446.945 -1.79879 -0.972819 0
M  V30 5069 H 445.1 -1.75113 -3.45564 0
M  V30 5070 H 445.514 -3.9647 -3.43383 0
M  V30 5071 H 446.988 -2.84763 -4.72878 0
M  V30 5072 H 447.465 -1.23075 -4.21603 0
M  V30 5073 H 448.071 -2.64781 -3.32823 0
M  V30 5074 N 446.386 1.0089 -1.21074 0
M  V30 5075 C 447.316 2.1145 -0.990523 0
M  V30 5076 C 448.297 1.69897 0.0831699 0
M  V30 5077 O 449.482 1.94052 -0.0758853 0
M  V30 5078 C 446.612 3.42914 -0.550177 0
M  V30 5079 C 445.566 3.98244 -1.56799 0
M  V30 5080 C 444.892 5.25568 -0.984013 0
M  V30 5081 C 446.192 4.30752 -2.95381 0
M  V30 5082 H 447.886 2.3013 -1.91521 0
M  V30 5083 H 445.432 1.10592 -0.92225 0
M  V30 5084 H 447.385 4.19653 -0.383305 0
M  V30 5085 H 446.109 3.24014 0.41015 0
M  V30 5086 H 444.768 3.23621 -1.72236 0
M  V30 5087 H 444.416 5.02998 -0.0155216 0
M  V30 5088 H 444.116 5.63551 -1.66384 0
M  V30 5089 H 445.64 6.04955 -0.828378 0
M  V30 5090 H 447.054 4.98349 -2.8341 0
M  V30 5091 H 445.451 4.79869 -3.60341 0
M  V30 5092 H 446.521 3.39192 -3.46521 0
M  V30 5093 N 447.864 1.01787 1.20321 0
M  V30 5094 C 449.111 0.707936 1.89722 0
M  V30 5095 C 449.439 -0.762535 1.78929 0
M  V30 5096 O 448.694 -1.56977 1.16861 0
M  V30 5097 C 448.993 1.09076 3.40349 0
M  V30 5098 C 448.659 2.55765 3.71342 0
M  V30 5099 C 447.321 2.95845 3.79511 0
M  V30 5100 C 449.673 3.50723 3.85542 0
M  V30 5101 C 447.001 4.2982 3.99339 0
M  V30 5102 C 449.353 4.84387 4.06881 0
M  V30 5103 C 448.017 5.24172 4.1328 0
M  V30 5104 H 447.287 0.259052 0.694243 0
M  V30 5105 H 449.934 1.27868 1.42555 0
M  V30 5106 H 448.239 0.438453 3.89339 0
M  V30 5107 H 449.936 0.828636 3.92345 0
M  V30 5108 H 446.526 2.2371 3.65584 0
M  V30 5109 H 450.71 3.20916 3.78585 0
M  V30 5110 H 445.966 4.60196 4.02529 0
M  V30 5111 H 450.14 5.57891 4.1681 0
M  V30 5112 H 447.767 6.27997 4.28396 0
M  V30 5113 N 449.342 -1.36122 0.79427 0
M  V30 5114 C 450.272 -2.32551 0.210328 0
M  V30 5115 C 451.253 -1.56884 -0.657386 0
M  V30 5116 O 452.438 -1.85014 -0.590207 0
M  V30 5117 C 449.568 -3.41128 -0.651819 0
M  V30 5118 C 448.522 -4.27842 0.116395 0
M  V30 5119 C 447.848 -5.2763 -0.86666 0
M  V30 5120 C 449.148 -5.05647 1.30837 0
M  V30 5121 H 450.842 -2.81636 1.01594 0
M  V30 5122 H 448.388 -1.35407 0.489981 0
M  V30 5123 H 450.341 -4.07581 -1.07031 0
M  V30 5124 H 449.065 -2.90622 -1.49019 0
M  V30 5125 H 447.724 -3.62952 0.515915 0
M  V30 5126 H 447.372 -4.73395 -1.70019 0
M  V30 5127 H 447.072 -5.86514 -0.35705 0
M  V30 5128 H 448.596 -5.96955 -1.28361 0
M  V30 5129 H 450.01 -5.65113 0.965393 0
M  V30 5130 H 448.407 -5.73967 1.75161 0
M  V30 5131 H 449.477 -4.37006 2.10128 0
M  V30 5132 N 450.82 -0.546701 -1.47814 0
M  V30 5133 C 451.783 0.196287 -2.28358 0
M  V30 5134 C 452.783 0.852437 -1.36346 0
M  V30 5135 O 453.973 0.709913 -1.59078 0
M  V30 5136 C 451.105 1.28579 -3.15722 0
M  V30 5137 H 452.298 -0.511086 -2.95513 0
M  V30 5138 H 449.851 -0.303248 -1.5333 0
M  V30 5139 H 450.586 2.0259 -2.53235 0
M  V30 5140 H 450.371 0.820229 -3.83425 0
M  V30 5141 H 451.861 1.80793 -3.76435 0
M  V30 5142 N 452.299 1.55045 -0.282633 0
M  V30 5143 C 453.262 2.21515 0.588539 0
M  V30 5144 C 454.262 1.19535 1.07554 0
M  V30 5145 O 455.452 1.44391 0.974514 0
M  V30 5146 C 452.584 2.88704 1.8128 0
M  V30 5147 H 453.777 2.99899 0.00806397 0
M  V30 5148 H 451.33 1.56265 -0.0333067 0
M  V30 5149 H 452.065 2.14352 2.43359 0
M  V30 5150 H 451.85 3.63443 1.47144 0
M  V30 5151 H 453.34 3.39465 2.43214 0
M  V30 5152 N 453.777 0.010035 1.57597 0
M  V30 5153 C 455.005 -0.683413 1.95287 0
M  V30 5154 C 455.42 -1.66747 0.885481 0
M  V30 5155 O 454.777 -1.82003 -0.134629 0
M  V30 5156 C 454.828 -1.40652 3.33015 0
M  V30 5157 O 454.549 -0.461916 4.35658 0
M  V30 5158 C 456.05 -2.19356 3.85225 0
M  V30 5159 H 453.27 -0.189708 0.643624 0
M  V30 5160 H 455.814 0.0641359 2.04399 0
M  V30 5161 H 453.969 -2.10562 3.2518 0
M  V30 5162 H 454.383 -0.973215 5.15392 0
M  V30 5163 H 455.857 -2.65433 4.83993 0
M  V30 5164 H 456.334 -3.02457 3.18459 0
M  V30 5165 H 456.94 -1.54442 3.96267 0
M  V30 5166 N 455.255 -1.55392 -0.262866 0
M  V30 5167 C 456.203 -1.8977 -1.345 0
M  V30 5168 C 457.197 -0.775063 -1.50629 0
M  V30 5169 O 458.403 -0.959519 -1.52293 0
M  V30 5170 H 454.778 -0.602467 -0.450041 0
M  V30 5171 H 456.749 -2.80147 -1.02762 0
M  V30 5172 C 455.498 -2.19501 -2.69657 0
M  V30 5173 H 454.821 -3.05378 -2.5804 0
M  V30 5174 H 456.261 -2.47469 -3.44289 0
M  V30 5175 C 454.72 -1.00597 -3.21531 0
M  V30 5176 O 455.25 -0.245768 -4.00947 0
M  V30 5177 N 453.456 -0.800911 -2.79345 0
M  V30 5178 H 453.003 -1.42079 -2.14875 0
M  V30 5179 H 452.961 -0.00697996 -3.14399 0
M  V30 5180 N 456.733 0.527833 -1.48498 0
M  V30 5181 C 457.982 1.28003 -1.55878 0
M  V30 5182 C 458.295 1.9414 -0.238577 0
M  V30 5183 O 459.501 2.7083 -0.190643 0
M  V30 5184 C 457.957 2.32272 -2.74914 0
M  V30 5185 C 457.565 1.72196 -4.13585 0
M  V30 5186 C 459.309 3.08488 -2.91608 0
M  V30 5187 C 457.216 2.74417 -5.23879 0
M  V30 5188 H 456.146 0.481413 -0.580308 0
M  V30 5189 H 458.797 0.557195 -1.74836 0
M  V30 5190 H 457.179 3.07601 -2.49395 0
M  V30 5191 H 458.353 1.03041 -4.49132 0
M  V30 5192 H 456.668 1.08464 -4.02025 0
M  V30 5193 H 459.265 3.84879 -3.71177 0
M  V30 5194 H 459.608 3.64481 -2.01145 0
M  V30 5195 H 460.141 2.40274 -3.17038 0
M  V30 5196 H 456.88 2.23242 -6.16314 0
M  V30 5197 H 456.4 3.41893 -4.92818 0
M  V30 5198 H 458.079 3.37362 -5.52083 0
M  V30 5199 N 458.211 1.37122 0.776871 0
M  V30 5200 C 459.451 1.33441 1.54831 0
M  V30 5201 C 459.815 -0.0818963 1.91825 0
M  V30 5202 O 461.016 -0.24338 2.67696 0
M  V30 5203 C 459.287 2.24267 2.78279 0
M  V30 5204 S 460.846 2.38389 3.68397 0
M  V30 5205 H 457.664 0.473791 0.530135 0
M  V30 5206 H 460.266 1.7282 0.913968 0
M  V30 5207 H 458.97 3.261 2.49173 0
M  V30 5208 H 458.501 1.85953 3.46677 0
M  V30 5209 H 460.516 1.59068 4.70013 0
M  V30 5210 N 459.689 -1.00246 1.21608 0
M  V30 5211 C 460.622 -2.08794 0.920892 0
M  V30 5212 C 461.6 -1.62059 -0.132552 0
M  V30 5213 O 462.784 -1.885 -0.0030366 0
M  V30 5214 C 459.911 -3.36525 0.383226 0
M  V30 5215 C 458.957 -4.02172 1.41987 0
M  V30 5216 S 459.79 -4.44256 2.98994 0
M  V30 5217 C 460.946 -5.7517 2.4684 0
M  V30 5218 H 461.179 -2.33511 1.8401 0
M  V30 5219 H 458.712 -1.13562 1.04609 0
M  V30 5220 H 460.67 -4.10423 0.0795871 0
M  V30 5221 H 459.331 -3.09854 -0.514711 0
M  V30 5222 H 458.524 -4.94114 0.993335 0
M  V30 5223 H 458.126 -3.34559 1.67171 0
M  V30 5224 H 460.418 -6.51042 1.87484 0
M  V30 5225 H 461.361 -6.22638 3.37235 0
M  V30 5226 H 461.769 -5.32112 1.88461 0
M  V30 5227 N 461.167 -1.02423 -1.1978 0
M  V30 5228 C 462.444 -0.632802 -1.85081 0
M  V30 5229 C 462.824 0.888745 -1.9148 0
M  V30 5230 O 462.172 1.78357 -1.42832 0
M  V30 5231 C 462.382 -1.28947 -3.24305 0
M  V30 5232 C 463.73 -1.40976 -4.00513 0
M  V30 5233 O 464.754 -1.24628 -3.33686 0
M  V30 5234 O 463.613 -1.67467 -5.20209 0
M  V30 5235 H 460.707 -0.219348 -0.79738 0
M  V30 5236 H 463.253 -1.12209 -1.27307 0
M  V30 5237 H 462.025 -2.3288 -3.14456 0
M  V30 5238 H 461.648 -0.787748 -3.89718 0
M  V30 5239 N 462.645 1.35699 -0.801477 0
M  V30 5240 C 464.056 1.81415 -0.441073 0
M  V30 5241 C 464.407 1.66595 1.03636 0
M  V30 5242 O 463.532 1.19369 1.80499 0
M  V30 5243 C 464.127 3.29369 -0.793819 0
M  V30 5244 C 462.686 3.73248 -0.486083 0
M  V30 5245 C 461.833 2.57775 -1.02213 0
M  V30 5246 H 464.784 1.23749 -0.993572 0
M  V30 5247 H 464.805 3.80395 -0.0894158 0
M  V30 5248 H 464.317 3.40123 -1.86917 0
M  V30 5249 H 462.418 3.68046 0.580735 0
M  V30 5250 H 462.531 4.68222 -1.01513 0
M  V30 5251 H 460.895 2.50788 -0.444712 0
M  V30 5252 H 461.678 2.71309 -2.10348 0
M  V30 5253 N 464.123 0.554532 1.47522 0
M  V30 5254 C 465.053 -0.182974 2.32782 0
M  V30 5255 C 466.034 -0.911377 1.43624 0
M  V30 5256 O 467.219 -0.892366 1.72483 0
M  V30 5257 C 464.349 -1.21513 3.25349 0
M  V30 5258 C 463.303 -0.603355 4.23726 0
M  V30 5259 C 462.629 -1.73995 5.05598 0
M  V30 5260 C 463.929 0.441121 5.20434 0
M  V30 5261 H 465.623 0.52882 2.94693 0
M  V30 5262 H 463.169 0.255759 1.41711 0
M  V30 5263 H 465.122 -1.73922 3.83835 0
M  V30 5264 H 463.846 -1.95683 2.61487 0
M  V30 5265 H 462.505 -0.10059 3.66462 0
M  V30 5266 H 462.153 -2.47063 4.38143 0
M  V30 5267 H 461.853 -1.3364 5.72201 0
M  V30 5268 H 463.377 -2.26735 5.66942 0
M  V30 5269 H 464.791 0.00319931 5.733 0
M  V30 5270 H 463.188 0.763402 5.95224 0
M  V30 5271 H 464.258 1.33799 4.66075 0
M  V30 5272 N 465.601 -1.54893 0.290851 0
M  V30 5273 C 466.85 -1.99111 -0.322113 0
M  V30 5274 C 467.163 -1.18283 -1.55784 0
M  V30 5275 O 468.369 -1.5272 -2.24475 0
M  V30 5276 C 466.825 -3.54442 -0.624438 0
M  V30 5277 C 466.433 -4.44066 0.592373 0
M  V30 5278 C 468.177 -4.07211 -1.19916 0
M  V30 5279 C 466.084 -5.90812 0.263762 0
M  V30 5280 H 465.014 -0.743712 -0.124133 0
M  V30 5281 H 467.665 -1.79132 0.39797 0
M  V30 5282 H 466.047 -3.70281 -1.40384 0
M  V30 5283 H 467.221 -4.39999 1.36886 0
M  V30 5284 H 465.536 -4.02015 1.08502 0
M  V30 5285 H 468.133 -5.14407 -1.45909 0
M  V30 5286 H 468.476 -3.57196 -2.13815 0
M  V30 5287 H 469.009 -3.94873 -0.481687 0
M  V30 5288 H 465.748 -6.44955 1.17105 0
M  V30 5289 H 465.268 -5.97911 -0.475655 0
M  V30 5290 H 466.947 -6.46852 -0.138354 0
M  V30 5291 N 467.08 -0.0183926 -1.57589 0
M  V30 5292 C 468.31 0.67207 -1.95363 0
M  V30 5293 C 468.718 1.66807 -0.892872 0
M  V30 5294 O 468.061 1.83204 0.134958 0
M  V30 5295 C 468.123 1.44397 -3.29226 0
M  V30 5296 C 467.787 0.607511 -4.52944 0
M  V30 5297 C 468.784 -0.112657 -5.19778 0
M  V30 5298 C 466.469 0.548068 -4.99301 0
M  V30 5299 C 468.463 -0.881057 -6.31281 0
M  V30 5300 C 466.15 -0.224044 -6.10689 0
M  V30 5301 C 467.148 -0.937323 -6.76538 0
M  V30 5302 O 466.836 -1.6968 -7.85789 0
M  V30 5303 H 466.568 0.190925 -0.648478 0
M  V30 5304 H 469.122 -0.0711994 -2.05277 0
M  V30 5305 H 467.352 2.23214 -3.15773 0
M  V30 5306 H 469.041 2.02152 -3.51979 0
M  V30 5307 H 469.807 -0.0759998 -4.8494 0
M  V30 5308 H 465.686 1.09281 -4.4786 0
M  V30 5309 H 469.23 -1.43832 -6.82611 0
M  V30 5310 H 465.127 -0.262457 -6.44966 0
M  V30 5311 H 465.895 -1.61544 -8.024 0
M  V30 5312 N 468.558 1.5553 0.254621 0
M  V30 5313 C 469.807 1.76202 0.981612 0
M  V30 5314 C 470.12 0.580883 1.86776 0
M  V30 5315 O 471.326 0.670448 2.63092 0
M  V30 5316 C 469.782 3.11921 1.79537 0
M  V30 5317 C 469.39 4.37659 0.956991 0
M  V30 5318 C 471.134 3.41936 2.51555 0
M  V30 5319 C 469.041 5.64411 1.76619 0
M  V30 5320 H 467.971 0.656841 0.370237 0
M  V30 5321 H 470.622 1.81969 0.236556 0
M  V30 5322 H 469.004 3.00241 2.58208 0
M  V30 5323 H 470.178 4.60307 0.21315 0
M  V30 5324 H 468.493 4.14922 0.350497 0
M  V30 5325 H 471.09 4.33849 3.12536 0
M  V30 5326 H 471.433 2.62905 3.22779 0
M  V30 5327 H 471.966 3.54797 1.799 0
M  V30 5328 H 468.705 6.46241 1.09783 0
M  V30 5329 H 468.225 5.45877 2.48551 0
M  V30 5330 H 469.904 6.03386 2.33527 0
M  V30 5331 N 470.036 -0.519951 1.48776 0
M  V30 5332 C 471.283 -1.27522 1.57303 0
M  V30 5333 C 471.611 -1.92869 0.251328 0
M  V30 5334 O 470.866 -1.80372 -0.759243 0
M  V30 5335 C 471.165 -2.37864 2.6675 0
M  V30 5336 C 470.831 -1.90103 4.08867 0
M  V30 5337 C 469.493 -1.76795 4.47546 0
M  V30 5338 C 471.845 -1.54133 4.97888 0
M  V30 5339 C 469.173 -1.25868 5.73039 0
M  V30 5340 C 471.525 -1.04665 6.23881 0
M  V30 5341 C 470.189 -0.899823 6.61407 0
M  V30 5342 H 469.459 -0.466636 0.575614 0
M  V30 5343 H 472.106 -0.579109 1.82534 0
M  V30 5344 H 470.411 -3.13186 2.35418 0
M  V30 5345 H 472.108 -2.95969 2.70561 0
M  V30 5346 H 468.698 -2.01414 3.78326 0
M  V30 5347 H 472.882 -1.6327 4.68675 0
M  V30 5348 H 468.138 -1.13196 6.0083 0
M  V30 5349 H 472.312 -0.759074 6.92251 0
M  V30 5350 H 469.939 -0.503011 7.58534 0
M  V30 5351 N 471.514 -1.37532 -0.769588 0
M  V30 5352 C 472.444 -1.36172 -1.89682 0
M  V30 5353 C 473.425 -0.23001 -1.68538 0
M  V30 5354 O 474.61 -0.43069 -1.89364 0
M  V30 5355 C 471.74 -1.1701 -3.26995 0
M  V30 5356 C 470.694 -2.27216 -3.62708 0
M  V30 5357 C 470.02 -1.93174 -4.98586 0
M  V30 5358 C 471.32 -3.6941 -3.69234 0
M  V30 5359 H 473.014 -2.30499 -1.91078 0
M  V30 5360 H 470.56 -1.10953 -0.917902 0
M  V30 5361 H 472.513 -1.14688 -4.05493 0
M  V30 5362 H 471.237 -0.191395 -3.26039 0
M  V30 5363 H 469.896 -2.28697 -2.86519 0
M  V30 5364 H 469.544 -0.938281 -4.94171 0
M  V30 5365 H 469.244 -2.66973 -5.23449 0
M  V30 5366 H 470.768 -1.92443 -5.79481 0
M  V30 5367 H 472.182 -3.70047 -4.37879 0
M  V30 5368 H 470.579 -4.4228 -4.05597 0
M  V30 5369 H 471.649 -4.0288 -2.69844 0
M  V30 5370 N 472.992 0.995999 -1.22138 0
M  V30 5371 C 474.232 1.75032 -1.05561 0
M  V30 5372 C 474.596 1.87729 0.402698 0
M  V30 5373 O 475.797 2.59813 0.689234 0
M  V30 5374 C 474.068 3.11973 -1.74379 0
M  V30 5375 S 475.627 4.03182 -1.73175 0
M  V30 5376 H 472.445 0.602137 -0.37809 0
M  V30 5377 H 475.047 1.19107 -1.55028 0
M  V30 5378 H 473.751 3.00371 -2.79652 0
M  V30 5379 H 473.282 3.7297 -1.25128 0
M  V30 5380 H 475.297 4.90043 -0.77923 0
M  V30 5381 N 474.47 1.03057 1.19235 0
M  V30 5382 C 475.417 0.612832 2.22515 0
M  V30 5383 C 476.387 -0.374224 1.61829 0
M  V30 5384 O 477.572 -0.270501 1.88873 0
M  V30 5385 C 474.712 -0.028475 3.45088 0
M  V30 5386 C 473.825 1.00483 4.20151 0
M  V30 5387 C 472.96 0.333102 5.30155 0
M  V30 5388 C 471.999 1.3522 5.96977 0
M  V30 5389 N 471.136 0.70616 6.9854 0
M  V30 5390 H 475.976 1.49812 2.57605 0
M  V30 5391 H 473.513 0.749658 1.26564 0
M  V30 5392 H 475.471 -0.417548 4.15105 0
M  V30 5393 H 474.101 -0.877334 3.10649 0
M  V30 5394 H 473.153 1.51194 3.49062 0
M  V30 5395 H 474.465 1.77929 4.65986 0
M  V30 5396 H 473.619 -0.110725 6.06599 0
M  V30 5397 H 472.358 -0.473547 4.85396 0
M  V30 5398 H 471.363 1.80627 5.19282 0
M  V30 5399 H 472.588 2.16037 6.4382 0
M  V30 5400 H 470.534 -0.0803667 6.55951 0
M  V30 5401 H 470.451 1.41848 7.42573 0
M  V30 5402 H 471.719 0.286391 7.78974 0
M  V30 5403 N 475.948 -1.35272 0.808662 0
M  V30 5404 C 476.895 -2.29764 0.218482 0
M  V30 5405 C 477.865 -1.52911 -0.648652 0
M  V30 5406 O 479.05 -1.81341 -0.593297 0
M  V30 5407 C 476.19 -3.39388 -0.625282 0
M  V30 5408 C 475.303 -4.31202 0.262516 0
M  V30 5409 C 474.438 -5.27919 -0.589451 0
M  V30 5410 C 473.477 -6.11371 0.298617 0
M  V30 5411 N 472.614 -7.0022 -0.513443 0
M  V30 5412 H 477.454 -2.79645 1.02968 0
M  V30 5413 H 474.991 -1.37629 0.519303 0
M  V30 5414 H 476.949 -4.01615 -1.12966 0
M  V30 5415 H 475.579 -2.90777 -1.40173 0
M  V30 5416 H 474.631 -3.69962 0.885013 0
M  V30 5417 H 475.943 -4.89748 0.945971 0
M  V30 5418 H 475.097 -5.95529 -1.15888 0
M  V30 5419 H 473.836 -4.69875 -1.30647 0
M  V30 5420 H 472.841 -5.42707 0.880301 0
M  V30 5421 H 474.066 -6.71494 1.01352 0
M  V30 5422 H 472.012 -6.44662 -1.21439 0
M  V30 5423 H 471.929 -7.55917 0.111922 0
M  V30 5424 H 473.197 -7.72175 -1.06608 0
M  V30 5425 N 477.426 -0.562348 -1.47226 0
M  V30 5426 C 478.673 -0.0402165 -2.0246 0
M  V30 5427 C 479.001 1.31169 -1.43614 0
M  V30 5428 O 478.256 1.86805 -0.5833 0
M  V30 5429 C 478.555 0.0969817 -3.57268 0
M  V30 5430 C 478.221 -1.1847 -4.35058 0
M  V30 5431 C 476.883 -1.53588 -4.56031 0
M  V30 5432 C 479.235 -2.03378 -4.79882 0
M  V30 5433 C 476.563 -2.73452 -5.19077 0
M  V30 5434 C 478.915 -3.2245 -5.44251 0
M  V30 5435 C 477.579 -3.57876 -5.63455 0
M  V30 5436 H 476.849 -0.0147163 -0.740854 0
M  V30 5437 H 479.496 -0.734895 -1.76838 0
M  V30 5438 H 477.801 0.87466 -3.81912 0
M  V30 5439 H 479.498 0.516408 -3.97661 0
M  V30 5440 H 476.088 -0.90126 -4.19017 0
M  V30 5441 H 480.272 -1.77553 -4.63453 0
M  V30 5442 H 475.528 -3.01062 -5.32139 0
M  V30 5443 H 479.702 -3.88526 -5.77945 0
M  V30 5444 H 477.329 -4.50849 -6.12078 0
M  V30 5445 N 478.904 1.54736 -0.299062 0
M  V30 5446 C 480.132 2.04512 0.313447 0
M  V30 5447 C 480.547 1.17643 1.47667 0
M  V30 5448 O 479.904 0.20164 1.81383 0
M  V30 5449 C 479.955 3.53171 0.771542 0
M  V30 5450 O 479.676 4.36736 -0.345379 0
M  V30 5451 C 481.177 4.18936 1.4494 0
M  V30 5452 H 478.397 0.667507 0.0683784 0
M  V30 5453 H 480.941 1.99752 -0.438129 0
M  V30 5454 H 479.096 3.58298 1.47314 0
M  V30 5455 H 479.51 5.24499 0.0109219 0
M  V30 5456 H 480.984 5.24482 1.72111 0
M  V30 5457 H 481.461 3.68554 2.38883 0
M  V30 5458 H 482.067 4.17879 0.791028 0
M  V30 5459 N 480.382 0.0267497 1.57577 0
M  V30 5460 C 481.292 -0.971633 2.13533 0
M  V30 5461 C 482.308 -1.35868 1.08701 0
M  V30 5462 O 483.484 -1.44058 1.40746 0
M  V30 5463 C 480.549 -2.23622 2.64941 0
M  V30 5464 C 479.61 -1.90982 3.8448 0
M  V30 5465 C 478.843 -3.11411 4.33427 0
M  V30 5466 O 479.066 -4.23992 3.81558 0
M  V30 5467 O 478 -2.93848 5.25297 0
M  V30 5468 H 481.826 -0.525853 2.99113 0
M  V30 5469 H 479.411 -0.193712 1.48139 0
M  V30 5470 H 481.293 -2.97864 2.98086 0
M  V30 5471 H 479.968 -2.67386 1.82446 0
M  V30 5472 H 478.875 -1.14132 3.56265 0
M  V30 5473 H 480.208 -1.52036 4.6813 0
M  V30 5474 N 481.861 -1.55662 -0.24637 0
M  V30 5475 C 482.808 -1.90361 -1.30504 0
M  V30 5476 C 483.778 -0.757905 -1.47801 0
M  V30 5477 O 484.963 -1.01161 -1.61775 0
M  V30 5478 C 482.103 -2.2042 -2.65535 0
M  V30 5479 C 481.216 -3.47799 -2.56242 0
M  V30 5480 C 480.351 -3.67426 -3.8363 0
M  V30 5481 C 479.39 -4.88403 -3.68956 0
M  V30 5482 N 478.527 -5.04548 -4.88237 0
M  V30 5483 H 483.367 -2.80645 -1.00213 0
M  V30 5484 H 480.904 -1.38924 -0.483577 0
M  V30 5485 H 482.862 -2.35853 -3.44135 0
M  V30 5486 H 481.492 -1.3334 -2.93973 0
M  V30 5487 H 480.544 -3.40694 -1.69208 0
M  V30 5488 H 481.856 -4.36544 -2.4131 0
M  V30 5489 H 481.01 -3.82821 -4.70673 0
M  V30 5490 H 479.749 -2.76914 -4.01459 0
M  V30 5491 H 478.754 -4.72984 -2.80296 0
M  V30 5492 H 479.979 -5.80375 -3.52621 0
M  V30 5493 H 477.925 -4.16974 -5.06427 0
M  V30 5494 H 477.842 -5.87384 -4.75937 0
M  V30 5495 H 479.11 -5.24355 -5.76777 0
M  V30 5496 N 483.339 0.512053 -1.4905 0
M  V30 5497 C 484.269 1.62365 -1.67809 0
M  V30 5498 C 485.25 1.61737 -0.526809 0
M  V30 5499 O 486.435 1.78651 -0.761404 0
M  V30 5500 C 483.565 3.00895 -1.73435 0
M  V30 5501 C 482.519 3.16387 -2.88242 0
M  V30 5502 C 481.845 4.56157 -2.78971 0
M  V30 5503 C 483.145 2.97457 -4.29321 0
M  V30 5504 H 484.839 1.46921 -2.60873 0
M  V30 5505 H 482.385 0.705379 -1.2554 0
M  V30 5506 H 484.338 3.78549 -1.85145 0
M  V30 5507 H 483.062 3.17403 -0.769619 0
M  V30 5508 H 481.721 2.41155 -2.76116 0
M  V30 5509 H 481.369 4.69525 -1.8043 0
M  V30 5510 H 481.069 4.67465 -3.5602 0
M  V30 5511 H 482.593 5.35886 -2.92675 0
M  V30 5512 H 484.007 3.64888 -4.42187 0
M  V30 5513 H 482.404 3.20245 -5.07507 0
M  V30 5514 H 483.474 1.93692 -4.44535 0
M  V30 5515 N 484.817 1.37938 0.762283 0
M  V30 5516 C 486.228 1.30094 1.33912 0
M  V30 5517 C 486.579 -0.0472026 1.96143 0
M  V30 5518 O 485.704 -0.94917 1.94473 0
M  V30 5519 C 486.299 2.35592 2.43478 0
M  V30 5520 C 484.858 2.31353 2.96905 0
M  V30 5521 C 484.005 2.18919 1.70205 0
M  V30 5522 H 486.956 1.48423 0.561816 0
M  V30 5523 H 486.977 2.00806 3.23199 0
M  V30 5524 H 486.489 3.33701 1.98155 0
M  V30 5525 H 484.59 1.36799 3.46579 0
M  V30 5526 H 484.703 3.25147 3.51875 0
M  V30 5527 H 483.067 1.65624 1.93496 0
M  V30 5528 H 483.85 3.18956 1.26973 0
M  V30 5529 N 486.295 -0.989507 1.22664 0
M  V30 5530 C 487.535 -1.7447 1.06488 0
M  V30 5531 C 487.899 -1.8794 -0.392737 0
M  V30 5532 O 489.1 -2.60175 -0.675446 0
M  V30 5533 C 487.371 -3.11043 1.76031 0
M  V30 5534 S 488.93 -4.02258 1.7531 0
M  V30 5535 H 485.748 -0.600123 0.381278 0
M  V30 5536 H 488.35 -1.18283 1.55658 0
M  V30 5537 H 487.054 -2.98884 2.81241 0
M  V30 5538 H 486.585 -3.72301 1.27105 0
M  V30 5539 H 488.6 -4.89623 0.805208 0
M  V30 5540 N 487.773 -1.03688 -1.18687 0
M  V30 5541 C 488.706 -0.569112 -2.2099 0
M  V30 5542 C 489.684 0.394315 -1.57746 0
M  V30 5543 O 490.868 0.309519 -1.85941 0
M  V30 5544 C 487.995 0.169104 -3.38278 0
M  V30 5545 C 487.041 -0.746989 -4.19908 0
M  V30 5546 S 487.874 -2.22773 -4.86963 0
M  V30 5547 C 489.03 -1.50025 -6.07654 0
M  V30 5548 H 489.263 -1.43589 -2.60326 0
M  V30 5549 H 486.796 -0.847507 -1.29061 0
M  V30 5550 H 488.754 0.588868 -4.06254 0
M  V30 5551 H 487.415 1.01172 -2.9736 0
M  V30 5552 H 486.608 -0.176626 -5.0369 0
M  V30 5553 H 486.21 -1.10543 -3.5729 0
M  V30 5554 H 488.502 -0.791217 -6.72864 0
M  V30 5555 H 489.445 -2.31498 -6.69189 0
M  V30 5556 H 489.853 -0.994245 -5.55675 0
M  V30 5557 N 489.251 1.34841 -0.815825 0
M  V30 5558 C 490.183 2.28409 -0.190265 0
M  V30 5559 C 491.196 1.50705 0.615771 0
M  V30 5560 O 492.385 1.72822 0.446616 0
M  V30 5561 C 489.485 3.30441 0.752446 0
M  V30 5562 C 488.658 4.37399 -0.00922152 0
M  V30 5563 C 487.717 5.19234 0.853351 0
M  V30 5564 O 486.743 5.68404 0.300919 0
M  V30 5565 N 487.945 5.38248 2.17416 0
M  V30 5566 H 490.71 2.82732 -0.994114 0
M  V30 5567 H 488.271 1.47289 -0.672129 0
M  V30 5568 H 490.263 3.82084 1.33394 0
M  V30 5569 H 488.833 2.76565 1.45707 0
M  V30 5570 H 488.053 3.86567 -0.771979 0
M  V30 5571 H 489.341 5.05992 -0.533807 0
M  V30 5572 H 488.739 4.99961 2.6468 0
M  V30 5573 H 487.296 5.93035 2.70467 0
M  V30 5574 N 490.729 0.570148 1.46925 0
M  V30 5575 C 491.977 0.0508523 2.02036 0
M  V30 5576 C 492.298 -1.30885 1.44548 0
M  V30 5577 O 491.568 -1.85647 0.625453 0
M  V30 5578 H 490.148 0.0158088 0.746833 0
M  V30 5579 H 492.81 0.743086 1.80178 0
M  V30 5580 H 491.906 -0.027575 3.12088 0
M  V30 5581 N 492.207 -1.54576 0.307264 0
M  V30 5582 C 493.623 -1.59534 -0.0459251 0
M  V30 5583 C 493.823 -1.32414 -1.51884 0
M  V30 5584 O 492.879 -1.1006 -2.27251 0
M  V30 5585 C 494.192 -2.98566 0.357649 0
M  V30 5586 C 495.74 -3.11491 0.306937 0
M  V30 5587 C 496.215 -4.52842 0.685427 0
M  V30 5588 N 497.706 -4.58782 0.638203 0
M  V30 5589 C 498.441 -5.66238 0.903458 0
M  V30 5590 N 497.937 -6.81703 1.23501 0
M  V30 5591 N 499.73 -5.55937 0.830102 0
M  V30 5592 H 491.881 -1.70464 1.26712 0
M  V30 5593 H 494.144 -0.79647 0.514139 0
M  V30 5594 H 493.85 -3.23356 1.38325 0
M  V30 5595 H 493.724 -3.76117 -0.285565 0
M  V30 5596 H 496.111 -2.86446 -0.709424 0
M  V30 5597 H 496.192 -2.36081 0.984861 0
M  V30 5598 H 495.836 -4.78618 1.69963 0
M  V30 5599 H 495.766 -5.26598 -0.0146346 0
M  V30 5600 H 498.257 -3.75849 0.393138 0
M  V30 5601 H 498.57 -7.59582 1.42322 0
M  V30 5602 H 496.915 -6.8324 1.27311 0
M  V30 5603 H 500.106 -4.64608 0.570693 0
M  V30 5604 H 500.279 -6.39597 1.04019 0
M  V30 5605 N 493.685 -0.035106 -1.57561 0
M  V30 5606 C 494.632 0.94474 -2.10578 0
M  V30 5607 C 495.602 1.3192 -1.00927 0
M  V30 5608 O 496.787 1.41147 -1.28382 0
M  V30 5609 C 493.927 2.21982 -2.64231 0
M  V30 5610 C 493.04 1.90128 -3.87911 0
M  V30 5611 C 492.175 3.11975 -4.29936 0
M  V30 5612 C 491.214 2.75968 -5.46359 0
M  V30 5613 N 490.351 3.90459 -5.83512 0
M  V30 5614 H 495.191 0.485717 -2.94015 0
M  V30 5615 H 492.728 0.228143 -1.4532 0
M  V30 5616 H 494.686 2.96572 -2.9343 0
M  V30 5617 H 493.316 2.6549 -1.83616 0
M  V30 5618 H 492.368 1.05755 -3.65404 0
M  V30 5619 H 493.68 1.59613 -4.72573 0
M  V30 5620 H 492.834 3.9488 -4.60603 0
M  V30 5621 H 491.573 3.45657 -3.44053 0
M  V30 5622 H 490.578 1.91478 -5.1538 0
M  V30 5623 H 491.803 2.43497 -6.33945 0
M  V30 5624 H 489.749 4.23971 -5.00584 0
M  V30 5625 H 489.666 3.63588 -6.62827 0
M  V30 5626 H 490.934 4.7405 -6.18787 0
M  V30 5627 N 495.163 1.55791 0.238111 0
M  V30 5628 C 496.391 1.82098 0.982233 0
M  V30 5629 C 496.806 0.612025 1.78605 0
M  V30 5630 O 496.163 -0.419381 1.77616 0
M  V30 5631 C 496.214 3.0673 1.91309 0
M  V30 5632 O 495.935 4.2296 1.14179 0
M  V30 5633 C 497.436 3.45903 2.77248 0
M  V30 5634 H 494.656 0.605748 0.288635 0
M  V30 5635 H 497.2 2.02862 0.258341 0
M  V30 5636 H 495.355 2.87991 2.59114 0
M  V30 5637 H 495.769 4.93653 1.7722 0
M  V30 5638 H 497.243 4.36189 3.38295 0
M  V30 5639 H 497.72 2.66891 3.48806 0
M  V30 5640 H 498.326 3.67024 2.14881 0
M  V30 5641 N 496.642 -0.504142 1.49319 0
M  V30 5642 C 497.87 -1.28256 1.62351 0
M  V30 5643 C 498.285 -1.86502 0.293682 0
M  V30 5644 O 497.642 -1.67678 -0.720449 0
M  V30 5645 C 497.693 -2.41507 2.68992 0
M  V30 5646 O 497.414 -1.85656 3.96817 0
M  V30 5647 C 498.915 -3.32929 2.927 0
M  V30 5648 H 496.135 -0.389115 0.546654 0
M  V30 5649 H 498.679 -0.605531 1.95329 0
M  V30 5650 H 496.834 -3.05046 2.38801 0
M  V30 5651 H 497.248 -2.59981 4.55533 0
M  V30 5652 H 498.722 -4.0868 3.71058 0
M  V30 5653 H 499.199 -3.89733 2.02496 0
M  V30 5654 H 499.805 -2.75158 3.24296 0
M  V30 5655 N 498.12 -1.38341 -0.754957 0
M  V30 5656 C 499.083 -1.35262 -1.85032 0
M  V30 5657 C 500.083 -0.253393 -1.58791 0
M  V30 5658 O 501.273 -0.510205 -1.66561 0
M  V30 5659 C 498.405 -1.10544 -3.22479 0
M  V30 5660 H 499.598 -2.32712 -1.8917 0
M  V30 5661 H 497.151 -1.23614 -0.956515 0
M  V30 5662 H 497.886 -0.136952 -3.24011 0
M  V30 5663 H 497.671 -1.90127 -3.4292 0
M  V30 5664 H 499.161 -1.11082 -4.02555 0
M  V30 5665 N 499.598 0.982988 -1.23187 0
M  V30 5666 C 500.823 1.76455 -1.08988 0
M  V30 5667 C 501.248 1.84726 0.354691 0
M  V30 5668 O 500.606 1.30699 1.25649 0
M  V30 5669 C 500.654 3.17094 -1.71708 0
M  V30 5670 O 499.758 4.00648 -0.977477 0
M  V30 5671 H 499.099 0.542988 -0.382177 0
M  V30 5672 H 501.629 1.23413 -1.63188 0
M  V30 5673 H 501.639 3.67684 -1.76841 0
M  V30 5674 H 500.314 3.10389 -2.76823 0
M  V30 5675 H 498.891 3.59161 -1.0029 0
M  V30 5676 N 501.076 1.04316 1.18135 0
M  V30 5677 C 502.301 0.768047 1.92655 0
M  V30 5678 C 502.726 -0.66904 1.758 0
M  V30 5679 O 502.084 -1.46372 1.06981 0
M  V30 5680 C 502.132 1.14239 3.42026 0
M  V30 5681 O 501.236 0.269333 4.1152 0
M  V30 5682 H 500.577 0.282436 0.600937 0
M  V30 5683 H 503.107 1.39367 1.49793 0
M  V30 5684 H 503.117 1.10538 3.92741 0
M  V30 5685 H 501.792 2.18928 3.53615 0
M  V30 5686 H 500.369 0.366175 3.71098 0
M  V30 5687 N 502.554 -1.34406 0.822964 0
M  V30 5688 C 503.486 -2.28305 0.202375 0
M  V30 5689 C 504.499 -1.5103 -0.60777 0
M  V30 5690 O 505.688 -1.73057 -0.437444 0
M  V30 5691 C 502.788 -3.30836 -0.734911 0
M  V30 5692 C 501.961 -4.37388 0.0324177 0
M  V30 5693 C 501.02 -5.1968 -0.825803 0
M  V30 5694 O 500.046 -5.68556 -0.270771 0
M  V30 5695 N 501.248 -5.39393 -2.14558 0
M  V30 5696 H 504.013 -2.82201 1.00909 0
M  V30 5697 H 501.574 -1.4693 0.67993 0
M  V30 5698 H 503.566 -3.82786 -1.31365 0
M  V30 5699 H 502.136 -2.77334 -1.44238 0
M  V30 5700 H 501.356 -3.86152 0.792469 0
M  V30 5701 H 502.644 -5.05702 0.560633 0
M  V30 5702 H 502.042 -5.01357 -2.62025 0
M  V30 5703 H 500.599 -5.94461 -2.67318 0
M  V30 5704 N 504.032 -0.577932 -1.46621 0
M  V30 5705 C 504.942 0.160651 -2.34049 0
M  V30 5706 C 505.958 0.890911 -1.49462 0
M  V30 5707 O 507.134 0.855166 -1.82343 0
M  V30 5708 C 504.199 1.16447 -3.26559 0
M  V30 5709 C 503.26 0.4394 -4.27045 0
M  V30 5710 C 502.493 1.3954 -5.15135 0
M  V30 5711 O 502.716 2.63162 -5.06065 0
M  V30 5712 O 501.65 0.908585 -5.95003 0
M  V30 5713 H 505.476 -0.557057 -2.98547 0
M  V30 5714 H 503.061 -0.338369 -1.45518 0
M  V30 5715 H 504.943 1.7434 -3.83645 0
M  V30 5716 H 503.618 1.86373 -2.64663 0
M  V30 5717 H 502.525 -0.181247 -3.73661 0
M  V30 5718 H 503.858 -0.218799 -4.91713 0
M  V30 5719 N 505.51 1.54411 -0.315457 0
M  V30 5720 C 506.458 2.25514 0.569771 0
M  V30 5721 C 507.452 1.2663 1.12522 0
M  V30 5722 O 508.658 1.44434 1.07419 0
M  V30 5723 H 505.033 0.724257 0.202376 0
M  V30 5724 H 507.004 2.98354 -0.0522895 0
M  V30 5725 C 505.753 3.02004 1.72305 0
M  V30 5726 H 505.076 3.77906 1.30488 0
M  V30 5727 H 506.516 3.55014 2.31821 0
M  V30 5728 C 504.975 2.09822 2.63583 0
M  V30 5729 O 505.505 1.67574 3.65078 0
M  V30 5730 N 503.711 1.75478 2.31637 0
M  V30 5731 H 503.258 2.10032 1.49145 0
M  V30 5732 H 503.216 1.14079 2.92973 0
M  V30 5733 N 506.988 0.0434614 1.5754 0
M  V30 5734 C 507.938 -0.943039 2.07583 0
M  V30 5735 C 508.922 -1.27662 0.979342 0
M  V30 5736 O 510.114 -1.26034 1.24276 0
M  V30 5737 C 507.243 -2.22056 2.61813 0
M  V30 5738 C 506.329 -1.91471 3.78417 0
M  V30 5739 N 506.72 -1.31214 4.88484 0
M  V30 5740 C 505.018 -2.21384 3.87176 0
M  V30 5741 C 505.719 -1.18084 5.69588 0
M  V30 5742 N 504.695 -1.68116 5.16951 0
M  V30 5743 H 508.497 -0.472354 2.90079 0
M  V30 5744 H 506.011 -0.161191 1.61598 0
M  V30 5745 H 508.008 -2.93618 2.95963 0
M  V30 5746 H 506.668 -2.69738 1.80752 0
M  V30 5747 H 507.679 -0.985318 5.08441 0
M  V30 5748 H 504.356 -2.7164 3.17046 0
M  V30 5749 H 505.746 -0.713684 6.68099 0
M  V30 5750 N 508.466 -1.55915 -0.229846 0
M  V30 5751 C 509.691 -1.8296 -0.976743 0
M  V30 5752 C 510.116 -0.622735 -1.77493 0
M  V30 5753 O 509.474 0.428431 -1.76165 0
M  V30 5754 C 509.522 -3.07916 -1.8767 0
M  V30 5755 O 508.626 -2.86028 -2.97088 0
M  V30 5756 H 507.967 -0.603453 -0.277021 0
M  V30 5757 H 510.497 -2.0312 -0.245669 0
M  V30 5758 H 510.507 -3.37802 -2.2881 0
M  V30 5759 H 509.182 -3.95389 -1.28996 0
M  V30 5760 H 507.759 -2.67355 -2.59954 0
M  V30 5761 N 509.944 0.496216 -1.49584 0
M  V30 5762 C 511.169 1.27865 -1.63295 0
M  V30 5763 C 511.594 1.85592 -0.306156 0
M  V30 5764 O 510.952 1.66092 0.726851 0
M  V30 5765 C 511 2.38128 -2.7079 0
M  V30 5766 O 510.104 3.42108 -2.30296 0
M  V30 5767 H 509.445 0.377279 -0.546403 0
M  V30 5768 H 511.975 0.593497 -1.95803 0
M  V30 5769 H 511.985 2.8382 -2.93104 0
M  V30 5770 H 510.66 1.95479 -3.67098 0
M  V30 5771 H 509.237 3.02301 -2.18331 0
M  V30 5772 N 511.423 1.38739 0.74761 0
M  V30 5773 C 512.355 1.32341 1.87132 0
M  V30 5774 C 513.368 0.234502 1.61102 0
M  V30 5775 O 514.557 0.492516 1.71571 0
M  V30 5776 C 511.657 1.02915 3.22896 0
M  V30 5777 C 510.83 2.22834 3.76383 0
M  V30 5778 C 509.889 1.90059 4.90677 0
M  V30 5779 O 508.915 2.62615 5.04997 0
M  V30 5780 N 510.117 0.859141 5.74107 0
M  V30 5781 H 512.882 2.29175 1.93129 0
M  V30 5782 H 510.443 1.32678 0.927805 0
M  V30 5783 H 512.435 0.79031 3.96908 0
M  V30 5784 H 511.005 0.148572 3.12247 0
M  V30 5785 H 510.225 2.62747 2.93867 0
M  V30 5786 H 511.513 3.02851 4.08851 0
M  V30 5787 H 510.911 0.257564 5.65113 0
M  V30 5788 H 509.468 0.680189 6.48241 0
M  V30 5789 N 512.901 -0.976442 1.23707 0
M  V30 5790 C 514.129 -1.75341 1.09833 0
M  V30 5791 C 514.544 -1.8553 -0.349885 0
M  V30 5792 O 513.901 -1.33732 -1.24185 0
M  V30 5793 C 513.952 -3.17833 1.72233 0
M  V30 5794 O 513.673 -3.08167 3.11391 0
M  V30 5795 C 515.174 -4.11906 1.63853 0
M  V30 5796 H 512.394 -0.550137 0.384175 0
M  V30 5797 H 514.938 -1.2265 1.63638 0
M  V30 5798 H 513.093 -3.67538 1.22452 0
M  V30 5799 H 513.507 -3.97897 3.41729 0
M  V30 5800 H 514.981 -5.09579 2.12211 0
M  V30 5801 H 515.458 -4.35109 0.598092 0
M  V30 5802 H 516.064 -3.68107 2.13019 0
M  V30 5803 N 514.379 -1.04941 -1.1758 0
M  V30 5804 C 515.656 -0.671918 -1.83697 0
M  V30 5805 C 516.036 0.847929 -1.93322 0
M  V30 5806 O 515.384 1.75287 -1.46583 0
M  V30 5807 C 515.594 -1.35797 -3.21497 0
M  V30 5808 C 516.942 -1.4944 -3.97433 0
M  V30 5809 O 517.966 -1.31678 -3.30967 0
M  V30 5810 O 516.825 -1.78463 -5.1654 0
M  V30 5811 H 513.919 -0.236212 -0.792548 0
M  V30 5812 H 516.465 -1.14884 -1.24899 0
M  V30 5813 H 515.237 -2.39498 -3.09446 0
M  V30 5814 H 514.86 -0.870236 -3.8796 0
M  V30 5815 N 515.857 1.33968 -0.830081 0
M  V30 5816 C 516.805 2.31301 -0.245435 0
M  V30 5817 C 517.799 1.57734 0.617762 0
M  V30 5818 O 519.005 1.72674 0.508303 0
M  V30 5819 H 515.38 0.749552 -0.0606316 0
M  V30 5820 H 517.351 2.78129 -1.08105 0
M  V30 5821 C 516.1 3.42961 0.572084 0
M  V30 5822 H 515.423 3.99714 -0.0828118 0
M  V30 5823 H 516.863 4.13286 0.94715 0
M  V30 5824 C 515.322 2.88043 1.74737 0
M  V30 5825 O 515.852 2.83508 2.8458 0
M  V30 5826 N 514.058 2.44768 1.56642 0
M  V30 5827 H 513.605 2.48656 0.672901 0
M  V30 5828 H 513.563 2.08375 2.3543 0
M  V30 5829 N 517.335 0.585699 1.46312 0
M  V30 5830 C 518.584 0.0701192 2.01578 0
M  V30 5831 C 518.897 -1.29889 1.46247 0
M  V30 5832 O 520.103 -1.90598 1.93351 0
M  V30 5833 C 518.559 0.0747499 3.59822 0
M  V30 5834 C 518.167 1.44226 4.24149 0
M  V30 5835 C 519.911 -0.38673 4.22735 0
M  V30 5836 C 517.818 1.40446 5.74481 0
M  V30 5837 H 516.748 0.0224441 0.753666 0
M  V30 5838 H 519.399 0.737789 1.68015 0
M  V30 5839 H 517.781 -0.659144 3.90476 0
M  V30 5840 H 518.955 2.19612 4.05101 0
M  V30 5841 H 517.27 1.84401 3.73343 0
M  V30 5842 H 519.867 -0.433853 5.32937 0
M  V30 5843 H 520.21 -1.40489 3.91878 0
M  V30 5844 H 520.743 0.293195 3.96718 0
M  V30 5845 H 517.482 2.39952 6.10003 0
M  V30 5846 H 517.002 0.692845 5.95785 0
M  V30 5847 H 518.681 1.11865 6.37256 0
M  V30 5848 N 518.813 -1.54241 0.323641 0
M  V30 5849 C 520.041 -2.04985 -0.280871 0
M  V30 5850 C 520.456 -1.19978 -1.45777 0
M  V30 5851 O 519.813 -0.230471 -1.81039 0
M  V30 5852 C 519.864 -3.54353 -0.715258 0
M  V30 5853 O 519.585 -4.36132 0.414817 0
M  V30 5854 C 521.086 -4.21189 -1.38257 0
M  V30 5855 H 518.306 -0.66851 -0.0577502 0
M  V30 5856 H 520.85 -1.99029 0.469852 0
M  V30 5857 H 519.005 -3.60596 -1.41596 0
M  V30 5858 H 519.419 -5.2445 0.0725227 0
M  V30 5859 H 520.893 -5.27154 -1.63745 0
M  V30 5860 H 521.37 -3.72307 -2.32989 0
M  V30 5861 H 521.976 -4.19085 -0.724447 0
M  V30 5862 N 520.291 -0.0518155 -1.57515 0
M  V30 5863 C 521.221 0.920283 -2.146 0
M  V30 5864 C 522.202 1.32406 -1.06783 0
M  V30 5865 O 523.387 1.39866 -1.34726 0
M  V30 5866 C 520.517 2.1949 -2.6915 0
M  V30 5867 C 519.471 1.93116 -3.81956 0
M  V30 5868 C 518.797 3.27037 -4.23026 0
M  V30 5869 C 520.097 1.25225 -5.07066 0
M  V30 5870 H 521.791 0.444801 -2.96077 0
M  V30 5871 H 519.337 0.212508 -1.42423 0
M  V30 5872 H 521.29 2.87894 -3.07725 0
M  V30 5873 H 520.014 2.69244 -1.84865 0
M  V30 5874 H 518.673 1.27123 -3.43854 0
M  V30 5875 H 518.321 3.74595 -3.3569 0
M  V30 5876 H 518.021 3.10189 -4.99056 0
M  V30 5877 H 519.545 3.96673 -4.64202 0
M  V30 5878 H 520.959 1.83666 -5.43083 0
M  V30 5879 H 519.356 1.18702 -5.88243 0
M  V30 5880 H 520.426 0.228382 -4.84362 0
M  V30 5881 N 521.769 1.56035 0.221574 0
M  V30 5882 C 523.017 1.78693 0.944102 0
M  V30 5883 C 523.338 0.620317 1.8487 0
M  V30 5884 O 522.608 -0.362784 1.92512 0
M  V30 5885 H 521.188 0.659082 0.351597 0
M  V30 5886 H 523.85 1.93497 0.233435 0
M  V30 5887 H 522.946 2.70837 1.55093 0
M  V30 5888 O 523.286 -0.367026 1.57274 0
M  V30 5889 H 523.977 -1.01783 1.64803 0
M  V30 END ATOM
M  V30 BEGIN BOND
M  V30 END BOND
M  V30 END CTAB
M  END
$$$$
