drugbank_target|Q9BQB6 Vitamin K epoxide reductase complex subunit 1 (DB00170; DB00266; DB00498; DB00682; DB00946; DB01418)
 OpenBabel12092119373D

  0  0  0     0  0            999 V3000
M  V30 BEGIN CTAB
M  V30 COUNTS 2599 2629 0 0 0
M  V30 BEGIN ATOM
M  V30 1 H -0.908 1.98254 -0.117106 0
M  V30 2 N 0 1.576 0 0
M  V30 3 C 0.933 2.03868 1.02534 0
M  V30 4 C 1.911 0.928543 1.3348 0
M  V30 5 O 3.095 1.19667 1.45644 0
M  V30 6 C 0.222 2.43627 2.35294 0
M  V30 7 C -0.732 3.65373 2.2001 0
M  V30 8 S 0.101 5.13292 1.52614 0
M  V30 9 C 1.257 5.56322 2.86805 0
M  V30 10 H 1.49 2.90518 0.631377 0
M  V30 11 H -0.977 1.52953 0.210867 0
M  V30 12 H 0.981 2.67203 3.11629 0
M  V30 13 H -0.358 1.57376 2.7183 0
M  V30 14 H -1.165 3.90944 3.18086 0
M  V30 15 H -1.563 3.418 1.51819 0
M  V30 16 H 0.729 5.58782 3.83104 0
M  V30 17 H 1.672 6.56266 2.65933 0
M  V30 18 H 2.08 4.83886 2.90714 0
M  V30 19 N 1.4781 -0.272755 1.55222 0
M  V30 20 C 2.7261 -1.00234 1.75492 0
M  V30 21 C 3.0471 -1.8681 0.5592 0
M  V30 22 O 2.3171 -1.91215 -0.425882 0
M  V30 23 H 0.8971 -0.373076 0.647166 0
M  V30 24 H 3.5591 -0.296926 1.92625 0
M  V30 25 H 2.6551 -1.63913 2.65592 0
M  V30 26 N 2.9562 -1.48159 -0.537278 0
M  V30 27 C 4.1812 -1.59707 -1.32319 0
M  V30 28 C 4.6062 -0.254859 -1.86365 0
M  V30 29 O 3.9642 0.772378 -1.64024 0
M  V30 30 C 4.0122 -2.6412 -2.45505 0
M  V30 31 O 3.1162 -2.20774 -3.48328 0
M  V30 32 H 2.4572 -0.535791 -0.392204 0
M  V30 33 H 4.9872 -1.94092 -0.647268 0
M  V30 34 H 4.9972 -2.85166 -2.91795 0
M  V30 35 H 3.6722 -3.61567 -2.05528 0
M  V30 36 H 2.2492 -2.09911 -3.08207 0
M  V30 37 N 4.4343 0.785586 -1.36625 0
M  V30 38 C 5.6623 1.57448 -1.3423 0
M  V30 39 C 6.0773 1.88649 0.0755653 0
M  V30 40 O 5.4343 1.50414 1.03354 0
M  V30 41 C 5.4853 2.89316 -2.16745 0
M  V30 42 O 5.2063 2.59459 -3.53005 0
M  V30 43 C 6.7073 3.83606 -2.22174 0
M  V30 44 H 3.9273 0.488226 -0.4603 0
M  V30 45 H 6.4713 0.974733 -1.79775 0
M  V30 46 H 4.6263 3.4575 -1.74745 0
M  V30 47 H 5.0403 3.43804 -3.96105 0
M  V30 48 H 6.5143 4.73181 -2.8426 0
M  V30 49 H 6.9913 4.21734 -1.22627 0
M  V30 50 H 7.5973 3.33104 -2.64427 0
M  V30 51 N 5.9124 1.20967 1.01018 0
M  V30 52 C 7.1584 1.0353 1.7508 0
M  V30 53 C 7.5134 -0.42734 1.87594 0
M  V30 54 O 6.8064 -1.31298 1.3954 0
M  V30 55 C 7.0004 1.65997 3.16512 0
M  V30 56 C 6.8294 3.18184 3.17788 0
M  V30 57 C 5.5994 3.87198 3.24662 0
M  V30 58 C 7.7974 4.15334 3.03319 0
M  V30 59 N 5.7794 5.26618 3.15509 0
M  V30 60 C 7.1504 5.41472 3.02007 0
M  V30 61 C 9.2054 4.06449 2.87583 0
M  V30 62 C 7.9084 6.5975 2.86571 0
M  V30 63 C 9.9344 5.24357 2.73503 0
M  V30 64 C 9.2964 6.49404 2.72862 0
M  V30 65 H 5.3954 0.433137 0.651089 0
M  V30 66 H 7.9794 1.5324 1.20107 0
M  V30 67 H 6.1504 1.18863 3.69765 0
M  V30 68 H 7.8824 1.41816 3.79039 0
M  V30 69 H 4.6374 3.38093 3.31648 0
M  V30 70 H 5.0614 5.99626 3.14289 0
M  V30 71 H 9.7034 3.10573 2.86887 0
M  V30 72 H 7.4214 7.55792 2.86015 0
M  V30 73 H 11.0074 5.19299 2.62334 0
M  V30 74 H 9.8874 7.39105 2.62093 0
M  V30 75 N 7.3905 -1.2043 1.01659 0
M  V30 76 C 8.6385 -1.89423 0.704522 0
M  V30 77 C 8.9595 -1.79231 -0.768197 0
M  V30 78 O 8.2295 -1.1947 -1.55254 0
M  V30 79 H 6.8095 -0.701178 0.257602 0
M  V30 80 H 9.4715 -1.4626 1.28818 0
M  V30 81 H 8.5675 -2.96052 0.987916 0
M  V30 82 N 8.8686 -0.792821 -1.36206 0
M  V30 83 C 10.0936 -0.377701 -2.03932 0
M  V30 84 C 10.5186 0.998947 -1.59382 0
M  V30 85 O 9.8766 1.64421 -0.763903 0
M  V30 86 C 9.9246 -0.453635 -3.57735 0
M  V30 87 O 9.0286 0.538151 -4.08874 0
M  V30 88 H 8.3696 -0.159855 -0.644471 0
M  V30 89 H 10.8996 -1.07488 -1.7409 0
M  V30 90 H 10.9096 -0.318464 -4.06755 0
M  V30 91 H 9.5846 -1.45784 -3.89512 0
M  V30 92 H 8.1616 0.364359 -3.71116 0
M  V30 93 N 10.3467 1.47872 -0.545128 0
M  V30 94 C 11.7577 1.86384 -0.108581 0
M  V30 95 C 12.1087 1.45309 1.31832 0
M  V30 96 O 11.2337 0.850641 1.9898 0
M  V30 97 C 11.8287 3.38265 -0.190274 0
M  V30 98 C 10.3877 3.75914 0.191164 0
M  V30 99 C 9.5347 2.71926 -0.543273 0
M  V30 100 H 12.4857 1.39561 -0.755537 0
M  V30 101 H 12.5067 3.75831 0.594217 0
M  V30 102 H 12.0187 3.6813 -1.2289 0
M  V30 103 H 10.1197 3.51665 1.23136 0
M  V30 104 H 10.2327 4.78836 -0.158987 0
M  V30 105 H 8.5967 2.54697 0.0122495 0
M  V30 106 H 9.3797 3.04634 -1.58282 0
M  V30 107 N 11.8248 0.280983 1.55075 0
M  V30 108 C 13.0728 -0.333455 1.9933 0
M  V30 109 C 13.3938 -1.55937 1.17085 0
M  V30 110 O 12.6638 -1.94143 0.261805 0
M  V30 111 H 11.2438 -0.126197 0.736263 0
M  V30 112 H 13.9058 0.387678 1.91005 0
M  V30 113 H 13.0018 -0.619292 3.05894 0
M  V30 114 N 13.3029 -1.57598 0.00835791 0
M  V30 115 C 14.5489 -1.92046 -0.670055 0
M  V30 116 C 14.9039 -0.88351 -1.70915 0
M  V30 117 O 14.1969 0.103223 -1.91322 0
M  V30 118 C 14.3909 -3.3101 -1.34787 0
M  V30 119 C 14.2199 -4.48126 -0.375945 0
M  V30 120 C 12.9899 -5.05297 0.0166914 0
M  V30 121 C 15.1879 -5.1303 0.361272 0
M  V30 122 N 13.1699 -6.05931 0.985952 0
M  V30 123 C 14.5409 -6.08571 1.18495 0
M  V30 124 C 16.5959 -4.9609 0.42421 0
M  V30 125 C 15.2989 -6.88996 2.06584 0
M  V30 126 C 17.3249 -5.77107 1.29236 0
M  V30 127 C 16.6869 -6.72248 2.10386 0
M  V30 128 H 12.7859 -0.75096 -0.218136 0
M  V30 129 H 15.3699 -1.94572 0.0706669 0
M  V30 130 H 13.5409 -3.29342 -2.05884 0
M  V30 131 H 15.2729 -3.52864 -1.98164 0
M  V30 132 H 12.0279 -4.72279 -0.353435 0
M  V30 133 H 12.4519 -6.60932 1.4662 0
M  V30 134 H 17.0939 -4.22378 -0.188915 0
M  V30 135 H 14.8119 -7.62028 2.6896 0
M  V30 136 H 18.3979 -5.66038 1.34508 0
M  V30 137 H 17.2779 -7.33846 2.76476 0
M  V30 138 N 14.781 0.264519 -1.55364 0
M  V30 139 C 16.027 0.99646 -1.76631 0
M  V30 140 C 16.36 1.85632 -0.570478 0
M  V30 141 O 15.635 1.89647 0.43175 0
M  V30 142 C 15.918 1.87187 -3.07625 0
M  V30 143 C 15.771 1.04138 -4.37579 0
M  V30 144 C 17.09 2.85749 -3.34717 0
M  V30 145 H 14.209 0.360841 -0.642622 0
M  V30 146 H 16.851 0.268218 -1.88097 0
M  V30 147 H 15.001 2.49279 -2.9798 0
M  V30 148 H 16.673 0.440517 -4.59192 0
M  V30 149 H 14.916 0.345115 -4.32425 0
M  V30 150 H 15.587 1.68729 -5.2558 0
M  V30 151 H 18.063 2.33793 -3.4421 0
M  V30 152 H 16.939 3.44136 -4.27623 0
M  V30 153 H 17.2 3.61311 -2.54768 0
M  V30 154 N 16.2591 1.48442 0.529413 0
M  V30 155 C 17.6751 1.34575 0.858004 0
M  V30 156 C 17.8751 0.3572 1.98309 0
M  V30 157 O 16.9311 -0.221379 2.51528 0
M  V30 158 C 18.2441 2.74617 1.22499 0
M  V30 159 C 19.7921 2.83109 1.33484 0
M  V30 160 C 20.2671 4.23854 1.73526 0
M  V30 161 N 21.7581 4.2653 1.80628 0
M  V30 162 C 22.4931 5.32372 2.12997 0
M  V30 163 N 21.9891 6.48491 2.43786 0
M  V30 164 N 23.7821 5.19766 2.14008 0
M  V30 165 H 15.9331 2.1133 -0.212925 0
M  V30 166 H 18.1961 0.947439 -0.0326199 0
M  V30 167 H 17.9021 3.4852 0.471905 0
M  V30 168 H 17.7761 3.08177 2.17501 0
M  V30 169 H 20.1631 2.09462 2.0787 0
M  V30 170 H 20.2441 2.53168 0.366027 0
M  V30 171 H 19.8881 4.98018 0.997013 0
M  V30 172 H 19.8181 4.5124 2.71459 0
M  V30 173 H 22.3091 3.42772 1.59108 0
M  V30 174 H 22.6221 7.24993 2.67592 0
M  V30 175 H 20.9671 6.51765 2.41304 0
M  V30 176 H 24.1581 4.28066 1.89412 0
M  V30 177 H 24.3311 6.02354 2.38902 0
M  V30 178 N 17.7372 -0.778329 1.37039 0
M  V30 179 C 18.6672 -1.90546 1.34962 0
M  V30 180 C 19.6482 -1.68681 0.219274 0
M  V30 181 O 20.8332 -1.89634 0.418624 0
M  V30 182 C 17.9632 -3.27734 1.14925 0
M  V30 183 C 16.9172 -3.64147 2.24902 0
M  V30 184 C 16.2432 -4.99806 1.89996 0
M  V30 185 C 17.5432 -3.71579 3.67051 0
M  V30 186 H 19.2372 -1.92541 2.29277 0
M  V30 187 H 16.7832 -0.924948 1.10366 0
M  V30 188 H 18.7362 -4.06215 1.12104 0
M  V30 189 H 17.4602 -3.26154 0.170631 0
M  V30 190 H 16.1192 -2.8797 2.26868 0
M  V30 191 H 15.7672 -4.94759 0.906796 0
M  V30 192 H 15.4672 -5.25139 2.63634 0
M  V30 193 H 16.9912 -5.80694 1.88749 0
M  V30 194 H 18.4052 -4.40227 3.67251 0
M  V30 195 H 16.8022 -4.08405 4.39688 0
M  V30 196 H 17.8722 -2.72404 4.01154 0
M  V30 197 N 19.2153 -1.21501 -1.00376 0
M  V30 198 C 20.1783 -0.976927 -2.07337 0
M  V30 199 C 21.1783 0.0525322 -1.60714 0
M  V30 200 O 22.3683 -0.184869 -1.73216 0
M  V30 201 C 19.5003 -0.473423 -3.37597 0
M  V30 202 H 20.6933 -1.92587 -2.29892 0
M  V30 203 H 18.2463 -1.03217 -1.17371 0
M  V30 204 H 18.9813 0.480379 -3.20722 0
M  V30 205 H 18.7663 -1.216 -3.72768 0
M  V30 206 H 20.2563 -0.32675 -4.1632 0
M  V30 207 N 20.6934 1.19889 -1.02296 0
M  V30 208 C 21.6234 2.25141 -0.619174 0
M  V30 209 C 22.6044 1.66051 0.368915 0
M  V30 210 O 23.7894 1.92546 0.252941 0
M  V30 211 C 20.9194 3.4728 0.0368783 0
M  V30 212 C 19.8734 4.19005 -0.872865 0
M  V30 213 C 19.1994 5.34637 -0.0822402 0
M  V30 214 C 20.4994 4.74452 -2.18387 0
M  V30 215 H 22.1934 2.59171 -1.49903 0
M  V30 216 H 19.7394 1.24579 -0.722222 0
M  V30 217 H 21.6924 4.20098 0.330958 0
M  V30 218 H 20.4164 3.12433 0.95149 0
M  V30 219 H 19.0754 3.48061 -1.15105 0
M  V30 220 H 18.7234 4.96034 0.83422 0
M  V30 221 H 18.4234 5.83557 -0.688149 0
M  V30 222 H 19.9474 6.10255 0.205238 0
M  V30 223 H 21.3614 5.39055 -1.95172 0
M  V30 224 H 19.7584 5.33834 -2.74119 0
M  V30 225 H 20.8284 3.92844 -2.84257 0
M  V30 226 N 22.1715 0.800033 1.35784 0
M  V30 227 C 23.4115 0.382891 2.00782 0
M  V30 228 C 23.7755 -1.02891 1.62103 0
M  V30 229 O 24.9765 -1.54771 2.19771 0
M  V30 230 C 23.2475 0.553299 3.53091 0
M  V30 231 S 24.8065 0.225608 4.3822 0
M  V30 232 H 21.6245 0.145737 0.695904 0
M  V30 233 H 24.2265 1.04085 1.65489 0
M  V30 234 H 22.9305 1.58091 3.78729 0
M  V30 235 H 22.4615 -0.120214 3.93216 0
M  V30 236 H 24.4765 -0.969074 4.86645 0
M  V30 237 N 23.6496 -1.47581 0.552962 0
M  V30 238 C 24.5796 -2.32762 -0.185451 0
M  V30 239 C 25.5606 -1.43527 -0.912905 0
M  V30 240 O 26.7456 -1.72388 -0.894201 0
M  V30 241 C 23.8756 -3.25219 -1.21859 0
M  V30 242 C 22.8296 -4.23661 -0.607864 0
M  V30 243 C 22.1556 -5.05413 -1.74533 0
M  V30 244 C 23.4556 -5.20481 0.435582 0
M  V30 245 H 25.1496 -2.94749 0.525684 0
M  V30 246 H 22.6956 -1.41738 0.254251 0
M  V30 247 H 24.6486 -3.8365 -1.7433 0
M  V30 248 H 23.3726 -2.61279 -1.95961 0
M  V30 249 H 22.0316 -3.66451 -0.104489 0
M  V30 250 H 21.6796 -4.3788 -2.47529 0
M  V30 251 H 21.3796 -5.72059 -1.34249 0
M  V30 252 H 22.9036 -5.66701 -2.27338 0
M  V30 253 H 24.3176 -5.733 -0.00290157 0
M  V30 254 H 22.7146 -5.95305 0.757067 0
M  V30 255 H 23.7846 -4.66217 1.33303 0
M  V30 256 N 25.1277 -0.289203 -1.54924 0
M  V30 257 C 26.3557 0.326463 -2.04308 0
M  V30 258 C 26.7707 1.48413 -1.16701 0
M  V30 259 O 26.1277 1.81507 -0.190087 0
M  V30 260 C 26.1787 0.794014 -3.52672 0
M  V30 261 O 25.8997 -0.317564 -4.36948 0
M  V30 262 C 27.4007 1.47605 -4.18004 0
M  V30 263 H 24.6207 0.0726272 -0.667058 0
M  V30 264 H 27.1647 -0.425401 -2.00026 0
M  V30 265 H 25.3197 1.49593 -3.57352 0
M  V30 266 H 25.7337 0.0443186 -5.24481 0
M  V30 267 H 27.2077 1.75447 -5.23376 0
M  V30 268 H 27.6847 2.41224 -3.67025 0
M  V30 269 H 28.2907 0.81762 -4.17367 0
M  V30 270 N 26.6058 1.57591 -0.0167156 0
M  V30 271 C 27.8538 1.90906 0.663285 0
M  V30 272 C 28.1748 0.892509 1.73376 0
M  V30 273 O 27.4448 -0.0677623 1.95783 0
M  V30 274 H 26.0248 0.704637 0.247983 0
M  V30 275 H 28.6868 1.94803 -0.0615909 0
M  V30 276 H 27.7828 2.9116 1.12393 0
M  V30 277 N 28.0839 -0.256276 1.55502 0
M  V30 278 C 29.0139 -1.32102 1.92539 0
M  V30 279 C 29.9949 -1.50684 0.789194 0
M  V30 280 O 31.1799 -1.63449 1.04872 0
M  V30 281 C 28.3099 -2.67752 2.21192 0
M  V30 282 C 27.2639 -2.63878 3.36975 0
M  V30 283 C 26.5899 -4.03236 3.51147 0
M  V30 284 C 27.8899 -2.21682 4.72921 0
M  V30 285 H 29.5839 -1.01351 2.81724 0
M  V30 286 H 27.1299 -0.486105 1.35547 0
M  V30 287 H 29.0829 -3.42365 2.45691 0
M  V30 288 H 27.8069 -3.0012 1.28824 0
M  V30 289 H 26.4659 -1.91722 3.12471 0
M  V30 290 H 26.1139 -4.32854 2.56216 0
M  V30 291 H 25.8139 -4.01535 4.29003 0
M  V30 292 H 27.3379 -4.79563 3.77957 0
M  V30 293 H 28.7519 -2.86023 4.96854 0
M  V30 294 H 27.1489 -2.3111 5.53812 0
M  V30 295 H 28.2189 -1.16833 4.70615 0
M  V30 296 N 29.562 -1.4872 -0.521534 0
M  V30 297 C 30.808 -1.574 -1.27879 0
M  V30 298 C 31.141 -0.250817 -1.92573 0
M  V30 299 O 30.416 0.743934 -1.79711 0
M  V30 300 C 30.699 -2.71843 -2.36164 0
M  V30 301 C 30.552 -4.13893 -1.76105 0
M  V30 302 C 31.871 -2.82008 -3.37875 0
M  V30 303 H 28.99 -0.572941 -0.463581 0
M  V30 304 H 31.632 -1.80927 -0.580119 0
M  V30 305 H 29.782 -2.51914 -2.95756 0
M  V30 306 H 31.454 -4.45284 -1.20499 0
M  V30 307 H 29.697 -4.20498 -1.06601 0
M  V30 308 H 30.368 -4.89804 -2.5455 0
M  V30 309 H 32.844 -3.00086 -2.88249 0
M  V30 310 H 31.72 -3.63796 -4.11028 0
M  V30 311 H 31.981 -1.90511 -3.98946 0
M  V30 312 N 31.0401 0.771051 -1.3745 0
M  V30 313 C 31.9701 1.89827 -1.3597 0
M  V30 314 C 32.9511 1.68562 -0.228216 0
M  V30 315 O 34.1361 1.8941 -0.428675 0
M  V30 316 C 31.2661 3.2712 -1.16662 0
M  V30 317 C 30.2201 3.6295 -2.2683 0
M  V30 318 C 29.5461 4.98791 -1.92644 0
M  V30 319 C 30.8461 3.69627 -3.69017 0
M  V30 320 H 32.5401 1.91323 -2.30295 0
M  V30 321 H 30.0861 0.919082 -1.10855 0
M  V30 322 H 32.0391 4.05615 -1.14256 0
M  V30 323 H 30.7631 3.26059 -0.187926 0
M  V30 324 H 29.4221 2.86763 -2.28392 0
M  V30 325 H 29.0701 4.94271 -0.933021 0
M  V30 326 H 28.7701 5.23733 -2.66416 0
M  V30 327 H 30.2941 5.79685 -1.91826 0
M  V30 328 H 31.7081 4.38273 -3.69581 0
M  V30 329 H 30.1051 4.06067 -4.41848 0
M  V30 330 H 31.1751 2.70273 -4.02592 0
M  V30 331 N 32.5182 1.22032 0.997298 0
M  V30 332 C 33.7432 1.06921 1.77715 0
M  V30 333 C 34.1682 -0.376226 1.84299 0
M  V30 334 O 33.5262 -1.27165 1.29223 0
M  V30 335 C 33.5742 1.67996 3.19076 0
M  V30 336 O 32.6782 0.930653 4.01762 0
M  V30 337 H 32.0192 0.375814 0.547412 0
M  V30 338 H 34.5492 1.61737 1.25309 0
M  V30 339 H 34.5592 1.72538 3.69723 0
M  V30 340 H 33.2342 2.73182 3.13599 0
M  V30 341 H 31.8112 0.960917 3.60307 0
M  V30 342 N 33.9963 -1.19345 1.0293 0
M  V30 343 C 34.9263 -2.2481 0.631105 0
M  V30 344 C 35.9073 -1.66245 -0.360104 0
M  V30 345 O 37.0923 -1.92677 -0.242726 0
M  V30 346 C 34.2223 -3.47295 -0.0184607 0
M  V30 347 C 33.1763 -4.18536 0.895073 0
M  V30 348 C 32.5023 -5.34586 0.110592 0
M  V30 349 C 33.8023 -4.73287 2.209 0
M  V30 350 H 35.4963 -2.58372 1.51275 0
M  V30 351 H 33.0423 -1.24194 0.728818 0
M  V30 352 H 34.9953 -4.20268 -0.308675 0
M  V30 353 H 33.7193 -3.12933 -0.934907 0
M  V30 354 H 32.3783 -3.47446 1.16949 0
M  V30 355 H 32.0263 -4.96469 -0.807902 0
M  V30 356 H 31.7263 -5.83183 0.719087 0
M  V30 357 H 33.2503 -6.10355 -0.172871 0
M  V30 358 H 34.6643 -5.38013 1.98028 0
M  V30 359 H 33.0613 -5.32373 2.76946 0
M  V30 360 H 34.1313 -3.91331 2.86336 0
M  V30 361 N 35.4744 -0.807222 -1.35358 0
M  V30 362 C 36.7044 -0.399796 -2.02695 0
M  V30 363 C 37.1124 0.994176 -1.60974 0
M  V30 364 O 36.4554 1.65209 -0.803226 0
M  V30 365 C 36.5174 -0.404445 -3.57218 0
M  V30 366 C 36.1814 -1.74904 -4.22206 0
M  V30 367 C 37.1784 -2.70743 -4.4384 0
M  V30 368 C 34.8634 -2.03322 -4.5931 0
M  V30 369 C 36.8574 -3.93183 -5.01683 0
M  V30 370 C 34.5444 -3.26026 -5.16866 0
M  V30 371 C 35.5424 -4.20774 -5.37994 0
M  V30 372 O 35.2304 -5.41312 -5.94337 0
M  V30 373 H 34.9624 -0.160517 -0.656666 0
M  V30 374 H 37.5164 -1.09235 -1.73945 0
M  V30 375 H 35.7464 0.344707 -3.85161 0
M  V30 376 H 37.4354 -0.0192429 -4.05895 0
M  V30 377 H 38.2014 -2.5008 -4.15554 0
M  V30 378 H 34.0804 -1.30384 -4.42178 0
M  V30 379 H 37.6244 -4.6715 -5.1809 0
M  V30 380 H 33.5214 -3.46559 -5.44579 0
M  V30 381 H 34.2894 -5.42618 -6.12787 0
M  V30 382 N 36.9525 1.47285 -0.560781 0
M  V30 383 C 37.9155 2.28535 0.174488 0
M  V30 384 C 38.9155 1.37153 0.839388 0
M  V30 385 O 40.1055 1.59748 0.694702 0
M  V30 386 C 37.2375 3.16934 1.25561 0
M  V30 387 H 38.4305 2.95012 -0.539262 0
M  V30 388 H 35.9835 1.53034 -0.317865 0
M  V30 389 H 36.7185 2.55157 2.00164 0
M  V30 390 H 36.5035 3.8419 0.783604 0
M  V30 391 H 37.9935 3.78143 1.77193 0
M  V30 392 N 38.4306 0.297415 1.54768 0
M  V30 393 C 39.3606 -0.573494 2.26348 0
M  V30 394 C 40.3416 -1.14085 1.26169 0
M  V30 395 O 41.5266 -1.17086 1.54934 0
M  V30 396 C 38.6566 -1.74716 3.00153 0
M  V30 397 C 37.6106 -1.31032 4.07449 0
M  V30 398 C 36.9366 -2.56887 4.68949 0
M  V30 399 C 38.2366 -0.444183 5.20408 0
M  V30 400 H 39.9306 0.0235131 2.99391 0
M  V30 401 H 37.4766 0.0127488 1.43994 0
M  V30 402 H 39.4296 -2.3625 3.48947 0
M  V30 403 H 38.1536 -2.37035 2.24682 0
M  V30 404 H 36.8126 -0.718066 3.59499 0
M  V30 405 H 36.4606 -3.17512 3.90122 0
M  V30 406 H 36.1606 -2.2836 5.41411 0
M  V30 407 H 37.6846 -3.19229 5.20505 0
M  V30 408 H 39.0986 -0.9651 5.65118 0
M  V30 409 H 37.4956 -0.252846 5.99567 0
M  V30 410 H 38.5656 0.531609 4.81977 0
M  V30 411 N 39.9087 -1.5758 0.0250728 0
M  V30 412 C 40.8587 -2.06468 -0.967201 0
M  V30 413 C 41.8427 -0.964376 -1.28797 0
M  V30 414 O 43.0347 -1.22797 -1.27475 0
M  V30 415 C 40.1637 -2.59203 -2.25097 0
M  V30 416 C 39.2497 -3.76157 -1.95874 0
M  V30 417 N 39.6407 -4.86919 -1.36905 0
M  V30 418 C 37.9387 -3.84566 -2.25887 0
M  V30 419 C 38.6397 -5.68172 -1.24724 0
M  V30 420 N 37.6157 -5.14953 -1.74138 0
M  V30 421 H 41.4177 -2.89508 -0.506176 0
M  V30 422 H 38.9317 -1.61399 -0.18004 0
M  V30 423 H 40.9287 -2.92517 -2.97052 0
M  V30 424 H 39.5887 -1.77592 -2.71829 0
M  V30 425 H 40.5997 -5.07256 -1.04459 0
M  V30 426 H 37.2767 -3.13854 -2.75321 0
M  V30 427 H 38.6667 -6.67221 -0.791605 0
M  V30 428 N 41.3868 0.248026 -1.55636 0
M  V30 429 C 42.6328 0.97767 -1.77678 0
M  V30 430 C 42.9658 1.85016 -0.590135 0
M  V30 431 O 42.2408 1.90095 0.411611 0
M  V30 432 C 42.5238 1.83914 -3.09593 0
M  V30 433 C 42.3768 0.99491 -4.38659 0
M  V30 434 C 43.6958 2.82183 -3.37729 0
M  V30 435 H 40.8148 0.354005 -0.646413 0
M  V30 436 H 43.4568 0.248253 -1.88371 0
M  V30 437 H 41.6068 2.46104 -3.00608 0
M  V30 438 H 43.2788 0.391789 -4.59633 0
M  V30 439 H 41.5218 0.299231 -4.32767 0
M  V30 440 H 42.1928 1.63145 -5.2734 0
M  V30 441 H 44.6688 2.30129 -3.4667 0
M  V30 442 H 43.5448 3.39582 -4.31249 0
M  V30 443 H 43.8058 3.58588 -2.58586 0
M  V30 444 N 42.8649 1.48995 0.513639 0
M  V30 445 C 43.8119 1.6473 1.61656 0
M  V30 446 C 44.7819 0.488984 1.58739 0
M  V30 447 O 45.9669 0.714478 1.76918 0
M  V30 448 C 43.1069 1.7082 2.99858 0
M  V30 449 C 42.2199 2.9787 3.12885 0
M  V30 450 C 41.3549 2.95017 4.41744 0
M  V30 451 C 40.3939 4.16702 4.48359 0
M  V30 452 N 39.5309 4.11832 5.68629 0
M  V30 453 H 44.3709 2.58909 1.47547 0
M  V30 454 H 41.9079 1.28382 0.71808 0
M  V30 455 H 43.8659 1.72331 3.79944 0
M  V30 456 H 42.4959 0.801181 3.12699 0
M  V30 457 H 41.5479 3.06029 2.25944 0
M  V30 458 H 42.8599 3.8786 3.13633 0
M  V30 459 H 42.0139 2.95021 5.30139 0
M  V30 460 H 40.7529 2.02784 4.43542 0
M  V30 461 H 39.7579 4.16955 3.58369 0
M  V30 462 H 40.9829 5.10113 4.48287 0
M  V30 463 H 38.9289 3.22428 5.71293 0
M  V30 464 H 38.8459 4.95543 5.7094 0
M  V30 465 H 40.1139 4.1592 6.59266 0
M  V30 466 N 44.343 -0.763751 1.37857 0
M  V30 467 C 45.306 -1.85889 1.34081 0
M  V30 468 C 46.306 -1.58949 0.243277 0
M  V30 469 O 47.496 -1.66882 0.499589 0
M  V30 470 C 44.628 -3.23176 1.08489 0
M  V30 471 H 45.821 -1.90648 2.31502 0
M  V30 472 H 43.374 -0.964367 1.23003 0
M  V30 473 H 44.109 -3.24091 0.116318 0
M  V30 474 H 43.894 -3.44124 1.8794 0
M  V30 475 H 45.384 -4.03254 1.08517 0
M  V30 476 N 45.8211 -1.22559 -0.990812 0
M  V30 477 C 46.7841 -0.998863 -2.0629 0
M  V30 478 C 47.7841 0.0354834 -1.60761 0
M  V30 479 O 48.9741 -0.203231 -1.7301 0
M  V30 480 C 46.1061 -0.509203 -3.37076 0
M  V30 481 H 47.2991 -1.95014 -2.27837 0
M  V30 482 H 44.8521 -1.04456 -1.16269 0
M  V30 483 H 45.5871 0.446335 -3.21214 0
M  V30 484 H 45.3721 -1.25547 -3.71457 0
M  V30 485 H 46.8621 -0.370888 -4.1595 0
M  V30 486 N 47.2992 1.18797 -1.03562 0
M  V30 487 C 48.7152 1.40671 -0.753917 0
M  V30 488 C 48.9152 1.9043 0.658686 0
M  V30 489 O 47.9712 2.08538 1.42366 0
M  V30 490 C 49.2842 2.41192 -1.79574 0
M  V30 491 C 50.8322 2.54928 -1.81606 0
M  V30 492 C 51.3072 3.58709 -2.84766 0
M  V30 493 N 52.7982 3.66212 -2.83625 0
M  V30 494 C 53.5332 4.46225 -3.60098 0
M  V30 495 N 53.0292 5.29888 -4.46308 0
M  V30 496 N 54.8222 4.40939 -3.4861 0
M  V30 497 H 46.9732 0.848221 -1.94728 0
M  V30 498 H 49.2362 0.435081 -0.842264 0
M  V30 499 H 48.9422 2.11669 -2.80872 0
M  V30 500 H 48.8162 3.40467 -1.62365 0
M  V30 501 H 51.2032 2.83771 -0.809817 0
M  V30 502 H 51.2842 1.55784 -2.02891 0
M  V30 503 H 50.9282 3.30607 -3.85566 0
M  V30 504 H 50.8582 4.57519 -2.60737 0
M  V30 505 H 53.3492 3.06466 -2.21105 0
M  V30 506 H 53.6622 5.88078 -5.01382 0
M  V30 507 H 52.0072 5.29326 -4.50377 0
M  V30 508 H 55.1982 3.74624 -2.80668 0
M  V30 509 H 55.3712 5.03056 -4.08459 0
M  V30 510 N 48.7773 0.814389 1.34928 0
M  V30 511 C 49.7403 0.235759 2.27984 0
M  V30 512 C 50.7403 -0.581412 1.49921 0
M  V30 513 O 51.9303 -0.398758 1.69575 0
M  V30 514 C 49.0623 -0.670433 3.34242 0
M  V30 515 H 50.2553 1.05659 2.80671 0
M  V30 516 H 47.8083 0.585614 1.44915 0
M  V30 517 H 48.5433 -1.51466 2.86755 0
M  V30 518 H 48.3283 -0.0860822 3.92005 0
M  V30 519 H 49.8183 -1.06935 4.03676 0
M  V30 520 N 50.2554 -1.46986 0.568584 0
M  V30 521 C 51.6714 -1.57946 0.229189 0
M  V30 522 C 51.8714 -1.56567 -1.26843 0
M  V30 523 O 50.9274 -1.47511 -2.04931 0
M  V30 524 C 52.2404 -2.87963 0.865909 0
M  V30 525 C 53.7884 -3.01568 0.838188 0
M  V30 526 C 54.2634 -4.34301 1.45419 0
M  V30 527 N 55.7544 -4.40965 1.41788 0
M  V30 528 C 56.4894 -5.42256 1.86403 0
M  V30 529 N 55.9854 -6.50297 2.38926 0
M  V30 530 N 57.7784 -5.3337 1.77405 0
M  V30 531 H 49.9294 -1.46126 1.54146 0
M  V30 532 H 52.1924 -0.696156 0.643484 0
M  V30 533 H 51.8984 -2.94742 1.91886 0
M  V30 534 H 51.7724 -3.75423 0.365687 0
M  V30 535 H 54.1594 -2.94379 -0.206106 0
M  V30 536 H 54.2404 -2.1562 1.37629 0
M  V30 537 H 53.8844 -4.42247 2.49761 0
M  V30 538 H 53.8144 -5.19 0.891435 0
M  V30 539 H 56.3054 -3.63484 1.03381 0
M  V30 540 H 56.6184 -7.23777 2.70863 0
M  V30 541 H 54.9634 -6.51155 2.42944 0
M  V30 542 H 58.1544 -4.47865 1.3614 0
M  V30 543 H 58.3274 -6.12169 2.12492 0
M  V30 544 N 51.7335 -0.305618 -1.54608 0
M  V30 545 C 53.0105 0.355652 -1.92339 0
M  V30 546 C 53.3905 1.71324 -1.23335 0
M  V30 547 O 52.7385 2.25473 -0.370702 0
M  V30 548 C 52.9485 0.46572 -3.45879 0
M  V30 549 C 54.2965 0.734426 -4.182 0
M  V30 550 O 55.3205 0.54935 -3.51938 0
M  V30 551 O 54.1795 1.09024 -5.35515 0
M  V30 552 H 51.2735 0.199666 -0.802535 0
M  V30 553 H 53.8195 -0.354017 -1.65966 0
M  V30 554 H 52.5915 -0.488461 -3.88239 0
M  V30 555 H 52.2145 1.22367 -3.78301 0
M  V30 556 N 53.2116 1.57565 -0.0334293 0
M  V30 557 C 54.6276 1.56297 0.322997 0
M  V30 558 C 54.8276 1.03945 1.7262 0
M  V30 559 O 53.8836 0.688109 2.42943 0
M  V30 560 C 55.1966 3.00232 0.167664 0
M  V30 561 C 56.7446 3.12078 0.240107 0
M  V30 562 C 57.2196 4.57859 0.113513 0
M  V30 563 N 58.7106 4.62887 0.170359 0
M  V30 564 C 59.4456 5.73319 0.0962517 0
M  V30 565 N 58.9416 6.92794 -0.0291881 0
M  V30 566 N 60.7346 5.61898 0.150551 0
M  V30 567 H 52.8856 1.89923 -0.950956 0
M  V30 568 H 55.1486 0.873824 -0.367608 0
M  V30 569 H 54.8546 3.42501 -0.799102 0
M  V30 570 H 54.7286 3.654 0.936083 0
M  V30 571 H 57.1156 2.69718 1.19733 0
M  V30 572 H 57.1966 2.49623 -0.558763 0
M  V30 573 H 56.8406 5.009 -0.840314 0
M  V30 574 H 56.7706 5.18299 0.931302 0
M  V30 575 H 59.2616 3.76954 0.26728 0
M  V30 576 H 59.5746 7.7276 -0.0789252 0
M  V30 577 H 57.9196 6.94971 -0.0640299 0
M  V30 578 H 61.1106 4.67448 0.246981 0
M  V30 579 H 61.2836 6.47938 0.0893365 0
M  V30 580 N 54.6897 -0.239769 1.55765 0
M  V30 581 C 55.9667 -0.990056 1.68693 0
M  V30 582 C 56.3467 -2.03107 0.5754 0
M  V30 583 O 55.6947 -2.24604 -0.42017 0
M  V30 584 C 55.9047 -1.61696 3.09282 0
M  V30 585 C 57.2527 -2.11613 3.6811 0
M  V30 586 O 58.2767 -1.71624 3.12127 0
M  V30 587 O 57.1357 -2.85057 4.66267 0
M  V30 588 H 54.2297 -0.461299 0.686391 0
M  V30 589 H 56.7757 -0.232991 1.68093 0
M  V30 590 H 55.5477 -0.864357 3.81634 0
M  V30 591 H 55.1707 -2.44005 3.13923 0
M  V30 592 N 56.1678 -1.49265 -0.50573 0
M  V30 593 C 57.3978 -1.61979 -1.28243 0
M  V30 594 C 57.8058 -0.288576 -1.86986 0
M  V30 595 O 57.1488 0.735408 -1.68337 0
M  V30 596 C 57.2108 -2.62632 -2.45489 0
M  V30 597 C 56.8748 -4.071 -2.07651 0
M  V30 598 C 57.8718 -4.94049 -1.61901 0
M  V30 599 C 55.5568 -4.52801 -2.17431 0
M  V30 600 C 57.5508 -6.24736 -1.26428 0
M  V30 601 C 55.2378 -5.83503 -1.8157 0
M  V30 602 C 56.2358 -6.69294 -1.36142 0
M  V30 603 O 55.9238 -7.9756 -1.00764 0
M  V30 604 H 55.6558 -0.54834 -0.395347 0
M  V30 605 H 58.2098 -1.96002 -0.614204 0
M  V30 606 H 56.4398 -2.2378 -3.15372 0
M  V30 607 H 58.1288 -2.64925 -3.07522 0
M  V30 608 H 58.8948 -4.5997 -1.53795 0
M  V30 609 H 54.7738 -3.86196 -2.51742 0
M  V30 610 H 58.3178 -6.91652 -0.908992 0
M  V30 611 H 54.2148 -6.17112 -1.89324 0
M  V30 612 H 54.9828 -8.10529 -1.13952 0
M  V30 613 N 57.6459 0.756429 -1.3826 0
M  V30 614 C 59.0619 1.0591 -1.19395 0
M  V30 615 C 59.2619 2.01459 -0.0406567 0
M  V30 616 O 58.3179 2.44909 0.614467 0
M  V30 617 C 59.6309 1.64191 -2.51916 0
M  V30 618 C 61.1789 1.76376 -2.58574 0
M  V30 619 C 61.6539 2.38069 -3.91264 0
M  V30 620 N 63.1449 2.45503 -3.92788 0
M  V30 621 C 63.8799 2.94126 -4.92217 0
M  V30 622 N 63.3759 3.42805 -6.02043 0
M  V30 623 N 65.1689 2.9314 -4.7961 0
M  V30 624 H 57.3199 0.122313 -2.12048 0
M  V30 625 H 59.5829 0.116892 -0.940766 0
M  V30 626 H 59.2889 1.01451 -3.3675 0
M  V30 627 H 59.1629 2.6329 -2.70108 0
M  V30 628 H 61.5499 2.38244 -1.74137 0
M  V30 629 H 61.6309 0.759894 -2.44252 0
M  V30 630 H 61.2749 1.76835 -4.76121 0
M  V30 631 H 61.2049 3.39091 -4.02895 0
M  V30 632 H 63.6959 2.1107 -3.13461 0
M  V30 633 H 64.0089 3.78354 -6.73846 0
M  V30 634 H 62.3539 3.4087 -6.05667 0
M  V30 635 H 65.5449 2.54419 -3.92923 0
M  V30 636 H 65.7179 3.30721 -5.5725 0
M  V30 637 N 59.124 1.23083 0.984299 0
M  V30 638 C 60.087 1.00979 2.05757 0
M  V30 639 C 61.087 -0.0269573 1.60777 0
M  V30 640 O 62.277 0.212403 1.729 0
M  V30 641 C 59.409 0.527072 3.36801 0
M  V30 642 H 60.602 1.9622 2.26799 0
M  V30 643 H 58.155 1.05072 1.15714 0
M  V30 644 H 58.89 -0.429294 3.21446 0
M  V30 645 H 58.675 1.27515 3.70786 0
M  V30 646 H 60.165 0.392942 4.15747 0
M  V30 647 N 60.6021 -1.18246 1.0419 0
M  V30 648 C 61.5321 -2.24127 0.654914 0
M  V30 649 C 62.5131 -1.66617 -0.342451 0
M  V30 650 O 63.6981 -1.92924 -0.222277 0
M  V30 651 C 60.8281 -3.47295 0.0183757 0
M  V30 652 C 59.7821 -4.17563 0.939414 0
M  V30 653 C 59.1081 -5.34438 0.167286 0
M  V30 654 C 60.4081 -4.70917 2.25908 0
M  V30 655 H 62.1021 -2.56753 1.54007 0
M  V30 656 H 59.6481 -1.23414 0.74195 0
M  V30 657 H 61.6011 -4.20572 -0.264082 0
M  V30 658 H 60.3251 -3.13907 -0.901664 0
M  V30 659 H 58.9841 -3.46186 1.20628 0
M  V30 660 H 58.6321 -4.97298 -0.7552 0
M  V30 661 H 58.3321 -5.82388 0.780901 0
M  V30 662 H 59.8561 -6.10504 -0.108125 0
M  V30 663 H 61.2701 -5.35882 2.03724 0
M  V30 664 H 59.6671 -5.29406 2.82577 0
M  V30 665 H 60.7371 -3.88272 2.9047 0
M  V30 666 N 62.0802 -0.821533 -1.34494 0
M  V30 667 C 63.3202 -0.414785 -2.00147 0
M  V30 668 C 63.6842 1.00299 -1.6372 0
M  V30 669 O 64.8852 1.51255 -2.22206 0
M  V30 670 C 63.1562 -0.609403 -3.52166 0
M  V30 671 S 64.7152 -0.295297 -4.37805 0
M  V30 672 H 61.5332 -0.15679 -0.693497 0
M  V30 673 H 64.1352 -1.06705 -1.63812 0
M  V30 674 H 62.8392 -1.64096 -3.76166 0
M  V30 675 H 62.3702 0.0576414 -3.93358 0
M  V30 676 H 64.3852 0.891531 -4.88125 0
M  V30 677 N 63.5583 1.46682 -0.576371 0
M  V30 678 C 64.8353 1.95599 0.00703437 0
M  V30 679 C 65.2153 1.51904 1.46589 0
M  V30 680 O 64.5633 0.766755 2.15251 0
M  V30 681 C 64.7733 3.4864 -0.158404 0
M  V30 682 C 66.1213 4.24594 -0.0229439 0
M  V30 683 O 67.1453 3.56094 -0.0869173 0
M  V30 684 O 66.0043 5.46373 0.118015 0
M  V30 685 H 63.0983 0.825275 0.053384 0
M  V30 686 H 65.6443 1.56996 -0.644244 0
M  V30 687 H 64.4163 3.7331 -1.17282 0
M  V30 688 H 64.0393 3.94057 0.5296 0
M  V30 689 N 65.0364 0.313813 1.54444 0
M  V30 690 C 66.2824 -0.292108 2.00685 0
M  V30 691 C 66.6154 -1.52548 1.20177 0
M  V30 692 O 65.8904 -1.92452 0.281531 0
M  V30 693 C 66.1734 -0.635968 3.5444 0
M  V30 694 C 66.0264 0.607437 4.4568 0
M  V30 695 C 67.3454 -1.45747 4.15266 0
M  V30 696 H 64.4644 -0.104697 0.729526 0
M  V30 697 H 67.1064 0.428457 1.85106 0
M  V30 698 H 65.2564 -1.24986 3.67846 0
M  V30 699 H 66.9284 1.24581 4.44159 0
M  V30 700 H 65.1714 1.23822 4.15753 0
M  V30 701 H 65.8424 0.322515 5.51057 0
M  V30 702 H 68.3184 -0.938645 4.05375 0
M  V30 703 H 67.1944 -1.66683 5.2298 0
M  V30 704 H 67.4554 -2.45063 3.67963 0
M  V30 705 N 66.5145 -1.57545 0.0417849 0
M  V30 706 C 67.7625 -1.91937 -0.632829 0
M  V30 707 C 68.0835 -0.919978 -1.71934 0
M  V30 708 O 67.3535 0.0366064 -1.95866 0
M  V30 709 H 65.9335 -0.708493 -0.236742 0
M  V30 710 H 68.5955 -1.9468 0.0925745 0
M  V30 711 H 67.6915 -2.92912 -1.07746 0
M  V30 712 N 67.9926 0.231505 -1.5589 0
M  V30 713 C 69.2206 0.974505 -1.82513 0
M  V30 714 C 69.6356 1.78344 -0.619591 0
M  V30 715 O 68.9926 1.77792 0.411848 0
M  V30 716 C 69.0436 1.90007 -3.07538 0
M  V30 717 O 68.7646 1.12385 -4.2344 0
M  V30 718 C 70.2656 2.75779 -3.47075 0
M  V30 719 H 67.4856 0.286065 -0.606966 0
M  V30 720 H 70.0296 0.249739 -2.02969 0
M  V30 721 H 68.1846 2.57891 -2.89086 0
M  V30 722 H 68.5986 1.75125 -4.944 0
M  V30 723 H 70.0726 3.36443 -4.37619 0
M  V30 724 H 70.5496 3.47672 -2.68367 0
M  V30 725 H 71.1556 2.13323 -3.67931 0
M  V30 726 N 69.4707 1.49531 0.497807 0
M  V30 727 C 70.4337 1.65916 1.58128 0
M  V30 728 C 71.4337 0.530825 1.51786 0
M  V30 729 O 72.6237 0.797342 1.54881 0
M  V30 730 C 69.7557 1.65951 2.9778 0
M  V30 731 H 70.9487 2.62556 1.44929 0
M  V30 732 H 68.5017 1.38611 0.722275 0
M  V30 733 H 69.2367 0.709065 3.16453 0
M  V30 734 H 69.0217 2.47897 3.03792 0
M  V30 735 H 70.5117 1.80673 3.76493 0
M  V30 736 N 70.9488 -0.749086 1.3866 0
M  V30 737 C 72.1978 -1.50371 1.3443 0
M  V30 738 C 72.5108 -1.95503 -0.0616397 0
M  V30 739 O 73.7168 -2.70554 -0.226489 0
M  V30 740 C 72.1728 -2.71644 2.36088 0
M  V30 741 C 71.7808 -2.3352 3.82325 0
M  V30 742 C 73.5248 -3.49518 2.40909 0
M  V30 743 C 71.4318 -3.51431 4.75658 0
M  V30 744 H 70.3618 -0.564628 0.499712 0
M  V30 745 H 73.0128 -0.818449 1.64237 0
M  V30 746 H 71.3948 -3.42175 1.9933 0
M  V30 747 H 72.5688 -1.70627 4.28046 0
M  V30 748 H 70.8838 -1.6877 3.80665 0
M  V30 749 H 73.4808 -4.37197 3.07836 0
M  V30 750 H 73.8238 -3.90992 1.42937 0
M  V30 751 H 74.3568 -2.86005 2.76489 0
M  V30 752 H 71.0958 -3.15019 5.74842 0
M  V30 753 H 70.6158 -4.13352 4.34627 0
M  V30 754 H 72.2948 -4.17953 4.93887 0
M  V30 755 N 72.4269 -1.23603 -0.977757 0
M  V30 756 C 73.6519 -1.09735 -1.75991 0
M  V30 757 C 74.0769 0.346858 -1.84874 0
M  V30 758 O 73.4349 1.25093 -1.3123 0
M  V30 759 C 73.4829 -1.73051 -3.16363 0
M  V30 760 O 72.5869 -0.994452 -4.0023 0
M  V30 761 H 71.9279 -0.384476 -0.541364 0
M  V30 762 H 74.4579 -1.6371 -1.2272 0
M  V30 763 H 74.4679 -1.78398 -3.66931 0
M  V30 764 H 73.1429 -2.78137 -3.09213 0
M  V30 765 H 71.7199 -1.01812 -3.58732 0
M  V30 766 N 73.905 1.17692 -1.04816 0
M  V30 767 C 75.145 1.89545 -0.764979 0
M  V30 768 C 75.509 1.78979 0.695028 0
M  V30 769 O 76.71 2.45613 1.09215 0
M  V30 770 C 74.981 3.35659 -1.22751 0
M  V30 771 S 76.54 4.25526 -1.07112 0
M  V30 772 H 73.358 0.654432 -0.27792 0
M  V30 773 H 75.96 1.42163 -1.34201 0
M  V30 774 H 74.664 3.40882 -2.28533 0
M  V30 775 H 74.195 3.88083 -0.644594 0
M  V30 776 H 76.21 4.962 0.00697508 0
M  V30 777 N 75.3831 0.828654 1.34056 0
M  V30 778 C 76.6081 0.431637 2.02859 0
M  V30 779 C 77.0331 -0.956339 1.61975 0
M  V30 780 O 76.3911 -1.62338 0.807228 0
M  V30 781 C 76.4391 0.548323 3.56407 0
M  V30 782 O 75.5431 -0.429556 4.10157 0
M  V30 783 H 74.8841 0.176886 0.640006 0
M  V30 784 H 77.4141 1.12066 1.71179 0
M  V30 785 H 77.4241 0.426196 4.05768 0
M  V30 786 H 76.0991 1.5606 3.8551 0
M  V30 787 H 74.6761 -0.265836 3.71951 0
M  V30 788 N 76.8612 -1.46375 0.584142 0
M  V30 789 C 78.2772 -1.57694 0.245929 0
M  V30 790 C 78.4772 -1.57903 -1.25175 0
M  V30 791 O 77.5332 -1.49676 -2.03355 0
M  V30 792 C 78.8462 -2.87028 0.896402 0
M  V30 793 C 80.3942 -3.00662 0.870127 0
M  V30 794 C 80.8692 -4.32734 1.50017 0
M  V30 795 N 82.3602 -4.39436 1.46458 0
M  V30 796 C 83.0952 -5.40248 1.92144 0
M  V30 797 N 82.5912 -6.47726 2.4581 0
M  V30 798 N 84.3842 -5.31459 1.83052 0
M  V30 799 H 76.5352 -1.44483 1.55687 0
M  V30 800 H 78.7982 -0.689291 0.650831 0
M  V30 801 H 78.5042 -2.9269 1.95002 0
M  V30 802 H 78.3782 -3.75014 0.405486 0
M  V30 803 H 80.7652 -2.94581 -0.174871 0
M  V30 804 H 80.8462 -2.14148 1.39908 0
M  V30 805 H 80.4902 -4.39573 2.54437 0
M  V30 806 H 80.4202 -5.18025 0.946432 0
M  V30 807 H 82.9112 -3.62367 1.07231 0
M  V30 808 H 83.2242 -7.20863 2.78525 0
M  V30 809 H 81.5692 -6.48542 2.49836 0
M  V30 810 H 84.7602 -4.46396 1.40883 0
M  V30 811 H 84.9332 -6.09881 2.18973 0
M  V30 812 N 78.3393 -0.321999 -1.54275 0
M  V30 813 C 79.5853 0.281461 -2.00837 0
M  V30 814 C 79.9183 1.51909 -1.20985 0
M  V30 815 O 79.1933 1.923 -0.291733 0
M  V30 816 C 79.4763 0.617162 -3.54772 0
M  V30 817 C 79.3293 -0.631064 -4.45351 0
M  V30 818 C 80.6483 1.43542 -4.16033 0
M  V30 819 H 77.7673 0.100826 -0.730071 0
M  V30 820 H 80.4093 -0.438268 -1.84876 0
M  V30 821 H 78.5593 1.23034 -3.68504 0
M  V30 822 H 80.2313 -1.26934 -4.43492 0
M  V30 823 H 78.4743 -1.26025 -4.15091 0
M  V30 824 H 79.1453 -0.351735 -5.50878 0
M  V30 825 H 81.6213 0.917134 -4.05867 0
M  V30 826 H 80.4973 1.63907 -5.23856 0
M  V30 827 H 80.7583 2.43108 -3.69257 0
M  V30 828 N 79.8174 1.5752 -0.0501392 0
M  V30 829 C 81.0644 1.9265 0.623874 0
M  V30 830 C 81.3924 0.928411 1.70912 0
M  V30 831 O 80.6474 -0.0594525 1.9561 0
M  V30 832 C 80.9464 3.34467 1.25963 0
M  V30 833 C 80.6124 4.49883 0.302689 0
M  V30 834 C 79.2744 4.81184 0.0393636 0
M  V30 835 C 81.6264 5.20002 -0.353205 0
M  V30 836 C 78.9544 5.79951 -0.887308 0
M  V30 837 C 81.3064 6.1976 -1.26806 0
M  V30 838 C 79.9704 6.49491 -1.54007 0
M  V30 839 H 79.2404 0.704957 0.228292 0
M  V30 840 H 81.8874 1.91146 -0.116398 0
M  V30 841 H 80.1924 3.32333 2.07514 0
M  V30 842 H 81.8894 3.58928 1.78806 0
M  V30 843 H 78.4794 4.25457 0.518109 0
M  V30 844 H 82.6634 4.96033 -0.162854 0
M  V30 845 H 77.9194 6.01322 -1.10553 0
M  V30 846 H 82.0934 6.73205 -1.78236 0
M  V30 847 H 79.7204 7.25837 -2.25976 0
M  V30 848 N 81.2955 -0.223234 1.56011 0
M  V30 849 C 82.5205 -0.968978 1.83373 0
M  V30 850 C 82.9455 -1.77227 0.630254 0
M  V30 851 O 82.3035 -1.76345 -0.420959 0
M  V30 852 C 82.3515 -1.86363 3.08709 0
M  V30 853 O 81.4555 -2.95873 2.87285 0
M  V30 854 H 80.7965 -0.274461 0.604622 0
M  V30 855 H 83.3265 -0.237056 2.03222 0
M  V30 856 H 83.3365 -2.27376 3.38768 0
M  V30 857 H 82.0115 -1.27319 3.95933 0
M  V30 858 H 80.5885 -2.58818 2.68454 0
M  V30 859 N 82.7736 -1.49793 -0.48987 0
M  V30 860 C 83.9986 -1.63836 -1.27172 0
M  V30 861 C 84.4236 -0.31402 -1.8546 0
M  V30 862 O 83.7816 0.719803 -1.66399 0
M  V30 863 C 83.8296 -2.71797 -2.36978 0
M  V30 864 O 82.9336 -2.31744 -3.41128 0
M  V30 865 H 82.2746 -0.547997 -0.37496 0
M  V30 866 H 84.8046 -1.96053 -0.585191 0
M  V30 867 H 84.8146 -2.94305 -2.82575 0
M  V30 868 H 83.4896 -3.67923 -1.93921 0
M  V30 869 H 82.0666 -2.1961 -3.01373 0
M  V30 870 N 84.2517 0.741722 -1.39055 0
M  V30 871 C 85.6677 1.04638 -1.20512 0
M  V30 872 C 85.8677 2.01405 -0.0620218 0
M  V30 873 O 84.9237 2.45547 0.588457 0
M  V30 874 C 86.2367 1.6151 -2.53643 0
M  V30 875 C 87.7847 1.73623 -2.6043 0
M  V30 876 C 88.2597 2.33906 -3.93767 0
M  V30 877 N 89.7507 2.41323 -3.9537 0
M  V30 878 C 90.4857 2.88888 -4.95309 0
M  V30 879 N 89.9817 3.36401 -6.05645 0
M  V30 880 N 91.7747 2.88037 -4.82692 0
M  V30 881 H 83.9257 0.0998155 -2.12165 0
M  V30 882 H 86.1887 0.106907 -0.941953 0
M  V30 883 H 85.8947 0.978739 -3.37807 0
M  V30 884 H 85.7687 2.60411 -2.72885 0
M  V30 885 H 88.1557 2.36384 -1.76655 0
M  V30 886 H 88.2367 0.733945 -2.45045 0
M  V30 887 H 87.8807 1.71776 -4.7797 0
M  V30 888 H 87.8107 3.34799 -4.06469 0
M  V30 889 H 90.3017 2.07734 -3.15682 0
M  V30 890 H 90.6147 3.71186 -6.77821 0
M  V30 891 H 88.9597 3.34427 -6.09248 0
M  V30 892 H 92.1507 2.50237 -3.95599 0
M  V30 893 H 92.3237 3.24792 -5.60726 0
M  V30 894 N 85.7298 1.2412 0.971189 0
M  V30 895 C 86.9758 1.09048 1.71698 0
M  V30 896 C 87.3308 -0.367442 1.88859 0
M  V30 897 O 86.6238 -1.26792 1.43646 0
M  V30 898 C 86.8178 1.75983 3.11071 0
M  V30 899 C 86.6468 3.28133 3.07504 0
M  V30 900 C 85.4168 3.97331 3.1218 0
M  V30 901 C 87.6148 4.24773 2.89952 0
M  V30 902 N 85.5968 5.3639 2.98596 0
M  V30 903 C 86.9678 5.50806 2.84627 0
M  V30 904 C 89.0228 4.15392 2.74506 0
M  V30 905 C 87.7258 6.68533 2.65437 0
M  V30 906 C 89.7518 5.32793 2.56682 0
M  V30 907 C 89.1138 6.57756 2.52063 0
M  V30 908 H 85.2128 0.453632 0.636979 0
M  V30 909 H 87.7968 1.56983 1.15171 0
M  V30 910 H 85.9678 1.30566 3.65796 0
M  V30 911 H 87.6998 1.53803 3.74335 0
M  V30 912 H 84.4548 3.48473 3.20724 0
M  V30 913 H 84.8788 6.09321 2.95054 0
M  V30 914 H 89.5208 3.19543 2.76861 0
M  V30 915 H 87.2388 7.64509 2.61825 0
M  V30 916 H 90.8248 5.27383 2.4568 0
M  V30 917 H 89.7048 7.4707 2.38446 0
M  V30 918 N 87.2079 -1.17134 1.05439 0
M  V30 919 C 88.4559 -1.87085 0.764429 0
M  V30 920 C 88.7769 -1.81584 -0.710787 0
M  V30 921 O 88.0469 -1.24349 -1.51374 0
M  V30 922 H 86.6269 -0.692627 0.279779 0
M  V30 923 H 89.2889 -1.42087 1.33406 0
M  V30 924 H 88.3849 -2.92759 1.0816 0
M  V30 925 N 88.686 -0.835752 -1.33615 0
M  V30 926 C 90.102 -0.523139 -1.50783 0
M  V30 927 C 90.302 0.950171 -1.77691 0
M  V30 928 O 89.358 1.73411 -1.83534 0
M  V30 929 C 90.671 -1.39378 -2.66448 0
M  V30 930 C 92.219 -1.39223 -2.80332 0
M  V30 931 C 92.694 -2.24765 -3.99055 0
M  V30 932 N 94.185 -2.22458 -4.06284 0
M  V30 933 C 94.92 -2.85386 -4.97336 0
M  V30 934 N 94.416 -3.57354 -5.93523 0
M  V30 935 N 96.209 -2.74872 -4.90308 0
M  V30 936 H 88.36 -1.78952 -1.14411 0
M  V30 937 H 90.623 -0.763297 -0.562212 0
M  V30 938 H 90.329 -2.44061 -2.53234 0
M  V30 939 H 90.203 -1.0676 -3.61776 0
M  V30 940 H 92.59 -0.353136 -2.92979 0
M  V30 941 H 92.671 -1.75846 -1.85773 0
M  V30 942 H 92.315 -3.28732 -3.87167 0
M  V30 943 H 92.245 -1.85485 -4.92852 0
M  V30 944 H 94.736 -1.70119 -3.37443 0
M  V30 945 H 95.049 -4.02584 -6.59656 0
M  V30 946 H 93.394 -3.61461 -5.93608 0
M  V30 947 H 96.585 -2.18213 -4.14126 0
M  V30 948 H 96.758 -3.24199 -5.61069 0
M  V30 949 N 90.1641 1.46063 -0.591896 0
M  V30 950 C 91.4121 2.01938 -0.0808391 0
M  V30 951 C 91.7331 1.46475 1.28725 0
M  V30 952 O 91.0031 0.652944 1.84698 0
M  V30 953 H 89.5831 0.746516 -0.0268938 0
M  V30 954 H 92.2451 1.79055 -0.769752 0
M  V30 955 H 91.3411 3.12094 -0.0187578 0
M  V30 956 N 91.6422 0.330177 1.54103 0
M  V30 957 C 92.8892 -0.270405 2.00686 0
M  V30 958 C 93.2172 -1.51621 1.21825 0
M  V30 959 O 92.4722 -1.93536 0.29025 0
M  V30 960 C 92.7712 -0.643134 3.51566 0
M  V30 961 C 92.4372 0.504251 4.48072 0
M  V30 962 C 91.0992 0.819163 4.74176 0
M  V30 963 C 93.4512 1.27465 5.05373 0
M  V30 964 C 90.7792 1.90708 5.5484 0
M  V30 965 C 93.1312 2.35271 5.87223 0
M  V30 966 C 91.7952 2.67336 6.11627 0
M  V30 967 H 91.0652 -0.0989482 0.734364 0
M  V30 968 H 93.7122 0.455324 1.86008 0
M  V30 969 H 92.0172 -1.44938 3.64006 0
M  V30 970 H 93.7142 -1.11949 3.85056 0
M  V30 971 H 90.3042 0.248733 4.27878 0
M  V30 972 H 94.4882 1.04462 4.85182 0
M  V30 973 H 89.7442 2.15991 5.71977 0
M  V30 974 H 93.9182 2.95405 6.30641 0
M  V30 975 H 91.5452 3.51763 6.73919 0
M  V30 976 N 93.1203 -1.57491 0.0584922 0
M  V30 977 C 94.3683 -1.92597 -0.612436 0
M  V30 978 C 94.6893 -0.938162 -1.70949 0
M  V30 979 O 93.9593 0.0158301 -1.95894 0
M  V30 980 H 92.5393 -0.710964 -0.229214 0
M  V30 981 H 95.2013 -1.94571 0.113218 0
M  V30 982 H 94.2973 -2.94038 -1.04633 0
M  V30 983 N 94.5984 0.214957 -1.56127 0
M  V30 984 C 95.5284 1.2695 -1.95974 0
M  V30 985 C 96.5094 1.48539 -0.828868 0
M  V30 986 O 97.6944 1.60611 -1.09168 0
M  V30 987 C 94.8244 2.61794 -2.28214 0
M  V30 988 C 93.7784 2.54851 -3.43853 0
M  V30 989 C 93.1044 3.93785 -3.61715 0
M  V30 990 C 94.4044 2.09065 -4.78632 0
M  V30 991 H 96.0984 0.93846 -2.84312 0
M  V30 992 H 93.6444 0.449996 -1.36788 0
M  V30 993 H 95.5974 3.35731 -2.54682 0
M  V30 994 H 94.3214 2.96599 -1.36736 0
M  V30 995 H 92.9804 1.8337 -3.17444 0
M  V30 996 H 92.6284 4.25908 -2.67602 0
M  V30 997 H 92.3284 3.90019 -4.39498 0
M  V30 998 H 93.8524 4.69374 -3.90539 0
M  V30 999 H 95.2664 2.7275 -5.04262 0
M  V30 1000 H 93.6634 2.16346 -5.59745 0
M  V30 1001 H 94.7334 1.04315 -4.73547 0
M  V30 1002 N 96.0765 1.50051 0.48192 0
M  V30 1003 C 97.3225 1.60736 1.2366 0
M  V30 1004 C 97.6555 0.301786 1.91841 0
M  V30 1005 O 96.9305 -0.696025 1.8162 0
M  V30 1006 C 97.2135 2.78009 2.28874 0
M  V30 1007 C 97.0665 4.18416 1.65069 0
M  V30 1008 C 98.3855 2.90867 3.30279 0
M  V30 1009 H 95.5045 0.585031 0.448228 0
M  V30 1010 H 98.1465 1.82402 0.531946 0
M  V30 1011 H 96.2965 2.59667 2.88973 0
M  V30 1012 H 97.9685 4.48322 1.0865 0
M  V30 1013 H 96.2115 4.23177 0.954148 0
M  V30 1014 H 96.8825 4.96381 2.41474 0
M  V30 1015 H 99.3585 3.07623 2.80191 0
M  V30 1016 H 98.2345 3.74566 4.01238 0
M  V30 1017 H 98.4955 2.01021 3.93755 0
M  V30 1018 N 97.5546 -0.734337 1.39446 0
M  V30 1019 C 98.4646 -1.87879 1.40495 0
M  V30 1020 C 99.4806 -1.714 0.299672 0
M  V30 1021 O 100.657 -1.93991 0.541249 0
M  V30 1022 C 97.7216 -3.23477 1.24754 0
M  V30 1023 C 96.7826 -3.52344 2.45259 0
M  V30 1024 C 96.0156 -4.81473 2.30259 0
M  V30 1025 O 96.2386 -5.55237 1.30643 0
M  V30 1026 O 95.1726 -5.10254 3.19256 0
M  V30 1027 H 98.9986 -1.89949 2.36966 0
M  V30 1028 H 96.5836 -0.882243 1.20569 0
M  V30 1029 H 98.4656 -4.04509 1.18111 0
M  V30 1030 H 97.1406 -3.22176 0.313781 0
M  V30 1031 H 96.0476 -2.71396 2.57478 0
M  V30 1032 H 97.3806 -3.58426 3.37331 0
M  V30 1033 N 99.0327 -1.24633 -0.964593 0
M  V30 1034 C 99.9827 -1.00841 -2.04487 0
M  V30 1035 C 100.967 0.0512468 -1.60818 0
M  V30 1036 O 102.159 -0.162865 -1.76249 0
M  V30 1037 C 99.2877 -0.618474 -3.37683 0
M  V30 1038 C 98.3737 -1.71437 -3.87905 0
M  V30 1039 N 98.7647 -2.9477 -4.11029 0
M  V30 1040 C 97.0627 -1.5926 -4.16596 0
M  V30 1041 C 97.7637 -3.65834 -4.52261 0
M  V30 1042 N 96.7397 -2.9341 -4.57615 0
M  V30 1043 H 100.542 -1.94487 -2.20345 0
M  V30 1044 H 98.0557 -1.14805 -1.14863 0
M  V30 1045 H 100.053 -0.429247 -4.14684 0
M  V30 1046 H 98.7127 0.310766 -3.23209 0
M  V30 1047 H 99.7237 -3.30917 -3.9839 0
M  V30 1048 H 96.4007 -0.731606 -4.1104 0
M  V30 1049 H 97.7907 -4.71646 -4.78539 0
M  V30 1050 N 100.511 1.16574 -1.06058 0
M  V30 1051 C 101.757 1.87324 -0.777022 0
M  V30 1052 C 102.09 1.81351 0.694645 0
M  V30 1053 O 101.365 1.22753 1.50871 0
M  V30 1054 C 101.648 3.36991 -1.26922 0
M  V30 1055 C 101.501 3.51667 -2.80447 0
M  V30 1056 C 102.82 4.3131 -0.87521 0
M  V30 1057 H 99.9388 0.680191 -0.28374 0
M  V30 1058 H 102.581 1.37036 -1.3161 0
M  V30 1059 H 100.731 3.79949 -0.81063 0
M  V30 1060 H 102.403 3.17664 -3.34495 0
M  V30 1061 H 100.646 2.93656 -3.19294 0
M  V30 1062 H 101.317 4.56766 -3.0995 0
M  V30 1063 H 103.793 3.9624 -1.27014 0
M  V30 1064 H 102.669 5.34545 -1.2471 0
M  V30 1065 H 102.93 4.41552 0.220071 0
M  V30 1066 N 101.989 0.842826 1.3317 0
M  V30 1067 C 102.919 0.294028 2.31641 0
M  V30 1068 C 103.9 -0.600401 1.59151 0
M  V30 1069 O 105.085 -0.523124 1.87022 0
M  V30 1070 C 102.215 -0.528416 3.43257 0
M  V30 1071 C 101.169 0.27056 4.27144 0
M  V30 1072 C 100.495 -0.675881 5.30411 0
M  V30 1073 C 101.795 1.48981 5.00602 0
M  V30 1074 H 103.489 1.11681 2.77791 0
M  V30 1075 H 101.035 0.538478 1.33553 0
M  V30 1076 H 102.988 -0.922674 4.11175 0
M  V30 1077 H 101.712 -1.38445 2.95805 0
M  V30 1078 H 100.371 0.646427 3.60856 0
M  V30 1079 H 100.019 -1.52842 4.79216 0
M  V30 1080 H 99.7189 -0.145374 5.8742 0
M  V30 1081 H 101.243 -1.06757 6.01195 0
M  V30 1082 H 102.657 1.16849 5.61266 0
M  V30 1083 H 101.054 1.95739 5.6728 0
M  V30 1084 H 102.124 2.25746 4.29147 0
M  V30 1085 N 103.467 -1.45747 0.599634 0
M  V30 1086 C 104.715 -2.01893 0.0915472 0
M  V30 1087 C 105.036 -1.47155 -1.27946 0
M  V30 1088 O 104.306 -0.66273 -1.84349 0
M  V30 1089 H 102.886 -0.746363 0.0308524 0
M  V30 1090 H 105.548 -1.78645 0.779237 0
M  V30 1091 H 104.644 -3.1208 0.0353086 0
M  V30 1092 N 104.945 -0.338344 -1.53925 0
M  V30 1093 C 105.877 0.555117 -2.22376 0
M  V30 1094 C 106.89 1.06812 -1.22862 0
M  V30 1095 O 108.079 0.979163 -1.49247 0
M  V30 1096 C 105.179 1.77609 -2.88631 0
M  V30 1097 C 104.352 1.39927 -4.14414 0
M  V30 1098 C 103.411 2.47936 -4.64127 0
M  V30 1099 O 102.437 2.11461 -5.28463 0
M  V30 1100 N 103.639 3.79107 -4.39612 0
M  V30 1101 H 106.404 -0.0310778 -2.99684 0
M  V30 1102 H 103.965 -0.162226 -1.61085 0
M  V30 1103 H 105.957 2.49287 -3.18807 0
M  V30 1104 H 104.527 2.26978 -2.14941 0
M  V30 1105 H 103.747 0.513481 -3.90841 0
M  V30 1106 H 105.035 1.12341 -4.96243 0
M  V30 1107 H 104.433 4.11531 -3.88148 0
M  V30 1108 H 102.99 4.4697 -4.74406 0
M  V30 1109 N 106.423 1.57458 -0.0668435 0
M  V30 1110 C 107.7 1.8469 0.644132 0
M  V30 1111 C 108.08 0.958343 1.88093 0
M  V30 1112 O 107.428 0.0233579 2.28488 0
M  V30 1113 C 107.638 3.34767 0.986509 0
M  V30 1114 C 108.986 4.02159 1.36212 0
M  V30 1115 O 110.01 3.39484 1.07839 0
M  V30 1116 O 108.869 5.12694 1.89227 0
M  V30 1117 H 105.963 0.762816 0.319437 0
M  V30 1118 H 108.509 1.6942 -0.0973986 0
M  V30 1119 H 107.281 3.91151 0.107883 0
M  V30 1120 H 106.904 3.55281 1.78497 0
M  V30 1121 N 107.901 -0.206675 1.56239 0
M  V30 1122 C 109.126 -0.949474 1.8439 0
M  V30 1123 C 109.551 -1.76549 0.649016 0
M  V30 1124 O 108.909 -1.76782 -0.402231 0
M  V30 1125 C 108.957 -1.83078 3.10668 0
M  V30 1126 O 108.061 -2.9281 2.90407 0
M  V30 1127 H 107.402 -0.268033 0.607499 0
M  V30 1128 H 109.932 -0.215488 2.03462 0
M  V30 1129 H 109.942 -2.2377 3.41161 0
M  V30 1130 H 108.617 -1.23112 3.97261 0
M  V30 1131 H 107.194 -2.55956 2.71184 0
M  V30 1132 N 109.379 -1.50304 -0.473955 0
M  V30 1133 C 110.628 -1.60392 -1.22301 0
M  V30 1134 C 110.941 -0.308411 -1.93153 0
M  V30 1135 O 112.147 -0.288156 -2.69966 0
M  V30 1136 C 110.603 -2.83109 -2.2221 0
M  V30 1137 C 110.211 -4.19524 -1.57173 0
M  V30 1138 C 111.955 -3.0254 -2.97775 0
M  V30 1139 C 109.862 -5.33431 -2.55353 0
M  V30 1140 H 108.792 -0.597286 -0.460179 0
M  V30 1141 H 111.443 -1.76731 -0.493803 0
M  V30 1142 H 109.825 -2.60322 -2.9841 0
M  V30 1143 H 110.999 -4.52554 -0.867824 0
M  V30 1144 H 109.314 -4.05674 -0.939002 0
M  V30 1145 H 111.911 -3.84811 -3.71248 0
M  V30 1146 H 112.254 -2.14154 -3.56992 0
M  V30 1147 H 112.787 -3.25494 -2.28688 0
M  V30 1148 H 109.526 -6.23962 -2.00878 0
M  V30 1149 H 109.046 -5.04823 -3.23904 0
M  V30 1150 H 110.725 -5.63887 -3.17239 0
M  V30 1151 N 110.857 0.726932 -1.39834 0
M  V30 1152 C 111.787 1.85405 -1.41941 0
M  V30 1153 C 112.768 1.67751 -0.281728 0
M  V30 1154 O 113.953 1.8795 -0.488717 0
M  V30 1155 C 111.083 3.23243 -1.2701 0
M  V30 1156 C 110.037 3.55549 -2.38262 0
M  V30 1157 C 109.363 4.9241 -2.08415 0
M  V30 1158 C 110.663 3.577 -3.80589 0
M  V30 1159 H 112.357 1.83899 -2.36266 0
M  V30 1160 H 109.903 0.883349 -1.13723 0
M  V30 1161 H 111.856 4.01775 -1.27103 0
M  V30 1162 H 110.58 3.25296 -0.291564 0
M  V30 1163 H 109.239 2.79351 -2.37399 0
M  V30 1164 H 108.887 4.91052 -1.0898 0
M  V30 1165 H 108.587 5.14992 -2.82943 0
M  V30 1166 H 110.111 5.73289 -2.10171 0
M  V30 1167 H 111.525 4.26293 -3.83337 0
M  V30 1168 H 109.922 3.91804 -4.54543 0
M  V30 1169 H 110.992 2.57328 -4.10987 0
M  V30 1170 N 112.336 1.25143 0.95797 0
M  V30 1171 C 113.284 1.05019 2.07542 0
M  V30 1172 C 114.278 -0.0178751 1.69391 0
M  V30 1173 O 115.484 0.137472 1.79474 0
M  V30 1174 H 111.859 0.32265 0.679265 0
M  V30 1175 H 113.83 1.99759 2.21673 0
M  V30 1176 C 112.579 0.682074 3.40944 0
M  V30 1177 H 111.902 1.49573 3.70767 0
M  V30 1178 H 113.342 0.580945 4.20001 0
M  V30 1179 C 111.801 -0.611608 3.31302 0
M  V30 1180 O 112.331 -1.65465 3.66038 0
M  V30 1181 N 110.537 -0.595982 2.84423 0
M  V30 1182 H 110.084 0.253192 2.56353 0
M  V30 1183 H 110.042 -1.46173 2.78354 0
M  V30 1184 N 113.814 -1.1601 1.06675 0
M  V30 1185 C 114.746 -2.20115 0.638921 0
M  V30 1186 C 115.759 -1.59916 -0.305057 0
M  V30 1187 O 116.948 -1.78245 -0.0954446 0
M  V30 1188 C 114.048 -3.38798 -0.0830083 0
M  V30 1189 C 113.221 -4.2855 0.875426 0
M  V30 1190 C 112.28 -5.25849 0.192042 0
M  V30 1191 O 111.306 -5.63102 0.830921 0
M  V30 1192 N 112.508 -5.70648 -1.06493 0
M  V30 1193 H 115.273 -2.57439 1.53444 0
M  V30 1194 H 112.834 -1.31057 0.950557 0
M  V30 1195 H 114.826 -4.00936 -0.550685 0
M  V30 1196 H 113.396 -2.99947 -0.880386 0
M  V30 1197 H 112.616 -3.63617 1.52238 0
M  V30 1198 H 113.904 -4.85393 1.52548 0
M  V30 1199 H 113.302 -5.42482 -1.60405 0
M  V30 1200 H 111.859 -6.34859 -1.47641 0
M  V30 1201 N 115.292 -0.849877 -1.32721 0
M  V30 1202 C 116.517 -0.463856 -2.02146 0
M  V30 1203 C 116.942 0.930449 -1.63476 0
M  V30 1204 O 116.3 1.61033 -0.832952 0
M  V30 1205 C 116.348 -0.604955 -3.55489 0
M  V30 1206 O 115.452 0.36425 -4.10788 0
M  V30 1207 H 114.793 -0.187046 -0.637111 0
M  V30 1208 H 117.323 -1.14775 -1.69375 0
M  V30 1209 H 117.333 -0.490696 -4.05038 0
M  V30 1210 H 116.008 -1.62174 -3.82978 0
M  V30 1211 H 114.585 0.206628 -3.72327 0
M  V30 1212 N 116.77 1.45427 -0.607355 0
M  V30 1213 C 117.718 2.32269 0.12411 0
M  V30 1214 C 118.712 1.45955 0.859854 0
M  V30 1215 O 119.918 1.6244 0.775447 0
M  V30 1216 H 116.293 0.749691 0.0588839 0
M  V30 1217 H 118.264 2.91743 -0.626762 0
M  V30 1218 C 117.013 3.29567 1.1082 0
M  V30 1219 H 116.336 3.95978 0.551492 0
M  V30 1220 H 117.776 3.93061 1.58995 0
M  V30 1221 C 116.235 2.56722 2.18164 0
M  V30 1222 O 116.765 2.34842 3.25902 0
M  V30 1223 N 114.971 2.16861 1.93442 0
M  V30 1224 H 114.518 2.34855 1.05834 0
M  V30 1225 H 114.476 1.68444 2.65469 0
M  V30 1226 N 118.248 0.346503 1.53744 0
M  V30 1227 C 119.473 -0.253074 2.0585 0
M  V30 1228 C 119.898 -1.43202 1.21962 0
M  V30 1229 O 119.256 -1.79783 0.234073 0
M  V30 1230 C 119.304 -0.643193 3.54817 0
M  V30 1231 O 118.408 -1.74286 3.73762 0
M  V30 1232 H 117.749 -0.0413583 0.662711 0
M  V30 1233 H 120.279 0.501574 1.98357 0
M  V30 1234 H 120.289 -0.919526 3.97503 0
M  V30 1235 H 118.964 0.218966 4.15323 0
M  V30 1236 H 117.541 -1.46356 3.42979 0
M  V30 1237 N 119.726 -1.57421 0.075193 0
M  V30 1238 C 120.975 -1.92794 -0.592731 0
M  V30 1239 C 121.288 -0.957478 -1.70563 0
M  V30 1240 O 122.494 -1.20417 -2.43335 0
M  V30 1241 C 120.95 -3.42495 -1.10569 0
M  V30 1242 C 120.558 -4.47994 -0.0236121 0
M  V30 1243 C 122.302 -3.86864 -1.74748 0
M  V30 1244 C 120.209 -5.88829 -0.550803 0
M  V30 1245 H 119.139 -0.719591 -0.225177 0
M  V30 1246 H 121.79 -1.82902 0.147978 0
M  V30 1247 H 120.172 -3.47471 -1.89947 0
M  V30 1248 H 121.346 -4.54637 0.751099 0
M  V30 1249 H 119.661 -4.13113 0.522159 0
M  V30 1250 H 122.258 -4.8947 -2.15229 0
M  V30 1251 H 122.601 -3.24417 -2.60882 0
M  V30 1252 H 123.134 -3.84504 -1.01986 0
M  V30 1253 H 119.873 -6.54929 0.273457 0
M  V30 1254 H 119.393 -5.85698 -1.29296 0
M  V30 1255 H 121.072 -6.38811 -1.02613 0
M  V30 1256 N 121.204 0.198386 -1.56346 0
M  V30 1257 C 122.451 0.919286 -1.80431 0
M  V30 1258 C 122.779 1.83393 -0.647866 0
M  V30 1259 O 122.034 1.92236 0.366556 0
M  V30 1260 C 122.333 1.77031 -3.10475 0
M  V30 1261 C 121.999 1.00693 -4.39513 0
M  V30 1262 C 120.661 0.796145 -4.74568 0
M  V30 1263 C 123.013 0.469559 -5.19081 0
M  V30 1264 C 120.341 0.0364588 -5.86689 0
M  V30 1265 C 122.693 -0.2769 -6.31994 0
M  V30 1266 C 121.357 -0.49873 -6.65634 0
M  V30 1267 H 120.627 0.336391 -0.660244 0
M  V30 1268 H 123.274 0.185872 -1.90596 0
M  V30 1269 H 121.579 2.5723 -2.95533 0
M  V30 1270 H 123.276 2.33065 -3.26315 0
M  V30 1271 H 119.866 1.18122 -4.12001 0
M  V30 1272 H 124.05 0.619816 -4.92414 0
M  V30 1273 H 119.306 -0.145412 -6.11227 0
M  V30 1274 H 123.48 -0.700684 -6.92866 0
M  V30 1275 H 121.107 -1.0893 -7.52355 0
M  V30 1276 N 122.682 1.50554 0.465978 0
M  V30 1277 C 123.93 1.61479 1.21528 0
M  V30 1278 C 124.251 0.319596 1.92363 0
M  V30 1279 O 123.521 -0.663194 1.84333 0
M  V30 1280 H 122.101 0.595055 0.451573 0
M  V30 1281 H 124.763 1.87355 0.53704 0
M  V30 1282 H 123.859 2.42846 1.96042 0
M  V30 1283 N 124.16 -0.719506 1.40217 0
M  V30 1284 C 125.4 -1.49181 1.39729 0
M  V30 1285 C 125.764 -1.92 -0.00250614 0
M  V30 1286 O 126.965 -2.68473 -0.132479 0
M  V30 1287 C 125.236 -2.68767 2.35582 0
M  V30 1288 S 126.795 -3.58224 2.53418 0
M  V30 1289 H 123.613 -0.510091 0.495307 0
M  V30 1290 H 126.215 -0.841724 1.76452 0
M  V30 1291 H 124.919 -2.35475 3.36124 0
M  V30 1292 H 124.45 -3.38691 2.0013 0
M  V30 1293 H 126.465 -4.63033 1.78367 0
M  V30 1294 N 125.638 -1.25649 -0.95132 0
M  V30 1295 C 126.887 -1.09988 -1.69073 0
M  V30 1296 C 127.2 0.358355 -1.92289 0
M  V30 1297 O 128.406 0.635466 -2.63958 0
M  V30 1298 C 126.862 -1.92012 -3.044 0
M  V30 1299 C 126.47 -3.42347 -2.88968 0
M  V30 1300 C 128.214 -1.8493 -3.82101 0
M  V30 1301 C 126.121 -4.16655 -4.19705 0
M  V30 1302 H 125.051 -0.407993 -0.63408 0
M  V30 1303 H 127.702 -1.49873 -1.05879 0
M  V30 1304 H 126.084 -1.44952 -3.68517 0
M  V30 1305 H 127.258 -3.97104 -2.33762 0
M  V30 1306 H 125.573 -3.50557 -2.24719 0
M  V30 1307 H 128.17 -2.37739 -4.78941 0
M  V30 1308 H 128.513 -0.817883 -4.08187 0
M  V30 1309 H 129.046 -2.29758 -3.2474 0
M  V30 1310 H 125.785 -5.20224 -3.98807 0
M  V30 1311 H 125.305 -3.66681 -4.74663 0
M  V30 1312 H 126.984 -4.24551 -4.88227 0
M  V30 1313 N 127.117 1.15442 -1.07289 0
M  V30 1314 C 128.364 1.86213 -0.795668 0
M  V30 1315 C 128.692 1.82291 0.678238 0
M  V30 1316 O 127.947 1.24057 1.51355 0
M  V30 1317 C 128.246 3.3489 -1.24834 0
M  V30 1318 C 127.912 3.59007 -2.72809 0
M  V30 1319 C 126.574 3.65298 -3.13227 0
M  V30 1320 C 128.926 3.68762 -3.68326 0
M  V30 1321 C 126.254 3.78854 -4.4798 0
M  V30 1322 C 128.606 3.83842 -5.0284 0
M  V30 1323 C 127.27 3.88378 -5.4288 0
M  V30 1324 H 126.54 0.681403 -0.291155 0
M  V30 1325 H 129.187 1.36435 -1.34379 0
M  V30 1326 H 127.492 3.8687 -0.619595 0
M  V30 1327 H 129.189 3.88052 -1.01076 0
M  V30 1328 H 125.779 3.5475 -2.40521 0
M  V30 1329 H 129.963 3.63202 -3.38227 0
M  V30 1330 H 125.219 3.80623 -4.78472 0
M  V30 1331 H 129.393 3.90332 -5.76727 0
M  V30 1332 H 127.02 3.98635 -6.47298 0
M  V30 1333 N 128.595 0.856903 1.32268 0
M  V30 1334 C 129.825 0.47475 2.01071 0
M  V30 1335 C 130.233 -0.933746 1.64553 0
M  V30 1336 O 129.576 -1.62114 0.863989 0
M  V30 1337 C 129.638 0.536746 3.55471 0
M  V30 1338 C 129.302 1.90453 4.15423 0
M  V30 1339 C 130.299 2.87029 4.33486 0
M  V30 1340 C 127.984 2.20229 4.51447 0
M  V30 1341 C 129.978 4.11532 4.86744 0
M  V30 1342 C 127.665 3.44984 5.0441 0
M  V30 1343 C 128.663 4.40452 5.22007 0
M  V30 1344 O 128.351 5.62998 5.73837 0
M  V30 1345 H 128.083 0.184778 0.650256 0
M  V30 1346 H 130.637 1.15615 1.69771 0
M  V30 1347 H 128.867 -0.20152 3.86175 0
M  V30 1348 H 130.556 0.169875 4.05544 0
M  V30 1349 H 131.322 2.6533 4.05986 0
M  V30 1350 H 127.201 1.46705 4.37034 0
M  V30 1351 H 130.745 4.86056 5.00395 0
M  V30 1352 H 126.642 3.66532 5.31342 0
M  V30 1353 H 127.41 5.64987 5.92226 0
M  V30 1354 N 130.073 -1.45103 0.615059 0
M  V30 1355 C 131.301 -2.06553 0.11977 0
M  V30 1356 C 131.716 -1.45842 -1.19898 0
M  V30 1357 O 131.073 -0.575325 -1.73194 0
M  V30 1358 C 131.124 -3.61495 -0.018364 0
M  V30 1359 O 130.845 -4.19942 1.24822 0
M  V30 1360 C 132.346 -4.39947 -0.544237 0
M  V30 1361 H 129.566 -0.667096 0.0722739 0
M  V30 1362 H 132.11 -1.8623 0.84491 0
M  V30 1363 H 130.265 -3.81135 -0.693865 0
M  V30 1364 H 130.679 -5.13204 1.0827 0
M  V30 1365 H 132.153 -5.48838 -0.589953 0
M  V30 1366 H 132.63 -4.10255 -1.56805 0
M  V30 1367 H 133.236 -4.25188 0.0974703 0
M  V30 1368 N 131.551 -0.354651 -1.53558 0
M  V30 1369 C 132.481 0.489091 -2.2832 0
M  V30 1370 C 133.462 1.09324 -1.30316 0
M  V30 1371 O 134.647 1.11255 -1.59173 0
M  V30 1372 C 131.777 1.63456 -3.0643 0
M  V30 1373 C 130.731 1.1582 -4.12031 0
M  V30 1374 C 130.057 2.39305 -4.7816 0
M  V30 1375 C 131.357 0.250731 -5.21698 0
M  V30 1376 H 133.051 -0.134614 -2.99097 0
M  V30 1377 H 130.597 -0.0661826 -1.43848 0
M  V30 1378 H 132.55 2.23136 -3.57475 0
M  V30 1379 H 131.274 2.28533 -2.33325 0
M  V30 1380 H 129.933 0.584146 -3.61916 0
M  V30 1381 H 129.581 3.02814 -4.01637 0
M  V30 1382 H 129.281 2.08109 -5.49513 0
M  V30 1383 H 130.805 2.99691 -5.31994 0
M  V30 1384 H 132.219 0.754695 -5.68311 0
M  V30 1385 H 130.616 0.0301468 -6.00092 0
M  V30 1386 H 131.686 -0.710125 -4.79672 0
M  V30 1387 N 133.029 1.57378 -0.0835403 0
M  V30 1388 C 133.961 2.10389 0.909338 0
M  V30 1389 C 134.974 1.03858 1.25369 0
M  V30 1390 O 136.163 1.31338 1.20882 0
M  V30 1391 C 133.263 2.55908 2.2218 0
M  V30 1392 C 132.436 3.86145 2.05453 0
M  V30 1393 C 131.495 4.17633 3.20108 0
M  V30 1394 O 130.521 4.87043 2.94581 0
M  V30 1395 N 131.723 3.72113 4.45547 0
M  V30 1396 H 134.488 2.962 0.456657 0
M  V30 1397 H 132.049 1.61579 0.101877 0
M  V30 1398 H 134.041 2.74027 2.97811 0
M  V30 1399 H 132.611 1.75171 2.58909 0
M  V30 1400 H 131.831 3.7729 1.1422 0
M  V30 1401 H 133.119 4.7137 1.91541 0
M  V30 1402 H 132.517 3.16062 4.69171 0
M  V30 1403 H 131.074 3.95409 5.18165 0
M  V30 1404 N 134.507 -0.190092 1.56449 0
M  V30 1405 C 135.437 -1.23816 1.97969 0
M  V30 1406 C 136.418 -1.47201 0.852395 0
M  V30 1407 O 137.603 -1.58854 1.1171 0
M  V30 1408 C 134.733 -2.5813 2.3235 0
M  V30 1409 C 133.687 -2.49348 3.47864 0
M  V30 1410 C 133.013 -3.8798 3.67934 0
M  V30 1411 C 134.313 -2.01424 4.81898 0
M  V30 1412 H 136.007 -0.89311 2.85769 0
M  V30 1413 H 133.553 -0.428177 1.37487 0
M  V30 1414 H 135.506 -3.31637 2.59991 0
M  V30 1415 H 134.23 -2.94386 1.41438 0
M  V30 1416 H 132.889 -1.78297 3.20321 0
M  V30 1417 H 132.537 -4.21597 2.74344 0
M  V30 1418 H 132.237 -3.82978 4.45648 0
M  V30 1419 H 133.761 -4.63101 3.97957 0
M  V30 1420 H 135.175 -2.64693 5.08538 0
M  V30 1421 H 133.572 -2.07413 5.63116 0
M  V30 1422 H 134.642 -0.967677 4.75146 0
M  V30 1423 N 135.985 -1.50799 -0.457987 0
M  V30 1424 C 136.915 -1.73553 -1.5621 0
M  V30 1425 C 137.896 -0.584774 -1.59732 0
M  V30 1426 O 139.081 -0.825314 -1.7579 0
M  V30 1427 C 136.211 -1.84169 -2.94447 0
M  V30 1428 C 135.165 -2.99461 -3.0579 0
M  V30 1429 C 134.491 -2.95235 -4.45803 0
M  V30 1430 C 135.791 -4.39766 -2.81786 0
M  V30 1431 H 137.485 -2.66 -1.37421 0
M  V30 1432 H 135.031 -1.28002 -0.659662 0
M  V30 1433 H 136.984 -1.98672 -3.71628 0
M  V30 1434 H 135.708 -0.883545 -3.14422 0
M  V30 1435 H 134.367 -2.8463 -2.31044 0
M  V30 1436 H 134.015 -1.97239 -4.62715 0
M  V30 1437 H 133.715 -3.72642 -4.54326 0
M  V30 1438 H 135.239 -3.11803 -5.24987 0
M  V30 1439 H 136.653 -4.55054 -3.4871 0
M  V30 1440 H 135.05 -5.18722 -3.0174 0
M  V30 1441 H 136.12 -4.51229 -1.7754 0
M  V30 1442 N 137.463 0.71206 -1.40597 0
M  V30 1443 C 138.393 1.83889 -1.43899 0
M  V30 1444 C 139.374 1.67442 -0.299504 0
M  V30 1445 O 140.559 1.87421 -0.508624 0
M  V30 1446 C 137.689 3.21877 -1.30431 0
M  V30 1447 C 136.643 3.53002 -2.42019 0
M  V30 1448 C 135.969 4.90172 -2.13626 0
M  V30 1449 C 137.269 3.53643 -3.84362 0
M  V30 1450 H 138.963 1.81383 -2.38203 0
M  V30 1451 H 136.509 0.871237 -1.14654 0
M  V30 1452 H 138.462 4.00404 -1.31357 0
M  V30 1453 H 137.186 3.24968 -0.326049 0
M  V30 1454 H 135.845 2.76818 -2.40349 0
M  V30 1455 H 135.493 4.89869 -1.14182 0
M  V30 1456 H 135.193 5.11962 -2.88389 0
M  V30 1457 H 136.717 5.71028 -2.1624 0
M  V30 1458 H 138.131 4.22203 -3.87837 0
M  V30 1459 H 136.528 3.86961 -4.58673 0
M  V30 1460 H 137.598 2.52954 -4.13693 0
M  V30 1461 N 138.941 1.26152 0.944643 0
M  V30 1462 C 140.189 1.11271 1.6871 0
M  V30 1463 C 140.51 -0.345166 1.91921 0
M  V30 1464 O 139.78 -1.24387 1.51343 0
M  V30 1465 H 138.36 0.408783 0.625224 0
M  V30 1466 H 141.022 1.58427 1.1352 0
M  V30 1467 H 140.118 1.62879 2.66227 0
M  V30 1468 N 140.419 -1.14872 1.07899 0
M  V30 1469 C 141.659 -1.8745 0.814965 0
M  V30 1470 C 142.023 -1.80758 -0.64733 0
M  V30 1471 O 143.224 -2.48422 -1.02664 0
M  V30 1472 C 141.495 -3.32286 1.31607 0
M  V30 1473 S 143.054 -4.22537 1.18357 0
M  V30 1474 H 139.872 -0.646833 0.295174 0
M  V30 1475 H 142.474 -1.38555 1.37923 0
M  V30 1476 H 141.178 -3.34703 2.37491 0
M  V30 1477 H 140.709 -3.86238 0.747261 0
M  V30 1478 H 142.724 -4.96044 0.124586 0
M  V30 1479 N 141.898 -0.863906 -1.31812 0
M  V30 1480 C 142.828 -0.330843 -2.31144 0
M  V30 1481 C 143.809 0.575005 -1.60087 0
M  V30 1482 O 144.994 0.493304 -1.8783 0
M  V30 1483 C 142.124 0.47374 -3.44054 0
M  V30 1484 C 141.078 -0.338481 -4.26659 0
M  V30 1485 C 140.404 0.591412 -5.31419 0
M  V30 1486 C 141.704 -1.56926 -4.98168 0
M  V30 1487 H 143.398 -1.16086 -2.75979 0
M  V30 1488 H 140.944 -0.559657 -1.32679 0
M  V30 1489 H 142.897 0.857143 -4.12591 0
M  V30 1490 H 141.621 1.33721 -2.9797 0
M  V30 1491 H 140.28 -0.703754 -3.59782 0
M  V30 1492 H 139.928 1.45199 -4.81587 0
M  V30 1493 H 139.628 0.0519022 -5.87577 0
M  V30 1494 H 141.152 0.97179 -6.02817 0
M  V30 1495 H 142.566 -1.25764 -5.59336 0
M  V30 1496 H 140.963 -2.04739 -5.64094 0
M  V30 1497 H 142.033 -2.32544 -4.25501 0
M  V30 1498 N 143.376 1.44774 -0.622745 0
M  V30 1499 C 144.792 1.56986 -0.287652 0
M  V30 1500 C 144.992 1.61167 1.20944 0
M  V30 1501 O 144.048 1.55015 1.99315 0
M  V30 1502 C 145.361 2.84551 -0.972188 0
M  V30 1503 C 146.909 2.9825 -0.949536 0
M  V30 1504 C 147.384 4.28605 -1.61437 0
M  V30 1505 N 148.875 4.35399 -1.58057 0
M  V30 1506 C 149.61 5.34964 -2.064 0
M  V30 1507 N 149.106 6.40981 -2.62897 0
M  V30 1508 N 150.899 5.26419 -1.97078 0
M  V30 1509 H 143.05 1.40304 -1.59463 0
M  V30 1510 H 145.313 0.671794 -0.668878 0
M  V30 1511 H 145.019 2.87417 -2.02693 0
M  V30 1512 H 144.893 3.73807 -0.504771 0
M  V30 1513 H 147.28 2.94941 0.0967067 0
M  V30 1514 H 147.361 2.10364 -1.45536 0
M  V30 1515 H 147.005 4.32672 -2.66002 0
M  V30 1516 H 146.935 5.15334 -1.08344 0
M  V30 1517 H 149.426 3.59397 -1.16801 0
M  V30 1518 H 149.739 7.13225 -2.97539 0
M  V30 1519 H 148.084 6.4169 -2.66943 0
M  V30 1520 H 151.275 4.42504 -1.52669 0
M  V30 1521 H 151.448 6.03861 -2.35066 0
M  V30 1522 N 144.854 0.36279 1.53368 0
M  V30 1523 C 146.082 -0.228613 2.05633 0
M  V30 1524 C 146.497 -1.42676 1.23649 0
M  V30 1525 O 145.854 -1.80394 0.27647 0
M  V30 1526 C 145.905 -0.624845 3.56059 0
M  V30 1527 O 145.626 0.525675 4.34935 0
M  V30 1528 C 147.127 -1.27493 4.24571 0
M  V30 1529 H 144.347 -0.0407183 0.669763 0
M  V30 1530 H 146.891 0.520352 1.97769 0
M  V30 1531 H 145.046 -1.32373 3.64083 0
M  V30 1532 H 145.46 0.205969 5.24095 0
M  V30 1533 H 146.934 -1.50277 5.31151 0
M  V30 1534 H 147.411 -2.23439 3.78116 0
M  V30 1535 H 148.017 -0.617558 4.20792 0
M  V30 1536 N 146.332 -1.57332 0.0918853 0
M  V30 1537 C 147.748 -1.57389 -0.264766 0
M  V30 1538 C 147.948 -1.10281 -1.68643 0
M  V30 1539 O 147.004 -0.777801 -2.40222 0
M  V30 1540 C 148.317 -3.00648 -0.0561195 0
M  V30 1541 C 149.865 -3.12754 -0.124116 0
M  V30 1542 C 150.34 -4.57965 0.0564972 0
M  V30 1543 N 151.831 -4.632 0.00155611 0
M  V30 1544 C 152.566 -5.73281 0.116598 0
M  V30 1545 N 152.062 -6.92208 0.286294 0
M  V30 1546 N 153.855 -5.6207 0.0580973 0
M  V30 1547 H 146.006 -1.86262 1.02079 0
M  V30 1548 H 148.269 -0.859579 0.399786 0
M  V30 1549 H 147.975 -3.393 0.925669 0
M  V30 1550 H 147.849 -3.68623 -0.799823 0
M  V30 1551 H 150.236 -2.73976 -1.09641 0
M  V30 1552 H 150.317 -2.47377 0.651024 0
M  V30 1553 H 149.961 -4.97436 1.02564 0
M  V30 1554 H 149.891 -5.21399 -0.738297 0
M  V30 1555 H 152.382 -3.77686 -0.127192 0
M  V30 1556 H 152.695 -7.71934 0.365676 0
M  V30 1557 H 151.04 -6.94254 0.32192 0
M  V30 1558 H 154.231 -4.68043 -0.0733204 0
M  V30 1559 H 154.404 -6.47824 0.151203 0
M  V30 1560 N 147.81 0.181792 -1.56548 0
M  V30 1561 C 149.056 0.896803 -1.82562 0
M  V30 1562 C 149.411 1.80324 -0.670908 0
M  V30 1563 O 148.704 1.8868 0.333235 0
M  V30 1564 C 148.898 1.73728 -3.12335 0
M  V30 1565 C 148.727 0.913714 -4.4032 0
M  V30 1566 C 147.497 0.592903 -5.01809 0
M  V30 1567 C 149.695 0.260164 -5.13642 0
M  V30 1568 N 147.677 -0.247901 -6.13399 0
M  V30 1569 C 149.048 -0.442256 -6.18421 0
M  V30 1570 C 151.103 0.177253 -4.97584 0
M  V30 1571 C 149.806 -1.21971 -7.08883 0
M  V30 1572 C 151.832 -0.586839 -5.88481 0
M  V30 1573 C 151.194 -1.27766 -6.92716 0
M  V30 1574 H 147.293 0.307122 -0.719166 0
M  V30 1575 H 149.877 0.164535 -1.94004 0
M  V30 1576 H 148.048 2.44105 -3.02105 0
M  V30 1577 H 149.78 2.39279 -3.26386 0
M  V30 1578 H 146.535 0.920502 -4.64568 0
M  V30 1579 H 146.959 -0.658304 -6.73792 0
M  V30 1580 H 151.601 0.696993 -4.17015 0
M  V30 1581 H 149.319 -1.75083 -7.88905 0
M  V30 1582 H 152.905 -0.652522 -5.78129 0
M  V30 1583 H 151.785 -1.85943 -7.61836 0
M  V30 1584 N 149.288 1.51039 0.449983 0
M  V30 1585 C 150.251 1.70863 1.5277 0
M  V30 1586 C 151.251 0.578846 1.5002 0
M  V30 1587 O 152.441 0.846213 1.52266 0
M  V30 1588 C 149.573 1.75341 2.9235 0
M  V30 1589 H 150.766 2.67034 1.36502 0
M  V30 1590 H 148.319 1.40838 0.677812 0
M  V30 1591 H 149.054 0.809383 3.14037 0
M  V30 1592 H 148.839 2.57436 2.95752 0
M  V30 1593 H 150.329 1.92559 3.70555 0
M  V30 1594 N 150.766 -0.704594 1.40972 0
M  V30 1595 C 151.991 -1.49858 1.43378 0
M  V30 1596 C 152.416 -1.88061 0.038184 0
M  V30 1597 O 151.774 -1.5402 -0.956425 0
M  V30 1598 C 151.822 -2.74333 2.34038 0
M  V30 1599 O 150.926 -3.7147 1.7912 0
M  V30 1600 H 150.267 -0.45139 0.486974 0
M  V30 1601 H 152.797 -0.866832 1.8533 0
M  V30 1602 H 152.807 -3.22741 2.49604 0
M  V30 1603 H 151.482 -2.45863 3.35446 0
M  V30 1604 H 150.059 -3.30363 1.72958 0
M  V30 1605 N 152.244 -1.26651 -0.937939 0
M  V30 1606 C 153.49 -1.12553 -1.687 0
M  V30 1607 C 153.823 0.329782 -1.91379 0
M  V30 1608 O 153.098 1.24202 -1.4968 0
M  V30 1609 C 153.381 -1.89862 -3.05981 0
M  V30 1610 C 153.234 -3.43318 -2.90607 0
M  V30 1611 C 154.553 -1.69499 -4.0615 0
M  V30 1612 H 151.672 -0.410257 -0.612257 0
M  V30 1613 H 154.314 -1.55685 -1.08913 0
M  V30 1614 H 152.464 -1.53204 -3.57017 0
M  V30 1615 H 154.136 -3.89747 -2.46769 0
M  V30 1616 H 152.379 -3.70179 -2.26164 0
M  V30 1617 H 153.05 -3.92642 -3.8799 0
M  V30 1618 H 155.526 -2.01442 -3.64088 0
M  V30 1619 H 154.402 -2.26002 -5.00214 0
M  V30 1620 H 154.663 -0.640365 -4.37438 0
M  V30 1621 N 153.722 1.14298 -1.08507 0
M  V30 1622 C 154.652 2.21542 -0.737646 0
M  V30 1623 C 155.633 1.67773 0.280377 0
M  V30 1624 O 156.818 1.93616 0.150521 0
M  V30 1625 C 153.948 3.46988 -0.147259 0
M  V30 1626 C 152.902 4.13789 -1.09374 0
M  V30 1627 C 152.228 5.33449 -0.365524 0
M  V30 1628 C 153.528 4.62208 -2.4323 0
M  V30 1629 H 155.222 2.5086 -1.6343 0
M  V30 1630 H 152.768 1.20576 -0.787243 0
M  V30 1631 H 154.721 4.21262 0.107808 0
M  V30 1632 H 153.445 3.17037 0.784538 0
M  V30 1633 H 152.104 3.4147 -1.33393 0
M  V30 1634 H 151.752 4.99759 0.57011 0
M  V30 1635 H 151.452 5.79088 -0.996512 0
M  V30 1636 H 152.976 6.10485 -0.118534 0
M  V30 1637 H 154.39 5.27952 -2.23472 0
M  V30 1638 H 152.787 5.18553 -3.02031 0
M  V30 1639 H 153.857 3.77224 -3.04681 0
M  V30 1640 N 155.201 0.870884 1.31352 0
M  V30 1641 C 156.134 0.271983 2.26573 0
M  V30 1642 C 157.112 -0.599385 1.51149 0
M  V30 1643 O 158.296 -0.552605 1.80218 0
M  V30 1644 C 155.423 -0.614801 3.33073 0
M  V30 1645 C 154.469 0.185342 4.26097 0
M  V30 1646 S 155.302 1.56444 5.12138 0
M  V30 1647 C 156.458 0.683807 6.22153 0
M  V30 1648 H 156.691 1.07916 2.77023 0
M  V30 1649 H 154.224 0.669459 1.39132 0
M  V30 1650 H 156.182 -1.12074 3.94905 0
M  V30 1651 H 154.843 -1.39593 2.81376 0
M  V30 1652 H 154.036 -0.490771 5.01605 0
M  V30 1653 H 153.638 0.623415 3.68768 0
M  V30 1654 H 155.93 -0.10521 6.77418 0
M  V30 1655 H 156.873 1.41004 6.93919 0
M  V30 1656 H 157.281 0.250952 5.63942 0
M  V30 1657 N 156.679 -1.44442 0.630414 0
M  V30 1658 C 157.609 -2.33418 -0.0618083 0
M  V30 1659 C 158.59 -1.48165 -0.835541 0
M  V30 1660 O 159.775 -1.76886 -0.801564 0
M  V30 1661 C 156.905 -3.31222 -1.04449 0
M  V30 1662 C 155.859 -4.26288 -0.382436 0
M  V30 1663 C 155.185 -5.13954 -1.47497 0
M  V30 1664 C 156.485 -5.1744 0.710865 0
M  V30 1665 H 158.179 -2.91548 0.681184 0
M  V30 1666 H 155.725 -1.40191 0.329026 0
M  V30 1667 H 157.678 -3.92351 -1.53748 0
M  V30 1668 H 156.402 -2.71299 -1.81836 0
M  V30 1669 H 155.061 -3.6649 0.0899054 0
M  V30 1670 H 154.709 -4.50385 -2.2397 0
M  V30 1671 H 154.409 -5.7837 -1.03737 0
M  V30 1672 H 155.933 -5.77955 -1.96979 0
M  V30 1673 H 157.347 -5.72509 0.300996 0
M  V30 1674 H 155.744 -5.90455 1.07156 0
M  V30 1675 H 156.814 -4.58496 1.57829 0
M  V30 1676 N 158.157 -0.370918 -1.53173 0
M  V30 1677 C 159.087 0.464847 -2.28826 0
M  V30 1678 C 160.068 1.07936 -1.31468 0
M  V30 1679 O 161.253 1.0956 -1.60344 0
M  V30 1680 C 158.383 1.60196 -3.08147 0
M  V30 1681 C 157.337 1.11443 -4.13237 0
M  V30 1682 C 156.663 2.3422 -4.80672 0
M  V30 1683 C 157.963 0.195384 -5.21934 0
M  V30 1684 H 159.657 -0.166329 -2.98938 0
M  V30 1685 H 157.203 -0.0814359 -1.4377 0
M  V30 1686 H 159.156 2.19332 -3.59822 0
M  V30 1687 H 157.88 2.26045 -2.35735 0
M  V30 1688 H 156.539 0.545727 -3.62515 0
M  V30 1689 H 156.187 2.98537 -4.04827 0
M  V30 1690 H 155.887 2.02269 -5.51689 0
M  V30 1691 H 157.411 2.94032 -5.35143 0
M  V30 1692 H 158.825 0.694375 -5.69079 0
M  V30 1693 H 157.222 -0.0335027 -6.00091 0
M  V30 1694 H 158.292 -0.760961 -4.78892 0
M  V30 1695 N 159.635 1.57281 -0.100228 0
M  V30 1696 C 160.86 1.99302 0.573881 0
M  V30 1697 C 161.285 0.979059 1.60611 0
M  V30 1698 O 160.643 -0.0517803 1.81226 0
M  V30 1699 C 160.691 3.40274 1.19358 0
M  V30 1700 O 159.795 3.41676 2.30935 0
M  V30 1701 H 159.136 0.647944 0.145138 0
M  V30 1702 H 161.666 2.03779 -0.183156 0
M  V30 1703 H 161.676 3.78078 1.53365 0
M  V30 1704 H 160.351 4.13594 0.437385 0
M  V30 1705 H 158.928 3.15672 1.98509 0
M  V30 1706 N 161.113 -0.173488 1.56642 0
M  V30 1707 C 162.338 -0.910149 1.86363 0
M  V30 1708 C 162.763 -1.75132 0.686318 0
M  V30 1709 O 162.121 -1.77595 -0.364643 0
M  V30 1710 C 162.169 -1.76447 3.14482 0
M  V30 1711 O 161.273 -2.86584 2.96553 0
M  V30 1712 H 160.614 -0.255086 0.613047 0
M  V30 1713 H 163.144 -0.172283 2.03873 0
M  V30 1714 H 163.154 -2.16483 3.45831 0
M  V30 1715 H 161.829 -1.14658 3.99783 0
M  V30 1716 H 160.406 -2.50146 2.76553 0
M  V30 1717 N 162.591 -1.51276 -0.441967 0
M  V30 1718 C 163.521 -1.752 -1.54361 0
M  V30 1719 C 164.502 -0.601682 -1.59103 0
M  V30 1720 O 165.687 -0.843913 -1.74905 0
M  V30 1721 C 162.817 -1.87282 -2.92477 0
M  V30 1722 C 161.771 -3.02687 -3.02596 0
M  V30 1723 C 161.097 -2.99947 -4.42647 0
M  V30 1724 C 162.397 -4.4273 -2.77106 0
M  V30 1725 H 164.091 -2.67442 -1.34592 0
M  V30 1726 H 161.637 -1.28694 -0.646048 0
M  V30 1727 H 163.59 -2.02602 -3.695 0
M  V30 1728 H 162.314 -0.916844 -3.13467 0
M  V30 1729 H 160.973 -2.87065 -2.28012 0
M  V30 1730 H 160.621 -2.02136 -4.60597 0
M  V30 1731 H 160.321 -3.77439 -4.50348 0
M  V30 1732 H 161.845 -3.17354 -5.2165 0
M  V30 1733 H 163.259 -4.58727 -3.43864 0
M  V30 1734 H 161.656 -5.21893 -2.96222 0
M  V30 1735 H 162.726 -4.53087 -1.72744 0
M  V30 1736 N 164.069 0.697108 -1.41344 0
M  V30 1737 C 165.315 1.4593 -1.40827 0
M  V30 1738 C 165.648 1.94193 -0.0167098 0
M  V30 1739 O 164.923 1.69425 0.955263 0
M  V30 1740 C 165.206 2.67229 -2.41373 0
M  V30 1741 C 165.059 2.24741 -3.8963 0
M  V30 1742 C 166.378 3.69423 -2.39196 0
M  V30 1743 H 163.497 0.529303 -0.512842 0
M  V30 1744 H 166.139 0.794112 -1.72609 0
M  V30 1745 H 164.289 3.23982 -2.14401 0
M  V30 1746 H 165.961 1.73327 -4.27499 0
M  V30 1747 H 164.204 1.56542 -4.0457 0
M  V30 1748 H 164.875 3.1177 -4.55525 0
M  V30 1749 H 167.351 3.2234 -2.63128 0
M  V30 1750 H 166.227 4.51907 -3.11563 0
M  V30 1751 H 166.488 4.19012 -1.41001 0
M  V30 1752 N 165.547 1.27147 0.931209 0
M  V30 1753 C 166.772 1.16191 1.71797 0
M  V30 1754 C 167.197 -0.278004 1.86034 0
M  V30 1755 O 166.555 -1.20137 1.35782 0
M  V30 1756 C 166.603 1.84673 3.09723 0
M  V30 1757 O 165.707 1.14231 3.96264 0
M  V30 1758 H 165.048 0.404303 0.526721 0
M  V30 1759 H 167.578 1.68152 1.1656 0
M  V30 1760 H 167.588 1.91893 3.60057 0
M  V30 1761 H 166.263 2.89421 2.98677 0
M  V30 1762 H 164.84 1.15056 3.54706 0
M  V30 1763 N 167.025 -1.13721 1.09112 0
M  V30 1764 C 167.955 -2.21148 0.749385 0
M  V30 1765 C 168.936 -1.6792 -0.271475 0
M  V30 1766 O 170.121 -1.93693 -0.140251 0
M  V30 1767 C 167.251 -3.46905 0.165659 0
M  V30 1768 C 166.205 -4.13203 1.11567 0
M  V30 1769 C 165.531 -5.33248 0.393809 0
M  V30 1770 C 166.831 -4.60912 2.45678 0
M  V30 1771 H 168.525 -2.4999 1.64758 0
M  V30 1772 H 166.071 -1.20156 0.793626 0
M  V30 1773 H 168.024 -4.21313 -0.085466 0
M  V30 1774 H 166.748 -3.17449 -0.767714 0
M  V30 1775 H 165.407 -3.40758 1.35202 0
M  V30 1776 H 165.055 -5.00054 -0.543599 0
M  V30 1777 H 164.755 -5.78552 1.02721 0
M  V30 1778 H 166.279 -6.10413 0.150908 0
M  V30 1779 H 167.693 -5.26759 2.26269 0
M  V30 1780 H 166.09 -5.16944 3.04776 0
M  V30 1781 H 167.16 -3.75603 3.06677 0
M  V30 1782 N 168.503 -0.877838 -1.30888 0
M  V30 1783 C 169.466 -0.344265 -2.266 0
M  V30 1784 C 170.466 0.50922 -1.52524 0
M  V30 1785 O 171.656 0.317398 -1.71284 0
M  V30 1786 C 168.788 0.510198 -3.37061 0
M  V30 1787 H 169.981 -1.1893 -2.7531 0
M  V30 1788 H 167.534 -0.654088 -1.41956 0
M  V30 1789 H 168.269 1.37612 -2.93655 0
M  V30 1790 H 168.054 -0.101047 -3.9197 0
M  V30 1791 H 169.544 0.875537 -4.08319 0
M  V30 1792 N 169.982 1.44106 -0.638065 0
M  V30 1793 C 171.23 2.01579 -0.145043 0
M  V30 1794 C 171.551 1.50496 1.24 0
M  V30 1795 O 170.821 0.711374 1.82527 0
M  V30 1796 H 169.401 0.745282 -0.05063 0
M  V30 1797 H 172.063 1.76516 -0.826327 0
M  V30 1798 H 171.159 3.11877 -0.118039 0
M  V30 1799 N 171.46 0.379036 1.52974 0
M  V30 1800 C 172.685 -0.209353 2.06341 0
M  V30 1801 C 173.11 -1.40583 1.24972 0
M  V30 1802 O 172.468 -1.79246 0.272155 0
M  V30 1803 C 172.516 -0.567786 3.56102 0
M  V30 1804 O 171.62 -1.66318 3.77375 0
M  V30 1805 H 170.961 -0.0272919 0.663439 0
M  V30 1806 H 173.491 0.543536 1.97248 0
M  V30 1807 H 173.501 -0.835003 3.99364 0
M  V30 1808 H 172.176 0.307013 4.14765 0
M  V30 1809 H 170.753 -1.39048 3.46006 0
M  V30 1810 N 172.938 -1.57226 0.108567 0
M  V30 1811 C 174.184 -1.95121 -0.552761 0
M  V30 1812 C 174.517 -0.991345 -1.66991 0
M  V30 1813 O 173.792 -0.0267211 -1.94482 0
M  V30 1814 C 174.075 -3.43039 -1.09528 0
M  V30 1815 C 173.928 -4.49797 0.0177332 0
M  V30 1816 C 175.247 -3.92567 -1.98945 0
M  V30 1817 H 172.366 -0.709496 -0.199461 0
M  V30 1818 H 175.008 -1.89126 0.182011 0
M  V30 1819 H 173.158 -3.48279 -1.72146 0
M  V30 1820 H 174.83 -4.56661 0.652584 0
M  V30 1821 H 173.073 -4.284 0.682309 0
M  V30 1822 H 173.744 -5.50528 -0.402919 0
M  V30 1823 H 176.22 -3.89565 -1.46214 0
M  V30 1824 H 175.096 -4.96605 -2.33827 0
M  V30 1825 H 175.357 -3.32648 -2.91201 0
M  V30 1826 N 174.416 0.165178 -1.56732 0
M  V30 1827 C 175.646 0.894919 -1.86212 0
M  V30 1828 C 176.054 1.76066 -0.692627 0
M  V30 1829 O 175.397 1.80387 0.347303 0
M  V30 1830 C 175.459 1.8174 -3.10179 0
M  V30 1831 C 175.123 1.13064 -4.42793 0
M  V30 1832 C 176.12 0.493169 -5.17556 0
M  V30 1833 C 173.805 1.12556 -4.89527 0
M  V30 1834 C 175.799 -0.140209 -6.37246 0
M  V30 1835 C 173.486 0.488366 -6.09145 0
M  V30 1836 C 174.484 -0.143411 -6.82849 0
M  V30 1837 O 174.172 -0.77055 -8.00199 0
M  V30 1838 H 173.904 0.265114 -0.621844 0
M  V30 1839 H 176.458 0.168242 -2.0471 0
M  V30 1840 H 174.688 2.58455 -2.87642 0
M  V30 1841 H 176.377 2.4175 -3.26055 0
M  V30 1842 H 177.143 0.489023 -4.82528 0
M  V30 1843 H 173.022 1.60672 -4.32094 0
M  V30 1844 H 176.566 -0.633932 -6.94714 0
M  V30 1845 H 172.463 0.490116 -6.43637 0
M  V30 1846 H 173.231 -0.670408 -8.1575 0
M  V30 1847 N 175.894 1.51508 0.433938 0
M  V30 1848 C 176.824 1.76016 1.53429 0
M  V30 1849 C 177.805 0.610112 1.58782 0
M  V30 1850 O 178.99 0.853177 1.74455 0
M  V30 1851 C 176.12 1.88831 2.9148 0
M  V30 1852 C 175.074 3.04288 3.00987 0
M  V30 1853 C 174.4 3.0229 4.4105 0
M  V30 1854 C 175.7 4.44193 2.74754 0
M  V30 1855 H 177.394 2.68152 1.33171 0
M  V30 1856 H 174.94 1.29035 0.639214 0
M  V30 1857 H 176.893 2.04559 3.6842 0
M  V30 1858 H 175.617 0.933455 3.12976 0
M  V30 1859 H 174.276 2.8827 2.26486 0
M  V30 1860 H 173.924 2.04576 4.59519 0
M  V30 1861 H 173.624 3.79822 4.4834 0
M  V30 1862 H 175.148 3.20116 5.1996 0
M  V30 1863 H 176.562 4.60544 3.41426 0
M  V30 1864 H 174.959 5.23457 2.9345 0
M  V30 1865 H 176.029 4.53996 1.70339 0
M  V30 1866 N 177.372 -0.689602 1.41712 0
M  V30 1867 C 178.335 -1.78521 1.43746 0
M  V30 1868 C 179.335 -1.57436 0.327191 0
M  V30 1869 O 180.525 -1.64 0.587348 0
M  V30 1870 C 177.657 -3.16971 1.25467 0
M  V30 1871 H 178.85 -1.78108 2.41283 0
M  V30 1872 H 176.403 -0.89781 1.27942 0
M  V30 1873 H 177.138 -3.23019 0.287948 0
M  V30 1874 H 176.923 -3.33678 2.05917 0
M  V30 1875 H 178.413 -3.96935 1.2974 0
M  V30 1876 N 178.85 -1.27639 -0.924453 0
M  V30 1877 C 180.096 -1.15345 -1.67532 0
M  V30 1878 C 180.451 0.297096 -1.90092 0
M  V30 1879 O 179.744 1.21374 -1.48253 0
M  V30 1880 C 179.938 -1.87407 -3.04325 0
M  V30 1881 C 179.767 -3.3932 -2.95114 0
M  V30 1882 C 178.537 -4.08644 -2.97218 0
M  V30 1883 C 180.735 -4.35242 -2.73987 0
M  V30 1884 N 178.717 -5.47102 -2.78482 0
M  V30 1885 C 180.088 -5.6099 -2.63988 0
M  V30 1886 C 182.143 -4.25294 -2.589 0
M  V30 1887 C 180.846 -6.77924 -2.40442 0
M  V30 1888 C 182.872 -5.41952 -2.36731 0
M  V30 1889 C 182.234 -6.66658 -2.27478 0
M  V30 1890 H 178.333 -0.47696 -0.619704 0
M  V30 1891 H 180.917 -1.6115 -1.09265 0
M  V30 1892 H 179.088 -1.44053 -3.60699 0
M  V30 1893 H 180.82 -1.6759 -3.68369 0
M  V30 1894 H 177.575 -3.60136 -3.07569 0
M  V30 1895 H 177.999 -6.19852 -2.72236 0
M  V30 1896 H 182.641 -3.29598 -2.64811 0
M  V30 1897 H 180.359 -7.73699 -2.3327 0
M  V30 1898 H 183.945 -5.36137 -2.25938 0
M  V30 1899 H 182.825 -7.55405 -2.10555 0
M  V30 1900 N 180.328 1.1314 -1.09713 0
M  V30 1901 C 181.577 1.83838 -0.829851 0
M  V30 1902 C 181.89 1.84599 0.646728 0
M  V30 1903 O 183.096 2.51218 1.02965 0
M  V30 1904 C 181.552 3.30069 -1.43466 0
M  V30 1905 C 181.16 3.37688 -2.94399 0
M  V30 1906 C 182.904 4.05788 -1.24645 0
M  V30 1907 C 180.811 4.78209 -3.47952 0
M  V30 1908 H 179.741 0.68877 -0.306777 0
M  V30 1909 H 182.392 1.27448 -1.3202 0
M  V30 1910 H 180.774 3.8628 -0.871996 0
M  V30 1911 H 181.948 2.91456 -3.56918 0
M  V30 1912 H 180.263 2.75436 -3.12289 0
M  V30 1913 H 182.86 5.09535 -1.62107 0
M  V30 1914 H 183.203 4.15878 -0.187357 0
M  V30 1915 H 183.736 3.55915 -1.77678 0
M  V30 1916 H 180.475 4.73311 -4.53495 0
M  V30 1917 H 179.995 5.24924 -2.90198 0
M  V30 1918 H 181.674 5.47133 -3.45332 0
M  V30 1919 N 181.806 0.884767 1.30421 0
M  V30 1920 C 182.736 0.367574 2.30589 0
M  V30 1921 C 183.717 -0.549464 1.60981 0
M  V30 1922 O 184.902 -0.46336 1.88591 0
M  V30 1923 C 182.032 -0.418944 3.44764 0
M  V30 1924 C 180.986 0.406316 4.26067 0
M  V30 1925 C 180.312 -0.506793 5.32293 0
M  V30 1926 C 181.612 1.64832 4.95608 0
M  V30 1927 H 183.306 1.20462 2.74097 0
M  V30 1928 H 180.852 0.580695 1.31772 0
M  V30 1929 H 182.805 -0.791395 4.13902 0
M  V30 1930 H 181.529 -1.28964 3.0006 0
M  V30 1931 H 180.188 0.760903 3.58617 0
M  V30 1932 H 179.836 -1.37519 4.83836 0
M  V30 1933 H 179.536 0.0415828 5.87585 0
M  V30 1934 H 181.06 -0.875764 6.04287 0
M  V30 1935 H 182.474 1.34646 5.57264 0
M  V30 1936 H 180.871 2.13688 5.60765 0
M  V30 1937 H 181.941 2.39284 4.21748 0
M  V30 1938 N 183.284 -1.43765 0.645699 0
M  V30 1939 C 184.531 -2.01898 0.15604 0
M  V30 1940 C 184.859 -1.50887 -1.22733 0
M  V30 1941 O 184.114 -0.689271 -1.8316 0
M  V30 1942 C 184.413 -3.57238 0.107679 0
M  V30 1943 C 184.079 -4.27564 1.43178 0
M  V30 1944 C 182.741 -4.46492 1.7944 0
M  V30 1945 C 185.093 -4.67454 2.30513 0
M  V30 1946 C 182.421 -5.02573 3.02716 0
M  V30 1947 C 184.773 -5.24901 3.53074 0
M  V30 1948 C 183.437 -5.42046 3.89541 0
M  V30 1949 H 182.707 -0.738797 0.057099 0
M  V30 1950 H 185.354 -1.72341 0.834912 0
M  V30 1951 H 183.659 -3.86293 -0.654618 0
M  V30 1952 H 185.356 -3.99965 -0.287938 0
M  V30 1953 H 181.946 -4.13171 1.13963 0
M  V30 1954 H 186.13 -4.5253 2.0379 0
M  V30 1955 H 181.386 -5.14033 3.31028 0
M  V30 1956 H 185.56 -5.54758 4.20971 0
M  V30 1957 H 183.187 -5.85268 4.85145 0
M  V30 1958 N 184.763 -0.387143 -1.52771 0
M  V30 1959 C 186.01 0.195735 -2.01552 0
M  V30 1960 C 186.338 1.46995 -1.27369 0
M  V30 1961 O 185.593 1.92325 -0.361879 0
M  V30 1962 C 185.892 0.512209 -3.53711 0
M  V30 1963 C 185.558 -0.670202 -4.45891 0
M  V30 1964 C 184.22 -0.994586 -4.70809 0
M  V30 1965 C 186.572 -1.46134 -5.00294 0
M  V30 1966 C 183.9 -2.11169 -5.4738 0
M  V30 1967 C 186.252 -2.56903 -5.78086 0
M  V30 1968 C 184.916 -2.89852 -6.01284 0
M  V30 1969 H 184.186 0.0716246 -0.73753 0
M  V30 1970 H 186.833 -0.524046 -1.8419 0
M  V30 1971 H 185.138 1.31329 -3.69134 0
M  V30 1972 H 186.835 0.975804 -3.88946 0
M  V30 1973 H 183.425 -0.407366 -4.2666 0
M  V30 1974 H 187.609 -1.22397 -4.80971 0
M  V30 1975 H 182.865 -2.3707 -5.63567 0
M  V30 1976 H 187.039 -3.18608 -6.19243 0
M  V30 1977 H 184.666 -3.76533 -6.60399 0
M  V30 1978 N 186.241 1.57166 -0.116904 0
M  V30 1979 C 187.487 1.95412 0.542405 0
M  V30 1980 C 187.82 1.00019 1.66463 0
M  V30 1981 O 187.095 0.0370346 1.94465 0
M  V30 1982 C 187.378 3.43615 1.07708 0
M  V30 1983 C 187.231 4.49781 -0.0415868 0
M  V30 1984 C 188.55 3.93616 1.96861 0
M  V30 1985 H 185.669 0.710543 0.195696 0
M  V30 1986 H 188.311 1.89027 -0.192038 0
M  V30 1987 H 186.461 3.49187 1.70296 0
M  V30 1988 H 188.133 4.56308 -0.676793 0
M  V30 1989 H 186.376 4.28033 -0.705019 0
M  V30 1990 H 187.047 5.50733 0.373717 0
M  V30 1991 H 189.523 3.90335 1.44146 0
M  V30 1992 H 188.399 4.97838 2.3119 0
M  V30 1993 H 188.66 3.34188 2.89432 0
M  V30 1994 N 187.719 -0.156864 1.56817 0
M  V30 1995 C 188.649 -1.19589 2.00551 0
M  V30 1996 C 189.63 -1.4536 0.883426 0
M  V30 1997 O 190.815 -1.56449 1.15054 0
M  V30 1998 C 187.945 -2.53143 2.37773 0
M  V30 1999 C 186.899 -2.41913 3.53075 0
M  V30 2000 C 186.225 -3.80088 3.76081 0
M  V30 2001 C 187.525 -1.91157 4.86062 0
M  V30 2002 H 189.219 -0.832293 2.87599 0
M  V30 2003 H 186.765 -0.398918 1.38364 0
M  V30 2004 H 188.718 -3.26047 2.66967 0
M  V30 2005 H 187.442 -2.91319 1.4765 0
M  V30 2006 H 186.101 -1.71462 3.24031 0
M  V30 2007 H 185.749 -4.15683 2.83225 0
M  V30 2008 H 185.449 -3.73439 4.53671 0
M  V30 2009 H 186.973 -4.54556 4.0769 0
M  V30 2010 H 188.387 -2.53846 5.14038 0
M  V30 2011 H 186.784 -1.95422 5.67389 0
M  V30 2012 H 187.854 -0.866673 4.77092 0
M  V30 2013 N 189.197 -1.51736 -0.425897 0
M  V30 2014 C 190.427 -1.68549 -1.19476 0
M  V30 2015 C 190.835 -0.387288 -1.85194 0
M  V30 2016 O 190.178 0.645142 -1.71999 0
M  V30 2017 C 190.24 -2.75275 -2.31223 0
M  V30 2018 C 189.904 -4.17534 -1.8578 0
M  V30 2019 C 190.901 -5.01936 -1.35485 0
M  V30 2020 C 188.586 -4.6369 -1.93123 0
M  V30 2021 C 190.58 -6.30559 -0.931347 0
M  V30 2022 C 188.267 -5.92307 -1.50384 0
M  V30 2023 C 189.265 -6.75569 -1.00473 0
M  V30 2024 O 188.953 -8.0178 -0.583452 0
M  V30 2025 H 188.685 -0.568525 -0.365725 0
M  V30 2026 H 191.239 -1.98982 -0.509444 0
M  V30 2027 H 189.469 -2.40182 -3.03067 0
M  V30 2028 H 191.158 -2.80853 -2.93047 0
M  V30 2029 H 191.924 -4.67475 -1.29197 0
M  V30 2030 H 187.803 -3.98997 -2.30916 0
M  V30 2031 H 191.347 -6.95498 -0.541084 0
M  V30 2032 H 187.244 -6.2628 -1.56346 0
M  V30 2033 H 188.012 -8.1543 -0.708275 0
M  V30 2034 N 190.675 0.682077 -1.42076 0
M  V30 2035 C 191.952 1.43755 -1.32642 0
M  V30 2036 C 192.332 2.11063 0.0396611 0
M  V30 2037 O 191.68 2.02701 1.05474 0
M  V30 2038 C 191.89 2.44596 -2.48946 0
M  V30 2039 C 193.238 3.09454 -2.9073 0
M  V30 2040 O 194.262 2.54922 -2.48783 0
M  V30 2041 O 193.121 4.08253 -3.63307 0
M  V30 2042 H 190.215 0.640857 -0.522715 0
M  V30 2043 H 192.761 0.711415 -1.54068 0
M  V30 2044 H 191.533 1.93609 -3.40046 0
M  V30 2045 H 191.156 3.24701 -2.29467 0
M  V30 2046 N 192.153 1.28127 0.917671 0
M  V30 2047 C 193.4 1.15052 1.66641 0
M  V30 2048 C 193.728 -0.301677 1.92146 0
M  V30 2049 O 192.983 -1.23622 1.51711 0
M  V30 2050 C 193.282 1.89018 3.03327 0
M  V30 2051 C 192.948 3.38832 2.97496 0
M  V30 2052 C 191.61 3.79693 2.95613 0
M  V30 2053 C 193.962 4.34378 2.88036 0
M  V30 2054 C 191.29 5.14447 2.82066 0
M  V30 2055 C 193.642 5.69201 2.7603 0
M  V30 2056 C 192.306 6.09343 2.72502 0
M  V30 2057 H 191.576 0.421006 0.609783 0
M  V30 2058 H 194.223 1.58855 1.06945 0
M  V30 2059 H 192.528 1.37752 3.66785 0
M  V30 2060 H 194.225 1.76321 3.60156 0
M  V30 2061 H 190.815 3.06342 2.99754 0
M  V30 2062 H 194.999 4.03775 2.88581 0
M  V30 2063 H 190.255 5.44681 2.77728 0
M  V30 2064 H 194.429 6.42901 2.67678 0
M  V30 2065 H 192.056 7.13712 2.61762 0
M  V30 2066 N 193.631 -1.12557 1.10312 0
M  V30 2067 C 194.871 -1.8568 0.854543 0
M  V30 2068 C 195.235 -1.82091 -0.608843 0
M  V30 2069 O 196.436 -2.50544 -0.973717 0
M  V30 2070 C 194.707 -3.2942 1.38626 0
M  V30 2071 S 196.266 -4.19931 1.27293 0
M  V30 2072 H 193.084 -0.640427 0.308827 0
M  V30 2073 H 195.686 -1.35599 1.40831 0
M  V30 2074 H 194.39 -3.2959 2.44537 0
M  V30 2075 H 193.921 -3.84566 0.82902 0
M  V30 2076 H 195.936 -4.95668 0.229776 0
M  V30 2077 N 195.109 -0.891671 -1.2995 0
M  V30 2078 C 196.358 -0.509521 -1.95158 0
M  V30 2079 C 196.671 0.947388 -1.71125 0
M  V30 2080 O 197.877 1.43669 -2.30372 0
M  V30 2081 C 196.333 -0.860315 -3.49466 0
M  V30 2082 C 195.941 -2.33545 -3.8231 0
M  V30 2083 C 197.685 -0.547687 -4.20952 0
M  V30 2084 C 195.592 -2.62752 -5.29826 0
M  V30 2085 H 194.522 -0.18682 -0.730489 0
M  V30 2086 H 197.173 -1.08756 -1.47798 0
M  V30 2087 H 195.555 -0.211285 -3.95436 0
M  V30 2088 H 196.729 -3.02936 -3.47227 0
M  V30 2089 H 195.044 -2.61629 -3.23944 0
M  V30 2090 H 197.641 -0.742854 -5.29515 0
M  V30 2091 H 197.984 0.51332 -4.13123 0
M  V30 2092 H 198.517 -1.1542 -3.80688 0
M  V30 2093 H 195.256 -3.6762 -5.42712 0
M  V30 2094 H 194.776 -1.97977 -5.66185 0
M  V30 2095 H 196.455 -2.48601 -5.97333 0
M  V30 2096 N 196.587 1.43421 -0.653314 0
M  V30 2097 C 197.833 2.02111 -0.166992 0
M  V30 2098 C 198.166 1.51423 1.21592 0
M  V30 2099 O 197.441 0.707389 1.8118 0
M  V30 2100 C 197.724 3.5966 -0.177948 0
M  V30 2101 C 197.577 4.20579 -1.59478 0
M  V30 2102 C 198.896 4.37413 0.4856 0
M  V30 2103 H 196.015 0.734374 -0.0621557 0
M  V30 2104 H 198.657 1.70717 -0.834016 0
M  V30 2105 H 196.807 3.86537 0.390032 0
M  V30 2106 H 198.479 4.04732 -2.21336 0
M  V30 2107 H 196.722 3.77226 -2.14204 0
M  V30 2108 H 197.393 5.29665 -1.5543 0
M  V30 2109 H 199.869 4.161 0.00234528 0
M  V30 2110 H 198.745 5.47075 0.447207 0
M  V30 2111 H 199.006 4.13672 1.55974 0
M  V30 2112 N 198.065 0.39524 1.52563 0
M  V30 2113 C 199.305 -0.184744 2.03563 0
M  V30 2114 C 199.669 -1.43548 1.27507 0
M  V30 2115 O 200.87 -2.093 1.68662 0
M  V30 2116 C 199.141 -0.440294 3.54678 0
M  V30 2117 S 200.7 -0.989712 4.27493 0
M  V30 2118 H 197.518 -0.0515075 0.709132 0
M  V30 2119 H 200.12 0.544957 1.87751 0
M  V30 2120 H 198.824 0.477005 4.07618 0
M  V30 2121 H 198.355 -1.19825 3.74707 0
M  V30 2122 H 200.37 -2.27155 4.41152 0
M  V30 2123 N 199.544 -1.57102 0.125237 0
M  V30 2124 C 200.793 -1.94582 -0.531095 0
M  V30 2125 C 201.106 -1.01126 -1.6743 0
M  V30 2126 O 202.312 -1.28097 -2.39381 0
M  V30 2127 C 200.768 -3.45839 -0.996164 0
M  V30 2128 C 200.376 -4.47842 0.118926 0
M  V30 2129 C 202.12 -3.92227 -1.62352 0
M  V30 2130 C 200.027 -5.90284 -0.363192 0
M  V30 2131 H 198.957 -0.726391 -0.20217 0
M  V30 2132 H 201.608 -1.82339 0.206092 0
M  V30 2133 H 199.99 -3.53338 -1.78796 0
M  V30 2134 H 201.164 -4.52018 0.895358 0
M  V30 2135 H 199.479 -4.11243 0.653324 0
M  V30 2136 H 202.076 -4.96069 -1.99548 0
M  V30 2137 H 202.419 -3.32552 -2.50429 0
M  V30 2138 H 202.952 -3.87554 -0.897019 0
M  V30 2139 H 199.691 -6.53728 0.481679 0
M  V30 2140 H 199.211 -5.89515 -1.10597 0
M  V30 2141 H 200.89 -6.41752 -0.822377 0
M  V30 2142 N 201.022 0.148545 -1.56898 0
M  V30 2143 C 202.25 0.876389 -1.87422 0
M  V30 2144 C 202.665 1.74809 -0.713256 0
M  V30 2145 O 202.022 1.79725 0.317025 0
M  V30 2146 C 202.073 1.73438 -3.17178 0
M  V30 2147 O 201.794 0.897809 -4.28802 0
M  V30 2148 C 203.295 2.56993 -3.61205 0
M  V30 2149 H 200.515 0.253489 -0.621277 0
M  V30 2150 H 203.059 0.141798 -2.04008 0
M  V30 2151 H 201.214 2.42205 -3.0235 0
M  V30 2152 H 201.628 1.48672 -5.02988 0
M  V30 2153 H 203.102 3.12773 -4.54838 0
M  V30 2154 H 203.579 3.32958 -2.86419 0
M  V30 2155 H 204.185 1.9352 -3.78722 0
M  V30 2156 N 202.5 1.5196 0.417844 0
M  V30 2157 C 203.728 1.69426 1.18753 0
M  V30 2158 C 204.143 0.399955 1.84515 0
M  V30 2159 O 203.5 -0.623288 1.71527 0
M  V30 2160 C 203.551 2.82375 2.25714 0
M  V30 2161 O 203.272 4.06793 1.62638 0
M  V30 2162 C 204.773 3.11277 3.15628 0
M  V30 2163 H 201.993 0.568031 0.357186 0
M  V30 2164 H 204.537 1.98475 0.49273 0
M  V30 2165 H 202.692 2.5587 2.90877 0
M  V30 2166 H 203.106 4.69667 2.3348 0
M  V30 2167 H 204.58 3.93843 3.86771 0
M  V30 2168 H 205.057 2.24473 3.77503 0
M  V30 2169 H 205.663 3.39515 2.56144 0
M  V30 2170 N 203.978 -0.674533 1.42435 0
M  V30 2171 C 205.208 -1.46071 1.46105 0
M  V30 2172 C 205.616 -1.89067 0.0709605 0
M  V30 2173 O 204.959 -1.58731 -0.924677 0
M  V30 2174 C 205.021 -2.74145 2.32561 0
M  V30 2175 C 204.685 -2.53224 3.8043 0
M  V30 2176 C 205.682 -2.17809 4.72075 0
M  V30 2177 C 203.367 -2.6821 4.24698 0
M  V30 2178 C 205.361 -1.97648 6.05982 0
M  V30 2179 C 203.048 -2.47665 5.58664 0
M  V30 2180 C 204.046 -2.12437 6.49122 0
M  V30 2181 O 203.734 -1.9209 7.80613 0
M  V30 2182 H 203.466 -0.455959 0.499076 0
M  V30 2183 H 206.02 -0.836193 1.87609 0
M  V30 2184 H 204.25 -3.3908 1.85908 0
M  V30 2185 H 205.939 -3.36028 2.27683 0
M  V30 2186 H 206.705 -2.05826 4.39159 0
M  V30 2187 H 202.584 -2.94609 3.54579 0
M  V30 2188 H 206.128 -1.70075 6.7655 0
M  V30 2189 H 202.025 -2.59244 5.91154 0
M  V30 2190 H 202.793 -2.06686 7.91974 0
M  V30 2191 N 205.456 -1.28612 -0.910864 0
M  V30 2192 C 206.419 -1.12803 -1.9952 0
M  V30 2193 C 207.419 -0.0668264 -1.60661 0
M  V30 2194 O 208.609 -0.312847 -1.71368 0
M  V30 2195 C 205.741 -0.72254 -3.33155 0
M  V30 2196 H 206.934 -2.09109 -2.14973 0
M  V30 2197 H 204.487 -1.11639 -1.09391 0
M  V30 2198 H 205.222 0.241152 -3.23402 0
M  V30 2199 H 205.007 -1.48916 -3.62721 0
M  V30 2200 H 206.497 -0.634666 -4.12749 0
M  V30 2201 N 206.934 1.1197 -1.10907 0
M  V30 2202 C 208.183 1.82947 -0.849302 0
M  V30 2203 C 208.496 1.85275 0.627112 0
M  V30 2204 O 209.702 2.52296 1.00295 0
M  V30 2205 C 208.158 3.28529 -1.46959 0
M  V30 2206 C 207.766 3.34546 -2.97965 0
M  V30 2207 C 209.51 4.04443 -1.28942 0
M  V30 2208 C 207.417 4.74491 -3.53004 0
M  V30 2209 H 206.347 0.685477 -0.314065 0
M  V30 2210 H 208.998 1.2604 -1.33365 0
M  V30 2211 H 207.38 3.85333 -0.912917 0
M  V30 2212 H 208.554 2.87654 -3.59989 0
M  V30 2213 H 206.869 2.72108 -3.15192 0
M  V30 2214 H 209.466 5.07787 -1.67502 0
M  V30 2215 H 209.809 4.15656 -0.231456 0
M  V30 2216 H 210.342 3.5401 -1.81443 0
M  V30 2217 H 207.081 4.68474 -4.58489 0
M  V30 2218 H 206.601 5.21816 -2.9575 0
M  V30 2219 H 208.28 5.4344 -3.51115 0
M  V30 2220 N 208.412 0.89855 1.29475 0
M  V30 2221 C 209.36 0.365253 2.29714 0
M  V30 2222 C 210.354 -0.534993 1.6073 0
M  V30 2223 O 211.56 -0.417921 1.75081 0
M  V30 2224 H 207.935 0.0994853 0.74539 0
M  V30 2225 H 209.906 1.22406 2.72138 0
M  V30 2226 C 208.655 -0.393159 3.4547 0
M  V30 2227 H 207.978 0.290332 3.98744 0
M  V30 2228 H 209.418 -0.731189 4.17648 0
M  V30 2229 C 207.877 -1.59539 2.9673 0
M  V30 2230 O 208.407 -2.69469 2.97908 0
M  V30 2231 N 206.613 -1.43716 2.52575 0
M  V30 2232 H 206.16 -0.542828 2.51816 0
M  V30 2233 H 206.118 -2.24288 2.20323 0
M  V30 2234 N 209.89 -1.43072 0.660911 0
M  V30 2235 C 211.136 -2.0202 0.177708 0
M  V30 2236 C 211.469 -1.52066 -1.20787 0
M  V30 2237 O 210.744 -0.716987 -1.80802 0
M  V30 2238 C 211.027 -3.59561 0.197019 0
M  V30 2239 C 210.88 -4.19727 1.61706 0
M  V30 2240 C 212.199 -4.37664 -0.462396 0
M  V30 2241 H 209.318 -0.734034 0.0660494 0
M  V30 2242 H 211.96 -1.70272 0.843058 0
M  V30 2243 H 210.11 -3.86739 -0.369527 0
M  V30 2244 H 211.782 -4.03553 2.23479 0
M  V30 2245 H 210.025 -3.76084 2.16201 0
M  V30 2246 H 210.696 -5.28834 1.58237 0
M  V30 2247 H 213.172 -4.16095 0.0197215 0
M  V30 2248 H 212.048 -5.47305 -0.418188 0
M  V30 2249 H 212.309 -4.14493 -1.53778 0
M  V30 2250 N 211.368 -0.403325 -1.52352 0
M  V30 2251 C 212.593 0.176499 -2.06648 0
M  V30 2252 C 213.018 1.38577 -1.27193 0
M  V30 2253 O 212.376 1.7879 -0.300637 0
M  V30 2254 C 212.424 0.511061 -3.5696 0
M  V30 2255 O 211.528 1.60294 -3.79973 0
M  V30 2256 H 210.869 0.0167337 -0.663789 0
M  V30 2257 H 213.399 -0.574848 -1.96359 0
M  V30 2258 H 213.409 0.771362 -4.00642 0
M  V30 2259 H 212.084 -0.37296 -4.14224 0
M  V30 2260 H 210.661 1.33526 -3.48174 0
M  V30 2261 N 212.846 1.57033 -0.133567 0
M  V30 2262 C 213.776 2.1909 0.807567 0
M  V30 2263 C 214.757 1.13517 1.26681 0
M  V30 2264 O 215.942 1.41809 1.32679 0
M  V30 2265 C 213.072 2.80188 2.05212 0
M  V30 2266 C 212.026 3.91471 1.73015 0
M  V30 2267 C 211.352 4.39443 3.04622 0
M  V30 2268 C 212.652 5.12886 0.987168 0
M  V30 2269 H 214.346 2.97988 0.290403 0
M  V30 2270 H 211.892 1.43335 0.138239 0
M  V30 2271 H 213.845 3.22264 2.71521 0
M  V30 2272 H 212.569 1.98601 2.59278 0
M  V30 2273 H 211.228 3.49993 1.0909 0
M  V30 2274 H 210.876 3.54695 3.56651 0
M  V30 2275 H 210.576 5.14495 2.83847 0
M  V30 2276 H 212.1 4.8418 3.72024 0
M  V30 2277 H 213.514 5.51891 1.55208 0
M  V30 2278 H 211.911 5.93615 0.87985 0
M  V30 2279 H 212.981 4.84894 -0.0235286 0
M  V30 2280 N 214.325 -0.140222 1.56975 0
M  V30 2281 C 215.258 -1.20266 1.93936 0
M  V30 2282 C 216.236 -1.41212 0.806099 0
M  V30 2283 O 217.42 -1.55713 1.06234 0
M  V30 2284 C 214.547 -2.56037 2.21726 0
M  V30 2285 C 213.593 -2.51646 3.44349 0
M  V30 2286 S 214.426 -1.97678 4.97678 0
M  V30 2287 C 215.582 -3.35165 5.28597 0
M  V30 2288 H 215.815 -0.887358 2.83749 0
M  V30 2289 H 213.348 -0.346119 1.50471 0
M  V30 2290 H 215.306 -3.34167 2.38416 0
M  V30 2291 H 213.967 -2.84755 1.32566 0
M  V30 2292 H 213.16 -3.51608 3.61092 0
M  V30 2293 H 212.762 -1.81628 3.26936 0
M  V30 2294 H 215.054 -4.31302 5.2248 0
M  V30 2295 H 215.997 -3.23269 6.30002 0
M  V30 2296 H 216.405 -3.32614 4.56101 0
M  V30 2297 N 215.803 -1.52179 -0.40978 0
M  V30 2298 C 217.049 -1.67408 -1.15525 0
M  V30 2299 C 217.404 -0.398746 -1.88223 0
M  V30 2300 O 216.697 0.60678 -1.81738 0
M  V30 2301 C 216.891 -2.83428 -2.17723 0
M  V30 2302 C 216.72 -4.22121 -1.55061 0
M  V30 2303 C 215.49 -4.87657 -1.3236 0
M  V30 2304 C 217.688 -5.04248 -1.01185 0
M  V30 2305 N 215.67 -6.10387 -0.655834 0
M  V30 2306 C 217.041 -6.18209 -0.470963 0
M  V30 2307 C 219.096 -4.89583 -0.906252 0
M  V30 2308 C 217.799 -7.1911 0.165172 0
M  V30 2309 C 219.825 -5.90718 -0.28397 0
M  V30 2310 C 219.187 -7.03969 0.246243 0
M  V30 2311 H 215.286 -0.666251 -0.409431 0
M  V30 2312 H 217.87 -1.89482 -0.447729 0
M  V30 2313 H 216.041 -2.6297 -2.85834 0
M  V30 2314 H 217.773 -2.87697 -2.84627 0
M  V30 2315 H 214.528 -4.46007 -1.59294 0
M  V30 2316 H 214.952 -6.76153 -0.338596 0
M  V30 2317 H 219.594 -4.02253 -1.302 0
M  V30 2318 H 217.312 -8.06066 0.572986 0
M  V30 2319 H 220.898 -5.81443 -0.203792 0
M  V30 2320 H 219.778 -7.80886 0.720173 0
M  V30 2321 N 217.281 0.66697 -1.42791 0
M  V30 2322 C 218.211 1.79218 -1.49677 0
M  V30 2323 C 219.192 1.66405 -0.352623 0
M  V30 2324 O 220.377 1.85708 -0.567993 0
M  V30 2325 C 217.507 3.17565 -1.40605 0
M  V30 2326 C 216.461 3.45124 -2.53127 0
M  V30 2327 C 215.787 4.83127 -2.29112 0
M  V30 2328 C 217.087 3.41236 -3.95418 0
M  V30 2329 H 218.781 1.73713 -2.43853 0
M  V30 2330 H 216.327 0.83432 -1.17367 0
M  V30 2331 H 218.28 3.96022 -1.44029 0
M  V30 2332 H 217.004 3.23767 -0.429271 0
M  V30 2333 H 215.663 2.69031 -2.49034 0
M  V30 2334 H 215.311 4.85988 -1.29709 0
M  V30 2335 H 215.011 5.02528 -3.04531 0
M  V30 2336 H 216.535 5.63859 -2.34297 0
M  V30 2337 H 217.949 4.09651 -4.01073 0
M  V30 2338 H 216.346 3.72173 -4.70752 0
M  V30 2339 H 217.416 2.39665 -4.21532 0
M  V30 2340 N 218.759 1.29093 0.90403 0
M  V30 2341 C 219.984 1.19809 1.69294 0
M  V30 2342 C 220.409 -0.238481 1.86582 0
M  V30 2343 O 219.767 -1.1723 1.383 0
M  V30 2344 C 219.815 1.91202 3.05736 0
M  V30 2345 O 218.919 1.22611 3.93752 0
M  V30 2346 H 218.26 0.415385 0.518027 0
M  V30 2347 H 220.79 1.70586 1.12967 0
M  V30 2348 H 220.8 1.99487 3.55906 0
M  V30 2349 H 219.475 2.95692 2.92471 0
M  V30 2350 H 218.052 1.22554 3.52186 0
M  V30 2351 N 220.237 -1.11381 1.11499 0
M  V30 2352 C 221.484 -1.83132 0.864231 0
M  V30 2353 C 221.812 -1.84683 -0.610114 0
M  V30 2354 O 221.067 -1.29589 -1.46646 0
M  V30 2355 C 221.366 -3.30026 1.37177 0
M  V30 2356 C 221.032 -3.48634 2.85946 0
M  V30 2357 C 219.694 -3.53421 3.26569 0
M  V30 2358 C 222.046 -3.54837 3.81759 0
M  V30 2359 C 219.374 -3.61967 4.61733 0
M  V30 2360 C 221.726 -3.64915 5.1674 0
M  V30 2361 C 220.39 -3.67962 5.5692 0
M  V30 2362 H 219.66 -0.670127 0.316245 0
M  V30 2363 H 222.307 -1.31354 1.3935 0
M  V30 2364 H 220.612 -3.84304 0.762753 0
M  V30 2365 H 222.309 -3.84034 1.15408 0
M  V30 2366 H 218.899 -3.45579 2.53521 0
M  V30 2367 H 223.083 -3.50399 3.51474 0
M  V30 2368 H 218.339 -3.62603 4.92269 0
M  V30 2369 H 222.513 -3.68658 5.90816 0
M  V30 2370 H 220.14 -3.74336 6.61647 0
M  V30 2371 N 221.715 -0.905404 -1.28997 0
M  V30 2372 C 223.131 -0.60233 -1.47798 0
M  V30 2373 C 223.331 0.854645 -1.82478 0
M  V30 2374 O 222.387 1.63439 -1.92468 0
M  V30 2375 C 223.7 -1.53306 -2.58685 0
M  V30 2376 C 225.248 -1.53887 -2.72558 0
M  V30 2377 C 225.723 -2.45602 -3.86579 0
M  V30 2378 N 227.214 -2.43681 -3.93921 0
M  V30 2379 C 227.949 -3.11347 -4.81509 0
M  V30 2380 N 227.445 -3.88313 -5.73746 0
M  V30 2381 N 229.238 -3.00476 -4.75048 0
M  V30 2382 H 221.389 -1.84765 -1.04764 0
M  V30 2383 H 223.652 -0.792025 -0.520961 0
M  V30 2384 H 223.358 -2.57141 -2.39941 0
M  V30 2385 H 223.232 -1.25787 -3.55609 0
M  V30 2386 H 225.619 -0.507941 -2.90696 0
M  V30 2387 H 225.7 -1.85447 -1.76191 0
M  V30 2388 H 225.344 -3.48792 -3.69197 0
M  V30 2389 H 225.274 -2.11349 -4.82327 0
M  V30 2390 H 227.765 -1.87767 -3.27951 0
M  V30 2391 H 228.078 -4.36985 -6.37389 0
M  V30 2392 H 226.423 -3.92419 -5.73614 0
M  V30 2393 H 229.614 -2.39858 -4.01977 0
M  V30 2394 H 229.787 -3.53485 -5.43095 0
M  V30 2395 N 223.193 1.4272 -0.668489 0
M  V30 2396 C 224.14 2.30796 0.0137489 0
M  V30 2397 C 225.11 1.4561 0.799177 0
M  V30 2398 O 226.295 1.74453 0.772702 0
M  V30 2399 C 223.435 3.31377 0.963507 0
M  V30 2400 C 222.548 4.31655 0.172569 0
M  V30 2401 C 221.683 5.19312 1.1175 0
M  V30 2402 C 220.722 6.11274 0.317886 0
M  V30 2403 N 219.859 6.91504 1.2152 0
M  V30 2404 H 224.699 2.88585 -0.743161 0
M  V30 2405 H 222.236 1.42154 -0.378226 0
M  V30 2406 H 224.194 3.88214 1.52792 0
M  V30 2407 H 222.824 2.75202 1.68712 0
M  V30 2408 H 221.876 3.76988 -0.508374 0
M  V30 2409 H 223.188 4.96779 -0.448527 0
M  V30 2410 H 222.342 5.80851 1.75206 0
M  V30 2411 H 221.081 4.5435 1.77249 0
M  V30 2412 H 220.086 5.48809 -0.329918 0
M  V30 2413 H 221.311 6.78283 -0.332917 0
M  V30 2414 H 219.257 6.29176 1.85671 0
M  V30 2415 H 219.174 7.53209 0.649036 0
M  V30 2416 H 220.442 7.57535 1.83742 0
M  V30 2417 N 224.671 0.411399 1.52136 0
M  V30 2418 C 225.917 -0.163888 2.02137 0
M  V30 2419 C 226.25 -1.44597 1.29636 0
M  V30 2420 O 225.525 -1.90272 0.403353 0
M  V30 2421 C 225.808 -0.40927 3.57767 0
M  V30 2422 C 225.661 0.889643 4.40914 0
M  V30 2423 C 226.98 -1.19042 4.23694 0
M  V30 2424 H 224.099 -0.0580896 0.734707 0
M  V30 2425 H 226.741 0.54531 1.82007 0
M  V30 2426 H 224.891 -1.0134 3.7505 0
M  V30 2427 H 226.563 1.52575 4.35337 0
M  V30 2428 H 224.806 1.50011 4.07037 0
M  V30 2429 H 225.477 0.672314 5.4789 0
M  V30 2430 H 227.953 -0.678942 4.10524 0
M  V30 2431 H 226.829 -1.33086 5.32522 0
M  V30 2432 H 227.09 -2.21166 3.82803 0
M  V30 2433 N 226.149 -1.5696 0.141893 0
M  V30 2434 C 227.081 -2.13619 -0.830627 0
M  V30 2435 C 228.094 -1.08439 -1.21428 0
M  V30 2436 O 229.283 -1.35734 -1.15925 0
M  V30 2437 C 226.383 -2.63978 -2.12529 0
M  V30 2438 C 225.556 -3.93504 -1.9098 0
M  V30 2439 C 224.615 -4.29225 -3.04388 0
M  V30 2440 O 223.641 -4.97641 -2.76302 0
M  V30 2441 N 224.843 -3.88393 -4.31429 0
M  V30 2442 H 227.608 -2.97691 -0.34641 0
M  V30 2443 H 225.169 -1.61846 -0.0418375 0
M  V30 2444 H 227.161 -2.84891 -2.87436 0
M  V30 2445 H 225.731 -1.84659 -2.52229 0
M  V30 2446 H 224.951 -3.81269 -1.00139 0
M  V30 2447 H 226.239 -4.78154 -1.73914 0
M  V30 2448 H 225.637 -3.33257 -4.57117 0
M  V30 2449 H 224.194 -4.14368 -5.03133 0
M  V30 2450 N 227.627 0.131896 -1.57047 0
M  V30 2451 C 228.537 1.1815 -2.02676 0
M  V30 2452 C 229.553 1.46113 -0.944824 0
M  V30 2453 O 230.729 1.57485 -1.25541 0
M  V30 2454 C 227.794 2.49139 -2.41103 0
M  V30 2455 C 226.855 2.28688 -3.63318 0
M  V30 2456 C 226.088 3.53431 -3.99903 0
M  V30 2457 O 226.311 4.60223 -3.36973 0
M  V30 2458 O 225.245 3.45198 -4.93074 0
M  V30 2459 H 229.071 0.824069 -2.92306 0
M  V30 2460 H 226.656 0.341745 -1.45439 0
M  V30 2461 H 228.538 3.26338 -2.66611 0
M  V30 2462 H 227.213 2.84382 -1.54624 0
M  V30 2463 H 226.12 1.4939 -3.42977 0
M  V30 2464 H 227.453 1.98355 -4.50462 0
M  V30 2465 N 229.106 1.52395 0.401703 0
M  V30 2466 C 230.517 1.58899 0.980202 0
M  V30 2467 C 230.868 0.434032 1.91339 0
M  V30 2468 O 229.993 -0.444619 2.11783 0
M  V30 2469 C 230.588 2.87994 1.78451 0
M  V30 2470 C 229.147 2.96953 2.31292 0
M  V30 2471 C 228.294 2.53903 1.11483 0
M  V30 2472 H 231.245 1.57657 0.18168 0
M  V30 2473 H 231.266 2.73765 2.64259 0
M  V30 2474 H 230.778 3.72035 1.10506 0
M  V30 2475 H 228.879 2.17422 3.02586 0
M  V30 2476 H 228.992 4.01344 2.61649 0
M  V30 2477 H 227.356 2.07925 1.47104 0
M  V30 2478 H 228.139 3.40326 0.450928 0
M  V30 2479 N 230.584 -0.659388 1.43143 0
M  V30 2480 C 231.516 -1.7849 1.43784 0
M  V30 2481 C 232.529 -1.5932 0.334787 0
M  V30 2482 O 233.718 -1.68155 0.598842 0
M  V30 2483 C 230.818 -3.15828 1.22906 0
M  V30 2484 C 229.991 -3.61711 2.45934 0
M  V30 2485 C 229.05 -4.77831 2.20371 0
M  V30 2486 O 228.076 -4.87586 2.93681 0
M  V30 2487 N 229.278 -5.67611 1.21647 0
M  V30 2488 H 232.043 -1.7842 2.40803 0
M  V30 2489 H 229.604 -0.84302 1.3822 0
M  V30 2490 H 231.596 -3.91189 1.03697 0
M  V30 2491 H 230.166 -3.10707 0.343542 0
M  V30 2492 H 229.386 -2.76861 2.80609 0
M  V30 2493 H 230.674 -3.89112 3.27825 0
M  V30 2494 H 230.072 -5.62397 0.610449 0
M  V30 2495 H 228.629 -6.42719 1.08423 0
M  V30 2496 N 232.062 -1.29571 -0.897171 0
M  V30 2497 C 233.31 -1.17456 -1.64464 0
M  V30 2498 C 233.631 0.273698 -1.9307 0
M  V30 2499 O 232.901 1.18684 -1.55855 0
M  V30 2500 H 231.481 -0.431706 -0.609622 0
M  V30 2501 H 234.143 -1.62531 -1.07562 0
M  V30 2502 H 233.239 -1.72648 -2.59998 0
M  V30 2503 N 233.54 1.10788 -1.12088 0
M  V30 2504 C 234.487 2.17025 -0.785407 0
M  V30 2505 C 235.457 1.64265 0.246191 0
M  V30 2506 O 236.642 1.90412 0.121584 0
M  V30 2507 C 233.782 3.44249 -0.242177 0
M  V30 2508 C 232.895 4.1098 -1.33115 0
M  V30 2509 C 232.03 5.25911 -0.747741 0
M  V30 2510 C 231.069 5.84538 -1.81609 0
M  V30 2511 N 230.206 6.90853 -1.25167 0
M  V30 2512 H 235.046 2.45066 -1.69548 0
M  V30 2513 H 232.583 1.20297 -0.846582 0
M  V30 2514 H 234.541 4.17101 0.0908026 0
M  V30 2515 H 233.171 3.16571 0.631072 0
M  V30 2516 H 232.223 3.36133 -1.78097 0
M  V30 2517 H 233.535 4.50601 -2.13917 0
M  V30 2518 H 232.689 6.056 -0.365216 0
M  V30 2519 H 231.428 4.87614 0.0915188 0
M  V30 2520 H 230.433 5.03522 -2.20785 0
M  V30 2521 H 231.658 6.249 -2.6585 0
M  V30 2522 H 229.604 6.54562 -0.434174 0
M  V30 2523 H 229.521 7.29166 -1.99633 0
M  V30 2524 H 230.789 7.7433 -0.896259 0
M  V30 2525 N 235.018 0.912232 1.28515 0
M  V30 2526 C 235.981 0.404223 2.25607 0
M  V30 2527 C 236.981 -0.468602 1.53821 0
M  V30 2528 O 238.171 -0.271873 1.72065 0
M  V30 2529 C 235.303 -0.420653 3.38295 0
M  V30 2530 H 236.496 1.26188 2.7206 0
M  V30 2531 H 234.049 0.691495 1.40171 0
M  V30 2532 H 234.784 -1.29777 2.97201 0
M  V30 2533 H 234.569 0.204935 3.91564 0
M  V30 2534 H 236.059 -0.766971 4.10496 0
M  V30 2535 N 236.496 -1.42363 0.676048 0
M  V30 2536 C 237.443 -2.308 -0.00150904 0
M  V30 2537 C 238.413 -1.46032 -0.791444 0
M  V30 2538 O 239.598 -1.74861 -0.76344 0
M  V30 2539 C 236.738 -3.31883 -0.945919 0
M  V30 2540 C 235.851 -4.31741 -0.149675 0
M  V30 2541 C 234.986 -5.19898 -1.08995 0
M  V30 2542 C 234.025 -6.11434 -0.285465 0
M  V30 2543 N 233.162 -6.92138 -1.17851 0
M  V30 2544 H 238.002 -2.88187 0.758455 0
M  V30 2545 H 235.539 -1.41952 0.38576 0
M  V30 2546 H 237.497 -3.89019 -1.50731 0
M  V30 2547 H 236.127 -2.76093 -1.6725 0
M  V30 2548 H 235.179 -3.76713 0.528359 0
M  V30 2549 H 236.491 -4.96534 0.474866 0
M  V30 2550 H 235.645 -5.81772 -1.72123 0
M  V30 2551 H 234.384 -4.55284 -1.74837 0
M  V30 2552 H 233.389 -5.48627 0.359018 0
M  V30 2553 H 234.614 -6.78097 0.368883 0
M  V30 2554 H 232.56 -6.30152 -1.82332 0
M  V30 2555 H 232.477 -7.53542 -0.609082 0
M  V30 2556 H 233.745 -7.58499 -1.79722 0
M  V30 2557 N 237.974 -0.419461 -1.51915 0
M  V30 2558 C 239.39 -0.0708431 -1.59443 0
M  V30 2559 C 239.59 1.41796 -1.43164 0
M  V30 2560 O 238.646 2.18596 -1.26381 0
M  V30 2561 C 239.959 -0.574991 -2.95151 0
M  V30 2562 C 241.507 -0.533867 -3.08413 0
M  V30 2563 C 241.982 -1.01469 -4.46618 0
M  V30 2564 N 243.473 -0.971939 -4.52888 0
M  V30 2565 C 244.208 -1.31505 -5.58116 0
M  V30 2566 N 243.704 -1.73014 -6.70849 0
M  V30 2567 N 245.497 -1.23436 -5.48379 0
M  V30 2568 H 237.648 -1.38836 -1.60743 0
M  V30 2569 H 239.911 -0.570998 -0.756747 0
M  V30 2570 H 239.617 -1.61597 -3.12377 0
M  V30 2571 H 239.491 0.00979777 -3.77199 0
M  V30 2572 H 241.878 0.498086 -2.90866 0
M  V30 2573 H 241.959 -1.15484 -2.28248 0
M  V30 2574 H 241.603 -2.04502 -4.6491 0
M  V30 2575 H 241.533 -0.370433 -5.25295 0
M  V30 2576 H 244.024 -0.666893 -3.71969 0
M  V30 2577 H 244.337 -1.97479 -7.47143 0
M  V30 2578 H 242.682 -1.76926 -6.72103 0
M  V30 2579 H 245.873 -0.908869 -4.59192 0
M  V30 2580 H 246.046 -1.50506 -6.30279 0
M  V30 2581 N 239.452 1.56882 -0.150215 0
M  V30 2582 C 240.402 2.13501 0.800071 0
M  V30 2583 C 241.386 1.06368 1.20726 0
M  V30 2584 O 242.578 1.32538 1.17314 0
M  V30 2585 C 239.707 2.76271 2.03787 0
M  V30 2586 C 238.793 3.90533 1.65364 0
M  V30 2587 N 239.184 4.96259 0.977794 0
M  V30 2588 C 237.482 4.013 1.94613 0
M  V30 2589 C 238.183 5.76286 0.791794 0
M  V30 2590 N 237.159 5.27163 1.32666 0
M  V30 2591 H 240.961 2.92615 0.274517 0
M  V30 2592 H 238.475 1.62319 0.0512144 0
M  V30 2593 H 240.472 3.15197 2.72867 0
M  V30 2594 H 239.132 1.98631 2.56857 0
M  V30 2595 H 240.143 5.13953 0.638193 0
M  V30 2596 H 236.82 3.3474 2.4951 0
M  V30 2597 H 238.21 6.71401 0.258894 0
M  V30 2598 O 240.969 0.011717 1.61496 0
M  V30 2599 H 241.66 -0.603327 1.84064 0
M  V30 END ATOM
M  V30 BEGIN BOND
M  V30 END BOND
M  V30 END CTAB
M  END
$$$$
