drugbank_target|Q9BQB4 Sclerostin (DB11866)
 OpenBabel12092121193D

  0  0  0     0  0            999 V3000
M  V30 BEGIN CTAB
M  V30 COUNTS 3368 3411 0 0 0
M  V30 BEGIN ATOM
M  V30 1 H -0.908 1.98254 -0.117106 0
M  V30 2 N 0 1.576 0 0
M  V30 3 C 0.933 2.03868 1.02534 0
M  V30 4 C 1.911 0.928543 1.3348 0
M  V30 5 O 3.095 1.19667 1.45644 0
M  V30 6 C 0.222 2.43627 2.35294 0
M  V30 7 C -0.732 3.65373 2.2001 0
M  V30 8 S 0.101 5.13292 1.52614 0
M  V30 9 C 1.257 5.56322 2.86805 0
M  V30 10 H 1.49 2.90518 0.631377 0
M  V30 11 H -0.977 1.52953 0.210867 0
M  V30 12 H 0.981 2.67203 3.11629 0
M  V30 13 H -0.358 1.57376 2.7183 0
M  V30 14 H -1.165 3.90944 3.18086 0
M  V30 15 H -1.563 3.418 1.51819 0
M  V30 16 H 0.729 5.58782 3.83104 0
M  V30 17 H 1.672 6.56266 2.65933 0
M  V30 18 H 2.08 4.83886 2.90714 0
M  V30 19 N 1.4781 -0.272755 1.55222 0
M  V30 20 C 2.4101 -1.35946 1.8453 0
M  V30 21 C 3.4231 -1.45525 0.729818 0
M  V30 22 O 4.6121 -1.47337 1.00767 0
M  V30 23 C 1.7121 -2.74069 1.99347 0
M  V30 24 C 0.8851 -2.87079 3.30007 0
M  V30 25 C -0.0559 -4.05879 3.34886 0
M  V30 26 O -1.0299 -3.96626 4.08261 0
M  V30 27 N 0.1721 -5.17857 2.62307 0
M  V30 28 H 2.9371 -1.11149 2.78327 0
M  V30 29 H 0.4981 -0.462869 1.55142 0
M  V30 30 H 2.4901 -3.51838 1.99981 0
M  V30 31 H 1.0601 -2.91688 1.12415 0
M  V30 32 H 0.2801 -1.96193 3.41909 0
M  V30 33 H 1.5681 -2.92701 4.16177 0
M  V30 34 H 0.9661 -5.28261 2.02377 0
M  V30 35 H -0.4769 -5.93855 2.68663 0
M  V30 36 N 2.9562 -1.48159 -0.537278 0
M  V30 37 C 3.8862 -1.65029 -1.6519 0
M  V30 38 C 4.8672 -0.499281 -1.62607 0
M  V30 39 O 6.0522 -0.730972 -1.79918 0
M  V30 40 C 3.1822 -1.68303 -3.03795 0
M  V30 41 C 2.1362 -2.8283 -3.21234 0
M  V30 42 C 1.4622 -2.71189 -4.60826 0
M  V30 43 C 2.7622 -4.24211 -3.04701 0
M  V30 44 H 4.4562 -2.58341 -1.51328 0
M  V30 45 H 2.0022 -1.24325 -0.726585 0
M  V30 46 H 3.9552 -1.78693 -3.81637 0
M  V30 47 H 2.6792 -0.715635 -3.18663 0
M  V30 48 H 1.3382 -2.71983 -2.45807 0
M  V30 49 H 0.9862 -1.72435 -4.7252 0
M  V30 50 H 0.6862 -3.48035 -4.7344 0
M  V30 51 H 2.2102 -2.83537 -5.40777 0
M  V30 52 H 3.6242 -4.3593 -3.72341 0
M  V30 53 H 2.0212 -5.01998 -3.28813 0
M  V30 54 H 3.0912 -4.41184 -2.01209 0
M  V30 55 N 4.4343 0.785586 -1.36625 0
M  V30 56 C 5.8453 1.36101 -1.27803 0
M  V30 57 C 6.1963 1.96035 0.0804875 0
M  V30 58 O 5.3213 1.92834 0.982042 0
M  V30 59 C 5.9163 2.47442 -2.31426 0
M  V30 60 C 4.4753 3.00789 -2.26281 0
M  V30 61 C 3.6223 1.73896 -2.15999 0
M  V30 62 H 6.5733 0.586928 -1.47448 0
M  V30 63 H 6.5943 3.2656 -1.95291 0
M  V30 64 H 6.1063 2.03791 -3.30289 0
M  V30 65 H 4.2073 3.48851 -1.30896 0
M  V30 66 H 4.3203 3.57343 -3.19128 0
M  V30 67 H 2.6843 1.9628 -1.62316 0
M  V30 68 H 3.4673 1.32368 -3.16755 0
M  V30 69 N 5.9124 1.20967 1.01018 0
M  V30 70 C 6.8424 0.988272 2.11555 0
M  V30 71 C 7.8234 -0.0849778 1.69888 0
M  V30 72 O 9.0084 0.0738202 1.9406 0
M  V30 73 C 6.1384 0.546528 3.42973 0
M  V30 74 C 5.0924 1.56375 3.9841 0
M  V30 75 C 4.4184 0.97842 5.25672 0
M  V30 76 C 5.7184 2.94922 4.31066 0
M  V30 77 H 7.4124 1.91276 2.30334 0
M  V30 78 H 4.9584 0.921073 1.1069 0
M  V30 79 H 6.9114 0.378839 4.19694 0
M  V30 80 H 5.6354 -0.413598 3.23971 0
M  V30 81 H 4.2944 1.71891 3.23804 0
M  V30 82 H 3.9424 0.0101688 5.02999 0
M  V30 83 H 3.6424 1.65784 5.63728 0
M  V30 84 H 5.1664 0.821939 6.05043 0
M  V30 85 H 6.5804 2.8288 4.9865 0
M  V30 86 H 4.9774 3.5983 4.80253 0
M  V30 87 H 6.0474 3.4616 3.39561 0
M  V30 88 N 7.3905 -1.2043 1.01659 0
M  V30 89 C 8.3535 -2.21433 0.591616 0
M  V30 90 C 9.3535 -1.57203 -0.338226 0
M  V30 91 O 10.5435 -1.73737 -0.126918 0
M  V30 92 C 7.6755 -3.40628 -0.136058 0
M  V30 93 H 8.8685 -2.60545 1.48514 0
M  V30 94 H 6.4215 -1.33893 0.806379 0
M  V30 95 H 7.1565 -3.07019 -1.04449 0
M  V30 96 H 6.9415 -3.88475 0.531917 0
M  V30 97 H 8.4315 -4.15475 -0.420735 0
M  V30 98 N 8.8686 -0.792821 -1.36206 0
M  V30 99 C 9.7986 -0.207853 -2.32573 0
M  V30 100 C 10.7796 0.659055 -1.56813 0
M  V30 101 O 11.9646 0.592176 -1.84951 0
M  V30 102 C 9.0946 0.655449 -3.41059 0
M  V30 103 C 8.0486 -0.111842 -4.27854 0
M  V30 104 C 7.3746 0.872274 -5.27537 0
M  V30 105 C 8.6746 -1.30299 -5.05786 0
M  V30 106 H 10.3686 -1.01294 -2.81744 0
M  V30 107 H 7.9146 -0.48854 -1.3546 0
M  V30 108 H 9.8676 1.07464 -4.07467 0
M  V30 109 H 8.5916 1.49328 -2.90463 0
M  V30 110 H 7.2506 -0.512053 -3.63006 0
M  V30 111 H 6.8986 1.70523 -4.73214 0
M  V30 112 H 6.5986 0.363291 -5.86476 0
M  V30 113 H 8.1226 1.28996 -5.96818 0
M  V30 114 H 9.5366 -0.959379 -5.65216 0
M  V30 115 H 7.9336 -1.7455 -5.74154 0
M  V30 116 H 9.0036 -2.09663 -4.37229 0
M  V30 117 N 10.3467 1.47872 -0.545128 0
M  V30 118 C 11.5867 2.04391 -0.0187854 0
M  V30 119 C 11.9507 1.41162 1.30144 0
M  V30 120 O 13.1517 1.88656 1.91474 0
M  V30 121 C 11.4227 3.57299 0.0850867 0
M  V30 122 S 12.9817 4.35221 0.559302 0
M  V30 123 H 9.7997 0.710737 -0.0193301 0
M  V30 124 H 12.4017 1.81395 -0.729125 0
M  V30 125 H 11.1057 4.00847 -0.880351 0
M  V30 126 H 10.6367 3.84773 0.819348 0
M  V30 127 H 12.6517 4.61571 1.82118 0
M  V30 128 N 11.8248 0.280983 1.55075 0
M  V30 129 C 12.7548 -0.597469 2.25727 0
M  V30 130 C 13.7358 -1.15417 1.24952 0
M  V30 131 O 14.9208 -1.18722 1.53684 0
M  V30 132 C 12.0508 -1.7789 2.98283 0
M  V30 133 C 11.0048 -1.35347 4.06036 0
M  V30 134 C 10.3308 -2.61846 4.66198 0
M  V30 135 C 11.6308 -0.499354 5.19907 0
M  V30 136 H 13.3248 -0.00824265 2.99399 0
M  V30 137 H 10.8708 -0.0025244 1.44 0
M  V30 138 H 12.8238 -2.39937 3.46422 0
M  V30 139 H 11.5478 -2.39405 2.22155 0
M  V30 140 H 10.2068 -0.756156 3.58717 0
M  V30 141 H 9.8548 -3.21632 3.86732 0
M  V30 142 H 9.5548 -2.3409 5.38958 0
M  V30 143 H 11.0788 -3.24732 5.1709 0
M  V30 144 H 12.4928 -1.02498 5.64063 0
M  V30 145 H 10.8898 -0.316424 5.99265 0
M  V30 146 H 11.9598 0.480459 4.82514 0
M  V30 147 N 13.3029 -1.57598 0.00835791 0
M  V30 148 C 14.5489 -1.91211 -0.675732 0
M  V30 149 C 14.8819 -0.883139 -1.72958 0
M  V30 150 O 14.1569 0.097016 -1.94258 0
M  V30 151 C 14.4399 -3.35379 -1.31123 0
M  V30 152 C 14.2929 -4.48999 -0.268356 0
M  V30 153 C 15.6119 -3.7912 -2.23508 0
M  V30 154 H 12.7309 -0.695374 -0.244179 0
M  V30 155 H 15.3729 -1.89901 0.0613655 0
M  V30 156 H 13.5229 -3.36626 -1.93946 0
M  V30 157 H 15.1949 -4.59887 0.360844 0
M  V30 158 H 13.4379 -4.31873 0.408482 0
M  V30 159 H 14.1089 -5.46851 -0.752218 0
M  V30 160 H 16.5849 -3.79477 -1.70693 0
M  V30 161 H 15.4609 -4.80729 -2.64936 0
M  V30 162 H 15.7219 -3.13455 -3.11766 0
M  V30 163 N 14.781 0.264519 -1.55364 0
M  V30 164 C 16.021 1.00254 -1.78125 0
M  V30 165 C 16.385 1.83187 -0.575017 0
M  V30 166 O 17.586 2.60029 -0.681042 0
M  V30 167 C 15.857 1.85478 -3.05504 0
M  V30 168 S 17.416 2.6543 -3.49417 0
M  V30 169 H 14.234 0.337522 -0.625779 0
M  V30 170 H 16.836 0.272111 -1.93597 0
M  V30 171 H 15.54 1.23491 -3.9138 0
M  V30 172 H 15.071 2.62827 -2.92721 0
M  V30 173 H 17.086 3.87958 -3.09359 0
M  V30 174 N 16.2591 1.48442 0.529413 0
M  V30 175 C 17.1891 1.65902 1.64313 0
M  V30 176 C 18.1701 0.507897 1.6234 0
M  V30 177 O 19.3551 0.740503 1.79528 0
M  V30 178 C 16.4851 1.69911 3.02898 0
M  V30 179 C 15.4391 2.8453 3.19729 0
M  V30 180 C 14.7651 2.73629 4.59381 0
M  V30 181 C 16.0651 4.25821 3.02447 0
M  V30 182 H 17.7591 2.5914 1.49955 0
M  V30 183 H 15.3051 1.24709 0.719982 0
M  V30 184 H 17.2581 1.80715 3.80684 0
M  V30 185 H 15.9821 0.732524 3.18279 0
M  V30 186 H 14.6411 2.73283 2.44361 0
M  V30 187 H 14.2891 1.74938 4.71599 0
M  V30 188 H 13.9891 3.50541 4.71588 0
M  V30 189 H 15.5131 2.86401 5.39265 0
M  V30 190 H 16.9271 4.37898 3.70024 0
M  V30 191 H 15.3241 5.03735 3.26146 0
M  V30 192 H 16.3941 4.42244 1.98867 0
M  V30 193 N 17.7372 -0.778329 1.37039 0
M  V30 194 C 18.6672 -1.90546 1.34962 0
M  V30 195 C 19.6482 -1.68681 0.219274 0
M  V30 196 O 20.8332 -1.89634 0.418624 0
M  V30 197 C 17.9632 -3.27734 1.14925 0
M  V30 198 C 16.9172 -3.64147 2.24902 0
M  V30 199 C 16.2432 -4.99806 1.89996 0
M  V30 200 C 17.5432 -3.71579 3.67051 0
M  V30 201 H 19.2372 -1.92541 2.29277 0
M  V30 202 H 16.7832 -0.924948 1.10366 0
M  V30 203 H 18.7362 -4.06215 1.12104 0
M  V30 204 H 17.4602 -3.26154 0.170631 0
M  V30 205 H 16.1192 -2.8797 2.26868 0
M  V30 206 H 15.7672 -4.94759 0.906796 0
M  V30 207 H 15.4672 -5.25139 2.63634 0
M  V30 208 H 16.9912 -5.80694 1.88749 0
M  V30 209 H 18.4052 -4.40227 3.67251 0
M  V30 210 H 16.8022 -4.08405 4.39688 0
M  V30 211 H 17.8722 -2.72404 4.01154 0
M  V30 212 N 19.2153 -1.21501 -1.00376 0
M  V30 213 C 20.4613 -1.03452 -1.74429 0
M  V30 214 C 20.7943 0.430764 -1.89362 0
M  V30 215 O 20.0693 1.31962 -1.42886 0
M  V30 216 C 20.3523 -1.73375 -3.15615 0
M  V30 217 C 20.2053 -3.27431 -3.08397 0
M  V30 218 C 21.5243 -1.47732 -4.14564 0
M  V30 219 H 18.6433 -0.377226 -0.633143 0
M  V30 220 H 21.2853 -1.49693 -1.17013 0
M  V30 221 H 19.4353 -1.34064 -3.64636 0
M  V30 222 H 21.1073 -3.76119 -2.67081 0
M  V30 223 H 19.3503 -3.5767 -2.45468 0
M  V30 224 H 20.0213 -3.71524 -4.08258 0
M  V30 225 H 22.4973 -1.8186 -3.74254 0
M  V30 226 H 21.3733 -1.99169 -5.11491 0
M  V30 227 H 21.6343 -0.407589 -4.40217 0
M  V30 228 N 20.6934 1.19889 -1.02296 0
M  V30 229 C 21.6434 2.20777 -0.56934 0
M  V30 230 C 22.6274 1.56379 0.378741 0
M  V30 231 O 23.8194 1.75859 0.200673 0
M  V30 232 C 20.9484 3.43196 0.0845077 0
M  V30 233 C 20.0344 4.14749 -0.88566 0
M  V30 234 N 20.4254 4.62584 -2.04573 0
M  V30 235 C 18.7234 4.40347 -0.707835 0
M  V30 236 C 19.4244 5.17466 -2.65714 0
M  V30 237 N 18.4004 5.0791 -1.93723 0
M  V30 238 H 22.2024 2.55434 -1.45365 0
M  V30 239 H 19.7164 1.35897 -0.88915 0
M  V30 240 H 21.7134 4.14707 0.427067 0
M  V30 241 H 20.3734 3.10042 0.964574 0
M  V30 242 H 21.3844 4.57597 -2.4254 0
M  V30 243 H 18.0614 4.17317 0.12364 0
M  V30 244 H 19.4514 5.64808 -3.63925 0
M  V30 245 N 22.1715 0.800033 1.35784 0
M  V30 246 C 23.3995 0.389606 2.03199 0
M  V30 247 C 23.8145 -0.997375 1.60306 0
M  V30 248 O 23.1715 -1.64154 0.797481 0
M  V30 249 C 23.2225 0.455855 3.58614 0
M  V30 250 O 22.9435 1.78815 3.99946 0
M  V30 251 C 24.4445 0.0374032 4.43284 0
M  V30 252 H 21.6645 0.159132 0.651857 0
M  V30 253 H 24.2085 1.08183 1.73541 0
M  V30 254 H 22.3635 -0.188057 3.86943 0
M  V30 255 H 22.7775 1.74636 4.94573 0
M  V30 256 H 24.2515 0.134882 5.51835 0
M  V30 257 H 24.7285 -1.01651 4.27275 0
M  V30 258 H 25.3345 0.654215 4.20238 0
M  V30 259 N 23.6496 -1.47581 0.552962 0
M  V30 260 C 24.6126 -2.28439 -0.186605 0
M  V30 261 C 25.6126 -1.36706 -0.84665 0
M  V30 262 O 26.8026 -1.59378 -0.703164 0
M  V30 263 C 23.9346 -3.16264 -1.2724 0
M  V30 264 H 25.1276 -2.95294 0.523609 0
M  V30 265 H 22.6806 -1.532 0.309745 0
M  V30 266 H 23.4156 -2.54091 -2.01514 0
M  V30 267 H 23.2006 -3.83769 -0.803968 0
M  V30 268 H 24.6906 -3.77198 -1.79196 0
M  V30 269 N 25.1277 -0.289203 -1.54924 0
M  V30 270 C 26.3747 0.323519 -1.99899 0
M  V30 271 C 26.7027 1.54797 -1.17762 0
M  V30 272 O 25.9577 1.94237 -0.238835 0
M  V30 273 C 26.2567 0.736119 -3.49737 0
M  V30 274 C 25.9227 -0.385276 -4.49251 0
M  V30 275 C 24.5847 -0.693156 -4.76181 0
M  V30 276 C 26.9367 -1.14021 -5.08575 0
M  V30 277 C 24.2647 -1.7593 -5.59701 0
M  V30 278 C 26.6167 -2.19619 -5.93254 0
M  V30 279 C 25.2807 -2.51026 -6.185 0
M  V30 280 H 24.5507 0.118384 -0.731482 0
M  V30 281 H 27.1977 -0.405847 -1.8715 0
M  V30 282 H 25.5027 1.54539 -3.60035 0
M  V30 283 H 27.1997 1.22118 -3.81953 0
M  V30 284 H 23.7897 -0.135202 -4.28387 0
M  V30 285 H 27.9737 -0.915611 -4.87781 0
M  V30 286 H 23.2297 -2.0075 -5.77503 0
M  V30 287 H 27.4037 -2.78581 -6.38252 0
M  V30 288 H 25.0307 -3.33772 -6.83008 0
M  V30 289 N 26.6058 1.57591 -0.0167156 0
M  V30 290 C 28.0218 1.55946 0.339557 0
M  V30 291 C 28.2218 1.02109 1.73713 0
M  V30 292 O 27.2778 0.662303 2.43659 0
M  V30 293 C 28.5908 3.00037 0.199499 0
M  V30 294 C 30.1388 3.11805 0.273193 0
M  V30 295 C 30.6138 4.57713 0.162068 0
M  V30 296 N 32.1048 4.6268 0.219444 0
M  V30 297 C 32.8398 5.73185 0.157054 0
M  V30 298 N 32.3358 6.92786 0.0442936 0
M  V30 299 N 34.1288 5.61707 0.21014 0
M  V30 300 H 26.2798 1.90921 -0.930758 0
M  V30 301 H 28.5428 0.877674 -0.358319 0
M  V30 302 H 28.2488 3.4333 -0.76273 0
M  V30 303 H 28.1228 3.64387 0.974786 0
M  V30 304 H 30.5098 2.68433 1.22587 0
M  V30 305 H 30.5908 2.50201 -0.532256 0
M  V30 306 H 30.2348 5.01763 -0.78714 0
M  V30 307 H 30.1648 5.17283 0.986222 0
M  V30 308 H 32.6558 3.76649 0.307246 0
M  V30 309 H 32.9688 7.728 0.00304069 0
M  V30 310 H 31.3138 6.94999 0.00968457 0
M  V30 311 H 34.5048 4.6716 0.296546 0
M  V30 312 H 34.6778 6.47807 0.158054 0
M  V30 313 N 28.0839 -0.256276 1.55502 0
M  V30 314 C 29.3299 -0.987079 1.77157 0
M  V30 315 C 29.6629 -1.85327 0.580315 0
M  V30 316 O 28.9379 -1.89874 -0.421686 0
M  V30 317 C 29.2209 -1.85553 3.08613 0
M  V30 318 C 29.0739 -1.01816 4.38125 0
M  V30 319 C 30.3929 -2.8397 3.36228 0
M  V30 320 H 27.5119 -0.357428 0.644526 0
M  V30 321 H 30.1539 -0.258239 1.88237 0
M  V30 322 H 28.3039 -2.47695 2.99298 0
M  V30 323 H 29.9759 -0.416159 4.59419 0
M  V30 324 H 28.2189 -0.322178 4.32602 0
M  V30 325 H 28.8899 -1.65939 5.26468 0
M  V30 326 H 31.3659 -2.31964 3.45445 0
M  V30 327 H 30.2419 -3.41864 4.29442 0
M  V30 328 H 30.5029 -3.59955 2.56681 0
M  V30 329 N 29.562 -1.4872 -0.521534 0
M  V30 330 C 30.808 -1.574 -1.27879 0
M  V30 331 C 31.141 -0.250817 -1.92573 0
M  V30 332 O 30.416 0.743934 -1.79711 0
M  V30 333 C 30.699 -2.71843 -2.36164 0
M  V30 334 C 30.552 -4.13893 -1.76105 0
M  V30 335 C 31.871 -2.82008 -3.37875 0
M  V30 336 H 28.99 -0.572941 -0.463581 0
M  V30 337 H 31.632 -1.80927 -0.580119 0
M  V30 338 H 29.782 -2.51914 -2.95756 0
M  V30 339 H 31.454 -4.45284 -1.20499 0
M  V30 340 H 29.697 -4.20498 -1.06601 0
M  V30 341 H 30.368 -4.89804 -2.5455 0
M  V30 342 H 32.844 -3.00086 -2.88249 0
M  V30 343 H 31.72 -3.63796 -4.11028 0
M  V30 344 H 31.981 -1.90511 -3.98946 0
M  V30 345 N 31.0401 0.771051 -1.3745 0
M  V30 346 C 31.9501 1.91538 -1.35464 0
M  V30 347 C 32.9661 1.72134 -0.254123 0
M  V30 348 O 34.1421 1.95358 -0.489626 0
M  V30 349 C 31.2071 3.26671 -1.16134 0
M  V30 350 C 30.2681 3.58723 -2.35831 0
M  V30 351 C 29.5011 4.87409 -2.17413 0
M  V30 352 O 29.7241 5.58506 -1.15876 0
M  V30 353 O 28.6581 5.18539 -3.05615 0
M  V30 354 H 32.4841 1.96165 -2.31847 0
M  V30 355 H 30.0691 0.9139 -1.18187 0
M  V30 356 H 31.9511 4.07499 -1.07345 0
M  V30 357 H 30.6261 3.22894 -0.228251 0
M  V30 358 H 29.5331 2.78127 -2.50192 0
M  V30 359 H 30.8661 3.67243 -3.27709 0
M  V30 360 N 32.5182 1.22032 0.997298 0
M  V30 361 C 33.7662 1.04016 1.73278 0
M  V30 362 C 34.0872 -0.426255 1.90284 0
M  V30 363 O 33.3572 -1.30694 1.45931 0
M  V30 364 H 31.9372 0.381897 0.642 0
M  V30 365 H 34.5992 1.5347 1.20137 0
M  V30 366 H 33.6952 1.51441 2.72896 0
M  V30 367 N 33.9963 -1.19345 1.0293 0
M  V30 368 C 34.9283 -2.22036 0.56857 0
M  V30 369 C 35.9413 -1.58865 -0.355779 0
M  V30 370 O 37.1303 -1.77851 -0.152103 0
M  V30 371 C 34.2303 -3.38363 -0.190752 0
M  V30 372 C 33.4033 -4.31118 0.738643 0
M  V30 373 C 32.4623 -5.26194 0.0246497 0
M  V30 374 O 31.4883 -5.65461 0.651354 0
M  V30 375 N 32.6903 -5.66971 -1.24594 0
M  V30 376 H 35.4553 -2.6219 1.45177 0
M  V30 377 H 33.0163 -1.34015 0.908381 0
M  V30 378 H 35.0083 -3.98981 -0.677961 0
M  V30 379 H 33.5783 -2.96994 -0.975366 0
M  V30 380 H 32.7983 -3.68276 1.40593 0
M  V30 381 H 34.0863 -4.90001 1.37029 0
M  V30 382 H 33.4843 -5.37104 -1.77583 0
M  V30 383 H 32.0413 -6.2984 -1.67764 0
M  V30 384 N 35.4744 -0.807222 -1.35358 0
M  V30 385 C 36.7224 -0.387122 -1.98358 0
M  V30 386 C 37.0434 1.04942 -1.64354 0
M  V30 387 O 36.3134 1.72615 -0.926339 0
M  V30 388 H 34.8934 -0.140154 -0.733734 0
M  V30 389 H 37.5554 -1.0332 -1.6526 0
M  V30 390 H 36.6514 -0.493352 -3.08176 0
M  V30 391 N 36.9525 1.47285 -0.560781 0
M  V30 392 C 38.1985 2.03347 -0.0463654 0
M  V30 393 C 38.5535 1.42702 1.2905 0
M  V30 394 O 37.8465 0.574619 1.8278 0
M  V30 395 C 38.0405 3.57258 0.100784 0
M  V30 396 C 37.8695 4.32827 -1.22027 0
M  V30 397 C 36.6395 4.72588 -1.78854 0
M  V30 398 C 38.8375 4.67739 -2.13834 0
M  V30 399 N 36.8195 5.32816 -3.04927 0
M  V30 400 C 38.1905 5.28307 -3.24487 0
M  V30 401 C 40.2455 4.49667 -2.13784 0
M  V30 402 C 38.9485 5.72711 -4.35194 0
M  V30 403 C 40.9745 4.95073 -3.23506 0
M  V30 404 C 40.3365 5.55693 -4.32879 0
M  V30 405 H 36.4355 0.779755 -0.0592166 0
M  V30 406 H 39.0195 1.79723 -0.748857 0
M  V30 407 H 37.1905 3.80642 0.772404 0
M  V30 408 H 38.9225 3.9996 0.617589 0
M  V30 409 H 35.6775 4.54656 -1.32609 0
M  V30 410 H 36.1015 5.67471 -3.69197 0
M  V30 411 H 40.7435 4.02154 -1.30507 0
M  V30 412 H 38.4615 6.19214 -5.1923 0
M  V30 413 H 42.0475 4.82859 -3.24559 0
M  V30 414 H 40.9275 5.90188 -5.1638 0
M  V30 415 N 38.4306 0.297415 1.54768 0
M  V30 416 C 39.3626 -0.613881 2.20826 0
M  V30 417 C 40.3756 -1.10032 1.19987 0
M  V30 418 O 41.5646 -1.01839 1.46598 0
M  V30 419 C 38.6646 -1.852 2.83821 0
M  V30 420 C 37.8376 -1.50865 4.10559 0
M  V30 421 C 36.8966 -2.60154 4.57391 0
M  V30 422 O 35.9226 -2.25398 5.2267 0
M  V30 423 N 37.1246 -3.90629 4.29406 0
M  V30 424 H 39.8896 -0.048389 2.99661 0
M  V30 425 H 37.4506 0.11946 1.61459 0
M  V30 426 H 39.4426 -2.57652 3.12086 0
M  V30 427 H 38.0126 -2.32597 2.08847 0
M  V30 428 H 37.2326 -0.616925 3.89343 0
M  V30 429 H 38.5206 -1.25458 4.9309 0
M  V30 430 H 37.9186 -4.21677 3.77101 0
M  V30 431 H 36.4756 -4.59391 4.62388 0
M  V30 432 N 39.9087 -1.5758 0.0250728 0
M  V30 433 C 40.8717 -2.08896 -0.943139 0
M  V30 434 C 41.8717 -1.00321 -1.25668 0
M  V30 435 O 43.0617 -1.26495 -1.19769 0
M  V30 436 C 40.1937 -2.55143 -2.26086 0
M  V30 437 H 41.3867 -2.95723 -0.498775 0
M  V30 438 H 38.9397 -1.54703 -0.222888 0
M  V30 439 H 39.6747 -1.71633 -2.75159 0
M  V30 440 H 39.4597 -3.34461 -2.04641 0
M  V30 441 H 40.9497 -2.95083 -2.95492 0
M  V30 442 N 41.3868 0.248026 -1.55636 0
M  V30 443 C 42.6338 0.976224 -1.77415 0
M  V30 444 C 42.9618 1.85361 -0.589193 0
M  V30 445 O 42.2168 1.90973 0.427529 0
M  V30 446 C 42.5158 1.86819 -3.04686 0
M  V30 447 C 42.1818 1.14625 -4.36087 0
M  V30 448 C 40.8438 0.946723 -4.71795 0
M  V30 449 C 43.1958 0.634463 -5.17324 0
M  V30 450 C 40.5238 0.223091 -5.86276 0
M  V30 451 C 42.8758 -0.0756959 -6.32555 0
M  V30 452 C 41.5398 -0.286711 -6.66884 0
M  V30 453 H 40.8098 0.357226 -0.649208 0
M  V30 454 H 43.4568 0.246415 -1.89908 0
M  V30 455 H 41.7618 2.66502 -2.872 0
M  V30 456 H 43.4588 2.43329 -3.18735 0
M  V30 457 H 40.0488 1.3117 -4.08035 0
M  V30 458 H 44.2328 0.77616 -4.90193 0
M  V30 459 H 39.4888 0.0491185 -6.1138 0
M  V30 460 H 43.6628 -0.479899 -6.94745 0
M  V30 461 H 41.2898 -0.849389 -7.5544 0
M  V30 462 N 42.8649 1.48995 0.513639 0
M  V30 463 C 43.8119 1.6473 1.61656 0
M  V30 464 C 44.7819 0.488984 1.58739 0
M  V30 465 O 45.9669 0.714478 1.76918 0
M  V30 466 C 43.1069 1.7082 2.99858 0
M  V30 467 C 42.2199 2.9787 3.12885 0
M  V30 468 C 41.3549 2.95017 4.41744 0
M  V30 469 C 40.3939 4.16702 4.48359 0
M  V30 470 N 39.5309 4.11832 5.68629 0
M  V30 471 H 44.3709 2.58909 1.47547 0
M  V30 472 H 41.9079 1.28382 0.71808 0
M  V30 473 H 43.8659 1.72331 3.79944 0
M  V30 474 H 42.4959 0.801181 3.12699 0
M  V30 475 H 41.5479 3.06029 2.25944 0
M  V30 476 H 42.8599 3.8786 3.13633 0
M  V30 477 H 42.0139 2.95021 5.30139 0
M  V30 478 H 40.7529 2.02784 4.43542 0
M  V30 479 H 39.7579 4.16955 3.58369 0
M  V30 480 H 40.9829 5.10113 4.48287 0
M  V30 481 H 38.9289 3.22428 5.71293 0
M  V30 482 H 38.8459 4.95543 5.7094 0
M  V30 483 H 40.1139 4.1592 6.59266 0
M  V30 484 N 44.343 -0.763751 1.37857 0
M  V30 485 C 45.291 -1.89864 1.34367 0
M  V30 486 C 46.285 -1.67816 0.231143 0
M  V30 487 O 47.491 -1.75508 0.399617 0
M  V30 488 H 43.866 -0.624501 0.41893 0
M  V30 489 H 45.837 -1.89925 2.30155 0
M  V30 490 C 44.586 -3.27227 1.1755 0
M  V30 491 H 43.909 -3.44773 2.02414 0
M  V30 492 H 45.349 -4.06911 1.1916 0
M  V30 493 C 43.808 -3.36692 -0.118311 0
M  V30 494 O 44.338 -3.86374 -1.09902 0
M  V30 495 N 42.544 -2.90092 -0.171717 0
M  V30 496 H 42.091 -2.49853 0.627012 0
M  V30 497 H 42.049 -2.96806 -1.03699 0
M  V30 498 N 45.8211 -1.22559 -0.990812 0
M  V30 499 C 47.0981 -0.959875 -1.70428 0
M  V30 500 C 47.4781 0.524455 -2.04481 0
M  V30 501 O 46.8261 1.49302 -1.72977 0
M  V30 502 C 47.0361 -1.85955 -2.95333 0
M  V30 503 C 48.3841 -2.11687 -3.68068 0
M  V30 504 O 49.4081 -1.8342 -3.05345 0
M  V30 505 O 48.2671 -2.59572 -4.80921 0
M  V30 506 H 45.3611 -0.361154 -0.743974 0
M  V30 507 H 47.9071 -1.33554 -1.04697 0
M  V30 508 H 46.6791 -2.86346 -2.66687 0
M  V30 509 H 46.3021 -1.4856 -3.68803 0
M  V30 510 N 47.2992 1.18797 -1.03562 0
M  V30 511 C 48.2622 2.20464 -0.626769 0
M  V30 512 C 49.2622 1.57721 0.313173 0
M  V30 513 O 50.4522 1.73917 0.0992615 0
M  V30 514 C 47.5842 3.40802 0.0818498 0
M  V30 515 H 48.7772 2.58149 -1.5264 0
M  V30 516 H 46.3302 1.32593 -0.827578 0
M  V30 517 H 47.0652 3.08642 0.995518 0
M  V30 518 H 46.8502 3.8758 -0.593652 0
M  V30 519 H 48.3402 4.16092 0.354584 0
M  V30 520 N 48.7773 0.814389 1.34928 0
M  V30 521 C 50.0053 0.411136 2.02774 0
M  V30 522 C 50.4203 -0.980316 1.61354 0
M  V30 523 O 49.7773 -1.63299 0.814847 0
M  V30 524 C 49.8283 0.493865 3.58111 0
M  V30 525 O 49.5493 1.83047 3.98027 0
M  V30 526 C 51.0503 0.0844174 4.4322 0
M  V30 527 H 48.2703 0.166037 0.650133 0
M  V30 528 H 50.8143 1.10018 1.72384 0
M  V30 529 H 48.9693 -0.147006 3.87121 0
M  V30 530 H 49.3833 1.79872 4.92693 0
M  V30 531 H 50.8573 0.193404 5.51661 0
M  V30 532 H 51.3343 -0.97113 4.28329 0
M  V30 533 H 51.9403 0.69875 4.19521 0
M  V30 534 N 50.2554 -1.46986 0.568584 0
M  V30 535 C 51.1654 -2.33942 -0.17555 0
M  V30 536 C 52.1814 -1.48891 -0.90041 0
M  V30 537 O 53.3574 -1.81794 -0.86676 0
M  V30 538 C 50.4224 -3.25811 -1.18524 0
M  V30 539 C 49.4834 -4.26757 -0.466582 0
M  V30 540 C 48.7164 -5.14236 -1.42817 0
M  V30 541 O 48.9394 -5.04379 -2.66379 0
M  V30 542 O 47.8734 -5.94412 -0.946453 0
M  V30 543 H 51.6994 -2.98896 0.538036 0
M  V30 544 H 49.2844 -1.4573 0.329097 0
M  V30 545 H 51.1664 -3.82527 -1.76779 0
M  V30 546 H 49.8414 -2.63471 -1.88055 0
M  V30 547 H 48.7484 -3.73769 0.157451 0
M  V30 548 H 50.0814 -4.91843 0.187485 0
M  V30 549 N 51.7335 -0.305618 -1.54608 0
M  V30 550 C 52.9825 0.303098 -1.9941 0
M  V30 551 C 53.2955 1.54648 -1.19764 0
M  V30 552 O 54.5015 2.23007 -1.54855 0
M  V30 553 C 52.9575 0.590588 -3.55021 0
M  V30 554 C 52.5655 -0.634719 -4.43481 0
M  V30 555 C 54.3095 1.16025 -4.08336 0
M  V30 556 C 52.2165 -0.320126 -5.90533 0
M  V30 557 H 51.1465 0.117031 -0.744862 0
M  V30 558 H 53.7975 -0.415045 -1.78745 0
M  V30 559 H 52.1795 1.36845 -3.71604 0
M  V30 560 H 53.3535 -1.41079 -4.38672 0
M  V30 561 H 51.6685 -1.12333 -4.00962 0
M  V30 562 H 54.2655 1.40994 -5.15776 0
M  V30 563 H 54.6085 2.10397 -3.5922 0
M  V30 564 H 55.1415 0.443985 -3.95315 0
M  V30 565 H 51.8805 -1.23254 -6.43808 0
M  V30 566 H 51.4005 0.418579 -5.98338 0
M  V30 567 H 53.0795 0.0766241 -6.46955 0
M  V30 568 N 53.2116 1.57565 -0.0334293 0
M  V30 569 C 54.4606 1.91155 0.643639 0
M  V30 570 C 54.7736 0.91192 1.73042 0
M  V30 571 O 55.9796 1.13923 2.46442 0
M  V30 572 C 54.4356 3.39443 1.1961 0
M  V30 573 C 54.0436 4.47774 0.142381 0
M  V30 574 C 55.7876 3.82094 1.84944 0
M  V30 575 C 53.6946 5.87162 0.706727 0
M  V30 576 H 52.6246 0.713368 0.244176 0
M  V30 577 H 55.2756 1.8323 -0.0994323 0
M  V30 578 H 53.6576 3.42313 1.99092 0
M  V30 579 H 54.8316 4.56469 -0.630296 0
M  V30 580 H 53.1466 4.14352 -0.412446 0
M  V30 581 H 55.7436 4.83591 2.2813 0
M  V30 582 H 56.0866 3.17386 2.69392 0
M  V30 583 H 56.6196 3.81665 1.12145 0
M  V30 584 H 53.3586 6.55424 -0.0997178 0
M  V30 585 H 52.8786 5.82064 1.44779 0
M  V30 586 H 54.5576 6.35866 1.19514 0
M  V30 587 N 54.6897 -0.239769 1.55765 0
M  V30 588 C 56.1007 -0.808263 1.68297 0
M  V30 589 C 56.4517 -1.85736 0.632181 0
M  V30 590 O 55.5767 -2.15277 -0.220204 0
M  V30 591 C 56.1717 -1.47284 3.05111 0
M  V30 592 C 54.7307 -1.98895 3.19559 0
M  V30 593 C 53.8777 -0.842575 2.64189 0
M  V30 594 H 56.8287 -0.0154422 1.58692 0
M  V30 595 H 56.8497 -2.34111 2.99954 0
M  V30 596 H 56.3617 -0.709053 3.81568 0
M  V30 597 H 54.4627 -2.78132 2.47938 0
M  V30 598 H 54.5757 -2.18143 4.26556 0
M  V30 599 H 52.9397 -1.24501 2.22197 0
M  V30 600 H 53.7227 -0.0917552 3.43177 0
M  V30 601 N 56.1678 -1.49265 -0.50573 0
M  V30 602 C 57.0778 -1.68312 -1.63427 0
M  V30 603 C 58.0938 -0.565682 -1.64548 0
M  V30 604 O 59.2698 -0.839801 -1.83055 0
M  V30 605 C 56.3348 -1.74107 -2.99813 0
M  V30 606 C 55.3958 -2.97653 -3.09356 0
M  V30 607 C 54.6288 -3.03163 -4.39236 0
M  V30 608 O 54.8518 -2.16396 -5.27758 0
M  V30 609 O 53.7858 -3.9558 -4.53652 0
M  V30 610 H 57.6118 -2.63907 -1.50289 0
M  V30 611 H 55.1968 -1.32951 -0.681502 0
M  V30 612 H 57.0788 -1.803 -3.80881 0
M  V30 613 H 55.7538 -0.816901 -3.13223 0
M  V30 614 H 54.6608 -2.96981 -2.27493 0
M  V30 615 H 55.9938 -3.89535 -3.00871 0
M  V30 616 N 57.6459 0.756429 -1.3826 0
M  V30 617 C 58.5759 1.88374 -1.37976 0
M  V30 618 C 59.5569 1.68311 -0.246082 0
M  V30 619 O 60.7419 1.88944 -0.44874 0
M  V30 620 C 57.8719 3.25864 -1.20125 0
M  V30 621 C 56.8259 3.60523 -2.30666 0
M  V30 622 C 56.1519 4.9672 -1.97923 0
M  V30 623 C 57.4519 3.65692 -3.72916 0
M  V30 624 H 59.1459 1.88869 -2.32312 0
M  V30 625 H 56.6919 0.907272 -1.11824 0
M  V30 626 H 58.6449 4.0438 -1.18552 0
M  V30 627 H 57.3689 3.25841 -0.222498 0
M  V30 628 H 56.0279 2.84324 -2.3142 0
M  V30 629 H 55.6759 4.93253 -0.985393 0
M  V30 630 H 55.3759 5.20878 -2.71955 0
M  V30 631 H 56.8999 5.77618 -1.97964 0
M  V30 632 H 58.3139 4.34328 -3.74208 0
M  V30 633 H 56.7109 4.01358 -4.4613 0
M  V30 634 H 57.7809 2.65987 -4.05436 0
M  V30 635 N 59.124 1.23083 0.984299 0
M  V30 636 C 60.372 1.05848 1.72165 0
M  V30 637 C 60.693 -0.406049 1.90726 0
M  V30 638 O 59.963 -1.29139 1.47309 0
M  V30 639 H 58.543 0.388685 0.637913 0
M  V30 640 H 61.205 1.54736 1.18503 0
M  V30 641 H 60.301 1.54327 2.71274 0
M  V30 642 N 60.6021 -1.18246 1.0419 0
M  V30 643 C 61.5121 -2.25574 0.644476 0
M  V30 644 C 62.5281 -1.70845 -0.329826 0
M  V30 645 O 63.7041 -2.00554 -0.184443 0
M  V30 646 C 60.7691 -3.46697 0.014877 0
M  V30 647 C 59.8301 -4.16554 1.03834 0
M  V30 648 C 59.0631 -5.31894 0.438692 0
M  V30 649 O 59.2861 -5.65385 -0.754752 0
M  V30 650 O 58.2201 -5.90459 1.168 0
M  V30 651 H 62.0461 -2.61836 1.53869 0
M  V30 652 H 59.6311 -1.25352 0.812854 0
M  V30 653 H 61.5131 -4.20062 -0.335538 0
M  V30 654 H 60.1881 -3.12255 -0.853138 0
M  V30 655 H 59.0951 -3.45251 1.44057 0
M  V30 656 H 60.4281 -4.54998 1.87716 0
M  V30 657 N 62.0802 -0.821533 -1.34494 0
M  V30 658 C 63.3102 -0.421272 -2.02259 0
M  V30 659 C 63.7182 0.977047 -1.6202 0
M  V30 660 O 63.0612 1.64348 -0.820703 0
M  V30 661 C 63.1232 -0.44231 -3.56769 0
M  V30 662 C 62.7872 -1.79372 -4.20327 0
M  V30 663 C 63.7842 -2.75435 -4.40944 0
M  V30 664 C 61.4692 -2.08182 -4.57127 0
M  V30 665 C 63.4632 -3.98482 -4.97484 0
M  V30 666 C 61.1502 -3.31489 -5.13379 0
M  V30 667 C 62.1482 -4.26457 -5.33501 0
M  V30 668 O 61.8362 -5.47585 -5.88562 0
M  V30 669 H 61.5682 -0.167473 -0.654927 0
M  V30 670 H 64.1222 -1.11073 -1.72777 0
M  V30 671 H 62.3522 0.303836 -3.85505 0
M  V30 672 H 64.0412 -0.0622925 -4.05852 0
M  V30 673 H 64.8072 -2.54473 -4.12878 0
M  V30 674 H 60.6862 -1.35066 -4.4077 0
M  V30 675 H 64.2302 -4.72618 -5.13106 0
M  V30 676 H 60.1272 -3.52316 -5.40873 0
M  V30 677 H 60.8952 -5.49086 -6.06998 0
M  V30 678 N 63.5583 1.46682 -0.576371 0
M  V30 679 C 64.9693 1.86112 -0.148091 0
M  V30 680 C 65.3203 1.48073 1.2872 0
M  V30 681 O 64.4453 0.892656 1.97131 0
M  V30 682 C 65.0403 3.37786 -0.261982 0
M  V30 683 C 63.5993 3.76235 0.111384 0
M  V30 684 C 62.7463 2.70713 -0.60083 0
M  V30 685 H 65.6973 1.37927 -0.78497 0
M  V30 686 H 65.7183 3.77007 0.514364 0
M  V30 687 H 65.2303 3.6544 -1.30671 0
M  V30 688 H 63.3313 3.54198 1.15649 0
M  V30 689 H 63.4443 4.78391 -0.26052 0
M  V30 690 H 61.8083 2.54666 -0.0417783 0
M  V30 691 H 62.5913 3.01208 -1.64708 0
M  V30 692 N 65.0364 0.313813 1.54444 0
M  V30 693 C 65.9464 -0.565714 2.27677 0
M  V30 694 C 66.9624 -1.13754 1.31666 0
M  V30 695 O 68.1384 -1.15959 1.64668 0
M  V30 696 C 65.2034 -1.71528 3.01296 0
M  V30 697 C 64.2644 -1.17624 4.12872 0
M  V30 698 C 63.4974 -2.27102 4.8297 0
M  V30 699 O 63.7204 -3.47256 4.52514 0
M  V30 700 O 62.6544 -1.9307 5.70094 0
M  V30 701 H 66.4804 0.0287296 3.03686 0
M  V30 702 H 64.0654 0.0798312 1.49187 0
M  V30 703 H 65.9474 -2.38476 3.4743 0
M  V30 704 H 64.6224 -2.29608 2.2817 0
M  V30 705 H 63.5294 -0.472124 3.71109 0
M  V30 706 H 64.8624 -0.640695 4.88012 0
M  V30 707 N 66.5145 -1.57545 0.0417849 0
M  V30 708 C 67.9255 -1.80011 -0.495259 0
M  V30 709 C 68.2765 -0.953199 -1.71489 0
M  V30 710 O 67.4015 -0.167138 -2.15754 0
M  V30 711 C 67.9965 -3.26482 -0.905265 0
M  V30 712 C 66.5555 -3.499 -1.38734 0
M  V30 713 C 65.7025 -2.74979 -0.358056 0
M  V30 714 H 68.6535 -1.56425 0.267736 0
M  V30 715 H 68.6745 -3.36887 -1.76882 0
M  V30 716 H 68.1865 -3.88096 -0.017401 0
M  V30 717 H 66.2875 -2.93553 -2.29471 0
M  V30 718 H 66.4005 -4.58615 -1.38598 0
M  V30 719 H 64.7645 -2.40834 -0.828912 0
M  V30 720 H 65.5475 -3.39315 0.521561 0
M  V30 721 N 67.9926 0.231505 -1.5589 0
M  V30 722 C 69.4036 0.799327 -1.68724 0
M  V30 723 C 69.7546 1.85398 -0.642022 0
M  V30 724 O 68.8796 2.1539 0.208784 0
M  V30 725 C 69.4746 1.45664 -3.05888 0
M  V30 726 C 68.0336 1.97197 -3.20609 0
M  V30 727 C 67.1806 0.828552 -2.64632 0
M  V30 728 H 70.1316 0.00702616 -1.58698 0
M  V30 729 H 70.1526 2.32517 -3.01191 0
M  V30 730 H 69.6646 0.688808 -3.81939 0
M  V30 731 H 67.7656 2.76813 -2.4941 0
M  V30 732 H 67.8786 2.15878 -4.27707 0
M  V30 733 H 66.2426 1.23321 -2.22854 0
M  V30 734 H 67.0256 0.0735544 -3.43221 0
M  V30 735 N 69.4707 1.49531 0.497807 0
M  V30 736 C 70.8817 1.52344 1.07927 0
M  V30 737 C 71.2327 0.311469 1.93712 0
M  V30 738 O 70.3577 -0.578405 2.08527 0
M  V30 739 C 70.9527 2.76062 1.96405 0
M  V30 740 C 69.5117 2.81643 2.49709 0
M  V30 741 C 68.6587 2.46299 1.27404 0
M  V30 742 H 71.6097 1.56182 0.281576 0
M  V30 743 H 71.6307 2.56405 2.81135 0
M  V30 744 H 71.1427 3.64254 1.33943 0
M  V30 745 H 69.2437 1.97739 3.15801 0
M  V30 746 H 69.3567 3.83891 2.86643 0
M  V30 747 H 67.7207 1.98148 1.60029 0
M  V30 748 H 68.5037 3.36769 0.66645 0
M  V30 749 N 70.9488 -0.749086 1.3866 0
M  V30 750 C 71.8588 -1.89358 1.38494 0
M  V30 751 C 72.8748 -1.71708 0.281476 0
M  V30 752 O 74.0508 -1.94554 0.520643 0
M  V30 753 C 71.1158 -3.24782 1.21316 0
M  V30 754 C 70.1768 -3.54926 2.41508 0
M  V30 755 C 69.4098 -4.83888 2.2514 0
M  V30 756 O 69.6328 -5.56592 1.24746 0
M  V30 757 O 68.5668 -5.13612 3.13826 0
M  V30 758 H 72.3928 -1.92452 2.34938 0
M  V30 759 H 69.9778 -0.894981 1.19626 0
M  V30 760 H 71.8598 -4.05739 1.13814 0
M  V30 761 H 70.5348 -3.2249 0.279592 0
M  V30 762 H 69.4418 -2.74112 2.54585 0
M  V30 763 H 70.7748 -3.61983 3.3351 0
M  V30 764 N 72.4269 -1.23603 -0.977757 0
M  V30 765 C 73.3569 -1.04401 -2.0886 0
M  V30 766 C 74.3379 0.0399052 -1.70053 0
M  V30 767 O 75.5229 -0.125246 -1.93796 0
M  V30 768 C 72.6529 -0.637269 -3.41403 0
M  V30 769 C 71.6069 -1.66883 -3.94124 0
M  V30 770 C 70.9329 -1.11745 -5.22893 0
M  V30 771 C 72.2329 -3.06247 -4.23096 0
M  V30 772 H 73.9269 -1.97316 -2.25182 0
M  V30 773 H 71.4729 -0.950096 -1.08209 0
M  V30 774 H 73.4259 -0.48998 -4.18542 0
M  V30 775 H 72.1499 0.327557 -3.24953 0
M  V30 776 H 70.8089 -1.80416 -3.19133 0
M  V30 777 H 70.4569 -0.143527 -5.02795 0
M  V30 778 H 70.1569 -1.80672 -5.59134 0
M  V30 779 H 71.6809 -0.982067 -6.02651 0
M  V30 780 H 73.0949 -2.96001 -4.90975 0
M  V30 781 H 71.4919 -3.72436 -4.70544 0
M  V30 782 H 72.5619 -3.55041 -3.30263 0
M  V30 783 N 73.905 1.17692 -1.04816 0
M  V30 784 C 74.815 2.25229 -0.65643 0
M  V30 785 C 75.831 1.71018 0.320761 0
M  V30 786 O 77.007 2.00649 0.173805 0
M  V30 787 C 74.072 3.46684 -0.0332629 0
M  V30 788 C 73.133 4.15997 -1.06042 0
M  V30 789 C 72.366 5.31654 -0.466893 0
M  V30 790 O 72.589 5.65777 0.724758 0
M  V30 791 O 71.523 5.89831 -1.1993 0
M  V30 792 H 75.349 2.61016 -1.55255 0
M  V30 793 H 72.934 1.24919 -0.81949 0
M  V30 794 H 74.816 4.20234 0.313256 0
M  V30 795 H 73.491 3.12703 0.836566 0
M  V30 796 H 72.398 3.44482 -1.45886 0
M  V30 797 H 73.731 4.53996 -1.90127 0
M  V30 798 N 75.3831 0.828654 1.34056 0
M  V30 799 C 76.3311 0.242973 2.31327 0
M  V30 800 C 77.3251 -0.61944 1.57668 0
M  V30 801 O 78.5311 -0.51014 1.7262 0
M  V30 802 H 74.9061 0.059834 0.749616 0
M  V30 803 H 76.8771 1.07809 2.78244 0
M  V30 804 C 75.6261 -0.575733 3.429 0
M  V30 805 H 74.9491 0.0785582 3.99723 0
M  V30 806 H 76.3891 -0.951547 4.13185 0
M  V30 807 C 74.8481 -1.75044 2.87856 0
M  V30 808 O 75.3781 -2.84882 2.83205 0
M  V30 809 N 73.5841 -1.56903 2.44602 0
M  V30 810 H 73.1311 -0.675547 2.48584 0
M  V30 811 H 73.0891 -2.35652 2.08124 0
M  V30 812 N 76.8612 -1.46375 0.584142 0
M  V30 813 C 77.8092 -2.32042 -0.161047 0
M  V30 814 C 78.8032 -1.44569 -0.882966 0
M  V30 815 O 80.0092 -1.61186 -0.801191 0
M  V30 816 H 76.3842 -0.748659 -0.0708033 0
M  V30 817 H 78.3552 -2.92704 0.580269 0
M  V30 818 C 77.1042 -3.27762 -1.1605 0
M  V30 819 H 76.4272 -3.95051 -0.614419 0
M  V30 820 H 77.8672 -3.90481 -1.65228 0
M  V30 821 C 76.3262 -2.53218 -2.22221 0
M  V30 822 O 76.8562 -2.29628 -3.29597 0
M  V30 823 N 75.0622 -2.13756 -1.96868 0
M  V30 824 H 74.6092 -2.33142 -1.09557 0
M  V30 825 H 74.5672 -1.642 -2.68115 0
M  V30 826 N 78.3393 -0.321999 -1.54275 0
M  V30 827 C 79.2863 0.544664 -2.24281 0
M  V30 828 C 80.2563 1.1129 -1.23303 0
M  V30 829 O 81.4413 1.15354 -1.51981 0
M  V30 830 C 78.5813 1.70045 -3.00298 0
M  V30 831 C 77.6943 1.16159 -4.1609 0
M  V30 832 C 76.8293 2.28293 -4.79641 0
M  V30 833 C 75.8683 1.71648 -5.8754 0
M  V30 834 N 75.0053 2.77438 -6.44959 0
M  V30 835 H 79.8453 -0.0588907 -2.97942 0
M  V30 836 H 77.3823 -0.0408345 -1.47043 0
M  V30 837 H 79.3403 2.38054 -3.42616 0
M  V30 838 H 77.9703 2.27531 -2.28975 0
M  V30 839 H 77.0223 0.373092 -3.78566 0
M  V30 840 H 78.3343 0.707087 -4.93763 0
M  V30 841 H 77.4883 3.0421 -5.2492 0
M  V30 842 H 76.2273 2.77079 -4.01346 0
M  V30 843 H 75.2323 0.942282 -5.41665 0
M  V30 844 H 76.4573 1.23741 -6.67731 0
M  V30 845 H 74.4033 3.25519 -5.69538 0
M  V30 846 H 74.3203 2.36547 -7.1804 0
M  V30 847 H 75.5883 3.53189 -6.94894 0
M  V30 848 N 79.8174 1.5752 -0.0501392 0
M  V30 849 C 81.0454 1.96963 0.633492 0
M  V30 850 C 81.4604 0.927631 1.6444 0
M  V30 851 O 80.8174 -0.0882665 1.82286 0
M  V30 852 C 80.8684 3.36487 1.32132 0
M  V30 853 O 80.5894 4.36693 0.350894 0
M  V30 854 C 82.0904 3.90682 2.09481 0
M  V30 855 H 79.3104 0.648244 0.173266 0
M  V30 856 H 81.8544 2.0417 -0.116134 0
M  V30 857 H 80.0094 3.30434 2.02218 0
M  V30 858 H 80.4234 5.17702 0.841735 0
M  V30 859 H 81.8974 4.90591 2.5303 0
M  V30 860 H 82.3744 3.26053 2.94255 0
M  V30 861 H 82.9804 4.00069 1.44307 0
M  V30 862 N 81.2955 -0.223234 1.56011 0
M  V30 863 C 82.2285 -1.30377 1.87289 0
M  V30 864 C 83.2065 -1.45286 0.730112 0
M  V30 865 O 84.3905 -1.61126 0.978302 0
M  V30 866 C 81.5175 -2.67431 2.07843 0
M  V30 867 C 80.5635 -2.69546 3.30526 0
M  V30 868 S 81.3965 -2.23781 4.865 0
M  V30 869 C 82.5525 -3.62714 5.10088 0
M  V30 870 H 82.7855 -1.03652 2.78646 0
M  V30 871 H 80.3185 -0.425393 1.48424 0
M  V30 872 H 82.2765 -3.46336 2.20368 0
M  V30 873 H 80.9375 -2.91381 1.17285 0
M  V30 874 H 80.1305 -3.70255 3.41947 0
M  V30 875 H 79.7325 -1.98703 3.16849 0
M  V30 876 H 82.0245 -4.58391 4.98883 0
M  V30 877 H 82.9675 -3.5621 6.11981 0
M  V30 878 H 83.3755 -3.56323 4.37829 0
M  V30 879 N 82.7736 -1.49793 -0.48987 0
M  V30 880 C 83.7216 -1.67783 -1.61095 0
M  V30 881 C 84.7156 -0.543683 -1.60438 0
M  V30 882 O 85.9216 -0.723647 -1.64813 0
M  V30 883 H 82.2966 -0.529255 -0.534222 0
M  V30 884 H 84.2676 -2.61861 -1.43078 0
M  V30 885 C 83.0166 -1.77191 -2.99164 0
M  V30 886 H 82.3396 -2.63841 -3.0038 0
M  V30 887 H 83.7796 -1.93809 -3.77113 0
M  V30 888 C 82.2386 -0.519203 -3.32875 0
M  V30 889 O 82.7686 0.350124 -4.00171 0
M  V30 890 N 80.9746 -0.378816 -2.8812 0
M  V30 891 H 80.5216 -1.08725 -2.33531 0
M  V30 892 H 80.4796 0.458239 -3.11043 0
M  V30 893 N 84.2517 0.741722 -1.39055 0
M  V30 894 C 85.6677 1.04638 -1.20512 0
M  V30 895 C 85.8677 2.01405 -0.0620218 0
M  V30 896 O 84.9237 2.45547 0.588457 0
M  V30 897 C 86.2367 1.6151 -2.53643 0
M  V30 898 C 87.7847 1.73623 -2.6043 0
M  V30 899 C 88.2597 2.33906 -3.93767 0
M  V30 900 N 89.7507 2.41323 -3.9537 0
M  V30 901 C 90.4857 2.88888 -4.95309 0
M  V30 902 N 89.9817 3.36401 -6.05645 0
M  V30 903 N 91.7747 2.88037 -4.82692 0
M  V30 904 H 83.9257 0.0998155 -2.12165 0
M  V30 905 H 86.1887 0.106907 -0.941953 0
M  V30 906 H 85.8947 0.978739 -3.37807 0
M  V30 907 H 85.7687 2.60411 -2.72885 0
M  V30 908 H 88.1557 2.36384 -1.76655 0
M  V30 909 H 88.2367 0.733945 -2.45045 0
M  V30 910 H 87.8807 1.71776 -4.7797 0
M  V30 911 H 87.8107 3.34799 -4.06469 0
M  V30 912 H 90.3017 2.07734 -3.15682 0
M  V30 913 H 90.6147 3.71186 -6.77821 0
M  V30 914 H 88.9597 3.34427 -6.09248 0
M  V30 915 H 92.1507 2.50237 -3.95599 0
M  V30 916 H 92.3237 3.24792 -5.60726 0
M  V30 917 N 85.7298 1.2412 0.971189 0
M  V30 918 C 86.6928 1.03156 2.04674 0
M  V30 919 C 87.6928 -0.00990322 1.60797 0
M  V30 920 O 88.8828 0.230729 1.72665 0
M  V30 921 C 86.0148 0.562765 3.36223 0
M  V30 922 H 87.2078 1.98614 2.24705 0
M  V30 923 H 84.7608 1.06293 1.14593 0
M  V30 924 H 85.4958 -0.395176 3.21883 0
M  V30 925 H 85.2808 1.31441 3.69413 0
M  V30 926 H 86.7708 0.437015 4.15307 0
M  V30 927 N 87.2079 -1.17134 1.05439 0
M  V30 928 C 88.1179 -2.24878 0.668365 0
M  V30 929 C 89.1339 -1.71186 -0.311687 0
M  V30 930 O 90.3099 -2.00738 -0.163161 0
M  V30 931 C 87.3749 -3.46662 0.051648 0
M  V30 932 C 86.4359 -4.15429 1.08246 0
M  V30 933 C 85.6689 -5.31399 0.495082 0
M  V30 934 O 85.8919 -5.66153 -0.694743 0
M  V30 935 O 84.8259 -5.89187 1.23056 0
M  V30 936 H 88.6519 -2.60189 1.56637 0
M  V30 937 H 86.2369 -1.24482 0.826104 0
M  V30 938 H 88.1189 -4.20394 -0.290966 0
M  V30 939 H 86.7939 -3.13142 -0.819971 0
M  V30 940 H 85.7009 -3.43704 1.47711 0
M  V30 941 H 87.0339 -4.52982 1.92532 0
M  V30 942 N 88.686 -0.835752 -1.33615 0
M  V30 943 C 89.634 -0.255238 -2.31195 0
M  V30 944 C 90.628 0.61107 -1.57995 0
M  V30 945 O 91.834 0.500979 -1.72888 0
M  V30 946 H 88.209 -0.0638085 -0.749288 0
M  V30 947 H 90.18 -1.09283 -2.77669 0
M  V30 948 C 88.929 0.55754 -3.43201 0
M  V30 949 H 88.252 -0.0997553 -3.99676 0
M  V30 950 H 89.692 0.929622 -4.13683 0
M  V30 951 C 88.151 1.73515 -2.88781 0
M  V30 952 O 88.681 2.83376 -2.84712 0
M  V30 953 N 86.887 1.55603 -2.4543 0
M  V30 954 H 86.434 0.662354 -2.48939 0
M  V30 955 H 86.392 2.34545 -2.09371 0
M  V30 956 N 90.1641 1.46063 -0.591896 0
M  V30 957 C 91.4121 2.01938 -0.0808391 0
M  V30 958 C 91.7331 1.46475 1.28725 0
M  V30 959 O 91.0031 0.652944 1.84698 0
M  V30 960 H 89.5831 0.746516 -0.0268938 0
M  V30 961 H 92.2451 1.79055 -0.769752 0
M  V30 962 H 91.3411 3.12094 -0.0187578 0
M  V30 963 N 91.6422 0.330177 1.54103 0
M  V30 964 C 92.8902 -0.269871 2.0029 0
M  V30 965 C 93.2112 -1.52133 1.21986 0
M  V30 966 O 92.4812 -1.93212 0.323438 0
M  V30 967 H 91.0612 -0.10271 0.739905 0
M  V30 968 H 93.7232 0.448249 1.89675 0
M  V30 969 H 92.8192 -0.52166 3.07709 0
M  V30 970 N 93.1203 -1.57491 0.0584922 0
M  V30 971 C 94.5363 -1.56792 -0.298091 0
M  V30 972 C 94.7363 -1.06679 -1.70944 0
M  V30 973 O 93.7923 -0.726672 -2.41818 0
M  V30 974 C 95.1053 -3.00461 -0.119879 0
M  V30 975 C 96.6533 -3.1242 -0.190428 0
M  V30 976 C 97.1283 -4.57982 -0.0406567 0
M  V30 977 N 98.6193 -4.63099 -0.0966958 0
M  V30 978 C 99.3543 -5.734 -0.00502943 0
M  V30 979 N 98.8503 -6.9266 0.139402 0
M  V30 980 N 100.643 -5.62067 -0.0611391 0
M  V30 981 H 92.7943 -1.88386 0.98105 0
M  V30 982 H 95.0573 -0.867865 0.381463 0
M  V30 983 H 94.7633 -3.41187 0.85349 0
M  V30 984 H 94.6373 -3.66843 -0.877833 0
M  V30 985 H 97.0243 -2.71589 -1.15427 0
M  V30 986 H 97.1053 -2.48702 0.598405 0
M  V30 987 H 96.7493 -4.995 0.919897 0
M  V30 988 H 96.6793 -5.19715 -0.848727 0
M  V30 989 H 99.1703 -3.77331 -0.207277 0
M  V30 990 H 99.4833 -7.72536 0.201855 0
M  V30 991 H 97.8283 -6.94781 0.174586 0
M  V30 992 H 101.019 -4.67782 -0.172583 0
M  V30 993 H 101.192 -6.47999 0.0137562 0
M  V30 994 N 94.5984 0.214957 -1.56127 0
M  V30 995 C 96.0094 0.781386 -1.69562 0
M  V30 996 C 96.3604 1.84707 -0.66165 0
M  V30 997 O 95.4854 2.156 0.185927 0
M  V30 998 C 96.0804 1.42411 -3.07416 0
M  V30 999 C 94.6394 1.93786 -3.22683 0
M  V30 1000 C 93.7864 0.800438 -2.65496 0
M  V30 1001 H 96.7374 -0.00980633 -1.58697 0
M  V30 1002 H 96.7584 2.29309 -3.0364 0
M  V30 1003 H 96.2704 0.64826 -3.82648 0
M  V30 1004 H 94.3714 2.74152 -2.52332 0
M  V30 1005 H 94.4844 2.1133 -4.29973 0
M  V30 1006 H 92.8484 1.2095 -2.2415 0
M  V30 1007 H 93.6314 0.0371471 -3.4328 0
M  V30 1008 N 96.0765 1.50051 0.48192 0
M  V30 1009 C 97.4875 1.5348 1.06305 0
M  V30 1010 C 97.8385 0.331997 1.93371 0
M  V30 1011 O 96.9635 -0.556256 2.09129 0
M  V30 1012 C 97.5585 2.7813 1.93466 0
M  V30 1013 C 96.1175 2.84275 2.46707 0
M  V30 1014 C 95.2645 2.47637 1.24785 0
M  V30 1015 H 98.2155 1.56472 0.264995 0
M  V30 1016 H 98.2365 2.59372 2.78399 0
M  V30 1017 H 97.7485 3.65654 1.30072 0
M  V30 1018 H 95.8495 2.01077 3.13686 0
M  V30 1019 H 95.9625 3.8691 2.82555 0
M  V30 1020 H 94.3265 1.99835 1.57918 0
M  V30 1021 H 95.1095 3.37457 0.630694 0
M  V30 1022 N 97.5546 -0.734337 1.39446 0
M  V30 1023 C 98.5046 -1.83949 1.34709 0
M  V30 1024 C 99.4886 -1.59279 0.227851 0
M  V30 1025 O 100.681 -1.70771 0.465438 0
M  V30 1026 C 97.8096 -3.21884 1.19356 0
M  V30 1027 C 96.8956 -3.52381 2.35984 0
M  V30 1028 N 97.2866 -3.53811 3.61457 0
M  V30 1029 C 95.5846 -3.82747 2.28956 0
M  V30 1030 C 96.2856 -3.82122 4.38586 0
M  V30 1031 N 95.2616 -3.9993 3.68181 0
M  V30 1032 H 99.0636 -1.83361 2.29687 0
M  V30 1033 H 96.5776 -0.932609 1.32952 0
M  V30 1034 H 98.5746 -4.00998 1.14046 0
M  V30 1035 H 97.2346 -3.23711 0.253295 0
M  V30 1036 H 98.2456 -3.35107 3.94872 0
M  V30 1037 H 94.9226 -3.92175 1.43194 0
M  V30 1038 H 96.3126 -3.89691 5.47349 0
M  V30 1039 N 99.0327 -1.24633 -0.964593 0
M  V30 1040 C 99.9827 -1.00841 -2.04487 0
M  V30 1041 C 100.967 0.0512468 -1.60818 0
M  V30 1042 O 102.159 -0.162865 -1.76249 0
M  V30 1043 C 99.2877 -0.618474 -3.37683 0
M  V30 1044 C 98.3737 -1.71437 -3.87905 0
M  V30 1045 N 98.7647 -2.9477 -4.11029 0
M  V30 1046 C 97.0627 -1.5926 -4.16596 0
M  V30 1047 C 97.7637 -3.65834 -4.52261 0
M  V30 1048 N 96.7397 -2.9341 -4.57615 0
M  V30 1049 H 100.542 -1.94487 -2.20345 0
M  V30 1050 H 98.0557 -1.14805 -1.14863 0
M  V30 1051 H 100.053 -0.429247 -4.14684 0
M  V30 1052 H 98.7127 0.310766 -3.23209 0
M  V30 1053 H 99.7237 -3.30917 -3.9839 0
M  V30 1054 H 96.4007 -0.731606 -4.1104 0
M  V30 1055 H 97.7907 -4.71646 -4.78539 0
M  V30 1056 N 100.511 1.16574 -1.06058 0
M  V30 1057 C 101.922 1.68662 -0.800632 0
M  V30 1058 C 102.273 1.84184 0.67608 0
M  V30 1059 O 101.398 1.53568 1.52466 0
M  V30 1060 C 101.993 3.06356 -1.44676 0
M  V30 1061 C 100.552 3.55575 -1.23465 0
M  V30 1062 C 99.6988 2.31616 -1.52477 0
M  V30 1063 H 102.65 1.00969 -1.22438 0
M  V30 1064 H 102.671 3.70636 -0.860788 0
M  V30 1065 H 102.183 2.95027 -2.52152 0
M  V30 1066 H 100.284 3.72167 -0.179527 0
M  V30 1067 H 100.397 4.37812 -1.94571 0
M  V30 1068 H 98.7608 2.36512 -0.945209 0
M  V30 1069 H 99.5438 2.22887 -2.61106 0
M  V30 1070 N 101.989 0.842826 1.3317 0
M  V30 1071 C 103.236 0.440447 1.97652 0
M  V30 1072 C 103.564 -1.00123 1.6675 0
M  V30 1073 O 102.819 -1.7155 0.941761 0
M  V30 1074 C 103.118 0.612607 3.52111 0
M  V30 1075 C 102.784 2.02297 4.02972 0
M  V30 1076 C 101.446 2.40874 4.16573 0
M  V30 1077 C 103.798 2.94402 4.30089 0
M  V30 1078 C 101.126 3.70852 4.54627 0
M  V30 1079 C 103.478 4.23865 4.69597 0
M  V30 1080 C 102.142 4.62392 4.81404 0
M  V30 1081 H 101.412 0.161171 0.72326 0
M  V30 1082 H 104.059 1.07061 1.58777 0
M  V30 1083 H 102.364 -0.100849 3.9167 0
M  V30 1084 H 104.061 0.2815 4.00011 0
M  V30 1085 H 100.651 1.71338 3.92863 0
M  V30 1086 H 104.835 2.65835 4.19101 0
M  V30 1087 H 100.091 4.00501 4.61962 0
M  V30 1088 H 104.265 4.95306 4.89536 0
M  V30 1089 H 101.892 5.63154 5.10648 0
M  V30 1090 N 103.467 -1.45747 0.599634 0
M  V30 1091 C 104.377 -2.34262 -0.125888 0
M  V30 1092 C 105.393 -1.50768 -0.868625 0
M  V30 1093 O 106.569 -1.83592 -0.828003 0
M  V30 1094 C 103.634 -3.28252 -1.11587 0
M  V30 1095 C 102.695 -4.27651 -0.375956 0
M  V30 1096 C 101.928 -5.1715 -1.31877 0
M  V30 1097 O 102.151 -5.09916 -2.55621 0
M  V30 1098 O 101.085 -5.96286 -0.820157 0
M  V30 1099 H 104.911 -2.97688 0.601315 0
M  V30 1100 H 102.496 -1.44999 0.359934 0
M  V30 1101 H 104.378 -3.86191 -1.68626 0
M  V30 1102 H 103.053 -2.67401 -1.82424 0
M  V30 1103 H 101.96 -3.7335 0.236698 0
M  V30 1104 H 103.293 -4.91334 0.29177 0
M  V30 1105 N 104.945 -0.338344 -1.53925 0
M  V30 1106 C 106.173 0.261298 -2.05243 0
M  V30 1107 C 106.588 1.44625 -1.21363 0
M  V30 1108 O 105.945 1.80811 -0.247736 0
M  V30 1109 C 105.996 0.681412 -3.5502 0
M  V30 1110 O 105.717 -0.456414 -4.35716 0
M  V30 1111 C 107.218 1.34232 -4.22489 0
M  V30 1112 H 104.438 0.0513685 -0.669031 0
M  V30 1113 H 106.982 -0.488822 -1.98572 0
M  V30 1114 H 105.137 1.38148 -3.61931 0
M  V30 1115 H 105.551 -0.122564 -5.24357 0
M  V30 1116 H 107.025 1.58708 -5.28693 0
M  V30 1117 H 107.502 2.29426 -3.74514 0
M  V30 1118 H 108.108 0.684424 -4.19757 0
M  V30 1119 N 106.423 1.57458 -0.0668435 0
M  V30 1120 C 107.37 2.12439 0.902122 0
M  V30 1121 C 108.34 1.03565 1.2986 0
M  V30 1122 O 109.525 1.312 1.38532 0
M  V30 1123 C 106.665 2.6865 2.16614 0
M  V30 1124 C 105.778 3.91663 1.82274 0
M  V30 1125 C 104.913 4.36134 3.0325 0
M  V30 1126 C 103.952 5.51808 2.64904 0
M  V30 1127 N 103.089 5.9126 3.78624 0
M  V30 1128 H 107.929 2.94934 0.426382 0
M  V30 1129 H 105.466 1.4575 0.198819 0
M  V30 1130 H 107.424 2.99346 2.90599 0
M  V30 1131 H 106.054 1.88928 2.61737 0
M  V30 1132 H 105.106 3.6746 0.983719 0
M  V30 1133 H 106.418 4.75693 1.50059 0
M  V30 1134 H 105.572 4.68465 3.85519 0
M  V30 1135 H 104.311 3.50948 3.38655 0
M  V30 1136 H 103.316 5.19133 1.81055 0
M  V30 1137 H 104.541 6.38722 2.30675 0
M  V30 1138 H 102.487 5.09024 4.138 0
M  V30 1139 H 102.404 6.70018 3.5016 0
M  V30 1140 H 103.672 6.28212 4.61486 0
M  V30 1141 N 107.901 -0.206675 1.56239 0
M  V30 1142 C 109.178 -0.954051 1.70755 0
M  V30 1143 C 109.558 -2.01841 0.618353 0
M  V30 1144 O 108.906 -2.25444 -0.372434 0
M  V30 1145 C 109.116 -1.551 3.12642 0
M  V30 1146 C 110.464 -2.03757 3.72516 0
M  V30 1147 O 111.488 -1.64965 3.15698 0
M  V30 1148 O 110.347 -2.75103 4.72208 0
M  V30 1149 H 107.441 -0.446636 0.696021 0
M  V30 1150 H 109.987 -0.197283 1.68549 0
M  V30 1151 H 108.759 -0.783212 3.83382 0
M  V30 1152 H 108.382 -2.37291 3.19028 0
M  V30 1153 N 109.379 -1.50304 -0.473955 0
M  V30 1154 C 110.625 -1.61389 -1.22806 0
M  V30 1155 C 110.958 -0.311955 -1.91678 0
M  V30 1156 O 110.233 0.686384 -1.81986 0
M  V30 1157 C 110.516 -2.79219 -2.27396 0
M  V30 1158 C 110.369 -4.19286 -1.62848 0
M  V30 1159 C 111.688 -2.92614 -3.28732 0
M  V30 1160 H 108.807 -0.587399 -0.445119 0
M  V30 1161 H 111.449 -1.82681 -0.522265 0
M  V30 1162 H 109.599 -2.61195 -2.87592 0
M  V30 1163 H 111.271 -4.48892 -1.06271 0
M  V30 1164 H 109.514 -4.23677 -0.931693 0
M  V30 1165 H 110.185 -4.97655 -2.38838 0
M  V30 1166 H 112.661 -3.09105 -2.78556 0
M  V30 1167 H 111.537 -3.76688 -3.99246 0
M  V30 1168 H 111.798 -2.03107 -3.92683 0
M  V30 1169 N 110.857 0.726932 -1.39834 0
M  V30 1170 C 112.082 1.52121 -1.40976 0
M  V30 1171 C 112.507 1.88098 -0.00826029 0
M  V30 1172 O 111.865 1.52479 0.980807 0
M  V30 1173 C 111.913 2.78021 -2.29644 0
M  V30 1174 O 111.017 3.74272 -1.73188 0
M  V30 1175 H 110.358 0.45908 -0.479731 0
M  V30 1176 H 112.888 0.896207 -1.83927 0
M  V30 1177 H 112.898 3.26671 -2.44438 0
M  V30 1178 H 111.573 2.51169 -3.31492 0
M  V30 1179 H 110.15 3.33073 -1.6768 0
M  V30 1180 N 112.336 1.25143 0.95797 0
M  V30 1181 C 113.246 1.06968 2.08794 0
M  V30 1182 C 114.262 0.00773911 1.73998 0
M  V30 1183 O 115.438 0.207972 2.00323 0
M  V30 1184 C 112.503 0.68691 3.39827 0
M  V30 1185 C 111.564 1.82641 3.88511 0
M  V30 1186 C 110.797 1.46181 5.1329 0
M  V30 1187 O 111.02 0.355971 5.69288 0
M  V30 1188 O 109.954 2.29085 5.566 0
M  V30 1189 H 113.78 2.01723 2.27027 0
M  V30 1190 H 111.365 1.04051 1.07209 0
M  V30 1191 H 113.247 0.485417 4.18595 0
M  V30 1192 H 111.922 -0.231417 3.22872 0
M  V30 1193 H 110.829 2.08274 3.10762 0
M  V30 1194 H 112.162 2.72386 4.09959 0
M  V30 1195 N 113.814 -1.1601 1.06675 0
M  V30 1196 C 115.044 -1.90251 0.805497 0
M  V30 1197 C 115.452 -1.77891 -0.64431 0
M  V30 1198 O 114.795 -1.12383 -1.45313 0
M  V30 1199 C 114.857 -3.41419 1.12576 0
M  V30 1200 C 114.521 -3.77564 2.57477 0
M  V30 1201 C 115.518 -3.79161 3.55715 0
M  V30 1202 C 113.203 -4.08079 2.92877 0
M  V30 1203 C 115.197 -4.10767 4.8739 0
M  V30 1204 C 112.884 -4.39351 4.24751 0
M  V30 1205 C 113.882 -4.40675 5.21818 0
M  V30 1206 O 113.57 -4.71202 6.51325 0
M  V30 1207 H 113.302 -0.610018 0.291297 0
M  V30 1208 H 115.856 -1.47958 1.4247 0
M  V30 1209 H 114.086 -3.84079 0.449503 0
M  V30 1210 H 115.775 -3.9694 0.84814 0
M  V30 1211 H 116.541 -3.55693 3.29708 0
M  V30 1212 H 112.42 -4.06211 2.17976 0
M  V30 1213 H 115.964 -4.11715 5.63148 0
M  V30 1214 H 111.861 -4.62285 4.50514 0
M  V30 1215 H 112.629 -4.88996 6.56373 0
M  V30 1216 N 115.292 -0.849877 -1.32721 0
M  V30 1217 C 116.517 -0.463856 -2.02146 0
M  V30 1218 C 116.942 0.930449 -1.63476 0
M  V30 1219 O 116.3 1.61033 -0.832952 0
M  V30 1220 C 116.348 -0.604955 -3.55489 0
M  V30 1221 O 115.452 0.36425 -4.10788 0
M  V30 1222 H 114.793 -0.187046 -0.637111 0
M  V30 1223 H 117.323 -1.14775 -1.69375 0
M  V30 1224 H 117.333 -0.490696 -4.05038 0
M  V30 1225 H 116.008 -1.62174 -3.82978 0
M  V30 1226 H 114.585 0.206628 -3.72327 0
M  V30 1227 N 116.77 1.45427 -0.607355 0
M  V30 1228 C 118.01 2.04128 -0.105458 0
M  V30 1229 C 118.374 1.46555 1.24039 0
M  V30 1230 O 119.575 1.96608 1.833 0
M  V30 1231 C 117.846 3.57338 -0.0665324 0
M  V30 1232 S 119.405 4.37201 0.374207 0
M  V30 1233 H 116.223 0.709278 -0.0494575 0
M  V30 1234 H 118.825 1.78139 -0.805404 0
M  V30 1235 H 117.529 3.96752 -1.04957 0
M  V30 1236 H 117.06 3.87902 0.655415 0
M  V30 1237 H 119.075 4.6888 1.62377 0
M  V30 1238 N 118.248 0.346503 1.53744 0
M  V30 1239 C 119.664 -0.00530975 1.59599 0
M  V30 1240 C 119.864 -1.48465 1.36236 0
M  V30 1241 O 118.92 -2.24376 1.15808 0
M  V30 1242 C 120.233 0.433516 2.97559 0
M  V30 1243 C 121.781 0.386111 3.10609 0
M  V30 1244 C 122.256 0.800451 4.50951 0
M  V30 1245 N 123.747 0.754753 4.5701 0
M  V30 1246 C 124.482 1.04727 5.63755 0
M  V30 1247 N 123.978 1.4081 6.7834 0
M  V30 1248 N 125.771 0.971316 5.53644 0
M  V30 1249 H 117.922 1.31009 1.67184 0
M  V30 1250 H 120.185 0.534242 0.783128 0
M  V30 1251 H 119.891 1.46509 3.19731 0
M  V30 1252 H 119.765 -0.189753 3.76722 0
M  V30 1253 H 122.152 -0.636295 2.88158 0
M  V30 1254 H 122.233 1.04462 2.33498 0
M  V30 1255 H 121.877 1.82088 4.74137 0
M  V30 1256 H 121.807 0.119386 5.26465 0
M  V30 1257 H 124.298 0.488662 3.74727 0
M  V30 1258 H 124.611 1.61607 7.55714 0
M  V30 1259 H 122.956 1.44657 6.79779 0
M  V30 1260 H 126.147 0.688748 4.63005 0
M  V30 1261 H 126.32 1.20263 6.36742 0
M  V30 1262 N 119.726 -1.57421 0.075193 0
M  V30 1263 C 120.636 -2.1642 -0.905511 0
M  V30 1264 C 121.652 -1.12828 -1.32461 0
M  V30 1265 O 122.828 -1.45109 -1.39661 0
M  V30 1266 C 119.893 -2.71693 -2.15369 0
M  V30 1267 C 118.954 -3.90171 -1.79068 0
M  V30 1268 C 118.187 -4.42798 -2.97936 0
M  V30 1269 O 118.41 -3.94416 -4.12058 0
M  V30 1270 O 117.344 -5.34085 -2.77555 0
M  V30 1271 H 121.17 -3.00588 -0.433626 0
M  V30 1272 H 118.755 -1.48664 -0.148067 0
M  V30 1273 H 120.637 -3.07104 -2.88557 0
M  V30 1274 H 119.312 -1.90582 -2.61649 0
M  V30 1275 H 118.219 -3.59606 -1.03122 0
M  V30 1276 H 119.552 -4.72584 -1.37569 0
M  V30 1277 N 121.204 0.198386 -1.56346 0
M  V30 1278 C 122.134 1.24865 -1.9731 0
M  V30 1279 C 123.115 1.47651 -0.844576 0
M  V30 1280 O 124.3 1.59444 -1.10866 0
M  V30 1281 C 121.43 2.59358 -2.30977 0
M  V30 1282 C 120.384 2.5119 -3.46537 0
M  V30 1283 C 119.71 3.89926 -3.65871 0
M  V30 1284 C 121.01 2.03977 -4.80823 0
M  V30 1285 H 122.704 0.908252 -2.85291 0
M  V30 1286 H 120.25 0.435462 -1.37258 0
M  V30 1287 H 122.203 3.33011 -2.58228 0
M  V30 1288 H 120.927 2.95132 -1.39874 0
M  V30 1289 H 119.586 1.79993 -3.19371 0
M  V30 1290 H 119.234 4.23046 -2.72105 0
M  V30 1291 H 118.934 3.85336 -4.4361 0
M  V30 1292 H 120.458 4.65205 -3.95495 0
M  V30 1293 H 121.872 2.67386 -5.07127 0
M  V30 1294 H 120.269 2.10397 -5.62008 0
M  V30 1295 H 121.339 0.992861 -4.74626 0
M  V30 1296 N 122.682 1.50554 0.465978 0
M  V30 1297 C 123.632 1.66177 1.56106 0
M  V30 1298 C 124.616 0.516265 1.52393 0
M  V30 1299 O 125.808 0.770906 1.5933 0
M  V30 1300 C 122.937 1.76396 2.94515 0
M  V30 1301 C 122.023 2.9664 3.03093 0
M  V30 1302 N 122.414 4.20245 2.81474 0
M  V30 1303 C 120.712 2.95304 3.34233 0
M  V30 1304 C 121.413 5.01259 2.95151 0
M  V30 1305 N 120.389 4.35318 3.25576 0
M  V30 1306 H 124.191 2.59434 1.38099 0
M  V30 1307 H 121.705 1.47808 0.6728 0
M  V30 1308 H 123.702 1.85694 3.73261 0
M  V30 1309 H 122.362 0.843017 3.13565 0
M  V30 1310 H 123.373 4.4966 2.56956 0
M  V30 1311 H 120.05 2.12729 3.59239 0
M  V30 1312 H 121.44 6.09564 2.82632 0
M  V30 1313 N 124.16 -0.719506 1.40217 0
M  V30 1314 C 125.407 -1.47933 1.38283 0
M  V30 1315 C 125.735 -1.94493 -0.0161536 0
M  V30 1316 O 124.99 -1.68224 -0.999956 0
M  V30 1317 C 125.289 -2.72271 2.31524 0
M  V30 1318 C 124.955 -2.44496 3.78857 0
M  V30 1319 C 123.617 -2.36631 4.18998 0
M  V30 1320 C 125.969 -2.21104 4.71977 0
M  V30 1321 C 123.297 -2.03437 5.503 0
M  V30 1322 C 125.649 -1.89423 6.03574 0
M  V30 1323 C 124.313 -1.80038 6.42762 0
M  V30 1324 H 123.583 -0.541325 0.506012 0
M  V30 1325 H 126.23 -0.824502 1.72842 0
M  V30 1326 H 124.535 -3.42572 1.90137 0
M  V30 1327 H 126.232 -3.30348 2.27313 0
M  V30 1328 H 122.822 -2.51503 3.47051 0
M  V30 1329 H 127.006 -2.26139 4.41786 0
M  V30 1330 H 122.262 -1.94705 5.79569 0
M  V30 1331 H 126.436 -1.70336 6.75247 0
M  V30 1332 H 124.063 -1.54083 7.44421 0
M  V30 1333 N 125.638 -1.25649 -0.95132 0
M  V30 1334 C 126.866 -1.13343 -1.73092 0
M  V30 1335 C 127.281 0.312434 -1.86197 0
M  V30 1336 O 126.638 1.21465 -1.36207 0
M  V30 1337 C 126.689 -1.78602 -3.14299 0
M  V30 1338 O 126.41 -3.17537 -3.01831 0
M  V30 1339 C 127.911 -1.72119 -4.08522 0
M  V30 1340 H 125.131 -0.395181 -0.542285 0
M  V30 1341 H 127.675 -1.66076 -1.19328 0
M  V30 1342 H 125.83 -1.29832 -3.64996 0
M  V30 1343 H 126.244 -3.49676 -3.90931 0
M  V30 1344 H 127.718 -2.22435 -5.052 0
M  V30 1345 H 128.195 -0.685635 -4.33815 0
M  V30 1346 H 128.801 -2.20393 -3.63741 0
M  V30 1347 N 127.117 1.15442 -1.07289 0
M  V30 1348 C 128.533 1.38201 -0.798288 0
M  V30 1349 C 128.733 1.92429 0.597769 0
M  V30 1350 O 127.789 2.12962 1.3566 0
M  V30 1351 C 129.102 2.35357 -1.87156 0
M  V30 1352 C 130.65 2.49021 -1.89624 0
M  V30 1353 C 131.125 3.49468 -2.96034 0
M  V30 1354 N 132.616 3.57003 -2.95132 0
M  V30 1355 C 133.351 4.34543 -3.74112 0
M  V30 1356 N 132.847 5.15421 -4.6294 0
M  V30 1357 N 134.64 4.29625 -3.62462 0
M  V30 1358 H 126.791 0.78584 -1.97328 0
M  V30 1359 H 129.054 0.408065 -0.855679 0
M  V30 1360 H 128.76 2.02626 -2.87464 0
M  V30 1361 H 128.634 3.35129 -1.73114 0
M  V30 1362 H 131.021 2.81051 -0.899687 0
M  V30 1363 H 131.102 1.4925 -2.07745 0
M  V30 1364 H 130.746 3.18173 -3.95889 0
M  V30 1365 H 130.676 4.48992 -2.75161 0
M  V30 1366 H 133.167 2.99276 -2.30743 0
M  V30 1367 H 133.48 5.7183 -5.19837 0
M  V30 1368 H 131.825 5.14729 -4.66989 0
M  V30 1369 H 135.016 3.65505 -2.92444 0
M  V30 1370 H 135.189 4.89807 -4.24256 0
M  V30 1371 N 128.595 0.856903 1.32268 0
M  V30 1372 C 129.825 0.47475 2.01071 0
M  V30 1373 C 130.233 -0.933746 1.64553 0
M  V30 1374 O 129.576 -1.62114 0.863989 0
M  V30 1375 C 129.638 0.536746 3.55471 0
M  V30 1376 C 129.302 1.90453 4.15423 0
M  V30 1377 C 130.299 2.87029 4.33486 0
M  V30 1378 C 127.984 2.20229 4.51447 0
M  V30 1379 C 129.978 4.11532 4.86744 0
M  V30 1380 C 127.665 3.44984 5.0441 0
M  V30 1381 C 128.663 4.40452 5.22007 0
M  V30 1382 O 128.351 5.62998 5.73837 0
M  V30 1383 H 128.083 0.184778 0.650256 0
M  V30 1384 H 130.637 1.15615 1.69771 0
M  V30 1385 H 128.867 -0.20152 3.86175 0
M  V30 1386 H 130.556 0.169875 4.05544 0
M  V30 1387 H 131.322 2.6533 4.05986 0
M  V30 1388 H 127.201 1.46705 4.37034 0
M  V30 1389 H 130.745 4.86056 5.00395 0
M  V30 1390 H 126.642 3.66532 5.31342 0
M  V30 1391 H 127.41 5.64987 5.92226 0
M  V30 1392 N 130.073 -1.45103 0.615059 0
M  V30 1393 C 131.319 -2.02483 0.113347 0
M  V30 1394 C 131.652 -1.48146 -1.25564 0
M  V30 1395 O 130.927 -0.659104 -1.82992 0
M  V30 1396 C 131.21 -3.60005 0.0825278 0
M  V30 1397 C 131.063 -4.2466 1.48271 0
M  V30 1398 C 132.382 -4.35972 -0.601401 0
M  V30 1399 H 129.501 -0.735764 0.0426632 0
M  V30 1400 H 132.143 -1.72868 0.788461 0
M  V30 1401 H 130.293 -3.85367 -0.492378 0
M  V30 1402 H 131.965 -4.10458 2.10527 0
M  V30 1403 H 130.208 -3.82772 2.04127 0
M  V30 1404 H 130.879 -5.336 1.41332 0
M  V30 1405 H 133.355 -4.15947 -0.112666 0
M  V30 1406 H 132.231 -5.45697 -0.592097 0
M  V30 1407 H 132.492 -4.09391 -1.66887 0
M  V30 1408 N 131.551 -0.354651 -1.53558 0
M  V30 1409 C 132.779 0.239515 -2.05509 0
M  V30 1410 C 133.194 1.4333 -1.2289 0
M  V30 1411 O 132.551 1.80538 -0.266899 0
M  V30 1412 C 132.602 0.643719 -3.55723 0
M  V30 1413 O 132.323 -0.502602 -4.35207 0
M  V30 1414 C 133.824 1.29743 -4.23889 0
M  V30 1415 H 131.044 0.0442697 -0.669538 0
M  V30 1416 H 133.588 -0.509856 -1.98042 0
M  V30 1417 H 131.743 1.34302 -3.63376 0
M  V30 1418 H 132.157 -0.178172 -5.24197 0
M  V30 1419 H 133.631 1.53091 -5.30346 0
M  V30 1420 H 134.108 2.25441 -3.76926 0
M  V30 1421 H 134.714 0.639865 -4.20459 0
M  V30 1422 N 133.029 1.57378 -0.0835403 0
M  V30 1423 C 134.306 1.85363 0.624507 0
M  V30 1424 C 134.686 0.978239 1.87066 0
M  V30 1425 O 134.034 0.0475908 2.2845 0
M  V30 1426 C 134.244 3.35795 0.950947 0
M  V30 1427 C 135.592 4.03581 1.31939 0
M  V30 1428 O 136.616 3.40609 1.04232 0
M  V30 1429 O 135.475 5.14672 1.83779 0
M  V30 1430 H 132.569 0.766162 0.311329 0
M  V30 1431 H 135.115 1.69307 -0.115362 0
M  V30 1432 H 133.887 3.91244 0.0663899 0
M  V30 1433 H 133.51 3.57154 1.74719 0
M  V30 1434 N 134.507 -0.190092 1.56449 0
M  V30 1435 C 135.755 -0.907908 1.80559 0
M  V30 1436 C 136.076 -1.83583 0.657438 0
M  V30 1437 O 135.346 -1.93203 -0.323924 0
M  V30 1438 H 133.926 -0.338247 0.666032 0
M  V30 1439 H 136.588 -0.194403 1.93928 0
M  V30 1440 H 135.684 -1.49604 2.73907 0
M  V30 1441 N 135.985 -1.50799 -0.457987 0
M  V30 1442 C 137.396 -1.55152 -1.0385 0
M  V30 1443 C 137.747 -0.362719 -1.92818 0
M  V30 1444 O 136.872 0.522915 -2.09987 0
M  V30 1445 C 137.467 -2.81173 -1.89017 0
M  V30 1446 C 136.026 -2.88164 -2.42154 0
M  V30 1447 C 135.173 -2.49591 -1.20829 0
M  V30 1448 H 138.124 -1.56874 -0.240068 0
M  V30 1449 H 138.145 -2.63769 -2.74238 0
M  V30 1450 H 137.657 -3.67677 -1.24238 0
M  V30 1451 H 135.758 -2.06042 -3.10447 0
M  V30 1452 H 135.871 -3.91356 -2.76364 0
M  V30 1453 H 134.235 -2.02322 -1.54719 0
M  V30 1454 H 135.018 -3.38418 -0.576927 0
M  V30 1455 N 137.463 0.71206 -1.40597 0
M  V30 1456 C 138.703 1.48438 -1.40519 0
M  V30 1457 C 139.067 1.91998 -0.00767611 0
M  V30 1458 O 140.268 2.6854 0.118239 0
M  V30 1459 C 138.539 2.67514 -2.37004 0
M  V30 1460 S 140.098 3.56875 -2.55315 0
M  V30 1461 H 136.916 0.507457 -0.498005 0
M  V30 1462 H 139.518 0.832355 -1.76896 0
M  V30 1463 H 138.222 2.33689 -3.37368 0
M  V30 1464 H 137.753 3.37625 -2.01923 0
M  V30 1465 H 139.768 4.62081 -1.8082 0
M  V30 1466 N 138.941 1.26152 0.944643 0
M  V30 1467 C 140.357 1.03189 1.21754 0
M  V30 1468 C 140.557 -0.245112 2.00004 0
M  V30 1469 O 139.613 -0.955176 2.33736 0
M  V30 1470 C 140.926 2.26119 1.98219 0
M  V30 1471 C 142.474 2.30984 2.11224 0
M  V30 1472 C 142.949 3.53597 2.91089 0
M  V30 1473 N 144.44 3.54053 2.98664 0
M  V30 1474 C 145.175 4.45593 3.60881 0
M  V30 1475 N 144.671 5.47416 4.24626 0
M  V30 1476 N 146.464 4.33252 3.58119 0
M  V30 1477 H 138.615 2.08177 0.421437 0
M  V30 1478 H 140.878 0.914723 0.248969 0
M  V30 1479 H 140.584 3.18984 1.48128 0
M  V30 1480 H 140.458 2.3009 2.98895 0
M  V30 1481 H 142.845 1.38635 2.60508 0
M  V30 1482 H 142.926 2.31026 1.09821 0
M  V30 1483 H 142.57 4.46273 2.42493 0
M  V30 1484 H 142.5 3.50802 3.92741 0
M  V30 1485 H 144.991 2.80403 2.53343 0
M  V30 1486 H 145.304 6.13459 4.69987 0
M  V30 1487 H 143.649 5.51278 4.23223 0
M  V30 1488 H 146.84 3.52924 3.0751 0
M  V30 1489 H 147.013 5.04786 4.06319 0
M  V30 1490 N 140.419 -1.14872 1.07899 0
M  V30 1491 C 141.644 -1.90202 0.826926 0
M  V30 1492 C 142.069 -1.77774 -0.614664 0
M  V30 1493 O 141.427 -1.11431 -1.43013 0
M  V30 1494 C 141.475 -3.38352 1.24702 0
M  V30 1495 O 140.579 -4.10497 0.39575 0
M  V30 1496 H 139.92 -0.591968 0.300782 0
M  V30 1497 H 142.45 -1.45437 1.43907 0
M  V30 1498 H 142.46 -3.89156 1.22563 0
M  V30 1499 H 141.135 -3.46715 2.29698 0
M  V30 1500 H 139.712 -3.69796 0.480117 0
M  V30 1501 N 141.898 -0.863906 -1.31812 0
M  V30 1502 C 142.861 -0.320212 -2.26952 0
M  V30 1503 C 143.861 0.525369 -1.51975 0
M  V30 1504 O 145.051 0.335547 -1.70938 0
M  V30 1505 C 142.183 0.545919 -3.365 0
M  V30 1506 H 143.376 -1.16004 -2.76556 0
M  V30 1507 H 140.929 -0.638995 -1.42641 0
M  V30 1508 H 141.664 1.40718 -2.92179 0
M  V30 1509 H 141.449 -0.0594674 -3.92055 0
M  V30 1510 H 142.939 0.918796 -4.07367 0
M  V30 1511 N 143.376 1.44774 -0.622745 0
M  V30 1512 C 144.323 2.30635 0.0871679 0
M  V30 1513 C 145.293 1.42994 0.845097 0
M  V30 1514 O 146.478 1.71907 0.827812 0
M  V30 1515 C 143.618 3.28144 1.06844 0
M  V30 1516 C 142.731 4.30888 0.309809 0
M  V30 1517 C 141.866 5.15494 1.28215 0
M  V30 1518 C 140.905 6.09953 0.512198 0
M  V30 1519 N 140.042 6.87287 1.43458 0
M  V30 1520 H 144.882 2.90803 -0.650974 0
M  V30 1521 H 142.419 1.43286 -0.33281 0
M  V30 1522 H 144.377 3.83157 1.65066 0
M  V30 1523 H 143.007 2.69695 1.77382 0
M  V30 1524 H 142.059 3.78414 -0.388181 0
M  V30 1525 H 143.371 4.97955 -0.290254 0
M  V30 1526 H 142.525 5.74983 1.93596 0
M  V30 1527 H 141.264 4.48481 1.91614 0
M  V30 1528 H 140.269 5.49581 -0.155151 0
M  V30 1529 H 141.494 6.78999 -0.116958 0
M  V30 1530 H 139.44 6.2295 2.05594 0
M  V30 1531 H 139.357 7.50763 0.888335 0
M  V30 1532 H 140.625 7.51306 2.07749 0
M  V30 1533 N 144.854 0.36279 1.53368 0
M  V30 1534 C 146.265 -0.117022 1.86333 0
M  V30 1535 C 146.616 -1.48397 1.28347 0
M  V30 1536 O 145.741 -2.07787 0.604428 0
M  V30 1537 C 146.336 -0.21912 3.38091 0
M  V30 1538 C 144.895 -0.643184 3.70864 0
M  V30 1539 C 144.042 0.211318 2.76494 0
M  V30 1540 H 146.993 0.581687 1.47655 0
M  V30 1541 H 147.014 -1.04319 3.6592 0
M  V30 1542 H 146.526 0.775902 3.80265 0
M  V30 1543 H 144.627 -1.64654 3.34245 0
M  V30 1544 H 144.74 -0.41973 4.77258 0
M  V30 1545 H 143.104 -0.319367 2.5269 0
M  V30 1546 H 143.887 1.20383 3.21501 0
M  V30 1547 N 146.332 -1.57332 0.0918853 0
M  V30 1548 C 147.578 -1.94524 -0.573425 0
M  V30 1549 C 147.911 -0.973578 -1.68033 0
M  V30 1550 O 147.186 -0.00609226 -1.94499 0
M  V30 1551 C 147.469 -3.41858 -1.13161 0
M  V30 1552 C 147.322 -4.4979 -0.0299747 0
M  V30 1553 C 148.641 -3.90435 -2.03098 0
M  V30 1554 H 145.76 -0.70734 -0.206975 0
M  V30 1555 H 148.402 -1.89309 0.161942 0
M  V30 1556 H 146.552 -3.46433 -1.7583 0
M  V30 1557 H 148.224 -4.57327 0.604112 0
M  V30 1558 H 146.467 -4.291 0.636833 0
M  V30 1559 H 147.138 -5.50069 -0.461287 0
M  V30 1560 H 149.614 -3.87992 -1.50338 0
M  V30 1561 H 148.49 -4.94097 -2.39081 0
M  V30 1562 H 148.751 -3.29541 -2.94712 0
M  V30 1563 N 147.81 0.181792 -1.56548 0
M  V30 1564 C 149.038 0.915947 -1.85521 0
M  V30 1565 C 149.453 1.76282 -0.676016 0
M  V30 1566 O 148.81 1.79012 0.355077 0
M  V30 1567 C 148.861 1.80126 -3.13427 0
M  V30 1568 O 148.582 0.988562 -4.26801 0
M  V30 1569 C 150.083 2.64597 -3.55673 0
M  V30 1570 H 147.303 0.26661 -0.61576 0
M  V30 1571 H 149.847 0.185039 -2.03661 0
M  V30 1572 H 148.002 2.48563 -2.97145 0
M  V30 1573 H 148.416 1.59308 -4.99721 0
M  V30 1574 H 149.89 3.2235 -4.48101 0
M  V30 1575 H 150.367 3.38958 -2.79292 0
M  V30 1576 H 150.973 2.0151 -3.74532 0
M  V30 1577 N 149.288 1.51039 0.449983 0
M  V30 1578 C 150.198 1.74261 1.57067 0
M  V30 1579 C 151.214 0.626363 1.62335 0
M  V30 1580 O 152.39 0.907162 1.79812 0
M  V30 1581 C 149.455 1.85114 2.93144 0
M  V30 1582 C 148.516 3.0893 2.98095 0
M  V30 1583 C 147.749 3.19256 4.27681 0
M  V30 1584 O 147.972 2.35835 5.19363 0
M  V30 1585 O 146.906 4.12144 4.38658 0
M  V30 1586 H 150.732 2.69303 1.40391 0
M  V30 1587 H 148.317 1.35389 0.631688 0
M  V30 1588 H 150.199 1.94311 3.73926 0
M  V30 1589 H 148.874 0.932588 3.09975 0
M  V30 1590 H 147.781 3.0522 2.16314 0
M  V30 1591 H 149.114 4.00433 2.86206 0
M  V30 1592 N 150.766 -0.704594 1.40972 0
M  V30 1593 C 151.696 -1.83124 1.44872 0
M  V30 1594 C 152.677 -1.67281 0.30838 0
M  V30 1595 O 153.862 -1.87149 0.518556 0
M  V30 1596 C 150.992 -3.21181 1.32136 0
M  V30 1597 C 149.946 -3.51714 2.43888 0
M  V30 1598 C 149.272 -4.89032 2.16222 0
M  V30 1599 C 150.572 -3.516 3.86232 0
M  V30 1600 H 152.266 -1.80117 2.39161 0
M  V30 1601 H 149.812 -0.865145 1.15114 0
M  V30 1602 H 151.765 -3.99702 1.33479 0
M  V30 1603 H 150.489 -3.24791 0.343279 0
M  V30 1604 H 149.148 -2.75539 2.41813 0
M  V30 1605 H 148.796 -4.89256 1.16778 0
M  V30 1606 H 148.496 -5.10426 2.911 0
M  V30 1607 H 150.02 -5.69873 2.19265 0
M  V30 1608 H 151.434 -4.2014 3.9007 0
M  V30 1609 H 149.831 -3.84523 4.60719 0
M  V30 1610 H 150.901 -2.50757 4.15029 0
M  V30 1611 N 152.244 -1.26651 -0.937939 0
M  V30 1612 C 153.49 -1.12553 -1.687 0
M  V30 1613 C 153.823 0.329782 -1.91379 0
M  V30 1614 O 153.098 1.24202 -1.4968 0
M  V30 1615 C 153.381 -1.89862 -3.05981 0
M  V30 1616 C 153.234 -3.43318 -2.90607 0
M  V30 1617 C 154.553 -1.69499 -4.0615 0
M  V30 1618 H 151.672 -0.410257 -0.612257 0
M  V30 1619 H 154.314 -1.55685 -1.08913 0
M  V30 1620 H 152.464 -1.53204 -3.57017 0
M  V30 1621 H 154.136 -3.89747 -2.46769 0
M  V30 1622 H 152.379 -3.70179 -2.26164 0
M  V30 1623 H 153.05 -3.92642 -3.8799 0
M  V30 1624 H 155.526 -2.01442 -3.64088 0
M  V30 1625 H 154.402 -2.26002 -5.00214 0
M  V30 1626 H 154.663 -0.640365 -4.37438 0
M  V30 1627 N 153.722 1.14298 -1.08507 0
M  V30 1628 C 154.962 1.87016 -0.824894 0
M  V30 1629 C 155.326 1.81099 0.637735 0
M  V30 1630 O 156.527 2.48963 1.01345 0
M  V30 1631 C 154.798 3.31584 -1.33368 0
M  V30 1632 S 156.357 4.21903 -1.20596 0
M  V30 1633 H 153.175 0.645259 -0.2986 0
M  V30 1634 H 155.777 1.37822 -1.38656 0
M  V30 1635 H 154.481 3.33439 -2.39262 0
M  V30 1636 H 154.012 3.85836 -0.767734 0
M  V30 1637 H 156.027 4.95971 -0.150891 0
M  V30 1638 N 155.201 0.870884 1.31352 0
M  V30 1639 C 156.426 0.495957 2.01383 0
M  V30 1640 C 156.851 -0.904324 1.64935 0
M  V30 1641 O 156.209 -1.59687 0.858466 0
M  V30 1642 C 156.257 0.661433 3.54482 0
M  V30 1643 O 155.361 -0.298851 4.11316 0
M  V30 1644 H 154.702 0.197158 0.634054 0
M  V30 1645 H 157.232 1.17455 1.67527 0
M  V30 1646 H 157.242 0.555072 4.04207 0
M  V30 1647 H 155.917 1.68246 3.8035 0
M  V30 1648 H 154.494 -0.147368 3.72609 0
M  V30 1649 N 156.679 -1.44442 0.630414 0
M  V30 1650 C 157.927 -2.01653 0.134351 0
M  V30 1651 C 158.248 -1.49836 -1.24796 0
M  V30 1652 O 157.518 -0.701684 -1.82902 0
M  V30 1653 H 156.098 -0.74554 0.0466769 0
M  V30 1654 H 158.76 -1.76952 0.816955 0
M  V30 1655 H 157.856 -3.11935 0.101498 0
M  V30 1656 N 158.157 -0.370918 -1.53173 0
M  V30 1657 C 159.089 0.507823 -2.23503 0
M  V30 1658 C 160.102 1.04182 -1.251 0
M  V30 1659 O 161.291 0.947286 -1.5129 0
M  V30 1660 C 158.391 1.71447 -2.92334 0
M  V30 1661 C 157.564 1.31105 -4.17289 0
M  V30 1662 C 156.623 2.38035 -4.69282 0
M  V30 1663 O 155.649 2.00204 -5.32829 0
M  V30 1664 N 156.851 3.69697 -4.47554 0
M  V30 1665 H 159.616 -0.0946382 -2.99551 0
M  V30 1666 H 157.177 -0.196358 -1.60705 0
M  V30 1667 H 159.169 2.42469 -3.24023 0
M  V30 1668 H 157.739 2.22368 -2.19707 0
M  V30 1669 H 156.959 0.430462 -3.91843 0
M  V30 1670 H 158.247 1.0179 -4.98514 0
M  V30 1671 H 157.645 4.03205 -3.9679 0
M  V30 1672 H 156.202 4.36807 -4.8378 0
M  V30 1673 N 159.635 1.57281 -0.100228 0
M  V30 1674 C 160.875 1.96419 0.56558 0
M  V30 1675 C 161.239 0.981265 1.65031 0
M  V30 1676 O 162.44 1.26133 2.37369 0
M  V30 1677 C 160.711 3.39996 1.10171 0
M  V30 1678 S 162.27 4.01134 1.77867 0
M  V30 1679 H 159.088 0.68667 0.184406 0
M  V30 1680 H 161.69 1.94662 -0.180851 0
M  V30 1681 H 160.394 4.09296 0.300803 0
M  V30 1682 H 159.925 3.45361 1.88385 0
M  V30 1683 H 161.94 3.90358 3.06326 0
M  V30 1684 N 161.113 -0.173488 1.56642 0
M  V30 1685 C 162.361 -0.888706 1.81512 0
M  V30 1686 C 162.682 -1.82875 0.676872 0
M  V30 1687 O 161.952 -1.93536 -0.303414 0
M  V30 1688 H 160.532 -0.331164 0.669582 0
M  V30 1689 H 163.194 -0.173823 1.94123 0
M  V30 1690 H 162.29 -1.46691 2.75478 0
M  V30 1691 N 162.591 -1.51276 -0.441967 0
M  V30 1692 C 164.002 -1.56244 -1.02199 0
M  V30 1693 C 164.353 -0.383149 -1.92422 0
M  V30 1694 O 163.478 0.500613 -2.1053 0
M  V30 1695 C 164.073 -2.83162 -1.86024 0
M  V30 1696 C 162.632 -2.90716 -2.39084 0
M  V30 1697 C 161.779 -2.50858 -1.18175 0
M  V30 1698 H 164.73 -1.5712 -0.223416 0
M  V30 1699 H 164.751 -2.66663 -2.71425 0
M  V30 1700 H 164.263 -3.68974 -1.20331 0
M  V30 1701 H 162.364 -2.09323 -3.08244 0
M  V30 1702 H 162.477 -3.94266 -2.72198 0
M  V30 1703 H 160.841 -2.03951 -1.52565 0
M  V30 1704 H 161.624 -3.3901 -0.541001 0
M  V30 1705 N 164.069 0.697108 -1.41344 0
M  V30 1706 C 165.032 1.79281 -1.42797 0
M  V30 1707 C 166.032 1.57607 -0.318837 0
M  V30 1708 O 167.222 1.64309 -0.578642 0
M  V30 1709 C 164.354 3.17632 -1.23785 0
M  V30 1710 H 165.547 1.79385 -2.40335 0
M  V30 1711 H 163.1 0.904582 -1.27464 0
M  V30 1712 H 163.835 3.23167 -0.270814 0
M  V30 1713 H 163.62 3.34765 -2.04144 0
M  V30 1714 H 165.11 3.97617 -1.27633 0
M  V30 1715 N 165.547 1.27147 0.931209 0
M  V30 1716 C 166.963 1.04475 1.20653 0
M  V30 1717 C 167.163 -0.223885 2.00252 0
M  V30 1718 O 166.219 -0.930332 2.34736 0
M  V30 1719 C 167.532 2.28209 1.95809 0
M  V30 1720 C 169.08 2.33211 2.08762 0
M  V30 1721 C 169.555 3.56665 2.87323 0
M  V30 1722 N 171.046 3.57201 2.94892 0
M  V30 1723 C 171.781 4.49395 3.56134 0
M  V30 1724 N 171.277 5.51889 4.18796 0
M  V30 1725 N 173.07 4.37026 3.53504 0
M  V30 1726 H 165.221 2.08612 0.399333 0
M  V30 1727 H 167.484 0.917312 0.239253 0
M  V30 1728 H 167.19 3.20538 1.44736 0
M  V30 1729 H 167.064 2.33247 2.96438 0
M  V30 1730 H 169.451 1.41391 2.59023 0
M  V30 1731 H 169.532 2.32178 1.07364 0
M  V30 1732 H 169.176 4.4882 2.37746 0
M  V30 1733 H 169.106 3.54948 3.88998 0
M  V30 1734 H 171.597 2.83074 2.50354 0
M  V30 1735 H 171.91 6.18409 4.63454 0
M  V30 1736 H 170.255 5.55735 4.17353 0
M  V30 1737 H 173.446 3.56166 3.03749 0
M  V30 1738 H 173.619 5.09067 4.00942 0
M  V30 1739 N 167.025 -1.13721 1.09112 0
M  V30 1740 C 167.955 -2.21148 0.749385 0
M  V30 1741 C 168.936 -1.6792 -0.271475 0
M  V30 1742 O 170.121 -1.93693 -0.140251 0
M  V30 1743 C 167.251 -3.46905 0.165659 0
M  V30 1744 C 166.205 -4.13203 1.11567 0
M  V30 1745 C 165.531 -5.33248 0.393809 0
M  V30 1746 C 166.831 -4.60912 2.45678 0
M  V30 1747 H 168.525 -2.4999 1.64758 0
M  V30 1748 H 166.071 -1.20156 0.793626 0
M  V30 1749 H 168.024 -4.21313 -0.085466 0
M  V30 1750 H 166.748 -3.17449 -0.767714 0
M  V30 1751 H 165.407 -3.40758 1.35202 0
M  V30 1752 H 165.055 -5.00054 -0.543599 0
M  V30 1753 H 164.755 -5.78552 1.02721 0
M  V30 1754 H 166.279 -6.10413 0.150908 0
M  V30 1755 H 167.693 -5.26759 2.26269 0
M  V30 1756 H 166.09 -5.16944 3.04776 0
M  V30 1757 H 167.16 -3.75603 3.06677 0
M  V30 1758 N 168.503 -0.877838 -1.30888 0
M  V30 1759 C 169.433 -0.35534 -2.3078 0
M  V30 1760 C 170.414 0.557994 -1.60687 0
M  V30 1761 O 171.599 0.473355 -1.88343 0
M  V30 1762 C 168.729 0.437221 -3.44537 0
M  V30 1763 C 167.683 -0.383715 -4.26276 0
M  V30 1764 C 167.009 0.535014 -5.32017 0
M  V30 1765 C 168.309 -1.62201 -4.96476 0
M  V30 1766 H 170.003 -1.19007 -2.74732 0
M  V30 1767 H 167.549 -0.573698 -1.32078 0
M  V30 1768 H 169.502 0.813334 -4.13477 0
M  V30 1769 H 168.226 1.30553 -2.99372 0
M  V30 1770 H 166.885 -0.741874 -3.59015 0
M  V30 1771 H 166.533 1.40083 -4.831 0
M  V30 1772 H 166.233 -0.0104211 -5.87599 0
M  V30 1773 H 167.757 0.907799 -6.03814 0
M  V30 1774 H 169.171 -1.31689 -5.5797 0
M  V30 1775 H 167.568 -2.10711 -5.61891 0
M  V30 1776 H 168.638 -2.37044 -4.23011 0
M  V30 1777 N 169.982 1.44106 -0.638065 0
M  V30 1778 C 171.393 1.85316 -0.226894 0
M  V30 1779 C 171.744 1.53399 1.22324 0
M  V30 1780 O 170.869 0.975463 1.93167 0
M  V30 1781 C 171.464 3.3637 -0.405013 0
M  V30 1782 C 170.023 3.76369 -0.0482902 0
M  V30 1783 C 169.17 2.67921 -0.715108 0
M  V30 1784 H 172.121 1.34474 -0.842764 0
M  V30 1785 H 172.142 3.7885 0.354 0
M  V30 1786 H 171.654 3.59569 -1.46053 0
M  V30 1787 H 169.755 3.58784 1.00522 0
M  V30 1788 H 169.868 4.76856 -0.463187 0
M  V30 1789 H 168.232 2.54259 -0.149753 0
M  V30 1790 H 169.015 2.93951 -1.77335 0
M  V30 1791 N 171.46 0.379036 1.52974 0
M  V30 1792 C 172.408 -0.476033 2.27677 0
M  V30 1793 C 173.402 -1.0719 1.31174 0
M  V30 1794 O 174.608 -1.01355 1.48752 0
M  V30 1795 H 170.983 -0.172255 0.732006 0
M  V30 1796 H 172.954 0.175615 2.97883 0
M  V30 1797 C 171.703 -1.5967 3.0887 0
M  V30 1798 H 171.026 -1.1475 3.82978 0
M  V30 1799 H 172.466 -2.16943 3.64296 0
M  V30 1800 C 170.925 -2.54682 2.20542 0
M  V30 1801 O 171.455 -3.57836 1.82527 0
M  V30 1802 N 169.661 -2.24183 1.84907 0
M  V30 1803 H 169.208 -1.40333 2.1602 0
M  V30 1804 H 169.166 -2.88006 1.26096 0
M  V30 1805 N 172.938 -1.57226 0.108567 0
M  V30 1806 C 173.901 -2.13602 -0.831082 0
M  V30 1807 C 174.901 -1.06841 -1.20173 0
M  V30 1808 O 176.091 -1.32666 -1.12895 0
M  V30 1809 C 173.223 -2.66769 -2.12243 0
M  V30 1810 H 174.416 -2.97951 -0.341317 0
M  V30 1811 H 171.969 -1.55667 -0.14057 0
M  V30 1812 H 172.704 -1.85977 -2.65675 0
M  V30 1813 H 172.489 -3.44839 -1.86625 0
M  V30 1814 H 173.979 -3.10332 -2.79435 0
M  V30 1815 N 174.416 0.165178 -1.56732 0
M  V30 1816 C 175.665 0.879143 -1.81532 0
M  V30 1817 C 175.978 1.83144 -0.686842 0
M  V30 1818 O 177.184 2.58823 -0.819944 0
M  V30 1819 C 175.64 1.61388 -3.21686 0
M  V30 1820 C 175.248 0.704904 -4.4242 0
M  V30 1821 C 176.992 2.3157 -3.55774 0
M  V30 1822 C 174.899 1.44022 -5.73595 0
M  V30 1823 H 173.829 0.332033 -0.676957 0
M  V30 1824 H 176.48 0.132008 -1.83025 0
M  V30 1825 H 174.862 2.40599 -3.14529 0
M  V30 1826 H 176.036 -0.0506815 -4.60772 0
M  V30 1827 H 174.351 0.112419 -4.16248 0
M  V30 1828 H 176.948 2.8719 -4.51028 0
M  V30 1829 H 177.291 3.07201 -2.8095 0
M  V30 1830 H 177.824 1.59297 -3.64513 0
M  V30 1831 H 174.563 0.72612 -6.51466 0
M  V30 1832 H 174.083 2.16898 -5.5921 0
M  V30 1833 H 175.762 1.98606 -6.15764 0
M  V30 1834 N 175.894 1.51508 0.433938 0
M  V30 1835 C 177.142 1.6402 1.18075 0
M  V30 1836 C 177.463 0.360328 1.91642 0
M  V30 1837 O 176.733 -0.623945 1.85698 0
M  V30 1838 H 175.313 0.6045 0.43885 0
M  V30 1839 H 177.975 1.88452 0.497178 0
M  V30 1840 H 177.071 2.46949 1.90847 0
M  V30 1841 N 177.372 -0.689602 1.41712 0
M  V30 1842 C 178.788 -1.00093 1.24312 0
M  V30 1843 C 178.988 -2.01036 0.136729 0
M  V30 1844 O 178.044 -2.47562 -0.496918 0
M  V30 1845 C 179.357 -1.51985 2.59463 0
M  V30 1846 C 180.905 -1.63838 2.66695 0
M  V30 1847 C 181.38 -2.1913 4.02177 0
M  V30 1848 N 182.871 -2.26483 4.04054 0
M  V30 1849 C 183.606 -2.70306 5.0569 0
M  V30 1850 N 183.102 -3.13691 6.17713 0
M  V30 1851 N 184.895 -2.69923 4.9305 0
M  V30 1852 H 177.046 -0.0210029 2.1239 0
M  V30 1853 H 179.309 -0.0718733 0.945272 0
M  V30 1854 H 179.015 -0.85269 3.41207 0
M  V30 1855 H 178.889 -2.50103 2.82362 0
M  V30 1856 H 181.276 -2.29664 1.85306 0
M  V30 1857 H 181.357 -0.642492 2.476 0
M  V30 1858 H 181.001 -1.53918 4.84016 0
M  V30 1859 H 180.931 -3.19482 4.18615 0
M  V30 1860 H 183.422 -1.95874 3.23174 0
M  V30 1861 H 183.735 -3.45773 6.9113 0
M  V30 1862 H 182.08 -3.11585 6.21241 0
M  V30 1863 H 185.271 -2.35382 4.04614 0
M  V30 1864 H 185.444 -3.03758 5.72394 0
M  V30 1865 N 178.85 -1.27639 -0.924453 0
M  V30 1866 C 180.098 -1.13941 -1.66918 0
M  V30 1867 C 180.419 0.314589 -1.92446 0
M  V30 1868 O 179.689 1.21964 -1.53303 0
M  V30 1869 H 178.269 -0.418678 -0.618642 0
M  V30 1870 H 180.931 -1.60213 -1.10985 0
M  V30 1871 H 180.027 -1.67094 -2.63602 0
M  V30 1872 N 180.328 1.1314 -1.09713 0
M  V30 1873 C 181.275 2.18642 -0.739196 0
M  V30 1874 C 182.245 1.63706 0.280978 0
M  V30 1875 O 183.43 1.90111 0.161946 0
M  V30 1876 C 180.57 3.44685 -0.169102 0
M  V30 1877 C 179.683 4.13711 -1.24367 0
M  V30 1878 C 178.818 5.27379 -0.636019 0
M  V30 1879 C 177.857 5.88259 -1.69169 0
M  V30 1880 N 176.994 6.93352 -1.10485 0
M  V30 1881 H 181.834 2.48607 -1.64312 0
M  V30 1882 H 179.371 1.22066 -0.820875 0
M  V30 1883 H 181.329 4.16815 0.179256 0
M  V30 1884 H 179.959 3.15161 0.698079 0
M  V30 1885 H 179.011 3.39835 -1.70927 0
M  V30 1886 H 180.323 4.55037 -2.04311 0
M  V30 1887 H 179.477 6.06238 -0.236677 0
M  V30 1888 H 178.216 4.8731 0.194928 0
M  V30 1889 H 177.221 5.08092 -2.10055 0
M  V30 1890 H 178.446 6.30399 -2.52536 0
M  V30 1891 H 176.392 6.55335 -0.295234 0
M  V30 1892 H 176.309 7.33236 -1.84121 0
M  V30 1893 H 177.577 7.76057 -0.73181 0
M  V30 1894 N 181.806 0.884767 1.30421 0
M  V30 1895 C 183.052 0.513218 1.96819 0
M  V30 1896 C 183.407 -0.927347 1.68577 0
M  V30 1897 O 182.7 -1.64644 0.979941 0
M  V30 1898 C 182.894 0.724318 3.49983 0
M  V30 1899 C 182.723 2.18385 3.93113 0
M  V30 1900 C 181.493 2.82839 4.18725 0
M  V30 1901 C 183.691 3.15763 4.05953 0
M  V30 1902 N 181.673 4.1939 4.48314 0
M  V30 1903 C 183.044 4.37387 4.39423 0
M  V30 1904 C 185.099 3.11555 3.88379 0
M  V30 1905 C 183.802 5.55343 4.5715 0
M  V30 1906 C 185.828 4.28782 4.07308 0
M  V30 1907 C 185.19 5.49172 4.41123 0
M  V30 1908 H 181.289 0.237123 0.745182 0
M  V30 1909 H 183.873 1.14246 1.57658 0
M  V30 1910 H 182.044 0.124565 3.882 0
M  V30 1911 H 183.776 0.31969 4.03435 0
M  V30 1912 H 180.531 2.33708 4.11919 0
M  V30 1913 H 180.955 4.89911 4.67243 0
M  V30 1914 H 185.597 2.19576 3.61312 0
M  V30 1915 H 183.315 6.47826 4.8306 0
M  V30 1916 H 186.901 4.26995 3.95179 0
M  V30 1917 H 185.781 6.38371 4.55469 0
M  V30 1918 N 183.284 -1.43765 0.645699 0
M  V30 1919 C 184.53 -2.02731 0.164844 0
M  V30 1920 C 184.885 -1.49983 -1.2051 0
M  V30 1921 O 184.178 -0.680208 -1.79119 0
M  V30 1922 C 184.372 -3.57238 0.107679 0
M  V30 1923 C 184.201 -4.24977 1.47054 0
M  V30 1924 C 182.971 -4.61356 2.06103 0
M  V30 1925 C 185.169 -4.54476 2.40741 0
M  V30 1926 N 183.151 -5.14132 3.35473 0
M  V30 1927 C 184.522 -5.08489 3.54737 0
M  V30 1928 C 186.577 -4.36438 2.39637 0
M  V30 1929 C 185.28 -5.46364 4.67845 0
M  V30 1930 C 187.306 -4.7537 3.5182 0
M  V30 1931 C 186.668 -5.2951 4.64541 0
M  V30 1932 H 182.767 -0.774976 0.104578 0
M  V30 1933 H 185.351 -1.75051 0.852367 0
M  V30 1934 H 183.522 -3.84498 -0.549165 0
M  V30 1935 H 185.254 -4.0288 -0.383351 0
M  V30 1936 H 182.009 -4.46151 1.58892 0
M  V30 1937 H 182.433 -5.4498 4.01654 0
M  V30 1938 H 187.075 -3.93861 1.53731 0
M  V30 1939 H 184.793 -5.87888 5.54448 0
M  V30 1940 H 188.379 -4.63115 3.52159 0
M  V30 1941 H 187.259 -5.59077 5.49911 0
M  V30 1942 N 184.763 -0.387143 -1.52771 0
M  V30 1943 C 186.179 -0.037007 -1.59557 0
M  V30 1944 C 186.379 1.44801 -1.40124 0
M  V30 1945 O 185.435 2.21227 -1.21716 0
M  V30 1946 C 186.748 -0.512256 -2.96305 0
M  V30 1947 C 188.296 -0.468328 -3.09476 0
M  V30 1948 C 188.771 -0.919731 -4.4867 0
M  V30 1949 N 190.262 -0.875656 -4.54848 0
M  V30 1950 C 190.997 -1.19637 -5.6078 0
M  V30 1951 N 190.493 -1.58745 -6.74368 0
M  V30 1952 N 192.286 -1.11776 -5.50874 0
M  V30 1953 H 184.437 -1.35395 -1.63652 0
M  V30 1954 H 186.7 -0.554818 -0.768688 0
M  V30 1955 H 186.406 -1.54935 -3.15734 0
M  V30 1956 H 186.28 0.089805 -3.77093 0
M  V30 1957 H 188.667 0.559671 -2.89744 0
M  V30 1958 H 188.748 -1.10616 -2.30646 0
M  V30 1959 H 188.392 -1.94595 -4.69143 0
M  V30 1960 H 188.322 -0.258927 -5.25963 0
M  V30 1961 H 190.813 -0.587843 -3.733 0
M  V30 1962 H 191.126 -1.81586 -7.51163 0
M  V30 1963 H 189.471 -1.6263 -6.75705 0
M  V30 1964 H 192.662 -0.811264 -4.61016 0
M  V30 1965 H 192.835 -1.37103 -6.3333 0
M  V30 1966 N 186.241 1.57166 -0.116904 0
M  V30 1967 C 187.652 1.82169 0.408809 0
M  V30 1968 C 188.003 1.03393 1.66746 0
M  V30 1969 O 187.128 0.269886 2.1471 0
M  V30 1970 C 187.723 3.30429 0.748466 0
M  V30 1971 C 186.282 3.5612 1.21882 0
M  V30 1972 C 185.429 2.76374 0.226452 0
M  V30 1973 H 188.38 1.5497 -0.342063 0
M  V30 1974 H 188.401 3.44943 1.60607 0
M  V30 1975 H 187.913 3.87737 -0.167784 0
M  V30 1976 H 186.014 3.04168 2.15204 0
M  V30 1977 H 186.127 4.64705 1.16559 0
M  V30 1978 H 184.491 2.44515 0.713063 0
M  V30 1979 H 185.274 3.3644 -0.682859 0
M  V30 1980 N 187.719 -0.156864 1.56817 0
M  V30 1981 C 188.944 -0.890331 1.87318 0
M  V30 1982 C 189.369 -1.74394 0.704855 0
M  V30 1983 O 188.727 -1.77972 -0.345786 0
M  V30 1984 C 188.775 -1.73102 3.16336 0
M  V30 1985 O 187.879 -2.83422 2.99576 0
M  V30 1986 H 187.22 -0.24857 0.615718 0
M  V30 1987 H 189.75 -0.150649 2.04045 0
M  V30 1988 H 189.76 -2.12803 3.48107 0
M  V30 1989 H 188.435 -1.10412 4.00976 0
M  V30 1990 H 187.012 -2.47199 2.7919 0
M  V30 1991 N 189.197 -1.51736 -0.425897 0
M  V30 1992 C 190.445 -1.64644 -1.17204 0
M  V30 1993 C 190.766 -0.370486 -1.91448 0
M  V30 1994 O 190.036 0.614088 -1.86026 0
M  V30 1995 H 188.616 -0.606819 -0.435638 0
M  V30 1996 H 191.278 -1.88713 -0.487177 0
M  V30 1997 H 190.374 -2.47958 -1.89534 0
M  V30 1998 N 190.675 0.682077 -1.42076 0
M  V30 1999 C 192.086 1.26246 -1.37546 0
M  V30 2000 C 192.437 1.96092 -0.0651481 0
M  V30 2001 O 191.562 1.99587 0.836297 0
M  V30 2002 C 192.157 2.29594 -2.49143 0
M  V30 2003 C 190.716 2.83175 -2.47969 0
M  V30 2004 C 189.863 1.57395 -2.28303 0
M  V30 2005 H 192.814 0.475937 -1.51395 0
M  V30 2006 H 192.835 3.11175 -2.18976 0
M  V30 2007 H 192.347 1.78729 -3.44496 0
M  V30 2008 H 190.448 3.3818 -1.56413 0
M  V30 2009 H 190.561 3.32687 -3.44755 0
M  V30 2010 H 188.925 1.83699 -1.76428 0
M  V30 2011 H 189.708 1.08507 -3.25701 0
M  V30 2012 N 192.153 1.28127 0.917671 0
M  V30 2013 C 193.43 1.05761 1.64542 0
M  V30 2014 C 193.81 -0.404344 2.07191 0
M  V30 2015 O 193.158 -1.38963 1.81388 0
M  V30 2016 C 193.368 2.02857 2.83989 0
M  V30 2017 C 194.716 2.32786 3.551 0
M  V30 2018 O 195.74 2.0091 2.94132 0
M  V30 2019 O 194.599 2.87169 4.64969 0
M  V30 2020 H 191.693 0.403916 0.721652 0
M  V30 2021 H 194.239 1.39431 0.967322 0
M  V30 2022 H 193.011 3.01407 2.49538 0
M  V30 2023 H 192.634 1.69809 3.59514 0
M  V30 2024 N 193.631 -1.12557 1.10312 0
M  V30 2025 C 194.878 -1.84038 0.844759 0
M  V30 2026 C 195.206 -1.84026 -0.629668 0
M  V30 2027 O 194.461 -1.28026 -1.48013 0
M  V30 2028 C 194.76 -3.31462 1.33669 0
M  V30 2029 C 194.426 -3.51647 2.82232 0
M  V30 2030 C 193.088 -3.56864 3.22802 0
M  V30 2031 C 195.44 -3.58867 3.77974 0
M  V30 2032 C 192.768 -3.66844 4.57867 0
M  V30 2033 C 195.12 -3.70375 5.1284 0
M  V30 2034 C 193.784 -3.73848 5.52986 0
M  V30 2035 H 193.054 -0.673444 0.309119 0
M  V30 2036 H 195.701 -1.32824 1.37949 0
M  V30 2037 H 194.006 -3.85091 0.721949 0
M  V30 2038 H 195.703 -3.85236 1.11329 0
M  V30 2039 H 192.293 -3.48249 2.49842 0
M  V30 2040 H 196.477 -3.54107 3.47738 0
M  V30 2041 H 191.733 -3.67804 4.88396 0
M  V30 2042 H 195.907 -3.74904 5.86873 0
M  V30 2043 H 193.534 -3.81333 6.57639 0
M  V30 2044 N 195.109 -0.891671 -1.2995 0
M  V30 2045 C 196.525 -0.58662 -1.48428 0
M  V30 2046 C 196.725 0.873951 -1.81561 0
M  V30 2047 O 195.781 1.65471 -1.90724 0
M  V30 2048 C 197.094 -1.50553 -2.60296 0
M  V30 2049 C 198.642 -1.50988 -2.74175 0
M  V30 2050 C 199.117 -2.41488 -3.89163 0
M  V30 2051 N 200.608 -2.39489 -3.96483 0
M  V30 2052 C 201.343 -3.06223 -4.84784 0
M  V30 2053 N 200.839 -3.82206 -5.77833 0
M  V30 2054 N 202.632 -2.95421 -4.78208 0
M  V30 2055 H 194.783 -1.83644 -1.06718 0
M  V30 2056 H 197.046 -0.786455 -0.529332 0
M  V30 2057 H 196.752 -2.54581 -2.42654 0
M  V30 2058 H 196.626 -1.22008 -3.56923 0
M  V30 2059 H 199.013 -0.47708 -2.91218 0
M  V30 2060 H 199.094 -1.83567 -1.78148 0
M  V30 2061 H 198.738 -3.44857 -3.72876 0
M  V30 2062 H 198.668 -2.06222 -4.84541 0
M  V30 2063 H 201.159 -1.84278 -3.29924 0
M  V30 2064 H 201.472 -4.302 -6.41988 0
M  V30 2065 H 199.817 -3.86313 -5.77743 0
M  V30 2066 H 203.008 -2.35581 -4.04499 0
M  V30 2067 H 203.181 -3.47704 -5.46814 0
M  V30 2068 N 196.587 1.43421 -0.653314 0
M  V30 2069 C 197.827 2.03689 -0.170346 0
M  V30 2070 C 198.191 1.50427 1.19314 0
M  V30 2071 O 199.392 2.0234 1.76952 0
M  V30 2072 C 197.663 3.56946 -0.180183 0
M  V30 2073 S 199.222 4.38171 0.234925 0
M  V30 2074 H 196.04 0.707345 -0.0719976 0
M  V30 2075 H 198.642 1.75486 -0.86167 0
M  V30 2076 H 197.346 3.93212 -1.17526 0
M  V30 2077 H 196.877 3.89791 0.531675 0
M  V30 2078 H 198.892 4.73808 1.47378 0
M  V30 2079 N 198.065 0.39524 1.52563 0
M  V30 2080 C 199.314 -0.186321 2.00838 0
M  V30 2081 C 199.627 -1.47402 1.28577 0
M  V30 2082 O 200.833 -2.13599 1.67593 0
M  V30 2083 C 199.289 -0.382595 3.57861 0
M  V30 2084 C 198.897 0.892202 4.39026 0
M  V30 2085 C 200.641 -0.9202 4.14406 0
M  V30 2086 C 198.548 0.66388 5.87662 0
M  V30 2087 H 197.478 -0.0734041 0.750418 0
M  V30 2088 H 200.129 0.518552 1.76021 0
M  V30 2089 H 198.511 -1.14946 3.7895 0
M  V30 2090 H 199.685 1.66414 4.29701 0
M  V30 2091 H 198 1.35519 3.9373 0
M  V30 2092 H 200.597 -1.10683 5.23119 0
M  V30 2093 H 200.94 -1.89096 3.70875 0
M  V30 2094 H 201.473 -0.212751 3.97231 0
M  V30 2095 H 198.212 1.6058 6.35527 0
M  V30 2096 H 197.732 -0.0690193 5.9976 0
M  V30 2097 H 199.411 0.300699 6.46301 0
M  V30 2098 N 199.544 -1.57102 0.125237 0
M  V30 2099 C 200.955 -1.82384 -0.399142 0
M  V30 2100 C 201.306 -1.04276 -1.66195 0
M  V30 2101 O 200.431 -0.281269 -2.14564 0
M  V30 2102 C 201.026 -3.30821 -0.730932 0
M  V30 2103 C 199.585 -3.56762 -1.19992 0
M  V30 2104 C 198.732 -2.7649 -0.211792 0
M  V30 2105 H 201.683 -1.54786 0.350277 0
M  V30 2106 H 201.704 -3.4579 -1.58775 0
M  V30 2107 H 201.216 -3.87643 0.188345 0
M  V30 2108 H 199.317 -3.05305 -2.13588 0
M  V30 2109 H 199.43 -4.65317 -1.14093 0
M  V30 2110 H 197.794 -2.4489 -0.700085 0
M  V30 2111 H 198.577 -3.36073 0.700691 0
M  V30 2112 N 201.022 0.148545 -1.56898 0
M  V30 2113 C 202.299 0.890019 -1.74178 0
M  V30 2114 C 202.679 1.99407 -0.692839 0
M  V30 2115 O 202.027 2.26671 0.288505 0
M  V30 2116 C 202.237 1.43389 -3.18183 0
M  V30 2117 C 203.585 1.89791 -3.79822 0
M  V30 2118 O 204.609 1.53134 -3.21603 0
M  V30 2119 O 203.468 2.57387 -4.82093 0
M  V30 2120 H 200.562 0.420496 -0.712118 0
M  V30 2121 H 203.108 0.134591 -1.69165 0
M  V30 2122 H 201.88 0.640383 -3.86024 0
M  V30 2123 H 201.503 2.25287 -3.27615 0
M  V30 2124 N 202.5 1.5196 0.417844 0
M  V30 2125 C 203.916 1.40569 0.755816 0
M  V30 2126 C 204.116 0.503316 1.95113 0
M  V30 2127 O 203.172 -0.0341925 2.52477 0
M  V30 2128 C 204.485 2.82947 1.01791 0
M  V30 2129 C 206.033 2.92231 1.12116 0
M  V30 2130 C 206.508 4.35559 1.41608 0
M  V30 2131 N 207.999 4.38753 1.48491 0
M  V30 2132 C 208.734 5.46705 1.7292 0
M  V30 2133 N 208.23 6.64788 1.95011 0
M  V30 2134 N 210.023 5.34209 1.74863 0
M  V30 2135 H 202.174 2.09168 -0.369098 0
M  V30 2136 H 204.437 0.942409 -0.102809 0
M  V30 2137 H 204.143 3.5106 0.212081 0
M  V30 2138 H 204.017 3.23462 1.94042 0
M  V30 2139 H 206.404 2.24304 1.9176 0
M  V30 2140 H 206.485 2.55185 0.177225 0
M  V30 2141 H 206.129 5.04042 0.624848 0
M  V30 2142 H 206.059 4.70133 2.37239 0
M  V30 2143 H 208.55 3.5363 1.33244 0
M  V30 2144 H 208.863 7.42845 2.13076 0
M  V30 2145 H 207.208 6.67869 1.92293 0
M  V30 2146 H 210.399 4.40937 1.57137 0
M  V30 2147 H 210.572 6.18415 1.93563 0
M  V30 2148 N 203.978 -0.674533 1.42435 0
M  V30 2149 C 205.208 -1.46071 1.46105 0
M  V30 2150 C 205.616 -1.89067 0.0709605 0
M  V30 2151 O 204.959 -1.58731 -0.924677 0
M  V30 2152 C 205.021 -2.74145 2.32561 0
M  V30 2153 C 204.685 -2.53224 3.8043 0
M  V30 2154 C 205.682 -2.17809 4.72075 0
M  V30 2155 C 203.367 -2.6821 4.24698 0
M  V30 2156 C 205.361 -1.97648 6.05982 0
M  V30 2157 C 203.048 -2.47665 5.58664 0
M  V30 2158 C 204.046 -2.12437 6.49122 0
M  V30 2159 O 203.734 -1.9209 7.80613 0
M  V30 2160 H 203.466 -0.455959 0.499076 0
M  V30 2161 H 206.02 -0.836193 1.87609 0
M  V30 2162 H 204.25 -3.3908 1.85908 0
M  V30 2163 H 205.939 -3.36028 2.27683 0
M  V30 2164 H 206.705 -2.05826 4.39159 0
M  V30 2165 H 202.584 -2.94609 3.54579 0
M  V30 2166 H 206.128 -1.70075 6.7655 0
M  V30 2167 H 202.025 -2.59244 5.91154 0
M  V30 2168 H 202.793 -2.06686 7.91974 0
M  V30 2169 N 205.456 -1.28612 -0.910864 0
M  V30 2170 C 206.872 -1.06381 -1.18976 0
M  V30 2171 C 207.072 0.191998 -2.00583 0
M  V30 2172 O 206.128 0.892869 -2.36187 0
M  V30 2173 C 207.441 -2.31295 -1.92154 0
M  V30 2174 C 208.989 -2.36503 -2.05025 0
M  V30 2175 C 209.464 -3.61191 -2.81612 0
M  V30 2176 N 210.955 -3.61847 -2.89172 0
M  V30 2177 C 211.69 -4.55004 -3.4894 0
M  V30 2178 N 211.186 -5.58482 -4.09963 0
M  V30 2179 N 212.979 -4.42594 -3.46506 0
M  V30 2180 H 205.13 -2.09221 -0.366094 0
M  V30 2181 H 207.393 -0.921003 -0.224629 0
M  V30 2182 H 207.099 -3.228 -1.39618 0
M  V30 2183 H 206.973 -2.37934 -2.9269 0
M  V30 2184 H 209.36 -1.45494 -2.5674 0
M  V30 2185 H 209.441 -2.33857 -1.03657 0
M  V30 2186 H 209.085 -4.52545 -2.30576 0
M  V30 2187 H 209.015 -3.61092 -3.83302 0
M  V30 2188 H 211.506 -2.87022 -2.45819 0
M  V30 2189 H 211.819 -6.25704 -4.53557 0
M  V30 2190 H 210.164 -5.62305 -4.08459 0
M  V30 2191 H 213.355 -3.60953 -2.98045 0
M  V30 2192 H 213.528 -5.15381 -3.92793 0
M  V30 2193 N 206.934 1.1197 -1.10907 0
M  V30 2194 C 207.897 2.16031 -0.765707 0
M  V30 2195 C 208.897 1.59393 0.212235 0
M  V30 2196 O 210.087 1.74196 -0.0115441 0
M  V30 2197 C 207.219 3.40632 -0.135053 0
M  V30 2198 H 208.412 2.47919 -1.68748 0
M  V30 2199 H 205.965 1.27061 -0.910226 0
M  V30 2200 H 206.7 3.14348 0.797218 0
M  V30 2201 H 206.485 3.8302 -0.838937 0
M  V30 2202 H 207.975 4.17505 0.0892469 0
M  V30 2203 N 208.412 0.89855 1.29475 0
M  V30 2204 C 209.344 0.332726 2.26772 0
M  V30 2205 C 210.357 -0.520323 1.54261 0
M  V30 2206 O 211.546 -0.337668 1.75277 0
M  V30 2207 C 208.646 -0.544334 3.345 0
M  V30 2208 C 207.819 0.282728 4.36485 0
M  V30 2209 C 206.878 -0.526982 5.23555 0
M  V30 2210 O 205.904 0.0551165 5.69173 0
M  V30 2211 N 207.106 -1.83331 5.5079 0
M  V30 2212 H 209.871 1.16897 2.75962 0
M  V30 2213 H 207.432 0.762919 1.42798 0
M  V30 2214 H 209.424 -1.09239 3.89678 0
M  V30 2215 H 207.994 -1.28127 2.85136 0
M  V30 2216 H 207.214 1.01221 3.80983 0
M  V30 2217 H 208.502 0.84918 5.01664 0
M  V30 2218 H 207.9 -2.32898 5.15534 0
M  V30 2219 H 206.457 -2.32852 6.08788 0
M  V30 2220 N 209.89 -1.43072 0.660911 0
M  V30 2221 C 211.306 -1.56169 0.329173 0
M  V30 2222 C 211.506 -1.64317 -1.16629 0
M  V30 2223 O 210.562 -1.60245 -1.95135 0
M  V30 2224 C 211.875 -2.81873 1.04729 0
M  V30 2225 C 213.423 -2.95627 1.02828 0
M  V30 2226 C 213.898 -4.24174 1.72744 0
M  V30 2227 N 215.389 -4.31055 1.69545 0
M  V30 2228 C 216.124 -5.29304 2.20511 0
M  V30 2229 N 215.62 -6.33786 2.79799 0
M  V30 2230 N 217.413 -5.21008 2.10966 0
M  V30 2231 H 209.564 -1.36027 1.63127 0
M  V30 2232 H 211.827 -0.653823 0.686454 0
M  V30 2233 H 211.533 -2.81942 2.10242 0
M  V30 2234 H 211.407 -3.72338 0.603702 0
M  V30 2235 H 213.794 -2.95094 -0.0184742 0
M  V30 2236 H 213.875 -2.06431 1.51063 0
M  V30 2237 H 213.519 -4.25467 2.7738 0
M  V30 2238 H 213.449 -5.1228 1.2197 0
M  V30 2239 H 215.94 -3.56174 1.26288 0
M  V30 2240 H 216.253 -7.05086 3.16344 0
M  V30 2241 H 214.598 -6.34387 2.83863 0
M  V30 2242 H 217.789 -4.38301 1.64347 0
M  V30 2243 H 217.962 -5.97416 2.50993 0
M  V30 2244 N 211.368 -0.403325 -1.52352 0
M  V30 2245 C 212.614 0.174605 -2.02047 0
M  V30 2246 C 212.947 1.45282 -1.28867 0
M  V30 2247 O 212.222 1.90483 -0.393257 0
M  V30 2248 C 212.505 0.428238 -3.57545 0
M  V30 2249 C 212.358 -0.866248 -4.4138 0
M  V30 2250 C 213.677 1.21287 -4.23057 0
M  V30 2251 H 210.796 0.0619851 -0.734389 0
M  V30 2252 H 213.438 -0.53565 -1.82293 0
M  V30 2253 H 211.588 1.03327 -3.74507 0
M  V30 2254 H 213.26 -1.50265 -4.3614 0
M  V30 2255 H 211.503 -1.47851 -4.07827 0
M  V30 2256 H 212.174 -0.643249 -5.48239 0
M  V30 2257 H 214.65 0.700703 -4.10158 0
M  V30 2258 H 213.526 1.35909 -5.31808 0
M  V30 2259 H 213.787 2.23193 -3.81625 0
M  V30 2260 N 212.846 1.57033 -0.133567 0
M  V30 2261 C 213.778 2.13176 0.841944 0
M  V30 2262 C 214.791 1.07794 1.22001 0
M  V30 2263 O 215.98 1.35117 1.16643 0
M  V30 2264 C 213.08 2.62847 2.13926 0
M  V30 2265 C 212.253 3.92486 1.93064 0
M  V30 2266 C 211.312 4.27605 3.0666 0
M  V30 2267 O 210.338 4.96168 2.78937 0
M  V30 2268 N 211.54 3.861 4.33483 0
M  V30 2269 H 214.305 2.97503 0.362192 0
M  V30 2270 H 211.866 1.61821 0.05042 0
M  V30 2271 H 213.858 2.83363 2.88942 0
M  V30 2272 H 212.428 1.83319 2.53205 0
M  V30 2273 H 211.648 3.80732 1.02159 0
M  V30 2274 H 212.936 4.77225 1.76447 0
M  V30 2275 H 212.334 3.30828 4.58878 0
M  V30 2276 H 210.891 4.11694 5.05323 0
M  V30 2277 N 214.325 -0.140222 1.56975 0
M  V30 2278 C 215.255 -1.17456 2.01808 0
M  V30 2279 C 216.236 -1.44415 0.898794 0
M  V30 2280 O 217.421 -1.5522 1.16707 0
M  V30 2281 C 214.551 -2.50607 2.40444 0
M  V30 2282 C 213.505 -2.38155 3.55621 0
M  V30 2283 C 212.831 -3.76078 3.80091 0
M  V30 2284 C 214.131 -1.85991 4.88062 0
M  V30 2285 H 215.825 -0.801743 2.88466 0
M  V30 2286 H 213.371 -0.38422 1.38779 0
M  V30 2287 H 215.324 -3.23197 2.7041 0
M  V30 2288 H 214.048 -2.89737 1.50732 0
M  V30 2289 H 212.707 -1.68016 3.25832 0
M  V30 2290 H 212.355 -4.12656 2.87618 0
M  V30 2291 H 212.055 -3.68606 4.57606 0
M  V30 2292 H 213.579 -4.50206 4.12488 0
M  V30 2293 H 214.993 -2.4838 5.16701 0
M  V30 2294 H 213.39 -1.89393 5.6943 0
M  V30 2295 H 214.46 -0.816023 4.77984 0
M  V30 2296 N 215.803 -1.52179 -0.40978 0
M  V30 2297 C 216.733 -1.78435 -1.5061 0
M  V30 2298 C 217.714 -0.635295 -1.57791 0
M  V30 2299 O 218.899 -0.880823 -1.73076 0
M  V30 2300 C 216.029 -1.93444 -2.88439 0
M  V30 2301 C 214.983 -3.09038 -2.96108 0
M  V30 2302 C 214.309 -3.09268 -4.36185 0
M  V30 2303 C 215.609 -4.48508 -2.67652 0
M  V30 2304 H 217.303 -2.70237 -1.28889 0
M  V30 2305 H 214.849 -1.30036 -0.618605 0
M  V30 2306 H 216.802 -2.10394 -3.65119 0
M  V30 2307 H 215.526 -0.983129 -3.11452 0
M  V30 2308 H 214.185 -2.91837 -2.21872 0
M  V30 2309 H 213.833 -2.11861 -4.56206 0
M  V30 2310 H 213.533 -3.86907 -4.42241 0
M  V30 2311 H 215.057 -3.28348 -5.14801 0
M  V30 2312 H 216.471 -4.65918 -3.34056 0
M  V30 2313 H 214.868 -5.28059 -2.85085 0
M  V30 2314 H 215.938 -4.56649 -1.63095 0
M  V30 2315 N 217.281 0.66697 -1.42791 0
M  V30 2316 C 218.521 1.43892 -1.4517 0
M  V30 2317 C 218.885 1.91877 -0.0687551 0
M  V30 2318 O 220.086 2.6878 0.0327455 0
M  V30 2319 C 218.357 2.59839 -2.45395 0
M  V30 2320 S 219.916 3.48572 -2.66539 0
M  V30 2321 H 216.734 0.491356 -0.513897 0
M  V30 2322 H 219.336 0.775656 -1.79454 0
M  V30 2323 H 218.04 2.22838 -3.44632 0
M  V30 2324 H 217.571 3.3103 -2.12562 0
M  V30 2325 H 219.586 4.56094 -1.95429 0
M  V30 2326 N 218.759 1.29093 0.90403 0
M  V30 2327 C 220.17 1.15186 1.46932 0
M  V30 2328 C 220.521 -0.254587 1.94541 0
M  V30 2329 O 219.646 -1.14972 1.83332 0
M  V30 2330 C 220.241 2.08492 2.67051 0
M  V30 2331 C 218.8 1.98621 3.19729 0
M  V30 2332 C 217.947 1.9967 1.92425 0
M  V30 2333 H 220.898 1.41641 0.715789 0
M  V30 2334 H 220.919 1.65461 3.42641 0
M  V30 2335 H 220.431 3.10847 2.3237 0
M  V30 2336 H 218.532 0.993389 3.59114 0
M  V30 2337 H 218.645 2.86068 3.8432 0
M  V30 2338 H 217.009 1.44208 2.09943 0
M  V30 2339 H 217.792 3.03721 1.60026 0
M  V30 2340 N 220.237 -1.11381 1.11499 0
M  V30 2341 C 221.485 -1.8277 0.862524 0
M  V30 2342 C 221.806 -1.85097 -0.613534 0
M  V30 2343 O 221.076 -1.32198 -1.4457 0
M  V30 2344 H 219.656 -0.676823 0.316101 0
M  V30 2345 H 222.318 -1.34816 1.4075 0
M  V30 2346 H 221.414 -2.86614 1.23527 0
M  V30 2347 N 221.715 -0.905404 -1.28997 0
M  V30 2348 C 222.963 -0.533192 -1.9494 0
M  V30 2349 C 223.284 0.924618 -1.71685 0
M  V30 2350 O 222.554 1.65268 -1.05183 0
M  V30 2351 H 221.134 -0.194194 -0.721317 0
M  V30 2352 H 223.796 -1.15294 -1.57141 0
M  V30 2353 H 222.892 -0.72059 -3.03667 0
M  V30 2354 N 223.193 1.4272 -0.668489 0
M  V30 2355 C 224.103 2.34596 0.0139753 0
M  V30 2356 C 225.119 1.5474 0.795703 0
M  V30 2357 O 226.295 1.87334 0.739466 0
M  V30 2358 C 223.36 3.33202 0.957982 0
M  V30 2359 C 222.421 4.28957 0.17149 0
M  V30 2360 C 221.654 5.22853 1.07053 0
M  V30 2361 O 221.877 5.21531 2.31001 0
M  V30 2362 O 220.811 5.9952 0.534727 0
M  V30 2363 H 224.637 2.9448 -0.742661 0
M  V30 2364 H 222.222 1.43117 -0.428705 0
M  V30 2365 H 224.104 3.93796 1.50008 0
M  V30 2366 H 222.779 2.758 1.69458 0
M  V30 2367 H 221.686 3.71796 -0.414558 0
M  V30 2368 H 223.019 4.89383 -0.52586 0
M  V30 2369 N 224.671 0.411399 1.52136 0
M  V30 2370 C 225.634 -0.401089 2.25663 0
M  V30 2371 C 226.634 -0.971732 1.28117 0
M  V30 2372 O 227.824 -0.850254 1.52041 0
M  V30 2373 C 224.956 -1.56483 3.02863 0
M  V30 2374 H 226.149 0.24295 2.98914 0
M  V30 2375 H 223.702 0.163968 1.55438 0
M  V30 2376 H 224.437 -2.24567 2.33967 0
M  V30 2377 H 224.222 -1.16211 3.74483 0
M  V30 2378 H 225.712 -2.13951 3.58629 0
M  V30 2379 N 226.149 -1.5696 0.141893 0
M  V30 2380 C 227.56 -1.82797 -0.379776 0
M  V30 2381 C 227.911 -1.06033 -1.6508 0
M  V30 2382 O 227.036 -0.304011 -2.14254 0
M  V30 2383 C 227.631 -3.31578 -0.695802 0
M  V30 2384 C 226.19 -3.58014 -1.16201 0
M  V30 2385 C 225.337 -2.76699 -0.182455 0
M  V30 2386 H 228.288 -1.54406 0.366675 0
M  V30 2387 H 228.309 -3.47454 -1.55099 0
M  V30 2388 H 227.821 -3.87421 0.229449 0
M  V30 2389 H 225.922 -3.07553 -2.10338 0
M  V30 2390 H 226.035 -4.66501 -1.09151 0
M  V30 2391 H 224.399 -2.45618 -0.674072 0
M  V30 2392 H 225.182 -3.35311 0.736297 0
M  V30 2393 N 227.627 0.131896 -1.57047 0
M  V30 2394 C 229.043 0.485031 -1.52051 0
M  V30 2395 C 229.243 1.82563 -0.85281 0
M  V30 2396 O 228.299 2.48817 -0.429694 0
M  V30 2397 C 229.612 0.481409 -2.96821 0
M  V30 2398 C 231.16 0.565868 -3.07842 0
M  V30 2399 C 231.635 0.592762 -4.54148 0
M  V30 2400 N 233.126 0.654564 -4.58552 0
M  V30 2401 C 233.861 0.696608 -5.69153 0
M  V30 2402 N 233.357 0.697078 -6.89284 0
M  V30 2403 N 235.15 0.738639 -5.57226 0
M  V30 2404 H 227.301 -0.746664 -1.98843 0
M  V30 2405 H 229.564 -0.273999 -0.90754 0
M  V30 2406 H 229.27 -0.435731 -3.4899 0
M  V30 2407 H 229.144 1.3139 -3.53577 0
M  V30 2408 H 231.531 1.47343 -2.55684 0
M  V30 2409 H 231.612 -0.29406 -2.54104 0
M  V30 2410 H 231.256 -0.310701 -5.06949 0
M  V30 2411 H 231.186 1.46939 -5.05684 0
M  V30 2412 H 233.677 0.660887 -3.72076 0
M  V30 2413 H 233.99 0.731426 -7.69331 0
M  V30 2414 H 232.335 0.66471 -6.91814 0
M  V30 2415 H 235.526 0.735545 -4.62285 0
M  V30 2416 H 235.699 0.767938 -6.43434 0
M  V30 2417 N 229.106 1.52395 0.401703 0
M  V30 2418 C 230.069 1.75636 1.47257 0
M  V30 2419 C 231.069 0.62628 1.48103 0
M  V30 2420 O 232.259 0.894227 1.49497 0
M  V30 2421 C 229.391 1.84553 2.86624 0
M  V30 2422 H 230.584 2.71241 1.27938 0
M  V30 2423 H 228.137 1.42923 0.632662 0
M  V30 2424 H 228.872 0.908882 3.11303 0
M  V30 2425 H 228.657 2.66715 2.87412 0
M  V30 2426 H 230.147 2.04251 3.64241 0
M  V30 2427 N 230.584 -0.659388 1.43143 0
M  V30 2428 C 232 -0.974337 1.26407 0
M  V30 2429 C 232.2 -2.007 0.179341 0
M  V30 2430 O 231.256 -2.4856 -0.444295 0
M  V30 2431 C 232.569 -1.46447 2.62628 0
M  V30 2432 C 234.117 -1.58144 2.7011 0
M  V30 2433 C 234.592 -2.1055 4.06734 0
M  V30 2434 N 236.083 -2.17861 4.08767 0
M  V30 2435 C 236.818 -2.59519 5.1131 0
M  V30 2436 N 236.314 -3.00518 6.24228 0
M  V30 2437 N 238.107 -2.59404 4.98664 0
M  V30 2438 H 230.258 0.0240528 2.12386 0
M  V30 2439 H 232.521 -0.0518065 0.946583 0
M  V30 2440 H 232.227 -0.780123 3.42939 0
M  V30 2441 H 232.101 -2.44058 2.87603 0
M  V30 2442 H 234.488 -2.25682 1.90136 0
M  V30 2443 H 234.569 -0.589828 2.48907 0
M  V30 2444 H 234.213 -1.43616 4.87172 0
M  V30 2445 H 234.143 -3.10531 4.25298 0
M  V30 2446 H 236.634 -1.88975 3.27257 0
M  V30 2447 H 236.947 -3.31036 6.98309 0
M  V30 2448 H 235.292 -2.98337 6.2771 0
M  V30 2449 H 238.483 -2.26747 4.09516 0
M  V30 2450 H 238.656 -2.91548 5.78709 0
M  V30 2451 N 232.062 -1.29571 -0.897171 0
M  V30 2452 C 233.009 -1.14916 -2.00158 0
M  V30 2453 C 233.979 -0.0418149 -1.66047 0
M  V30 2454 O 235.164 -0.209793 -1.89643 0
M  V30 2455 C 232.304 -0.834307 -3.34863 0
M  V30 2456 C 231.417 -2.02234 -3.8174 0
M  V30 2457 C 230.552 -1.64664 -5.05034 0
M  V30 2458 C 229.591 -2.80033 -5.44286 0
M  V30 2459 N 228.728 -2.42843 -6.58765 0
M  V30 2460 H 233.568 -2.09403 -2.12025 0
M  V30 2461 H 231.105 -1.042 -1.0383 0
M  V30 2462 H 233.063 -0.632436 -4.12379 0
M  V30 2463 H 231.693 0.0736656 -3.22716 0
M  V30 2464 H 230.745 -2.33583 -3.00238 0
M  V30 2465 H 232.057 -2.88673 -4.06779 0
M  V30 2466 H 231.211 -1.4078 -5.9014 0
M  V30 2467 H 229.95 -0.753766 -4.8184 0
M  V30 2468 H 228.955 -3.04596 -4.57713 0
M  V30 2469 H 230.18 -3.69989 -5.6946 0
M  V30 2470 H 228.126 -1.56046 -6.3717 0
M  V30 2471 H 228.043 -3.22815 -6.83613 0
M  V30 2472 H 229.311 -2.22285 -7.47134 0
M  V30 2473 N 233.54 1.10788 -1.12088 0
M  V30 2474 C 234.786 1.82942 -0.875226 0
M  V30 2475 C 235.119 1.84779 0.597538 0
M  V30 2476 O 234.394 1.30578 1.44152 0
M  V30 2477 C 234.677 3.29789 -1.44606 0
M  V30 2478 C 234.53 3.36307 -2.98693 0
M  V30 2479 C 235.849 4.26064 -1.10261 0
M  V30 2480 H 232.968 0.664195 -0.319397 0
M  V30 2481 H 235.61 1.29867 -1.38689 0
M  V30 2482 H 233.76 3.75118 -1.01089 0
M  V30 2483 H 235.432 2.99487 -3.50864 0
M  V30 2484 H 233.675 2.76318 -3.34411 0
M  V30 2485 H 234.346 4.39694 -3.33726 0
M  V30 2486 H 236.822 3.88951 -1.4784 0
M  V30 2487 H 235.698 5.27183 -1.52869 0
M  V30 2488 H 235.959 4.42098 -0.0142953 0
M  V30 2489 N 235.018 0.912232 1.28515 0
M  V30 2490 C 236.434 0.610159 1.47476 0
M  V30 2491 C 236.634 -0.844955 1.82928 0
M  V30 2492 O 235.69 -1.62416 1.93332 0
M  V30 2493 C 237.003 1.54675 2.57868 0
M  V30 2494 C 238.551 1.55331 2.71738 0
M  V30 2495 C 239.026 2.47649 3.85272 0
M  V30 2496 N 240.517 2.45767 3.92623 0
M  V30 2497 C 241.252 3.13896 4.79851 0
M  V30 2498 N 240.748 3.9135 5.71679 0
M  V30 2499 N 242.541 3.02991 4.73448 0
M  V30 2500 H 234.692 1.85318 1.03783 0
M  V30 2501 H 236.955 0.794777 0.516753 0
M  V30 2502 H 236.661 2.5841 2.38574 0
M  V30 2503 H 236.535 1.27671 3.54937 0
M  V30 2504 H 238.922 0.52335 2.90422 0
M  V30 2505 H 239.003 1.86378 1.75205 0
M  V30 2506 H 238.647 3.50745 3.67342 0
M  V30 2507 H 238.577 2.13904 4.81199 0
M  V30 2508 H 241.068 1.89503 3.26951 0
M  V30 2509 H 241.381 4.40359 6.35062 0
M  V30 2510 H 239.726 3.95455 5.71524 0
M  V30 2511 H 242.917 2.41987 4.007 0
M  V30 2512 H 243.09 3.5636 5.41213 0
M  V30 2513 N 236.496 -1.42363 0.676048 0
M  V30 2514 C 237.426 -2.33497 0.0124832 0
M  V30 2515 C 238.407 -1.50748 -0.787981 0
M  V30 2516 O 239.592 -1.79346 -0.744884 0
M  V30 2517 C 236.722 -3.34377 -0.938582 0
M  V30 2518 C 235.676 -4.27289 -0.246622 0
M  V30 2519 C 235.002 -5.18386 -1.31071 0
M  V30 2520 C 236.302 -5.14916 0.875125 0
M  V30 2521 H 237.996 -2.89233 0.773593 0
M  V30 2522 H 235.542 -1.39073 0.37346 0
M  V30 2523 H 237.495 -3.97044 -1.41188 0
M  V30 2524 H 236.219 -2.76947 -1.73113 0
M  V30 2525 H 234.878 -3.66018 0.206456 0
M  V30 2526 H 234.526 -4.57282 -2.09528 0
M  V30 2527 H 234.226 -5.81378 -0.852839 0
M  V30 2528 H 235.75 -5.83929 -1.78492 0
M  V30 2529 H 237.164 -5.71262 0.482983 0
M  V30 2530 H 235.561 -5.86747 1.25887 0
M  V30 2531 H 236.631 -4.53242 1.72335 0
M  V30 2532 N 237.974 -0.419461 -1.51915 0
M  V30 2533 C 239.22 0.153166 -2.02221 0
M  V30 2534 C 239.553 1.43907 -1.30401 0
M  V30 2535 O 238.828 1.90055 -0.413438 0
M  V30 2536 C 239.111 0.390291 -3.57979 0
M  V30 2537 C 238.964 -0.913014 -4.40436 0
M  V30 2538 C 240.283 1.16794 -4.2432 0
M  V30 2539 H 237.402 0.0541924 -0.735005 0
M  V30 2540 H 240.044 -0.554955 -1.81715 0
M  V30 2541 H 238.194 0.993491 -3.75582 0
M  V30 2542 H 239.866 -1.54882 -4.34522 0
M  V30 2543 H 238.109 -1.52168 -4.06236 0
M  V30 2544 H 238.78 -0.701361 -5.47526 0
M  V30 2545 H 241.256 0.657161 -4.10878 0
M  V30 2546 H 240.132 1.3026 -5.3322 0
M  V30 2547 H 240.393 2.19132 -3.83971 0
M  V30 2548 N 239.452 1.56882 -0.150215 0
M  V30 2549 C 240.415 2.1573 0.774157 0
M  V30 2550 C 241.415 1.0999 1.17298 0
M  V30 2551 O 242.605 1.35613 1.09338 0
M  V30 2552 C 239.737 2.72302 2.05096 0
M  V30 2553 H 240.93 2.98752 0.262201 0
M  V30 2554 H 238.483 1.55985 0.099248 0
M  V30 2555 H 239.218 1.92956 2.6065 0
M  V30 2556 H 239.003 3.49665 1.77416 0
M  V30 2557 H 240.493 3.17632 2.71109 0
M  V30 2558 N 240.93 -0.123565 1.57115 0
M  V30 2559 C 242.155 -0.850398 1.89164 0
M  V30 2560 C 242.58 -1.7286 0.741688 0
M  V30 2561 O 241.938 -1.78665 -0.307958 0
M  V30 2562 C 241.986 -1.66353 3.19936 0
M  V30 2563 O 241.09 -2.77004 3.0552 0
M  V30 2564 H 240.431 -0.235454 0.620852 0
M  V30 2565 H 242.961 -0.107335 2.04318 0
M  V30 2566 H 242.971 -2.05372 3.52543 0
M  V30 2567 H 241.646 -1.01881 4.03228 0
M  V30 2568 H 240.223 -2.41221 2.84371 0
M  V30 2569 N 242.408 -1.52605 -0.393616 0
M  V30 2570 C 243.648 -1.6911 -1.1481 0
M  V30 2571 C 244.012 -0.41969 -1.87357 0
M  V30 2572 O 245.213 -0.461034 -2.64817 0
M  V30 2573 C 243.484 -2.88909 -2.10395 0
M  V30 2574 S 245.043 -3.25977 -2.93742 0
M  V30 2575 H 241.861 -0.595337 -0.38871 0
M  V30 2576 H 244.463 -1.90641 -0.433178 0
M  V30 2577 H 243.167 -3.79672 -1.55812 0
M  V30 2578 H 242.698 -2.69698 -2.86403 0
M  V30 2579 H 244.713 -2.75806 -4.12487 0
M  V30 2580 N 243.887 0.651787 -1.4349 0
M  V30 2581 C 244.834 1.76462 -1.4876 0
M  V30 2582 C 245.804 1.62641 -0.337189 0
M  V30 2583 O 246.989 1.82864 -0.544544 0
M  V30 2584 C 244.129 3.14623 -1.41796 0
M  V30 2585 C 243.242 3.39568 -2.67053 0
M  V30 2586 C 242.377 4.67585 -2.52068 0
M  V30 2587 C 241.416 4.85639 -3.72587 0
M  V30 2588 N 240.553 6.04915 -3.56402 0
M  V30 2589 H 245.393 1.71293 -2.43849 0
M  V30 2590 H 242.93 0.835889 -1.21043 0
M  V30 2591 H 244.888 3.94496 -1.35753 0
M  V30 2592 H 243.518 3.18859 -0.50288 0
M  V30 2593 H 242.57 2.53783 -2.8337 0
M  V30 2594 H 243.882 3.48795 -3.56572 0
M  V30 2595 H 243.036 5.55586 -2.4374 0
M  V30 2596 H 241.775 4.60681 -1.60075 0
M  V30 2597 H 240.78 3.96073 -3.81321 0
M  V30 2598 H 242.005 4.94372 -4.65589 0
M  V30 2599 H 239.951 5.9914 -2.67146 0
M  V30 2600 H 239.868 6.15106 -4.39524 0
M  V30 2601 H 241.136 6.95533 -3.51929 0
M  V30 2602 N 245.365 1.30045 0.890287 0
M  V30 2603 C 246.605 1.19839 1.65584 0
M  V30 2604 C 246.969 -0.244175 1.90441 0
M  V30 2605 O 248.17 -0.469378 2.6467 0
M  V30 2606 C 246.441 1.99876 2.96284 0
M  V30 2607 S 248 2.06309 3.87275 0
M  V30 2608 H 244.818 0.427157 0.568382 0
M  V30 2609 H 247.42 1.64453 1.05715 0
M  V30 2610 H 246.124 3.03809 2.75913 0
M  V30 2611 H 245.655 1.55903 3.61189 0
M  V30 2612 H 247.67 1.18661 4.81803 0
M  V30 2613 N 246.843 -1.10192 1.12674 0
M  V30 2614 C 247.79 -2.16606 0.796906 0
M  V30 2615 C 248.76 -1.64394 -0.237476 0
M  V30 2616 O 249.945 -1.90474 -0.111484 0
M  V30 2617 C 247.085 -3.44116 0.26043 0
M  V30 2618 C 246.198 -4.10268 1.35293 0
M  V30 2619 C 245.333 -5.25507 0.775621 0
M  V30 2620 C 244.372 -5.83567 1.84706 0
M  V30 2621 N 243.509 -6.90179 1.28829 0
M  V30 2622 H 248.349 -2.44163 1.70846 0
M  V30 2623 H 245.886 -1.19846 0.85295 0
M  V30 2624 H 247.844 -4.17143 -0.0686814 0
M  V30 2625 H 246.474 -3.16901 -0.614274 0
M  V30 2626 H 245.526 -3.35184 1.79877 0
M  V30 2627 H 246.838 -4.4946 2.16303 0
M  V30 2628 H 245.992 -6.05398 0.397327 0
M  V30 2629 H 244.731 -4.87656 -0.0656581 0
M  V30 2630 H 243.736 -5.02344 2.23452 0
M  V30 2631 H 244.961 -6.23482 2.69161 0
M  V30 2632 H 242.907 -6.54322 0.468881 0
M  V30 2633 H 242.824 -7.28097 2.03497 0
M  V30 2634 H 244.092 -7.73844 0.937311 0
M  V30 2635 N 248.321 -0.919034 -1.28029 0
M  V30 2636 C 249.737 -0.617972 -1.4715 0
M  V30 2637 C 249.937 0.835242 -1.83374 0
M  V30 2638 O 248.993 1.61388 -1.94191 0
M  V30 2639 C 250.306 -1.56041 -2.57044 0
M  V30 2640 C 251.854 -1.56769 -2.7091 0
M  V30 2641 C 252.329 -2.49688 -3.83953 0
M  V30 2642 N 253.82 -2.47845 -3.91314 0
M  V30 2643 C 254.555 -3.16437 -4.78179 0
M  V30 2644 N 254.051 -3.94376 -5.69596 0
M  V30 2645 N 255.844 -3.05498 -4.71834 0
M  V30 2646 H 247.995 -1.85866 -1.02798 0
M  V30 2647 H 250.258 -0.797506 -0.512531 0
M  V30 2648 H 249.964 -2.59671 -2.372 0
M  V30 2649 H 249.838 -1.29551 -3.54255 0
M  V30 2650 H 252.225 -0.538745 -2.90141 0
M  V30 2651 H 252.306 -1.87305 -1.74214 0
M  V30 2652 H 251.95 -3.52688 -3.65477 0
M  V30 2653 H 251.88 -2.16453 -4.80058 0
M  V30 2654 H 254.371 -1.91234 -3.25941 0
M  V30 2655 H 254.684 -4.43721 -6.32718 0
M  V30 2656 H 253.029 -3.98481 -5.69419 0
M  V30 2657 H 256.22 -2.44108 -3.99411 0
M  V30 2658 H 256.393 -3.59225 -5.39316 0
M  V30 2659 N 249.799 1.42003 -0.683588 0
M  V30 2660 C 250.729 2.33487 -0.024866 0
M  V30 2661 C 251.71 1.51163 0.779975 0
M  V30 2662 O 252.895 1.79739 0.735362 0
M  V30 2663 C 250.025 3.3487 0.920836 0
M  V30 2664 C 248.979 4.27414 0.223958 0
M  V30 2665 C 248.305 5.19074 1.2832 0
M  V30 2666 C 249.605 5.14445 -0.90242 0
M  V30 2667 H 251.299 2.88819 -0.788921 0
M  V30 2668 H 248.845 1.38873 -0.38083 0
M  V30 2669 H 250.798 3.97787 1.39081 0
M  V30 2670 H 249.522 2.77861 1.71642 0
M  V30 2671 H 248.181 3.65904 -0.225864 0
M  V30 2672 H 247.829 4.58387 2.071 0
M  V30 2673 H 247.529 5.81822 0.821995 0
M  V30 2674 H 249.053 5.84867 1.75392 0
M  V30 2675 H 250.467 5.70998 -0.513272 0
M  V30 2676 H 248.864 5.86072 -1.28997 0
M  V30 2677 H 249.934 4.52322 -1.74737 0
M  V30 2678 N 251.277 0.427512 1.51691 0
M  V30 2679 C 252.505 -0.141191 2.06418 0
M  V30 2680 C 252.92 -1.37303 1.29589 0
M  V30 2681 O 252.277 -1.79059 0.352732 0
M  V30 2682 C 252.328 -0.473266 3.58389 0
M  V30 2683 O 252.049 0.709673 4.32314 0
M  V30 2684 C 253.55 -1.09371 4.29596 0
M  V30 2685 H 250.77 -0.0122747 0.670888 0
M  V30 2686 H 253.314 0.603764 1.95384 0
M  V30 2687 H 251.469 -1.16812 3.69369 0
M  V30 2688 H 251.883 0.42807 5.2275 0
M  V30 2689 H 253.357 -1.27613 5.37046 0
M  V30 2690 H 253.834 -2.072 3.87253 0
M  V30 2691 H 254.44 -0.43853 4.23033 0
M  V30 2692 N 252.755 -1.56801 0.158532 0
M  V30 2693 C 254.171 -1.5837 -0.197774 0
M  V30 2694 C 254.371 -1.17334 -1.63814 0
M  V30 2695 O 253.427 -0.878988 -2.36707 0
M  V30 2696 C 254.74 -3.00615 0.0714459 0
M  V30 2697 C 256.288 -3.12999 0.00864533 0
M  V30 2698 C 256.763 -4.57313 0.250685 0
M  V30 2699 N 258.254 -4.62777 0.198014 0
M  V30 2700 C 258.989 -5.72271 0.359642 0
M  V30 2701 N 258.485 -6.90371 0.579625 0
M  V30 2702 N 260.278 -5.61318 0.296438 0
M  V30 2703 H 252.429 -1.81765 1.09887 0
M  V30 2704 H 254.692 -0.841849 0.435884 0
M  V30 2705 H 254.398 -3.35068 1.06874 0
M  V30 2706 H 254.272 -3.71683 -0.642757 0
M  V30 2707 H 256.659 -2.7838 -0.979217 0
M  V30 2708 H 256.74 -2.44393 0.755359 0
M  V30 2709 H 256.384 -4.92639 1.2357 0
M  V30 2710 H 256.314 -5.24061 -0.516489 0
M  V30 2711 H 258.805 -3.77885 0.0331115 0
M  V30 2712 H 259.118 -7.69689 0.69275 0
M  V30 2713 H 257.463 -6.92264 0.616087 0
M  V30 2714 H 260.654 -4.67932 0.125258 0
M  V30 2715 H 260.827 -6.46599 0.425831 0
M  V30 2716 N 254.233 0.115231 -1.57178 0
M  V30 2717 C 255.48 0.822351 -1.8505 0
M  V30 2718 C 255.808 1.79701 -0.744168 0
M  V30 2719 O 255.063 1.93909 0.26414 0
M  V30 2720 C 255.362 1.60324 -3.19423 0
M  V30 2721 C 255.028 0.772536 -4.44233 0
M  V30 2722 C 253.69 0.543468 -4.78121 0
M  V30 2723 C 256.042 0.193746 -5.2084 0
M  V30 2724 C 253.37 -0.274583 -5.86057 0
M  V30 2725 C 255.722 -0.611517 -6.29637 0
M  V30 2726 C 254.386 -0.850867 -6.62055 0
M  V30 2727 H 253.656 0.30092 -0.677147 0
M  V30 2728 H 256.303 0.0845802 -1.91313 0
M  V30 2729 H 254.608 2.41203 -3.08753 0
M  V30 2730 H 256.305 2.1544 -3.38211 0
M  V30 2731 H 252.895 0.96117 -4.17683 0
M  V30 2732 H 257.079 0.357926 -4.95008 0
M  V30 2733 H 252.335 -0.469206 -6.09597 0
M  V30 2734 H 256.509 -1.06697 -6.88178 0
M  V30 2735 H 254.136 -1.48657 -7.45523 0
M  V30 2736 N 255.711 1.52812 0.385517 0
M  V30 2737 C 256.661 1.74219 1.47078 0
M  V30 2738 C 257.645 0.59632 1.49442 0
M  V30 2739 O 258.837 0.85428 1.5502 0
M  V30 2740 C 255.966 1.9176 2.84751 0
M  V30 2741 C 255.052 3.12289 2.86943 0
M  V30 2742 N 255.443 4.34575 2.58802 0
M  V30 2743 C 253.741 3.12605 3.1811 0
M  V30 2744 C 254.442 5.162 2.68166 0
M  V30 2745 N 253.418 4.51964 3.02043 0
M  V30 2746 H 257.22 2.6639 1.24152 0
M  V30 2747 H 254.734 1.51166 0.593504 0
M  V30 2748 H 256.731 2.05218 3.62893 0
M  V30 2749 H 255.391 1.00805 3.08656 0
M  V30 2750 H 256.402 4.62649 2.32759 0
M  V30 2751 H 253.079 2.31472 3.47458 0
M  V30 2752 H 254.469 6.23689 2.49923 0
M  V30 2753 N 257.189 -0.644168 1.43834 0
M  V30 2754 C 258.137 -1.77793 1.49974 0
M  V30 2755 C 259.131 -1.65253 0.372536 0
M  V30 2756 O 260.337 -1.7149 0.546924 0
M  V30 2757 H 256.712 -0.58675 0.47035 0
M  V30 2758 H 258.683 -1.69736 2.45423 0
M  V30 2759 C 257.432 -3.16087 1.4486 0
M  V30 2760 H 256.755 -3.26378 2.30905 0
M  V30 2761 H 258.195 -3.95349 1.53217 0
M  V30 2762 C 256.654 -3.36484 0.167463 0
M  V30 2763 O 257.184 -3.94298 -0.767609 0
M  V30 2764 N 255.39 -2.90504 0.0747556 0
M  V30 2765 H 254.937 -2.4364 0.836507 0
M  V30 2766 H 254.895 -3.04527 -0.781714 0
M  V30 2767 N 258.668 -1.30515 -0.883378 0
M  V30 2768 C 259.6 -1.12846 -1.99496 0
M  V30 2769 C 260.613 -0.0712571 -1.62644 0
M  V30 2770 O 261.802 -0.317432 -1.75655 0
M  V30 2771 C 258.902 -0.699123 -3.3161 0
M  V30 2772 C 258.075 -1.83842 -3.96889 0
M  V30 2773 C 257.134 -1.39737 -5.07307 0
M  V30 2774 O 256.16 -2.10485 -5.28852 0
M  V30 2775 N 257.362 -0.277279 -5.79837 0
M  V30 2776 H 260.127 -2.08585 -2.15203 0
M  V30 2777 H 257.688 -1.22672 -1.05656 0
M  V30 2778 H 259.68 -0.387044 -4.02845 0
M  V30 2779 H 258.25 0.166276 -3.12157 0
M  V30 2780 H 257.47 -2.31853 -3.18807 0
M  V30 2781 H 258.758 -2.60187 -4.37241 0
M  V30 2782 H 258.156 0.3122 -5.64838 0
M  V30 2783 H 256.713 -0.0246623 -6.51795 0
M  V30 2784 N 260.146 1.09593 -1.13257 0
M  V30 2785 C 261.371 1.8604 -0.916732 0
M  V30 2786 C 261.796 1.80504 0.529146 0
M  V30 2787 O 261.154 1.18127 1.37534 0
M  V30 2788 C 261.202 3.32017 -1.40703 0
M  V30 2789 O 260.306 4.08141 -0.591153 0
M  V30 2790 H 259.647 0.576943 -0.328683 0
M  V30 2791 H 262.177 1.38405 -1.50682 0
M  V30 2792 H 262.187 3.82865 -1.4099 0
M  V30 2793 H 260.862 3.35361 -2.45979 0
M  V30 2794 H 259.439 3.67084 -0.656005 0
M  V30 2795 N 261.624 0.925811 1.2754 0
M  V30 2796 C 262.534 0.428993 2.30644 0
M  V30 2797 C 263.55 -0.489387 1.66976 0
M  V30 2798 O 264.726 -0.372653 1.97922 0
M  V30 2799 C 261.791 -0.311967 3.45294 0
M  V30 2800 C 260.852 0.641098 4.24486 0
M  V30 2801 C 260.085 -0.0645955 5.33661 0
M  V30 2802 O 260.308 -1.28429 5.55754 0
M  V30 2803 O 259.242 0.606265 5.98839 0
M  V30 2804 H 263.068 1.28504 2.75173 0
M  V30 2805 H 260.653 0.691086 1.32455 0
M  V30 2806 H 262.535 -0.729972 4.15029 0
M  V30 2807 H 261.21 -1.14365 3.02824 0
M  V30 2808 H 260.117 1.10874 3.57292 0
M  V30 2809 H 261.45 1.43995 4.70666 0
M  V30 2810 N 263.102 -1.41638 0.69111 0
M  V30 2811 C 264.032 -2.3347 0.037248 0
M  V30 2812 C 265.013 -1.51575 -0.771947 0
M  V30 2813 O 266.198 -1.80126 -0.72582 0
M  V30 2814 C 263.328 -3.35354 -0.903064 0
M  V30 2815 C 262.282 -4.27526 -0.201288 0
M  V30 2816 C 261.608 -5.19747 -1.25565 0
M  V30 2817 C 262.908 -5.13959 0.929689 0
M  V30 2818 H 264.602 -2.88397 0.804227 0
M  V30 2819 H 262.148 -1.38669 0.388189 0
M  V30 2820 H 264.101 -3.98519 -1.36969 0
M  V30 2821 H 262.825 -2.78767 -1.70166 0
M  V30 2822 H 261.484 -3.65779 0.245265 0
M  V30 2823 H 261.132 -4.59479 -2.04666 0
M  V30 2824 H 260.832 -5.8225 -0.791128 0
M  V30 2825 H 262.356 -5.85789 -1.72288 0
M  V30 2826 H 263.77 -5.70718 0.543546 0
M  V30 2827 H 262.167 -5.85379 1.32103 0
M  V30 2828 H 263.237 -4.51389 1.77133 0
M  V30 2829 N 264.58 -0.43555 -1.51462 0
M  V30 2830 C 265.527 0.376797 -2.27703 0
M  V30 2831 C 266.497 1.01838 -1.31219 0
M  V30 2832 O 267.682 1.03762 -1.60119 0
M  V30 2833 C 264.822 1.47301 -3.12084 0
M  V30 2834 C 263.935 0.849744 -4.2356 0
M  V30 2835 C 263.07 1.92086 -4.95254 0
M  V30 2836 C 262.109 1.27593 -5.98654 0
M  V30 2837 N 261.246 2.28833 -6.63762 0
M  V30 2838 H 266.086 -0.279734 -2.96684 0
M  V30 2839 H 263.623 -0.149795 -1.46335 0
M  V30 2840 H 265.581 2.11984 -3.59331 0
M  V30 2841 H 264.211 2.0992 -2.45221 0
M  V30 2842 H 263.263 0.0912529 -3.80291 0
M  V30 2843 H 264.575 0.338878 -4.97648 0
M  V30 2844 H 263.729 2.64435 -5.46039 0
M  V30 2845 H 262.468 2.46545 -4.20793 0
M  V30 2846 H 261.473 0.537893 -5.47162 0
M  V30 2847 H 262.698 0.738693 -6.7507 0
M  V30 2848 H 260.644 2.82375 -5.92115 0
M  V30 2849 H 260.561 1.82632 -7.33608 0
M  V30 2850 H 261.829 3.00671 -7.19178 0
M  V30 2851 N 266.058 1.56714 -0.166846 0
M  V30 2852 C 267.335 1.88412 0.525373 0
M  V30 2853 C 267.715 1.07602 1.81618 0
M  V30 2854 O 267.063 0.168621 2.27877 0
M  V30 2855 C 267.273 3.40363 0.771613 0
M  V30 2856 C 268.621 4.10007 1.1036 0
M  V30 2857 O 269.645 3.45655 0.860304 0
M  V30 2858 O 268.504 5.2369 1.56239 0
M  V30 2859 H 265.598 0.781587 0.270278 0
M  V30 2860 H 268.144 1.68458 -0.204946 0
M  V30 2861 H 266.916 3.91046 -0.141093 0
M  V30 2862 H 266.539 3.65914 1.55541 0
M  V30 2863 N 267.536 -0.106894 1.57237 0
M  V30 2864 C 268.783 -0.812526 1.85484 0
M  V30 2865 C 269.111 -1.79304 0.753687 0
M  V30 2866 O 268.366 -1.94047 -0.253853 0
M  V30 2867 C 268.665 -1.58628 3.20268 0
M  V30 2868 C 268.331 -0.748967 4.44636 0
M  V30 2869 C 266.993 -0.518104 4.78403 0
M  V30 2870 C 269.345 -0.166122 5.20935 0
M  V30 2871 C 266.673 0.305659 5.85903 0
M  V30 2872 C 269.025 0.644899 6.29304 0
M  V30 2873 C 267.689 0.885965 6.61594 0
M  V30 2874 H 266.959 -0.297324 0.678734 0
M  V30 2875 H 269.606 -0.0744332 1.91355 0
M  V30 2876 H 267.911 -2.39562 3.10028 0
M  V30 2877 H 269.608 -2.13643 3.39349 0
M  V30 2878 H 266.198 -0.939006 4.18187 0
M  V30 2879 H 270.382 -0.33167 4.95191 0
M  V30 2880 H 265.638 0.501528 6.0934 0
M  V30 2881 H 269.812 1.10345 6.87602 0
M  V30 2882 H 267.439 1.52609 7.44725 0
M  V30 2883 N 269.014 -1.53014 -0.377408 0
M  V30 2884 C 270.262 -1.6829 -1.11906 0
M  V30 2885 C 270.583 -0.431206 -1.90173 0
M  V30 2886 O 269.853 0.554595 -1.87886 0
M  V30 2887 H 268.433 -0.620371 -0.416112 0
M  V30 2888 H 271.095 -1.90167 -0.426893 0
M  V30 2889 H 270.191 -2.53862 -1.8155 0
M  V30 2890 N 270.492 0.636531 -1.44174 0
M  V30 2891 C 271.72 1.42353 -1.50144 0
M  V30 2892 C 272.135 1.88389 -0.124575 0
M  V30 2893 O 271.492 1.6051 0.868489 0
M  V30 2894 C 271.543 2.64744 -2.46156 0
M  V30 2895 O 271.264 2.20629 -3.7849 0
M  V30 2896 C 272.765 3.57929 -2.61537 0
M  V30 2897 H 269.985 0.436752 -0.5094 0
M  V30 2898 H 272.529 0.778933 -1.89084 0
M  V30 2899 H 270.684 3.25307 -2.10366 0
M  V30 2900 H 271.098 2.99938 -4.30276 0
M  V30 2901 H 272.572 4.40428 -3.32757 0
M  V30 2902 H 273.049 4.06382 -1.66585 0
M  V30 2903 H 273.655 3.03238 -2.98206 0
M  V30 2904 N 271.97 1.30982 0.876444 0
M  V30 2905 C 272.88 1.2003 2.01569 0
M  V30 2906 C 273.896 0.11838 1.73597 0
M  V30 2907 O 275.072 0.33495 1.98595 0
M  V30 2908 C 272.137 0.901637 3.34771 0
M  V30 2909 C 271.198 2.06979 3.76109 0
M  V30 2910 C 270.431 1.78529 5.02954 0
M  V30 2911 O 270.654 0.717296 5.65872 0
M  V30 2912 O 269.588 2.64019 5.40905 0
M  V30 2913 H 273.414 2.15753 2.13739 0
M  V30 2914 H 270.999 1.10658 1.00375 0
M  V30 2915 H 272.881 0.750645 4.1466 0
M  V30 2916 H 271.556 -0.0256141 3.2369 0
M  V30 2917 H 270.463 2.27616 2.96887 0
M  V30 2918 H 271.796 2.97907 3.91807 0
M  V30 2919 N 273.449 -1.08991 1.13837 0
M  V30 2920 C 274.412 -2.13925 0.822715 0
M  V30 2921 C 275.412 -1.599 -0.1699 0
M  V30 2922 O 276.602 -1.74104 0.0577251 0
M  V30 2923 C 273.734 -3.40155 0.225318 0
M  V30 2924 H 274.927 -2.43358 1.75262 0
M  V30 2925 H 272.48 -1.24603 0.943594 0
M  V30 2926 H 273.215 -3.16352 -0.713594 0
M  V30 2927 H 273 -3.80661 0.940193 0
M  V30 2928 H 274.49 -4.17594 0.0214784 0
M  V30 2929 N 274.927 -0.932562 -1.27047 0
M  V30 2930 C 275.89 -0.440064 -2.24936 0
M  V30 2931 C 276.89 0.444071 -1.54547 0
M  V30 2932 O 278.08 0.244465 -1.72476 0
M  V30 2933 C 275.212 0.36678 -3.38921 0
M  V30 2934 H 276.405 -1.305 -2.70018 0
M  V30 2935 H 273.958 -0.713707 -1.39054 0
M  V30 2936 H 274.693 1.25033 -2.99228 0
M  V30 2937 H 274.478 -0.267204 -3.91188 0
M  V30 2938 H 275.968 0.701567 -4.11665 0
M  V30 2939 N 276.405 1.4127 -0.698611 0
M  V30 2940 C 277.821 1.55241 -0.370462 0
M  V30 2941 C 278.021 1.67351 1.12231 0
M  V30 2942 O 277.077 1.65363 1.90818 0
M  V30 2943 C 278.39 2.78997 -1.12165 0
M  V30 2944 C 279.938 2.92797 -1.1063 0
M  V30 2945 C 280.413 4.19445 -1.8393 0
M  V30 2946 N 281.904 4.26409 -1.80914 0
M  V30 2947 C 282.639 5.23271 -2.34467 0
M  V30 2948 N 282.135 6.26145 -2.96504 0
M  V30 2949 N 283.928 5.15232 -2.24706 0
M  V30 2950 H 276.079 1.31654 -1.66676 0
M  V30 2951 H 278.342 0.635393 -0.703548 0
M  V30 2952 H 278.048 2.76268 -2.17644 0
M  V30 2953 H 277.922 3.70606 -0.702209 0
M  V30 2954 H 280.309 2.95039 -0.0597713 0
M  V30 2955 H 280.39 2.02353 -1.56483 0
M  V30 2956 H 280.034 4.17964 -2.88563 0
M  V30 2957 H 279.964 5.08866 -1.35509 0
M  V30 2958 H 282.455 3.527 -1.35687 0
M  V30 2959 H 282.768 6.96451 -3.34927 0
M  V30 2960 H 281.113 6.26638 -3.00583 0
M  V30 2961 H 284.304 4.33789 -1.7591 0
M  V30 2962 H 284.477 5.90552 -2.66745 0
M  V30 2963 N 277.883 0.443576 1.51229 0
M  V30 2964 C 279.294 -0.0180867 1.86691 0
M  V30 2965 C 279.645 -1.41384 1.36033 0
M  V30 2966 O 278.77 -2.04291 0.713722 0
M  V30 2967 C 279.365 -0.039597 3.38777 0
M  V30 2968 C 277.924 -0.445692 3.73752 0
M  V30 2969 C 277.071 0.357584 2.74985 0
M  V30 2970 H 280.022 0.659138 1.44364 0
M  V30 2971 H 280.043 -0.847761 3.70936 0
M  V30 2972 H 279.555 0.976382 3.75617 0
M  V30 2973 H 277.656 -1.46704 3.42503 0
M  V30 2974 H 277.769 -0.166155 4.78812 0
M  V30 2975 H 276.133 -0.184973 2.54027 0
M  V30 2976 H 276.916 1.37256 3.14668 0
M  V30 2977 N 279.361 -1.56624 0.175154 0
M  V30 2978 C 280.293 -2.15333 -0.785128 0
M  V30 2979 C 281.306 -1.1099 -1.19101 0
M  V30 2980 O 282.495 -1.38162 -1.13019 0
M  V30 2981 C 279.595 -2.68427 -2.06882 0
M  V30 2982 C 278.768 -3.97466 -1.8259 0
M  V30 2983 C 277.827 -4.35585 -2.95215 0
M  V30 2984 O 276.853 -5.03389 -2.65684 0
M  V30 2985 N 278.055 -3.97457 -4.23094 0
M  V30 2986 H 280.82 -2.98359 -0.283187 0
M  V30 2987 H 278.381 -1.61898 -0.00749817 0
M  V30 2988 H 280.373 -2.90924 -2.81328 0
M  V30 2989 H 278.943 -1.89968 -2.48256 0
M  V30 2990 H 278.163 -3.83307 -0.920287 0
M  V30 2991 H 279.451 -4.81736 -1.63733 0
M  V30 2992 H 278.849 -3.42878 -4.49945 0
M  V30 2993 H 277.406 -4.24947 -4.9423 0
M  V30 2994 N 280.839 0.0985539 -1.57292 0
M  V30 2995 C 281.786 1.11981 -2.01814 0
M  V30 2996 C 282.756 1.39999 -0.89384 0
M  V30 2997 O 283.941 1.5152 -1.15958 0
M  V30 2998 C 281.081 2.43577 -2.44467 0
M  V30 2999 C 280.194 2.2232 -3.70402 0
M  V30 3000 C 279.329 3.4729 -4.01949 0
M  V30 3001 C 278.368 3.2128 -5.21005 0
M  V30 3002 N 277.505 4.38507 -5.48321 0
M  V30 3003 H 282.345 0.733149 -2.88841 0
M  V30 3004 H 279.882 0.350482 -1.42864 0
M  V30 3005 H 281.84 3.20373 -2.6724 0
M  V30 3006 H 280.47 2.80097 -1.60455 0
M  V30 3007 H 279.522 1.36343 -3.55126 0
M  V30 3008 H 280.834 1.99089 -4.57345 0
M  V30 3009 H 279.988 4.32495 -4.25479 0
M  V30 3010 H 278.727 3.73572 -3.13521 0
M  V30 3011 H 277.732 2.34468 -4.97298 0
M  V30 3012 H 278.957 2.96348 -6.11028 0
M  V30 3013 H 276.903 4.64871 -4.62851 0
M  V30 3014 H 276.82 4.18455 -6.29628 0
M  V30 3015 H 278.088 5.24787 -5.76385 0
M  V30 3016 N 282.317 1.53212 0.369288 0
M  V30 3017 C 283.565 1.68881 1.11012 0
M  V30 3018 C 283.886 0.441285 1.89941 0
M  V30 3019 O 283.156 -0.544623 1.88177 0
M  V30 3020 H 281.736 0.622569 0.412816 0
M  V30 3021 H 284.398 1.90391 0.416802 0
M  V30 3022 H 283.494 2.54822 1.80201 0
M  V30 3023 N 283.795 -0.628877 1.44509 0
M  V30 3024 C 285.211 -0.947305 1.28446 0
M  V30 3025 C 285.411 -2.00275 0.221872 0
M  V30 3026 O 284.467 -2.49447 -0.391471 0
M  V30 3027 C 285.78 -1.40843 2.65676 0
M  V30 3028 C 287.328 -1.52379 2.73404 0
M  V30 3029 C 287.803 -2.01875 4.11109 0
M  V30 3030 N 289.294 -2.09142 4.13296 0
M  V30 3031 C 290.029 -2.48615 5.16699 0
M  V30 3032 N 289.525 -2.87209 6.30462 0
M  V30 3033 N 291.318 -2.48768 5.04054 0
M  V30 3034 H 283.469 0.0690977 2.12288 0
M  V30 3035 H 285.732 -0.0317164 0.947469 0
M  V30 3036 H 285.438 -0.707206 3.44516 0
M  V30 3037 H 285.312 -2.37902 2.92716 0
M  V30 3038 H 287.699 -2.21598 1.9488 0
M  V30 3039 H 287.78 -0.536898 2.50102 0
M  V30 3040 H 287.424 -1.3325 4.90109 0
M  V30 3041 H 287.354 -3.0144 4.31789 0
M  V30 3042 H 289.845 -1.81991 3.31191 0
M  V30 3043 H 290.158 -3.16149 7.05174 0
M  V30 3044 H 288.503 -2.84955 6.33897 0
M  V30 3045 H 291.694 -2.18009 4.14234 0
M  V30 3046 H 291.867 -2.79207 5.84763 0
M  V30 3047 N 285.273 -1.31445 -0.869486 0
M  V30 3048 C 286.22 -1.19135 -1.97675 0
M  V30 3049 C 287.19 -0.0770266 -1.65921 0
M  V30 3050 O 288.375 -0.249972 -1.89155 0
M  V30 3051 C 285.515 -0.905149 -3.33018 0
M  V30 3052 C 284.628 -2.10285 -3.77365 0
M  V30 3053 C 283.763 -1.75339 -5.01427 0
M  V30 3054 C 282.802 -2.91515 -5.38224 0
M  V30 3055 N 281.939 -2.56762 -6.53466 0
M  V30 3056 H 286.779 -2.13853 -2.07535 0
M  V30 3057 H 284.316 -1.06379 -1.01597 0
M  V30 3058 H 286.274 -0.719765 -4.10944 0
M  V30 3059 H 284.904 0.00519624 -3.228 0
M  V30 3060 H 283.956 -2.39899 -2.95216 0
M  V30 3061 H 285.268 -2.97237 -4.00564 0
M  V30 3062 H 284.422 -1.53266 -5.87022 0
M  V30 3063 H 283.161 -0.855801 -4.80133 0
M  V30 3064 H 282.166 -3.14237 -4.51149 0
M  V30 3065 H 283.391 -3.81985 -5.61484 0
M  V30 3066 H 281.337 -1.69526 -6.33717 0
M  V30 3067 H 281.254 -3.37243 -6.76612 0
M  V30 3068 H 282.522 -2.38083 -7.42251 0
M  V30 3069 N 286.751 1.08385 -1.14413 0
M  V30 3070 C 288.162 1.62258 -0.923535 0
M  V30 3071 C 288.513 1.88691 0.537595 0
M  V30 3072 O 287.638 1.64454 1.40655 0
M  V30 3073 C 288.233 2.94781 -1.67002 0
M  V30 3074 C 286.792 3.45437 -1.495 0
M  V30 3075 C 285.939 2.19668 -1.69238 0
M  V30 3076 H 288.89 0.916086 -1.2959 0
M  V30 3077 H 288.911 3.63229 -1.13334 0
M  V30 3078 H 288.423 2.7551 -2.73342 0
M  V30 3079 H 286.524 3.6981 -0.455097 0
M  V30 3080 H 286.637 4.22173 -2.2651 0
M  V30 3081 H 285.001 2.28849 -1.11804 0
M  V30 3082 H 285.784 2.02905 -2.7692 0
M  V30 3083 N 288.23 0.939286 1.26551 0
M  V30 3084 C 289.646 0.641304 1.46149 0
M  V30 3085 C 289.846 -0.805964 1.84679 0
M  V30 3086 O 288.902 -1.58278 1.96734 0
M  V30 3087 C 290.215 1.6011 2.54529 0
M  V30 3088 C 291.763 1.6106 2.68382 0
M  V30 3089 C 292.238 2.55765 3.79932 0
M  V30 3090 N 293.729 2.5404 3.87322 0
M  V30 3091 C 294.464 3.24004 4.73085 0
M  V30 3092 N 293.96 4.03388 5.63249 0
M  V30 3093 N 295.753 3.12965 4.66914 0
M  V30 3094 H 287.904 1.87478 0.998285 0
M  V30 3095 H 290.167 0.805559 0.499779 0
M  V30 3096 H 289.873 2.63412 2.33039 0
M  V30 3097 H 289.747 1.35171 3.52149 0
M  V30 3098 H 292.134 0.584835 2.89247 0
M  V30 3099 H 292.215 1.90053 1.71212 0
M  V30 3100 H 291.859 3.58458 3.5982 0
M  V30 3101 H 291.789 2.24063 4.76554 0
M  V30 3102 H 294.28 1.96396 3.22858 0
M  V30 3103 H 294.593 4.5373 6.25579 0
M  V30 3104 H 292.938 4.07489 5.63008 0
M  V30 3105 H 296.129 2.50432 3.95476 0
M  V30 3106 H 296.302 3.67759 5.33533 0
M  V30 3107 N 289.708 -1.40897 0.706093 0
M  V30 3108 C 291.119 -1.84023 0.315052 0
M  V30 3109 C 291.47 -1.5906 -1.14866 0
M  V30 3110 O 290.595 -1.06651 -1.88293 0
M  V30 3111 C 291.19 -3.34055 0.565038 0
M  V30 3112 C 289.749 -3.7571 0.227806 0
M  V30 3113 C 288.896 -2.64204 0.842122 0
M  V30 3114 H 291.847 -1.303 0.905963 0
M  V30 3115 H 291.868 -3.80107 -0.172843 0
M  V30 3116 H 291.38 -3.52192 1.63042 0
M  V30 3117 H 289.481 -3.63172 -0.832895 0
M  V30 3118 H 289.594 -4.74103 0.690174 0
M  V30 3119 H 287.958 -2.53255 0.270893 0
M  V30 3120 H 288.741 -2.85155 1.91158 0
M  V30 3121 N 291.186 -0.45159 -1.50991 0
M  V30 3122 C 292.602 -0.104647 -1.59257 0
M  V30 3123 C 292.802 1.38728 -1.4614 0
M  V30 3124 O 291.858 2.15866 -1.30989 0
M  V30 3125 C 293.171 -0.637468 -2.93865 0
M  V30 3126 C 294.719 -0.599166 -3.07212 0
M  V30 3127 C 295.194 -1.1092 -4.44366 0
M  V30 3128 N 296.685 -1.06778 -4.50725 0
M  V30 3129 C 297.42 -1.43314 -5.55201 0
M  V30 3130 N 296.916 -1.87204 -6.67028 0
M  V30 3131 N 298.709 -1.3504 -5.45638 0
M  V30 3132 H 290.86 -1.42214 -1.57762 0
M  V30 3133 H 293.123 -0.586921 -0.744465 0
M  V30 3134 H 292.829 -1.68187 -3.08879 0
M  V30 3135 H 292.703 -0.0702139 -3.77135 0
M  V30 3136 H 295.09 0.436277 -2.91857 0
M  V30 3137 H 295.171 -1.20299 -2.25747 0
M  V30 3138 H 294.815 -2.14318 -4.60467 0
M  V30 3139 H 294.745 -0.481773 -5.24392 0
M  V30 3140 H 297.236 -0.745643 -3.70471 0
M  V30 3141 H 297.549 -2.13282 -7.42786 0
M  V30 3142 H 295.894 -1.91142 -6.68199 0
M  V30 3143 H 299.085 -1.00607 -4.57161 0
M  V30 3144 H 299.258 -1.63841 -6.26945 0
M  V30 3145 N 292.664 1.56529 -0.183458 0
M  V30 3146 C 293.627 2.17324 0.728223 0
M  V30 3147 C 294.627 1.12453 1.14939 0
M  V30 3148 O 295.817 1.37902 1.06437 0
M  V30 3149 C 292.949 2.76591 1.99274 0
M  V30 3150 H 294.142 2.99241 0.198772 0
M  V30 3151 H 291.695 1.5616 0.0661391 0
M  V30 3152 H 292.43 1.98441 2.56499 0
M  V30 3153 H 292.215 3.5335 1.69959 0
M  V30 3154 H 293.705 3.23311 2.6431 0
M  V30 3155 N 294.142 -0.090211 1.57342 0
M  V30 3156 C 295.558 -0.444547 1.53284 0
M  V30 3157 C 295.758 -1.80238 0.900914 0
M  V30 3158 O 294.814 -2.4759 0.495513 0
M  V30 3159 C 296.127 -0.402543 2.97993 0
M  V30 3160 C 297.675 -0.48405 3.09234 0
M  V30 3161 C 298.15 -0.472144 4.5556 0
M  V30 3162 N 299.641 -0.532757 4.60126 0
M  V30 3163 C 300.376 -0.545462 5.708 0
M  V30 3164 N 299.872 -0.514082 6.9089 0
M  V30 3165 N 301.665 -0.59064 5.58988 0
M  V30 3166 H 293.816 0.799121 1.96794 0
M  V30 3167 H 296.079 0.297965 0.899956 0
M  V30 3168 H 295.785 0.528106 3.47712 0
M  V30 3169 H 295.659 -1.21969 3.56936 0
M  V30 3170 H 298.046 -1.40512 2.595 0
M  V30 3171 H 298.127 0.361328 2.53235 0
M  V30 3172 H 297.771 0.445 5.05947 0
M  V30 3173 H 297.701 -1.3348 5.09402 0
M  V30 3174 H 300.192 -0.562006 3.73698 0
M  V30 3175 H 300.505 -0.527195 7.71 0
M  V30 3176 H 298.85 -0.481054 6.93333 0
M  V30 3177 H 302.041 -0.61272 4.64073 0
M  V30 3178 H 302.214 -0.597073 6.45243 0
M  V30 3179 N 295.62 -1.53406 -0.361157 0
M  V30 3180 C 296.845 -1.74024 -1.12829 0
M  V30 3181 C 297.27 -0.470069 -1.82132 0
M  V30 3182 O 296.628 0.57619 -1.719 0
M  V30 3183 C 296.676 -2.90903 -2.13091 0
M  V30 3184 O 295.78 -2.59821 -3.20261 0
M  V30 3185 H 295.121 -0.577804 -0.327168 0
M  V30 3186 H 297.651 -2.00307 -0.41693 0
M  V30 3187 H 297.661 -3.17194 -2.56616 0
M  V30 3188 H 296.336 -3.83034 -1.62042 0
M  V30 3189 H 294.913 -2.44362 -2.81677 0
M  V30 3190 N 297.098 0.621204 -1.44841 0
M  V30 3191 C 298.061 1.71459 -1.521 0
M  V30 3192 C 299.061 1.55696 -0.401933 0
M  V30 3193 O 300.251 1.61011 -0.664925 0
M  V30 3194 C 297.383 3.10624 -1.40447 0
M  V30 3195 H 298.576 1.66394 -2.49506 0
M  V30 3196 H 296.129 0.835745 -1.3208 0
M  V30 3197 H 296.864 3.21277 -0.441737 0
M  V30 3198 H 296.649 3.23473 -2.21602 0
M  V30 3199 H 298.139 3.90293 -1.4853 0
M  V30 3200 N 298.576 1.31904 0.862503 0
M  V30 3201 C 299.523 1.20182 1.9704 0
M  V30 3202 C 300.493 0.0858247 1.65878 0
M  V30 3203 O 301.678 0.26 1.8902 0
M  V30 3204 C 298.818 0.922797 3.32533 0
M  V30 3205 C 297.931 2.12284 3.76244 0
M  V30 3206 C 297.066 1.77996 5.00491 0
M  V30 3207 C 296.105 2.94366 5.36671 0
M  V30 3208 N 295.242 2.60223 6.52095 0
M  V30 3209 H 300.082 2.14951 2.06398 0
M  V30 3210 H 297.619 1.06917 1.01031 0
M  V30 3211 H 299.577 0.741548 4.10557 0
M  V30 3212 H 298.207 0.0119227 3.22798 0
M  V30 3213 H 297.259 2.41461 2.9394 0
M  V30 3214 H 298.571 2.99357 3.98982 0
M  V30 3215 H 297.725 1.56377 5.862 0
M  V30 3216 H 296.464 0.881252 4.79672 0
M  V30 3217 H 295.469 3.16625 4.49476 0
M  V30 3218 H 296.694 3.84957 5.59451 0
M  V30 3219 H 294.64 1.72884 6.32809 0
M  V30 3220 H 294.557 3.40827 6.74814 0
M  V30 3221 H 295.825 2.42016 7.40978 0
M  V30 3222 N 300.054 -1.07777 1.14986 0
M  V30 3223 C 301.017 -2.13041 0.845358 0
M  V30 3224 C 302.017 -1.60071 -0.152931 0
M  V30 3225 O 303.207 -1.74033 0.0761879 0
M  V30 3226 C 300.339 -3.39896 0.261383 0
M  V30 3227 H 301.532 -2.41485 1.77834 0
M  V30 3228 H 299.085 -1.23595 0.956757 0
M  V30 3229 H 299.82 -3.17091 -0.68 0
M  V30 3230 H 299.605 -3.79642 0.980514 0
M  V30 3231 H 301.095 -4.17548 0.0657687 0
M  V30 3232 N 301.532 -0.945985 -1.26051 0
M  V30 3233 C 302.48 -0.450259 -2.282 0
M  V30 3234 C 303.474 0.47497 -1.62605 0
M  V30 3235 O 304.68 0.352653 -1.76512 0
M  V30 3236 H 301.055 -0.127081 -0.741184 0
M  V30 3237 H 303.026 -1.32422 -2.67408 0
M  V30 3238 C 301.775 0.26467 -3.46691 0
M  V30 3239 H 301.098 -0.438123 -3.97392 0
M  V30 3240 H 302.538 0.575678 -4.20074 0
M  V30 3241 C 300.997 1.48416 -3.02447 0
M  V30 3242 O 301.527 2.58227 -3.07704 0
M  V30 3243 N 299.733 1.34243 -2.57735 0
M  V30 3244 H 299.28 0.448994 -2.53657 0
M  V30 3245 H 299.238 2.15957 -2.28495 0
M  V30 3246 N 303.011 1.40521 -0.713556 0
M  V30 3247 C 303.943 2.29191 -0.0203126 0
M  V30 3248 C 304.956 1.45723 0.725864 0
M  V30 3249 O 306.145 1.69033 0.573581 0
M  V30 3250 C 303.245 3.2395 0.995486 0
M  V30 3251 C 302.418 4.36262 0.315256 0
M  V30 3252 C 301.477 5.11474 1.23616 0
M  V30 3253 O 300.503 5.64606 0.721719 0
M  V30 3254 N 301.705 5.20638 2.56743 0
M  V30 3255 H 304.47 2.89327 -0.781652 0
M  V30 3256 H 302.031 1.51869 -0.561022 0
M  V30 3257 H 304.023 3.71137 1.61368 0
M  V30 3258 H 302.593 2.64995 1.6582 0
M  V30 3259 H 301.813 3.91228 -0.483106 0
M  V30 3260 H 303.101 5.08558 -0.157004 0
M  V30 3261 H 302.499 4.7895 3.01037 0
M  V30 3262 H 301.056 5.71339 3.13712 0
M  V30 3263 N 304.489 0.459591 1.5075 0
M  V30 3264 C 305.452 -0.329093 2.26825 0
M  V30 3265 C 306.452 -0.930481 1.31144 0
M  V30 3266 O 307.642 -0.801453 1.54669 0
M  V30 3267 C 304.774 -1.46768 3.07688 0
M  V30 3268 H 305.967 0.337924 2.9799 0
M  V30 3269 H 303.52 0.213336 1.54837 0
M  V30 3270 H 304.255 -2.17009 2.40993 0
M  V30 3271 H 304.04 -1.04238 3.77991 0
M  V30 3272 H 305.53 -2.02433 3.65254 0
M  V30 3273 N 305.967 -1.56429 0.191757 0
M  V30 3274 C 306.877 -2.22541 -0.742481 0
M  V30 3275 C 307.893 -1.22342 -1.23727 0
M  V30 3276 O 309.069 -1.55069 -1.28513 0
M  V30 3277 C 306.134 -2.8692 -1.94623 0
M  V30 3278 C 305.195 -4.02378 -1.49633 0
M  V30 3279 C 304.428 -4.63678 -2.6427 0
M  V30 3280 O 304.651 -4.23895 -3.81666 0
M  V30 3281 O 303.585 -5.53202 -2.37174 0
M  V30 3282 H 307.411 -3.02977 -0.209462 0
M  V30 3283 H 304.996 -1.49353 -0.0373832 0
M  V30 3284 H 306.878 -3.27663 -2.64982 0
M  V30 3285 H 305.553 -2.09466 -2.46791 0
M  V30 3286 H 304.46 -3.66265 -0.761636 0
M  V30 3287 H 305.793 -4.81487 -1.02134 0
M  V30 3288 N 307.445 0.0818655 -1.57387 0
M  V30 3289 C 308.375 1.09885 -2.06028 0
M  V30 3290 C 309.356 1.4098 -0.951774 0
M  V30 3291 O 310.541 1.50781 -1.22387 0
M  V30 3292 C 307.671 2.4151 -2.4958 0
M  V30 3293 C 306.625 2.24792 -3.64215 0
M  V30 3294 C 305.951 3.61712 -3.93787 0
M  V30 3295 C 307.251 1.67749 -4.94629 0
M  V30 3296 H 308.945 0.694128 -2.91243 0
M  V30 3297 H 306.491 0.332448 -1.4011 0
M  V30 3298 H 308.444 3.12939 -2.82219 0
M  V30 3299 H 307.168 2.83943 -1.61381 0
M  V30 3300 H 305.827 1.55807 -3.31843 0
M  V30 3301 H 305.475 4.01697 -3.02735 0
M  V30 3302 H 305.175 3.51368 -4.70971 0
M  V30 3303 H 306.699 4.34587 -4.28913 0
M  V30 3304 H 308.113 2.29032 -5.25564 0
M  V30 3305 H 306.51 1.68128 -5.76067 0
M  V30 3306 H 307.58 0.638059 -4.80684 0
M  V30 3307 N 308.923 1.53595 0.353017 0
M  V30 3308 C 309.833 1.83897 1.45667 0
M  V30 3309 C 310.849 0.728334 1.58023 0
M  V30 3310 O 312.025 1.01968 1.73679 0
M  V30 3311 C 309.09 2.03383 2.80778 0
M  V30 3312 C 308.151 3.27262 2.77845 0
M  V30 3313 C 307.384 3.45809 4.06512 0
M  V30 3314 O 307.607 2.68387 5.03314 0
M  V30 3315 O 306.541 4.39207 4.11559 0
M  V30 3316 H 310.367 2.77686 1.2298 0
M  V30 3317 H 307.952 1.39132 0.544308 0
M  V30 3318 H 309.834 2.17698 3.60812 0
M  V30 3319 H 308.509 1.12783 3.03417 0
M  V30 3320 H 307.416 3.18359 1.96465 0
M  V30 3321 H 308.749 4.17824 2.60161 0
M  V30 3322 N 310.401 -0.613514 1.45168 0
M  V30 3323 C 311.349 -1.74572 1.53712 0
M  V30 3324 C 312.343 -1.64426 0.407505 0
M  V30 3325 O 313.549 -1.70291 0.583176 0
M  V30 3326 H 309.924 -0.576641 0.48269 0
M  V30 3327 H 311.895 -1.64492 2.48968 0
M  V30 3328 C 310.644 -3.12943 1.51532 0
M  V30 3329 H 309.967 -3.21407 2.37776 0
M  V30 3330 H 311.407 -3.9201 1.61569 0
M  V30 3331 C 309.866 -3.36053 0.238798 0
M  V30 3332 O 310.396 -3.95837 -0.6838 0
M  V30 3333 N 308.602 -2.9028 0.136359 0
M  V30 3334 H 308.149 -2.41811 0.887999 0
M  V30 3335 H 308.107 -3.06116 -0.716944 0
M  V30 3336 N 311.879 -1.3236 -0.855495 0
M  V30 3337 C 312.842 -1.21164 -1.94556 0
M  V30 3338 C 313.842 -0.134908 -1.60233 0
M  V30 3339 O 315.032 -0.385249 -1.69887 0
M  V30 3340 C 312.164 -0.863192 -3.29791 0
M  V30 3341 H 313.357 -2.18038 -2.05911 0
M  V30 3342 H 310.91 -1.16179 -1.04557 0
M  V30 3343 H 311.645 0.103769 -3.24134 0
M  V30 3344 H 311.43 -1.64166 -3.56078 0
M  V30 3345 H 312.92 -0.809156 -4.09686 0
M  V30 3346 N 313.357 1.07166 -1.15556 0
M  V30 3347 C 314.587 1.83248 -0.954133 0
M  V30 3348 C 314.995 1.82449 0.500911 0
M  V30 3349 O 314.338 1.23575 1.35923 0
M  V30 3350 C 314.4 3.31393 -1.39351 0
M  V30 3351 C 314.064 3.5591 -2.86666 0
M  V30 3352 C 315.061 3.49695 -3.8472 0
M  V30 3353 C 312.746 3.83515 -3.24379 0
M  V30 3354 C 314.74 3.70737 -5.18491 0
M  V30 3355 C 312.427 4.04209 -4.58321 0
M  V30 3356 C 313.425 3.97815 -5.55186 0
M  V30 3357 O 313.113 4.17954 -6.86709 0
M  V30 3358 H 312.845 0.584941 -0.338851 0
M  V30 3359 H 315.399 1.36169 -1.53777 0
M  V30 3360 H 313.629 3.79292 -0.75329 0
M  V30 3361 H 315.318 3.88945 -1.16089 0
M  V30 3362 H 316.084 3.28368 -3.56931 0
M  V30 3363 H 311.963 3.87605 -2.49567 0
M  V30 3364 H 315.507 3.65663 -5.94085 0
M  V30 3365 H 311.404 4.25023 -4.85825 0
M  V30 3366 H 312.172 4.35291 -6.93155 0
M  V30 3367 O 314.874 1.08282 1.19822 0
M  V30 3368 H 315.565 0.773615 1.77581 0
M  V30 END ATOM
M  V30 BEGIN BOND
M  V30 END BOND
M  V30 END CTAB
M  END
$$$$
