drugbank_target|Q9BRS2 Serine/threonine-protein kinase RIO1 (DB12010)
 OpenBabel12092121183D

  0  0  0     0  0            999 V3000
M  V30 BEGIN CTAB
M  V30 COUNTS 9128 9198 0 0 0
M  V30 BEGIN ATOM
M  V30 1 H -0.908 1.98254 -0.117106 0
M  V30 2 N 0 1.576 0 0
M  V30 3 C 0.933 2.03868 1.02534 0
M  V30 4 C 1.911 0.928543 1.3348 0
M  V30 5 O 3.095 1.19667 1.45644 0
M  V30 6 C 0.222 2.43627 2.35294 0
M  V30 7 C -0.732 3.65373 2.2001 0
M  V30 8 S 0.101 5.13292 1.52614 0
M  V30 9 C 1.257 5.56322 2.86805 0
M  V30 10 H 1.49 2.90518 0.631377 0
M  V30 11 H -0.977 1.52953 0.210867 0
M  V30 12 H 0.981 2.67203 3.11629 0
M  V30 13 H -0.358 1.57376 2.7183 0
M  V30 14 H -1.165 3.90944 3.18086 0
M  V30 15 H -1.563 3.418 1.51819 0
M  V30 16 H 0.729 5.58782 3.83104 0
M  V30 17 H 1.672 6.56266 2.65933 0
M  V30 18 H 2.08 4.83886 2.90714 0
M  V30 19 N 1.4781 -0.272755 1.55222 0
M  V30 20 C 2.7551 -1.02562 1.66555 0
M  V30 21 C 3.1351 -2.04282 0.532189 0
M  V30 22 O 2.4831 -2.23662 -0.467717 0
M  V30 23 C 2.6931 -1.6822 3.05782 0
M  V30 24 C 4.0411 -2.19373 3.63539 0
M  V30 25 O 5.0651 -1.78206 3.08417 0
M  V30 26 O 3.9241 -2.94883 4.60115 0
M  V30 27 H 1.0181 -0.475755 0.676451 0
M  V30 28 H 3.5641 -0.268593 1.67561 0
M  V30 29 H 2.3361 -0.945112 3.79715 0
M  V30 30 H 1.9591 -2.50609 3.08676 0
M  V30 31 N 2.9562 -1.48159 -0.537278 0
M  V30 32 C 4.1862 -1.59223 -1.3165 0
M  V30 33 C 4.5942 -0.248849 -1.87556 0
M  V30 34 O 3.9372 0.770949 -1.6674 0
M  V30 35 C 3.9992 -2.57365 -2.51005 0
M  V30 36 C 3.6632 -4.02603 -2.16239 0
M  V30 37 C 4.6602 -4.90503 -1.72344 0
M  V30 38 C 2.3452 -4.48088 -2.26986 0
M  V30 39 C 4.3392 -6.21913 -1.39651 0
M  V30 40 C 2.0262 -5.7952 -1.93906 0
M  V30 41 C 3.0242 -6.66255 -1.50309 0
M  V30 42 O 2.7122 -7.95243 -1.17659 0
M  V30 43 H 2.4442 -0.539831 -0.406889 0
M  V30 44 H 4.9982 -1.94655 -0.655641 0
M  V30 45 H 3.2282 -2.1704 -3.20048 0
M  V30 46 H 4.9172 -2.58342 -3.13072 0
M  V30 47 H 5.6832 -4.56604 -1.63517 0
M  V30 48 H 1.5622 -3.80769 -2.59877 0
M  V30 49 H 5.1062 -6.89569 -1.0555 0
M  V30 50 H 1.0032 -6.12957 -2.02371 0
M  V30 51 H 1.7712 -8.0793 -1.31119 0
M  V30 52 N 4.4343 0.785586 -1.36625 0
M  V30 53 C 5.8503 1.08419 -1.17122 0
M  V30 54 C 6.0503 2.015 0.00208491 0
M  V30 55 O 5.1063 2.43551 0.666278 0
M  V30 56 C 6.4193 1.69498 -2.48377 0
M  V30 57 C 7.9673 1.81821 -2.54775 0
M  V30 58 C 8.4423 2.46315 -3.86126 0
M  V30 59 N 9.9333 2.53779 -3.87492 0
M  V30 60 C 10.6683 3.045 -4.85868 0
M  V30 61 N 10.1643 3.55499 -5.94637 0
M  V30 62 N 11.9573 3.03247 -4.73284 0
M  V30 63 H 4.1083 0.167264 -2.1174 0
M  V30 64 H 6.3713 0.13682 -0.938075 0
M  V30 65 H 6.0773 1.08571 -3.34522 0
M  V30 66 H 5.9513 2.6896 -2.64462 0
M  V30 67 H 8.3383 2.41884 -1.69045 0
M  V30 68 H 8.4193 0.811532 -2.42586 0
M  V30 69 H 8.0633 1.86895 -4.72263 0
M  V30 70 H 7.9933 3.47561 -3.95612 0
M  V30 71 H 10.4843 2.17672 -3.08913 0
M  V30 72 H 10.7973 3.92562 -6.65669 0
M  V30 73 H 9.1423 3.5364 -5.98301 0
M  V30 74 H 12.3333 2.62696 -3.87438 0
M  V30 75 H 12.5063 3.42467 -5.50109 0
M  V30 76 N 5.9124 1.20967 1.01018 0
M  V30 77 C 7.3284 0.965905 1.27053 0
M  V30 78 C 7.5284 -0.350785 1.98423 0
M  V30 79 O 6.5844 -1.07773 2.28344 0
M  V30 80 C 7.8974 2.15294 2.09926 0
M  V30 81 C 9.4454 2.19463 2.23171 0
M  V30 82 C 9.9204 3.3767 3.09424 0
M  V30 83 N 11.4114 3.37724 3.17012 0
M  V30 84 C 12.1464 4.25837 3.83993 0
M  V30 85 N 11.6424 5.24138 4.53047 0
M  V30 86 N 13.4354 4.1366 3.80581 0
M  V30 87 H 5.5864 2.0565 0.531194 0
M  V30 88 H 7.8494 0.90024 0.297106 0
M  V30 89 H 7.5554 3.10684 1.64828 0
M  V30 90 H 7.4294 2.13923 3.10672 0
M  V30 91 H 9.8164 1.24632 2.6749 0
M  V30 92 H 9.8974 2.2488 1.21912 0
M  V30 93 H 9.5414 4.32791 2.65808 0
M  V30 94 H 9.4714 3.29491 4.10784 0
M  V30 95 H 11.9624 2.6658 2.6785 0
M  V30 96 H 12.2754 5.87684 5.01844 0
M  V30 97 H 10.6204 5.28068 4.5185 0
M  V30 98 H 13.8114 3.36127 3.25785 0
M  V30 99 H 13.9844 4.82538 4.32505 0
M  V30 100 N 7.3905 -1.2043 1.01659 0
M  V30 101 C 8.3205 -2.25466 0.607226 0
M  V30 102 C 9.3015 -1.65853 -0.377716 0
M  V30 103 O 10.4865 -1.92409 -0.263149 0
M  V30 104 C 7.6165 -3.47256 -0.0552949 0
M  V30 105 C 6.5705 -4.19462 0.850632 0
M  V30 106 C 5.8965 -5.34673 0.0538859 0
M  V30 107 C 7.1965 -4.75603 2.15868 0
M  V30 108 H 8.8905 -2.59962 1.48526 0
M  V30 109 H 6.4365 -1.2496 0.715605 0
M  V30 110 H 8.3895 -4.19917 -0.353233 0
M  V30 111 H 7.1135 -3.11924 -0.968045 0
M  V30 112 H 5.7725 -3.48667 1.13257 0
M  V30 113 H 5.4205 -4.95585 -0.860514 0
M  V30 114 H 5.1205 -5.83913 0.657192 0
M  V30 115 H 6.6445 -6.10138 -0.237598 0
M  V30 116 H 8.0585 -5.40083 1.92311 0
M  V30 117 H 6.4555 -5.3528 2.71284 0
M  V30 118 H 7.5255 -3.94346 2.82169 0
M  V30 119 N 8.8686 -0.792821 -1.36206 0
M  V30 120 C 9.7986 -0.207853 -2.32573 0
M  V30 121 C 10.7796 0.659055 -1.56813 0
M  V30 122 O 11.9646 0.592176 -1.84951 0
M  V30 123 C 9.0946 0.655449 -3.41059 0
M  V30 124 C 8.0486 -0.111842 -4.27854 0
M  V30 125 C 7.3746 0.872274 -5.27537 0
M  V30 126 C 8.6746 -1.30299 -5.05786 0
M  V30 127 H 10.3686 -1.01294 -2.81744 0
M  V30 128 H 7.9146 -0.48854 -1.3546 0
M  V30 129 H 9.8676 1.07464 -4.07467 0
M  V30 130 H 8.5916 1.49328 -2.90463 0
M  V30 131 H 7.2506 -0.512053 -3.63006 0
M  V30 132 H 6.8986 1.70523 -4.73214 0
M  V30 133 H 6.5986 0.363291 -5.86476 0
M  V30 134 H 8.1226 1.28996 -5.96818 0
M  V30 135 H 9.5366 -0.959379 -5.65216 0
M  V30 136 H 7.9336 -1.7455 -5.74154 0
M  V30 137 H 9.0036 -2.09663 -4.37229 0
M  V30 138 N 10.3467 1.47872 -0.545128 0
M  V30 139 C 11.2797 2.2675 0.256885 0
M  V30 140 C 12.2577 1.33293 0.931228 0
M  V30 141 O 13.4417 1.62657 0.95262 0
M  V30 142 C 10.5687 3.09976 1.36501 0
M  V30 143 C 9.6147 4.1892 0.800496 0
M  V30 144 S 10.4477 5.34397 -0.343505 0
M  V30 145 C 11.6037 6.21186 0.766733 0
M  V30 146 H 11.8367 2.94425 -0.412479 0
M  V30 147 H 9.3697 1.50806 -0.331204 0
M  V30 148 H 11.3277 3.585 1.9997 0
M  V30 149 H 9.9887 2.41686 2.00616 0
M  V30 150 H 9.1817 4.76836 1.63227 0
M  V30 151 H 8.7837 3.73215 0.242217 0
M  V30 152 H 11.0757 6.56804 1.66178 0
M  V30 153 H 12.0187 7.07742 0.225204 0
M  V30 154 H 12.4267 5.54574 1.05396 0
M  V30 155 N 11.8248 0.280983 1.55075 0
M  V30 156 C 13.0498 -0.340154 2.04592 0
M  V30 157 C 13.4748 -1.48246 1.15779 0
M  V30 158 O 12.8328 -1.80614 0.15761 0
M  V30 159 C 12.8808 -0.793104 3.5177 0
M  V30 160 O 11.9848 -1.89981 3.66034 0
M  V30 161 H 11.3258 -0.0694289 0.66036 0
M  V30 162 H 13.8558 0.416993 2.00306 0
M  V30 163 H 13.8658 -1.08729 3.93245 0
M  V30 164 H 12.5408 0.0426163 4.15878 0
M  V30 165 H 11.1178 -1.60771 3.36463 0
M  V30 166 N 13.3029 -1.57598 0.00835791 0
M  V30 167 C 14.7189 -1.55764 -0.347822 0
M  V30 168 C 14.9189 -1.01186 -1.74252 0
M  V30 169 O 13.9749 -0.649371 -2.44007 0
M  V30 170 C 15.2879 -2.99927 -0.215407 0
M  V30 171 C 16.8359 -3.11656 -0.289725 0
M  V30 172 C 17.3109 -4.57621 -0.18634 0
M  V30 173 N 18.8019 -4.62557 -0.243978 0
M  V30 174 C 19.5369 -5.73094 -0.18745 0
M  V30 175 N 19.0329 -6.92753 -0.0810331 0
M  V30 176 N 20.8259 -5.61588 -0.239925 0
M  V30 177 H 12.9769 -1.91411 0.92062 0
M  V30 178 H 15.2399 -0.879562 0.353659 0
M  V30 179 H 14.9459 -3.43729 0.744512 0
M  V30 180 H 14.8199 -3.63865 -0.994097 0
M  V30 181 H 17.2069 -2.67779 -1.24009 0
M  V30 182 H 17.2879 -2.5048 0.51898 0
M  V30 183 H 16.9319 -5.02174 0.760519 0
M  V30 184 H 16.8619 -5.16752 -1.01364 0
M  V30 185 H 19.3529 -3.76481 -0.327217 0
M  V30 186 H 19.6659 -7.72787 -0.0440241 0
M  V30 187 H 18.0109 -6.94984 -0.0465419 0
M  V30 188 H 21.2019 -4.66996 -0.321317 0
M  V30 189 H 21.3749 -6.47714 -0.192407 0
M  V30 190 N 14.781 0.264519 -1.55364 0
M  V30 191 C 16.027 0.99646 -1.76631 0
M  V30 192 C 16.36 1.85632 -0.570478 0
M  V30 193 O 15.635 1.89647 0.43175 0
M  V30 194 C 15.918 1.87187 -3.07625 0
M  V30 195 C 15.771 1.04138 -4.37579 0
M  V30 196 C 17.09 2.85749 -3.34717 0
M  V30 197 H 14.209 0.360841 -0.642622 0
M  V30 198 H 16.851 0.268218 -1.88097 0
M  V30 199 H 15.001 2.49279 -2.9798 0
M  V30 200 H 16.673 0.440517 -4.59192 0
M  V30 201 H 14.916 0.345115 -4.32425 0
M  V30 202 H 15.587 1.68729 -5.2558 0
M  V30 203 H 18.063 2.33793 -3.4421 0
M  V30 204 H 16.939 3.44136 -4.27623 0
M  V30 205 H 17.2 3.61311 -2.54768 0
M  V30 206 N 16.2591 1.48442 0.529413 0
M  V30 207 C 17.5051 1.5672 1.28711 0
M  V30 208 C 17.8381 0.2406 1.92704 0
M  V30 209 O 17.1131 -0.753454 1.79313 0
M  V30 210 C 17.3961 2.70587 2.37603 0
M  V30 211 C 17.2491 4.12953 1.78297 0
M  V30 212 C 18.5681 2.80212 3.39366 0
M  V30 213 H 15.6871 0.570474 0.466613 0
M  V30 214 H 18.3291 1.80617 0.589706 0
M  V30 215 H 16.4791 2.50342 2.97088 0
M  V30 216 H 18.1511 4.44639 1.22858 0
M  V30 217 H 16.3941 4.19927 1.0883 0
M  V30 218 H 17.0651 4.88448 2.57144 0
M  V30 219 H 19.5411 2.98553 2.89836 0
M  V30 220 H 18.4171 3.61611 4.12951 0
M  V30 221 H 18.6781 1.88393 3.99951 0
M  V30 222 N 17.7372 -0.778329 1.37039 0
M  V30 223 C 19.1482 -1.35421 1.28523 0
M  V30 224 C 19.4992 -1.96075 -0.0700901 0
M  V30 225 O 18.6242 -1.93352 -0.971801 0
M  V30 226 C 19.2192 -2.46211 2.32735 0
M  V30 227 C 17.7782 -2.99585 2.27873 0
M  V30 228 C 16.9252 -1.72748 2.16918 0
M  V30 229 H 19.8762 -0.5791 1.47757 0
M  V30 230 H 19.8972 -3.2552 1.9702 0
M  V30 231 H 19.4092 -2.02036 3.31365 0
M  V30 232 H 17.5102 -3.48152 1.32745 0
M  V30 233 H 17.6232 -3.55646 3.21018 0
M  V30 234 H 15.9872 -1.95416 1.63354 0
M  V30 235 H 16.7702 -1.30686 3.17452 0
M  V30 236 N 19.2153 -1.21501 -1.00376 0
M  V30 237 C 20.4633 -1.03095 -1.73827 0
M  V30 238 C 20.7843 0.436341 -1.90055 0
M  V30 239 O 20.0543 1.31466 -1.45236 0
M  V30 240 H 18.6343 -0.378487 -0.644016 0
M  V30 241 H 21.2963 -1.52831 -1.20949 0
M  V30 242 H 20.3923 -1.49991 -2.73695 0
M  V30 243 N 20.6934 1.19889 -1.02296 0
M  V30 244 C 21.6254 2.22334 -0.556787 0
M  V30 245 C 22.6384 1.58674 0.364199 0
M  V30 246 O 23.8274 1.77768 0.161533 0
M  V30 247 C 20.9274 3.38257 0.208694 0
M  V30 248 C 20.1004 4.31504 -0.71577 0
M  V30 249 C 19.1594 5.262 0.00325597 0
M  V30 250 O 18.1854 5.65798 -0.621357 0
M  V30 251 N 19.3874 5.66303 1.27599 0
M  V30 252 H 22.1524 2.62957 -1.43784 0
M  V30 253 H 19.7134 1.34495 -0.901261 0
M  V30 254 H 21.7054 3.98616 0.699111 0
M  V30 255 H 20.2754 2.96472 0.991102 0
M  V30 256 H 19.4954 3.69016 -1.38638 0
M  V30 257 H 20.7834 4.9072 -1.34428 0
M  V30 258 H 20.1814 5.36155 1.80429 0
M  V30 259 H 18.7384 6.28942 1.71102 0
M  V30 260 N 22.1715 0.800033 1.35784 0
M  V30 261 C 23.4185 0.377342 1.98953 0
M  V30 262 C 23.7465 -1.05378 1.6348 0
M  V30 263 O 23.0015 -1.74459 0.886707 0
M  V30 264 C 23.3005 0.500276 3.53881 0
M  V30 265 C 22.9665 1.89375 4.09204 0
M  V30 266 C 21.6285 2.27499 4.24025 0
M  V30 267 C 23.9805 2.8057 4.39238 0
M  V30 268 C 21.3085 3.562 4.66195 0
M  V30 269 C 23.6605 4.0871 4.82844 0
M  V30 270 C 22.3245 4.46843 4.95871 0
M  V30 271 H 21.5945 0.138079 0.728021 0
M  V30 272 H 24.2415 1.01955 1.62103 0
M  V30 273 H 22.5465 -0.225405 3.91151 0
M  V30 274 H 24.2435 0.154097 4.00704 0
M  V30 275 H 20.8335 1.58753 3.98115 0
M  V30 276 H 25.0175 2.52367 4.27346 0
M  V30 277 H 20.2735 3.85602 4.74469 0
M  V30 278 H 24.4475 4.79481 5.05046 0
M  V30 279 H 22.0745 5.46623 5.28306 0
M  V30 280 N 23.6496 -1.47581 0.552962 0
M  V30 281 C 24.9266 -1.95563 -0.0381515 0
M  V30 282 C 25.3066 -1.49552 -1.48988 0
M  V30 283 O 24.6546 -0.732414 -2.16444 0
M  V30 284 C 24.8646 -3.48848 0.102919 0
M  V30 285 C 26.2126 -4.24577 -0.0446082 0
M  V30 286 O 27.2366 -3.56187 0.0302548 0
M  V30 287 O 26.0956 -5.46116 -0.204923 0
M  V30 288 H 23.1896 -0.824321 -0.0665067 0
M  V30 289 H 25.7356 -1.58001 0.619186 0
M  V30 290 H 24.5076 -3.75129 1.11328 0
M  V30 291 H 24.1306 -3.93165 -0.592224 0
M  V30 292 N 25.1277 -0.289203 -1.54924 0
M  V30 293 C 26.4047 0.376032 -1.91951 0
M  V30 294 C 26.7847 1.72622 -1.21511 0
M  V30 295 O 26.1327 2.25853 -0.346767 0
M  V30 296 C 26.3427 0.502378 -3.45365 0
M  V30 297 C 27.6907 0.778741 -4.17398 0
M  V30 298 O 28.7147 0.586647 -3.51336 0
M  V30 299 O 27.5737 1.14698 -5.34328 0
M  V30 300 H 24.6677 0.208167 -0.800372 0
M  V30 301 H 27.2137 -0.336394 -1.66332 0
M  V30 302 H 25.9857 -0.447255 -3.88736 0
M  V30 303 H 25.6087 1.26373 -3.76982 0
M  V30 304 N 26.6058 1.57591 -0.0167156 0
M  V30 305 C 27.5688 2.08393 0.954204 0
M  V30 306 C 28.5688 0.996531 1.26198 0
M  V30 307 O 29.7588 1.25858 1.20438 0
M  V30 308 C 26.8908 2.5394 2.27436 0
M  V30 309 H 28.0838 2.95455 0.514451 0
M  V30 310 H 25.6368 1.54582 0.231089 0
M  V30 311 H 26.3718 1.70171 2.76066 0
M  V30 312 H 26.1568 3.33371 2.06412 0
M  V30 313 H 27.6468 2.93512 2.97053 0
M  V30 314 N 28.0839 -0.256276 1.55502 0
M  V30 315 C 29.3609 -1.00789 1.67633 0
M  V30 316 C 29.7409 -2.03706 0.553826 0
M  V30 317 O 29.0889 -2.24145 -0.443969 0
M  V30 318 C 29.2989 -1.64968 3.07549 0
M  V30 319 C 30.6469 -2.15505 3.65845 0
M  V30 320 O 31.6709 -1.74925 3.1029 0
M  V30 321 O 30.5299 -2.89986 4.63217 0
M  V30 322 H 27.6239 -0.468553 0.681459 0
M  V30 323 H 30.1699 -0.250806 1.67836 0
M  V30 324 H 28.9419 -0.904785 3.80696 0
M  V30 325 H 28.5649 -2.47321 3.11317 0
M  V30 326 N 29.562 -1.4872 -0.521534 0
M  V30 327 C 30.787 -1.61101 -1.30618 0
M  V30 328 C 31.212 -0.274611 -1.86085 0
M  V30 329 O 30.57 0.754937 -1.64834 0
M  V30 330 C 30.618 -2.66709 -2.4269 0
M  V30 331 O 29.722 -2.24456 -3.45967 0
M  V30 332 H 29.063 -0.539921 -0.386499 0
M  V30 333 H 31.593 -1.94767 -0.626645 0
M  V30 334 H 31.603 -2.88245 -2.88754 0
M  V30 335 H 30.278 -3.63727 -2.01682 0
M  V30 336 H 28.855 -2.13168 -3.05964 0
M  V30 337 N 31.0401 0.771051 -1.3745 0
M  V30 338 C 32.2651 1.56529 -1.36065 0
M  V30 339 C 32.6901 1.88029 0.0515859 0
M  V30 340 O 32.0481 1.49282 1.02882 0
M  V30 341 C 32.0961 2.85187 -2.20683 0
M  V30 342 O 31.2001 3.79593 -1.61193 0
M  V30 343 H 30.5411 0.47411 -0.464883 0
M  V30 344 H 33.0711 0.954269 -1.80983 0
M  V30 345 H 33.0811 3.34283 -2.33921 0
M  V30 346 H 31.7561 2.61588 -3.23334 0
M  V30 347 H 30.3331 3.38239 -1.56999 0
M  V30 348 N 32.5182 1.22032 0.997298 0
M  V30 349 C 33.7952 0.950823 1.70935 0
M  V30 350 C 34.1752 -0.535292 2.042 0
M  V30 351 O 33.5232 -1.50217 1.72183 0
M  V30 352 C 33.7332 1.84386 2.96315 0
M  V30 353 C 35.0812 2.09732 3.69185 0
M  V30 354 O 36.1052 1.81798 3.06314 0
M  V30 355 O 34.9642 2.57018 4.82291 0
M  V30 356 H 32.0582 0.357204 0.745878 0
M  V30 357 H 34.6042 1.32997 1.05404 0
M  V30 358 H 33.3762 2.84928 2.68201 0
M  V30 359 H 32.9992 1.46602 3.69586 0
M  V30 360 N 33.9963 -1.19345 1.0293 0
M  V30 361 C 35.2213 -1.93538 0.745511 0
M  V30 362 C 35.6463 -1.75007 -0.689511 0
M  V30 363 O 35.0043 -1.05265 -1.47611 0
M  V30 364 C 35.0523 -3.43336 1.10239 0
M  V30 365 O 34.1563 -4.11806 0.221289 0
M  V30 366 H 33.4973 -0.604193 0.275404 0
M  V30 367 H 36.0273 -1.5141 1.37609 0
M  V30 368 H 36.0373 -3.94004 1.05947 0
M  V30 369 H 34.7123 -3.56146 2.14786 0
M  V30 370 H 33.2893 -3.715 0.322842 0
M  V30 371 N 35.4744 -0.807222 -1.35358 0
M  V30 372 C 36.3844 -0.219594 -2.3357 0
M  V30 373 C 37.4004 0.637734 -1.61892 0
M  V30 374 O 38.5764 0.549336 -1.93763 0
M  V30 375 C 35.6414 0.62158 -3.41083 0
M  V30 376 C 34.7024 -0.256315 -4.28534 0
M  V30 377 C 33.9354 0.544807 -5.30912 0
M  V30 378 O 34.1584 1.77944 -5.41934 0
M  V30 379 O 33.0924 -0.0646478 -6.01865 0
M  V30 380 H 36.9184 -1.03208 -2.85625 0
M  V30 381 H 34.5034 -0.569025 -1.38139 0
M  V30 382 H 36.3854 1.10067 -4.06772 0
M  V30 383 H 35.0604 1.41165 -2.91297 0
M  V30 384 H 33.9674 -0.782559 -3.65823 0
M  V30 385 H 35.3004 -1.01034 -4.81719 0
M  V30 386 N 36.9525 1.47285 -0.560781 0
M  V30 387 C 37.9005 2.31756 0.197942 0
M  V30 388 C 38.8945 1.43146 0.905854 0
M  V30 389 O 40.1005 1.59891 0.826733 0
M  V30 390 H 36.4755 0.747438 0.0827049 0
M  V30 391 H 38.4465 2.9359 -0.533629 0
M  V30 392 C 37.1955 3.25874 1.21249 0
M  V30 393 H 36.5185 3.94023 0.67719 0
M  V30 394 H 37.9585 3.87803 1.71419 0
M  V30 395 C 36.4175 2.49651 2.26221 0
M  V30 396 O 36.9475 2.24355 3.33208 0
M  V30 397 N 35.1535 2.10597 2.00243 0
M  V30 398 H 34.7005 2.31369 1.13252 0
M  V30 399 H 34.6585 1.59913 2.70694 0
M  V30 400 N 38.4306 0.297415 1.54768 0
M  V30 401 C 39.8466 -0.0560823 1.59501 0
M  V30 402 C 40.0466 -1.52725 1.31444 0
M  V30 403 O 39.1026 -2.27947 1.08611 0
M  V30 404 C 40.4156 0.338631 2.98787 0
M  V30 405 C 41.9636 0.287097 3.11681 0
M  V30 406 C 42.4386 0.656579 4.53269 0
M  V30 407 N 43.9296 0.608977 4.59179 0
M  V30 408 C 44.6646 0.867385 5.66802 0
M  V30 409 N 44.1606 1.19157 6.82476 0
M  V30 410 N 45.9536 0.794687 5.56454 0
M  V30 411 H 38.1046 1.25624 1.71267 0
M  V30 412 H 40.3676 0.509057 0.799728 0
M  V30 413 H 40.0736 1.36263 3.2423 0
M  V30 414 H 39.9476 -0.309508 3.75928 0
M  V30 415 H 42.3346 -0.727649 2.85988 0
M  V30 416 H 42.4156 0.969809 2.36703 0
M  V30 417 H 42.0596 1.66912 4.7969 0
M  V30 418 H 41.9896 -0.0481649 5.26578 0
M  V30 419 H 44.4806 0.369198 3.76092 0
M  V30 420 H 44.7936 1.37482 7.60473 0
M  V30 421 H 43.1386 1.22958 6.84037 0
M  V30 422 H 46.3296 0.541098 4.64962 0
M  V30 423 H 46.5026 0.999445 6.40246 0
M  V30 424 N 39.9087 -1.5758 0.0250728 0
M  V30 425 C 41.1857 -1.82917 -0.692873 0
M  V30 426 C 41.5657 -0.908137 -1.90568 0
M  V30 427 O 40.9137 0.0372298 -2.2847 0
M  V30 428 C 41.1237 -3.32034 -1.07492 0
M  V30 429 C 42.4717 -3.98406 -1.46826 0
M  V30 430 O 43.4957 -3.36505 -1.16801 0
M  V30 431 O 42.3547 -5.07497 -2.02754 0
M  V30 432 H 39.4487 -0.754079 -0.33955 0
M  V30 433 H 41.9947 -1.69619 0.0524456 0
M  V30 434 H 40.7667 -3.90728 -0.211552 0
M  V30 435 H 40.3897 -3.50424 -1.87854 0
M  V30 436 N 41.3868 0.248026 -1.55636 0
M  V30 437 C 42.3168 1.31079 -1.93237 0
M  V30 438 C 43.2978 1.50264 -0.797174 0
M  V30 439 O 44.4828 1.62891 -1.05737 0
M  V30 440 C 41.6128 2.66575 -2.22609 0
M  V30 441 C 40.5668 2.62087 -3.3837 0
M  V30 442 C 39.8928 4.01369 -3.53281 0
M  V30 443 C 41.1928 2.19171 -4.7409 0
M  V30 444 H 42.8868 0.998556 -2.82257 0
M  V30 445 H 40.4328 0.47891 -1.35803 0
M  V30 446 H 42.3858 3.41057 -2.47503 0
M  V30 447 H 41.1098 2.99432 -1.30414 0
M  V30 448 H 39.7688 1.90063 -3.13483 0
M  V30 449 H 39.4168 4.31489 -2.58508 0
M  V30 450 H 39.1168 3.99254 -4.31127 0
M  V30 451 H 40.6408 4.77552 -3.80495 0
M  V30 452 H 42.0548 2.83384 -4.98363 0
M  V30 453 H 40.4518 2.2817 -5.5503 0
M  V30 454 H 41.5218 1.14336 -4.71227 0
M  V30 455 N 42.8649 1.48995 0.513639 0
M  V30 456 C 43.8119 1.6473 1.61656 0
M  V30 457 C 44.7819 0.488984 1.58739 0
M  V30 458 O 45.9669 0.714478 1.76918 0
M  V30 459 C 43.1069 1.7082 2.99858 0
M  V30 460 C 42.2199 2.9787 3.12885 0
M  V30 461 C 41.3549 2.95017 4.41744 0
M  V30 462 C 40.3939 4.16702 4.48359 0
M  V30 463 N 39.5309 4.11832 5.68629 0
M  V30 464 H 44.3709 2.58909 1.47547 0
M  V30 465 H 41.9079 1.28382 0.71808 0
M  V30 466 H 43.8659 1.72331 3.79944 0
M  V30 467 H 42.4959 0.801181 3.12699 0
M  V30 468 H 41.5479 3.06029 2.25944 0
M  V30 469 H 42.8599 3.8786 3.13633 0
M  V30 470 H 42.0139 2.95021 5.30139 0
M  V30 471 H 40.7529 2.02784 4.43542 0
M  V30 472 H 39.7579 4.16955 3.58369 0
M  V30 473 H 40.9829 5.10113 4.48287 0
M  V30 474 H 38.9289 3.22428 5.71293 0
M  V30 475 H 38.8459 4.95543 5.7094 0
M  V30 476 H 40.1139 4.1592 6.59266 0
M  V30 477 N 44.343 -0.763751 1.37857 0
M  V30 478 C 45.571 -1.55293 1.36718 0
M  V30 479 C 45.986 -1.88745 -0.0455434 0
M  V30 480 O 45.343 -1.52039 -1.00947 0
M  V30 481 C 45.394 -2.85831 2.2132 0
M  V30 482 O 45.115 -2.5381 3.57089 0
M  V30 483 C 46.616 -3.80023 2.28249 0
M  V30 484 H 43.836 -0.480841 0.468009 0
M  V30 485 H 46.38 -0.946009 1.81303 0
M  V30 486 H 44.535 -3.42926 1.80223 0
M  V30 487 H 44.949 -3.37459 4.01524 0
M  V30 488 H 46.423 -4.68599 2.91752 0
M  V30 489 H 46.9 -4.1973 1.2932 0
M  V30 490 H 47.506 -3.28855 2.69693 0
M  V30 491 N 45.8211 -1.22559 -0.990812 0
M  V30 492 C 47.0671 -1.05297 -1.73322 0
M  V30 493 C 47.4001 0.410655 -1.89808 0
M  V30 494 O 46.6751 1.30439 -1.44277 0
M  V30 495 C 46.9581 -1.76713 -3.13759 0
M  V30 496 C 46.8111 -3.30684 -3.04907 0
M  V30 497 C 48.1301 -1.52121 -4.12974 0
M  V30 498 H 45.2491 -0.38392 -0.629106 0
M  V30 499 H 47.8911 -1.50926 -1.15418 0
M  V30 500 H 46.0411 -1.37924 -3.63193 0
M  V30 501 H 47.7131 -3.7893 -2.63077 0
M  V30 502 H 45.9561 -3.60253 -2.41661 0
M  V30 503 H 46.6271 -3.75833 -4.04294 0
M  V30 504 H 49.1031 -1.85819 -3.72304 0
M  V30 505 H 47.9791 -2.04582 -5.0935 0
M  V30 506 H 48.2401 -0.454257 -4.3976 0
M  V30 507 N 47.2992 1.18797 -1.03562 0
M  V30 508 C 48.2462 2.22253 -0.622259 0
M  V30 509 C 49.2162 1.61987 0.36736 0
M  V30 510 O 50.4012 1.88986 0.262492 0
M  V30 511 C 47.5412 3.45097 0.0138462 0
M  V30 512 C 46.6542 4.19722 -1.02263 0
M  V30 513 C 45.7892 5.30009 -0.355573 0
M  V30 514 C 44.8282 5.96399 -1.37749 0
M  V30 515 N 43.9652 6.98234 -0.735766 0
M  V30 516 H 48.8052 2.56968 -1.50903 0
M  V30 517 H 46.3422 1.26245 -0.755017 0
M  V30 518 H 48.3002 4.15279 0.399948 0
M  V30 519 H 46.9302 3.11018 0.864158 0
M  V30 520 H 45.9822 3.48418 -1.52673 0
M  V30 521 H 47.2942 4.65227 -1.79903 0
M  V30 522 H 46.4482 6.0664 0.0850095 0
M  V30 523 H 45.1872 4.85592 0.452967 0
M  V30 524 H 44.1922 5.18512 -1.82826 0
M  V30 525 H 45.4172 6.42899 -2.18764 0
M  V30 526 H 43.3632 6.55979 0.0525597 0
M  V30 527 H 43.2802 7.41965 -1.44995 0
M  V30 528 H 44.5482 7.78845 -0.31941 0
M  V30 529 N 48.7773 0.814389 1.34928 0
M  V30 530 C 49.6873 0.231978 2.3345 0
M  V30 531 C 50.7033 -0.629139 1.62228 0
M  V30 532 O 51.8793 -0.539052 1.94052 0
M  V30 533 C 48.9443 -0.603482 3.41407 0
M  V30 534 C 48.0053 0.279037 4.28392 0
M  V30 535 C 47.2383 -0.516643 5.31193 0
M  V30 536 O 47.4613 -1.75068 5.4287 0
M  V30 537 O 46.3953 0.0965652 6.01823 0
M  V30 538 H 50.2213 1.04721 2.85074 0
M  V30 539 H 47.8063 0.576343 1.37836 0
M  V30 540 H 49.6883 -1.07908 4.0735 0
M  V30 541 H 48.3633 -1.39618 2.92042 0
M  V30 542 H 47.2703 0.801948 3.65403 0
M  V30 543 H 48.6033 1.03588 4.81176 0
M  V30 544 N 50.2554 -1.46986 0.568584 0
M  V30 545 C 51.2024 -2.30153 -0.172707 0
M  V30 546 C 52.1724 -1.39759 -0.897586 0
M  V30 547 O 53.3574 -1.68716 -0.891044 0
M  V30 548 C 50.4974 -3.23952 -1.1895 0
M  V30 549 C 49.6104 -4.29441 -0.469517 0
M  V30 550 C 48.7454 -5.1038 -1.47259 0
M  V30 551 C 47.7844 -6.07632 -0.738225 0
M  V30 552 N 46.9214 -6.8149 -1.68868 0
M  V30 553 H 51.7614 -2.93019 0.542596 0
M  V30 554 H 49.2984 -1.44422 0.279401 0
M  V30 555 H 51.2564 -3.76767 -1.79173 0
M  V30 556 H 49.8864 -2.62926 -1.87269 0
M  V30 557 H 48.9384 -3.79594 0.247467 0
M  V30 558 H 50.2504 -4.98689 0.105241 0
M  V30 559 H 49.4044 -5.67402 -2.14803 0
M  V30 560 H 48.1434 -4.4106 -2.08128 0
M  V30 561 H 47.1484 -5.49778 -0.0489293 0
M  V30 562 H 48.3734 -6.78966 -0.135129 0
M  V30 563 H 46.3194 -6.14891 -2.28573 0
M  V30 564 H 46.2364 -7.46948 -1.16636 0
M  V30 565 H 47.5044 -7.43078 -2.3549 0
M  V30 566 N 51.7335 -0.305618 -1.54608 0
M  V30 567 C 53.0105 0.355652 -1.92339 0
M  V30 568 C 53.3905 1.71324 -1.23335 0
M  V30 569 O 52.7385 2.25473 -0.370702 0
M  V30 570 C 52.9485 0.46572 -3.45879 0
M  V30 571 C 54.2965 0.734426 -4.182 0
M  V30 572 O 55.3205 0.54935 -3.51938 0
M  V30 573 O 54.1795 1.09024 -5.35515 0
M  V30 574 H 51.2735 0.199666 -0.802535 0
M  V30 575 H 53.8195 -0.354017 -1.65966 0
M  V30 576 H 52.5915 -0.488461 -3.88239 0
M  V30 577 H 52.2145 1.22367 -3.78301 0
M  V30 578 N 53.2116 1.57565 -0.0334293 0
M  V30 579 C 54.4886 1.83282 0.683163 0
M  V30 580 C 54.8686 0.91823 1.90084 0
M  V30 581 O 54.2166 -0.025113 2.28486 0
M  V30 582 C 54.4266 3.32599 1.0573 0
M  V30 583 C 55.7746 3.99179 1.44711 0
M  V30 584 O 56.7986 3.3712 1.15015 0
M  V30 585 O 55.6576 5.08565 2.0006 0
M  V30 586 H 52.7516 0.755869 0.335546 0
M  V30 587 H 55.2976 1.69589 -0.0614402 0
M  V30 588 H 54.0696 3.90834 0.190828 0
M  V30 589 H 53.6926 3.51415 1.85993 0
M  V30 590 N 54.6897 -0.239769 1.55765 0
M  V30 591 C 55.9387 -0.964754 1.77131 0
M  V30 592 C 56.2517 -1.86213 0.59868 0
M  V30 593 O 57.4577 -2.6244 0.695522 0
M  V30 594 C 55.9137 -1.76552 3.1362 0
M  V30 595 C 55.5217 -0.915185 4.38553 0
M  V30 596 C 57.2657 -2.48281 3.44321 0
M  V30 597 C 55.1727 -1.71225 5.66071 0
M  V30 598 H 54.1027 -0.363953 0.660344 0
M  V30 599 H 56.7537 -0.219181 1.82186 0
M  V30 600 H 55.1357 -2.55331 3.02691 0
M  V30 601 H 56.3097 -0.169217 4.60489 0
M  V30 602 H 54.6247 -0.310889 4.15238 0
M  V30 603 H 57.2217 -3.08382 4.36812 0
M  V30 604 H 57.5647 -3.20256 2.65973 0
M  V30 605 H 58.0977 -1.76507 3.56497 0
M  V30 606 H 54.8367 -1.03612 6.4726 0
M  V30 607 H 54.3567 -2.43331 5.48224 0
M  V30 608 H 56.0357 -2.27758 6.05587 0
M  V30 609 N 56.1678 -1.49265 -0.50573 0
M  V30 610 C 57.0978 -1.68495 -1.61653 0
M  V30 611 C 58.0788 -0.53366 -1.61512 0
M  V30 612 O 59.2638 -0.76897 -1.78327 0
M  V30 613 C 56.3938 -1.74709 -3.00157 0
M  V30 614 C 55.3478 -2.89581 -3.15162 0
M  V30 615 C 54.6738 -2.80903 -4.5497 0
M  V30 616 C 55.9738 -4.30578 -2.95634 0
M  V30 617 H 57.6678 -2.61493 -1.45814 0
M  V30 618 H 55.2138 -1.25838 -0.70005 0
M  V30 619 H 57.1668 -1.86748 -3.77761 0
M  V30 620 H 55.8908 -0.783067 -3.17074 0
M  V30 621 H 54.5498 -2.77136 -2.39982 0
M  V30 622 H 54.1978 -1.82419 -4.68756 0
M  V30 623 H 53.8978 -3.57999 -4.65951 0
M  V30 624 H 55.4218 -2.94944 -5.34641 0
M  V30 625 H 56.8358 -4.4373 -3.63011 0
M  V30 626 H 55.2328 -5.0886 -3.18091 0
M  V30 627 H 56.3028 -4.45352 -1.91806 0
M  V30 628 N 57.6459 0.756429 -1.3826 0
M  V30 629 C 58.8929 1.51547 -1.34312 0
M  V30 630 C 59.2209 1.94382 0.0677144 0
M  V30 631 O 58.4759 1.65514 1.04421 0
M  V30 632 C 58.7749 2.78313 -2.24224 0
M  V30 633 C 58.4409 2.54455 -3.72241 0
M  V30 634 C 57.1029 2.47657 -4.12576 0
M  V30 635 C 59.4549 2.3354 -4.65949 0
M  V30 636 C 56.7829 2.17956 -5.44713 0
M  V30 637 C 59.1349 2.05359 -5.9834 0
M  V30 638 C 57.7989 1.97016 -6.37762 0
M  V30 639 H 57.0689 0.55455 -0.491482 0
M  V30 640 H 59.7159 0.870039 -1.70595 0
M  V30 641 H 58.0209 3.47492 -1.80987 0
M  V30 642 H 59.7179 3.36259 -2.18474 0
M  V30 643 H 56.3079 2.60616 -3.40261 0
M  V30 644 H 60.4919 2.37772 -4.35635 0
M  V30 645 H 55.7479 2.10003 -5.74203 0
M  V30 646 H 59.9219 1.88179 -6.70494 0
M  V30 647 H 57.5489 1.73766 -7.40074 0
M  V30 648 N 59.124 1.23083 0.984299 0
M  V30 649 C 60.034 1.02515 2.11016 0
M  V30 650 C 61.05 -0.0291702 1.73976 0
M  V30 651 O 62.226 0.165434 2.00719 0
M  V30 652 C 59.291 0.614673 3.41208 0
M  V30 653 C 58.352 1.74359 3.92297 0
M  V30 654 C 57.585 1.35261 5.16275 0
M  V30 655 O 57.808 0.235136 5.69915 0
M  V30 656 O 56.742 2.17227 5.61334 0
M  V30 657 H 60.568 1.96862 2.31255 0
M  V30 658 H 58.153 1.01753 1.09392 0
M  V30 659 H 60.035 0.396518 4.1953 0
M  V30 660 H 58.71 -0.299851 3.22308 0
M  V30 661 H 57.617 2.01635 3.1511 0
M  V30 662 H 58.95 2.63629 4.15645 0
M  V30 663 N 60.6021 -1.18246 1.0419 0
M  V30 664 C 61.8791 -1.84121 0.660208 0
M  V30 665 C 62.2591 -1.92778 -0.860221 0
M  V30 666 O 61.6071 -1.45464 -1.76217 0
M  V30 667 C 61.8171 -3.22355 1.33747 0
M  V30 668 C 63.1651 -3.98376 1.46906 0
M  V30 669 O 64.1891 -3.31799 1.29568 0
M  V30 670 O 63.0481 -5.17665 1.75171 0
M  V30 671 H 60.1421 -0.794036 0.231161 0
M  V30 672 H 62.6881 -1.25628 1.14087 0
M  V30 673 H 61.4601 -3.10964 2.37522 0
M  V30 674 H 61.0831 -3.88506 0.845515 0
M  V30 675 N 62.0802 -0.821533 -1.34494 0
M  V30 676 C 63.0102 -0.257138 -2.3208 0
M  V30 677 C 63.9912 0.625645 -1.58176 0
M  V30 678 O 65.1762 0.552811 -1.86166 0
M  V30 679 C 62.3062 0.582958 -3.42372 0
M  V30 680 C 61.2602 -0.202571 -4.2752 0
M  V30 681 C 60.5862 0.760179 -5.29269 0
M  V30 682 C 61.8862 -1.40998 -5.02908 0
M  V30 683 H 63.5802 -1.07247 -2.79532 0
M  V30 684 H 61.1262 -0.517163 -1.34393 0
M  V30 685 H 63.0792 0.987972 -4.09655 0
M  V30 686 H 61.8032 1.43133 -2.93565 0
M  V30 687 H 60.4622 -0.588936 -3.61838 0
M  V30 688 H 60.1102 1.60447 -4.76724 0
M  V30 689 H 59.8102 0.238809 -5.87115 0
M  V30 690 H 61.3342 1.16308 -5.9942 0
M  V30 691 H 62.7482 -1.07905 -5.63054 0
M  V30 692 H 61.1452 -1.86689 -5.70322 0
M  V30 693 H 62.2152 -2.1889 -4.32684 0
M  V30 694 N 63.5583 1.46682 -0.576371 0
M  V30 695 C 64.4903 2.28341 0.198231 0
M  V30 696 C 65.5033 1.38141 0.861453 0
M  V30 697 O 66.6923 1.62797 0.732082 0
M  V30 698 C 63.7923 3.12986 1.29972 0
M  V30 699 C 62.9653 4.31271 0.729639 0
M  V30 700 C 62.0243 4.97363 1.71803 0
M  V30 701 O 61.0503 5.55156 1.25658 0
M  V30 702 N 62.2523 4.93796 3.05198 0
M  V30 703 H 65.0173 2.9546 -0.502324 0
M  V30 704 H 62.5783 1.56525 -0.413715 0
M  V30 705 H 64.5703 3.54066 1.96008 0
M  V30 706 H 63.1403 2.47984 1.90323 0
M  V30 707 H 62.3603 3.94052 -0.108012 0
M  V30 708 H 63.6483 5.07739 0.328438 0
M  V30 709 H 63.0463 4.48077 3.45317 0
M  V30 710 H 61.6033 5.38837 3.6674 0
M  V30 711 N 65.0364 0.313813 1.54444 0
M  V30 712 C 66.3134 -0.345447 1.92525 0
M  V30 713 C 66.6934 -1.70667 1.24242 0
M  V30 714 O 66.0414 -2.25273 0.382654 0
M  V30 715 C 66.2514 -0.44737 3.46121 0
M  V30 716 C 67.5994 -0.712238 4.18584 0
M  V30 717 O 68.6234 -0.530678 3.52225 0
M  V30 718 O 67.4824 -1.06183 5.36085 0
M  V30 719 H 64.5764 -0.195407 0.803583 0
M  V30 720 H 67.1224 0.362813 1.65776 0
M  V30 721 H 65.8944 0.509043 3.87975 0
M  V30 722 H 65.5174 -1.20359 3.78945 0
M  V30 723 N 66.5145 -1.57545 0.0417849 0
M  V30 724 C 67.4625 -2.12148 -0.953723 0
M  V30 725 C 68.4565 -1.05104 -1.32852 0
M  V30 726 O 69.6625 -1.23524 -1.30927 0
M  V30 727 H 66.0375 -0.677957 -0.325389 0
M  V30 728 H 68.0085 -2.94707 -0.467991 0
M  V30 729 C 66.7575 -2.6739 -2.22257 0
M  V30 730 H 66.0805 -3.49413 -1.94295 0
M  V30 731 H 67.5205 -3.09227 -2.90094 0
M  V30 732 C 65.9795 -1.60723 -2.96091 0
M  V30 733 O 66.5095 -1.01449 -3.88679 0
M  V30 734 N 64.7155 -1.32466 -2.58652 0
M  V30 735 H 64.2625 -1.80856 -1.83437 0
M  V30 736 H 64.2205 -0.61325 -3.08361 0
M  V30 737 N 67.9926 0.231505 -1.5589 0
M  V30 738 C 69.2386 0.95877 -1.78705 0
M  V30 739 C 69.5716 1.8438 -0.609725 0
M  V30 740 O 68.8466 1.90521 0.391426 0
M  V30 741 C 69.1296 1.8062 -3.11526 0
M  V30 742 C 68.9826 0.948328 -4.39689 0
M  V30 743 C 70.3016 2.78585 -3.40703 0
M  V30 744 H 67.4206 0.347129 -0.650131 0
M  V30 745 H 70.0626 0.228259 -1.88624 0
M  V30 746 H 68.2126 2.42902 -3.03201 0
M  V30 747 H 69.8846 0.343016 -4.60023 0
M  V30 748 H 68.1276 0.253314 -4.3306 0
M  V30 749 H 68.7986 1.57543 -5.29041 0
M  V30 750 H 71.2746 2.26439 -3.49091 0
M  V30 751 H 70.1506 3.34988 -4.34826 0
M  V30 752 H 70.4116 3.55825 -2.62375 0
M  V30 753 N 69.4707 1.49531 0.497807 0
M  V30 754 C 70.4187 1.66926 1.61983 0
M  V30 755 C 71.4127 0.535167 1.60724 0
M  V30 756 O 72.6187 0.714896 1.65195 0
M  V30 757 H 68.9937 0.526415 0.537021 0
M  V30 758 H 70.9647 2.61098 1.44465 0
M  V30 759 C 69.7137 1.75602 3.00099 0
M  V30 760 H 69.0367 2.62244 3.01775 0
M  V30 761 H 70.4767 1.91807 3.78135 0
M  V30 762 C 68.9357 0.501543 3.33146 0
M  V30 763 O 69.4657 -0.371342 3.9998 0
M  V30 764 N 67.6717 0.363531 2.88317 0
M  V30 765 H 67.2187 1.07485 2.34104 0
M  V30 766 H 67.1767 -0.474728 3.10795 0
M  V30 767 N 70.9488 -0.749086 1.3866 0
M  V30 768 C 71.8588 -1.89358 1.38494 0
M  V30 769 C 72.8748 -1.71708 0.281476 0
M  V30 770 O 74.0508 -1.94554 0.520643 0
M  V30 771 C 71.1158 -3.24782 1.21316 0
M  V30 772 C 70.1768 -3.54926 2.41508 0
M  V30 773 C 69.4098 -4.83888 2.2514 0
M  V30 774 O 69.6328 -5.56592 1.24746 0
M  V30 775 O 68.5668 -5.13612 3.13826 0
M  V30 776 H 72.3928 -1.92452 2.34938 0
M  V30 777 H 69.9778 -0.894981 1.19626 0
M  V30 778 H 71.8598 -4.05739 1.13814 0
M  V30 779 H 70.5348 -3.2249 0.279592 0
M  V30 780 H 69.4418 -2.74112 2.54585 0
M  V30 781 H 70.7748 -3.61983 3.3351 0
M  V30 782 N 72.4269 -1.23603 -0.977757 0
M  V30 783 C 73.3749 -1.01704 -2.09187 0
M  V30 784 C 74.3689 0.0448214 -1.69341 0
M  V30 785 O 75.5749 -0.108902 -1.7967 0
M  V30 786 H 71.9499 -0.311803 -0.684312 0
M  V30 787 H 73.9209 -1.96207 -2.24823 0
M  V30 788 C 72.6699 -0.627746 -3.41986 0
M  V30 789 H 71.9929 -1.43656 -3.73099 0
M  V30 790 H 73.4329 -0.514053 -4.20872 0
M  V30 791 C 71.8919 0.664238 -3.30287 0
M  V30 792 O 72.4219 1.71268 -3.6336 0
M  V30 793 N 70.6279 0.641156 -2.83439 0
M  V30 794 H 70.1749 -0.212376 -2.56723 0
M  V30 795 H 70.1329 1.50583 -2.75993 0
M  V30 796 N 73.905 1.17692 -1.04816 0
M  V30 797 C 75.153 1.87488 -0.754497 0
M  V30 798 C 75.474 1.81205 0.720407 0
M  V30 799 O 74.744 1.23544 1.52032 0
M  V30 800 H 73.324 0.694101 -0.276102 0
M  V30 801 H 75.986 1.42793 -1.32651 0
M  V30 802 H 75.082 2.93328 -1.06606 0
M  V30 803 N 75.3831 0.828654 1.34056 0
M  V30 804 C 76.2931 0.256725 2.33191 0
M  V30 805 C 77.3091 -0.611898 1.62886 0
M  V30 806 O 78.4851 -0.51844 1.94613 0
M  V30 807 C 75.5501 -0.567238 3.42028 0
M  V30 808 C 74.6111 0.324458 4.28072 0
M  V30 809 C 73.8441 -0.460274 5.31712 0
M  V30 810 O 74.0671 -1.693 5.44696 0
M  V30 811 O 73.0011 0.160391 6.01686 0
M  V30 812 H 76.8271 1.07739 2.83947 0
M  V30 813 H 74.4121 0.59093 1.37217 0
M  V30 814 H 76.2941 -1.03582 4.08471 0
M  V30 815 H 74.9691 -1.36513 2.93506 0
M  V30 816 H 73.8761 0.840659 3.64532 0
M  V30 817 H 75.2091 1.08685 4.8005 0
M  V30 818 N 76.8612 -1.46375 0.584142 0
M  V30 819 C 78.1092 -2.01978 0.0701287 0
M  V30 820 C 78.4302 -1.4579 -1.295 0
M  V30 821 O 77.7002 -0.64314 -1.85042 0
M  V30 822 H 76.2802 -0.746648 0.0229345 0
M  V30 823 H 78.9422 -1.79461 0.760245 0
M  V30 824 H 78.0382 -3.121 0.0022064 0
M  V30 825 N 78.3393 -0.321999 -1.54275 0
M  V30 826 C 79.2493 0.553631 -2.27974 0
M  V30 827 C 80.2653 1.13054 -1.32268 0
M  V30 828 O 81.4413 1.15084 -1.6528 0
M  V30 829 C 78.5063 1.69927 -3.02201 0
M  V30 830 C 77.5673 1.15433 -4.1349 0
M  V30 831 C 76.8003 2.24537 -4.84168 0
M  V30 832 O 77.0233 3.44852 -4.5435 0
M  V30 833 O 75.9573 1.90044 -5.7111 0
M  V30 834 H 79.7833 -0.0448345 -3.03667 0
M  V30 835 H 77.3683 -0.0877418 -1.49142 0
M  V30 836 H 79.2503 2.3663 -3.48689 0
M  V30 837 H 77.9253 2.28395 -2.29385 0
M  V30 838 H 76.8323 0.452436 -3.71354 0
M  V30 839 H 78.1653 0.614805 -4.88345 0
M  V30 840 N 79.8174 1.5752 -0.0501392 0
M  V30 841 C 81.0664 1.91827 0.623328 0
M  V30 842 C 81.3794 0.930222 1.72065 0
M  V30 843 O 82.5854 1.1653 2.4522 0
M  V30 844 C 81.0414 3.40692 1.16003 0
M  V30 845 C 80.6494 4.479 0.0948811 0
M  V30 846 C 82.3934 3.84034 1.80881 0
M  V30 847 C 80.3004 5.87879 0.644411 0
M  V30 848 H 79.2304 0.715918 0.236596 0
M  V30 849 H 81.8814 1.83115 -0.118861 0
M  V30 850 H 80.2634 3.44405 1.9545 0
M  V30 851 H 81.4374 4.55775 -0.678675 0
M  V30 852 H 79.7524 4.13892 -0.45637 0
M  V30 853 H 82.3494 4.85984 2.22988 0
M  V30 854 H 82.6924 3.20225 2.6601 0
M  V30 855 H 83.2254 3.82833 1.0809 0
M  V30 856 H 79.9644 6.55282 -0.169229 0
M  V30 857 H 79.4844 5.83567 1.38598 0
M  V30 858 H 81.1634 6.37098 1.12763 0
M  V30 859 N 81.2955 -0.223234 1.56011 0
M  V30 860 C 82.2055 -1.29766 1.95443 0
M  V30 861 C 83.2215 -1.51373 0.858028 0
M  V30 862 O 84.3975 -1.64536 1.16146 0
M  V30 863 C 81.4625 -2.62772 2.26167 0
M  V30 864 C 80.5235 -2.49482 3.49367 0
M  V30 865 C 79.7565 -3.76145 3.78616 0
M  V30 866 O 79.9795 -4.79087 3.09568 0
M  V30 867 O 78.9135 -3.73358 4.72109 0
M  V30 868 H 82.7395 -0.99309 2.87004 0
M  V30 869 H 80.3245 -0.425958 1.43199 0
M  V30 870 H 82.2065 -3.41327 2.47131 0
M  V30 871 H 80.8815 -2.92913 1.37781 0
M  V30 872 H 79.7885 -1.69133 3.33684 0
M  V30 873 H 81.1215 -2.2428 4.38131 0
M  V30 874 N 82.7736 -1.49793 -0.48987 0
M  V30 875 C 84.0506 -1.50348 -1.25119 0
M  V30 876 C 84.4306 -0.237466 -2.0976 0
M  V30 877 O 83.7786 0.77981 -2.14782 0
M  V30 878 C 83.9886 -2.78872 -2.09837 0
M  V30 879 C 85.3366 -3.288 -2.68655 0
M  V30 880 O 86.3606 -2.80065 -2.20096 0
M  V30 881 O 85.2196 -4.13707 -3.57083 0
M  V30 882 H 82.3136 -0.602242 -0.566775 0
M  V30 883 H 84.8596 -1.62067 -0.503229 0
M  V30 884 H 83.6316 -3.62499 -1.47343 0
M  V30 885 H 83.2546 -2.70066 -2.91805 0
M  V30 886 N 84.2517 0.741722 -1.39055 0
M  V30 887 C 85.1617 1.88621 -1.39496 0
M  V30 888 C 86.1777 1.71557 -0.290578 0
M  V30 889 O 87.3537 1.94275 -0.530954 0
M  V30 890 C 84.4187 3.24134 -1.23037 0
M  V30 891 C 83.4797 3.5364 -2.43387 0
M  V30 892 C 82.7127 4.82687 -2.27703 0
M  V30 893 O 82.9357 5.55922 -1.27696 0
M  V30 894 O 81.8697 5.1194 -3.16545 0
M  V30 895 H 85.6957 1.91203 -2.35956 0
M  V30 896 H 83.2807 0.888625 -1.20099 0
M  V30 897 H 85.1627 4.0513 -1.15964 0
M  V30 898 H 83.8377 3.22337 -0.296691 0
M  V30 899 H 82.7447 2.72758 -2.56035 0
M  V30 900 H 84.0777 3.60209 -3.35425 0
M  V30 901 N 85.7298 1.2412 0.971189 0
M  V30 902 C 86.6398 1.04747 2.09917 0
M  V30 903 C 87.6558 -0.0107162 1.73997 0
M  V30 904 O 88.8318 0.186714 2.00533 0
M  V30 905 C 85.8968 0.650828 3.40537 0
M  V30 906 C 84.9578 1.7851 3.90426 0
M  V30 907 C 84.1908 1.40729 5.14812 0
M  V30 908 O 84.4138 0.29557 5.69634 0
M  V30 909 O 83.3478 2.23168 5.58999 0
M  V30 910 H 87.1738 1.99304 2.29154 0
M  V30 911 H 84.7588 1.02908 1.08307 0
M  V30 912 H 86.6408 0.440992 4.19086 0
M  V30 913 H 85.3158 -0.265649 3.22608 0
M  V30 914 H 84.2228 2.04966 3.12953 0
M  V30 915 H 85.5558 2.68023 4.12825 0
M  V30 916 N 87.2079 -1.17134 1.05439 0
M  V30 917 C 88.1179 -2.24878 0.668365 0
M  V30 918 C 89.1339 -1.71186 -0.311687 0
M  V30 919 O 90.3099 -2.00738 -0.163161 0
M  V30 920 C 87.3749 -3.46662 0.051648 0
M  V30 921 C 86.4359 -4.15429 1.08246 0
M  V30 922 C 85.6689 -5.31399 0.495082 0
M  V30 923 O 85.8919 -5.66153 -0.694743 0
M  V30 924 O 84.8259 -5.89187 1.23056 0
M  V30 925 H 88.6519 -2.60189 1.56637 0
M  V30 926 H 86.2369 -1.24482 0.826104 0
M  V30 927 H 88.1189 -4.20394 -0.290966 0
M  V30 928 H 86.7939 -3.13142 -0.819971 0
M  V30 929 H 85.7009 -3.43704 1.47711 0
M  V30 930 H 87.0339 -4.52982 1.92532 0
M  V30 931 N 88.686 -0.835752 -1.33615 0
M  V30 932 C 89.596 -0.269088 -2.33052 0
M  V30 933 C 90.612 0.603251 -1.63208 0
M  V30 934 O 91.788 0.508112 -1.94885 0
M  V30 935 C 88.853 0.549091 -3.42324 0
M  V30 936 C 87.914 -0.347156 -4.27894 0
M  V30 937 C 87.147 0.43207 -5.31948 0
M  V30 938 O 87.37 1.66409 -5.45586 0
M  V30 939 O 86.304 -0.192298 -6.01593 0
M  V30 940 H 90.13 -1.09243 -2.83372 0
M  V30 941 H 87.715 -0.598198 -1.36901 0
M  V30 942 H 89.597 1.01414 -4.09015 0
M  V30 943 H 88.272 1.34955 -2.94226 0
M  V30 944 H 87.179 -0.859979 -3.64081 0
M  V30 945 H 88.512 -1.1123 -4.79467 0
M  V30 946 N 90.1641 1.46063 -0.591896 0
M  V30 947 C 91.4121 2.01938 -0.0808391 0
M  V30 948 C 91.7331 1.46475 1.28725 0
M  V30 949 O 91.0031 0.652944 1.84698 0
M  V30 950 H 89.5831 0.746516 -0.0268938 0
M  V30 951 H 92.2451 1.79055 -0.769752 0
M  V30 952 H 91.3411 3.12094 -0.0187578 0
M  V30 953 N 91.6422 0.330177 1.54103 0
M  V30 954 C 92.8722 -0.271784 2.04805 0
M  V30 955 C 93.2802 -1.45816 1.20559 0
M  V30 956 O 92.6232 -1.82247 0.2306 0
M  V30 957 C 92.6852 -0.763238 3.51305 0
M  V30 958 C 92.3492 0.301705 4.56003 0
M  V30 959 C 93.3462 1.13999 5.07248 0
M  V30 960 C 91.0312 0.451793 5.00264 0
M  V30 961 C 93.0252 2.11402 6.01322 0
M  V30 962 C 90.7122 1.42924 5.94151 0
M  V30 963 C 91.7102 2.25882 6.44567 0
M  V30 964 O 91.3982 3.21965 7.3661 0
M  V30 965 H 91.1302 -0.058693 0.673447 0
M  V30 966 H 93.6842 0.476395 1.99799 0
M  V30 967 H 91.9142 -1.56244 3.5373 0
M  V30 968 H 93.6032 -1.28427 3.85047 0
M  V30 969 H 94.3692 1.03505 4.73827 0
M  V30 970 H 90.2482 -0.184044 4.60632 0
M  V30 971 H 93.7922 2.76192 6.40596 0
M  V30 972 H 89.6892 1.53479 6.26988 0
M  V30 973 H 90.4572 3.17281 7.54503 0
M  V30 974 N 93.1203 -1.57491 0.0584922 0
M  V30 975 C 94.3973 -1.84346 -0.653918 0
M  V30 976 C 94.7773 -0.948355 -1.88599 0
M  V30 977 O 94.1253 -0.0112403 -2.28497 0
M  V30 978 C 94.3353 -3.34239 -1.00425 0
M  V30 979 C 95.6833 -4.01431 -1.38342 0
M  V30 980 O 96.7073 -3.38907 -1.09637 0
M  V30 981 O 95.5663 -5.11683 -1.91943 0
M  V30 982 H 92.6603 -0.761112 -0.323478 0
M  V30 983 H 95.2063 -1.6947 0.0884125 0
M  V30 984 H 93.9783 -3.91089 -0.128625 0
M  V30 985 H 93.6013 -3.54329 -1.80378 0
M  V30 986 N 94.5984 0.214957 -1.56127 0
M  V30 987 C 95.8754 0.963093 -1.70247 0
M  V30 988 C 96.2554 2.02166 -0.60764 0
M  V30 989 O 95.6034 2.25244 0.384385 0
M  V30 990 C 95.8134 1.56756 -3.11815 0
M  V30 991 C 97.1614 2.0573 -3.7143 0
M  V30 992 O 98.1854 1.66637 -3.14818 0
M  V30 993 O 97.0444 2.77603 -4.70743 0
M  V30 994 H 94.1384 0.450321 -0.693643 0
M  V30 995 H 96.6844 0.206219 -1.68442 0
M  V30 996 H 95.4564 0.803533 -3.82961 0
M  V30 997 H 95.0794 2.3898 -3.17765 0
M  V30 998 N 96.0765 1.50051 0.48192 0
M  V30 999 C 97.3535 1.51009 1.2432 0
M  V30 1000 C 97.7335 0.248587 2.09631 0
M  V30 1001 O 97.0815 -0.768409 2.15192 0
M  V30 1002 C 97.2915 2.79981 2.08355 0
M  V30 1003 C 98.6395 3.3022 2.66908 0
M  V30 1004 O 99.6635 2.81228 2.18607 0
M  V30 1005 O 98.5225 4.15595 3.54884 0
M  V30 1006 H 95.6165 0.605239 0.563573 0
M  V30 1007 H 98.1625 1.62332 0.494627 0
M  V30 1008 H 96.9345 3.63275 1.45419 0
M  V30 1009 H 96.5575 2.7161 2.90368 0
M  V30 1010 N 97.5546 -0.734337 1.39446 0
M  V30 1011 C 98.8316 -1.48579 1.27215 0
M  V30 1012 C 99.2116 -2.1077 -0.117968 0
M  V30 1013 O 98.5596 -1.98646 -1.12924 0
M  V30 1014 C 98.7696 -2.53667 2.39696 0
M  V30 1015 C 100.118 -3.20031 2.79044 0
M  V30 1016 O 101.142 -2.6398 2.39151 0
M  V30 1017 O 100.001 -4.21455 3.47905 0
M  V30 1018 H 97.0946 -0.659816 0.49857 0
M  V30 1019 H 99.6406 -0.768106 1.51322 0
M  V30 1020 H 98.4126 -2.06096 3.32626 0
M  V30 1021 H 98.0356 -3.32994 2.17258 0
M  V30 1022 N 99.0327 -1.24633 -0.964593 0
M  V30 1023 C 100.31 -0.995809 -1.68354 0
M  V30 1024 C 100.69 0.480964 -2.05548 0
M  V30 1025 O 100.038 1.45599 -1.76105 0
M  V30 1026 C 100.248 -1.92177 -2.91323 0
M  V30 1027 C 101.596 -2.19446 -3.63495 0
M  V30 1028 O 102.62 -1.89855 -3.01386 0
M  V30 1029 O 101.479 -2.69714 -4.75307 0
M  V30 1030 H 98.5727 -0.376854 -0.736146 0
M  V30 1031 H 101.119 -1.35745 -1.0184 0
M  V30 1032 H 99.8907 -2.91938 -2.60553 0
M  V30 1033 H 99.5137 -1.56349 -3.65569 0
M  V30 1034 N 100.511 1.16574 -1.06058 0
M  V30 1035 C 101.788 1.83048 -0.689416 0
M  V30 1036 C 102.168 1.94122 0.829443 0
M  V30 1037 O 101.516 1.48249 1.7388 0
M  V30 1038 C 101.726 3.20186 -1.38859 0
M  V30 1039 C 103.074 3.95989 -1.53226 0
M  V30 1040 O 104.098 3.29696 -1.3483 0
M  V30 1041 O 102.957 5.14813 -1.83384 0
M  V30 1042 H 100.051 0.790258 -0.243764 0
M  V30 1043 H 102.597 1.23797 -1.16071 0
M  V30 1044 H 101.369 3.07146 -2.4244 0
M  V30 1045 H 100.992 3.87112 -0.907216 0
M  V30 1046 N 101.989 0.842826 1.3317 0
M  V30 1047 C 103.235 0.450342 1.98352 0
M  V30 1048 C 103.59 -0.980508 1.65541 0
M  V30 1049 O 102.883 -1.67678 0.927065 0
M  V30 1050 C 103.077 0.612607 3.52111 0
M  V30 1051 C 102.906 2.05768 3.99862 0
M  V30 1052 C 101.676 2.69374 4.27511 0
M  V30 1053 C 103.874 3.02688 4.15794 0
M  V30 1054 N 101.856 4.04915 4.61429 0
M  V30 1055 C 103.227 4.23186 4.53115 0
M  V30 1056 C 105.282 2.99041 3.98094 0
M  V30 1057 C 103.985 5.40518 4.74587 0
M  V30 1058 C 106.011 4.15607 4.20743 0
M  V30 1059 C 105.373 5.3486 4.58371 0
M  V30 1060 H 101.472 0.213296 0.752349 0
M  V30 1061 H 104.056 1.09173 1.61212 0
M  V30 1062 H 102.227 0.000998822 3.884 0
M  V30 1063 H 103.959 0.191179 4.04248 0
M  V30 1064 H 100.714 2.20485 4.19146 0
M  V30 1065 H 101.138 4.74798 4.82593 0
M  V30 1066 H 105.78 2.0797 3.68114 0
M  V30 1067 H 103.498 6.3213 5.03425 0
M  V30 1068 H 107.084 4.14207 4.08563 0
M  V30 1069 H 105.964 6.23558 4.75547 0
M  V30 1070 N 103.467 -1.45747 0.599634 0
M  V30 1071 C 104.744 -1.95585 0.0240846 0
M  V30 1072 C 105.124 -1.54217 -1.44154 0
M  V30 1073 O 104.472 -0.800903 -2.14004 0
M  V30 1074 C 104.682 -3.48344 0.21385 0
M  V30 1075 C 106.03 -4.24504 0.0904902 0
M  V30 1076 O 107.054 -3.55911 0.143558 0
M  V30 1077 O 105.913 -5.46491 -0.0310766 0
M  V30 1078 H 103.007 -0.82602 -0.0402478 0
M  V30 1079 H 105.553 -1.55951 0.669139 0
M  V30 1080 H 104.325 -3.71397 1.23206 0
M  V30 1081 H 103.948 -3.9485 -0.466842 0
M  V30 1082 N 104.945 -0.338344 -1.53925 0
M  V30 1083 C 106.191 0.252842 -2.01822 0
M  V30 1084 C 106.546 1.48612 -1.22197 0
M  V30 1085 O 105.839 1.89238 -0.299892 0
M  V30 1086 C 106.033 0.62448 -3.51902 0
M  V30 1087 C 105.862 -0.571235 -4.46057 0
M  V30 1088 C 104.632 -1.07493 -4.93734 0
M  V30 1089 C 106.83 -1.42807 -4.94076 0
M  V30 1090 N 104.812 -2.23351 -5.71828 0
M  V30 1091 C 106.183 -2.43362 -5.70241 0
M  V30 1092 C 108.238 -1.45412 -4.76193 0
M  V30 1093 C 106.941 -3.46346 -6.30426 0
M  V30 1094 C 108.967 -2.47274 -5.37224 0
M  V30 1095 C 108.329 -3.46555 -6.13253 0
M  V30 1096 H 104.428 0.0559669 -0.779995 0
M  V30 1097 H 107.012 -0.476732 -1.88773 0
M  V30 1098 H 105.183 1.32317 -3.65167 0
M  V30 1099 H 106.915 1.19841 -3.86549 0
M  V30 1100 H 103.67 -0.643848 -4.69203 0
M  V30 1101 H 104.094 -2.81834 -6.15548 0
M  V30 1102 H 108.736 -0.700171 -4.16962 0
M  V30 1103 H 106.454 -4.22638 -6.88769 0
M  V30 1104 H 110.04 -2.50109 -5.25297 0
M  V30 1105 H 108.92 -4.24083 -6.59638 0
M  V30 1106 N 106.423 1.57458 -0.0668435 0
M  V30 1107 C 107.7 1.8469 0.644132 0
M  V30 1108 C 108.08 0.958343 1.88093 0
M  V30 1109 O 107.428 0.0233579 2.28488 0
M  V30 1110 C 107.638 3.34767 0.986509 0
M  V30 1111 C 108.986 4.02159 1.36212 0
M  V30 1112 O 110.01 3.39484 1.07839 0
M  V30 1113 O 108.869 5.12694 1.89227 0
M  V30 1114 H 105.963 0.762816 0.319437 0
M  V30 1115 H 108.509 1.6942 -0.0973986 0
M  V30 1116 H 107.281 3.91151 0.107883 0
M  V30 1117 H 106.904 3.55281 1.78497 0
M  V30 1118 N 107.901 -0.206675 1.56239 0
M  V30 1119 C 108.811 -1.27686 1.96808 0
M  V30 1120 C 109.827 -1.50455 0.874035 0
M  V30 1121 O 111.003 -1.63295 1.17884 0
M  V30 1122 C 108.068 -2.60358 2.28942 0
M  V30 1123 C 107.129 -2.45762 3.51994 0
M  V30 1124 C 106.362 -3.72108 3.82585 0
M  V30 1125 O 106.585 -4.75776 3.14631 0
M  V30 1126 O 105.519 -3.6833 4.76043 0
M  V30 1127 H 109.345 -0.962593 2.88041 0
M  V30 1128 H 106.93 -0.410746 1.43643 0
M  V30 1129 H 108.812 -3.38687 2.50737 0
M  V30 1130 H 107.487 -2.91435 1.4088 0
M  V30 1131 H 106.394 -1.65584 3.35459 0
M  V30 1132 H 107.727 -2.19621 4.40486 0
M  V30 1133 N 109.379 -1.50304 -0.473955 0
M  V30 1134 C 110.627 -1.60832 -1.22382 0
M  V30 1135 C 110.948 -0.30939 -1.9253 0
M  V30 1136 O 110.218 0.67296 -1.83978 0
M  V30 1137 H 108.798 -0.592652 -0.454723 0
M  V30 1138 H 111.46 -1.87068 -0.546968 0
M  V30 1139 H 110.556 -2.41803 -1.97327 0
M  V30 1140 N 110.857 0.726932 -1.39834 0
M  V30 1141 C 112.103 1.48884 -1.377 0
M  V30 1142 C 112.436 1.94185 0.0244852 0
M  V30 1143 O 111.711 1.67361 0.990986 0
M  V30 1144 C 111.994 2.72288 -2.3565 0
M  V30 1145 C 111.847 2.32956 -3.84775 0
M  V30 1146 C 113.166 3.74414 -2.31306 0
M  V30 1147 H 110.285 0.540062 -0.5015 0
M  V30 1148 H 112.927 0.830547 -1.70886 0
M  V30 1149 H 111.077 3.28457 -2.07481 0
M  V30 1150 H 112.749 1.82356 -4.23726 0
M  V30 1151 H 110.992 1.65088 -4.01159 0
M  V30 1152 H 111.663 3.21362 -4.4881 0
M  V30 1153 H 114.139 3.27849 -2.56231 0
M  V30 1154 H 113.015 4.58414 -3.01907 0
M  V30 1155 H 113.276 4.21909 -1.32081 0
M  V30 1156 N 112.336 1.25143 0.95797 0
M  V30 1157 C 113.584 1.09476 1.69881 0
M  V30 1158 C 113.905 -0.365502 1.91544 0
M  V30 1159 O 113.175 -1.25985 1.50015 0
M  V30 1160 H 111.755 0.402128 0.629525 0
M  V30 1161 H 114.417 1.57214 1.15194 0
M  V30 1162 H 113.513 1.60046 2.6794 0
M  V30 1163 N 113.814 -1.1601 1.06675 0
M  V30 1164 C 114.761 -2.20525 0.680967 0
M  V30 1165 C 115.731 -1.62904 -0.324283 0
M  V30 1166 O 116.916 -1.89615 -0.212294 0
M  V30 1167 C 114.056 -3.45013 0.0776551 0
M  V30 1168 C 113.169 -4.16863 1.13355 0
M  V30 1169 C 112.304 -5.2888 0.49597 0
M  V30 1170 C 111.343 -5.92537 1.53513 0
M  V30 1171 N 110.48 -6.96038 0.920631 0
M  V30 1172 H 115.32 -2.52876 1.57663 0
M  V30 1173 H 112.857 -1.24199 0.788223 0
M  V30 1174 H 114.815 -4.16193 -0.289704 0
M  V30 1175 H 113.445 -3.132 -0.781393 0
M  V30 1176 H 112.497 -3.44248 1.61857 0
M  V30 1177 H 113.809 -4.60294 1.92174 0
M  V30 1178 H 112.963 -6.06653 0.0758604 0
M  V30 1179 H 111.702 -4.86622 -0.324062 0
M  V30 1180 H 110.707 -5.13482 1.9651 0
M  V30 1181 H 111.932 -6.36873 2.35733 0
M  V30 1182 H 109.878 -6.55888 0.12138 0
M  V30 1183 H 109.795 -7.3786 1.64616 0
M  V30 1184 H 111.063 -7.77725 0.525795 0
M  V30 1185 N 115.292 -0.849877 -1.32721 0
M  V30 1186 C 116.222 -0.306308 -2.31482 0
M  V30 1187 C 117.203 0.591952 -1.59468 0
M  V30 1188 O 118.388 0.513199 -1.87296 0
M  V30 1189 C 115.518 0.510204 -3.43532 0
M  V30 1190 C 114.472 -0.293209 -4.26994 0
M  V30 1191 C 113.798 0.647743 -5.30762 0
M  V30 1192 C 115.098 -1.51634 -4.99804 0
M  V30 1193 H 116.792 -1.13153 -2.77195 0
M  V30 1194 H 114.338 -0.545553 -1.33266 0
M  V30 1195 H 116.291 0.900856 -4.11658 0
M  V30 1196 H 115.015 1.36874 -2.96535 0
M  V30 1197 H 113.674 -0.665555 -3.60508 0
M  V30 1198 H 113.322 1.50299 -4.8002 0
M  V30 1199 H 113.022 0.11422 -5.87489 0
M  V30 1200 H 114.546 1.03567 -6.01753 0
M  V30 1201 H 115.96 -1.19824 -5.60638 0
M  V30 1202 H 114.357 -1.98745 -5.66234 0
M  V30 1203 H 115.427 -2.28018 -4.27943 0
M  V30 1204 N 116.77 1.45427 -0.607355 0
M  V30 1205 C 117.733 2.28974 0.101693 0
M  V30 1206 C 118.733 1.39754 0.795329 0
M  V30 1207 O 119.923 1.61878 0.643527 0
M  V30 1208 C 117.055 3.20768 1.15414 0
M  V30 1209 H 118.248 2.93147 -0.632844 0
M  V30 1210 H 115.801 1.51945 -0.366391 0
M  V30 1211 H 116.536 2.61395 1.91945 0
M  V30 1212 H 116.321 3.86489 0.66098 0
M  V30 1213 H 117.811 3.83589 1.65073 0
M  V30 1214 N 118.248 0.346503 1.53744 0
M  V30 1215 C 119.195 -0.508914 2.25119 0
M  V30 1216 C 120.165 -1.09315 1.25058 0
M  V30 1217 O 121.35 -1.12921 1.53797 0
M  V30 1218 C 118.49 -1.65246 3.02965 0
M  V30 1219 C 117.603 -1.09525 4.17886 0
M  V30 1220 C 116.738 -2.20634 4.83212 0
M  V30 1221 C 115.777 -1.62279 5.90196 0
M  V30 1222 N 114.914 -2.67143 6.49291 0
M  V30 1223 H 119.754 0.106283 2.9781 0
M  V30 1224 H 117.291 0.0642227 1.4696 0
M  V30 1225 H 119.249 -2.32574 3.4636 0
M  V30 1226 H 117.879 -2.2386 2.32565 0
M  V30 1227 H 116.931 -0.312818 3.79112 0
M  V30 1228 H 118.243 -0.628444 4.94825 0
M  V30 1229 H 117.397 -2.95821 5.29693 0
M  V30 1230 H 116.136 -2.70659 4.05703 0
M  V30 1231 H 115.141 -0.855989 5.43096 0
M  V30 1232 H 116.366 -1.13102 6.69615 0
M  V30 1233 H 114.312 -3.16417 5.74645 0
M  V30 1234 H 114.229 -2.25093 7.21713 0
M  V30 1235 H 115.497 -3.4209 7.00425 0
M  V30 1236 N 119.726 -1.57421 0.075193 0
M  V30 1237 C 120.974 -1.93236 -0.591974 0
M  V30 1238 C 121.295 -0.956241 -1.69944 0
M  V30 1239 O 120.565 -0.00494792 -1.95899 0
M  V30 1240 H 119.145 -0.713355 -0.22166 0
M  V30 1241 H 121.807 -1.9444 0.133848 0
M  V30 1242 H 120.903 -2.95131 -1.01509 0
M  V30 1243 N 121.204 0.198386 -1.56346 0
M  V30 1244 C 122.434 0.934215 -1.84271 0
M  V30 1245 C 122.842 1.77496 -0.655125 0
M  V30 1246 O 122.185 1.7961 0.385488 0
M  V30 1247 C 122.247 1.88278 -3.06254 0
M  V30 1248 C 121.911 1.22431 -4.40295 0
M  V30 1249 C 122.908 0.602839 -5.16393 0
M  V30 1250 C 120.593 1.22915 -4.87029 0
M  V30 1251 C 122.587 -0.0050083 -6.374 0
M  V30 1252 C 120.274 0.617465 -6.07973 0
M  V30 1253 C 121.272 0.00146341 -6.83 0
M  V30 1254 O 120.96 -0.600642 -8.01653 0
M  V30 1255 H 120.692 0.278245 -0.616081 0
M  V30 1256 H 123.246 0.211626 -2.04307 0
M  V30 1257 H 121.476 2.64498 -2.82095 0
M  V30 1258 H 123.165 2.48612 -3.20853 0
M  V30 1259 H 123.931 0.591265 -4.81382 0
M  V30 1260 H 119.81 1.69801 -4.28589 0
M  V30 1261 H 123.354 -0.48643 -6.95902 0
M  V30 1262 H 119.251 0.62653 -6.42452 0
M  V30 1263 H 120.019 -0.497225 -8.16988 0
M  V30 1264 N 122.682 1.50554 0.465978 0
M  V30 1265 C 123.928 1.62038 1.21949 0
M  V30 1266 C 124.261 0.322116 1.9151 0
M  V30 1267 O 123.536 -0.676723 1.82348 0
M  V30 1268 C 123.819 2.80421 2.25912 0
M  V30 1269 C 123.672 4.20144 1.60622 0
M  V30 1270 C 124.991 2.94354 3.27176 0
M  V30 1271 H 122.11 0.589752 0.441998 0
M  V30 1272 H 124.752 1.82956 0.51257 0
M  V30 1273 H 122.902 2.62717 2.86203 0
M  V30 1274 H 124.574 4.49449 1.03889 0
M  V30 1275 H 122.817 4.24165 0.909211 0
M  V30 1276 H 123.488 4.98914 2.36196 0
M  V30 1277 H 125.964 3.10578 2.76913 0
M  V30 1278 H 124.84 3.788 3.97242 0
M  V30 1279 H 125.101 2.05186 3.916 0
M  V30 1280 N 124.16 -0.719506 1.40217 0
M  V30 1281 C 125.406 -1.48034 1.39491 0
M  V30 1282 C 125.761 -1.92399 -0.00443536 0
M  V30 1283 O 125.054 -1.64993 -0.974061 0
M  V30 1284 C 125.248 -2.72271 2.31524 0
M  V30 1285 C 125.077 -2.40055 3.80268 0
M  V30 1286 C 123.847 -2.31588 4.49105 0
M  V30 1287 C 126.045 -2.04581 4.71859 0
M  V30 1288 N 124.027 -1.92006 5.83101 0
M  V30 1289 C 125.398 -1.75568 5.94623 0
M  V30 1290 C 127.453 -1.91183 4.59732 0
M  V30 1291 C 126.156 -1.34505 7.06612 0
M  V30 1292 C 128.182 -1.51524 5.71659 0
M  V30 1293 C 127.544 -1.23406 6.93506 0
M  V30 1294 H 123.643 -0.539927 0.565688 0
M  V30 1295 H 126.227 -0.834764 1.75897 0
M  V30 1296 H 124.398 -3.34584 1.97251 0
M  V30 1297 H 126.13 -3.38584 2.21682 0
M  V30 1298 H 122.885 -2.49199 4.02737 0
M  V30 1299 H 123.309 -1.74764 6.54054 0
M  V30 1300 H 127.951 -2.11584 3.66049 0
M  V30 1301 H 125.669 -1.12846 8.00182 0
M  V30 1302 H 129.255 -1.41741 5.6427 0
M  V30 1303 H 128.135 -0.931788 7.78645 0
M  V30 1304 N 125.638 -1.25649 -0.95132 0
M  V30 1305 C 126.586 -1.06118 -2.06982 0
M  V30 1306 C 127.58 0.00889169 -1.69398 0
M  V30 1307 O 128.786 -0.146988 -1.79399 0
M  V30 1308 H 125.161 -0.326248 -0.677544 0
M  V30 1309 H 127.132 -2.00932 -2.2061 0
M  V30 1310 C 125.881 -0.700145 -3.40578 0
M  V30 1311 H 125.204 -1.51537 -3.69968 0
M  V30 1312 H 126.644 -0.603211 -4.19687 0
M  V30 1313 C 125.103 0.59403 -3.31622 0
M  V30 1314 O 125.633 1.63522 -3.66911 0
M  V30 1315 N 123.839 0.58089 -2.84735 0
M  V30 1316 H 123.386 -0.266783 -2.56215 0
M  V30 1317 H 123.344 1.44695 -2.79125 0
M  V30 1318 N 127.117 1.15442 -1.07289 0
M  V30 1319 C 128.365 1.85845 -0.794096 0
M  V30 1320 C 128.686 1.82692 0.681809 0
M  V30 1321 O 127.956 1.26741 1.49377 0
M  V30 1322 H 126.536 0.688089 -0.290763 0
M  V30 1323 H 129.198 1.39947 -1.3565 0
M  V30 1324 H 128.294 2.91001 -1.12804 0
M  V30 1325 N 128.595 0.856903 1.32268 0
M  V30 1326 C 129.843 0.460474 1.96784 0
M  V30 1327 C 130.164 -0.987701 1.68135 0
M  V30 1328 O 129.434 -1.69058 0.989765 0
M  V30 1329 H 128.014 0.167289 0.728027 0
M  V30 1330 H 130.676 1.09383 1.61312 0
M  V30 1331 H 129.772 0.60739 3.06133 0
M  V30 1332 N 130.073 -1.45103 0.615059 0
M  V30 1333 C 131.298 -2.07064 0.117988 0
M  V30 1334 C 131.723 -1.4554 -1.19163 0
M  V30 1335 O 131.081 -0.550855 -1.72729 0
M  V30 1336 C 131.129 -3.606 -0.000288387 0
M  V30 1337 O 130.233 -3.98847 -1.04856 0
M  V30 1338 H 129.574 -0.659467 0.0774581 0
M  V30 1339 H 132.104 -1.86236 0.847186 0
M  V30 1340 H 132.114 -4.07529 -0.196091 0
M  V30 1341 H 130.789 -4.04765 0.955932 0
M  V30 1342 H 129.366 -3.63577 -0.828619 0
M  V30 1343 N 131.551 -0.354651 -1.53558 0
M  V30 1344 C 132.499 0.512195 -2.26891 0
M  V30 1345 C 133.493 1.09263 -1.29452 0
M  V30 1346 O 134.699 1.03709 -1.47121 0
M  V30 1347 H 131.074 0.183878 -0.729173 0
M  V30 1348 H 133.045 -0.128202 -2.98124 0
M  V30 1349 C 131.794 1.64563 -3.06291 0
M  V30 1350 H 131.117 1.20829 -3.81104 0
M  V30 1351 H 132.557 2.22711 -3.60799 0
M  V30 1352 C 131.016 2.58158 -2.16462 0
M  V30 1353 O 131.546 3.60695 -1.76811 0
M  V30 1354 N 129.752 2.27096 -1.81317 0
M  V30 1355 H 129.299 1.43751 -2.1376 0
M  V30 1356 H 129.257 2.89975 -1.21498 0
M  V30 1357 N 133.029 1.57378 -0.0835403 0
M  V30 1358 C 134.44 1.81261 0.447358 0
M  V30 1359 C 134.791 0.998331 1.68902 0
M  V30 1360 O 133.916 0.224282 2.15235 0
M  V30 1361 C 134.511 3.28767 0.818386 0
M  V30 1362 C 133.07 3.53455 1.29409 0
M  V30 1363 C 132.217 2.75831 0.285024 0
M  V30 1364 H 135.168 1.5566 -0.309115 0
M  V30 1365 H 135.189 3.41459 1.67887 0
M  V30 1366 H 134.701 3.88006 -0.0855019 0
M  V30 1367 H 132.802 2.99534 2.21608 0
M  V30 1368 H 132.915 4.62128 1.2639 0
M  V30 1369 H 131.279 2.42947 0.764767 0
M  V30 1370 H 132.062 3.37813 -0.611341 0
M  V30 1371 N 134.507 -0.190092 1.56449 0
M  V30 1372 C 135.439 -1.25973 1.91477 0
M  V30 1373 C 136.452 -1.41452 0.805931 0
M  V30 1374 O 137.641 -1.41789 1.08435 0
M  V30 1375 C 134.741 -2.63117 2.13594 0
M  V30 1376 C 133.914 -2.69182 3.4476 0
M  V30 1377 C 132.973 -3.87557 3.5593 0
M  V30 1378 O 131.999 -3.74427 4.28711 0
M  V30 1379 N 133.201 -5.03224 2.89388 0
M  V30 1380 H 135.966 -0.962394 2.83828 0
M  V30 1381 H 133.527 -0.379981 1.57378 0
M  V30 1382 H 135.519 -3.40742 2.1835 0
M  V30 1383 H 134.089 -2.85319 1.27719 0
M  V30 1384 H 133.309 -1.77793 3.51828 0
M  V30 1385 H 134.597 -2.70229 4.31107 0
M  V30 1386 H 133.995 -5.16791 2.30094 0
M  V30 1387 H 132.552 -5.78778 2.99764 0
M  V30 1388 N 135.985 -1.50799 -0.457987 0
M  V30 1389 C 136.948 -1.7005 -1.53674 0
M  V30 1390 C 137.948 -0.570881 -1.50325 0
M  V30 1391 O 139.138 -0.838126 -1.52712 0
M  V30 1392 C 136.27 -1.73788 -2.93276 0
M  V30 1393 H 137.463 -2.66306 -1.37917 0
M  V30 1394 H 135.016 -1.40477 -0.685271 0
M  V30 1395 H 135.751 -0.792717 -3.14462 0
M  V30 1396 H 135.536 -2.55864 -2.97113 0
M  V30 1397 H 137.026 -1.90591 -3.71571 0
M  V30 1398 N 137.463 0.71206 -1.40597 0
M  V30 1399 C 138.411 1.84746 -1.41321 0
M  V30 1400 C 139.405 1.66842 -0.293268 0
M  V30 1401 O 140.611 1.73904 -0.464481 0
M  V30 1402 H 136.986 0.608522 -0.441819 0
M  V30 1403 H 138.957 1.81252 -2.37045 0
M  V30 1404 C 137.706 3.22638 -1.29614 0
M  V30 1405 H 137.029 3.37023 -2.15071 0
M  V30 1406 H 138.469 4.02209 -1.3418 0
M  V30 1407 C 136.928 3.36899 -0.00673121 0
M  V30 1408 O 137.458 3.90186 0.954859 0
M  V30 1409 N 135.664 2.9053 0.0639327 0
M  V30 1410 H 135.211 2.47353 -0.719311 0
M  V30 1411 H 135.169 3.0045 0.926118 0
M  V30 1412 N 138.941 1.26152 0.944643 0
M  V30 1413 C 140.357 1.03189 1.21754 0
M  V30 1414 C 140.557 -0.245112 2.00004 0
M  V30 1415 O 139.613 -0.955176 2.33736 0
M  V30 1416 C 140.926 2.26119 1.98219 0
M  V30 1417 C 142.474 2.30984 2.11224 0
M  V30 1418 C 142.949 3.53597 2.91089 0
M  V30 1419 N 144.44 3.54053 2.98664 0
M  V30 1420 C 145.175 4.45593 3.60881 0
M  V30 1421 N 144.671 5.47416 4.24626 0
M  V30 1422 N 146.464 4.33252 3.58119 0
M  V30 1423 H 138.615 2.08177 0.421437 0
M  V30 1424 H 140.878 0.914723 0.248969 0
M  V30 1425 H 140.584 3.18984 1.48128 0
M  V30 1426 H 140.458 2.3009 2.98895 0
M  V30 1427 H 142.845 1.38635 2.60508 0
M  V30 1428 H 142.926 2.31026 1.09821 0
M  V30 1429 H 142.57 4.46273 2.42493 0
M  V30 1430 H 142.5 3.50802 3.92741 0
M  V30 1431 H 144.991 2.80403 2.53343 0
M  V30 1432 H 145.304 6.13459 4.69987 0
M  V30 1433 H 143.649 5.51278 4.23223 0
M  V30 1434 H 146.84 3.52924 3.0751 0
M  V30 1435 H 147.013 5.04786 4.06319 0
M  V30 1436 N 140.419 -1.14872 1.07899 0
M  V30 1437 C 141.351 -2.19425 0.662231 0
M  V30 1438 C 142.364 -1.60231 -0.288079 0
M  V30 1439 O 143.553 -1.78336 -0.076534 0
M  V30 1440 C 140.653 -3.38867 -0.0470695 0
M  V30 1441 C 139.826 -4.27597 0.920831 0
M  V30 1442 C 138.885 -5.25616 0.247805 0
M  V30 1443 O 137.911 -5.62189 0.890599 0
M  V30 1444 N 139.113 -5.71746 -1.00435 0
M  V30 1445 H 141.878 -2.55797 1.56166 0
M  V30 1446 H 139.439 -1.30042 0.964404 0
M  V30 1447 H 141.431 -4.01497 -0.50813 0
M  V30 1448 H 140.001 -3.00864 -0.848523 0
M  V30 1449 H 139.221 -3.61982 1.56087 0
M  V30 1450 H 140.509 -4.83748 1.57688 0
M  V30 1451 H 139.907 -5.44153 -1.54642 0
M  V30 1452 H 138.464 -6.36389 -1.40899 0
M  V30 1453 N 141.898 -0.863906 -1.31812 0
M  V30 1454 C 143.126 -0.486111 -2.01108 0
M  V30 1455 C 143.541 0.919755 -1.64882 0
M  V30 1456 O 142.898 1.60162 -0.874893 0
M  V30 1457 C 142.949 -0.626435 -3.56031 0
M  V30 1458 O 142.67 -1.97693 -3.90959 0
M  V30 1459 C 144.171 -0.248857 -4.42601 0
M  V30 1460 H 141.391 -0.190052 -0.643523 0
M  V30 1461 H 143.935 -1.1634 -1.68182 0
M  V30 1462 H 142.09 0.00322717 -3.874 0
M  V30 1463 H 142.504 -1.98034 -4.85678 0
M  V30 1464 H 143.978 -0.398016 -5.50563 0
M  V30 1465 H 144.455 0.811489 -4.31638 0
M  V30 1466 H 145.061 -0.853971 -4.16638 0
M  V30 1467 N 143.376 1.44774 -0.622745 0
M  V30 1468 C 144.601 2.06999 -0.128968 0
M  V30 1469 C 145.026 1.4617 1.1839 0
M  V30 1470 O 144.384 0.560007 1.72434 0
M  V30 1471 C 144.432 3.60595 -0.0188351 0
M  V30 1472 O 143.536 3.99398 1.02739 0
M  V30 1473 H 142.877 0.659047 -0.0809544 0
M  V30 1474 H 145.407 1.85784 -0.85705 0
M  V30 1475 H 145.417 4.07627 0.174476 0
M  V30 1476 H 144.092 4.04252 -0.977384 0
M  V30 1477 H 142.669 3.64011 0.809326 0
M  V30 1478 N 144.854 0.36279 1.53368 0
M  V30 1479 C 146.131 -0.284021 1.93527 0
M  V30 1480 C 146.511 -1.66628 1.29608 0
M  V30 1481 O 145.859 -2.23942 0.45413 0
M  V30 1482 C 146.069 -0.337028 3.47369 0
M  V30 1483 C 147.417 -0.578708 4.20638 0
M  V30 1484 O 148.441 -0.418352 3.53735 0
M  V30 1485 O 147.3 -0.89074 5.39192 0
M  V30 1486 H 144.394 -0.169743 0.809393 0
M  V30 1487 H 146.94 0.41537 1.64538 0
M  V30 1488 H 145.712 0.632217 3.86159 0
M  V30 1489 H 145.335 -1.08243 3.82582 0
M  V30 1490 N 146.332 -1.57332 0.0918853 0
M  V30 1491 C 147.557 -1.98995 -0.584442 0
M  V30 1492 C 147.982 -0.970528 -1.61128 0
M  V30 1493 O 147.34 0.0613904 -1.81196 0
M  V30 1494 C 147.388 -3.39636 -1.21161 0
M  V30 1495 O 146.492 -3.40447 -2.32744 0
M  V30 1496 H 145.833 -0.647165 -0.148572 0
M  V30 1497 H 148.363 -2.03873 0.172347 0
M  V30 1498 H 148.373 -3.7726 -1.55367 0
M  V30 1499 H 147.048 -4.13356 -0.459313 0
M  V30 1500 H 145.625 -3.14614 -2.0018 0
M  V30 1501 N 147.81 0.181792 -1.56548 0
M  V30 1502 C 149.035 0.920019 -1.85877 0
M  V30 1503 C 149.46 1.75494 -0.677021 0
M  V30 1504 O 148.818 1.77399 0.374056 0
M  V30 1505 C 148.866 1.78112 -3.13542 0
M  V30 1506 O 147.97 2.88152 -2.95029 0
M  V30 1507 H 147.311 0.258334 -0.611686 0
M  V30 1508 H 149.841 0.183092 -2.03779 0
M  V30 1509 H 149.851 2.18314 -3.44678 0
M  V30 1510 H 148.526 1.16777 -3.99169 0
M  V30 1511 H 147.103 2.51609 -2.75222 0
M  V30 1512 N 149.288 1.51039 0.449983 0
M  V30 1513 C 150.513 1.6715 1.22783 0
M  V30 1514 C 150.938 0.363081 1.84563 0
M  V30 1515 O 150.296 -0.675433 1.68249 0
M  V30 1516 C 150.344 2.77985 2.29689 0
M  V30 1517 O 149.448 2.40707 3.34864 0
M  V30 1518 H 148.789 0.557746 0.360299 0
M  V30 1519 H 151.319 1.97535 0.533005 0
M  V30 1520 H 151.329 3.01693 2.74673 0
M  V30 1521 H 150.004 3.72935 1.84098 0
M  V30 1522 H 148.581 2.27523 2.95445 0
M  V30 1523 N 150.766 -0.704594 1.40972 0
M  V30 1524 C 151.729 -1.80035 1.41845 0
M  V30 1525 C 152.729 -1.57774 0.310474 0
M  V30 1526 O 153.919 -1.64613 0.56992 0
M  V30 1527 C 151.051 -3.18284 1.22098 0
M  V30 1528 H 152.244 -1.80658 2.3938 0
M  V30 1529 H 149.797 -0.911329 1.26982 0
M  V30 1530 H 150.532 -3.23306 0.253672 0
M  V30 1531 H 150.317 -3.35843 2.02366 0
M  V30 1532 H 151.807 -3.98289 1.25522 0
M  V30 1533 N 152.244 -1.26651 -0.937939 0
M  V30 1534 C 153.191 -1.0849 -2.03712 0
M  V30 1535 C 154.161 0.011033 -1.66096 0
M  V30 1536 O 155.346 -0.149353 -1.90215 0
M  V30 1537 C 152.486 -0.72735 -3.37348 0
M  V30 1538 C 151.599 -1.89986 -3.87981 0
M  V30 1539 C 150.734 -1.48513 -5.10017 0
M  V30 1540 C 149.773 -2.62575 -5.5292 0
M  V30 1541 N 148.91 -2.21762 -6.66158 0
M  V30 1542 H 153.75 -2.02551 -2.18579 0
M  V30 1543 H 151.287 -1.00844 -1.07093 0
M  V30 1544 H 153.245 -0.50092 -4.14182 0
M  V30 1545 H 151.875 0.176298 -3.22318 0
M  V30 1546 H 150.927 -2.23913 -3.07518 0
M  V30 1547 H 152.239 -2.75586 -4.15757 0
M  V30 1548 H 151.393 -1.21934 -5.94321 0
M  V30 1549 H 150.132 -0.60009 -4.83994 0
M  V30 1550 H 149.137 -2.8988 -4.67172 0
M  V30 1551 H 150.362 -3.51685 -5.80943 0
M  V30 1552 H 148.308 -1.35696 -6.41812 0
M  V30 1553 H 148.225 -3.00903 -6.93537 0
M  V30 1554 H 149.493 -1.98403 -7.53828 0
M  V30 1555 N 153.722 1.14298 -1.08507 0
M  V30 1556 C 154.655 2.18447 -0.660004 0
M  V30 1557 C 155.633 1.59242 0.328749 0
M  V30 1558 O 156.817 1.87062 0.232367 0
M  V30 1559 C 153.944 3.38688 0.0290807 0
M  V30 1560 C 152.99 4.1646 -0.919982 0
M  V30 1561 S 153.823 4.77334 -2.42718 0
M  V30 1562 C 154.979 6.00931 -1.75024 0
M  V30 1563 H 155.212 2.54166 -1.54231 0
M  V30 1564 H 152.745 1.25446 -0.900149 0
M  V30 1565 H 154.703 4.08342 0.420378 0
M  V30 1566 H 153.364 3.01289 0.887895 0
M  V30 1567 H 152.557 5.02529 -0.384751 0
M  V30 1568 H 152.159 3.52414 -1.25223 0
M  V30 1569 H 154.451 6.69017 -1.06877 0
M  V30 1570 H 155.394 6.59044 -2.58971 0
M  V30 1571 H 155.802 5.51089 -1.22317 0
M  V30 1572 N 155.201 0.870884 1.31352 0
M  V30 1573 C 156.426 0.495957 2.01383 0
M  V30 1574 C 156.851 -0.904324 1.64935 0
M  V30 1575 O 156.209 -1.59687 0.858466 0
M  V30 1576 C 156.257 0.661433 3.54482 0
M  V30 1577 O 155.361 -0.298851 4.11316 0
M  V30 1578 H 154.702 0.197158 0.634054 0
M  V30 1579 H 157.232 1.17455 1.67527 0
M  V30 1580 H 157.242 0.555072 4.04207 0
M  V30 1581 H 155.917 1.68246 3.8035 0
M  V30 1582 H 154.494 -0.147368 3.72609 0
M  V30 1583 N 156.679 -1.44442 0.630414 0
M  V30 1584 C 157.907 -2.06414 0.141671 0
M  V30 1585 C 158.322 -1.47105 -1.18345 0
M  V30 1586 O 157.679 -0.593662 -1.72574 0
M  V30 1587 C 157.73 -3.61494 0.0199784 0
M  V30 1588 O 157.451 -4.18594 1.29269 0
M  V30 1589 C 158.952 -4.40499 -0.497544 0
M  V30 1590 H 156.172 -0.666292 0.0793452 0
M  V30 1591 H 158.716 -1.85323 0.864614 0
M  V30 1592 H 156.871 -3.8185 -0.653402 0
M  V30 1593 H 157.285 -5.12026 1.13707 0
M  V30 1594 H 158.759 -5.49433 -0.531708 0
M  V30 1595 H 159.236 -4.11895 -1.52445 0
M  V30 1596 H 159.842 -4.25061 0.142562 0
M  V30 1597 N 158.157 -0.370918 -1.53173 0
M  V30 1598 C 159.568 0.107139 -1.86392 0
M  V30 1599 C 159.919 1.47714 -1.29132 0
M  V30 1600 O 159.044 2.07464 -0.615439 0
M  V30 1601 C 159.639 0.201187 -3.38202 0
M  V30 1602 C 158.198 0.623507 -3.712 0
M  V30 1603 C 157.345 -0.225978 -2.76378 0
M  V30 1604 H 160.296 -0.58951 -1.47345 0
M  V30 1605 H 160.317 1.02377 -3.66468 0
M  V30 1606 H 159.829 -0.796058 -3.79848 0
M  V30 1607 H 157.93 1.62879 -3.35114 0
M  V30 1608 H 158.043 0.394414 -4.77474 0
M  V30 1609 H 156.407 0.305962 -2.52856 0
M  V30 1610 H 157.19 -1.22086 -3.20858 0
M  V30 1611 N 159.635 1.57281 -0.100228 0
M  V30 1612 C 160.598 2.13158 0.842398 0
M  V30 1613 C 161.598 1.06202 1.20738 0
M  V30 1614 O 162.788 1.32066 1.13597 0
M  V30 1615 C 159.92 2.65639 2.13655 0
M  V30 1616 H 161.113 2.97766 0.357114 0
M  V30 1617 H 158.666 1.5559 0.148823 0
M  V30 1618 H 159.401 1.84566 2.66657 0
M  V30 1619 H 159.186 3.43844 1.88451 0
M  V30 1620 H 160.676 3.08846 2.81077 0
M  V30 1621 N 161.113 -0.173488 1.56642 0
M  V30 1622 C 162.39 -0.917617 1.7274 0
M  V30 1623 C 162.77 -2.00484 0.661027 0
M  V30 1624 O 162.118 -2.26184 -0.32453 0
M  V30 1625 C 162.328 -1.48433 3.15862 0
M  V30 1626 C 163.676 -1.95809 3.76754 0
M  V30 1627 O 164.7 -1.58231 3.19126 0
M  V30 1628 O 163.559 -2.65024 4.77938 0
M  V30 1629 H 160.653 -0.431772 0.705338 0
M  V30 1630 H 163.199 -0.161487 1.6893 0
M  V30 1631 H 161.971 -0.701715 3.84957 0
M  V30 1632 H 161.594 -2.30471 3.23989 0
M  V30 1633 N 162.591 -1.51276 -0.441967 0
M  V30 1634 C 163.538 -1.72256 -1.53612 0
M  V30 1635 C 164.508 -0.564164 -1.56225 0
M  V30 1636 O 165.693 -0.798074 -1.73307 0
M  V30 1637 C 162.833 -1.84932 -2.91366 0
M  V30 1638 C 161.946 -3.12459 -2.98317 0
M  V30 1639 C 161.081 -3.15758 -4.27166 0
M  V30 1640 C 160.12 -4.37619 -4.27967 0
M  V30 1641 N 159.257 -4.38493 -5.48333 0
M  V30 1642 H 164.097 -2.65654 -1.35026 0
M  V30 1643 H 161.634 -1.31662 -0.656009 0
M  V30 1644 H 163.592 -1.90263 -3.7129 0
M  V30 1645 H 162.222 -0.949461 -3.08521 0
M  V30 1646 H 161.274 -3.1646 -2.11086 0
M  V30 1647 H 162.586 -4.02382 -2.94771 0
M  V30 1648 H 161.74 -3.19979 -5.15459 0
M  V30 1649 H 160.479 -2.23715 -4.33362 0
M  V30 1650 H 159.484 -4.33579 -3.38067 0
M  V30 1651 H 160.709 -5.30921 -4.23438 0
M  V30 1652 H 158.655 -3.49318 -5.55259 0
M  V30 1653 H 158.572 -5.22219 -5.46647 0
M  V30 1654 H 159.84 -4.469 -6.38671 0
M  V30 1655 N 164.069 0.697108 -1.41344 0
M  V30 1656 C 165.315 1.4593 -1.40827 0
M  V30 1657 C 165.648 1.94193 -0.0167098 0
M  V30 1658 O 164.923 1.69425 0.955263 0
M  V30 1659 C 165.206 2.67229 -2.41373 0
M  V30 1660 C 165.059 2.24741 -3.8963 0
M  V30 1661 C 166.378 3.69423 -2.39196 0
M  V30 1662 H 163.497 0.529303 -0.512842 0
M  V30 1663 H 166.139 0.794112 -1.72609 0
M  V30 1664 H 164.289 3.23982 -2.14401 0
M  V30 1665 H 165.961 1.73327 -4.27499 0
M  V30 1666 H 164.204 1.56542 -4.0457 0
M  V30 1667 H 164.875 3.1177 -4.55525 0
M  V30 1668 H 167.351 3.2234 -2.63128 0
M  V30 1669 H 166.227 4.51907 -3.11563 0
M  V30 1670 H 166.488 4.19012 -1.41001 0
M  V30 1671 N 165.547 1.27147 0.931209 0
M  V30 1672 C 166.477 1.12081 2.04842 0
M  V30 1673 C 167.458 0.0232364 1.70084 0
M  V30 1674 O 168.643 0.197085 1.93197 0
M  V30 1675 C 165.773 0.76354 3.38803 0
M  V30 1676 C 164.727 1.81396 3.87659 0
M  V30 1677 C 164.053 1.31075 5.18385 0
M  V30 1678 C 165.353 3.21739 4.11438 0
M  V30 1679 H 167.047 2.05537 2.17703 0
M  V30 1680 H 164.593 0.989603 1.04608 0
M  V30 1681 H 166.546 0.644982 4.16435 0
M  V30 1682 H 165.27 -0.206727 3.25945 0
M  V30 1683 H 163.929 1.92136 3.12217 0
M  V30 1684 H 163.577 0.330037 5.01916 0
M  V30 1685 H 163.277 2.013 5.52044 0
M  V30 1686 H 164.801 1.20506 5.98591 0
M  V30 1687 H 166.215 3.14019 4.79651 0
M  V30 1688 H 164.612 3.89644 4.56397 0
M  V30 1689 H 165.682 3.67054 3.16859 0
M  V30 1690 N 167.025 -1.13721 1.09112 0
M  V30 1691 C 168.441 -1.36914 0.820174 0
M  V30 1692 C 168.641 -1.93356 -0.567079 0
M  V30 1693 O 167.697 -2.15093 -1.32255 0
M  V30 1694 C 169.01 -2.3235 1.90877 0
M  V30 1695 C 170.558 -2.45973 1.93562 0
M  V30 1696 C 171.033 -3.44714 3.01556 0
M  V30 1697 N 172.524 -3.52263 3.00775 0
M  V30 1698 C 173.259 -4.28536 3.80978 0
M  V30 1699 N 172.755 -5.07991 4.71081 0
M  V30 1700 N 174.548 -4.23804 3.69251 0
M  V30 1701 H 166.699 -0.754348 1.98553 0
M  V30 1702 H 168.962 -0.3944 0.862063 0
M  V30 1703 H 168.668 -1.98027 2.90651 0
M  V30 1704 H 168.542 -3.32332 1.78424 0
M  V30 1705 H 170.929 -2.79584 0.944286 0
M  V30 1706 H 171.01 -1.45926 2.10093 0
M  V30 1707 H 170.654 -3.11835 4.00901 0
M  V30 1708 H 170.584 -4.44558 2.82269 0
M  V30 1709 H 173.075 -2.95567 2.35475 0
M  V30 1710 H 173.388 -5.63487 5.28869 0
M  V30 1711 H 171.733 -5.07235 4.75119 0
M  V30 1712 H 174.924 -3.60806 2.98222 0
M  V30 1713 H 175.097 -4.82995 4.31995 0
M  V30 1714 N 168.503 -0.877838 -1.30888 0
M  V30 1715 C 169.45 -0.337538 -2.28318 0
M  V30 1716 C 170.42 0.568346 -1.56074 0
M  V30 1717 O 171.605 0.498298 -1.84178 0
M  V30 1718 C 168.745 0.448142 -3.42178 0
M  V30 1719 C 167.858 -0.48615 -4.29256 0
M  V30 1720 C 166.993 0.314427 -5.30269 0
M  V30 1721 C 166.032 -0.615791 -6.08995 0
M  V30 1722 N 165.169 0.14902 -7.01942 0
M  V30 1723 H 170.009 -1.17356 -2.73919 0
M  V30 1724 H 167.546 -0.590094 -1.34745 0
M  V30 1725 H 169.504 0.919517 -4.06941 0
M  V30 1726 H 168.134 1.24879 -2.97666 0
M  V30 1727 H 167.186 -1.076 -3.64865 0
M  V30 1728 H 168.498 -1.19909 -4.84173 0
M  V30 1729 H 167.652 0.847969 -6.00745 0
M  V30 1730 H 166.391 1.06062 -4.76027 0
M  V30 1731 H 165.396 -1.16102 -5.37401 0
M  V30 1732 H 166.621 -1.36097 -6.65323 0
M  V30 1733 H 164.567 0.877884 -6.50099 0
M  V30 1734 H 164.484 -0.504433 -7.54315 0
M  V30 1735 H 165.752 0.663537 -7.76671 0
M  V30 1736 N 169.982 1.44106 -0.638065 0
M  V30 1737 C 171.229 2.01978 -0.14533 0
M  V30 1738 C 171.557 1.50234 1.23532 0
M  V30 1739 O 170.812 0.679548 1.83523 0
M  V30 1740 C 171.111 3.5729 -0.0887327 0
M  V30 1741 C 170.777 4.28317 -1.40909 0
M  V30 1742 C 169.439 4.47437 -1.77069 0
M  V30 1743 C 171.791 4.6867 -2.28031 0
M  V30 1744 C 169.119 5.04171 -3.00047 0
M  V30 1745 C 171.471 5.26766 -3.50286 0
M  V30 1746 C 170.135 5.44104 -3.86661 0
M  V30 1747 H 169.405 0.739089 -0.0531801 0
M  V30 1748 H 172.052 1.72781 -0.825761 0
M  V30 1749 H 170.357 3.8594 0.675095 0
M  V30 1750 H 172.054 3.99807 0.309145 0
M  V30 1751 H 168.644 4.1377 -1.1177 0
M  V30 1752 H 172.828 4.53604 -2.01388 0
M  V30 1753 H 168.084 5.15782 -3.28298 0
M  V30 1754 H 172.258 5.56983 -4.18023 0
M  V30 1755 H 169.885 5.87832 -4.82034 0
M  V30 1756 N 171.46 0.379036 1.52974 0
M  V30 1757 C 172.37 -0.468639 2.29872 0
M  V30 1758 C 173.386 -1.08067 1.36373 0
M  V30 1759 O 174.562 -1.08871 1.69438 0
M  V30 1760 C 171.627 -1.58594 3.083 0
M  V30 1761 C 170.688 -1.00007 4.17489 0
M  V30 1762 C 169.921 -2.06413 4.92168 0
M  V30 1763 O 170.144 -3.27751 4.66835 0
M  V30 1764 O 169.078 -1.68717 5.7777 0
M  V30 1765 H 172.904 0.157508 3.03291 0
M  V30 1766 H 170.489 0.143035 1.48714 0
M  V30 1767 H 172.371 -2.23525 3.57232 0
M  V30 1768 H 171.046 -2.19724 2.37703 0
M  V30 1769 H 169.953 -0.314299 3.72777 0
M  V30 1770 H 171.286 -0.433135 4.90291 0
M  V30 1771 N 172.938 -1.57226 0.108567 0
M  V30 1772 C 173.886 -2.16002 -0.862885 0
M  V30 1773 C 174.88 -1.10644 -1.28274 0
M  V30 1774 O 176.086 -1.28966 -1.2557 0
M  V30 1775 H 172.461 -0.691148 -0.296342 0
M  V30 1776 H 174.432 -2.96427 -0.342575 0
M  V30 1777 C 173.181 -2.76576 -2.10716 0
M  V30 1778 H 172.504 -3.5734 -1.793 0
M  V30 1779 H 173.944 -3.21253 -2.76717 0
M  V30 1780 C 172.403 -1.73137 -2.89007 0
M  V30 1781 O 172.933 -1.17842 -3.84026 0
M  V30 1782 N 171.139 -1.43317 -2.52801 0
M  V30 1783 H 170.686 -1.88473 -1.75601 0
M  V30 1784 H 170.644 -0.743485 -3.05483 0
M  V30 1785 N 174.416 0.165178 -1.56732 0
M  V30 1786 C 175.363 1.2044 -1.96883 0
M  V30 1787 C 176.333 1.43664 -0.833657 0
M  V30 1788 O 177.518 1.56302 -1.09427 0
M  V30 1789 C 174.658 2.53727 -2.33916 0
M  V30 1790 C 173.771 2.3783 -3.6064 0
M  V30 1791 C 172.906 3.64026 -3.86857 0
M  V30 1792 C 171.945 3.43088 -5.06909 0
M  V30 1793 N 171.082 4.61369 -5.29229 0
M  V30 1794 H 175.922 0.854996 -2.85471 0
M  V30 1795 H 173.459 0.41076 -1.41249 0
M  V30 1796 H 175.417 3.31419 -2.53411 0
M  V30 1797 H 174.047 2.8665 -1.48431 0
M  V30 1798 H 173.099 1.51282 -3.49024 0
M  V30 1799 H 174.411 2.18308 -4.4849 0
M  V30 1800 H 173.565 4.50152 -4.06753 0
M  V30 1801 H 172.304 3.86533 -2.97394 0
M  V30 1802 H 171.309 2.55349 -4.86906 0
M  V30 1803 H 172.534 3.21997 -5.97909 0
M  V30 1804 H 170.48 4.84084 -4.42718 0
M  V30 1805 H 170.397 4.44783 -6.11313 0
M  V30 1806 H 171.665 5.48761 -5.53608 0
M  V30 1807 N 175.894 1.51508 0.433938 0
M  V30 1808 C 177.143 1.63578 1.18005 0
M  V30 1809 C 177.456 0.359514 1.92268 0
M  V30 1810 O 178.662 0.359632 2.69108 0
M  V30 1811 C 177.118 2.88901 2.14626 0
M  V30 1812 C 176.726 4.23544 1.45995 0
M  V30 1813 C 178.47 3.10328 2.89649 0
M  V30 1814 C 176.377 5.40014 2.4112 0
M  V30 1815 H 175.307 0.609277 0.444182 0
M  V30 1816 H 177.958 1.77978 0.446773 0
M  V30 1817 H 176.34 2.68142 2.91403 0
M  V30 1818 H 177.514 4.54696 0.747532 0
M  V30 1819 H 175.829 4.08021 0.831115 0
M  V30 1820 H 178.426 3.94518 3.60915 0
M  V30 1821 H 178.769 2.23544 3.51189 0
M  V30 1822 H 179.302 3.31443 2.19978 0
M  V30 1823 H 176.041 6.29068 1.84264 0
M  V30 1824 H 175.561 5.13233 3.10406 0
M  V30 1825 H 177.24 5.72099 3.02177 0
M  V30 1826 N 177.372 -0.689602 1.41712 0
M  V30 1827 C 178.32 -1.82475 1.44242 0
M  V30 1828 C 179.314 -1.66354 0.319774 0
M  V30 1829 O 180.52 -1.73143 0.492089 0
M  V30 1830 H 176.895 -0.601416 0.451445 0
M  V30 1831 H 178.866 -1.77458 2.39899 0
M  V30 1832 C 177.615 -3.20535 1.3473 0
M  V30 1833 H 176.938 -3.33559 2.20405 0
M  V30 1834 H 178.378 -4.00023 1.40562 0
M  V30 1835 C 176.837 -3.36846 0.0603281 0
M  V30 1836 O 177.367 -3.91656 -0.892663 0
M  V30 1837 N 175.573 -2.90595 -0.0177039 0
M  V30 1838 H 175.12 -2.46178 0.758572 0
M  V30 1839 H 175.078 -3.01886 -0.878201 0
M  V30 1840 N 178.85 -1.27639 -0.924453 0
M  V30 1841 C 179.78 -1.13166 -2.04244 0
M  V30 1842 C 180.761 -0.032256 -1.70069 0
M  V30 1843 O 181.946 -0.207328 -1.9309 0
M  V30 1844 C 179.076 -0.781496 -3.38393 0
M  V30 1845 C 178.03 -1.83449 -3.86692 0
M  V30 1846 C 177.356 -1.33822 -5.17683 0
M  V30 1847 C 178.656 -3.23917 -4.09726 0
M  V30 1848 H 180.35 -2.06689 -2.1661 0
M  V30 1849 H 177.896 -0.995136 -1.04082 0
M  V30 1850 H 179.849 -0.667057 -4.16087 0
M  V30 1851 H 178.573 0.189439 -3.2605 0
M  V30 1852 H 177.232 -1.93789 -3.11193 0
M  V30 1853 H 176.88 -0.35665 -5.01734 0
M  V30 1854 H 176.58 -2.04224 -5.50968 0
M  V30 1855 H 178.104 -1.23679 -5.97943 0
M  V30 1856 H 179.518 -3.16559 -4.77978 0
M  V30 1857 H 177.915 -3.92059 -4.54324 0
M  V30 1858 H 178.985 -3.68729 -3.14908 0
M  V30 1859 N 180.328 1.1314 -1.09713 0
M  V30 1860 C 181.605 1.80762 -0.747302 0
M  V30 1861 C 181.985 1.96663 0.767265 0
M  V30 1862 O 181.333 1.53706 1.69076 0
M  V30 1863 C 181.543 3.15606 -1.48975 0
M  V30 1864 C 182.891 3.90914 -1.65746 0
M  V30 1865 O 183.915 3.25239 -1.45251 0
M  V30 1866 O 182.774 5.08718 -1.9967 0
M  V30 1867 H 179.868 0.782103 -0.268782 0
M  V30 1868 H 182.414 1.20041 -1.19951 0
M  V30 1869 H 181.186 2.99278 -2.52088 0
M  V30 1870 H 180.809 3.84029 -1.02991 0
M  V30 1871 N 181.806 0.884767 1.30421 0
M  V30 1872 C 182.753 0.349642 2.28136 0
M  V30 1873 C 183.723 -0.560061 1.56373 0
M  V30 1874 O 184.908 -0.488524 1.8444 0
M  V30 1875 C 182.048 -0.42999 3.42411 0
M  V30 1876 C 181.161 0.508907 4.28992 0
M  V30 1877 C 180.296 -0.286301 5.30428 0
M  V30 1878 C 179.335 0.648079 6.08659 0
M  V30 1879 N 178.472 -0.111792 7.02011 0
M  V30 1880 H 183.312 1.18807 2.73293 0
M  V30 1881 H 180.849 0.597231 1.3443 0
M  V30 1882 H 182.807 -0.897923 4.07423 0
M  V30 1883 H 181.437 -1.23299 2.98324 0
M  V30 1884 H 180.489 1.09533 3.64289 0
M  V30 1885 H 181.801 1.22475 4.8353 0
M  V30 1886 H 180.955 -0.816098 6.01186 0
M  V30 1887 H 179.694 -1.03536 4.76583 0
M  V30 1888 H 178.699 1.18951 5.36778 0
M  V30 1889 H 179.924 1.39623 6.64592 0
M  V30 1890 H 177.87 -0.843395 6.50556 0
M  V30 1891 H 177.787 0.544429 7.54037 0
M  V30 1892 H 179.055 -0.622339 7.77012 0
M  V30 1893 N 183.284 -1.43765 0.645699 0
M  V30 1894 C 184.214 -2.33471 -0.0370477 0
M  V30 1895 C 185.195 -1.49042 -0.819779 0
M  V30 1896 O 186.38 -1.77726 -0.782758 0
M  V30 1897 C 183.51 -3.32311 -1.0093 0
M  V30 1898 C 182.464 -4.2667 -0.337201 0
M  V30 1899 C 181.79 -5.1549 -1.42037 0
M  V30 1900 C 183.09 -5.16657 0.765706 0
M  V30 1901 H 184.784 -2.90809 0.712069 0
M  V30 1902 H 182.33 -1.39834 0.343876 0
M  V30 1903 H 184.283 -3.9396 -1.49578 0
M  V30 1904 H 183.007 -2.73213 -1.78948 0
M  V30 1905 H 181.666 -3.66374 0.128771 0
M  V30 1906 H 181.314 -4.52735 -2.1918 0
M  V30 1907 H 181.014 -5.79438 -0.975966 0
M  V30 1908 H 182.538 -5.80012 -1.90838 0
M  V30 1909 H 183.952 -5.72158 0.361702 0
M  V30 1910 H 182.349 -5.89286 1.13413 0
M  V30 1911 H 183.419 -4.56796 1.62683 0
M  V30 1912 N 184.763 -0.387143 -1.52771 0
M  V30 1913 C 185.711 0.463953 -2.27926 0
M  V30 1914 C 186.705 1.06493 -1.31741 0
M  V30 1915 O 187.911 1.00565 -1.49287 0
M  V30 1916 H 184.286 0.16837 -0.732909 0
M  V30 1917 H 186.257 -0.19141 -2.97785 0
M  V30 1918 C 185.006 1.5803 -3.09713 0
M  V30 1919 H 184.329 1.12718 -3.83581 0
M  V30 1920 H 185.769 2.15008 -3.65442 0
M  V30 1921 C 184.228 2.53509 -2.2189 0
M  V30 1922 O 184.758 3.56863 -1.84422 0
M  V30 1923 N 182.964 2.23199 -1.86093 0
M  V30 1924 H 182.511 1.39185 -2.16761 0
M  V30 1925 H 182.469 2.87333 -1.27621 0
M  V30 1926 N 186.241 1.57166 -0.116904 0
M  V30 1927 C 187.487 1.95412 0.542405 0
M  V30 1928 C 187.82 1.00019 1.66463 0
M  V30 1929 O 187.095 0.0370346 1.94465 0
M  V30 1930 C 187.378 3.43615 1.07708 0
M  V30 1931 C 187.231 4.49781 -0.0415868 0
M  V30 1932 C 188.55 3.93616 1.96861 0
M  V30 1933 H 185.669 0.710543 0.195696 0
M  V30 1934 H 188.311 1.89027 -0.192038 0
M  V30 1935 H 186.461 3.49187 1.70296 0
M  V30 1936 H 188.133 4.56308 -0.676793 0
M  V30 1937 H 186.376 4.28033 -0.705019 0
M  V30 1938 H 187.047 5.50733 0.373717 0
M  V30 1939 H 189.523 3.90335 1.44146 0
M  V30 1940 H 188.399 4.97838 2.3119 0
M  V30 1941 H 188.66 3.34188 2.89432 0
M  V30 1942 N 187.719 -0.156864 1.56817 0
M  V30 1943 C 188.947 -0.886316 1.86955 0
M  V30 1944 C 189.362 -1.75185 0.703975 0
M  V30 1945 O 188.719 -1.79555 -0.326552 0
M  V30 1946 C 188.77 -1.75117 3.16253 0
M  V30 1947 O 188.491 -0.920537 4.2832 0
M  V30 1948 C 189.992 -2.58905 3.59837 0
M  V30 1949 H 187.212 -0.25678 0.619923 0
M  V30 1950 H 189.756 -0.152615 2.0393 0
M  V30 1951 H 187.911 -2.43805 3.01062 0
M  V30 1952 H 188.325 -1.51337 5.02192 0
M  V30 1953 H 189.799 -3.1518 4.53172 0
M  V30 1954 H 190.276 -3.34472 2.84649 0
M  V30 1955 H 190.882 -1.95526 3.7769 0
M  V30 1956 N 189.197 -1.51736 -0.425897 0
M  V30 1957 C 190.474 -1.55519 -1.1863 0
M  V30 1958 C 190.854 -0.326219 -2.08564 0
M  V30 1959 O 190.202 0.688012 -2.17896 0
M  V30 1960 C 190.412 -2.87521 -1.9782 0
M  V30 1961 C 191.76 -3.39899 -2.54468 0
M  V30 1962 O 192.784 -2.89148 -2.08019 0
M  V30 1963 O 191.643 -4.2848 -3.39215 0
M  V30 1964 H 188.737 -0.625739 -0.540721 0
M  V30 1965 H 191.283 -1.64055 -0.434038 0
M  V30 1966 H 190.055 -3.68422 -1.31836 0
M  V30 1967 H 189.678 -2.822 -2.80088 0
M  V30 1968 N 190.675 0.682077 -1.42076 0
M  V30 1969 C 191.9 1.47558 -1.45744 0
M  V30 1970 C 192.325 1.87977 -0.0680981 0
M  V30 1971 O 191.683 1.55522 0.9318 0
M  V30 1972 C 191.731 2.70575 -2.38373 0
M  V30 1973 O 190.835 3.68573 -1.85007 0
M  V30 1974 H 190.176 0.443585 -0.494093 0
M  V30 1975 H 192.706 0.837238 -1.86686 0
M  V30 1976 H 192.716 3.18729 -2.54707 0
M  V30 1977 H 191.391 2.40495 -3.39315 0
M  V30 1978 H 189.968 3.2757 -1.78192 0
M  V30 1979 N 192.153 1.28127 0.917671 0
M  V30 1980 C 193.399 1.15223 1.66888 0
M  V30 1981 C 193.732 -0.299293 1.9188 0
M  V30 1982 O 193.007 -1.21805 1.51637 0
M  V30 1983 C 193.29 1.94706 3.02922 0
M  V30 1984 C 193.143 3.47898 2.85109 0
M  V30 1985 C 194.462 1.75939 4.03402 0
M  V30 1986 H 191.581 0.419946 0.605652 0
M  V30 1987 H 194.223 1.57398 1.06423 0
M  V30 1988 H 192.373 1.58864 3.54534 0
M  V30 1989 H 194.045 3.93624 2.40537 0
M  V30 1990 H 192.288 3.7373 2.20246 0
M  V30 1991 H 192.959 3.98765 3.81694 0
M  V30 1992 H 195.435 2.07209 3.60837 0
M  V30 1993 H 194.311 2.33931 4.96556 0
M  V30 1994 H 194.572 0.709877 4.36364 0
M  V30 1995 N 193.631 -1.12557 1.10312 0
M  V30 1996 C 194.88 -1.83395 0.839588 0
M  V30 1997 C 195.193 -1.84939 -0.636929 0
M  V30 1998 O 196.399 -2.51761 -1.01631 0
M  V30 1999 C 194.855 -3.29303 1.45215 0
M  V30 2000 C 194.463 -3.36122 2.96186 0
M  V30 2001 C 196.207 -4.05121 1.26796 0
M  V30 2002 C 194.114 -4.76357 3.50483 0
M  V30 2003 H 193.044 -0.687133 0.310425 0
M  V30 2004 H 195.695 -1.26746 1.32694 0
M  V30 2005 H 194.077 -3.85812 0.892469 0
M  V30 2006 H 195.251 -2.89559 3.58458 0
M  V30 2007 H 193.566 -2.73776 3.13745 0
M  V30 2008 H 196.163 -5.08668 1.64806 0
M  V30 2009 H 196.506 -4.15773 0.209409 0
M  V30 2010 H 197.039 -3.54967 1.79563 0
M  V30 2011 H 193.778 -4.70899 4.55998 0
M  V30 2012 H 193.298 -5.23377 2.92978 0
M  V30 2013 H 194.977 -5.45294 3.48228 0
M  V30 2014 N 195.109 -0.891671 -1.2995 0
M  V30 2015 C 196.057 -0.353066 -2.29905 0
M  V30 2016 C 197.051 0.543509 -1.60444 0
M  V30 2017 O 198.257 0.4272 -1.74857 0
M  V30 2018 H 194.632 -0.095531 -0.745907 0
M  V30 2019 H 196.603 -1.20961 -2.72784 0
M  V30 2020 C 195.352 0.411475 -3.45257 0
M  V30 2021 H 194.675 -0.269182 -3.98893 0
M  V30 2022 H 196.115 0.753328 -4.17254 0
M  V30 2023 C 194.574 1.6111 -2.9588 0
M  V30 2024 O 195.104 2.71045 -2.96475 0
M  V30 2025 N 193.31 1.45054 -2.51809 0
M  V30 2026 H 192.857 0.556175 -2.51524 0
M  V30 2027 H 192.815 2.25453 -2.1913 0
M  V30 2028 N 196.587 1.43421 -0.653314 0
M  V30 2029 C 197.534 2.30768 0.0382271 0
M  V30 2030 C 198.504 1.44755 0.814576 0
M  V30 2031 O 199.689 1.73624 0.791162 0
M  V30 2032 C 196.829 3.30336 0.998599 0
M  V30 2033 C 195.942 4.31448 0.218342 0
M  V30 2034 C 195.077 5.18098 1.17252 0
M  V30 2035 C 194.116 6.10902 0.382702 0
M  V30 2036 N 193.253 6.90176 1.28848 0
M  V30 2037 H 198.093 2.89357 -0.712511 0
M  V30 2038 H 195.63 1.42548 -0.363128 0
M  V30 2039 H 197.588 3.86572 1.56901 0
M  V30 2040 H 196.218 2.73397 1.71621 0
M  V30 2041 H 195.27 3.77506 -0.46836 0
M  V30 2042 H 196.582 4.97227 -0.395812 0
M  V30 2043 H 195.736 5.7896 1.81356 0
M  V30 2044 H 194.475 4.52444 1.82058 0
M  V30 2045 H 193.48 5.49128 -0.27169 0
M  V30 2046 H 194.705 6.78598 -0.260957 0
M  V30 2047 H 192.651 6.27171 1.92334 0
M  V30 2048 H 192.568 7.52478 0.728887 0
M  V30 2049 H 193.836 7.55543 1.91766 0
M  V30 2050 N 198.065 0.39524 1.52563 0
M  V30 2051 C 199.311 -0.185318 2.01952 0
M  V30 2052 C 199.644 -1.45964 1.28095 0
M  V30 2053 O 198.919 -1.90689 0.38315 0
M  V30 2054 C 199.202 -0.447193 3.57312 0
M  V30 2055 C 199.055 0.842828 4.41833 0
M  V30 2056 C 200.374 -1.23529 4.22408 0
M  V30 2057 H 197.493 -0.0658788 0.73405 0
M  V30 2058 H 200.135 0.525975 1.82575 0
M  V30 2059 H 198.285 -1.05312 3.73954 0
M  V30 2060 H 199.957 1.4795 4.36931 0
M  V30 2061 H 198.2 1.45686 4.08605 0
M  V30 2062 H 198.871 0.614165 5.48573 0
M  V30 2063 H 201.347 -0.722445 4.0978 0
M  V30 2064 H 200.223 -1.38727 5.3108 0
M  V30 2065 H 200.484 -2.25213 3.80436 0
M  V30 2066 N 199.544 -1.57102 0.125237 0
M  V30 2067 C 200.772 -1.99761 -0.538797 0
M  V30 2068 C 201.187 -1.00503 -1.59827 0
M  V30 2069 O 200.544 0.00119474 -1.825 0
M  V30 2070 C 200.595 -3.42408 -1.15927 0
M  V30 2071 O 200.316 -4.37869 -0.142143 0
M  V30 2072 C 201.817 -4.00232 -1.90602 0
M  V30 2073 H 199.037 -0.655772 -0.14214 0
M  V30 2074 H 201.581 -2.03383 0.213413 0
M  V30 2075 H 199.736 -3.39706 -1.86223 0
M  V30 2076 H 200.15 -5.21128 -0.593775 0
M  V30 2077 H 201.624 -5.02105 -2.29335 0
M  V30 2078 H 202.101 -3.39721 -2.78363 0
M  V30 2079 H 202.707 -4.06499 -1.25055 0
M  V30 2080 N 201.022 0.148545 -1.56898 0
M  V30 2081 C 201.932 1.20293 -2.01412 0
M  V30 2082 C 202.948 1.47107 -0.929273 0
M  V30 2083 O 204.124 1.58807 -1.23863 0
M  V30 2084 C 201.189 2.51682 -2.38447 0
M  V30 2085 C 200.25 2.32529 -3.60872 0
M  V30 2086 C 199.483 3.57653 -3.96132 0
M  V30 2087 O 199.706 4.63771 -3.32073 0
M  V30 2088 O 198.64 3.50408 -4.89385 0
M  V30 2089 H 202.466 0.855025 -2.91416 0
M  V30 2090 H 200.051 0.357151 -1.45068 0
M  V30 2091 H 201.933 3.29147 -2.63135 0
M  V30 2092 H 200.608 2.86006 -1.51599 0
M  V30 2093 H 199.515 1.53019 -3.41373 0
M  V30 2094 H 200.848 2.03121 -4.48333 0
M  V30 2095 N 202.5 1.5196 0.417844 0
M  V30 2096 C 203.447 1.74678 1.50852 0
M  V30 2097 C 204.417 0.588947 1.55308 0
M  V30 2098 O 205.602 0.825544 1.72016 0
M  V30 2099 C 202.742 1.89544 2.88387 0
M  V30 2100 C 201.855 3.17166 2.93309 0
M  V30 2101 C 200.99 3.22513 4.22088 0
M  V30 2102 C 200.029 4.44372 4.20951 0
M  V30 2103 N 199.166 4.47161 5.41287 0
M  V30 2104 H 204.006 2.67768 1.30783 0
M  V30 2105 H 201.543 1.32689 0.63498 0
M  V30 2106 H 203.501 1.96146 3.68216 0
M  V30 2107 H 202.131 0.998424 3.06971 0
M  V30 2108 H 201.183 3.19778 2.06024 0
M  V30 2109 H 202.495 4.07021 2.88332 0
M  V30 2110 H 201.649 3.28139 5.10303 0
M  V30 2111 H 200.388 2.30581 4.29748 0
M  V30 2112 H 199.393 4.38902 3.31127 0
M  V30 2113 H 200.618 5.3759 4.14938 0
M  V30 2114 H 198.564 3.58108 5.49632 0
M  V30 2115 H 198.481 5.3085 5.3827 0
M  V30 2116 H 199.749 4.57005 6.3148 0
M  V30 2117 N 203.978 -0.674533 1.42435 0
M  V30 2118 C 205.203 -1.46784 1.46524 0
M  V30 2119 C 205.628 -1.87938 0.078066 0
M  V30 2120 O 204.986 -1.56014 -0.92354 0
M  V30 2121 C 205.034 -2.69307 2.39805 0
M  V30 2122 O 204.138 -3.67587 1.86959 0
M  V30 2123 H 203.479 -0.440959 0.496439 0
M  V30 2124 H 206.009 -0.827326 1.87127 0
M  V30 2125 H 206.019 -3.17374 2.56393 0
M  V30 2126 H 204.694 -2.38692 3.40586 0
M  V30 2127 H 203.271 -3.2662 1.79927 0
M  V30 2128 N 205.456 -1.28612 -0.910864 0
M  V30 2129 C 206.872 -1.06381 -1.18976 0
M  V30 2130 C 207.072 0.191998 -2.00583 0
M  V30 2131 O 206.128 0.892869 -2.36187 0
M  V30 2132 C 207.441 -2.31295 -1.92154 0
M  V30 2133 C 208.989 -2.36503 -2.05025 0
M  V30 2134 C 209.464 -3.61191 -2.81612 0
M  V30 2135 N 210.955 -3.61847 -2.89172 0
M  V30 2136 C 211.69 -4.55004 -3.4894 0
M  V30 2137 N 211.186 -5.58482 -4.09963 0
M  V30 2138 N 212.979 -4.42594 -3.46506 0
M  V30 2139 H 205.13 -2.09221 -0.366094 0
M  V30 2140 H 207.393 -0.921003 -0.224629 0
M  V30 2141 H 207.099 -3.228 -1.39618 0
M  V30 2142 H 206.973 -2.37934 -2.9269 0
M  V30 2143 H 209.36 -1.45494 -2.5674 0
M  V30 2144 H 209.441 -2.33857 -1.03657 0
M  V30 2145 H 209.085 -4.52545 -2.30576 0
M  V30 2146 H 209.015 -3.61092 -3.83302 0
M  V30 2147 H 211.506 -2.87022 -2.45819 0
M  V30 2148 H 211.819 -6.25704 -4.53557 0
M  V30 2149 H 210.164 -5.62305 -4.08459 0
M  V30 2150 H 213.355 -3.60953 -2.98045 0
M  V30 2151 H 213.528 -5.15381 -3.92793 0
M  V30 2152 N 206.934 1.1197 -1.10907 0
M  V30 2153 C 207.866 2.17592 -0.720175 0
M  V30 2154 C 208.879 1.60938 0.245495 0
M  V30 2155 O 210.068 1.78476 0.0292245 0
M  V30 2156 C 207.168 3.38873 -0.0427917 0
M  V30 2157 C 206.341 4.25006 -1.03388 0
M  V30 2158 C 205.4 5.24774 -0.387075 0
M  V30 2159 O 204.426 5.59631 -1.03934 0
M  V30 2160 N 205.628 5.74208 0.852407 0
M  V30 2161 H 208.393 2.51567 -1.62893 0
M  V30 2162 H 205.954 1.27439 -0.998543 0
M  V30 2163 H 207.946 4.02703 0.401501 0
M  V30 2164 H 206.516 3.03007 0.768456 0
M  V30 2165 H 205.736 3.57716 -1.65629 0
M  V30 2166 H 207.024 4.79397 -1.70458 0
M  V30 2167 H 206.422 5.48062 1.40161 0
M  V30 2168 H 204.979 6.39901 1.23977 0
M  V30 2169 N 208.412 0.89855 1.29475 0
M  V30 2170 C 209.359 0.373819 2.27753 0
M  V30 2171 C 210.329 -0.543444 1.56958 0
M  V30 2172 O 211.514 -0.468934 1.84948 0
M  V30 2173 C 208.654 -0.393648 3.42848 0
M  V30 2174 C 207.767 0.554379 4.28428 0
M  V30 2175 C 206.902 -0.230026 5.30702 0
M  V30 2176 C 205.941 0.712599 6.07938 0
M  V30 2177 N 205.078 -0.0373283 7.0209 0
M  V30 2178 H 209.918 1.21699 2.72017 0
M  V30 2179 H 207.455 0.611456 1.33789 0
M  V30 2180 H 209.413 -0.85466 4.08352 0
M  V30 2181 H 208.043 -1.20128 2.99615 0
M  V30 2182 H 207.095 1.13391 3.63107 0
M  V30 2183 H 208.407 1.27597 4.82204 0
M  V30 2184 H 207.561 -0.752288 6.02018 0
M  V30 2185 H 206.3 -0.984758 4.77654 0
M  V30 2186 H 205.305 1.24637 5.35486 0
M  V30 2187 H 206.53 1.46664 6.63074 0
M  V30 2188 H 204.476 -0.774348 6.51414 0
M  V30 2189 H 204.393 0.624374 7.53417 0
M  V30 2190 H 205.661 -0.539891 7.77628 0
M  V30 2191 N 209.89 -1.43072 0.660911 0
M  V30 2192 C 210.8 -2.34585 -0.0264163 0
M  V30 2193 C 211.816 -1.54316 -0.803898 0
M  V30 2194 O 212.992 -1.86939 -0.749391 0
M  V30 2195 C 210.057 -3.32689 -0.975639 0
M  V30 2196 C 209.118 -4.2886 -0.194236 0
M  V30 2197 C 208.351 -5.22278 -1.09825 0
M  V30 2198 O 208.574 -5.20299 -2.33763 0
M  V30 2199 O 207.508 -5.99228 -0.566513 0
M  V30 2200 H 211.334 -2.94869 0.727034 0
M  V30 2201 H 208.919 -1.43342 0.42111 0
M  V30 2202 H 210.801 -3.92995 -1.52094 0
M  V30 2203 H 209.476 -2.74898 -1.70918 0
M  V30 2204 H 208.383 -3.72011 0.394835 0
M  V30 2205 H 209.716 -4.89655 0.499899 0
M  V30 2206 N 211.368 -0.403325 -1.52352 0
M  V30 2207 C 212.331 0.413051 -2.25447 0
M  V30 2208 C 213.331 0.978513 -1.276 0
M  V30 2209 O 214.521 0.858305 -1.51587 0
M  V30 2210 C 211.653 1.58087 -3.02029 0
M  V30 2211 H 212.846 -0.227094 -2.99039 0
M  V30 2212 H 210.399 -0.155722 -1.55522 0
M  V30 2213 H 211.134 2.25804 -2.32772 0
M  V30 2214 H 210.919 1.18195 -3.73861 0
M  V30 2215 H 212.409 2.1585 -3.57489 0
M  V30 2216 N 212.846 1.57033 -0.133567 0
M  V30 2217 C 214.123 1.87256 0.56522 0
M  V30 2218 C 214.503 1.03726 1.83859 0
M  V30 2219 O 213.851 0.120247 2.28183 0
M  V30 2220 C 214.061 3.3865 0.843636 0
M  V30 2221 C 215.409 4.07574 1.19032 0
M  V30 2222 O 216.433 3.43752 0.933429 0
M  V30 2223 O 215.292 5.20259 1.67312 0
M  V30 2224 H 212.386 0.775678 0.286796 0
M  V30 2225 H 214.932 1.68855 -0.169168 0
M  V30 2226 H 213.704 3.91257 -0.0581149 0
M  V30 2227 H 213.327 3.62532 1.63268 0
M  V30 2228 N 214.325 -0.140222 1.56975 0
M  V30 2229 C 215.258 -1.20266 1.93936 0
M  V30 2230 C 216.236 -1.41212 0.806099 0
M  V30 2231 O 217.42 -1.55713 1.06234 0
M  V30 2232 C 214.547 -2.56037 2.21726 0
M  V30 2233 C 213.593 -2.51646 3.44349 0
M  V30 2234 S 214.426 -1.97678 4.97678 0
M  V30 2235 C 215.582 -3.35165 5.28597 0
M  V30 2236 H 215.815 -0.887358 2.83749 0
M  V30 2237 H 213.348 -0.346119 1.50471 0
M  V30 2238 H 215.306 -3.34167 2.38416 0
M  V30 2239 H 213.967 -2.84755 1.32566 0
M  V30 2240 H 213.16 -3.51608 3.61092 0
M  V30 2241 H 212.762 -1.81628 3.26936 0
M  V30 2242 H 215.054 -4.31302 5.2248 0
M  V30 2243 H 215.997 -3.23269 6.30002 0
M  V30 2244 H 216.405 -3.32614 4.56101 0
M  V30 2245 N 215.803 -1.52179 -0.40978 0
M  V30 2246 C 217.033 -1.69807 -1.17682 0
M  V30 2247 C 217.441 -0.406908 -1.84773 0
M  V30 2248 O 216.784 0.626863 -1.72673 0
M  V30 2249 C 216.846 -2.77712 -2.2829 0
M  V30 2250 C 216.51 -4.19481 -1.81341 0
M  V30 2251 C 217.507 -5.03345 -1.30154 0
M  V30 2252 C 215.192 -4.65713 -1.88194 0
M  V30 2253 C 217.186 -6.31511 -0.864416 0
M  V30 2254 C 214.873 -5.93869 -1.44093 0
M  V30 2255 C 215.871 -6.76597 -0.933023 0
M  V30 2256 O 215.559 -8.02354 -0.49838 0
M  V30 2257 H 215.291 -0.572372 -0.359675 0
M  V30 2258 H 217.845 -1.99511 -0.488311 0
M  V30 2259 H 216.075 -2.43383 -3.00502 0
M  V30 2260 H 217.764 -2.83946 -2.90051 0
M  V30 2261 H 218.53 -4.68819 -1.24232 0
M  V30 2262 H 214.409 -4.01424 -2.26671 0
M  V30 2263 H 217.953 -6.96033 -0.467286 0
M  V30 2264 H 213.85 -6.27903 -1.49694 0
M  V30 2265 H 214.618 -8.16135 -0.621747 0
M  V30 2266 N 217.281 0.66697 -1.42791 0
M  V30 2267 C 218.697 0.981027 -1.25889 0
M  V30 2268 C 218.897 2.00793 -0.168695 0
M  V30 2269 O 217.953 2.48321 0.45747 0
M  V30 2270 C 219.266 1.47838 -2.61848 0
M  V30 2271 C 220.814 1.59575 -2.69267 0
M  V30 2272 C 221.289 2.12704 -4.05612 0
M  V30 2273 N 222.78 2.20026 -4.07606 0
M  V30 2274 C 223.515 2.62227 -5.09926 0
M  V30 2275 N 223.011 3.03824 -6.22626 0
M  V30 2276 N 224.804 2.62045 -4.97281 0
M  V30 2277 H 216.955 -0.0127891 -2.12396 0
M  V30 2278 H 219.218 0.0568258 -0.946295 0
M  V30 2279 H 218.924 0.798299 -3.4252 0
M  V30 2280 H 218.798 2.45579 -2.86305 0
M  V30 2281 H 221.185 2.26687 -1.88936 0
M  V30 2282 H 221.266 0.60302 -2.48591 0
M  V30 2283 H 220.91 1.46198 -4.86404 0
M  V30 2284 H 220.84 3.12782 -4.23645 0
M  V30 2285 H 223.331 1.90708 -3.2625 0
M  V30 2286 H 223.644 3.34734 -6.96544 0
M  V30 2287 H 221.989 3.01662 -6.26119 0
M  V30 2288 H 225.18 2.28916 -4.08308 0
M  V30 2289 H 225.353 2.94613 -5.77154 0
M  V30 2290 N 218.759 1.29093 0.90403 0
M  V30 2291 C 220.008 1.16187 1.64874 0
M  V30 2292 C 220.321 -0.286742 1.93487 0
M  V30 2293 O 221.527 -0.537062 2.66135 0
M  V30 2294 C 219.983 2.03177 2.97064 0
M  V30 2295 C 219.591 3.52836 2.76062 0
M  V30 2296 C 221.335 1.98984 3.74974 0
M  V30 2297 C 219.242 4.31945 4.03952 0
M  V30 2298 H 218.172 0.431246 0.618501 0
M  V30 2299 H 220.823 1.53699 1.00243 0
M  V30 2300 H 219.205 1.5853 3.62883 0
M  V30 2301 H 220.379 4.05507 2.18863 0
M  V30 2302 H 218.694 3.58656 2.11553 0
M  V30 2303 H 221.291 2.55351 4.69787 0
M  V30 2304 H 221.634 0.968815 4.0487 0
M  V30 2305 H 222.167 2.41652 3.15989 0
M  V30 2306 H 218.906 5.34667 3.79225 0
M  V30 2307 H 218.426 3.84045 4.60727 0
M  V30 2308 H 220.105 4.42379 4.72133 0
M  V30 2309 N 220.237 -1.11381 1.11499 0
M  V30 2310 C 221.184 -2.17439 0.773887 0
M  V30 2311 C 222.154 -1.64132 -0.254899 0
M  V30 2312 O 223.339 -1.90345 -0.13168 0
M  V30 2313 C 220.479 -3.44373 0.223917 0
M  V30 2314 C 219.592 -4.1168 1.30934 0
M  V30 2315 C 218.727 -5.263 0.71984 0
M  V30 2316 C 217.766 -5.85493 1.78507 0
M  V30 2317 N 216.903 -6.91507 1.21502 0
M  V30 2318 H 221.743 -2.45962 1.68246 0
M  V30 2319 H 219.28 -1.20744 0.840191 0
M  V30 2320 H 221.238 -4.17047 -0.112921 0
M  V30 2321 H 219.868 -3.16232 -0.647851 0
M  V30 2322 H 218.92 -3.37073 1.76312 0
M  V30 2323 H 220.232 -4.51729 2.11524 0
M  V30 2324 H 219.386 -6.05785 0.333094 0
M  V30 2325 H 218.125 -4.87559 -0.117377 0
M  V30 2326 H 217.13 -5.04686 2.18111 0
M  V30 2327 H 218.355 -6.26301 2.62533 0
M  V30 2328 H 216.301 -6.54783 0.399455 0
M  V30 2329 H 216.218 -7.30214 1.95763 0
M  V30 2330 H 217.486 -7.74795 0.855181 0
M  V30 2331 N 221.715 -0.905404 -1.28997 0
M  V30 2332 C 222.992 -0.453513 -1.9027 0
M  V30 2333 C 223.372 1.06721 -1.82137 0
M  V30 2334 O 222.72 1.91159 -1.25182 0
M  V30 2335 C 222.93 -0.974494 -3.35119 0
M  V30 2336 C 224.278 -1.0216 -4.12127 0
M  V30 2337 O 225.302 -0.922557 -3.44046 0
M  V30 2338 O 224.161 -1.17121 -5.33802 0
M  V30 2339 H 221.255 -0.142347 -0.814657 0
M  V30 2340 H 223.801 -0.995642 -1.37423 0
M  V30 2341 H 222.573 -2.01848 -3.35221 0
M  V30 2342 H 222.196 -0.412706 -3.95452 0
M  V30 2343 N 223.193 1.4272 -0.668489 0
M  V30 2344 C 224.14 2.30796 0.0137489 0
M  V30 2345 C 225.11 1.4561 0.799177 0
M  V30 2346 O 226.295 1.74453 0.772702 0
M  V30 2347 C 223.435 3.31377 0.963507 0
M  V30 2348 C 222.548 4.31655 0.172569 0
M  V30 2349 C 221.683 5.19312 1.1175 0
M  V30 2350 C 220.722 6.11274 0.317886 0
M  V30 2351 N 219.859 6.91504 1.2152 0
M  V30 2352 H 224.699 2.88585 -0.743161 0
M  V30 2353 H 222.236 1.42154 -0.378226 0
M  V30 2354 H 224.194 3.88214 1.52792 0
M  V30 2355 H 222.824 2.75202 1.68712 0
M  V30 2356 H 221.876 3.76988 -0.508374 0
M  V30 2357 H 223.188 4.96779 -0.448527 0
M  V30 2358 H 222.342 5.80851 1.75206 0
M  V30 2359 H 221.081 4.5435 1.77249 0
M  V30 2360 H 220.086 5.48809 -0.329918 0
M  V30 2361 H 221.311 6.78283 -0.332917 0
M  V30 2362 H 219.257 6.29176 1.85671 0
M  V30 2363 H 219.174 7.53209 0.649036 0
M  V30 2364 H 220.442 7.57535 1.83742 0
M  V30 2365 N 224.671 0.411399 1.52136 0
M  V30 2366 C 225.634 -0.401089 2.25663 0
M  V30 2367 C 226.634 -0.971732 1.28117 0
M  V30 2368 O 227.824 -0.850254 1.52041 0
M  V30 2369 C 224.956 -1.56483 3.02863 0
M  V30 2370 H 226.149 0.24295 2.98914 0
M  V30 2371 H 223.702 0.163968 1.55438 0
M  V30 2372 H 224.437 -2.24567 2.33967 0
M  V30 2373 H 224.222 -1.16211 3.74483 0
M  V30 2374 H 225.712 -2.13951 3.58629 0
M  V30 2375 N 226.149 -1.5696 0.141893 0
M  V30 2376 C 227.426 -1.87553 -0.555281 0
M  V30 2377 C 227.806 -1.04699 -1.83306 0
M  V30 2378 O 227.154 -0.132346 -2.28116 0
M  V30 2379 C 227.364 -3.39093 -0.825664 0
M  V30 2380 C 228.712 -4.08199 -1.16869 0
M  V30 2381 O 229.736 -3.44242 -0.915185 0
M  V30 2382 O 228.595 -5.21139 -1.6455 0
M  V30 2383 H 225.689 -0.777188 -0.282679 0
M  V30 2384 H 228.235 -1.68763 0.17812 0
M  V30 2385 H 227.007 -3.91221 0.0788633 0
M  V30 2386 H 226.63 -3.63393 -1.61343 0
M  V30 2387 N 227.627 0.131896 -1.57047 0
M  V30 2388 C 229.043 0.485031 -1.52051 0
M  V30 2389 C 229.243 1.82563 -0.85281 0
M  V30 2390 O 228.299 2.48817 -0.429694 0
M  V30 2391 C 229.612 0.481409 -2.96821 0
M  V30 2392 C 231.16 0.565868 -3.07842 0
M  V30 2393 C 231.635 0.592762 -4.54148 0
M  V30 2394 N 233.126 0.654564 -4.58552 0
M  V30 2395 C 233.861 0.696608 -5.69153 0
M  V30 2396 N 233.357 0.697078 -6.89284 0
M  V30 2397 N 235.15 0.738639 -5.57226 0
M  V30 2398 H 227.301 -0.746664 -1.98843 0
M  V30 2399 H 229.564 -0.273999 -0.90754 0
M  V30 2400 H 229.27 -0.435731 -3.4899 0
M  V30 2401 H 229.144 1.3139 -3.53577 0
M  V30 2402 H 231.531 1.47343 -2.55684 0
M  V30 2403 H 231.612 -0.29406 -2.54104 0
M  V30 2404 H 231.256 -0.310701 -5.06949 0
M  V30 2405 H 231.186 1.46939 -5.05684 0
M  V30 2406 H 233.677 0.660887 -3.72076 0
M  V30 2407 H 233.99 0.731426 -7.69331 0
M  V30 2408 H 232.335 0.66471 -6.91814 0
M  V30 2409 H 235.526 0.735545 -4.62285 0
M  V30 2410 H 235.699 0.767938 -6.43434 0
M  V30 2411 N 229.106 1.52395 0.401703 0
M  V30 2412 C 230.069 1.75636 1.47257 0
M  V30 2413 C 231.069 0.62628 1.48103 0
M  V30 2414 O 232.259 0.894227 1.49497 0
M  V30 2415 C 229.391 1.84553 2.86624 0
M  V30 2416 H 230.584 2.71241 1.27938 0
M  V30 2417 H 228.137 1.42923 0.632662 0
M  V30 2418 H 228.872 0.908882 3.11303 0
M  V30 2419 H 228.657 2.66715 2.87412 0
M  V30 2420 H 230.147 2.04251 3.64241 0
M  V30 2421 N 230.584 -0.659388 1.43143 0
M  V30 2422 C 231.812 -1.44723 1.47861 0
M  V30 2423 C 232.227 -1.88563 0.0945886 0
M  V30 2424 O 231.584 -1.59108 -0.893915 0
M  V30 2425 C 231.635 -2.68627 2.41913 0
M  V30 2426 O 231.356 -2.26623 3.74932 0
M  V30 2427 C 232.857 -3.62045 2.55809 0
M  V30 2428 H 230.077 -0.444801 0.502387 0
M  V30 2429 H 232.621 -0.808916 1.87821 0
M  V30 2430 H 230.776 -3.28613 2.05164 0
M  V30 2431 H 231.19 -3.06745 4.2545 0
M  V30 2432 H 232.664 -4.45666 3.25708 0
M  V30 2433 H 233.141 -4.08981 1.60099 0
M  V30 2434 H 233.747 -3.07944 2.93344 0
M  V30 2435 N 232.062 -1.29571 -0.897171 0
M  V30 2436 C 233.308 -1.17863 -1.65034 0
M  V30 2437 C 233.641 0.268729 -1.92332 0
M  V30 2438 O 232.916 1.19378 -1.53555 0
M  V30 2439 C 233.199 -1.995 -2.99786 0
M  V30 2440 C 233.052 -3.5239 -2.79538 0
M  V30 2441 C 234.371 -1.82335 -4.00552 0
M  V30 2442 H 231.49 -0.429528 -0.598895 0
M  V30 2443 H 234.132 -1.59072 -1.03905 0
M  V30 2444 H 232.282 -1.64485 -3.51962 0
M  V30 2445 H 233.954 -3.97401 -2.34244 0
M  V30 2446 H 232.197 -3.77187 -2.14273 0
M  V30 2447 H 232.868 -4.04787 -3.75302 0
M  V30 2448 H 235.344 -2.12924 -3.57495 0
M  V30 2449 H 234.22 -2.41801 -4.92771 0
M  V30 2450 H 234.481 -0.779209 -4.35179 0
M  V30 2451 N 233.54 1.10788 -1.12088 0
M  V30 2452 C 234.45 2.20599 -0.798338 0
M  V30 2453 C 235.466 1.72712 0.21135 0
M  V30 2454 O 236.642 2.01348 0.0458477 0
M  V30 2455 C 233.707 3.45771 -0.253674 0
M  V30 2456 C 232.768 4.08411 -1.32283 0
M  V30 2457 C 232.001 5.27608 -0.80406 0
M  V30 2458 O 232.224 5.69241 0.363478 0
M  V30 2459 O 231.158 5.8101 -1.57198 0
M  V30 2460 H 234.984 2.50614 -1.7154 0
M  V30 2461 H 232.569 1.19454 -0.897275 0
M  V30 2462 H 234.451 4.21376 0.0453691 0
M  V30 2463 H 233.126 3.1739 0.636005 0
M  V30 2464 H 232.033 3.34507 -1.67499 0
M  V30 2465 H 233.366 4.40986 -2.18614 0
M  V30 2466 N 235.018 0.912232 1.28515 0
M  V30 2467 C 235.95 0.35676 2.26406 0
M  V30 2468 C 236.963 -0.503933 1.54804 0
M  V30 2469 O 238.152 -0.319059 1.75625 0
M  V30 2470 C 235.252 -0.508825 3.35058 0
M  V30 2471 C 234.425 0.329007 4.36161 0
M  V30 2472 C 233.484 -0.471422 5.24084 0
M  V30 2473 O 232.51 0.115482 5.69083 0
M  V30 2474 N 233.712 -1.77479 5.52704 0
M  V30 2475 H 236.477 1.19818 2.74707 0
M  V30 2476 H 234.038 0.778022 1.4198 0
M  V30 2477 H 236.03 -1.051 3.90815 0
M  V30 2478 H 234.6 -1.25095 2.86478 0
M  V30 2479 H 233.82 1.05256 3.79888 0
M  V30 2480 H 235.108 0.90234 5.00735 0
M  V30 2481 H 234.506 -2.27417 5.17975 0
M  V30 2482 H 233.063 -2.26382 6.11224 0
M  V30 2483 N 236.496 -1.42363 0.676048 0
M  V30 2484 C 237.742 -2.0182 0.199125 0
M  V30 2485 C 238.075 -1.53339 -1.19168 0
M  V30 2486 O 237.35 -0.736124 -1.80032 0
M  V30 2487 C 237.633 -3.59331 0.235144 0
M  V30 2488 C 237.486 -4.17989 1.66149 0
M  V30 2489 C 238.805 -4.3813 -0.41595 0
M  V30 2490 H 235.924 -0.733293 0.0738311 0
M  V30 2491 H 238.566 -1.69368 0.86107 0
M  V30 2492 H 236.716 -3.87109 -0.328487 0
M  V30 2493 H 238.388 -4.0116 2.27747 0
M  V30 2494 H 236.631 -3.7377 2.20178 0
M  V30 2495 H 237.302 -5.27126 1.63837 0
M  V30 2496 H 239.778 -4.16051 0.0638529 0
M  V30 2497 H 238.654 -5.47717 -0.360115 0
M  V30 2498 H 238.915 -4.16101 -1.49373 0
M  V30 2499 N 237.974 -0.419461 -1.51915 0
M  V30 2500 C 238.904 0.391813 -2.30189 0
M  V30 2501 C 239.885 1.03699 -1.34836 0
M  V30 2502 O 241.07 1.04403 -1.63748 0
M  V30 2503 C 238.2 1.50312 -3.13087 0
M  V30 2504 C 237.154 0.9824 -4.16573 0
M  V30 2505 C 236.48 2.18809 -4.8788 0
M  V30 2506 C 237.78 0.0292356 -5.22292 0
M  V30 2507 H 239.474 -0.26135 -2.98257 0
M  V30 2508 H 237.02 -0.127134 -1.43438 0
M  V30 2509 H 238.973 2.07773 -3.66617 0
M  V30 2510 H 237.697 2.18431 -2.42807 0
M  V30 2511 H 236.356 0.430119 -3.64068 0
M  V30 2512 H 236.004 2.85507 -4.14119 0
M  V30 2513 H 235.704 1.84615 -5.57845 0
M  V30 2514 H 237.228 2.76858 -5.44226 0
M  V30 2515 H 238.642 0.512976 -5.71 0
M  V30 2516 H 237.039 -0.2244 -5.9968 0
M  V30 2517 H 238.109 -0.912931 -4.76228 0
M  V30 2518 N 239.452 1.56882 -0.150215 0
M  V30 2519 C 240.729 1.87844 0.545327 0
M  V30 2520 C 241.109 1.0567 1.82749 0
M  V30 2521 O 240.457 0.144442 2.28043 0
M  V30 2522 C 240.667 3.39526 0.80767 0
M  V30 2523 C 242.015 4.08814 1.14703 0
M  V30 2524 O 243.039 3.44723 0.896917 0
M  V30 2525 O 241.898 5.22004 1.61784 0
M  V30 2526 H 238.992 0.778677 0.278553 0
M  V30 2527 H 241.538 1.68666 -0.187068 0
M  V30 2528 H 240.31 3.91173 -0.0996096 0
M  V30 2529 H 239.933 3.64243 1.59413 0
M  V30 2530 N 240.93 -0.123565 1.57115 0
M  V30 2531 C 242.341 -0.681198 1.73829 0
M  V30 2532 C 242.692 -1.80535 0.768214 0
M  V30 2533 O 241.817 -2.16317 -0.0599103 0
M  V30 2534 C 242.412 -1.24246 3.15196 0
M  V30 2535 C 240.971 -1.74643 3.33432 0
M  V30 2536 C 240.118 -0.644284 2.69711 0
M  V30 2537 H 243.069 0.102315 1.5837 0
M  V30 2538 H 243.09 -2.11216 3.16493 0
M  V30 2539 H 242.602 -0.424062 3.85776 0
M  V30 2540 H 240.703 -2.58974 2.67886 0
M  V30 2541 H 240.816 -1.85902 4.41562 0
M  V30 2542 H 239.18 -1.07676 2.3082 0
M  V30 2543 H 239.963 0.163058 3.42913 0
M  V30 2544 N 242.408 -1.52605 -0.393616 0
M  V30 2545 C 243.824 -1.41753 -0.733357 0
M  V30 2546 C 244.024 -0.534293 -1.94287 0
M  V30 2547 O 243.08 -0.0059787 -2.52499 0
M  V30 2548 C 244.393 -2.84531 -0.972772 0
M  V30 2549 C 245.941 -2.93978 -1.07453 0
M  V30 2550 C 246.416 -4.37756 -1.3466 0
M  V30 2551 N 247.907 -4.4106 -1.41492 0
M  V30 2552 C 248.642 -5.49387 -1.642 0
M  V30 2553 N 248.138 -6.67806 -1.8441 0
M  V30 2554 N 249.931 -5.36923 -1.66342 0
M  V30 2555 H 242.082 -2.08555 0.402328 0
M  V30 2556 H 244.345 -0.940654 0.117789 0
M  V30 2557 H 244.051 -3.51353 -0.156204 0
M  V30 2558 H 243.925 -3.26508 -1.88871 0
M  V30 2559 H 246.312 -2.27326 -1.88167 0
M  V30 2560 H 246.393 -2.55435 -0.136605 0
M  V30 2561 H 246.037 -5.04972 -0.544581 0
M  V30 2562 H 245.967 -4.73848 -2.2973 0
M  V30 2563 H 248.458 -3.55705 -1.27601 0
M  V30 2564 H 248.771 -7.46141 -2.01231 0
M  V30 2565 H 247.116 -6.70843 -1.81644 0
M  V30 2566 H 250.307 -4.43381 -1.50102 0
M  V30 2567 H 250.48 -6.21416 -1.837 0
M  V30 2568 N 243.887 0.651787 -1.4349 0
M  V30 2569 C 245.115 1.43937 -1.48626 0
M  V30 2570 C 245.53 1.8851 -0.104587 0
M  V30 2571 O 244.887 1.5958 0.885464 0
M  V30 2572 C 244.938 2.6734 -2.43334 0
M  V30 2573 O 244.659 2.24631 -3.76128 0
M  V30 2574 C 246.16 3.60683 -2.57726 0
M  V30 2575 H 243.38 0.44213 -0.504739 0
M  V30 2576 H 245.924 0.798944 -1.88248 0
M  V30 2577 H 244.079 3.2752 -2.06904 0
M  V30 2578 H 244.493 3.04485 -4.2707 0
M  V30 2579 H 245.967 4.43933 -3.28067 0
M  V30 2580 H 246.444 4.08126 -1.62265 0
M  V30 2581 H 247.05 3.06384 -2.94973 0
M  V30 2582 N 245.365 1.30045 0.890287 0
M  V30 2583 C 246.781 1.08261 1.17268 0
M  V30 2584 C 246.981 -0.160063 2.00863 0
M  V30 2585 O 246.037 -0.855181 2.37577 0
M  V30 2586 C 247.35 2.34323 1.8845 0
M  V30 2587 C 248.898 2.39735 2.01237 0
M  V30 2588 C 249.373 3.65625 2.7583 0
M  V30 2589 N 250.864 3.66402 2.83379 0
M  V30 2590 C 251.599 4.60498 3.41657 0
M  V30 2591 N 251.095 5.64933 4.01026 0
M  V30 2592 N 252.888 4.48051 3.39421 0
M  V30 2593 H 245.039 2.09777 0.332762 0
M  V30 2594 H 247.302 0.92446 0.209948 0
M  V30 2595 H 247.008 3.2498 1.34465 0
M  V30 2596 H 246.882 2.4256 2.88867 0
M  V30 2597 H 249.269 1.4956 2.54393 0
M  V30 2598 H 249.35 2.35476 0.999232 0
M  V30 2599 H 248.994 4.56156 2.23347 0
M  V30 2600 H 248.924 3.67144 3.77509 0
M  V30 2601 H 251.415 2.90896 2.41222 0
M  V30 2602 H 251.728 6.32841 4.43545 0
M  V30 2603 H 250.073 5.68732 3.99461 0
M  V30 2604 H 253.264 3.65649 2.92264 0
M  V30 2605 H 253.437 5.21565 3.84544 0
M  V30 2606 N 246.843 -1.10192 1.12674 0
M  V30 2607 C 247.776 -2.15847 0.740625 0
M  V30 2608 C 248.754 -1.60352 -0.269421 0
M  V30 2609 O 249.938 -1.87796 -0.16278 0
M  V30 2610 C 247.065 -3.38562 0.096641 0
M  V30 2611 C 246.111 -4.12758 1.07391 0
M  V30 2612 S 246.944 -4.67997 2.60267 0
M  V30 2613 C 248.1 -5.94021 1.97206 0
M  V30 2614 H 248.333 -2.48266 1.63558 0
M  V30 2615 H 245.866 -1.22019 0.946087 0
M  V30 2616 H 247.824 -4.09621 -0.268535 0
M  V30 2617 H 246.485 -3.04377 -0.775462 0
M  V30 2618 H 245.678 -5.00755 0.570997 0
M  V30 2619 H 245.28 -3.47523 1.38216 0
M  V30 2620 H 247.572 -6.64589 1.31634 0
M  V30 2621 H 248.515 -6.48979 2.83253 0
M  V30 2622 H 248.923 -5.46169 1.42686 0
M  V30 2623 N 248.321 -0.919034 -1.28029 0
M  V30 2624 C 249.57 -0.550802 -1.94034 0
M  V30 2625 C 249.883 0.910877 -1.73096 0
M  V30 2626 O 251.089 1.3875 -2.33368 0
M  V30 2627 C 249.545 -0.934249 -3.47563 0
M  V30 2628 C 249.153 -2.41602 -3.7727 0
M  V30 2629 C 250.897 -0.636854 -4.19696 0
M  V30 2630 C 248.804 -2.73932 -5.24133 0
M  V30 2631 H 247.734 -0.202273 -0.726362 0
M  V30 2632 H 250.385 -1.11867 -1.45458 0
M  V30 2633 H 248.767 -0.295115 -3.94899 0
M  V30 2634 H 249.941 -3.10233 -3.40723 0
M  V30 2635 H 248.256 -2.68441 -3.18321 0
M  V30 2636 H 250.853 -0.855005 -5.2782 0
M  V30 2637 H 251.196 0.425575 -4.14119 0
M  V30 2638 H 251.729 -1.23469 -3.78154 0
M  V30 2639 H 248.468 -3.79049 -5.34792 0
M  V30 2640 H 247.988 -2.09942 -5.61858 0
M  V30 2641 H 249.667 -2.61215 -5.91925 0
M  V30 2642 N 249.799 1.42003 -0.683588 0
M  V30 2643 C 250.729 2.33487 -0.024866 0
M  V30 2644 C 251.71 1.51163 0.779975 0
M  V30 2645 O 252.895 1.79739 0.735362 0
M  V30 2646 C 250.025 3.3487 0.920836 0
M  V30 2647 C 248.979 4.27414 0.223958 0
M  V30 2648 C 248.305 5.19074 1.2832 0
M  V30 2649 C 249.605 5.14445 -0.90242 0
M  V30 2650 H 251.299 2.88819 -0.788921 0
M  V30 2651 H 248.845 1.38873 -0.38083 0
M  V30 2652 H 250.798 3.97787 1.39081 0
M  V30 2653 H 249.522 2.77861 1.71642 0
M  V30 2654 H 248.181 3.65904 -0.225864 0
M  V30 2655 H 247.829 4.58387 2.071 0
M  V30 2656 H 247.529 5.81822 0.821995 0
M  V30 2657 H 249.053 5.84867 1.75392 0
M  V30 2658 H 250.467 5.70998 -0.513272 0
M  V30 2659 H 248.864 5.86072 -1.28997 0
M  V30 2660 H 249.934 4.52322 -1.74737 0
M  V30 2661 N 251.277 0.427512 1.51691 0
M  V30 2662 C 252.524 -0.142229 2.02 0
M  V30 2663 C 252.852 -1.43566 1.31221 0
M  V30 2664 O 252.107 -1.91298 0.412744 0
M  V30 2665 C 252.406 -0.418249 3.54944 0
M  V30 2666 C 252.072 0.788187 4.43958 0
M  V30 2667 C 250.734 1.11906 4.68007 0
M  V30 2668 C 253.086 1.59347 4.96244 0
M  V30 2669 C 250.414 2.25608 5.41588 0
M  V30 2670 C 252.766 2.7214 5.71072 0
M  V30 2671 C 251.43 3.05692 5.93387 0
M  V30 2672 H 250.7 -0.0520451 0.73917 0
M  V30 2673 H 253.347 0.572697 1.82736 0
M  V30 2674 H 251.652 -1.21496 3.72486 0
M  V30 2675 H 253.349 -0.872339 3.91397 0
M  V30 2676 H 249.939 0.520344 4.2543 0
M  V30 2677 H 254.123 1.35106 4.77556 0
M  V30 2678 H 249.379 2.51929 5.57083 0
M  V30 2679 H 253.553 3.34914 6.10578 0
M  V30 2680 H 251.18 3.9391 6.50184 0
M  V30 2681 N 252.755 -1.56801 0.158532 0
M  V30 2682 C 253.702 -2.17337 -0.776729 0
M  V30 2683 C 254.672 -1.1096 -1.23601 0
M  V30 2684 O 255.857 -1.39054 -1.30647 0
M  V30 2685 C 252.997 -2.80822 -2.00582 0
M  V30 2686 C 252.11 -4.01624 -1.59129 0
M  V30 2687 C 251.245 -4.53072 -2.77306 0
M  V30 2688 C 250.284 -5.66314 -2.32282 0
M  V30 2689 N 249.421 -6.12329 -3.43508 0
M  V30 2690 H 254.261 -2.96918 -0.253701 0
M  V30 2691 H 251.798 -1.46661 -0.113504 0
M  V30 2692 H 253.756 -3.15779 -2.72652 0
M  V30 2693 H 252.386 -2.03866 -2.50277 0
M  V30 2694 H 251.438 -3.72571 -0.767806 0
M  V30 2695 H 252.75 -4.83633 -1.2207 0
M  V30 2696 H 251.904 -4.90145 -3.57551 0
M  V30 2697 H 250.643 -3.70095 -3.17617 0
M  V30 2698 H 249.648 -5.28806 -1.5048 0
M  V30 2699 H 250.873 -6.51085 -1.93043 0
M  V30 2700 H 248.819 -5.32284 -3.83418 0
M  V30 2701 H 248.736 -6.89293 -3.105 0
M  V30 2702 H 250.004 -6.5405 -4.24075 0
M  V30 2703 N 254.233 0.115231 -1.57178 0
M  V30 2704 C 255.166 1.17166 -1.95825 0
M  V30 2705 C 256.144 1.39912 -0.828463 0
M  V30 2706 O 257.328 1.54004 -1.08697 0
M  V30 2707 C 254.455 2.52478 -2.25771 0
M  V30 2708 C 253.501 2.46136 -3.48309 0
M  V30 2709 S 254.334 1.89736 -5.0076 0
M  V30 2710 C 255.49 3.26713 -5.33863 0
M  V30 2711 H 255.723 0.842103 -2.85124 0
M  V30 2712 H 253.256 0.322136 -1.51002 0
M  V30 2713 H 255.214 3.30332 -2.43702 0
M  V30 2714 H 253.875 2.82609 -1.37079 0
M  V30 2715 H 253.068 3.45819 -3.66641 0
M  V30 2716 H 252.67 1.76404 -3.29784 0
M  V30 2717 H 254.962 4.22935 -5.29275 0
M  V30 2718 H 255.905 3.13205 -6.35065 0
M  V30 2719 H 256.313 3.25316 -4.61335 0
M  V30 2720 N 255.711 1.52812 0.385517 0
M  V30 2721 C 256.641 1.80808 1.47752 0
M  V30 2722 C 257.622 0.660318 1.5676 0
M  V30 2723 O 258.807 0.908246 1.71652 0
M  V30 2724 C 255.937 1.98008 2.85324 0
M  V30 2725 C 254.891 3.13709 2.91154 0
M  V30 2726 C 254.217 3.16169 4.31209 0
M  V30 2727 C 255.517 4.52709 2.60483 0
M  V30 2728 H 257.211 2.72253 1.24573 0
M  V30 2729 H 254.757 1.31003 0.597839 0
M  V30 2730 H 256.71 2.16176 3.61726 0
M  V30 2731 H 255.434 1.03255 3.09848 0
M  V30 2732 H 254.093 2.95329 2.17201 0
M  V30 2733 H 253.741 2.19092 4.52778 0
M  V30 2734 H 253.441 3.93894 4.36029 0
M  V30 2735 H 254.965 3.36496 5.09512 0
M  V30 2736 H 256.379 4.71173 3.26602 0
M  V30 2737 H 254.776 5.32528 2.76648 0
M  V30 2738 H 255.846 4.59186 1.55809 0
M  V30 2739 N 257.189 -0.644168 1.43834 0
M  V30 2740 C 258.417 -1.43147 1.49387 0
M  V30 2741 C 258.832 -1.88452 0.114583 0
M  V30 2742 O 258.189 -1.60047 -0.876989 0
M  V30 2743 C 258.24 -2.66046 2.44748 0
M  V30 2744 O 257.961 -2.22633 3.77314 0
M  V30 2745 C 259.462 -3.59311 2.59635 0
M  V30 2746 H 256.682 -0.439447 0.507077 0
M  V30 2747 H 259.226 -0.78895 1.88669 0
M  V30 2748 H 257.381 -3.26418 2.08638 0
M  V30 2749 H 257.795 -3.02216 4.28679 0
M  V30 2750 H 259.269 -4.42187 3.30416 0
M  V30 2751 H 259.746 -4.07259 1.64427 0
M  V30 2752 H 260.352 -3.04816 2.96593 0
M  V30 2753 N 258.668 -1.30515 -0.883378 0
M  V30 2754 C 260.084 -1.08881 -1.16692 0
M  V30 2755 C 260.284 0.149409 -2.00945 0
M  V30 2756 O 259.34 0.84257 -2.38027 0
M  V30 2757 C 260.653 -2.35319 -1.87204 0
M  V30 2758 C 262.201 -2.40799 -1.99962 0
M  V30 2759 C 262.676 -3.67083 -2.73887 0
M  V30 2760 N 264.167 -3.679 -2.81432 0
M  V30 2761 C 264.902 -4.62303 -3.3921 0
M  V30 2762 N 264.398 -5.67052 -3.98025 0
M  V30 2763 N 266.191 -4.49845 -3.3704 0
M  V30 2764 H 258.342 -2.09951 -0.321633 0
M  V30 2765 H 260.605 -0.92556 -0.205043 0
M  V30 2766 H 260.311 -3.25689 -1.3274 0
M  V30 2767 H 260.185 -2.44089 -2.87577 0
M  V30 2768 H 262.572 -1.50907 -2.53597 0
M  V30 2769 H 262.653 -2.36003 -0.98673 0
M  V30 2770 H 262.297 -4.57334 -2.20925 0
M  V30 2771 H 262.227 -3.69141 -3.75556 0
M  V30 2772 H 264.718 -2.92171 -2.39676 0
M  V30 2773 H 265.031 -6.35184 -4.40183 0
M  V30 2774 H 263.376 -5.70842 -3.96439 0
M  V30 2775 H 266.567 -3.67194 -2.90321 0
M  V30 2776 H 266.74 -5.23597 -3.81772 0
M  V30 2777 N 260.146 1.09593 -1.13257 0
M  V30 2778 C 261.394 1.81375 -0.891492 0
M  V30 2779 C 261.715 1.86049 0.584009 0
M  V30 2780 O 260.985 1.34481 1.42449 0
M  V30 2781 H 259.565 0.671708 -0.326828 0
M  V30 2782 H 262.227 1.3256 -1.42877 0
M  V30 2783 H 261.323 2.84612 -1.28071 0
M  V30 2784 N 261.624 0.925811 1.2754 0
M  V30 2785 C 262.873 0.561084 1.93739 0
M  V30 2786 C 263.186 -0.901685 1.73577 0
M  V30 2787 O 264.392 -1.37511 2.34101 0
M  V30 2788 C 262.848 0.952668 3.47062 0
M  V30 2789 C 262.456 2.43599 3.75983 0
M  V30 2790 C 264.2 0.659103 4.19352 0
M  V30 2791 C 262.107 2.76707 5.22673 0
M  V30 2792 H 261.037 0.206122 0.725279 0
M  V30 2793 H 263.688 1.12637 1.44863 0
M  V30 2794 H 262.07 0.316053 3.94737 0
M  V30 2795 H 263.244 3.12035 3.39073 0
M  V30 2796 H 261.559 2.70125 3.16893 0
M  V30 2797 H 264.156 0.882985 5.27359 0
M  V30 2798 H 264.499 -0.403607 4.14339 0
M  V30 2799 H 265.032 1.25473 3.77494 0
M  V30 2800 H 261.771 3.8188 5.32774 0
M  V30 2801 H 261.291 2.12919 5.60737 0
M  V30 2802 H 262.97 2.6435 5.90532 0
M  V30 2803 N 263.102 -1.41638 0.69111 0
M  V30 2804 C 264.351 -2.00526 0.217318 0
M  V30 2805 C 264.664 -1.55353 -1.18848 0
M  V30 2806 O 265.87 -2.06769 -1.75951 0
M  V30 2807 C 264.326 -3.58313 0.337639 0
M  V30 2808 C 263.934 -4.12469 1.74852 0
M  V30 2809 C 265.678 -4.24431 -0.0766066 0
M  V30 2810 C 263.585 -5.62675 1.82074 0
M  V30 2811 H 262.515 -0.750008 0.0774893 0
M  V30 2812 H 265.166 -1.6217 0.858661 0
M  V30 2813 H 263.548 -3.9425 -0.371879 0
M  V30 2814 H 264.722 -3.8796 2.48644 0
M  V30 2815 H 263.037 -3.58861 2.11205 0
M  V30 2816 H 265.634 -5.34683 -0.0430284 0
M  V30 2817 H 265.977 -4.01101 -1.1146 0
M  V30 2818 H 266.51 -3.93512 0.582476 0
M  V30 2819 H 263.249 -5.90826 2.83911 0
M  V30 2820 H 262.769 -5.89124 1.12661 0
M  V30 2821 H 264.448 -6.27371 1.58159 0
M  V30 2822 N 264.58 -0.43555 -1.51462 0
M  V30 2823 C 265.808 0.130242 -2.0649 0
M  V30 2824 C 266.223 1.36614 -1.30315 0
M  V30 2825 O 265.58 1.78869 -0.362223 0
M  V30 2826 C 265.631 0.454253 -3.58635 0
M  V30 2827 O 265.352 -0.73259 -4.31931 0
M  V30 2828 C 266.853 1.07091 -4.3017 0
M  V30 2829 H 264.073 0.00871669 -0.670943 0
M  V30 2830 H 266.617 -0.614117 -1.95061 0
M  V30 2831 H 264.772 1.14851 -3.69984 0
M  V30 2832 H 265.186 -0.455787 -5.22516 0
M  V30 2833 H 266.66 1.24764 -5.37716 0
M  V30 2834 H 267.137 2.05144 -3.88346 0
M  V30 2835 H 267.743 0.416089 -4.2326 0
M  V30 2836 N 266.058 1.56714 -0.166846 0
M  V30 2837 C 266.968 2.21331 0.777791 0
M  V30 2838 C 267.984 1.20358 1.25658 0
M  V30 2839 O 269.16 1.53005 1.30964 0
M  V30 2840 C 266.225 2.83787 1.99163 0
M  V30 2841 C 265.286 3.99947 1.56016 0
M  V30 2842 C 264.519 4.59415 2.71613 0
M  V30 2843 O 264.742 4.17769 3.88362 0
M  V30 2844 O 263.676 5.49359 2.45945 0
M  V30 2845 H 267.502 3.02605 0.257636 0
M  V30 2846 H 265.087 1.49275 0.0611393 0
M  V30 2847 H 266.969 3.23405 2.70161 0
M  V30 2848 H 265.644 2.05513 2.50092 0
M  V30 2849 H 264.551 3.65007 0.819809 0
M  V30 2850 H 265.884 4.79801 1.09782 0
M  V30 2851 N 267.536 -0.106894 1.57237 0
M  V30 2852 C 268.785 -0.811163 1.8467 0
M  V30 2853 C 269.098 -1.80469 0.754342 0
M  V30 2854 O 270.304 -2.55601 0.915439 0
M  V30 2855 C 268.76 -1.49337 3.27454 0
M  V30 2856 C 268.368 -0.540217 4.44731 0
M  V30 2857 C 270.112 -2.18206 3.64124 0
M  V30 2858 C 268.019 -1.22634 5.78545 0
M  V30 2859 H 266.949 -0.306679 0.688813 0
M  V30 2860 H 269.6 -0.0639887 1.83388 0
M  V30 2861 H 267.982 -2.2876 3.23241 0
M  V30 2862 H 269.156 0.221659 4.60267 0
M  V30 2863 H 267.471 0.042146 4.16379 0
M  V30 2864 H 270.068 -2.70253 4.61376 0
M  V30 2865 H 270.411 -2.96562 2.92158 0
M  V30 2866 H 270.944 -1.45658 3.70174 0
M  V30 2867 H 267.683 -0.483832 6.53712 0
M  V30 2868 H 267.203 -1.95993 5.66874 0
M  V30 2869 H 268.882 -1.75615 6.2271 0
M  V30 2870 N 269.014 -1.53014 -0.377408 0
M  V30 2871 C 269.962 -1.7927 -1.48206 0
M  V30 2872 C 270.956 -0.661195 -1.55963 0
M  V30 2873 O 272.162 -0.843908 -1.58991 0
M  V30 2874 H 268.537 -0.567425 -0.493491 0
M  V30 2875 H 270.508 -2.71753 -1.2326 0
M  V30 2876 C 269.257 -1.98894 -2.85196 0
M  V30 2877 H 268.58 -2.85395 -2.79981 0
M  V30 2878 H 270.02 -2.21249 -3.61698 0
M  V30 2879 C 268.479 -0.764691 -3.28107 0
M  V30 2880 O 269.009 0.0523226 -4.01666 0
M  V30 2881 N 267.215 -0.591493 -2.84517 0
M  V30 2882 H 266.762 -1.25749 -2.24822 0
M  V30 2883 H 266.72 0.226253 -3.13585 0
M  V30 2884 N 270.492 0.636531 -1.44174 0
M  V30 2885 C 271.74 1.39343 -1.46383 0
M  V30 2886 C 272.061 1.94766 -0.0955715 0
M  V30 2887 O 271.331 1.75452 0.871395 0
M  V30 2888 H 269.911 0.517199 -0.538994 0
M  V30 2889 H 272.573 0.74957 -1.7991 0
M  V30 2890 H 271.669 2.22746 -2.18611 0
M  V30 2891 N 271.97 1.30982 0.876444 0
M  V30 2892 C 273.21 1.21589 1.64303 0
M  V30 2893 C 273.574 -0.223962 1.90689 0
M  V30 2894 O 274.775 -0.44128 2.65153 0
M  V30 2895 C 273.046 2.03007 2.94148 0
M  V30 2896 S 274.605 2.10405 3.85065 0
M  V30 2897 H 271.423 0.433161 0.563819 0
M  V30 2898 H 274.025 1.65565 1.03964 0
M  V30 2899 H 272.729 3.06719 2.72675 0
M  V30 2900 H 272.26 1.59725 3.59515 0
M  V30 2901 H 274.275 1.23765 4.80517 0
M  V30 2902 N 273.449 -1.08991 1.13837 0
M  V30 2903 C 274.698 -1.80631 0.897509 0
M  V30 2904 C 275.011 -1.86872 -0.57777 0
M  V30 2905 O 276.217 -2.54866 -0.935701 0
M  V30 2906 C 274.673 -3.24517 1.55618 0
M  V30 2907 C 274.281 -3.26529 3.0673 0
M  V30 2908 C 276.025 -4.00882 1.3962 0
M  V30 2909 C 273.932 -4.64965 3.65461 0
M  V30 2910 H 272.862 -0.67691 0.332129 0
M  V30 2911 H 275.513 -1.2246 1.3666 0
M  V30 2912 H 273.895 -3.82778 1.01476 0
M  V30 2913 H 275.069 -2.78008 3.67489 0
M  V30 2914 H 273.384 -2.63656 3.22296 0
M  V30 2915 H 275.981 -5.03167 1.80906 0
M  V30 2916 H 276.324 -4.14896 0.341578 0
M  V30 2917 H 276.857 -3.49075 1.90766 0
M  V30 2918 H 273.596 -4.56153 4.70749 0
M  V30 2919 H 273.116 -5.13792 3.09481 0
M  V30 2920 H 274.795 -5.3394 3.654 0
M  V30 2921 N 274.927 -0.932562 -1.27047 0
M  V30 2922 C 276.152 -0.591474 -1.98787 0
M  V30 2923 C 276.577 0.824601 -1.69062 0
M  V30 2924 O 275.935 1.5541 -0.933677 0
M  V30 2925 C 275.983 -0.829808 -3.50922 0
M  V30 2926 O 275.087 0.102266 -4.12273 0
M  V30 2927 H 274.428 -0.227185 -0.623926 0
M  V30 2928 H 276.958 -1.25314 -1.61733 0
M  V30 2929 H 276.968 -0.747292 -4.01098 0
M  V30 2930 H 275.643 -1.86201 -3.7189 0
M  V30 2931 H 274.22 -0.0305761 -3.72887 0
M  V30 2932 N 276.405 1.4127 -0.698611 0
M  V30 2933 C 277.633 2.05503 -0.239992 0
M  V30 2934 C 278.048 1.52584 1.11191 0
M  V30 2935 O 277.405 0.675323 1.69545 0
M  V30 2936 C 277.456 3.60987 -0.192429 0
M  V30 2937 O 277.177 4.1195 -1.49094 0
M  V30 2938 C 278.678 4.42371 0.28681 0
M  V30 2939 H 275.898 0.661748 -0.111045 0
M  V30 2940 H 278.442 1.80987 -0.95205 0
M  V30 2941 H 276.597 3.84533 0.470472 0
M  V30 2942 H 277.011 5.06018 -1.38007 0
M  V30 2943 H 278.485 5.51344 0.26896 0
M  V30 2944 H 278.962 4.18699 1.32619 0
M  V30 2945 H 279.568 4.23897 -0.345201 0
M  V30 2946 N 277.883 0.443576 1.51229 0
M  V30 2947 C 279.131 -0.120557 2.0174 0
M  V30 2948 C 279.452 -1.42665 1.32935 0
M  V30 2949 O 278.722 -1.9028 0.465866 0
M  V30 2950 H 277.302 -0.0475426 0.745486 0
M  V30 2951 H 279.964 0.587711 1.85828 0
M  V30 2952 H 279.06 -0.291972 3.10731 0
M  V30 2953 N 279.361 -1.56624 0.175154 0
M  V30 2954 C 280.308 -2.18149 -0.753634 0
M  V30 2955 C 281.278 -1.12265 -1.22417 0
M  V30 2956 O 282.463 -1.40432 -1.29165 0
M  V30 2957 C 279.603 -2.82933 -1.97592 0
M  V30 2958 C 278.716 -4.03289 -1.5486 0
M  V30 2959 C 277.851 -4.55988 -2.72485 0
M  V30 2960 C 276.89 -5.68746 -2.26262 0
M  V30 2961 N 276.027 -6.15938 -3.36994 0
M  V30 2962 H 280.867 -2.9717 -0.222195 0
M  V30 2963 H 278.404 -1.46774 -0.0979422 0
M  V30 2964 H 280.362 -3.18653 -2.69288 0
M  V30 2965 H 278.992 -2.06509 -2.481 0
M  V30 2966 H 278.044 -3.73364 -0.728246 0
M  V30 2967 H 279.356 -4.849 -1.16933 0
M  V30 2968 H 278.51 -4.9391 -3.52332 0
M  V30 2969 H 277.249 -3.73443 -3.13674 0
M  V30 2970 H 276.254 -5.30372 -1.44863 0
M  V30 2971 H 277.479 -6.53095 -1.86127 0
M  V30 2972 H 275.425 -5.36321 -3.77751 0
M  V30 2973 H 275.342 -6.92548 -3.03172 0
M  V30 2974 H 276.61 -6.58511 -4.17114 0
M  V30 2975 N 280.839 0.0985539 -1.57292 0
M  V30 2976 C 281.749 1.13824 -2.05137 0
M  V30 2977 C 282.765 1.44076 -0.975604 0
M  V30 2978 O 283.941 1.54786 -1.28853 0
M  V30 2979 C 281.006 2.43969 -2.46333 0
M  V30 2980 C 280.067 2.2093 -3.68087 0
M  V30 2981 C 279.3 3.44869 -4.0731 0
M  V30 2982 O 279.523 4.52972 -3.46659 0
M  V30 2983 O 278.457 3.34661 -5.00285 0
M  V30 2984 H 282.283 0.761881 -2.93988 0
M  V30 2985 H 279.868 0.310818 -1.46131 0
M  V30 2986 H 281.75 3.20609 -2.73473 0
M  V30 2987 H 280.425 2.81038 -1.60621 0
M  V30 2988 H 279.332 1.42081 -3.46069 0
M  V30 2989 H 280.665 1.88755 -4.54568 0
M  V30 2990 N 282.317 1.53212 0.369288 0
M  V30 2991 C 283.28 1.7872 1.43498 0
M  V30 2992 C 284.28 0.657554 1.46741 0
M  V30 2993 O 285.47 0.925736 1.47566 0
M  V30 2994 C 282.602 1.90591 2.82645 0
M  V30 2995 H 283.795 2.73894 1.22156 0
M  V30 2996 H 281.348 1.44233 0.602203 0
M  V30 2997 H 282.083 0.974709 3.09306 0
M  V30 2998 H 281.868 2.72751 2.8169 0
M  V30 2999 H 283.358 2.11931 3.59826 0
M  V30 3000 N 283.795 -0.628877 1.44509 0
M  V30 3001 C 284.743 -1.76193 1.51852 0
M  V30 3002 C 285.737 -1.64849 0.390042 0
M  V30 3003 O 286.943 -1.709 0.565082 0
M  V30 3004 H 283.318 -0.581728 0.476547 0
M  V30 3005 H 285.289 -1.67123 2.47209 0
M  V30 3006 C 284.038 -3.14533 1.48204 0
M  V30 3007 H 283.361 -3.23911 2.34354 0
M  V30 3008 H 284.801 -3.93701 1.57402 0
M  V30 3009 C 283.26 -3.36287 0.203142 0
M  V30 3010 O 283.79 -3.9509 -0.725745 0
M  V30 3011 N 281.996 -2.90408 0.105563 0
M  V30 3012 H 281.543 -2.42739 0.862301 0
M  V30 3013 H 281.501 -3.05339 -0.749371 0
M  V30 3014 N 285.273 -1.31445 -0.869486 0
M  V30 3015 C 286.519 -1.21337 -1.62496 0
M  V30 3016 C 286.852 0.227872 -1.92858 0
M  V30 3017 O 286.127 1.16094 -1.56053 0
M  V30 3018 C 286.41 -2.05814 -2.95487 0
M  V30 3019 C 286.263 -3.5824 -2.72 0
M  V30 3020 C 287.582 -1.9079 -3.96594 0
M  V30 3021 H 284.701 -0.442135 -0.589649 0
M  V30 3022 H 287.343 -1.6124 -1.00507 0
M  V30 3023 H 285.493 -1.71913 -3.48394 0
M  V30 3024 H 287.165 -4.0228 -2.25762 0
M  V30 3025 H 285.408 -3.81647 -2.06224 0
M  V30 3026 H 286.079 -4.12657 -3.66631 0
M  V30 3027 H 288.555 -2.20459 -3.52898 0
M  V30 3028 H 287.431 -2.52199 -4.87531 0
M  V30 3029 H 287.692 -0.871341 -4.33428 0
M  V30 3030 N 286.751 1.08385 -1.14413 0
M  V30 3031 C 287.981 1.8425 -0.934644 0
M  V30 3032 C 288.389 1.81907 0.520234 0
M  V30 3033 O 287.732 1.22126 1.37226 0
M  V30 3034 C 287.794 3.32853 -1.35828 0
M  V30 3035 C 287.458 3.5893 -2.82875 0
M  V30 3036 C 288.455 3.53756 -3.80989 0
M  V30 3037 C 286.14 3.86934 -3.20293 0
M  V30 3038 C 288.134 3.76216 -5.14529 0
M  V30 3039 C 285.821 4.09047 -4.54008 0
M  V30 3040 C 286.819 4.03682 -5.50936 0
M  V30 3041 O 286.507 4.25214 -6.82238 0
M  V30 3042 H 286.239 0.588502 -0.332628 0
M  V30 3043 H 288.793 1.37792 -1.52324 0
M  V30 3044 H 287.023 3.8007 -0.713019 0
M  V30 3045 H 288.712 3.90154 -1.11957 0
M  V30 3046 H 289.478 3.32135 -3.53428 0
M  V30 3047 H 285.357 3.9023 -2.45442 0
M  V30 3048 H 288.901 3.71943 -5.90173 0
M  V30 3049 H 284.798 4.30151 -4.8129 0
M  V30 3050 H 285.566 4.42619 -6.88499 0
M  V30 3051 N 288.23 0.939286 1.26551 0
M  V30 3052 C 289.18 0.418284 2.2413 0
M  V30 3053 C 290.164 -0.483935 1.5345 0
M  V30 3054 O 291.356 -0.319489 1.74093 0
M  V30 3055 C 288.485 -0.31709 3.41832 0
M  V30 3056 C 287.571 0.602311 4.19801 0
M  V30 3057 N 287.962 1.72726 4.75394 0
M  V30 3058 C 286.26 0.407534 4.44134 0
M  V30 3059 C 286.961 2.30004 5.34297 0
M  V30 3060 N 285.937 1.58828 5.1988 0
M  V30 3061 H 289.739 1.27705 2.64705 0
M  V30 3062 H 287.253 0.794929 1.41614 0
M  V30 3063 H 289.25 -0.707364 4.10855 0
M  V30 3064 H 287.91 -1.17264 3.02786 0
M  V30 3065 H 288.921 2.10944 4.72994 0
M  V30 3066 H 285.598 -0.406406 4.15517 0
M  V30 3067 H 286.988 3.24778 5.88191 0
M  V30 3068 N 289.708 -1.40897 0.706093 0
M  V30 3069 C 290.671 -2.29131 0.0562841 0
M  V30 3070 C 291.671 -1.44901 -0.697166 0
M  V30 3071 O 292.861 -1.65926 -0.530484 0
M  V30 3072 C 289.993 -3.27957 -0.93043 0
M  V30 3073 H 291.186 -2.88091 0.833284 0
M  V30 3074 H 288.739 -1.4906 0.470192 0
M  V30 3075 H 289.474 -2.73997 -1.73482 0
M  V30 3076 H 289.259 -3.90124 -0.393166 0
M  V30 3077 H 290.749 -3.94049 -1.38256 0
M  V30 3078 N 291.186 -0.45159 -1.50991 0
M  V30 3079 C 292.411 0.110667 -2.07105 0
M  V30 3080 C 292.836 1.3446 -1.31538 0
M  V30 3081 O 292.194 1.77743 -0.357365 0
M  V30 3082 C 292.242 0.397238 -3.58405 0
M  V30 3083 O 291.346 1.48124 -3.84881 0
M  V30 3084 H 290.687 -0.00439271 -0.663985 0
M  V30 3085 H 293.217 -0.637026 -1.9443 0
M  V30 3086 H 293.227 0.64351 -4.02893 0
M  V30 3087 H 291.902 -0.504553 -4.12828 0
M  V30 3088 H 290.479 1.22381 -3.52246 0
M  V30 3089 N 292.664 1.56529 -0.183458 0
M  V30 3090 C 293.892 2.01623 0.464285 0
M  V30 3091 C 294.307 1.06366 1.55986 0
M  V30 3092 O 293.664 0.0665398 1.82379 0
M  V30 3093 C 293.715 3.46475 1.03139 0
M  V30 3094 O 293.436 4.38095 -0.0204675 0
M  V30 3095 C 294.937 4.0703 1.75617 0
M  V30 3096 H 292.157 0.660596 0.117704 0
M  V30 3097 H 294.701 2.02451 -0.288751 0
M  V30 3098 H 292.856 3.46383 1.73486 0
M  V30 3099 H 293.27 5.22973 0.399952 0
M  V30 3100 H 294.744 5.10271 2.10542 0
M  V30 3101 H 295.221 3.49819 2.65563 0
M  V30 3102 H 295.827 4.1086 1.09882 0
M  V30 3103 N 294.142 -0.090211 1.57342 0
M  V30 3104 C 295.105 -1.09335 2.01441 0
M  V30 3105 C 296.105 -1.32666 0.908641 0
M  V30 3106 O 297.295 -1.28697 1.174 0
M  V30 3107 C 294.427 -2.44136 2.3793 0
M  V30 3108 H 295.62 -0.713662 2.91285 0
M  V30 3109 H 293.173 -0.335404 1.52659 0
M  V30 3110 H 293.908 -2.86972 1.51055 0
M  V30 3111 H 293.693 -2.28548 3.18603 0
M  V30 3112 H 295.183 -3.16277 2.72688 0
M  V30 3113 N 295.62 -1.53406 -0.361157 0
M  V30 3114 C 296.568 -1.80832 -1.46296 0
M  V30 3115 C 297.562 -0.677699 -1.55253 0
M  V30 3116 O 298.768 -0.860723 -1.58087 0
M  V30 3117 H 295.143 -0.572627 -0.487445 0
M  V30 3118 H 297.114 -2.73045 -1.20371 0
M  V30 3119 C 295.863 -2.01907 -2.8307 0
M  V30 3120 H 295.186 -2.88349 -2.76938 0
M  V30 3121 H 296.626 -2.25072 -3.59331 0
M  V30 3122 C 295.085 -0.799449 -3.27277 0
M  V30 3123 O 295.615 0.00971761 -4.01699 0
M  V30 3124 N 293.821 -0.621637 -2.83873 0
M  V30 3125 H 293.368 -1.28126 -2.23476 0
M  V30 3126 H 293.326 0.19298 -3.13807 0
M  V30 3127 N 297.098 0.621204 -1.44841 0
M  V30 3128 C 298.346 1.37783 -1.47852 0
M  V30 3129 C 298.667 1.94653 -0.116224 0
M  V30 3130 O 297.937 1.76367 0.852737 0
M  V30 3131 H 296.517 0.511453 -0.544449 0
M  V30 3132 H 299.179 0.730446 -1.80694 0
M  V30 3133 H 298.275 2.20414 -2.20961 0
M  V30 3134 N 298.576 1.31904 0.862503 0
M  V30 3135 C 299.486 1.22161 2.00285 0
M  V30 3136 C 300.502 0.136785 1.73462 0
M  V30 3137 O 301.678 0.355994 1.98229 0
M  V30 3138 C 298.743 0.937093 3.33796 0
M  V30 3139 C 297.804 2.10957 3.73893 0
M  V30 3140 C 297.037 1.83853 5.01033 0
M  V30 3141 O 297.26 0.777274 5.65079 0
M  V30 3142 O 296.194 2.69741 5.38074 0
M  V30 3143 H 300.02 2.18008 2.11439 0
M  V30 3144 H 297.605 1.11716 0.991957 0
M  V30 3145 H 299.487 0.794583 4.13841 0
M  V30 3146 H 298.162 0.00871894 3.23699 0
M  V30 3147 H 297.069 2.30752 2.94456 0
M  V30 3148 H 298.402 3.02046 3.88625 0
M  V30 3149 N 300.054 -1.07777 1.14986 0
M  V30 3150 C 301.279 -1.84558 0.946213 0
M  V30 3151 C 301.704 -1.81323 -0.500362 0
M  V30 3152 O 301.062 -1.20301 -1.35637 0
M  V30 3153 C 301.11 -3.29736 1.45968 0
M  V30 3154 O 300.214 -4.07149 0.65601 0
M  V30 3155 H 299.555 -0.571641 0.33782 0
M  V30 3156 H 302.085 -1.35991 1.52865 0
M  V30 3157 H 302.095 -3.80574 1.47063 0
M  V30 3158 H 300.77 -3.31406 2.51283 0
M  V30 3159 H 299.347 -3.65994 0.714322 0
M  V30 3160 N 301.532 -0.945985 -1.26051 0
M  V30 3161 C 302.948 -0.649045 -1.45807 0
M  V30 3162 C 303.148 0.796158 -1.85104 0
M  V30 3163 O 302.204 1.57233 -1.97571 0
M  V30 3164 C 303.517 -1.61458 -2.53677 0
M  V30 3165 C 305.065 -1.62481 -2.67524 0
M  V30 3166 C 305.54 -2.57776 -3.7857 0
M  V30 3167 N 307.031 -2.5609 -3.85969 0
M  V30 3168 C 307.766 -3.26508 -4.7136 0
M  V30 3169 N 307.262 -4.0637 -5.61102 0
M  V30 3170 N 309.055 -3.15437 -4.65248 0
M  V30 3171 H 301.206 -1.88005 -0.988328 0
M  V30 3172 H 303.469 -0.808198 -0.4955 0
M  V30 3173 H 303.175 -2.64644 -2.31638 0
M  V30 3174 H 303.049 -1.37036 -3.51427 0
M  V30 3175 H 305.436 -0.600167 -2.88933 0
M  V30 3176 H 305.517 -1.90958 -1.70202 0
M  V30 3177 H 305.161 -3.60361 -3.57913 0
M  V30 3178 H 305.091 -2.26587 -4.75359 0
M  V30 3179 H 307.582 -1.98105 -3.21812 0
M  V30 3180 H 307.895 -4.57042 -6.23164 0
M  V30 3181 H 306.24 -4.10469 -5.60839 0
M  V30 3182 H 309.431 -2.52525 -3.94143 0
M  V30 3183 H 309.604 -3.70584 -5.31575 0
M  V30 3184 N 303.011 1.40521 -0.713556 0
M  V30 3185 C 303.974 2.29098 -0.0684347 0
M  V30 3186 C 304.974 1.45268 0.689472 0
M  V30 3187 O 306.164 1.66205 0.521677 0
M  V30 3188 C 303.296 3.28446 0.913024 0
M  V30 3189 H 304.489 2.87645 -0.84855 0
M  V30 3190 H 302.042 1.48809 -0.47809 0
M  V30 3191 H 302.777 2.74913 1.72027 0
M  V30 3192 H 302.562 3.90327 0.372472 0
M  V30 3193 H 304.052 3.94777 1.36165 0
M  V30 3194 N 304.489 0.459591 1.5075 0
M  V30 3195 C 305.738 -0.100971 2.01447 0
M  V30 3196 C 306.051 -1.41816 1.34713 0
M  V30 3197 O 307.257 -2.06299 1.76502 0
M  V30 3198 C 305.713 -0.23047 3.59161 0
M  V30 3199 C 305.321 1.0776 4.34847 0
M  V30 3200 C 307.065 -0.743608 4.17936 0
M  V30 3201 C 304.972 0.91253 5.84317 0
M  V30 3202 H 303.902 -0.0415102 0.752856 0
M  V30 3203 H 306.553 0.592742 1.73663 0
M  V30 3204 H 304.935 -0.987703 3.83485 0
M  V30 3205 H 306.109 1.8449 4.22256 0
M  V30 3206 H 304.424 1.52097 3.87628 0
M  V30 3207 H 307.021 -0.883959 5.27343 0
M  V30 3208 H 307.364 -1.73196 3.78562 0
M  V30 3209 H 307.897 -0.04408 3.97776 0
M  V30 3210 H 304.636 1.87391 6.28144 0
M  V30 3211 H 304.156 0.185422 5.99513 0
M  V30 3212 H 305.835 0.574547 6.44444 0
M  V30 3213 N 305.967 -1.56429 0.191757 0
M  V30 3214 C 306.914 -2.18936 -0.730454 0
M  V30 3215 C 307.884 -1.13557 -1.21219 0
M  V30 3216 O 309.069 -1.41794 -1.27668 0
M  V30 3217 C 306.209 -2.85013 -1.9458 0
M  V30 3218 C 305.322 -4.04909 -1.50574 0
M  V30 3219 C 304.457 -4.58853 -2.67634 0
M  V30 3220 C 303.496 -5.71114 -2.20217 0
M  V30 3221 N 302.633 -6.19478 -3.30442 0
M  V30 3222 H 307.473 -2.97389 -0.190664 0
M  V30 3223 H 305.01 -1.46869 -0.0823694 0
M  V30 3224 H 306.968 -3.21492 -2.65893 0
M  V30 3225 H 305.598 -2.09129 -2.45896 0
M  V30 3226 H 304.65 -3.74115 -0.688605 0
M  V30 3227 H 305.962 -4.86113 -1.11784 0
M  V30 3228 H 305.116 -4.97619 -3.47074 0
M  V30 3229 H 303.855 -3.76749 -3.09696 0
M  V30 3230 H 302.86 -5.31879 -1.3923 0
M  V30 3231 H 304.085 -6.55033 -1.79189 0
M  V30 3232 H 302.031 -5.40297 -3.72041 0
M  V30 3233 H 301.948 -6.95725 -2.9581 0
M  V30 3234 H 303.216 -6.62898 -4.10106 0
M  V30 3235 N 307.445 0.0818655 -1.57387 0
M  V30 3236 C 308.694 0.781681 -1.85937 0
M  V30 3237 C 309.007 1.79246 -0.782957 0
M  V30 3238 O 310.213 2.54112 -0.955987 0
M  V30 3239 C 308.669 1.44109 -3.29789 0
M  V30 3240 C 308.277 0.469396 -4.45534 0
M  V30 3241 C 310.021 2.12386 -3.67549 0
M  V30 3242 C 307.928 1.13415 -5.80423 0
M  V30 3243 H 306.858 0.295682 -0.693605 0
M  V30 3244 H 309.509 0.0348051 -1.83467 0
M  V30 3245 H 307.891 2.23588 -3.2684 0
M  V30 3246 H 309.065 -0.294856 -4.59856 0
M  V30 3247 H 307.38 -0.108383 -4.16259 0
M  V30 3248 H 309.977 2.62878 -4.65617 0
M  V30 3249 H 310.32 2.91877 -2.96839 0
M  V30 3250 H 310.853 1.39751 -3.72444 0
M  V30 3251 H 307.592 0.379771 -6.54399 0
M  V30 3252 H 307.112 1.8695 -5.69921 0
M  V30 3253 H 308.791 1.65686 -6.25426 0
M  V30 3254 N 308.923 1.53595 0.353017 0
M  V30 3255 C 310.153 1.74058 1.11299 0
M  V30 3256 C 310.561 0.475205 1.83135 0
M  V30 3257 O 309.904 -0.562344 1.74881 0
M  V30 3258 C 309.966 2.85994 2.17825 0
M  V30 3259 C 309.63 4.25923 1.65647 0
M  V30 3260 C 310.627 5.07829 1.11383 0
M  V30 3261 C 308.312 4.72377 1.7078 0
M  V30 3262 C 310.306 6.34285 0.629439 0
M  V30 3263 C 307.993 5.98808 1.21953 0
M  V30 3264 C 308.991 6.79594 0.681265 0
M  V30 3265 O 308.679 8.03651 0.200248 0
M  V30 3266 H 308.411 0.585327 0.338183 0
M  V30 3267 H 310.965 2.01186 0.413927 0
M  V30 3268 H 309.195 2.54368 2.91262 0
M  V30 3269 H 310.884 2.94515 2.79313 0
M  V30 3270 H 311.65 4.73107 1.06746 0
M  V30 3271 H 307.529 4.0956 2.11617 0
M  V30 3272 H 311.073 6.97288 0.208636 0
M  V30 3273 H 306.97 6.33026 1.26287 0
M  V30 3274 H 307.738 8.1788 0.318416 0
M  V30 3275 N 310.401 -0.613514 1.45168 0
M  V30 3276 C 311.348 -1.72456 1.53387 0
M  V30 3277 C 312.318 -1.6169 0.380191 0
M  V30 3278 O 313.503 -1.81356 0.592836 0
M  V30 3279 C 310.643 -3.10753 1.50088 0
M  V30 3280 C 309.756 -3.32368 2.75963 0
M  V30 3281 C 308.891 -4.60737 2.64376 0
M  V30 3282 C 307.93 -4.7559 3.85332 0
M  V30 3283 N 307.067 -5.95253 3.72315 0
M  V30 3284 H 311.907 -1.64768 2.48305 0
M  V30 3285 H 309.444 -0.803503 1.23216 0
M  V30 3286 H 311.402 -3.90758 1.46164 0
M  V30 3287 H 310.032 -3.17413 0.587243 0
M  V30 3288 H 309.084 -2.4618 2.89999 0
M  V30 3289 H 310.396 -3.39218 3.65695 0
M  V30 3290 H 309.55 -5.48928 2.58385 0
M  V30 3291 H 308.289 -4.56275 1.72233 0
M  V30 3292 H 307.294 -3.85824 3.91688 0
M  V30 3293 H 308.519 -4.81854 4.78533 0
M  V30 3294 H 306.465 -5.91847 2.82937 0
M  V30 3295 H 306.382 -6.03236 4.55677 0
M  V30 3296 H 307.65 -6.85958 3.70246 0
M  V30 3297 N 311.879 -1.3236 -0.855495 0
M  V30 3298 C 313.107 -1.2587 -1.64208 0
M  V30 3299 C 313.522 0.173457 -1.88002 0
M  V30 3300 O 312.879 1.11027 -1.44842 0
M  V30 3301 C 312.93 -2.01424 -3.00184 0
M  V30 3302 O 312.651 -3.39051 -2.77445 0
M  V30 3303 C 314.152 -2.01948 -3.94629 0
M  V30 3304 H 311.372 -0.434318 -0.511477 0
M  V30 3305 H 313.916 -1.74469 -1.0668 0
M  V30 3306 H 312.071 -1.56549 -3.5436 0
M  V30 3307 H 312.485 -3.77711 -3.63916 0
M  V30 3308 H 313.959 -2.59297 -4.87308 0
M  V30 3309 H 314.436 -1.00554 -4.27534 0
M  V30 3310 H 315.042 -2.46767 -3.4639 0
M  V30 3311 N 313.357 1.07166 -1.15556 0
M  V30 3312 C 314.582 1.84053 -0.955988 0
M  V30 3313 C 315.007 1.81586 0.490739 0
M  V30 3314 O 314.365 1.21018 1.34997 0
M  V30 3315 C 314.413 3.28957 -1.47714 0
M  V30 3316 O 313.517 4.06795 -0.677593 0
M  V30 3317 H 312.858 0.569842 -0.340847 0
M  V30 3318 H 315.388 1.35178 -1.53584 0
M  V30 3319 H 315.398 3.79788 -1.4908 0
M  V30 3320 H 314.073 3.30068 -2.53037 0
M  V30 3321 H 312.65 3.6561 -0.733721 0
M  V30 3322 N 314.835 0.952656 1.25548 0
M  V30 3323 C 316.084 0.602053 1.92505 0
M  V30 3324 C 316.397 -0.864663 1.75451 0
M  V30 3325 O 317.603 -1.32514 2.36965 0
M  V30 3326 C 316.059 1.02607 3.44963 0
M  V30 3327 C 315.667 2.51519 3.70732 0
M  V30 3328 C 317.411 0.747905 4.1786 0
M  V30 3329 C 315.318 2.87732 5.16686 0
M  V30 3330 H 314.248 0.22146 0.720744 0
M  V30 3331 H 316.899 1.15684 1.42441 0
M  V30 3332 H 315.281 0.399712 3.93978 0
M  V30 3333 H 316.455 3.19157 3.32378 0
M  V30 3334 H 314.77 2.76786 3.11092 0
M  V30 3335 H 317.367 0.994647 5.25367 0
M  V30 3336 H 317.71 -0.315629 4.15102 0
M  V30 3337 H 318.243 1.33452 3.74747 0
M  V30 3338 H 314.982 3.93095 5.24554 0
M  V30 3339 H 314.502 2.24765 5.56094 0
M  V30 3340 H 316.181 2.76817 5.84792 0
M  V30 3341 N 316.313 -1.40141 0.720998 0
M  V30 3342 C 317.243 -2.33339 0.0867621 0
M  V30 3343 C 318.224 -1.53178 -0.739622 0
M  V30 3344 O 319.409 -1.81625 -0.687449 0
M  V30 3345 C 316.539 -3.37194 -0.831728 0
M  V30 3346 C 315.493 -4.27857 -0.110558 0
M  V30 3347 C 314.819 -5.22294 -1.14513 0
M  V30 3348 C 316.119 -5.11872 1.0385 0
M  V30 3349 H 317.813 -2.86626 0.865219 0
M  V30 3350 H 315.359 -1.37814 0.417516 0
M  V30 3351 H 317.312 -4.01335 -1.28485 0
M  V30 3352 H 316.036 -2.82314 -1.64214 0
M  V30 3353 H 314.695 -3.65176 0.322797 0
M  V30 3354 H 314.343 -4.63717 -1.94874 0
M  V30 3355 H 314.043 -5.83797 -0.667446 0
M  V30 3356 H 315.567 -5.89312 -1.59824 0
M  V30 3357 H 316.981 -5.69436 0.664482 0
M  V30 3358 H 315.378 -5.82445 1.4449 0
M  V30 3359 H 316.448 -4.4753 1.86668 0
M  V30 3360 N 317.792 -0.46758 -1.50504 0
M  V30 3361 C 319.038 0.0887532 -2.02606 0
M  V30 3362 C 319.371 1.39686 -1.34913 0
M  V30 3363 O 318.646 1.88644 -0.473694 0
M  V30 3364 C 318.929 0.276206 -3.59039 0
M  V30 3365 C 318.782 -1.05267 -4.37309 0
M  V30 3366 C 320.101 1.03235 -4.27821 0
M  V30 3367 H 317.22 0.0307814 -0.736357 0
M  V30 3368 H 319.862 -0.612485 -1.79857 0
M  V30 3369 H 318.012 0.8735 -3.78553 0
M  V30 3370 H 319.684 -1.68628 -4.29374 0
M  V30 3371 H 317.927 -1.65015 -4.01189 0
M  V30 3372 H 318.598 -0.875197 -5.45018 0
M  V30 3373 H 321.074 0.526111 -4.12761 0
M  V30 3374 H 319.95 1.1323 -5.37094 0
M  V30 3375 H 320.211 2.06806 -3.90748 0
M  V30 3376 N 319.27 1.56325 -0.20005 0
M  V30 3377 C 320.517 1.97719 0.437411 0
M  V30 3378 C 320.845 1.08709 1.61284 0
M  V30 3379 O 320.1 0.127261 1.95286 0
M  V30 3380 C 320.399 3.4495 0.935103 0
M  V30 3381 C 320.065 4.5072 -0.12749 0
M  V30 3382 C 318.727 4.79368 -0.419451 0
M  V30 3383 C 321.079 5.14268 -0.847231 0
M  V30 3384 C 318.407 5.68854 -1.43604 0
M  V30 3385 C 320.759 6.04852 -1.85301 0
M  V30 3386 C 319.423 6.31855 -2.15211 0
M  V30 3387 H 318.693 0.723507 0.16006 0
M  V30 3388 H 321.34 1.89166 -0.298056 0
M  V30 3389 H 319.645 3.50599 1.74894 0
M  V30 3390 H 321.342 3.74337 1.43781 0
M  V30 3391 H 317.932 4.28458 0.11023 0
M  V30 3392 H 322.116 4.92222 -0.634901 0
M  V30 3393 H 317.372 5.88047 -1.67364 0
M  V30 3394 H 321.546 6.53152 -2.41591 0
M  V30 3395 H 319.173 7.00994 -2.94129 0
M  V30 3396 N 320.748 -0.0735177 1.57428 0
M  V30 3397 C 321.695 -1.08756 2.0357 0
M  V30 3398 C 322.665 -1.38559 0.916 0
M  V30 3399 O 323.85 -1.49656 1.18354 0
M  V30 3400 C 320.99 -2.39657 2.48311 0
M  V30 3401 C 320.103 -2.16399 3.73892 0
M  V30 3402 C 319.238 -3.40852 4.07423 0
M  V30 3403 C 318.277 -3.1295 5.2605 0
M  V30 3404 N 317.414 -4.29729 5.55228 0
M  V30 3405 H 322.254 -0.687104 2.8997 0
M  V30 3406 H 319.791 -0.327709 1.43403 0
M  V30 3407 H 321.749 -3.16081 2.72303 0
M  V30 3408 H 320.379 -2.77508 1.64891 0
M  V30 3409 H 319.431 -1.30676 3.57251 0
M  V30 3410 H 320.743 -1.91788 4.60455 0
M  V30 3411 H 319.897 -4.25671 4.32306 0
M  V30 3412 H 318.636 -3.68537 3.19425 0
M  V30 3413 H 317.641 -2.26526 5.00965 0
M  V30 3414 H 318.866 -2.86589 6.15665 0
M  V30 3415 H 316.812 -4.57448 4.70188 0
M  V30 3416 H 316.729 -4.08385 6.36206 0
M  V30 3417 H 317.997 -5.1555 5.84661 0
M  V30 3418 N 322.226 -1.5378 -0.344866 0
M  V30 3419 C 323.503 -1.61589 -1.10219 0
M  V30 3420 C 323.883 -0.436316 -2.06542 0
M  V30 3421 O 323.231 0.571543 -2.21237 0
M  V30 3422 C 323.441 -2.97602 -1.82301 0
M  V30 3423 C 324.789 -3.5291 -2.36093 0
M  V30 3424 O 325.813 -2.99768 -1.924 0
M  V30 3425 O 324.672 -4.45859 -3.16026 0
M  V30 3426 H 321.766 -0.653522 -0.506792 0
M  V30 3427 H 324.312 -1.66126 -0.346465 0
M  V30 3428 H 323.084 -3.74893 -1.12121 0
M  V30 3429 H 322.707 -2.9665 -2.64735 0
M  V30 3430 N 323.704 0.605807 -1.45491 0
M  V30 3431 C 325.12 0.926751 -1.29936 0
M  V30 3432 C 325.32 1.99896 -0.253706 0
M  V30 3433 O 324.376 2.50038 0.351737 0
M  V30 3434 C 325.689 1.36599 -2.67883 0
M  V30 3435 C 327.237 1.4801 -2.75793 0
M  V30 3436 C 327.712 1.95309 -4.14268 0
M  V30 3437 N 329.203 2.0254 -4.16571 0
M  V30 3438 C 329.938 2.40363 -5.20589 0
M  V30 3439 N 329.434 2.77143 -6.34952 0
M  V30 3440 N 331.227 2.40718 -5.07948 0
M  V30 3441 H 323.378 -0.102862 -2.12151 0
M  V30 3442 H 325.641 0.016639 -0.947854 0
M  V30 3443 H 325.347 0.652306 -3.45598 0
M  V30 3444 H 325.221 2.33215 -2.96463 0
M  V30 3445 H 327.608 2.1847 -1.98381 0
M  V30 3446 H 327.689 0.497041 -2.50925 0
M  V30 3447 H 327.333 1.25436 -4.92167 0
M  V30 3448 H 327.263 2.94532 -4.3653 0
M  V30 3449 H 329.754 1.76699 -3.34045 0
M  V30 3450 H 330.067 3.0489 -7.10114 0
M  V30 3451 H 328.412 2.74834 -6.3835 0
M  V30 3452 H 331.603 2.11392 -4.1765 0
M  V30 3453 H 331.776 2.69869 -5.89131 0
M  V30 3454 N 325.182 1.32811 0.848464 0
M  V30 3455 C 326.459 1.14334 1.58704 0
M  V30 3456 C 326.839 -0.293948 2.09043 0
M  V30 3457 O 326.187 -1.29153 1.88499 0
M  V30 3458 C 326.397 2.17626 2.72837 0
M  V30 3459 C 327.745 2.51282 3.42261 0
M  V30 3460 O 328.769 2.16219 2.83068 0
M  V30 3461 O 327.628 3.11413 4.49093 0
M  V30 3462 H 324.722 0.441601 0.699226 0
M  V30 3463 H 327.268 1.44362 0.892053 0
M  V30 3464 H 326.04 3.14211 2.3321 0
M  V30 3465 H 325.663 1.88628 3.50008 0
M  V30 3466 N 326.66 -1.06551 1.16123 0
M  V30 3467 C 327.607 -2.13961 0.865414 0
M  V30 3468 C 328.577 -1.65066 -0.185055 0
M  V30 3469 O 329.762 -1.90732 -0.05083 0
M  V30 3470 C 326.902 -3.43113 0.369776 0
M  V30 3471 C 326.015 -4.05756 1.48276 0
M  V30 3472 C 325.15 -5.22773 0.942414 0
M  V30 3473 C 324.189 -5.77395 2.03179 0
M  V30 3474 N 323.326 -6.85731 1.50721 0
M  V30 3475 H 328.166 -2.38605 1.78527 0
M  V30 3476 H 325.703 -1.17072 0.890646 0
M  V30 3477 H 327.661 -4.17151 0.0640643 0
M  V30 3478 H 326.291 -3.18695 -0.513143 0
M  V30 3479 H 325.343 -3.29292 1.9045 0
M  V30 3480 H 326.655 -4.42351 2.30493 0
M  V30 3481 H 325.809 -6.03827 0.589729 0
M  V30 3482 H 324.548 -4.87618 0.0895191 0
M  V30 3483 H 323.553 -4.94981 2.3932 0
M  V30 3484 H 324.778 -6.14603 2.8886 0
M  V30 3485 H 322.724 -6.52499 0.676811 0
M  V30 3486 H 322.641 -7.21254 2.26557 0
M  V30 3487 H 323.909 -7.7047 1.18303 0
M  V30 3488 N 328.138 -0.959301 -1.25041 0
M  V30 3489 C 329.368 -0.63303 -1.96663 0
M  V30 3490 C 329.776 0.800031 -1.71453 0
M  V30 3491 O 329.119 1.54736 -0.99008 0
M  V30 3492 C 329.181 -0.817523 -3.50081 0
M  V30 3493 C 328.845 -2.22863 -3.98975 0
M  V30 3494 C 329.842 -3.20569 -4.09306 0
M  V30 3495 C 327.527 -2.55407 -4.32519 0
M  V30 3496 C 329.521 -4.4891 -4.52503 0
M  V30 3497 C 327.208 -3.83976 -4.754 0
M  V30 3498 C 328.206 -4.8054 -4.85356 0
M  V30 3499 O 327.894 -6.06817 -5.27284 0
M  V30 3500 H 327.626 -0.235866 -0.633516 0
M  V30 3501 H 330.18 -1.2874 -1.60047 0
M  V30 3502 H 328.41 -0.105992 -3.86555 0
M  V30 3503 H 330.099 -0.491604 -4.02912 0
M  V30 3504 H 330.865 -2.96753 -3.83618 0
M  V30 3505 H 326.744 -1.8097 -4.23994 0
M  V30 3506 H 330.288 -5.24283 -4.60188 0
M  V30 3507 H 326.185 -4.07596 -5.00535 0
M  V30 3508 H 326.953 -6.10262 -5.45457 0
M  V30 3509 N 329.616 1.39756 -0.72842 0
M  V30 3510 C 330.862 2.00942 -0.273892 0
M  V30 3511 C 331.195 1.57656 1.13394 0
M  V30 3512 O 330.47 0.802434 1.77176 0
M  V30 3513 C 330.753 3.58211 -0.368346 0
M  V30 3514 C 330.606 4.11534 -1.81548 0
M  V30 3515 C 331.925 4.39372 0.253054 0
M  V30 3516 H 329.044 0.730047 -0.100996 0
M  V30 3517 H 331.686 1.66056 -0.923337 0
M  V30 3518 H 329.836 3.88061 0.184588 0
M  V30 3519 H 331.508 3.92431 -2.42478 0
M  V30 3520 H 329.751 3.65341 -2.33898 0
M  V30 3521 H 330.422 5.20682 -1.83288 0
M  V30 3522 H 332.898 4.15527 -0.218224 0
M  V30 3523 H 331.774 5.48677 0.156585 0
M  V30 3524 H 332.035 4.21358 1.33826 0
M  V30 3525 N 331.094 0.475555 1.50254 0
M  V30 3526 C 332.319 -0.0777042 2.07254 0
M  V30 3527 C 332.744 -1.3235 1.3366 0
M  V30 3528 O 332.102 -1.77152 0.385597 0
M  V30 3529 C 332.15 -0.340169 3.58992 0
M  V30 3530 O 331.254 -1.41982 3.87188 0
M  V30 3531 H 330.595 0.0149556 0.663832 0
M  V30 3532 H 333.125 0.667878 1.93392 0
M  V30 3533 H 333.135 -0.579332 4.03866 0
M  V30 3534 H 331.81 0.570167 4.11973 0
M  V30 3535 H 330.387 -1.16762 3.54148 0
M  V30 3536 N 332.573 -1.56217 0.208337 0
M  V30 3537 C 333.821 -1.97558 -0.426076 0
M  V30 3538 C 334.142 -1.09683 -1.61229 0
M  V30 3539 O 333.412 -0.170956 -1.95153 0
M  V30 3540 H 331.992 -0.729575 -0.160405 0
M  V30 3541 H 334.654 -1.92606 0.298155 0
M  V30 3542 H 333.75 -3.02672 -0.761312 0
M  V30 3543 N 334.051 0.0651679 -1.57465 0
M  V30 3544 C 334.961 1.09448 -2.07505 0
M  V30 3545 C 335.977 1.41974 -1.00595 0
M  V30 3546 O 337.153 1.52018 -1.32107 0
M  V30 3547 C 334.218 2.38689 -2.51453 0
M  V30 3548 C 333.279 2.13073 -3.72691 0
M  V30 3549 C 332.512 3.36152 -4.14533 0
M  V30 3550 O 332.735 4.45517 -3.56189 0
M  V30 3551 O 331.669 3.23974 -5.07272 0
M  V30 3552 H 335.495 0.69935 -2.95538 0
M  V30 3553 H 333.08 0.279752 -1.46757 0
M  V30 3554 H 334.962 3.14736 -2.80212 0
M  V30 3555 H 333.637 2.77568 -1.66546 0
M  V30 3556 H 332.544 1.34709 -3.49005 0
M  V30 3557 H 333.877 1.79071 -4.5847 0
M  V30 3558 N 335.529 1.53961 0.336706 0
M  V30 3559 C 336.776 1.71536 1.07618 0
M  V30 3560 C 337.104 0.482125 1.8843 0
M  V30 3561 O 336.359 -0.536142 1.88213 0
M  V30 3562 C 336.658 2.93493 2.03953 0
M  V30 3563 C 336.324 4.28811 1.39399 0
M  V30 3564 C 334.986 4.65602 1.21523 0
M  V30 3565 C 337.338 5.12844 0.929541 0
M  V30 3566 C 334.666 5.84037 0.558312 0
M  V30 3567 C 337.018 6.31951 0.286505 0
M  V30 3568 C 335.682 6.67432 0.0954869 0
M  V30 3569 H 334.952 0.627696 0.393801 0
M  V30 3570 H 337.599 1.88186 0.354715 0
M  V30 3571 H 335.904 2.71475 2.82504 0
M  V30 3572 H 337.601 3.04285 2.61174 0
M  V30 3573 H 334.191 3.99858 1.54311 0
M  V30 3574 H 338.375 4.84947 1.05548 0
M  V30 3575 H 333.631 6.10097 0.398995 0
M  V30 3576 H 337.805 6.96352 -0.0814376 0
M  V30 3577 H 335.432 7.59063 -0.415579 0
M  V30 3578 N 337.007 -0.598083 1.45811 0
M  V30 3579 C 338.423 -0.919847 1.30426 0
M  V30 3580 C 338.623 -1.99759 0.264303 0
M  V30 3581 O 337.679 -2.50221 -0.338472 0
M  V30 3582 C 338.992 -1.35176 2.68603 0
M  V30 3583 C 340.54 -1.46546 2.76574 0
M  V30 3584 C 341.015 -1.9311 4.15298 0
M  V30 3585 N 342.506 -2.00328 4.1764 0
M  V30 3586 C 343.241 -2.37599 5.21856 0
M  V30 3587 N 342.737 -2.73771 6.36413 0
M  V30 3588 N 344.53 -2.38021 5.09218 0
M  V30 3589 H 336.681 0.114111 2.12093 0
M  V30 3590 H 338.944 -0.0116121 0.947929 0
M  V30 3591 H 338.65 -0.633969 3.45939 0
M  V30 3592 H 338.524 -2.3164 2.97696 0
M  V30 3593 H 340.911 -2.17415 1.99537 0
M  V30 3594 H 340.992 -0.483727 2.51185 0
M  V30 3595 H 340.636 -1.22824 4.92825 0
M  V30 3596 H 340.566 -2.92213 4.38086 0
M  V30 3597 H 343.057 -1.74925 3.34977 0
M  V30 3598 H 343.37 -3.0112 7.11721 0
M  V30 3599 H 341.715 -2.71445 6.39799 0
M  V30 3600 H 344.906 -2.09174 4.18765 0
M  V30 3601 H 345.079 -2.66741 5.90554 0
M  V30 3602 N 338.485 -1.33259 -0.841409 0
M  V30 3603 C 339.732 -1.24572 -1.5965 0
M  V30 3604 C 340.06 0.189137 -1.93578 0
M  V30 3605 O 339.315 1.14566 -1.5866 0
M  V30 3606 C 339.614 -2.06381 -2.9179 0
M  V30 3607 C 339.28 -3.556 -2.77235 0
M  V30 3608 C 337.942 -3.96282 -2.72973 0
M  V30 3609 C 340.294 -4.50433 -2.62221 0
M  V30 3610 C 337.622 -5.30017 -2.51592 0
M  V30 3611 C 339.974 -5.84327 -2.42374 0
M  V30 3612 C 338.638 -6.24194 -2.36512 0
M  V30 3613 H 337.908 -0.455842 -0.5842 0
M  V30 3614 H 340.555 -1.6482 -0.975016 0
M  V30 3615 H 338.86 -1.58903 -3.5813 0
M  V30 3616 H 340.557 -1.97019 -3.49263 0
M  V30 3617 H 337.147 -3.23298 -2.81384 0
M  V30 3618 H 341.331 -4.19914 -2.64549 0
M  V30 3619 H 336.587 -5.59947 -2.45499 0
M  V30 3620 H 340.761 -6.57414 -2.29739 0
M  V30 3621 H 338.388 -7.27759 -2.19706 0
M  V30 3622 N 339.963 1.05934 -1.16686 0
M  V30 3623 C 341.379 1.30938 -0.912542 0
M  V30 3624 C 341.579 1.96803 0.432533 0
M  V30 3625 O 340.635 2.23693 1.17123 0
M  V30 3626 C 341.948 2.18649 -2.06429 0
M  V30 3627 C 343.496 2.32055 -2.10047 0
M  V30 3628 C 343.971 3.23122 -3.24586 0
M  V30 3629 N 345.462 3.30706 -3.24327 0
M  V30 3630 C 346.197 4.01273 -4.09594 0
M  V30 3631 N 345.693 4.74332 -5.04956 0
M  V30 3632 N 347.486 3.97361 -3.97569 0
M  V30 3633 H 339.637 0.615777 -2.03278 0
M  V30 3634 H 341.9 0.334077 -0.887185 0
M  V30 3635 H 341.606 1.77534 -3.03603 0
M  V30 3636 H 341.48 3.19252 -2.00894 0
M  V30 3637 H 343.867 2.72415 -1.13464 0
M  V30 3638 H 343.948 1.31107 -2.19647 0
M  V30 3639 H 343.592 2.83477 -4.2143 0
M  V30 3640 H 343.522 4.24057 -3.12223 0
M  V30 3641 H 346.013 2.78644 -2.55276 0
M  V30 3642 H 346.326 5.25716 -5.6643 0
M  V30 3643 H 344.671 4.733 -5.08933 0
M  V30 3644 H 347.862 3.39405 -3.22369 0
M  V30 3645 H 348.035 4.52089 -4.64241 0
M  V30 3646 N 341.441 0.965919 1.2453 0
M  V30 3647 C 342.391 0.465731 2.23193 0
M  V30 3648 C 343.375 -0.451277 1.54442 0
M  V30 3649 O 344.567 -0.282489 1.74731 0
M  V30 3650 C 341.696 -0.244511 3.42428 0
M  V30 3651 C 340.782 0.691222 4.18429 0
M  V30 3652 N 341.173 1.82771 4.71623 0
M  V30 3653 C 339.471 0.501649 4.4317 0
M  V30 3654 C 340.172 2.41285 5.29298 0
M  V30 3655 N 339.148 1.69819 5.16394 0
M  V30 3656 H 342.95 1.33291 2.61937 0
M  V30 3657 H 340.464 0.824789 1.39896 0
M  V30 3658 H 342.461 -0.620056 4.12263 0
M  V30 3659 H 341.121 -1.10815 3.05205 0
M  V30 3660 H 342.132 2.20929 4.68413 0
M  V30 3661 H 338.809 -0.318177 4.16286 0
M  V30 3662 H 340.199 3.37181 5.8117 0
M  V30 3663 N 342.919 -1.39368 0.735821 0
M  V30 3664 C 344.167 -2.00101 0.283562 0
M  V30 3665 C 344.488 -1.5868 -1.13338 0
M  V30 3666 O 343.758 -0.835423 -1.77193 0
M  V30 3667 H 342.338 -0.740024 0.101851 0
M  V30 3668 H 345 -1.70404 0.945962 0
M  V30 3669 H 344.096 -3.10323 0.332604 0
M  V30 3670 N 344.397 -0.483516 -1.5 0
M  V30 3671 C 345.627 0.0643896 -2.065 0
M  V30 3672 C 346.035 1.32949 -1.34615 0
M  V30 3673 O 345.378 1.79003 -0.412756 0
M  V30 3674 C 345.44 0.405983 -3.572 0
M  V30 3675 C 345.104 -0.758875 -4.50655 0
M  V30 3676 C 346.101 -1.64445 -4.93208 0
M  V30 3677 C 343.786 -0.952725 -4.93182 0
M  V30 3678 C 345.78 -2.70818 -5.77006 0
M  V30 3679 C 343.467 -2.01966 -5.76761 0
M  V30 3680 C 344.465 -2.89574 -6.18576 0
M  V30 3681 O 344.153 -3.94429 -7.00486 0
M  V30 3682 H 343.885 -0.00934786 -0.675935 0
M  V30 3683 H 346.439 -0.674959 -1.93993 0
M  V30 3684 H 344.669 1.19869 -3.67652 0
M  V30 3685 H 346.358 0.890433 -3.96013 0
M  V30 3686 H 347.124 -1.50643 -4.61012 0
M  V30 3687 H 343.003 -0.280247 -4.60147 0
M  V30 3688 H 346.547 -3.3923 -6.09565 0
M  V30 3689 H 342.444 -2.1577 -6.0837 0
M  V30 3690 H 343.212 -3.91568 -7.1876 0
M  V30 3691 N 345.875 1.56104 -0.216619 0
M  V30 3692 C 347.115 2.00074 0.418322 0
M  V30 3693 C 347.479 1.10098 1.57297 0
M  V30 3694 O 348.68 1.43393 2.27359 0
M  V30 3695 C 346.951 3.47231 0.846477 0
M  V30 3696 S 348.51 4.13223 1.47622 0
M  V30 3697 H 345.328 0.698457 0.132962 0
M  V30 3698 H 347.93 1.92784 -0.324748 0
M  V30 3699 H 346.634 4.104 -0.0036319 0
M  V30 3700 H 346.165 3.58384 1.62248 0
M  V30 3701 H 348.18 4.12005 2.76526 0
M  V30 3702 N 347.353 -0.0568162 1.57498 0
M  V30 3703 C 348.3 -1.06591 2.04712 0
M  V30 3704 C 349.27 -1.3758 0.930644 0
M  V30 3705 O 350.455 -1.48392 1.19935 0
M  V30 3706 C 347.595 -2.3701 2.50839 0
M  V30 3707 C 346.708 -2.12421 3.76167 0
M  V30 3708 C 345.843 -3.36511 4.11015 0
M  V30 3709 C 344.882 -3.07353 5.2934 0
M  V30 3710 N 344.019 -4.23816 5.59754 0
M  V30 3711 H 348.859 -0.65631 2.90683 0
M  V30 3712 H 346.396 -0.312481 1.43743 0
M  V30 3713 H 348.354 -3.13175 2.7564 0
M  V30 3714 H 346.984 -2.75744 1.67825 0
M  V30 3715 H 346.036 -1.2688 3.58616 0
M  V30 3716 H 347.348 -1.86894 4.62463 0
M  V30 3717 H 346.502 -4.21062 4.36797 0
M  V30 3718 H 345.241 -3.65128 3.23315 0
M  V30 3719 H 344.246 -2.212 5.03339 0
M  V30 3720 H 345.471 -2.80043 6.1867 0
M  V30 3721 H 343.417 -4.52436 4.75014 0
M  V30 3722 H 343.334 -4.01614 6.40501 0
M  V30 3723 H 344.602 -5.0932 5.90096 0
M  V30 3724 N 348.832 -1.54138 -0.328536 0
M  V30 3725 C 350.08 -1.71765 -1.06496 0
M  V30 3726 C 350.401 -0.49149 -1.88704 0
M  V30 3727 O 349.671 0.494539 -1.89555 0
M  V30 3728 H 348.251 -0.633295 -0.396164 0
M  V30 3729 H 350.913 -1.91429 -0.366176 0
M  V30 3730 H 350.009 -2.5951 -1.73381 0
M  V30 3731 N 350.31 0.590341 -1.46126 0
M  V30 3732 C 351.258 1.72105 -1.5647 0
M  V30 3733 C 352.252 1.63756 -0.433612 0
M  V30 3734 O 353.458 1.69342 -0.610194 0
M  V30 3735 H 349.833 0.568889 -0.491802 0
M  V30 3736 H 351.804 1.6051 -2.51553 0
M  V30 3737 C 350.553 3.10493 -1.56491 0
M  V30 3738 H 349.876 3.17583 -2.4286 0
M  V30 3739 H 351.316 3.8939 -1.67785 0
M  V30 3740 C 349.775 3.3563 -0.292231 0
M  V30 3741 O 350.305 3.96875 0.620739 0
M  V30 3742 N 348.511 2.90026 -0.182523 0
M  V30 3743 H 348.058 2.40367 -0.926356 0
M  V30 3744 H 348.016 3.07218 0.668152 0
M  V30 3745 N 351.788 1.33704 0.83433 0
M  V30 3746 C 353.199 1.22813 1.4062 0
M  V30 3747 C 353.55 -0.151107 1.95617 0
M  V30 3748 O 352.675 -1.05092 1.89168 0
M  V30 3749 C 353.27 2.22355 2.55624 0
M  V30 3750 C 351.829 2.1529 3.08751 0
M  V30 3751 C 350.976 2.09589 1.8157 0
M  V30 3752 H 353.927 1.45236 0.639702 0
M  V30 3753 H 353.948 1.83391 3.33389 0
M  V30 3754 H 353.46 3.22728 2.15566 0
M  V30 3755 H 351.561 1.18235 3.53343 0
M  V30 3756 H 351.674 3.06038 3.68616 0
M  V30 3757 H 350.038 1.55134 2.02004 0
M  V30 3758 H 350.821 3.11777 1.43701 0
M  V30 3759 N 353.266 -1.05314 1.17247 0
M  V30 3760 C 354.682 -1.30452 0.919473 0
M  V30 3761 C 354.882 -1.9703 -0.42209 0
M  V30 3762 O 353.938 -2.24311 -1.15935 0
M  V30 3763 C 355.251 -2.17551 2.07586 0
M  V30 3764 C 356.799 -2.30937 2.11275 0
M  V30 3765 C 357.274 -3.21396 3.26296 0
M  V30 3766 N 358.765 -3.28981 3.26076 0
M  V30 3767 C 359.5 -3.99095 4.11716 0
M  V30 3768 N 358.996 -4.71648 5.07465 0
M  V30 3769 N 360.789 -3.95247 3.9967 0
M  V30 3770 H 352.94 -0.604988 2.03602 0
M  V30 3771 H 355.203 -0.329368 0.888944 0
M  V30 3772 H 354.909 -1.75921 3.0454 0
M  V30 3773 H 354.783 -3.18182 2.02584 0
M  V30 3774 H 357.17 -2.71809 1.14907 0
M  V30 3775 H 357.251 -1.2994 2.20339 0
M  V30 3776 H 356.895 -2.81238 4.22927 0
M  V30 3777 H 356.825 -4.22395 3.14467 0
M  V30 3778 H 359.316 -2.77286 2.5675 0
M  V30 3779 H 359.629 -5.22705 5.6921 0
M  V30 3780 H 357.974 -4.70594 5.11435 0
M  V30 3781 H 361.165 -3.37691 3.24164 0
M  V30 3782 H 361.338 -4.4962 4.66632 0
M  V30 3783 N 354.744 -0.972509 -1.24016 0
M  V30 3784 C 355.691 -0.505969 -2.25186 0
M  V30 3785 C 356.661 0.451009 -1.5986 0
M  V30 3786 O 357.846 0.360307 -1.87367 0
M  V30 3787 C 354.986 0.193089 -3.44559 0
M  V30 3788 C 354.099 -0.803222 -4.24467 0
M  V30 3789 C 353.234 -0.0797793 -5.3114 0
M  V30 3790 C 352.273 -1.06583 -6.02749 0
M  V30 3791 N 351.41 -0.372074 -7.01113 0
M  V30 3792 H 356.25 -1.37351 -2.64459 0
M  V30 3793 H 353.787 -0.688419 -1.29997 0
M  V30 3794 H 355.745 0.615125 -4.1264 0
M  V30 3795 H 354.375 1.02455 -3.06109 0
M  V30 3796 H 353.427 -1.34368 -3.55878 0
M  V30 3797 H 354.739 -1.55494 -4.73944 0
M  V30 3798 H 353.893 0.400015 -6.0538 0
M  V30 3799 H 352.632 0.704597 -4.82583 0
M  V30 3800 H 351.637 -1.55645 -5.27309 0
M  V30 3801 H 352.862 -1.85074 -6.53395 0
M  V30 3802 H 350.808 0.393238 -6.5482 0
M  V30 3803 H 350.725 -1.06258 -7.48495 0
M  V30 3804 H 351.993 0.0855932 -7.79453 0
M  V30 3805 N 356.222 1.38976 -0.743202 0
M  V30 3806 C 357.155 2.28128 -0.0572165 0
M  V30 3807 C 358.133 1.44827 0.739182 0
M  V30 3808 O 359.317 1.74207 0.720009 0
M  V30 3809 C 356.444 3.25796 0.926001 0
M  V30 3810 C 355.49 4.25947 0.217099 0
M  V30 3811 S 356.323 5.24604 -1.07477 0
M  V30 3812 C 357.479 6.25829 -0.0943545 0
M  V30 3813 H 357.712 2.85961 -0.813246 0
M  V30 3814 H 355.245 1.44822 -0.535341 0
M  V30 3815 H 357.203 3.82583 1.48797 0
M  V30 3816 H 355.864 2.66966 1.65493 0
M  V30 3817 H 355.057 4.94746 0.961372 0
M  V30 3818 H 354.659 3.73002 -0.273059 0
M  V30 3819 H 356.951 6.73411 0.743239 0
M  V30 3820 H 357.894 7.0412 -0.749713 0
M  V30 3821 H 358.302 5.63797 0.281706 0
M  V30 3822 N 357.7 0.491464 1.49741 0
M  V30 3823 C 358.946 -0.0565092 2.02721 0
M  V30 3824 C 359.279 -1.37522 1.37118 0
M  V30 3825 O 358.554 -1.87866 0.503645 0
M  V30 3826 C 358.837 -0.219051 3.59433 0
M  V30 3827 C 358.69 1.12211 4.35579 0
M  V30 3828 C 360.009 -0.964157 4.29409 0
M  V30 3829 H 357.128 -0.0190627 0.736753 0
M  V30 3830 H 359.77 0.641021 1.7886 0
M  V30 3831 H 357.92 -0.813165 3.79895 0
M  V30 3832 H 359.592 1.75437 4.26637 0
M  V30 3833 H 357.835 1.71377 3.98513 0
M  V30 3834 H 358.506 0.961794 5.43556 0
M  V30 3835 H 360.982 -0.460378 4.13545 0
M  V30 3836 H 359.858 -1.04671 5.38828 0
M  V30 3837 H 360.119 -2.00563 3.93988 0
M  V30 3838 N 359.178 -1.55987 0.224894 0
M  V30 3839 C 360.125 -2.20436 -0.68385 0
M  V30 3840 C 361.095 -1.16102 -1.18783 0
M  V30 3841 O 362.28 -1.4447 -1.24632 0
M  V30 3842 C 359.42 -2.89076 -1.88491 0
M  V30 3843 C 358.533 -4.08012 -1.41951 0
M  V30 3844 C 357.668 -4.64426 -2.5784 0
M  V30 3845 C 356.707 -5.75656 -2.08053 0
M  V30 3846 N 355.844 -6.26347 -3.17227 0
M  V30 3847 H 360.684 -2.97727 -0.12754 0
M  V30 3848 H 358.221 -1.47011 -0.0511978 0
M  V30 3849 H 360.179 -3.27059 -2.59014 0
M  V30 3850 H 358.809 -2.14298 -2.41405 0
M  V30 3851 H 357.861 -3.75492 -0.609095 0
M  V30 3852 H 359.173 -4.88375 -1.01447 0
M  V30 3853 H 358.327 -5.04869 -3.3644 0
M  V30 3854 H 357.066 -3.83233 -3.01635 0
M  V30 3855 H 356.071 -5.34712 -1.27916 0
M  V30 3856 H 357.296 -6.58686 -1.65255 0
M  V30 3857 H 355.242 -5.48067 -3.60497 0
M  V30 3858 H 355.159 -7.01843 -2.80986 0
M  V30 3859 H 356.427 -6.71447 -3.95953 0
M  V30 3860 N 360.656 0.0484629 -1.57525 0
M  V30 3861 C 361.884 0.755421 -1.92616 0
M  V30 3862 C 362.299 1.69919 -0.822984 0
M  V30 3863 O 361.656 1.81378 0.202085 0
M  V30 3864 C 361.707 1.52915 -3.27566 0
M  V30 3865 O 361.428 0.62329 -4.33644 0
M  V30 3866 C 362.929 2.33502 -3.76818 0
M  V30 3867 H 360.149 0.213465 -0.63614 0
M  V30 3868 H 362.693 0.0117698 -2.04497 0
M  V30 3869 H 360.848 2.22486 -3.17142 0
M  V30 3870 H 361.262 1.16383 -5.11425 0
M  V30 3871 H 362.736 2.83214 -4.73808 0
M  V30 3872 H 363.213 3.14068 -3.07014 0
M  V30 3873 H 363.819 1.69043 -3.90262 0
M  V30 3874 N 362.134 1.5431 0.320358 0
M  V30 3875 C 363.38 1.73859 1.05568 0
M  V30 3876 C 363.735 0.507807 1.85578 0
M  V30 3877 O 363.028 -0.499789 1.84967 0
M  V30 3878 C 363.222 2.95639 2.00828 0
M  V30 3879 C 363.051 4.30444 1.30186 0
M  V30 3880 C 361.821 4.94544 1.03703 0
M  V30 3881 C 364.019 5.0929 0.716138 0
M  V30 3882 N 362.001 6.13172 0.298846 0
M  V30 3883 C 363.372 6.19903 0.109729 0
M  V30 3884 C 365.427 4.94034 0.619269 0
M  V30 3885 C 364.13 7.16924 -0.584153 0
M  V30 3886 C 366.156 5.91369 -0.0609184 0
M  V30 3887 C 365.518 7.01336 -0.656258 0
M  V30 3888 H 361.617 0.688988 0.36989 0
M  V30 3889 H 364.201 1.9177 0.336494 0
M  V30 3890 H 362.372 2.79188 2.70016 0
M  V30 3891 H 364.104 3.03802 2.6737 0
M  V30 3892 H 360.859 4.54536 1.33019 0
M  V30 3893 H 361.283 6.76977 -0.0561964 0
M  V30 3894 H 365.925 4.0916 1.06526 0
M  V30 3895 H 363.643 8.01354 -1.04197 0
M  V30 3896 H 367.229 5.81642 -0.135552 0
M  V30 3897 H 366.109 7.75359 -1.17423 0
M  V30 3898 N 363.613 -0.582584 1.46437 0
M  V30 3899 C 364.576 -1.67366 1.56592 0
M  V30 3900 C 365.576 -1.54575 0.443072 0
M  V30 3901 O 366.766 -1.59191 0.707381 0
M  V30 3902 C 363.898 -3.06791 1.48634 0
M  V30 3903 H 365.091 -1.5972 2.5383 0
M  V30 3904 H 362.644 -0.800432 1.34249 0
M  V30 3905 H 363.379 -3.19993 0.526763 0
M  V30 3906 H 363.164 -3.17484 2.30101 0
M  V30 3907 H 364.654 -3.86218 1.58826 0
M  V30 3908 N 365.091 -1.34144 -0.827227 0
M  V30 3909 C 366.001 -1.27428 -1.96975 0
M  V30 3910 C 367.017 -0.182728 -1.73038 0
M  V30 3911 O 368.193 -0.408426 -1.97215 0
M  V30 3912 C 365.258 -1.02526 -3.31194 0
M  V30 3913 C 364.319 -2.20796 -3.68168 0
M  V30 3914 C 363.552 -1.97073 -4.95982 0
M  V30 3915 O 363.775 -0.926822 -5.6282 0
M  V30 3916 O 362.709 -2.83912 -5.30733 0
M  V30 3917 H 366.535 -2.23537 -2.05584 0
M  V30 3918 H 364.12 -1.14307 -0.961989 0
M  V30 3919 H 366.002 -0.904026 -4.11589 0
M  V30 3920 H 364.677 -0.0945389 -3.23562 0
M  V30 3921 H 363.584 -2.38477 -2.88235 0
M  V30 3922 H 364.917 -3.12243 -3.8048 0
M  V30 3923 N 366.569 1.04691 -1.17803 0
M  V30 3924 C 367.516 2.12557 -0.899343 0
M  V30 3925 C 368.486 1.65339 0.158771 0
M  V30 3926 O 369.671 1.90789 0.0204797 0
M  V30 3927 C 366.811 3.42481 -0.424315 0
M  V30 3928 C 365.924 4.03346 -1.54713 0
M  V30 3929 C 365.059 5.21208 -1.02546 0
M  V30 3930 C 364.098 5.74089 -2.12339 0
M  V30 3931 N 363.235 6.83247 -1.61612 0
M  V30 3932 H 368.075 2.35734 -1.823 0
M  V30 3933 H 365.612 1.1564 -0.909159 0
M  V30 3934 H 367.57 4.16996 -0.130421 0
M  V30 3935 H 366.2 3.19471 0.462377 0
M  V30 3936 H 365.252 3.2622 -1.95664 0
M  V30 3937 H 366.564 4.38628 -2.37501 0
M  V30 3938 H 365.718 6.02812 -0.685718 0
M  V30 3939 H 364.457 4.87414 -0.167084 0
M  V30 3940 H 363.462 4.91111 -2.47165 0
M  V30 3941 H 364.687 6.0993 -2.98601 0
M  V30 3942 H 362.633 6.5134 -0.780533 0
M  V30 3943 H 362.55 7.17559 -2.38003 0
M  V30 3944 H 363.818 7.68491 -1.30545 0
M  V30 3945 N 368.047 0.979072 1.23499 0
M  V30 3946 C 368.957 0.526431 2.28617 0
M  V30 3947 C 369.973 -0.418126 1.68901 0
M  V30 3948 O 371.149 -0.288372 1.99325 0
M  V30 3949 C 368.214 -0.165235 3.46306 0
M  V30 3950 C 367.275 0.82056 4.21385 0
M  V30 3951 C 366.508 0.161807 5.33455 0
M  V30 3952 O 366.731 -1.04742 5.60701 0
M  V30 3953 O 365.665 0.859708 5.95729 0
M  V30 3954 H 369.491 1.4006 2.69475 0
M  V30 3955 H 367.076 0.746643 1.29405 0
M  V30 3956 H 368.958 -0.553287 4.17752 0
M  V30 3957 H 367.633 -1.01419 3.07402 0
M  V30 3958 H 366.54 1.25929 3.52268 0
M  V30 3959 H 367.873 1.63828 4.64135 0
M  V30 3960 N 369.525 -1.3858 0.750561 0
M  V30 3961 C 370.458 -2.28095 0.0693139 0
M  V30 3962 C 371.436 -1.45217 -0.731491 0
M  V30 3963 O 372.62 -1.74587 -0.71076 0
M  V30 3964 C 369.747 -3.26282 -0.90871 0
M  V30 3965 C 368.793 -4.26056 -0.194507 0
M  V30 3966 S 369.626 -5.24026 1.10257 0
M  V30 3967 C 370.782 -6.2577 0.127542 0
M  V30 3968 H 371.015 -2.85526 0.8284 0
M  V30 3969 H 368.548 -1.44536 0.543014 0
M  V30 3970 H 370.506 -3.83367 -1.46766 0
M  V30 3971 H 369.167 -2.6784 -1.64075 0
M  V30 3972 H 368.36 -4.95249 -0.93512 0
M  V30 3973 H 367.962 -3.72852 0.292837 0
M  V30 3974 H 370.254 -6.73796 -0.707516 0
M  V30 3975 H 371.197 -7.03712 0.787044 0
M  V30 3976 H 371.605 -5.63938 -0.251803 0
M  V30 3977 N 371.003 -0.499398 -1.49478 0
M  V30 3978 C 372.419 -0.155261 -1.58843 0
M  V30 3979 C 372.619 1.34008 -1.50479 0
M  V30 3980 O 371.675 2.11589 -1.37791 0
M  V30 3981 C 372.988 -0.730636 -2.91689 0
M  V30 3982 C 374.536 -0.696599 -3.0515 0
M  V30 3983 C 375.011 -1.25001 -4.40612 0
M  V30 3984 N 376.502 -1.21064 -4.47099 0
M  V30 3985 C 377.237 -1.60905 -5.50361 0
M  V30 3986 N 376.733 -2.08331 -6.60735 0
M  V30 3987 N 378.526 -1.52331 -5.41065 0
M  V30 3988 H 370.677 -1.47162 -1.53158 0
M  V30 3989 H 372.94 -0.610309 -0.725415 0
M  V30 3990 H 372.646 -1.77928 -3.03372 0
M  V30 3991 H 372.52 -0.190161 -3.7672 0
M  V30 3992 H 374.907 0.343204 -2.93097 0
M  V30 3993 H 374.988 -1.2742 -2.21806 0
M  V30 3994 H 374.632 -2.28859 -4.53416 0
M  V30 3995 H 374.562 -0.64836 -5.22593 0
M  V30 3996 H 377.053 -0.863128 -3.67911 0
M  V30 3997 H 377.366 -2.36805 -7.35624 0
M  V30 3998 H 375.711 -2.12304 -6.6178 0
M  V30 3999 H 378.902 -1.151 -4.53729 0
M  V30 4000 H 379.075 -1.83704 -6.21415 0
M  V30 4001 N 372.481 1.55866 -0.233164 0
M  V30 4002 C 373.429 2.22176 0.68851 0
M  V30 4003 C 374.423 1.20487 1.19076 0
M  V30 4004 O 375.629 1.38536 1.14925 0
M  V30 4005 H 372.004 0.712511 0.240483 0
M  V30 4006 H 373.975 2.98212 0.105935 0
M  V30 4007 C 372.724 2.92446 1.88071 0
M  V30 4008 H 372.047 3.70458 1.50337 0
M  V30 4009 H 373.487 3.42226 2.50314 0
M  V30 4010 C 371.946 1.95555 2.74335 0
M  V30 4011 O 372.476 1.47986 3.73447 0
M  V30 4012 N 370.682 1.62953 2.40613 0
M  V30 4013 H 370.229 2.01831 1.60069 0
M  V30 4014 H 370.187 0.983886 2.98609 0
M  V30 4015 N 373.959 -0.0401083 1.57549 0
M  V30 4016 C 374.889 -1.04384 2.08869 0
M  V30 4017 C 375.87 -1.38407 0.988817 0
M  V30 4018 O 377.055 -1.47483 1.26342 0
M  V30 4019 C 374.185 -2.34808 2.55895 0
M  V30 4020 C 373.139 -2.15057 3.70047 0
M  V30 4021 C 372.465 -3.51145 4.03239 0
M  V30 4022 C 373.765 -1.54576 4.98902 0
M  V30 4023 H 375.459 -0.616666 2.92981 0
M  V30 4024 H 373.005 -0.295184 1.40942 0
M  V30 4025 H 374.958 -3.05346 2.90417 0
M  V30 4026 H 373.682 -2.79565 1.68853 0
M  V30 4027 H 372.341 -1.46954 3.35857 0
M  V30 4028 H 371.989 -3.93529 3.13279 0
M  V30 4029 H 371.689 -3.38758 4.80122 0
M  V30 4030 H 373.213 -4.23062 4.40285 0
M  V30 4031 H 374.627 -2.15017 5.31451 0
M  V30 4032 H 373.024 -1.52796 5.80322 0
M  V30 4033 H 374.094 -0.51039 4.82206 0
M  V30 4034 N 375.437 -1.54477 -0.31217 0
M  V30 4035 C 376.686 -1.72438 -1.04633 0
M  V30 4036 C 376.999 -0.511163 -1.88803 0
M  V30 4037 O 378.205 -0.572341 -2.65399 0
M  V30 4038 C 376.661 -3.05043 -1.9099 0
M  V30 4039 C 376.269 -4.33806 -1.11877 0
M  V30 4040 C 378.013 -3.32364 -2.64073 0
M  V30 4041 C 375.92 -5.57467 -1.97445 0
M  V30 4042 H 374.85 -0.642647 -0.394361 0
M  V30 4043 H 377.501 -1.80966 -0.303929 0
M  V30 4044 H 375.883 -2.90451 -2.69173 0
M  V30 4045 H 377.057 -4.59199 -0.383843 0
M  V30 4046 H 375.372 -4.13336 -0.504252 0
M  V30 4047 H 377.969 -4.21951 -3.28423 0
M  V30 4048 H 378.312 -2.50745 -3.32314 0
M  V30 4049 H 378.845 -3.47875 -1.92944 0
M  V30 4050 H 375.584 -6.41722 -1.33692 0
M  V30 4051 H 375.104 -5.36277 -2.6864 0
M  V30 4052 H 376.783 -5.94303 -2.5576 0
M  V30 4053 N 376.915 0.57481 -1.46744 0
M  V30 4054 C 378.331 0.898981 -1.31873 0
M  V30 4055 C 378.531 1.99313 -0.29605 0
M  V30 4056 O 377.587 2.50728 0.298621 0
M  V30 4057 C 378.9 1.30886 -2.7072 0
M  V30 4058 C 380.448 1.42127 -2.78871 0
M  V30 4059 C 380.923 1.86478 -4.18318 0
M  V30 4060 N 382.414 1.93658 -4.20774 0
M  V30 4061 C 383.149 2.29267 -5.2557 0
M  V30 4062 N 382.645 2.63612 -6.40688 0
M  V30 4063 N 384.438 2.29889 -5.1294 0
M  V30 4064 H 376.589 -0.147839 -2.11885 0
M  V30 4065 H 378.852 -0.00347013 -0.947994 0
M  V30 4066 H 378.558 0.578853 -3.46904 0
M  V30 4067 H 378.432 2.26874 -3.01343 0
M  V30 4068 H 380.819 2.14213 -2.0297 0
M  V30 4069 H 380.9 0.443705 -2.51922 0
M  V30 4070 H 380.544 1.14968 -4.94717 0
M  V30 4071 H 380.474 2.85207 -4.42679 0
M  V30 4072 H 382.965 1.69574 -3.37718 0
M  V30 4073 H 383.278 2.89759 -7.16421 0
M  V30 4074 H 381.623 2.61232 -6.44036 0
M  V30 4075 H 384.814 2.02485 -4.22039 0
M  V30 4076 H 384.987 2.57312 -5.94722 0
M  V30 4077 N 378.394 1.34581 0.820102 0
M  V30 4078 C 379.324 1.29038 1.94606 0
M  V30 4079 C 380.305 0.1673 1.69275 0
M  V30 4080 O 381.49 0.360112 1.90832 0
M  V30 4081 C 378.62 1.04793 3.31113 0
M  V30 4082 C 377.574 2.13597 3.70891 0
M  V30 4083 C 376.9 1.74537 5.05412 0
M  V30 4084 C 378.2 3.55451 3.8269 0
M  V30 4085 H 379.894 2.23248 1.99501 0
M  V30 4086 H 377.44 1.0747 0.958449 0
M  V30 4087 H 379.393 0.995592 4.0947 0
M  V30 4088 H 378.117 0.0702565 3.26524 0
M  V30 4089 H 376.776 2.17905 2.9481 0
M  V30 4090 H 376.424 0.754226 4.97313 0
M  V30 4091 H 376.124 2.47361 5.32997 0
M  V30 4092 H 377.648 1.70803 5.86224 0
M  V30 4093 H 379.062 3.5354 4.51312 0
M  V30 4094 H 377.459 4.26922 4.21732 0
M  V30 4095 H 378.529 3.92587 2.84611 0
M  V30 4096 N 379.872 -1.04064 1.18357 0
M  V30 4097 C 380.82 -2.14187 0.907007 0
M  V30 4098 C 381.814 -1.68879 -0.132725 0
M  V30 4099 O 383.02 -1.79993 0.0154248 0
M  V30 4100 H 379.395 -0.699585 0.275835 0
M  V30 4101 H 381.366 -2.34711 1.84264 0
M  V30 4102 C 380.115 -3.44785 0.449254 0
M  V30 4103 H 379.438 -3.80058 1.24081 0
M  V30 4104 H 380.878 -4.22974 0.294737 0
M  V30 4105 C 379.337 -3.26391 -0.834909 0
M  V30 4106 O 379.867 -3.53973 -1.89911 0
M  V30 4107 N 378.073 -2.79726 -0.787523 0
M  V30 4108 H 377.62 -2.5748 0.0787347 0
M  V30 4109 H 377.578 -2.67798 -1.64716 0
M  V30 4110 N 381.35 -0.985608 -1.22978 0
M  V30 4111 C 382.578 -0.675582 -1.95559 0
M  V30 4112 C 382.993 0.758413 -1.72897 0
M  V30 4113 O 382.35 1.51094 -1.02357 0
M  V30 4114 C 382.401 -0.96293 -3.48439 0
M  V30 4115 O 382.122 -2.34057 -3.70336 0
M  V30 4116 C 383.623 -0.669585 -4.38214 0
M  V30 4117 H 380.843 -0.250523 -0.622478 0
M  V30 4118 H 383.387 -1.3184 -1.56328 0
M  V30 4119 H 381.542 -0.366033 -3.85667 0
M  V30 4120 H 381.956 -2.43424 -4.64591 0
M  V30 4121 H 383.43 -0.920967 -5.44263 0
M  V30 4122 H 383.907 0.396383 -4.37408 0
M  V30 4123 H 384.513 -1.2472 -4.06602 0
M  V30 4124 N 382.828 1.3818 -0.7579 0
M  V30 4125 C 383.791 2.28764 -0.141286 0
M  V30 4126 C 384.791 1.47388 0.642907 0
M  V30 4127 O 385.981 1.67781 0.468536 0
M  V30 4128 C 383.113 3.31184 0.808069 0
M  V30 4129 H 384.306 2.848 -0.939633 0
M  V30 4130 H 381.859 1.47212 -0.525191 0
M  V30 4131 H 382.594 2.80247 1.63193 0
M  V30 4132 H 382.379 3.91314 0.248104 0
M  V30 4133 H 383.869 3.98909 1.23536 0
M  V30 4134 N 384.306 0.507319 1.49211 0
M  V30 4135 C 385.216 -0.272136 2.33016 0
M  V30 4136 C 386.232 -0.961206 1.45041 0
M  V30 4137 O 387.408 -0.941191 1.78055 0
M  V30 4138 C 384.473 -1.31895 3.20631 0
M  V30 4139 C 383.534 -0.642648 4.24463 0
M  V30 4140 C 382.767 -1.63959 5.07891 0
M  V30 4141 O 382.99 -2.87007 4.92933 0
M  V30 4142 O 381.924 -1.19143 5.8999 0
M  V30 4143 H 385.75 0.413982 3.00865 0
M  V30 4144 H 383.335 0.268556 1.46966 0
M  V30 4145 H 385.217 -1.92446 3.7489 0
M  V30 4146 H 383.892 -1.98788 2.5547 0
M  V30 4147 H 382.799 0.00276252 3.741 0
M  V30 4148 H 384.132 -0.0160534 4.92197 0
M  V30 4149 N 385.784 -1.5574 0.241426 0
M  V30 4150 C 387.033 -1.97986 -0.385295 0
M  V30 4151 C 387.346 -1.13267 -1.59468 0
M  V30 4152 O 388.552 -1.45501 -2.2922 0
M  V30 4153 C 387.008 -3.52275 -0.736884 0
M  V30 4154 C 386.616 -4.45726 0.450796 0
M  V30 4155 C 388.36 -4.03189 -1.3281 0
M  V30 4156 C 386.267 -5.91352 0.0756662 0
M  V30 4157 H 385.197 -0.739386 -0.147731 0
M  V30 4158 H 387.848 -1.80308 0.340779 0
M  V30 4159 H 386.23 -3.65628 -1.52094 0
M  V30 4160 H 387.404 -4.44131 1.22819 0
M  V30 4161 H 385.719 -4.05264 0.956573 0
M  V30 4162 H 388.316 -5.09505 -1.62201 0
M  V30 4163 H 388.659 -3.50212 -2.25071 0
M  V30 4164 H 389.192 -3.93141 -0.607069 0
M  V30 4165 H 385.931 -6.48354 0.965272 0
M  V30 4166 H 385.451 -5.96095 -0.665635 0
M  V30 4167 H 387.13 -6.46084 -0.344075 0
M  V30 4168 N 387.262 0.0317525 -1.57568 0
M  V30 4169 C 388.673 0.578692 -1.77505 0
M  V30 4170 C 389.024 1.75749 -0.872164 0
M  V30 4171 O 388.149 2.16298 -0.0663106 0
M  V30 4172 C 388.744 1.05658 -3.21904 0
M  V30 4173 C 387.303 1.54906 -3.43047 0
M  V30 4174 C 386.45 0.485939 -2.73009 0
M  V30 4175 H 389.401 -0.194475 -1.57504 0
M  V30 4176 H 389.422 1.92404 -3.28269 0
M  V30 4177 H 388.934 0.198422 -3.87592 0
M  V30 4178 H 387.035 2.42915 -2.82529 0
M  V30 4179 H 387.148 1.59841 -4.5165 0
M  V30 4180 H 385.512 0.940354 -2.36705 0
M  V30 4181 H 386.295 -0.362709 -3.41379 0
M  V30 4182 N 388.74 1.54641 0.303973 0
M  V30 4183 C 389.98 1.75516 1.04755 0
M  V30 4184 C 390.344 0.528211 1.84591 0
M  V30 4185 O 391.545 0.614645 2.61678 0
M  V30 4186 C 389.816 3.00685 1.93193 0
M  V30 4187 S 391.375 3.42549 2.74237 0
M  V30 4188 H 388.193 0.616987 0.353339 0
M  V30 4189 H 390.795 1.92842 0.321292 0
M  V30 4190 H 389.499 3.8811 1.33411 0
M  V30 4191 H 389.03 2.85937 2.70191 0
M  V30 4192 H 391.045 2.99386 3.95705 0
M  V30 4193 N 390.218 -0.567019 1.47046 0
M  V30 4194 C 391.629 -1.14916 1.47143 0
M  V30 4195 C 391.98 -1.94954 0.220767 0
M  V30 4196 O 391.105 -2.05602 -0.67505 0
M  V30 4197 C 391.7 -2.09069 2.666 0
M  V30 4198 C 390.259 -2.62575 2.69687 0
M  V30 4199 C 389.406 -1.38755 2.40088 0
M  V30 4200 H 392.357 -0.354126 1.54699 0
M  V30 4201 H 392.378 -2.92789 2.43011 0
M  V30 4202 H 391.89 -1.50789 3.57609 0
M  V30 4203 H 389.991 -3.24681 1.82792 0
M  V30 4204 H 390.104 -3.04239 3.70102 0
M  V30 4205 H 388.468 -1.69098 1.90468 0
M  V30 4206 H 389.251 -0.822822 3.33293 0
M  V30 4207 N 391.696 -1.35014 -0.812953 0
M  V30 4208 C 392.606 -1.2951 -1.95613 0
M  V30 4209 C 393.622 -0.20107 -1.72834 0
M  V30 4210 O 394.798 -0.42932 -1.96771 0
M  V30 4211 C 391.863 -1.06033 -3.30088 0
M  V30 4212 C 390.924 -2.24688 -3.65805 0
M  V30 4213 C 390.157 -2.02322 -4.93864 0
M  V30 4214 O 390.38 -0.986464 -5.61805 0
M  V30 4215 O 389.314 -2.89525 -5.27692 0
M  V30 4216 H 393.14 -2.25705 -2.03202 0
M  V30 4217 H 390.725 -1.15321 -0.949811 0
M  V30 4218 H 392.607 -0.94763 -4.10607 0
M  V30 4219 H 391.282 -0.128852 -3.23443 0
M  V30 4220 H 390.189 -2.41521 -2.85689 0
M  V30 4221 H 391.522 -3.16261 -3.77147 0
M  V30 4222 N 393.175 1.03435 -1.18907 0
M  V30 4223 C 394.586 1.58195 -0.991523 0
M  V30 4224 C 394.937 1.90801 0.457081 0
M  V30 4225 O 394.062 1.70272 1.33553 0
M  V30 4226 C 394.657 2.87432 -1.79355 0
M  V30 4227 C 393.216 3.38785 -1.64017 0
M  V30 4228 C 392.363 2.12292 -1.78402 0
M  V30 4229 H 395.314 0.860299 -1.33359 0
M  V30 4230 H 395.335 3.58096 -1.28638 0
M  V30 4231 H 394.847 2.63669 -2.84781 0
M  V30 4232 H 392.948 3.67547 -0.611536 0
M  V30 4233 H 393.061 4.12186 -2.44212 0
M  V30 4234 H 391.425 2.23901 -1.2141 0
M  V30 4235 H 392.208 1.90977 -2.85277 0
M  V30 4236 N 394.653 0.992116 1.22453 0
M  V30 4237 C 395.902 0.662992 1.90492 0
M  V30 4238 C 396.215 -0.808407 1.78113 0
M  V30 4239 O 397.421 -1.24908 2.41061 0
M  V30 4240 C 395.877 1.1353 3.41524 0
M  V30 4241 C 395.485 2.63187 3.62542 0
M  V30 4242 C 397.229 0.880465 4.15269 0
M  V30 4243 C 395.136 3.04024 5.0727 0
M  V30 4244 H 394.066 0.244278 0.713333 0
M  V30 4245 H 396.717 1.20157 1.38688 0
M  V30 4246 H 395.099 0.52485 3.92506 0
M  V30 4247 H 396.273 3.2957 3.22056 0
M  V30 4248 H 394.588 2.86543 3.02129 0
M  V30 4249 H 397.185 1.16128 5.21937 0
M  V30 4250 H 397.528 -0.183408 4.15896 0
M  V30 4251 H 398.061 1.45307 3.70312 0
M  V30 4252 H 394.8 4.09584 5.11782 0
M  V30 4253 H 394.32 2.42343 5.48662 0
M  V30 4254 H 395.999 2.95282 5.75689 0
M  V30 4255 N 396.131 -1.37776 0.765217 0
M  V30 4256 C 397.064 -2.28008 0.0935025 0
M  V30 4257 C 398.042 -1.45985 -0.716047 0
M  V30 4258 O 399.226 -1.75331 -0.692203 0
M  V30 4259 C 396.353 -3.27228 -0.874052 0
M  V30 4260 C 395.399 -4.26239 -0.149307 0
M  V30 4261 S 396.232 -5.22827 1.15809 0
M  V30 4262 C 397.388 -6.256 0.193906 0
M  V30 4263 H 397.621 -2.84631 0.858637 0
M  V30 4264 H 395.154 -1.43952 0.558313 0
M  V30 4265 H 397.112 -3.84902 -1.42691 0
M  V30 4266 H 395.773 -2.69565 -1.61225 0
M  V30 4267 H 394.966 -4.96213 -0.88254 0
M  V30 4268 H 394.568 -3.7252 0.332366 0
M  V30 4269 H 396.86 -6.74508 -0.636011 0
M  V30 4270 H 397.803 -7.02838 0.861638 0
M  V30 4271 H 398.211 -5.64173 -0.191975 0
M  V30 4272 N 397.609 -0.515225 -1.4894 0
M  V30 4273 C 398.539 0.244628 -2.32215 0
M  V30 4274 C 399.52 0.949136 -1.41157 0
M  V30 4275 O 400.705 0.937783 -1.70057 0
M  V30 4276 C 397.835 1.30096 -3.22013 0
M  V30 4277 C 396.789 0.715486 -4.21977 0
M  V30 4278 C 396.115 1.87339 -5.00808 0
M  V30 4279 C 397.415 -0.302982 -5.2142 0
M  V30 4280 H 399.109 -0.450501 -2.95991 0
M  V30 4281 H 396.655 -0.218098 -1.42339 0
M  V30 4282 H 398.608 1.84037 -3.79089 0
M  V30 4283 H 397.332 2.02547 -2.56207 0
M  V30 4284 H 395.991 0.197715 -3.66066 0
M  V30 4285 H 395.639 2.58592 -4.31438 0
M  V30 4286 H 395.339 1.48764 -5.68457 0
M  V30 4287 H 396.863 2.41686 -5.60732 0
M  V30 4288 H 398.277 0.148802 -5.73107 0
M  V30 4289 H 396.674 -0.60532 -5.97039 0
M  V30 4290 H 397.744 -1.21395 -4.69459 0
M  V30 4291 N 399.087 1.5561 -0.249682 0
M  V30 4292 C 400.503 1.59254 0.105103 0
M  V30 4293 C 400.703 1.26685 1.56694 0
M  V30 4294 O 399.759 1.0155 2.31179 0
M  V30 4295 C 401.072 2.99687 -0.246592 0
M  V30 4296 C 402.62 3.12416 -0.191118 0
M  V30 4297 C 403.095 4.55074 -0.516885 0
M  V30 4298 N 404.586 4.60835 -0.467489 0
M  V30 4299 C 405.321 5.69201 -0.69268 0
M  V30 4300 N 404.817 6.85817 -0.981146 0
M  V30 4301 N 406.61 5.58635 -0.623198 0
M  V30 4302 H 398.761 1.75049 -1.20298 0
M  V30 4303 H 401.024 0.815003 -0.484225 0
M  V30 4304 H 400.73 3.28267 -1.26228 0
M  V30 4305 H 400.604 3.74798 0.424962 0
M  V30 4306 H 402.991 2.83615 0.815247 0
M  V30 4307 H 403.072 2.39573 -0.896563 0
M  V30 4308 H 402.716 4.84596 -1.52082 0
M  V30 4309 H 402.646 5.26181 0.210068 0
M  V30 4310 H 405.137 3.7705 -0.253373 0
M  V30 4311 H 405.45 7.64341 -1.14032 0
M  V30 4312 H 403.795 6.87494 -1.01865 0
M  V30 4313 H 406.986 4.66406 -0.397863 0
M  V30 4314 H 407.159 6.43017 -0.802093 0
M  V30 4315 N 400.565 -0.0233959 1.57583 0
M  V30 4316 C 401.79 -0.728376 1.94189 0
M  V30 4317 C 402.215 -1.67793 0.850119 0
M  V30 4318 O 401.573 -1.80262 -0.19371 0
M  V30 4319 C 401.621 -1.45669 3.29868 0
M  V30 4320 O 400.725 -2.57013 3.22518 0
M  V30 4321 H 400.066 -0.195493 0.63457 0
M  V30 4322 H 402.596 0.0228214 2.04587 0
M  V30 4323 H 402.606 -1.82535 3.6489 0
M  V30 4324 H 401.281 -0.760314 4.08891 0
M  V30 4325 H 399.858 -2.22648 2.99136 0
M  V30 4326 N 402.043 -1.548 -0.295768 0
M  V30 4327 C 402.993 -1.82497 -1.3667 0
M  V30 4328 C 403.977 -0.682434 -1.45711 0
M  V30 4329 O 405.169 -0.943207 -1.49775 0
M  V30 4330 C 402.298 -2.08036 -2.73086 0
M  V30 4331 C 401.384 -3.28488 -2.68247 0
M  V30 4332 N 401.775 -4.48924 -2.33025 0
M  V30 4333 C 400.073 -3.3062 -2.99343 0
M  V30 4334 C 400.774 -5.30956 -2.37613 0
M  V30 4335 N 399.75 -4.68805 -2.75178 0
M  V30 4336 H 403.552 -2.73175 -1.0841 0
M  V30 4337 H 401.066 -1.5437 -0.504361 0
M  V30 4338 H 403.063 -2.26027 -3.5031 0
M  V30 4339 H 401.723 -1.18629 -3.02254 0
M  V30 4340 H 402.734 -4.75432 -2.05389 0
M  V30 4341 H 399.411 -2.51336 -3.33371 0
M  V30 4342 H 400.801 -6.37199 -2.13135 0
M  V30 4343 N 403.521 0.559213 -1.47345 0
M  V30 4344 C 404.767 1.31843 -1.54095 0
M  V30 4345 C 405.1 1.93149 -0.201726 0
M  V30 4346 O 404.375 1.77759 0.789428 0
M  V30 4347 C 404.658 2.43006 -2.65744 0
M  V30 4348 C 404.511 1.86581 -4.09277 0
M  V30 4349 C 405.83 3.44943 -2.73318 0
M  V30 4350 H 402.949 0.478012 -0.560957 0
M  V30 4351 H 405.591 0.625977 -1.79392 0
M  V30 4352 H 403.741 3.02072 -2.44305 0
M  V30 4353 H 405.413 1.31792 -4.42073 0
M  V30 4354 H 403.656 1.17268 -4.17649 0
M  V30 4355 H 404.327 2.66933 -4.83168 0
M  V30 4356 H 406.803 2.95793 -2.92653 0
M  V30 4357 H 405.679 4.20153 -3.53218 0
M  V30 4358 H 405.94 4.03665 -1.80296 0
M  V30 4359 N 404.999 1.35443 0.805782 0
M  V30 4360 C 405.929 1.31095 1.93226 0
M  V30 4361 C 406.91 0.185244 1.69088 0
M  V30 4362 O 408.095 0.380332 1.90439 0
M  V30 4363 C 405.225 1.08299 3.29983 0
M  V30 4364 C 404.179 2.17519 3.68605 0
M  V30 4365 C 403.505 1.79887 5.03532 0
M  V30 4366 C 404.805 3.5949 3.78898 0
M  V30 4367 H 406.499 2.25352 1.97122 0
M  V30 4368 H 404.045 1.0848 0.946996 0
M  V30 4369 H 405.998 1.03897 4.08391 0
M  V30 4370 H 404.722 0.104885 3.26432 0
M  V30 4371 H 403.381 2.2102 2.92482 0
M  V30 4372 H 403.029 0.80693 4.96485 0
M  V30 4373 H 402.729 2.53001 5.30344 0
M  V30 4374 H 404.253 1.77011 5.84379 0
M  V30 4375 H 405.667 3.58307 4.47536 0
M  V30 4376 H 404.064 4.31371 4.1718 0
M  V30 4377 H 405.134 3.95584 2.80431 0
M  V30 4378 N 406.477 -1.02803 1.19454 0
M  V30 4379 C 407.723 -1.76478 0.999171 0
M  V30 4380 C 408.056 -1.88456 -0.468828 0
M  V30 4381 O 407.331 -1.40198 -1.34814 0
M  V30 4382 C 407.614 -3.19044 1.66981 0
M  V30 4383 C 407.467 -3.14932 3.21151 0
M  V30 4384 C 408.786 -4.17456 1.39349 0
M  V30 4385 H 405.905 -0.640614 0.364393 0
M  V30 4386 H 408.547 -1.20005 1.47305 0
M  V30 4387 H 406.697 -3.67263 1.2669 0
M  V30 4388 H 408.369 -2.74605 3.70661 0
M  V30 4389 H 406.612 -2.52625 3.52652 0
M  V30 4390 H 407.283 -4.1566 3.63223 0
M  V30 4391 H 409.759 -3.77842 1.74283 0
M  V30 4392 H 408.635 -5.154 1.88823 0
M  V30 4393 H 408.896 -4.40949 0.318813 0
M  V30 4394 N 407.956 -0.998596 -1.21925 0
M  V30 4395 C 408.889 -0.498517 -2.22688 0
M  V30 4396 C 409.867 0.444301 -1.56412 0
M  V30 4397 O 411.051 0.368518 -1.84863 0
M  V30 4398 C 408.178 0.276639 -3.37568 0
M  V30 4399 C 407.224 -0.61302 -4.22071 0
M  V30 4400 S 408.057 -2.07168 -4.93803 0
M  V30 4401 C 409.213 -1.30617 -6.12119 0
M  V30 4402 H 409.446 -1.35234 -2.64762 0
M  V30 4403 H 406.979 -0.806018 -1.31692 0
M  V30 4404 H 408.937 0.717817 -4.04175 0
M  V30 4405 H 407.598 1.10581 -2.93991 0
M  V30 4406 H 406.791 -0.0162909 -5.03997 0
M  V30 4407 H 406.393 -0.991202 -3.60626 0
M  V30 4408 H 408.685 -0.57675 -6.75041 0
M  V30 4409 H 409.628 -2.10091 -6.76215 0
M  V30 4410 H 410.036 -0.816957 -5.58557 0
M  V30 4411 N 409.434 1.37368 -0.772513 0
M  V30 4412 C 410.659 2.0447 -0.347386 0
M  V30 4413 C 411.084 1.57882 1.0225 0
M  V30 4414 O 410.442 0.73941 1.65537 0
M  V30 4415 C 410.49 3.58369 -0.400479 0
M  V30 4416 O 409.594 4.0803 0.598789 0
M  V30 4417 H 408.935 0.646773 -0.15027 0
M  V30 4418 H 411.465 1.75667 -1.04892 0
M  V30 4419 H 411.475 4.07183 -0.258045 0
M  V30 4420 H 410.15 3.91633 -1.39986 0
M  V30 4421 H 408.727 3.70534 0.419411 0
M  V30 4422 N 410.912 0.523116 1.48665 0
M  V30 4423 C 412.159 -0.0134763 2.02496 0
M  V30 4424 C 412.487 -1.3493 1.40086 0
M  V30 4425 O 411.742 -1.88286 0.533567 0
M  V30 4426 C 412.041 -0.191671 3.56886 0
M  V30 4427 C 411.707 1.06893 4.38046 0
M  V30 4428 C 410.369 1.41443 4.59943 0
M  V30 4429 C 412.721 1.90584 4.85106 0
M  V30 4430 C 410.049 2.59594 5.26144 0
M  V30 4431 C 412.401 3.07907 5.52609 0
M  V30 4432 C 411.065 3.42811 5.72745 0
M  V30 4433 H 410.335 -0.00493133 0.740984 0
M  V30 4434 H 412.982 0.687751 1.78724 0
M  V30 4435 H 411.287 -0.97561 3.79459 0
M  V30 4436 H 412.984 -0.621659 3.96152 0
M  V30 4437 H 409.574 0.789848 4.21259 0
M  V30 4438 H 413.758 1.65203 4.67997 0
M  V30 4439 H 409.014 2.86847 5.39934 0
M  V30 4440 H 413.188 3.73066 5.88043 0
M  V30 4441 H 410.815 4.34462 6.23816 0
M  V30 4442 N 412.39 -1.55475 0.257931 0
M  V30 4443 C 413.639 -1.98383 -0.364275 0
M  V30 4444 C 413.952 -1.14952 -1.58258 0
M  V30 4445 O 415.158 -1.47924 -2.27664 0
M  V30 4446 C 413.614 -3.53037 -0.699479 0
M  V30 4447 C 413.222 -4.45223 0.498046 0
M  V30 4448 C 414.966 -4.04575 -1.28526 0
M  V30 4449 C 412.873 -5.91238 0.138383 0
M  V30 4450 H 411.803 -0.740911 -0.13988 0
M  V30 4451 H 414.454 -1.79936 0.359883 0
M  V30 4452 H 412.836 -3.6722 -1.48207 0
M  V30 4453 H 414.01 -4.42803 1.27522 0
M  V30 4454 H 412.325 -4.04226 0.999503 0
M  V30 4455 H 414.922 -5.11196 -1.56788 0
M  V30 4456 H 415.265 -3.5258 -2.21344 0
M  V30 4457 H 415.798 -3.93762 -0.565337 0
M  V30 4458 H 412.537 -6.47294 1.03398 0
M  V30 4459 H 412.057 -5.96768 -0.602374 0
M  V30 4460 H 413.736 -6.46413 -0.27553 0
M  V30 4461 N 413.868 0.0150385 -1.57593 0
M  V30 4462 C 415.116 0.701613 -1.8953 0
M  V30 4463 C 415.437 1.75139 -0.857396 0
M  V30 4464 O 414.707 1.95607 0.107194 0
M  V30 4465 H 413.287 0.26213 -0.699498 0
M  V30 4466 H 415.949 -0.0223304 -1.94887 0
M  V30 4467 H 415.045 1.18236 -2.88837 0
M  V30 4468 N 415.346 1.54954 0.287554 0
M  V30 4469 C 416.293 1.86834 1.35505 0
M  V30 4470 C 417.263 0.718452 1.49758 0
M  V30 4471 O 418.448 0.968358 1.644 0
M  V30 4472 C 415.588 2.13303 2.71286 0
M  V30 4473 C 414.701 3.40883 2.65373 0
M  V30 4474 C 413.836 3.57125 3.93236 0
M  V30 4475 C 412.875 4.78449 3.81776 0
M  V30 4476 N 412.012 4.91426 5.01443 0
M  V30 4477 H 416.852 2.77889 1.07619 0
M  V30 4478 H 414.389 1.37593 0.520241 0
M  V30 4479 H 416.347 2.26646 3.50267 0
M  V30 4480 H 414.977 1.25499 2.97405 0
M  V30 4481 H 414.029 3.36088 1.78182 0
M  V30 4482 H 415.341 4.29993 2.52799 0
M  V30 4483 H 414.495 3.70207 4.80658 0
M  V30 4484 H 413.234 2.66173 4.0866 0
M  V30 4485 H 412.239 4.65386 2.92738 0
M  V30 4486 H 413.464 5.70822 3.67884 0
M  V30 4487 H 411.41 4.03401 5.17304 0
M  V30 4488 H 411.327 5.74559 4.91343 0
M  V30 4489 H 412.595 5.08879 5.90477 0
M  V30 4490 N 416.824 -0.551391 1.4764 0
M  V30 4491 C 418.101 -1.31229 1.45046 0
M  V30 4492 C 418.481 -2.10563 0.150527 0
M  V30 4493 O 417.829 -2.11374 -0.867956 0
M  V30 4494 C 418.039 -2.21189 2.69956 0
M  V30 4495 C 419.387 -2.82021 3.1741 0
M  V30 4496 O 420.411 -2.31488 2.70724 0
M  V30 4497 O 419.27 -3.73885 3.98588 0
M  V30 4498 H 416.364 -0.591193 0.578291 0
M  V30 4499 H 418.91 -0.569813 1.59847 0
M  V30 4500 H 417.682 -1.62207 3.56096 0
M  V30 4501 H 417.305 -3.02722 2.57769 0
M  V30 4502 N 418.302 -1.35869 -0.798587 0
M  V30 4503 C 419.579 -1.20145 -1.54352 0
M  V30 4504 C 419.959 0.216161 -2.0999 0
M  V30 4505 O 419.307 1.22068 -1.93162 0
M  V30 4506 C 419.517 -2.27602 -2.64572 0
M  V30 4507 C 420.865 -2.63811 -3.32699 0
M  V30 4508 O 421.889 -2.26576 -2.74849 0
M  V30 4509 O 420.748 -3.27866 -4.37226 0
M  V30 4510 H 417.842 -0.467248 -0.682355 0
M  V30 4511 H 420.388 -1.47574 -0.837859 0
M  V30 4512 H 419.16 -3.2265 -2.21388 0
M  V30 4513 H 418.783 -2.01488 -3.42766 0
M  V30 4514 N 419.78 1.02168 -1.19998 0
M  V30 4515 C 420.713 2.10232 -0.887558 0
M  V30 4516 C 421.691 1.61827 0.158317 0
M  V30 4517 O 422.875 1.88471 0.0330249 0
M  V30 4518 C 420.002 3.37092 -0.32964 0
M  V30 4519 C 419.048 4.0438 -1.3557 0
M  V30 4520 S 419.881 4.48956 -2.91888 0
M  V30 4521 C 421.037 5.79024 -2.37658 0
M  V30 4522 H 421.27 2.36409 -1.80272 0
M  V30 4523 H 418.803 1.15211 -1.0279 0
M  V30 4524 H 420.761 4.10498 -0.0142824 0
M  V30 4525 H 419.422 3.08996 0.563941 0
M  V30 4526 H 418.615 4.95632 -0.9146 0
M  V30 4527 H 418.217 3.37176 -1.61828 0
M  V30 4528 H 420.509 6.53942 -1.77103 0
M  V30 4529 H 421.452 6.27924 -3.27287 0
M  V30 4530 H 421.86 5.35043 -1.79971 0
M  V30 4531 N 421.258 1.00505 1.21394 0
M  V30 4532 C 422.669 0.721082 1.72213 0
M  V30 4533 C 423.02 -0.761263 1.80829 0
M  V30 4534 O 422.145 -1.59464 1.46288 0
M  V30 4535 C 422.74 1.30228 3.12772 0
M  V30 4536 C 421.299 1.06743 3.60947 0
M  V30 4537 C 420.446 1.41507 2.38477 0
M  V30 4538 H 423.397 1.17594 1.06571 0
M  V30 4539 H 423.418 0.686955 3.74247 0
M  V30 4540 H 422.93 2.38115 3.06468 0
M  V30 4541 H 421.031 0.00572162 3.726 0
M  V30 4542 H 421.144 1.73936 4.46411 0
M  V30 4543 H 419.508 0.833852 2.40664 0
M  V30 4544 H 420.291 2.50424 2.34824 0
M  V30 4545 N 422.737 -1.36956 0.779787 0
M  V30 4546 C 423.7 -2.2851 0.177662 0
M  V30 4547 C 424.7 -1.48393 -0.619377 0
M  V30 4548 O 425.89 -1.68505 -0.441785 0
M  V30 4549 C 423.022 -3.32428 -0.755279 0
M  V30 4550 H 424.215 -2.83269 0.984823 0
M  V30 4551 H 421.768 -1.46358 0.548544 0
M  V30 4552 H 422.503 -2.82808 -1.58714 0
M  V30 4553 H 422.288 -3.91659 -0.185817 0
M  V30 4554 H 423.778 -4.00824 -1.17174 0
M  V30 4555 N 424.215 -0.530993 -1.48385 0
M  V30 4556 C 425.626 -0.0907905 -1.86479 0
M  V30 4557 C 425.977 1.33213 -1.44044 0
M  V30 4558 O 425.102 1.99783 -0.831615 0
M  V30 4559 C 425.697 -0.157987 -3.38431 0
M  V30 4560 C 424.256 0.227026 -3.75715 0
M  V30 4561 C 423.403 -0.5173 -2.72432 0
M  V30 4562 H 426.354 -0.742186 -1.40276 0
M  V30 4563 H 426.375 0.630053 -3.75247 0
M  V30 4564 H 425.887 -1.19372 -3.69286 0
M  V30 4565 H 423.988 1.26486 -3.50474 0
M  V30 4566 H 424.101 -0.113288 -4.78966 0
M  V30 4567 H 422.465 0.0365527 -2.54674 0
M  V30 4568 H 423.248 -1.55368 -3.0613 0
M  V30 4569 N 425.693 1.55336 -0.266172 0
M  V30 4570 C 426.623 2.25146 0.618981 0
M  V30 4571 C 427.604 1.23845 1.16604 0
M  V30 4572 O 428.789 1.52544 1.20183 0
M  V30 4573 C 425.919 2.96572 1.80728 0
M  V30 4574 C 424.873 4.04726 1.39215 0
M  V30 4575 C 424.199 4.63678 2.66283 0
M  V30 4576 C 425.499 5.19407 0.548942 0
M  V30 4577 H 427.193 2.99377 0.0368116 0
M  V30 4578 H 424.739 1.43991 0.0162651 0
M  V30 4579 H 426.692 3.44116 2.43232 0
M  V30 4580 H 425.416 2.19861 2.41514 0
M  V30 4581 H 424.075 3.57979 0.790351 0
M  V30 4582 H 423.723 3.83646 3.25308 0
M  V30 4583 H 423.423 5.367 2.39222 0
M  V30 4584 H 424.947 5.13967 3.29651 0
M  V30 4585 H 426.361 5.63059 1.07876 0
M  V30 4586 H 424.758 5.98936 0.373593 0
M  V30 4587 H 425.828 4.8295 -0.434394 0
M  V30 4588 N 427.171 -0.0066808 1.57599 0
M  V30 4589 C 428.101 -0.999296 2.11036 0
M  V30 4590 C 429.082 -1.36278 1.01795 0
M  V30 4591 O 430.267 -1.4477 1.29442 0
M  V30 4592 C 427.397 -2.29328 2.60818 0
M  V30 4593 C 426.351 -2.07159 3.74525 0
M  V30 4594 C 425.677 -3.42512 4.10596 0
M  V30 4595 C 426.977 -1.43959 5.02069 0
M  V30 4596 H 428.671 -0.554382 2.94223 0
M  V30 4597 H 426.217 -0.265221 1.41536 0
M  V30 4598 H 428.17 -2.99117 2.96828 0
M  V30 4599 H 426.894 -2.7592 1.74745 0
M  V30 4600 H 425.553 -1.39797 3.38899 0
M  V30 4601 H 425.201 -3.86795 3.21556 0
M  V30 4602 H 424.901 -3.28498 4.87199 0
M  V30 4603 H 426.425 -4.13628 4.4916 0
M  V30 4604 H 427.839 -2.03696 5.35893 0
M  V30 4605 H 426.236 -1.40452 5.83432 0
M  V30 4606 H 427.306 -0.407992 4.83181 0
M  V30 4607 N 428.649 -1.55105 -0.279332 0
M  V30 4608 C 429.596 -1.8755 -1.34513 0
M  V30 4609 C 430.566 -0.726384 -1.49375 0
M  V30 4610 O 431.751 -0.977063 -1.63884 0
M  V30 4611 C 428.891 -2.14738 -2.70151 0
M  V30 4612 C 428.004 -3.42285 -2.63562 0
M  V30 4613 C 427.139 -3.59206 -3.91337 0
M  V30 4614 C 426.178 -4.80467 -3.79233 0
M  V30 4615 N 425.315 -4.94079 -4.98829 0
M  V30 4616 H 430.155 -2.78456 -1.06143 0
M  V30 4617 H 427.692 -1.37867 -0.512936 0
M  V30 4618 H 429.65 -2.28501 -3.49061 0
M  V30 4619 H 428.28 -1.27075 -2.96735 0
M  V30 4620 H 427.332 -3.37029 -1.76397 0
M  V30 4621 H 428.644 -4.31328 -2.50515 0
M  V30 4622 H 427.798 -3.72751 -4.78687 0
M  V30 4623 H 426.537 -2.68337 -4.07243 0
M  V30 4624 H 425.542 -4.66932 -2.90266 0
M  V30 4625 H 426.767 -5.72765 -3.64852 0
M  V30 4626 H 424.713 -4.06139 -5.15158 0
M  V30 4627 H 424.63 -5.77156 -4.8829 0
M  V30 4628 H 425.898 -5.12003 -5.8777 0
M  V30 4629 N 430.127 0.543554 -1.4793 0
M  V30 4630 C 431.075 1.67039 -1.61866 0
M  V30 4631 C 432.069 1.62294 -0.48549 0
M  V30 4632 O 433.275 1.67315 -0.66376 0
M  V30 4633 H 429.65 0.552954 -0.509652 0
M  V30 4634 H 431.621 1.52426 -2.56533 0
M  V30 4635 C 430.37 3.05357 -1.6629 0
M  V30 4636 H 429.693 3.09696 -2.5284 0
M  V30 4637 H 431.133 3.83855 -1.80088 0
M  V30 4638 C 429.592 3.34531 -0.398861 0
M  V30 4639 O 430.122 3.98649 0.494162 0
M  V30 4640 N 428.328 2.89299 -0.2747 0
M  V30 4641 H 427.875 2.37298 -1.00236 0
M  V30 4642 H 427.833 3.09188 0.570075 0
M  V30 4643 N 431.605 1.3629 0.791371 0
M  V30 4644 C 432.851 1.30605 1.55146 0
M  V30 4645 C 433.184 -0.115042 1.93859 0
M  V30 4646 O 432.459 -1.06798 1.62556 0
M  V30 4647 C 432.742 2.22692 2.82985 0
M  V30 4648 C 432.595 3.73489 2.50651 0
M  V30 4649 C 433.914 2.13588 3.84796 0
M  V30 4650 H 431.033 0.475761 0.562868 0
M  V30 4651 H 433.675 1.66825 0.909358 0
M  V30 4652 H 431.825 1.91933 3.37778 0
M  V30 4653 H 433.497 4.14758 2.01924 0
M  V30 4654 H 431.74 3.93021 1.83622 0
M  V30 4655 H 432.411 4.3333 3.41949 0
M  V30 4656 H 434.887 2.40659 3.39445 0
M  V30 4657 H 433.763 2.80195 4.71998 0
M  V30 4658 H 434.024 1.12256 4.27611 0
M  V30 4659 N 433.083 -1.0153 1.20538 0
M  V30 4660 C 434.015 -2.10224 0.913155 0
M  V30 4661 C 435.028 -1.62495 -0.0995998 0
M  V30 4662 O 436.217 -1.78014 0.131582 0
M  V30 4663 C 433.317 -3.37111 0.347717 0
M  V30 4664 C 432.49 -4.13971 1.41233 0
M  V30 4665 C 431.549 -5.19158 0.857976 0
M  V30 4666 O 430.575 -5.48 1.53897 0
M  V30 4667 N 431.777 -5.7955 -0.331966 0
M  V30 4668 H 434.542 -2.35879 1.84881 0
M  V30 4669 H 432.103 -1.17931 1.10923 0
M  V30 4670 H 434.095 -4.04683 -0.0373026 0
M  V30 4671 H 432.665 -3.08696 -0.492527 0
M  V30 4672 H 431.885 -3.41351 1.97163 0
M  V30 4673 H 433.173 -4.62103 2.12928 0
M  V30 4674 H 432.571 -5.58455 -0.902478 0
M  V30 4675 H 431.128 -6.48464 -0.65861 0
M  V30 4676 N 434.561 -1.01147 -1.20859 0
M  V30 4677 C 435.491 -0.597663 -2.25722 0
M  V30 4678 C 436.472 0.384744 -1.65692 0
M  V30 4679 O 437.657 0.271303 -1.92296 0
M  V30 4680 C 434.787 0.0700149 -3.47229 0
M  V30 4681 C 433.741 -0.832843 -4.19819 0
M  V30 4682 C 433.067 -0.0312202 -5.34691 0
M  V30 4683 C 434.367 -2.1385 -4.76514 0
M  V30 4684 H 436.061 -1.47423 -2.60589 0
M  V30 4685 H 433.607 -0.710301 -1.25263 0
M  V30 4686 H 435.56 0.37103 -4.19763 0
M  V30 4687 H 434.284 0.981259 -3.11511 0
M  V30 4688 H 432.943 -1.11778 -3.49144 0
M  V30 4689 H 432.591 0.881515 -4.95215 0
M  V30 4690 H 432.291 -0.632434 -5.84187 0
M  V30 4691 H 433.815 0.26346 -6.10031 0
M  V30 4692 H 435.229 -1.9002 -5.40893 0
M  V30 4693 H 433.626 -2.69012 -5.36426 0
M  V30 4694 H 434.696 -2.80495 -3.95538 0
M  V30 4695 N 436.039 1.36541 -0.78704 0
M  V30 4696 C 437.264 2.0409 -0.369053 0
M  V30 4697 C 437.689 1.58957 1.00569 0
M  V30 4698 O 437.047 0.756926 1.64743 0
M  V30 4699 C 437.095 3.57924 -0.438466 0
M  V30 4700 O 436.199 4.08642 0.555479 0
M  V30 4701 H 435.54 0.645142 -0.157122 0
M  V30 4702 H 438.07 1.74545 -1.06749 0
M  V30 4703 H 438.08 4.06887 -0.301218 0
M  V30 4704 H 436.755 3.90127 -1.44132 0
M  V30 4705 H 435.332 3.70958 0.380088 0
M  V30 4706 N 437.518 0.538854 1.48102 0
M  V30 4707 C 438.428 -0.222648 2.33541 0
M  V30 4708 C 439.444 -0.930225 1.47047 0
M  V30 4709 O 440.62 -0.903211 1.80011 0
M  V30 4710 C 437.685 -1.25064 3.23357 0
M  V30 4711 C 436.746 -0.552469 4.2573 0
M  V30 4712 C 435.979 -1.53149 5.11254 0
M  V30 4713 O 436.202 -2.76487 4.9891 0
M  V30 4714 O 435.136 -1.06602 5.92385 0
M  V30 4715 H 438.962 0.477707 2.99919 0
M  V30 4716 H 436.547 0.299669 1.46364 0
M  V30 4717 H 438.429 -1.8445 3.78888 0
M  V30 4718 H 437.104 -1.93325 2.59629 0
M  V30 4719 H 436.011 0.082114 3.7401 0
M  V30 4720 H 437.344 0.0883526 4.92121 0
M  V30 4721 N 438.996 -1.55193 0.274407 0
M  V30 4722 C 440.221 -2.04446 -0.348824 0
M  V30 4723 C 440.646 -1.15149 -1.48735 0
M  V30 4724 O 440.004 -0.149952 -1.80679 0
M  V30 4725 C 440.052 -3.51431 -0.808009 0
M  V30 4726 O 439.156 -3.65225 -1.91531 0
M  V30 4727 H 438.497 -0.66006 -0.0722276 0
M  V30 4728 H 441.027 -2.00481 0.408498 0
M  V30 4729 H 441.037 -3.92781 -1.10395 0
M  V30 4730 H 439.712 -4.15892 0.0249865 0
M  V30 4731 H 438.289 -3.35778 -1.62196 0
M  V30 4732 N 440.474 -0.00167713 -1.576 0
M  V30 4733 C 441.421 0.989195 -2.08527 0
M  V30 4734 C 442.391 1.34031 -0.981065 0
M  V30 4735 O 443.576 1.43839 -1.2536 0
M  V30 4736 C 440.716 2.27537 -2.59463 0
M  V30 4737 C 439.829 1.98314 -3.83791 0
M  V30 4738 C 438.964 3.21025 -4.23222 0
M  V30 4739 C 438.003 2.87495 -5.40382 0
M  V30 4740 N 437.14 4.02749 -5.75098 0
M  V30 4741 H 441.98 0.547973 -2.92919 0
M  V30 4742 H 439.517 0.258917 -1.44803 0
M  V30 4743 H 441.475 3.02729 -2.87073 0
M  V30 4744 H 440.105 2.69325 -1.77943 0
M  V30 4745 H 439.157 1.13482 -3.63078 0
M  V30 4746 H 440.469 1.69601 -4.69081 0
M  V30 4747 H 439.623 4.04561 -4.52123 0
M  V30 4748 H 438.362 3.52877 -3.36644 0
M  V30 4749 H 437.367 2.02367 -5.11202 0
M  V30 4750 H 438.592 2.56889 -6.28637 0
M  V30 4751 H 436.538 4.34494 -4.91478 0
M  V30 4752 H 436.455 3.77566 -6.54966 0
M  V30 4753 H 437.723 4.87068 -6.08592 0
M  V30 4754 N 441.952 1.55251 0.271103 0
M  V30 4755 C 442.915 1.87484 1.31842 0
M  V30 4756 C 443.915 0.749545 1.42262 0
M  V30 4757 O 445.105 1.01771 1.4138 0
M  V30 4758 C 442.237 2.0818 2.69951 0
M  V30 4759 H 443.43 2.81108 1.0449 0
M  V30 4760 H 440.983 1.47771 0.509258 0
M  V30 4761 H 441.718 1.16944 3.02481 0
M  V30 4762 H 441.503 2.90114 2.63774 0
M  V30 4763 H 442.993 2.34385 3.4562 0
M  V30 4764 N 443.43 -0.535701 1.48216 0
M  V30 4765 C 444.846 -0.863701 1.3421 0
M  V30 4766 C 445.046 -1.98458 0.34879 0
M  V30 4767 O 444.102 -2.51432 -0.23204 0
M  V30 4768 C 445.415 -1.23662 2.74095 0
M  V30 4769 C 446.963 -1.34683 2.82541 0
M  V30 4770 C 447.438 -1.75322 4.23115 0
M  V30 4771 N 448.929 -1.82434 4.2576 0
M  V30 4772 C 449.664 -2.15252 5.31464 0
M  V30 4773 N 449.16 -2.46533 6.47452 0
M  V30 4774 N 450.953 -2.16209 5.18855 0
M  V30 4775 H 443.104 0.203965 2.11418 0
M  V30 4776 H 445.367 0.0286033 0.947568 0
M  V30 4777 H 445.073 -0.486674 3.48316 0
M  V30 4778 H 444.947 -2.18805 3.07253 0
M  V30 4779 H 447.334 -2.08756 2.08579 0
M  V30 4780 H 447.415 -0.376756 2.5301 0
M  V30 4781 H 447.059 -1.01812 4.97591 0
M  V30 4782 H 446.989 -2.7337 4.50085 0
M  V30 4783 H 449.48 -1.6056 3.42095 0
M  V30 4784 H 449.793 -2.70662 7.23852 0
M  V30 4785 H 448.138 -2.44065 6.50736 0
M  V30 4786 H 451.329 -1.91224 4.2726 0
M  V30 4787 H 451.502 -2.41453 6.01335 0
M  V30 4788 N 444.908 -1.36708 -0.784132 0
M  V30 4789 C 445.818 -1.3363 -1.92822 0
M  V30 4790 C 446.834 -0.237686 -1.72369 0
M  V30 4791 O 448.01 -0.470962 -1.95816 0
M  V30 4792 C 445.075 -1.13011 -3.27764 0
M  V30 4793 C 444.136 -2.32397 -3.60957 0
M  V30 4794 C 443.369 -2.12752 -4.89461 0
M  V30 4795 O 443.592 -1.10541 -5.59586 0
M  V30 4796 O 442.526 -3.00653 -5.21432 0
M  V30 4797 H 446.352 -2.29964 -1.98369 0
M  V30 4798 H 443.937 -1.1731 -0.925136 0
M  V30 4799 H 445.819 -1.03451 -4.08504 0
M  V30 4800 H 444.494 -0.19743 -3.23097 0
M  V30 4801 H 443.401 -2.47527 -2.80502 0
M  V30 4802 H 444.734 -3.2419 -3.70354 0
M  V30 4803 N 446.386 1.0089 -1.21074 0
M  V30 4804 C 447.316 2.1145 -0.990523 0
M  V30 4805 C 448.297 1.69897 0.0831699 0
M  V30 4806 O 449.482 1.94052 -0.0758853 0
M  V30 4807 C 446.612 3.42914 -0.550177 0
M  V30 4808 C 445.566 3.98244 -1.56799 0
M  V30 4809 C 444.892 5.25568 -0.984013 0
M  V30 4810 C 446.192 4.30752 -2.95381 0
M  V30 4811 H 447.886 2.3013 -1.91521 0
M  V30 4812 H 445.432 1.10592 -0.92225 0
M  V30 4813 H 447.385 4.19653 -0.383305 0
M  V30 4814 H 446.109 3.24014 0.41015 0
M  V30 4815 H 444.768 3.23621 -1.72236 0
M  V30 4816 H 444.416 5.02998 -0.0155216 0
M  V30 4817 H 444.116 5.63551 -1.66384 0
M  V30 4818 H 445.64 6.04955 -0.828378 0
M  V30 4819 H 447.054 4.98349 -2.8341 0
M  V30 4820 H 445.451 4.79869 -3.60341 0
M  V30 4821 H 446.521 3.39192 -3.46521 0
M  V30 4822 N 447.864 1.01787 1.20321 0
M  V30 4823 C 449.094 0.72614 1.93419 0
M  V30 4824 C 449.502 -0.717317 1.75075 0
M  V30 4825 O 448.845 -1.49836 1.06278 0
M  V30 4826 C 448.907 0.983621 3.45782 0
M  V30 4827 C 448.571 2.41645 3.87888 0
M  V30 4828 C 449.568 3.39732 3.93545 0
M  V30 4829 C 447.253 2.75752 4.19841 0
M  V30 4830 C 449.247 4.69988 4.30569 0
M  V30 4831 C 446.934 4.06221 4.56539 0
M  V30 4832 C 447.932 5.0315 4.61876 0
M  V30 4833 O 447.62 6.31284 4.97731 0
M  V30 4834 H 447.352 0.265824 0.621541 0
M  V30 4835 H 449.906 1.3623 1.53722 0
M  V30 4836 H 448.136 0.290301 3.85609 0
M  V30 4837 H 449.825 0.683279 4.00108 0
M  V30 4838 H 450.591 3.14718 3.69022 0
M  V30 4839 H 446.47 2.00993 4.14877 0
M  V30 4840 H 450.014 5.45642 4.3465 0
M  V30 4841 H 445.911 4.31013 4.80518 0
M  V30 4842 H 446.679 6.35591 5.15719 0
M  V30 4843 N 449.342 -1.36122 0.79427 0
M  V30 4844 C 450.272 -2.32551 0.210328 0
M  V30 4845 C 451.253 -1.56884 -0.657386 0
M  V30 4846 O 452.438 -1.85014 -0.590207 0
M  V30 4847 C 449.568 -3.41128 -0.651819 0
M  V30 4848 C 448.522 -4.27842 0.116395 0
M  V30 4849 C 447.848 -5.2763 -0.86666 0
M  V30 4850 C 449.148 -5.05647 1.30837 0
M  V30 4851 H 450.842 -2.81636 1.01594 0
M  V30 4852 H 448.388 -1.35407 0.489981 0
M  V30 4853 H 450.341 -4.07581 -1.07031 0
M  V30 4854 H 449.065 -2.90622 -1.49019 0
M  V30 4855 H 447.724 -3.62952 0.515915 0
M  V30 4856 H 447.372 -4.73395 -1.70019 0
M  V30 4857 H 447.072 -5.86514 -0.35705 0
M  V30 4858 H 448.596 -5.96955 -1.28361 0
M  V30 4859 H 450.01 -5.65113 0.965393 0
M  V30 4860 H 448.407 -5.73967 1.75161 0
M  V30 4861 H 449.477 -4.37006 2.10128 0
M  V30 4862 N 450.82 -0.546701 -1.47814 0
M  V30 4863 C 451.752 0.244196 -2.27895 0
M  V30 4864 C 452.765 0.88911 -1.36377 0
M  V30 4865 O 453.954 0.764733 -1.61289 0
M  V30 4866 C 451.054 1.36252 -3.10304 0
M  V30 4867 C 450.227 0.816382 -4.29714 0
M  V30 4868 C 449.286 1.81789 -4.93801 0
M  V30 4869 O 448.312 1.36818 -5.52512 0
M  V30 4870 N 449.514 3.15085 -4.87547 0
M  V30 4871 H 452.279 -0.442694 -2.96412 0
M  V30 4872 H 449.84 -0.382095 -1.57327 0
M  V30 4873 H 451.832 2.03102 -3.50045 0
M  V30 4874 H 450.402 1.95281 -2.44099 0
M  V30 4875 H 449.622 -0.0285981 -3.9419 0
M  V30 4876 H 450.91 0.430668 -5.06974 0
M  V30 4877 H 450.308 3.54275 -4.41028 0
M  V30 4878 H 448.865 3.77522 -5.31339 0
M  V30 4879 N 452.299 1.55045 -0.282633 0
M  V30 4880 C 453.545 2.00056 0.332481 0
M  V30 4881 C 453.878 1.1708 1.54939 0
M  V30 4882 O 453.153 0.2427 1.9298 0
M  V30 4883 C 453.436 3.53086 0.70725 0
M  V30 4884 C 453.289 4.46813 -0.517521 0
M  V30 4885 C 454.608 4.12245 1.54084 0
M  V30 4886 H 451.727 0.727268 0.119373 0
M  V30 4887 H 454.369 1.85932 -0.391076 0
M  V30 4888 H 452.519 3.65253 1.32372 0
M  V30 4889 H 454.191 4.46579 -1.15607 0
M  V30 4890 H 452.434 4.18163 -1.1542 0
M  V30 4891 H 453.105 5.51595 -0.211426 0
M  V30 4892 H 455.581 4.03401 1.02013 0
M  V30 4893 H 454.457 5.19515 1.77186 0
M  V30 4894 H 454.718 3.62951 2.52427 0
M  V30 4895 N 453.777 0.010035 1.57597 0
M  V30 4896 C 455.026 -0.671945 1.90178 0
M  V30 4897 C 455.339 -1.74376 0.886131 0
M  V30 4898 O 456.545 -2.48107 1.10252 0
M  V30 4899 C 455.001 -1.24636 3.3763 0
M  V30 4900 C 454.609 -0.208838 4.47513 0
M  V30 4901 C 456.353 -1.90595 3.79307 0
M  V30 4902 C 454.26 -0.793814 5.86048 0
M  V30 4903 H 453.19 -0.25474 0.709665 0
M  V30 4904 H 455.841 0.0722206 1.83358 0
M  V30 4905 H 454.223 -2.04152 3.3932 0
M  V30 4906 H 455.397 0.562463 4.57354 0
M  V30 4907 H 453.712 0.350889 4.14919 0
M  V30 4908 H 456.309 -2.35284 4.80151 0
M  V30 4909 H 456.652 -2.74074 3.13352 0
M  V30 4910 H 457.185 -1.17798 3.79958 0
M  V30 4911 H 453.924 0.00240855 6.555 0
M  V30 4912 H 453.444 -1.53404 5.79851 0
M  V30 4913 H 455.123 -1.2894 6.34022 0
M  V30 4914 N 455.255 -1.55392 -0.262866 0
M  V30 4915 C 456.187 -1.85392 -1.34768 0
M  V30 4916 C 457.2 -0.739069 -1.45057 0
M  V30 4917 O 458.389 -1.01703 -1.46693 0
M  V30 4918 C 455.489 -2.01088 -2.72795 0
M  V30 4919 C 454.662 -3.31828 -2.84972 0
M  V30 4920 C 453.721 -3.37464 -4.03738 0
M  V30 4921 O 452.747 -4.10778 -3.94018 0
M  V30 4922 N 453.949 -2.65599 -5.16176 0
M  V30 4923 H 456.714 -2.79029 -1.09375 0
M  V30 4924 H 454.275 -1.55434 -0.452981 0
M  V30 4925 H 456.267 -2.02217 -3.50557 0
M  V30 4926 H 454.837 -1.1427 -2.90966 0
M  V30 4927 H 454.057 -3.43152 -1.94012 0
M  V30 4928 H 455.345 -4.18032 -2.90045 0
M  V30 4929 H 454.743 -2.05736 -5.26962 0
M  V30 4930 H 453.3 -2.72439 -5.92132 0
M  V30 4931 N 456.733 0.527833 -1.48498 0
M  V30 4932 C 457.963 1.30633 -1.60058 0
M  V30 4933 C 458.371 1.87394 -0.260786 0
M  V30 4934 O 457.714 1.67227 0.760317 0
M  V30 4935 C 457.776 2.49361 -2.58958 0
M  V30 4936 C 457.44 2.13671 -4.03972 0
M  V30 4937 C 458.437 1.69217 -4.91591 0
M  V30 4938 C 456.122 2.24129 -4.49524 0
M  V30 4939 C 458.116 1.35689 -6.2279 0
M  V30 4940 C 455.803 1.90212 -5.80743 0
M  V30 4941 C 456.801 1.46063 -6.67199 0
M  V30 4942 O 456.489 1.12593 -7.95976 0
M  V30 4943 H 456.221 0.403444 -0.54241 0
M  V30 4944 H 458.775 0.643233 -1.95068 0
M  V30 4945 H 457.005 3.18659 -2.19073 0
M  V30 4946 H 458.694 3.11421 -2.6033 0
M  V30 4947 H 459.46 1.60607 -4.57636 0
M  V30 4948 H 455.339 2.57447 -3.82416 0
M  V30 4949 H 458.883 1.01157 -6.90227 0
M  V30 4950 H 454.78 1.98464 -6.14233 0
M  V30 4951 H 455.548 1.25972 -8.08748 0
M  V30 4952 N 458.211 1.37122 0.776871 0
M  V30 4953 C 459.144 1.26835 1.89705 0
M  V30 4954 C 460.122 0.14992 1.61907 0
M  V30 4955 O 461.306 0.323242 1.85708 0
M  V30 4956 C 458.433 0.95986 3.24814 0
M  V30 4957 C 457.479 2.09447 3.7153 0
M  V30 4958 S 458.312 3.71368 3.85806 0
M  V30 4959 C 459.468 3.42659 5.23771 0
M  V30 4960 H 459.701 2.21647 1.98141 0
M  V30 4961 H 457.234 1.22685 0.937433 0
M  V30 4962 H 459.192 0.788696 4.02852 0
M  V30 4963 H 457.853 0.0293137 3.14086 0
M  V30 4964 H 457.046 1.8335 4.69467 0
M  V30 4965 H 456.648 2.2255 3.00578 0
M  V30 4966 H 458.94 2.9733 6.0877 0
M  V30 4967 H 459.883 4.39905 5.54878 0
M  V30 4968 H 460.291 2.77708 4.91466 0
M  V30 4969 N 459.689 -1.00246 1.21608 0
M  V30 4970 C 461.105 -1.26435 0.973975 0
M  V30 4971 C 461.305 -1.98642 -0.338143 0
M  V30 4972 O 460.361 -2.29026 -1.06317 0
M  V30 4973 C 461.674 -2.08551 2.16626 0
M  V30 4974 C 463.222 -2.21769 2.20879 0
M  V30 4975 C 463.697 -3.07267 3.39633 0
M  V30 4976 N 465.188 -3.14855 3.39736 0
M  V30 4977 C 465.923 -3.81274 4.28273 0
M  V30 4978 N 465.419 -4.497 5.27012 0
M  V30 4979 N 467.212 -3.7794 4.16074 0
M  V30 4980 H 459.363 -0.518089 2.05984 0
M  V30 4981 H 461.626 -0.291368 0.902113 0
M  V30 4982 H 461.332 -1.62847 3.11727 0
M  V30 4983 H 461.206 -3.09303 2.15897 0
M  V30 4984 H 463.593 -2.66691 1.26332 0
M  V30 4985 H 463.674 -1.20478 2.25652 0
M  V30 4986 H 463.318 -2.63047 4.34475 0
M  V30 4987 H 463.248 -4.08678 3.321 0
M  V30 4988 H 465.739 -2.66147 2.6828 0
M  V30 4989 H 466.052 -4.98092 5.90867 0
M  V30 4990 H 464.397 -4.48479 5.30935 0
M  V30 4991 H 467.588 -3.23638 3.38195 0
M  V30 4992 H 467.761 -4.29424 4.85282 0
M  V30 4993 N 461.167 -1.02423 -1.1978 0
M  V30 4994 C 462.583 -0.740459 -1.41384 0
M  V30 4995 C 462.783 0.676827 -1.89793 0
M  V30 4996 O 461.839 1.4435 -2.0717 0
M  V30 4997 C 463.152 -1.77264 -2.42895 0
M  V30 4998 C 464.7 -1.79165 -2.56649 0
M  V30 4999 C 465.175 -2.8133 -3.6141 0
M  V30 5000 N 466.666 -2.80118 -3.68901 0
M  V30 5001 C 467.401 -3.55824 -4.49641 0
M  V30 5002 N 466.897 -4.41231 -5.34123 0
M  V30 5003 N 468.69 -3.44387 -4.44246 0
M  V30 5004 H 460.841 -1.9391 -0.866764 0
M  V30 5005 H 463.104 -0.838074 -0.443098 0
M  V30 5006 H 462.81 -2.7884 -2.14339 0
M  V30 5007 H 462.684 -1.59108 -3.42001 0
M  V30 5008 H 465.071 -0.782702 -2.84531 0
M  V30 5009 H 465.152 -2.01396 -1.57713 0
M  V30 5010 H 464.796 -3.82394 -3.34271 0
M  V30 5011 H 464.726 -2.56359 -4.59986 0
M  V30 5012 H 467.217 -2.1817 -3.08562 0
M  V30 5013 H 467.53 -4.95747 -5.92836 0
M  V30 5014 H 465.875 -4.45306 -5.33599 0
M  V30 5015 H 469.066 -2.7708 -3.77285 0
M  V30 5016 H 469.239 -4.0364 -5.06931 0
M  V30 5017 N 462.645 1.35699 -0.801477 0
M  V30 5018 C 463.578 2.2768 -0.153922 0
M  V30 5019 C 464.556 1.47832 0.67709 0
M  V30 5020 O 465.74 1.77104 0.645474 0
M  V30 5021 C 462.867 3.2943 0.786986 0
M  V30 5022 C 461.913 4.26485 0.0362447 0
M  V30 5023 S 462.746 5.19573 -1.2963 0
M  V30 5024 C 463.902 6.24866 -0.359705 0
M  V30 5025 H 464.135 2.82254 -0.9338 0
M  V30 5026 H 461.668 1.42421 -0.596283 0
M  V30 5027 H 463.626 3.8855 1.32436 0
M  V30 5028 H 462.287 2.73745 1.54021 0
M  V30 5029 H 461.48 4.98378 0.750668 0
M  V30 5030 H 461.082 3.71508 -0.431017 0
M  V30 5031 H 463.374 6.75957 0.456954 0
M  V30 5032 H 464.317 7.00307 -1.04768 0
M  V30 5033 H 464.725 5.64484 0.0423274 0
M  V30 5034 N 464.123 0.554532 1.47522 0
M  V30 5035 C 465.353 0.0342074 2.06572 0
M  V30 5036 C 465.761 -1.26375 1.40805 0
M  V30 5037 O 465.104 -1.7683 0.49769 0
M  V30 5038 C 465.166 -0.235096 3.5873 0
M  V30 5039 C 464.83 0.973024 4.46521 0
M  V30 5040 C 465.827 1.8779 4.848 0
M  V30 5041 C 463.512 1.18694 4.88075 0
M  V30 5042 C 465.506 2.98039 5.63428 0
M  V30 5043 C 463.193 2.29254 5.66468 0
M  V30 5044 C 464.191 3.18757 6.04055 0
M  V30 5045 O 463.879 4.27401 6.8087 0
M  V30 5046 H 463.611 0.041587 0.67472 0
M  V30 5047 H 466.165 0.766748 1.90552 0
M  V30 5048 H 464.395 -1.02191 3.72953 0
M  V30 5049 H 466.084 -0.700477 3.9981 0
M  V30 5050 H 466.85 1.72467 4.53299 0
M  V30 5051 H 462.729 0.49947 4.58286 0
M  V30 5052 H 466.273 3.67926 5.92685 0
M  V30 5053 H 462.17 2.4455 5.97382 0
M  V30 5054 H 462.938 4.25415 6.9926 0
M  V30 5055 N 465.601 -1.54893 0.290851 0
M  V30 5056 C 466.533 -2.20564 -0.623236 0
M  V30 5057 C 467.546 -1.19519 -1.1054 0
M  V30 5058 O 468.735 -1.46165 -1.02459 0
M  V30 5059 C 465.835 -2.83033 -1.86401 0
M  V30 5060 C 465.008 -4.09916 -1.52604 0
M  V30 5061 C 464.067 -4.56284 -2.62091 0
M  V30 5062 O 463.093 -5.2171 -2.27612 0
M  V30 5063 N 464.295 -4.27746 -3.92446 0
M  V30 5064 H 467.06 -2.99638 -0.0610915 0
M  V30 5065 H 464.621 -1.61508 0.112615 0
M  V30 5066 H 466.613 -3.1099 -2.58973 0
M  V30 5067 H 465.183 -2.0786 -2.33481 0
M  V30 5068 H 464.403 -3.89078 -0.633424 0
M  V30 5069 H 465.691 -4.92554 -1.27547 0
M  V30 5070 H 465.089 -3.7531 -4.23272 0
M  V30 5071 H 463.646 -4.60437 -4.61347 0
M  V30 5072 N 467.08 -0.0183926 -1.57589 0
M  V30 5073 C 468.357 0.700621 -1.82622 0
M  V30 5074 C 468.737 1.90951 -0.90005 0
M  V30 5075 O 468.085 2.28452 0.0469145 0
M  V30 5076 C 468.295 1.08899 -3.31575 0
M  V30 5077 C 469.643 1.48514 -3.9778 0
M  V30 5078 O 470.667 1.18227 -3.36007 0
M  V30 5079 O 469.526 2.04903 -5.06633 0
M  V30 5080 H 466.62 0.342743 -0.752633 0
M  V30 5081 H 469.166 -0.0452548 -1.6964 0
M  V30 5082 H 467.938 0.228113 -3.90635 0
M  V30 5083 H 467.561 1.89338 -3.49624 0
M  V30 5084 N 468.558 1.5553 0.254621 0
M  V30 5085 C 469.521 1.88872 1.29846 0
M  V30 5086 C 470.521 0.764591 1.41459 0
M  V30 5087 O 471.711 1.03265 1.40293 0
M  V30 5088 C 468.843 2.11032 2.67728 0
M  V30 5089 H 470.036 2.82201 1.01502 0
M  V30 5090 H 467.589 1.48303 0.493556 0
M  V30 5091 H 468.324 1.20146 3.01223 0
M  V30 5092 H 468.109 2.92895 2.60682 0
M  V30 5093 H 469.599 2.38038 3.43115 0
M  V30 5094 N 470.036 -0.519951 1.48776 0
M  V30 5095 C 471.452 -0.849418 1.35119 0
M  V30 5096 C 471.652 -1.98077 0.36982 0
M  V30 5097 O 470.708 -2.51664 -0.205359 0
M  V30 5098 C 472.021 -1.20748 2.75391 0
M  V30 5099 C 473.569 -1.31679 2.83954 0
M  V30 5100 C 474.044 -1.70824 4.24951 0
M  V30 5101 N 475.535 -1.77908 4.27672 0
M  V30 5102 C 476.27 -2.09603 5.33717 0
M  V30 5103 N 475.766 -2.39652 6.5003 0
M  V30 5104 N 477.559 -2.10694 5.21119 0
M  V30 5105 H 469.71 0.226377 2.1119 0
M  V30 5106 H 471.973 0.0386519 0.947212 0
M  V30 5107 H 471.679 -0.449703 3.48813 0
M  V30 5108 H 471.553 -2.15534 3.09556 0
M  V30 5109 H 473.94 -2.06532 2.10781 0
M  V30 5110 H 474.021 -0.3499 2.53396 0
M  V30 5111 H 473.665 -0.965282 4.98643 0
M  V30 5112 H 473.595 -2.6858 4.52959 0
M  V30 5113 H 476.086 -1.56923 3.43779 0
M  V30 5114 H 476.399 -2.6297 7.26682 0
M  V30 5115 H 474.744 -2.37149 6.53288 0
M  V30 5116 H 477.935 -1.86682 4.29264 0
M  V30 5117 H 478.108 -2.35062 6.03863 0
M  V30 5118 N 471.514 -1.37532 -0.769588 0
M  V30 5119 C 472.444 -1.36172 -1.89682 0
M  V30 5120 C 473.425 -0.23001 -1.68538 0
M  V30 5121 O 474.61 -0.43069 -1.89364 0
M  V30 5122 C 471.74 -1.1701 -3.26995 0
M  V30 5123 C 470.694 -2.27216 -3.62708 0
M  V30 5124 C 470.02 -1.93174 -4.98586 0
M  V30 5125 C 471.32 -3.6941 -3.69234 0
M  V30 5126 H 473.014 -2.30499 -1.91078 0
M  V30 5127 H 470.56 -1.10953 -0.917902 0
M  V30 5128 H 472.513 -1.14688 -4.05493 0
M  V30 5129 H 471.237 -0.191395 -3.26039 0
M  V30 5130 H 469.896 -2.28697 -2.86519 0
M  V30 5131 H 469.544 -0.938281 -4.94171 0
M  V30 5132 H 469.244 -2.66973 -5.23449 0
M  V30 5133 H 470.768 -1.92443 -5.79481 0
M  V30 5134 H 472.182 -3.70047 -4.37879 0
M  V30 5135 H 470.579 -4.4228 -4.05597 0
M  V30 5136 H 471.649 -4.0288 -2.69844 0
M  V30 5137 N 472.992 0.995999 -1.22138 0
M  V30 5138 C 474.238 1.73767 -1.04561 0
M  V30 5139 C 474.571 1.89633 0.418698 0
M  V30 5140 O 473.846 1.43723 1.3105 0
M  V30 5141 C 474.129 3.14505 -1.75382 0
M  V30 5142 C 473.982 3.06306 -3.29388 0
M  V30 5143 C 475.301 4.13615 -1.50369 0
M  V30 5144 H 472.42 0.630728 -0.38125 0
M  V30 5145 H 475.062 1.16057 -1.50435 0
M  V30 5146 H 473.212 3.63775 -1.36383 0
M  V30 5147 H 474.884 2.64681 -3.77812 0
M  V30 5148 H 473.127 2.43186 -3.59226 0
M  V30 5149 H 473.798 4.05884 -3.74116 0
M  V30 5150 H 476.274 3.73089 -1.84239 0
M  V30 5151 H 475.15 5.10212 -2.02421 0
M  V30 5152 H 475.411 4.39949 -0.435611 0
M  V30 5153 N 474.47 1.03057 1.19235 0
M  V30 5154 C 475.42 0.583386 2.2041 0
M  V30 5155 C 476.404 -0.368776 1.56617 0
M  V30 5156 O 477.596 -0.189471 1.75983 0
M  V30 5157 C 474.725 -0.0626534 3.43243 0
M  V30 5158 C 473.811 0.91205 4.14177 0
M  V30 5159 N 474.202 2.07514 4.61272 0
M  V30 5160 C 472.5 0.735859 4.39888 0
M  V30 5161 C 473.201 2.69003 5.15764 0
M  V30 5162 N 472.177 1.96954 5.06666 0
M  V30 5163 H 475.979 1.46988 2.54503 0
M  V30 5164 H 473.493 0.897785 1.35328 0
M  V30 5165 H 475.49 -0.400653 4.1497 0
M  V30 5166 H 474.15 -0.944813 3.1065 0
M  V30 5167 H 475.161 2.45448 4.56043 0
M  V30 5168 H 471.838 -0.0970656 4.17387 0
M  V30 5169 H 473.228 3.67514 5.6248 0
M  V30 5170 N 475.948 -1.35272 0.808662 0
M  V30 5171 C 476.911 -2.28082 0.226093 0
M  V30 5172 C 477.911 -1.49673 -0.587762 0
M  V30 5173 O 479.101 -1.69404 -0.405943 0
M  V30 5174 C 476.233 -3.33955 -0.684596 0
M  V30 5175 H 477.426 -2.81116 1.04469 0
M  V30 5176 H 474.979 -1.45162 0.579466 0
M  V30 5177 H 475.714 -2.86111 -1.5268 0
M  V30 5178 H 475.499 -3.91965 -0.102699 0
M  V30 5179 H 476.989 -4.03219 -1.08646 0
M  V30 5180 N 477.426 -0.562348 -1.47226 0
M  V30 5181 C 478.703 0.0256985 -1.95583 0
M  V30 5182 C 479.083 1.48032 -1.50498 0
M  V30 5183 O 478.431 2.15973 -0.746181 0
M  V30 5184 C 478.641 -0.125129 -3.48776 0
M  V30 5185 C 479.989 0.0175728 -4.24596 0
M  V30 5186 O 481.013 -0.0529341 -3.56161 0
M  V30 5187 O 479.872 0.170145 -5.46235 0
M  V30 5188 H 476.966 0.0612565 -0.824728 0
M  V30 5189 H 479.512 -0.629233 -1.57603 0
M  V30 5190 H 478.284 -1.13715 -3.74412 0
M  V30 5191 H 477.907 0.567178 -3.93534 0
M  V30 5192 N 478.904 1.54736 -0.299062 0
M  V30 5193 C 479.834 2.26409 0.571085 0
M  V30 5194 C 480.815 1.2629 1.13951 0
M  V30 5195 O 482 1.55059 1.16921 0
M  V30 5196 C 479.13 3.00338 1.74396 0
M  V30 5197 C 478.084 4.07588 1.30599 0
M  V30 5198 C 477.41 4.69222 2.56387 0
M  V30 5199 C 478.71 5.20455 0.438645 0
M  V30 5200 H 480.404 2.99388 -0.0266991 0
M  V30 5201 H 477.95 1.43993 -0.0142812 0
M  V30 5202 H 479.903 3.49198 2.35878 0
M  V30 5203 H 478.627 2.24934 2.36796 0
M  V30 5204 H 477.286 3.59575 0.71424 0
M  V30 5205 H 476.934 3.9046 3.17097 0
M  V30 5206 H 476.634 5.41653 2.27784 0
M  V30 5207 H 478.158 5.20844 3.18675 0
M  V30 5208 H 479.572 5.65221 0.959085 0
M  V30 5209 H 477.969 5.99594 0.246466 0
M  V30 5210 H 479.039 4.8192 -0.536738 0
M  V30 5211 N 480.382 0.0267497 1.57577 0
M  V30 5212 C 481.607 -0.666227 1.96408 0
M  V30 5213 C 482.032 -1.65004 0.903071 0
M  V30 5214 O 481.39 -1.80787 -0.136263 0
M  V30 5215 C 481.438 -1.35101 3.34335 0
M  V30 5216 O 480.542 -2.46623 3.30531 0
M  V30 5217 H 479.883 -0.175206 0.640468 0
M  V30 5218 H 482.413 0.0878977 2.04411 0
M  V30 5219 H 482.423 -1.70834 3.70513 0
M  V30 5220 H 481.098 -0.629844 4.11103 0
M  V30 5221 H 479.675 -2.13019 3.06068 0
M  V30 5222 N 481.861 -1.55662 -0.24637 0
M  V30 5223 C 482.771 -1.93495 -1.32653 0
M  V30 5224 C 483.787 -0.835462 -1.5263 0
M  V30 5225 O 484.963 -1.1369 -1.66242 0
M  V30 5226 C 482.028 -2.22242 -2.66101 0
M  V30 5227 C 481.089 -3.45625 -2.54641 0
M  V30 5228 C 480.322 -3.72991 -3.81724 0
M  V30 5229 O 480.545 -3.02421 -4.8363 0
M  V30 5230 O 479.479 -4.66515 -3.80325 0
M  V30 5231 H 483.305 -2.85498 -1.03559 0
M  V30 5232 H 480.89 -1.42551 -0.44717 0
M  V30 5233 H 482.772 -2.42037 -3.44958 0
M  V30 5234 H 481.447 -1.33417 -2.94926 0
M  V30 5235 H 480.354 -3.31136 -1.74067 0
M  V30 5236 H 481.687 -4.34754 -2.3076 0
M  V30 5237 N 483.339 0.512053 -1.4905 0
M  V30 5238 C 484.586 1.26686 -1.57978 0
M  V30 5239 C 484.914 1.92733 -0.261553 0
M  V30 5240 O 484.169 1.80772 0.749667 0
M  V30 5241 C 484.468 2.36446 -2.68008 0
M  V30 5242 C 484.134 1.87932 -4.09869 0
M  V30 5243 C 482.796 1.74419 -4.48477 0
M  V30 5244 C 485.148 1.5149 -4.98698 0
M  V30 5245 C 482.476 1.22827 -5.73699 0
M  V30 5246 C 484.828 1.01355 -6.24428 0
M  V30 5247 C 483.492 0.864735 -6.61875 0
M  V30 5248 H 482.762 0.463577 -0.578081 0
M  V30 5249 H 485.409 0.569421 -1.82838 0
M  V30 5250 H 483.714 3.11933 -2.37076 0
M  V30 5251 H 485.411 2.9453 -2.72127 0
M  V30 5252 H 482.001 1.99405 -3.79389 0
M  V30 5253 H 486.185 1.60782 -4.69535 0
M  V30 5254 H 481.441 1.10008 -6.01422 0
M  V30 5255 H 485.615 0.722351 -6.92644 0
M  V30 5256 H 483.242 0.462777 -7.5879 0
M  V30 5257 N 484.817 1.37938 0.762283 0
M  V30 5258 C 485.765 1.34569 1.89721 0
M  V30 5259 C 486.759 0.232929 1.67791 0
M  V30 5260 O 487.965 0.401485 1.75465 0
M  V30 5261 H 484.34 0.419594 0.624055 0
M  V30 5262 H 486.311 2.30357 1.8968 0
M  V30 5263 C 485.06 1.17898 3.27101 0
M  V30 5264 H 484.383 2.02781 3.44558 0
M  V30 5265 H 485.823 1.19593 4.06784 0
M  V30 5266 C 484.282 -0.114728 3.36705 0
M  V30 5267 O 484.812 -1.0949 3.8649 0
M  V30 5268 N 483.018 -0.16863 2.9011 0
M  V30 5269 H 482.565 0.62967 2.49786 0
M  V30 5270 H 482.523 -1.03383 2.96916 0
M  V30 5271 N 486.295 -0.989507 1.22664 0
M  V30 5272 C 487.228 -2.07805 0.942985 0
M  V30 5273 C 488.206 -1.6219 -0.115356 0
M  V30 5274 O 489.39 -1.88492 0.0169565 0
M  V30 5275 C 486.517 -3.361 0.418898 0
M  V30 5276 C 485.563 -4.00643 1.46244 0
M  V30 5277 S 486.396 -4.41059 3.03689 0
M  V30 5278 C 487.552 -5.7252 2.52927 0
M  V30 5279 H 487.785 -2.31547 1.86476 0
M  V30 5280 H 485.318 -1.12446 1.05808 0
M  V30 5281 H 487.276 -4.10315 0.123114 0
M  V30 5282 H 485.937 -3.10383 -0.481818 0
M  V30 5283 H 485.13 -4.93033 1.04569 0
M  V30 5284 H 484.732 -3.32767 1.7071 0
M  V30 5285 H 487.024 -6.49017 1.94379 0
M  V30 5286 H 487.967 -6.19026 3.4382 0
M  V30 5287 H 488.375 -5.30083 1.94094 0
M  V30 5288 N 487.773 -1.03688 -1.18687 0
M  V30 5289 C 488.703 -0.645407 -2.24403 0
M  V30 5290 C 489.684 0.349511 -1.66471 0
M  V30 5291 O 490.869 0.230453 -1.92828 0
M  V30 5292 C 487.999 -0.00365337 -3.473 0
M  V30 5293 C 486.953 -0.921705 -4.17958 0
M  V30 5294 C 486.279 -0.144629 -5.34504 0
M  V30 5295 C 487.579 -2.23909 -4.71871 0
M  V30 5296 H 489.273 -1.52917 -2.57404 0
M  V30 5297 H 486.819 -0.736711 -1.23728 0
M  V30 5298 H 488.772 0.281908 -4.20456 0
M  V30 5299 H 487.496 0.914963 -3.13522 0
M  V30 5300 H 486.155 -1.19159 -3.46694 0
M  V30 5301 H 485.803 0.776274 -4.96974 0
M  V30 5302 H 485.503 -0.756206 -5.82714 0
M  V30 5303 H 487.027 0.134004 -6.10453 0
M  V30 5304 H 488.441 -2.0145 -5.36741 0
M  V30 5305 H 486.838 -2.8033 -5.30599 0
M  V30 5306 H 487.908 -2.88822 -3.895 0
M  V30 5307 N 489.251 1.34841 -0.815825 0
M  V30 5308 C 490.481 2.02436 -0.412695 0
M  V30 5309 C 490.889 1.61604 0.983906 0
M  V30 5310 O 490.232 0.813729 1.64694 0
M  V30 5311 C 490.294 3.56953 -0.427182 0
M  V30 5312 C 489.958 4.21083 -1.77589 0
M  V30 5313 C 490.955 4.42107 -2.73564 0
M  V30 5314 C 488.64 4.58006 -2.06243 0
M  V30 5315 C 490.634 4.99169 -3.9637 0
M  V30 5316 C 488.321 5.1478 -3.2931 0
M  V30 5317 C 489.319 5.35304 -4.24191 0
M  V30 5318 O 489.007 5.90878 -5.45086 0
M  V30 5319 H 488.739 0.655631 -0.164695 0
M  V30 5320 H 491.293 1.73246 -1.1034 0
M  V30 5321 H 489.523 3.85372 0.320175 0
M  V30 5322 H 491.212 4.05875 -0.0450875 0
M  V30 5323 H 491.978 4.13953 -2.52721 0
M  V30 5324 H 487.857 4.41339 -1.33196 0
M  V30 5325 H 491.401 5.15105 -4.70439 0
M  V30 5326 H 487.298 5.42362 -3.5002 0
M  V30 5327 H 488.066 6.0932 -5.46508 0
M  V30 5328 N 490.729 0.570148 1.46925 0
M  V30 5329 C 491.679 -0.190921 2.27199 0
M  V30 5330 C 492.663 -0.873457 1.35128 0
M  V30 5331 O 493.855 -0.769627 1.59392 0
M  V30 5332 C 490.984 -1.21204 3.21192 0
M  V30 5333 C 490.07 -0.532261 4.20747 0
M  V30 5334 N 490.461 0.405038 5.04176 0
M  V30 5335 C 488.759 -0.784582 4.39045 0
M  V30 5336 C 489.46 0.801149 5.76157 0
M  V30 5337 N 488.436 0.153082 5.43384 0
M  V30 5338 H 492.238 0.529535 2.8909 0
M  V30 5339 H 489.752 0.391019 1.57622 0
M  V30 5340 H 491.749 -1.77135 3.77398 0
M  V30 5341 H 490.409 -1.93345 2.6086 0
M  V30 5342 H 491.42 0.779903 5.11994 0
M  V30 5343 H 488.097 -1.49352 3.89872 0
M  V30 5344 H 489.487 1.57208 6.5325 0
M  V30 5345 N 492.207 -1.54576 0.307264 0
M  V30 5346 C 493.455 -1.99867 -0.299574 0
M  V30 5347 C 493.776 -1.19714 -1.53927 0
M  V30 5348 O 493.046 -0.29472 -1.9367 0
M  V30 5349 H 491.626 -0.738299 -0.113683 0
M  V30 5350 H 494.288 -1.9032 0.420042 0
M  V30 5351 H 493.384 -3.06901 -0.567283 0
M  V30 5352 N 493.685 -0.035106 -1.57561 0
M  V30 5353 C 494.933 0.64096 -1.91667 0
M  V30 5354 C 495.254 1.72323 -0.912681 0
M  V30 5355 O 494.524 1.95849 0.0449089 0
M  V30 5356 H 493.104 0.239743 -0.707483 0
M  V30 5357 H 495.766 -0.084321 -1.94718 0
M  V30 5358 H 494.862 1.08987 -2.92452 0
M  V30 5359 N 495.163 1.55791 0.238111 0
M  V30 5360 C 496.411 1.77681 0.963001 0
M  V30 5361 C 496.732 0.600674 1.85518 0
M  V30 5362 O 496.002 -0.383182 1.92116 0
M  V30 5363 H 494.582 0.655315 0.358568 0
M  V30 5364 H 497.244 1.93239 0.253945 0
M  V30 5365 H 496.34 2.69177 1.57956 0
M  V30 5366 N 496.642 -0.504142 1.49319 0
M  V30 5367 C 497.888 -1.26033 1.58882 0
M  V30 5368 C 498.221 -1.92268 0.273274 0
M  V30 5369 O 497.496 -1.80567 -0.72291 0
M  V30 5370 C 497.779 -2.32976 2.7458 0
M  V30 5371 C 497.632 -1.71263 4.1592 0
M  V30 5372 C 498.951 -3.34561 2.85932 0
M  V30 5373 H 496.07 -0.456863 0.578312 0
M  V30 5374 H 498.712 -0.558965 1.81592 0
M  V30 5375 H 496.862 -2.92796 2.55348 0
M  V30 5376 H 498.534 -1.15294 4.4666 0
M  V30 5377 H 496.777 -1.01686 4.21714 0
M  V30 5378 H 497.448 -2.48816 4.92742 0
M  V30 5379 H 499.924 -2.84727 3.0343 0
M  V30 5380 H 498.8 -4.06754 3.68568 0
M  V30 5381 H 499.061 -3.96695 1.95154 0
M  V30 5382 N 498.12 -1.38341 -0.754957 0
M  V30 5383 C 499.35 -1.37504 -1.54195 0
M  V30 5384 C 499.758 0.0373787 -1.89163 0
M  V30 5385 O 499.101 1.01402 -1.53178 0
M  V30 5386 C 499.163 -2.16488 -2.87008 0
M  V30 5387 C 498.827 -3.65311 -2.74585 0
M  V30 5388 C 499.824 -4.58834 -2.44474 0
M  V30 5389 C 497.509 -4.08649 -2.9208 0
M  V30 5390 C 499.503 -5.93675 -2.32011 0
M  V30 5391 C 497.19 -5.43571 -2.79237 0
M  V30 5392 C 498.188 -6.35898 -2.49245 0
M  V30 5393 O 497.876 -7.68338 -2.36458 0
M  V30 5394 H 497.608 -0.472159 -0.483779 0
M  V30 5395 H 500.162 -1.82515 -0.94221 0
M  V30 5396 H 498.392 -1.66194 -3.49166 0
M  V30 5397 H 500.081 -2.08076 -3.4851 0
M  V30 5398 H 500.847 -4.26657 -2.30627 0
M  V30 5399 H 496.726 -3.37134 -3.14422 0
M  V30 5400 H 500.27 -6.65706 -2.08522 0
M  V30 5401 H 496.167 -5.75345 -2.92657 0
M  V30 5402 H 496.935 -7.78845 -2.5168 0
M  V30 5403 N 499.598 0.982988 -1.23187 0
M  V30 5404 C 500.847 1.71817 -1.05649 0
M  V30 5405 C 501.16 1.91315 0.407176 0
M  V30 5406 O 502.366 2.62256 0.702436 0
M  V30 5407 C 500.822 3.09188 -1.84203 0
M  V30 5408 C 500.43 2.97586 -3.34882 0
M  V30 5409 C 502.174 3.86684 -1.75146 0
M  V30 5410 C 500.081 4.30173 -4.05839 0
M  V30 5411 H 499.011 0.644258 -0.391724 0
M  V30 5412 H 501.662 1.09659 -1.4713 0
M  V30 5413 H 500.044 3.72087 -1.35527 0
M  V30 5414 H 501.218 2.43793 -3.91026 0
M  V30 5415 H 499.533 2.33567 -3.44725 0
M  V30 5416 H 502.13 4.84836 -2.25473 0
M  V30 5417 H 502.473 4.10136 -0.713737 0
M  V30 5418 H 503.006 3.30482 -2.21419 0
M  V30 5419 H 499.745 4.11918 -5.09906 0
M  V30 5420 H 499.265 4.83841 -3.54482 0
M  V30 5421 H 500.944 4.98873 -4.11989 0
M  V30 5422 N 501.076 1.04316 1.18135 0
M  V30 5423 C 502.325 0.74319 1.87509 0
M  V30 5424 C 502.638 -0.732136 1.81381 0
M  V30 5425 O 503.844 -1.14572 2.46141 0
M  V30 5426 C 502.3 1.27913 3.36402 0
M  V30 5427 C 501.908 2.78326 3.51053 0
M  V30 5428 C 503.652 1.0558 4.11161 0
M  V30 5429 C 501.559 3.25266 4.93919 0
M  V30 5430 H 500.489 0.274313 0.702331 0
M  V30 5431 H 503.14 1.25931 1.33467 0
M  V30 5432 H 501.522 0.690853 3.89927 0
M  V30 5433 H 502.696 3.42933 3.07788 0
M  V30 5434 H 501.011 2.991 2.89704 0
M  V30 5435 H 503.608 1.38161 5.16542 0
M  V30 5436 H 503.951 -0.00684729 4.16299 0
M  V30 5437 H 504.484 1.60882 3.63816 0
M  V30 5438 H 501.223 4.30922 4.9395 0
M  V30 5439 H 500.743 2.65396 5.3789 0
M  V30 5440 H 502.422 3.19433 5.62647 0
M  V30 5441 N 502.554 -1.34406 0.822964 0
M  V30 5442 C 503.831 -1.92733 0.333641 0
M  V30 5443 C 504.211 -1.75107 -1.17901 0
M  V30 5444 O 503.559 -1.12983 -1.98613 0
M  V30 5445 C 503.769 -3.40557 0.763023 0
M  V30 5446 C 505.117 -4.17709 0.761879 0
M  V30 5447 O 506.141 -3.49141 0.705606 0
M  V30 5448 O 505 -5.40082 0.835109 0
M  V30 5449 H 502.094 -0.821964 0.0911249 0
M  V30 5450 H 504.64 -1.4338 0.907757 0
M  V30 5451 H 503.412 -3.47187 1.8049 0
M  V30 5452 H 503.035 -3.97259 0.164605 0
M  V30 5453 N 504.032 -0.577932 -1.46621 0
M  V30 5454 C 505.278 -0.0617793 -2.02706 0
M  V30 5455 C 505.611 1.29294 -1.44903 0
M  V30 5456 O 504.886 1.8461 -0.61232 0
M  V30 5457 C 505.169 0.00911824 -3.60099 0
M  V30 5458 C 505.022 -1.37416 -4.28295 0
M  V30 5459 C 506.341 0.712159 -4.343 0
M  V30 5460 H 503.46 -0.0239246 -0.736612 0
M  V30 5461 H 506.102 -0.744211 -1.74818 0
M  V30 5462 H 504.252 0.590292 -3.83989 0
M  V30 5463 H 505.924 -2.00013 -4.15683 0
M  V30 5464 H 504.167 -1.94319 -3.87843 0
M  V30 5465 H 504.838 -1.27707 -5.37024 0
M  V30 5466 H 507.314 0.218486 -4.15526 0
M  V30 5467 H 506.19 0.730782 -5.44014 0
M  V30 5468 H 506.451 1.77251 -4.05012 0
M  V30 5469 N 505.51 1.54411 -0.315457 0
M  V30 5470 C 506.735 2.05299 0.294496 0
M  V30 5471 C 507.16 1.19052 1.4563 0
M  V30 5472 O 506.518 0.197804 1.80218 0
M  V30 5473 C 506.566 3.5345 0.714549 0
M  V30 5474 O 505.67 3.70175 1.81781 0
M  V30 5475 H 505.011 0.661743 0.0547019 0
M  V30 5476 H 507.541 1.99327 -0.461508 0
M  V30 5477 H 507.551 3.9557 0.999426 0
M  V30 5478 H 506.226 4.1568 -0.135244 0
M  V30 5479 H 504.803 3.3996 1.53236 0
M  V30 5480 N 506.988 0.0434614 1.5754 0
M  V30 5481 C 507.92 -0.962586 2.08007 0
M  V30 5482 C 508.933 -1.27972 1.00634 0
M  V30 5483 O 510.122 -1.24186 1.28219 0
M  V30 5484 C 507.222 -2.28621 2.50171 0
M  V30 5485 C 506.395 -2.15214 3.80791 0
M  V30 5486 C 505.454 -3.30633 4.09351 0
M  V30 5487 O 504.48 -3.0688 4.79388 0
M  V30 5488 N 505.682 -4.54873 3.60654 0
M  V30 5489 H 508.447 -0.531891 2.94942 0
M  V30 5490 H 506.008 -0.142965 1.61268 0
M  V30 5491 H 508 -3.04689 2.66359 0
M  V30 5492 H 506.57 -2.63283 1.68525 0
M  V30 5493 H 505.79 -1.23785 3.74261 0
M  V30 5494 H 507.078 -2.03475 4.66343 0
M  V30 5495 H 506.476 -4.77063 3.04019 0
M  V30 5496 H 505.033 -5.2806 3.82094 0
M  V30 5497 N 508.466 -1.55915 -0.229846 0
M  V30 5498 C 509.691 -1.8296 -0.976743 0
M  V30 5499 C 510.116 -0.622735 -1.77493 0
M  V30 5500 O 509.474 0.428431 -1.76165 0
M  V30 5501 C 509.522 -3.07916 -1.8767 0
M  V30 5502 O 508.626 -2.86028 -2.97088 0
M  V30 5503 H 507.967 -0.603453 -0.277021 0
M  V30 5504 H 510.497 -2.0312 -0.245669 0
M  V30 5505 H 510.507 -3.37802 -2.2881 0
M  V30 5506 H 509.182 -3.95389 -1.28996 0
M  V30 5507 H 507.759 -2.67355 -2.59954 0
M  V30 5508 N 509.944 0.496216 -1.49584 0
M  V30 5509 C 511.19 1.25189 -1.59548 0
M  V30 5510 C 511.523 1.9212 -0.283466 0
M  V30 5511 O 510.798 1.80947 0.713324 0
M  V30 5512 C 511.081 2.31516 -2.75812 0
M  V30 5513 C 510.934 1.69054 -4.16822 0
M  V30 5514 C 512.253 3.3304 -2.87702 0
M  V30 5515 H 509.372 0.45379 -0.580727 0
M  V30 5516 H 512.014 0.549327 -1.81886 0
M  V30 5517 H 510.164 2.91438 -2.56897 0
M  V30 5518 H 511.836 1.12923 -4.47265 0
M  V30 5519 H 510.079 0.994485 -4.22247 0
M  V30 5520 H 510.75 2.462 -4.94054 0
M  V30 5521 H 513.226 2.83114 -3.04936 0
M  V30 5522 H 512.102 4.04794 -3.7072 0
M  V30 5523 H 512.363 3.95655 -1.97255 0
M  V30 5524 N 511.423 1.38739 0.74761 0
M  V30 5525 C 512.333 1.38696 1.89211 0
M  V30 5526 C 513.349 0.283303 1.71678 0
M  V30 5527 O 514.525 0.522713 1.94498 0
M  V30 5528 C 511.59 1.21662 3.24653 0
M  V30 5529 C 510.651 2.41886 3.54669 0
M  V30 5530 C 509.884 2.25655 4.83648 0
M  V30 5531 O 510.107 1.25339 5.56459 0
M  V30 5532 O 509.041 3.14372 5.13277 0
M  V30 5533 H 512.867 2.35143 1.92202 0
M  V30 5534 H 510.452 1.19721 0.893708 0
M  V30 5535 H 512.334 1.14246 4.05618 0
M  V30 5536 H 511.009 0.283024 3.2246 0
M  V30 5537 H 509.916 2.54877 2.73841 0
M  V30 5538 H 511.249 3.33895 3.61628 0
M  V30 5539 N 512.901 -0.976442 1.23707 0
M  V30 5540 C 513.851 -2.0544 0.988851 0
M  V30 5541 C 514.835 -1.60762 -0.0665901 0
M  V30 5542 O 516.027 -1.76396 0.14604 0
M  V30 5543 C 513.156 -3.38258 0.586223 0
M  V30 5544 C 512.242 -3.89523 1.67728 0
M  V30 5545 N 512.633 -4.13823 2.90834 0
M  V30 5546 C 510.931 -4.18097 1.55277 0
M  V30 5547 C 511.632 -4.55731 3.61502 0
M  V30 5548 N 510.608 -4.60394 2.8903 0
M  V30 5549 H 514.41 -2.22191 1.92376 0
M  V30 5550 H 511.924 -1.15954 1.13704 0
M  V30 5551 H 513.921 -4.15075 0.389658 0
M  V30 5552 H 512.581 -3.22898 -0.341594 0
M  V30 5553 H 513.592 -4.01529 3.271 0
M  V30 5554 H 510.269 -4.11719 0.692351 0
M  V30 5555 H 511.659 -4.83018 4.67059 0
M  V30 5556 N 514.379 -1.04941 -1.1758 0
M  V30 5557 C 515.656 -0.671918 -1.83697 0
M  V30 5558 C 516.036 0.847929 -1.93322 0
M  V30 5559 O 515.384 1.75287 -1.46583 0
M  V30 5560 C 515.594 -1.35797 -3.21497 0
M  V30 5561 C 516.942 -1.4944 -3.97433 0
M  V30 5562 O 517.966 -1.31678 -3.30967 0
M  V30 5563 O 516.825 -1.78463 -5.1654 0
M  V30 5564 H 513.919 -0.236212 -0.792548 0
M  V30 5565 H 516.465 -1.14884 -1.24899 0
M  V30 5566 H 515.237 -2.39498 -3.09446 0
M  V30 5567 H 514.86 -0.870236 -3.8796 0
M  V30 5568 N 515.857 1.33968 -0.830081 0
M  V30 5569 C 516.807 2.26845 -0.229242 0
M  V30 5570 C 517.791 1.48862 0.610659 0
M  V30 5571 O 518.983 1.70808 0.464067 0
M  V30 5572 C 516.112 3.3798 0.602057 0
M  V30 5573 C 515.198 4.23369 -0.248866 0
M  V30 5574 N 515.589 4.88182 -1.32334 0
M  V30 5575 C 513.887 4.45987 -0.0344077 0
M  V30 5576 C 514.588 5.51671 -1.84482 0
M  V30 5577 N 513.564 5.31348 -1.14762 0
M  V30 5578 H 517.366 2.74464 -1.05104 0
M  V30 5579 H 514.88 1.4777 -0.673623 0
M  V30 5580 H 516.877 4.03494 1.04873 0
M  V30 5581 H 515.537 2.9191 1.42193 0
M  V30 5582 H 516.548 4.88988 -1.70619 0
M  V30 5583 H 513.225 4.10658 0.752727 0
M  V30 5584 H 514.615 6.13308 -2.74413 0
M  V30 5585 N 517.335 0.585699 1.46312 0
M  V30 5586 C 518.746 0.159938 1.86014 0
M  V30 5587 C 519.097 -1.27775 1.48889 0
M  V30 5588 O 518.222 -1.96559 0.90519 0
M  V30 5589 C 518.817 0.283485 3.37612 0
M  V30 5590 C 517.376 -0.0874256 3.76298 0
M  V30 5591 C 516.523 0.618055 2.70325 0
M  V30 5592 H 519.474 0.793737 1.37425 0
M  V30 5593 H 519.495 -0.490348 3.77327 0
M  V30 5594 H 519.007 1.32995 3.64601 0
M  V30 5595 H 517.108 -1.13391 3.54927 0
M  V30 5596 H 517.221 0.290975 4.78216 0
M  V30 5597 H 515.585 0.057993 2.54634 0
M  V30 5598 H 516.368 1.66623 3.00153 0
M  V30 5599 N 518.813 -1.54241 0.323641 0
M  V30 5600 C 519.763 -2.21071 -0.557833 0
M  V30 5601 C 520.747 -1.19126 -1.08157 0
M  V30 5602 O 521.939 -1.44755 -1.01857 0
M  V30 5603 C 519.068 -2.97208 -1.71821 0
M  V30 5604 C 518.154 -4.06491 -1.20936 0
M  V30 5605 N 518.545 -5.04052 -0.420202 0
M  V30 5606 C 516.843 -4.20443 -1.48808 0
M  V30 5607 C 517.544 -5.81516 -0.146413 0
M  V30 5608 N 516.52 -5.38641 -0.732562 0
M  V30 5609 H 520.322 -2.93853 0.0523921 0
M  V30 5610 H 517.836 -1.61883 0.129502 0
M  V30 5611 H 519.833 -3.4357 -2.36146 0
M  V30 5612 H 518.493 -2.25947 -2.33191 0
M  V30 5613 H 519.504 -5.17862 -0.0630401 0
M  V30 5614 H 516.181 -3.60396 -2.10762 0
M  V30 5615 H 517.571 -6.70119 0.488895 0
M  V30 5616 N 520.291 -0.0518155 -1.57515 0
M  V30 5617 C 521.254 0.907547 -2.10467 0
M  V30 5618 C 522.254 1.23947 -1.02439 0
M  V30 5619 O 523.444 1.17604 -1.2851 0
M  V30 5620 C 520.576 2.21723 -2.58944 0
M  V30 5621 H 521.769 0.44851 -2.96527 0
M  V30 5622 H 519.322 0.196598 -1.55059 0
M  V30 5623 H 520.057 2.72206 -1.76279 0
M  V30 5624 H 519.842 1.98935 -3.37886 0
M  V30 5625 H 521.332 2.90441 -3.00056 0
M  V30 5626 N 521.769 1.56035 0.221574 0
M  V30 5627 C 522.699 1.95434 1.2778 0
M  V30 5628 C 523.68 0.822564 1.48889 0
M  V30 5629 O 524.865 1.08486 1.61072 0
M  V30 5630 C 521.995 2.27102 2.62759 0
M  V30 5631 C 520.949 3.4277 2.56306 0
M  V30 5632 C 520.275 3.60043 3.95314 0
M  V30 5633 C 521.575 4.77742 2.11093 0
M  V30 5634 H 523.269 2.83912 0.950504 0
M  V30 5635 H 520.815 1.36596 0.455791 0
M  V30 5636 H 522.768 2.53256 3.36807 0
M  V30 5637 H 521.492 1.35478 2.97176 0
M  V30 5638 H 520.151 3.16664 1.84715 0
M  V30 5639 H 519.799 2.65794 4.27039 0
M  V30 5640 H 519.499 4.37841 3.91879 0
M  V30 5641 H 521.023 3.88545 4.71025 0
M  V30 5642 H 522.437 5.03102 2.74885 0
M  V30 5643 H 520.834 5.58823 2.18716 0
M  V30 5644 H 521.904 4.731 1.06321 0
M  V30 5645 N 523.247 -0.488276 1.49845 0
M  V30 5646 C 524.157 -1.61451 1.70207 0
M  V30 5647 C 525.173 -1.63877 0.584846 0
M  V30 5648 O 526.349 -1.82063 0.861107 0
M  V30 5649 C 523.414 -2.9776 1.77594 0
M  V30 5650 C 522.475 -3.05861 3.01243 0
M  V30 5651 C 521.708 -4.35668 3.08268 0
M  V30 5652 O 521.931 -5.25197 2.22541 0
M  V30 5653 O 520.865 -4.49005 4.00847 0
M  V30 5654 H 524.691 -1.47199 2.65643 0
M  V30 5655 H 522.276 -0.665939 1.33737 0
M  V30 5656 H 524.158 -3.7875 1.84732 0
M  V30 5657 H 522.833 -3.12248 0.8534 0
M  V30 5658 H 521.74 -2.24012 2.99616 0
M  V30 5659 H 523.073 -2.96304 3.9302 0
M  V30 5660 N 524.725 -1.39134 -0.740242 0
M  V30 5661 C 525.972 -1.36071 -1.49969 0
M  V30 5662 C 526.3 0.0450245 -1.94448 0
M  V30 5663 O 525.555 1.02482 -1.66721 0
M  V30 5664 C 525.854 -2.27457 -2.75678 0
M  V30 5665 C 525.52 -3.75185 -2.50094 0
M  V30 5666 C 524.182 -4.15439 -2.42825 0
M  V30 5667 C 526.534 -4.68643 -2.28086 0
M  V30 5668 C 523.862 -5.4722 -2.11584 0
M  V30 5669 C 526.214 -6.00695 -1.98363 0
M  V30 5670 C 524.878 -6.40018 -1.8956 0
M  V30 5671 H 524.148 -0.497921 -0.548777 0
M  V30 5672 H 526.795 -1.71599 -0.85007 0
M  V30 5673 H 525.1 -1.8503 -3.45356 0
M  V30 5674 H 526.797 -2.22384 -3.33686 0
M  V30 5675 H 523.387 -3.43279 -2.56627 0
M  V30 5676 H 527.571 -4.3838 -2.32672 0
M  V30 5677 H 522.827 -5.76615 -2.03287 0
M  V30 5678 H 527.001 -6.72644 -1.80341 0
M  V30 5679 H 524.628 -7.42051 -1.65117 0
M  V30 5680 N 526.204 0.969867 -1.24223 0
M  V30 5681 C 527.134 2.08191 -1.05729 0
M  V30 5682 C 528.115 1.70075 0.0290765 0
M  V30 5683 O 529.3 1.93712 -0.137583 0
M  V30 5684 C 526.43 3.40991 -0.658995 0
M  V30 5685 C 525.384 3.93054 -1.69389 0
M  V30 5686 C 524.71 5.22171 -1.15072 0
M  V30 5687 C 526.01 4.21137 -3.08935 0
M  V30 5688 H 527.704 2.23921 -1.98746 0
M  V30 5689 H 525.25 1.07602 -0.956967 0
M  V30 5690 H 527.203 4.18221 -0.51662 0
M  V30 5691 H 525.927 3.25155 0.30686 0
M  V30 5692 H 524.586 3.17977 -1.82444 0
M  V30 5693 H 524.234 5.02694 -0.175539 0
M  V30 5694 H 523.934 5.57973 -1.84229 0
M  V30 5695 H 525.458 6.02013 -1.02042 0
M  V30 5696 H 526.872 4.8908 -2.99121 0
M  V30 5697 H 525.269 4.68163 -3.75425 0
M  V30 5698 H 526.339 3.27996 -3.57137 0
M  V30 5699 N 527.682 1.05563 1.17022 0
M  V30 5700 C 529.098 0.777684 1.39371 0
M  V30 5701 C 529.298 -0.626269 1.91521 0
M  V30 5702 O 528.354 -1.38806 2.10924 0
M  V30 5703 C 529.667 1.83642 2.3811 0
M  V30 5704 C 531.215 1.85907 2.51809 0
M  V30 5705 C 531.69 2.90813 3.53824 0
M  V30 5706 N 533.181 2.898 3.61345 0
M  V30 5707 C 533.916 3.6762 4.40049 0
M  V30 5708 N 533.412 4.55237 5.22237 0
M  V30 5709 N 535.205 3.56044 4.34959 0
M  V30 5710 H 527.356 1.9614 0.815047 0
M  V30 5711 H 529.619 0.849527 0.420722 0
M  V30 5712 H 529.325 2.84425 2.06871 0
M  V30 5713 H 529.199 1.6812 3.37662 0
M  V30 5714 H 531.586 0.857865 2.82356 0
M  V30 5715 H 531.667 2.05506 1.52318 0
M  V30 5716 H 531.311 3.91122 3.24015 0
M  V30 5717 H 531.241 2.68465 4.53028 0
M  V30 5718 H 533.732 2.26274 3.02669 0
M  V30 5719 H 534.045 5.11291 5.79484 0
M  V30 5720 H 532.39 4.59296 5.21605 0
M  V30 5721 H 535.581 2.86986 3.69806 0
M  V30 5722 H 535.754 4.16938 4.96051 0
M  V30 5723 N 529.16 -1.33526 0.837174 0
M  V30 5724 C 530.107 -2.29248 0.267169 0
M  V30 5725 C 531.077 -1.54252 -0.616071 0
M  V30 5726 O 532.262 -1.82559 -0.554699 0
M  V30 5727 C 529.402 -3.40638 -0.553152 0
M  V30 5728 C 528.515 -4.30548 0.353921 0
M  V30 5729 C 527.65 -5.29051 -0.477339 0
M  V30 5730 C 526.689 -6.106 0.42823 0
M  V30 5731 N 525.826 -7.01152 -0.364801 0
M  V30 5732 H 530.666 -2.77398 1.08877 0
M  V30 5733 H 528.203 -1.36496 0.54838 0
M  V30 5734 H 530.161 -4.03921 -1.04422 0
M  V30 5735 H 528.791 -2.93685 -1.33973 0
M  V30 5736 H 527.843 -3.68001 0.963289 0
M  V30 5737 H 529.155 -4.87631 1.04964 0
M  V30 5738 H 528.309 -5.97853 -1.0323 0
M  V30 5739 H 527.048 -4.72541 -1.2065 0
M  V30 5740 H 526.053 -5.40718 0.995219 0
M  V30 5741 H 527.278 -6.69193 1.15573 0
M  V30 5742 H 525.224 -6.47092 -1.07738 0
M  V30 5743 H 525.141 -7.5551 0.272238 0
M  V30 5744 H 526.409 -7.74263 -0.902054 0
M  V30 5745 N 530.638 -0.59345 -1.46 0
M  V30 5746 C 531.915 -0.0157933 -1.95594 0
M  V30 5747 C 532.295 1.44807 -1.53604 0
M  V30 5748 O 531.643 2.14342 -0.791824 0
M  V30 5749 C 531.853 -0.199081 -3.48432 0
M  V30 5750 C 533.201 -0.0724943 -4.24538 0
M  V30 5751 O 534.225 -0.128469 -3.55968 0
M  V30 5752 O 533.084 0.0542426 -5.46473 0
M  V30 5753 H 530.178 0.043749 -0.825842 0
M  V30 5754 H 532.724 -0.662522 -1.56233 0
M  V30 5755 H 531.496 -1.21631 -3.71916 0
M  V30 5756 H 531.119 0.483576 -3.94648 0
M  V30 5757 N 532.116 1.54067 -0.331816 0
M  V30 5758 C 533.356 2.02625 0.26876 0
M  V30 5759 C 533.72 1.21462 1.48697 0
M  V30 5760 O 534.921 1.59863 2.16096 0
M  V30 5761 C 533.192 3.52554 0.586577 0
M  V30 5762 S 534.751 4.23035 1.16563 0
M  V30 5763 H 531.569 0.706395 0.0807862 0
M  V30 5764 H 534.171 1.89844 -0.466856 0
M  V30 5765 H 532.875 4.09242 -0.308046 0
M  V30 5766 H 532.406 3.69432 1.35217 0
M  V30 5767 H 534.421 4.31382 2.45203 0
M  V30 5768 N 533.594 0.0601682 1.57485 0
M  V30 5769 C 534.557 -0.896373 2.10945 0
M  V30 5770 C 535.557 -1.23402 1.03095 0
M  V30 5771 O 536.747 -1.16921 1.29132 0
M  V30 5772 C 533.879 -2.20346 2.60116 0
M  V30 5773 H 535.072 -0.432778 2.96761 0
M  V30 5774 H 532.625 -0.188372 1.55161 0
M  V30 5775 H 533.36 -2.71268 1.7772 0
M  V30 5776 H 533.145 -1.9714 3.38937 0
M  V30 5777 H 534.635 -2.88846 3.01592 0
M  V30 5778 N 535.072 -1.5615 -0.213296 0
M  V30 5779 C 536.02 -1.93953 -1.28394 0
M  V30 5780 C 537.014 -0.822592 -1.48087 0
M  V30 5781 O 538.22 -1.00748 -1.49164 0
M  V30 5782 H 534.595 -0.61648 -0.430646 0
M  V30 5783 H 536.566 -2.83275 -0.937977 0
M  V30 5784 C 535.315 -2.27969 -2.62537 0
M  V30 5785 H 534.638 -3.13432 -2.48194 0
M  V30 5786 H 536.078 -2.58297 -3.36242 0
M  V30 5787 C 534.537 -1.10775 -3.18167 0
M  V30 5788 O 535.067 -0.373201 -3.99963 0
M  V30 5789 N 533.273 -0.889377 -2.76656 0
M  V30 5790 H 532.82 -1.48843 -2.10246 0
M  V30 5791 H 532.778 -0.107 -3.14218 0
M  V30 5792 N 536.55 0.480323 -1.50102 0
M  V30 5793 C 537.796 1.23489 -1.60867 0
M  V30 5794 C 538.129 1.91809 -0.303827 0
M  V30 5795 O 537.404 1.81694 0.694092 0
M  V30 5796 C 537.687 2.28578 -2.78252 0
M  V30 5797 C 537.54 1.64624 -4.18592 0
M  V30 5798 C 538.859 3.2997 -2.91218 0
M  V30 5799 H 535.978 0.447605 -0.585507 0
M  V30 5800 H 538.62 0.530005 -1.82458 0
M  V30 5801 H 536.77 2.88697 -2.59974 0
M  V30 5802 H 538.442 1.08173 -4.48438 0
M  V30 5803 H 536.685 0.949645 -4.23278 0
M  V30 5804 H 537.356 2.40946 -4.96638 0
M  V30 5805 H 539.832 2.79864 -3.07921 0
M  V30 5806 H 538.708 4.00839 -3.74993 0
M  V30 5807 H 538.969 3.93541 -2.0144 0
M  V30 5808 N 538.028 1.39524 0.732853 0
M  V30 5809 C 538.976 1.38563 1.86824 0
M  V30 5810 C 539.97 0.268467 1.67259 0
M  V30 5811 O 541.176 0.438613 1.74574 0
M  V30 5812 H 537.551 0.432737 0.615014 0
M  V30 5813 H 539.522 2.34328 1.84751 0
M  V30 5814 C 538.271 1.2481 3.24527 0
M  V30 5815 H 537.594 2.10044 3.40179 0
M  V30 5816 H 539.034 1.28194 4.04156 0
M  V30 5817 C 537.493 -0.0432825 3.36872 0
M  V30 5818 O 538.023 -1.01268 3.88726 0
M  V30 5819 N 536.229 -0.107055 2.90403 0
M  V30 5820 H 535.776 0.682512 2.48394 0
M  V30 5821 H 535.734 -0.970618 2.99042 0
M  V30 5822 N 539.506 -0.963266 1.24736 0
M  V30 5823 C 540.783 -1.68248 0.9976 0
M  V30 5824 C 541.163 -2.05599 -0.478776 0
M  V30 5825 O 540.511 -1.7626 -1.45412 0
M  V30 5826 C 540.721 -2.91118 1.92487 0
M  V30 5827 C 542.069 -3.63261 2.19833 0
M  V30 5828 O 543.093 -3.01184 1.90176 0
M  V30 5829 O 541.952 -4.75019 2.7022 0
M  V30 5830 H 539.046 -0.735744 0.377637 0
M  V30 5831 H 541.592 -1.01696 1.35853 0
M  V30 5832 H 540.364 -2.60242 2.92215 0
M  V30 5833 H 539.987 -3.65402 1.56738 0
M  V30 5834 N 540.985 -1.06182 -1.16461 0
M  V30 5835 C 542.232 -0.777863 -1.86964 0
M  V30 5836 C 542.56 0.695602 -1.81636 0
M  V30 5837 O 541.815 1.52532 -1.22607 0
M  V30 5838 C 542.114 -1.21633 -3.36066 0
M  V30 5839 C 541.78 -2.69371 -3.61594 0
M  V30 5840 C 540.442 -3.09727 -3.6827 0
M  V30 5841 C 542.794 -3.64791 -3.7226 0
M  V30 5842 C 540.122 -4.44345 -3.83112 0
M  V30 5843 C 542.474 -4.99155 -3.88623 0
M  V30 5844 C 541.138 -5.39149 -3.93541 0
M  V30 5845 H 540.408 -0.28464 -0.68415 0
M  V30 5846 H 543.055 -1.33071 -1.37711 0
M  V30 5847 H 541.36 -0.582651 -3.87443 0
M  V30 5848 H 543.057 -0.973682 -3.88999 0
M  V30 5849 H 539.647 -2.37124 -3.57029 0
M  V30 5850 H 543.831 -3.34746 -3.66413 0
M  V30 5851 H 539.087 -4.74819 -3.85172 0
M  V30 5852 H 543.261 -5.72976 -3.95817 0
M  V30 5853 H 540.888 -6.43464 -4.04794 0
M  V30 5854 N 542.463 1.3308 -0.844243 0
M  V30 5855 C 543.71 1.97605 -0.44255 0
M  V30 5856 C 544.038 1.66856 0.999458 0
M  V30 5857 O 543.293 0.943586 1.7145 0
M  V30 5858 C 543.592 3.52045 -0.616354 0
M  V30 5859 C 543.258 4.02757 -2.02726 0
M  V30 5860 C 541.92 4.16316 -2.41317 0
M  V30 5861 C 544.272 4.29776 -2.9486 0
M  V30 5862 C 541.6 4.54232 -3.71335 0
M  V30 5863 C 543.952 4.69146 -4.24364 0
M  V30 5864 C 542.616 4.80911 -4.62904 0
M  V30 5865 H 541.886 0.723088 -0.161941 0
M  V30 5866 H 544.533 1.58663 -1.0723 0
M  V30 5867 H 542.838 3.91681 0.0966812 0
M  V30 5868 H 544.535 3.99981 -0.285756 0
M  V30 5869 H 541.125 3.9268 -1.71756 0
M  V30 5870 H 545.309 4.18818 -2.6628 0
M  V30 5871 H 540.565 4.61535 -4.00993 0
M  V30 5872 H 544.739 4.89008 -4.95827 0
M  V30 5873 H 542.366 5.10048 -5.63698 0
M  V30 5874 N 543.941 0.601185 1.45683 0
M  V30 5875 C 544.874 -0.17013 2.27565 0
M  V30 5876 C 545.852 -0.879661 1.36751 0
M  V30 5877 O 547.036 -0.889827 1.66176 0
M  V30 5878 C 544.163 -1.24568 3.14961 0
M  V30 5879 C 543.209 -0.639978 4.21671 0
M  V30 5880 S 544.042 0.547275 5.32696 0
M  V30 5881 C 545.198 -0.529019 6.2366 0
M  V30 5882 H 545.431 0.524583 2.92635 0
M  V30 5883 H 542.964 0.388537 1.49431 0
M  V30 5884 H 544.922 -1.86138 3.65873 0
M  V30 5885 H 543.583 -1.91243 2.49169 0
M  V30 5886 H 542.776 -1.44903 4.8272 0
M  V30 5887 H 542.378 -0.0995558 3.73867 0
M  V30 5888 H 544.67 -1.40981 6.62669 0
M  V30 5889 H 545.613 0.0451599 7.08086 0
M  V30 5890 H 546.021 -0.84147 5.58193 0
M  V30 5891 N 545.419 -1.53889 0.339982 0
M  V30 5892 C 546.835 -1.59595 -0.0120752 0
M  V30 5893 C 547.035 -1.35605 -1.49042 0
M  V30 5894 O 546.091 -1.14856 -2.24865 0
M  V30 5895 C 547.404 -2.9774 0.420898 0
M  V30 5896 C 548.952 -3.1077 0.37294 0
M  V30 5897 C 549.427 -4.51286 0.781327 0
M  V30 5898 N 550.918 -4.57325 0.735374 0
M  V30 5899 C 551.653 -5.64194 1.02336 0
M  V30 5900 N 551.149 -6.7893 1.37933 0
M  V30 5901 N 552.942 -5.54051 0.947838 0
M  V30 5902 H 545.093 -1.67738 1.30299 0
M  V30 5903 H 547.356 -0.785385 0.530918 0
M  V30 5904 H 547.062 -3.20349 1.45152 0
M  V30 5905 H 546.936 -3.76639 -0.205721 0
M  V30 5906 H 549.323 -2.87886 -0.648505 0
M  V30 5907 H 549.404 -2.33939 1.03472 0
M  V30 5908 H 549.048 -4.74905 1.80077 0
M  V30 5909 H 548.978 -5.26511 0.0970679 0
M  V30 5910 H 551.469 -3.74931 0.472773 0
M  V30 5911 H 551.782 -7.56392 1.58402 0
M  V30 5912 H 550.127 -6.80386 1.41774 0
M  V30 5913 H 553.318 -4.63293 0.669115 0
M  V30 5914 H 553.491 -6.37246 1.17563 0
M  V30 5915 N 546.897 -0.0685191 -1.57451 0
M  V30 5916 C 547.847 0.909895 -2.09057 0
M  V30 5917 C 548.831 1.26088 -0.999528 0
M  V30 5918 O 550.023 1.24041 -1.26265 0
M  V30 5919 C 547.152 2.17863 -2.65312 0
M  V30 5920 C 546.238 1.85427 -3.81415 0
M  V30 5921 N 546.629 1.23426 -4.9051 0
M  V30 5922 C 544.927 2.15196 -3.90649 0
M  V30 5923 C 545.628 1.09008 -5.71395 0
M  V30 5924 N 544.604 1.59871 -5.1956 0
M  V30 5925 H 548.406 0.426145 -2.90794 0
M  V30 5926 H 545.92 0.135462 -1.61834 0
M  V30 5927 H 547.917 2.88872 -3.00597 0
M  V30 5928 H 546.577 2.66829 -1.85021 0
M  V30 5929 H 547.588 0.904305 -5.09944 0
M  V30 5930 H 544.265 2.66562 -3.21327 0
M  V30 5931 H 545.655 0.607305 -6.6915 0
M  V30 5932 N 548.375 1.56261 0.205012 0
M  V30 5933 C 549.6 1.84491 0.947512 0
M  V30 5934 C 550.025 0.650894 1.76479 0
M  V30 5935 O 549.383 -0.40035 1.76824 0
M  V30 5936 C 549.431 3.10863 1.82747 0
M  V30 5937 O 548.535 2.90719 2.925 0
M  V30 5938 H 547.876 0.607783 0.267386 0
M  V30 5939 H 550.406 2.03485 0.213323 0
M  V30 5940 H 550.416 3.41399 2.23407 0
M  V30 5941 H 549.091 3.97392 1.2269 0
M  V30 5942 H 547.668 2.71457 2.55667 0
M  V30 5943 N 549.853 -0.472356 1.50355 0
M  V30 5944 C 551.099 -1.22634 1.6152 0
M  V30 5945 C 551.432 -1.91645 0.313995 0
M  V30 5946 O 550.707 -1.82059 -0.684446 0
M  V30 5947 C 550.99 -2.27099 2.7946 0
M  V30 5948 C 550.843 -1.62402 4.19459 0
M  V30 5949 C 552.162 -3.28421 2.92964 0
M  V30 5950 H 549.281 -0.444494 0.587873 0
M  V30 5951 H 551.923 -0.520321 1.82737 0
M  V30 5952 H 550.073 -2.87314 2.61501 0
M  V30 5953 H 551.745 -1.05793 4.49005 0
M  V30 5954 H 549.988 -0.927184 4.23776 0
M  V30 5955 H 550.659 -2.38309 4.97909 0
M  V30 5956 H 553.135 -2.78227 3.09401 0
M  V30 5957 H 552.011 -3.98845 3.77113 0
M  V30 5958 H 552.272 -3.92467 2.03525 0
M  V30 5959 N 551.331 -1.39911 -0.725443 0
M  V30 5960 C 552.294 -1.39156 -1.82121 0
M  V30 5961 C 553.294 -0.287018 -1.58218 0
M  V30 5962 O 554.484 -0.545421 -1.65441 0
M  V30 5963 C 551.616 -1.1736 -3.20062 0
M  V30 5964 H 552.809 -2.36672 -1.84191 0
M  V30 5965 H 550.362 -1.25615 -0.930079 0
M  V30 5966 H 551.097 -0.205648 -3.23647 0
M  V30 5967 H 550.882 -1.97358 -3.3881 0
M  V30 5968 H 552.372 -1.19596 -4.00108 0
M  V30 5969 N 552.809 0.956637 -1.25245 0
M  V30 5970 C 554.055 1.70352 -1.10036 0
M  V30 5971 C 554.388 1.90869 0.358156 0
M  V30 5972 O 553.663 1.47819 1.26411 0
M  V30 5973 C 553.946 3.08766 -1.85298 0
M  V30 5974 C 553.799 2.95672 -3.38966 0
M  V30 5975 C 555.118 4.08622 -1.63451 0
M  V30 5976 H 552.237 0.618279 -0.401123 0
M  V30 5977 H 554.879 1.11212 -1.54051 0
M  V30 5978 H 553.029 3.59252 -1.47887 0
M  V30 5979 H 554.701 2.52527 -3.86041 0
M  V30 5980 H 552.944 2.31634 -3.6678 0
M  V30 5981 H 553.615 3.93776 -3.86839 0
M  V30 5982 H 556.091 3.67038 -1.96015 0
M  V30 5983 H 554.967 5.03514 -2.18551 0
M  V30 5984 H 555.228 4.3834 -0.575357 0
M  V30 5985 N 554.287 1.06798 1.15896 0
M  V30 5986 C 555.22 0.627503 2.19403 0
M  V30 5987 C 556.198 -0.352352 1.58736 0
M  V30 5988 O 557.382 -0.260111 1.86697 0
M  V30 5989 C 554.509 -0.079356 3.38607 0
M  V30 5990 C 553.555 0.858057 4.17779 0
M  V30 5991 S 554.388 2.35605 4.80885 0
M  V30 5992 C 555.544 1.66083 6.03463 0
M  V30 5993 H 555.777 1.50441 2.56427 0
M  V30 5994 H 553.31 0.881427 1.26768 0
M  V30 5995 H 555.268 -0.48095 4.07673 0
M  V30 5996 H 553.929 -0.932524 2.99938 0
M  V30 5997 H 553.122 0.310108 5.03045 0
M  V30 5998 H 552.724 1.19977 3.54234 0
M  V30 5999 H 555.016 0.969337 6.7053 0
M  V30 6000 H 555.959 2.49159 6.62816 0
M  V30 6001 H 556.367 1.14122 5.52844 0
M  V30 6002 N 555.766 -1.3263 0.851289 0
M  V30 6003 C 556.994 -2.01563 0.466899 0
M  V30 6004 C 557.409 -1.63996 -0.935447 0
M  V30 6005 O 556.766 -0.85957 -1.6099 0
M  V30 6006 C 556.817 -3.56613 0.592433 0
M  V30 6007 O 556.538 -3.92828 1.93954 0
M  V30 6008 C 558.039 -4.42818 0.206612 0
M  V30 6009 H 555.259 -0.645307 0.183902 0
M  V30 6010 H 557.803 -1.69285 1.1473 0
M  V30 6011 H 555.958 -3.87379 -0.0401936 0
M  V30 6012 H 556.372 -4.87545 1.9339 0
M  V30 6013 H 557.846 -5.50918 0.345462 0
M  V30 6014 H 558.323 -4.30844 -0.85264 0
M  V30 6015 H 558.929 -4.17434 0.814176 0
M  V30 6016 N 557.244 -0.608902 -1.45362 0
M  V30 6017 C 558.49 -0.104762 -2.02529 0
M  V30 6018 C 558.823 1.26191 -1.47613 0
M  V30 6019 O 558.098 1.8327 -0.65134 0
M  V30 6020 C 558.381 -0.0672661 -3.60037 0
M  V30 6021 C 558.234 -1.4647 -4.25284 0
M  V30 6022 C 559.553 0.619877 -4.35713 0
M  V30 6023 H 556.672 -0.0395438 -0.735938 0
M  V30 6024 H 559.314 -0.781126 -1.73201 0
M  V30 6025 H 557.464 0.50871 -3.85155 0
M  V30 6026 H 559.136 -2.08785 -4.11347 0
M  V30 6027 H 557.379 -2.02502 -3.83634 0
M  V30 6028 H 558.05 -1.39069 -5.34195 0
M  V30 6029 H 560.526 0.130297 -4.15896 0
M  V30 6030 H 559.402 0.615224 -5.45441 0
M  V30 6031 H 559.663 1.68621 -4.0868 0
M  V30 6032 N 558.722 1.53707 -0.348139 0
M  V30 6033 C 560.138 1.596 0.00361134 0
M  V30 6034 C 560.338 1.36394 1.4832 0
M  V30 6035 O 559.394 1.16046 2.24253 0
M  V30 6036 C 560.707 2.97512 -0.436682 0
M  V30 6037 C 562.255 3.10568 -0.389416 0
M  V30 6038 C 562.73 4.50866 -0.805249 0
M  V30 6039 N 564.221 4.56929 -0.759616 0
M  V30 6040 C 564.956 5.63643 -1.05327 0
M  V30 6041 N 564.452 6.78189 -1.41531 0
M  V30 6042 N 566.245 5.5354 -0.977207 0
M  V30 6043 H 558.396 1.67044 -1.31187 0
M  V30 6044 H 560.659 0.782559 -0.535075 0
M  V30 6045 H 560.365 3.19575 -1.46849 0
M  V30 6046 H 560.239 3.76742 0.185744 0
M  V30 6047 H 562.626 2.88226 0.633228 0
M  V30 6048 H 562.707 2.33387 -1.04711 0
M  V30 6049 H 562.351 4.73943 -1.82593 0
M  V30 6050 H 562.281 5.26452 -0.124989 0
M  V30 6051 H 564.772 3.74675 -0.49265 0
M  V30 6052 H 565.085 7.55541 -1.62411 0
M  V30 6053 H 563.43 6.79624 -1.45381 0
M  V30 6054 H 566.621 4.62932 -0.693675 0
M  V30 6055 H 566.794 6.36614 -1.2094 0
M  V30 6056 N 560.2 0.0768682 1.57412 0
M  V30 6057 C 561.11 -0.903207 2.16516 0
M  V30 6058 C 562.126 -1.32341 1.12968 0
M  V30 6059 O 563.302 -1.39507 1.45258 0
M  V30 6060 C 560.367 -2.1508 2.71922 0
M  V30 6061 C 559.428 -1.78653 3.90361 0
M  V30 6062 C 558.661 -2.97465 4.43114 0
M  V30 6063 O 558.884 -4.11638 3.94854 0
M  V30 6064 O 557.818 -2.76987 5.3438 0
M  V30 6065 H 561.644 -0.430427 3.00634 0
M  V30 6066 H 559.229 -0.146485 1.4868 0
M  V30 6067 H 561.111 -2.8823 3.07411 0
M  V30 6068 H 559.786 -2.61446 1.9086 0
M  V30 6069 H 558.693 -1.0274 3.59716 0
M  V30 6070 H 560.026 -1.37066 4.7273 0
M  V30 6071 N 561.678 -1.56367 -0.196722 0
M  V30 6072 C 562.608 -1.97442 -1.24655 0
M  V30 6073 C 563.589 -0.846147 -1.47561 0
M  V30 6074 O 564.774 -1.11035 -1.59326 0
M  V30 6075 C 561.904 -2.31253 -2.59112 0
M  V30 6076 C 560.858 -3.46804 -2.50821 0
M  V30 6077 C 560.184 -3.66286 -3.89536 0
M  V30 6078 C 561.484 -4.8104 -2.03465 0
M  V30 6079 H 563.178 -2.85388 -0.905216 0
M  V30 6080 H 560.724 -1.37304 -0.434002 0
M  V30 6081 H 562.677 -2.58583 -3.32736 0
M  V30 6082 H 561.401 -1.40188 -2.94983 0
M  V30 6083 H 560.06 -3.19563 -1.79653 0
M  V30 6084 H 559.708 -2.72555 -4.22756 0
M  V30 6085 H 559.408 -4.4402 -3.84864 0
M  V30 6086 H 560.932 -3.9599 -4.64784 0
M  V30 6087 H 562.346 -5.07411 -2.66846 0
M  V30 6088 H 560.743 -5.62232 -2.09798 0
M  V30 6089 H 561.813 -4.74732 -0.98781 0
M  V30 6090 N 563.156 0.464375 -1.50603 0
M  V30 6091 C 564.403 1.21596 -1.61928 0
M  V30 6092 C 564.731 1.91804 -0.322737 0
M  V30 6093 O 563.986 1.83065 0.691776 0
M  V30 6094 C 564.285 2.278 -2.75394 0
M  V30 6095 C 563.951 1.74797 -4.1564 0
M  V30 6096 C 562.613 1.60063 -4.53799 0
M  V30 6097 C 564.965 1.35548 -5.03266 0
M  V30 6098 C 562.293 1.04514 -5.77316 0
M  V30 6099 C 564.645 0.814381 -6.27336 0
M  V30 6100 C 563.309 0.653726 -6.64291 0
M  V30 6101 H 562.579 0.444951 -0.592536 0
M  V30 6102 H 565.226 0.510964 -1.84557 0
M  V30 6103 H 563.531 3.04233 -2.46879 0
M  V30 6104 H 565.228 2.85723 -2.81359 0
M  V30 6105 H 561.818 1.87234 -3.8554 0
M  V30 6106 H 566.002 1.45763 -4.74412 0
M  V30 6107 H 561.258 0.908186 -6.04617 0
M  V30 6108 H 565.432 0.501626 -6.94591 0
M  V30 6109 H 563.059 0.22114 -7.59878 0
M  V30 6110 N 564.634 1.40294 0.718013 0
M  V30 6111 C 565.544 1.42678 1.86226 0
M  V30 6112 C 566.56 0.319655 1.71039 0
M  V30 6113 O 567.736 0.563852 1.93346 0
M  V30 6114 C 564.801 1.2852 3.21999 0
M  V30 6115 C 563.862 2.49354 3.49458 0
M  V30 6116 C 563.095 2.35863 4.78753 0
M  V30 6117 O 563.318 1.37114 5.53675 0
M  V30 6118 O 562.252 3.25189 5.06494 0
M  V30 6119 H 566.078 2.39167 1.87171 0
M  V30 6120 H 563.663 1.2159 0.868112 0
M  V30 6121 H 565.545 1.22824 4.03103 0
M  V30 6122 H 564.22 0.351359 3.21787 0
M  V30 6123 H 563.127 2.60628 2.68373 0
M  V30 6124 H 564.46 3.41491 3.54464 0
M  V30 6125 N 566.112 -0.949982 1.2575 0
M  V30 6126 C 567.359 -1.69515 1.10774 0
M  V30 6127 C 567.687 -1.91316 -0.350479 0
M  V30 6128 O 566.942 -1.48515 -1.27443 0
M  V30 6129 C 567.241 -3.08039 1.81237 0
M  V30 6130 C 566.907 -3.06023 3.31151 0
M  V30 6131 C 565.569 -3.0518 3.72047 0
M  V30 6132 C 567.921 -2.98998 4.26907 0
M  V30 6133 C 565.249 -2.95067 5.07102 0
M  V30 6134 C 567.601 -2.90426 5.61992 0
M  V30 6135 C 566.265 -2.87922 6.0221 0
M  V30 6136 H 565.535 -0.6203 0.405351 0
M  V30 6137 H 568.182 -1.10953 1.56082 0
M  V30 6138 H 566.487 -3.70172 1.28373 0
M  V30 6139 H 568.184 -3.64526 1.67098 0
M  V30 6140 H 564.774 -3.07453 2.98614 0
M  V30 6141 H 568.958 -2.98764 3.963 0
M  V30 6142 H 564.214 -2.915 5.37436 0
M  V30 6143 H 568.388 -2.83952 6.35881 0
M  V30 6144 H 566.015 -2.79841 7.06819 0
M  V30 6145 N 567.59 -1.07411 -1.15328 0
M  V30 6146 C 568.836 -0.798831 -1.86404 0
M  V30 6147 C 569.169 0.673433 -1.8215 0
M  V30 6148 O 568.444 1.49428 -1.24505 0
M  V30 6149 C 568.727 -1.30846 -3.35487 0
M  V30 6150 C 568.58 -2.84532 -3.4837 0
M  V30 6151 C 569.899 -0.925486 -4.30259 0
M  V30 6152 H 567.018 -0.291659 -0.676834 0
M  V30 6153 H 569.66 -1.332 -1.35491 0
M  V30 6154 H 567.81 -0.854916 -3.78977 0
M  V30 6155 H 569.482 -3.3818 -3.13739 0
M  V30 6156 H 567.725 -3.22699 -2.8991 0
M  V30 6157 H 568.396 -3.15259 -4.53118 0
M  V30 6158 H 570.872 -1.3163 -3.94731 0
M  V30 6159 H 569.748 -1.3094 -5.33053 0
M  V30 6160 H 570.009 0.168525 -4.41779 0
M  V30 6161 N 569.068 1.32177 -0.85831 0
M  V30 6162 C 570.296 2.01313 -0.477582 0
M  V30 6163 C 570.711 1.6449 0.926736 0
M  V30 6164 O 570.068 0.868096 1.60531 0
M  V30 6165 C 570.119 3.56293 -0.611337 0
M  V30 6166 O 569.84 3.91794 -1.96034 0
M  V30 6167 C 571.341 4.42702 -0.230093 0
M  V30 6168 H 568.561 0.644323 -0.187322 0
M  V30 6169 H 571.105 1.68674 -1.15626 0
M  V30 6170 H 569.26 3.87395 0.0196494 0
M  V30 6171 H 569.674 4.86513 -1.95973 0
M  V30 6172 H 571.148 5.50727 -0.374674 0
M  V30 6173 H 571.625 4.3129 0.829779 0
M  V30 6174 H 572.231 4.16997 -0.836302 0
M  V30 6175 N 570.547 0.616602 1.45037 0
M  V30 6176 C 571.824 0.0469086 1.95544 0
M  V30 6177 C 572.204 -1.42345 1.55888 0
M  V30 6178 O 571.552 -2.13055 0.825824 0
M  V30 6179 C 571.762 0.254489 3.48071 0
M  V30 6180 C 573.11 0.140025 4.24369 0
M  V30 6181 O 574.134 0.185084 3.55719 0
M  V30 6182 O 572.993 0.0327034 5.4649 0
M  V30 6183 H 570.087 -0.0306051 0.826433 0
M  V30 6184 H 572.633 0.687293 1.55159 0
M  V30 6185 H 571.405 1.27532 3.69934 0
M  V30 6186 H 571.028 -0.42073 3.95368 0
M  V30 6187 N 572.025 -1.5352 0.356285 0
M  V30 6188 C 573.436 -1.86282 -0.12492 0
M  V30 6189 C 573.787 -1.27717 -1.48939 0
M  V30 6190 O 572.912 -0.595614 -2.08042 0
M  V30 6191 C 573.507 -3.37995 -0.23345 0
M  V30 6192 C 572.066 -3.70588 -0.658899 0
M  V30 6193 C 571.213 -2.76581 0.199596 0
M  V30 6194 H 574.164 -1.47901 0.575423 0
M  V30 6195 H 574.185 -3.65475 -1.0587 0
M  V30 6196 H 573.697 -3.8059 0.759776 0
M  V30 6197 H 571.798 -3.33544 -1.66069 0
M  V30 6198 H 571.911 -4.77076 -0.439957 0
M  V30 6199 H 570.275 -2.52552 -0.330076 0
M  V30 6200 H 571.058 -3.22008 1.19019 0
M  V30 6201 N 573.503 -0.0852151 -1.57369 0
M  V30 6202 C 574.728 0.592872 -1.98746 0
M  V30 6203 C 575.153 1.61538 -0.963689 0
M  V30 6204 O 574.511 1.81168 0.069071 0
M  V30 6205 C 574.559 1.22599 -3.39119 0
M  V30 6206 O 573.663 2.34185 -3.39457 0
M  V30 6207 H 573.004 0.151314 -0.646529 0
M  V30 6208 H 575.534 -0.163703 -2.03944 0
M  V30 6209 H 575.544 1.56965 -3.76598 0
M  V30 6210 H 574.219 0.476831 -4.13158 0
M  V30 6211 H 572.796 2.01512 -3.13763 0
M  V30 6212 N 574.981 1.5647 0.188427 0
M  V30 6213 C 576.23 1.80207 0.905995 0
M  V30 6214 C 576.543 0.659579 1.84144 0
M  V30 6215 O 577.749 0.781431 2.60011 0
M  V30 6216 C 576.205 3.19255 1.66145 0
M  V30 6217 C 575.813 4.41324 0.770504 0
M  V30 6218 C 577.557 3.52298 2.36826 0
M  V30 6219 C 575.464 5.71394 1.52521 0
M  V30 6220 H 574.394 0.671953 0.342045 0
M  V30 6221 H 577.045 1.82808 0.159164 0
M  V30 6222 H 575.427 3.10922 2.45242 0
M  V30 6223 H 576.601 4.60797 0.0177261 0
M  V30 6224 H 574.916 4.16035 0.174199 0
M  V30 6225 H 577.513 4.46715 2.93854 0
M  V30 6226 H 577.856 2.76359 3.11338 0
M  V30 6227 H 578.389 3.62108 1.6469 0
M  V30 6228 H 575.128 6.50316 0.82275 0
M  V30 6229 H 574.648 5.55928 2.25175 0
M  V30 6230 H 576.327 6.12747 2.07725 0
M  V30 6231 N 576.459 -0.456382 1.50847 0
M  V30 6232 C 577.687 -1.23026 1.66349 0
M  V30 6233 C 578.102 -1.85473 0.352868 0
M  V30 6234 O 577.459 -1.69885 -0.666739 0
M  V30 6235 C 577.51 -2.32827 2.76539 0
M  V30 6236 O 577.231 -1.72938 4.02522 0
M  V30 6237 C 578.732 -3.23448 3.03144 0
M  V30 6238 H 575.952 -0.371527 0.558756 0
M  V30 6239 H 578.496 -0.543082 1.97157 0
M  V30 6240 H 576.651 -2.97294 2.48384 0
M  V30 6241 H 577.065 -2.45357 4.63573 0
M  V30 6242 H 578.539 -3.96669 3.83872 0
M  V30 6243 H 579.016 -3.83094 2.14793 0
M  V30 6244 H 579.622 -2.64702 3.32886 0
M  V30 6245 N 577.937 -1.40673 -0.710563 0
M  V30 6246 C 578.887 -1.37812 -1.81636 0
M  V30 6247 C 579.871 -0.254853 -1.58869 0
M  V30 6248 O 581.063 -0.494356 -1.69956 0
M  V30 6249 C 578.192 -1.24802 -3.19811 0
M  V30 6250 C 577.278 -2.41931 -3.48325 0
M  V30 6251 N 577.669 -3.67411 -3.47625 0
M  V30 6252 C 575.967 -2.35419 -3.78806 0
M  V30 6253 C 576.668 -4.45008 -3.74623 0
M  V30 6254 N 575.644 -3.74916 -3.93623 0
M  V30 6255 H 579.446 -2.32766 -1.79436 0
M  V30 6256 H 576.96 -1.34516 -0.909909 0
M  V30 6257 H 578.957 -1.20835 -3.99004 0
M  V30 6258 H 577.617 -0.308202 -3.23234 0
M  V30 6259 H 578.628 -4.00503 -3.28356 0
M  V30 6260 H 575.305 -1.4983 -3.89689 0
M  V30 6261 H 576.695 -5.53884 -3.80344 0
M  V30 6262 N 579.415 0.9433 -1.26252 0
M  V30 6263 C 580.325 2.07532 -1.09397 0
M  V30 6264 C 581.341 1.73977 -0.0280449 0
M  V30 6265 O 582.517 2.00067 -0.231337 0
M  V30 6266 C 579.582 3.39002 -0.726523 0
M  V30 6267 C 578.643 3.86353 -1.87163 0
M  V30 6268 C 577.876 5.11549 -1.52162 0
M  V30 6269 O 578.099 5.68834 -0.422385 0
M  V30 6270 O 577.033 5.53889 -2.35565 0
M  V30 6271 H 580.859 2.24658 -2.04359 0
M  V30 6272 H 578.444 1.05988 -1.05295 0
M  V30 6273 H 580.326 4.18 -0.534236 0
M  V30 6274 H 579.001 3.2312 0.193721 0
M  V30 6275 H 577.908 3.0831 -2.11886 0
M  V30 6276 H 579.241 4.06752 -2.77152 0
M  V30 6277 N 580.893 1.08022 1.14757 0
M  V30 6278 C 581.841 0.701088 2.21783 0
M  V30 6279 C 582.835 -0.291311 1.66876 0
M  V30 6280 O 584.041 -0.154296 1.79337 0
M  V30 6281 H 580.416 0.208668 0.722469 0
M  V30 6282 H 582.387 1.61321 2.51034 0
M  V30 6283 C 581.136 0.122278 3.47485 0
M  V30 6284 H 580.459 0.877065 3.90061 0
M  V30 6285 H 581.899 -0.105248 4.23869 0
M  V30 6286 C 580.358 -1.13883 3.17068 0
M  V30 6287 O 580.888 -2.22429 3.34497 0
M  V30 6288 N 579.094 -1.04767 2.71058 0
M  V30 6289 H 578.641 -0.164302 2.57075 0
M  V30 6290 H 578.599 -1.89224 2.51081 0
M  V30 6291 N 582.371 -1.3172 0.865308 0
M  V30 6292 C 583.304 -2.26687 0.262376 0
M  V30 6293 C 584.282 -1.50894 -0.605787 0
M  V30 6294 O 585.466 -1.79982 -0.56024 0
M  V30 6295 C 582.593 -3.3281 -0.628915 0
M  V30 6296 C 581.639 -4.26172 0.167278 0
M  V30 6297 S 582.472 -5.12797 1.54272 0
M  V30 6298 C 583.628 -6.22438 0.657427 0
M  V30 6299 H 583.861 -2.77478 1.0674 0
M  V30 6300 H 581.394 -1.39414 0.663555 0
M  V30 6301 H 583.352 -3.94426 -1.13747 0
M  V30 6302 H 582.013 -2.80782 -1.40785 0
M  V30 6303 H 581.206 -5.01392 -0.51203 0
M  V30 6304 H 580.808 -3.69029 0.607777 0
M  V30 6305 H 583.1 -6.77368 -0.133925 0
M  V30 6306 H 584.043 -6.9451 1.38061 0
M  V30 6307 H 584.451 -5.64043 0.227044 0
M  V30 6308 N 583.85 -0.624285 -1.44708 0
M  V30 6309 C 585.127 -0.0572781 -1.95516 0
M  V30 6310 C 585.507 1.41516 -1.56641 0
M  V30 6311 O 584.855 2.12614 -0.837111 0
M  V30 6312 C 585.065 -0.272944 -3.47931 0
M  V30 6313 C 586.413 -0.162529 -4.24289 0
M  V30 6314 O 587.437 -0.203946 -3.55616 0
M  V30 6315 O 586.296 -0.0616847 -5.46465 0
M  V30 6316 H 583.389 0.0262219 -0.826584 0
M  V30 6317 H 585.936 -0.695512 -1.54793 0
M  V30 6318 H 584.707 -1.29492 -3.69253 0
M  V30 6319 H 584.331 0.399756 -3.95585 0
M  V30 6320 N 585.328 1.53329 -0.364422 0
M  V30 6321 C 586.291 2.24323 0.470292 0
M  V30 6322 C 587.291 1.25068 1.01067 0
M  V30 6323 O 588.481 1.49354 0.896605 0
M  V30 6324 C 585.613 2.97908 1.65722 0
M  V30 6325 H 586.806 2.9952 -0.150917 0
M  V30 6326 H 584.359 1.55868 -0.116092 0
M  V30 6327 H 585.094 2.2695 2.31655 0
M  V30 6328 H 584.879 3.70732 1.27671 0
M  V30 6329 H 586.369 3.5188 2.24878 0
M  V30 6330 N 586.806 0.0935595 1.57322 0
M  V30 6331 C 588.036 -0.578095 1.98347 0
M  V30 6332 C 588.444 -1.62357 0.971441 0
M  V30 6333 O 587.787 -1.83639 -0.0473959 0
M  V30 6334 C 587.849 -1.28525 3.3574 0
M  V30 6335 C 587.513 -0.390714 4.55327 0
M  V30 6336 C 588.51 0.360522 5.18648 0
M  V30 6337 C 586.195 -0.309221 5.01347 0
M  V30 6338 C 588.189 1.18125 6.26359 0
M  V30 6339 C 585.876 0.515157 6.08925 0
M  V30 6340 C 586.874 1.25904 6.71295 0
M  V30 6341 O 586.562 2.06978 7.76798 0
M  V30 6342 H 586.294 -0.159767 0.656849 0
M  V30 6343 H 588.848 0.169058 2.04703 0
M  V30 6344 H 587.078 -2.07894 3.26063 0
M  V30 6345 H 588.767 -1.85128 3.61223 0
M  V30 6346 H 589.533 0.307285 4.84026 0
M  V30 6347 H 585.412 -0.877881 4.52564 0
M  V30 6348 H 588.956 1.76236 6.74971 0
M  V30 6349 H 584.853 0.56988 6.42979 0
M  V30 6350 H 585.621 1.99644 7.93779 0
M  V30 6351 N 588.284 -1.56567 -0.180126 0
M  V30 6352 C 589.214 -1.98753 -1.22553 0
M  V30 6353 C 590.195 -0.86175 -1.46656 0
M  V30 6354 O 591.38 -1.12719 -1.58139 0
M  V30 6355 C 588.51 -2.33988 -2.56645 0
M  V30 6356 C 587.464 -3.49445 -2.47128 0
M  V30 6357 C 586.79 -3.70397 -3.8563 0
M  V30 6358 C 588.09 -4.83171 -1.98352 0
M  V30 6359 H 589.784 -2.86332 -0.874896 0
M  V30 6360 H 587.33 -1.37757 -0.419414 0
M  V30 6361 H 589.283 -2.62097 -3.29974 0
M  V30 6362 H 588.007 -1.43309 -2.93479 0
M  V30 6363 H 586.666 -3.2145 -1.76254 0
M  V30 6364 H 586.314 -2.77023 -4.19842 0
M  V30 6365 H 586.014 -4.48077 -3.80132 0
M  V30 6366 H 587.538 -4.00897 -4.60558 0
M  V30 6367 H 588.952 -5.10213 -2.61449 0
M  V30 6368 H 587.349 -5.64425 -2.03823 0
M  V30 6369 H 588.419 -4.75753 -0.937402 0
M  V30 6370 N 589.762 0.448376 -1.51087 0
M  V30 6371 C 590.987 1.22605 -1.6728 0
M  V30 6372 C 591.412 1.84524 -0.365045 0
M  V30 6373 O 590.77 1.6832 0.673642 0
M  V30 6374 C 590.818 2.29393 -2.78229 0
M  V30 6375 O 589.922 3.34608 -2.41063 0
M  V30 6376 H 589.263 0.359705 -0.558129 0
M  V30 6377 H 591.793 0.530903 -1.97592 0
M  V30 6378 H 591.803 2.74352 -3.01986 0
M  V30 6379 H 590.478 1.83701 -3.73131 0
M  V30 6380 H 589.055 2.95202 -2.27838 0
M  V30 6381 N 591.24 1.41047 0.703093 0
M  V30 6382 C 592.187 1.42302 1.81711 0
M  V30 6383 C 593.157 0.278336 1.63751 0
M  V30 6384 O 594.342 0.478266 1.84709 0
M  V30 6385 C 591.482 1.30362 3.19531 0
M  V30 6386 C 590.595 2.54638 3.48975 0
M  V30 6387 C 589.73 2.35047 4.76368 0
M  V30 6388 C 588.769 3.54837 4.98756 0
M  V30 6389 N 587.906 3.34363 6.1737 0
M  V30 6390 H 592.746 2.37516 1.79973 0
M  V30 6391 H 590.283 1.1795 0.878983 0
M  V30 6392 H 592.241 1.21443 3.99134 0
M  V30 6393 H 590.871 0.387602 3.20464 0
M  V30 6394 H 589.923 2.74037 2.63833 0
M  V30 6395 H 591.235 3.43766 3.61423 0
M  V30 6396 H 590.389 2.23552 5.64012 0
M  V30 6397 H 589.128 1.43363 4.66153 0
M  V30 6398 H 588.133 3.66795 4.09563 0
M  V30 6399 H 589.358 4.47464 5.10835 0
M  V30 6400 H 587.304 2.45373 6.08382 0
M  V30 6401 H 587.221 4.17063 6.30551 0
M  V30 6402 H 588.489 3.26626 7.07768 0
M  V30 6403 N 592.718 -0.936591 1.26751 0
M  V30 6404 C 593.681 -2.01752 1.08761 0
M  V30 6405 C 594.681 -1.60763 0.0344435 0
M  V30 6406 O 595.871 -1.71963 0.278258 0
M  V30 6407 C 593.003 -3.34543 0.655271 0
M  V30 6408 H 594.196 -2.19143 2.04735 0
M  V30 6409 H 591.749 -1.11618 1.09413 0
M  V30 6410 H 592.484 -3.22851 -0.30626 0
M  V30 6411 H 592.269 -3.65647 1.41578 0
M  V30 6412 H 593.759 -4.13944 0.551378 0
M  V30 6413 N 594.196 -1.08629 -1.14182 0
M  V30 6414 C 595.129 -0.662329 -2.18377 0
M  V30 6415 C 596.107 0.327054 -1.59277 0
M  V30 6416 O 597.291 0.230376 -1.87087 0
M  V30 6417 C 594.418 0.0254765 -3.3869 0
M  V30 6418 C 593.464 -0.924414 -4.16361 0
M  V30 6419 S 594.297 -2.43226 -4.77076 0
M  V30 6420 C 595.453 -1.75663 -6.00744 0
M  V30 6421 H 595.686 -1.54501 -2.54001 0
M  V30 6422 H 593.219 -0.901484 -1.2535 0
M  V30 6423 H 595.177 0.416032 -4.08386 0
M  V30 6424 H 593.838 0.884689 -3.01384 0
M  V30 6425 H 593.031 -0.390099 -5.02488 0
M  V30 6426 H 592.633 -1.25598 -3.5228 0
M  V30 6427 H 594.925 -1.07589 -6.68903 0
M  V30 6428 H 595.868 -2.59673 -6.58768 0
M  V30 6429 H 596.276 -1.22903 -5.50958 0
M  V30 6430 N 595.674 1.31259 -0.872281 0
M  V30 6431 C 596.584 2.32221 -0.333255 0
M  V30 6432 C 597.6 1.6481 0.558013 0
M  V30 6433 O 598.776 1.96212 0.454175 0
M  V30 6434 C 595.841 3.43708 0.454479 0
M  V30 6435 C 594.902 4.26774 -0.465024 0
M  V30 6436 C 594.135 5.32937 0.28521 0
M  V30 6437 O 594.358 5.49968 1.513 0
M  V30 6438 O 593.292 6.00834 -0.358126 0
M  V30 6439 H 597.118 2.80252 -1.17016 0
M  V30 6440 H 594.703 1.352 -0.635724 0
M  V30 6441 H 596.585 4.11656 0.900963 0
M  V30 6442 H 595.26 2.97836 1.26789 0
M  V30 6443 H 594.167 3.61571 -0.960055 0
M  V30 6444 H 595.5 4.76217 -1.2441 0
M  V30 6445 N 597.152 0.631951 1.44375 0
M  V30 6446 C 598.401 0.134214 2.01253 0
M  V30 6447 C 598.714 -1.25171 1.50305 0
M  V30 6448 O 599.92 -1.8435 1.99317 0
M  V30 6449 C 598.376 0.189187 3.59402 0
M  V30 6450 C 597.984 1.57647 4.19346 0
M  V30 6451 C 599.728 -0.252044 4.23751 0
M  V30 6452 C 597.635 1.58651 5.69722 0
M  V30 6453 H 596.565 0.0464101 0.75257 0
M  V30 6454 H 599.216 0.790868 1.65582 0
M  V30 6455 H 597.598 -0.534584 3.92375 0
M  V30 6456 H 598.772 2.32389 3.97909 0
M  V30 6457 H 597.087 1.96186 3.67288 0
M  V30 6458 H 599.684 -0.264084 5.34047 0
M  V30 6459 H 600.027 -1.27951 3.96149 0
M  V30 6460 H 600.56 0.41926 3.95584 0
M  V30 6461 H 597.299 2.59237 6.0206 0
M  V30 6462 H 596.819 0.882039 5.93279 0
M  V30 6463 H 598.498 1.32082 6.33375 0
M  V30 6464 N 598.631 -1.53133 0.372548 0
M  V30 6465 C 599.594 -2.24569 -0.458389 0
M  V30 6466 C 600.594 -1.25603 -1.00402 0
M  V30 6467 O 601.784 -1.49827 -0.888672 0
M  V30 6468 C 598.916 -2.98783 -1.6414 0
M  V30 6469 H 600.109 -2.99436 0.166799 0
M  V30 6470 H 597.662 -1.55805 0.124357 0
M  V30 6471 H 598.397 -2.28176 -2.30448 0
M  V30 6472 H 598.182 -3.71404 -1.25704 0
M  V30 6473 H 599.672 -3.53068 -2.23008 0
M  V30 6474 N 600.109 -0.101901 -1.5727 0
M  V30 6475 C 601.334 0.571759 -1.99363 0
M  V30 6476 C 601.759 1.60507 -0.980768 0
M  V30 6477 O 601.117 1.81231 0.0498517 0
M  V30 6478 C 601.165 1.18996 -3.404 0
M  V30 6479 O 600.269 2.30572 -3.41922 0
M  V30 6480 H 599.61 0.144449 -0.648098 0
M  V30 6481 H 602.14 -0.185325 -2.03759 0
M  V30 6482 H 602.15 1.52962 -3.78241 0
M  V30 6483 H 600.825 0.432984 -4.1364 0
M  V30 6484 H 599.402 1.98173 -3.15883 0
M  V30 6485 N 601.587 1.56661 0.17182 0
M  V30 6486 C 602.519 1.92934 1.2373 0
M  V30 6487 C 603.532 0.822385 1.40502 0
M  V30 6488 O 604.721 1.10083 1.40514 0
M  V30 6489 C 601.821 2.16651 2.60607 0
M  V30 6490 C 600.994 3.47878 2.6514 0
M  V30 6491 C 600.053 3.60429 3.83377 0
M  V30 6492 O 599.079 4.33051 3.69398 0
M  V30 6493 N 600.281 2.95241 4.99813 0
M  V30 6494 H 603.046 2.84931 0.929205 0
M  V30 6495 H 600.607 1.5781 0.361588 0
M  V30 6496 H 602.599 2.22312 3.38171 0
M  V30 6497 H 601.169 1.3104 2.83809 0
M  V30 6498 H 600.389 3.53879 1.73675 0
M  V30 6499 H 601.677 4.34232 2.6518 0
M  V30 6500 H 601.075 2.3611 5.14071 0
M  V30 6501 H 599.632 3.06499 5.75241 0
M  V30 6502 N 603.065 -0.440357 1.51323 0
M  V30 6503 C 604.481 -0.7766 1.39431 0
M  V30 6504 C 604.681 -1.95838 0.474296 0
M  V30 6505 O 603.737 -2.52398 -0.0716692 0
M  V30 6506 C 605.05 -1.05981 2.81405 0
M  V30 6507 C 606.598 -1.16442 2.90534 0
M  V30 6508 C 607.073 -1.48058 4.33408 0
M  V30 6509 N 608.564 -1.54988 4.36501 0
M  V30 6510 C 609.299 -1.81017 5.44078 0
M  V30 6511 N 608.795 -2.04858 6.61819 0
M  V30 6512 N 610.588 -1.82774 5.31554 0
M  V30 6513 H 602.739 0.338006 2.09693 0
M  V30 6514 H 605.002 0.0888072 0.943831 0
M  V30 6515 H 604.708 -0.264173 3.50706 0
M  V30 6516 H 604.582 -1.98822 3.20546 0
M  V30 6517 H 606.969 -1.95068 2.21432 0
M  V30 6518 H 607.05 -0.215088 2.54894 0
M  V30 6519 H 606.694 -0.699605 5.03059 0
M  V30 6520 H 606.624 -2.44192 4.66559 0
M  V30 6521 H 609.115 -1.38479 3.51613 0
M  V30 6522 H 609.428 -2.2408 7.396 0
M  V30 6523 H 607.773 -2.02187 6.6494 0
M  V30 6524 H 610.964 -1.63665 4.38556 0
M  V30 6525 H 611.137 -2.02722 6.15474 0
M  V30 6526 N 604.543 -1.41418 -0.695603 0
M  V30 6527 C 605.771 -1.4413 -1.48439 0
M  V30 6528 C 606.186 -0.0465698 -1.88743 0
M  V30 6529 O 605.543 0.934117 -1.56782 0
M  V30 6530 C 605.594 -2.34998 -2.74696 0
M  V30 6531 O 605.315 -3.69043 -2.36091 0
M  V30 6532 C 606.816 -2.46513 -3.68438 0
M  V30 6533 H 604.036 -0.490905 -0.457442 0
M  V30 6534 H 606.58 -1.85702 -0.856454 0
M  V30 6535 H 604.735 -1.96735 -3.33728 0
M  V30 6536 H 605.149 -4.17505 -3.17474 0
M  V30 6537 H 606.623 -3.1426 -4.53811 0
M  V30 6538 H 607.1 -1.49638 -4.12922 0
M  V30 6539 H 607.706 -2.85412 -3.1531 0
M  V30 6540 N 606.021 0.929856 -1.27246 0
M  V30 6541 C 606.968 2.03017 -1.09785 0
M  V30 6542 C 607.938 1.661 0.000456744 0
M  V30 6543 O 609.123 1.90116 -0.161462 0
M  V30 6544 C 606.263 3.36878 -0.748816 0
M  V30 6545 C 605.376 3.86763 -1.92453 0
M  V30 6546 C 604.511 5.09061 -1.51758 0
M  V30 6547 C 603.55 5.51237 -2.66091 0
M  V30 6548 N 602.687 6.64732 -2.25999 0
M  V30 6549 H 607.527 2.17285 -2.03939 0
M  V30 6550 H 605.064 1.06448 -1.01524 0
M  V30 6551 H 607.022 4.13855 -0.527283 0
M  V30 6552 H 605.652 3.22424 0.155771 0
M  V30 6553 H 604.704 3.06086 -2.25867 0
M  V30 6554 H 606.016 4.13994 -2.78227 0
M  V30 6555 H 605.17 5.93532 -1.25716 0
M  V30 6556 H 603.909 4.83602 -0.630896 0
M  V30 6557 H 602.914 4.65316 -2.92849 0
M  V30 6558 H 604.139 5.78692 -3.55377 0
M  V30 6559 H 602.085 6.40935 -1.3978 0
M  V30 6560 H 602.002 6.91607 -3.05313 0
M  V30 6561 H 603.27 7.52549 -2.03199 0
M  V30 6562 N 607.499 1.09233 1.13605 0
M  V30 6563 C 608.409 0.741939 2.22559 0
M  V30 6564 C 609.425 -0.255236 1.72118 0
M  V30 6565 O 610.601 -0.0970747 2.01166 0
M  V30 6566 C 607.666 0.165595 3.46304 0
M  V30 6567 C 606.727 1.21846 4.11645 0
M  V30 6568 C 605.96 0.669526 5.29484 0
M  V30 6569 O 606.183 -0.508228 5.68131 0
M  V30 6570 O 605.117 1.42361 5.84822 0
M  V30 6571 H 608.943 1.65107 2.54899 0
M  V30 6572 H 606.528 0.866584 1.21699 0
M  V30 6573 H 608.41 -0.152592 4.21124 0
M  V30 6574 H 607.085 -0.716573 3.15669 0
M  V30 6575 H 605.992 1.58931 3.38662 0
M  V30 6576 H 607.325 2.07321 4.46407 0
M  V30 6577 N 608.977 -1.30795 0.87923 0
M  V30 6578 C 609.887 -2.32041 0.345565 0
M  V30 6579 C 610.903 -1.65103 -0.549265 0
M  V30 6580 O 612.079 -1.9645 -0.443763 0
M  V30 6581 C 609.144 -3.43944 -0.436245 0
M  V30 6582 C 608.205 -4.26521 0.48765 0
M  V30 6583 C 607.438 -5.33081 -0.256943 0
M  V30 6584 O 607.661 -5.50762 -1.48381 0
M  V30 6585 O 606.595 -6.00635 0.389985 0
M  V30 6586 H 610.421 -2.79627 1.18501 0
M  V30 6587 H 608.006 -1.3486 0.642885 0
M  V30 6588 H 609.888 -4.12128 -0.879119 0
M  V30 6589 H 608.563 -2.98504 -1.25208 0
M  V30 6590 H 607.47 -3.61057 0.979216 0
M  V30 6591 H 608.803 -4.75551 1.26933 0
M  V30 6592 N 610.455 -0.639598 -1.44038 0
M  V30 6593 C 611.871 -0.305953 -1.5664 0
M  V30 6594 C 612.071 1.19055 -1.62567 0
M  V30 6595 O 611.127 1.97492 -1.57331 0
M  V30 6596 C 612.44 -1.00533 -2.83397 0
M  V30 6597 C 613.988 -0.984278 -2.97121 0
M  V30 6598 C 614.463 -1.66428 -4.26691 0
M  V30 6599 N 615.954 -1.63127 -4.33525 0
M  V30 6600 C 616.689 -2.12629 -5.32519 0
M  V30 6601 N 616.185 -2.70359 -6.3787 0
M  V30 6602 N 617.978 -2.03208 -5.24083 0
M  V30 6603 H 610.129 -1.6109 -1.38434 0
M  V30 6604 H 612.392 -0.676672 -0.663942 0
M  V30 6605 H 612.098 -2.06034 -2.85032 0
M  V30 6606 H 611.972 -0.548362 -3.73193 0
M  V30 6607 H 614.359 0.0622792 -2.95034 0
M  V30 6608 H 614.44 -1.47981 -2.08651 0
M  V30 6609 H 614.084 -2.71034 -4.29538 0
M  V30 6610 H 614.014 -1.14351 -5.14034 0
M  V30 6611 H 616.505 -1.20987 -3.58009 0
M  V30 6612 H 616.818 -3.05842 -7.09704 0
M  V30 6613 H 615.163 -2.74414 -6.38531 0
M  V30 6614 H 618.354 -1.57823 -4.40692 0
M  V30 6615 H 618.527 -2.42097 -6.01077 0
M  V30 6616 N 611.933 1.52934 -0.380664 0
M  V30 6617 C 613.158 2.06363 0.207157 0
M  V30 6618 C 613.583 1.25122 1.4045 0
M  V30 6619 O 612.941 0.274062 1.79217 0
M  V30 6620 C 612.989 3.56162 0.563996 0
M  V30 6621 O 612.093 3.77552 1.65917 0
M  V30 6622 H 611.434 0.663468 0.0265859 0
M  V30 6623 H 613.964 1.9719 -0.545635 0
M  V30 6624 H 613.974 3.99453 0.830752 0
M  V30 6625 H 612.649 4.14732 -0.311427 0
M  V30 6626 H 611.226 3.46154 1.3868 0
M  V30 6627 N 613.412 0.11024 1.57214 0
M  V30 6628 C 614.637 -0.561179 1.99664 0
M  V30 6629 C 615.062 -1.59985 0.989266 0
M  V30 6630 O 614.42 -1.81255 -0.0402399 0
M  V30 6631 C 614.468 -1.17189 3.41027 0
M  V30 6632 O 613.572 -2.28755 3.4314 0
M  V30 6633 H 612.913 -0.14101 0.648855 0
M  V30 6634 H 615.443 0.196128 2.03658 0
M  V30 6635 H 615.453 -1.50954 3.79047 0
M  V30 6636 H 614.128 -0.411041 4.13864 0
M  V30 6637 H 612.705 -1.96495 3.16929 0
M  V30 6638 N 614.89 -1.56749 -0.16351 0
M  V30 6639 C 615.822 -1.93587 -1.22705 0
M  V30 6640 C 616.835 -0.829824 -1.40063 0
M  V30 6641 O 618.024 -1.10826 -1.39928 0
M  V30 6642 C 615.124 -2.1803 -2.59454 0
M  V30 6643 C 614.297 -3.4928 -2.63292 0
M  V30 6644 C 613.356 -3.62457 -3.8146 0
M  V30 6645 O 612.382 -4.35004 -3.67096 0
M  V30 6646 N 613.584 -2.97888 -4.9824 0
M  V30 6647 H 616.349 -2.8542 -0.914081 0
M  V30 6648 H 613.91 -1.58 -0.353214 0
M  V30 6649 H 615.902 -2.24102 -3.36987 0
M  V30 6650 H 614.472 -1.32543 -2.8311 0
M  V30 6651 H 613.692 -3.54795 -1.71796 0
M  V30 6652 H 614.98 -4.35632 -2.62873 0
M  V30 6653 H 614.378 -2.38833 -5.12811 0
M  V30 6654 H 612.935 -3.09545 -5.73607 0
M  V30 6655 N 616.368 0.432326 -1.51554 0
M  V30 6656 C 617.645 1.19288 -1.55015 0
M  V30 6657 C 618.025 2.08701 -0.317375 0
M  V30 6658 O 617.373 2.17602 0.697243 0
M  V30 6659 C 617.583 1.99037 -2.86679 0
M  V30 6660 C 618.931 2.55907 -3.38817 0
M  V30 6661 O 619.955 2.09243 -2.88263 0
M  V30 6662 O 618.814 3.41029 -4.27038 0
M  V30 6663 H 615.908 0.543369 -0.623441 0
M  V30 6664 H 618.454 0.440988 -1.6387 0
M  V30 6665 H 617.226 1.33397 -3.6786 0
M  V30 6666 H 616.849 2.81281 -2.8101 0
M  V30 6667 N 617.846 1.41785 0.688094 0
M  V30 6668 C 618.796 1.40684 1.79421 0
M  V30 6669 C 619.78 0.280096 1.58443 0
M  V30 6670 O 620.972 0.521332 1.69148 0
M  V30 6671 C 618.101 1.29874 3.17785 0
M  V30 6672 C 617.187 2.47442 3.44432 0
M  V30 6673 N 617.578 3.72895 3.41736 0
M  V30 6674 C 615.876 2.41416 3.75013 0
M  V30 6675 C 616.577 4.50912 3.67496 0
M  V30 6676 N 615.553 3.81131 3.87608 0
M  V30 6677 H 619.355 2.35591 1.7571 0
M  V30 6678 H 616.869 1.35946 0.888393 0
M  V30 6679 H 618.866 1.27168 3.97031 0
M  V30 6680 H 617.526 0.359587 3.22703 0
M  V30 6681 H 618.537 4.05676 3.21943 0
M  V30 6682 H 615.214 1.56011 3.87256 0
M  V30 6683 H 616.604 5.59865 3.71484 0
M  V30 6684 N 619.324 -0.923095 1.27737 0
M  V30 6685 C 620.57 -1.67375 1.14514 0
M  V30 6686 C 620.903 -1.91751 -0.307424 0
M  V30 6687 O 620.178 -1.51119 -1.22447 0
M  V30 6688 C 620.461 -3.03745 1.9342 0
M  V30 6689 C 620.314 -2.86581 3.46686 0
M  V30 6690 C 621.633 -4.04144 1.74228 0
M  V30 6691 H 618.752 -0.607427 0.417374 0
M  V30 6692 H 621.394 -1.07089 1.56946 0
M  V30 6693 H 619.544 -3.55204 1.5736 0
M  V30 6694 H 621.216 -2.42203 3.92601 0
M  V30 6695 H 619.459 -2.21829 3.72793 0
M  V30 6696 H 620.13 -3.83381 3.97143 0
M  V30 6697 H 622.606 -3.61712 2.05678 0
M  V30 6698 H 621.482 -4.97543 2.31824 0
M  V30 6699 H 621.743 -4.36661 0.691373 0
M  V30 6700 N 620.802 -1.09834 -1.13024 0
M  V30 6701 C 622.079 -0.749225 -1.80682 0
M  V30 6702 C 622.459 0.765171 -1.96744 0
M  V30 6703 O 621.807 1.68912 -1.53886 0
M  V30 6704 C 622.017 -1.49311 -3.15448 0
M  V30 6705 C 623.365 -1.66162 -3.90737 0
M  V30 6706 O 624.389 -1.45597 -3.25085 0
M  V30 6707 O 623.248 -2.00211 -5.08505 0
M  V30 6708 H 620.342 -0.269614 -0.781817 0
M  V30 6709 H 622.888 -1.20078 -1.19914 0
M  V30 6710 H 621.66 -2.52407 -2.99009 0
M  V30 6711 H 621.283 -1.034 -3.8392 0
M  V30 6712 N 622.28 1.30327 -0.886154 0
M  V30 6713 C 623.19 2.31854 -0.357866 0
M  V30 6714 C 624.206 1.65392 0.540502 0
M  V30 6715 O 625.382 1.96683 0.433339 0
M  V30 6716 C 622.447 3.44171 0.417999 0
M  V30 6717 C 621.508 4.26257 -0.510263 0
M  V30 6718 C 620.741 5.3321 0.228669 0
M  V30 6719 O 620.964 5.51542 1.45458 0
M  V30 6720 O 619.898 6.0042 -0.421832 0
M  V30 6721 H 623.724 2.78995 -1.19982 0
M  V30 6722 H 621.309 1.34518 -0.650028 0
M  V30 6723 H 623.191 4.12588 0.857251 0
M  V30 6724 H 621.866 2.99164 1.23623 0
M  V30 6725 H 620.773 3.60533 -0.99835 0
M  V30 6726 H 622.106 4.74871 -1.29454 0
M  V30 6727 N 623.758 0.647228 1.43697 0
M  V30 6728 C 624.668 -0.0487997 2.34549 0
M  V30 6729 C 625.684 -0.818586 1.53542 0
M  V30 6730 O 626.86 -0.767195 1.86215 0
M  V30 6731 C 623.925 -1.00734 3.31743 0
M  V30 6732 C 622.986 -0.23515 4.28655 0
M  V30 6733 C 622.219 -1.14803 5.21206 0
M  V30 6734 O 622.442 -2.38717 5.18045 0
M  V30 6735 O 621.376 -0.623667 5.9866 0
M  V30 6736 H 625.202 0.698863 2.9555 0
M  V30 6737 H 622.787 0.407412 1.43738 0
M  V30 6738 H 624.669 -1.55837 3.91526 0
M  V30 6739 H 623.344 -1.73534 2.73254 0
M  V30 6740 H 622.251 0.359319 3.7237 0
M  V30 6741 H 623.584 0.453152 4.9011 0
M  V30 6742 N 625.236 -1.5273 0.388769 0
M  V30 6743 C 626.482 -2.01871 -0.193877 0
M  V30 6744 C 626.815 -1.27475 -1.46505 0
M  V30 6745 O 626.09 -0.375063 -1.90849 0
M  V30 6746 C 626.373 -3.5712 -0.462336 0
M  V30 6747 C 626.226 -4.42186 0.824091 0
M  V30 6748 C 627.545 -4.21881 -1.25319 0
M  V30 6749 H 624.664 -0.733764 -0.0689899 0
M  V30 6750 H 627.306 -1.82796 0.518231 0
M  V30 6751 H 625.456 -3.73504 -1.06896 0
M  V30 6752 H 627.128 -4.37554 1.46096 0
M  V30 6753 H 625.371 -4.09219 1.43952 0
M  V30 6754 H 626.042 -5.48828 0.590905 0
M  V30 6755 H 628.518 -4.0947 -0.73981 0
M  V30 6756 H 627.394 -5.30487 -1.40977 0
M  V30 6757 H 627.655 -3.79478 -2.26824 0
M  V30 6758 N 626.714 -0.118576 -1.57153 0
M  V30 6759 C 627.961 0.539526 -1.9518 0
M  V30 6760 C 628.289 1.66714 -1.00184 0
M  V30 6761 O 627.544 1.95683 -0.0256482 0
M  V30 6762 C 627.843 1.11303 -3.39627 0
M  V30 6763 C 627.509 0.106809 -4.50773 0
M  V30 6764 C 626.171 -0.169876 -4.809 0
M  V30 6765 C 628.523 -0.57895 -5.17975 0
M  V30 6766 C 625.851 -1.13861 -5.75545 0
M  V30 6767 C 628.203 -1.53631 -6.13661 0
M  V30 6768 C 626.867 -1.82099 -6.42181 0
M  V30 6769 H 626.137 0.197427 -0.714215 0
M  V30 6770 H 628.784 -0.199391 -1.90459 0
M  V30 6771 H 627.089 1.92869 -3.4104 0
M  V30 6772 H 628.786 1.63032 -3.66363 0
M  V30 6773 H 625.376 0.332645 -4.27307 0
M  V30 6774 H 629.56 -0.378359 -4.94856 0
M  V30 6775 H 624.816 -1.36592 -5.95947 0
M  V30 6776 H 628.99 -2.07337 -6.64819 0
M  V30 6777 H 626.617 -2.57319 -7.15326 0
M  V30 6778 N 628.193 1.56834 0.155195 0
M  V30 6779 C 629.14 1.97646 1.19184 0
M  V30 6780 C 630.11 0.842788 1.4313 0
M  V30 6781 O 631.295 1.1042 1.55602 0
M  V30 6782 C 628.435 2.35527 2.52232 0
M  V30 6783 C 627.548 3.62147 2.35529 0
M  V30 6784 C 626.683 3.89167 3.61555 0
M  V30 6785 C 625.722 5.09084 3.39853 0
M  V30 6786 N 624.859 5.32156 4.5799 0
M  V30 6787 H 629.699 2.8601 0.836802 0
M  V30 6788 H 627.236 1.41507 0.401758 0
M  V30 6789 H 629.194 2.55516 3.29799 0
M  V30 6790 H 627.824 1.50253 2.85699 0
M  V30 6791 H 626.876 3.4998 1.49057 0
M  V30 6792 H 628.188 4.49871 2.15448 0
M  V30 6793 H 627.342 4.09611 4.47553 0
M  V30 6794 H 626.081 2.9985 3.84632 0
M  V30 6795 H 625.086 4.88522 2.52243 0
M  V30 6796 H 626.311 5.99947 3.18183 0
M  V30 6797 H 624.257 4.45791 4.81255 0
M  V30 6798 H 624.174 6.14133 4.40882 0
M  V30 6799 H 625.442 5.57091 5.45225 0
M  V30 6800 N 629.671 -0.424282 1.51781 0
M  V30 6801 C 631.087 -0.761768 1.40247 0
M  V30 6802 C 631.287 -1.95324 0.495041 0
M  V30 6803 O 630.343 -2.5246 -0.0448949 0
M  V30 6804 C 631.656 -1.0299 2.82513 0
M  V30 6805 C 633.204 -1.13354 2.91753 0
M  V30 6806 C 633.679 -1.43453 4.34954 0
M  V30 6807 N 635.17 -1.5035 4.3812 0
M  V30 6808 C 635.905 -1.75236 5.45967 0
M  V30 6809 N 635.401 -1.97827 6.63955 0
M  V30 6810 N 637.194 -1.77126 5.33463 0
M  V30 6811 H 629.345 0.360228 2.09323 0
M  V30 6812 H 631.608 0.0988128 0.942836 0
M  V30 6813 H 631.314 -0.226961 3.50967 0
M  V30 6814 H 631.188 -1.95411 3.22637 0
M  V30 6815 H 633.575 -1.92709 2.23489 0
M  V30 6816 H 633.656 -0.188041 2.55108 0
M  V30 6817 H 633.3 -0.646209 5.03772 0
M  V30 6818 H 633.23 -2.3923 4.69123 0
M  V30 6819 H 635.721 -1.34742 3.53062 0
M  V30 6820 H 636.034 -2.16223 7.41935 0
M  V30 6821 H 634.379 -1.95123 6.67047 0
M  V30 6822 H 637.57 -1.59005 4.40267 0
M  V30 6823 H 637.743 -1.96182 6.17589 0
M  V30 6824 N 631.149 -1.42148 -0.680565 0
M  V30 6825 C 632.112 -1.4488 -1.77602 0
M  V30 6826 C 633.112 -0.337209 -1.57224 0
M  V30 6827 O 634.302 -0.597778 -1.63622 0
M  V30 6828 C 631.434 -1.27483 -3.16166 0
M  V30 6829 H 632.627 -2.42412 -1.76568 0
M  V30 6830 H 630.18 -1.28511 -0.889645 0
M  V30 6831 H 630.915 -0.30851 -3.22829 0
M  V30 6832 H 630.7 -2.08037 -3.3236 0
M  V30 6833 H 632.19 -1.32265 -3.96101 0
M  V30 6834 N 632.627 0.916307 -1.28225 0
M  V30 6835 C 633.857 1.69654 -1.17902 0
M  V30 6836 C 634.265 1.87331 0.265268 0
M  V30 6837 O 633.608 1.39828 1.19137 0
M  V30 6838 C 633.67 3.11024 -1.80289 0
M  V30 6839 C 633.334 3.16643 -3.29525 0
M  V30 6840 C 634.331 2.98032 -4.25997 0
M  V30 6841 C 632.016 3.39238 -3.70436 0
M  V30 6842 C 634.01 3.01924 -5.61356 0
M  V30 6843 C 631.697 3.42762 -5.05922 0
M  V30 6844 C 632.695 3.24125 -6.01192 0
M  V30 6845 O 632.383 3.27406 -7.34208 0
M  V30 6846 H 632.115 0.537197 -0.41036 0
M  V30 6847 H 634.669 1.15547 -1.69817 0
M  V30 6848 H 632.899 3.66662 -1.22865 0
M  V30 6849 H 634.588 3.71063 -1.6452 0
M  V30 6850 H 635.354 2.80405 -3.95725 0
M  V30 6851 H 631.233 3.52791 -2.96749 0
M  V30 6852 H 634.777 2.87295 -6.35694 0
M  V30 6853 H 630.674 3.59916 -5.35846 0
M  V30 6854 H 631.442 3.43784 -7.42802 0
M  V30 6855 N 634.105 1.10431 1.1244 0
M  V30 6856 C 635.354 0.841539 1.83306 0
M  V30 6857 C 635.667 -0.634961 1.85007 0
M  V30 6858 O 636.873 -1.01363 2.51869 0
M  V30 6859 C 635.329 1.45565 3.29149 0
M  V30 6860 C 634.937 2.96544 3.35806 0
M  V30 6861 C 636.681 1.27227 4.04986 0
M  V30 6862 C 634.588 3.5099 4.75983 0
M  V30 6863 H 633.518 0.311156 0.686803 0
M  V30 6864 H 636.169 1.32829 1.26604 0
M  V30 6865 H 634.551 0.896574 3.85717 0
M  V30 6866 H 635.725 3.58766 2.89177 0
M  V30 6867 H 634.04 3.14036 2.73442 0
M  V30 6868 H 636.637 1.65348 5.08492 0
M  V30 6869 H 636.98 0.213834 4.1575 0
M  V30 6870 H 637.513 1.79941 3.54776 0
M  V30 6871 H 634.252 4.56499 4.70413 0
M  V30 6872 H 633.772 2.93535 5.23065 0
M  V30 6873 H 635.451 3.48808 5.44924 0
M  V30 6874 N 635.583 -1.29855 0.893053 0
M  V30 6875 C 636.994 -1.77946 0.564998 0
M  V30 6876 C 637.345 -1.73339 -0.919134 0
M  V30 6877 O 636.47 -1.3152 -1.71847 0
M  V30 6878 C 637.065 -3.23118 1.01883 0
M  V30 6879 C 635.624 -3.69013 0.742051 0
M  V30 6880 C 634.771 -2.50121 1.19727 0
M  V30 6881 H 637.722 -1.16611 1.07646 0
M  V30 6882 H 637.743 -3.78875 0.351249 0
M  V30 6883 H 637.255 -3.26439 2.09903 0
M  V30 6884 H 635.356 -3.71173 -0.325816 0
M  V30 6885 H 635.469 -4.60117 1.33527 0
M  V30 6886 H 633.833 -2.47128 0.616418 0
M  V30 6887 H 634.616 -2.56174 2.28538 0
M  V30 6888 N 637.061 -0.65484 -1.43351 0
M  V30 6889 C 638.477 -0.32255 -1.56307 0
M  V30 6890 C 638.677 1.17324 -1.63821 0
M  V30 6891 O 637.733 1.95813 -1.59417 0
M  V30 6892 C 639.046 -1.03533 -2.82314 0
M  V30 6893 C 640.594 -1.01574 -2.9606 0
M  V30 6894 C 641.069 -1.70945 -4.24902 0
M  V30 6895 N 642.56 -1.67716 -4.3177 0
M  V30 6896 C 643.295 -2.18265 -5.30234 0
M  V30 6897 N 642.791 -2.7711 -6.34966 0
M  V30 6898 N 644.584 -2.08756 -5.21898 0
M  V30 6899 H 636.735 -1.62549 -1.36717 0
M  V30 6900 H 638.998 -0.683676 -0.656727 0
M  V30 6901 H 638.704 -2.09045 -2.8283 0
M  V30 6902 H 638.578 -0.587913 -3.7259 0
M  V30 6903 H 640.965 0.0309834 -2.95084 0
M  V30 6904 H 641.046 -1.50186 -2.07069 0
M  V30 6905 H 640.69 -2.75574 -4.26639 0
M  V30 6906 H 640.62 -1.19797 -5.12793 0
M  V30 6907 H 643.111 -1.24777 -3.56706 0
M  V30 6908 H 643.424 -3.13353 -7.06421 0
M  V30 6909 H 641.769 -2.81171 -6.35585 0
M  V30 6910 H 644.96 -1.62488 -4.38994 0
M  V30 6911 H 645.133 -2.48459 -5.98475 0
M  V30 6912 N 638.539 1.52521 -0.396863 0
M  V30 6913 C 639.767 2.06091 0.18275 0
M  V30 6914 C 640.182 1.26796 1.39886 0
M  V30 6915 O 639.539 0.316585 1.79733 0
M  V30 6916 C 639.59 3.57362 0.545377 0
M  V30 6917 O 639.311 4.33656 -0.622428 0
M  V30 6918 C 640.812 4.27305 1.18004 0
M  V30 6919 H 638.032 0.670504 0.025789 0
M  V30 6920 H 640.576 1.96561 -0.564276 0
M  V30 6921 H 638.731 3.66941 1.2423 0
M  V30 6922 H 639.145 5.23507 -0.322662 0
M  V30 6923 H 640.619 5.34366 1.38408 0
M  V30 6924 H 641.096 3.83 2.1496 0
M  V30 6925 H 641.702 4.22064 0.523671 0
M  V30 6926 N 640.017 0.126909 1.57088 0
M  V30 6927 C 640.947 -0.816847 2.18746 0
M  V30 6928 C 641.928 -1.27161 1.12979 0
M  V30 6929 O 643.113 -1.33279 1.41246 0
M  V30 6930 C 640.243 -2.06398 2.79315 0
M  V30 6931 C 639.197 -1.74673 3.90735 0
M  V30 6932 C 638.523 -3.06482 4.38147 0
M  V30 6933 C 639.823 -1.0089 5.12463 0
M  V30 6934 H 641.517 -0.303032 2.97863 0
M  V30 6935 H 639.063 -0.144314 1.43275 0
M  V30 6936 H 641.016 -2.72885 3.2111 0
M  V30 6937 H 639.74 -2.60118 1.975 0
M  V30 6938 H 638.399 -1.10572 3.49527 0
M  V30 6939 H 638.047 -3.58152 3.5318 0
M  V30 6940 H 637.747 -2.86025 5.13287 0
M  V30 6941 H 639.271 -3.74073 4.82599 0
M  V30 6942 H 640.685 -1.57546 5.51228 0
M  V30 6943 H 639.082 -0.905006 5.93237 0
M  V30 6944 H 640.152 0.00297335 4.849 0
M  V30 6945 N 641.495 -1.56914 -0.146875 0
M  V30 6946 C 642.443 -1.99224 -1.20053 0
M  V30 6947 C 643.437 -0.884661 -1.44465 0
M  V30 6948 O 644.643 -1.06984 -1.44756 0
M  V30 6949 H 641.018 -0.634191 -0.404112 0
M  V30 6950 H 642.989 -2.86998 -0.816987 0
M  V30 6951 C 641.738 -2.38899 -2.52632 0
M  V30 6952 H 641.061 -3.23677 -2.34677 0
M  V30 6953 H 642.501 -2.72326 -3.24984 0
M  V30 6954 C 640.96 -1.2417 -3.13183 0
M  V30 6955 O 641.49 -0.542503 -3.9802 0
M  V30 6956 N 639.696 -1.00592 -2.72635 0
M  V30 6957 H 639.243 -1.57627 -2.03744 0
M  V30 6958 H 639.201 -0.240174 -3.13481 0
M  V30 6959 N 642.974 0.416227 -1.52004 0
M  V30 6960 C 643.884 1.53147 -1.77717 0
M  V30 6961 C 644.9 1.609 -0.662368 0
M  V30 6962 O 646.076 1.77747 -0.946991 0
M  V30 6963 C 643.141 2.88948 -1.91598 0
M  V30 6964 C 642.202 2.9114 -3.15493 0
M  V30 6965 C 641.435 4.20464 -3.28703 0
M  V30 6966 O 641.658 5.13981 -2.47345 0
M  V30 6967 O 640.592 4.29368 -4.21813 0
M  V30 6968 H 644.418 1.34357 -2.72363 0
M  V30 6969 H 642.003 0.601373 -1.36762 0
M  V30 6970 H 643.885 3.69505 -2.02593 0
M  V30 6971 H 642.56 3.07821 -1.00141 0
M  V30 6972 H 641.467 2.09461 -3.09962 0
M  V30 6973 H 642.8 2.77216 -4.06709 0
M  V30 6974 N 644.452 1.42507 0.673017 0
M  V30 6975 C 645.698 1.43284 1.43519 0
M  V30 6976 C 646.031 0.049668 1.94136 0
M  V30 6977 O 645.306 -0.926369 1.71022 0
M  V30 6978 C 645.589 2.45874 2.63093 0
M  V30 6979 C 645.442 3.93388 2.18096 0
M  V30 6980 C 646.761 2.45431 3.6531 0
M  V30 6981 H 643.88 0.521752 0.520522 0
M  V30 6982 H 646.522 1.73932 0.764701 0
M  V30 6983 H 644.672 2.19869 3.20296 0
M  V30 6984 H 646.344 4.30379 1.66046 0
M  V30 6985 H 644.587 4.07169 1.49652 0
M  V30 6986 H 645.258 4.60752 3.03993 0
M  V30 6987 H 647.734 2.68561 3.17827 0
M  V30 6988 H 646.61 3.19189 4.46553 0
M  V30 6989 H 646.871 1.48092 4.16559 0
M  V30 6990 N 645.93 -0.909495 1.28709 0
M  V30 6991 C 646.877 -2.01245 1.13 0
M  V30 6992 C 647.847 -1.6608 0.0259684 0
M  V30 6993 O 649.032 -1.89835 0.191687 0
M  V30 6994 C 646.172 -3.35644 0.802315 0
M  V30 6995 C 645.285 -3.83653 1.98582 0
M  V30 6996 C 644.42 -5.06582 1.59837 0
M  V30 6997 C 643.459 -5.46934 2.74827 0
M  V30 6998 N 642.596 -6.61053 2.36546 0
M  V30 6999 H 647.436 -2.14013 2.0737 0
M  V30 7000 H 644.973 -1.0482 1.03205 0
M  V30 7001 H 646.931 -4.12963 0.593057 0
M  V30 7002 H 645.561 -3.22631 -0.104457 0
M  V30 7003 H 644.613 -3.02454 2.30708 0
M  V30 7004 H 645.925 -4.09515 2.84779 0
M  V30 7005 H 645.079 -5.91457 1.35143 0
M  V30 7006 H 643.818 -4.82537 0.707753 0
M  V30 7007 H 642.823 -4.60599 3.00215 0
M  V30 7008 H 644.048 -5.72965 3.64538 0
M  V30 7009 H 641.994 -6.3863 1.49959 0
M  V30 7010 H 641.911 -6.86662 3.16277 0
M  V30 7011 H 643.179 -7.49221 2.15146 0
M  V30 7012 N 647.408 -1.11026 -1.11852 0
M  V30 7013 C 648.356 -0.759643 -2.19846 0
M  V30 7014 C 649.35 0.246964 -1.6759 0
M  V30 7015 O 650.556 0.106693 -1.79684 0
M  V30 7016 H 646.931 -0.22775 -0.716683 0
M  V30 7017 H 648.902 -1.6792 -2.46669 0
M  V30 7018 C 647.651 -0.214364 -3.47039 0
M  V30 7019 H 646.974 -0.980175 -3.87599 0
M  V30 7020 H 648.414 -0.00717047 -4.23999 0
M  V30 7021 C 646.873 1.05436 -3.19976 0
M  V30 7022 O 647.403 2.13483 -3.40276 0
M  V30 7023 N 645.609 0.975436 -2.7374 0
M  V30 7024 H 645.156 0.0960853 -2.57421 0
M  V30 7025 H 645.114 1.82501 -2.5601 0
M  V30 7026 N 648.886 1.2938 -0.899927 0
M  V30 7027 C 650.116 1.99402 -0.540601 0
M  V30 7028 C 650.524 1.67534 0.87914 0
M  V30 7029 O 649.867 0.916821 1.59186 0
M  V30 7030 C 649.929 3.53514 -0.653326 0
M  V30 7031 C 649.593 4.08937 -2.04009 0
M  V30 7032 C 650.59 4.23815 -3.01126 0
M  V30 7033 C 648.275 4.43962 -2.34953 0
M  V30 7034 C 650.269 4.72951 -4.27313 0
M  V30 7035 C 647.956 4.92795 -3.61382 0
M  V30 7036 C 648.954 5.07244 -4.57376 0
M  V30 7037 O 648.642 5.55017 -5.8156 0
M  V30 7038 H 648.374 0.64383 -0.206057 0
M  V30 7039 H 650.928 1.65878 -1.21134 0
M  V30 7040 H 649.158 3.86628 0.0744449 0
M  V30 7041 H 650.847 4.04767 -0.303118 0
M  V30 7042 H 651.613 3.97043 -2.78535 0
M  V30 7043 H 647.492 4.31974 -1.60994 0
M  V30 7044 H 651.036 4.84144 -5.02245 0
M  V30 7045 H 646.933 5.19004 -3.83804 0
M  V30 7046 H 647.701 5.73331 -5.84153 0
M  V30 7047 N 650.364 0.662433 1.43002 0
M  V30 7048 C 651.274 -0.0239199 2.34588 0
M  V30 7049 C 652.29 -0.802255 1.54402 0
M  V30 7050 O 653.466 -0.747401 1.87018 0
M  V30 7051 C 650.531 -0.972098 3.32793 0
M  V30 7052 C 649.592 -0.189673 4.28881 0
M  V30 7053 C 648.825 -1.09269 5.22395 0
M  V30 7054 O 649.048 -2.33209 5.20547 0
M  V30 7055 O 647.982 -0.560136 5.99288 0
M  V30 7056 H 651.808 0.730171 2.94792 0
M  V30 7057 H 649.393 0.422635 1.43297 0
M  V30 7058 H 651.275 -1.51676 3.93157 0
M  V30 7059 H 649.95 -1.70626 2.75079 0
M  V30 7060 H 648.857 0.398794 3.71968 0
M  V30 7061 H 650.19 0.50511 4.89601 0
M  V30 7062 N 651.842 -1.52309 0.404946 0
M  V30 7063 C 653.258 -1.59503 0.0556255 0
M  V30 7064 C 653.458 -1.41805 -1.43156 0
M  V30 7065 O 652.514 -1.2429 -2.19792 0
M  V30 7066 C 653.827 -2.95687 0.546801 0
M  V30 7067 C 655.375 -3.08909 0.504413 0
M  V30 7068 C 655.85 -4.47566 0.97203 0
M  V30 7069 N 657.341 -4.53795 0.928679 0
M  V30 7070 C 658.076 -5.59346 1.26174 0
M  V30 7071 N 657.572 -6.72469 1.66604 0
M  V30 7072 N 659.365 -5.49532 1.18198 0
M  V30 7073 H 651.516 -1.6206 1.37296 0
M  V30 7074 H 653.779 -0.762161 0.563751 0
M  V30 7075 H 653.485 -3.13905 1.58609 0
M  V30 7076 H 653.359 -3.77172 -0.0457905 0
M  V30 7077 H 655.746 -2.90378 -0.525819 0
M  V30 7078 H 655.827 -2.2934 1.13301 0
M  V30 7079 H 655.471 -4.6684 2.00057 0
M  V30 7080 H 655.401 -5.25625 0.320292 0
M  V30 7081 H 657.892 -3.72588 0.631369 0
M  V30 7082 H 658.205 -7.48993 1.9034 0
M  V30 7083 H 656.55 -6.73761 1.70504 0
M  V30 7084 H 659.741 -4.60038 0.865011 0
M  V30 7085 H 659.914 -6.31687 1.44485 0
M  V30 7086 N 653.32 -0.135238 -1.57019 0
M  V30 7087 C 654.597 0.563227 -1.87316 0
M  V30 7088 C 654.977 1.83749 -1.03921 0
M  V30 7089 O 654.325 2.2817 -0.122675 0
M  V30 7090 C 654.535 0.840031 -3.3874 0
M  V30 7091 C 655.883 1.18598 -4.077 0
M  V30 7092 O 656.907 0.92977 -3.43851 0
M  V30 7093 O 655.766 1.66758 -5.20436 0
M  V30 7094 H 652.86 0.285971 -0.775983 0
M  V30 7095 H 655.406 -0.170965 -1.68837 0
M  V30 7096 H 654.178 -0.0622785 -3.9125 0
M  V30 7097 H 653.801 1.62882 -3.62706 0
M  V30 7098 N 654.798 1.5699 0.138552 0
M  V30 7099 C 655.731 1.94064 1.2006 0
M  V30 7100 C 656.709 0.807601 1.41126 0
M  V30 7101 O 657.893 1.06399 1.556 0
M  V30 7102 C 655.02 2.21999 2.55801 0
M  V30 7103 C 654.066 3.44617 2.5128 0
M  V30 7104 S 654.899 4.97888 1.97149 0
M  V30 7105 C 656.055 5.28954 3.34602 0
M  V30 7106 H 656.288 2.83843 0.884337 0
M  V30 7107 H 653.821 1.50507 0.344517 0
M  V30 7108 H 655.779 2.38772 3.33914 0
M  V30 7109 H 654.44 1.32869 2.84613 0
M  V30 7110 H 653.633 3.61466 3.51224 0
M  V30 7111 H 653.235 3.27129 1.8128 0
M  V30 7112 H 655.527 5.22938 4.30745 0
M  V30 7113 H 656.47 6.30346 3.22598 0
M  V30 7114 H 656.878 4.56455 3.32128 0
M  V30 7115 N 656.276 -0.40816 1.52223 0
M  V30 7116 C 657.553 -1.16807 1.56893 0
M  V30 7117 C 657.933 -2.08169 0.350537 0
M  V30 7118 O 657.281 -2.18684 -0.662536 0
M  V30 7119 C 657.491 -1.94451 2.8981 0
M  V30 7120 C 658.839 -2.50484 3.42845 0
M  V30 7121 O 659.863 -2.0463 2.91556 0
M  V30 7122 O 658.722 -3.34192 4.3241 0
M  V30 7123 H 655.816 -0.533382 0.632007 0
M  V30 7124 H 658.362 -0.414862 1.64551 0
M  V30 7125 H 657.134 -1.27527 3.69936 0
M  V30 7126 H 656.757 -2.76775 2.85449 0
M  V30 7127 N 657.755 -1.42862 -0.66545 0
M  V30 7128 C 659.004 -1.43119 -1.42126 0
M  V30 7129 C 659.317 -0.0545297 -1.95524 0
M  V30 7130 O 660.523 0.0654747 -2.71421 0
M  V30 7131 C 658.979 -2.51797 -2.5715 0
M  V30 7132 C 658.587 -3.95514 -2.10411 0
M  V30 7133 C 660.331 -2.61233 -3.346 0
M  V30 7134 C 658.238 -4.95682 -3.22573 0
M  V30 7135 H 657.168 -0.532349 -0.533966 0
M  V30 7136 H 659.819 -1.68806 -0.719506 0
M  V30 7137 H 658.201 -2.19292 -3.29738 0
M  V30 7138 H 659.375 -4.3742 -1.44915 0
M  V30 7139 H 657.69 -3.90012 -1.45874 0
M  V30 7140 H 660.287 -3.33248 -4.18151 0
M  V30 7141 H 660.63 -1.65896 -3.81817 0
M  V30 7142 H 661.163 -2.9298 -2.69087 0
M  V30 7143 H 657.902 -5.92529 -2.80338 0
M  V30 7144 H 657.422 -4.58399 -3.86821 0
M  V30 7145 H 659.101 -5.17828 -3.87896 0
M  V30 7146 N 659.233 0.902656 -1.29189 0
M  V30 7147 C 660.482 1.6475 -1.16362 0
M  V30 7148 C 660.795 1.93517 0.284682 0
M  V30 7149 O 662.001 2.66192 0.534229 0
M  V30 7150 C 660.457 2.96848 -2.03493 0
M  V30 7151 C 660.065 2.75687 -3.5313 0
M  V30 7152 C 661.809 3.74762 -1.99383 0
M  V30 7153 C 659.716 4.03492 -4.32375 0
M  V30 7154 H 658.646 0.618041 -0.431904 0
M  V30 7155 H 661.297 1.0008 -1.53806 0
M  V30 7156 H 659.679 3.62715 -1.58916 0
M  V30 7157 H 660.853 2.18431 -4.05739 0
M  V30 7158 H 659.168 2.11171 -3.58881 0
M  V30 7159 H 661.765 4.69515 -2.5585 0
M  V30 7160 H 662.108 4.04767 -0.973123 0
M  V30 7161 H 662.641 3.15732 -2.41988 0
M  V30 7162 H 659.38 3.78656 -5.3507 0
M  V30 7163 H 658.9 4.60318 -3.84535 0
M  V30 7164 H 660.579 4.71662 -4.42881 0
M  V30 7165 N 660.711 1.11618 1.11262 0
M  V30 7166 C 661.644 0.719995 2.16544 0
M  V30 7167 C 662.622 -0.28471 1.60088 0
M  V30 7168 O 663.806 -0.180693 1.87632 0
M  V30 7169 C 660.933 0.0643302 3.38639 0
M  V30 7170 C 659.979 1.03448 4.13764 0
M  V30 7171 S 660.812 2.55789 4.70459 0
M  V30 7172 C 661.968 1.91529 5.95875 0
M  V30 7173 H 662.201 1.61181 2.49816 0
M  V30 7174 H 659.734 0.934401 1.22916 0
M  V30 7175 H 661.692 -0.307609 4.09346 0
M  V30 7176 H 660.353 -0.804471 3.03623 0
M  V30 7177 H 659.546 0.523188 5.01277 0
M  V30 7178 H 659.148 1.34893 3.48826 0
M  V30 7179 H 661.44 1.25286 6.65815 0
M  V30 7180 H 662.383 2.77047 6.51652 0
M  V30 7181 H 662.791 1.37468 5.47506 0
M  V30 7182 N 662.189 -1.289 0.906776 0
M  V30 7183 C 663.136 -2.2751 0.388313 0
M  V30 7184 C 664.106 -1.57301 -0.533439 0
M  V30 7185 O 665.291 -1.85243 -0.457148 0
M  V30 7186 C 662.431 -3.43091 -0.37181 0
M  V30 7187 C 661.544 -4.28066 0.581647 0
M  V30 7188 C 660.679 -5.30837 -0.19623 0
M  V30 7189 C 659.718 -6.07472 0.751294 0
M  V30 7190 N 658.855 -7.021 0.00737727 0
M  V30 7191 H 663.695 -2.71237 1.23428 0
M  V30 7192 H 661.232 -1.33397 0.619962 0
M  V30 7193 H 663.19 -4.08888 -0.828641 0
M  V30 7194 H 661.82 -3.00374 -1.18218 0
M  V30 7195 H 660.872 -3.62378 1.157 0
M  V30 7196 H 662.184 -4.81382 1.30665 0
M  V30 7197 H 661.338 -6.02485 -0.71394 0
M  V30 7198 H 660.077 -4.78272 -0.954324 0
M  V30 7199 H 659.082 -5.34682 1.28044 0
M  V30 7200 H 660.307 -6.62126 1.50883 0
M  V30 7201 H 658.253 -6.51894 -0.732854 0
M  V30 7202 H 658.17 -7.53004 0.672334 0
M  V30 7203 H 659.438 -7.77956 -0.490365 0
M  V30 7204 N 663.667 -0.670007 -1.42649 0
M  V30 7205 C 664.597 -0.00258501 -2.335 0
M  V30 7206 C 665.578 0.794364 -1.50412 0
M  V30 7207 O 666.763 0.75248 -1.79029 0
M  V30 7208 C 663.893 0.952748 -3.33976 0
M  V30 7209 C 662.847 0.264733 -4.2718 0
M  V30 7210 C 662.173 1.33267 -5.17826 0
M  V30 7211 C 663.473 -0.853289 -5.15283 0
M  V30 7212 H 665.167 -0.761326 -2.89559 0
M  V30 7213 H 662.713 -0.367561 -1.3923 0
M  V30 7214 H 664.666 1.4287 -3.96442 0
M  V30 7215 H 663.39 1.74285 -2.7621 0
M  V30 7216 H 662.049 -0.190938 -3.66102 0
M  V30 7217 H 661.697 2.11464 -4.5639 0
M  V30 7218 H 661.397 0.877476 -5.81011 0
M  V30 7219 H 662.921 1.80965 -5.83167 0
M  V30 7220 H 664.335 -0.458763 -5.71462 0
M  V30 7221 H 662.732 -1.23398 -5.87276 0
M  V30 7222 H 663.802 -1.70412 -4.53969 0
M  V30 7223 N 665.145 1.52092 -0.413018 0
M  V30 7224 C 666.092 2.27119 0.410558 0
M  V30 7225 C 667.062 1.29692 1.03774 0
M  V30 7226 O 668.247 1.58561 1.06128 0
M  V30 7227 C 665.387 3.09863 1.51918 0
M  V30 7228 C 664.5 4.22252 0.912528 0
M  V30 7229 C 663.635 4.92348 1.99417 0
M  V30 7230 C 662.674 5.96694 1.36466 0
M  V30 7231 N 661.811 6.60292 2.38661 0
M  V30 7232 H 666.651 2.97067 -0.235661 0
M  V30 7233 H 664.188 1.46542 -0.128055 0
M  V30 7234 H 666.146 3.56144 2.17295 0
M  V30 7235 H 664.776 2.42078 2.13537 0
M  V30 7236 H 663.828 3.80113 0.147697 0
M  V30 7237 H 665.14 4.9709 0.412717 0
M  V30 7238 H 664.294 5.42054 2.72512 0
M  V30 7239 H 663.033 4.17087 2.52764 0
M  V30 7240 H 662.038 5.46304 0.61906 0
M  V30 7241 H 663.263 6.73899 0.838827 0
M  V30 7242 H 661.209 5.87858 2.91134 0
M  V30 7243 H 661.126 7.30816 1.93503 0
M  V30 7244 H 662.394 7.14635 3.11314 0
M  V30 7245 N 666.623 0.143563 1.56945 0
M  V30 7246 C 667.533 -0.810562 2.20152 0
M  V30 7247 C 668.549 -1.27431 1.1848 0
M  V30 7248 O 669.725 -1.33221 1.51044 0
M  V30 7249 C 666.79 -2.03353 2.80799 0
M  V30 7250 C 665.851 -1.61936 3.97587 0
M  V30 7251 C 665.084 -2.78403 4.55332 0
M  V30 7252 O 665.307 -3.94521 4.11958 0
M  V30 7253 O 664.241 -2.54073 5.45647 0
M  V30 7254 H 668.067 -0.30253 3.02189 0
M  V30 7255 H 665.652 -0.0832925 1.49168 0
M  V30 7256 H 667.534 -2.74932 3.19359 0
M  V30 7257 H 666.209 -2.53116 2.01777 0
M  V30 7258 H 665.116 -0.873904 3.6375 0
M  V30 7259 H 666.449 -1.16892 4.78118 0
M  V30 7260 N 668.101 -1.57061 -0.130224 0
M  V30 7261 C 669.011 -2.02802 -1.17934 0
M  V30 7262 C 670.027 -0.946378 -1.46013 0
M  V30 7263 O 671.203 -1.25708 -1.57351 0
M  V30 7264 C 668.268 -2.41368 -2.48882 0
M  V30 7265 C 667.329 -3.63561 -2.28301 0
M  V30 7266 C 666.562 -4.00279 -3.53005 0
M  V30 7267 O 666.785 -3.37463 -4.59864 0
M  V30 7268 O 665.719 -4.93441 -3.44673 0
M  V30 7269 H 669.545 -2.92394 -0.820958 0
M  V30 7270 H 667.13 -1.45475 -0.340197 0
M  V30 7271 H 669.012 -2.66958 -3.26054 0
M  V30 7272 H 667.687 -1.54926 -2.84217 0
M  V30 7273 H 666.594 -3.43136 -1.49025 0
M  V30 7274 H 667.927 -4.50673 -1.97875 0
M  V30 7275 N 669.579 0.400081 -1.52437 0
M  V30 7276 C 670.856 1.15973 -1.57511 0
M  V30 7277 C 671.236 2.0798 -0.361572 0
M  V30 7278 O 670.584 2.19032 0.650929 0
M  V30 7279 C 670.794 1.92912 -2.90837 0
M  V30 7280 C 672.142 2.48662 -3.44169 0
M  V30 7281 O 673.166 2.03081 -2.92637 0
M  V30 7282 O 672.025 3.31894 -4.34176 0
M  V30 7283 H 669.119 0.530023 -0.634827 0
M  V30 7284 H 671.665 0.40613 -1.64769 0
M  V30 7285 H 670.437 1.25564 -3.70607 0
M  V30 7286 H 670.06 2.75257 -2.86913 0
M  V30 7287 N 671.057 1.43213 0.657864 0
M  V30 7288 C 671.99 1.42456 1.78273 0
M  V30 7289 C 672.968 0.286598 1.60054 0
M  V30 7290 O 674.152 0.479467 1.823 0
M  V30 7291 C 671.279 1.23169 3.15511 0
M  V30 7292 C 670.325 2.40181 3.52442 0
M  V30 7293 S 671.158 4.02729 3.52944 0
M  V30 7294 C 672.314 3.85816 4.92846 0
M  V30 7295 H 672.547 2.37642 1.78644 0
M  V30 7296 H 670.08 1.30188 0.830084 0
M  V30 7297 H 672.038 1.12728 3.94719 0
M  V30 7298 H 670.699 0.295398 3.12708 0
M  V30 7299 H 669.892 2.22478 4.52239 0
M  V30 7300 H 669.494 2.47224 2.80636 0
M  V30 7301 H 671.786 3.47853 5.81381 0
M  V30 7302 H 672.729 4.85348 5.15599 0
M  V30 7303 H 673.137 3.18361 4.66162 0
M  V30 7304 N 672.536 -0.895792 1.29666 0
M  V30 7305 C 673.499 -1.98189 1.15124 0
M  V30 7306 C 674.499 -1.60572 0.0855717 0
M  V30 7307 O 675.689 -1.70991 0.332826 0
M  V30 7308 C 672.821 -3.32289 0.761372 0
M  V30 7309 H 674.014 -2.12518 2.11603 0
M  V30 7310 H 671.567 -1.0808 1.12908 0
M  V30 7311 H 672.302 -3.23662 -0.203393 0
M  V30 7312 H 672.087 -3.60958 1.53139 0
M  V30 7313 H 673.577 -4.1198 0.682792 0
M  V30 7314 N 674.014 -1.12206 -1.10668 0
M  V30 7315 C 674.947 -0.731468 -2.16159 0
M  V30 7316 C 675.925 0.276216 -1.60237 0
M  V30 7317 O 677.109 0.17074 -1.87725 0
M  V30 7318 C 674.236 -0.0822882 -3.386 0
M  V30 7319 C 673.282 -1.05641 -4.1321 0
M  V30 7320 S 674.115 -2.58281 -4.69096 0
M  V30 7321 C 675.271 -1.94686 -5.94851 0
M  V30 7322 H 675.504 -1.62504 -2.48957 0
M  V30 7323 H 673.037 -0.940906 -1.22419 0
M  V30 7324 H 674.995 0.285896 -4.09503 0
M  V30 7325 H 673.656 0.788358 -3.04046 0
M  V30 7326 H 672.849 -0.549764 -5.00993 0
M  V30 7327 H 672.451 -1.36741 -3.48106 0
M  V30 7328 H 674.743 -1.28815 -6.65141 0
M  V30 7329 H 675.686 -2.80499 -6.50174 0
M  V30 7330 H 676.094 -1.40369 -5.46769 0
M  V30 7331 N 675.492 1.28418 -0.913599 0
M  V30 7332 C 676.44 2.29272 -0.392037 0
M  V30 7333 C 677.434 1.61344 0.516198 0
M  V30 7334 O 678.64 1.75557 0.39746 0
M  V30 7335 H 675.015 0.744178 -0.108178 0
M  V30 7336 H 676.986 2.70691 -1.25574 0
M  V30 7337 C 675.735 3.45905 0.352815 0
M  V30 7338 H 675.058 3.98378 -0.336848 0
M  V30 7339 H 676.498 4.18473 0.682398 0
M  V30 7340 C 674.957 2.98572 1.56065 0
M  V30 7341 O 675.487 3.01033 2.65974 0
M  V30 7342 N 673.693 2.54235 1.40759 0
M  V30 7343 H 673.24 2.52432 0.513403 0
M  V30 7344 H 673.198 2.22925 2.21702 0
M  V30 7345 N 676.97 0.677563 1.42291 0
M  V30 7346 C 677.933 0.0101085 2.29198 0
M  V30 7347 C 678.933 -0.726219 1.43467 0
M  V30 7348 O 680.123 -0.563807 1.64824 0
M  V30 7349 C 677.255 -0.996316 3.26016 0
M  V30 7350 H 678.448 0.775071 2.89711 0
M  V30 7351 H 676.001 0.440065 1.49977 0
M  V30 7352 H 676.736 -1.78967 2.70446 0
M  V30 7353 H 676.521 -0.471687 3.89253 0
M  V30 7354 H 678.011 -1.46167 3.91184 0
M  V30 7355 N 678.448 -1.51871 0.421078 0
M  V30 7356 C 679.38 -2.25052 -0.434065 0
M  V30 7357 C 680.393 -1.28458 -1.00013 0
M  V30 7358 O 681.582 -1.54323 -0.897033 0
M  V30 7359 C 678.682 -2.97813 -1.61743 0
M  V30 7360 C 677.855 -4.21374 -1.17315 0
M  V30 7361 C 676.914 -4.76854 -2.22478 0
M  V30 7362 O 675.94 -5.39123 -1.82577 0
M  V30 7363 N 677.142 -4.59467 -3.54782 0
M  V30 7364 H 679.907 -2.99077 0.193073 0
M  V30 7365 H 677.468 -1.59972 0.249088 0
M  V30 7366 H 679.46 -3.3182 -2.31685 0
M  V30 7367 H 678.03 -2.26899 -2.15024 0
M  V30 7368 H 677.25 -3.93046 -0.3014 0
M  V30 7369 H 678.538 -5.01591 -0.853444 0
M  V30 7370 H 677.936 -4.09832 -3.89941 0
M  V30 7371 H 676.493 -4.9788 -4.20665 0
M  V30 7372 N 679.926 -0.151884 -1.56866 0
M  V30 7373 C 680.858 0.817008 -2.14144 0
M  V30 7374 C 681.871 1.20735 -1.0921 0
M  V30 7375 O 683.06 1.15058 -1.36469 0
M  V30 7376 C 680.16 2.10844 -2.65326 0
M  V30 7377 C 679.333 1.88471 -3.94712 0
M  V30 7378 C 678.392 3.01649 -4.31155 0
M  V30 7379 O 677.418 2.73127 -4.9939 0
M  V30 7380 N 678.62 4.28947 -3.91132 0
M  V30 7381 H 681.385 0.327448 -2.97906 0
M  V30 7382 H 678.946 0.0315313 -1.61869 0
M  V30 7383 H 680.938 2.85616 -2.86715 0
M  V30 7384 H 679.508 2.51049 -1.86262 0
M  V30 7385 H 678.728 0.977088 -3.81899 0
M  V30 7386 H 680.016 1.70866 -4.79252 0
M  V30 7387 H 679.414 4.54986 -3.36161 0
M  V30 7388 H 677.971 5.00484 -4.17563 0
M  V30 7389 N 681.404 1.57128 0.121893 0
M  V30 7390 C 682.681 1.75664 0.860327 0
M  V30 7391 C 683.061 0.726585 1.98202 0
M  V30 7392 O 682.409 -0.24999 2.27128 0
M  V30 7393 C 682.619 3.20571 1.37968 0
M  V30 7394 C 683.967 3.82988 1.83317 0
M  V30 7395 O 684.991 3.24156 1.47654 0
M  V30 7396 O 683.85 4.86393 2.49168 0
M  V30 7397 H 680.944 0.719153 0.408348 0
M  V30 7398 H 683.49 1.6937 0.105859 0
M  V30 7399 H 682.262 3.87056 0.57477 0
M  V30 7400 H 681.885 3.31392 2.19694 0
M  V30 7401 N 682.882 -0.391992 1.52647 0
M  V30 7402 C 683.83 -1.4991 1.77848 0
M  V30 7403 C 684.824 -1.56587 0.646282 0
M  V30 7404 O 686.03 -1.59789 0.828698 0
M  V30 7405 H 682.405 -0.498883 0.56269 0
M  V30 7406 H 684.376 -1.25847 2.70564 0
M  V30 7407 C 683.125 -2.87081 1.96163 0
M  V30 7408 H 682.448 -2.82692 2.82711 0
M  V30 7409 H 683.888 -3.63792 2.17787 0
M  V30 7410 C 682.347 -3.28822 0.733348 0
M  V30 7411 O 682.877 -4.01598 -0.0906481 0
M  V30 7412 N 681.083 -2.85068 0.564317 0
M  V30 7413 H 680.63 -2.26012 1.23598 0
M  V30 7414 H 680.588 -3.13355 -0.256166 0
M  V30 7415 N 684.36 -1.4356 -0.65026 0
M  V30 7416 C 685.609 -1.44619 -1.406 0
M  V30 7417 C 685.922 -0.0752645 -1.95455 0
M  V30 7418 O 687.128 0.0366832 -2.71475 0
M  V30 7419 C 685.584 -2.54511 -2.54465 0
M  V30 7420 C 685.192 -3.97723 -2.06204 0
M  V30 7421 C 686.936 -2.64768 -3.31811 0
M  V30 7422 C 684.843 -4.99075 -3.17298 0
M  V30 7423 H 683.773 -0.537983 -0.52829 0
M  V30 7424 H 686.424 -1.69559 -0.701561 0
M  V30 7425 H 684.806 -2.22777 -3.27393 0
M  V30 7426 H 685.98 -4.38932 -1.40267 0
M  V30 7427 H 684.295 -3.91538 -1.41729 0
M  V30 7428 H 686.892 -3.37664 -4.14593 0
M  V30 7429 H 687.235 -1.69936 -3.80036 0
M  V30 7430 H 687.768 -2.95817 -2.65964 0
M  V30 7431 H 684.507 -5.95469 -2.74038 0
M  V30 7432 H 684.027 -4.62476 -3.81937 0
M  V30 7433 H 685.706 -5.21913 -3.82382 0
M  V30 7434 N 685.838 0.888903 -1.30139 0
M  V30 7435 C 686.768 2.01046 -1.18755 0
M  V30 7436 C 687.749 1.69916 -0.0791438 0
M  V30 7437 O 688.934 1.92445 -0.260498 0
M  V30 7438 C 686.064 3.36109 -0.874518 0
M  V30 7439 C 685.018 3.81486 -1.94043 0
M  V30 7440 C 684.344 5.13796 -1.48047 0
M  V30 7441 C 685.644 4.00637 -3.35093 0
M  V30 7442 H 687.338 2.10828 -2.12584 0
M  V30 7443 H 684.884 1.01298 -1.02346 0
M  V30 7444 H 686.837 4.14089 -0.781548 0
M  V30 7445 H 685.561 3.26449 0.0994519 0
M  V30 7446 H 684.22 3.05731 -2.02297 0
M  V30 7447 H 683.868 5.0056 -0.494878 0
M  V30 7448 H 683.568 5.45127 -2.19341 0
M  V30 7449 H 685.092 5.94305 -1.40121 0
M  V30 7450 H 686.506 4.69067 -3.2962 0
M  V30 7451 H 684.903 4.43339 -4.04438 0
M  V30 7452 H 685.973 3.0462 -3.77273 0
M  V30 7453 N 687.317 1.12792 1.10072 0
M  V30 7454 C 688.547 0.907189 1.85617 0
M  V30 7455 C 688.955 -0.547181 1.81115 0
M  V30 7456 O 688.298 -1.39024 1.20075 0
M  V30 7457 C 688.36 1.30872 3.34832 0
M  V30 7458 C 688.024 2.77516 3.6309 0
M  V30 7459 C 689.021 3.75696 3.59373 0
M  V30 7460 C 686.706 3.14513 3.91646 0
M  V30 7461 C 688.7 5.08888 3.83812 0
M  V30 7462 C 686.387 4.47886 4.15742 0
M  V30 7463 C 687.385 5.44882 4.11816 0
M  V30 7464 O 687.073 6.7585 4.35295 0
M  V30 7465 H 686.805 0.323855 0.593375 0
M  V30 7466 H 689.359 1.50262 1.40038 0
M  V30 7467 H 687.589 0.656518 3.81086 0
M  V30 7468 H 689.278 1.06153 3.91773 0
M  V30 7469 H 690.044 3.48458 3.37345 0
M  V30 7470 H 685.923 2.39622 3.93831 0
M  V30 7471 H 689.467 5.84586 3.80663 0
M  V30 7472 H 685.364 4.74851 4.37249 0
M  V30 7473 H 686.132 6.81853 4.52791 0
M  V30 7474 N 688.795 -1.27931 0.920396 0
M  V30 7475 C 689.727 -2.26175 0.371169 0
M  V30 7476 C 690.74 -1.55122 -0.494065 0
M  V30 7477 O 691.929 -1.75825 -0.30787 0
M  V30 7478 C 689.029 -3.35376 -0.487481 0
M  V30 7479 C 688.202 -4.35943 0.356772 0
M  V30 7480 C 687.261 -5.24374 -0.438042 0
M  V30 7481 O 686.287 -5.68998 0.151715 0
M  V30 7482 N 687.489 -5.53823 -1.73956 0
M  V30 7483 H 690.254 -2.73938 1.21564 0
M  V30 7484 H 687.815 -1.41482 0.787047 0
M  V30 7485 H 689.807 -3.91476 -1.02609 0
M  V30 7486 H 688.377 -2.87269 -1.23269 0
M  V30 7487 H 687.597 -3.7921 1.07672 0
M  V30 7488 H 688.885 -5.0015 0.934206 0
M  V30 7489 H 688.283 -5.19413 -2.24114 0
M  V30 7490 H 686.84 -6.12653 -2.22486 0
M  V30 7491 N 690.273 -0.685099 -1.4193 0
M  V30 7492 C 691.501 -0.220372 -2.05723 0
M  V30 7493 C 691.916 1.12642 -1.51516 0
M  V30 7494 O 691.273 1.70182 -0.659114 0
M  V30 7495 C 691.324 -0.157974 -3.61155 0
M  V30 7496 O 691.045 -1.45156 -4.13354 0
M  V30 7497 C 692.546 0.329009 -4.42077 0
M  V30 7498 H 689.766 -0.104725 -0.662777 0
M  V30 7499 H 692.31 -0.934736 -1.81887 0
M  V30 7500 H 690.465 0.507144 -3.84066 0
M  V30 7501 H 690.879 -1.33172 -5.07312 0
M  V30 7502 H 692.353 0.321559 -5.51063 0
M  V30 7503 H 692.83 1.36608 -4.17414 0
M  V30 7504 H 693.436 -0.304737 -4.24207 0
M  V30 7505 N 691.751 1.51645 -0.429126 0
M  V30 7506 C 692.997 2.02314 0.140286 0
M  V30 7507 C 693.33 1.31314 1.43074 0
M  V30 7508 O 692.605 0.425531 1.89788 0
M  V30 7509 C 692.888 3.5822 0.36749 0
M  V30 7510 C 692.741 4.39846 -0.941039 0
M  V30 7511 C 694.06 4.25055 1.14089 0
M  V30 7512 H 691.179 0.735335 0.0495112 0
M  V30 7513 H 693.821 1.81358 -0.566514 0
M  V30 7514 H 691.971 3.76207 0.969556 0
M  V30 7515 H 693.643 4.33527 -1.57646 0
M  V30 7516 H 691.886 4.05259 -1.54751 0
M  V30 7517 H 692.557 5.47069 -0.73621 0
M  V30 7518 H 695.033 4.11288 0.630986 0
M  V30 7519 H 693.909 5.34038 1.26863 0
M  V30 7520 H 694.17 3.85358 2.16683 0
M  V30 7521 N 693.229 0.160201 1.56784 0
M  V30 7522 C 694.457 -0.494165 2.00912 0
M  V30 7523 C 694.872 -1.57548 1.04038 0
M  V30 7524 O 694.229 -1.82457 0.0394581 0
M  V30 7525 C 694.28 -1.08271 3.44905 0
M  V30 7526 O 694.001 -0.0445704 4.38077 0
M  V30 7527 C 695.502 -1.8164 4.04378 0
M  V30 7528 H 692.722 -0.127498 0.658776 0
M  V30 7529 H 695.266 0.258665 2.02858 0
M  V30 7530 H 693.421 -1.78609 3.4377 0
M  V30 7531 H 693.835 -0.477544 5.22322 0
M  V30 7532 H 695.309 -2.18094 5.07089 0
M  V30 7533 H 695.786 -2.70727 3.45838 0
M  V30 7534 H 696.392 -1.15969 4.09184 0
M  V30 7535 N 694.707 -1.5719 -0.113559 0
M  V30 7536 C 695.955 -1.84772 -0.818761 0
M  V30 7537 C 696.276 -0.746196 -1.80158 0
M  V30 7538 O 695.546 0.229305 -1.94553 0
M  V30 7539 H 694.126 -0.681737 -0.305359 0
M  V30 7540 H 696.788 -1.94645 -0.0995845 0
M  V30 7541 H 695.884 -2.80878 -1.36067 0
M  V30 7542 N 696.185 0.383891 -1.52853 0
M  V30 7543 C 697.115 1.47559 -1.80965 0
M  V30 7544 C 698.096 1.5669 -0.661986 0
M  V30 7545 O 699.281 1.71556 -0.910072 0
M  V30 7546 C 696.411 2.85114 -1.98312 0
M  V30 7547 C 695.365 2.9082 -3.14019 0
M  V30 7548 C 694.691 4.30873 -3.16627 0
M  V30 7549 C 695.991 2.60001 -4.52986 0
M  V30 7550 H 697.685 1.24283 -2.72386 0
M  V30 7551 H 695.231 0.596445 -1.31067 0
M  V30 7552 H 697.184 3.61496 -2.16561 0
M  V30 7553 H 695.908 3.09738 -1.03585 0
M  V30 7554 H 694.567 2.16886 -2.9556 0
M  V30 7555 H 694.215 4.52545 -2.19573 0
M  V30 7556 H 693.915 4.3561 -3.94357 0
M  V30 7557 H 695.439 5.09154 -3.37038 0
M  V30 7558 H 696.853 3.261 -4.71521 0
M  V30 7559 H 695.25 2.76081 -5.32822 0
M  V30 7560 H 696.32 1.5532 -4.59351 0
M  V30 7561 N 697.663 1.43903 0.642637 0
M  V30 7562 C 698.61 1.49881 1.75512 0
M  V30 7563 C 699.58 0.347538 1.62423 0
M  V30 7564 O 700.765 0.556177 1.82514 0
M  V30 7565 C 697.905 1.43797 3.13714 0
M  V30 7566 C 697.018 2.6921 3.37861 0
M  V30 7567 C 696.153 2.5504 4.6597 0
M  V30 7568 C 695.192 3.75671 4.83257 0
M  V30 7569 N 694.329 3.60247 6.02633 0
M  V30 7570 H 699.169 2.44935 1.69737 0
M  V30 7571 H 696.706 1.21572 0.828165 0
M  V30 7572 H 698.664 1.38262 3.93624 0
M  V30 7573 H 697.294 0.523173 3.18532 0
M  V30 7574 H 696.346 2.8498 2.51973 0
M  V30 7575 H 697.658 3.58786 3.46517 0
M  V30 7576 H 696.812 2.47273 5.54023 0
M  V30 7577 H 695.551 1.63006 4.59653 0
M  V30 7578 H 694.556 3.83836 3.93637 0
M  V30 7579 H 695.781 4.68728 4.91397 0
M  V30 7580 H 693.727 2.70955 5.97427 0
M  V30 7581 H 693.644 4.43431 6.12295 0
M  V30 7582 H 694.912 3.56351 6.93278 0
M  V30 7583 N 699.141 -0.881989 1.30609 0
M  V30 7584 C 700.088 -1.98803 1.17244 0
M  V30 7585 C 701.058 -1.65987 0.0611905 0
M  V30 7586 O 702.243 -1.89385 0.231911 0
M  V30 7587 C 699.383 -3.33867 0.87333 0
M  V30 7588 C 698.496 -3.79354 2.06675 0
M  V30 7589 C 697.631 -5.03078 1.70547 0
M  V30 7590 C 696.67 -5.40981 2.86366 0
M  V30 7591 N 695.807 -6.55886 2.50514 0
M  V30 7592 H 700.647 -2.09566 2.11863 0
M  V30 7593 H 698.184 -1.02607 1.05405 0
M  V30 7594 H 700.142 -4.11612 0.680519 0
M  V30 7595 H 698.772 -3.2278 -0.0359983 0
M  V30 7596 H 697.824 -2.97492 2.37071 0
M  V30 7597 H 699.136 -4.03382 2.93401 0
M  V30 7598 H 698.29 -5.88457 1.47658 0
M  V30 7599 H 697.029 -4.80927 0.809947 0
M  V30 7600 H 696.034 -4.54127 3.09917 0
M  V30 7601 H 697.259 -5.65104 3.76609 0
M  V30 7602 H 695.205 -6.35306 1.63471 0
M  V30 7603 H 695.122 -6.79799 3.30771 0
M  V30 7604 H 696.39 -7.44489 2.30989 0
M  V30 7605 N 700.619 -1.13374 -1.09472 0
M  V30 7606 C 701.896 -0.806329 -1.78207 0
M  V30 7607 C 702.276 0.702191 -1.99079 0
M  V30 7608 O 701.624 1.63931 -1.59182 0
M  V30 7609 C 701.834 -1.59271 -3.10538 0
M  V30 7610 C 703.182 -1.78509 -3.85253 0
M  V30 7611 O 704.206 -1.55866 -3.20288 0
M  V30 7612 O 703.065 -2.16287 -5.01879 0
M  V30 7613 H 700.159 -0.29435 -0.772843 0
M  V30 7614 H 702.705 -1.23833 -1.16033 0
M  V30 7615 H 701.477 -2.61792 -2.90828 0
M  V30 7616 H 701.1 -1.15562 -3.80436 0
M  V30 7617 N 702.098 1.27442 -0.927168 0
M  V30 7618 C 703.028 2.29256 -0.443188 0
M  V30 7619 C 704.009 1.62701 0.49624 0
M  V30 7620 O 705.194 1.90013 0.401105 0
M  V30 7621 C 702.324 3.45955 0.305366 0
M  V30 7622 C 701.278 4.24501 -0.546178 0
M  V30 7623 C 700.604 5.33671 0.331512 0
M  V30 7624 C 701.904 4.89921 -1.81037 0
M  V30 7625 H 703.598 2.69988 -1.29409 0
M  V30 7626 H 701.144 1.29792 -0.623705 0
M  V30 7627 H 703.097 4.1628 0.654885 0
M  V30 7628 H 701.821 3.04138 1.19029 0
M  V30 7629 H 700.48 3.55921 -0.878398 0
M  V30 7630 H 700.128 4.88096 1.21537 0
M  V30 7631 H 699.828 5.87131 -0.234746 0
M  V30 7632 H 701.352 6.0684 0.676614 0
M  V30 7633 H 702.766 5.52536 -1.52895 0
M  V30 7634 H 701.163 5.53436 -2.32009 0
M  V30 7635 H 702.233 4.13652 -2.53021 0
M  V30 7636 N 703.576 0.692616 1.41565 0
M  V30 7637 C 704.801 0.229776 2.06123 0
M  V30 7638 C 705.226 -1.11119 1.5177 0
M  V30 7639 O 704.584 -1.69498 0.643444 0
M  V30 7640 C 704.632 0.19469 3.60074 0
M  V30 7641 O 703.736 -0.831366 4.03933 0
M  V30 7642 H 703.077 0.113002 0.654314 0
M  V30 7643 H 705.607 0.946645 1.81383 0
M  V30 7644 H 705.617 0.0245487 4.07993 0
M  V30 7645 H 704.292 1.17339 3.99004 0
M  V30 7646 H 702.869 -0.630819 3.67526 0
M  V30 7647 N 705.054 -1.51416 0.437162 0
M  V30 7648 C 706.302 -2.01687 -0.129108 0
M  V30 7649 C 706.623 -1.32329 -1.43227 0
M  V30 7650 O 705.893 -0.457796 -1.90476 0
M  V30 7651 H 704.473 -0.745277 -0.0507023 0
M  V30 7652 H 707.135 -1.86075 0.579828 0
M  V30 7653 H 706.231 -3.10605 -0.305141 0
M  V30 7654 N 706.532 -0.168513 -1.56696 0
M  V30 7655 C 707.778 0.477865 -1.9709 0
M  V30 7656 C 708.111 1.63084 -1.05438 0
M  V30 7657 O 707.386 1.94238 -0.10095 0
M  V30 7658 C 707.669 0.963521 -3.4697 0
M  V30 7659 C 707.522 -0.189443 -4.49401 0
M  V30 7660 C 708.841 1.83813 -3.99876 0
M  V30 7661 H 705.96 0.172229 -0.716593 0
M  V30 7662 H 708.602 -0.254083 -1.88293 0
M  V30 7663 H 706.752 1.58724 -3.54597 0
M  V30 7664 H 708.424 -0.826451 -4.53836 0
M  V30 7665 H 706.667 -0.845366 -4.25483 0
M  V30 7666 H 707.338 0.192446 -5.51664 0
M  V30 7667 H 709.814 1.31235 -3.94863 0
M  V30 7668 H 708.69 2.14697 -5.0517 0
M  V30 7669 H 708.951 2.78289 -3.43523 0
M  V30 7670 N 708.01 1.57248 0.105221 0
M  V30 7671 C 708.942 1.98008 1.15436 0
M  V30 7672 C 709.955 0.881236 1.36887 0
M  V30 7673 O 711.144 1.15943 1.35718 0
M  V30 7674 C 708.244 2.27509 2.51183 0
M  V30 7675 C 707.417 3.58811 2.50147 0
M  V30 7676 C 706.476 3.76365 3.67745 0
M  V30 7677 O 705.502 4.48329 3.50699 0
M  V30 7678 N 706.704 3.16174 4.86841 0
M  V30 7679 H 709.469 2.88616 0.807519 0
M  V30 7680 H 707.03 1.59202 0.29433 0
M  V30 7681 H 709.022 2.36455 3.28438 0
M  V30 7682 H 707.592 1.42959 2.77995 0
M  V30 7683 H 706.812 3.60927 1.5851 0
M  V30 7684 H 708.1 4.45088 2.46524 0
M  V30 7685 H 707.498 2.57701 5.03594 0
M  V30 7686 H 706.055 3.30621 5.61723 0
M  V30 7687 N 709.488 -0.375779 1.53054 0
M  V30 7688 C 710.435 -1.45978 1.78771 0
M  V30 7689 C 711.405 -1.53625 0.631552 0
M  V30 7690 O 712.59 -1.69674 0.872667 0
M  V30 7691 C 709.73 -2.8305 1.97425 0
M  V30 7692 C 708.843 -2.84451 3.25134 0
M  V30 7693 C 707.978 -4.13034 3.34031 0
M  V30 7694 C 707.017 -4.08536 4.55812 0
M  V30 7695 N 706.154 -5.2875 4.61918 0
M  V30 7696 H 710.994 -1.23349 2.71273 0
M  V30 7697 H 708.531 -0.598147 1.3439 0
M  V30 7698 H 710.489 -3.62666 2.06225 0
M  V30 7699 H 709.119 -3.04101 1.0827 0
M  V30 7700 H 708.171 -1.97127 3.25338 0
M  V30 7701 H 709.483 -2.76998 4.14818 0
M  V30 7702 H 708.637 -5.0106 3.42087 0
M  V30 7703 H 707.376 -4.23226 2.42345 0
M  V30 7704 H 706.381 -3.18897 4.47867 0
M  V30 7705 H 707.606 -3.99955 5.48828 0
M  V30 7706 H 705.552 -5.39547 3.73129 0
M  V30 7707 H 705.469 -5.23426 5.45492 0
M  V30 7708 H 706.737 -6.18637 4.74245 0
M  V30 7709 N 710.966 -1.44241 -0.634997 0
M  V30 7710 C 712.212 -1.47038 -1.39669 0
M  V30 7711 C 712.545 -0.101122 -1.93937 0
M  V30 7712 O 711.82 0.880699 -1.73418 0
M  V30 7713 C 712.103 -2.52763 -2.56482 0
M  V30 7714 C 711.956 -3.99032 -2.07589 0
M  V30 7715 C 713.275 -2.55031 -3.58674 0
M  V30 7716 H 710.394 -0.53537 -0.506506 0
M  V30 7717 H 713.036 -1.75898 -0.718317 0
M  V30 7718 H 711.186 -2.28284 -3.14354 0
M  V30 7719 H 712.858 -4.3463 -1.54577 0
M  V30 7720 H 711.101 -4.10994 -1.38804 0
M  V30 7721 H 711.772 -4.68649 -2.91671 0
M  V30 7722 H 714.248 -2.76893 -3.10595 0
M  V30 7723 H 713.124 -3.30916 -4.37934 0
M  V30 7724 H 713.385 -1.59085 -4.12486 0
M  V30 7725 N 712.444 0.87505 -1.31075 0
M  V30 7726 C 713.855 1.4433 -1.18431 0
M  V30 7727 C 714.206 1.9506 0.211189 0
M  V30 7728 O 713.331 1.85847 1.10859 0
M  V30 7729 C 713.926 2.62341 -2.14389 0
M  V30 7730 C 712.485 3.15225 -2.05694 0
M  V30 7731 C 711.632 1.87929 -2.03907 0
M  V30 7732 H 714.583 0.684061 -1.432 0
M  V30 7733 H 714.604 3.3887 -1.73053 0
M  V30 7734 H 714.116 2.25388 -3.15946 0
M  V30 7735 H 712.217 3.56812 -1.07314 0
M  V30 7736 H 712.33 3.77853 -2.94558 0
M  V30 7737 H 710.694 2.06679 -1.48849 0
M  V30 7738 H 711.477 1.53221 -3.07211 0
M  V30 7739 N 713.922 1.13953 1.08869 0
M  V30 7740 C 714.885 0.824991 2.13838 0
M  V30 7741 C 715.885 -0.168198 1.59918 0
M  V30 7742 O 717.075 0.0595778 1.74098 0
M  V30 7743 C 714.207 0.228938 3.4013 0
M  V30 7744 H 715.4 1.75521 2.43171 0
M  V30 7745 H 712.953 0.94492 1.24503 0
M  V30 7746 H 713.688 -0.710227 3.16427 0
M  V30 7747 H 713.473 0.944243 3.80561 0
M  V30 7748 H 714.963 0.0259223 4.17592 0
M  V30 7749 N 715.4 -1.26948 0.933913 0
M  V30 7750 C 716.33 -2.29017 0.45534 0
M  V30 7751 C 717.311 -1.62961 -0.487605 0
M  V30 7752 O 718.496 -1.90223 -0.391022 0
M  V30 7753 C 715.626 -3.46112 -0.287015 0
M  V30 7754 C 714.58 -4.24205 0.568682 0
M  V30 7755 C 713.906 -5.3384 -0.303206 0
M  V30 7756 C 715.206 -4.88954 1.83633 0
M  V30 7757 H 716.9 -2.69298 1.30839 0
M  V30 7758 H 714.446 -1.29459 0.630579 0
M  V30 7759 H 716.399 -4.16622 -0.6328 0
M  V30 7760 H 715.123 -3.04765 -1.17414 0
M  V30 7761 H 713.782 -3.5545 0.897261 0
M  V30 7762 H 713.43 -4.88734 -1.18947 0
M  V30 7763 H 713.13 -5.86998 0.265879 0
M  V30 7764 H 714.654 -6.0719 -0.644423 0
M  V30 7765 H 716.068 -5.51717 1.55823 0
M  V30 7766 H 714.465 -5.52198 2.34941 0
M  V30 7767 H 715.535 -4.12305 2.55211 0
M  V30 7768 N 716.879 -0.700114 -1.41195 0
M  V30 7769 C 717.809 -0.0521132 -2.33442 0
M  V30 7770 C 718.79 0.76228 -1.52063 0
M  V30 7771 O 719.975 0.714336 -1.80585 0
M  V30 7772 C 717.105 0.881693 -3.35922 0
M  V30 7773 C 716.059 0.174062 -4.27646 0
M  V30 7774 C 715.385 1.22254 -5.20536 0
M  V30 7775 C 716.685 -0.962396 -5.13357 0
M  V30 7776 H 718.379 -0.822574 -2.87879 0
M  V30 7777 H 715.925 -0.397011 -1.38419 0
M  V30 7778 H 717.878 1.34429 -3.99383 0
M  V30 7779 H 716.602 1.68387 -2.79845 0
M  V30 7780 H 715.261 -0.268551 -3.65615 0
M  V30 7781 H 714.909 2.01736 -4.60773 0
M  V30 7782 H 714.609 0.754038 -5.82742 0
M  V30 7783 H 716.133 1.68555 -5.86874 0
M  V30 7784 H 717.547 -0.579875 -5.7036 0
M  V30 7785 H 715.944 -1.35828 -5.84526 0
M  V30 7786 H 717.014 -1.80003 -4.50252 0
M  V30 7787 N 718.357 1.51182 -0.445186 0
M  V30 7788 C 719.267 2.31692 0.368255 0
M  V30 7789 C 720.283 1.40942 1.02036 0
M  V30 7790 O 721.459 1.74011 1.01401 0
M  V30 7791 C 718.524 3.14903 1.45041 0
M  V30 7792 C 717.585 4.21442 0.817615 0
M  V30 7793 C 716.818 5.00677 1.8482 0
M  V30 7794 O 717.041 4.80644 3.07145 0
M  V30 7795 O 715.975 5.84559 1.43438 0
M  V30 7796 H 719.801 3.0232 -0.289219 0
M  V30 7797 H 717.386 1.47951 -0.207555 0
M  V30 7798 H 719.268 3.66612 2.07783 0
M  V30 7799 H 717.943 2.47031 2.09182 0
M  V30 7800 H 716.85 3.73791 0.151931 0
M  V30 7801 H 718.183 4.9171 0.219564 0
M  V30 7802 N 719.835 0.176821 1.56605 0
M  V30 7803 C 720.783 -0.768159 2.1955 0
M  V30 7804 C 721.777 -1.23343 1.16116 0
M  V30 7805 O 722.983 -1.19844 1.34303 0
M  V30 7806 H 719.358 -0.266013 0.703378 0
M  V30 7807 H 721.329 -0.213374 2.97636 0
M  V30 7808 C 720.078 -1.98492 2.85475 0
M  V30 7809 H 719.401 -1.63595 3.64797 0
M  V30 7810 H 720.841 -2.62489 3.3298 0
M  V30 7811 C 719.3 -2.81207 1.85538 0
M  V30 7812 O 719.83 -3.7854 1.34427 0
M  V30 7813 N 718.036 -2.46331 1.54173 0
M  V30 7814 H 717.583 -1.67241 1.95929 0
M  V30 7815 H 717.541 -3.01961 0.875595 0
M  V30 7816 N 721.313 -1.57302 -0.09688 0
M  V30 7817 C 722.245 -1.98618 -1.14384 0
M  V30 7818 C 723.258 -0.888483 -1.36418 0
M  V30 7819 O 724.447 -1.16661 -1.35101 0
M  V30 7820 C 721.547 -2.28838 -2.49973 0
M  V30 7821 C 720.72 -3.60132 -2.48241 0
M  V30 7822 C 719.779 -3.7831 -3.65743 0
M  V30 7823 O 718.805 -4.50183 -3.48316 0
M  V30 7824 N 720.007 -3.18752 -4.85157 0
M  V30 7825 H 722.772 -2.8904 -0.792202 0
M  V30 7826 H 720.333 -1.59356 -0.285883 0
M  V30 7827 H 722.325 -2.38193 -3.27179 0
M  V30 7828 H 720.895 -1.44431 -2.77233 0
M  V30 7829 H 720.115 -3.61763 -1.56593 0
M  V30 7830 H 721.403 -4.46389 -2.4416 0
M  V30 7831 H 720.801 -2.60368 -5.0222 0
M  V30 7832 H 719.358 -3.33595 -5.59962 0
M  V30 7833 N 722.791 0.367657 -1.53252 0
M  V30 7834 C 724.037 1.11216 -1.69584 0
M  V30 7835 C 724.37 1.89026 -0.445269 0
M  V30 7836 O 723.645 1.86342 0.557404 0
M  V30 7837 C 723.928 2.07308 -2.94441 0
M  V30 7838 C 723.781 1.3312 -4.2965 0
M  V30 7839 C 725.1 3.07459 -3.14892 0
M  V30 7840 H 722.219 0.40294 -0.617096 0
M  V30 7841 H 724.861 0.393201 -1.85887 0
M  V30 7842 H 723.011 2.68617 -2.80673 0
M  V30 7843 H 724.683 0.746111 -4.55226 0
M  V30 7844 H 722.926 0.633051 -4.29156 0
M  V30 7845 H 723.597 2.03443 -5.13142 0
M  V30 7846 H 726.073 2.56252 -3.27832 0
M  V30 7847 H 724.949 3.71919 -4.03693 0
M  V30 7848 H 725.21 3.77514 -2.30077 0
M  V30 7849 N 724.269 1.44576 0.627338 0
M  V30 7850 C 725.179 1.54232 1.76776 0
M  V30 7851 C 726.195 0.427782 1.6866 0
M  V30 7852 O 727.371 0.685671 1.89369 0
M  V30 7853 C 724.436 1.48738 3.13174 0
M  V30 7854 C 723.497 2.71074 3.32893 0
M  V30 7855 C 722.73 2.65832 4.62784 0
M  V30 7856 O 722.953 1.72048 5.43834 0
M  V30 7857 O 721.887 3.56742 4.84787 0
M  V30 7858 H 725.713 2.50586 1.71582 0
M  V30 7859 H 723.298 1.26865 0.789028 0
M  V30 7860 H 725.18 1.48211 3.94476 0
M  V30 7861 H 723.855 0.555292 3.18902 0
M  V30 7862 H 722.762 2.77168 2.51254 0
M  V30 7863 H 724.095 3.63342 3.32029 0
M  V30 7864 N 725.747 -0.868086 1.31537 0
M  V30 7865 C 726.657 -2.00801 1.21311 0
M  V30 7866 C 727.673 -1.73518 0.129431 0
M  V30 7867 O 728.849 -1.98378 0.347588 0
M  V30 7868 C 725.914 -3.3419 0.922935 0
M  V30 7869 C 724.975 -3.74783 2.0937 0
M  V30 7870 C 724.208 -5.01807 1.81728 0
M  V30 7871 O 724.431 -5.65404 0.753313 0
M  V30 7872 O 723.365 -5.39213 2.67457 0
M  V30 7873 H 727.191 -2.12361 2.17109 0
M  V30 7874 H 724.776 -0.996684 1.11295 0
M  V30 7875 H 726.658 -4.14174 0.777033 0
M  V30 7876 H 725.333 -3.237 -0.00500301 0
M  V30 7877 H 724.24 -2.95432 2.29501 0
M  V30 7878 H 725.573 -3.89902 3.00396 0
M  V30 7879 N 727.225 -1.14528 -1.08264 0
M  V30 7880 C 728.641 -0.885976 -1.3275 0
M  V30 7881 C 728.841 0.472096 -1.95892 0
M  V30 7882 O 727.897 1.21606 -2.21288 0
M  V30 7883 C 729.21 -2.01982 -2.22764 0
M  V30 7884 C 730.758 -2.05329 -2.36239 0
M  V30 7885 C 731.233 -3.1801 -3.29596 0
M  V30 7886 N 732.724 -3.17598 -3.37173 0
M  V30 7887 C 733.459 -4.01426 -4.09444 0
M  V30 7888 N 732.955 -4.95297 -4.8441 0
M  V30 7889 N 734.748 -3.89482 -4.0529 0
M  V30 7890 H 726.899 -2.01996 -0.656607 0
M  V30 7891 H 729.162 -0.880274 -0.351884 0
M  V30 7892 H 728.868 -2.99964 -1.83615 0
M  V30 7893 H 728.742 -1.94421 -3.23234 0
M  V30 7894 H 731.129 -1.07953 -2.74646 0
M  V30 7895 H 731.21 -2.1696 -1.35506 0
M  V30 7896 H 730.854 -4.15633 -2.9191 0
M  V30 7897 H 730.784 -3.03616 -4.30261 0
M  V30 7898 H 733.275 -2.4961 -2.83731 0
M  V30 7899 H 733.588 -5.55723 -5.37021 0
M  V30 7900 H 731.933 -4.99293 -4.83457 0
M  V30 7901 H 735.124 -3.15465 -3.45832 0
M  V30 7902 H 735.297 -4.55039 -4.6135 0
M  V30 7903 N 728.703 1.26451 -0.940633 0
M  V30 7904 C 729.931 1.97868 -0.604642 0
M  V30 7905 C 730.346 1.70051 0.820251 0
M  V30 7906 O 729.703 0.96843 1.54686 0
M  V30 7907 C 729.754 3.51684 -0.836689 0
M  V30 7908 O 729.475 3.78533 -2.20554 0
M  V30 7909 C 730.976 4.40343 -0.511169 0
M  V30 7910 H 728.196 0.631105 -0.227919 0
M  V30 7911 H 730.74 1.60979 -1.26119 0
M  V30 7912 H 728.895 3.86736 -0.226759 0
M  V30 7913 H 729.309 4.73065 -2.26517 0
M  V30 7914 H 730.783 5.47229 -0.724157 0
M  V30 7915 H 731.26 4.35694 0.553815 0
M  V30 7916 H 731.866 4.10834 -1.0998 0
M  V30 7917 N 730.181 0.707592 1.40822 0
M  V30 7918 C 731.421 0.247986 2.0289 0
M  V30 7919 C 731.785 -1.13484 1.54872 0
M  V30 7920 O 732.986 -1.69098 2.08948 0
M  V30 7921 C 731.257 0.316326 3.55997 0
M  V30 7922 S 732.816 -0.0674698 4.38748 0
M  V30 7923 H 729.634 0.09895 0.704081 0
M  V30 7924 H 732.236 0.928039 1.72069 0
M  V30 7925 H 730.94 1.32453 3.88438 0
M  V30 7926 H 730.471 -0.382474 3.91536 0
M  V30 7927 H 732.486 -1.29182 4.79089 0
M  V30 7928 N 731.66 -1.50943 0.453197 0
M  V30 7929 C 732.885 -2.07116 -0.108463 0
M  V30 7930 C 733.31 -1.31681 -1.3432 0
M  V30 7931 O 732.668 -0.359256 -1.77705 0
M  V30 7932 C 732.716 -3.58447 -0.393424 0
M  V30 7933 O 731.82 -3.85038 -1.47714 0
M  V30 7934 H 731.161 -0.66398 0.0050993 0
M  V30 7935 H 733.691 -1.94362 0.639095 0
M  V30 7936 H 733.701 -4.02961 -0.639222 0
M  V30 7937 H 732.376 -4.12774 0.508946 0
M  V30 7938 H 730.953 -3.52376 -1.22006 0
M  V30 7939 N 733.138 -0.185124 -1.56509 0
M  V30 7940 C 734.415 0.503348 -1.89013 0
M  V30 7941 C 734.795 1.80349 -1.09715 0
M  V30 7942 O 734.143 2.27665 -0.195203 0
M  V30 7943 C 734.353 0.731839 -3.41241 0
M  V30 7944 C 735.701 1.05568 -4.11267 0
M  V30 7945 O 736.725 0.819906 -3.46635 0
M  V30 7946 O 735.584 1.50116 -5.25478 0
M  V30 7947 H 732.678 0.261139 -0.784688 0
M  V30 7948 H 735.224 -0.224592 -1.68207 0
M  V30 7949 H 733.996 -0.18672 -3.90854 0
M  V30 7950 H 733.619 1.5126 -3.67704 0
M  V30 7951 N 734.616 1.57351 0.0885366 0
M  V30 7952 C 735.841 1.91011 0.80805 0
M  V30 7953 C 736.266 0.780009 1.71165 0
M  V30 7954 O 735.624 -0.268083 1.79307 0
M  V30 7955 C 735.672 3.23562 1.59185 0
M  V30 7956 O 734.776 3.11615 2.7013 0
M  V30 7957 H 734.117 0.625943 0.221565 0
M  V30 7958 H 736.647 2.04507 0.0617954 0
M  V30 7959 H 736.657 3.5703 1.97468 0
M  V30 7960 H 735.332 4.05398 0.928741 0
M  V30 7961 H 733.909 2.89673 2.34827 0
M  V30 7962 N 736.094 -0.359525 1.53444 0
M  V30 7963 C 737.004 -1.46445 1.83278 0
M  V30 7964 C 738.02 -1.5833 0.721629 0
M  V30 7965 O 739.196 -1.7411 1.01231 0
M  V30 7966 C 736.261 -2.81638 2.02191 0
M  V30 7967 C 735.322 -2.7923 3.26082 0
M  V30 7968 C 734.555 -4.07974 3.44082 0
M  V30 7969 O 734.778 -5.04447 2.66251 0
M  V30 7970 O 733.712 -4.13417 4.37458 0
M  V30 7971 H 737.538 -1.24156 2.77162 0
M  V30 7972 H 735.123 -0.550201 1.389 0
M  V30 7973 H 737.005 -3.61732 2.16167 0
M  V30 7974 H 735.68 -3.03892 1.11496 0
M  V30 7975 H 734.587 -1.97813 3.17523 0
M  V30 7976 H 735.92 -2.6193 4.16718 0
M  V30 7977 N 737.572 -1.44907 -0.619662 0
M  V30 7978 C 738.849 -1.38766 -1.37852 0
M  V30 7979 C 739.229 -0.0521393 -2.11036 0
M  V30 7980 O 738.577 0.965613 -2.07095 0
M  V30 7981 C 738.787 -2.59344 -2.33541 0
M  V30 7982 C 740.135 -3.03909 -2.96521 0
M  V30 7983 O 741.159 -2.59631 -2.43865 0
M  V30 7984 O 740.018 -3.80713 -3.92071 0
M  V30 7985 H 737.112 -0.550083 -0.617525 0
M  V30 7986 H 739.658 -1.57015 -0.643759 0
M  V30 7987 H 738.43 -3.48142 -1.78642 0
M  V30 7988 H 738.053 -2.43367 -3.14417 0
M  V30 7989 N 739.05 0.861098 -1.31996 0
M  V30 7990 C 740.299 1.60965 -1.21545 0
M  V30 7991 C 740.612 1.94325 0.222972 0
M  V30 7992 O 741.818 2.67757 0.449272 0
M  V30 7993 C 740.274 2.90223 -2.12834 0
M  V30 7994 C 739.882 2.64313 -3.61722 0
M  V30 7995 C 741.626 3.68229 -2.11205 0
M  V30 7996 C 739.533 3.89532 -4.44993 0
M  V30 7997 H 738.463 0.603988 -0.451348 0
M  V30 7998 H 741.114 0.951358 -1.56912 0
M  V30 7999 H 739.496 3.57475 -1.70375 0
M  V30 8000 H 740.67 2.05413 -4.12483 0
M  V30 8001 H 738.985 1.99647 -3.65418 0
M  V30 8002 H 741.582 4.61138 -2.70658 0
M  V30 8003 H 741.925 4.01466 -1.1014 0
M  V30 8004 H 742.458 3.07873 -2.51911 0
M  V30 8005 H 739.197 3.61441 -5.46846 0
M  V30 8006 H 738.717 4.47851 -3.98985 0
M  V30 8007 H 740.396 4.57334 -4.57663 0
M  V30 8008 N 740.528 1.15101 1.07655 0
M  V30 8009 C 741.776 0.922149 1.79836 0
M  V30 8010 C 742.097 -0.552346 1.87014 0
M  V30 8011 O 741.367 -1.40145 1.3688 0
M  V30 8012 H 739.947 0.338182 0.666064 0
M  V30 8013 H 742.609 1.45107 1.30115 0
M  V30 8014 H 741.705 1.32883 2.82398 0
M  V30 8015 N 742.006 -1.2595 0.947325 0
M  V30 8016 C 743.231 -1.98083 0.614633 0
M  V30 8017 C 743.656 -1.70013 -0.804815 0
M  V30 8018 O 743.014 -0.95175 -1.54309 0
M  V30 8019 C 743.062 -3.4993 0.870706 0
M  V30 8020 O 742.166 -4.12364 -0.0541451 0
M  V30 8021 H 741.507 -0.621232 0.234451 0
M  V30 8022 H 744.037 -1.60259 1.27193 0
M  V30 8023 H 744.047 -4.00198 0.794051 0
M  V30 8024 H 742.722 -3.69691 1.90529 0
M  V30 8025 H 741.299 -3.72826 0.0740917 0
M  V30 8026 N 743.484 -0.715051 -1.40445 0
M  V30 8027 C 744.709 -0.26254 -2.05732 0
M  V30 8028 C 745.134 1.08691 -1.53519 0
M  V30 8029 O 744.492 1.68453 -0.670328 0
M  V30 8030 C 744.54 -0.25195 -3.59719 0
M  V30 8031 O 743.644 0.766998 -4.05205 0
M  V30 8032 H 742.985 -0.123398 -0.652433 0
M  V30 8033 H 745.515 -0.975382 -1.79854 0
M  V30 8034 H 745.525 -0.0894537 -4.07902 0
M  V30 8035 H 744.2 -1.23672 -3.97087 0
M  V30 8036 H 742.777 0.572269 -3.68483 0
M  V30 8037 N 744.962 1.50701 -0.461195 0
M  V30 8038 C 745.872 2.32069 0.343661 0
M  V30 8039 C 746.888 1.42016 1.00535 0
M  V30 8040 O 748.064 1.75077 0.995498 0
M  V30 8041 C 745.129 3.16424 1.41692 0
M  V30 8042 C 744.19 4.22286 0.772869 0
M  V30 8043 C 743.423 5.02609 1.79499 0
M  V30 8044 O 743.646 4.83874 3.0203 0
M  V30 8045 O 742.58 5.86047 1.3723 0
M  V30 8046 H 746.406 3.01996 -0.321268 0
M  V30 8047 H 743.991 1.47723 -0.223235 0
M  V30 8048 H 745.873 3.68795 2.03883 0
M  V30 8049 H 744.548 2.49236 2.0655 0
M  V30 8050 H 743.455 3.73931 0.112277 0
M  V30 8051 H 744.788 4.91915 0.167399 0
M  V30 8052 N 746.441 0.193421 1.56409 0
M  V30 8053 C 747.681 -0.447977 1.9943 0
M  V30 8054 C 748.045 -1.58915 1.07751 0
M  V30 8055 O 749.246 -2.29462 1.40002 0
M  V30 8056 C 747.517 -0.89793 3.45936 0
M  V30 8057 S 749.076 -1.5374 4.10986 0
M  V30 8058 H 745.894 -0.143316 0.696406 0
M  V30 8059 H 748.496 0.296093 1.93245 0
M  V30 8060 H 747.2 -0.0572927 4.1036 0
M  V30 8061 H 746.731 -1.67551 3.55936 0
M  V30 8062 H 748.746 -2.82612 4.07854 0
M  V30 8063 N 747.919 -1.57396 -0.0801906 0
M  V30 8064 C 749.144 -1.91437 -0.797909 0
M  V30 8065 C 749.569 -0.789075 -1.70749 0
M  V30 8066 O 748.927 0.25857 -1.79447 0
M  V30 8067 C 748.975 -3.24402 -1.57467 0
M  V30 8068 O 748.079 -3.13043 -2.68473 0
M  V30 8069 H 747.42 -0.627109 -0.218243 0
M  V30 8070 H 749.95 -2.04537 -0.050949 0
M  V30 8071 H 749.96 -3.58072 -1.95571 0
M  V30 8072 H 748.635 -4.05884 -0.907229 0
M  V30 8073 H 747.212 -2.90915 -2.33287 0
M  V30 8074 N 749.397 0.351382 -1.53633 0
M  V30 8075 C 750.674 1.10903 -1.6112 0
M  V30 8076 C 751.054 2.06725 -0.427556 0
M  V30 8077 O 750.402 2.20992 0.580916 0
M  V30 8078 C 750.612 1.83561 -2.96827 0
M  V30 8079 C 751.96 2.37587 -3.51906 0
M  V30 8080 O 752.984 1.93669 -2.9895 0
M  V30 8081 O 751.843 3.17913 -4.44515 0
M  V30 8082 H 748.937 0.509558 -0.651368 0
M  V30 8083 H 751.483 0.353504 -1.65977 0
M  V30 8084 H 750.255 1.1371 -3.74414 0
M  V30 8085 H 749.878 2.6599 -2.95525 0
M  V30 8086 N 750.875 1.45233 0.611969 0
M  V30 8087 C 752.103 1.52539 1.39784 0
M  V30 8088 C 752.518 0.156533 1.8815 0
M  V30 8089 O 751.875 -0.84112 1.61961 0
M  V30 8090 C 751.926 2.50614 2.60528 0
M  V30 8091 O 751.647 3.8218 2.14173 0
M  V30 8092 C 753.148 2.67574 3.53439 0
M  V30 8093 H 750.368 0.51674 0.428043 0
M  V30 8094 H 752.912 1.90379 0.746727 0
M  V30 8095 H 751.067 2.15858 3.2169 0
M  V30 8096 H 751.481 4.35305 2.92592 0
M  V30 8097 H 752.955 3.40184 4.34717 0
M  V30 8098 H 753.432 1.73458 4.03496 0
M  V30 8099 H 754.038 3.0331 2.98133 0
M  V30 8100 N 752.353 -0.854086 1.3245 0
M  V30 8101 C 753.63 -1.59188 1.1366 0
M  V30 8102 C 754.01 -2.08917 -0.302807 0
M  V30 8103 O 753.358 -1.8795 -1.29951 0
M  V30 8104 C 753.568 -2.73757 2.16467 0
M  V30 8105 C 754.916 -3.43323 2.49829 0
M  V30 8106 O 755.94 -2.83983 2.15017 0
M  V30 8107 O 754.799 -4.50409 3.09506 0
M  V30 8108 H 751.893 -0.701092 0.438633 0
M  V30 8109 H 754.439 -0.898165 1.43983 0
M  V30 8110 H 753.211 -2.3454 3.1322 0
M  V30 8111 H 752.834 -3.50804 1.87142 0
M  V30 8112 N 753.831 -1.1567 -1.07043 0
M  V30 8113 C 755.056 -0.957946 -1.83952 0
M  V30 8114 C 755.481 0.488807 -1.81638 0
M  V30 8115 O 754.839 1.34869 -1.21162 0
M  V30 8116 C 754.887 -1.48064 -3.288 0
M  V30 8117 O 753.991 -0.681921 -4.06723 0
M  V30 8118 H 753.332 -0.341453 -0.569479 0
M  V30 8119 H 755.862 -1.53728 -1.35015 0
M  V30 8120 H 755.872 -1.49484 -3.7963 0
M  V30 8121 H 754.547 -2.53388 -3.29799 0
M  V30 8122 H 753.124 -0.737612 -3.65532 0
M  V30 8123 N 755.309 1.25446 -0.953992 0
M  V30 8124 C 756.219 2.29632 -0.480264 0
M  V30 8125 C 757.235 1.68025 0.452071 0
M  V30 8126 O 758.411 1.98703 0.328472 0
M  V30 8127 C 755.476 3.45903 0.234974 0
M  V30 8128 C 754.537 4.22953 -0.735495 0
M  V30 8129 C 753.77 5.33672 -0.0542957 0
M  V30 8130 O 753.993 5.58477 1.16018 0
M  V30 8131 O 752.927 5.9734 -0.739509 0
M  V30 8132 H 756.753 2.72242 -1.34602 0
M  V30 8133 H 754.338 1.30883 -0.720419 0
M  V30 8134 H 756.22 4.16552 0.637341 0
M  V30 8135 H 754.895 3.05296 1.07592 0
M  V30 8136 H 753.802 3.54734 -1.18806 0
M  V30 8137 H 755.135 4.67341 -1.54444 0
M  V30 8138 N 756.787 0.722489 1.40064 0
M  V30 8139 C 757.697 0.0755984 2.34478 0
M  V30 8140 C 758.713 -0.736046 1.57665 0
M  V30 8141 O 759.889 -0.667407 1.9002 0
M  V30 8142 C 756.954 -0.830075 3.36616 0
M  V30 8143 C 756.015 -0.00759884 4.29299 0
M  V30 8144 C 755.248 -0.870139 5.26559 0
M  V30 8145 O 755.471 -2.10921 5.2997 0
M  V30 8146 O 754.405 -0.305454 6.01124 0
M  V30 8147 H 758.231 0.854545 2.9143 0
M  V30 8148 H 755.816 0.483032 1.41376 0
M  V30 8149 H 757.698 -1.34864 3.99236 0
M  V30 8150 H 756.373 -1.58805 2.82069 0
M  V30 8151 H 755.28 0.556199 3.69942 0
M  V30 8152 H 756.613 0.712312 4.87018 0
M  V30 8153 N 758.265 -1.50454 0.469181 0
M  V30 8154 C 759.197 -2.26319 -0.362247 0
M  V30 8155 C 760.21 -1.31574 -0.958751 0
M  V30 8156 O 761.399 -1.57099 -0.847482 0
M  V30 8157 C 758.499 -3.02808 -1.52187 0
M  V30 8158 C 757.672 -4.24893 -1.03849 0
M  V30 8159 C 756.731 -4.83691 -2.07194 0
M  V30 8160 O 755.757 -5.44659 -1.65333 0
M  V30 8161 N 756.959 -4.70522 -3.39985 0
M  V30 8162 H 759.724 -2.98312 0.288124 0
M  V30 8163 H 757.285 -1.59099 0.299856 0
M  V30 8164 H 759.277 -3.39023 -2.21011 0
M  V30 8165 H 757.847 -2.33625 -2.07697 0
M  V30 8166 H 757.067 -3.93806 -0.176203 0
M  V30 8167 H 758.355 -5.04053 -0.693435 0
M  V30 8168 H 757.753 -4.2203 -3.76706 0
M  V30 8169 H 756.31 -5.11011 -4.04612 0
M  V30 8170 N 759.743 -0.201713 -1.56304 0
M  V30 8171 C 760.991 0.434447 -1.97375 0
M  V30 8172 C 761.312 1.61692 -1.08998 0
M  V30 8173 O 760.582 1.95223 -0.162682 0
M  V30 8174 H 759.162 0.163497 -0.728888 0
M  V30 8175 H 761.824 -0.289988 -1.92731 0
M  V30 8176 H 760.92 0.774136 -3.02347 0
M  V30 8177 N 761.222 1.57436 0.0718424 0
M  V30 8178 C 762.499 1.78312 0.804006 0
M  V30 8179 C 762.879 0.789273 1.9579 0
M  V30 8180 O 762.227 -0.177605 2.27809 0
M  V30 8181 C 762.437 3.24798 1.277 0
M  V30 8182 C 763.785 3.88627 1.71039 0
M  V30 8183 O 764.809 3.28689 1.37266 0
M  V30 8184 O 763.668 4.94073 2.33567 0
M  V30 8185 H 760.762 0.73178 0.385262 0
M  V30 8186 H 763.308 1.69621 0.0519219 0
M  V30 8187 H 762.08 3.88688 0.45134 0
M  V30 8188 H 761.703 3.38213 2.0904 0
M  V30 8189 N 762.7 -0.34323 1.53817 0
M  V30 8190 C 763.65 -1.42217 1.78208 0
M  V30 8191 C 764.634 -1.4774 0.637304 0
M  V30 8192 O 765.826 -1.52605 0.896705 0
M  V30 8193 C 762.955 -2.79354 1.9954 0
M  V30 8194 C 762.041 -2.78222 3.20084 0
M  V30 8195 N 762.432 -2.46719 4.41547 0
M  V30 8196 C 760.73 -3.09368 3.21259 0
M  V30 8197 C 761.431 -2.53828 5.23399 0
M  V30 8198 N 760.407 -2.89464 4.60121 0
M  V30 8199 H 764.209 -1.16759 2.69712 0
M  V30 8200 H 761.723 -0.551592 1.52746 0
M  V30 8201 H 763.72 -3.57095 2.15148 0
M  V30 8202 H 762.38 -3.05759 1.09278 0
M  V30 8203 H 763.391 -2.19912 4.68891 0
M  V30 8204 H 760.068 -3.40942 2.40966 0
M  V30 8205 H 761.458 -2.32629 6.30344 0
M  V30 8206 N 764.178 -1.45556 -0.604258 0
M  V30 8207 C 765.141 -1.54091 -1.69672 0
M  V30 8208 C 766.141 -0.420076 -1.55216 0
M  V30 8209 O 767.331 -0.683671 -1.60224 0
M  V30 8210 C 764.463 -1.44063 -3.08964 0
M  V30 8211 H 765.656 -2.51431 -1.6347 0
M  V30 8212 H 763.209 -1.33046 -0.820273 0
M  V30 8213 H 763.944 -0.479201 -3.2074 0
M  V30 8214 H 763.729 -2.25362 -3.20865 0
M  V30 8215 H 765.219 -1.53075 -3.88533 0
M  V30 8216 N 765.656 0.84705 -1.32902 0
M  V30 8217 C 767.072 1.13645 -1.12058 0
M  V30 8218 C 767.272 2.01281 0.093937 0
M  V30 8219 O 766.328 2.4026 0.776608 0
M  V30 8220 C 767.641 1.80644 -2.40392 0
M  V30 8221 C 769.189 1.93246 -2.46221 0
M  V30 8222 C 769.664 2.6366 -3.74496 0
M  V30 8223 N 771.155 2.71179 -3.75521 0
M  V30 8224 C 771.89 3.26332 -4.71482 0
M  V30 8225 N 771.386 3.82236 -5.77813 0
M  V30 8226 N 773.179 3.24507 -4.58968 0
M  V30 8227 H 765.33 0.263612 -2.10758 0
M  V30 8228 H 767.593 0.17944 -0.930863 0
M  V30 8229 H 767.299 1.23708 -3.29225 0
M  V30 8230 H 767.173 2.80736 -2.51926 0
M  V30 8231 H 769.56 2.49338 -1.57843 0
M  V30 8232 H 769.641 0.921272 -2.38634 0
M  V30 8233 H 769.285 2.08229 -4.63253 0
M  V30 8234 H 769.215 3.65234 -3.79357 0
M  V30 8235 H 771.706 2.31527 -2.9867 0
M  V30 8236 H 772.019 4.22499 -6.47082 0
M  V30 8237 H 770.364 3.80546 -5.81558 0
M  V30 8238 H 773.555 2.80085 -3.7506 0
M  V30 8239 H 773.728 3.67188 -5.33926 0
M  V30 8240 N 767.134 1.16236 1.06428 0
M  V30 8241 C 768.545 0.950942 1.60667 0
M  V30 8242 C 768.896 -0.505491 1.89576 0
M  V30 8243 O 768.021 -1.37843 1.66818 0
M  V30 8244 C 768.616 1.71982 2.91904 0
M  V30 8245 C 767.175 1.55342 3.4285 0
M  V30 8246 C 766.322 1.72942 2.16763 0
M  V30 8247 H 769.273 1.31126 0.893959 0
M  V30 8248 H 769.294 1.19483 3.61253 0
M  V30 8249 H 768.806 2.77978 2.70831 0
M  V30 8250 H 766.907 0.5178 3.68985 0
M  V30 8251 H 767.02 2.33643 4.18267 0
M  V30 8252 H 765.384 1.15673 2.26918 0
M  V30 8253 H 766.167 2.80324 1.98175 0
M  V30 8254 N 768.612 -1.24939 0.960631 0
M  V30 8255 C 769.559 -2.25658 0.484459 0
M  V30 8256 C 770.529 -1.59422 -0.466242 0
M  V30 8257 O 771.714 -1.87015 -0.378169 0
M  V30 8258 C 768.854 -3.44359 -0.225958 0
M  V30 8259 C 767.967 -4.25214 0.762682 0
M  V30 8260 C 767.102 -5.31192 0.0290931 0
M  V30 8261 C 766.141 -6.03739 1.00827 0
M  V30 8262 N 765.278 -7.01437 0.305155 0
M  V30 8263 H 770.118 -2.65758 1.34821 0
M  V30 8264 H 767.655 -1.30648 0.675983 0
M  V30 8265 H 769.613 -4.12035 -0.654472 0
M  V30 8266 H 768.243 -3.05118 -1.05371 0
M  V30 8267 H 767.295 -3.57144 1.30966 0
M  V30 8268 H 768.607 -4.75406 1.50964 0
M  V30 8269 H 767.761 -6.04971 -0.457763 0
M  V30 8270 H 766.5 -4.81889 -0.750614 0
M  V30 8271 H 765.505 -5.2877 1.50607 0
M  V30 8272 H 766.73 -6.55131 1.7883 0
M  V30 8273 H 764.676 -6.54415 -0.455704 0
M  V30 8274 H 764.593 -7.49475 0.991104 0
M  V30 8275 H 765.861 -7.79336 -0.159966 0
M  V30 8276 N 770.09 -0.729906 -1.39679 0
M  V30 8277 C 771.037 -0.0866063 -2.30637 0
M  V30 8278 C 772.007 0.735115 -1.48947 0
M  V30 8279 O 773.192 0.696125 -1.77648 0
M  V30 8280 C 770.332 0.818524 -3.35252 0
M  V30 8281 C 769.445 -0.0152635 -4.31997 0
M  V30 8282 C 768.58 0.890669 -5.2368 0
M  V30 8283 C 767.619 0.0518246 -6.12078 0
M  V30 8284 N 766.756 0.913411 -6.96133 0
M  V30 8285 H 771.596 -0.867925 -2.85081 0
M  V30 8286 H 769.133 -0.439673 -1.40376 0
M  V30 8287 H 771.091 1.3577 -3.9449 0
M  V30 8288 H 769.721 1.56587 -2.82277 0
M  V30 8289 H 768.773 -0.671794 -3.74421 0
M  V30 8290 H 770.085 -0.664086 -4.9436 0
M  V30 8291 H 769.239 1.49787 -5.87919 0
M  V30 8292 H 767.978 1.57328 -4.61627 0
M  V30 8293 H 766.983 -0.568209 -5.46856 0
M  V30 8294 H 768.208 -0.627497 -6.76195 0
M  V30 8295 H 766.154 1.58141 -6.36653 0
M  V30 8296 H 766.071 0.320952 -7.55318 0
M  V30 8297 H 767.339 1.50633 -7.64807 0
M  V30 8298 N 771.568 1.50203 -0.477153 0
M  V30 8299 C 772.518 2.25561 0.332625 0
M  V30 8300 C 773.502 1.29401 0.956249 0
M  V30 8301 O 774.694 1.54267 0.867795 0
M  V30 8302 C 771.823 3.12984 1.41052 0
M  V30 8303 C 770.909 4.16595 0.79433 0
M  V30 8304 N 771.3 5.05722 -0.0889633 0
M  V30 8305 C 769.598 4.33279 1.0576 0
M  V30 8306 C 770.299 5.80039 -0.439286 0
M  V30 8307 N 769.275 5.43278 0.187018 0
M  V30 8308 H 773.077 2.91836 -0.347718 0
M  V30 8309 H 770.591 1.59759 -0.291686 0
M  V30 8310 H 772.588 3.65582 2.00388 0
M  V30 8311 H 771.248 2.48258 2.09279 0
M  V30 8312 H 772.259 5.15869 -0.458205 0
M  V30 8313 H 768.936 3.79769 1.7344 0
M  V30 8314 H 770.326 6.61802 -1.1605 0
M  V30 8315 N 773.046 0.209999 1.56195 0
M  V30 8316 C 774.274 -0.429996 2.02382 0
M  V30 8317 C 774.689 -1.54159 1.08998 0
M  V30 8318 O 774.046 -1.82239 0.0974856 0
M  V30 8319 C 774.097 -0.972433 3.48175 0
M  V30 8320 O 773.818 0.0948231 4.37997 0
M  V30 8321 C 775.319 -1.68683 4.09952 0
M  V30 8322 H 772.539 -0.106475 0.662498 0
M  V30 8323 H 775.083 0.323072 2.01932 0
M  V30 8324 H 773.238 -1.67582 3.49278 0
M  V30 8325 H 773.652 -0.31113 5.23576 0
M  V30 8326 H 775.126 -2.01851 5.13771 0
M  V30 8327 H 775.603 -2.59587 3.54276 0
M  V30 8328 H 776.209 -1.02893 4.12666 0
M  V30 8329 N 774.524 -1.57472 -0.0634922 0
M  V30 8330 C 775.752 -1.91887 -0.773767 0
M  V30 8331 C 776.167 -0.806733 -1.70696 0
M  V30 8332 O 775.524 0.219383 -1.81177 0
M  V30 8333 C 775.575 -3.26092 -1.56034 0
M  V30 8334 O 775.296 -4.33029 -0.66464 0
M  V30 8335 C 776.797 -3.74573 -2.37087 0
M  V30 8336 H 774.017 -0.634074 -0.219525 0
M  V30 8337 H 776.561 -2.04476 -0.0312828 0
M  V30 8338 H 774.716 -3.15004 -2.25502 0
M  V30 8339 H 775.13 -5.10291 -1.21258 0
M  V30 8340 H 776.604 -4.71084 -2.87722 0
M  V30 8341 H 777.081 -3.04003 -3.16984 0
M  V30 8342 H 777.687 -3.88631 -1.72759 0
M  V30 8343 N 776.003 0.335068 -1.53997 0
M  V30 8344 C 777.28 1.09188 -1.62288 0
M  V30 8345 C 777.66 2.0626 -0.449458 0
M  V30 8346 O 777.008 2.21596 0.557444 0
M  V30 8347 C 777.218 1.80403 -2.98757 0
M  V30 8348 C 778.566 2.33841 -3.54406 0
M  V30 8349 O 779.59 1.90487 -3.00987 0
M  V30 8350 O 778.449 3.1318 -4.47862 0
M  V30 8351 H 775.543 0.502621 -0.656736 0
M  V30 8352 H 778.089 0.33588 -1.66343 0
M  V30 8353 H 776.861 1.09732 -3.75599 0
M  V30 8354 H 776.484 2.62841 -2.9833 0
M  V30 8355 N 777.481 1.45874 0.596531 0
M  V30 8356 C 778.892 1.44798 1.17857 0
M  V30 8357 C 779.243 0.181443 1.95359 0
M  V30 8358 O 778.368 -0.716336 2.042 0
M  V30 8359 C 778.963 2.62333 2.14398 0
M  V30 8360 C 777.522 2.64342 2.67955 0
M  V30 8361 C 776.669 2.37244 1.43564 0
M  V30 8362 H 779.62 1.53954 0.385222 0
M  V30 8363 H 779.641 2.37063 2.97626 0
M  V30 8364 H 779.153 3.54499 1.57963 0
M  V30 8365 H 777.254 1.76213 3.28298 0
M  V30 8366 H 777.367 3.63897 3.11634 0
M  V30 8367 H 775.731 1.87022 1.72901 0
M  V30 8368 H 776.514 3.31568 0.889805 0
M  V30 8369 N 778.959 -0.83999 1.33349 0
M  V30 8370 C 780.236 -1.57973 1.15342 0
M  V30 8371 C 780.616 -2.09226 -0.280632 0
M  V30 8372 O 779.964 -1.89317 -1.2795 0
M  V30 8373 C 780.174 -2.71446 2.19359 0
M  V30 8374 C 781.522 -3.40654 2.53456 0
M  V30 8375 O 782.546 -2.81686 2.18017 0
M  V30 8376 O 781.405 -4.47101 3.14266 0
M  V30 8377 H 778.499 -0.6964 0.446044 0
M  V30 8378 H 781.045 -0.882843 1.44927 0
M  V30 8379 H 779.817 -2.31205 3.1569 0
M  V30 8380 H 779.44 -3.488 1.90852 0
M  V30 8381 N 780.437 -1.16799 -1.0581 0
M  V30 8382 C 781.686 -0.94698 -1.78088 0
M  V30 8383 C 781.999 0.526016 -1.88394 0
M  V30 8384 O 783.205 0.865061 -2.5735 0
M  V30 8385 C 781.661 -1.64508 -3.20102 0
M  V30 8386 C 781.269 -3.15618 -3.17946 0
M  V30 8387 C 783.013 -1.50622 -3.96879 0
M  V30 8388 C 780.92 -3.78144 -4.5471 0
M  V30 8389 H 779.85 -0.35067 -0.667493 0
M  V30 8390 H 782.501 -1.39985 -1.18645 0
M  V30 8391 H 780.883 -1.11993 -3.79834 0
M  V30 8392 H 782.057 -3.75016 -2.67768 0
M  V30 8393 H 780.372 -3.29444 -2.54667 0
M  V30 8394 H 782.969 -1.94713 -4.97987 0
M  V30 8395 H 783.312 -0.455864 -4.13797 0
M  V30 8396 H 783.845 -2.00319 -3.43682 0
M  V30 8397 H 780.584 -4.83149 -4.42998 0
M  V30 8398 H 780.104 -3.23532 -5.05062 0
M  V30 8399 H 781.783 -3.79986 -5.2366 0
M  V30 8400 N 781.915 1.24427 -0.967243 0
M  V30 8401 C 783.192 1.87831 -0.545776 0
M  V30 8402 C 783.572 1.87126 0.977099 0
M  V30 8403 O 782.92 1.34357 1.84826 0
M  V30 8404 C 783.13 3.29967 -1.13679 0
M  V30 8405 C 784.478 4.06654 -1.22139 0
M  V30 8406 O 785.502 3.39136 -1.08926 0
M  V30 8407 O 784.361 5.27455 -1.43017 0
M  V30 8408 H 781.455 0.806745 -0.181912 0
M  V30 8409 H 784.001 1.32403 -1.06148 0
M  V30 8410 H 782.773 3.24977 -2.17958 0
M  V30 8411 H 782.396 3.92969 -0.605093 0
M  V30 8412 N 783.393 0.737304 1.3929 0
M  V30 8413 C 784.34 0.0988364 2.30588 0
M  V30 8414 C 785.31 -0.727206 1.49335 0
M  V30 8415 O 786.495 -0.686694 1.78014 0
M  V30 8416 C 783.635 -0.800734 3.35682 0
M  V30 8417 C 782.748 0.0381731 4.31983 0
M  V30 8418 C 781.883 -0.862884 5.24145 0
M  V30 8419 C 780.922 -0.0193639 6.12097 0
M  V30 8420 N 780.059 -0.87648 6.96608 0
M  V30 8421 H 784.899 0.883031 2.84617 0
M  V30 8422 H 782.436 0.447111 1.4014 0
M  V30 8423 H 784.394 -1.33676 3.95205 0
M  V30 8424 H 783.024 -1.55088 2.83103 0
M  V30 8425 H 782.076 0.691641 3.74059 0
M  V30 8426 H 783.388 0.690294 4.94 0
M  V30 8427 H 782.542 -1.46667 5.88705 0
M  V30 8428 H 781.281 -1.54878 4.62454 0
M  V30 8429 H 780.286 0.597202 5.46547 0
M  V30 8430 H 781.511 0.663348 6.75852 0
M  V30 8431 H 779.457 -1.54762 6.37483 0
M  V30 8432 H 779.374 -0.280892 7.55478 0
M  V30 8433 H 780.642 -1.46575 7.65595 0
M  V30 8434 N 784.871 -1.49948 0.485112 0
M  V30 8435 C 785.818 -2.28819 -0.301729 0
M  V30 8436 C 786.788 -1.34496 -0.974683 0
M  V30 8437 O 787.973 -1.63444 -0.984418 0
M  V30 8438 C 785.113 -3.16758 -1.36961 0
M  V30 8439 C 784.226 -4.26125 -0.710027 0
M  V30 8440 C 783.361 -5.01302 -1.75699 0
M  V30 8441 C 782.4 -6.02525 -1.07841 0
M  V30 8442 N 781.537 -6.70927 -2.06886 0
M  V30 8443 H 786.377 -2.95604 0.377127 0
M  V30 8444 H 783.914 -1.45764 0.197826 0
M  V30 8445 H 785.872 -3.66106 -2.00056 0
M  V30 8446 H 784.502 -2.51991 -2.01744 0
M  V30 8447 H 783.554 -3.80385 0.0338278 0
M  V30 8448 H 784.866 -4.98493 -0.175079 0
M  V30 8449 H 784.02 -5.54438 -2.46339 0
M  V30 8450 H 782.759 -4.28672 -2.32577 0
M  V30 8451 H 781.764 -5.48635 -0.357706 0
M  V30 8452 H 782.989 -6.77134 -0.516345 0
M  V30 8453 H 780.935 -6.01079 -2.62755 0
M  V30 8454 H 780.852 -7.39216 -1.58414 0
M  V30 8455 H 782.12 -7.28675 -2.76863 0
M  V30 8456 N 786.349 -0.21828 -1.56081 0
M  V30 8457 C 787.259 0.704602 -2.23769 0
M  V30 8458 C 788.275 1.21633 -1.24425 0
M  V30 8459 O 789.451 1.25862 -1.57228 0
M  V30 8460 C 786.516 1.89725 -2.90182 0
M  V30 8461 C 785.577 1.42782 -4.0486 0
M  V30 8462 C 784.81 2.56361 -4.68097 0
M  V30 8463 O 785.033 3.74417 -4.30312 0
M  V30 8464 O 783.967 2.2775 -5.57148 0
M  V30 8465 H 787.793 0.158007 -3.03289 0
M  V30 8466 H 785.378 0.0120279 -1.49395 0
M  V30 8467 H 787.26 2.59382 -3.32113 0
M  V30 8468 H 785.935 2.432 -2.13624 0
M  V30 8469 H 784.842 0.699359 -3.67505 0
M  V30 8470 H 786.175 0.939474 -4.83151 0
M  V30 8471 N 787.827 1.57504 0.0551401 0
M  V30 8472 C 789.243 1.54236 0.410292 0
M  V30 8473 C 789.443 0.940839 1.78187 0
M  V30 8474 O 788.499 0.550541 2.46425 0
M  V30 8475 C 789.812 2.98816 0.336064 0
M  V30 8476 C 791.36 3.10236 0.415047 0
M  V30 8477 C 791.835 4.56499 0.37055 0
M  V30 8478 N 793.326 4.61199 0.43013 0
M  V30 8479 C 794.061 5.71873 0.418179 0
M  V30 8480 N 793.557 6.91864 0.360056 0
M  V30 8481 N 795.35 5.60165 0.465977 0
M  V30 8482 H 787.501 1.94965 -0.842759 0
M  V30 8483 H 789.764 0.893096 -0.317937 0
M  V30 8484 H 789.47 3.4645 -0.605429 0
M  V30 8485 H 789.344 3.59564 1.13988 0
M  V30 8486 H 791.731 2.62566 1.34697 0
M  V30 8487 H 791.812 2.52367 -0.417648 0
M  V30 8488 H 791.456 5.0483 -0.557592 0
M  V30 8489 H 791.386 5.12249 1.221 0
M  V30 8490 H 793.877 3.74857 0.478623 0
M  V30 8491 H 794.19 7.71983 0.35532 0
M  V30 8492 H 792.535 6.94233 0.326492 0
M  V30 8493 H 795.726 4.65322 0.509194 0
M  V30 8494 H 795.899 6.46413 0.453194 0
M  V30 8495 N 789.305 -0.326896 1.54172 0
M  V30 8496 C 790.252 -1.40216 1.83325 0
M  V30 8497 C 791.222 -1.51538 0.680107 0
M  V30 8498 O 792.407 -1.66811 0.926206 0
M  V30 8499 C 789.547 -2.76626 2.0633 0
M  V30 8500 C 788.66 -2.73963 3.34019 0
M  V30 8501 C 787.795 -4.02198 3.47002 0
M  V30 8502 C 786.834 -3.93828 4.68578 0
M  V30 8503 N 785.971 -5.13787 4.78506 0
M  V30 8504 H 790.811 -1.14656 2.7506 0
M  V30 8505 H 788.348 -0.555089 1.36225 0
M  V30 8506 H 790.306 -3.55922 2.17659 0
M  V30 8507 H 788.936 -3.00503 1.1789 0
M  V30 8508 H 787.988 -1.86677 3.31445 0
M  V30 8509 H 789.3 -2.6366 4.2342 0
M  V30 8510 H 788.454 -4.89923 3.57855 0
M  V30 8511 H 787.193 -4.15302 2.55687 0
M  V30 8512 H 786.198 -3.04487 4.57786 0
M  V30 8513 H 787.423 -3.82292 5.61275 0
M  V30 8514 H 785.369 -5.27403 3.90105 0
M  V30 8515 H 785.286 -5.05807 5.61868 0
M  V30 8516 H 786.554 -6.03236 4.93686 0
M  V30 8517 N 790.784 -1.46188 -0.588786 0
M  V30 8518 C 791.731 -1.56292 -1.69828 0
M  V30 8519 C 792.701 -0.407581 -1.61022 0
M  V30 8520 O 793.886 -0.623532 -1.80324 0
M  V30 8521 C 791.026 -1.55341 -3.08161 0
M  V30 8522 C 790.139 -2.81564 -3.27636 0
M  V30 8523 C 789.274 -2.72158 -4.56183 0
M  V30 8524 C 788.313 -3.93348 -4.68981 0
M  V30 8525 N 787.45 -3.82365 -5.88848 0
M  V30 8526 H 792.29 -2.51066 -1.6053 0
M  V30 8527 H 789.827 -1.24562 -0.782474 0
M  V30 8528 H 791.785 -1.52776 -3.88221 0
M  V30 8529 H 790.415 -0.641034 -3.16371 0
M  V30 8530 H 789.467 -2.94136 -2.41223 0
M  V30 8531 H 790.779 -3.714 -3.32962 0
M  V30 8532 H 789.933 -2.67665 -5.44464 0
M  V30 8533 H 788.672 -1.79953 -4.53286 0
M  V30 8534 H 787.677 -3.98181 -3.7912 0
M  V30 8535 H 788.902 -4.86643 -4.73662 0
M  V30 8536 H 786.848 -2.92942 -5.86959 0
M  V30 8537 H 786.765 -4.65851 -5.95415 0
M  V30 8538 H 788.033 -3.81836 -6.79575 0
M  V30 8539 N 792.262 0.832906 -1.33792 0
M  V30 8540 C 793.195 1.94788 -1.18882 0
M  V30 8541 C 794.173 1.62389 -0.0828426 0
M  V30 8542 O 795.357 1.86886 -0.246175 0
M  V30 8543 C 792.484 3.28506 -0.824728 0
M  V30 8544 C 791.53 3.79872 -1.93905 0
M  V30 8545 S 792.363 4.00832 -3.55097 0
M  V30 8546 C 793.519 5.37492 -3.20708 0
M  V30 8547 H 793.752 2.07137 -2.13264 0
M  V30 8548 H 791.285 0.987362 -1.18704 0
M  V30 8549 H 793.243 4.05769 -0.621442 0
M  V30 8550 H 791.904 3.13939 0.100587 0
M  V30 8551 H 791.097 4.76647 -1.6378 0
M  V30 8552 H 790.699 3.09524 -2.09931 0
M  V30 8553 H 792.991 6.20544 -2.71903 0
M  V30 8554 H 793.934 5.72593 -4.16584 0
M  V30 8555 H 794.342 5.02529 -2.57148 0
M  V30 8556 N 793.74 1.17359 1.05189 0
M  V30 8557 C 794.986 0.963413 1.78455 0
M  V30 8558 C 795.319 -0.506703 1.87473 0
M  V30 8559 O 794.594 -1.37611 1.37453 0
M  V30 8560 C 794.877 1.60519 3.22344 0
M  V30 8561 C 794.73 3.14741 3.21338 0
M  V30 8562 C 796.049 1.3091 4.20179 0
M  V30 8563 H 793.168 0.351412 0.647826 0
M  V30 8564 H 795.81 1.44858 1.22948 0
M  V30 8565 H 793.96 1.19265 3.69741 0
M  V30 8566 H 795.632 3.65053 2.82017 0
M  V30 8567 H 793.875 3.4749 2.59679 0
M  V30 8568 H 794.546 3.54775 4.22894 0
M  V30 8569 H 797.022 1.66635 3.81277 0
M  V30 8570 H 795.898 1.784 5.191 0
M  V30 8571 H 796.159 0.229908 4.41502 0
M  V30 8572 N 795.218 -1.23913 0.973828 0
M  V30 8573 C 796.165 -2.25132 0.508366 0
M  V30 8574 C 797.135 -1.59908 -0.449307 0
M  V30 8575 O 798.32 -1.87405 -0.358313 0
M  V30 8576 C 795.46 -3.4458 -0.189422 0
M  V30 8577 C 794.573 -4.24381 0.807738 0
M  V30 8578 C 793.708 -5.31131 0.0854315 0
M  V30 8579 C 792.747 -6.02635 1.07225 0
M  V30 8580 N 791.884 -7.01073 0.379535 0
M  V30 8581 H 796.724 -2.64313 1.37632 0
M  V30 8582 H 794.261 -1.29924 0.689802 0
M  V30 8583 H 796.219 -4.12706 -0.610733 0
M  V30 8584 H 794.849 -3.06218 -1.02129 0
M  V30 8585 H 793.901 -3.55735 1.34747 0
M  V30 8586 H 795.213 -4.73778 1.55998 0
M  V30 8587 H 794.367 -6.05422 -0.393572 0
M  V30 8588 H 793.106 -4.82658 -0.699461 0
M  V30 8589 H 792.111 -5.27143 1.56207 0
M  V30 8590 H 793.336 -6.53197 1.85769 0
M  V30 8591 H 791.282 -6.54862 -0.386269 0
M  V30 8592 H 791.199 -7.48382 1.07054 0
M  V30 8593 H 792.467 -7.79462 -0.0772984 0
M  V30 8594 N 796.696 -0.74468 -1.38897 0
M  V30 8595 C 797.606 -0.112892 -2.34328 0
M  V30 8596 C 798.622 0.71087 -1.58816 0
M  V30 8597 O 799.798 0.637092 -1.91058 0
M  V30 8598 C 796.863 0.776417 -3.37894 0
M  V30 8599 C 795.924 -0.0606999 -4.29257 0
M  V30 8600 C 795.157 0.786258 -5.27877 0
M  V30 8601 O 795.38 2.02463 -5.33259 0
M  V30 8602 O 794.314 0.209781 -6.01534 0
M  V30 8603 H 798.14 -0.900801 -2.90033 0
M  V30 8604 H 795.725 -0.505462 -1.4059 0
M  V30 8605 H 797.607 1.28496 -4.01331 0
M  V30 8606 H 796.282 1.54297 -2.84559 0
M  V30 8607 H 795.189 -0.614984 -3.69011 0
M  V30 8608 H 796.522 -0.789702 -4.85824 0
M  V30 8609 N 798.174 1.49689 -0.493057 0
M  V30 8610 C 799.137 2.27502 0.278485 0
M  V30 8611 C 800.137 1.33184 0.901037 0
M  V30 8612 O 801.327 1.56415 0.766801 0
M  V30 8613 C 798.459 3.10881 1.39878 0
M  V30 8614 H 799.652 2.97163 -0.404219 0
M  V30 8615 H 797.205 1.54324 -0.247774 0
M  V30 8616 H 797.94 2.45767 2.11587 0
M  V30 8617 H 797.725 3.80219 0.957924 0
M  V30 8618 H 799.215 3.69673 1.94247 0
M  V30 8619 N 799.652 0.226554 1.55963 0
M  V30 8620 C 800.584 -0.713907 2.17798 0
M  V30 8621 C 801.597 -1.15387 1.14846 0
M  V30 8622 O 802.786 -1.08416 1.41804 0
M  V30 8623 C 799.886 -1.97945 2.75084 0
M  V30 8624 C 799.059 -1.69424 4.03255 0
M  V30 8625 C 798.118 -2.80734 4.45056 0
M  V30 8626 O 797.144 -2.4899 5.11852 0
M  V30 8627 N 798.346 -4.09797 4.11152 0
M  V30 8628 H 801.111 -0.18494 2.99129 0
M  V30 8629 H 798.672 0.0457346 1.61835 0
M  V30 8630 H 800.664 -2.71611 3.00016 0
M  V30 8631 H 799.234 -2.41876 1.98027 0
M  V30 8632 H 798.454 -0.793767 3.86126 0
M  V30 8633 H 799.742 -1.47806 4.86858 0
M  V30 8634 H 799.14 -4.38429 3.57486 0
M  V30 8635 H 797.697 -4.79992 4.40966 0
M  V30 8636 N 801.13 -1.57531 -0.0467866 0
M  V30 8637 C 802.546 -1.54451 -0.402107 0
M  V30 8638 C 802.746 -0.950275 -1.77685 0
M  V30 8639 O 801.802 -0.563602 -2.4613 0
M  V30 8640 C 803.115 -2.9899 -0.320212 0
M  V30 8641 C 804.663 -3.10452 -0.398588 0
M  V30 8642 C 805.138 -4.56689 -0.346335 0
M  V30 8643 N 806.629 -4.6142 -0.405666 0
M  V30 8644 C 807.364 -5.72087 -0.387845 0
M  V30 8645 N 806.86 -6.92045 -0.32336 0
M  V30 8646 N 808.653 -5.60404 -0.436263 0
M  V30 8647 H 800.804 -1.94515 0.853087 0
M  V30 8648 H 803.067 -0.891397 0.322669 0
M  V30 8649 H 802.773 -3.46124 0.623794 0
M  V30 8650 H 802.647 -3.60164 -1.1208 0
M  V30 8651 H 805.034 -2.63276 -1.33302 0
M  V30 8652 H 805.115 -2.52142 0.431026 0
M  V30 8653 H 804.759 -5.04527 0.584356 0
M  V30 8654 H 804.689 -5.12889 -1.19382 0
M  V30 8655 H 807.18 -3.75105 -0.458737 0
M  V30 8656 H 807.493 -7.7216 -0.314375 0
M  V30 8657 H 805.838 -6.94396 -0.28967 0
M  V30 8658 H 809.029 -4.65586 -0.48451 0
M  V30 8659 H 809.202 -6.46645 -0.418907 0
M  V30 8660 N 802.608 0.318715 -1.54344 0
M  V30 8661 C 803.518 1.41535 -1.87097 0
M  V30 8662 C 804.534 1.56361 -0.763353 0
M  V30 8663 O 805.71 1.71365 -1.05811 0
M  V30 8664 C 802.775 2.76178 -2.09587 0
M  V30 8665 C 801.836 2.70486 -3.3337 0
M  V30 8666 C 801.069 3.98708 -3.54778 0
M  V30 8667 O 801.292 4.9721 -2.79532 0
M  V30 8668 O 800.226 4.01674 -4.48266 0
M  V30 8669 H 804.052 1.16764 -2.80357 0
M  V30 8670 H 801.637 0.51318 -1.4031 0
M  V30 8671 H 803.519 3.55873 -2.25682 0
M  V30 8672 H 802.194 3.00829 -1.19514 0
M  V30 8673 H 801.101 1.89325 -3.22656 0
M  V30 8674 H 802.434 2.50789 -4.23516 0
M  V30 8675 N 804.086 1.46499 0.581025 0
M  V30 8676 C 805.033 1.5719 1.68997 0
M  V30 8677 C 806.003 0.416114 1.60803 0
M  V30 8678 O 807.188 0.633086 1.79991 0
M  V30 8679 C 804.328 1.56973 3.07333 0
M  V30 8680 C 803.441 2.83298 3.26139 0
M  V30 8681 C 802.576 2.74574 4.54734 0
M  V30 8682 C 801.615 3.9583 4.66889 0
M  V30 8683 N 800.752 3.85482 5.86811 0
M  V30 8684 H 805.592 2.51914 1.59196 0
M  V30 8685 H 803.129 1.24975 0.775857 0
M  V30 8686 H 805.087 1.54832 3.87405 0
M  V30 8687 H 803.717 0.657803 3.16027 0
M  V30 8688 H 802.769 2.95411 2.3966 0
M  V30 8689 H 804.081 3.7316 3.30988 0
M  V30 8690 H 803.235 2.70548 5.43036 0
M  V30 8691 H 801.974 1.82354 4.52325 0
M  V30 8692 H 800.979 4.00186 3.77003 0
M  V30 8693 H 802.204 4.89148 4.71075 0
M  V30 8694 H 800.15 2.96051 5.85397 0
M  V30 8695 H 800.067 4.69002 5.92936 0
M  V30 8696 H 801.335 3.85434 6.7754 0
M  V30 8697 N 805.565 -0.825799 1.34232 0
M  V30 8698 C 806.981 -1.11848 1.13851 0
M  V30 8699 C 807.181 -2.01405 -0.0619031 0
M  V30 8700 O 806.237 -2.41465 -0.738287 0
M  V30 8701 C 807.55 -1.76797 2.43235 0
M  V30 8702 C 809.098 -1.89304 2.49265 0
M  V30 8703 C 809.573 -2.57669 3.78643 0
M  V30 8704 N 811.064 -2.65171 3.79788 0
M  V30 8705 C 811.799 -3.1879 4.76614 0
M  V30 8706 N 811.295 -3.72995 5.83821 0
M  V30 8707 N 813.088 -3.17164 4.64073 0
M  V30 8708 H 805.239 -0.230049 2.11151 0
M  V30 8709 H 807.502 -0.164609 0.9336 0
M  V30 8710 H 807.208 -1.18455 3.31152 0
M  V30 8711 H 807.082 -2.76693 2.56361 0
M  V30 8712 H 809.469 -2.46796 1.6179 0
M  V30 8713 H 809.55 -0.883191 2.4007 0
M  V30 8714 H 809.194 -2.00833 4.66507 0
M  V30 8715 H 809.124 -3.59152 3.8512 0
M  V30 8716 H 811.615 -2.26746 3.02315 0
M  V30 8717 H 811.928 -4.12151 6.53721 0
M  V30 8718 H 810.273 -3.71246 5.87538 0
M  V30 8719 H 813.464 -2.74082 3.79469 0
M  V30 8720 H 813.637 -3.58647 5.397 0
M  V30 8721 N 807.043 -1.17915 -1.04565 0
M  V30 8722 C 807.99 -0.901605 -2.12461 0
M  V30 8723 C 808.96 0.157011 -1.65356 0
M  V30 8724 O 810.145 0.0184494 -1.90791 0
M  V30 8725 C 807.285 -0.42796 -3.42436 0
M  V30 8726 C 806.398 -1.55142 -4.03181 0
M  V30 8727 C 805.533 -1.03101 -5.21098 0
M  V30 8728 C 804.572 -2.1295 -5.73863 0
M  V30 8729 N 803.709 -1.62339 -6.83074 0
M  V30 8730 H 808.549 -1.82551 -2.3554 0
M  V30 8731 H 806.086 -0.910389 -1.15544 0
M  V30 8732 H 808.044 -0.134859 -4.16982 0
M  V30 8733 H 806.674 0.458977 -3.1952 0
M  V30 8734 H 805.726 -1.96011 -3.26012 0
M  V30 8735 H 807.038 -2.37968 -4.38375 0
M  V30 8736 H 806.192 -0.692132 -6.02739 0
M  V30 8737 H 804.931 -0.17227 -4.87396 0
M  V30 8738 H 803.936 -2.47687 -4.90847 0
M  V30 8739 H 805.161 -2.9925 -6.09611 0
M  V30 8740 H 803.107 -0.787464 -6.51256 0
M  V30 8741 H 803.024 -2.38767 -7.17305 0
M  V30 8742 H 804.292 -1.31363 -7.68351 0
M  V30 8743 N 808.521 1.23394 -0.980386 0
M  V30 8744 C 809.469 2.26872 -0.513018 0
M  V30 8745 C 810.463 1.63853 0.429948 0
M  V30 8746 O 811.669 1.77417 0.303842 0
M  V30 8747 H 808.044 0.737398 -0.147473 0
M  V30 8748 H 810.015 2.63654 -1.39746 0
M  V30 8749 C 808.764 3.47289 0.168962 0
M  V30 8750 H 808.087 3.96033 -0.547546 0
M  V30 8751 H 809.527 4.21502 0.459616 0
M  V30 8752 C 807.986 3.06425 1.40019 0
M  V30 8753 O 808.516 3.14708 2.49643 0
M  V30 8754 N 806.722 2.61339 1.27084 0
M  V30 8755 H 806.269 2.54799 0.378872 0
M  V30 8756 H 806.227 2.34364 2.09573 0
M  V30 8757 N 809.999 0.752036 1.385 0
M  V30 8758 C 810.946 0.123288 2.3047 0
M  V30 8759 C 811.916 -0.711326 1.50098 0
M  V30 8760 O 813.101 -0.667775 1.78733 0
M  V30 8761 C 810.241 -0.765085 3.36512 0
M  V30 8762 C 809.354 0.0839885 4.31918 0
M  V30 8763 C 808.489 -0.807243 5.25031 0
M  V30 8764 C 807.528 0.0455583 6.12083 0
M  V30 8765 N 806.665 -0.802547 6.97498 0
M  V30 8766 H 811.505 0.913169 2.83664 0
M  V30 8767 H 809.042 0.46195 1.39658 0
M  V30 8768 H 811 -1.29476 3.966 0
M  V30 8769 H 809.63 -1.52077 2.84732 0
M  V30 8770 H 808.682 0.731276 3.73305 0
M  V30 8771 H 809.994 0.74265 4.9324 0
M  V30 8772 H 809.148 -1.40414 5.90228 0
M  V30 8773 H 807.887 -1.49964 4.64071 0
M  V30 8774 H 806.892 0.655137 5.45883 0
M  V30 8775 H 808.117 0.734994 6.75111 0
M  V30 8776 H 806.063 -1.47992 6.39089 0
M  V30 8777 H 805.98 -0.200747 7.55733 0
M  V30 8778 H 807.248 -1.38447 7.67107 0
M  V30 8779 N 811.477 -1.49425 0.500989 0
M  V30 8780 C 812.726 -2.01649 -0.04538 0
M  V30 8781 C 813.039 -1.38572 -1.38047 0
M  V30 8782 O 814.245 -1.82124 -2.01353 0
M  V30 8783 C 812.701 -3.5966 -0.131337 0
M  V30 8784 C 812.309 -4.3171 1.19711 0
M  V30 8785 C 814.053 -4.19828 -0.628071 0
M  V30 8786 C 811.96 -5.81579 1.07332 0
M  V30 8787 H 810.89 -0.753715 -0.0207329 0
M  V30 8788 H 813.541 -1.71962 0.640407 0
M  V30 8789 H 811.923 -3.86063 -0.881574 0
M  V30 8790 H 813.097 -4.17008 1.96064 0
M  V30 8791 H 811.412 -3.83286 1.62729 0
M  V30 8792 H 814.009 -5.2958 -0.738198 0
M  V30 8793 H 814.352 -3.83194 -1.6269 0
M  V30 8794 H 814.885 -3.97746 0.0656314 0
M  V30 8795 H 811.624 -6.22738 2.04642 0
M  V30 8796 H 811.144 -5.98774 0.350679 0
M  V30 8797 H 812.823 -6.42614 0.752047 0
M  V30 8798 N 812.955 -0.234822 -1.55841 0
M  V30 8799 C 814.366 0.270588 -1.84729 0
M  V30 8800 C 814.717 1.58494 -1.15646 0
M  V30 8801 O 813.842 2.12071 -0.430667 0
M  V30 8802 C 814.437 0.497733 -3.35124 0
M  V30 8803 C 812.996 0.947428 -3.64281 0
M  V30 8804 C 812.143 0.01787 -2.77294 0
M  V30 8805 H 815.094 -0.457691 -1.51957 0
M  V30 8806 H 815.115 1.34199 -3.56049 0
M  V30 8807 H 814.627 -0.459037 -3.85376 0
M  V30 8808 H 812.728 1.91709 -3.19497 0
M  V30 8809 H 812.841 0.812651 -4.72158 0
M  V30 8810 H 811.205 0.527071 -2.49187 0
M  V30 8811 H 811.988 -0.934056 -3.30349 0
M  V30 8812 N 814.433 1.57553 0.0384317 0
M  V30 8813 C 815.38 2.05942 1.04194 0
M  V30 8814 C 816.35 0.946637 1.36484 0
M  V30 8815 O 817.535 1.21658 1.46983 0
M  V30 8816 C 814.675 2.53588 2.34066 0
M  V30 8817 C 813.788 3.7862 2.08017 0
M  V30 8818 C 812.923 4.14915 3.31692 0
M  V30 8819 C 811.962 5.32891 3.01155 0
M  V30 8820 N 811.099 5.64662 4.17254 0
M  V30 8821 H 815.939 2.91429 0.622341 0
M  V30 8822 H 813.476 1.44098 0.295684 0
M  V30 8823 H 815.434 2.79276 3.09937 0
M  V30 8824 H 814.064 1.71031 2.73767 0
M  V30 8825 H 813.116 3.60073 1.22686 0
M  V30 8826 H 814.428 4.64613 1.81484 0
M  V30 8827 H 813.582 4.41681 4.15936 0
M  V30 8828 H 812.321 3.27555 3.6133 0
M  V30 8829 H 811.326 5.05887 2.15311 0
M  V30 8830 H 812.551 6.21896 2.72804 0
M  V30 8831 H 810.497 4.80261 4.46861 0
M  V30 8832 H 810.414 6.45145 3.94112 0
M  V30 8833 H 811.682 5.96 5.02399 0
M  V30 8834 N 815.911 -0.310526 1.54511 0
M  V30 8835 C 816.861 -1.38405 1.81185 0
M  V30 8836 C 817.845 -1.46355 0.668499 0
M  V30 8837 O 819.037 -1.50668 0.928873 0
M  V30 8838 C 816.166 -2.75059 2.0542 0
M  V30 8839 C 815.252 -2.7137 3.25913 0
M  V30 8840 N 815.643 -2.37298 4.4668 0
M  V30 8841 C 813.941 -3.02484 3.27749 0
M  V30 8842 C 814.642 -2.42669 5.28665 0
M  V30 8843 N 813.618 -2.79639 4.66158 0
M  V30 8844 H 817.42 -1.11012 2.72128 0
M  V30 8845 H 814.934 -0.519068 1.53881 0
M  V30 8846 H 816.931 -3.52451 2.22674 0
M  V30 8847 H 815.591 -3.03372 1.15739 0
M  V30 8848 H 816.602 -2.09917 4.73451 0
M  V30 8849 H 813.279 -3.35754 2.48144 0
M  V30 8850 H 814.669 -2.19206 6.35136 0
M  V30 8851 N 817.389 -1.46805 -0.573248 0
M  V30 8852 C 818.635 -1.5283 -1.33307 0
M  V30 8853 C 818.968 -0.183287 -1.93333 0
M  V30 8854 O 818.243 0.806354 -1.76998 0
M  V30 8855 C 818.526 -2.63414 -2.45531 0
M  V30 8856 C 818.379 -4.07478 -1.90478 0
M  V30 8857 C 819.698 -2.70014 -3.47535 0
M  V30 8858 H 816.817 -0.556371 -0.483343 0
M  V30 8859 H 819.459 -1.78787 -0.643066 0
M  V30 8860 H 817.609 -2.41412 -3.04389 0
M  V30 8861 H 819.281 -4.40795 -1.36004 0
M  V30 8862 H 817.524 -4.16511 -1.21248 0
M  V30 8863 H 818.195 -4.80598 -2.71531 0
M  V30 8864 H 820.671 -2.89817 -2.98572 0
M  V30 8865 H 819.547 -3.49192 -4.23504 0
M  V30 8866 H 819.808 -1.76436 -4.05367 0
M  V30 8867 N 818.867 0.818669 -1.34668 0
M  V30 8868 C 819.814 1.92983 -1.26595 0
M  V30 8869 C 820.784 1.65506 -0.140315 0
M  V30 8870 O 821.969 1.88063 -0.322005 0
M  V30 8871 C 819.109 3.2932 -1.03163 0
M  V30 8872 C 818.222 3.69061 -2.24539 0
M  V30 8873 C 817.357 4.94368 -1.94355 0
M  V30 8874 C 816.396 5.26702 -3.11851 0
M  V30 8875 N 815.533 6.43187 -2.81522 0
M  V30 8876 H 820.373 1.99219 -2.2162 0
M  V30 8877 H 817.91 0.974612 -1.1018 0
M  V30 8878 H 819.868 4.07897 -0.87613 0
M  V30 8879 H 818.498 3.22584 -0.118045 0
M  V30 8880 H 817.55 2.85842 -2.50995 0
M  V30 8881 H 818.862 3.88924 -3.12313 0
M  V30 8882 H 818.016 5.80742 -1.75566 0
M  V30 8883 H 816.755 4.76515 -1.03848 0
M  V30 8884 H 815.76 4.38823 -3.31231 0
M  V30 8885 H 816.985 5.46492 -4.03142 0
M  V30 8886 H 814.931 6.26783 -1.93596 0
M  V30 8887 H 814.848 6.63243 -3.62829 0
M  V30 8888 H 816.116 7.32621 -2.66247 0
M  V30 8889 N 820.346 1.18468 1.03938 0
M  V30 8890 C 821.293 0.912859 2.1198 0
M  V30 8891 C 822.263 -0.14824 1.65437 0
M  V30 8892 O 823.448 -0.008331 1.90798 0
M  V30 8893 C 820.588 0.446114 3.42204 0
M  V30 8894 C 819.701 1.57278 4.02353 0
M  V30 8895 C 818.836 1.05863 5.20544 0
M  V30 8896 C 817.875 2.1599 5.72726 0
M  V30 8897 N 817.012 1.65959 6.82204 0
M  V30 8898 H 821.852 1.83798 2.34569 0
M  V30 8899 H 819.389 0.916504 1.15059 0
M  V30 8900 H 821.347 0.15697 4.16905 0
M  V30 8901 H 819.977 -0.442025 3.19759 0
M  V30 8902 H 819.029 1.97737 3.24968 0
M  V30 8903 H 820.341 2.40289 4.37107 0
M  V30 8904 H 819.495 0.724087 6.02364 0
M  V30 8905 H 818.234 0.198116 4.87297 0
M  V30 8906 H 817.239 2.50287 4.89527 0
M  V30 8907 H 818.464 3.02479 6.08016 0
M  V30 8908 H 816.41 0.82199 6.5083 0
M  V30 8909 H 816.327 2.42567 7.16029 0
M  V30 8910 H 817.595 1.35436 7.67644 0
M  V30 8911 N 821.824 -1.22873 0.986916 0
M  V30 8912 C 823.24 -1.43594 0.696633 0
M  V30 8913 C 823.44 -1.87622 -0.734869 0
M  V30 8914 O 822.496 -2.02633 -1.50652 0
M  V30 8915 C 823.809 -2.48231 1.69711 0
M  V30 8916 C 825.357 -2.62037 1.71188 0
M  V30 8917 C 825.832 -3.6989 2.70084 0
M  V30 8918 N 827.323 -3.77341 2.68641 0
M  V30 8919 C 828.058 -4.6037 3.41829 0
M  V30 8920 N 827.554 -5.47438 4.24598 0
M  V30 8921 N 829.347 -4.54626 3.30563 0
M  V30 8922 H 821.498 -0.925982 1.91153 0
M  V30 8923 H 823.761 -0.46866 0.824052 0
M  V30 8924 H 823.467 -2.22812 2.72117 0
M  V30 8925 H 823.341 -3.46731 1.48516 0
M  V30 8926 H 825.728 -2.86803 0.694837 0
M  V30 8927 H 825.809 -1.63831 1.96451 0
M  V30 8928 H 825.453 -3.45872 3.71934 0
M  V30 8929 H 825.383 -4.67652 2.42093 0
M  V30 8930 H 827.874 -3.15124 2.08578 0
M  V30 8931 H 828.187 -6.078 4.77283 0
M  V30 8932 H 826.532 -5.4704 4.28687 0
M  V30 8933 H 829.723 -3.85627 2.65347 0
M  V30 8934 H 829.896 -5.19103 3.8786 0
M  V30 8935 N 823.302 -0.75937 -1.38099 0
M  V30 8936 C 824.249 -0.135508 -2.30402 0
M  V30 8937 C 825.219 0.703356 -1.50473 0
M  V30 8938 O 826.404 0.658287 -1.79084 0
M  V30 8939 C 823.544 0.747228 -3.36913 0
M  V30 8940 C 822.657 -0.106893 -4.31868 0
M  V30 8941 C 821.792 0.779388 -5.25451 0
M  V30 8942 C 820.831 -0.0780179 -6.1205 0
M  V30 8943 N 819.968 0.765545 -6.97914 0
M  V30 8944 H 824.808 -0.9282 -2.83176 0
M  V30 8945 H 822.345 -0.46935 -1.39411 0
M  V30 8946 H 824.303 1.27371 -3.97281 0
M  V30 8947 H 822.933 1.50565 -2.85535 0
M  V30 8948 H 821.985 -0.751063 -3.72912 0
M  V30 8949 H 823.297 -0.768798 -4.9284 0
M  V30 8950 H 822.451 1.37282 -5.90964 0
M  V30 8951 H 821.19 1.47501 -4.6486 0
M  V30 8952 H 820.195 -0.684078 -5.45528 0
M  V30 8953 H 821.42 -0.770786 -6.74712 0
M  V30 8954 H 819.366 1.44601 -6.39864 0
M  V30 8955 H 819.283 0.160666 -7.55829 0
M  V30 8956 H 820.551 1.34377 -7.6783 0
M  V30 8957 N 824.78 1.49157 -0.508906 0
M  V30 8958 C 825.69 2.33045 0.269656 0
M  V30 8959 C 826.706 1.45143 0.959662 0
M  V30 8960 O 827.882 1.78155 0.939295 0
M  V30 8961 C 824.947 3.20772 1.31554 0
M  V30 8962 C 824.008 4.24531 0.638131 0
M  V30 8963 C 823.241 5.08065 1.63418 0
M  V30 8964 O 823.464 4.93238 2.86483 0
M  V30 8965 O 822.398 5.90117 1.18516 0
M  V30 8966 H 826.224 3.00821 -0.417183 0
M  V30 8967 H 823.809 1.46938 -0.270119 0
M  V30 8968 H 825.691 3.75095 1.92047 0
M  V30 8969 H 824.366 2.55681 1.98516 0
M  V30 8970 H 823.273 3.74099 -0.00674357 0
M  V30 8971 H 824.606 4.92199 0.0108155 0
M  V30 8972 N 826.258 0.243083 1.55714 0
M  V30 8973 C 827.205 -0.658078 2.21219 0
M  V30 8974 C 828.175 -1.1742 1.17481 0
M  V30 8975 O 829.36 -1.22937 1.45915 0
M  V30 8976 C 826.5 -1.85104 2.91257 0
M  V30 8977 C 825.613 -1.3718 4.09641 0
M  V30 8978 C 824.748 -2.52403 4.67404 0
M  V30 8979 C 823.787 -2.01321 5.78045 0
M  V30 8980 N 822.924 -3.09896 6.30007 0
M  V30 8981 H 827.764 -0.0927854 2.97856 0
M  V30 8982 H 825.301 -0.0340375 1.47061 0
M  V30 8983 H 827.259 -2.55179 3.3006 0
M  V30 8984 H 825.889 -2.38887 2.17101 0
M  V30 8985 H 824.941 -0.565232 3.76177 0
M  V30 8986 H 826.253 -0.957409 4.89525 0
M  V30 8987 H 825.407 -3.30525 5.08761 0
M  V30 8988 H 824.146 -2.97142 3.86728 0
M  V30 8989 H 823.151 -1.21667 5.36169 0
M  V30 8990 H 824.376 -1.57556 6.6057 0
M  V30 8991 H 822.322 -3.54077 5.52237 0
M  V30 8992 H 822.239 -2.72776 7.05074 0
M  V30 8993 H 823.507 -3.8809 6.76023 0
M  V30 8994 N 827.736 -1.57571 -0.0300757 0
M  V30 8995 C 828.964 -1.93485 -0.732891 0
M  V30 8996 C 829.379 -0.842758 -1.68947 0
M  V30 8997 O 828.736 0.180904 -1.81601 0
M  V30 8998 C 828.787 -3.29328 -1.49082 0
M  V30 8999 O 828.508 -4.34341 -0.572639 0
M  V30 9000 C 830.009 -3.79517 -2.29088 0
M  V30 9001 H 827.229 -0.638588 -0.206026 0
M  V30 9002 H 829.773 -2.04496 0.0120966 0
M  V30 9003 H 827.928 -3.19716 -2.1877 0
M  V30 9004 H 828.342 -5.12748 -1.10406 0
M  V30 9005 H 829.816 -4.77081 -2.77665 0
M  V30 9006 H 830.293 -3.10659 -3.10464 0
M  V30 9007 H 830.899 -3.92208 -1.64477 0
M  V30 9008 N 829.214 0.302327 -1.54673 0
M  V30 9009 C 830.177 1.35592 -1.8479 0
M  V30 9010 C 831.177 1.43743 -0.72073 0
M  V30 9011 O 832.367 1.43402 -0.989017 0
M  V30 9012 C 829.499 2.74091 -2.02699 0
M  V30 9013 H 830.692 1.10132 -2.78946 0
M  V30 9014 H 828.245 0.538926 -1.46715 0
M  V30 9015 H 828.98 3.04775 -1.10826 0
M  V30 9016 H 828.765 2.69565 -2.8474 0
M  V30 9017 H 830.255 3.50272 -2.27374 0
M  V30 9018 N 830.692 1.47107 0.565454 0
M  V30 9019 C 831.639 1.58974 1.6732 0
M  V30 9020 C 832.609 0.433146 1.60353 0
M  V30 9021 O 833.794 0.652141 1.79309 0
M  V30 9022 C 830.934 1.60224 3.05651 0
M  V30 9023 C 830.047 2.86741 3.23116 0
M  V30 9024 C 829.182 2.79381 4.51796 0
M  V30 9025 C 828.221 4.0076 4.62664 0
M  V30 9026 N 827.358 3.91685 5.8269 0
M  V30 9027 H 832.198 2.53588 1.56515 0
M  V30 9028 H 829.735 1.25791 0.762558 0
M  V30 9029 H 831.693 1.58933 3.85741 0
M  V30 9030 H 830.323 0.691285 3.15311 0
M  V30 9031 H 829.375 2.97936 2.36513 0
M  V30 9032 H 830.687 3.7665 3.27011 0
M  V30 9033 H 829.841 2.76293 5.40136 0
M  V30 9034 H 828.58 1.87142 4.50366 0
M  V30 9035 H 827.585 4.04162 3.72738 0
M  V30 9036 H 828.81 4.94117 4.6586 0
M  V30 9037 H 826.756 3.02243 5.82224 0
M  V30 9038 H 826.673 4.75264 5.87929 0
M  V30 9039 H 827.941 3.92599 6.73414 0
M  V30 9040 N 832.17 -0.811516 1.35101 0
M  V30 9041 C 833.398 -1.59981 1.31201 0
M  V30 9042 C 833.813 -1.8847 -0.111552 0
M  V30 9043 O 833.17 -1.48414 -1.06205 0
M  V30 9044 C 833.221 -2.934 2.11184 0
M  V30 9045 O 832.942 -2.66148 3.4799 0
M  V30 9046 C 834.443 -3.87776 2.14813 0
M  V30 9047 H 831.663 -0.496921 0.450899 0
M  V30 9048 H 834.207 -1.00886 1.77883 0
M  V30 9049 H 832.362 -3.49022 1.68115 0
M  V30 9050 H 832.776 -3.51301 3.89471 0
M  V30 9051 H 834.25 -4.7852 2.75178 0
M  V30 9052 H 834.727 -4.23997 1.14556 0
M  V30 9053 H 835.333 -3.3809 2.58022 0
M  V30 9054 N 833.648 -1.19017 -1.03309 0
M  V30 9055 C 834.595 -0.924088 -2.11493 0
M  V30 9056 C 835.565 0.139464 -1.65513 0
M  V30 9057 O 836.75 -0.00178761 -1.908 0
M  V30 9058 C 833.89 -0.464255 -3.41963 0
M  V30 9059 C 833.003 -1.5941 -4.01513 0
M  V30 9060 C 832.138 -1.08622 -5.19976 0
M  V30 9061 C 831.177 -2.19024 -5.71572 0
M  V30 9062 N 830.314 -1.69575 -6.81314 0
M  V30 9063 H 835.154 -1.85039 -2.33591 0
M  V30 9064 H 832.691 -0.922593 -1.14572 0
M  V30 9065 H 834.649 -0.179078 -4.16815 0
M  V30 9066 H 833.279 0.425062 -3.19989 0
M  V30 9067 H 832.331 -1.99458 -3.23915 0
M  V30 9068 H 833.643 -2.42604 -4.35826 0
M  V30 9069 H 832.797 -0.756022 -6.01971 0
M  V30 9070 H 831.536 -0.223955 -4.87186 0
M  V30 9071 H 830.541 -2.5288 -4.88193 0
M  V30 9072 H 831.766 -3.05699 -6.06403 0
M  V30 9073 H 829.712 -0.856494 -6.50385 0
M  V30 9074 H 829.629 -2.46361 -7.14732 0
M  V30 9075 H 830.897 -1.39505 -7.66915 0
M  V30 9076 N 835.127 1.22348 -0.993418 0
M  V30 9077 C 836.074 2.24294 -0.544118 0
M  V30 9078 C 837.044 1.60602 0.42381 0
M  V30 9079 O 838.229 1.87952 0.328453 0
M  V30 9080 C 835.369 3.44837 0.134578 0
M  V30 9081 C 834.482 4.23043 -0.875151 0
M  V30 9082 C 833.617 5.30928 -0.169919 0
M  V30 9083 C 832.656 6.00853 -1.16798 0
M  V30 9084 N 831.793 7.00381 -0.491021 0
M  V30 9085 H 836.633 2.6209 -1.4182 0
M  V30 9086 H 834.17 1.2881 -0.710384 0
M  V30 9087 H 836.128 4.13625 0.544998 0
M  V30 9088 H 834.758 3.07804 0.972446 0
M  V30 9089 H 833.81 3.53546 -1.40389 0
M  V30 9090 H 835.122 4.71237 -1.63516 0
M  V30 9091 H 834.276 6.05972 0.297205 0
M  V30 9092 H 833.015 4.8371 0.622586 0
M  V30 9093 H 832.02 5.24591 -1.64573 0
M  V30 9094 H 833.245 6.50159 -1.96137 0
M  V30 9095 H 831.191 6.55393 0.282037 0
M  V30 9096 H 831.108 7.46584 -1.18947 0
M  V30 9097 H 832.376 7.79486 -0.0467169 0
M  V30 9098 N 836.605 0.766683 1.37694 0
M  V30 9099 C 837.853 0.328065 1.9942 0
M  V30 9100 C 838.174 -1.09775 1.61166 0
M  V30 9101 O 837.444 -1.75288 0.874686 0
M  V30 9102 H 836.024 0.11831 0.737572 0
M  V30 9103 H 838.686 0.983686 1.68255 0
M  V30 9104 H 837.782 0.401647 3.09505 0
M  V30 9105 N 838.083 -1.48885 0.516809 0
M  V30 9106 C 839.03 -2.29408 -0.253125 0
M  V30 9107 C 840 -1.36533 -0.945935 0
M  V30 9108 O 841.185 -1.65495 -0.949527 0
M  V30 9109 C 838.325 -3.19592 -1.30211 0
M  V30 9110 C 837.438 -4.27535 -0.61948 0
M  V30 9111 C 836.573 -5.04916 -1.65026 0
M  V30 9112 C 835.612 -6.04677 -0.950368 0
M  V30 9113 N 834.749 -6.75164 -1.92608 0
M  V30 9114 H 839.589 -2.94738 0.439744 0
M  V30 9115 H 837.126 -1.45311 0.2287 0
M  V30 9116 H 839.084 -3.70267 -1.92245 0
M  V30 9117 H 837.714 -2.56213 -1.96353 0
M  V30 9118 H 836.766 -3.80228 0.114505 0
M  V30 9119 H 838.078 -4.98752 -0.0693016 0
M  V30 9120 H 837.232 -5.59539 -2.34523 0
M  V30 9121 H 835.971 -4.33508 -2.23432 0
M  V30 9122 H 834.976 -5.4927 -0.241252 0
M  V30 9123 H 836.201 -6.78077 -0.372599 0
M  V30 9124 H 834.147 -6.06517 -2.49946 0
M  V30 9125 H 834.064 -7.4241 -1.42699 0
M  V30 9126 H 835.332 -7.34384 -2.61345 0
M  V30 9127 O 839.6 -0.393142 -1.56642 0
M  V30 9128 H 840.291 0.151122 -1.9311 0
M  V30 END ATOM
M  V30 BEGIN BOND
M  V30 END BOND
M  V30 END CTAB
M  END
$$$$
