drugbank_target|Q9BTZ2 Dehydrogenase/reductase SDR family member 4 (DB00162)
 OpenBabel12092119223D

  0  0  0     0  0            999 V3000
M  V30 BEGIN CTAB
M  V30 COUNTS 4195 4224 0 0 0
M  V30 BEGIN ATOM
M  V30 1 H -0.908 1.98254 -0.117106 0
M  V30 2 N 0 1.576 0 0
M  V30 3 C 0.933 2.03868 1.02534 0
M  V30 4 C 1.911 0.928543 1.3348 0
M  V30 5 O 3.095 1.19667 1.45644 0
M  V30 6 C 0.222 2.43627 2.35294 0
M  V30 7 C -0.732 3.65373 2.2001 0
M  V30 8 S 0.101 5.13292 1.52614 0
M  V30 9 C 1.257 5.56322 2.86805 0
M  V30 10 H 1.49 2.90518 0.631377 0
M  V30 11 H -0.977 1.52953 0.210867 0
M  V30 12 H 0.981 2.67203 3.11629 0
M  V30 13 H -0.358 1.57376 2.7183 0
M  V30 14 H -1.165 3.90944 3.18086 0
M  V30 15 H -1.563 3.418 1.51819 0
M  V30 16 H 0.729 5.58782 3.83104 0
M  V30 17 H 1.672 6.56266 2.65933 0
M  V30 18 H 2.08 4.83886 2.90714 0
M  V30 19 N 1.4781 -0.272755 1.55222 0
M  V30 20 C 2.4281 -1.33946 1.84506 0
M  V30 21 C 3.4121 -1.44682 0.70399 0
M  V30 22 O 4.6041 -1.48358 0.965338 0
M  V30 23 C 1.7331 -2.69968 2.12067 0
M  V30 24 C 0.8191 -2.63341 3.32434 0
M  V30 25 N 1.2101 -2.26335 4.52334 0
M  V30 26 C -0.4919 -2.94402 3.35028 0
M  V30 27 C 0.2091 -2.29705 5.34425 0
M  V30 28 N -0.8149 -2.68188 4.72838 0
M  V30 29 H 2.9871 -1.04343 2.74754 0
M  V30 30 H 0.5011 -0.481389 1.55101 0
M  V30 31 H 2.4981 -3.46916 2.31202 0
M  V30 32 H 1.1581 -3.00459 1.23103 0
M  V30 33 H 2.1691 -1.98309 4.78429 0
M  V30 34 H -1.1539 -3.29603 2.56257 0
M  V30 35 H 0.2361 -2.03653 6.40293 0
M  V30 36 N 2.9562 -1.48159 -0.537278 0
M  V30 37 C 3.9032 -1.62138 -1.64256 0
M  V30 38 C 4.8732 -0.463668 -1.59497 0
M  V30 39 O 6.0582 -0.686241 -1.78032 0
M  V30 40 C 3.1982 -1.66028 -3.02537 0
M  V30 41 C 2.3112 -2.92855 -3.17585 0
M  V30 42 C 1.4462 -2.87952 -4.46382 0
M  V30 43 C 0.4852 -4.09516 -4.54932 0
M  V30 44 N -0.3778 -4.02733 -5.75109 0
M  V30 45 H 4.4622 -2.56529 -1.51647 0
M  V30 46 H 1.9992 -1.27224 -0.738414 0
M  V30 47 H 3.9572 -1.66265 -3.82638 0
M  V30 48 H 2.5872 -0.751331 -3.13934 0
M  V30 49 H 1.6392 -3.02395 -2.30784 0
M  V30 50 H 2.9512 -3.82822 -3.19764 0
M  V30 51 H 2.1052 -2.8655 -5.34765 0
M  V30 52 H 0.8442 -1.95702 -4.46712 0
M  V30 53 H -0.1508 -4.11201 -3.64957 0
M  V30 54 H 1.0742 -5.02917 -4.56346 0
M  V30 55 H -0.9798 -3.13299 -5.76351 0
M  V30 56 H -1.0628 -4.86397 -5.78752 0
M  V30 57 H 0.2052 -4.05379 -6.65799 0
M  V30 58 N 4.4343 0.785586 -1.36625 0
M  V30 59 C 5.3973 1.87999 -1.31107 0
M  V30 60 C 6.3973 1.59316 -0.217959 0
M  V30 61 O 7.5873 1.67656 -0.472977 0
M  V30 62 C 4.7193 3.24861 -1.03334 0
M  V30 63 H 5.9123 1.94307 -2.2844 0
M  V30 64 H 3.4653 0.983813 -1.21453 0
M  V30 65 H 4.2003 3.24235 -0.0647432 0
M  V30 66 H 3.9853 3.4707 -1.82441 0
M  V30 67 H 5.4753 4.04929 -1.02088 0
M  V30 68 N 5.9124 1.20967 1.01018 0
M  V30 69 C 7.1604 1.02172 1.74371 0
M  V30 70 C 7.4814 -0.446414 1.89821 0
M  V30 71 O 6.7514 -1.32234 1.44537 0
M  V30 72 H 5.3314 0.375066 0.646014 0
M  V30 73 H 7.9934 1.52187 1.21758 0
M  V30 74 H 7.0894 1.48538 2.74487 0
M  V30 75 N 7.3905 -1.2043 1.01659 0
M  V30 76 C 8.3205 -2.25466 0.607226 0
M  V30 77 C 9.3015 -1.65853 -0.377716 0
M  V30 78 O 10.4865 -1.92409 -0.263149 0
M  V30 79 C 7.6165 -3.47256 -0.0552949 0
M  V30 80 C 6.5705 -4.19462 0.850632 0
M  V30 81 C 5.8965 -5.34673 0.0538859 0
M  V30 82 C 7.1965 -4.75603 2.15868 0
M  V30 83 H 8.8905 -2.59962 1.48526 0
M  V30 84 H 6.4365 -1.2496 0.715605 0
M  V30 85 H 8.3895 -4.19917 -0.353233 0
M  V30 86 H 7.1135 -3.11924 -0.968045 0
M  V30 87 H 5.7725 -3.48667 1.13257 0
M  V30 88 H 5.4205 -4.95585 -0.860514 0
M  V30 89 H 5.1205 -5.83913 0.657192 0
M  V30 90 H 6.6445 -6.10138 -0.237598 0
M  V30 91 H 8.0585 -5.40083 1.92311 0
M  V30 92 H 6.4555 -5.3528 2.71284 0
M  V30 93 H 7.5255 -3.94346 2.82169 0
M  V30 94 N 8.8686 -0.792821 -1.36206 0
M  V30 95 C 9.7986 -0.207853 -2.32573 0
M  V30 96 C 10.7796 0.659055 -1.56813 0
M  V30 97 O 11.9646 0.592176 -1.84951 0
M  V30 98 C 9.0946 0.655449 -3.41059 0
M  V30 99 C 8.0486 -0.111842 -4.27854 0
M  V30 100 C 7.3746 0.872274 -5.27537 0
M  V30 101 C 8.6746 -1.30299 -5.05786 0
M  V30 102 H 10.3686 -1.01294 -2.81744 0
M  V30 103 H 7.9146 -0.48854 -1.3546 0
M  V30 104 H 9.8676 1.07464 -4.07467 0
M  V30 105 H 8.5916 1.49328 -2.90463 0
M  V30 106 H 7.2506 -0.512053 -3.63006 0
M  V30 107 H 6.8986 1.70523 -4.73214 0
M  V30 108 H 6.5986 0.363291 -5.86476 0
M  V30 109 H 8.1226 1.28996 -5.96818 0
M  V30 110 H 9.5366 -0.959379 -5.65216 0
M  V30 111 H 7.9336 -1.7455 -5.74154 0
M  V30 112 H 9.0036 -2.09663 -4.37229 0
M  V30 113 N 10.3467 1.47872 -0.545128 0
M  V30 114 C 11.5947 2.02093 -0.016553 0
M  V30 115 C 11.9157 1.42305 1.3332 0
M  V30 116 O 11.1857 0.593853 1.86682 0
M  V30 117 H 9.7657 0.746993 -0.00313038 0
M  V30 118 H 12.4277 1.81414 -0.712397 0
M  V30 119 H 11.5237 3.11996 0.0805422 0
M  V30 120 N 11.8248 0.280983 1.55075 0
M  V30 121 C 12.7548 -0.597469 2.25727 0
M  V30 122 C 13.7358 -1.15417 1.24952 0
M  V30 123 O 14.9208 -1.18722 1.53684 0
M  V30 124 C 12.0508 -1.7789 2.98283 0
M  V30 125 C 11.0048 -1.35347 4.06036 0
M  V30 126 C 10.3308 -2.61846 4.66198 0
M  V30 127 C 11.6308 -0.499354 5.19907 0
M  V30 128 H 13.3248 -0.00824265 2.99399 0
M  V30 129 H 10.8708 -0.0025244 1.44 0
M  V30 130 H 12.8238 -2.39937 3.46422 0
M  V30 131 H 11.5478 -2.39405 2.22155 0
M  V30 132 H 10.2068 -0.756156 3.58717 0
M  V30 133 H 9.8548 -3.21632 3.86732 0
M  V30 134 H 9.5548 -2.3409 5.38958 0
M  V30 135 H 11.0788 -3.24732 5.1709 0
M  V30 136 H 12.4928 -1.02498 5.64063 0
M  V30 137 H 10.8898 -0.316424 5.99265 0
M  V30 138 H 11.9598 0.480459 4.82514 0
M  V30 139 N 13.3029 -1.57598 0.00835791 0
M  V30 140 C 14.5429 -1.92788 -0.679136 0
M  V30 141 C 14.9069 -0.883378 -1.70471 0
M  V30 142 O 16.1079 -1.12079 -2.44319 0
M  V30 143 C 14.3789 -3.32994 -1.29807 0
M  V30 144 S 15.9379 -3.90082 -2.00952 0
M  V30 145 H 12.7559 -0.67475 -0.224127 0
M  V30 146 H 15.3579 -1.95385 0.0670497 0
M  V30 147 H 14.0619 -4.06846 -0.538922 0
M  V30 148 H 13.5929 -3.33791 -2.082 0
M  V30 149 H 15.6079 -3.71834 -3.28563 0
M  V30 150 N 14.781 0.264519 -1.55364 0
M  V30 151 C 15.744 1.31046 -1.88042 0
M  V30 152 C 16.744 1.41943 -0.755569 0
M  V30 153 O 17.934 1.40947 -1.02369 0
M  V30 154 C 15.066 2.69067 -2.09323 0
M  V30 155 H 16.259 1.03297 -2.81549 0
M  V30 156 H 13.812 0.502989 -1.47986 0
M  V30 157 H 14.547 3.01982 -1.18226 0
M  V30 158 H 14.332 2.62542 -2.91229 0
M  V30 159 H 15.822 3.44623 -2.35848 0
M  V30 160 N 16.2591 1.48442 0.529413 0
M  V30 161 C 17.6751 1.34575 0.858004 0
M  V30 162 C 17.8751 0.3572 1.98309 0
M  V30 163 O 16.9311 -0.221379 2.51528 0
M  V30 164 C 18.2441 2.74617 1.22499 0
M  V30 165 C 19.7921 2.83109 1.33484 0
M  V30 166 C 20.2671 4.23854 1.73526 0
M  V30 167 N 21.7581 4.2653 1.80628 0
M  V30 168 C 22.4931 5.32372 2.12997 0
M  V30 169 N 21.9891 6.48491 2.43786 0
M  V30 170 N 23.7821 5.19766 2.14008 0
M  V30 171 H 15.9331 2.1133 -0.212925 0
M  V30 172 H 18.1961 0.947439 -0.0326199 0
M  V30 173 H 17.9021 3.4852 0.471905 0
M  V30 174 H 17.7761 3.08177 2.17501 0
M  V30 175 H 20.1631 2.09462 2.0787 0
M  V30 176 H 20.2441 2.53168 0.366027 0
M  V30 177 H 19.8881 4.98018 0.997013 0
M  V30 178 H 19.8181 4.5124 2.71459 0
M  V30 179 H 22.3091 3.42772 1.59108 0
M  V30 180 H 22.6221 7.24993 2.67592 0
M  V30 181 H 20.9671 6.51765 2.41304 0
M  V30 182 H 24.1581 4.28066 1.89412 0
M  V30 183 H 24.3311 6.02354 2.38902 0
M  V30 184 N 17.7372 -0.778329 1.37039 0
M  V30 185 C 18.7002 -1.87301 1.32102 0
M  V30 186 C 19.7002 -1.59198 0.226405 0
M  V30 187 O 20.8902 -1.67403 0.481861 0
M  V30 188 C 18.0222 -3.24309 1.05055 0
M  V30 189 H 19.2152 -1.93093 2.29467 0
M  V30 190 H 16.7682 -0.977358 1.21973 0
M  V30 191 H 17.5032 -3.24196 0.0819373 0
M  V30 192 H 17.2882 -3.46098 1.84279 0
M  V30 193 H 18.7782 -4.04382 1.04234 0
M  V30 194 N 19.2153 -1.21501 -1.00376 0
M  V30 195 C 20.4613 -1.04457 -1.74529 0
M  V30 196 C 20.8163 0.417386 -1.87818 0
M  V30 197 O 20.1093 1.30556 -1.40234 0
M  V30 198 C 20.3033 -1.67673 -3.15627 0
M  V30 199 C 20.1323 -3.19865 -3.16096 0
M  V30 200 C 18.9023 -3.88915 -3.22604 0
M  V30 201 C 21.1003 -4.16936 -3.01112 0
M  V30 202 N 19.0823 -5.28284 -3.12712 0
M  V30 203 C 20.4533 -5.43066 -2.99131 0
M  V30 204 C 22.5083 -4.07968 -2.85423 0
M  V30 205 C 21.2113 -6.6126 -2.83068 0
M  V30 206 C 23.2373 -5.258 -2.70718 0
M  V30 207 C 22.5993 -6.50842 -2.69414 0
M  V30 208 H 18.6983 -0.436584 -0.648782 0
M  V30 209 H 21.2823 -1.53875 -1.19293 0
M  V30 210 H 19.4533 -1.20822 -3.6913 0
M  V30 211 H 21.1853 -1.43824 -3.78281 0
M  V30 212 H 17.9403 -3.39847 -3.2985 0
M  V30 213 H 18.3643 -6.01284 -3.11105 0
M  V30 214 H 23.0063 -3.1209 -2.85236 0
M  V30 215 H 20.7243 -7.57298 -2.82002 0
M  V30 216 H 24.3103 -5.20683 -2.59577 0
M  V30 217 H 23.1903 -7.40485 -2.5817 0
M  V30 218 N 20.6934 1.19889 -1.02296 0
M  V30 219 C 21.6414 2.24938 -0.592081 0
M  V30 220 C 22.6354 1.65257 0.372357 0
M  V30 221 O 23.8414 1.78371 0.241583 0
M  V30 222 H 20.2164 0.731787 -0.173182 0
M  V30 223 H 22.1874 2.58603 -1.48885 0
M  V30 224 C 20.9364 3.47668 0.047351 0
M  V30 225 H 20.2594 3.93875 -0.685772 0
M  V30 226 H 21.6994 4.22852 0.311862 0
M  V30 227 C 20.1584 3.11136 1.29212 0
M  V30 228 O 20.6884 3.2325 2.38479 0
M  V30 229 N 18.8944 2.65625 1.17863 0
M  V30 230 H 18.4414 2.55968 0.289493 0
M  V30 231 H 18.3994 2.41553 2.01245 0
M  V30 232 N 22.1715 0.800033 1.35784 0
M  V30 233 C 23.3965 0.388511 2.03729 0
M  V30 234 C 23.8215 -0.990481 1.5991 0
M  V30 235 O 23.1795 -1.64013 0.772612 0
M  V30 236 C 23.2275 0.4726 3.5749 0
M  V30 237 O 22.3315 -0.51646 4.09153 0
M  V30 238 H 21.6725 0.163271 0.643614 0
M  V30 239 H 24.2025 1.0841 1.73518 0
M  V30 240 H 24.2125 0.34003 4.06581 0
M  V30 241 H 22.8875 1.47848 3.88734 0
M  V30 242 H 21.4645 -0.344673 3.71304 0
M  V30 243 N 23.6496 -1.47581 0.552962 0
M  V30 244 C 24.8956 -2.02782 0.0273648 0
M  V30 245 C 25.2286 -1.42687 -1.31734 0
M  V30 246 O 24.5036 -0.580897 -1.85623 0
M  V30 247 C 24.7866 -3.60031 -0.0702371 0
M  V30 248 C 24.6396 -4.30566 1.30126 0
M  V30 249 C 25.9586 -4.33028 -0.785771 0
M  V30 250 H 23.0776 -0.736912 0.0114185 0
M  V30 251 H 25.7196 -1.76056 0.714432 0
M  V30 252 H 23.8696 -3.82932 -0.655382 0
M  V30 253 H 25.5416 -4.19018 1.92929 0
M  V30 254 H 23.7846 -3.91086 1.87709 0
M  V30 255 H 24.4556 -5.39114 1.18573 0
M  V30 256 H 26.9316 -4.15095 -0.288982 0
M  V30 257 H 25.8076 -5.42695 -0.823013 0
M  V30 258 H 26.0686 -4.01945 -1.841 0
M  V30 259 N 25.1277 -0.289203 -1.54924 0
M  V30 260 C 26.5437 0.0645403 -1.59469 0
M  V30 261 C 26.7437 1.53419 -1.30632 0
M  V30 262 O 25.7997 2.2852 -1.074 0
M  V30 263 C 27.1127 -0.32278 -2.98963 0
M  V30 264 C 28.6607 -0.270564 -3.11828 0
M  V30 265 C 29.1357 -0.632532 -4.53611 0
M  V30 266 N 30.6267 -0.584617 -4.59496 0
M  V30 267 C 31.3617 -0.837314 -5.67254 0
M  V30 268 N 30.8577 -1.15536 -6.83098 0
M  V30 269 N 32.6507 -0.765166 -5.56868 0
M  V30 270 H 24.8017 -1.24714 -1.71931 0
M  V30 271 H 27.0647 -0.504809 -0.802416 0
M  V30 272 H 26.7707 -1.34541 -3.24948 0
M  V30 273 H 26.6447 0.32944 -3.75759 0
M  V30 274 H 29.0317 0.742805 -2.85598 0
M  V30 275 H 29.1127 -0.957242 -2.37214 0
M  V30 276 H 28.7567 -1.64365 -4.80569 0
M  V30 277 H 28.6867 0.07609 -5.26545 0
M  V30 278 H 31.1777 -0.349248 -3.76283 0
M  V30 279 H 31.4907 -1.33447 -7.61191 0
M  V30 280 H 29.8357 -1.19328 -6.84679 0
M  V30 281 H 33.0267 -0.516432 -4.65243 0
M  V30 282 H 33.1997 -0.965477 -6.40767 0
M  V30 283 N 26.6058 1.57591 -0.0167156 0
M  V30 284 C 27.5388 2.04944 1.00366 0
M  V30 285 C 28.5168 0.942648 1.32487 0
M  V30 286 O 29.7008 1.21205 1.44367 0
M  V30 287 C 26.8278 2.46109 2.32697 0
M  V30 288 C 25.8738 3.67686 2.16123 0
M  V30 289 S 26.7068 5.14882 1.47161 0
M  V30 290 C 27.8628 5.59332 2.80888 0
M  V30 291 H 28.0958 2.91172 0.600528 0
M  V30 292 H 25.6288 1.53168 0.194632 0
M  V30 293 H 27.5868 2.70493 3.08778 0
M  V30 294 H 26.2478 1.6025 2.70146 0
M  V30 295 H 25.4408 3.94296 3.13922 0
M  V30 296 H 25.0428 3.43391 1.48185 0
M  V30 297 H 27.3348 5.62814 3.77156 0
M  V30 298 H 28.2778 6.5905 2.58958 0
M  V30 299 H 28.6858 4.86942 2.85565 0
M  V30 300 N 28.0839 -0.256276 1.55502 0
M  V30 301 C 29.0469 -1.30047 1.88734 0
M  V30 302 C 30.0469 -1.4154 0.763086 0
M  V30 303 O 31.2369 -1.40403 1.03115 0
M  V30 304 C 28.3689 -2.67953 2.10747 0
M  V30 305 H 29.5619 -1.01802 2.82093 0
M  V30 306 H 27.1149 -0.495134 1.4825 0
M  V30 307 H 27.8499 -3.01351 1.19825 0
M  V30 308 H 27.6349 -2.60993 2.92617 0
M  V30 309 H 29.1249 -3.43368 2.37673 0
M  V30 310 N 29.562 -1.4872 -0.521534 0
M  V30 311 C 30.787 -1.61101 -1.30618 0
M  V30 312 C 31.212 -0.274611 -1.86085 0
M  V30 313 O 30.57 0.754937 -1.64834 0
M  V30 314 C 30.618 -2.66709 -2.4269 0
M  V30 315 O 29.722 -2.24456 -3.45967 0
M  V30 316 H 29.063 -0.539921 -0.386499 0
M  V30 317 H 31.593 -1.94767 -0.626645 0
M  V30 318 H 31.603 -2.88245 -2.88754 0
M  V30 319 H 30.278 -3.63727 -2.01682 0
M  V30 320 H 28.855 -2.13168 -3.05964 0
M  V30 321 N 31.0401 0.771051 -1.3745 0
M  V30 322 C 32.2651 1.56529 -1.36065 0
M  V30 323 C 32.6901 1.88029 0.0515859 0
M  V30 324 O 32.0481 1.49282 1.02882 0
M  V30 325 C 32.0961 2.85187 -2.20683 0
M  V30 326 O 31.2001 3.79593 -1.61193 0
M  V30 327 H 30.5411 0.47411 -0.464883 0
M  V30 328 H 33.0711 0.954269 -1.80983 0
M  V30 329 H 33.0811 3.34283 -2.33921 0
M  V30 330 H 31.7561 2.61588 -3.23334 0
M  V30 331 H 30.3331 3.38239 -1.56999 0
M  V30 332 N 32.5182 1.22032 0.997298 0
M  V30 333 C 33.7662 1.04016 1.73278 0
M  V30 334 C 34.0872 -0.426255 1.90284 0
M  V30 335 O 33.3572 -1.30694 1.45931 0
M  V30 336 H 31.9372 0.381897 0.642 0
M  V30 337 H 34.5992 1.5347 1.20137 0
M  V30 338 H 33.6952 1.51441 2.72896 0
M  V30 339 N 33.9963 -1.19345 1.0293 0
M  V30 340 C 34.9293 -2.21347 0.555029 0
M  V30 341 C 35.9073 -1.57492 -0.404351 0
M  V30 342 O 37.0913 -1.85741 -0.321352 0
M  V30 343 C 34.2183 -3.38163 -0.19064 0
M  V30 344 C 33.2643 -4.20375 0.720236 0
M  V30 345 S 34.0973 -4.88371 2.19668 0
M  V30 346 C 35.2533 -6.08597 1.46153 0
M  V30 347 H 35.4863 -2.61235 1.41929 0
M  V30 348 H 33.0193 -1.29598 0.839272 0
M  V30 349 H 34.9773 -4.05871 -0.614724 0
M  V30 350 H 33.6383 -2.9671 -1.03063 0
M  V30 351 H 32.8313 -5.03793 0.14455 0
M  V30 352 H 32.4333 -3.57987 1.08266 0
M  V30 353 H 34.7253 -6.73354 0.748357 0
M  V30 354 H 35.6683 -6.7065 2.27233 0
M  V30 355 H 36.0763 -5.56297 0.958842 0
M  V30 356 N 35.4744 -0.807222 -1.35358 0
M  V30 357 C 36.7024 -0.400377 -2.02989 0
M  V30 358 C 37.1174 0.988859 -1.60832 0
M  V30 359 O 36.4744 1.63729 -0.806175 0
M  V30 360 C 36.5254 -0.474867 -3.58368 0
M  V30 361 O 36.2464 -1.80933 -3.98992 0
M  V30 362 C 37.7474 -0.0609112 -4.43258 0
M  V30 363 H 34.9674 -0.162587 -0.651004 0
M  V30 364 H 37.5114 -1.09102 -1.72965 0
M  V30 365 H 35.6664 0.167534 -3.87038 0
M  V30 366 H 36.0804 -1.77256 -4.9364 0
M  V30 367 H 37.5544 -0.164145 -5.51756 0
M  V30 368 H 38.0314 0.993831 -4.27808 0
M  V30 369 H 38.6374 -0.676492 -4.19885 0
M  V30 370 N 36.9525 1.47285 -0.560781 0
M  V30 371 C 38.3685 1.58065 -0.22081 0
M  V30 372 C 38.5685 1.55892 1.27671 0
M  V30 373 O 37.6245 1.46422 2.0571 0
M  V30 374 C 38.9375 2.88418 -0.850625 0
M  V30 375 C 40.4855 3.02009 -0.822184 0
M  V30 376 C 40.9605 4.35066 -1.43113 0
M  V30 377 N 42.4515 4.41711 -1.39448 0
M  V30 378 C 43.1865 5.43237 -1.83525 0
M  V30 379 N 42.6825 6.51555 -2.35474 0
M  V30 380 N 44.4755 5.34304 -1.74574 0
M  V30 381 H 36.6265 1.46941 -1.53369 0
M  V30 382 H 38.8895 0.699558 -0.639783 0
M  V30 383 H 38.5955 2.95755 -1.9032 0
M  V30 384 H 38.4695 3.75612 -0.345773 0
M  V30 385 H 40.8565 2.94266 0.221714 0
M  V30 386 H 40.9375 2.16347 -1.36483 0
M  V30 387 H 40.5815 4.43565 -2.47412 0
M  V30 388 H 40.5115 5.19465 -0.863899 0
M  V30 389 H 43.0025 3.64027 -1.01452 0
M  V30 390 H 43.3155 7.25203 -2.67021 0
M  V30 391 H 41.6605 6.52435 -2.39487 0
M  V30 392 H 44.8515 4.48581 -1.33763 0
M  V30 393 H 45.0245 6.13288 -2.09242 0
M  V30 394 N 38.4306 0.297415 1.54768 0
M  V30 395 C 39.8466 -0.0560823 1.59501 0
M  V30 396 C 40.0466 -1.52725 1.31444 0
M  V30 397 O 39.1026 -2.27947 1.08611 0
M  V30 398 C 40.4156 0.338631 2.98787 0
M  V30 399 C 41.9636 0.287097 3.11681 0
M  V30 400 C 42.4386 0.656579 4.53269 0
M  V30 401 N 43.9296 0.608977 4.59179 0
M  V30 402 C 44.6646 0.867385 5.66802 0
M  V30 403 N 44.1606 1.19157 6.82476 0
M  V30 404 N 45.9536 0.794687 5.56454 0
M  V30 405 H 38.1046 1.25624 1.71267 0
M  V30 406 H 40.3676 0.509057 0.799728 0
M  V30 407 H 40.0736 1.36263 3.2423 0
M  V30 408 H 39.9476 -0.309508 3.75928 0
M  V30 409 H 42.3346 -0.727649 2.85988 0
M  V30 410 H 42.4156 0.969809 2.36703 0
M  V30 411 H 42.0596 1.66912 4.7969 0
M  V30 412 H 41.9896 -0.0481649 5.26578 0
M  V30 413 H 44.4806 0.369198 3.76092 0
M  V30 414 H 44.7936 1.37482 7.60473 0
M  V30 415 H 43.1386 1.22958 6.84037 0
M  V30 416 H 46.3296 0.541098 4.64962 0
M  V30 417 H 46.5026 0.999445 6.40246 0
M  V30 418 N 39.9087 -1.5758 0.0250728 0
M  V30 419 C 41.1857 -1.82917 -0.692873 0
M  V30 420 C 41.5657 -0.908137 -1.90568 0
M  V30 421 O 40.9137 0.0372298 -2.2847 0
M  V30 422 C 41.1237 -3.32034 -1.07492 0
M  V30 423 C 42.4717 -3.98406 -1.46826 0
M  V30 424 O 43.4957 -3.36505 -1.16801 0
M  V30 425 O 42.3547 -5.07497 -2.02754 0
M  V30 426 H 39.4487 -0.754079 -0.33955 0
M  V30 427 H 41.9947 -1.69619 0.0524456 0
M  V30 428 H 40.7667 -3.90728 -0.211552 0
M  V30 429 H 40.3897 -3.50424 -1.87854 0
M  V30 430 N 41.3868 0.248026 -1.55636 0
M  V30 431 C 42.7978 0.817177 -1.67866 0
M  V30 432 C 43.1488 1.86069 -0.622322 0
M  V30 433 O 42.2738 2.15157 0.231618 0
M  V30 434 C 42.8688 1.489 -3.04326 0
M  V30 435 C 41.4278 2.00587 -3.185 0
M  V30 436 C 40.5748 0.856573 -2.63739 0
M  V30 437 H 43.5258 0.0238579 -1.58682 0
M  V30 438 H 43.5468 2.35698 -2.98708 0
M  V30 439 H 43.0588 0.729279 -3.81186 0
M  V30 440 H 41.1598 2.79443 -2.4646 0
M  V30 441 H 41.2728 2.20402 -4.25393 0
M  V30 442 H 39.6368 1.25678 -2.21534 0
M  V30 443 H 40.4198 0.109953 -3.43124 0
M  V30 444 N 42.8649 1.48995 0.513639 0
M  V30 445 C 43.7949 1.67636 1.62544 0
M  V30 446 C 44.7759 0.525087 1.61793 0
M  V30 447 O 45.9609 0.759502 1.78732 0
M  V30 448 C 43.0909 1.73114 3.01079 0
M  V30 449 C 42.0449 2.87905 3.16693 0
M  V30 450 C 41.3709 2.78486 4.56453 0
M  V30 451 C 42.6709 4.29005 2.97913 0
M  V30 452 H 44.3649 2.60716 1.47198 0
M  V30 453 H 41.9109 1.25465 0.706714 0
M  V30 454 H 43.8639 1.84742 3.78746 0
M  V30 455 H 42.5879 0.766241 3.17484 0
M  V30 456 H 41.2469 2.75859 2.41448 0
M  V30 457 H 40.8949 1.7993 4.69717 0
M  V30 458 H 40.5949 3.55523 4.67843 0
M  V30 459 H 42.1189 2.92104 5.36197 0
M  V30 460 H 43.5329 4.41798 3.65359 0
M  V30 461 H 41.9299 5.07166 3.20785 0
M  V30 462 H 42.9999 4.44329 1.94165 0
M  V30 463 N 44.343 -0.763751 1.37857 0
M  V30 464 C 45.306 -1.85889 1.34081 0
M  V30 465 C 46.306 -1.58949 0.243277 0
M  V30 466 O 47.496 -1.66882 0.499589 0
M  V30 467 C 44.628 -3.23176 1.08489 0
M  V30 468 H 45.821 -1.90648 2.31502 0
M  V30 469 H 43.374 -0.964367 1.23003 0
M  V30 470 H 44.109 -3.24091 0.116318 0
M  V30 471 H 43.894 -3.44124 1.8794 0
M  V30 472 H 45.384 -4.03254 1.08517 0
M  V30 473 N 45.8211 -1.22559 -0.990812 0
M  V30 474 C 46.7691 -0.994798 -2.10253 0
M  V30 475 C 47.7631 0.0627798 -1.69284 0
M  V30 476 O 48.9691 -0.0898392 -1.79776 0
M  V30 477 H 45.3441 -0.304527 -0.687581 0
M  V30 478 H 47.3151 -1.93812 -2.26891 0
M  V30 479 C 46.0641 -0.591439 -3.42633 0
M  V30 480 H 45.3871 -1.3969 -3.74602 0
M  V30 481 H 46.8271 -0.469385 -4.21394 0
M  V30 482 C 45.2861 0.699232 -3.29564 0
M  V30 483 O 45.8161 1.75112 -3.61523 0
M  V30 484 N 44.0221 0.671182 -2.82743 0
M  V30 485 H 43.5691 -0.185136 -2.56934 0
M  V30 486 H 43.5271 1.53502 -2.7438 0
M  V30 487 N 47.2992 1.18797 -1.03562 0
M  V30 488 C 48.2462 2.22253 -0.622259 0
M  V30 489 C 49.2162 1.61987 0.36736 0
M  V30 490 O 50.4012 1.88986 0.262492 0
M  V30 491 C 47.5412 3.45097 0.0138462 0
M  V30 492 C 46.6542 4.19722 -1.02263 0
M  V30 493 C 45.7892 5.30009 -0.355573 0
M  V30 494 C 44.8282 5.96399 -1.37749 0
M  V30 495 N 43.9652 6.98234 -0.735766 0
M  V30 496 H 48.8052 2.56968 -1.50903 0
M  V30 497 H 46.3422 1.26245 -0.755017 0
M  V30 498 H 48.3002 4.15279 0.399948 0
M  V30 499 H 46.9302 3.11018 0.864158 0
M  V30 500 H 45.9822 3.48418 -1.52673 0
M  V30 501 H 47.2942 4.65227 -1.79903 0
M  V30 502 H 46.4482 6.0664 0.0850095 0
M  V30 503 H 45.1872 4.85592 0.452967 0
M  V30 504 H 44.1922 5.18512 -1.82826 0
M  V30 505 H 45.4172 6.42899 -2.18764 0
M  V30 506 H 43.3632 6.55979 0.0525597 0
M  V30 507 H 43.2802 7.41965 -1.44995 0
M  V30 508 H 44.5482 7.78845 -0.31941 0
M  V30 509 N 48.7773 0.814389 1.34928 0
M  V30 510 C 50.0233 0.399013 1.98836 0
M  V30 511 C 50.3563 -1.03314 1.64438 0
M  V30 512 O 49.6313 -1.71811 0.911659 0
M  V30 513 C 49.9143 0.591629 3.55207 0
M  V30 514 C 49.7673 2.06928 3.99376 0
M  V30 515 C 51.0863 0.022199 4.40094 0
M  V30 516 H 48.2053 0.146451 0.722303 0
M  V30 517 H 50.8473 1.02537 1.59957 0
M  V30 518 H 48.9973 0.0584441 3.88456 0
M  V30 519 H 50.6693 2.66544 3.76499 0
M  V30 520 H 48.9123 2.56287 3.49999 0
M  V30 521 H 49.5833 2.1549 5.08201 0
M  V30 522 H 52.0593 0.477643 4.13349 0
M  V30 523 H 50.9353 0.186832 5.48582 0
M  V30 524 H 51.1963 -1.07215 4.28902 0
M  V30 525 N 50.2554 -1.46986 0.568584 0
M  V30 526 C 51.2184 -2.28624 -0.162366 0
M  V30 527 C 52.2184 -1.37596 -0.832103 0
M  V30 528 O 53.4084 -1.60115 -0.68622 0
M  V30 529 C 50.5404 -3.17596 -1.23878 0
M  V30 530 H 51.7334 -2.94722 0.554899 0
M  V30 531 H 49.2864 -1.52863 0.325976 0
M  V30 532 H 50.0214 -2.56214 -1.98808 0
M  V30 533 H 49.8064 -3.846 -0.763219 0
M  V30 534 H 51.2964 -3.79078 -1.75185 0
M  V30 535 N 51.7335 -0.305618 -1.54608 0
M  V30 536 C 52.6635 0.561482 -2.26649 0
M  V30 537 C 53.6445 1.13415 -1.26772 0
M  V30 538 O 54.8295 1.16262 -1.55553 0
M  V30 539 C 51.9595 1.73122 -3.01075 0
M  V30 540 C 50.9135 1.2887 -4.08138 0
M  V30 541 C 50.2395 2.54396 -4.70305 0
M  V30 542 C 51.5395 0.416578 -5.20636 0
M  V30 543 H 53.2335 -0.0393902 -2.99374 0
M  V30 544 H 50.7795 -0.020385 -1.43986 0
M  V30 545 H 52.7325 2.34396 -3.50195 0
M  V30 546 H 51.4565 2.3584 -2.25936 0
M  V30 547 H 50.1155 0.698991 -3.59875 0
M  V30 548 H 49.7635 3.15439 -3.918 0
M  V30 549 H 49.4635 2.25486 -5.42614 0
M  V30 550 H 50.9875 3.16464 -5.2219 0
M  V30 551 H 52.4015 0.935116 -5.65622 0
M  V30 552 H 50.7985 0.221046 -5.99693 0
M  V30 553 H 51.8685 -0.557162 -4.81688 0
M  V30 554 N 53.2116 1.57565 -0.0334293 0
M  V30 555 C 54.4576 1.92262 0.645226 0
M  V30 556 C 54.7906 0.910543 1.71531 0
M  V30 557 O 54.0656 -0.066099 1.94388 0
M  V30 558 C 54.3486 3.37422 1.2577 0
M  V30 559 C 54.2016 4.49369 0.196891 0
M  V30 560 C 55.5206 3.82628 2.17449 0
M  V30 561 H 52.6396 0.699171 0.233085 0
M  V30 562 H 55.2816 1.89779 -0.0915694 0
M  V30 563 H 53.4316 3.39669 1.88566 0
M  V30 564 H 55.1036 4.59254 -0.433962 0
M  V30 565 H 53.3466 4.31168 -0.477137 0
M  V30 566 H 54.0176 5.47978 0.665124 0
M  V30 567 H 56.4936 3.82145 1.64634 0
M  V30 568 H 55.3696 4.84883 2.57254 0
M  V30 569 H 55.6306 3.18376 3.0674 0
M  V30 570 N 54.6897 -0.239769 1.55765 0
M  V30 571 C 55.9177 -0.98417 1.81994 0
M  V30 572 C 56.3327 -1.7867 0.610124 0
M  V30 573 O 55.6897 -1.77571 -0.421271 0
M  V30 574 C 55.7407 -1.91635 3.06526 0
M  V30 575 O 55.4617 -1.14629 4.22838 0
M  V30 576 C 56.9627 -2.77616 3.45607 0
M  V30 577 H 54.1827 -0.28928 0.605441 0
M  V30 578 H 56.7267 -0.260499 2.02834 0
M  V30 579 H 54.8817 -2.5942 2.87715 0
M  V30 580 H 55.2957 -1.77745 4.93464 0
M  V30 581 H 56.7697 -3.38759 4.35828 0
M  V30 582 H 57.2467 -3.4909 2.6652 0
M  V30 583 H 57.8527 -2.15271 3.66795 0
M  V30 584 N 56.1678 -1.49265 -0.50573 0
M  V30 585 C 57.1308 -1.65075 -1.59006 0
M  V30 586 C 58.1308 -0.522768 -1.52065 0
M  V30 587 O 59.3208 -0.789117 -1.55302 0
M  V30 588 C 56.4528 -1.64369 -2.98656 0
M  V30 589 H 57.6458 -2.61784 -1.46319 0
M  V30 590 H 55.1988 -1.38226 -0.729616 0
M  V30 591 H 55.9338 -0.692272 -3.16825 0
M  V30 592 H 55.7188 -2.46282 -3.05103 0
M  V30 593 H 57.2088 -1.78674 -3.77446 0
M  V30 594 N 57.6459 0.756429 -1.3826 0
M  V30 595 C 58.8709 1.55077 -1.37717 0
M  V30 596 C 59.2959 1.88073 0.03164 0
M  V30 597 O 58.6539 1.50364 1.01293 0
M  V30 598 C 58.7019 2.8283 -2.23695 0
M  V30 599 O 57.8059 3.77862 -1.6521 0
M  V30 600 H 57.1469 0.469152 -0.469885 0
M  V30 601 H 59.6769 0.935019 -1.81985 0
M  V30 602 H 59.6869 3.31783 -2.37453 0
M  V30 603 H 58.3619 2.58144 -3.2609 0
M  V30 604 H 56.9389 3.36555 -1.60578 0
M  V30 605 N 59.124 1.23083 0.984299 0
M  V30 606 C 60.352 1.08714 1.76037 0
M  V30 607 C 60.767 -0.361691 1.85303 0
M  V30 608 O 60.124 -1.25034 1.32939 0
M  V30 609 C 60.175 1.70206 3.18923 0
M  V30 610 O 59.896 3.09423 3.10144 0
M  V30 611 C 61.397 1.61227 4.12941 0
M  V30 612 H 58.617 0.380664 0.552572 0
M  V30 613 H 61.161 1.62853 1.23689 0
M  V30 614 H 59.316 1.20109 3.6831 0
M  V30 615 H 59.73 3.39188 4.00065 0
M  V30 616 H 61.204 2.08962 5.10919 0
M  V30 617 H 61.681 0.570375 4.35481 0
M  V30 618 H 62.287 2.10671 3.69456 0
M  V30 619 N 60.6021 -1.18246 1.0419 0
M  V30 620 C 61.8791 -1.84121 0.660208 0
M  V30 621 C 62.2591 -1.92778 -0.860221 0
M  V30 622 O 61.6071 -1.45464 -1.76217 0
M  V30 623 C 61.8171 -3.22355 1.33747 0
M  V30 624 C 63.1651 -3.98376 1.46906 0
M  V30 625 O 64.1891 -3.31799 1.29568 0
M  V30 626 O 63.0481 -5.17665 1.75171 0
M  V30 627 H 60.1421 -0.794036 0.231161 0
M  V30 628 H 62.6881 -1.25628 1.14087 0
M  V30 629 H 61.4601 -3.10964 2.37522 0
M  V30 630 H 61.0831 -3.88506 0.845515 0
M  V30 631 N 62.0802 -0.821533 -1.34494 0
M  V30 632 C 63.3282 -0.408139 -1.97936 0
M  V30 633 C 63.6492 1.03193 -1.65457 0
M  V30 634 O 62.9192 1.71622 -0.944595 0
M  V30 635 H 61.4992 -0.147928 -0.732206 0
M  V30 636 H 64.1612 -1.05067 -1.64155 0
M  V30 637 H 63.2572 -0.52601 -3.07635 0
M  V30 638 N 63.5583 1.46682 -0.576371 0
M  V30 639 C 64.8073 2.01619 -0.0572825 0
M  V30 640 C 65.1203 1.45417 1.30818 0
M  V30 641 O 66.3263 1.92133 1.91825 0
M  V30 642 C 64.7823 3.59863 -0.0518371 0
M  V30 643 C 64.3903 4.25059 -1.41523 0
M  V30 644 C 66.1343 4.2248 0.413639 0
M  V30 645 C 64.0413 5.75364 -1.36785 0
M  V30 646 H 62.9713 0.753794 -0.0176448 0
M  V30 647 H 65.6223 1.68481 -0.727076 0
M  V30 648 H 64.0043 3.90048 0.683994 0
M  V30 649 H 65.1783 4.06491 -2.17029 0
M  V30 650 H 63.4933 3.7451 -1.8202 0
M  V30 651 H 66.0903 5.3265 0.467779 0
M  V30 652 H 66.4333 3.90976 1.42982 0
M  V30 653 H 66.9663 3.96897 -0.267929 0
M  V30 654 H 63.7053 6.11518 -2.36063 0
M  V30 655 H 63.2253 5.96214 -0.654895 0
M  V30 656 H 64.9043 6.37955 -1.07805 0
M  V30 657 N 65.0364 0.313813 1.54444 0
M  V30 658 C 66.2844 -0.291099 1.99993 0
M  V30 659 C 66.6054 -1.53418 1.20366 0
M  V30 660 O 65.8754 -1.93544 0.302927 0
M  V30 661 H 64.4554 -0.110552 0.738774 0
M  V30 662 H 67.1174 0.428106 1.9014 0
M  V30 663 H 66.2134 -0.554268 3.07139 0
M  V30 664 N 66.5145 -1.57545 0.0417849 0
M  V30 665 C 67.7615 -1.92317 -0.634082 0
M  V30 666 C 68.0895 -0.919334 -1.71402 0
M  V30 667 O 67.3445 0.0698253 -1.95575 0
M  V30 668 C 67.6435 -3.33794 -1.27735 0
M  V30 669 C 67.3095 -4.49716 -0.326543 0
M  V30 670 C 65.9715 -4.81156 -0.0648814 0
M  V30 671 C 68.3235 -5.20182 0.325623 0
M  V30 672 C 65.6515 -5.80414 0.856539 0
M  V30 673 C 68.0035 -6.20424 1.23518 0
M  V30 674 C 66.6675 -6.50298 1.5056 0
M  V30 675 H 65.9375 -0.703736 -0.232027 0
M  V30 676 H 68.5845 -1.91205 0.106259 0
M  V30 677 H 66.8895 -3.31228 -2.09274 0
M  V30 678 H 68.5865 -3.57975 -1.80707 0
M  V30 679 H 65.1765 -4.25176 -0.540665 0
M  V30 680 H 69.3605 -4.96112 0.136546 0
M  V30 681 H 64.6165 -6.019 1.07363 0
M  V30 682 H 68.7905 -6.74141 1.74664 0
M  V30 683 H 66.4175 -7.27025 2.22123 0
M  V30 684 N 67.9926 0.231505 -1.5589 0
M  V30 685 C 68.9556 1.27028 -1.90779 0
M  V30 686 C 69.9556 1.40308 -0.785507 0
M  V30 687 O 71.1456 1.38744 -1.05336 0
M  V30 688 C 68.2776 2.64566 -2.14983 0
M  V30 689 H 69.4706 0.973017 -2.83677 0
M  V30 690 H 67.0236 0.471486 -1.49019 0
M  V30 691 H 67.7586 2.99406 -1.24604 0
M  V30 692 H 67.5436 2.56305 -2.96732 0
M  V30 693 H 69.0336 3.39543 -2.43105 0
M  V30 694 N 69.4707 1.49531 0.497807 0
M  V30 695 C 70.7197 1.58426 1.24837 0
M  V30 696 C 71.0327 0.277643 1.93619 0
M  V30 697 O 72.2387 0.24517 2.70391 0
M  V30 698 C 70.6947 2.79538 2.26686 0
M  V30 699 C 70.3027 4.16971 1.63828 0
M  V30 700 C 72.0467 2.97764 3.0255 0
M  V30 701 C 69.9537 5.29301 2.63807 0
M  V30 702 H 68.8837 0.58989 0.469623 0
M  V30 703 H 71.5347 1.75923 0.521857 0
M  V30 704 H 69.9167 2.55542 3.02514 0
M  V30 705 H 71.0907 4.51116 0.939711 0
M  V30 706 H 69.4057 4.04129 1.00342 0
M  V30 707 H 72.0027 3.78856 3.77323 0
M  V30 708 H 72.3457 2.08448 3.60354 0
M  V30 709 H 72.8787 3.21815 2.33838 0
M  V30 710 H 69.6177 6.20687 2.10779 0
M  V30 711 H 69.1377 4.99606 3.31894 0
M  V30 712 H 70.8167 5.58768 3.2617 0
M  V30 713 N 70.9488 -0.749086 1.3866 0
M  V30 714 C 71.9118 -1.84457 1.36045 0
M  V30 715 C 72.9118 -1.58682 0.260122 0
M  V30 716 O 74.1018 -1.66343 0.517261 0
M  V30 717 C 71.2338 -3.22008 1.11911 0
M  V30 718 H 72.4268 -1.88182 2.33512 0
M  V30 719 H 69.9798 -0.951266 1.24019 0
M  V30 720 H 70.7148 -3.2395 0.150686 0
M  V30 721 H 70.4998 -3.42111 1.91579 0
M  V30 722 H 71.9898 -4.0208 1.12788 0
M  V30 723 N 72.4269 -1.23603 -0.977757 0
M  V30 724 C 73.8429 -0.999251 -1.24447 0
M  V30 725 C 74.0429 0.298053 -1.99283 0
M  V30 726 O 73.0989 1.01681 -2.31122 0
M  V30 727 C 74.4119 -2.20784 -2.04144 0
M  V30 728 C 75.9599 -2.25303 -2.17273 0
M  V30 729 C 76.4349 -3.45755 -3.00362 0
M  V30 730 N 77.9259 -3.4601 -3.07947 0
M  V30 731 C 78.6609 -4.35868 -3.72568 0
M  V30 732 N 78.1569 -5.35966 -4.38991 0
M  V30 733 N 79.9499 -4.23605 -3.6948 0
M  V30 734 H 72.1009 -2.06986 -0.476483 0
M  V30 735 H 74.3639 -0.907801 -0.273134 0
M  V30 736 H 74.0699 -3.14945 -1.56533 0
M  V30 737 H 73.9439 -2.22085 -3.04891 0
M  V30 738 H 76.3309 -1.3168 -2.64092 0
M  V30 739 H 76.4119 -2.28033 -1.15907 0
M  V30 740 H 76.0559 -4.39687 -2.5424 0
M  V30 741 H 75.9859 -3.40266 -4.01904 0
M  V30 742 H 78.4769 -2.73588 -2.60688 0
M  V30 743 H 78.7899 -6.00783 -4.86086 0
M  V30 744 H 77.1349 -5.39863 -4.37691 0
M  V30 745 H 80.3259 -3.44647 -3.16759 0
M  V30 746 H 80.4989 -4.93836 -4.1956 0
M  V30 747 N 73.905 1.17692 -1.04816 0
M  V30 748 C 75.321 1.39863 -0.768794 0
M  V30 749 C 75.521 1.91118 0.638451 0
M  V30 750 O 74.577 2.10036 1.40146 0
M  V30 751 C 75.89 2.39274 -1.82122 0
M  V30 752 C 77.438 2.52987 -1.843 0
M  V30 753 C 77.913 3.55669 -2.88555 0
M  V30 754 N 79.404 3.63183 -2.87493 0
M  V30 755 C 80.139 4.42381 -3.64811 0
M  V30 756 N 79.635 5.25125 -4.51903 0
M  V30 757 N 81.428 4.37217 -3.53267 0
M  V30 758 H 73.579 0.82752 -1.95617 0
M  V30 759 H 75.842 0.426123 -0.846831 0
M  V30 760 H 75.548 2.08678 -2.83102 0
M  V30 761 H 75.422 3.38725 -1.65967 0
M  V30 762 H 77.809 2.82896 -0.839869 0
M  V30 763 H 77.89 1.53623 -2.04532 0
M  V30 764 H 77.534 3.26499 -3.89051 0
M  V30 765 H 77.464 4.54728 -2.65575 0
M  V30 766 H 79.955 3.04103 -2.24343 0
M  V30 767 H 80.268 5.82728 -5.07591 0
M  V30 768 H 78.613 5.24519 -4.55966 0
M  V30 769 H 81.804 3.71626 -2.84625 0
M  V30 770 H 81.977 4.98696 -4.13771 0
M  V30 771 N 75.3831 0.828654 1.34056 0
M  V30 772 C 76.3131 0.269443 2.3194 0
M  V30 773 C 77.2941 -0.617247 1.58506 0
M  V30 774 O 78.4791 -0.542931 1.86456 0
M  V30 775 C 75.6091 -0.564793 3.42677 0
M  V30 776 C 74.5631 0.225241 4.27407 0
M  V30 777 C 73.8891 -0.7321 5.29664 0
M  V30 778 C 75.1891 1.43663 5.02154 0
M  V30 779 H 76.8831 1.08728 2.7896 0
M  V30 780 H 74.4291 0.524283 1.34117 0
M  V30 781 H 76.3821 -0.966233 4.10173 0
M  V30 782 H 75.1061 -1.41574 2.9432 0
M  V30 783 H 73.7651 0.608117 3.61521 0
M  V30 784 H 73.4131 -1.57916 4.77568 0
M  V30 785 H 73.1131 -0.20767 5.87233 0
M  V30 786 H 74.6371 -1.13128 6.00029 0
M  V30 787 H 76.0511 1.1089 5.62473 0
M  V30 788 H 74.4481 1.89711 5.69324 0
M  V30 789 H 75.5181 2.21181 4.31517 0
M  V30 790 N 76.8612 -1.46375 0.584142 0
M  V30 791 C 77.8242 -2.28784 -0.138108 0
M  V30 792 C 78.8242 -1.38471 -0.817462 0
M  V30 793 O 80.0142 -1.60833 -0.669199 0
M  V30 794 C 77.1462 -3.18892 -1.20503 0
M  V30 795 H 78.3392 -2.94117 0.586127 0
M  V30 796 H 75.8922 -1.52509 0.342171 0
M  V30 797 H 76.6272 -2.58309 -1.96079 0
M  V30 798 H 76.4122 -3.85388 -0.722384 0
M  V30 799 H 77.9022 -3.80914 -1.71155 0
M  V30 800 N 78.3393 -0.321999 -1.54275 0
M  V30 801 C 79.2713 0.578671 -2.21775 0
M  V30 802 C 80.2843 1.08109 -1.21722 0
M  V30 803 O 81.4733 0.994938 -1.482 0
M  V30 804 C 78.5733 1.80661 -2.86731 0
M  V30 805 C 77.7463 1.44314 -4.12907 0
M  V30 806 C 76.8053 2.52845 -4.61472 0
M  V30 807 O 75.8313 2.17054 -5.2619 0
M  V30 808 N 77.0333 3.83748 -4.35566 0
M  V30 809 H 79.7983 0.000709447 -2.997 0
M  V30 810 H 77.3593 -0.145132 -1.61248 0
M  V30 811 H 79.3513 2.52655 -3.16145 0
M  V30 812 H 77.9213 2.29245 -2.12521 0
M  V30 813 H 77.1413 0.554906 -3.90275 0
M  V30 814 H 78.4293 1.17598 -4.95023 0
M  V30 815 H 77.8273 4.15625 -3.83761 0
M  V30 816 H 76.3843 4.51977 -4.69638 0
M  V30 817 N 79.8174 1.5752 -0.0501392 0
M  V30 818 C 81.0944 1.83996 0.663685 0
M  V30 819 C 81.4744 0.938339 1.89099 0
M  V30 820 O 80.8224 -0.00087759 2.285 0
M  V30 821 C 81.0324 3.33702 1.02196 0
M  V30 822 C 82.3804 4.00691 1.40469 0
M  V30 823 O 83.4044 3.38321 1.11433 0
M  V30 824 O 82.2634 5.10658 1.94654 0
M  V30 825 H 79.3574 0.759385 0.32751 0
M  V30 826 H 81.9034 1.69514 -0.0794238 0
M  V30 827 H 80.6754 3.91015 0.149364 0
M  V30 828 H 80.2984 3.53368 1.82255 0
M  V30 829 N 81.2955 -0.223234 1.56011 0
M  V30 830 C 82.5435 -0.946003 1.78592 0
M  V30 831 C 82.8645 -1.84936 0.618349 0
M  V30 832 O 82.1345 -1.92473 -0.364833 0
M  V30 833 H 80.7145 -0.352298 0.658707 0
M  V30 834 H 83.3765 -0.235494 1.93472 0
M  V30 835 H 82.4725 -1.55381 2.70672 0
M  V30 836 N 82.7736 -1.49793 -0.48987 0
M  V30 837 C 83.7366 -1.66752 -1.57246 0
M  V30 838 C 84.7366 -0.538867 -1.51502 0
M  V30 839 O 85.9266 -0.805545 -1.54456 0
M  V30 840 C 83.0586 -1.67528 -2.96896 0
M  V30 841 H 84.2516 -2.63321 -1.43534 0
M  V30 842 H 81.8046 -1.38992 -0.714914 0
M  V30 843 H 82.5396 -0.725837 -3.16073 0
M  V30 844 H 82.3246 -2.49504 -3.02473 0
M  V30 845 H 83.8146 -1.82667 -3.7553 0
M  V30 846 N 84.2517 0.741722 -1.39055 0
M  V30 847 C 85.2017 1.84661 -1.33732 0
M  V30 848 C 86.1857 1.59397 -0.219401 0
M  V30 849 O 87.3777 1.71015 -0.456375 0
M  V30 850 C 84.5067 3.22512 -1.17647 0
M  V30 851 C 83.5927 3.53628 -2.34112 0
M  V30 852 N 83.9837 3.55723 -3.59576 0
M  V30 853 C 82.2817 3.83956 -2.26923 0
M  V30 854 C 82.9827 3.84443 -4.36553 0
M  V30 855 N 81.9587 4.01877 -3.66055 0
M  V30 856 H 85.7607 1.84576 -2.28711 0
M  V30 857 H 83.2747 0.939647 -1.32455 0
M  V30 858 H 85.2717 4.01597 -1.11917 0
M  V30 859 H 83.9317 3.2384 -0.236124 0
M  V30 860 H 84.9427 3.37196 -3.93089 0
M  V30 861 H 81.6197 3.92929 -1.41113 0
M  V30 862 H 83.0097 3.92588 -5.45274 0
M  V30 863 N 85.7298 1.2412 0.971189 0
M  V30 864 C 86.9758 1.08041 1.71625 0
M  V30 865 C 87.3088 -0.380407 1.90438 0
M  V30 866 O 86.5838 -1.28127 1.46334 0
M  V30 867 C 86.8668 1.81682 3.10908 0
M  V30 868 C 86.7198 3.35493 2.99608 0
M  V30 869 C 88.0388 1.58671 4.10501 0
M  V30 870 H 85.1578 0.39388 0.622919 0
M  V30 871 H 87.7998 1.52743 1.13003 0
M  V30 872 H 85.9498 1.43684 3.60953 0
M  V30 873 H 87.6218 3.83068 2.57015 0
M  V30 874 H 85.8648 3.64052 2.35899 0
M  V30 875 H 86.5358 3.82217 3.98264 0
M  V30 876 H 89.0118 1.91719 3.69301 0
M  V30 877 H 87.8878 2.1266 5.06031 0
M  V30 878 H 88.1488 0.524161 4.38982 0
M  V30 879 N 87.2079 -1.17134 1.05439 0
M  V30 880 C 88.4539 -1.87733 0.767077 0
M  V30 881 C 88.7869 -1.8098 -0.704253 0
M  V30 882 O 88.0619 -1.21951 -1.5152 0
M  V30 883 C 88.3449 -3.37659 1.25133 0
M  V30 884 C 88.1979 -3.53149 2.78578 0
M  V30 885 C 89.5169 -4.31768 0.852324 0
M  V30 886 H 86.6359 -0.681687 0.280129 0
M  V30 887 H 89.2779 -1.37732 1.30881 0
M  V30 888 H 87.4279 -3.80373 0.790469 0
M  V30 889 H 89.0999 -3.19434 3.32806 0
M  V30 890 H 87.3429 -2.95345 3.17732 0
M  V30 891 H 88.0139 -4.58403 3.07523 0
M  V30 892 H 90.4899 -3.96909 1.24911 0
M  V30 893 H 89.3659 -5.35199 1.21873 0
M  V30 894 H 89.6269 -4.41429 -0.243485 0
M  V30 895 N 88.686 -0.835752 -1.33615 0
M  V30 896 C 89.932 -0.430596 -1.98176 0
M  V30 897 C 90.265 1.00684 -1.66061 0
M  V30 898 O 89.54 1.70339 -0.938877 0
M  V30 899 C 89.823 -0.648065 -3.5422 0
M  V30 900 C 89.676 -2.13255 -3.96033 0
M  V30 901 C 90.995 -0.0922113 -4.40003 0
M  V30 902 H 88.114 -0.157924 -0.719881 0
M  V30 903 H 90.756 -1.05069 -1.58305 0
M  V30 904 H 88.906 -0.120237 -3.88314 0
M  V30 905 H 90.578 -2.725 -3.72211 0
M  V30 906 H 88.821 -2.61823 -3.45878 0
M  V30 907 H 89.492 -2.23547 -5.04708 0
M  V30 908 H 91.968 -0.543343 -4.12537 0
M  V30 909 H 90.844 -0.274083 -5.48215 0
M  V30 910 H 91.105 1.00378 -4.30554 0
M  V30 911 N 90.1641 1.46063 -0.591896 0
M  V30 912 C 91.3891 2.07226 -0.0850314 0
M  V30 913 C 91.8141 1.43625 1.21463 0
M  V30 914 O 91.1721 0.523305 1.73583 0
M  V30 915 C 91.2201 3.60554 0.0576567 0
M  V30 916 O 90.3241 3.97128 1.11188 0
M  V30 917 H 89.6651 0.660615 -0.0669568 0
M  V30 918 H 92.1951 1.8756 -0.81745 0
M  V30 919 H 92.2051 4.07165 0.2609 0
M  V30 920 H 90.8801 4.06235 -0.891416 0
M  V30 921 H 89.4571 3.62213 0.886356 0
M  V30 922 N 91.6422 0.330177 1.54103 0
M  V30 923 C 92.8672 -0.274893 2.0557 0
M  V30 924 C 93.2922 -1.44487 1.20437 0
M  V30 925 O 92.6502 -1.80021 0.214991 0
M  V30 926 C 92.6982 -0.68079 3.54115 0
M  V30 927 O 91.8022 -1.7824 3.71893 0
M  V30 928 H 91.1432 -0.0483849 0.662235 0
M  V30 929 H 93.6732 0.480508 1.98878 0
M  V30 930 H 93.6832 -0.961635 3.96505 0
M  V30 931 H 92.3582 0.174903 4.15532 0
M  V30 932 H 90.9352 -1.49985 3.41407 0
M  V30 933 N 93.1203 -1.57491 0.0584922 0
M  V30 934 C 94.5363 -1.56792 -0.298091 0
M  V30 935 C 94.7363 -1.06679 -1.70944 0
M  V30 936 O 93.7923 -0.726672 -2.41818 0
M  V30 937 C 95.1053 -3.00461 -0.119879 0
M  V30 938 C 96.6533 -3.1242 -0.190428 0
M  V30 939 C 97.1283 -4.57982 -0.0406567 0
M  V30 940 N 98.6193 -4.63099 -0.0966958 0
M  V30 941 C 99.3543 -5.734 -0.00502943 0
M  V30 942 N 98.8503 -6.9266 0.139402 0
M  V30 943 N 100.643 -5.62067 -0.0611391 0
M  V30 944 H 92.7943 -1.88386 0.98105 0
M  V30 945 H 95.0573 -0.867865 0.381463 0
M  V30 946 H 94.7633 -3.41187 0.85349 0
M  V30 947 H 94.6373 -3.66843 -0.877833 0
M  V30 948 H 97.0243 -2.71589 -1.15427 0
M  V30 949 H 97.1053 -2.48702 0.598405 0
M  V30 950 H 96.7493 -4.995 0.919897 0
M  V30 951 H 96.6793 -5.19715 -0.848727 0
M  V30 952 H 99.1703 -3.77331 -0.207277 0
M  V30 953 H 99.4833 -7.72536 0.201855 0
M  V30 954 H 97.8283 -6.94781 0.174586 0
M  V30 955 H 101.019 -4.67782 -0.172583 0
M  V30 956 H 101.192 -6.47999 0.0137562 0
M  V30 957 N 94.5984 0.214957 -1.56127 0
M  V30 958 C 95.5454 1.26642 -1.92952 0
M  V30 959 C 96.5154 1.46244 -0.78753 0
M  V30 960 O 97.7004 1.59704 -1.04399 0
M  V30 961 C 94.8404 2.6104 -2.25726 0
M  V30 962 C 93.9534 2.49183 -3.52891 0
M  V30 963 C 93.0884 3.76149 -3.7508 0
M  V30 964 C 92.1274 3.59041 -4.95738 0
M  V30 965 N 91.2644 4.77972 -5.14283 0
M  V30 966 H 96.1044 0.945384 -2.82607 0
M  V30 967 H 93.6414 0.455489 -1.3987 0
M  V30 968 H 95.5994 3.39313 -2.42739 0
M  V30 969 H 94.2294 2.91227 -1.39236 0
M  V30 970 H 93.2814 1.6231 -3.44034 0
M  V30 971 H 94.5934 2.32466 -4.41318 0
M  V30 972 H 93.7474 4.62865 -3.92226 0
M  V30 973 H 92.4864 3.95799 -2.84947 0
M  V30 974 H 91.4914 2.7071 -4.78535 0
M  V30 975 H 92.7164 3.40856 -5.87362 0
M  V30 976 H 90.6624 4.97923 -4.27093 0
M  V30 977 H 90.5794 4.64006 -5.96853 0
M  V30 978 H 91.8474 5.66096 -5.35869 0
M  V30 979 N 96.0765 1.50051 0.48192 0
M  V30 980 C 97.0085 1.64263 1.59844 0
M  V30 981 C 98.0215 0.52451 1.54119 0
M  V30 982 O 99.2105 0.797293 1.59704 0
M  V30 983 C 96.3105 1.60102 2.98698 0
M  V30 984 C 95.4835 2.87767 3.29407 0
M  V30 985 C 94.5425 2.76397 4.47762 0
M  V30 986 O 93.5685 3.50348 4.48603 0
M  V30 987 N 94.7705 1.89222 5.48794 0
M  V30 988 H 97.5355 2.60566 1.48073 0
M  V30 989 H 95.0965 1.47379 0.670149 0
M  V30 990 H 97.0885 1.50123 3.75826 0
M  V30 991 H 95.6585 0.715798 3.04294 0
M  V30 992 H 94.8785 3.11954 2.40994 0
M  V30 993 H 96.1665 3.72365 3.4673 0
M  V30 994 H 95.5645 1.28434 5.50928 0
M  V30 995 H 94.1215 1.85154 6.24949 0
M  V30 996 N 97.5546 -0.734337 1.39446 0
M  V30 997 C 98.4866 -1.85861 1.34121 0
M  V30 998 C 99.4996 -1.60871 0.249864 0
M  V30 999 O 100.689 -1.71093 0.508865 0
M  V30 1000 C 97.7886 -3.21899 1.05991 0
M  V30 1001 C 96.9616 -3.74239 2.26415 0
M  V30 1002 C 96.0206 -4.88841 1.94733 0
M  V30 1003 O 95.0466 -5.02468 2.67422 0
M  V30 1004 N 96.2486 -5.73261 0.913884 0
M  V30 1005 H 99.0136 -1.90934 2.31007 0
M  V30 1006 H 96.5746 -0.915102 1.33557 0
M  V30 1007 H 98.5666 -3.96136 0.828147 0
M  V30 1008 H 97.1366 -3.12091 0.178361 0
M  V30 1009 H 96.3566 -2.91347 2.65539 0
M  V30 1010 H 97.6446 -4.05942 3.06738 0
M  V30 1011 H 97.0426 -5.64842 0.311476 0
M  V30 1012 H 95.5996 -6.47563 0.742015 0
M  V30 1013 N 99.0327 -1.24633 -0.964593 0
M  V30 1014 C 99.9807 -1.03917 -2.08096 0
M  V30 1015 C 100.975 0.0268581 -1.69379 0
M  V30 1016 O 102.181 -0.127952 -1.79545 0
M  V30 1017 H 98.5557 -0.319044 -0.680966 0
M  V30 1018 H 100.527 -1.98581 -2.22729 0
M  V30 1019 C 99.2757 -0.663983 -3.41301 0
M  V30 1020 H 98.5987 -1.47605 -3.71555 0
M  V30 1021 H 100.039 -0.558663 -4.20303 0
M  V30 1022 C 98.4977 0.629169 -3.30973 0
M  V30 1023 O 99.0277 1.67404 -3.65156 0
M  V30 1024 N 97.2337 0.611057 -2.84103 0
M  V30 1025 H 96.7807 -0.239593 -2.56483 0
M  V30 1026 H 96.7387 1.47647 -2.77575 0
M  V30 1027 N 100.511 1.16574 -1.06058 0
M  V30 1028 C 101.757 1.87324 -0.777022 0
M  V30 1029 C 102.09 1.81351 0.694645 0
M  V30 1030 O 101.365 1.22753 1.50871 0
M  V30 1031 C 101.648 3.36991 -1.26922 0
M  V30 1032 C 101.501 3.51667 -2.80447 0
M  V30 1033 C 102.82 4.3131 -0.87521 0
M  V30 1034 H 99.9388 0.680191 -0.28374 0
M  V30 1035 H 102.581 1.37036 -1.3161 0
M  V30 1036 H 100.731 3.79949 -0.81063 0
M  V30 1037 H 102.403 3.17664 -3.34495 0
M  V30 1038 H 100.646 2.93656 -3.19294 0
M  V30 1039 H 101.317 4.56766 -3.0995 0
M  V30 1040 H 103.793 3.9624 -1.27014 0
M  V30 1041 H 102.669 5.34545 -1.2471 0
M  V30 1042 H 102.93 4.41552 0.220071 0
M  V30 1043 N 101.989 0.842826 1.3317 0
M  V30 1044 C 103.266 0.362216 1.92217 0
M  V30 1045 C 103.646 -1.15289 1.76838 0
M  V30 1046 O 102.994 -1.96914 1.15919 0
M  V30 1047 C 103.204 0.813495 3.39387 0
M  V30 1048 C 104.552 0.823804 4.16532 0
M  V30 1049 O 105.576 0.757358 3.48055 0
M  V30 1050 O 104.435 0.915193 5.38782 0
M  V30 1051 H 101.529 0.103317 0.820521 0
M  V30 1052 H 104.075 0.928942 1.42017 0
M  V30 1053 H 102.847 1.85624 3.4447 0
M  V30 1054 H 102.47 0.223561 3.96971 0
M  V30 1055 N 103.467 -1.45747 0.599634 0
M  V30 1056 C 104.399 -2.28628 -0.161879 0
M  V30 1057 C 105.412 -1.39494 -0.839367 0
M  V30 1058 O 106.601 -1.63941 -0.706089 0
M  V30 1059 C 103.701 -3.15014 -1.24976 0
M  V30 1060 C 102.874 -4.32378 -0.660935 0
M  V30 1061 C 101.933 -5.00033 -1.63869 0
M  V30 1062 O 100.959 -5.57085 -1.1681 0
M  V30 1063 N 102.161 -4.98589 -2.97303 0
M  V30 1064 H 104.926 -2.94624 0.549265 0
M  V30 1065 H 102.487 -1.55847 0.438565 0
M  V30 1066 H 104.479 -3.5714 -1.9035 0
M  V30 1067 H 103.049 -2.5098 -1.86354 0
M  V30 1068 H 102.269 -3.9383 0.170688 0
M  V30 1069 H 103.557 -5.08197 -0.247619 0
M  V30 1070 H 102.955 -4.53514 -3.38145 0
M  V30 1071 H 101.512 -5.44603 -3.58121 0
M  V30 1072 N 104.945 -0.338344 -1.53925 0
M  V30 1073 C 105.908 0.508299 -2.23493 0
M  V30 1074 C 106.908 1.03175 -1.23335 0
M  V30 1075 O 108.098 0.921826 -1.47811 0
M  V30 1076 C 105.23 1.70754 -2.95052 0
M  V30 1077 H 106.423 -0.100058 -2.99733 0
M  V30 1078 H 103.976 -0.0896198 -1.56043 0
M  V30 1079 H 104.711 2.35474 -2.22986 0
M  V30 1080 H 104.496 1.33946 -3.68512 0
M  V30 1081 H 105.986 2.30818 -3.48013 0
M  V30 1082 N 106.423 1.57458 -0.0668435 0
M  V30 1083 C 107.669 1.93587 0.6043 0
M  V30 1084 C 108.002 0.946722 1.69561 0
M  V30 1085 O 107.277 -0.0248516 1.94484 0
M  V30 1086 C 107.56 3.40014 1.18585 0
M  V30 1087 C 107.413 4.49685 0.101529 0
M  V30 1088 C 108.732 3.87154 2.09284 0
M  V30 1089 H 105.851 0.703958 0.218202 0
M  V30 1090 H 108.493 1.89542 -0.131804 0
M  V30 1091 H 106.643 3.43592 1.81319 0
M  V30 1092 H 108.315 4.5823 -0.531279 0
M  V30 1093 H 106.558 4.30059 -0.568487 0
M  V30 1094 H 107.229 5.49266 0.54874 0
M  V30 1095 H 109.705 3.85551 1.56491 0
M  V30 1096 H 108.581 4.90231 2.46911 0
M  V30 1097 H 108.842 3.2481 2.99918 0
M  V30 1098 N 107.901 -0.206675 1.56239 0
M  V30 1099 C 108.864 -1.23976 1.92776 0
M  V30 1100 C 109.864 -1.39041 0.807729 0
M  V30 1101 O 111.054 -1.37051 1.0753 0
M  V30 1102 C 108.186 -2.61112 2.19165 0
M  V30 1103 H 109.379 -0.927764 2.85189 0
M  V30 1104 H 106.932 -0.447718 1.4975 0
M  V30 1105 H 107.667 -2.97386 1.29352 0
M  V30 1106 H 107.452 -2.51552 3.00772 0
M  V30 1107 H 108.942 -3.35633 2.48476 0
M  V30 1108 N 109.379 -1.50304 -0.473955 0
M  V30 1109 C 110.607 -1.64902 -1.24959 0
M  V30 1110 C 111.022 -0.331198 -1.85872 0
M  V30 1111 O 110.379 0.68652 -1.69095 0
M  V30 1112 C 110.43 -2.73803 -2.36038 0
M  V30 1113 O 110.151 -4.00477 -1.77624 0
M  V30 1114 C 111.652 -2.99349 -3.26964 0
M  V30 1115 H 108.872 -0.554383 -0.378022 0
M  V30 1116 H 111.416 -1.9651 -0.566054 0
M  V30 1117 H 109.571 -2.44898 -3.00173 0
M  V30 1118 H 109.985 -4.60678 -2.5075 0
M  V30 1119 H 111.459 -3.79217 -4.01121 0
M  V30 1120 H 111.936 -2.10307 -3.85574 0
M  V30 1121 H 112.542 -3.29774 -2.68569 0
M  V30 1122 N 110.857 0.726932 -1.39834 0
M  V30 1123 C 111.787 1.85405 -1.41941 0
M  V30 1124 C 112.768 1.67751 -0.281728 0
M  V30 1125 O 113.953 1.8795 -0.488717 0
M  V30 1126 C 111.083 3.23243 -1.2701 0
M  V30 1127 C 110.037 3.55549 -2.38262 0
M  V30 1128 C 109.363 4.9241 -2.08415 0
M  V30 1129 C 110.663 3.577 -3.80589 0
M  V30 1130 H 112.357 1.83899 -2.36266 0
M  V30 1131 H 109.903 0.883349 -1.13723 0
M  V30 1132 H 111.856 4.01775 -1.27103 0
M  V30 1133 H 110.58 3.25296 -0.291564 0
M  V30 1134 H 109.239 2.79351 -2.37399 0
M  V30 1135 H 108.887 4.91052 -1.0898 0
M  V30 1136 H 108.587 5.14992 -2.82943 0
M  V30 1137 H 110.111 5.73289 -2.10171 0
M  V30 1138 H 111.525 4.26293 -3.83337 0
M  V30 1139 H 109.922 3.91804 -4.54543 0
M  V30 1140 H 110.992 2.57328 -4.10987 0
M  V30 1141 N 112.336 1.25143 0.95797 0
M  V30 1142 C 113.268 1.01023 2.05735 0
M  V30 1143 C 114.281 -0.0236902 1.62783 0
M  V30 1144 O 115.47 0.21448 1.77207 0
M  V30 1145 C 112.57 0.504595 3.35122 0
M  V30 1146 C 111.743 1.6039 4.06932 0
M  V30 1147 C 110.802 1.09922 5.14591 0
M  V30 1148 O 109.828 1.79293 5.40225 0
M  V30 1149 N 111.03 -0.0612545 5.80468 0
M  V30 1150 H 113.795 1.95683 2.26998 0
M  V30 1151 H 111.356 1.16303 1.12629 0
M  V30 1152 H 113.348 0.151516 4.04416 0
M  V30 1153 H 111.918 -0.347989 3.10657 0
M  V30 1154 H 111.138 2.12872 3.31782 0
M  V30 1155 H 112.426 2.34252 4.51667 0
M  V30 1156 H 111.824 -0.640985 5.62057 0
M  V30 1157 H 110.381 -0.355395 6.5083 0
M  V30 1158 N 113.814 -1.1601 1.06675 0
M  V30 1159 C 115.062 -1.86264 0.784229 0
M  V30 1160 C 115.383 -1.82328 -0.691488 0
M  V30 1161 O 114.653 -1.25947 -1.50047 0
M  V30 1162 H 113.233 -0.689621 0.28711 0
M  V30 1163 H 115.895 -1.40664 1.34906 0
M  V30 1164 H 114.991 -2.91595 1.11259 0
M  V30 1165 N 115.292 -0.849877 -1.32721 0
M  V30 1166 C 116.202 -0.293791 -2.32753 0
M  V30 1167 C 117.218 0.585906 -1.63839 0
M  V30 1168 O 118.394 0.487413 -1.95413 0
M  V30 1169 C 115.459 0.512752 -3.42887 0
M  V30 1170 C 114.52 -0.39252 -4.27502 0
M  V30 1171 C 113.753 0.375625 -5.32377 0
M  V30 1172 O 113.976 1.60613 -5.4732 0
M  V30 1173 O 112.91 -0.256094 -6.01355 0
M  V30 1174 H 116.736 -1.12242 -2.82197 0
M  V30 1175 H 114.321 -0.612685 -1.36259 0
M  V30 1176 H 116.203 0.970704 -4.10067 0
M  V30 1177 H 114.878 1.31826 -2.95641 0
M  V30 1178 H 113.785 -0.898547 -3.63149 0
M  V30 1179 H 115.118 -1.16309 -4.7826 0
M  V30 1180 N 116.77 1.45427 -0.607355 0
M  V30 1181 C 118.018 2.01841 -0.102253 0
M  V30 1182 C 118.339 1.47832 1.27164 0
M  V30 1183 O 117.609 0.672497 1.83995 0
M  V30 1184 H 116.189 0.746188 -0.0348101 0
M  V30 1185 H 118.851 1.78229 -0.7887 0
M  V30 1186 H 117.947 3.12057 -0.0518585 0
M  V30 1187 N 118.248 0.346503 1.53744 0
M  V30 1188 C 119.178 -0.501193 2.28058 0
M  V30 1189 C 120.159 -1.10014 1.29734 0
M  V30 1190 O 121.344 -1.12097 1.58581 0
M  V30 1191 C 118.474 -1.65078 3.05559 0
M  V30 1192 C 117.428 -1.18003 4.11411 0
M  V30 1193 C 116.754 -2.41837 4.76884 0
M  V30 1194 C 118.054 -0.278394 5.21558 0
M  V30 1195 H 119.748 0.11875 2.99164 0
M  V30 1196 H 117.294 0.0585531 1.43881 0
M  V30 1197 H 119.247 -2.25028 3.56287 0
M  V30 1198 H 117.971 -2.29767 2.32109 0
M  V30 1199 H 116.63 -0.603331 3.61601 0
M  V30 1200 H 116.278 -3.0494 4.00026 0
M  V30 1201 H 115.978 -2.1102 5.48402 0
M  V30 1202 H 117.502 -3.02508 5.30397 0
M  V30 1203 H 118.916 -0.784823 5.67903 0
M  V30 1204 H 117.313 -0.0619707 6.00068 0
M  V30 1205 H 118.383 0.684677 4.80042 0
M  V30 1206 N 119.726 -1.57421 0.075193 0
M  V30 1207 C 120.951 -1.98364 -0.605515 0
M  V30 1208 C 121.376 -0.953383 -1.62149 0
M  V30 1209 O 120.734 0.0806053 -1.81121 0
M  V30 1210 C 120.782 -3.38332 -1.24756 0
M  V30 1211 O 119.886 -3.37959 -2.36342 0
M  V30 1212 H 119.227 -0.645553 -0.155428 0
M  V30 1213 H 121.757 -2.04044 0.150714 0
M  V30 1214 H 121.767 -3.75591 -1.5936 0
M  V30 1215 H 120.442 -4.12846 -0.503129 0
M  V30 1216 H 119.019 -3.12474 -2.03506 0
M  V30 1217 N 121.204 0.198386 -1.56346 0
M  V30 1218 C 122.45 0.920648 -1.80698 0
M  V30 1219 C 122.783 1.83045 -0.648697 0
M  V30 1220 O 122.058 1.91308 0.350925 0
M  V30 1221 C 122.341 1.73971 -3.15287 0
M  V30 1222 C 122.194 0.85485 -4.41602 0
M  V30 1223 C 123.513 2.71296 -3.46535 0
M  V30 1224 H 120.632 0.333261 -0.657348 0
M  V30 1225 H 123.274 0.188198 -1.89066 0
M  V30 1226 H 121.424 2.36416 -3.08285 0
M  V30 1227 H 123.096 0.245362 -4.60647 0
M  V30 1228 H 121.339 0.161398 -4.335 0
M  V30 1229 H 122.01 1.46286 -5.32264 0
M  V30 1230 H 124.486 2.18983 -3.53816 0
M  V30 1231 H 123.362 3.2569 -4.41834 0
M  V30 1232 H 123.623 3.5018 -2.69864 0
M  V30 1233 N 122.682 1.50554 0.465978 0
M  V30 1234 C 123.91 1.65563 1.24083 0
M  V30 1235 C 124.325 0.341051 1.85694 0
M  V30 1236 O 123.682 -0.677543 1.69457 0
M  V30 1237 C 123.733 2.75051 2.34583 0
M  V30 1238 O 123.454 4.01413 1.75497 0
M  V30 1239 C 124.955 3.01078 3.25372 0
M  V30 1240 H 122.175 0.55638 0.375077 0
M  V30 1241 H 124.719 1.96807 0.555624 0
M  V30 1242 H 122.874 2.46486 2.9887 0
M  V30 1243 H 123.288 4.62002 2.48303 0
M  V30 1244 H 124.762 3.81339 3.99105 0
M  V30 1245 H 125.239 2.12349 3.84453 0
M  V30 1246 H 125.845 3.31194 2.66816 0
M  V30 1247 N 124.16 -0.719506 1.40217 0
M  V30 1248 C 125.408 -1.47641 1.3801 0
M  V30 1249 C 125.729 -1.94992 -0.018145 0
M  V30 1250 O 124.999 -1.70073 -0.972207 0
M  V30 1251 H 123.579 -0.547744 0.507923 0
M  V30 1252 H 126.241 -0.853187 1.75233 0
M  V30 1253 H 125.337 -2.35112 2.05253 0
M  V30 1254 N 125.638 -1.25649 -0.95132 0
M  V30 1255 C 126.866 -1.13343 -1.73092 0
M  V30 1256 C 127.281 0.312434 -1.86197 0
M  V30 1257 O 126.638 1.21465 -1.36207 0
M  V30 1258 C 126.689 -1.78602 -3.14299 0
M  V30 1259 O 126.41 -3.17537 -3.01831 0
M  V30 1260 C 127.911 -1.72119 -4.08522 0
M  V30 1261 H 125.131 -0.395181 -0.542285 0
M  V30 1262 H 127.675 -1.66076 -1.19328 0
M  V30 1263 H 125.83 -1.29832 -3.64996 0
M  V30 1264 H 126.244 -3.49676 -3.90931 0
M  V30 1265 H 127.718 -2.22435 -5.052 0
M  V30 1266 H 128.195 -0.685635 -4.33815 0
M  V30 1267 H 128.801 -2.20393 -3.63741 0
M  V30 1268 N 127.117 1.15442 -1.07289 0
M  V30 1269 C 128.363 1.86489 -0.796846 0
M  V30 1270 C 128.696 1.82078 0.675371 0
M  V30 1271 O 127.971 1.24346 1.4956 0
M  V30 1272 C 128.254 3.35626 -1.30489 0
M  V30 1273 C 128.107 3.48673 -2.84161 0
M  V30 1274 C 129.426 4.30357 -0.920907 0
M  V30 1275 H 126.545 0.677144 -0.290939 0
M  V30 1276 H 129.187 1.35633 -1.33056 0
M  V30 1277 H 127.337 3.79068 -0.850883 0
M  V30 1278 H 129.009 3.14099 -3.37846 0
M  V30 1279 H 127.252 2.90253 -3.22391 0
M  V30 1280 H 127.923 4.53453 -3.14777 0
M  V30 1281 H 130.399 3.94871 -1.3121 0
M  V30 1282 H 129.275 5.33193 -1.30372 0
M  V30 1283 H 129.536 4.4176 0.173226 0
M  V30 1284 N 128.595 0.856903 1.32268 0
M  V30 1285 C 129.835 0.467705 1.98977 0
M  V30 1286 C 130.199 -0.959231 1.66321 0
M  V30 1287 O 131.4 -1.4531 2.26138 0
M  V30 1288 C 129.671 0.70256 3.50427 0
M  V30 1289 S 131.23 0.411269 4.36868 0
M  V30 1290 H 128.048 0.175121 0.689096 0
M  V30 1291 H 130.65 1.1101 1.60925 0
M  V30 1292 H 129.354 1.74012 3.71683 0
M  V30 1293 H 128.885 0.0466707 3.93372 0
M  V30 1294 H 130.9 -0.761799 4.90317 0
M  V30 1295 N 130.073 -1.45103 0.615059 0
M  V30 1296 C 131.023 -2.27679 -0.120966 0
M  V30 1297 C 132.007 -1.3775 -0.831491 0
M  V30 1298 O 133.199 -1.61683 -0.720249 0
M  V30 1299 C 130.328 -3.24767 -1.1127 0
M  V30 1300 C 129.414 -4.22184 -0.402627 0
M  V30 1301 N 129.805 -5.02692 0.559884 0
M  V30 1302 C 128.103 -4.4125 -0.649202 0
M  V30 1303 C 128.804 -5.73421 0.977942 0
M  V30 1304 N 127.78 -5.42657 0.320104 0
M  V30 1305 H 131.582 -2.87325 0.618181 0
M  V30 1306 H 129.096 -1.56345 0.439304 0
M  V30 1307 H 131.093 -3.82666 -1.65446 0
M  V30 1308 H 129.753 -2.66682 -1.85232 0
M  V30 1309 H 130.764 -5.09354 0.936976 0
M  V30 1310 H 127.441 -3.9428 -1.37293 0
M  V30 1311 H 128.831 -6.48107 1.77222 0
M  V30 1312 N 131.551 -0.354651 -1.53558 0
M  V30 1313 C 132.797 0.238797 -2.01389 0
M  V30 1314 C 133.13 1.49309 -1.2418 0
M  V30 1315 O 132.405 1.91638 -0.332457 0
M  V30 1316 C 132.688 0.541771 -3.56001 0
M  V30 1317 C 132.541 -0.725388 -4.43912 0
M  V30 1318 C 133.86 1.34685 -4.18984 0
M  V30 1319 H 130.979 0.0853177 -0.732045 0
M  V30 1320 H 133.621 -0.477384 -1.83905 0
M  V30 1321 H 131.771 1.15189 -3.71031 0
M  V30 1322 H 133.443 -1.36313 -4.407 0
M  V30 1323 H 131.686 -1.34801 -4.12324 0
M  V30 1324 H 132.357 -0.468505 -5.50008 0
M  V30 1325 H 134.833 0.830837 -4.07721 0
M  V30 1326 H 133.709 1.52759 -5.27215 0
M  V30 1327 H 133.97 2.35221 -3.74331 0
M  V30 1328 N 133.029 1.57378 -0.0835403 0
M  V30 1329 C 134.277 1.93547 0.581718 0
M  V30 1330 C 134.598 0.96524 1.69435 0
M  V30 1331 O 133.868 0.0153369 1.95894 0
M  V30 1332 H 132.448 0.714521 0.217874 0
M  V30 1333 H 135.11 1.94366 -0.144158 0
M  V30 1334 H 134.206 2.95665 0.999423 0
M  V30 1335 N 134.507 -0.190092 1.56449 0
M  V30 1336 C 135.454 -1.23557 1.94942 0
M  V30 1337 C 136.424 -1.44972 0.810696 0
M  V30 1338 O 137.609 -1.58023 1.06927 0
M  V30 1339 C 134.749 -2.57416 2.2985 0
M  V30 1340 C 133.862 -2.43537 3.5681 0
M  V30 1341 C 132.997 -3.70134 3.81017 0
M  V30 1342 C 132.036 -3.51109 5.01387 0
M  V30 1343 N 131.173 -4.6973 5.21822 0
M  V30 1344 H 136.013 -0.900304 2.84075 0
M  V30 1345 H 133.55 -0.43318 1.40577 0
M  V30 1346 H 135.508 -3.35409 2.48106 0
M  V30 1347 H 134.138 -2.88975 1.43852 0
M  V30 1348 H 133.19 -1.56816 3.46573 0
M  V30 1349 H 134.502 -2.25415 4.4496 0
M  V30 1350 H 133.656 -4.56566 3.9954 0
M  V30 1351 H 132.395 -3.91215 2.91207 0
M  V30 1352 H 131.4 -2.63063 4.82782 0
M  V30 1353 H 132.625 -3.31468 5.9271 0
M  V30 1354 H 130.571 -4.91065 4.34961 0
M  V30 1355 H 130.488 -4.54452 6.0416 0
M  V30 1356 H 131.756 -5.57499 5.44808 0
M  V30 1357 N 135.985 -1.50799 -0.457987 0
M  V30 1358 C 136.948 -1.7005 -1.53674 0
M  V30 1359 C 137.948 -0.570881 -1.50325 0
M  V30 1360 O 139.138 -0.838126 -1.52712 0
M  V30 1361 C 136.27 -1.73788 -2.93276 0
M  V30 1362 H 137.463 -2.66306 -1.37917 0
M  V30 1363 H 135.016 -1.40477 -0.685271 0
M  V30 1364 H 135.751 -0.792717 -3.14462 0
M  V30 1365 H 135.536 -2.55864 -2.97113 0
M  V30 1366 H 137.026 -1.90591 -3.71571 0
M  V30 1367 N 137.463 0.71206 -1.40597 0
M  V30 1368 C 138.373 1.8562 -1.43466 0
M  V30 1369 C 139.389 1.70902 -0.326902 0
M  V30 1370 O 140.565 1.93105 -0.572043 0
M  V30 1371 C 137.63 3.21451 -1.29884 0
M  V30 1372 C 136.691 3.48398 -2.50833 0
M  V30 1373 C 135.924 4.77749 -2.3789 0
M  V30 1374 O 136.147 5.53089 -1.39459 0
M  V30 1375 O 135.081 5.05111 -3.27333 0
M  V30 1376 H 138.907 1.86155 -2.39958 0
M  V30 1377 H 136.492 0.86295 -1.21957 0
M  V30 1378 H 138.374 4.02579 -1.24531 0
M  V30 1379 H 137.049 3.21636 -0.364997 0
M  V30 1380 H 135.956 2.67265 -2.61763 0
M  V30 1381 H 137.289 3.53014 -3.4299 0
M  V30 1382 N 138.941 1.26152 0.944643 0
M  V30 1383 C 140.218 1.02247 1.66748 0
M  V30 1384 C 140.598 -0.448202 2.06287 0
M  V30 1385 O 139.946 -1.42779 1.78399 0
M  V30 1386 C 140.156 1.96788 2.88228 0
M  V30 1387 C 141.504 2.25201 3.59958 0
M  V30 1388 O 142.528 1.94626 2.98327 0
M  V30 1389 O 141.387 2.77242 4.70956 0
M  V30 1390 H 138.481 0.388517 0.730057 0
M  V30 1391 H 141.027 1.37348 0.99668 0
M  V30 1392 H 139.799 2.96047 2.55875 0
M  V30 1393 H 139.422 1.62145 3.63035 0
M  V30 1394 N 140.419 -1.14872 1.07899 0
M  V30 1395 C 141.835 -1.37776 0.805606 0
M  V30 1396 C 142.035 -1.92743 -0.587555 0
M  V30 1397 O 141.091 -2.13678 -1.34528 0
M  V30 1398 C 142.404 -2.34361 1.88402 0
M  V30 1399 C 143.952 -2.48012 1.90942 0
M  V30 1400 C 144.427 -3.47893 2.97883 0
M  V30 1401 N 145.918 -3.55433 2.97021 0
M  V30 1402 C 146.653 -4.32553 3.76412 0
M  V30 1403 N 146.149 -5.12959 4.65666 0
M  V30 1404 N 147.942 -4.27697 3.64735 0
M  V30 1405 H 140.093 -0.775365 1.97742 0
M  V30 1406 H 142.356 -0.403521 0.857831 0
M  V30 1407 H 142.062 -2.01098 2.88535 0
M  V30 1408 H 141.936 -3.34206 1.74889 0
M  V30 1409 H 144.323 -2.8057 0.914579 0
M  V30 1410 H 144.404 -1.48147 2.08534 0
M  V30 1411 H 144.048 -3.16069 3.97571 0
M  V30 1412 H 143.978 -4.47527 2.77538 0
M  V30 1413 H 146.469 -2.98048 2.32326 0
M  V30 1414 H 146.782 -5.69065 5.22862 0
M  V30 1415 H 145.127 -5.12245 4.69712 0
M  V30 1416 H 148.318 -3.63949 2.94378 0
M  V30 1417 H 148.491 -4.8755 4.26848 0
M  V30 1418 N 141.898 -0.863906 -1.31812 0
M  V30 1419 C 142.808 -0.318461 -2.32428 0
M  V30 1420 C 143.824 0.568496 -1.64451 0
M  V30 1421 O 145 0.46666 -1.95919 0
M  V30 1422 C 142.065 0.476355 -3.43412 0
M  V30 1423 C 141.126 -0.43784 -4.27061 0
M  V30 1424 C 140.359 0.319138 -5.32745 0
M  V30 1425 O 140.582 1.54799 -5.48993 0
M  V30 1426 O 139.516 -0.319861 -6.01049 0
M  V30 1427 H 143.342 -1.15229 -2.80991 0
M  V30 1428 H 140.927 -0.627103 -1.35602 0
M  V30 1429 H 142.809 0.927156 -4.11074 0
M  V30 1430 H 141.484 1.28683 -2.97022 0
M  V30 1431 H 140.391 -0.937013 -3.62175 0
M  V30 1432 H 141.724 -1.21375 -4.77 0
M  V30 1433 N 143.376 1.44774 -0.622745 0
M  V30 1434 C 144.792 1.56986 -0.287652 0
M  V30 1435 C 144.992 1.61167 1.20944 0
M  V30 1436 O 144.048 1.55015 1.99315 0
M  V30 1437 C 145.361 2.84551 -0.972188 0
M  V30 1438 C 146.909 2.9825 -0.949536 0
M  V30 1439 C 147.384 4.28605 -1.61437 0
M  V30 1440 N 148.875 4.35399 -1.58057 0
M  V30 1441 C 149.61 5.34964 -2.064 0
M  V30 1442 N 149.106 6.40981 -2.62897 0
M  V30 1443 N 150.899 5.26419 -1.97078 0
M  V30 1444 H 143.05 1.40304 -1.59463 0
M  V30 1445 H 145.313 0.671794 -0.668878 0
M  V30 1446 H 145.019 2.87417 -2.02693 0
M  V30 1447 H 144.893 3.73807 -0.504771 0
M  V30 1448 H 147.28 2.94941 0.0967067 0
M  V30 1449 H 147.361 2.10364 -1.45536 0
M  V30 1450 H 147.005 4.32672 -2.66002 0
M  V30 1451 H 146.935 5.15334 -1.08344 0
M  V30 1452 H 149.426 3.59397 -1.16801 0
M  V30 1453 H 149.739 7.13225 -2.97539 0
M  V30 1454 H 148.084 6.4169 -2.66943 0
M  V30 1455 H 151.275 4.42504 -1.52669 0
M  V30 1456 H 151.448 6.03861 -2.35066 0
M  V30 1457 N 144.854 0.36279 1.53368 0
M  V30 1458 C 145.784 -0.476976 2.28576 0
M  V30 1459 C 146.765 -1.08631 1.30894 0
M  V30 1460 O 147.95 -1.10409 1.59761 0
M  V30 1461 C 145.08 -1.61828 3.07293 0
M  V30 1462 C 144.034 -1.13633 4.1264 0
M  V30 1463 C 143.36 -2.36766 4.79423 0
M  V30 1464 C 144.66 -0.223061 5.21823 0
M  V30 1465 H 146.354 0.150474 2.99022 0
M  V30 1466 H 143.9 0.0738103 1.43811 0
M  V30 1467 H 145.853 -2.21237 3.58653 0
M  V30 1468 H 144.577 -2.27292 2.34533 0
M  V30 1469 H 143.236 -0.564945 3.62221 0
M  V30 1470 H 142.884 -3.0068 4.03238 0
M  V30 1471 H 142.584 -2.05192 5.50609 0
M  V30 1472 H 144.108 -2.96865 5.33576 0
M  V30 1473 H 145.522 -0.724545 5.68703 0
M  V30 1474 H 143.919 0.001678 6.001 0
M  V30 1475 H 144.989 0.735553 4.79289 0
M  V30 1476 N 146.332 -1.57332 0.0918853 0
M  V30 1477 C 147.578 -1.94524 -0.573425 0
M  V30 1478 C 147.911 -0.973578 -1.68033 0
M  V30 1479 O 147.186 -0.00609226 -1.94499 0
M  V30 1480 C 147.469 -3.41858 -1.13161 0
M  V30 1481 C 147.322 -4.4979 -0.0299747 0
M  V30 1482 C 148.641 -3.90435 -2.03098 0
M  V30 1483 H 145.76 -0.70734 -0.206975 0
M  V30 1484 H 148.402 -1.89309 0.161942 0
M  V30 1485 H 146.552 -3.46433 -1.7583 0
M  V30 1486 H 148.224 -4.57327 0.604112 0
M  V30 1487 H 146.467 -4.291 0.636833 0
M  V30 1488 H 147.138 -5.50069 -0.461287 0
M  V30 1489 H 149.614 -3.87992 -1.50338 0
M  V30 1490 H 148.49 -4.94097 -2.39081 0
M  V30 1491 H 148.751 -3.29541 -2.94712 0
M  V30 1492 N 147.81 0.181792 -1.56548 0
M  V30 1493 C 148.773 1.20894 -1.94724 0
M  V30 1494 C 149.773 1.37738 -0.829747 0
M  V30 1495 O 150.963 1.35323 -1.09697 0
M  V30 1496 C 148.095 2.57593 -2.23291 0
M  V30 1497 H 149.288 0.882275 -2.86629 0
M  V30 1498 H 146.841 0.423838 -1.50444 0
M  V30 1499 H 147.576 2.95291 -1.34067 0
M  V30 1500 H 147.361 2.46735 -3.04736 0
M  V30 1501 H 148.851 3.31637 -2.53785 0
M  V30 1502 N 149.288 1.51039 0.449983 0
M  V30 1503 C 150.516 1.66869 1.2232 0
M  V30 1504 C 150.931 0.360727 1.85322 0
M  V30 1505 O 150.288 -0.659531 1.70166 0
M  V30 1506 C 150.339 2.77524 2.31652 0
M  V30 1507 O 150.06 4.03252 1.7123 0
M  V30 1508 C 151.561 3.04512 3.2216 0
M  V30 1509 H 148.781 0.560326 0.369155 0
M  V30 1510 H 151.325 1.97385 0.534719 0
M  V30 1511 H 149.48 2.49642 2.96239 0
M  V30 1512 H 149.894 4.64609 2.43389 0
M  V30 1513 H 151.368 3.85551 3.95038 0
M  V30 1514 H 151.845 2.16415 3.8218 0
M  V30 1515 H 152.451 3.34005 2.63288 0
M  V30 1516 N 150.766 -0.704594 1.40972 0
M  V30 1517 C 151.729 -1.80035 1.41845 0
M  V30 1518 C 152.729 -1.57774 0.310474 0
M  V30 1519 O 153.919 -1.64613 0.56992 0
M  V30 1520 C 151.051 -3.18284 1.22098 0
M  V30 1521 H 152.244 -1.80658 2.3938 0
M  V30 1522 H 149.797 -0.911329 1.26982 0
M  V30 1523 H 150.532 -3.23306 0.253672 0
M  V30 1524 H 150.317 -3.35843 2.02366 0
M  V30 1525 H 151.807 -3.98289 1.25522 0
M  V30 1526 N 152.244 -1.26651 -0.937939 0
M  V30 1527 C 153.49 -1.12553 -1.687 0
M  V30 1528 C 153.823 0.329782 -1.91379 0
M  V30 1529 O 153.098 1.24202 -1.4968 0
M  V30 1530 C 153.381 -1.89862 -3.05981 0
M  V30 1531 C 153.234 -3.43318 -2.90607 0
M  V30 1532 C 154.553 -1.69499 -4.0615 0
M  V30 1533 H 151.672 -0.410257 -0.612257 0
M  V30 1534 H 154.314 -1.55685 -1.08913 0
M  V30 1535 H 152.464 -1.53204 -3.57017 0
M  V30 1536 H 154.136 -3.89747 -2.46769 0
M  V30 1537 H 152.379 -3.70179 -2.26164 0
M  V30 1538 H 153.05 -3.92642 -3.8799 0
M  V30 1539 H 155.526 -2.01442 -3.64088 0
M  V30 1540 H 154.402 -2.26002 -5.00214 0
M  V30 1541 H 154.663 -0.640365 -4.37438 0
M  V30 1542 N 153.722 1.14298 -1.08507 0
M  V30 1543 C 154.669 2.19414 -0.715965 0
M  V30 1544 C 155.639 1.63399 0.298326 0
M  V30 1545 O 156.824 1.89929 0.182101 0
M  V30 1546 C 153.964 3.44845 -0.132534 0
M  V30 1547 C 153.077 4.15007 -1.19973 0
M  V30 1548 C 152.212 5.28024 -0.580048 0
M  V30 1549 C 151.251 5.9002 -1.62921 0
M  V30 1550 N 150.388 6.94485 -1.03125 0
M  V30 1551 H 155.228 2.50336 -1.61666 0
M  V30 1552 H 152.765 1.2293 -0.807882 0
M  V30 1553 H 154.723 4.16601 0.223454 0
M  V30 1554 H 153.353 3.14403 0.731467 0
M  V30 1555 H 152.405 3.41629 -1.67313 0
M  V30 1556 H 153.717 4.57178 -1.99473 0
M  V30 1557 H 152.871 6.06455 -0.172364 0
M  V30 1558 H 151.61 4.87076 0.246603 0
M  V30 1559 H 150.615 5.10291 -2.04654 0
M  V30 1560 H 151.84 6.33042 -2.45835 0
M  V30 1561 H 149.786 6.55612 -0.225711 0
M  V30 1562 H 149.703 7.35148 -1.76334 0
M  V30 1563 H 150.971 7.7679 -0.649458 0
M  V30 1564 N 155.201 0.870884 1.31352 0
M  V30 1565 C 156.131 0.343096 2.30966 0
M  V30 1566 C 157.112 -0.566507 1.60389 0
M  V30 1567 O 158.297 -0.483336 1.88089 0
M  V30 1568 C 155.427 -0.455487 3.443 0
M  V30 1569 C 154.381 0.361103 4.26474 0
M  V30 1570 C 153.707 -0.563221 5.31725 0
M  V30 1571 C 155.007 1.59566 4.97329 0
M  V30 1572 H 156.701 1.17548 2.75359 0
M  V30 1573 H 154.247 0.566686 1.32381 0
M  V30 1574 H 156.2 -0.83525 4.13039 0
M  V30 1575 H 154.924 -1.32139 2.98675 0
M  V30 1576 H 153.583 0.722825 3.59403 0
M  V30 1577 H 153.231 -1.42643 4.82351 0
M  V30 1578 H 152.931 -0.0207409 5.87596 0
M  V30 1579 H 154.455 -0.939808 6.03324 0
M  V30 1580 H 155.869 1.28728 5.58661 0
M  V30 1581 H 154.266 2.07728 5.63 0
M  V30 1582 H 155.336 2.34798 4.24262 0
M  V30 1583 N 156.679 -1.44442 0.630414 0
M  V30 1584 C 157.629 -2.27794 -0.0968103 0
M  V30 1585 C 158.613 -1.38624 -0.816834 0
M  V30 1586 O 159.805 -1.62438 -0.70306 0
M  V30 1587 C 156.934 -3.25929 -1.07819 0
M  V30 1588 C 156.02 -4.22588 -0.357826 0
M  V30 1589 N 156.411 -5.0207 0.613169 0
M  V30 1590 C 154.709 -4.41914 -0.602365 0
M  V30 1591 C 155.41 -5.72351 1.03871 0
M  V30 1592 N 154.386 -5.42287 0.377642 0
M  V30 1593 H 158.188 -2.86653 0.648621 0
M  V30 1594 H 155.702 -1.55871 0.455862 0
M  V30 1595 H 157.699 -3.84399 -1.61378 0
M  V30 1596 H 156.359 -2.68631 -1.82393 0
M  V30 1597 H 157.37 -5.08331 0.990947 0
M  V30 1598 H 154.047 -3.95714 -1.33103 0
M  V30 1599 H 155.437 -6.4619 1.84086 0
M  V30 1600 N 158.157 -0.370918 -1.53173 0
M  V30 1601 C 159.405 0.216673 -2.00935 0
M  V30 1602 C 159.726 1.48845 -1.25977 0
M  V30 1603 O 158.996 1.92286 -0.374551 0
M  V30 1604 H 157.576 0.0830565 -0.742368 0
M  V30 1605 H 160.238 -0.49838 -1.8842 0
M  V30 1606 H 159.334 0.439893 -3.08984 0
M  V30 1607 N 159.635 1.57281 -0.100228 0
M  V30 1608 C 160.883 1.94153 0.561157 0
M  V30 1609 C 161.204 0.983157 1.68401 0
M  V30 1610 O 160.474 0.0361132 1.95867 0
M  V30 1611 H 159.054 0.716791 0.210283 0
M  V30 1612 H 161.716 1.94202 -0.164765 0
M  V30 1613 H 160.812 2.96709 0.968008 0
M  V30 1614 N 161.113 -0.173488 1.56642 0
M  V30 1615 C 162.362 -0.888758 1.81063 0
M  V30 1616 C 162.675 -1.83506 0.67712 0
M  V30 1617 O 163.881 -2.59254 0.806206 0
M  V30 1618 C 162.337 -1.63091 3.20826 0
M  V30 1619 C 161.945 -0.728357 4.4204 0
M  V30 1620 C 163.689 -2.33454 3.54541 0
M  V30 1621 C 161.596 -1.47062 5.72823 0
M  V30 1622 H 160.526 -0.335618 0.675186 0
M  V30 1623 H 163.177 -0.141712 1.82952 0
M  V30 1624 H 161.559 -2.42263 3.13248 0
M  V30 1625 H 162.733 0.0262449 4.60793 0
M  V30 1626 H 161.048 -0.134492 4.16183 0
M  V30 1627 H 163.645 -2.89578 4.49498 0
M  V30 1628 H 163.988 -3.08687 2.79317 0
M  V30 1629 H 164.521 -1.61227 3.63663 0
M  V30 1630 H 161.26 -0.760658 6.51072 0
M  V30 1631 H 160.78 -2.1986 5.58052 0
M  V30 1632 H 162.459 -2.01868 6.14702 0
M  V30 1633 N 162.591 -1.51276 -0.441967 0
M  V30 1634 C 163.868 -1.54252 -1.20273 0
M  V30 1635 C 164.248 -0.30408 -2.08898 0
M  V30 1636 O 163.596 0.711084 -2.17154 0
M  V30 1637 C 163.806 -2.85406 -2.00859 0
M  V30 1638 C 165.154 -3.37181 -2.58059 0
M  V30 1639 O 166.178 -2.86925 -2.11074 0
M  V30 1640 O 165.037 -4.24858 -3.43741 0
M  V30 1641 H 162.131 -0.619969 -0.547328 0
M  V30 1642 H 164.677 -1.63586 -0.451413 0
M  V30 1643 H 163.449 -3.67003 -1.35736 0
M  V30 1644 H 163.072 -2.79213 -2.83065 0
M  V30 1645 N 164.069 0.697108 -1.41344 0
M  V30 1646 C 165.318 1.45279 -1.39918 0
M  V30 1647 C 165.631 1.95597 -0.0109624 0
M  V30 1648 O 166.837 2.71208 0.125919 0
M  V30 1649 C 165.293 2.62695 -2.46007 0
M  V30 1650 C 164.901 2.19169 -3.90729 0
M  V30 1651 C 166.645 3.40336 -2.53715 0
M  V30 1652 C 164.552 3.33535 -4.88373 0
M  V30 1653 H 163.482 0.545692 -0.520323 0
M  V30 1654 H 166.133 0.756929 -1.67161 0
M  V30 1655 H 164.515 3.34541 -2.11892 0
M  V30 1656 H 165.689 1.54623 -4.34083 0
M  V30 1657 H 164.004 1.54525 -3.86666 0
M  V30 1658 H 166.601 4.2547 -3.2385 0
M  V30 1659 H 166.944 3.85418 -1.5735 0
M  V30 1660 H 167.477 2.75546 -2.86913 0
M  V30 1661 H 164.216 2.93468 -5.86137 0
M  V30 1662 H 163.736 3.96936 -4.49668 0
M  V30 1663 H 165.415 3.99335 -5.09059 0
M  V30 1664 N 165.547 1.27147 0.931209 0
M  V30 1665 C 166.477 1.12081 2.04842 0
M  V30 1666 C 167.458 0.0232364 1.70084 0
M  V30 1667 O 168.643 0.197085 1.93197 0
M  V30 1668 C 165.773 0.76354 3.38803 0
M  V30 1669 C 164.727 1.81396 3.87659 0
M  V30 1670 C 164.053 1.31075 5.18385 0
M  V30 1671 C 165.353 3.21739 4.11438 0
M  V30 1672 H 167.047 2.05537 2.17703 0
M  V30 1673 H 164.593 0.989603 1.04608 0
M  V30 1674 H 166.546 0.644982 4.16435 0
M  V30 1675 H 165.27 -0.206727 3.25945 0
M  V30 1676 H 163.929 1.92136 3.12217 0
M  V30 1677 H 163.577 0.330037 5.01916 0
M  V30 1678 H 163.277 2.013 5.52044 0
M  V30 1679 H 164.801 1.20506 5.98591 0
M  V30 1680 H 166.215 3.14019 4.79651 0
M  V30 1681 H 164.612 3.89644 4.56397 0
M  V30 1682 H 165.682 3.67054 3.16859 0
M  V30 1683 N 167.025 -1.13721 1.09112 0
M  V30 1684 C 168.271 -1.85198 0.826414 0
M  V30 1685 C 168.604 -1.83129 -0.646319 0
M  V30 1686 O 167.879 -1.2671 -1.47563 0
M  V30 1687 C 168.162 -3.33507 1.35812 0
M  V30 1688 C 168.015 -3.44108 2.89672 0
M  V30 1689 C 169.334 -4.28838 0.989256 0
M  V30 1690 H 166.453 -0.67243 0.301675 0
M  V30 1691 H 169.095 -1.33499 1.35197 0
M  V30 1692 H 167.245 -3.77666 0.911082 0
M  V30 1693 H 168.917 -3.08684 3.428 0
M  V30 1694 H 167.16 -2.85087 3.26967 0
M  V30 1695 H 167.831 -4.48388 3.21951 0
M  V30 1696 H 170.307 -3.92734 1.37475 0
M  V30 1697 H 169.183 -5.31051 1.38838 0
M  V30 1698 H 169.444 -4.4198 -0.102924 0
M  V30 1699 N 168.503 -0.877838 -1.30888 0
M  V30 1700 C 169.728 -0.506629 -2.01117 0
M  V30 1701 C 170.153 0.895564 -1.65412 0
M  V30 1702 O 169.511 1.5923 -0.866922 0
M  V30 1703 C 169.559 -0.680223 -3.54126 0
M  V30 1704 O 168.663 0.277033 -4.11468 0
M  V30 1705 H 168.004 -0.200518 -0.633 0
M  V30 1706 H 170.534 -1.18342 -1.66902 0
M  V30 1707 H 170.544 -0.5765 -4.03907 0
M  V30 1708 H 169.219 -1.70261 -3.79452 0
M  V30 1709 H 167.796 0.127606 -3.72682 0
M  V30 1710 N 169.982 1.44106 -0.638065 0
M  V30 1711 C 170.93 2.3248 0.0748149 0
M  V30 1712 C 171.924 1.47746 0.828702 0
M  V30 1713 O 173.13 1.64049 0.740816 0
M  V30 1714 H 169.505 0.750771 0.0429686 0
M  V30 1715 H 171.476 2.90348 -0.688504 0
M  V30 1716 C 170.225 3.31843 1.03805 0
M  V30 1717 H 169.548 3.97059 0.467375 0
M  V30 1718 H 170.988 3.96345 1.50622 0
M  V30 1719 C 169.447 2.61291 2.1267 0
M  V30 1720 O 169.977 2.41702 3.20847 0
M  V30 1721 N 168.183 2.20915 1.88798 0
M  V30 1722 H 167.73 2.37047 1.00829 0
M  V30 1723 H 167.688 1.74038 2.61836 0
M  V30 1724 N 171.46 0.379036 1.52974 0
M  V30 1725 C 172.423 -0.448865 2.24762 0
M  V30 1726 C 173.423 -0.998689 1.26027 0
M  V30 1727 O 174.613 -0.882313 1.50203 0
M  V30 1728 C 171.745 -1.62872 2.99476 0
M  V30 1729 H 172.938 0.179491 2.99362 0
M  V30 1730 H 170.491 0.13096 1.5575 0
M  V30 1731 H 171.226 -2.29479 2.29151 0
M  V30 1732 H 171.011 -1.24128 3.71934 0
M  V30 1733 H 172.501 -2.2151 3.5401 0
M  V30 1734 N 172.938 -1.57226 0.108567 0
M  V30 1735 C 173.901 -2.13602 -0.831082 0
M  V30 1736 C 174.901 -1.06841 -1.20173 0
M  V30 1737 O 176.091 -1.32666 -1.12895 0
M  V30 1738 C 173.223 -2.66769 -2.12243 0
M  V30 1739 H 174.416 -2.97951 -0.341317 0
M  V30 1740 H 171.969 -1.55667 -0.14057 0
M  V30 1741 H 172.704 -1.85977 -2.65675 0
M  V30 1742 H 172.489 -3.44839 -1.86625 0
M  V30 1743 H 173.979 -3.10332 -2.79435 0
M  V30 1744 N 174.416 0.165178 -1.56732 0
M  V30 1745 C 175.662 0.882112 -1.82611 0
M  V30 1746 C 175.995 1.81628 -0.687378 0
M  V30 1747 O 175.27 1.92009 0.310267 0
M  V30 1748 C 175.553 1.67245 -3.18906 0
M  V30 1749 C 175.406 0.760987 -4.43316 0
M  V30 1750 C 176.725 2.63884 -3.52212 0
M  V30 1751 H 173.844 0.319242 -0.664269 0
M  V30 1752 H 176.486 0.148052 -1.89422 0
M  V30 1753 H 174.636 2.29824 -3.1323 0
M  V30 1754 H 176.308 0.147596 -4.61064 0
M  V30 1755 H 174.551 0.0694102 -4.33744 0
M  V30 1756 H 175.222 1.34962 -5.35247 0
M  V30 1757 H 177.698 2.11429 -3.58381 0
M  V30 1758 H 176.574 3.16245 -4.48643 0
M  V30 1759 H 176.835 3.44377 -2.77231 0
M  V30 1760 N 175.894 1.51508 0.433938 0
M  V30 1761 C 176.842 1.73646 1.54757 0
M  V30 1762 C 177.836 0.602854 1.5831 0
M  V30 1763 O 179.042 0.784318 1.62014 0
M  V30 1764 H 175.417 0.548718 0.51421 0
M  V30 1765 H 177.388 2.66991 1.33261 0
M  V30 1766 C 176.137 1.88172 2.92381 0
M  V30 1767 H 175.46 2.74808 2.90381 0
M  V30 1768 H 176.9 2.07672 3.6966 0
M  V30 1769 C 175.359 0.64239 3.30719 0
M  V30 1770 O 175.889 -0.201362 4.01195 0
M  V30 1771 N 174.095 0.485489 2.86516 0
M  V30 1772 H 173.642 1.17318 2.29334 0
M  V30 1773 H 173.6 -0.342482 3.12529 0
M  V30 1774 N 177.372 -0.689602 1.41712 0
M  V30 1775 C 178.783 -1.26973 1.36875 0
M  V30 1776 C 179.134 -1.96124 0.054748 0
M  V30 1777 O 178.259 -1.99141 -0.84687 0
M  V30 1778 C 178.854 -2.30912 2.47922 0
M  V30 1779 C 177.413 -2.84486 2.46464 0
M  V30 1780 C 176.56 -1.58603 2.27465 0
M  V30 1781 H 179.511 -0.48396 1.51141 0
M  V30 1782 H 179.532 -3.12331 2.17323 0
M  V30 1783 H 179.044 -1.80554 3.43543 0
M  V30 1784 H 177.145 -3.39005 1.54617 0
M  V30 1785 H 177.258 -3.34511 3.42986 0
M  V30 1786 H 175.622 -1.84632 1.75451 0
M  V30 1787 H 176.405 -1.10233 3.25121 0
M  V30 1788 N 178.85 -1.27639 -0.924453 0
M  V30 1789 C 180.097 -1.14167 -1.67249 0
M  V30 1790 C 180.425 0.311863 -1.91984 0
M  V30 1791 O 179.68 1.24425 -1.51053 0
M  V30 1792 C 179.979 -1.87407 -3.04325 0
M  V30 1793 C 179.645 -3.37249 -2.99289 0
M  V30 1794 C 178.307 -3.7812 -2.97622 0
M  V30 1795 C 180.659 -4.32845 -2.90336 0
M  V30 1796 C 177.987 -5.12944 -2.8479 0
M  V30 1797 C 180.339 -5.6773 -2.79045 0
M  V30 1798 C 179.003 -6.07889 -2.7573 0
M  V30 1799 H 178.273 -0.417766 -0.612007 0
M  V30 1800 H 180.92 -1.58286 -1.07786 0
M  V30 1801 H 179.225 -1.35805 -3.67511 0
M  V30 1802 H 180.922 -1.74408 -3.61086 0
M  V30 1803 H 177.512 -3.04748 -3.01374 0
M  V30 1804 H 181.696 -4.02239 -2.90719 0
M  V30 1805 H 176.952 -5.432 -2.80612 0
M  V30 1806 H 181.126 -6.41472 -2.71083 0
M  V30 1807 H 178.753 -7.12314 -2.65544 0
M  V30 1808 N 180.328 1.1314 -1.09713 0
M  V30 1809 C 181.575 1.84484 -0.834987 0
M  V30 1810 C 181.903 1.83689 0.639418 0
M  V30 1811 O 181.158 1.2724 1.4869 0
M  V30 1812 C 181.457 3.32167 -1.3191 0
M  V30 1813 C 181.123 3.53139 -2.80363 0
M  V30 1814 C 179.785 3.58571 -3.20905 0
M  V30 1815 C 182.137 3.60866 -3.76065 0
M  V30 1816 C 179.465 3.69267 -4.55916 0
M  V30 1817 C 181.817 3.73089 -5.10869 0
M  V30 1818 C 180.481 3.76775 -5.50996 0
M  V30 1819 H 179.751 0.675073 -0.305544 0
M  V30 1820 H 182.398 1.33554 -1.37243 0
M  V30 1821 H 180.703 3.85469 -0.701517 0
M  V30 1822 H 182.4 3.85821 -1.09284 0
M  V30 1823 H 178.99 3.49569 -2.47991 0
M  V30 1824 H 183.174 3.55946 -3.45855 0
M  V30 1825 H 178.43 3.70388 -4.86438 0
M  V30 1826 H 182.604 3.78011 -5.84877 0
M  V30 1827 H 180.231 3.84815 -6.55608 0
M  V30 1828 N 181.806 0.884767 1.30421 0
M  V30 1829 C 183.054 0.502112 1.95763 0
M  V30 1830 C 183.375 -0.951815 1.70192 0
M  V30 1831 O 182.645 -1.6692 1.0254 0
M  V30 1832 H 181.225 0.182694 0.724315 0
M  V30 1833 H 183.887 1.1278 1.58955 0
M  V30 1834 H 182.983 0.672188 3.04775 0
M  V30 1835 N 183.284 -1.43765 0.645699 0
M  V30 1836 C 184.509 -2.06767 0.161883 0
M  V30 1837 C 184.934 -1.48034 -1.16049 0
M  V30 1838 O 184.292 -0.587369 -1.71522 0
M  V30 1839 C 184.34 -3.60519 0.0762003 0
M  V30 1840 O 183.444 -4.00982 -0.963721 0
M  V30 1841 H 182.785 -0.657675 0.091429 0
M  V30 1842 H 185.315 -1.84397 0.886499 0
M  V30 1843 H 185.325 -4.07853 -0.109604 0
M  V30 1844 H 184 -4.02646 1.04157 0
M  V30 1845 H 182.577 -3.65253 -0.751312 0
M  V30 1846 N 184.763 -0.387143 -1.52771 0
M  V30 1847 C 186.012 0.19697 -2.00736 0
M  V30 1848 C 186.325 1.48082 -1.27793 0
M  V30 1849 O 187.531 2.14485 -1.66458 0
M  V30 1850 C 185.987 0.401568 -3.57653 0
M  V30 1851 C 185.595 -0.868907 -4.39493 0
M  V30 1852 C 187.339 0.942164 -4.13912 0
M  V30 1853 C 185.246 -0.632705 -5.88006 0
M  V30 1854 H 184.176 0.0773827 -0.750019 0
M  V30 1855 H 186.827 -0.50921 -1.76293 0
M  V30 1856 H 185.209 1.16954 -3.78335 0
M  V30 1857 H 186.383 -1.64133 -4.30577 0
M  V30 1858 H 184.698 -1.33429 -3.94443 0
M  V30 1859 H 187.295 1.13455 -5.22525 0
M  V30 1860 H 187.638 1.9106 -3.69867 0
M  V30 1861 H 188.171 0.233814 -3.97112 0
M  V30 1862 H 184.91 -1.57208 -6.36369 0
M  V30 1863 H 184.43 0.100825 -5.99715 0
M  V30 1864 H 186.109 -0.26642 -6.46451 0
M  V30 1865 N 186.241 1.57166 -0.116904 0
M  V30 1866 C 187.174 2.10912 0.871291 0
M  V30 1867 C 188.152 1.025 1.26224 0
M  V30 1868 O 189.336 1.3014 1.36366 0
M  V30 1869 C 186.463 2.6041 2.16574 0
M  V30 1870 C 185.509 3.80687 1.92302 0
M  V30 1871 S 186.342 5.23199 1.14119 0
M  V30 1872 C 187.498 5.76064 2.44748 0
M  V30 1873 H 187.731 2.94401 0.414138 0
M  V30 1874 H 185.264 1.54096 0.096829 0
M  V30 1875 H 187.222 2.89583 2.9095 0
M  V30 1876 H 185.883 1.77106 2.59408 0
M  V30 1877 H 185.076 4.13462 2.8821 0
M  V30 1878 H 184.678 3.5212 1.26047 0
M  V30 1879 H 186.97 5.8566 3.406 0
M  V30 1880 H 187.913 6.74184 2.16521 0
M  V30 1881 H 188.321 5.04117 2.54019 0
M  V30 1882 N 187.719 -0.156864 1.56817 0
M  V30 1883 C 188.996 -0.899244 1.73704 0
M  V30 1884 C 189.376 -1.99771 0.682254 0
M  V30 1885 O 188.724 -2.26515 -0.300522 0
M  V30 1886 C 188.934 -1.45075 3.17418 0
M  V30 1887 C 190.282 -1.91802 3.7881 0
M  V30 1888 O 191.306 -1.54838 3.20786 0
M  V30 1889 O 190.165 -2.5994 4.80722 0
M  V30 1890 H 187.259 -0.424267 0.709878 0
M  V30 1891 H 189.805 -0.143561 1.69092 0
M  V30 1892 H 188.577 -0.660846 3.85679 0
M  V30 1893 H 188.2 -2.27021 3.26416 0
M  V30 1894 N 189.197 -1.51736 -0.425897 0
M  V30 1895 C 190.443 -1.65214 -1.1761 0
M  V30 1896 C 190.776 -0.372778 -1.90589 0
M  V30 1897 O 190.051 0.628139 -1.84078 0
M  V30 1898 C 190.334 -2.86312 -2.18398 0
M  V30 1899 C 190.187 -4.24254 -1.49426 0
M  V30 1900 C 191.506 -3.02925 -3.19256 0
M  V30 1901 H 188.625 -0.601263 -0.426206 0
M  V30 1902 H 191.267 -1.8425 -0.463882 0
M  V30 1903 H 189.417 -2.70213 -2.79137 0
M  V30 1904 H 191.089 -4.52046 -0.919362 0
M  V30 1905 H 189.332 -4.26426 -0.796432 0
M  V30 1906 H 190.003 -5.05001 -2.22885 0
M  V30 1907 H 192.479 -3.1781 -2.68581 0
M  V30 1908 H 191.355 -3.89199 -3.8706 0
M  V30 1909 H 191.616 -2.15497 -3.86023 0
M  V30 1910 N 190.675 0.682077 -1.42076 0
M  V30 1911 C 191.903 1.47057 -1.4554 0
M  V30 1912 C 192.318 1.8869 -0.0645779 0
M  V30 1913 O 191.675 1.57666 0.919115 0
M  V30 1914 C 191.726 2.72442 -2.37609 0
M  V30 1915 O 191.447 2.32559 -3.71279 0
M  V30 1916 C 192.948 3.66069 -2.50017 0
M  V30 1917 H 190.168 0.452737 -0.495248 0
M  V30 1918 H 192.712 0.838695 -1.8651 0
M  V30 1919 H 190.867 3.31835 -1.9991 0
M  V30 1920 H 191.281 3.13475 -4.20516 0
M  V30 1921 H 192.755 4.50792 -3.18576 0
M  V30 1922 H 193.232 4.11476 -1.53572 0
M  V30 1923 H 193.838 3.12572 -2.88407 0
M  V30 1924 N 192.153 1.28127 0.917671 0
M  V30 1925 C 193.063 1.13556 2.05286 0
M  V30 1926 C 194.079 0.0630914 1.73886 0
M  V30 1927 O 195.255 0.271598 1.9956 0
M  V30 1928 C 192.32 0.794676 3.3747 0
M  V30 1929 C 191.381 1.94909 3.82504 0
M  V30 1930 C 190.614 1.62437 5.0838 0
M  V30 1931 O 190.837 0.536905 5.67867 0
M  V30 1932 O 189.771 2.46677 5.4903 0
M  V30 1933 H 193.597 2.08844 2.20495 0
M  V30 1934 H 191.182 1.07409 1.03845 0
M  V30 1935 H 193.064 0.618344 4.16839 0
M  V30 1936 H 191.739 -0.128581 3.23445 0
M  V30 1937 H 190.646 2.18055 3.03978 0
M  V30 1938 H 191.979 2.85291 4.01086 0
M  V30 1939 N 193.631 -1.12557 1.10312 0
M  V30 1940 C 194.541 -2.21841 0.763142 0
M  V30 1941 C 195.557 -1.72354 -0.238801 0
M  V30 1942 O 196.733 -2.01249 -0.0778746 0
M  V30 1943 C 193.798 -3.46131 0.198632 0
M  V30 1944 C 192.859 -4.10464 1.25769 0
M  V30 1945 C 192.092 -5.28821 0.72002 0
M  V30 1946 O 192.315 -5.6859 -0.453993 0
M  V30 1947 O 191.249 -5.83437 1.47935 0
M  V30 1948 H 195.075 -2.53312 1.67532 0
M  V30 1949 H 192.66 -1.20867 0.878157 0
M  V30 1950 H 194.542 -4.2125 -0.112401 0
M  V30 1951 H 193.217 -3.16338 -0.686419 0
M  V30 1952 H 192.124 -3.3713 1.62156 0
M  V30 1953 H 193.457 -4.44408 2.11571 0
M  V30 1954 N 195.109 -0.891671 -1.2995 0
M  V30 1955 C 196.355 -0.514261 -1.96171 0
M  V30 1956 C 196.688 0.935506 -1.70182 0
M  V30 1957 O 195.963 1.66204 -1.01028 0
M  V30 1958 C 196.246 -0.797719 -3.51153 0
M  V30 1959 C 196.099 -2.2986 -3.86632 0
M  V30 1960 C 197.418 -0.278749 -4.39216 0
M  V30 1961 H 194.537 -0.188314 -0.712535 0
M  V30 1962 H 197.179 -1.11689 -1.53706 0
M  V30 1963 H 195.329 -0.284826 -3.87455 0
M  V30 1964 H 197.001 -2.88042 -3.60319 0
M  V30 1965 H 195.244 -2.76257 -3.34462 0
M  V30 1966 H 195.915 -2.44753 -4.94773 0
M  V30 1967 H 198.391 -0.717825 -4.09862 0
M  V30 1968 H 197.267 -0.506353 -5.46559 0
M  V30 1969 H 197.528 0.820266 -4.34424 0
M  V30 1970 N 196.587 1.43421 -0.653314 0
M  V30 1971 C 197.833 2.02641 -0.175593 0
M  V30 1972 C 198.188 1.5062 1.19713 0
M  V30 1973 O 197.481 0.689697 1.78756 0
M  V30 1974 C 197.675 3.57176 -0.126623 0
M  V30 1975 C 197.504 4.24191 -1.49306 0
M  V30 1976 C 196.274 4.60257 -2.08547 0
M  V30 1977 C 198.472 4.53193 -2.43148 0
M  V30 1978 N 196.454 5.12345 -3.38194 0
M  V30 1979 C 197.825 5.06601 -3.57429 0
M  V30 1980 C 199.88 4.35161 -2.41949 0
M  V30 1981 C 198.583 5.43875 -4.70736 0
M  V30 1982 C 200.609 4.73498 -3.54336 0
M  V30 1983 C 199.971 5.27039 -4.67343 0
M  V30 1984 H 196.07 0.77441 -0.108686 0
M  V30 1985 H 198.654 1.74596 -0.861638 0
M  V30 1986 H 196.825 3.84784 0.528766 0
M  V30 1987 H 198.557 4.03078 0.36198 0
M  V30 1988 H 195.312 4.45302 -1.61255 0
M  V30 1989 H 195.736 5.42842 -4.04538 0
M  V30 1990 H 200.378 3.9304 -1.55818 0
M  V30 1991 H 198.096 5.8494 -5.57558 0
M  V30 1992 H 201.682 4.61241 -3.5461 0
M  V30 1993 H 200.562 5.56153 -5.52868 0
M  V30 1994 N 198.065 0.39524 1.52563 0
M  V30 1995 C 199.342 -0.242908 1.94086 0
M  V30 1996 C 199.722 -1.63841 1.33114 0
M  V30 1997 O 199.07 -2.22928 0.501529 0
M  V30 1998 C 199.28 -0.26327 3.48006 0
M  V30 1999 C 200.628 -0.489354 4.21771 0
M  V30 2000 O 201.652 -0.343226 3.54543 0
M  V30 2001 O 200.511 -0.776169 5.4096 0
M  V30 2002 H 197.605 -0.152536 0.812811 0
M  V30 2003 H 200.151 0.450178 1.6362 0
M  V30 2004 H 198.923 0.713985 3.84731 0
M  V30 2005 H 198.546 -1.00103 3.84792 0
M  V30 2006 N 199.544 -1.57102 0.125237 0
M  V30 2007 C 200.491 -2.15641 -0.822655 0
M  V30 2008 C 201.461 -1.08313 -1.25927 0
M  V30 2009 O 202.646 -1.36251 -1.33567 0
M  V30 2010 C 199.786 -2.76504 -2.06494 0
M  V30 2011 C 198.899 -3.98158 -1.67612 0
M  V30 2012 C 198.034 -4.47088 -2.86854 0
M  V30 2013 C 197.073 -5.6126 -2.44242 0
M  V30 2014 N 196.21 -6.04905 -3.56419 0
M  V30 2015 H 201.05 -2.96313 -0.316625 0
M  V30 2016 H 198.587 -1.46388 -0.144588 0
M  V30 2017 H 200.545 -3.09925 -2.79289 0
M  V30 2018 H 199.175 -1.98512 -2.54545 0
M  V30 2019 H 198.227 -3.70858 -0.846661 0
M  V30 2020 H 199.539 -4.80934 -1.32301 0
M  V30 2021 H 198.693 -4.82451 -3.67867 0
M  V30 2022 H 197.432 -3.63275 -3.25396 0
M  V30 2023 H 196.437 -5.25495 -1.61663 0
M  V30 2024 H 197.662 -6.46843 -2.0681 0
M  V30 2025 H 195.608 -5.24032 -3.94623 0
M  V30 2026 H 195.525 -6.82552 -3.25051 0
M  V30 2027 H 196.793 -6.44907 -4.37853 0
M  V30 2028 N 201.022 0.148545 -1.56898 0
M  V30 2029 C 202.25 0.876389 -1.87422 0
M  V30 2030 C 202.665 1.74809 -0.713256 0
M  V30 2031 O 202.022 1.79725 0.317025 0
M  V30 2032 C 202.073 1.73438 -3.17178 0
M  V30 2033 O 201.794 0.897809 -4.28802 0
M  V30 2034 C 203.295 2.56993 -3.61205 0
M  V30 2035 H 200.515 0.253489 -0.621277 0
M  V30 2036 H 203.059 0.141798 -2.04008 0
M  V30 2037 H 201.214 2.42205 -3.0235 0
M  V30 2038 H 201.628 1.48672 -5.02988 0
M  V30 2039 H 203.102 3.12773 -4.54838 0
M  V30 2040 H 203.579 3.32958 -2.86419 0
M  V30 2041 H 204.185 1.9352 -3.78722 0
M  V30 2042 N 202.5 1.5196 0.417844 0
M  V30 2043 C 203.43 1.77634 1.51554 0
M  V30 2044 C 204.411 0.626918 1.58126 0
M  V30 2045 O 205.596 0.871632 1.7354 0
M  V30 2046 C 202.726 1.91911 2.8946 0
M  V30 2047 C 201.68 3.07463 2.97743 0
M  V30 2048 C 201.006 3.06951 4.37819 0
M  V30 2049 C 202.306 4.47082 2.70027 0
M  V30 2050 H 204 2.6955 1.3032 0
M  V30 2051 H 201.546 1.29706 0.625492 0
M  V30 2052 H 203.499 2.08455 3.6623 0
M  V30 2053 H 202.223 0.966598 3.11969 0
M  V30 2054 H 200.882 2.90656 2.23416 0
M  V30 2055 H 200.53 2.09438 4.57323 0
M  V30 2056 H 200.23 3.84556 4.44286 0
M  V30 2057 H 201.754 3.25613 5.16535 0
M  V30 2058 H 203.168 4.6414 3.36522 0
M  V30 2059 H 201.565 5.2654 2.87881 0
M  V30 2060 H 202.635 4.55777 1.65514 0
M  V30 2061 N 203.978 -0.674533 1.42435 0
M  V30 2062 C 205.255 -1.4305 1.33402 0
M  V30 2063 C 205.635 -2.11081 -0.0284674 0
M  V30 2064 O 204.983 -2.03257 -1.04397 0
M  V30 2065 C 205.193 -2.43272 2.50239 0
M  V30 2066 C 206.541 -3.07907 2.92367 0
M  V30 2067 O 207.565 -2.53599 2.50132 0
M  V30 2068 O 206.424 -4.0632 3.65467 0
M  V30 2069 H 203.518 -0.638076 0.526106 0
M  V30 2070 H 206.064 -0.703235 1.54443 0
M  V30 2071 H 204.836 -1.91803 3.41068 0
M  V30 2072 H 204.459 -3.23479 2.31186 0
M  V30 2073 N 205.456 -1.28612 -0.910864 0
M  V30 2074 C 206.705 -1.15311 -1.65488 0
M  V30 2075 C 207.018 0.296999 -1.93332 0
M  V30 2076 O 208.224 0.551168 -2.65847 0
M  V30 2077 C 206.68 -2.01599 -2.98137 0
M  V30 2078 C 206.288 -3.51367 -2.7793 0
M  V30 2079 C 208.032 -1.96993 -3.76024 0
M  V30 2080 C 205.939 -4.29797 -4.06237 0
M  V30 2081 H 204.869 -0.42796 -0.620779 0
M  V30 2082 H 207.52 -1.53166 -1.01057 0
M  V30 2083 H 205.902 -1.56603 -3.63719 0
M  V30 2084 H 207.076 -4.0434 -2.21011 0
M  V30 2085 H 205.391 -3.57529 -2.13452 0
M  V30 2086 H 207.988 -2.52856 -4.71135 0
M  V30 2087 H 208.331 -0.94733 -4.05378 0
M  V30 2088 H 208.864 -2.39973 -3.17266 0
M  V30 2089 H 205.603 -5.32648 -3.82055 0
M  V30 2090 H 205.123 -3.81596 -4.62757 0
M  V30 2091 H 206.802 -4.39869 -4.74473 0
M  V30 2092 N 206.934 1.1197 -1.10907 0
M  V30 2093 C 207.882 2.19927 -0.757303 0
M  V30 2094 C 208.876 1.67564 0.248747 0
M  V30 2095 O 210.082 1.79672 0.108605 0
M  V30 2096 H 206.457 0.716925 -0.226987 0
M  V30 2097 H 208.428 2.46847 -1.67658 0
M  V30 2098 C 207.177 3.47061 -0.210671 0
M  V30 2099 H 206.5 3.87703 -0.976049 0
M  V30 2100 H 207.94 4.24 -0.0026584 0
M  V30 2101 C 206.399 3.19864 1.05777 0
M  V30 2102 O 206.929 3.40049 2.13845 0
M  V30 2103 N 205.135 2.73636 0.978349 0
M  V30 2104 H 204.682 2.5741 0.0988246 0
M  V30 2105 H 204.64 2.55815 1.82773 0
M  V30 2106 N 208.412 0.89855 1.29475 0
M  V30 2107 C 209.658 0.524658 1.95896 0
M  V30 2108 C 209.991 -0.926468 1.70676 0
M  V30 2109 O 209.266 -1.65665 1.01908 0
M  V30 2110 C 209.549 0.81633 3.50725 0
M  V30 2111 C 209.402 2.31907 3.85408 0
M  V30 2112 C 210.721 0.302038 4.39062 0
M  V30 2113 H 207.84 0.19209 0.711527 0
M  V30 2114 H 210.482 1.12502 1.53112 0
M  V30 2115 H 208.632 0.305369 3.87298 0
M  V30 2116 H 210.304 2.89949 3.58786 0
M  V30 2117 H 208.547 2.78027 3.32992 0
M  V30 2118 H 209.218 2.47373 4.93468 0
M  V30 2119 H 211.694 0.739551 4.09475 0
M  V30 2120 H 210.57 0.535331 5.46283 0
M  V30 2121 H 210.831 -0.797216 4.34853 0
M  V30 2122 N 209.89 -1.43072 0.660911 0
M  V30 2123 C 210.837 -2.30785 -0.0259884 0
M  V30 2124 C 211.807 -1.45184 -0.806888 0
M  V30 2125 O 212.992 -1.74041 -0.781943 0
M  V30 2126 C 210.132 -3.30861 -0.981067 0
M  V30 2127 C 209.245 -4.31558 -0.195458 0
M  V30 2128 C 208.38 -5.18712 -1.14503 0
M  V30 2129 C 207.419 -6.11097 -0.350299 0
M  V30 2130 N 206.556 -6.90849 -1.25186 0
M  V30 2131 H 211.396 -2.88975 0.727846 0
M  V30 2132 H 208.933 -1.42353 0.370682 0
M  V30 2133 H 210.891 -3.87399 -1.54849 0
M  V30 2134 H 209.521 -2.74304 -1.70169 0
M  V30 2135 H 208.573 -3.77252 0.488374 0
M  V30 2136 H 209.885 -4.9701 0.422176 0
M  V30 2137 H 209.039 -5.79914 -1.78284 0
M  V30 2138 H 207.778 -4.53404 -1.79656 0
M  V30 2139 H 206.783 -5.48976 0.300808 0
M  V30 2140 H 208.008 -6.7845 0.296941 0
M  V30 2141 H 205.954 -6.28182 -1.89005 0
M  V30 2142 H 205.871 -7.52854 -0.688971 0
M  V30 2143 H 207.139 -7.5655 -1.87757 0
M  V30 2144 N 211.368 -0.403325 -1.52352 0
M  V30 2145 C 212.331 0.413051 -2.25447 0
M  V30 2146 C 213.331 0.978513 -1.276 0
M  V30 2147 O 214.521 0.858305 -1.51587 0
M  V30 2148 C 211.653 1.58087 -3.02029 0
M  V30 2149 H 212.846 -0.227094 -2.99039 0
M  V30 2150 H 210.399 -0.155722 -1.55522 0
M  V30 2151 H 211.134 2.25804 -2.32772 0
M  V30 2152 H 210.919 1.18195 -3.73861 0
M  V30 2153 H 212.409 2.1585 -3.57489 0
M  V30 2154 N 212.846 1.57033 -0.133567 0
M  V30 2155 C 214.257 1.82593 0.389464 0
M  V30 2156 C 214.608 1.05156 1.6564 0
M  V30 2157 O 213.733 0.292644 2.14412 0
M  V30 2158 C 214.328 3.31204 0.713377 0
M  V30 2159 C 212.887 3.57393 1.18098 0
M  V30 2160 C 212.034 2.76598 0.197126 0
M  V30 2161 H 214.985 1.54598 -0.358481 0
M  V30 2162 H 215.006 3.46627 1.56939 0
M  V30 2163 H 214.518 3.87537 -0.2089 0
M  V30 2164 H 212.619 3.06433 2.11966 0
M  V30 2165 H 212.732 4.65915 1.11624 0
M  V30 2166 H 211.096 2.45257 0.687088 0
M  V30 2167 H 211.879 3.35697 -0.718504 0
M  V30 2168 N 214.325 -0.140222 1.56975 0
M  V30 2169 C 215.288 -1.15689 1.97861 0
M  V30 2170 C 216.288 -1.3549 0.865974 0
M  V30 2171 O 217.478 -1.32367 1.13246 0
M  V30 2172 C 214.61 -2.51582 2.30042 0
M  V30 2173 H 215.803 -0.805971 2.88867 0
M  V30 2174 H 213.356 -0.383801 1.51515 0
M  V30 2175 H 214.091 -2.91632 1.41849 0
M  V30 2176 H 213.876 -2.38569 3.11171 0
M  V30 2177 H 215.366 -3.24792 2.62488 0
M  V30 2178 N 215.803 -1.52179 -0.40978 0
M  V30 2179 C 216.733 -1.78435 -1.5061 0
M  V30 2180 C 217.714 -0.635295 -1.57791 0
M  V30 2181 O 218.899 -0.880823 -1.73076 0
M  V30 2182 C 216.029 -1.93444 -2.88439 0
M  V30 2183 C 214.983 -3.09038 -2.96108 0
M  V30 2184 C 214.309 -3.09268 -4.36185 0
M  V30 2185 C 215.609 -4.48508 -2.67652 0
M  V30 2186 H 217.303 -2.70237 -1.28889 0
M  V30 2187 H 214.849 -1.30036 -0.618605 0
M  V30 2188 H 216.802 -2.10394 -3.65119 0
M  V30 2189 H 215.526 -0.983129 -3.11452 0
M  V30 2190 H 214.185 -2.91837 -2.21872 0
M  V30 2191 H 213.833 -2.11861 -4.56206 0
M  V30 2192 H 213.533 -3.86907 -4.42241 0
M  V30 2193 H 215.057 -3.28348 -5.14801 0
M  V30 2194 H 216.471 -4.65918 -3.34056 0
M  V30 2195 H 214.868 -5.28059 -2.85085 0
M  V30 2196 H 215.938 -4.56649 -1.63095 0
M  V30 2197 N 217.281 0.66697 -1.42791 0
M  V30 2198 C 218.214 1.79177 -1.41318 0
M  V30 2199 C 219.192 1.60234 -0.276401 0
M  V30 2200 O 220.376 1.82602 -0.46785 0
M  V30 2201 C 217.503 3.16289 -1.21157 0
M  V30 2202 C 216.549 3.53964 -2.37932 0
M  V30 2203 S 217.382 3.55501 -4.00474 0
M  V30 2204 C 218.538 4.95292 -3.8267 0
M  V30 2205 H 218.771 1.80153 -2.365 0
M  V30 2206 H 216.304 0.838357 -1.29657 0
M  V30 2207 H 218.262 3.95428 -1.10212 0
M  V30 2208 H 216.923 3.1289 -0.275481 0
M  V30 2209 H 216.116 4.53646 -2.19594 0
M  V30 2210 H 215.718 2.82204 -2.45432 0
M  V30 2211 H 218.01 5.83584 -3.44145 0
M  V30 2212 H 218.953 5.18679 -4.82055 0
M  V30 2213 H 219.361 4.68179 -3.15386 0
M  V30 2214 N 218.759 1.29093 0.90403 0
M  V30 2215 C 219.987 1.19689 1.68766 0
M  V30 2216 C 220.402 -0.243113 1.87228 0
M  V30 2217 O 219.759 -1.16326 1.40621 0
M  V30 2218 C 219.81 1.90144 3.07453 0
M  V30 2219 O 219.531 3.2852 2.89838 0
M  V30 2220 C 221.032 1.87162 4.01852 0
M  V30 2221 H 218.252 0.415035 0.527244 0
M  V30 2222 H 220.796 1.7039 1.13082 0
M  V30 2223 H 218.951 1.43289 3.59926 0
M  V30 2224 H 219.365 3.63944 3.77684 0
M  V30 2225 H 220.839 2.41032 4.96596 0
M  V30 2226 H 221.316 0.84617 4.30972 0
M  V30 2227 H 221.922 2.33741 3.5531 0
M  V30 2228 N 220.237 -1.11381 1.11499 0
M  V30 2229 C 221.184 -2.17439 0.773887 0
M  V30 2230 C 222.154 -1.64132 -0.254899 0
M  V30 2231 O 223.339 -1.90345 -0.13168 0
M  V30 2232 C 220.479 -3.44373 0.223917 0
M  V30 2233 C 219.592 -4.1168 1.30934 0
M  V30 2234 C 218.727 -5.263 0.71984 0
M  V30 2235 C 217.766 -5.85493 1.78507 0
M  V30 2236 N 216.903 -6.91507 1.21502 0
M  V30 2237 H 221.743 -2.45962 1.68246 0
M  V30 2238 H 219.28 -1.20744 0.840191 0
M  V30 2239 H 221.238 -4.17047 -0.112921 0
M  V30 2240 H 219.868 -3.16232 -0.647851 0
M  V30 2241 H 218.92 -3.37073 1.76312 0
M  V30 2242 H 220.232 -4.51729 2.11524 0
M  V30 2243 H 219.386 -6.05785 0.333094 0
M  V30 2244 H 218.125 -4.87559 -0.117377 0
M  V30 2245 H 217.13 -5.04686 2.18111 0
M  V30 2246 H 218.355 -6.26301 2.62533 0
M  V30 2247 H 216.301 -6.54783 0.399455 0
M  V30 2248 H 216.218 -7.30214 1.95763 0
M  V30 2249 H 217.486 -7.74795 0.855181 0
M  V30 2250 N 221.715 -0.905404 -1.28997 0
M  V30 2251 C 222.678 -0.392253 -2.25819 0
M  V30 2252 C 223.678 0.476753 -1.5357 0
M  V30 2253 O 224.868 0.280994 -1.71919 0
M  V30 2254 C 222 0.438588 -3.38067 0
M  V30 2255 H 223.193 -1.24743 -2.72725 0
M  V30 2256 H 220.746 -0.684051 -1.40536 0
M  V30 2257 H 221.481 1.31352 -2.96508 0
M  V30 2258 H 221.266 -0.184167 -3.91667 0
M  V30 2259 H 222.756 0.78873 -4.10084 0
M  V30 2260 N 223.193 1.4272 -0.668489 0
M  V30 2261 C 224.439 2.01923 -0.188419 0
M  V30 2262 C 224.772 1.52704 1.19979 0
M  V30 2263 O 224.047 0.726566 1.8042 0
M  V30 2264 C 224.33 3.59451 -0.216085 0
M  V30 2265 C 224.183 4.18864 -1.6393 0
M  V30 2266 C 225.502 4.37903 0.439179 0
M  V30 2267 H 222.621 0.733674 -0.0699412 0
M  V30 2268 H 225.263 1.69822 -0.852076 0
M  V30 2269 H 223.413 3.86929 0.349012 0
M  V30 2270 H 225.085 4.02362 -2.25616 0
M  V30 2271 H 223.328 3.74933 -2.18193 0
M  V30 2272 H 223.999 5.27987 -1.61039 0
M  V30 2273 H 226.475 4.16079 -0.0417878 0
M  V30 2274 H 225.351 5.47519 0.389157 0
M  V30 2275 H 225.612 4.15303 1.51577 0
M  V30 2276 N 224.671 0.411399 1.52136 0
M  V30 2277 C 225.917 -0.163888 2.02137 0
M  V30 2278 C 226.25 -1.44597 1.29636 0
M  V30 2279 O 225.525 -1.90272 0.403353 0
M  V30 2280 C 225.808 -0.40927 3.57767 0
M  V30 2281 C 225.661 0.889643 4.40914 0
M  V30 2282 C 226.98 -1.19042 4.23694 0
M  V30 2283 H 224.099 -0.0580896 0.734707 0
M  V30 2284 H 226.741 0.54531 1.82007 0
M  V30 2285 H 224.891 -1.0134 3.7505 0
M  V30 2286 H 226.563 1.52575 4.35337 0
M  V30 2287 H 224.806 1.50011 4.07037 0
M  V30 2288 H 225.477 0.672314 5.4789 0
M  V30 2289 H 227.953 -0.678942 4.10524 0
M  V30 2290 H 226.829 -1.33086 5.32522 0
M  V30 2291 H 227.09 -2.21166 3.82803 0
M  V30 2292 N 226.149 -1.5696 0.141893 0
M  V30 2293 C 227.56 -1.82797 -0.379776 0
M  V30 2294 C 227.911 -1.06033 -1.6508 0
M  V30 2295 O 227.036 -0.304011 -2.14254 0
M  V30 2296 C 227.631 -3.31578 -0.695802 0
M  V30 2297 C 226.19 -3.58014 -1.16201 0
M  V30 2298 C 225.337 -2.76699 -0.182455 0
M  V30 2299 H 228.288 -1.54406 0.366675 0
M  V30 2300 H 228.309 -3.47454 -1.55099 0
M  V30 2301 H 227.821 -3.87421 0.229449 0
M  V30 2302 H 225.922 -3.07553 -2.10338 0
M  V30 2303 H 226.035 -4.66501 -1.09151 0
M  V30 2304 H 224.399 -2.45618 -0.674072 0
M  V30 2305 H 225.182 -3.35311 0.736297 0
M  V30 2306 N 227.627 0.131896 -1.57047 0
M  V30 2307 C 228.537 1.1815 -2.02676 0
M  V30 2308 C 229.553 1.46113 -0.944824 0
M  V30 2309 O 230.729 1.57485 -1.25541 0
M  V30 2310 C 227.794 2.49139 -2.41103 0
M  V30 2311 C 226.855 2.28688 -3.63318 0
M  V30 2312 C 226.088 3.53431 -3.99903 0
M  V30 2313 O 226.311 4.60223 -3.36973 0
M  V30 2314 O 225.245 3.45198 -4.93074 0
M  V30 2315 H 229.071 0.824069 -2.92306 0
M  V30 2316 H 226.656 0.341745 -1.45439 0
M  V30 2317 H 228.538 3.26338 -2.66611 0
M  V30 2318 H 227.213 2.84382 -1.54624 0
M  V30 2319 H 226.12 1.4939 -3.42977 0
M  V30 2320 H 227.453 1.98355 -4.50462 0
M  V30 2321 N 229.106 1.52395 0.401703 0
M  V30 2322 C 230.039 1.70999 1.51111 0
M  V30 2323 C 231.017 0.55765 1.52738 0
M  V30 2324 O 232.201 0.785912 1.71335 0
M  V30 2325 C 229.328 1.75607 2.8962 0
M  V30 2326 C 228.374 2.97227 3.05873 0
M  V30 2327 S 229.207 4.57439 2.78405 0
M  V30 2328 C 230.363 4.64844 4.19131 0
M  V30 2329 H 230.596 2.6483 1.35102 0
M  V30 2330 H 228.129 1.42527 0.593762 0
M  V30 2331 H 230.087 1.78947 3.69443 0
M  V30 2332 H 228.748 0.828914 3.02965 0
M  V30 2333 H 227.941 2.96955 4.07227 0
M  V30 2334 H 227.543 2.91813 2.33925 0
M  V30 2335 H 229.835 4.42677 5.12877 0
M  V30 2336 H 230.778 5.66807 4.24424 0
M  V30 2337 H 231.186 3.93804 4.04448 0
M  V30 2338 N 230.584 -0.659388 1.43143 0
M  V30 2339 C 231.494 -1.80167 1.50256 0
M  V30 2340 C 232.51 -1.69571 0.390106 0
M  V30 2341 O 233.686 -1.90849 0.643319 0
M  V30 2342 C 230.751 -3.16409 1.41725 0
M  V30 2343 C 229.812 -3.38848 2.63591 0
M  V30 2344 C 229.045 -4.68591 2.55458 0
M  V30 2345 O 229.268 -5.47532 1.59891 0
M  V30 2346 O 228.202 -4.92614 3.45854 0
M  V30 2347 H 232.028 -1.77121 2.46702 0
M  V30 2348 H 229.613 -0.817092 1.25076 0
M  V30 2349 H 231.495 -3.9768 1.39387 0
M  V30 2350 H 230.17 -3.20059 0.484118 0
M  V30 2351 H 229.077 -2.57366 2.71502 0
M  V30 2352 H 230.41 -3.4004 3.55856 0
M  V30 2353 N 232.062 -1.29571 -0.897171 0
M  V30 2354 C 233.009 -1.14916 -2.00158 0
M  V30 2355 C 233.979 -0.0418149 -1.66047 0
M  V30 2356 O 235.164 -0.209793 -1.89643 0
M  V30 2357 C 232.304 -0.834307 -3.34863 0
M  V30 2358 C 231.417 -2.02234 -3.8174 0
M  V30 2359 C 230.552 -1.64664 -5.05034 0
M  V30 2360 C 229.591 -2.80033 -5.44286 0
M  V30 2361 N 228.728 -2.42843 -6.58765 0
M  V30 2362 H 233.568 -2.09403 -2.12025 0
M  V30 2363 H 231.105 -1.042 -1.0383 0
M  V30 2364 H 233.063 -0.632436 -4.12379 0
M  V30 2365 H 231.693 0.0736656 -3.22716 0
M  V30 2366 H 230.745 -2.33583 -3.00238 0
M  V30 2367 H 232.057 -2.88673 -4.06779 0
M  V30 2368 H 231.211 -1.4078 -5.9014 0
M  V30 2369 H 229.95 -0.753766 -4.8184 0
M  V30 2370 H 228.955 -3.04596 -4.57713 0
M  V30 2371 H 230.18 -3.69989 -5.6946 0
M  V30 2372 H 228.126 -1.56046 -6.3717 0
M  V30 2373 H 228.043 -3.22815 -6.83613 0
M  V30 2374 H 229.311 -2.22285 -7.47134 0
M  V30 2375 N 233.54 1.10788 -1.12088 0
M  V30 2376 C 234.956 1.34691 -0.856186 0
M  V30 2377 C 235.156 1.94791 0.515615 0
M  V30 2378 O 234.212 2.18524 1.26505 0
M  V30 2379 C 235.525 2.27208 -1.9697 0
M  V30 2380 C 237.073 2.40755 -2.00016 0
M  V30 2381 C 237.548 3.36598 -3.1059 0
M  V30 2382 N 239.039 3.44164 -3.10008 0
M  V30 2383 C 239.774 4.18284 -3.92206 0
M  V30 2384 N 239.27 4.95322 -4.84384 0
M  V30 2385 N 241.063 4.13865 -3.80357 0
M  V30 2386 H 233.214 0.70144 -2.00483 0
M  V30 2387 H 235.477 0.371405 -0.872217 0
M  V30 2388 H 235.183 1.90251 -2.958 0
M  V30 2389 H 235.057 3.27485 -1.87172 0
M  V30 2390 H 237.444 2.76982 -1.01808 0
M  V30 2391 H 237.525 1.40305 -2.13888 0
M  V30 2392 H 237.169 3.01096 -4.09028 0
M  V30 2393 H 237.099 4.36918 -2.93956 0
M  V30 2394 H 239.59 2.8922 -2.43228 0
M  V30 2395 H 239.903 5.49267 -5.43623 0
M  V30 2396 H 238.248 4.94459 -4.884 0
M  V30 2397 H 241.439 3.52773 -3.07683 0
M  V30 2398 H 241.612 4.71372 -4.44649 0
M  V30 2399 N 235.018 0.912232 1.28515 0
M  V30 2400 C 236.266 0.543523 1.94654 0
M  V30 2401 C 236.587 -0.9155 1.72173 0
M  V30 2402 O 235.857 -1.64708 1.06058 0
M  V30 2403 H 234.437 0.198017 0.720277 0
M  V30 2404 H 237.099 1.16126 1.56527 0
M  V30 2405 H 236.195 0.736684 3.03281 0
M  V30 2406 N 236.496 -1.42363 0.676048 0
M  V30 2407 C 237.744 -2.01123 0.198437 0
M  V30 2408 C 238.065 -1.53731 -1.19966 0
M  V30 2409 O 237.335 -0.759518 -1.80577 0
M  V30 2410 H 235.915 -0.743678 0.0703721 0
M  V30 2411 H 238.577 -1.74263 0.872837 0
M  V30 2412 H 237.673 -3.11454 0.200686 0
M  V30 2413 N 237.974 -0.419461 -1.51915 0
M  V30 2414 C 239.222 0.152637 -2.01523 0
M  V30 2415 C 239.543 1.44762 -1.30649 0
M  V30 2416 O 238.813 1.90997 -0.435535 0
M  V30 2417 H 237.393 0.0593966 -0.744635 0
M  V30 2418 H 240.055 -0.558073 -1.86739 0
M  V30 2419 H 239.151 0.341369 -3.10227 0
M  V30 2420 N 239.452 1.56882 -0.150215 0
M  V30 2421 C 240.677 2.01027 0.510184 0
M  V30 2422 C 241.102 1.02966 1.57415 0
M  V30 2423 O 240.46 0.00590158 1.81299 0
M  V30 2424 C 240.508 3.43899 1.08472 0
M  V30 2425 O 239.612 3.4885 2.19948 0
M  V30 2426 H 238.953 0.652233 0.124451 0
M  V30 2427 H 241.483 2.03093 -0.247894 0
M  V30 2428 H 241.493 3.82766 1.41259 0
M  V30 2429 H 240.168 4.14776 0.305582 0
M  V30 2430 H 238.745 3.21827 1.88366 0
M  V30 2431 N 240.93 -0.123565 1.57115 0
M  V30 2432 C 242.176 -0.833386 1.84885 0
M  V30 2433 C 242.509 -1.79742 0.735292 0
M  V30 2434 O 241.784 -1.92764 -0.25925 0
M  V30 2435 C 242.067 -1.5873 3.23228 0
M  V30 2436 C 241.92 -0.643183 4.45178 0
M  V30 2437 C 243.239 -2.54453 3.59085 0
M  V30 2438 H 240.358 -0.301518 0.6725 0
M  V30 2439 H 243 -0.097778 1.89748 0
M  V30 2440 H 241.15 -2.21438 3.19214 0
M  V30 2441 H 242.822 -0.0253015 4.61293 0
M  V30 2442 H 241.065 0.0456139 4.33776 0
M  V30 2443 H 241.736 -1.20724 5.38637 0
M  V30 2444 H 244.212 -2.01853 3.63861 0
M  V30 2445 H 243.088 -3.04238 4.5687 0
M  V30 2446 H 243.349 -3.36906 2.86264 0
M  V30 2447 N 242.408 -1.52605 -0.393616 0
M  V30 2448 C 243.654 -1.67672 -1.14079 0
M  V30 2449 C 243.987 -0.413121 -1.89755 0
M  V30 2450 O 243.262 0.588952 -1.85369 0
M  V30 2451 C 243.545 -2.9088 -2.12276 0
M  V30 2452 C 243.398 -4.27329 -1.40394 0
M  V30 2453 C 244.717 -3.09628 -3.12759 0
M  V30 2454 H 241.836 -0.610168 -0.413356 0
M  V30 2455 H 244.478 -1.85193 -0.424696 0
M  V30 2456 H 242.628 -2.76073 -2.73342 0
M  V30 2457 H 244.3 -4.53894 -0.82327 0
M  V30 2458 H 242.543 -4.2802 -0.705801 0
M  V30 2459 H 243.214 -5.09615 -2.12123 0
M  V30 2460 H 245.69 -3.23436 -2.61779 0
M  V30 2461 H 244.566 -3.97322 -3.78717 0
M  V30 2462 H 244.827 -2.23637 -3.81365 0
M  V30 2463 N 243.887 0.651787 -1.4349 0
M  V30 2464 C 245.136 1.40754 -1.44469 0
M  V30 2465 C 245.449 1.95463 -0.0731845 0
M  V30 2466 O 246.655 2.71471 0.0395721 0
M  V30 2467 C 245.111 2.54735 -2.5424 0
M  V30 2468 C 244.719 2.06628 -3.97504 0
M  V30 2469 C 246.463 3.32092 -2.64414 0
M  V30 2470 C 244.37 3.17829 -4.98737 0
M  V30 2471 H 243.3 0.528862 -0.53742 0
M  V30 2472 H 245.951 0.703365 -1.69485 0
M  V30 2473 H 244.333 3.2763 -2.22428 0
M  V30 2474 H 245.507 1.40734 -4.38783 0
M  V30 2475 H 243.822 1.42146 -3.91387 0
M  V30 2476 H 246.419 4.14952 -3.37223 0
M  V30 2477 H 246.762 3.80217 -1.69532 0
M  V30 2478 H 247.295 2.66279 -2.95534 0
M  V30 2479 H 244.034 2.74671 -5.95177 0
M  V30 2480 H 243.554 3.82429 -4.62069 0
M  V30 2481 H 245.233 3.82937 -5.21505 0
M  V30 2482 N 245.365 1.30045 0.890287 0
M  V30 2483 C 246.611 1.18737 1.64406 0
M  V30 2484 C 246.944 -0.258525 1.92472 0
M  V30 2485 O 246.219 -1.18562 1.54186 0
M  V30 2486 C 246.502 2.01087 2.98724 0
M  V30 2487 C 246.355 3.53867 2.77665 0
M  V30 2488 C 247.674 1.84457 3.9958 0
M  V30 2489 H 244.793 0.432698 0.596608 0
M  V30 2490 H 247.435 1.5962 1.0306 0
M  V30 2491 H 245.585 1.66349 3.51084 0
M  V30 2492 H 247.257 3.98637 2.32133 0
M  V30 2493 H 245.5 3.78318 2.12269 0
M  V30 2494 H 246.171 4.06772 3.7315 0
M  V30 2495 H 248.647 2.14817 3.56361 0
M  V30 2496 H 247.523 2.44411 4.91482 0
M  V30 2497 H 247.784 0.802276 4.3476 0
M  V30 2498 N 246.843 -1.10192 1.12674 0
M  V30 2499 C 248.068 -1.86523 0.906853 0
M  V30 2500 C 248.493 -1.80221 -0.538711 0
M  V30 2501 O 247.851 -1.17396 -1.38158 0
M  V30 2502 C 247.899 -3.32758 1.3894 0
M  V30 2503 O 247.003 -4.08449 0.5695 0
M  V30 2504 H 246.344 -0.578678 0.325619 0
M  V30 2505 H 248.874 -1.39203 1.49946 0
M  V30 2506 H 248.884 -3.83608 1.38958 0
M  V30 2507 H 247.559 -3.36661 2.44197 0
M  V30 2508 H 246.136 -3.67427 0.636528 0
M  V30 2509 N 248.321 -0.919034 -1.28029 0
M  V30 2510 C 249.546 -0.570357 -1.99403 0
M  V30 2511 C 249.971 0.842486 -1.68178 0
M  V30 2512 O 249.329 1.56391 -0.917141 0
M  V30 2513 C 249.377 -0.792541 -3.51783 0
M  V30 2514 O 248.481 0.145988 -4.12142 0
M  V30 2515 H 247.822 -0.220555 -0.6263 0
M  V30 2516 H 250.352 -1.23592 -1.63053 0
M  V30 2517 H 250.362 -0.704708 -4.01868 0
M  V30 2518 H 249.037 -1.82247 -3.73844 0
M  V30 2519 H 247.614 0.00897528 -3.72899 0
M  V30 2520 N 249.799 1.42003 -0.683588 0
M  V30 2521 C 251.048 2.00638 -0.206681 0
M  V30 2522 C 251.361 1.5472 1.19671 0
M  V30 2523 O 252.567 2.05833 1.77045 0
M  V30 2524 C 251.023 3.58487 -0.318632 0
M  V30 2525 C 250.631 4.1339 -1.72663 0
M  V30 2526 C 252.375 4.24384 0.0991141 0
M  V30 2527 C 250.282 5.63633 -1.79087 0
M  V30 2528 H 249.212 0.750408 -0.0735107 0
M  V30 2529 H 251.863 1.62624 -0.850048 0
M  V30 2530 H 250.245 3.94047 0.392781 0
M  V30 2531 H 251.419 3.89273 -2.46583 0
M  V30 2532 H 249.734 3.59976 -2.09299 0
M  V30 2533 H 252.331 5.34652 0.0713833 0
M  V30 2534 H 252.674 4.00505 1.13586 0
M  V30 2535 H 253.207 3.93816 -0.561599 0
M  V30 2536 H 249.946 5.92323 -2.80774 0
M  V30 2537 H 249.466 5.89714 -1.09535 0
M  V30 2538 H 251.145 6.28201 -1.5483 0
M  V30 2539 N 251.277 0.427512 1.51691 0
M  V30 2540 C 252.24 -0.377132 2.26076 0
M  V30 2541 C 253.24 -0.958089 1.29141 0
M  V30 2542 O 254.43 -0.83408 1.52934 0
M  V30 2543 C 251.562 -1.53262 3.04506 0
M  V30 2544 H 252.755 0.27464 2.9864 0
M  V30 2545 H 250.308 0.180445 1.55255 0
M  V30 2546 H 251.043 -2.22072 2.36335 0
M  V30 2547 H 250.828 -1.12232 3.75694 0
M  V30 2548 H 252.318 -2.10135 3.60878 0
M  V30 2549 N 252.755 -1.56801 0.158532 0
M  V30 2550 C 253.718 -2.16138 -0.762705 0
M  V30 2551 C 254.718 -1.1061 -1.16713 0
M  V30 2552 O 255.908 -1.36191 -1.08617 0
M  V30 2553 C 253.04 -2.73386 -2.03649 0
M  V30 2554 H 254.233 -2.98886 -0.246354 0
M  V30 2555 H 251.786 -1.56035 -0.0909744 0
M  V30 2556 H 252.521 -1.94335 -2.59623 0
M  V30 2557 H 252.306 -3.50601 -1.75559 0
M  V30 2558 H 253.796 -3.19065 -2.6942 0
M  V30 2559 N 254.233 0.115231 -1.57178 0
M  V30 2560 C 255.48 0.822351 -1.8505 0
M  V30 2561 C 255.808 1.79701 -0.744168 0
M  V30 2562 O 255.063 1.93909 0.26414 0
M  V30 2563 C 255.362 1.60324 -3.19423 0
M  V30 2564 C 255.028 0.772536 -4.44233 0
M  V30 2565 C 253.69 0.543468 -4.78121 0
M  V30 2566 C 256.042 0.193746 -5.2084 0
M  V30 2567 C 253.37 -0.274583 -5.86057 0
M  V30 2568 C 255.722 -0.611517 -6.29637 0
M  V30 2569 C 254.386 -0.850867 -6.62055 0
M  V30 2570 H 253.656 0.30092 -0.677147 0
M  V30 2571 H 256.303 0.0845802 -1.91313 0
M  V30 2572 H 254.608 2.41203 -3.08753 0
M  V30 2573 H 256.305 2.1544 -3.38211 0
M  V30 2574 H 252.895 0.96117 -4.17683 0
M  V30 2575 H 257.079 0.357926 -4.95008 0
M  V30 2576 H 252.335 -0.469206 -6.09597 0
M  V30 2577 H 256.509 -1.06697 -6.88178 0
M  V30 2578 H 254.136 -1.48657 -7.45523 0
M  V30 2579 N 255.711 1.52812 0.385517 0
M  V30 2580 C 256.936 1.72207 1.15583 0
M  V30 2581 C 257.361 0.441034 1.82857 0
M  V30 2582 O 256.719 -0.603465 1.70962 0
M  V30 2583 C 256.767 2.87476 2.17692 0
M  V30 2584 O 255.871 2.54693 3.24354 0
M  V30 2585 H 255.212 0.572526 0.336319 0
M  V30 2586 H 257.742 1.99618 0.448744 0
M  V30 2587 H 257.752 3.13072 2.6163 0
M  V30 2588 H 256.427 3.80408 1.68115 0
M  V30 2589 H 255.004 2.3985 2.85529 0
M  V30 2590 N 257.189 -0.644168 1.43834 0
M  V30 2591 C 258.6 -1.22554 1.40845 0
M  V30 2592 C 258.951 -1.9585 0.117115 0
M  V30 2593 O 258.076 -2.01734 -0.783086 0
M  V30 2594 C 258.671 -2.22907 2.55143 0
M  V30 2595 C 257.23 -2.76501 2.5539 0
M  V30 2596 C 256.377 -1.51287 2.32396 0
M  V30 2597 H 259.328 -0.43563 1.52604 0
M  V30 2598 H 259.349 -3.05259 2.2715 0
M  V30 2599 H 258.861 -1.69533 3.49114 0
M  V30 2600 H 256.962 -3.33914 1.65324 0
M  V30 2601 H 257.075 -3.23429 3.53455 0
M  V30 2602 H 255.439 -1.78957 1.81236 0
M  V30 2603 H 256.222 -0.998336 3.28463 0
M  V30 2604 N 258.668 -1.30515 -0.883378 0
M  V30 2605 C 259.893 -1.22487 -1.67367 0
M  V30 2606 C 260.318 0.208767 -1.86938 0
M  V30 2607 O 259.676 1.15015 -1.40148 0
M  V30 2608 C 259.724 -1.96041 -3.02655 0
M  V30 2609 O 258.828 -1.28859 -3.91751 0
M  V30 2610 H 258.169 -0.423573 -0.511353 0
M  V30 2611 H 260.699 -1.72362 -1.10239 0
M  V30 2612 H 260.709 -2.05124 -3.52687 0
M  V30 2613 H 259.384 -3.00307 -2.8773 0
M  V30 2614 H 257.961 -1.28141 -3.50192 0
M  V30 2615 N 260.146 1.09593 -1.13257 0
M  V30 2616 C 261.557 1.63229 -0.906274 0
M  V30 2617 C 261.908 1.8811 0.557578 0
M  V30 2618 O 261.033 1.62953 1.42391 0
M  V30 2619 C 261.628 2.96535 -1.63867 0
M  V30 2620 C 260.187 3.47003 -1.45828 0
M  V30 2621 C 259.334 2.2145 -1.66898 0
M  V30 2622 H 262.285 0.92978 -1.28611 0
M  V30 2623 H 262.306 3.64411 -1.09476 0
M  V30 2624 H 261.818 2.78394 -2.70404 0
M  V30 2625 H 259.919 3.70272 -0.415848 0
M  V30 2626 H 260.032 4.24551 -2.2202 0
M  V30 2627 H 258.396 2.30022 -1.09371 0
M  V30 2628 H 259.179 2.0583 -2.74752 0
M  V30 2629 N 261.624 0.925811 1.2754 0
M  V30 2630 C 262.872 0.564138 1.94067 0
M  V30 2631 C 263.193 -0.897188 1.73134 0
M  V30 2632 O 262.463 -1.63573 1.07799 0
M  V30 2633 H 261.043 0.205645 0.718136 0
M  V30 2634 H 263.705 1.1778 1.55287 0
M  V30 2635 H 262.801 0.76881 3.02483 0
M  V30 2636 N 263.102 -1.41638 0.69111 0
M  V30 2637 C 264.349 -2.01299 0.220193 0
M  V30 2638 C 264.677 -1.54715 -1.17871 0
M  V30 2639 O 263.932 -0.747193 -1.80874 0
M  V30 2640 C 264.231 -3.56714 0.221277 0
M  V30 2641 C 263.897 -4.22792 1.56709 0
M  V30 2642 C 262.559 -4.40557 1.93554 0
M  V30 2643 C 264.911 -4.59883 2.45268 0
M  V30 2644 C 262.239 -4.92688 3.18552 0
M  V30 2645 C 264.591 -5.13403 3.69595 0
M  V30 2646 C 263.255 -5.29379 4.06589 0
M  V30 2647 H 262.525 -0.736606 0.0805743 0
M  V30 2648 H 265.172 -1.69598 0.889319 0
M  V30 2649 H 263.477 -3.8818 -0.531391 0
M  V30 2650 H 265.174 -4.00678 -0.160547 0
M  V30 2651 H 261.764 -4.09336 1.2705 0
M  V30 2652 H 265.948 -4.45817 2.18084 0
M  V30 2653 H 261.204 -5.03242 3.47214 0
M  V30 2654 H 265.378 -5.41084 4.38407 0
M  V30 2655 H 263.005 -5.69537 5.03519 0
M  V30 2656 N 264.58 -0.43555 -1.51462 0
M  V30 2657 C 265.805 0.132627 -2.06976 0
M  V30 2658 C 266.23 1.35848 -1.30104 0
M  V30 2659 O 265.588 1.78112 -0.338493 0
M  V30 2660 C 265.636 0.43523 -3.57964 0
M  V30 2661 O 264.74 1.52198 -3.83288 0
M  V30 2662 H 264.081 0.00265 -0.663995 0
M  V30 2663 H 266.611 -0.616369 -1.95095 0
M  V30 2664 H 266.621 0.686206 -4.02188 0
M  V30 2665 H 265.296 -0.460739 -4.1334 0
M  V30 2666 H 263.873 1.2611 -3.50928 0
M  V30 2667 N 266.058 1.56714 -0.166846 0
M  V30 2668 C 267.469 1.83378 0.350646 0
M  V30 2669 C 267.82 1.08646 1.63372 0
M  V30 2670 O 266.945 0.338058 2.13743 0
M  V30 2671 C 267.54 3.32643 0.642963 0
M  V30 2672 C 266.099 3.59818 1.10491 0
M  V30 2673 C 265.246 2.76954 0.138411 0
M  V30 2674 H 268.197 1.53803 -0.391193 0
M  V30 2675 H 268.218 3.49878 1.49551 0
M  V30 2676 H 267.73 3.87007 -0.291055 0
M  V30 2677 H 265.831 3.1086 2.05418 0
M  V30 2678 H 265.944 4.68178 1.01716 0
M  V30 2679 H 264.308 2.4666 0.634911 0
M  V30 2680 H 265.091 3.34097 -0.789549 0
M  V30 2681 N 267.536 -0.106894 1.57237 0
M  V30 2682 C 268.766 -0.825191 1.89405 0
M  V30 2683 C 269.174 -1.73374 0.757496 0
M  V30 2684 O 268.517 -1.81552 -0.280115 0
M  V30 2685 C 268.579 -1.70102 3.1671 0
M  V30 2686 C 268.243 -0.965523 4.46684 0
M  V30 2687 C 269.24 -0.300741 5.19029 0
M  V30 2688 C 266.925 -0.943105 4.93367 0
M  V30 2689 C 268.919 0.376622 6.36286 0
M  V30 2690 C 266.606 -0.261949 6.10538 0
M  V30 2691 C 267.604 0.396748 6.81847 0
M  V30 2692 O 267.292 1.06701 7.96787 0
M  V30 2693 H 267.024 -0.241852 0.631255 0
M  V30 2694 H 269.578 -0.0921491 2.05193 0
M  V30 2695 H 267.808 -2.47601 2.97036 0
M  V30 2696 H 269.497 -2.29483 3.34802 0
M  V30 2697 H 270.263 -0.309599 4.84011 0
M  V30 2698 H 266.142 -1.44524 4.3776 0
M  V30 2699 H 269.686 0.891334 6.91882 0
M  V30 2700 H 265.583 -0.250896 6.45012 0
M  V30 2701 H 266.351 0.972707 8.127 0
M  V30 2702 N 269.014 -1.53014 -0.377408 0
M  V30 2703 C 269.962 -1.7927 -1.48206 0
M  V30 2704 C 270.956 -0.661195 -1.55963 0
M  V30 2705 O 272.162 -0.843908 -1.58991 0
M  V30 2706 H 268.537 -0.567425 -0.493491 0
M  V30 2707 H 270.508 -2.71753 -1.2326 0
M  V30 2708 C 269.257 -1.98894 -2.85196 0
M  V30 2709 H 268.58 -2.85395 -2.79981 0
M  V30 2710 H 270.02 -2.21249 -3.61698 0
M  V30 2711 C 268.479 -0.764691 -3.28107 0
M  V30 2712 O 269.009 0.0523226 -4.01666 0
M  V30 2713 N 267.215 -0.591493 -2.84517 0
M  V30 2714 H 266.762 -1.25749 -2.24822 0
M  V30 2715 H 266.72 0.226253 -3.13585 0
M  V30 2716 N 270.492 0.636531 -1.44174 0
M  V30 2717 C 271.738 1.39826 -1.4689 0
M  V30 2718 C 272.071 1.93947 -0.0990585 0
M  V30 2719 O 271.346 1.73325 0.882544 0
M  V30 2720 C 271.629 2.56751 -2.5249 0
M  V30 2721 C 271.482 2.08014 -3.98811 0
M  V30 2722 C 272.801 3.58946 -2.54649 0
M  V30 2723 H 269.92 0.507075 -0.53483 0
M  V30 2724 H 272.562 0.720188 -1.75822 0
M  V30 2725 H 270.712 3.14597 -2.2795 0
M  V30 2726 H 272.384 1.5504 -4.34466 0
M  V30 2727 H 270.627 1.39242 -4.10846 0
M  V30 2728 H 271.298 2.92169 -4.68339 0
M  V30 2729 H 273.774 3.1089 -2.76563 0
M  V30 2730 H 272.65 4.38286 -3.3045 0
M  V30 2731 H 272.911 4.12655 -1.58646 0
M  V30 2732 N 271.97 1.30982 0.876444 0
M  V30 2733 C 273.195 1.23373 1.66715 0
M  V30 2734 C 273.62 -0.19885 1.87046 0
M  V30 2735 O 272.978 -1.1427 1.40756 0
M  V30 2736 C 273.026 1.97644 3.01611 0
M  V30 2737 O 272.13 1.30935 3.91062 0
M  V30 2738 H 271.471 0.426279 0.509099 0
M  V30 2739 H 274.001 1.72944 1.09323 0
M  V30 2740 H 274.011 2.06992 3.51594 0
M  V30 2741 H 272.686 3.01829 2.86133 0
M  V30 2742 H 271.263 1.29996 3.49507 0
M  V30 2743 N 273.449 -1.08991 1.13837 0
M  V30 2744 C 274.396 -2.15748 0.819835 0
M  V30 2745 C 275.366 -1.64636 -0.220026 0
M  V30 2746 O 276.551 -1.90582 -0.0912757 0
M  V30 2747 C 273.691 -3.4382 0.296913 0
M  V30 2748 C 272.804 -4.0881 1.39636 0
M  V30 2749 C 271.939 -5.24655 0.831314 0
M  V30 2750 C 270.978 -5.81575 1.90886 0
M  V30 2751 N 270.115 -6.88774 1.36142 0
M  V30 2752 H 274.955 -2.42338 1.73426 0
M  V30 2753 H 272.492 -1.18935 0.865613 0
M  V30 2754 H 274.45 -4.17193 -0.0244339 0
M  V30 2755 H 273.08 -3.17535 -0.580628 0
M  V30 2756 H 272.132 -3.33258 1.83422 0
M  V30 2757 H 273.444 -4.47141 2.21058 0
M  V30 2758 H 272.598 -6.04942 0.461515 0
M  V30 2759 H 271.337 -4.87698 -0.013932 0
M  V30 2760 H 270.342 -4.99946 2.28767 0
M  V30 2761 H 271.567 -6.20592 2.75758 0
M  V30 2762 H 269.513 -6.53788 0.538254 0
M  V30 2763 H 269.43 -7.25898 2.11208 0
M  V30 2764 H 270.698 -7.72806 1.01933 0
M  V30 2765 N 274.927 -0.932562 -1.27047 0
M  V30 2766 C 276.155 -0.592031 -1.98249 0
M  V30 2767 C 276.57 0.831062 -1.69525 0
M  V30 2768 O 275.927 1.55299 -0.958561 0
M  V30 2769 C 275.978 -0.814279 -3.5221 0
M  V30 2770 O 275.699 -2.18139 -3.7993 0
M  V30 2771 C 277.2 -0.483121 -4.4066 0
M  V30 2772 H 274.42 -0.223896 -0.632544 0
M  V30 2773 H 276.964 -1.25091 -1.61779 0
M  V30 2774 H 275.119 -0.20213 -3.86872 0
M  V30 2775 H 275.533 -2.235 -4.74498 0
M  V30 2776 H 277.007 -0.689298 -5.47679 0
M  V30 2777 H 277.484 0.581546 -4.35333 0
M  V30 2778 H 278.09 -1.07362 -4.11526 0
M  V30 2779 N 276.405 1.4127 -0.698611 0
M  V30 2780 C 277.368 2.29158 -0.044132 0
M  V30 2781 C 278.368 1.44529 0.704841 0
M  V30 2782 O 279.558 1.65643 0.539276 0
M  V30 2783 C 276.69 3.27459 0.947809 0
M  V30 2784 H 277.883 2.88529 -0.817994 0
M  V30 2785 H 275.436 1.49307 -0.46228 0
M  V30 2786 H 276.171 2.73073 1.74933 0
M  V30 2787 H 275.956 3.8991 0.41385 0
M  V30 2788 H 277.446 3.93311 1.40344 0
M  V30 2789 N 277.883 0.443576 1.51229 0
M  V30 2790 C 278.813 -0.355142 2.30783 0
M  V30 2791 C 279.794 -1.0154 1.36468 0
M  V30 2792 O 280.979 -1.01785 1.65389 0
M  V30 2793 C 278.109 -1.45312 3.15439 0
M  V30 2794 C 277.063 -0.916002 4.18083 0
M  V30 2795 C 276.389 -2.1102 4.91299 0
M  V30 2796 C 277.689 0.0538602 5.22272 0
M  V30 2797 H 279.383 0.308767 2.97804 0
M  V30 2798 H 276.929 0.149937 1.43217 0
M  V30 2799 H 278.882 -2.01914 3.69876 0
M  V30 2800 H 277.606 -2.14541 2.46252 0
M  V30 2801 H 276.265 -0.372145 3.64706 0
M  V30 2802 H 275.913 -2.78882 4.18609 0
M  V30 2803 H 275.613 -1.75717 5.60712 0
M  V30 2804 H 277.137 -2.68164 5.48562 0
M  V30 2805 H 278.551 -0.422069 5.71744 0
M  V30 2806 H 276.948 0.319776 5.99247 0
M  V30 2807 H 278.018 0.98858 4.74716 0
M  V30 2808 N 279.361 -1.56624 0.175154 0
M  V30 2809 C 280.291 -2.21155 -0.749195 0
M  V30 2810 C 281.272 -1.16836 -1.23626 0
M  V30 2811 O 282.457 -1.45277 -1.28873 0
M  V30 2812 C 279.587 -2.8553 -1.97711 0
M  V30 2813 C 278.541 -3.95921 -1.62575 0
M  V30 2814 C 277.867 -4.47365 -2.92864 0
M  V30 2815 C 279.167 -5.15323 -0.850838 0
M  V30 2816 H 280.861 -2.98653 -0.211295 0
M  V30 2817 H 278.407 -1.43651 -0.100188 0
M  V30 2818 H 280.36 -3.2935 -2.62881 0
M  V30 2819 H 279.084 -2.05406 -2.53921 0
M  V30 2820 H 277.743 -3.52762 -0.997719 0
M  V30 2821 H 277.391 -3.64027 -3.47122 0
M  V30 2822 H 277.091 -5.21839 -2.70106 0
M  V30 2823 H 278.615 -4.93873 -3.59056 0
M  V30 2824 H 280.029 -5.55812 -1.40521 0
M  V30 2825 H 278.426 -5.95739 -0.722154 0
M  V30 2826 H 279.496 -4.84661 0.152082 0
M  V30 2827 N 280.839 0.0985539 -1.57292 0
M  V30 2828 C 282.087 0.801092 -1.85545 0
M  V30 2829 C 282.408 1.79438 -0.763353 0
M  V30 2830 O 281.678 1.94763 0.21073 0
M  V30 2831 H 280.258 0.29884 -0.684619 0
M  V30 2832 H 282.92 0.0810064 -1.94732 0
M  V30 2833 H 282.016 1.3338 -2.82163 0
M  V30 2834 N 282.317 1.53212 0.369288 0
M  V30 2835 C 283.247 1.82365 1.45826 0
M  V30 2836 C 284.228 0.676907 1.56051 0
M  V30 2837 O 285.413 0.926401 1.70679 0
M  V30 2838 C 282.543 2.01023 2.83208 0
M  V30 2839 C 281.497 3.1678 2.8781 0
M  V30 2840 C 280.823 3.20724 4.27832 0
M  V30 2841 C 282.123 4.55447 2.55667 0
M  V30 2842 H 283.817 2.73559 1.21678 0
M  V30 2843 H 281.363 1.3163 0.583911 0
M  V30 2844 H 283.316 2.20001 3.59413 0
M  V30 2845 H 282.04 1.06536 3.08736 0
M  V30 2846 H 280.699 2.97616 2.14056 0
M  V30 2847 H 280.347 2.23882 4.50429 0
M  V30 2848 H 280.047 3.98496 4.31827 0
M  V30 2849 H 281.571 3.41881 5.05915 0
M  V30 2850 H 282.985 4.74611 3.21586 0
M  V30 2851 H 281.382 5.35432 2.70984 0
M  V30 2852 H 282.452 4.60812 1.5093 0
M  V30 2853 N 283.795 -0.628877 1.44509 0
M  V30 2854 C 285.023 -1.41554 1.50897 0
M  V30 2855 C 285.438 -1.8832 0.134564 0
M  V30 2856 O 284.795 -1.60969 -0.859965 0
M  V30 2857 C 284.846 -2.63435 2.47556 0
M  V30 2858 O 284.567 -2.18619 3.79654 0
M  V30 2859 C 286.068 -3.56537 2.63431 0
M  V30 2860 H 283.288 -0.434044 0.511709 0
M  V30 2861 H 285.832 -0.768895 1.89495 0
M  V30 2862 H 283.987 -3.24187 2.12089 0
M  V30 2863 H 284.401 -2.97652 4.31861 0
M  V30 2864 H 285.875 -4.38657 3.35088 0
M  V30 2865 H 286.352 -4.05493 1.68738 0
M  V30 2866 H 286.958 -3.01653 2.9981 0
M  V30 2867 N 285.273 -1.31445 -0.869486 0
M  V30 2868 C 286.22 -1.19135 -1.97675 0
M  V30 2869 C 287.19 -0.0770266 -1.65921 0
M  V30 2870 O 288.375 -0.249972 -1.89155 0
M  V30 2871 C 285.515 -0.905149 -3.33018 0
M  V30 2872 C 284.628 -2.10285 -3.77365 0
M  V30 2873 C 283.763 -1.75339 -5.01427 0
M  V30 2874 C 282.802 -2.91515 -5.38224 0
M  V30 2875 N 281.939 -2.56762 -6.53466 0
M  V30 2876 H 286.779 -2.13853 -2.07535 0
M  V30 2877 H 284.316 -1.06379 -1.01597 0
M  V30 2878 H 286.274 -0.719765 -4.10944 0
M  V30 2879 H 284.904 0.00519624 -3.228 0
M  V30 2880 H 283.956 -2.39899 -2.95216 0
M  V30 2881 H 285.268 -2.97237 -4.00564 0
M  V30 2882 H 284.422 -1.53266 -5.87022 0
M  V30 2883 H 283.161 -0.855801 -4.80133 0
M  V30 2884 H 282.166 -3.14237 -4.51149 0
M  V30 2885 H 283.391 -3.81985 -5.61484 0
M  V30 2886 H 281.337 -1.69526 -6.33717 0
M  V30 2887 H 281.254 -3.37243 -6.76612 0
M  V30 2888 H 282.522 -2.38083 -7.42251 0
M  V30 2889 N 286.751 1.08385 -1.14413 0
M  V30 2890 C 287.979 1.84517 -0.936001 0
M  V30 2891 C 288.394 1.81626 0.515503 0
M  V30 2892 O 287.751 1.22008 1.35721 0
M  V30 2893 C 287.802 3.32049 -1.42918 0
M  V30 2894 O 287.523 3.34951 -2.82381 0
M  V30 2895 C 289.024 4.24986 -1.26103 0
M  V30 2896 H 286.244 0.582491 -0.333084 0
M  V30 2897 H 288.788 1.36885 -1.5193 0
M  V30 2898 H 286.943 3.7707 -0.888641 0
M  V30 2899 H 287.357 4.27048 -3.04517 0
M  V30 2900 H 288.831 5.26615 -1.6547 0
M  V30 2901 H 289.308 4.38726 -0.20392 0
M  V30 2902 H 289.914 3.85791 -1.79012 0
M  V30 2903 N 288.23 0.939286 1.26551 0
M  V30 2904 C 289.16 0.465044 2.28822 0
M  V30 2905 C 290.141 -0.480692 1.63167 0
M  V30 2906 O 291.326 -0.382955 1.90387 0
M  V30 2907 C 288.456 -0.27234 3.46231 0
M  V30 2908 C 287.41 0.58666 4.2396 0
M  V30 2909 C 286.736 -0.280573 5.33963 0
M  V30 2910 C 288.036 1.85704 4.88171 0
M  V30 2911 H 289.73 1.31979 2.68741 0
M  V30 2912 H 287.276 0.636061 1.29191 0
M  V30 2913 H 289.229 -0.615133 4.16886 0
M  V30 2914 H 287.953 -1.16121 3.0526 0
M  V30 2915 H 286.612 0.91232 3.55067 0
M  V30 2916 H 286.26 -1.16874 4.89234 0
M  V30 2917 H 285.96 0.29076 5.8688 0
M  V30 2918 H 287.484 -0.618678 6.07458 0
M  V30 2919 H 288.898 1.58161 5.51052 0
M  V30 2920 H 287.295 2.37279 5.51197 0
M  V30 2921 H 288.365 2.56957 4.11219 0
M  V30 2922 N 289.708 -1.40897 0.706093 0
M  V30 2923 C 290.671 -2.29131 0.0562841 0
M  V30 2924 C 291.671 -1.44901 -0.697166 0
M  V30 2925 O 292.861 -1.65926 -0.530484 0
M  V30 2926 C 289.993 -3.27957 -0.93043 0
M  V30 2927 H 291.186 -2.88091 0.833284 0
M  V30 2928 H 288.739 -1.4906 0.470192 0
M  V30 2929 H 289.474 -2.73997 -1.73482 0
M  V30 2930 H 289.259 -3.90124 -0.393166 0
M  V30 2931 H 290.749 -3.94049 -1.38256 0
M  V30 2932 N 291.186 -0.45159 -1.50991 0
M  V30 2933 C 292.435 0.111653 -2.01391 0
M  V30 2934 C 292.748 1.42529 -1.33959 0
M  V30 2935 O 293.954 2.07232 -1.75405 0
M  V30 2936 C 292.41 0.249514 -3.59034 0
M  V30 2937 C 292.018 -1.05453 -4.35412 0
M  V30 2938 C 293.762 0.765762 -4.17536 0
M  V30 2939 C 291.669 -0.881529 -5.84793 0
M  V30 2940 H 290.599 0.0455022 -0.752626 0
M  V30 2941 H 293.25 -0.583524 -1.73975 0
M  V30 2942 H 291.632 1.00803 -3.82955 0
M  V30 2943 H 292.806 -1.82248 -4.23229 0
M  V30 2944 H 291.121 -1.50039 -3.88429 0
M  V30 2945 H 293.718 0.911913 -5.26866 0
M  V30 2946 H 294.061 1.75201 -3.77638 0
M  V30 2947 H 294.594 0.0651744 -3.97747 0
M  V30 2948 H 291.333 -1.84057 -6.29129 0
M  V30 2949 H 290.853 -0.153625 -5.99603 0
M  V30 2950 H 292.532 -0.540363 -6.4474 0
M  V30 2951 N 292.664 1.56529 -0.183458 0
M  V30 2952 C 293.574 2.22144 0.754272 0
M  V30 2953 C 294.59 1.21684 1.24374 0
M  V30 2954 O 295.766 1.54385 1.29333 0
M  V30 2955 C 292.831 2.85884 1.96141 0
M  V30 2956 C 291.892 4.01579 1.51765 0
M  V30 2957 C 291.125 4.6227 2.66725 0
M  V30 2958 O 291.348 4.21865 3.83909 0
M  V30 2959 O 290.282 5.51936 2.40104 0
M  V30 2960 H 294.108 3.02861 0.225527 0
M  V30 2961 H 291.693 1.49331 0.0453032 0
M  V30 2962 H 293.575 3.26253 2.66715 0
M  V30 2963 H 292.25 2.08154 2.47899 0
M  V30 2964 H 291.157 3.65856 0.781049 0
M  V30 2965 H 292.49 4.80938 1.04686 0
M  V30 2966 N 294.142 -0.090211 1.57342 0
M  V30 2967 C 295.072 -1.10976 2.05443 0
M  V30 2968 C 296.053 -1.41482 0.944284 0
M  V30 2969 O 297.238 -1.51428 1.21586 0
M  V30 2970 C 294.368 -2.42831 2.48295 0
M  V30 2971 C 293.322 -2.26721 3.63018 0
M  V30 2972 C 292.648 -3.63796 3.91863 0
M  V30 2973 C 293.948 -1.7037 4.93732 0
M  V30 2974 H 295.642 -0.709564 2.9087 0
M  V30 2975 H 293.188 -0.339874 1.39932 0
M  V30 2976 H 295.141 -3.14431 2.80555 0
M  V30 2977 H 293.865 -2.84795 1.59873 0
M  V30 2978 H 292.524 -1.57565 3.31012 0
M  V30 2979 H 292.172 -4.03297 3.00601 0
M  V30 2980 H 291.872 -3.53861 4.69101 0
M  V30 2981 H 293.396 -4.36855 4.26603 0
M  V30 2982 H 294.81 -2.31816 5.24342 0
M  V30 2983 H 293.207 -1.71181 5.75167 0
M  V30 2984 H 294.277 -0.663542 4.80339 0
M  V30 2985 N 295.62 -1.53406 -0.361157 0
M  V30 2986 C 296.583 -1.79479 -1.42548 0
M  V30 2987 C 297.583 -0.665327 -1.4639 0
M  V30 2988 O 298.773 -0.933549 -1.47073 0
M  V30 2989 C 295.905 -1.92087 -2.8163 0
M  V30 2990 H 297.098 -2.74538 -1.20701 0
M  V30 2991 H 294.651 -1.4455 -0.594546 0
M  V30 2992 H 295.386 -0.991099 -3.08784 0
M  V30 2993 H 295.171 -2.74241 -2.80239 0
M  V30 2994 H 296.661 -2.13836 -3.58697 0
M  V30 2995 N 297.098 0.621204 -1.44841 0
M  V30 2996 C 298.509 1.20298 -1.42777 0
M  V30 2997 C 298.86 1.95639 -0.148259 0
M  V30 2998 O 297.985 2.02955 0.750892 0
M  V30 2999 C 298.58 2.1882 -2.58657 0
M  V30 3000 C 297.139 2.72403 -2.59756 0
M  V30 3001 C 296.286 1.4757 -2.34773 0
M  V30 3002 H 299.237 0.411297 -1.53278 0
M  V30 3003 H 299.258 3.01607 -2.31977 0
M  V30 3004 H 298.77 1.63957 -3.51766 0
M  V30 3005 H 296.871 3.31242 -1.70615 0
M  V30 3006 H 296.984 3.17765 -3.58556 0
M  V30 3007 H 295.348 1.76051 -1.8406 0
M  V30 3008 H 296.131 0.945954 -3.3001 0
M  V30 3009 N 298.576 1.31904 0.862503 0
M  V30 3010 C 299.992 1.10724 1.14945 0
M  V30 3011 C 300.192 -0.117421 2.01158 0
M  V30 3012 O 299.248 -0.804595 2.39338 0
M  V30 3013 C 300.561 2.38267 1.83437 0
M  V30 3014 C 302.109 2.43949 1.96106 0
M  V30 3015 C 302.584 3.71394 2.68013 0
M  V30 3016 N 304.075 3.72331 2.75543 0
M  V30 3017 C 304.81 4.67641 3.31812 0
M  V30 3018 N 304.306 5.73313 3.88953 0
M  V30 3019 N 306.099 4.5515 3.29841 0
M  V30 3020 H 298.25 2.10436 0.288191 0
M  V30 3021 H 300.513 0.928705 0.190292 0
M  V30 3022 H 300.219 3.27759 1.27542 0
M  V30 3023 H 300.093 2.48633 2.83657 0
M  V30 3024 H 302.48 1.54922 2.51164 0
M  V30 3025 H 302.561 2.37543 0.949059 0
M  V30 3026 H 302.205 4.60791 2.13621 0
M  V30 3027 H 302.135 3.75069 3.69636 0
M  V30 3028 H 304.626 2.95947 2.34997 0
M  V30 3029 H 304.939 6.42107 4.30022 0
M  V30 3030 H 303.284 5.77077 3.87308 0
M  V30 3031 H 306.475 3.71766 2.84443 0
M  V30 3032 H 306.648 5.29604 3.73394 0
M  V30 3033 N 300.054 -1.07777 1.14986 0
M  V30 3034 C 301.002 -2.16964 0.838406 0
M  V30 3035 C 301.996 -1.68372 -0.186386 0
M  V30 3036 O 303.202 -1.79951 -0.0418465 0
M  V30 3037 H 299.577 -0.708006 0.253439 0
M  V30 3038 H 301.548 -2.40454 1.76704 0
M  V30 3039 C 300.297 -3.4604 0.339335 0
M  V30 3040 H 299.62 -3.83813 1.11927 0
M  V30 3041 H 301.06 -4.23698 0.160021 0
M  V30 3042 C 299.519 -3.23569 -0.938325 0
M  V30 3043 O 300.049 -3.47752 -2.01077 0
M  V30 3044 N 298.255 -2.77079 -0.876117 0
M  V30 3045 H 297.802 -2.576 -0.00322037 0
M  V30 3046 H 297.76 -2.62422 -1.73153 0
M  V30 3047 N 301.532 -0.945985 -1.26051 0
M  V30 3048 C 302.781 -0.591836 -1.92822 0
M  V30 3049 C 303.094 0.873956 -1.7499 0
M  V30 3050 O 304.3 1.33769 -2.36259 0
M  V30 3051 C 302.756 -1.00776 -3.45503 0
M  V30 3052 C 302.364 -2.4955 -3.7206 0
M  V30 3053 C 304.108 -0.725735 -4.1825 0
M  V30 3054 C 302.015 -2.84988 -5.18205 0
M  V30 3055 H 300.945 -0.217635 -0.721908 0
M  V30 3056 H 303.596 -1.14927 -1.43052 0
M  V30 3057 H 301.978 -0.378812 -3.94184 0
M  V30 3058 H 303.152 -3.1739 -3.34066 0
M  V30 3059 H 301.467 -2.75133 -3.12555 0
M  V30 3060 H 304.064 -0.966771 -5.25887 0
M  V30 3061 H 304.407 0.337639 -4.14929 0
M  V30 3062 H 304.94 -1.31463 -3.7545 0
M  V30 3063 H 301.679 -3.90307 -5.26631 0
M  V30 3064 H 301.199 -2.21813 -5.57278 0
M  V30 3065 H 302.878 -2.73712 -5.86252 0
M  V30 3066 N 303.011 1.40521 -0.713556 0
M  V30 3067 C 304.427 1.54839 -0.386907 0
M  V30 3068 C 304.627 1.68532 1.1045 0
M  V30 3069 O 303.683 1.67377 1.89053 0
M  V30 3070 C 304.996 2.77792 -1.15118 0
M  V30 3071 C 306.544 2.91607 -1.13729 0
M  V30 3072 C 307.019 4.1747 -1.88368 0
M  V30 3073 N 308.51 4.24466 -1.85427 0
M  V30 3074 C 309.245 5.20755 -2.40004 0
M  V30 3075 N 308.741 6.22965 -3.03129 0
M  V30 3076 N 310.534 5.1282 -2.30158 0
M  V30 3077 H 302.685 1.29879 -1.68063 0
M  V30 3078 H 304.948 0.627896 -0.710247 0
M  V30 3079 H 304.654 2.73944 -2.20561 0
M  V30 3080 H 304.528 3.6984 -0.741477 0
M  V30 3081 H 306.915 2.94959 -0.0910608 0
M  V30 3082 H 306.996 2.00682 -1.5862 0
M  V30 3083 H 306.64 4.1488 -2.9298 0
M  V30 3084 H 306.57 5.074 -1.40898 0
M  V30 3085 H 309.061 3.51241 -1.3942 0
M  V30 3086 H 309.374 6.92859 -3.42295 0
M  V30 3087 H 307.719 6.23415 -3.07212 0
M  V30 3088 H 310.91 4.31899 -1.80501 0
M  V30 3089 H 311.083 5.87689 -2.72993 0
M  V30 3090 N 304.489 0.459591 1.5075 0
M  V30 3091 C 305.735 -0.0994966 2.02556 0
M  V30 3092 C 306.068 -1.40399 1.3417 0
M  V30 3093 O 305.343 -1.88892 0.463683 0
M  V30 3094 C 305.626 -0.295242 3.58888 0
M  V30 3095 C 305.479 1.02947 4.37861 0
M  V30 3096 C 306.798 -1.05502 4.27267 0
M  V30 3097 H 303.917 -0.034686 0.736183 0
M  V30 3098 H 306.559 0.602938 1.8018 0
M  V30 3099 H 304.709 -0.893563 3.78084 0
M  V30 3100 H 306.381 1.66348 4.30263 0
M  V30 3101 H 304.624 1.62885 4.02058 0
M  V30 3102 H 305.295 0.846281 5.45474 0
M  V30 3103 H 307.771 -0.547993 4.12476 0
M  V30 3104 H 306.647 -1.16077 5.36486 0
M  V30 3105 H 306.908 -2.08875 3.89645 0
M  V30 3106 N 305.967 -1.56429 0.191757 0
M  V30 3107 C 306.915 -2.20273 -0.747174 0
M  V30 3108 C 307.909 -1.17288 -1.22229 0
M  V30 3109 O 309.115 -1.35441 -1.18557 0
M  V30 3110 H 305.49 -0.705885 -0.259289 0
M  V30 3111 H 307.461 -2.97826 -0.184963 0
M  V30 3112 C 306.21 -2.87356 -1.95759 0
M  V30 3113 H 305.533 -3.66341 -1.60106 0
M  V30 3114 H 306.973 -3.3547 -2.59299 0
M  V30 3115 C 305.432 -1.88213 -2.79423 0
M  V30 3116 O 305.962 -1.38033 -3.7724 0
M  V30 3117 N 304.168 -1.56516 -2.44849 0
M  V30 3118 H 303.715 -1.97516 -1.65364 0
M  V30 3119 H 303.673 -0.904369 -3.01112 0
M  V30 3120 N 307.445 0.0818655 -1.57387 0
M  V30 3121 C 308.685 0.788375 -1.88584 0
M  V30 3122 C 309.049 1.75248 -0.784351 0
M  V30 3123 O 310.25 2.50334 -0.979105 0
M  V30 3124 C 308.521 1.48654 -3.25018 0
M  V30 3125 S 310.08 2.22951 -3.7794 0
M  V30 3126 H 306.898 0.262383 -0.660815 0
M  V30 3127 H 309.5 0.0448995 -1.95448 0
M  V30 3128 H 308.204 0.770919 -4.03094 0
M  V30 3129 H 307.735 2.26965 -3.21326 0
M  V30 3130 H 309.75 3.49309 -3.52417 0
M  V30 3131 N 308.923 1.53595 0.353017 0
M  V30 3132 C 309.853 1.83902 1.43883 0
M  V30 3133 C 310.834 0.693421 1.55324 0
M  V30 3134 O 312.019 0.944452 1.69687 0
M  V30 3135 C 309.149 2.04016 2.8106 0
M  V30 3136 C 308.103 3.19814 2.84434 0
M  V30 3137 C 307.429 3.25244 4.24406 0
M  V30 3138 C 308.729 4.58133 2.50822 0
M  V30 3139 H 310.423 2.74835 1.1877 0
M  V30 3140 H 307.969 1.32242 0.569917 0
M  V30 3141 H 309.922 2.238 3.57059 0
M  V30 3142 H 308.646 1.09804 3.07588 0
M  V30 3143 H 307.305 2.9987 2.10887 0
M  V30 3144 H 306.953 2.28646 4.48029 0
M  V30 3145 H 306.653 4.03054 4.27576 0
M  V30 3146 H 308.177 3.47228 5.0226 0
M  V30 3147 H 309.591 4.77995 3.16534 0
M  V30 3148 H 307.988 5.38276 2.6529 0
M  V30 3149 H 309.058 4.62387 1.46034 0
M  V30 3150 N 310.401 -0.613514 1.45168 0
M  V30 3151 C 311.364 -1.7065 1.53007 0
M  V30 3152 C 312.364 -1.5548 0.410184 0
M  V30 3153 O 313.554 -1.60656 0.673455 0
M  V30 3154 C 310.686 -3.09875 1.42093 0
M  V30 3155 H 311.879 -1.65068 2.50385 0
M  V30 3156 H 309.432 -0.828728 1.32521 0
M  V30 3157 H 310.167 -3.21039 0.458769 0
M  V30 3158 H 309.952 -3.22293 2.23315 0
M  V30 3159 H 311.442 -3.895 1.50598 0
M  V30 3160 N 311.879 -1.3236 -0.855495 0
M  V30 3161 C 313.29 -1.2056 -1.42556 0
M  V30 3162 C 313.641 0.182209 -1.95352 0
M  V30 3163 O 312.766 1.08088 -1.87472 0
M  V30 3164 C 313.361 -2.1826 -2.59129 0
M  V30 3165 C 311.92 -2.10351 -3.12137 0
M  V30 3166 C 311.067 -2.06674 -1.84882 0
M  V30 3167 H 314.018 -1.442 -0.662727 0
M  V30 3168 H 314.039 -1.78064 -3.36264 0
M  V30 3169 H 313.551 -3.19257 -2.20673 0
M  V30 3170 H 311.652 -1.12599 -3.55179 0
M  V30 3171 H 311.765 -3.00135 -3.73438 0
M  V30 3172 H 310.129 -1.51901 -2.04446 0
M  V30 3173 H 310.912 -3.09451 -1.48643 0
M  V30 3174 N 313.357 1.07166 -1.15556 0
M  V30 3175 C 314.605 1.79443 -0.929764 0
M  V30 3176 C 314.926 1.87246 0.544414 0
M  V30 3177 O 314.196 1.37473 1.39564 0
M  V30 3178 H 312.776 0.664625 -0.341003 0
M  V30 3179 H 315.438 1.29499 -1.45657 0
M  V30 3180 H 314.534 2.81832 -1.34079 0
M  V30 3181 N 314.835 0.952656 1.25548 0
M  V30 3182 C 315.765 0.489287 2.28316 0
M  V30 3183 C 316.746 -0.463359 1.63667 0
M  V30 3184 O 317.931 -0.36274 1.90782 0
M  V30 3185 C 315.061 -0.235603 3.465 0
M  V30 3186 C 314.015 0.631593 4.23314 0
M  V30 3187 C 313.341 -0.223923 5.34231 0
M  V30 3188 C 314.641 1.90871 4.86174 0
M  V30 3189 H 316.335 1.34822 2.67326 0
M  V30 3190 H 313.881 0.649728 1.28509 0
M  V30 3191 H 315.834 -0.570882 4.17515 0
M  V30 3192 H 314.558 -1.12877 3.06474 0
M  V30 3193 H 313.217 0.949929 3.54079 0
M  V30 3194 H 312.865 -1.11678 4.90446 0
M  V30 3195 H 312.565 0.35299 5.86539 0
M  V30 3196 H 314.089 -0.554214 6.0808 0
M  V30 3197 H 315.503 1.63997 5.49343 0
M  V30 3198 H 313.9 2.43112 5.4865 0
M  V30 3199 H 314.97 2.61304 4.08471 0
M  V30 3200 N 316.313 -1.40141 0.720998 0
M  V30 3201 C 317.562 -2.0002 0.259804 0
M  V30 3202 C 317.875 -1.57839 -1.15526 0
M  V30 3203 O 319.081 -2.10455 -1.71525 0
M  V30 3204 C 317.537 -3.57516 0.413566 0
M  V30 3205 C 317.145 -4.08667 1.83562 0
M  V30 3206 C 318.889 -4.24498 0.0134387 0
M  V30 3207 C 316.796 -5.58686 1.93968 0
M  V30 3208 H 315.726 -0.748195 0.0933806 0
M  V30 3209 H 318.377 -1.60313 0.892866 0
M  V30 3210 H 316.759 -3.9495 -0.288169 0
M  V30 3211 H 317.933 -3.82598 2.56817 0
M  V30 3212 H 316.248 -3.543 2.1877 0
M  V30 3213 H 318.845 -5.34654 0.0703954 0
M  V30 3214 H 319.188 -4.03375 -1.02927 0
M  V30 3215 H 319.721 -3.92188 0.665815 0
M  V30 3216 H 316.46 -5.8467 2.96379 0
M  V30 3217 H 315.98 -5.86602 1.25131 0
M  V30 3218 H 317.659 -6.23875 1.71431 0
M  V30 3219 N 317.792 -0.46758 -1.50504 0
M  V30 3220 C 318.739 0.328413 -2.28452 0
M  V30 3221 C 319.709 0.990313 -1.33349 0
M  V30 3222 O 320.894 1.00343 -1.62284 0
M  V30 3223 C 318.034 1.40648 -3.15138 0
M  V30 3224 C 317.147 0.759709 -4.25267 0
M  V30 3225 C 316.282 1.81537 -4.99217 0
M  V30 3226 C 315.321 1.14866 -6.01226 0
M  V30 3227 N 314.458 2.14702 -6.68467 0
M  V30 3228 H 319.298 -0.342603 -2.96024 0
M  V30 3229 H 316.835 -0.180801 -1.45985 0
M  V30 3230 H 318.793 2.04315 -3.63746 0
M  V30 3231 H 317.423 2.04671 -2.49619 0
M  V30 3232 H 316.475 0.0105671 -3.80399 0
M  V30 3233 H 317.787 0.233243 -4.98254 0
M  V30 3234 H 316.941 2.52793 -5.51526 0
M  V30 3235 H 315.68 2.37564 -4.25928 0
M  V30 3236 H 314.685 0.42171 -5.4818 0
M  V30 3237 H 315.91 0.595334 -6.76485 0
M  V30 3238 H 313.856 2.69752 -5.97972 0
M  V30 3239 H 313.773 1.6703 -7.37317 0
M  V30 3240 H 315.041 2.85348 -7.25394 0
M  V30 3241 N 319.27 1.56325 -0.20005 0
M  V30 3242 C 320.498 2.02105 0.442874 0
M  V30 3243 C 320.913 1.08014 1.5485 0
M  V30 3244 O 320.27 0.0858797 1.82298 0
M  V30 3245 C 320.321 3.47549 0.994583 0
M  V30 3246 O 320.042 4.38049 -0.0669322 0
M  V30 3247 C 321.543 4.0887 1.7129 0
M  V30 3248 H 318.763 0.661807 0.110691 0
M  V30 3249 H 321.307 2.02134 -0.310207 0
M  V30 3250 H 319.462 3.48204 1.69803 0
M  V30 3251 H 319.876 5.23368 0.344462 0
M  V30 3252 H 321.35 5.12475 2.05118 0
M  V30 3253 H 321.827 3.52615 2.61838 0
M  V30 3254 H 322.433 4.12002 1.05518 0
M  V30 3255 N 320.748 -0.0735177 1.57428 0
M  V30 3256 C 321.973 -0.789787 1.91774 0
M  V30 3257 C 322.398 -1.70413 0.796306 0
M  V30 3258 O 321.756 -1.79555 -0.250961 0
M  V30 3259 C 321.804 -1.5609 3.25067 0
M  V30 3260 O 320.908 -2.67144 3.14178 0
M  V30 3261 H 320.249 -0.215582 0.628029 0
M  V30 3262 H 322.779 -0.0422781 2.04556 0
M  V30 3263 H 322.789 -1.94052 3.58898 0
M  V30 3264 H 321.464 -0.890015 4.06265 0
M  V30 3265 H 320.041 -2.32052 2.91901 0
M  V30 3266 N 322.226 -1.5378 -0.344866 0
M  V30 3267 C 323.473 -1.70963 -1.08526 0
M  V30 3268 C 323.801 -0.472126 -1.88683 0
M  V30 3269 O 323.056 0.546116 -1.87926 0
M  V30 3270 C 323.355 -2.92407 -2.05506 0
M  V30 3271 C 323.021 -4.28066 -1.41671 0
M  V30 3272 C 321.683 -4.64951 -1.2399 0
M  V30 3273 C 324.035 -5.12344 -0.956726 0
M  V30 3274 C 321.363 -5.83733 -0.589277 0
M  V30 3275 C 323.715 -6.3179 -0.320015 0
M  V30 3276 C 322.379 -6.67372 -0.130881 0
M  V30 3277 H 321.649 -0.625598 -0.397124 0
M  V30 3278 H 324.296 -1.87995 -0.36469 0
M  V30 3279 H 322.601 -2.69973 -2.8394 0
M  V30 3280 H 324.298 -3.02895 -2.62784 0
M  V30 3281 H 320.888 -3.99034 -1.56429 0
M  V30 3282 H 325.072 -4.8438 -1.08118 0
M  V30 3283 H 320.328 -6.09877 -0.431344 0
M  V30 3284 H 324.502 -6.96386 0.0445072 0
M  V30 3285 H 322.129 -7.59273 0.375318 0
M  V30 3286 N 323.704 0.605807 -1.45491 0
M  V30 3287 C 324.929 1.39625 -1.53361 0
M  V30 3288 C 325.354 1.87351 -0.167645 0
M  V30 3289 O 324.712 1.60243 0.848051 0
M  V30 3290 C 324.76 2.57559 -2.5238 0
M  V30 3291 O 323.864 3.58248 -2.04285 0
M  V30 3292 H 323.205 0.416771 -0.516912 0
M  V30 3293 H 325.735 0.737103 -1.90861 0
M  V30 3294 H 325.745 3.0478 -2.71244 0
M  V30 3295 H 324.42 2.22171 -3.51586 0
M  V30 3296 H 322.997 3.17664 -1.95305 0
M  V30 3297 N 325.182 1.32811 0.848464 0
M  V30 3298 C 326.598 1.11937 1.13764 0
M  V30 3299 C 326.798 -0.0960789 2.01271 0
M  V30 3300 O 325.854 -0.779165 2.40178 0
M  V30 3301 C 327.167 2.402 1.809 0
M  V30 3302 C 328.715 2.46016 1.93508 0
M  V30 3303 C 329.19 3.74215 2.64059 0
M  V30 3304 N 330.681 3.75232 2.71579 0
M  V30 3305 C 331.416 4.71134 3.26833 0
M  V30 3306 N 330.912 5.77406 3.8285 0
M  V30 3307 N 332.705 4.58623 3.24995 0
M  V30 3308 H 324.856 2.1073 0.265855 0
M  V30 3309 H 327.119 0.930671 0.180431 0
M  V30 3310 H 326.825 3.29093 1.24058 0
M  V30 3311 H 326.699 2.51628 2.81004 0
M  V30 3312 H 329.086 1.57577 2.49506 0
M  V30 3313 H 329.167 2.38536 0.923811 0
M  V30 3314 H 328.811 4.63031 2.08722 0
M  V30 3315 H 328.741 3.78968 3.65637 0
M  V30 3316 H 331.232 2.98423 2.31845 0
M  V30 3317 H 331.545 6.46632 4.23187 0
M  V30 3318 H 329.89 5.81152 3.81165 0
M  V30 3319 H 333.081 3.74762 2.80484 0
M  V30 3320 H 333.254 5.33535 3.67756 0
M  V30 3321 N 326.66 -1.06551 1.16123 0
M  V30 3322 C 327.593 -2.13382 0.80892 0
M  V30 3323 C 328.571 -1.61128 -0.21827 0
M  V30 3324 O 329.755 -1.88219 -0.102952 0
M  V30 3325 C 326.882 -3.38083 0.204303 0
M  V30 3326 C 325.928 -4.09133 1.20469 0
M  V30 3327 S 326.761 -4.5948 2.75024 0
M  V30 3328 C 327.917 -5.87446 2.16005 0
M  V30 3329 H 328.15 -2.42937 1.71373 0
M  V30 3330 H 325.683 -1.18947 0.984428 0
M  V30 3331 H 327.641 -4.10268 -0.138081 0
M  V30 3332 H 326.302 -3.0669 -0.678234 0
M  V30 3333 H 325.495 -4.98685 0.730019 0
M  V30 3334 H 325.097 -3.4295 1.49202 0
M  V30 3335 H 327.389 -6.60065 1.5271 0
M  V30 3336 H 328.332 -6.39639 3.03756 0
M  V30 3337 H 328.74 -5.41354 1.59989 0
M  V30 3338 N 328.138 -0.959301 -1.25041 0
M  V30 3339 C 329.068 -0.501388 -2.28053 0
M  V30 3340 C 330.049 0.454673 -1.63911 0
M  V30 3341 O 331.234 0.352618 -1.90972 0
M  V30 3342 C 328.364 0.217224 -3.4662 0
M  V30 3343 C 327.318 -0.654034 -4.22973 0
M  V30 3344 C 326.644 0.195589 -5.34342 0
M  V30 3345 C 327.944 -1.93447 -4.85155 0
M  V30 3346 H 329.638 -1.36238 -2.66608 0
M  V30 3347 H 327.184 -0.656534 -1.28163 0
M  V30 3348 H 329.137 0.548732 -4.17812 0
M  V30 3349 H 327.861 1.1125 -3.07068 0
M  V30 3350 H 326.52 -0.968693 -3.5357 0
M  V30 3351 H 326.168 1.09076 -4.91031 0
M  V30 3352 H 325.868 -0.384091 -5.86343 0
M  V30 3353 H 327.392 0.521958 -6.08365 0
M  V30 3354 H 328.806 -1.66908 -5.48466 0
M  V30 3355 H 327.203 -2.46018 -5.47353 0
M  V30 3356 H 328.273 -2.63466 -4.07079 0
M  V30 3357 N 329.616 1.39756 -0.72842 0
M  V30 3358 C 330.862 2.01425 -0.282761 0
M  V30 3359 C 331.217 1.56754 1.11561 0
M  V30 3360 O 330.51 0.783482 1.74849 0
M  V30 3361 C 330.704 3.56002 -0.315776 0
M  V30 3362 C 330.533 4.1568 -1.71582 0
M  V30 3363 C 329.303 4.48555 -2.32651 0
M  V30 3364 C 331.501 4.39667 -2.66829 0
M  V30 3365 N 329.483 4.93698 -3.64877 0
M  V30 3366 C 330.854 4.86942 -3.8378 0
M  V30 3367 C 332.909 4.21724 -2.64675 0
M  V30 3368 C 331.612 5.18158 -4.98904 0
M  V30 3369 C 333.638 4.54049 -3.78937 0
M  V30 3370 C 333 5.01525 -4.94623 0
M  V30 3371 H 329.099 0.76756 -0.149583 0
M  V30 3372 H 331.683 1.69784 -0.952976 0
M  V30 3373 H 329.854 3.87046 0.324057 0
M  V30 3374 H 331.586 4.0443 0.147808 0
M  V30 3375 H 328.341 4.36128 -1.84633 0
M  V30 3376 H 328.765 5.20635 -4.32744 0
M  V30 3377 H 333.407 3.84228 -1.76433 0
M  V30 3378 H 331.125 5.54562 -5.87781 0
M  V30 3379 H 334.711 4.41795 -3.78561 0
M  V30 3380 H 333.591 5.26065 -5.81572 0
M  V30 3381 N 331.094 0.475555 1.50254 0
M  V30 3382 C 332.027 -0.362381 2.25304 0
M  V30 3383 C 333.005 -0.992393 1.28803 0
M  V30 3384 O 334.189 -1.02746 1.58036 0
M  V30 3385 C 331.316 -1.50813 3.03271 0
M  V30 3386 C 330.362 -0.995044 4.1473 0
M  V30 3387 S 331.195 0.0938436 5.35418 0
M  V30 3388 C 332.351 -1.05567 6.16933 0
M  V30 3389 H 332.584 0.274686 2.96028 0
M  V30 3390 H 330.117 0.260495 1.52187 0
M  V30 3391 H 332.075 -2.16476 3.48781 0
M  V30 3392 H 330.736 -2.11672 2.32064 0
M  V30 3393 H 329.929 -1.85293 4.68703 0
M  V30 3394 H 329.531 -0.416052 3.71679 0
M  V30 3395 H 331.823 -1.96636 6.48337 0
M  V30 3396 H 332.766 -0.555109 7.05921 0
M  V30 3397 H 333.174 -1.31151 5.49053 0
M  V30 3398 N 332.573 -1.56217 0.208337 0
M  V30 3399 C 333.85 -1.89739 -0.475234 0
M  V30 3400 C 334.23 -1.1238 -1.78701 0
M  V30 3401 O 333.578 -0.228979 -2.2735 0
M  V30 3402 C 333.788 -3.42289 -0.681101 0
M  V30 3403 C 335.136 -4.12789 -0.994507 0
M  V30 3404 O 336.16 -3.47814 -0.768357 0
M  V30 3405 O 335.019 -5.27649 -1.42299 0
M  V30 3406 H 332.113 -0.788478 -0.249461 0
M  V30 3407 H 334.659 -1.67855 0.249538 0
M  V30 3408 H 333.431 -3.90534 0.244722 0
M  V30 3409 H 333.054 -3.69909 -1.45785 0
M  V30 3410 N 334.051 0.0651679 -1.57465 0
M  V30 3411 C 334.998 1.07675 -2.04144 0
M  V30 3412 C 335.968 1.38071 -0.923335 0
M  V30 3413 O 337.153 1.49026 -1.19146 0
M  V30 3414 C 334.293 2.38337 -2.49579 0
M  V30 3415 C 333.406 2.14413 -3.75035 0
M  V30 3416 C 332.541 3.38686 -4.09225 0
M  V30 3417 C 331.58 3.10156 -5.27702 0
M  V30 3418 N 330.717 4.26778 -5.57499 0
M  V30 3419 H 335.557 0.671716 -2.90331 0
M  V30 3420 H 333.094 0.3201 -1.43575 0
M  V30 3421 H 335.052 3.14632 -2.73975 0
M  V30 3422 H 333.682 2.7663 -1.6636 0
M  V30 3423 H 332.734 1.2878 -3.57939 0
M  V30 3424 H 334.046 1.89344 -4.61466 0
M  V30 3425 H 333.2 4.23373 -4.34558 0
M  V30 3426 H 331.939 3.66837 -3.21374 0
M  V30 3427 H 330.944 2.23866 -5.02159 0
M  V30 3428 H 332.169 2.8332 -6.17176 0
M  V30 3429 H 330.115 4.54948 -4.72608 0
M  V30 3430 H 330.032 4.05005 -6.38362 0
M  V30 3431 H 331.3 5.12443 -5.87386 0
M  V30 3432 N 335.529 1.53961 0.336706 0
M  V30 3433 C 336.439 1.85432 1.43708 0
M  V30 3434 C 337.455 0.745053 1.57242 0
M  V30 3435 O 338.631 1.03804 1.72588 0
M  V30 3436 C 335.696 2.06349 2.78605 0
M  V30 3437 C 334.757 3.30191 2.74358 0
M  V30 3438 C 333.99 3.50101 4.02822 0
M  V30 3439 O 334.213 2.7371 5.00439 0
M  V30 3440 O 333.147 4.43547 4.06878 0
M  V30 3441 H 336.973 2.78975 1.20028 0
M  V30 3442 H 334.558 1.39701 0.52952 0
M  V30 3443 H 336.44 2.21513 3.58483 0
M  V30 3444 H 335.115 1.15995 3.02203 0
M  V30 3445 H 334.022 3.20425 1.93078 0
M  V30 3446 H 335.355 4.2056 2.55715 0
M  V30 3447 N 337.007 -0.598083 1.45811 0
M  V30 3448 C 337.954 -1.7082 1.55207 0
M  V30 3449 C 338.924 -1.61278 0.39732 0
M  V30 3450 O 340.109 -1.80717 0.612038 0
M  V30 3451 C 337.249 -3.09144 1.53376 0
M  V30 3452 C 336.362 -3.29423 2.79472 0
M  V30 3453 C 335.497 -4.57907 2.69248 0
M  V30 3454 C 334.536 -4.71476 3.90354 0
M  V30 3455 N 333.673 -5.9127 3.78608 0
M  V30 3456 H 338.513 -1.62125 2.50039 0
M  V30 3457 H 336.05 -0.790389 1.24062 0
M  V30 3458 H 338.008 -3.89186 1.50301 0
M  V30 3459 H 336.638 -3.16773 0.620876 0
M  V30 3460 H 335.69 -2.43091 2.92594 0
M  V30 3461 H 337.002 -3.3532 3.69272 0
M  V30 3462 H 336.156 -5.46157 2.64192 0
M  V30 3463 H 334.895 -4.54423 1.77063 0
M  V30 3464 H 333.9 -3.81648 3.95759 0
M  V30 3465 H 335.125 -4.76751 4.83617 0
M  V30 3466 H 333.071 -5.88813 2.89199 0
M  V30 3467 H 332.988 -5.98369 4.6205 0
M  V30 3468 H 334.256 -6.81992 3.77501 0
M  V30 3469 N 338.485 -1.33259 -0.841409 0
M  V30 3470 C 339.395 -1.25332 -1.98316 0
M  V30 3471 C 340.411 -0.164364 -1.73222 0
M  V30 3472 O 341.587 -0.387486 -1.97637 0
M  V30 3473 C 338.652 -0.990078 -3.32262 0
M  V30 3474 C 337.713 -2.16879 -3.70489 0
M  V30 3475 C 336.946 -1.91801 -4.98044 0
M  V30 3476 O 337.169 -0.867075 -5.63771 0
M  V30 3477 O 336.103 -2.78267 -5.33714 0
M  V30 3478 H 339.929 -2.21344 -2.07944 0
M  V30 3479 H 337.514 -1.1328 -0.974058 0
M  V30 3480 H 339.396 -0.860321 -4.12524 0
M  V30 3481 H 338.071 -0.0602155 -3.23644 0
M  V30 3482 H 336.978 -2.35407 -2.90748 0
M  V30 3483 H 338.311 -3.0819 -3.8377 0
M  V30 3484 N 339.963 1.05934 -1.16686 0
M  V30 3485 C 340.873 2.17014 -0.891183 0
M  V30 3486 C 341.889 1.73453 0.137907 0
M  V30 3487 O 343.065 2.01361 -0.039592 0
M  V30 3488 C 340.13 3.44384 -0.400099 0
M  V30 3489 C 339.191 4.02433 -1.49486 0
M  V30 3490 C 338.424 5.23723 -1.02711 0
M  V30 3491 O 338.647 5.7027 0.121716 0
M  V30 3492 O 337.581 5.7382 -1.81699 0
M  V30 3493 H 341.407 2.43113 -1.82015 0
M  V30 3494 H 338.992 1.15541 -0.947132 0
M  V30 3495 H 340.874 4.21189 -0.133392 0
M  V30 3496 H 339.549 3.19802 0.500817 0
M  V30 3497 H 338.456 3.27102 -1.81535 0
M  V30 3498 H 339.789 4.31317 -2.37121 0
M  V30 3499 N 341.441 0.965919 1.2453 0
M  V30 3500 C 342.666 0.643971 1.97149 0
M  V30 3501 C 343.091 -0.779487 1.71189 0
M  V30 3502 O 342.449 -1.5288 0.974553 0
M  V30 3503 C 342.497 0.922557 3.48599 0
M  V30 3504 O 341.601 0.00707672 4.12399 0
M  V30 3505 H 340.942 0.243647 0.617683 0
M  V30 3506 H 343.472 1.29558 1.58353 0
M  V30 3507 H 343.482 0.853373 3.98976 0
M  V30 3508 H 342.157 1.95996 3.66822 0
M  V30 3509 H 340.734 0.12943 3.72675 0
M  V30 3510 N 342.919 -1.39368 0.735821 0
M  V30 3511 C 343.852 -2.28155 0.0451175 0
M  V30 3512 C 344.83 -1.44433 -0.746852 0
M  V30 3513 O 346.014 -1.73823 -0.729237 0
M  V30 3514 C 343.141 -3.253 -0.943266 0
M  V30 3515 C 342.187 -4.25826 -0.239685 0
M  V30 3516 S 343.02 -5.25166 1.04693 0
M  V30 3517 C 344.176 -6.2587 0.0611639 0
M  V30 3518 H 344.409 -2.86388 0.79807 0
M  V30 3519 H 341.942 -1.45104 0.527653 0
M  V30 3520 H 343.9 -3.81789 -1.50824 0
M  V30 3521 H 342.561 -2.66085 -1.66906 0
M  V30 3522 H 341.754 -4.94229 -0.987596 0
M  V30 3523 H 341.356 -3.73141 0.253274 0
M  V30 3524 H 343.648 -6.73007 -0.778941 0
M  V30 3525 H 344.591 -7.04508 0.712362 0
M  V30 3526 H 344.999 -5.63639 -0.311602 0
M  V30 3527 N 344.397 -0.483516 -1.5 0
M  V30 3528 C 345.344 0.304164 -2.28787 0
M  V30 3529 C 346.314 0.976114 -1.34392 0
M  V30 3530 O 347.499 0.986156 -1.63339 0
M  V30 3531 C 344.639 1.37298 -3.16612 0
M  V30 3532 C 343.752 0.714561 -4.26049 0
M  V30 3533 C 342.887 1.76232 -5.01114 0
M  V30 3534 C 341.926 1.08483 -6.0241 0
M  V30 3535 N 341.063 2.076 -6.70706 0
M  V30 3536 H 345.903 -0.373981 -2.95644 0
M  V30 3537 H 343.44 -0.196275 -1.45785 0
M  V30 3538 H 345.398 2.00445 -3.65893 0
M  V30 3539 H 344.028 2.02012 -2.51776 0
M  V30 3540 H 343.08 -0.0297798 -3.80388 0
M  V30 3541 H 344.392 0.180383 -4.98474 0
M  V30 3542 H 343.546 2.46929 -5.54176 0
M  V30 3543 H 342.285 2.33033 -4.28424 0
M  V30 3544 H 341.29 0.363545 -5.48597 0
M  V30 3545 H 342.515 0.523551 -6.77079 0
M  V30 3546 H 340.461 2.63394 -6.00799 0
M  V30 3547 H 340.378 1.59201 -7.39047 0
M  V30 3548 H 341.646 2.77639 -7.2838 0
M  V30 3549 N 345.875 1.56104 -0.216619 0
M  V30 3550 C 346.785 2.23694 0.706982 0
M  V30 3551 C 347.801 1.24295 1.21765 0
M  V30 3552 O 348.977 1.57094 1.2603 0
M  V30 3553 C 346.042 2.8998 1.90033 0
M  V30 3554 C 345.103 4.04708 1.43213 0
M  V30 3555 C 344.336 4.67824 2.56859 0
M  V30 3556 O 344.559 4.29913 3.74874 0
M  V30 3557 O 343.493 5.56905 2.28343 0
M  V30 3558 H 347.319 3.03272 0.161235 0
M  V30 3559 H 344.904 1.49394 0.0136177 0
M  V30 3560 H 346.786 3.31837 2.59735 0
M  V30 3561 H 345.461 2.13365 2.43428 0
M  V30 3562 H 344.368 3.6743 0.70327 0
M  V30 3563 H 345.701 4.83051 0.944615 0
M  V30 3564 N 347.353 -0.0568162 1.57498 0
M  V30 3565 C 348.581 -0.765626 1.92213 0
M  V30 3566 C 348.996 -1.70353 0.813961 0
M  V30 3567 O 348.353 -1.81268 -0.211701 0
M  V30 3568 C 348.404 -1.5465 3.2675 0
M  V30 3569 O 348.125 -0.646278 4.33307 0
M  V30 3570 C 349.626 -2.35497 3.75574 0
M  V30 3571 H 346.846 -0.216835 0.634999 0
M  V30 3572 H 349.39 -0.0226146 2.04487 0
M  V30 3573 H 347.545 -2.24165 3.15957 0
M  V30 3574 H 347.959 -1.19093 5.108 0
M  V30 3575 H 349.433 -2.85722 4.72299 0
M  V30 3576 H 349.91 -3.15692 3.05344 0
M  V30 3577 H 350.516 -1.7111 3.8936 0
M  V30 3578 N 348.832 -1.54138 -0.328536 0
M  V30 3579 C 349.762 -1.86167 -1.40939 0
M  V30 3580 C 350.743 -0.718044 -1.54202 0
M  V30 3581 O 351.928 -0.971328 -1.68163 0
M  V30 3582 C 349.058 -2.08461 -2.77779 0
M  V30 3583 C 348.012 -3.24299 -2.7931 0
M  V30 3584 C 347.338 -3.31955 -4.19178 0
M  V30 3585 C 348.638 -4.62065 -2.43502 0
M  V30 3586 H 350.332 -2.76689 -1.14383 0
M  V30 3587 H 347.878 -1.33132 -0.548806 0
M  V30 3588 H 349.831 -2.29453 -3.53454 0
M  V30 3589 H 348.555 -1.14684 -3.05802 0
M  V30 3590 H 347.214 -3.03187 -2.0609 0
M  V30 3591 H 346.862 -2.35745 -4.44335 0
M  V30 3592 H 346.562 -4.09805 -4.2111 0
M  V30 3593 H 348.086 -3.55175 -4.96672 0
M  V30 3594 H 349.5 -4.8297 -3.08889 0
M  V30 3595 H 347.897 -5.42429 -2.56693 0
M  V30 3596 H 348.967 -4.64652 -1.38659 0
M  V30 3597 N 350.31 0.590341 -1.46126 0
M  V30 3598 C 351.726 0.912917 -1.30912 0
M  V30 3599 C 351.926 1.99616 -0.274893 0
M  V30 3600 O 350.982 2.50397 0.325197 0
M  V30 3601 C 352.295 1.3375 -2.69317 0
M  V30 3602 C 353.843 1.45077 -2.77348 0
M  V30 3603 C 354.318 1.90904 -4.16317 0
M  V30 3604 N 355.809 1.9811 -4.18696 0
M  V30 3605 C 356.544 2.34828 -5.23109 0
M  V30 3606 N 356.04 2.70393 -6.37856 0
M  V30 3607 N 357.833 2.35317 -5.10473 0
M  V30 3608 H 349.984 -0.125358 -2.1203 0
M  V30 3609 H 352.247 0.00658481 -0.947977 0
M  V30 3610 H 351.953 0.615614 -3.4627 0
M  V30 3611 H 351.827 2.30058 -2.9892 0
M  V30 3612 H 354.214 2.16353 -2.00687 0
M  V30 3613 H 354.295 0.4704 -2.51438 0
M  V30 3614 H 353.939 1.20209 -4.9347 0
M  V30 3615 H 353.869 2.89886 -4.39629 0
M  V30 3616 H 356.36 1.73146 -3.359 0
M  V30 3617 H 356.673 2.97341 -7.13308 0
M  V30 3618 H 355.018 2.68048 -6.41229 0
M  V30 3619 H 358.209 2.0695 -4.19868 0
M  V30 3620 H 358.382 2.63605 -5.9196 0
M  V30 3621 N 351.788 1.33704 0.83433 0
M  V30 3622 C 353.037 1.24763 1.58484 0
M  V30 3623 C 353.35 -0.183775 1.94735 0
M  V30 3624 O 354.556 -0.395234 2.68608 0
M  V30 3625 C 353.012 2.18638 2.85876 0
M  V30 3626 C 352.62 3.66974 2.56971 0
M  V30 3627 C 354.364 2.18581 3.63899 0
M  V30 3628 C 352.271 4.5275 3.80488 0
M  V30 3629 H 351.201 0.463425 0.594772 0
M  V30 3630 H 353.852 1.58797 0.919551 0
M  V30 3631 H 352.234 1.77542 3.5397 0
M  V30 3632 H 353.408 4.16538 1.9706 0
M  V30 3633 H 351.723 3.69366 1.92244 0
M  V30 3634 H 354.32 2.79894 4.55591 0
M  V30 3635 H 354.663 1.18207 3.99165 0
M  V30 3636 H 355.196 2.58062 3.02735 0
M  V30 3637 H 351.935 5.54017 3.5035 0
M  V30 3638 H 351.455 4.07927 4.39722 0
M  V30 3639 H 353.134 4.66784 4.4802 0
M  V30 3640 N 353.266 -1.05314 1.17247 0
M  V30 3641 C 354.682 -1.30452 0.919473 0
M  V30 3642 C 354.882 -1.9703 -0.42209 0
M  V30 3643 O 353.938 -2.24311 -1.15935 0
M  V30 3644 C 355.251 -2.17551 2.07586 0
M  V30 3645 C 356.799 -2.30937 2.11275 0
M  V30 3646 C 357.274 -3.21396 3.26296 0
M  V30 3647 N 358.765 -3.28981 3.26076 0
M  V30 3648 C 359.5 -3.99095 4.11716 0
M  V30 3649 N 358.996 -4.71648 5.07465 0
M  V30 3650 N 360.789 -3.95247 3.9967 0
M  V30 3651 H 352.94 -0.604988 2.03602 0
M  V30 3652 H 355.203 -0.329368 0.888944 0
M  V30 3653 H 354.909 -1.75921 3.0454 0
M  V30 3654 H 354.783 -3.18182 2.02584 0
M  V30 3655 H 357.17 -2.71809 1.14907 0
M  V30 3656 H 357.251 -1.2994 2.20339 0
M  V30 3657 H 356.895 -2.81238 4.22927 0
M  V30 3658 H 356.825 -4.22395 3.14467 0
M  V30 3659 H 359.316 -2.77286 2.5675 0
M  V30 3660 H 359.629 -5.22705 5.6921 0
M  V30 3661 H 357.974 -4.70594 5.11435 0
M  V30 3662 H 361.165 -3.37691 3.24164 0
M  V30 3663 H 361.338 -4.4962 4.66632 0
M  V30 3664 N 354.744 -0.972509 -1.24016 0
M  V30 3665 C 356.16 -0.679827 -1.44397 0
M  V30 3666 C 356.36 0.756716 -1.86751 0
M  V30 3667 O 355.416 1.53007 -2.00861 0
M  V30 3668 C 356.729 -1.66803 -2.50195 0
M  V30 3669 C 358.277 -1.68119 -2.64017 0
M  V30 3670 C 358.752 -2.65748 -3.73017 0
M  V30 3671 N 360.243 -2.64219 -3.8045 0
M  V30 3672 C 360.978 -3.36433 -4.64328 0
M  V30 3673 N 360.474 -4.1818 -5.52356 0
M  V30 3674 N 362.267 -3.25235 -4.58453 0
M  V30 3675 H 354.418 -1.90059 -0.948228 0
M  V30 3676 H 356.681 -0.818527 -0.478245 0
M  V30 3677 H 356.387 -2.69498 -2.25973 0
M  V30 3678 H 356.261 -1.4446 -3.48441 0
M  V30 3679 H 358.648 -0.661319 -2.87594 0
M  V30 3680 H 358.729 -1.94525 -1.66113 0
M  V30 3681 H 358.373 -3.67872 -3.50189 0
M  V30 3682 H 358.303 -2.36619 -4.70446 0
M  V30 3683 H 360.794 -2.04887 -3.17537 0
M  V30 3684 H 361.107 -4.70157 -6.13329 0
M  V30 3685 H 359.452 -4.22273 -5.52006 0
M  V30 3686 H 362.643 -2.60829 -3.88698 0
M  V30 3687 H 362.816 -3.81776 -5.23594 0
M  V30 3688 N 356.222 1.38976 -0.743202 0
M  V30 3689 C 357.152 2.33171 -0.123873 0
M  V30 3690 C 358.133 1.54336 0.71516 0
M  V30 3691 O 359.318 1.82696 0.658467 0
M  V30 3692 C 356.448 3.38474 0.777978 0
M  V30 3693 C 355.402 4.27979 0.0424758 0
M  V30 3694 C 354.728 5.2405 1.06189 0
M  V30 3695 C 356.028 5.10155 -1.1198 0
M  V30 3696 H 357.722 2.85213 -0.910709 0
M  V30 3697 H 355.268 1.37133 -0.439388 0
M  V30 3698 H 357.221 4.03328 1.22084 0
M  V30 3699 H 355.945 2.84891 1.59702 0
M  V30 3700 H 354.604 3.64616 -0.380853 0
M  V30 3701 H 354.252 4.66758 1.87472 0
M  V30 3702 H 353.952 5.84785 0.574485 0
M  V30 3703 H 355.476 5.9178 1.50428 0
M  V30 3704 H 356.89 5.68307 -0.75499 0
M  V30 3705 H 355.287 5.80073 -1.53738 0
M  V30 3706 H 356.357 4.44504 -1.93764 0
M  V30 3707 N 357.7 0.491464 1.49741 0
M  V30 3708 C 358.948 -0.0563141 2.02022 0
M  V30 3709 C 359.269 -1.38363 1.37407 0
M  V30 3710 O 358.539 -1.88702 0.526166 0
M  V30 3711 H 357.119 -0.0238014 0.746621 0
M  V30 3712 H 359.781 0.646533 1.83864 0
M  V30 3713 H 358.877 -0.192967 3.11503 0
M  V30 3714 N 359.178 -1.55987 0.224894 0
M  V30 3715 C 360.088 -2.24066 -0.69511 0
M  V30 3716 C 361.104 -1.24939 -1.21104 0
M  V30 3717 O 362.28 -1.5776 -1.25195 0
M  V30 3718 C 359.345 -2.90983 -1.88493 0
M  V30 3719 C 358.406 -4.05462 -1.41064 0
M  V30 3720 C 357.639 -4.69179 -2.54375 0
M  V30 3721 O 357.862 -4.31895 -3.72589 0
M  V30 3722 O 356.796 -5.58108 -2.25386 0
M  V30 3723 H 360.622 -3.03353 -0.145149 0
M  V30 3724 H 358.207 -1.49399 -0.00569476 0
M  V30 3725 H 360.089 -3.33209 -2.57972 0
M  V30 3726 H 358.764 -2.14653 -2.42293 0
M  V30 3727 H 357.671 -3.67798 -0.683774 0
M  V30 3728 H 359.004 -4.83545 -0.918985 0
M  V30 3729 N 360.656 0.0484629 -1.57525 0
M  V30 3730 C 362.067 0.597486 -1.76881 0
M  V30 3731 C 362.418 1.76664 -0.853475 0
M  V30 3732 O 361.543 2.16357 -0.0433656 0
M  V30 3733 C 362.138 1.09066 -3.20765 0
M  V30 3734 C 360.697 1.58535 -3.41385 0
M  V30 3735 C 359.844 0.514868 -2.72478 0
M  V30 3736 H 362.795 -0.177758 -1.57701 0
M  V30 3737 H 362.816 1.95875 -3.2621 0
M  V30 3738 H 362.328 0.239521 -3.8736 0
M  V30 3739 H 360.429 2.45898 -2.79937 0
M  V30 3740 H 360.542 1.64622 -4.49929 0
M  V30 3741 H 358.906 0.965407 -2.35695 0
M  V30 3742 H 359.689 -0.32648 -3.41744 0
M  V30 3743 N 362.134 1.5431 0.320358 0
M  V30 3744 C 363.044 1.86946 1.41734 0
M  V30 3745 C 364.06 0.761689 1.56443 0
M  V30 3746 O 365.236 1.05629 1.71477 0
M  V30 3747 C 362.301 2.09293 2.76401 0
M  V30 3748 C 361.362 3.33082 2.70841 0
M  V30 3749 C 360.595 3.54353 3.99086 0
M  V30 3750 O 360.818 2.79002 4.97508 0
M  V30 3751 O 359.752 4.47838 4.0215 0
M  V30 3752 H 363.578 2.80232 1.17062 0
M  V30 3753 H 361.163 1.40255 0.514673 0
M  V30 3754 H 363.045 2.25303 3.56113 0
M  V30 3755 H 361.72 1.19194 3.00956 0
M  V30 3756 H 360.627 3.22454 1.89668 0
M  V30 3757 H 361.96 4.23249 2.5124 0
M  V30 3758 N 363.613 -0.582584 1.46437 0
M  V30 3759 C 364.89 -1.34276 1.4223 0
M  V30 3760 C 365.27 -2.10835 0.10583 0
M  V30 3761 O 364.618 -2.09485 -0.912596 0
M  V30 3762 C 364.828 -2.26865 2.65204 0
M  V30 3763 C 366.176 -2.88691 3.11356 0
M  V30 3764 O 367.2 -2.37178 2.65753 0
M  V30 3765 O 366.059 -3.82255 3.90568 0
M  V30 3766 H 363.153 -0.603326 0.565621 0
M  V30 3767 H 365.699 -0.603591 1.58603 0
M  V30 3768 H 364.471 -1.69724 3.52576 0
M  V30 3769 H 364.094 -3.08122 2.5129 0
M  V30 3770 N 365.091 -1.34144 -0.827227 0
M  V30 3771 C 366.331 -1.27603 -1.59677 0
M  V30 3772 C 366.695 0.153035 -1.91389 0
M  V30 3773 O 367.896 0.342566 -2.66608 0
M  V30 3774 C 366.167 -2.13784 -2.86411 0
M  V30 3775 S 367.726 -2.24552 -3.76991 0
M  V30 3776 H 364.544 -0.453789 -0.547354 0
M  V30 3777 H 367.146 -1.69309 -0.977479 0
M  V30 3778 H 365.85 -3.16627 -2.61104 0
M  V30 3779 H 365.381 -1.72959 -3.5334 0
M  V30 3780 H 367.396 -1.41514 -4.75593 0
M  V30 3781 N 366.569 1.04691 -1.17803 0
M  V30 3782 C 367.532 2.10724 -0.901545 0
M  V30 3783 C 368.532 1.6042 0.110437 0
M  V30 3784 O 369.722 1.7377 -0.122303 0
M  V30 3785 C 366.854 3.39084 -0.351409 0
M  V30 3786 H 368.047 2.36686 -1.84174 0
M  V30 3787 H 365.6 1.21015 -0.98919 0
M  V30 3788 H 366.335 3.18782 0.59569 0
M  V30 3789 H 366.12 3.76909 -1.08083 0
M  V30 3790 H 367.61 4.17227 -0.176451 0
M  V30 3791 N 368.047 0.979072 1.23499 0
M  V30 3792 C 369.295 0.645941 1.91499 0
M  V30 3793 C 369.616 -0.822948 1.76784 0
M  V30 3794 O 368.886 -1.58854 1.14639 0
M  V30 3795 H 367.466 0.235919 0.708767 0
M  V30 3796 H 370.128 1.2426 1.50152 0
M  V30 3797 H 369.224 0.896411 2.9895 0
M  V30 3798 N 369.525 -1.3858 0.750561 0
M  V30 3799 C 370.774 -1.99424 0.302172 0
M  V30 3800 C 371.087 -1.60254 -1.12152 0
M  V30 3801 O 372.293 -2.14046 -1.67023 0
M  V30 3802 C 370.749 -3.56558 0.489307 0
M  V30 3803 C 370.357 -4.04682 1.92189 0
M  V30 3804 C 372.101 -4.24374 0.103478 0
M  V30 3805 C 370.008 -5.54446 2.05775 0
M  V30 3806 H 368.938 -0.746046 0.10923 0
M  V30 3807 H 371.589 -1.58383 0.92667 0
M  V30 3808 H 369.971 -3.95472 -0.204329 0
M  V30 3809 H 371.145 -3.77065 2.64875 0
M  V30 3810 H 369.46 -3.4958 2.26236 0
M  V30 3811 H 372.057 -5.34384 0.183787 0
M  V30 3812 H 372.4 -4.05468 -0.943481 0
M  V30 3813 H 372.933 -3.90688 0.748854 0
M  V30 3814 H 369.672 -5.78252 3.08714 0
M  V30 3815 H 369.192 -5.83816 1.37546 0
M  V30 3816 H 370.871 -6.20099 1.84626 0
M  V30 3817 N 371.003 -0.499398 -1.49478 0
M  V30 3818 C 372.249 0.0457576 -2.02748 0
M  V30 3819 C 372.582 1.36793 -1.37846 0
M  V30 3820 O 371.857 1.87596 -0.513601 0
M  V30 3821 C 372.14 0.199986 -3.59544 0
M  V30 3822 C 371.993 -1.1452 -4.34977 0
M  V30 3823 C 373.312 0.94137 -4.29914 0
M  V30 3824 H 370.431 0.0151552 -0.736844 0
M  V30 3825 H 373.073 -0.650498 -1.78518 0
M  V30 3826 H 371.223 0.793007 -3.8032 0
M  V30 3827 H 372.895 -1.77697 -4.25701 0
M  V30 3828 H 371.138 -1.73488 -3.97598 0
M  V30 3829 H 371.809 -0.990607 -5.43039 0
M  V30 3830 H 374.285 0.43844 -4.13784 0
M  V30 3831 H 373.161 1.01812 -5.39375 0
M  V30 3832 H 373.422 1.98471 -3.95046 0
M  V30 3833 N 372.481 1.55866 -0.233164 0
M  V30 3834 C 373.706 2.03449 0.402906 0
M  V30 3835 C 374.131 1.11166 1.51736 0
M  V30 3836 O 373.489 0.101996 1.81013 0
M  V30 3837 C 373.537 3.49165 0.9009 0
M  V30 3838 O 372.641 3.60019 2.01147 0
M  V30 3839 H 371.982 0.657913 0.0897025 0
M  V30 3840 H 374.512 2.01493 -0.355201 0
M  V30 3841 H 374.522 3.89716 1.2077 0
M  V30 3842 H 373.197 4.15813 0.0852889 0
M  V30 3843 H 371.774 3.3136 1.71042 0
M  V30 3844 N 373.959 -0.0401083 1.57549 0
M  V30 3845 C 375.206 -0.733125 1.88763 0
M  V30 3846 C 375.534 -1.75946 0.829058 0
M  V30 3847 O 374.789 -1.94949 -0.171323 0
M  V30 3848 C 375.088 -1.44902 3.26708 0
M  V30 3849 C 374.754 -0.559707 4.47413 0
M  V30 3850 C 373.416 -0.314731 4.8017 0
M  V30 3851 C 375.768 0.0549743 5.21171 0
M  V30 3852 C 373.096 0.553886 5.8408 0
M  V30 3853 C 375.448 0.911229 6.26003 0
M  V30 3854 C 374.112 1.16577 6.57241 0
M  V30 3855 H 373.382 -0.268269 0.690733 0
M  V30 3856 H 376.029 0.00679408 1.91499 0
M  V30 3857 H 374.334 -2.26197 3.1991 0
M  V30 3858 H 376.031 -1.99058 3.48105 0
M  V30 3859 H 372.621 -0.760793 4.21794 0
M  V30 3860 H 376.805 -0.121344 4.96152 0
M  V30 3861 H 372.061 0.759518 6.06664 0
M  V30 3862 H 376.235 1.3941 6.82303 0
M  V30 3863 H 373.862 1.84058 7.37582 0
M  V30 3864 N 375.437 -1.54477 -0.31217 0
M  V30 3865 C 376.367 -1.87652 -1.38957 0
M  V30 3866 C 377.348 -0.734358 -1.53431 0
M  V30 3867 O 378.533 -0.98911 -1.67123 0
M  V30 3868 C 375.663 -2.11396 -2.75552 0
M  V30 3869 C 374.617 -3.27243 -2.75855 0
M  V30 3870 C 373.943 -3.36382 -4.15633 0
M  V30 3871 C 375.243 -4.64622 -2.38587 0
M  V30 3872 H 376.937 -2.77887 -1.11442 0
M  V30 3873 H 374.483 -1.33707 -0.534655 0
M  V30 3874 H 376.436 -2.33189 -3.51 0
M  V30 3875 H 375.16 -1.17921 -3.04569 0
M  V30 3876 H 373.819 -3.05356 -2.02863 0
M  V30 3877 H 373.467 -2.40445 -4.41809 0
M  V30 3878 H 373.167 -4.14249 -4.1674 0
M  V30 3879 H 374.691 -3.60422 -4.92877 0
M  V30 3880 H 376.105 -4.86219 -3.03749 0
M  V30 3881 H 374.502 -5.45121 -2.50925 0
M  V30 3882 H 375.572 -4.66097 -1.33723 0
M  V30 3883 N 376.915 0.57481 -1.46744 0
M  V30 3884 C 378.155 1.34369 -1.54027 0
M  V30 3885 C 378.519 1.91051 -0.190642 0
M  V30 3886 O 379.72 2.68444 -0.138255 0
M  V30 3887 C 377.991 2.43706 -2.61423 0
M  V30 3888 S 379.55 3.30915 -2.88167 0
M  V30 3889 H 376.368 0.45768 -0.544105 0
M  V30 3890 H 378.97 0.659959 -1.84024 0
M  V30 3891 H 377.674 2.0047 -3.58106 0
M  V30 3892 H 377.205 3.16842 -2.33184 0
M  V30 3893 H 379.22 4.42742 -2.24039 0
M  V30 3894 N 378.394 1.34581 0.820102 0
M  V30 3895 C 379.619 1.30333 1.61332 0
M  V30 3896 C 380.044 -0.119339 1.87721 0
M  V30 3897 O 379.402 -1.08197 1.45475 0
M  V30 3898 C 379.45 2.10258 2.92957 0
M  V30 3899 O 378.554 1.47404 3.85157 0
M  V30 3900 H 377.895 0.447488 0.490561 0
M  V30 3901 H 380.425 1.77425 1.01889 0
M  V30 3902 H 380.435 2.21718 3.42498 0
M  V30 3903 H 379.11 3.13693 2.73074 0
M  V30 3904 H 377.687 1.44703 3.43679 0
M  V30 3905 N 379.872 -1.04064 1.18357 0
M  V30 3906 C 380.782 -2.15569 0.925596 0
M  V30 3907 C 381.798 -1.7365 -0.110295 0
M  V30 3908 O 382.974 -2.01273 0.0716218 0
M  V30 3909 C 380.039 -3.43704 0.454836 0
M  V30 3910 C 379.1 -4.00004 1.55869 0
M  V30 3911 C 378.333 -5.22023 1.1103 0
M  V30 3912 O 378.556 -5.70392 -0.0309756 0
M  V30 3913 O 377.49 -5.70856 1.90805 0
M  V30 3914 H 381.316 -2.40187 1.8586 0
M  V30 3915 H 378.901 -1.1402 0.965394 0
M  V30 3916 H 380.783 -4.20923 0.200382 0
M  V30 3917 H 379.458 -3.20559 -0.449876 0
M  V30 3918 H 378.365 -3.24172 1.86716 0
M  V30 3919 H 379.698 -4.2749 2.43953 0
M  V30 3920 N 381.35 -0.985608 -1.22978 0
M  V30 3921 C 382.627 -0.573599 -1.87001 0
M  V30 3922 C 383.007 0.949213 -1.88555 0
M  V30 3923 O 382.355 1.82811 -1.37086 0
M  V30 3924 C 382.565 -1.18564 -3.28243 0
M  V30 3925 C 383.913 -1.28163 -4.04796 0
M  V30 3926 O 384.937 -1.13949 -3.37482 0
M  V30 3927 O 383.796 -1.50832 -5.25273 0
M  V30 3928 H 380.89 -0.193868 -0.803955 0
M  V30 3929 H 383.436 -1.08102 -1.30813 0
M  V30 3930 H 382.208 -2.22758 -3.21706 0
M  V30 3931 H 381.831 -0.663363 -3.92027 0
M  V30 3932 N 382.828 1.3818 -0.7579 0
M  V30 3933 C 383.791 2.28764 -0.141286 0
M  V30 3934 C 384.791 1.47388 0.642907 0
M  V30 3935 O 385.981 1.67781 0.468536 0
M  V30 3936 C 383.113 3.31184 0.808069 0
M  V30 3937 H 384.306 2.848 -0.939633 0
M  V30 3938 H 381.859 1.47212 -0.525191 0
M  V30 3939 H 382.594 2.80247 1.63193 0
M  V30 3940 H 382.379 3.91314 0.248104 0
M  V30 3941 H 383.869 3.98909 1.23536 0
M  V30 3942 N 384.306 0.507319 1.49211 0
M  V30 3943 C 385.531 -0.033725 2.07373 0
M  V30 3944 C 385.956 -1.29485 1.36437 0
M  V30 3945 O 385.314 -1.76294 0.423087 0
M  V30 3946 C 385.362 -0.263945 3.59633 0
M  V30 3947 O 384.466 -1.33737 3.90113 0
M  V30 3948 H 383.807 0.0290331 0.663365 0
M  V30 3949 H 386.337 0.708749 1.91932 0
M  V30 3950 H 386.347 -0.493536 4.05004 0
M  V30 3951 H 385.022 0.657424 4.10671 0
M  V30 3952 H 383.599 -1.09224 3.56545 0
M  V30 3953 N 385.784 -1.5574 0.241426 0
M  V30 3954 C 387.014 -2.02913 -0.38857 0
M  V30 3955 C 387.422 -1.12014 -1.52478 0
M  V30 3956 O 386.765 -0.125903 -1.83268 0
M  V30 3957 C 386.827 -3.4636 -0.963075 0
M  V30 3958 C 386.491 -4.56982 0.0401916 0
M  V30 3959 C 387.488 -5.12941 0.847766 0
M  V30 3960 C 385.173 -5.0203 0.164699 0
M  V30 3961 C 387.167 -6.12437 1.76636 0
M  V30 3962 C 384.854 -6.01358 1.0868 0
M  V30 3963 C 385.852 -6.5644 1.88616 0
M  V30 3964 O 385.54 -7.53831 2.79273 0
M  V30 3965 H 385.272 -0.668983 -0.0971452 0
M  V30 3966 H 387.826 -2.02198 0.361248 0
M  V30 3967 H 386.056 -3.44206 -1.76235 0
M  V30 3968 H 387.745 -3.77065 -1.50257 0
M  V30 3969 H 388.511 -4.78974 0.762133 0
M  V30 3970 H 384.39 -4.58824 -0.447411 0
M  V30 3971 H 387.934 -6.55355 2.39071 0
M  V30 3972 H 383.831 -6.34746 1.17338 0
M  V30 3973 H 384.599 -7.71428 2.73572 0
M  V30 3974 N 387.262 0.0317525 -1.57568 0
M  V30 3975 C 388.511 0.722131 -1.8833 0
M  V30 3976 C 388.824 1.76664 -0.839587 0
M  V30 3977 O 390.03 2.50942 -1.03635 0
M  V30 3978 C 388.486 1.33544 -3.34207 0
M  V30 3979 C 388.094 0.327415 -4.46802 0
M  V30 3980 C 389.838 2.00585 -3.7412 0
M  V30 3981 C 387.745 0.948915 -5.83738 0
M  V30 3982 H 386.675 0.273466 -0.702661 0
M  V30 3983 H 389.326 -0.0235811 -1.83485 0
M  V30 3984 H 387.708 2.13077 -3.33788 0
M  V30 3985 H 388.882 -0.441006 -4.58685 0
M  V30 3986 H 387.197 -0.240758 -4.15703 0
M  V30 3987 H 389.794 2.47932 -4.73744 0
M  V30 3988 H 390.137 2.82285 -3.05975 0
M  V30 3989 H 390.67 1.27831 -3.76702 0
M  V30 3990 H 387.409 0.171387 -6.55276 0
M  V30 3991 H 386.929 1.68724 -5.7558 0
M  V30 3992 H 388.608 1.45705 -6.3038 0
M  V30 3993 N 388.74 1.54641 0.303973 0
M  V30 3994 C 389.968 1.77768 1.05858 0
M  V30 3995 C 390.383 0.535722 1.8104 0
M  V30 3996 O 389.74 -0.494337 1.75677 0
M  V30 3997 C 389.791 2.9834 2.04146 0
M  V30 3998 O 389.512 4.17736 1.32015 0
M  V30 3999 C 391.013 3.33832 2.91669 0
M  V30 4000 H 388.233 0.592961 0.314067 0
M  V30 4001 H 390.777 2.01583 0.344149 0
M  V30 4002 H 388.932 2.76742 2.71096 0
M  V30 4003 H 389.346 4.85693 1.97998 0
M  V30 4004 H 390.82 4.21448 3.56491 0
M  V30 4005 H 391.297 2.51857 3.59812 0
M  V30 4006 H 391.903 3.57579 2.30254 0
M  V30 4007 N 390.218 -0.567019 1.47046 0
M  V30 4008 C 391.466 -1.322 1.52864 0
M  V30 4009 C 391.787 -1.94088 0.188388 0
M  V30 4010 O 391.057 -1.7941 -0.786693 0
M  V30 4011 H 389.637 -0.490894 0.563056 0
M  V30 4012 H 392.299 -0.662879 1.83281 0
M  V30 4013 H 391.395 -2.12062 2.2899 0
M  V30 4014 N 391.696 -1.35014 -0.812953 0
M  V30 4015 C 392.606 -1.2951 -1.95613 0
M  V30 4016 C 393.622 -0.20107 -1.72834 0
M  V30 4017 O 394.798 -0.42932 -1.96771 0
M  V30 4018 C 391.863 -1.06033 -3.30088 0
M  V30 4019 C 390.924 -2.24688 -3.65805 0
M  V30 4020 C 390.157 -2.02322 -4.93864 0
M  V30 4021 O 390.38 -0.986464 -5.61805 0
M  V30 4022 O 389.314 -2.89525 -5.27692 0
M  V30 4023 H 393.14 -2.25705 -2.03202 0
M  V30 4024 H 390.725 -1.15321 -0.949811 0
M  V30 4025 H 392.607 -0.94763 -4.10607 0
M  V30 4026 H 391.282 -0.128852 -3.23443 0
M  V30 4027 H 390.189 -2.41521 -2.85689 0
M  V30 4028 H 391.522 -3.16261 -3.77147 0
M  V30 4029 N 393.175 1.03435 -1.18907 0
M  V30 4030 C 394.403 1.80381 -1.01342 0
M  V30 4031 C 394.818 1.83649 0.438005 0
M  V30 4032 O 394.175 1.27655 1.30424 0
M  V30 4033 C 394.226 3.25689 -1.56873 0
M  V30 4034 O 393.947 3.22673 -2.96334 0
M  V30 4035 C 395.448 4.19255 -1.44014 0
M  V30 4036 H 392.668 0.56784 -0.35749 0
M  V30 4037 H 395.212 1.30317 -1.576 0
M  V30 4038 H 393.367 3.72962 -1.04777 0
M  V30 4039 H 393.781 4.13748 -3.22355 0
M  V30 4040 H 395.255 5.19123 -1.87657 0
M  V30 4041 H 395.732 4.37467 -0.389815 0
M  V30 4042 H 396.338 3.77851 -1.95214 0
M  V30 4043 N 394.653 0.992116 1.22453 0
M  V30 4044 C 395.899 0.668523 1.91464 0
M  V30 4045 C 396.232 -0.797313 1.77078 0
M  V30 4046 O 395.507 -1.5765 1.13916 0
M  V30 4047 C 395.79 1.07424 3.43703 0
M  V30 4048 C 395.643 2.59857 3.67143 0
M  V30 4049 C 396.962 0.626891 4.35612 0
M  V30 4050 H 394.081 0.244341 0.695318 0
M  V30 4051 H 396.723 1.2355 1.44345 0
M  V30 4052 H 394.873 0.591816 3.83966 0
M  V30 4053 H 396.545 3.15764 3.3629 0
M  V30 4054 H 394.788 3.01961 3.11451 0
M  V30 4055 H 395.459 2.83296 4.73759 0
M  V30 4056 H 397.935 1.04125 4.02861 0
M  V30 4057 H 396.811 0.939076 5.40807 0
M  V30 4058 H 397.072 -0.472457 4.39568 0
M  V30 4059 N 396.131 -1.37776 0.765217 0
M  V30 4060 C 397.377 -2.00145 0.327072 0
M  V30 4061 C 397.71 -1.60607 -1.09175 0
M  V30 4062 O 396.985 -0.849127 -1.74986 0
M  V30 4063 C 397.268 -3.57109 0.46319 0
M  V30 4064 C 397.121 -4.06576 1.92395 0
M  V30 4065 C 398.44 -4.39888 -0.136473 0
M  V30 4066 H 395.559 -0.727113 0.120316 0
M  V30 4067 H 398.201 -1.63549 0.967039 0
M  V30 4068 H 396.351 -3.88414 -0.0816358 0
M  V30 4069 H 398.023 -3.85864 2.52798 0
M  V30 4070 H 396.266 -3.59011 2.43503 0
M  V30 4071 H 396.937 -5.15639 1.97028 0
M  V30 4072 H 399.413 -4.14803 0.328317 0
M  V30 4073 H 398.289 -5.48899 -0.0110582 0
M  V30 4074 H 398.55 -4.24758 -1.22608 0
M  V30 4075 N 397.609 -0.515225 -1.4894 0
M  V30 4076 C 398.855 0.0242508 -2.02785 0
M  V30 4077 C 399.188 1.35323 -1.39289 0
M  V30 4078 O 398.463 1.87041 -0.533469 0
M  V30 4079 C 398.746 0.16184 -3.59736 0
M  V30 4080 C 398.599 -1.19127 -4.33738 0
M  V30 4081 C 399.918 0.895719 -4.30888 0
M  V30 4082 H 397.037 0.00733914 -0.736963 0
M  V30 4083 H 399.679 -0.669395 -1.77818 0
M  V30 4084 H 397.829 0.752624 -3.8114 0
M  V30 4085 H 399.501 -1.82202 -4.23792 0
M  V30 4086 H 397.744 -1.77695 -3.95736 0
M  V30 4087 H 398.415 -1.04815 -5.41957 0
M  V30 4088 H 400.891 0.394528 -4.14225 0
M  V30 4089 H 399.767 0.960859 -5.40425 0
M  V30 4090 H 400.028 1.9427 -3.97129 0
M  V30 4091 N 399.087 1.5561 -0.249682 0
M  V30 4092 C 400.335 1.98618 0.373548 0
M  V30 4093 C 400.656 1.13919 1.58264 0
M  V30 4094 O 399.926 0.222637 1.94631 0
M  V30 4095 H 398.506 0.733571 0.141006 0
M  V30 4096 H 401.168 1.91748 -0.349117 0
M  V30 4097 H 400.264 3.04584 0.680796 0
M  V30 4098 N 400.565 -0.0233959 1.57583 0
M  V30 4099 C 401.813 -0.711654 1.89156 0
M  V30 4100 C 402.134 -1.75591 0.848096 0
M  V30 4101 O 401.404 -1.95547 -0.117566 0
M  V30 4102 H 399.984 -0.265835 0.698098 0
M  V30 4103 H 402.646 0.0119948 1.94896 0
M  V30 4104 H 401.742 -1.19766 2.88206 0
M  V30 4105 N 402.043 -1.548 -0.295768 0
M  V30 4106 C 403.291 -1.73985 -1.02828 0
M  V30 4107 C 403.612 -0.531406 -1.87619 0
M  V30 4108 O 402.882 0.454221 -1.90561 0
M  V30 4109 H 401.462 -0.641556 -0.382642 0
M  V30 4110 H 404.124 -1.92163 -0.325489 0
M  V30 4111 H 403.22 -2.63129 -1.67838 0
M  V30 4112 N 403.521 0.559213 -1.47345 0
M  V30 4113 C 404.749 1.34194 -1.57479 0
M  V30 4114 C 405.164 1.87463 -0.224261 0
M  V30 4115 O 404.521 1.64888 0.782185 0
M  V30 4116 C 404.572 2.51324 -2.59843 0
M  V30 4117 O 404.293 2.00256 -3.89653 0
M  V30 4118 C 405.794 3.43563 -2.80142 0
M  V30 4119 H 403.014 0.409136 -0.531835 0
M  V30 4120 H 405.558 0.677609 -1.92947 0
M  V30 4121 H 403.713 3.13699 -2.27314 0
M  V30 4122 H 404.127 2.76708 -4.4557 0
M  V30 4123 H 405.601 4.2217 -3.55635 0
M  V30 4124 H 406.078 3.9698 -1.87892 0
M  V30 4125 H 406.684 2.87005 -3.1386 0
M  V30 4126 N 404.999 1.35443 0.805782 0
M  V30 4127 C 406.41 1.25768 1.37983 0
M  V30 4128 C 406.761 -0.10958 1.95894 0
M  V30 4129 O 405.886 -1.01056 1.91355 0
M  V30 4130 C 406.481 2.27727 2.5085 0
M  V30 4131 C 405.04 2.2179 3.04115 0
M  V30 4132 C 404.187 2.13393 1.77084 0
M  V30 4133 H 407.138 1.4656 0.608752 0
M  V30 4134 H 407.159 1.90422 3.29424 0
M  V30 4135 H 406.671 3.27227 2.08671 0
M  V30 4136 H 404.772 1.25703 3.50756 0
M  V30 4137 H 404.885 3.13788 3.62042 0
M  V30 4138 H 403.249 1.59384 1.98668 0
M  V30 4139 H 404.032 3.14755 1.37056 0
M  V30 4140 N 406.477 -1.02803 1.19454 0
M  V30 4141 C 407.702 -1.80378 1.02364 0
M  V30 4142 C 408.127 -1.83282 -0.423007 0
M  V30 4143 O 407.485 -1.25945 -1.30413 0
M  V30 4144 C 407.533 -3.23248 1.59821 0
M  V30 4145 O 406.637 -4.04 0.828105 0
M  V30 4146 H 405.978 -0.556799 0.361761 0
M  V30 4147 H 408.508 -1.29385 1.58495 0
M  V30 4148 H 408.518 -3.73994 1.63073 0
M  V30 4149 H 407.193 -3.2045 2.65113 0
M  V30 4150 H 405.77 -3.62635 0.86891 0
M  V30 4151 N 407.956 -0.998596 -1.21925 0
M  V30 4152 C 409.372 -0.710303 -1.42923 0
M  V30 4153 C 409.572 0.716933 -1.88314 0
M  V30 4154 O 408.628 1.48712 -2.04062 0
M  V30 4155 C 409.941 -1.72072 -2.466 0
M  V30 4156 C 411.489 -1.73681 -2.60392 0
M  V30 4157 C 411.964 -2.73601 -3.67296 0
M  V30 4158 N 413.455 -2.7223 -3.7476 0
M  V30 4159 C 414.19 -3.46206 -4.57087 0
M  V30 4160 N 413.686 -4.29802 -5.43362 0
M  V30 4161 N 415.479 -3.34886 -4.51451 0
M  V30 4162 H 407.63 -1.92028 -0.9077 0
M  V30 4163 H 409.893 -0.828487 -0.460775 0
M  V30 4164 H 409.599 -2.74231 -2.20206 0
M  V30 4165 H 409.473 -1.51818 -3.45299 0
M  V30 4166 H 411.86 -0.722173 -2.86127 0
M  V30 4167 H 411.941 -1.98005 -1.61949 0
M  V30 4168 H 411.585 -3.75217 -3.42307 0
M  V30 4169 H 411.515 -2.46545 -4.65321 0
M  V30 4170 H 414.006 -2.11576 -3.1312 0
M  V30 4171 H 414.319 -4.83061 -6.03218 0
M  V30 4172 H 412.664 -4.33887 -5.42925 0
M  V30 4173 H 415.855 -2.69015 -3.83078 0
M  V30 4174 H 416.028 -3.92796 -5.15379 0
M  V30 4175 N 409.434 1.37368 -0.772513 0
M  V30 4176 C 410.364 2.32856 -0.173304 0
M  V30 4177 C 411.345 1.55818 0.682262 0
M  V30 4178 O 412.53 1.84052 0.619566 0
M  V30 4179 C 409.66 3.40048 0.706007 0
M  V30 4180 C 408.614 4.27973 -0.0483144 0
M  V30 4181 C 407.94 5.26184 0.950491 0
M  V30 4182 C 409.24 5.07665 -1.22776 0
M  V30 4183 H 410.934 2.83217 -0.971002 0
M  V30 4184 H 408.48 1.3617 -0.468377 0
M  V30 4185 H 410.433 4.05827 1.13501 0
M  V30 4186 H 409.157 2.88214 1.53623 0
M  V30 4187 H 407.816 3.63726 -0.458107 0
M  V30 4188 H 407.464 4.7063 1.77529 0
M  V30 4189 H 407.164 5.85872 0.450314 0
M  V30 4190 H 408.688 5.94838 1.37842 0
M  V30 4191 H 410.102 5.66578 -0.875366 0
M  V30 4192 H 408.499 5.76681 -1.66007 0
M  V30 4193 H 409.569 4.40294 -2.03149 0
M  V30 4194 O 410.951 0.664551 1.47194 0
M  V30 4195 H 411.642 0.193541 1.92731 0
M  V30 END ATOM
M  V30 BEGIN BOND
M  V30 END BOND
M  V30 END CTAB
M  END
$$$$
