drugbank_target|Q9BUB5 MAP kinase-interacting serine/threonine-protein kinase 1 (DB12010)
 OpenBabel12092121173D

  0  0  0     0  0            999 V3000
M  V30 BEGIN CTAB
M  V30 COUNTS 7185 7256 0 0 0
M  V30 BEGIN ATOM
M  V30 1 H -0.908 1.98254 -0.117106 0
M  V30 2 N 0 1.576 0 0
M  V30 3 C 0.933 2.03868 1.02534 0
M  V30 4 C 1.911 0.928543 1.3348 0
M  V30 5 O 3.095 1.19667 1.45644 0
M  V30 6 C 0.222 2.43627 2.35294 0
M  V30 7 C -0.732 3.65373 2.2001 0
M  V30 8 S 0.101 5.13292 1.52614 0
M  V30 9 C 1.257 5.56322 2.86805 0
M  V30 10 H 1.49 2.90518 0.631377 0
M  V30 11 H -0.977 1.52953 0.210867 0
M  V30 12 H 0.981 2.67203 3.11629 0
M  V30 13 H -0.358 1.57376 2.7183 0
M  V30 14 H -1.165 3.90944 3.18086 0
M  V30 15 H -1.563 3.418 1.51819 0
M  V30 16 H 0.729 5.58782 3.83104 0
M  V30 17 H 1.672 6.56266 2.65933 0
M  V30 18 H 2.08 4.83886 2.90714 0
M  V30 19 N 1.4781 -0.272755 1.55222 0
M  V30 20 C 2.7241 -1.00581 1.761 0
M  V30 21 C 3.0571 -1.85932 0.560625 0
M  V30 22 O 2.3321 -1.89416 -0.441801 0
M  V30 23 C 2.6151 -1.88816 3.06628 0
M  V30 24 C 2.4681 -1.06457 4.37021 0
M  V30 25 C 3.7871 -2.8752 3.33197 0
M  V30 26 H 0.9061 -0.364244 0.640699 0
M  V30 27 H 3.5481 -0.278189 1.87952 0
M  V30 28 H 1.6981 -2.50856 2.96654 0
M  V30 29 H 3.3701 -0.464863 4.58952 0
M  V30 30 H 1.6131 -0.368043 4.32236 0
M  V30 31 H 2.2841 -1.71514 5.24678 0
M  V30 32 H 4.7601 -2.35615 3.42965 0
M  V30 33 H 3.6361 -3.46399 4.25792 0
M  V30 34 H 3.8971 -3.62657 2.52849 0
M  V30 35 N 2.9562 -1.48159 -0.537278 0
M  V30 36 C 4.1812 -1.59707 -1.32319 0
M  V30 37 C 4.6062 -0.254859 -1.86365 0
M  V30 38 O 3.9642 0.772378 -1.64024 0
M  V30 39 C 4.0122 -2.6412 -2.45505 0
M  V30 40 O 3.1162 -2.20774 -3.48328 0
M  V30 41 H 2.4572 -0.535791 -0.392204 0
M  V30 42 H 4.9872 -1.94092 -0.647268 0
M  V30 43 H 4.9972 -2.85166 -2.91795 0
M  V30 44 H 3.6722 -3.61567 -2.05528 0
M  V30 45 H 2.2492 -2.09911 -3.08207 0
M  V30 46 N 4.4343 0.785586 -1.36625 0
M  V30 47 C 5.6593 1.57963 -1.34397 0
M  V30 48 C 6.0843 1.87964 0.071526 0
M  V30 49 O 5.4423 1.48182 1.0446 0
M  V30 50 C 5.4903 2.87511 -2.17646 0
M  V30 51 O 4.5943 3.81281 -1.57158 0
M  V30 52 H 3.9353 0.479014 -0.459828 0
M  V30 53 H 6.4653 0.973411 -1.79961 0
M  V30 54 H 6.4753 3.36745 -2.30362 0
M  V30 55 H 5.1503 2.65002 -3.20541 0
M  V30 56 H 3.7273 3.39885 -1.53403 0
M  V30 57 N 5.9124 1.20967 1.01018 0
M  V30 58 C 6.8444 0.922059 2.09835 0
M  V30 59 C 7.8574 -0.0927106 1.62536 0
M  V30 60 O 9.0464 0.139127 1.77957 0
M  V30 61 C 6.1464 0.362004 3.36961 0
M  V30 62 C 5.3194 1.42986 4.13369 0
M  V30 63 C 4.3784 0.879976 5.1879 0
M  V30 64 O 3.4044 1.56219 5.47343 0
M  V30 65 N 4.6064 -0.307396 5.79686 0
M  V30 66 H 7.3714 1.8588 2.35093 0
M  V30 67 H 4.9324 1.11422 1.1746 0
M  V30 68 H 6.9244 -0.0201474 4.04695 0
M  V30 69 H 5.4944 -0.479437 3.08902 0
M  V30 70 H 4.7144 1.98608 3.40512 0
M  V30 71 H 6.0024 2.14885 4.61196 0
M  V30 72 H 5.4004 -0.878796 5.58832 0
M  V30 73 H 3.9574 -0.631115 6.48737 0
M  V30 74 N 7.3905 -1.2043 1.01659 0
M  V30 75 C 8.3375 -2.23215 0.586822 0
M  V30 76 C 9.3075 -1.61382 -0.393085 0
M  V30 77 O 10.4925 -1.88544 -0.292525 0
M  V30 78 C 7.6325 -3.45032 -0.0687464 0
M  V30 79 C 6.7455 -4.21296 0.955724 0
M  V30 80 C 5.8805 -5.30507 0.271208 0
M  V30 81 C 4.9195 -5.98515 1.28244 0
M  V30 82 N 4.0565 -6.99316 0.62459 0
M  V30 83 H 8.8965 -2.59336 1.46796 0
M  V30 84 H 6.4335 -1.27431 0.734836 0
M  V30 85 H 8.3915 -4.1459 -0.465965 0
M  V30 86 H 7.0215 -3.09604 -0.913529 0
M  V30 87 H 6.0735 -3.50803 1.4711 0
M  V30 88 H 7.3855 -4.6803 1.72479 0
M  V30 89 H 6.5395 -6.06428 -0.18151 0
M  V30 90 H 5.2785 -4.8481 -0.530163 0
M  V30 91 H 4.2835 -5.21355 1.74554 0
M  V30 92 H 5.5085 -6.46298 2.08509 0
M  V30 93 H 3.4545 -6.55812 -0.156914 0
M  V30 94 H 3.3715 -7.44178 1.33172 0
M  V30 95 H 4.6395 -7.79255 0.195462 0
M  V30 96 N 8.8686 -0.792821 -1.36206 0
M  V30 97 C 9.7986 -0.207853 -2.32573 0
M  V30 98 C 10.7796 0.659055 -1.56813 0
M  V30 99 O 11.9646 0.592176 -1.84951 0
M  V30 100 C 9.0946 0.655449 -3.41059 0
M  V30 101 C 8.0486 -0.111842 -4.27854 0
M  V30 102 C 7.3746 0.872274 -5.27537 0
M  V30 103 C 8.6746 -1.30299 -5.05786 0
M  V30 104 H 10.3686 -1.01294 -2.81744 0
M  V30 105 H 7.9146 -0.48854 -1.3546 0
M  V30 106 H 9.8676 1.07464 -4.07467 0
M  V30 107 H 8.5916 1.49328 -2.90463 0
M  V30 108 H 7.2506 -0.512053 -3.63006 0
M  V30 109 H 6.8986 1.70523 -4.73214 0
M  V30 110 H 6.5986 0.363291 -5.86476 0
M  V30 111 H 8.1226 1.28996 -5.96818 0
M  V30 112 H 9.5366 -0.959379 -5.65216 0
M  V30 113 H 7.9336 -1.7455 -5.74154 0
M  V30 114 H 9.0036 -2.09663 -4.37229 0
M  V30 115 N 10.3467 1.47872 -0.545128 0
M  V30 116 C 11.2567 2.33633 0.212746 0
M  V30 117 C 12.2727 1.4744 0.923983 0
M  V30 118 O 13.4487 1.80393 0.895572 0
M  V30 119 C 10.5137 3.23884 1.23693 0
M  V30 120 C 9.5747 4.25961 0.534417 0
M  V30 121 C 8.8077 5.11899 1.5098 0
M  V30 122 O 9.0307 5.00077 2.7437 0
M  V30 123 O 7.9647 5.92831 1.0409 0
M  V30 124 H 11.7907 2.99714 -0.490416 0
M  V30 125 H 9.3757 1.46235 -0.305871 0
M  V30 126 H 11.2577 3.79666 1.82843 0
M  V30 127 H 9.9327 2.60446 1.92222 0
M  V30 128 H 8.8397 3.73972 -0.0979679 0
M  V30 129 H 10.1727 4.92079 -0.109213 0
M  V30 130 N 11.8248 0.280983 1.55075 0
M  V30 131 C 12.7718 -0.603937 2.22758 0
M  V30 132 C 13.7418 -1.1452 1.20309 0
M  V30 133 O 14.9268 -1.19343 1.48869 0
M  V30 134 C 12.0668 -1.77947 2.95684 0
M  V30 135 C 11.1798 -1.2715 4.12864 0
M  V30 136 C 10.3148 -2.4093 4.7342 0
M  V30 137 C 9.3538 -1.87165 5.82783 0
M  V30 138 N 8.4908 -2.94441 6.37377 0
M  V30 139 H 13.3308 -0.020124 2.97993 0
M  V30 140 H 10.8678 0.00183425 1.471 0
M  V30 141 H 12.8258 -2.47055 3.36184 0
M  V30 142 H 11.4558 -2.33522 2.22861 0
M  V30 143 H 10.5078 -0.473331 3.77444 0
M  V30 144 H 11.8198 -0.837751 4.91715 0
M  V30 145 H 10.9738 -3.18021 5.1667 0
M  V30 146 H 9.7128 -2.87623 3.93859 0
M  V30 147 H 8.7178 -1.08556 5.38976 0
M  V30 148 H 9.9428 -1.41401 6.64216 0
M  V30 149 H 7.8888 -3.40505 5.60707 0
M  V30 150 H 7.8058 -2.55501 7.11516 0
M  V30 151 H 9.0738 -3.71489 6.85285 0
M  V30 152 N 13.3029 -1.57598 0.00835791 0
M  V30 153 C 14.7139 -1.7892 -0.53333 0
M  V30 154 C 15.0649 -0.916609 -1.73473 0
M  V30 155 O 14.1899 -0.121336 -2.1606 0
M  V30 156 C 14.7849 -3.24488 -0.974313 0
M  V30 157 C 13.3439 -3.46878 -1.46125 0
M  V30 158 C 12.4909 -2.74157 -0.416302 0
M  V30 159 H 15.4419 -1.56958 0.234495 0
M  V30 160 H 15.4629 -3.3306 -1.83988 0
M  V30 161 H 14.9749 -3.87972 -0.099718 0
M  V30 162 H 13.0759 -2.8862 -2.35646 0
M  V30 163 H 13.1889 -4.55572 -1.48295 0
M  V30 164 H 11.5529 -2.39022 -0.87981 0
M  V30 165 H 12.3359 -3.40345 0.44947 0
M  V30 166 N 14.781 0.264519 -1.55364 0
M  V30 167 C 16.03 0.992812 -1.75574 0
M  V30 168 C 16.343 1.87142 -0.568979 0
M  V30 169 O 17.549 2.63513 -0.653682 0
M  V30 170 C 16.005 1.81519 -3.10771 0
M  V30 171 C 15.613 0.984839 -4.37041 0
M  V30 172 C 17.357 2.53727 -3.40327 0
M  V30 173 C 15.264 1.80209 -5.63275 0
M  V30 174 H 14.194 0.374412 -0.65447 0
M  V30 175 H 16.845 0.248138 -1.81815 0
M  V30 176 H 15.227 2.60115 -2.98591 0
M  V30 177 H 16.401 0.242455 -4.60162 0
M  V30 178 H 14.716 0.37691 -4.14691 0
M  V30 179 H 17.313 3.15292 -4.3185 0
M  V30 180 H 17.656 3.24447 -2.60845 0
M  V30 181 H 18.189 1.82156 -3.53644 0
M  V30 182 H 14.928 1.13896 -6.45529 0
M  V30 183 H 14.448 2.52022 -5.44284 0
M  V30 184 H 16.127 2.37364 -6.01887 0
M  V30 185 N 16.2591 1.48442 0.529413 0
M  V30 186 C 17.1691 1.6569 1.66084 0
M  V30 187 C 18.1851 0.539432 1.65427 0
M  V30 188 O 19.3611 0.810572 1.84368 0
M  V30 189 C 16.4261 1.69315 3.02545 0
M  V30 190 C 15.4871 2.92694 3.14052 0
M  V30 191 C 14.7201 2.96137 4.44003 0
M  V30 192 O 14.9431 2.07973 5.31134 0
M  V30 193 O 13.8771 3.88312 4.59888 0
M  V30 194 H 17.7031 2.61483 1.54469 0
M  V30 195 H 15.2881 1.3185 0.702567 0
M  V30 196 H 17.1701 1.74217 3.83701 0
M  V30 197 H 15.8451 0.766966 3.14483 0
M  V30 198 H 14.7521 2.93324 2.32189 0
M  V30 199 H 16.0851 3.84699 3.0703 0
M  V30 200 N 17.7372 -0.778329 1.37039 0
M  V30 201 C 18.6702 -1.8984 1.26633 0
M  V30 202 C 19.6482 -1.61923 0.148197 0
M  V30 203 O 20.8322 -1.85742 0.321265 0
M  V30 204 C 17.9592 -3.24916 0.956403 0
M  V30 205 C 17.0052 -3.71752 2.09051 0
M  V30 206 S 17.8382 -3.86201 3.70957 0
M  V30 207 C 18.9942 -5.24135 3.42101 0
M  V30 208 H 19.2272 -1.98377 2.21436 0
M  V30 209 H 16.7602 -0.938738 1.22585 0
M  V30 210 H 18.7182 -4.02936 0.784409 0
M  V30 211 H 17.3792 -3.14089 0.0259713 0
M  V30 212 H 16.5722 -4.69661 1.8285 0
M  V30 213 H 16.1742 -3.00815 2.2223 0
M  V30 214 H 18.4662 -6.09086 2.96682 0
M  V30 215 H 19.4092 -5.55346 4.39314 0
M  V30 216 H 19.8172 -4.91761 2.77185 0
M  V30 217 N 19.2153 -1.21501 -1.00376 0
M  V30 218 C 20.4633 -1.03095 -1.73827 0
M  V30 219 C 20.7843 0.436341 -1.90055 0
M  V30 220 O 20.0543 1.31466 -1.45236 0
M  V30 221 H 18.6343 -0.378487 -0.644016 0
M  V30 222 H 21.2963 -1.52831 -1.20949 0
M  V30 223 H 20.3923 -1.49991 -2.73695 0
M  V30 224 N 20.6934 1.19889 -1.02296 0
M  V30 225 C 21.9184 1.9393 -0.735237 0
M  V30 226 C 22.3434 1.74639 0.698782 0
M  V30 227 O 21.7014 1.04481 1.48167 0
M  V30 228 C 21.7494 3.43916 -1.08417 0
M  V30 229 O 20.8534 4.11917 -0.199446 0
M  V30 230 H 20.1944 0.605645 -0.272196 0
M  V30 231 H 22.7244 1.52137 -1.36804 0
M  V30 232 H 22.7344 3.9456 -1.03856 0
M  V30 233 H 21.4094 3.5728 -2.12894 0
M  V30 234 H 19.9864 3.71666 -0.303136 0
M  V30 235 N 22.1715 0.800033 1.35784 0
M  V30 236 C 23.3965 0.388511 2.03729 0
M  V30 237 C 23.8215 -0.990481 1.5991 0
M  V30 238 O 23.1795 -1.64013 0.772612 0
M  V30 239 C 23.2275 0.4726 3.5749 0
M  V30 240 O 22.3315 -0.51646 4.09153 0
M  V30 241 H 21.6725 0.163271 0.643614 0
M  V30 242 H 24.2025 1.0841 1.73518 0
M  V30 243 H 24.2125 0.34003 4.06581 0
M  V30 244 H 22.8875 1.47848 3.88734 0
M  V30 245 H 21.4645 -0.344673 3.71304 0
M  V30 246 N 23.6496 -1.47581 0.552962 0
M  V30 247 C 24.5596 -2.33743 -0.200353 0
M  V30 248 C 25.5756 -1.47928 -0.916151 0
M  V30 249 O 26.7516 -1.80865 -0.885993 0
M  V30 250 C 23.8166 -3.24536 -1.21973 0
M  V30 251 C 22.8776 -4.26238 -0.511819 0
M  V30 252 C 22.1106 -5.12693 -1.48263 0
M  V30 253 O 22.3336 -5.01525 -2.71714 0
M  V30 254 O 21.2676 -5.93375 -1.00945 0
M  V30 255 H 25.0936 -2.9945 0.506304 0
M  V30 256 H 22.6786 -1.46071 0.313622 0
M  V30 257 H 24.5606 -3.80631 -1.80827 0
M  V30 258 H 23.2356 -2.61462 -1.90839 0
M  V30 259 H 22.1426 -3.73914 0.117799 0
M  V30 260 H 23.4756 -4.92014 0.135308 0
M  V30 261 N 25.1277 -0.289203 -1.54924 0
M  V30 262 C 26.5387 0.205791 -1.85562 0
M  V30 263 C 26.8897 1.54351 -1.2112 0
M  V30 264 O 26.0147 2.10435 -0.504601 0
M  V30 265 C 26.6097 0.380177 -3.3666 0
M  V30 266 C 25.1687 0.819395 -3.67373 0
M  V30 267 C 24.3157 -0.079159 -2.77187 0
M  V30 268 H 27.2667 -0.510577 -1.50262 0
M  V30 269 H 27.2877 1.21659 -3.60526 0
M  V30 270 H 26.7997 -0.593589 -3.83534 0
M  V30 271 H 24.9007 1.80413 -3.26009 0
M  V30 272 H 25.0137 0.646957 -4.74712 0
M  V30 273 H 23.3777 0.439565 -2.50878 0
M  V30 274 H 24.1607 -1.04906 -3.26878 0
M  V30 275 N 26.6058 1.57591 -0.0167156 0
M  V30 276 C 27.5358 2.12496 0.967858 0
M  V30 277 C 28.5168 1.03807 1.34752 0
M  V30 278 O 29.7018 1.31577 1.42833 0
M  V30 279 C 26.8318 2.64194 2.25431 0
M  V30 280 C 25.7858 3.77559 2.01576 0
M  V30 281 C 25.1118 4.15636 3.36379 0
M  V30 282 C 26.4118 5.04151 1.36489 0
M  V30 283 H 28.1058 2.95013 0.510643 0
M  V30 284 H 25.6518 1.41915 0.244181 0
M  V30 285 H 27.6048 3.01236 2.94678 0
M  V30 286 H 26.3288 1.78821 2.73296 0
M  V30 287 H 24.9878 3.40937 1.34751 0
M  V30 288 H 24.6358 3.27263 3.81979 0
M  V30 289 H 24.3358 4.92022 3.21229 0
M  V30 290 H 25.8598 4.5525 4.06915 0
M  V30 291 H 27.2738 5.38857 1.95718 0
M  V30 292 H 25.6708 5.85453 1.31776 0
M  V30 293 H 26.7408 4.83733 0.336219 0
M  V30 294 N 28.0839 -0.256276 1.55502 0
M  V30 295 C 29.4949 -0.826068 1.67431 0
M  V30 296 C 29.8459 -1.86396 0.612446 0
M  V30 297 O 28.9709 -2.15031 -0.243025 0
M  V30 298 C 29.5659 -1.50512 3.03532 0
M  V30 299 C 28.1249 -2.02273 3.17431 0
M  V30 300 C 27.2719 -0.870548 2.63281 0
M  V30 301 H 30.2229 -0.0322728 1.58667 0
M  V30 302 H 30.2439 -2.37279 2.97454 0
M  V30 303 H 29.7559 -0.749484 3.80794 0
M  V30 304 H 27.8569 -2.80746 2.44974 0
M  V30 305 H 27.9699 -2.22655 4.24219 0
M  V30 306 H 26.3339 -1.26851 2.20864 0
M  V30 307 H 27.1169 -0.128149 3.43061 0
M  V30 308 N 29.562 -1.4872 -0.521534 0
M  V30 309 C 30.811 -1.56419 -1.27341 0
M  V30 310 C 31.124 -0.246805 -1.94037 0
M  V30 311 O 32.33 -0.202122 -2.70747 0
M  V30 312 C 30.786 -2.75896 -2.31105 0
M  V30 313 C 30.394 -4.14311 -1.70441 0
M  V30 314 C 32.138 -2.92913 -3.07249 0
M  V30 315 C 30.045 -5.25038 -2.72194 0
M  V30 316 H 28.975 -0.582344 -0.478949 0
M  V30 317 H 31.626 -1.75071 -0.549779 0
M  V30 318 H 30.008 -2.50697 -3.06541 0
M  V30 319 H 31.182 -4.49564 -1.01136 0
M  V30 320 H 29.497 -4.02482 -1.06759 0
M  V30 321 H 32.094 -3.72805 -3.83302 0
M  V30 322 H 32.437 -2.02689 -3.63625 0
M  V30 323 H 32.97 -3.18054 -2.38928 0
M  V30 324 H 29.709 -6.17255 -2.20627 0
M  V30 325 H 29.229 -4.94263 -3.39801 0
M  V30 326 H 30.908 -5.53508 -3.35019 0
M  V30 327 N 31.0401 0.771051 -1.3745 0
M  V30 328 C 32.0031 1.86598 -1.33093 0
M  V30 329 C 33.0031 1.59076 -0.234845 0
M  V30 330 O 34.1931 1.67145 -0.490732 0
M  V30 331 C 31.3251 3.23747 -1.06773 0
M  V30 332 H 32.5181 1.91873 -2.30488 0
M  V30 333 H 30.0711 0.970876 -1.2249 0
M  V30 334 H 30.8061 3.24148 -0.099129 0
M  V30 335 H 30.5911 3.45115 -1.86112 0
M  V30 336 H 32.0811 4.03824 -1.06377 0
M  V30 337 N 32.5182 1.22032 0.997298 0
M  V30 338 C 33.7952 0.950823 1.70935 0
M  V30 339 C 34.1752 -0.535292 2.042 0
M  V30 340 O 33.5232 -1.50217 1.72183 0
M  V30 341 C 33.7332 1.84386 2.96315 0
M  V30 342 C 35.0812 2.09732 3.69185 0
M  V30 343 O 36.1052 1.81798 3.06314 0
M  V30 344 O 34.9642 2.57018 4.82291 0
M  V30 345 H 32.0582 0.357204 0.745878 0
M  V30 346 H 34.6042 1.32997 1.05404 0
M  V30 347 H 33.3762 2.84928 2.68201 0
M  V30 348 H 32.9992 1.46602 3.69586 0
M  V30 349 N 33.9963 -1.19345 1.0293 0
M  V30 350 C 35.2443 -1.88665 0.724574 0
M  V30 351 C 35.5653 -1.80036 -0.749144 0
M  V30 352 O 34.8353 -1.2111 -1.53978 0
M  V30 353 H 33.4153 -0.698406 0.265025 0
M  V30 354 H 36.0773 -1.44885 1.30362 0
M  V30 355 H 35.1733 -2.94987 1.01926 0
M  V30 356 N 35.4744 -0.807222 -1.35358 0
M  V30 357 C 36.7514 -0.311126 -1.9311 0
M  V30 358 C 37.1314 1.19937 -1.73719 0
M  V30 359 O 36.4794 1.99918 -1.10657 0
M  V30 360 C 36.6894 -0.723226 -3.41424 0
M  V30 361 C 38.0374 -0.713078 -4.18569 0
M  V30 362 O 39.0614 -0.664811 -3.49941 0
M  V30 363 O 37.9204 -0.772022 -5.41019 0
M  V30 364 H 35.0144 -0.081526 -0.822972 0
M  V30 365 H 37.5604 -0.890962 -1.4443 0
M  V30 366 H 36.3324 -1.76426 -3.4927 0
M  V30 367 H 35.9554 -0.118232 -3.97424 0
M  V30 368 N 36.9525 1.47285 -0.560781 0
M  V30 369 C 38.3685 1.58065 -0.22081 0
M  V30 370 C 38.5685 1.55892 1.27671 0
M  V30 371 O 37.6245 1.46422 2.0571 0
M  V30 372 C 38.9375 2.88418 -0.850625 0
M  V30 373 C 40.4855 3.02009 -0.822184 0
M  V30 374 C 40.9605 4.35066 -1.43113 0
M  V30 375 N 42.4515 4.41711 -1.39448 0
M  V30 376 C 43.1865 5.43237 -1.83525 0
M  V30 377 N 42.6825 6.51555 -2.35474 0
M  V30 378 N 44.4755 5.34304 -1.74574 0
M  V30 379 H 36.6265 1.46941 -1.53369 0
M  V30 380 H 38.8895 0.699558 -0.639783 0
M  V30 381 H 38.5955 2.95755 -1.9032 0
M  V30 382 H 38.4695 3.75612 -0.345773 0
M  V30 383 H 40.8565 2.94266 0.221714 0
M  V30 384 H 40.9375 2.16347 -1.36483 0
M  V30 385 H 40.5815 4.43565 -2.47412 0
M  V30 386 H 40.5115 5.19465 -0.863899 0
M  V30 387 H 43.0025 3.64027 -1.01452 0
M  V30 388 H 43.3155 7.25203 -2.67021 0
M  V30 389 H 41.6605 6.52435 -2.39487 0
M  V30 390 H 44.8515 4.48581 -1.33763 0
M  V30 391 H 45.0245 6.13288 -2.09242 0
M  V30 392 N 38.4306 0.297415 1.54768 0
M  V30 393 C 39.8466 -0.0560823 1.59501 0
M  V30 394 C 40.0466 -1.52725 1.31444 0
M  V30 395 O 39.1026 -2.27947 1.08611 0
M  V30 396 C 40.4156 0.338631 2.98787 0
M  V30 397 C 41.9636 0.287097 3.11681 0
M  V30 398 C 42.4386 0.656579 4.53269 0
M  V30 399 N 43.9296 0.608977 4.59179 0
M  V30 400 C 44.6646 0.867385 5.66802 0
M  V30 401 N 44.1606 1.19157 6.82476 0
M  V30 402 N 45.9536 0.794687 5.56454 0
M  V30 403 H 38.1046 1.25624 1.71267 0
M  V30 404 H 40.3676 0.509057 0.799728 0
M  V30 405 H 40.0736 1.36263 3.2423 0
M  V30 406 H 39.9476 -0.309508 3.75928 0
M  V30 407 H 42.3346 -0.727649 2.85988 0
M  V30 408 H 42.4156 0.969809 2.36703 0
M  V30 409 H 42.0596 1.66912 4.7969 0
M  V30 410 H 41.9896 -0.0481649 5.26578 0
M  V30 411 H 44.4806 0.369198 3.76092 0
M  V30 412 H 44.7936 1.37482 7.60473 0
M  V30 413 H 43.1386 1.22958 6.84037 0
M  V30 414 H 46.3296 0.541098 4.64962 0
M  V30 415 H 46.5026 0.999445 6.40246 0
M  V30 416 N 39.9087 -1.5758 0.0250728 0
M  V30 417 C 41.3247 -1.56124 -0.331282 0
M  V30 418 C 41.5247 -1.03029 -1.73169 0
M  V30 419 O 40.5807 -0.675215 -2.43305 0
M  V30 420 C 41.8937 -3.00139 -0.183584 0
M  V30 421 C 43.4417 -3.11946 -0.256654 0
M  V30 422 C 43.9167 -4.57793 -0.137792 0
M  V30 423 N 45.4077 -4.6279 -0.194904 0
M  V30 424 C 46.1427 -5.7326 -0.126655 0
M  V30 425 N 45.6387 -6.928 -0.00755288 0
M  V30 426 N 47.4317 -5.61811 -0.180348 0
M  V30 427 H 39.5827 -1.90424 0.94087 0
M  V30 428 H 41.8457 -0.875761 0.362968 0
M  V30 429 H 41.5517 -3.4292 0.780927 0
M  V30 430 H 41.4257 -3.64899 -0.955448 0
M  V30 431 H 43.8127 -2.69079 -1.21162 0
M  V30 432 H 43.8937 -2.49915 0.545517 0
M  V30 433 H 43.5377 -5.01339 0.813739 0
M  V30 434 H 43.4677 -5.17798 -0.958775 0
M  V30 435 H 45.9587 -3.76807 -0.287267 0
M  V30 436 H 46.2717 -7.72791 0.0379428 0
M  V30 437 H 44.6167 -6.94995 0.0271731 0
M  V30 438 H 47.8077 -4.6731 -0.271767 0
M  V30 439 H 47.9807 -6.47882 -0.123697 0
M  V30 440 N 41.3868 0.248026 -1.55636 0
M  V30 441 C 42.3338 1.30707 -1.90222 0
M  V30 442 C 43.3038 1.47881 -0.756332 0
M  V30 443 O 44.4888 1.61883 -1.00988 0
M  V30 444 C 41.6288 2.65769 -2.20138 0
M  V30 445 C 40.7418 2.56612 -3.47526 0
M  V30 446 C 39.8768 3.8402 -3.67017 0
M  V30 447 C 38.9158 3.69476 -4.8801 0
M  V30 448 N 38.0528 4.88774 -5.04029 0
M  V30 449 H 42.8928 1.00512 -2.80538 0
M  V30 450 H 40.4298 0.485055 -1.38873 0
M  V30 451 H 42.3878 3.44386 -2.35487 0
M  V30 452 H 41.0178 2.94115 -1.33027 0
M  V30 453 H 40.0698 1.69571 -3.40514 0
M  V30 454 H 41.3818 2.41774 -4.36287 0
M  V30 455 H 40.5358 4.7108 -3.8232 0
M  V30 456 H 39.2748 4.01754 -2.76487 0
M  V30 457 H 38.2798 2.80799 -4.72686 0
M  V30 458 H 39.5048 3.53238 -5.8 0
M  V30 459 H 37.4508 5.0687 -4.16435 0
M  V30 460 H 37.3678 4.76562 -5.86877 0
M  V30 461 H 38.6358 5.77335 -5.23741 0
M  V30 462 N 42.8649 1.48995 0.513639 0
M  V30 463 C 43.8119 1.6473 1.61656 0
M  V30 464 C 44.7819 0.488984 1.58739 0
M  V30 465 O 45.9669 0.714478 1.76918 0
M  V30 466 C 43.1069 1.7082 2.99858 0
M  V30 467 C 42.2199 2.9787 3.12885 0
M  V30 468 C 41.3549 2.95017 4.41744 0
M  V30 469 C 40.3939 4.16702 4.48359 0
M  V30 470 N 39.5309 4.11832 5.68629 0
M  V30 471 H 44.3709 2.58909 1.47547 0
M  V30 472 H 41.9079 1.28382 0.71808 0
M  V30 473 H 43.8659 1.72331 3.79944 0
M  V30 474 H 42.4959 0.801181 3.12699 0
M  V30 475 H 41.5479 3.06029 2.25944 0
M  V30 476 H 42.8599 3.8786 3.13633 0
M  V30 477 H 42.0139 2.95021 5.30139 0
M  V30 478 H 40.7529 2.02784 4.43542 0
M  V30 479 H 39.7579 4.16955 3.58369 0
M  V30 480 H 40.9829 5.10113 4.48287 0
M  V30 481 H 38.9289 3.22428 5.71293 0
M  V30 482 H 38.8459 4.95543 5.7094 0
M  V30 483 H 40.1139 4.1592 6.59266 0
M  V30 484 N 44.343 -0.763751 1.37857 0
M  V30 485 C 45.29 -1.87726 1.34267 0
M  V30 486 C 46.26 -1.64807 0.206879 0
M  V30 487 O 47.445 -1.86613 0.397508 0
M  V30 488 C 44.585 -3.24896 1.16346 0
M  V30 489 C 43.698 -3.59716 2.39225 0
M  V30 490 C 42.833 -4.86137 2.14114 0
M  V30 491 C 41.872 -5.13711 3.32817 0
M  V30 492 N 41.009 -6.31323 3.07206 0
M  V30 493 H 45.849 -1.90129 2.29466 0
M  V30 494 H 43.386 -0.929433 1.14017 0
M  V30 495 H 45.344 -4.04036 1.03975 0
M  V30 496 H 43.974 -3.21847 0.247909 0
M  V30 497 H 43.026 -2.75498 2.62307 0
M  V30 498 H 44.338 -3.76027 3.27728 0
M  V30 499 H 43.492 -5.73198 1.9882 0
M  V30 500 H 42.231 -4.71945 1.22961 0
M  V30 501 H 41.236 -4.25123 3.48641 0
M  V30 502 H 42.461 -5.29807 4.24832 0
M  V30 503 H 40.407 -6.18474 2.1869 0
M  V30 504 H 40.324 -6.48087 3.89254 0
M  V30 505 H 41.592 -7.213 2.95546 0
M  V30 506 N 45.8211 -1.22559 -0.990812 0
M  V30 507 C 47.2371 -0.985996 -1.255 0
M  V30 508 C 47.4371 0.319173 -1.98956 0
M  V30 509 O 46.4931 1.04127 -2.3003 0
M  V30 510 C 47.8061 -2.18607 -2.06474 0
M  V30 511 C 49.3541 -2.22985 -2.19651 0
M  V30 512 C 49.8291 -3.4255 -3.04012 0
M  V30 513 N 51.3201 -3.42725 -3.11599 0
M  V30 514 C 52.0551 -4.31892 -3.7717 0
M  V30 515 N 51.5511 -5.31279 -4.44651 0
M  V30 516 N 53.3441 -4.19662 -3.73952 0
M  V30 517 H 45.4951 -2.06469 -0.49841 0
M  V30 518 H 47.7581 -0.904853 -0.282747 0
M  V30 519 H 47.4641 -3.13267 -1.59865 0
M  V30 520 H 47.3381 -2.18838 -3.07229 0
M  V30 521 H 49.7251 -1.28871 -2.65474 0
M  V30 522 H 49.8061 -2.26791 -1.18319 0
M  V30 523 H 49.4501 -4.36965 -2.58889 0
M  V30 524 H 49.3801 -3.35984 -4.0549 0
M  V30 525 H 51.8711 -2.70807 -2.63575 0
M  V30 526 H 52.1841 -5.95593 -4.92431 0
M  V30 527 H 50.5291 -5.3519 -4.43392 0
M  V30 528 H 53.7201 -3.41268 -3.20396 0
M  V30 529 H 53.8931 -4.89358 -4.24774 0
M  V30 530 N 47.2992 1.18797 -1.03562 0
M  V30 531 C 48.7152 1.40671 -0.753917 0
M  V30 532 C 48.9152 1.9043 0.658686 0
M  V30 533 O 47.9712 2.08538 1.42366 0
M  V30 534 C 49.2842 2.41192 -1.79574 0
M  V30 535 C 50.8322 2.54928 -1.81606 0
M  V30 536 C 51.3072 3.58709 -2.84766 0
M  V30 537 N 52.7982 3.66212 -2.83625 0
M  V30 538 C 53.5332 4.46225 -3.60098 0
M  V30 539 N 53.0292 5.29888 -4.46308 0
M  V30 540 N 54.8222 4.40939 -3.4861 0
M  V30 541 H 46.9732 0.848221 -1.94728 0
M  V30 542 H 49.2362 0.435081 -0.842264 0
M  V30 543 H 48.9422 2.11669 -2.80872 0
M  V30 544 H 48.8162 3.40467 -1.62365 0
M  V30 545 H 51.2032 2.83771 -0.809817 0
M  V30 546 H 51.2842 1.55784 -2.02891 0
M  V30 547 H 50.9282 3.30607 -3.85566 0
M  V30 548 H 50.8582 4.57519 -2.60737 0
M  V30 549 H 53.3492 3.06466 -2.21105 0
M  V30 550 H 53.6622 5.88078 -5.01382 0
M  V30 551 H 52.0072 5.29326 -4.50377 0
M  V30 552 H 55.1982 3.74624 -2.80668 0
M  V30 553 H 55.3712 5.03056 -4.08459 0
M  V30 554 N 48.7773 0.814389 1.34928 0
M  V30 555 C 50.0253 0.397636 1.9815 0
M  V30 556 C 50.3463 -1.04069 1.64908 0
M  V30 557 O 49.6163 -1.72121 0.93548 0
M  V30 558 H 48.1963 0.144043 0.732981 0
M  V30 559 H 50.8583 1.04195 1.6471 0
M  V30 560 H 49.9543 0.509688 3.0791 0
M  V30 561 N 50.2554 -1.46986 0.568584 0
M  V30 562 C 51.6714 -1.57946 0.229189 0
M  V30 563 C 51.8714 -1.56567 -1.26843 0
M  V30 564 O 50.9274 -1.47511 -2.04931 0
M  V30 565 C 52.2404 -2.87963 0.865909 0
M  V30 566 C 53.7884 -3.01568 0.838188 0
M  V30 567 C 54.2634 -4.34301 1.45419 0
M  V30 568 N 55.7544 -4.40965 1.41788 0
M  V30 569 C 56.4894 -5.42256 1.86403 0
M  V30 570 N 55.9854 -6.50297 2.38926 0
M  V30 571 N 57.7784 -5.3337 1.77405 0
M  V30 572 H 49.9294 -1.46126 1.54146 0
M  V30 573 H 52.1924 -0.696156 0.643484 0
M  V30 574 H 51.8984 -2.94742 1.91886 0
M  V30 575 H 51.7724 -3.75423 0.365687 0
M  V30 576 H 54.1594 -2.94379 -0.206106 0
M  V30 577 H 54.2404 -2.1562 1.37629 0
M  V30 578 H 53.8844 -4.42247 2.49761 0
M  V30 579 H 53.8144 -5.19 0.891435 0
M  V30 580 H 56.3054 -3.63484 1.03381 0
M  V30 581 H 56.6184 -7.23777 2.70863 0
M  V30 582 H 54.9634 -6.51155 2.42944 0
M  V30 583 H 58.1544 -4.47865 1.3614 0
M  V30 584 H 58.3274 -6.12169 2.12492 0
M  V30 585 N 51.7335 -0.305618 -1.54608 0
M  V30 586 C 52.6965 0.555591 -2.22364 0
M  V30 587 C 53.6965 1.05768 -1.21119 0
M  V30 588 O 54.8865 0.952972 -1.45822 0
M  V30 589 C 52.0185 1.76974 -2.91364 0
M  V30 590 H 53.2115 -0.0364572 -2.99878 0
M  V30 591 H 50.7645 -0.0565007 -1.56198 0
M  V30 592 H 51.4995 2.40151 -2.17941 0
M  V30 593 H 51.2845 1.41732 -3.65588 0
M  V30 594 H 52.7745 2.38148 -3.43038 0
M  V30 595 N 53.2116 1.57565 -0.0334293 0
M  V30 596 C 54.4396 1.9628 0.654347 0
M  V30 597 C 54.8546 0.910138 1.65414 0
M  V30 598 O 54.2116 -0.107595 1.82183 0
M  V30 599 C 54.2626 3.35067 1.35693 0
M  V30 600 O 53.9836 4.36296 0.397191 0
M  V30 601 C 55.4846 3.88439 2.13613 0
M  V30 602 H 52.7046 0.646369 0.180132 0
M  V30 603 H 55.2486 2.04282 -0.0944721 0
M  V30 604 H 53.4036 3.2827 2.05712 0
M  V30 605 H 53.8176 5.1678 0.896597 0
M  V30 606 H 55.2916 4.8788 2.58219 0
M  V30 607 H 55.7686 3.22914 2.97696 0
M  V30 608 H 56.3746 3.98516 1.48543 0
M  V30 609 N 54.6897 -0.239769 1.55765 0
M  V30 610 C 55.9667 -0.990056 1.68693 0
M  V30 611 C 56.3467 -2.03107 0.5754 0
M  V30 612 O 55.6947 -2.24604 -0.42017 0
M  V30 613 C 55.9047 -1.61696 3.09282 0
M  V30 614 C 57.2527 -2.11613 3.6811 0
M  V30 615 O 58.2767 -1.71624 3.12127 0
M  V30 616 O 57.1357 -2.85057 4.66267 0
M  V30 617 H 54.2297 -0.461299 0.686391 0
M  V30 618 H 56.7757 -0.232991 1.68093 0
M  V30 619 H 55.5477 -0.864357 3.81634 0
M  V30 620 H 55.1707 -2.44005 3.13923 0
M  V30 621 N 56.1678 -1.49265 -0.50573 0
M  V30 622 C 57.3928 -1.62478 -1.28902 0
M  V30 623 C 57.8178 -0.294332 -1.85783 0
M  V30 624 O 57.1758 0.737412 -1.65626 0
M  V30 625 C 57.2238 -2.69268 -2.39848 0
M  V30 626 O 56.3278 -2.28113 -3.43567 0
M  V30 627 H 55.6688 -0.54399 -0.380751 0
M  V30 628 H 58.1988 -1.95421 -0.605952 0
M  V30 629 H 58.2088 -2.91291 -2.85681 0
M  V30 630 H 56.8838 -3.65846 -1.97812 0
M  V30 631 H 55.4608 -2.16401 -3.03685 0
M  V30 632 N 57.6459 0.756429 -1.3826 0
M  V30 633 C 58.5759 1.88374 -1.37976 0
M  V30 634 C 59.5569 1.68311 -0.246082 0
M  V30 635 O 60.7419 1.88944 -0.44874 0
M  V30 636 C 57.8719 3.25864 -1.20125 0
M  V30 637 C 56.8259 3.60523 -2.30666 0
M  V30 638 C 56.1519 4.9672 -1.97923 0
M  V30 639 C 57.4519 3.65692 -3.72916 0
M  V30 640 H 59.1459 1.88869 -2.32312 0
M  V30 641 H 56.6919 0.907272 -1.11824 0
M  V30 642 H 58.6449 4.0438 -1.18552 0
M  V30 643 H 57.3689 3.25841 -0.222498 0
M  V30 644 H 56.0279 2.84324 -2.3142 0
M  V30 645 H 55.6759 4.93253 -0.985393 0
M  V30 646 H 55.3759 5.20878 -2.71955 0
M  V30 647 H 56.8999 5.77618 -1.97964 0
M  V30 648 H 58.3139 4.34328 -3.74208 0
M  V30 649 H 56.7109 4.01358 -4.4613 0
M  V30 650 H 57.7809 2.65987 -4.05436 0
M  V30 651 N 59.124 1.23083 0.984299 0
M  V30 652 C 60.535 1.05609 1.5396 0
M  V30 653 C 60.886 -0.377793 1.92528 0
M  V30 654 O 60.011 -1.26398 1.75649 0
M  V30 655 C 60.606 1.91087 2.7977 0
M  V30 656 C 59.165 1.77885 3.31713 0
M  V30 657 C 58.312 1.87028 2.04733 0
M  V30 658 H 61.263 1.36802 0.804419 0
M  V30 659 H 61.284 1.43336 3.5247 0
M  V30 660 H 60.796 2.9544 2.51668 0
M  V30 661 H 58.897 0.762995 3.64704 0
M  V30 662 H 59.01 2.61047 4.01735 0
M  V30 663 H 57.374 1.30565 2.18689 0
M  V30 664 H 58.157 2.92929 1.79017 0
M  V30 665 N 60.6021 -1.18246 1.0419 0
M  V30 666 C 61.8501 -1.87886 0.744543 0
M  V30 667 C 62.1711 -1.8082 -0.730006 0
M  V30 668 O 61.4411 -1.22736 -1.52685 0
M  V30 669 H 60.0211 -0.695556 0.272417 0
M  V30 670 H 62.6831 -1.43494 1.31892 0
M  V30 671 H 61.7791 -2.9389 1.05049 0
M  V30 672 N 62.0802 -0.821533 -1.34494 0
M  V30 673 C 63.0272 -0.240397 -2.29545 0
M  V30 674 C 63.9972 0.634031 -1.53523 0
M  V30 675 O 65.1822 0.575966 -1.81899 0
M  V30 676 C 62.3222 0.592869 -3.39969 0
M  V30 677 C 61.4352 -0.30365 -4.30932 0
M  V30 678 C 60.5702 0.539049 -5.28458 0
M  V30 679 C 59.6092 -0.356942 -6.11058 0
M  V30 680 N 58.7462 0.446603 -7.00678 0
M  V30 681 H 63.5862 -1.05632 -2.7865 0
M  V30 682 H 61.1232 -0.532413 -1.37127 0
M  V30 683 H 63.0812 1.09129 -4.02675 0
M  V30 684 H 61.7112 1.37392 -2.92102 0
M  V30 685 H 60.7632 -0.920276 -3.691 0
M  V30 686 H 62.0752 -0.992661 -4.88823 0
M  V30 687 H 61.2292 1.102 -5.96608 0
M  V30 688 H 59.9682 1.26157 -4.71101 0
M  V30 689 H 58.9732 -0.932047 -5.41842 0
M  V30 690 H 60.1982 -1.07755 -6.70497 0
M  V30 691 H 58.1442 1.15282 -6.45791 0
M  V30 692 H 58.0612 -0.184048 -7.55776 0
M  V30 693 H 59.3292 0.992352 -7.73158 0
M  V30 694 N 63.5583 1.46682 -0.576371 0
M  V30 695 C 64.8053 2.02412 -0.0595339 0
M  V30 696 C 65.1333 1.44859 1.29793 0
M  V30 697 O 64.3883 0.601099 1.8624 0
M  V30 698 C 64.6873 3.57345 0.062886 0
M  V30 699 C 64.3533 4.33908 -1.22616 0
M  V30 700 C 63.0153 4.54544 -1.57933 0
M  V30 701 C 65.3673 4.77919 -2.07948 0
M  V30 702 C 62.6953 5.16444 -2.78393 0
M  V30 703 C 65.0473 5.41149 -3.27629 0
M  V30 704 C 63.7113 5.60014 -3.63236 0
M  V30 705 H 62.9813 0.74068 -0.021785 0
M  V30 706 H 65.6283 1.76128 -0.751735 0
M  V30 707 H 63.9333 3.82729 0.838178 0
M  V30 708 H 65.6303 3.98136 0.478439 0
M  V30 709 H 62.2203 4.18138 -0.941202 0
M  V30 710 H 66.4043 4.61738 -1.81967 0
M  V30 711 H 61.6603 5.29242 -3.06126 0
M  V30 712 H 65.8343 5.74211 -3.94023 0
M  V30 713 H 63.4613 6.07748 -4.56669 0
M  V30 714 N 65.0364 0.313813 1.54444 0
M  V30 715 C 65.9464 -0.565714 2.27677 0
M  V30 716 C 66.9624 -1.13754 1.31666 0
M  V30 717 O 68.1384 -1.15959 1.64668 0
M  V30 718 C 65.2034 -1.71528 3.01296 0
M  V30 719 C 64.2644 -1.17624 4.12872 0
M  V30 720 C 63.4974 -2.27102 4.8297 0
M  V30 721 O 63.7204 -3.47256 4.52514 0
M  V30 722 O 62.6544 -1.9307 5.70094 0
M  V30 723 H 66.4804 0.0287296 3.03686 0
M  V30 724 H 64.0654 0.0798312 1.49187 0
M  V30 725 H 65.9474 -2.38476 3.4743 0
M  V30 726 H 64.6224 -2.29608 2.2817 0
M  V30 727 H 63.5294 -0.472124 3.71109 0
M  V30 728 H 64.8624 -0.640695 4.88012 0
M  V30 729 N 66.5145 -1.57545 0.0417849 0
M  V30 730 C 67.7915 -1.83642 -0.673433 0
M  V30 731 C 68.1715 -0.928298 -1.89594 0
M  V30 732 O 67.5195 0.0129955 -2.28496 0
M  V30 733 C 67.7295 -3.33155 -1.03964 0
M  V30 734 C 69.0775 -3.99941 -1.42592 0
M  V30 735 O 70.1015 -3.37725 -1.13226 0
M  V30 736 O 68.9605 -5.09619 -1.9736 0
M  V30 737 H 66.0545 -0.757638 -0.331533 0
M  V30 738 H 68.6005 -1.69554 0.070433 0
M  V30 739 H 67.3725 -3.9093 -0.170098 0
M  V30 740 H 66.9955 -3.52396 -1.84126 0
M  V30 741 N 67.9926 0.231505 -1.5589 0
M  V30 742 C 68.9256 1.31369 -1.86595 0
M  V30 743 C 69.9036 1.45671 -0.722397 0
M  V30 744 O 71.0876 1.61642 -0.969743 0
M  V30 745 C 68.2146 2.68529 -2.06421 0
M  V30 746 C 67.2606 2.71295 -3.29092 0
M  V30 747 S 68.0936 2.26358 -4.85306 0
M  V30 748 C 69.2496 3.65414 -5.08157 0
M  V30 749 H 69.4826 1.05128 -2.78092 0
M  V30 750 H 67.0156 0.433259 -1.48197 0
M  V30 751 H 68.9736 3.47499 -2.18528 0
M  V30 752 H 67.6346 2.91999 -1.15738 0
M  V30 753 H 66.8276 3.72063 -3.39978 0
M  V30 754 H 66.4296 2.0038 -3.15791 0
M  V30 755 H 68.7216 4.6103 -4.96445 0
M  V30 756 H 69.6646 3.5945 -6.10083 0
M  V30 757 H 70.0726 3.5864 -4.35933 0
M  V30 758 N 69.4707 1.49531 0.497807 0
M  V30 759 C 70.7007 1.62657 1.27382 0
M  V30 760 C 71.1087 0.298488 1.86831 0
M  V30 761 O 70.4517 -0.72647 1.68725 0
M  V30 762 C 70.5137 2.6393 2.44093 0
M  V30 763 C 70.1777 4.08195 2.05489 0
M  V30 764 C 71.1747 4.949 1.59279 0
M  V30 765 C 68.8597 4.53948 2.15026 0
M  V30 766 C 70.8537 6.25397 1.23113 0
M  V30 767 C 68.5407 5.84458 1.78473 0
M  V30 768 C 69.5387 6.70006 1.32591 0
M  V30 769 O 69.2267 7.98083 0.965327 0
M  V30 770 H 68.9587 0.550429 0.392434 0
M  V30 771 H 71.5127 1.96325 0.603801 0
M  V30 772 H 69.7427 2.25449 3.14181 0
M  V30 773 H 71.4317 2.66552 3.06113 0
M  V30 774 H 72.1977 4.60779 1.51354 0
M  V30 775 H 68.0767 3.87525 2.4969 0
M  V30 776 H 71.6207 6.92125 0.872299 0
M  V30 777 H 67.5177 6.18107 1.86048 0
M  V30 778 H 68.2857 8.11122 1.09652 0
M  V30 779 N 70.9488 -0.749086 1.3866 0
M  V30 780 C 71.8958 -1.86291 1.36251 0
M  V30 781 C 72.8658 -1.64578 0.224347 0
M  V30 782 O 74.0508 -1.86181 0.417279 0
M  V30 783 C 71.1908 -3.23644 1.19786 0
M  V30 784 C 70.3038 -3.57158 2.43027 0
M  V30 785 C 69.4388 -4.83838 2.19258 0
M  V30 786 C 68.4778 -5.10152 3.38247 0
M  V30 787 N 67.6148 -6.28029 3.13884 0
M  V30 788 H 72.4548 -1.87685 2.3147 0
M  V30 789 H 69.9918 -0.917287 1.14997 0
M  V30 790 H 71.9498 -4.0291 1.08254 0
M  V30 791 H 70.5798 -3.21566 0.282031 0
M  V30 792 H 69.6318 -2.72701 2.65214 0
M  V30 793 H 70.9438 -3.7253 3.31697 0
M  V30 794 H 70.0978 -5.71057 2.04888 0
M  V30 795 H 68.8368 -4.70614 1.2796 0
M  V30 796 H 67.8418 -4.21401 3.53131 0
M  V30 797 H 69.0668 -5.25271 4.30427 0
M  V30 798 H 67.0128 -6.1612 2.25238 0
M  V30 799 H 66.9298 -6.43922 3.96106 0
M  V30 800 H 68.1978 -7.18124 3.03179 0
M  V30 801 N 72.4269 -1.23603 -0.977757 0
M  V30 802 C 73.3569 -1.04401 -2.0886 0
M  V30 803 C 74.3379 0.0399052 -1.70053 0
M  V30 804 O 75.5229 -0.125246 -1.93796 0
M  V30 805 C 72.6529 -0.637269 -3.41403 0
M  V30 806 C 71.6069 -1.66883 -3.94124 0
M  V30 807 C 70.9329 -1.11745 -5.22893 0
M  V30 808 C 72.2329 -3.06247 -4.23096 0
M  V30 809 H 73.9269 -1.97316 -2.25182 0
M  V30 810 H 71.4729 -0.950096 -1.08209 0
M  V30 811 H 73.4259 -0.48998 -4.18542 0
M  V30 812 H 72.1499 0.327557 -3.24953 0
M  V30 813 H 70.8089 -1.80416 -3.19133 0
M  V30 814 H 70.4569 -0.143527 -5.02795 0
M  V30 815 H 70.1569 -1.80672 -5.59134 0
M  V30 816 H 71.6809 -0.982067 -6.02651 0
M  V30 817 H 73.0949 -2.96001 -4.90975 0
M  V30 818 H 71.4919 -3.72436 -4.70544 0
M  V30 819 H 72.5619 -3.55041 -3.30263 0
M  V30 820 N 73.905 1.17692 -1.04816 0
M  V30 821 C 75.133 1.91786 -0.776254 0
M  V30 822 C 75.548 1.76604 0.667577 0
M  V30 823 O 74.905 1.10067 1.45573 0
M  V30 824 C 74.956 3.42967 -1.14263 0
M  V30 825 O 74.677 3.57678 -2.52978 0
M  V30 826 C 76.178 4.34144 -0.896311 0
M  V30 827 H 73.398 0.608624 -0.282519 0
M  V30 828 H 75.942 1.49268 -1.39783 0
M  V30 829 H 74.097 3.83245 -0.565874 0
M  V30 830 H 74.511 4.51319 -2.67229 0
M  V30 831 H 75.985 5.38744 -1.20244 0
M  V30 832 H 76.462 4.38876 0.168636 0
M  V30 833 H 77.068 3.99574 -1.45672 0
M  V30 834 N 75.3831 0.828654 1.34056 0
M  V30 835 C 76.6081 0.431637 2.02859 0
M  V30 836 C 77.0331 -0.956339 1.61975 0
M  V30 837 O 76.3911 -1.62338 0.807228 0
M  V30 838 C 76.4391 0.548323 3.56407 0
M  V30 839 O 75.5431 -0.429556 4.10157 0
M  V30 840 H 74.8841 0.176886 0.640006 0
M  V30 841 H 77.4141 1.12066 1.71179 0
M  V30 842 H 77.4241 0.426196 4.05768 0
M  V30 843 H 76.0991 1.5606 3.8551 0
M  V30 844 H 74.6761 -0.265836 3.71951 0
M  V30 845 N 76.8612 -1.46375 0.584142 0
M  V30 846 C 77.7712 -2.34115 -0.150728 0
M  V30 847 C 78.7872 -1.49838 -0.884567 0
M  V30 848 O 79.9632 -1.82704 -0.847429 0
M  V30 849 C 77.0282 -3.2705 -1.15062 0
M  V30 850 C 76.0892 -4.27228 -0.421293 0
M  V30 851 C 75.3222 -5.15722 -1.37355 0
M  V30 852 O 75.5452 -5.07176 -2.61014 0
M  V30 853 O 74.4792 -5.95383 -0.883355 0
M  V30 854 H 78.3052 -2.98309 0.569708 0
M  V30 855 H 75.8902 -1.45373 0.344535 0
M  V30 856 H 77.7722 -3.84381 -1.72712 0
M  V30 857 H 76.4472 -2.65451 -1.8525 0
M  V30 858 H 75.3542 -3.7358 0.197085 0
M  V30 859 H 76.6872 -4.91616 0.239641 0
M  V30 860 N 78.3393 -0.321999 -1.54275 0
M  V30 861 C 79.2693 0.537411 -2.27231 0
M  V30 862 C 80.2503 1.12064 -1.27968 0
M  V30 863 O 81.4353 1.14606 -1.56777 0
M  V30 864 C 78.5653 1.69919 -3.02894 0
M  V30 865 C 77.5193 1.24534 -4.09482 0
M  V30 866 C 76.8453 2.49394 -4.72977 0
M  V30 867 C 78.1453 0.361335 -5.21049 0
M  V30 868 H 79.8393 -0.0711406 -2.99315 0
M  V30 869 H 77.3853 -0.0356555 -1.43956 0
M  V30 870 H 79.3383 2.30668 -3.52662 0
M  V30 871 H 78.0623 2.33431 -2.28424 0
M  V30 872 H 76.7213 0.660782 -3.60596 0
M  V30 873 H 76.3693 3.11265 -3.95124 0
M  V30 874 H 76.0693 2.19718 -5.44975 0
M  V30 875 H 77.5933 3.10908 -5.25517 0
M  V30 876 H 79.0073 0.875072 -5.66582 0
M  V30 877 H 77.4043 0.157428 -5.99893 0
M  V30 878 H 78.4743 -0.60822 -4.8107 0
M  V30 879 N 79.8174 1.5752 -0.0501392 0
M  V30 880 C 80.7474 2.14502 0.922566 0
M  V30 881 C 81.7284 1.06642 1.3252 0
M  V30 882 O 82.9134 1.34577 1.4001 0
M  V30 883 C 80.0434 2.68916 2.19776 0
M  V30 884 C 78.9974 3.8175 1.93523 0
M  V30 885 C 78.3234 4.22677 3.27487 0
M  V30 886 C 79.6234 5.06932 1.25765 0
M  V30 887 H 81.3174 2.9603 0.447952 0
M  V30 888 H 78.8634 1.42401 0.214024 0
M  V30 889 H 80.8164 3.07419 2.88222 0
M  V30 890 H 79.5404 1.84578 2.69441 0
M  V30 891 H 78.1994 3.43718 1.27489 0
M  V30 892 H 77.8474 3.35291 3.74952 0
M  V30 893 H 77.5474 4.98725 3.1072 0
M  V30 894 H 79.0714 4.63779 3.97166 0
M  V30 895 H 80.4854 5.42888 1.84244 0
M  V30 896 H 78.8824 5.88116 1.19328 0
M  V30 897 H 79.9524 4.84337 0.233536 0
M  V30 898 N 81.2955 -0.223234 1.56011 0
M  V30 899 C 82.5435 -0.946003 1.78592 0
M  V30 900 C 82.8645 -1.84936 0.618349 0
M  V30 901 O 82.1345 -1.92473 -0.364833 0
M  V30 902 H 80.7145 -0.352298 0.658707 0
M  V30 903 H 83.3765 -0.235494 1.93472 0
M  V30 904 H 82.4725 -1.55381 2.70672 0
M  V30 905 N 82.7736 -1.49793 -0.48987 0
M  V30 906 C 83.6836 -1.70036 -1.61632 0
M  V30 907 C 84.6996 -0.583102 -1.63939 0
M  V30 908 O 85.8756 -0.859169 -1.82154 0
M  V30 909 C 82.9406 -1.77277 -2.97949 0
M  V30 910 C 82.0016 -3.00918 -3.06181 0
M  V30 911 C 81.2346 -3.07804 -4.35996 0
M  V30 912 O 81.4576 -2.21982 -5.25433 0
M  V30 913 O 80.3916 -4.00369 -4.49431 0
M  V30 914 H 84.2176 -2.65486 -1.47482 0
M  V30 915 H 81.8026 -1.33666 -0.667362 0
M  V30 916 H 83.6846 -1.84329 -3.78947 0
M  V30 917 H 82.3596 -0.850076 -3.12339 0
M  V30 918 H 81.2666 -2.99377 -2.2433 0
M  V30 919 H 82.5996 -3.92704 -2.96723 0
M  V30 920 N 84.2517 0.741722 -1.39055 0
M  V30 921 C 85.4997 1.49818 -1.35643 0
M  V30 922 C 85.8207 1.94938 0.0491642 0
M  V30 923 O 85.0907 1.68505 0.999141 0
M  V30 924 H 83.6707 0.555755 -0.499144 0
M  V30 925 H 86.3327 0.880957 -1.73854 0
M  V30 926 H 85.4287 2.38348 -2.01486 0
M  V30 927 N 85.7298 1.2412 0.971189 0
M  V30 928 C 86.6928 1.03156 2.04674 0
M  V30 929 C 87.6928 -0.00990322 1.60797 0
M  V30 930 O 88.8828 0.230729 1.72665 0
M  V30 931 C 86.0148 0.562765 3.36223 0
M  V30 932 H 87.2078 1.98614 2.24705 0
M  V30 933 H 84.7608 1.06293 1.14593 0
M  V30 934 H 85.4958 -0.395176 3.21883 0
M  V30 935 H 85.2808 1.31441 3.69413 0
M  V30 936 H 86.7708 0.437015 4.15307 0
M  V30 937 N 87.2079 -1.17134 1.05439 0
M  V30 938 C 88.4379 -1.91094 0.785274 0
M  V30 939 C 88.8459 -1.77198 -0.663142 0
M  V30 940 O 88.1889 -1.10835 -1.46497 0
M  V30 941 C 88.2509 -3.42594 1.08949 0
M  V30 942 C 87.9149 -3.80274 2.53458 0
M  V30 943 C 88.9119 -3.82912 3.51673 0
M  V30 944 C 86.5969 -4.11162 2.88532 0
M  V30 945 C 88.5909 -4.15913 4.83006 0
M  V30 946 C 86.2779 -4.43831 4.20068 0
M  V30 947 C 87.2759 -4.46185 5.17115 0
M  V30 948 O 86.9639 -4.78083 6.46291 0
M  V30 949 H 86.6959 -0.613073 0.284811 0
M  V30 950 H 89.2499 -1.49461 1.40893 0
M  V30 951 H 87.4799 -3.84534 0.408741 0
M  V30 952 H 89.1689 -3.97817 0.805991 0
M  V30 953 H 89.9349 -3.5917 3.25917 0
M  V30 954 H 85.8139 -4.085 2.13656 0
M  V30 955 H 89.3579 -4.17665 5.5875 0
M  V30 956 H 85.2549 -4.67037 4.45586 0
M  V30 957 H 86.0229 -4.9593 6.51149 0
M  V30 958 N 88.686 -0.835752 -1.33615 0
M  V30 959 C 89.649 -0.272 -2.2758 0
M  V30 960 C 90.649 0.557487 -1.50827 0
M  V30 961 O 91.839 0.37173 -1.70188 0
M  V30 962 C 88.971 0.617173 -3.35267 0
M  V30 963 H 90.164 -1.10111 -2.78954 0
M  V30 964 H 87.717 -0.608594 -1.43965 0
M  V30 965 H 88.452 1.46884 -2.89129 0
M  V30 966 H 88.237 0.0237066 -3.92093 0
M  V30 967 H 89.727 1.005 -4.05326 0
M  V30 968 N 90.1641 1.46063 -0.591896 0
M  V30 969 C 91.1111 2.30399 0.136069 0
M  V30 970 C 92.0811 1.41169 0.875238 0
M  V30 971 O 93.2661 1.70112 0.86409 0
M  V30 972 C 90.4061 3.25804 1.13781 0
M  V30 973 C 89.5191 4.30134 0.401137 0
M  V30 974 C 88.6541 5.12659 1.39121 0
M  V30 975 C 87.6931 6.0873 0.641462 0
M  V30 976 N 86.8301 6.8409 1.58004 0
M  V30 977 H 91.6701 2.92118 -0.589144 0
M  V30 978 H 89.2071 1.43959 -0.302342 0
M  V30 979 H 91.1651 3.79569 1.73156 0
M  V30 980 H 89.7951 2.65872 1.83062 0
M  V30 981 H 88.8471 3.79152 -0.307826 0
M  V30 982 H 90.1591 4.98458 -0.184565 0
M  V30 983 H 89.3131 5.70747 2.05749 0
M  V30 984 H 88.0521 4.44316 2.01084 0
M  V30 985 H 87.0571 5.49786 -0.0385419 0
M  V30 986 H 88.2821 6.79095 0.0270945 0
M  V30 987 H 86.2281 6.18449 2.18761 0
M  V30 988 H 86.1451 7.48709 1.04738 0
M  V30 989 H 87.4131 7.4673 2.23639 0
M  V30 990 N 91.6422 0.330177 1.54103 0
M  V30 991 C 92.8882 -0.270806 2.00984 0
M  V30 992 C 93.2212 -1.51265 1.21789 0
M  V30 993 O 92.4962 -1.92142 0.301927 0
M  V30 994 C 92.7792 -0.598339 3.55094 0
M  V30 995 C 92.6322 0.654674 4.4501 0
M  V30 996 C 93.9512 -1.41334 4.16789 0
M  V30 997 H 91.0702 -0.0969531 0.730595 0
M  V30 998 H 93.7122 0.448066 1.84641 0
M  V30 999 H 91.8622 -1.21078 3.69151 0
M  V30 1000 H 93.5342 1.29285 4.42813 0
M  V30 1001 H 91.7772 1.28224 4.14416 0
M  V30 1002 H 92.4482 0.380944 5.50684 0
M  V30 1003 H 94.9242 -0.895597 4.06347 0
M  V30 1004 H 93.8002 -1.61127 5.24718 0
M  V30 1005 H 94.0612 -2.41146 3.70541 0
M  V30 1006 N 93.1203 -1.57491 0.0584922 0
M  V30 1007 C 94.0523 -2.08916 -0.942694 0
M  V30 1008 C 95.0653 -1.0185 -1.27006 0
M  V30 1009 O 96.2543 -1.29398 -1.22957 0
M  V30 1010 C 93.3543 -2.52341 -2.26224 0
M  V30 1011 C 92.5273 -3.82827 -2.1157 0
M  V30 1012 C 91.5863 -4.12487 -3.26712 0
M  V30 1013 O 90.6123 -4.82295 -3.02292 0
M  V30 1014 N 91.8143 -3.64978 -4.5141 0
M  V30 1015 H 94.5793 -2.95437 -0.503722 0
M  V30 1016 H 92.1403 -1.61397 -0.12757 0
M  V30 1017 H 94.1323 -2.69254 -3.02133 0
M  V30 1018 H 92.7023 -1.7103 -2.61663 0
M  V30 1019 H 91.9223 -3.75425 -1.20208 0
M  V30 1020 H 93.2103 -4.68263 -1.99015 0
M  V30 1021 H 92.6083 -3.08558 -4.7414 0
M  V30 1022 H 91.1653 -3.87115 -5.2439 0
M  V30 1023 N 94.5984 0.214957 -1.56127 0
M  V30 1024 C 95.8464 0.936518 -1.79091 0
M  V30 1025 C 96.1674 1.84606 -0.628148 0
M  V30 1026 O 95.4374 1.92664 0.35462 0
M  V30 1027 H 94.0174 0.3488 -0.660566 0
M  V30 1028 H 96.6794 0.22523 -1.93594 0
M  V30 1029 H 95.7754 1.53943 -2.71492 0
M  V30 1030 N 96.0765 1.50051 0.48192 0
M  V30 1031 C 97.0395 1.67584 1.5636 0
M  V30 1032 C 98.0395 0.546894 1.51214 0
M  V30 1033 O 99.2295 0.813725 1.54026 0
M  V30 1034 C 96.3615 1.691 2.96003 0
M  V30 1035 H 97.5545 2.64078 1.42136 0
M  V30 1036 H 95.1075 1.39369 0.707533 0
M  V30 1037 H 95.8425 0.742589 3.15684 0
M  V30 1038 H 95.6275 2.51105 3.01146 0
M  V30 1039 H 97.1175 1.84656 3.74556 0
M  V30 1040 N 97.5546 -0.734337 1.39446 0
M  V30 1041 C 98.8006 -1.49613 1.36908 0
M  V30 1042 C 99.1336 -1.94169 -0.0347829 0
M  V30 1043 O 98.4086 -1.66833 -0.999847 0
M  V30 1044 C 98.6916 -2.73534 2.34203 0
M  V30 1045 C 98.5446 -2.34993 3.83534 0
M  V30 1046 C 99.8636 -3.75635 2.29317 0
M  V30 1047 H 96.9826 -0.542714 0.498629 0
M  V30 1048 H 99.6246 -0.839597 1.70443 0
M  V30 1049 H 97.7746 -3.29553 2.05736 0
M  V30 1050 H 99.4466 -1.84601 4.22753 0
M  V30 1051 H 97.6896 -1.67213 4.00278 0
M  V30 1052 H 98.3606 -3.23738 4.47099 0
M  V30 1053 H 100.837 -3.29203 2.54489 0
M  V30 1054 H 99.7126 -4.60008 2.99472 0
M  V30 1055 H 99.9736 -4.22603 1.29842 0
M  V30 1056 N 99.0327 -1.24633 -0.964593 0
M  V30 1057 C 100.258 -1.11596 -1.74818 0
M  V30 1058 C 100.683 0.32723 -1.85232 0
M  V30 1059 O 100.041 1.23695 -1.32549 0
M  V30 1060 C 100.089 -1.76397 -3.1451 0
M  V30 1061 O 99.1927 -1.03685 -3.99153 0
M  V30 1062 H 98.5337 -0.390196 -0.537255 0
M  V30 1063 H 101.064 -1.65002 -1.20977 0
M  V30 1064 H 101.074 -1.8228 -3.65018 0
M  V30 1065 H 99.7487 -2.81401 -3.06246 0
M  V30 1066 H 98.3257 -1.05611 -3.57632 0
M  V30 1067 N 100.511 1.16574 -1.06058 0
M  V30 1068 C 101.441 2.23057 -0.690488 0
M  V30 1069 C 102.422 1.67141 0.315901 0
M  V30 1070 O 103.607 1.93253 0.191556 0
M  V30 1071 C 100.737 3.47222 -0.073625 0
M  V30 1072 C 99.6908 4.16016 -1.00573 0
M  V30 1073 C 99.0168 5.34104 -0.252289 0
M  V30 1074 C 100.317 4.67264 -2.33371 0
M  V30 1075 H 102.011 2.54271 -1.58072 0
M  V30 1076 H 99.5568 1.22218 -0.76149 0
M  V30 1077 H 101.51 4.20939 0.19714 0
M  V30 1078 H 100.234 3.15302 0.85161 0
M  V30 1079 H 98.8928 3.44223 -1.2612 0
M  V30 1080 H 98.5408 4.98437 0.675988 0
M  V30 1081 H 98.2408 5.81072 -0.873455 0
M  V30 1082 H 99.7648 6.10599 0.0109857 0
M  V30 1083 H 101.179 5.32573 -2.12223 0
M  V30 1084 H 99.5758 5.24843 -2.90963 0
M  V30 1085 H 100.646 3.83602 -2.96611 0
M  V30 1086 N 101.989 0.842826 1.3317 0
M  V30 1087 C 102.921 0.236245 2.27979 0
M  V30 1088 C 103.934 -0.585282 1.51915 0
M  V30 1089 O 105.123 -0.411705 1.73687 0
M  V30 1090 C 102.223 -0.685717 3.3189 0
M  V30 1091 C 101.396 0.0973448 4.37292 0
M  V30 1092 C 100.455 -0.748565 5.20848 0
M  V30 1093 O 99.4809 -0.186339 5.68895 0
M  V30 1094 N 100.683 -2.06527 5.42519 0
M  V30 1095 H 103.448 1.05088 2.80672 0
M  V30 1096 H 101.009 0.701667 1.45905 0
M  V30 1097 H 103.001 -1.25669 3.84694 0
M  V30 1098 H 101.571 -1.40105 2.79445 0
M  V30 1099 H 100.791 0.849706 3.84933 0
M  V30 1100 H 102.079 0.635643 5.04814 0
M  V30 1101 H 101.477 -2.54554 5.05192 0
M  V30 1102 H 100.034 -2.58464 5.98364 0
M  V30 1103 N 103.467 -1.45747 0.599634 0
M  V30 1104 C 104.415 -2.322 -0.136426 0
M  V30 1105 C 105.409 -1.45497 -0.867583 0
M  V30 1106 O 106.615 -1.62027 -0.78405 0
M  V30 1107 H 102.99 -0.749368 -0.0628588 0
M  V30 1108 H 104.961 -2.92072 0.611281 0
M  V30 1109 C 103.71 -3.28974 -1.12567 0
M  V30 1110 H 103.033 -3.9568 -0.572484 0
M  V30 1111 H 104.473 -3.92212 -1.61077 0
M  V30 1112 C 102.932 -2.55561 -2.19523 0
M  V30 1113 O 103.462 -2.33111 -3.27143 0
M  V30 1114 N 101.668 -2.15832 -1.94589 0
M  V30 1115 H 101.215 -2.3429 -1.07078 0
M  V30 1116 H 101.173 -1.67034 -2.66359 0
M  V30 1117 N 104.945 -0.338344 -1.53925 0
M  V30 1118 C 106.193 0.259245 -2.0043 0
M  V30 1119 C 106.514 1.51484 -1.22791 0
M  V30 1120 O 105.784 1.93037 -0.33368 0
M  V30 1121 H 104.364 0.0987845 -0.740439 0
M  V30 1122 H 107.026 -0.458302 -1.89435 0
M  V30 1123 H 106.122 0.505334 -3.07982 0
M  V30 1124 N 106.423 1.57458 -0.0668435 0
M  V30 1125 C 107.37 2.12439 0.902122 0
M  V30 1126 C 108.34 1.03565 1.2986 0
M  V30 1127 O 109.525 1.312 1.38532 0
M  V30 1128 C 106.665 2.6865 2.16614 0
M  V30 1129 C 105.778 3.91663 1.82274 0
M  V30 1130 C 104.913 4.36134 3.0325 0
M  V30 1131 C 103.952 5.51808 2.64904 0
M  V30 1132 N 103.089 5.9126 3.78624 0
M  V30 1133 H 107.929 2.94934 0.426382 0
M  V30 1134 H 105.466 1.4575 0.198819 0
M  V30 1135 H 107.424 2.99346 2.90599 0
M  V30 1136 H 106.054 1.88928 2.61737 0
M  V30 1137 H 105.106 3.6746 0.983719 0
M  V30 1138 H 106.418 4.75693 1.50059 0
M  V30 1139 H 105.572 4.68465 3.85519 0
M  V30 1140 H 104.311 3.50948 3.38655 0
M  V30 1141 H 103.316 5.19133 1.81055 0
M  V30 1142 H 104.541 6.38722 2.30675 0
M  V30 1143 H 102.487 5.09024 4.138 0
M  V30 1144 H 102.404 6.70018 3.5016 0
M  V30 1145 H 103.672 6.28212 4.61486 0
M  V30 1146 N 107.901 -0.206675 1.56239 0
M  V30 1147 C 108.811 -1.27686 1.96808 0
M  V30 1148 C 109.827 -1.50455 0.874035 0
M  V30 1149 O 111.003 -1.63295 1.17884 0
M  V30 1150 C 108.068 -2.60358 2.28942 0
M  V30 1151 C 107.129 -2.45762 3.51994 0
M  V30 1152 C 106.362 -3.72108 3.82585 0
M  V30 1153 O 106.585 -4.75776 3.14631 0
M  V30 1154 O 105.519 -3.6833 4.76043 0
M  V30 1155 H 109.345 -0.962593 2.88041 0
M  V30 1156 H 106.93 -0.410746 1.43643 0
M  V30 1157 H 108.812 -3.38687 2.50737 0
M  V30 1158 H 107.487 -2.91435 1.4088 0
M  V30 1159 H 106.394 -1.65584 3.35459 0
M  V30 1160 H 107.727 -2.19621 4.40486 0
M  V30 1161 N 109.379 -1.50304 -0.473955 0
M  V30 1162 C 110.609 -1.64663 -1.24778 0
M  V30 1163 C 111.017 -0.328174 -1.86332 0
M  V30 1164 O 110.36 0.699536 -1.69859 0
M  V30 1165 C 110.422 -2.6778 -2.39863 0
M  V30 1166 C 110.086 -4.11413 -1.98969 0
M  V30 1167 C 111.083 -4.97372 -1.51385 0
M  V30 1168 C 108.768 -4.57312 -2.07777 0
M  V30 1169 C 110.762 -6.27277 -1.13148 0
M  V30 1170 C 108.449 -5.87223 -1.69152 0
M  V30 1171 C 109.447 -6.72031 -1.21915 0
M  V30 1172 O 109.135 -7.99518 -0.838237 0
M  V30 1173 H 108.867 -0.556602 -0.383627 0
M  V30 1174 H 111.421 -1.9726 -0.572491 0
M  V30 1175 H 109.651 -2.30419 -3.10554 0
M  V30 1176 H 111.34 -2.71388 -3.01833 0
M  V30 1177 H 112.106 -4.63128 -1.44004 0
M  V30 1178 H 107.985 -3.91449 -2.43493 0
M  V30 1179 H 111.529 -6.93425 -0.762077 0
M  V30 1180 H 107.426 -6.20989 -1.76191 0
M  V30 1181 H 108.194 -8.12764 -0.967339 0
M  V30 1182 N 110.857 0.726932 -1.39834 0
M  V30 1183 C 111.82 1.82269 -1.38962 0
M  V30 1184 C 112.82 1.58248 -0.285334 0
M  V30 1185 O 114.01 1.65499 -0.54366 0
M  V30 1186 C 111.142 3.20186 -1.17019 0
M  V30 1187 H 112.335 1.84443 -2.36476 0
M  V30 1188 H 109.888 0.931416 -1.25516 0
M  V30 1189 H 110.623 3.23669 -0.202204 0
M  V30 1190 H 110.408 3.3902 -1.96998 0
M  V30 1191 H 111.898 4.00235 -1.1917 0
M  V30 1192 N 112.336 1.25143 0.95797 0
M  V30 1193 C 113.582 1.09855 1.70469 0
M  V30 1194 C 113.915 -0.360187 1.90831 0
M  V30 1195 O 113.19 -1.26568 1.47685 0
M  V30 1196 C 113.473 1.8497 3.08963 0
M  V30 1197 C 113.326 3.38652 2.96032 0
M  V30 1198 C 114.645 1.63016 4.08795 0
M  V30 1199 H 111.764 0.400465 0.618706 0
M  V30 1200 H 114.406 1.53933 1.11376 0
M  V30 1201 H 112.556 1.47505 3.59409 0
M  V30 1202 H 114.228 3.85772 2.52938 0
M  V30 1203 H 112.471 3.66534 2.32025 0
M  V30 1204 H 113.142 3.8642 3.94187 0
M  V30 1205 H 115.618 1.95625 3.67247 0
M  V30 1206 H 114.494 2.18015 5.03747 0
M  V30 1207 H 114.755 0.570692 4.38401 0
M  V30 1208 N 113.814 -1.1601 1.06675 0
M  V30 1209 C 114.761 -2.20525 0.680967 0
M  V30 1210 C 115.731 -1.62904 -0.324283 0
M  V30 1211 O 116.916 -1.89615 -0.212294 0
M  V30 1212 C 114.056 -3.45013 0.0776551 0
M  V30 1213 C 113.169 -4.16863 1.13355 0
M  V30 1214 C 112.304 -5.2888 0.49597 0
M  V30 1215 C 111.343 -5.92537 1.53513 0
M  V30 1216 N 110.48 -6.96038 0.920631 0
M  V30 1217 H 115.32 -2.52876 1.57663 0
M  V30 1218 H 112.857 -1.24199 0.788223 0
M  V30 1219 H 114.815 -4.16193 -0.289704 0
M  V30 1220 H 113.445 -3.132 -0.781393 0
M  V30 1221 H 112.497 -3.44248 1.61857 0
M  V30 1222 H 113.809 -4.60294 1.92174 0
M  V30 1223 H 112.963 -6.06653 0.0758604 0
M  V30 1224 H 111.702 -4.86622 -0.324062 0
M  V30 1225 H 110.707 -5.13482 1.9651 0
M  V30 1226 H 111.932 -6.36873 2.35733 0
M  V30 1227 H 109.878 -6.55888 0.12138 0
M  V30 1228 H 109.795 -7.3786 1.64616 0
M  V30 1229 H 111.063 -7.77725 0.525795 0
M  V30 1230 N 115.292 -0.849877 -1.32721 0
M  V30 1231 C 116.541 -0.447175 -1.96681 0
M  V30 1232 C 116.854 1.00135 -1.68025 0
M  V30 1233 O 118.06 1.50926 -2.25685 0
M  V30 1234 C 116.516 -0.7487 -3.52026 0
M  V30 1235 C 116.124 -2.21264 -3.89546 0
M  V30 1236 C 117.868 -0.413487 -4.22481 0
M  V30 1237 C 115.775 -2.45763 -5.37917 0
M  V30 1238 H 114.705 -0.163486 -0.736063 0
M  V30 1239 H 117.356 -1.03999 -1.51183 0
M  V30 1240 H 115.738 -0.0853727 -3.95908 0
M  V30 1241 H 116.912 -2.91736 -3.56689 0
M  V30 1242 H 115.227 -2.5119 -3.32103 0
M  V30 1243 H 117.824 -0.574017 -5.3161 0
M  V30 1244 H 118.167 0.644492 -4.11281 0
M  V30 1245 H 118.7 -1.03251 -3.84167 0
M  V30 1246 H 115.439 -3.50168 -5.54132 0
M  V30 1247 H 114.959 -1.79864 -5.72197 0
M  V30 1248 H 116.638 -2.29471 -6.0494 0
M  V30 1249 N 116.77 1.45427 -0.607355 0
M  V30 1250 C 118.019 2.01452 -0.100036 0
M  V30 1251 C 118.332 1.48159 1.27704 0
M  V30 1252 O 119.538 1.96159 1.87707 0
M  V30 1253 C 117.994 3.59672 -0.128158 0
M  V30 1254 C 117.602 4.21962 -1.50507 0
M  V30 1255 C 119.346 4.23262 0.323932 0
M  V30 1256 C 117.253 5.72333 -1.48959 0
M  V30 1257 H 116.183 0.75325 -0.0336299 0
M  V30 1258 H 118.834 1.66901 -0.76265 0
M  V30 1259 H 117.216 3.91411 0.601105 0
M  V30 1260 H 118.39 4.01796 -2.25602 0
M  V30 1261 H 116.705 3.70565 -1.89923 0
M  V30 1262 H 119.302 5.33522 0.354691 0
M  V30 1263 H 119.645 3.93921 1.34656 0
M  V30 1264 H 120.178 3.96239 -0.352056 0
M  V30 1265 H 116.917 6.06373 -2.48981 0
M  V30 1266 H 116.437 5.94691 -0.781214 0
M  V30 1267 H 118.116 6.35525 -1.21313 0
M  V30 1268 N 118.248 0.346503 1.53744 0
M  V30 1269 C 119.158 -0.517293 2.28826 0
M  V30 1270 C 120.174 -1.10935 1.3405 0
M  V30 1271 O 121.35 -1.1244 1.6709 0
M  V30 1272 C 118.415 -1.65098 3.04866 0
M  V30 1273 C 117.476 -1.0884 4.15274 0
M  V30 1274 C 116.709 -2.16806 4.87679 0
M  V30 1275 O 116.932 -3.3758 4.59778 0
M  V30 1276 O 115.866 -1.80934 5.74061 0
M  V30 1277 H 119.692 0.0931396 3.03557 0
M  V30 1278 H 117.277 0.111458 1.48984 0
M  V30 1279 H 119.159 -2.31053 3.5241 0
M  V30 1280 H 117.834 -2.24717 2.32989 0
M  V30 1281 H 116.741 -0.3933 3.72027 0
M  V30 1282 H 118.074 -0.537036 4.89261 0
M  V30 1283 N 119.726 -1.57421 0.075193 0
M  V30 1284 C 120.673 -2.12915 -0.890843 0
M  V30 1285 C 121.643 -1.04252 -1.29309 0
M  V30 1286 O 122.828 -1.31933 -1.37834 0
M  V30 1287 C 119.968 -2.69795 -2.15186 0
M  V30 1288 C 119.081 -3.92624 -1.80194 0
M  V30 1289 C 118.216 -4.37736 -3.00933 0
M  V30 1290 C 117.255 -5.53205 -2.61974 0
M  V30 1291 N 116.392 -5.9326 -3.75483 0
M  V30 1292 H 121.232 -2.95156 -0.410735 0
M  V30 1293 H 118.769 -1.45854 -0.191086 0
M  V30 1294 H 120.727 -3.00883 -2.89008 0
M  V30 1295 H 119.357 -1.90313 -2.60731 0
M  V30 1296 H 118.409 -3.67977 -0.964218 0
M  V30 1297 H 119.721 -4.76482 -1.47534 0
M  V30 1298 H 118.875 -4.70503 -3.8303 0
M  V30 1299 H 117.614 -3.52739 -3.36789 0
M  V30 1300 H 116.619 -5.20086 -1.783 0
M  V30 1301 H 117.844 -6.39936 -2.27284 0
M  V30 1302 H 115.79 -5.11212 -4.11094 0
M  V30 1303 H 115.707 -6.71865 -3.46602 0
M  V30 1304 H 116.975 -6.30651 -4.58148 0
M  V30 1305 N 121.204 0.198386 -1.56346 0
M  V30 1306 C 122.136 1.26987 -1.90806 0
M  V30 1307 C 123.149 1.41877 -0.798419 0
M  V30 1308 O 124.338 1.42362 -1.07682 0
M  V30 1309 C 121.438 2.64246 -2.12196 0
M  V30 1310 C 120.611 2.71007 -3.43328 0
M  V30 1311 C 119.67 3.89439 -3.5387 0
M  V30 1312 O 118.696 3.76695 -4.26719 0
M  V30 1313 N 119.898 5.04752 -2.86715 0
M  V30 1314 H 122.663 0.977433 -2.83313 0
M  V30 1315 H 120.224 0.388322 -1.57174 0
M  V30 1316 H 122.216 3.41896 -2.1654 0
M  V30 1317 H 120.786 2.85992 -1.26204 0
M  V30 1318 H 120.006 1.79657 -3.50881 0
M  V30 1319 H 121.294 2.72512 -4.29668 0
M  V30 1320 H 120.692 5.18004 -2.2735 0
M  V30 1321 H 119.249 5.8036 -2.96691 0
M  V30 1322 N 122.682 1.50554 0.465978 0
M  V30 1323 C 123.645 1.69233 1.54574 0
M  V30 1324 C 124.645 0.562901 1.50626 0
M  V30 1325 O 125.835 0.830016 1.53155 0
M  V30 1326 C 122.967 1.7223 2.94193 0
M  V30 1327 H 124.16 2.65571 1.39327 0
M  V30 1328 H 121.713 1.40111 0.692711 0
M  V30 1329 H 122.448 0.77603 3.14878 0
M  V30 1330 H 122.233 2.54285 2.98466 0
M  V30 1331 H 123.723 1.88618 3.72576 0
M  V30 1332 N 124.16 -0.719506 1.40217 0
M  V30 1333 C 125.408 -1.47641 1.3801 0
M  V30 1334 C 125.729 -1.94992 -0.018145 0
M  V30 1335 O 124.999 -1.70073 -0.972207 0
M  V30 1336 H 123.579 -0.547744 0.507923 0
M  V30 1337 H 126.241 -0.853187 1.75233 0
M  V30 1338 H 125.337 -2.35112 2.05253 0
M  V30 1339 N 125.638 -1.25649 -0.95132 0
M  V30 1340 C 126.588 -1.03004 -2.03406 0
M  V30 1341 C 127.572 0.034187 -1.60864 0
M  V30 1342 O 128.764 -0.181549 -1.76066 0
M  V30 1343 C 125.893 -0.654255 -3.37008 0
M  V30 1344 C 124.979 -1.75542 -3.86065 0
M  V30 1345 N 125.37 -2.99113 -4.07879 0
M  V30 1346 C 123.668 -1.63669 -4.14884 0
M  V30 1347 C 124.369 -3.70611 -4.48356 0
M  V30 1348 N 123.345 -2.98247 -4.54477 0
M  V30 1349 H 127.147 -1.96813 -2.1827 0
M  V30 1350 H 124.661 -1.16017 -1.13639 0
M  V30 1351 H 126.658 -0.473206 -4.14206 0
M  V30 1352 H 125.318 0.276468 -3.23521 0
M  V30 1353 H 126.329 -3.35124 -3.94857 0
M  V30 1354 H 123.006 -0.775161 -4.10241 0
M  V30 1355 H 124.396 -4.76695 -4.73509 0
M  V30 1356 N 127.117 1.15442 -1.07289 0
M  V30 1357 C 128.342 1.90638 -0.816828 0
M  V30 1358 C 128.767 1.77445 0.624083 0
M  V30 1359 O 128.125 1.10671 1.43602 0
M  V30 1360 C 128.173 3.39008 -1.22906 0
M  V30 1361 O 127.277 4.10701 -0.373975 0
M  V30 1362 H 126.618 0.593555 -0.297638 0
M  V30 1363 H 129.148 1.46198 -1.43134 0
M  V30 1364 H 129.158 3.89801 -1.20497 0
M  V30 1365 H 127.833 3.47929 -2.27856 0
M  V30 1366 H 126.41 3.70046 -0.460499 0
M  V30 1367 N 128.595 0.856903 1.32268 0
M  V30 1368 C 130.011 0.547061 1.49931 0
M  V30 1369 C 130.211 -0.921781 1.7918 0
M  V30 1370 O 129.267 -1.70469 1.8627 0
M  V30 1371 C 130.58 1.43599 2.64196 0
M  V30 1372 C 132.128 1.43665 2.78081 0
M  V30 1373 C 132.603 2.31085 3.95428 0
M  V30 1374 N 134.094 2.28893 4.02694 0
M  V30 1375 C 134.829 2.93262 4.92732 0
M  V30 1376 N 134.325 3.66751 5.87763 0
M  V30 1377 N 136.118 2.82638 4.85873 0
M  V30 1378 H 128.269 1.8075 1.11549 0
M  V30 1379 H 130.532 0.772144 0.549997 0
M  V30 1380 H 130.238 2.48058 2.49319 0
M  V30 1381 H 130.112 1.12502 3.60032 0
M  V30 1382 H 132.499 0.399701 2.92381 0
M  V30 1383 H 132.58 1.7878 1.82952 0
M  V30 1384 H 132.224 3.34849 3.81888 0
M  V30 1385 H 132.154 1.93302 4.89839 0
M  V30 1386 H 134.645 1.75466 3.34694 0
M  V30 1387 H 134.958 4.13027 6.53168 0
M  V30 1388 H 133.303 3.70859 5.87783 0
M  V30 1389 H 136.494 2.24774 4.10602 0
M  V30 1390 H 136.667 3.33084 5.55841 0
M  V30 1391 N 130.073 -1.45103 0.615059 0
M  V30 1392 C 131.298 -2.07064 0.117988 0
M  V30 1393 C 131.723 -1.4554 -1.19163 0
M  V30 1394 O 131.081 -0.550855 -1.72729 0
M  V30 1395 C 131.129 -3.606 -0.000288387 0
M  V30 1396 O 130.233 -3.98847 -1.04856 0
M  V30 1397 H 129.574 -0.659467 0.0774581 0
M  V30 1398 H 132.104 -1.86236 0.847186 0
M  V30 1399 H 132.114 -4.07529 -0.196091 0
M  V30 1400 H 130.789 -4.04765 0.955932 0
M  V30 1401 H 129.366 -3.63577 -0.828619 0
M  V30 1402 N 131.551 -0.354651 -1.53558 0
M  V30 1403 C 132.967 -0.00315426 -1.596 0
M  V30 1404 C 133.167 1.47741 -1.37021 0
M  V30 1405 O 132.223 2.23759 -1.16996 0
M  V30 1406 C 133.536 -0.44929 -2.97325 0
M  V30 1407 C 135.084 -0.402578 -3.104 0
M  V30 1408 C 135.559 -0.824355 -4.5052 0
M  V30 1409 N 137.05 -0.778979 -4.56603 0
M  V30 1410 C 137.785 -1.07715 -5.63192 0
M  V30 1411 N 137.281 -1.44405 -6.77583 0
M  V30 1412 N 139.074 -1.00066 -5.53121 0
M  V30 1413 H 131.225 -1.31893 -1.66487 0
M  V30 1414 H 133.488 -0.538388 -0.780284 0
M  V30 1415 H 133.194 -1.48202 -3.1895 0
M  V30 1416 H 133.068 0.169772 -3.76818 0
M  V30 1417 H 135.455 0.621004 -2.88492 0
M  V30 1418 H 135.536 -1.05699 -2.32941 0
M  V30 1419 H 135.18 -1.846 -4.73165 0
M  V30 1420 H 135.11 -0.147304 -5.26394 0
M  V30 1421 H 137.601 -0.508528 -3.74463 0
M  V30 1422 H 137.914 -1.65612 -7.54846 0
M  V30 1423 H 136.259 -1.4826 -6.79002 0
M  V30 1424 H 139.45 -0.713293 -4.62633 0
M  V30 1425 H 139.623 -1.23638 -6.36096 0
M  V30 1426 N 133.029 1.57378 -0.0835403 0
M  V30 1427 C 134.275 1.94217 0.583733 0
M  V30 1428 C 134.608 0.964653 1.68547 0
M  V30 1429 O 133.883 -0.00422258 1.945 0
M  V30 1430 C 134.166 3.41253 1.14972 0
M  V30 1431 C 134.019 4.49768 0.0538277 0
M  V30 1432 C 135.338 3.89352 2.05166 0
M  V30 1433 H 132.457 0.706233 0.210724 0
M  V30 1434 H 135.099 1.89392 -0.1519 0
M  V30 1435 H 133.249 3.45496 1.77665 0
M  V30 1436 H 134.921 4.57641 -0.579851 0
M  V30 1437 H 133.164 4.29432 -0.614068 0
M  V30 1438 H 133.835 5.49817 0.490452 0
M  V30 1439 H 136.311 3.87189 1.52393 0
M  V30 1440 H 135.187 4.92822 2.41698 0
M  V30 1441 H 135.448 3.27973 2.96456 0
M  V30 1442 N 134.507 -0.190092 1.56449 0
M  V30 1443 C 135.754 -0.909705 1.80916 0
M  V30 1444 C 136.082 -1.83047 0.657583 0
M  V30 1445 O 135.337 -1.92428 -0.356356 0
M  V30 1446 C 135.636 -1.75382 3.1141 0
M  V30 1447 C 135.302 -0.983606 4.40041 0
M  V30 1448 C 133.964 -0.770967 4.74984 0
M  V30 1449 C 136.316 -0.442024 5.19322 0
M  V30 1450 C 133.644 -0.0053448 5.867 0
M  V30 1451 C 135.996 0.310412 6.31838 0
M  V30 1452 C 134.66 0.534023 6.6536 0
M  V30 1453 H 133.93 -0.332885 0.662019 0
M  V30 1454 H 136.577 -0.175762 1.90692 0
M  V30 1455 H 134.882 -2.55659 2.96893 0
M  V30 1456 H 136.579 -2.31331 3.27547 0
M  V30 1457 H 133.169 -1.15936 4.12622 0
M  V30 1458 H 137.353 -0.593693 4.92736 0
M  V30 1459 H 132.609 0.177825 6.11141 0
M  V30 1460 H 136.783 0.737419 6.92485 0
M  V30 1461 H 134.41 1.12918 7.51767 0
M  V30 1462 N 135.985 -1.50799 -0.457987 0
M  V30 1463 C 137.401 -1.38515 -0.792819 0
M  V30 1464 C 137.601 -0.451409 -1.96379 0
M  V30 1465 O 136.657 0.10112 -2.52297 0
M  V30 1466 C 137.97 -2.80149 -1.09258 0
M  V30 1467 C 139.518 -2.89156 -1.19825 0
M  V30 1468 C 139.993 -4.31651 -1.53106 0
M  V30 1469 N 141.484 -4.34662 -1.60072 0
M  V30 1470 C 142.219 -5.41928 -1.87354 0
M  V30 1471 N 141.715 -6.59384 -2.12568 0
M  V30 1472 N 143.508 -5.29385 -1.88965 0
M  V30 1473 H 135.659 -2.10073 0.313511 0
M  V30 1474 H 137.922 -0.944803 0.0777862 0
M  V30 1475 H 137.628 -3.50374 -0.305084 0
M  V30 1476 H 137.502 -3.18204 -2.02549 0
M  V30 1477 H 139.889 -2.19141 -1.97639 0
M  V30 1478 H 139.97 -2.54626 -0.244821 0
M  V30 1479 H 139.614 -5.02208 -0.758266 0
M  V30 1480 H 139.544 -4.63678 -2.49621 0
M  V30 1481 H 142.035 -3.49973 -1.42573 0
M  V30 1482 H 142.348 -7.36934 -2.32696 0
M  V30 1483 H 140.693 -6.62535 -2.09933 0
M  V30 1484 H 143.884 -4.36616 -1.68772 0
M  V30 1485 H 144.057 -6.13066 -2.09891 0
M  V30 1486 N 137.463 0.71206 -1.40597 0
M  V30 1487 C 138.373 1.8562 -1.43466 0
M  V30 1488 C 139.389 1.70902 -0.326902 0
M  V30 1489 O 140.565 1.93105 -0.572043 0
M  V30 1490 C 137.63 3.21451 -1.29884 0
M  V30 1491 C 136.691 3.48398 -2.50833 0
M  V30 1492 C 135.924 4.77749 -2.3789 0
M  V30 1493 O 136.147 5.53089 -1.39459 0
M  V30 1494 O 135.081 5.05111 -3.27333 0
M  V30 1495 H 138.907 1.86155 -2.39958 0
M  V30 1496 H 136.492 0.86295 -1.21957 0
M  V30 1497 H 138.374 4.02579 -1.24531 0
M  V30 1498 H 137.049 3.21636 -0.364997 0
M  V30 1499 H 135.956 2.67265 -2.61763 0
M  V30 1500 H 137.289 3.53014 -3.4299 0
M  V30 1501 N 138.941 1.26152 0.944643 0
M  V30 1502 C 140.187 1.11657 1.69294 0
M  V30 1503 C 140.52 -0.339926 1.91202 0
M  V30 1504 O 139.795 -1.24994 1.49019 0
M  V30 1505 C 140.078 1.88236 3.06984 0
M  V30 1506 C 139.931 3.41772 2.92424 0
M  V30 1507 C 141.25 1.67343 4.07043 0
M  V30 1508 H 138.369 0.407004 0.614424 0
M  V30 1509 H 141.011 1.55106 1.09737 0
M  V30 1510 H 139.161 1.51308 3.57824 0
M  V30 1511 H 140.833 3.88433 2.48832 0
M  V30 1512 H 139.076 3.68974 2.28124 0
M  V30 1513 H 139.747 3.90579 3.90067 0
M  V30 1514 H 142.223 1.99509 3.65151 0
M  V30 1515 H 141.099 2.23346 5.01406 0
M  V30 1516 H 141.36 0.617158 4.37771 0
M  V30 1517 N 140.419 -1.14872 1.07899 0
M  V30 1518 C 141.329 -2.2341 0.715915 0
M  V30 1519 C 142.345 -1.71808 -0.275306 0
M  V30 1520 O 143.521 -2.01039 -0.120545 0
M  V30 1521 C 140.586 -3.46474 0.125168 0
M  V30 1522 C 139.647 -4.13039 1.17034 0
M  V30 1523 C 138.88 -5.30229 0.607688 0
M  V30 1524 O 139.103 -5.675 -0.574497 0
M  V30 1525 O 138.037 -5.86444 1.35526 0
M  V30 1526 H 141.863 -2.56808 1.62121 0
M  V30 1527 H 139.448 -1.22702 0.852322 0
M  V30 1528 H 141.33 -4.20917 -0.201729 0
M  V30 1529 H 140.005 -3.14811 -0.753364 0
M  V30 1530 H 138.912 -3.40493 1.54968 0
M  V30 1531 H 140.245 -4.48796 2.02097 0
M  V30 1532 N 141.898 -0.863906 -1.31812 0
M  V30 1533 C 143.126 -0.486111 -2.01108 0
M  V30 1534 C 143.541 0.919755 -1.64882 0
M  V30 1535 O 142.898 1.60162 -0.874893 0
M  V30 1536 C 142.949 -0.626435 -3.56031 0
M  V30 1537 O 142.67 -1.97693 -3.90959 0
M  V30 1538 C 144.171 -0.248857 -4.42601 0
M  V30 1539 H 141.391 -0.190052 -0.643523 0
M  V30 1540 H 143.935 -1.1634 -1.68182 0
M  V30 1541 H 142.09 0.00322717 -3.874 0
M  V30 1542 H 142.504 -1.98034 -4.85678 0
M  V30 1543 H 143.978 -0.398016 -5.50563 0
M  V30 1544 H 144.455 0.811489 -4.31638 0
M  V30 1545 H 145.061 -0.853971 -4.16638 0
M  V30 1546 N 143.376 1.44774 -0.622745 0
M  V30 1547 C 144.306 2.33382 0.0741861 0
M  V30 1548 C 145.287 1.47719 0.843387 0
M  V30 1549 O 146.472 1.76458 0.810934 0
M  V30 1550 C 143.602 3.30663 1.06204 0
M  V30 1551 C 142.556 4.26079 0.405037 0
M  V30 1552 C 141.882 5.13165 1.5022 0
M  V30 1553 C 143.182 5.1781 -0.683414 0
M  V30 1554 H 144.876 2.91905 -0.665713 0
M  V30 1555 H 142.422 1.40363 -0.321587 0
M  V30 1556 H 144.375 3.9153 1.55827 0
M  V30 1557 H 143.099 2.70331 1.83272 0
M  V30 1558 H 141.758 3.66532 -0.0704683 0
M  V30 1559 H 141.406 4.49191 2.26355 0
M  V30 1560 H 141.106 5.77812 1.06803 0
M  V30 1561 H 142.63 5.76902 2.00041 0
M  V30 1562 H 144.044 5.72661 -0.270631 0
M  V30 1563 H 142.441 5.91015 -1.04023 0
M  V30 1564 H 143.511 4.59326 -1.55395 0
M  V30 1565 N 144.854 0.36279 1.53368 0
M  V30 1566 C 146.084 -0.228281 2.05335 0
M  V30 1567 C 146.492 -1.43226 1.23625 0
M  V30 1568 O 145.835 -1.81717 0.269206 0
M  V30 1569 C 145.897 -0.688549 3.52845 0
M  V30 1570 C 145.561 0.398362 4.5526 0
M  V30 1571 C 146.558 1.24732 5.04716 0
M  V30 1572 C 144.243 0.557805 4.99193 0
M  V30 1573 C 146.237 2.2411 5.96702 0
M  V30 1574 C 143.924 1.55495 5.90986 0
M  V30 1575 C 144.922 2.39503 6.39631 0
M  V30 1576 O 144.61 3.37517 7.29615 0
M  V30 1577 H 144.342 -0.044395 0.674541 0
M  V30 1578 H 146.896 0.518668 1.98744 0
M  V30 1579 H 145.126 -1.48706 3.56964 0
M  V30 1580 H 146.815 -1.20231 3.87685 0
M  V30 1581 H 147.581 1.13532 4.71525 0
M  V30 1582 H 143.46 -0.0862959 4.60919 0
M  V30 1583 H 147.004 2.89718 6.34594 0
M  V30 1584 H 142.901 1.66744 6.23592 0
M  V30 1585 H 143.669 3.33213 7.47604 0
M  V30 1586 N 146.332 -1.57332 0.0918853 0
M  V30 1587 C 147.264 -2.10869 -0.898168 0
M  V30 1588 C 148.277 -1.04521 -1.24817 0
M  V30 1589 O 149.466 -1.31977 -1.20184 0
M  V30 1590 C 146.566 -2.57083 -2.2082 0
M  V30 1591 C 145.739 -3.87229 -2.03402 0
M  V30 1592 C 144.798 -4.19324 -3.17889 0
M  V30 1593 O 143.824 -4.88598 -2.91994 0
M  V30 1594 N 145.026 -3.74471 -4.43567 0
M  V30 1595 H 147.791 -2.96439 -0.440943 0
M  V30 1596 H 145.352 -1.61631 -0.0933064 0
M  V30 1597 H 147.344 -2.75602 -2.96354 0
M  V30 1598 H 145.914 -1.76541 -2.57977 0
M  V30 1599 H 145.134 -3.7789 -1.12218 0
M  V30 1600 H 146.422 -4.72379 -1.89038 0
M  V30 1601 H 145.82 -3.18546 -4.67488 0
M  V30 1602 H 144.377 -3.98151 -5.16061 0
M  V30 1603 N 147.81 0.181792 -1.56548 0
M  V30 1604 C 149.05 0.906711 -1.83189 0
M  V30 1605 C 149.414 1.79882 -0.671312 0
M  V30 1606 O 150.615 2.56054 -0.81792 0
M  V30 1607 C 148.886 1.69023 -3.14906 0
M  V30 1608 S 150.445 2.46535 -3.62996 0
M  V30 1609 H 147.263 0.303877 -0.642791 0
M  V30 1610 H 149.865 0.169107 -1.94767 0
M  V30 1611 H 148.569 1.02571 -3.97376 0
M  V30 1612 H 148.1 2.46941 -3.06241 0
M  V30 1613 H 150.115 3.71014 -3.29489 0
M  V30 1614 N 149.288 1.51039 0.449983 0
M  V30 1615 C 150.22 1.67617 1.56324 0
M  V30 1616 C 151.233 0.557083 1.52972 0
M  V30 1617 O 152.422 0.830989 1.57977 0
M  V30 1618 C 149.522 1.66402 2.95235 0
M  V30 1619 C 148.695 2.9469 3.23229 0
M  V30 1620 C 147.754 2.85832 4.41799 0
M  V30 1621 O 146.78 3.59785 4.41071 0
M  V30 1622 N 147.982 2.00821 5.44657 0
M  V30 1623 H 150.747 2.63648 1.42512 0
M  V30 1624 H 148.308 1.48767 0.638737 0
M  V30 1625 H 150.3 1.58062 3.72557 0
M  V30 1626 H 148.87 0.780182 3.02708 0
M  V30 1627 H 148.09 3.16996 2.34323 0
M  V30 1628 H 149.378 3.79636 3.38754 0
M  V30 1629 H 148.776 1.40091 5.48079 0
M  V30 1630 H 147.333 1.98368 6.20881 0
M  V30 1631 N 150.766 -0.704594 1.40972 0
M  V30 1632 C 152.014 -1.46169 1.39568 0
M  V30 1633 C 152.335 -1.95 0.00253745 0
M  V30 1634 O 151.605 -1.71095 -0.954114 0
M  V30 1635 H 150.185 -0.542326 0.513704 0
M  V30 1636 H 152.847 -0.834553 1.76128 0
M  V30 1637 H 151.943 -2.32922 2.07735 0
M  V30 1638 N 152.244 -1.26651 -0.937939 0
M  V30 1639 C 153.192 -1.08308 -2.05845 0
M  V30 1640 C 154.186 -0.0090757 -1.69398 0
M  V30 1641 O 155.392 -0.166007 -1.79233 0
M  V30 1642 H 151.767 -0.333416 -0.674046 0
M  V30 1643 H 153.738 -2.03261 -2.18467 0
M  V30 1644 C 152.487 -0.736229 -3.39816 0
M  V30 1645 H 151.81 -1.55453 -3.6834 0
M  V30 1646 H 153.25 -0.64769 -4.19024 0
M  V30 1647 C 151.709 0.558824 -3.32233 0
M  V30 1648 O 152.239 1.59621 -3.68624 0
M  V30 1649 N 150.445 0.550657 -2.85335 0
M  V30 1650 H 149.992 -0.293943 -2.55917 0
M  V30 1651 H 149.95 1.41726 -2.80644 0
M  V30 1652 N 153.722 1.14298 -1.08507 0
M  V30 1653 C 154.669 2.19414 -0.715965 0
M  V30 1654 C 155.639 1.63399 0.298326 0
M  V30 1655 O 156.824 1.89929 0.182101 0
M  V30 1656 C 153.964 3.44845 -0.132534 0
M  V30 1657 C 153.077 4.15007 -1.19973 0
M  V30 1658 C 152.212 5.28024 -0.580048 0
M  V30 1659 C 151.251 5.9002 -1.62921 0
M  V30 1660 N 150.388 6.94485 -1.03125 0
M  V30 1661 H 155.228 2.50336 -1.61666 0
M  V30 1662 H 152.765 1.2293 -0.807882 0
M  V30 1663 H 154.723 4.16601 0.223454 0
M  V30 1664 H 153.353 3.14403 0.731467 0
M  V30 1665 H 152.405 3.41629 -1.67313 0
M  V30 1666 H 153.717 4.57178 -1.99473 0
M  V30 1667 H 152.871 6.06455 -0.172364 0
M  V30 1668 H 151.61 4.87076 0.246603 0
M  V30 1669 H 150.615 5.10291 -2.04654 0
M  V30 1670 H 151.84 6.33042 -2.45835 0
M  V30 1671 H 149.786 6.55612 -0.225711 0
M  V30 1672 H 149.703 7.35148 -1.76334 0
M  V30 1673 H 150.971 7.7679 -0.649458 0
M  V30 1674 N 155.201 0.870884 1.31352 0
M  V30 1675 C 156.149 0.316445 2.30437 0
M  V30 1676 C 157.143 -0.568965 1.59559 0
M  V30 1677 O 158.349 -0.454964 1.74155 0
M  V30 1678 H 154.724 0.0836521 0.747333 0
M  V30 1679 H 156.695 1.16606 2.74673 0
M  V30 1680 C 155.444 -0.46635 3.44558 0
M  V30 1681 H 154.767 0.205687 3.99271 0
M  V30 1682 H 156.207 -0.819614 4.16003 0
M  V30 1683 C 154.666 -1.65797 2.9328 0
M  V30 1684 O 155.196 -2.75728 2.92125 0
M  V30 1685 N 153.402 -1.49041 2.4947 0
M  V30 1686 H 152.949 -0.59612 2.50608 0
M  V30 1687 H 152.907 -2.28911 2.15516 0
M  V30 1688 N 156.679 -1.44442 0.630414 0
M  V30 1689 C 157.928 -2.01267 0.132073 0
M  V30 1690 C 158.241 -1.50172 -1.25331 0
M  V30 1691 O 159.447 -1.9912 -1.84562 0
M  V30 1692 C 157.903 -3.59422 0.185362 0
M  V30 1693 C 157.511 -4.19514 1.57201 0
M  V30 1694 C 159.255 -4.23724 -0.256553 0
M  V30 1695 C 157.162 -5.69891 1.58045 0
M  V30 1696 H 156.092 -0.752619 0.0456092 0
M  V30 1697 H 158.743 -1.65666 0.789106 0
M  V30 1698 H 157.125 -3.92318 -0.538759 0
M  V30 1699 H 158.299 -3.98156 2.31966 0
M  V30 1700 H 156.614 -3.67496 1.95795 0
M  V30 1701 H 159.211 -5.34019 -0.269767 0
M  V30 1702 H 159.554 -3.96013 -1.28372 0
M  V30 1703 H 160.087 -3.95629 0.41505 0
M  V30 1704 H 156.826 -6.02336 2.58597 0
M  V30 1705 H 156.346 -5.93373 0.875725 0
M  V30 1706 H 158.025 -6.33515 1.31408 0
M  V30 1707 N 158.157 -0.370918 -1.53173 0
M  V30 1708 C 159.087 0.464847 -2.28826 0
M  V30 1709 C 160.068 1.07936 -1.31468 0
M  V30 1710 O 161.253 1.0956 -1.60344 0
M  V30 1711 C 158.383 1.60196 -3.08147 0
M  V30 1712 C 157.337 1.11443 -4.13237 0
M  V30 1713 C 156.663 2.3422 -4.80672 0
M  V30 1714 C 157.963 0.195384 -5.21934 0
M  V30 1715 H 159.657 -0.166329 -2.98938 0
M  V30 1716 H 157.203 -0.0814359 -1.4377 0
M  V30 1717 H 159.156 2.19332 -3.59822 0
M  V30 1718 H 157.88 2.26045 -2.35735 0
M  V30 1719 H 156.539 0.545727 -3.62515 0
M  V30 1720 H 156.187 2.98537 -4.04827 0
M  V30 1721 H 155.887 2.02269 -5.51689 0
M  V30 1722 H 157.411 2.94032 -5.35143 0
M  V30 1723 H 158.825 0.694375 -5.69079 0
M  V30 1724 H 157.222 -0.0335027 -6.00091 0
M  V30 1725 H 158.292 -0.760961 -4.78892 0
M  V30 1726 N 159.635 1.57281 -0.100228 0
M  V30 1727 C 160.545 2.17833 0.870965 0
M  V30 1728 C 161.561 1.14921 1.30649 0
M  V30 1729 O 162.737 1.47313 1.37335 0
M  V30 1730 C 159.802 2.75085 2.1102 0
M  V30 1731 C 158.863 3.9297 1.72838 0
M  V30 1732 C 158.096 4.47482 2.90854 0
M  V30 1733 O 158.319 4.00922 4.05731 0
M  V30 1734 O 157.253 5.38433 2.69023 0
M  V30 1735 H 161.079 3.0124 0.38575 0
M  V30 1736 H 158.664 1.48881 0.124397 0
M  V30 1737 H 160.546 3.11656 2.83634 0
M  V30 1738 H 159.221 1.94721 2.58584 0
M  V30 1739 H 158.128 3.61201 0.973883 0
M  V30 1740 H 159.461 4.74713 1.30033 0
M  V30 1741 N 161.113 -0.173488 1.56642 0
M  V30 1742 C 162.043 -1.2171 1.99271 0
M  V30 1743 C 163.024 -1.46289 0.867959 0
M  V30 1744 O 164.209 -1.5766 1.13388 0
M  V30 1745 C 161.339 -2.55651 2.35074 0
M  V30 1746 C 160.293 -2.45645 3.50489 0
M  V30 1747 C 159.619 -3.84056 3.72028 0
M  V30 1748 C 160.919 -1.96302 4.84007 0
M  V30 1749 H 162.613 -0.86275 2.867 0
M  V30 1750 H 160.159 -0.413571 1.37933 0
M  V30 1751 H 162.112 -3.2886 2.63494 0
M  V30 1752 H 160.836 -2.92869 1.44552 0
M  V30 1753 H 159.495 -1.7489 3.22194 0
M  V30 1754 H 159.143 -4.18664 2.788 0
M  V30 1755 H 158.843 -3.7823 4.49684 0
M  V30 1756 H 160.367 -4.58854 4.02846 0
M  V30 1757 H 161.781 -2.59284 5.11317 0
M  V30 1758 H 160.178 -2.01429 5.65284 0
M  V30 1759 H 161.248 -0.917226 4.76146 0
M  V30 1760 N 162.591 -1.51276 -0.441967 0
M  V30 1761 C 163.84 -1.6295 -1.18871 0
M  V30 1762 C 164.153 -0.349312 -1.92456 0
M  V30 1763 O 165.359 -0.345355 -2.69295 0
M  V30 1764 C 163.815 -2.87759 -2.16155 0
M  V30 1765 C 163.423 -4.22764 -1.48239 0
M  V30 1766 C 165.167 -3.08788 -2.91291 0
M  V30 1767 C 163.074 -5.38728 -2.4398 0
M  V30 1768 H 162.004 -0.606913 -0.447406 0
M  V30 1769 H 164.655 -1.77739 -0.456205 0
M  V30 1770 H 163.037 -2.66593 -2.92821 0
M  V30 1771 H 164.211 -4.54293 -0.771635 0
M  V30 1772 H 162.526 -4.07575 -0.852741 0
M  V30 1773 H 165.123 -3.92599 -3.63002 0
M  V30 1774 H 165.466 -2.21679 -3.5237 0
M  V30 1775 H 165.999 -3.30272 -2.21733 0
M  V30 1776 H 162.738 -6.28082 -1.87598 0
M  V30 1777 H 162.258 -5.1158 -3.13123 0
M  V30 1778 H 163.937 -5.70489 -3.05207 0
M  V30 1779 N 164.069 0.697108 -1.41344 0
M  V30 1780 C 164.979 1.84088 -1.45427 0
M  V30 1781 C 165.995 1.70545 -0.34501 0
M  V30 1782 O 167.171 1.92488 -0.592492 0
M  V30 1783 C 164.236 3.20056 -1.33286 0
M  V30 1784 C 163.297 3.45718 -2.54514 0
M  V30 1785 C 162.53 4.75199 -2.42944 0
M  V30 1786 O 162.753 5.51579 -1.45318 0
M  V30 1787 O 161.687 5.0161 -3.32672 0
M  V30 1788 H 165.513 1.836 -2.41919 0
M  V30 1789 H 163.098 0.849966 -1.22866 0
M  V30 1790 H 164.98 4.01236 -1.28794 0
M  V30 1791 H 163.655 3.2123 -0.39909 0
M  V30 1792 H 162.562 2.64474 -2.64583 0
M  V30 1793 H 163.895 3.49356 -3.46715 0
M  V30 1794 N 165.547 1.27147 0.931209 0
M  V30 1795 C 166.794 1.13278 1.67852 0
M  V30 1796 C 167.122 -0.32204 1.91815 0
M  V30 1797 O 166.377 -1.25224 1.50391 0
M  V30 1798 C 166.676 1.8579 3.05314 0
M  V30 1799 C 166.342 3.35657 3.01073 0
M  V30 1800 C 165.004 3.76536 2.99623 0
M  V30 1801 C 167.356 4.31299 2.92627 0
M  V30 1802 C 164.684 5.11426 2.87506 0
M  V30 1803 C 167.036 5.66242 2.82051 0
M  V30 1804 C 165.7 6.06418 2.7895 0
M  V30 1805 H 164.97 0.414515 0.614214 0
M  V30 1806 H 167.617 1.57712 1.08624 0
M  V30 1807 H 165.922 1.33854 3.68226 0
M  V30 1808 H 167.619 1.72491 3.62005 0
M  V30 1809 H 164.209 3.03146 3.02986 0
M  V30 1810 H 168.393 4.00692 2.92848 0
M  V30 1811 H 163.649 5.41705 2.83489 0
M  V30 1812 H 167.823 6.40026 2.74481 0
M  V30 1813 H 165.45 7.10895 2.69318 0
M  V30 1814 N 167.025 -1.13721 1.09112 0
M  V30 1815 C 168.272 -1.84924 0.825192 0
M  V30 1816 C 168.6 -1.83347 -0.649151 0
M  V30 1817 O 167.855 -1.26449 -1.49362 0
M  V30 1818 C 168.154 -3.32861 1.30146 0
M  V30 1819 C 167.82 -3.54621 2.78486 0
M  V30 1820 C 166.482 -3.60268 3.18999 0
M  V30 1821 C 168.834 -3.62855 3.74146 0
M  V30 1822 C 166.162 -3.71679 4.53951 0
M  V30 1823 C 168.514 -3.75793 5.08883 0
M  V30 1824 C 167.178 -3.79692 5.4899 0
M  V30 1825 H 166.448 -0.676684 0.301959 0
M  V30 1826 H 169.095 -1.3428 1.36533 0
M  V30 1827 H 167.4 -3.85835 0.681064 0
M  V30 1828 H 169.097 -3.86395 1.07236 0
M  V30 1829 H 165.687 -3.50879 2.46134 0
M  V30 1830 H 169.871 -3.57775 3.43963 0
M  V30 1831 H 165.127 -3.72963 4.84467 0
M  V30 1832 H 169.301 -3.81107 5.82864 0
M  V30 1833 H 166.928 -3.88287 6.53558 0
M  V30 1834 N 168.503 -0.877838 -1.30888 0
M  V30 1835 C 169.413 -0.343096 -2.32078 0
M  V30 1836 C 170.429 0.551022 -1.65045 0
M  V30 1837 O 171.605 0.445854 -1.96403 0
M  V30 1838 C 168.67 0.439905 -3.43898 0
M  V30 1839 C 167.731 -0.483111 -4.26573 0
M  V30 1840 C 166.964 0.262616 -5.33053 0
M  V30 1841 O 167.187 1.48967 -5.50604 0
M  V30 1842 O 166.121 -0.383593 -6.00676 0
M  V30 1843 H 169.947 -1.18203 -2.79753 0
M  V30 1844 H 167.532 -0.64145 -1.34929 0
M  V30 1845 H 169.414 0.883504 -4.12034 0
M  V30 1846 H 168.089 1.25526 -2.98371 0
M  V30 1847 H 166.996 -0.975374 -3.61161 0
M  V30 1848 H 168.329 -1.26427 -4.75686 0
M  V30 1849 N 169.982 1.44106 -0.638065 0
M  V30 1850 C 171.259 1.95453 -0.0759321 0
M  V30 1851 C 171.639 1.57984 1.40015 0
M  V30 1852 O 170.987 0.857361 2.11806 0
M  V30 1853 C 171.197 3.47655 -0.306132 0
M  V30 1854 C 172.545 4.24114 -0.203008 0
M  V30 1855 O 173.569 3.55405 -0.237871 0
M  V30 1856 O 172.428 5.46381 -0.113827 0
M  V30 1857 H 169.522 0.826797 0.0183332 0
M  V30 1858 H 172.068 1.54122 -0.710251 0
M  V30 1859 H 170.84 3.68 -1.3301 0
M  V30 1860 H 170.463 3.95949 0.361991 0
M  V30 1861 N 171.46 0.379036 1.52974 0
M  V30 1862 C 172.737 -0.263479 1.93817 0
M  V30 1863 C 173.117 -1.65244 1.31368 0
M  V30 1864 O 172.465 -2.23448 0.477856 0
M  V30 1865 C 172.675 -0.300166 3.47707 0
M  V30 1866 C 174.023 -0.534061 4.21228 0
M  V30 1867 O 175.047 -0.38081 3.54159 0
M  V30 1868 O 173.906 -0.833501 5.40106 0
M  V30 1869 H 171 -0.161149 0.811147 0
M  V30 1870 H 173.546 0.432798 1.64088 0
M  V30 1871 H 172.318 0.673138 3.85467 0
M  V30 1872 H 171.941 -1.04179 3.83709 0
M  V30 1873 N 172.938 -1.57226 0.108567 0
M  V30 1874 C 174.166 -1.99179 -0.559954 0
M  V30 1875 C 174.581 -0.988022 -1.60884 0
M  V30 1876 O 173.938 0.0205512 -1.82488 0
M  V30 1877 C 173.989 -3.41159 -1.19552 0
M  V30 1878 O 173.71 -4.37694 -0.188577 0
M  V30 1879 C 175.211 -3.98188 -1.94837 0
M  V30 1880 H 172.431 -0.654228 -0.149088 0
M  V30 1881 H 174.975 -2.03598 0.19183 0
M  V30 1882 H 173.13 -3.37711 -1.89815 0
M  V30 1883 H 173.544 -5.20469 -0.649014 0
M  V30 1884 H 175.018 -4.99644 -2.34648 0
M  V30 1885 H 175.495 -3.3675 -2.81951 0
M  V30 1886 H 176.101 -4.0515 -1.2936 0
M  V30 1887 N 174.416 0.165178 -1.56732 0
M  V30 1888 C 175.832 0.517174 -1.50988 0
M  V30 1889 C 176.032 1.84331 -0.813894 0
M  V30 1890 O 175.088 2.49672 -0.37682 0
M  V30 1891 C 176.401 0.544261 -2.95733 0
M  V30 1892 C 177.949 0.631039 -3.06573 0
M  V30 1893 C 178.424 0.68896 -4.52788 0
M  V30 1894 N 179.915 0.751683 -4.5706 0
M  V30 1895 C 180.65 0.817177 -5.67547 0
M  V30 1896 N 180.146 0.843129 -6.8765 0
M  V30 1897 N 181.939 0.856668 -5.55534 0
M  V30 1898 H 174.09 -0.704318 -2.00382 0
M  V30 1899 H 176.353 -0.254687 -0.913148 0
M  V30 1900 H 176.059 -0.361607 -3.49836 0
M  V30 1901 H 175.933 1.3886 -3.5071 0
M  V30 1902 H 178.32 1.52733 -2.52501 0
M  V30 1903 H 178.401 -0.240095 -2.54671 0
M  V30 1904 H 178.045 -0.2031 -5.07494 0
M  V30 1905 H 177.975 1.57633 -5.02454 0
M  V30 1906 H 180.466 0.739661 -3.70591 0
M  V30 1907 H 180.779 0.894448 -7.67606 0
M  V30 1908 H 179.124 0.811304 -6.90248 0
M  V30 1909 H 182.315 0.833437 -4.60621 0
M  V30 1910 H 182.488 0.904247 -6.4166 0
M  V30 1911 N 175.894 1.51508 0.433938 0
M  V30 1912 C 177.141 1.64345 1.18309 0
M  V30 1913 C 177.469 0.361315 1.91115 0
M  V30 1914 O 176.724 -0.654753 1.84422 0
M  V30 1915 C 177.023 2.79928 2.22205 0
M  V30 1916 C 176.689 4.19078 1.66387 0
M  V30 1917 C 175.351 4.56932 1.50887 0
M  V30 1918 C 177.703 5.05894 1.25381 0
M  V30 1919 C 175.031 5.79305 0.928608 0
M  V30 1920 C 177.383 6.2885 0.687823 0
M  V30 1921 C 176.047 6.65473 0.519755 0
M  V30 1922 H 175.317 0.601381 0.432923 0
M  V30 1923 H 177.964 1.85549 0.473676 0
M  V30 1924 H 176.269 2.52959 2.99197 0
M  V30 1925 H 177.966 2.87059 2.79997 0
M  V30 1926 H 174.556 3.89234 1.79428 0
M  V30 1927 H 178.74 4.77253 1.36175 0
M  V30 1928 H 173.996 6.06324 0.786186 0
M  V30 1929 H 178.17 6.95461 0.361581 0
M  V30 1930 H 175.797 7.6017 0.0679979 0
M  V30 1931 N 177.372 -0.689602 1.41712 0
M  V30 1932 C 178.602 -1.47613 1.44548 0
M  V30 1933 C 179.01 -1.89132 0.0509034 0
M  V30 1934 O 178.353 -1.57741 -0.94146 0
M  V30 1935 C 178.415 -2.76596 2.2964 0
M  V30 1936 C 178.079 -2.57245 3.77722 0
M  V30 1937 C 179.076 -2.22804 4.69739 0
M  V30 1938 C 176.761 -2.727 4.2183 0
M  V30 1939 C 178.755 -2.04064 6.03851 0
M  V30 1940 C 176.442 -2.53576 5.56006 0
M  V30 1941 C 177.44 -2.1931 6.46832 0
M  V30 1942 O 177.128 -2.00359 7.78532 0
M  V30 1943 H 176.86 -0.461227 0.494212 0
M  V30 1944 H 179.414 -0.856045 1.86711 0
M  V30 1945 H 177.644 -3.41033 1.82301 0
M  V30 1946 H 179.333 -3.38424 2.24107 0
M  V30 1947 H 180.099 -2.10473 4.36951 0
M  V30 1948 H 175.978 -2.98353 3.51435 0
M  V30 1949 H 179.522 -1.77241 6.74708 0
M  V30 1950 H 175.419 -2.65499 5.88371 0
M  V30 1951 H 176.187 -2.15075 7.89737 0
M  V30 1952 N 178.85 -1.27639 -0.924453 0
M  V30 1953 C 179.78 -1.13166 -2.04244 0
M  V30 1954 C 180.761 -0.032256 -1.70069 0
M  V30 1955 O 181.946 -0.207328 -1.9309 0
M  V30 1956 C 179.076 -0.781496 -3.38393 0
M  V30 1957 C 178.03 -1.83449 -3.86692 0
M  V30 1958 C 177.356 -1.33822 -5.17683 0
M  V30 1959 C 178.656 -3.23917 -4.09726 0
M  V30 1960 H 180.35 -2.06689 -2.1661 0
M  V30 1961 H 177.896 -0.995136 -1.04082 0
M  V30 1962 H 179.849 -0.667057 -4.16087 0
M  V30 1963 H 178.573 0.189439 -3.2605 0
M  V30 1964 H 177.232 -1.93789 -3.11193 0
M  V30 1965 H 176.88 -0.35665 -5.01734 0
M  V30 1966 H 176.58 -2.04224 -5.50968 0
M  V30 1967 H 178.104 -1.23679 -5.97943 0
M  V30 1968 H 179.518 -3.16559 -4.77978 0
M  V30 1969 H 177.915 -3.92059 -4.54324 0
M  V30 1970 H 178.985 -3.68729 -3.14908 0
M  V30 1971 N 180.328 1.1314 -1.09713 0
M  V30 1972 C 181.574 1.84757 -0.836224 0
M  V30 1973 C 181.907 1.8347 0.636598 0
M  V30 1974 O 181.182 1.27491 1.46889 0
M  V30 1975 C 181.465 3.32782 -1.37578 0
M  V30 1976 C 181.318 3.42567 -2.91493 0
M  V30 1977 C 182.637 4.28307 -1.01198 0
M  V30 1978 H 179.756 0.67082 -0.305236 0
M  V30 1979 H 182.398 1.3278 -1.35903 0
M  V30 1980 H 180.548 3.77177 -0.931097 0
M  V30 1981 H 182.22 3.06862 -3.44432 0
M  V30 1982 H 180.463 2.83349 -3.28475 0
M  V30 1983 H 181.134 4.46674 -3.24324 0
M  V30 1984 H 183.61 3.91999 -1.39556 0
M  V30 1985 H 182.486 5.30307 -1.41653 0
M  V30 1986 H 182.747 4.42029 0.0794833 0
M  V30 1987 N 181.806 0.884767 1.30421 0
M  V30 1988 C 183.053 0.503105 1.96151 0
M  V30 1989 C 183.381 -0.947676 1.69851 0
M  V30 1990 O 182.636 -1.68467 0.995861 0
M  V30 1991 C 182.935 0.724318 3.49983 0
M  V30 1992 C 182.601 2.15015 3.96332 0
M  V30 1993 C 181.263 2.54005 4.08699 0
M  V30 1994 C 183.615 3.07936 4.20505 0
M  V30 1995 C 180.943 3.85128 4.42599 0
M  V30 1996 C 183.295 4.3859 4.55874 0
M  V30 1997 C 181.959 4.77474 4.66449 0
M  V30 1998 H 181.229 0.184099 0.717766 0
M  V30 1999 H 183.876 1.12058 1.55291 0
M  V30 2000 H 182.181 0.0238086 3.91793 0
M  V30 2001 H 183.878 0.408617 3.98913 0
M  V30 2002 H 180.468 1.8375 3.87213 0
M  V30 2003 H 184.652 2.79033 4.10431 0
M  V30 2004 H 179.908 4.14996 4.48986 0
M  V30 2005 H 184.082 5.10629 4.7353 0
M  V30 2006 H 181.709 5.79115 4.92473 0
M  V30 2007 N 183.284 -1.43765 0.645699 0
M  V30 2008 C 184.194 -2.34544 -0.0512957 0
M  V30 2009 C 185.21 -1.53455 -0.82022 0
M  V30 2010 O 186.386 -1.86133 -0.769176 0
M  V30 2011 C 183.451 -3.31636 -1.01087 0
M  V30 2012 C 182.512 -4.2863 -0.239712 0
M  V30 2013 C 181.745 -5.21084 -1.15358 0
M  V30 2014 O 181.968 -5.1779 -2.39269 0
M  V30 2015 O 180.902 -5.98593 -0.630038 0
M  V30 2016 H 184.728 -2.95624 0.695718 0
M  V30 2017 H 182.313 -1.43781 0.405882 0
M  V30 2018 H 184.195 -3.9136 -1.56254 0
M  V30 2019 H 182.87 -2.73069 -1.73824 0
M  V30 2020 H 181.777 -3.72408 0.355356 0
M  V30 2021 H 183.11 -4.90157 0.447936 0
M  V30 2022 N 184.763 -0.387143 -1.52771 0
M  V30 2023 C 185.71 0.449048 -2.26389 0
M  V30 2024 C 186.68 1.05961 -1.27912 0
M  V30 2025 O 187.865 1.08804 -1.56737 0
M  V30 2026 C 185.005 1.57155 -3.0724 0
M  V30 2027 C 184.118 0.984066 -4.20643 0
M  V30 2028 C 183.253 2.07745 -4.88892 0
M  V30 2029 C 182.292 1.46574 -5.94292 0
M  V30 2030 N 181.429 2.49834 -6.56146 0
M  V30 2031 H 186.269 -0.185205 -2.97424 0
M  V30 2032 H 183.806 -0.103164 -1.46738 0
M  V30 2033 H 185.764 2.23309 -3.52405 0
M  V30 2034 H 184.394 2.17615 -2.38419 0
M  V30 2035 H 183.446 0.212193 -3.79808 0
M  V30 2036 H 184.758 0.497029 -4.96318 0
M  V30 2037 H 183.912 2.81673 -5.3735 0
M  V30 2038 H 182.651 2.59807 -4.12737 0
M  V30 2039 H 181.656 0.711696 -5.45174 0
M  V30 2040 H 182.881 0.953088 -6.72379 0
M  V30 2041 H 180.827 3.0107 -5.82832 0
M  V30 2042 H 180.744 2.05879 -7.27427 0
M  V30 2043 H 182.012 3.23399 -7.09249 0
M  V30 2044 N 186.241 1.57166 -0.116904 0
M  V30 2045 C 187.171 2.18222 0.830759 0
M  V30 2046 C 188.152 1.12167 1.27877 0
M  V30 2047 O 189.337 1.40394 1.34176 0
M  V30 2048 C 186.467 2.77996 2.08172 0
M  V30 2049 C 185.421 3.89614 1.77157 0
M  V30 2050 C 184.747 4.36187 3.09265 0
M  V30 2051 C 186.047 5.1181 1.04151 0
M  V30 2052 H 187.741 2.97664 0.321992 0
M  V30 2053 H 185.287 1.4318 0.153434 0
M  V30 2054 H 187.24 3.19366 2.74924 0
M  V30 2055 H 185.964 1.9584 2.6137 0
M  V30 2056 H 184.623 3.48816 1.12796 0
M  V30 2057 H 184.271 3.50893 3.60393 0
M  V30 2058 H 183.971 5.11455 2.89288 0
M  V30 2059 H 185.495 4.80207 3.77139 0
M  V30 2060 H 186.909 5.50214 1.61052 0
M  V30 2061 H 185.306 5.92648 0.942762 0
M  V30 2062 H 186.376 4.84892 0.0279022 0
M  V30 2063 N 187.719 -0.156864 1.56817 0
M  V30 2064 C 188.651 -1.21883 1.94106 0
M  V30 2065 C 189.664 -1.3971 0.835754 0
M  V30 2066 O 190.853 -1.39457 1.11418 0
M  V30 2067 C 187.953 -2.58527 2.19127 0
M  V30 2068 C 187.126 -2.61809 3.50393 0
M  V30 2069 C 186.185 -3.7992 3.64071 0
M  V30 2070 O 185.211 -3.65249 4.36557 0
M  V30 2071 N 186.413 -4.96973 2.99997 0
M  V30 2072 H 189.178 -0.901974 2.85805 0
M  V30 2073 H 186.739 -0.346513 1.58148 0
M  V30 2074 H 188.731 -3.36034 2.25529 0
M  V30 2075 H 187.301 -2.82545 1.33742 0
M  V30 2076 H 186.521 -1.7029 3.5552 0
M  V30 2077 H 187.809 -2.61024 4.36742 0
M  V30 2078 H 187.207 -5.11794 2.41004 0
M  V30 2079 H 185.764 -5.7229 3.11974 0
M  V30 2080 N 189.197 -1.51736 -0.425897 0
M  V30 2081 C 190.445 -1.64644 -1.17204 0
M  V30 2082 C 190.766 -0.370486 -1.91448 0
M  V30 2083 O 190.036 0.614088 -1.86026 0
M  V30 2084 H 188.616 -0.606819 -0.435638 0
M  V30 2085 H 191.278 -1.88713 -0.487177 0
M  V30 2086 H 190.374 -2.47958 -1.89534 0
M  V30 2087 N 190.675 0.682077 -1.42076 0
M  V30 2088 C 191.923 1.4393 -1.41876 0
M  V30 2089 C 192.244 1.94971 -0.0335599 0
M  V30 2090 O 191.514 1.72591 0.926773 0
M  V30 2091 H 190.094 0.534085 -0.522267 0
M  V30 2092 H 192.756 0.806427 -1.77434 0
M  V30 2093 H 191.852 2.29588 -2.11414 0
M  V30 2094 N 192.153 1.28127 0.917671 0
M  V30 2095 C 193.378 1.18007 1.70555 0
M  V30 2096 C 193.803 -0.258257 1.86319 0
M  V30 2097 O 193.161 -1.1869 1.37049 0
M  V30 2098 C 193.209 1.87948 3.07746 0
M  V30 2099 O 192.313 1.18427 3.9503 0
M  V30 2100 H 191.654 0.409867 0.522403 0
M  V30 2101 H 194.184 1.69379 1.1477 0
M  V30 2102 H 194.194 1.95701 3.58001 0
M  V30 2103 H 192.869 2.92573 2.95591 0
M  V30 2104 H 191.446 1.18811 3.53466 0
M  V30 2105 N 193.631 -1.12557 1.10312 0
M  V30 2106 C 194.88 -1.83395 0.839588 0
M  V30 2107 C 195.193 -1.84939 -0.636929 0
M  V30 2108 O 196.399 -2.51761 -1.01631 0
M  V30 2109 C 194.855 -3.29303 1.45215 0
M  V30 2110 C 194.463 -3.36122 2.96186 0
M  V30 2111 C 196.207 -4.05121 1.26796 0
M  V30 2112 C 194.114 -4.76357 3.50483 0
M  V30 2113 H 193.044 -0.687133 0.310425 0
M  V30 2114 H 195.695 -1.26746 1.32694 0
M  V30 2115 H 194.077 -3.85812 0.892469 0
M  V30 2116 H 195.251 -2.89559 3.58458 0
M  V30 2117 H 193.566 -2.73776 3.13745 0
M  V30 2118 H 196.163 -5.08668 1.64806 0
M  V30 2119 H 196.506 -4.15773 0.209409 0
M  V30 2120 H 197.039 -3.54967 1.79563 0
M  V30 2121 H 193.778 -4.70899 4.55998 0
M  V30 2122 H 193.298 -5.23377 2.92978 0
M  V30 2123 H 194.977 -5.45294 3.48228 0
M  V30 2124 N 195.109 -0.891671 -1.2995 0
M  V30 2125 C 196.039 -0.379797 -2.30391 0
M  V30 2126 C 197.02 0.540919 -1.6127 0
M  V30 2127 O 198.205 0.453352 -1.88834 0
M  V30 2128 C 195.335 0.400654 -3.44981 0
M  V30 2129 C 194.289 -0.428905 -4.25846 0
M  V30 2130 C 193.615 0.478557 -5.32554 0
M  V30 2131 C 194.915 -1.67458 -4.94727 0
M  V30 2132 H 196.609 -1.21914 -2.73454 0
M  V30 2133 H 194.155 -0.587675 -1.31462 0
M  V30 2134 H 196.108 0.769434 -4.14316 0
M  V30 2135 H 194.832 1.27371 -3.0074 0
M  V30 2136 H 193.491 -0.779911 -3.58208 0
M  V30 2137 H 193.139 1.34951 -4.84559 0
M  V30 2138 H 192.839 -0.0727433 -5.87555 0
M  V30 2139 H 194.363 0.843705 -6.04743 0
M  V30 2140 H 195.777 -1.376 -5.56542 0
M  V30 2141 H 194.174 -2.16659 -5.59624 0
M  V30 2142 H 195.244 -2.41518 -4.20473 0
M  V30 2143 N 196.587 1.43421 -0.653314 0
M  V30 2144 C 197.55 2.29182 0.0287951 0
M  V30 2145 C 198.55 1.42213 0.750465 0
M  V30 2146 O 199.74 1.63843 0.591701 0
M  V30 2147 C 196.872 3.24278 1.05151 0
M  V30 2148 H 198.065 2.90985 -0.725786 0
M  V30 2149 H 195.618 1.50702 -0.414545 0
M  V30 2150 H 196.353 2.6737 1.83532 0
M  V30 2151 H 196.138 3.88396 0.537687 0
M  V30 2152 H 197.628 3.88647 1.52786 0
M  V30 2153 N 198.065 0.39524 1.52563 0
M  V30 2154 C 199.015 -0.4541 2.23432 0
M  V30 2155 C 199.999 -1.02482 1.24042 0
M  V30 2156 O 201.191 -0.949938 1.49349 0
M  V30 2157 C 198.32 -1.57769 3.049 0
M  V30 2158 C 197.406 -1.01842 4.1169 0
M  V30 2159 N 197.797 -0.184613 5.05463 0
M  V30 2160 C 196.095 -1.29033 4.26927 0
M  V30 2161 C 196.796 0.125013 5.81566 0
M  V30 2162 N 195.772 -0.480498 5.41472 0
M  V30 2163 H 199.574 0.189413 2.93289 0
M  V30 2164 H 197.088 0.204877 1.61102 0
M  V30 2165 H 199.085 -2.19862 3.54212 0
M  V30 2166 H 197.745 -2.22397 2.36579 0
M  V30 2167 H 198.756 0.178602 5.17592 0
M  V30 2168 H 195.433 -1.93721 3.69836 0
M  V30 2169 H 196.823 0.800962 6.67109 0
M  V30 2170 N 199.544 -1.57102 0.125237 0
M  V30 2171 C 200.793 -1.94582 -0.531095 0
M  V30 2172 C 201.106 -1.01126 -1.6743 0
M  V30 2173 O 202.312 -1.28097 -2.39381 0
M  V30 2174 C 200.768 -3.45839 -0.996164 0
M  V30 2175 C 200.376 -4.47842 0.118926 0
M  V30 2176 C 202.12 -3.92227 -1.62352 0
M  V30 2177 C 200.027 -5.90284 -0.363192 0
M  V30 2178 H 198.957 -0.726391 -0.20217 0
M  V30 2179 H 201.608 -1.82339 0.206092 0
M  V30 2180 H 199.99 -3.53338 -1.78796 0
M  V30 2181 H 201.164 -4.52018 0.895358 0
M  V30 2182 H 199.479 -4.11243 0.653324 0
M  V30 2183 H 202.076 -4.96069 -1.99548 0
M  V30 2184 H 202.419 -3.32552 -2.50429 0
M  V30 2185 H 202.952 -3.87554 -0.897019 0
M  V30 2186 H 199.691 -6.53728 0.481679 0
M  V30 2187 H 199.211 -5.89515 -1.10597 0
M  V30 2188 H 200.89 -6.41752 -0.822377 0
M  V30 2189 N 201.022 0.148545 -1.56898 0
M  V30 2190 C 201.954 1.20852 -1.9475 0
M  V30 2191 C 202.967 1.39265 -0.843152 0
M  V30 2192 O 204.156 1.38864 -1.12156 0
M  V30 2193 C 201.256 2.57362 -2.20495 0
M  V30 2194 C 200.429 2.59947 -3.51776 0
M  V30 2195 C 199.488 3.77984 -3.6608 0
M  V30 2196 O 198.514 3.62929 -4.38487 0
M  V30 2197 N 199.716 4.95375 -3.02629 0
M  V30 2198 H 202.481 0.886804 -2.86279 0
M  V30 2199 H 200.042 0.338121 -1.5833 0
M  V30 2200 H 202.034 3.34833 -2.27307 0
M  V30 2201 H 200.604 2.81832 -1.35238 0
M  V30 2202 H 199.824 1.68403 -3.56419 0
M  V30 2203 H 201.112 2.58704 -4.38121 0
M  V30 2204 H 200.51 5.10509 -2.43715 0
M  V30 2205 H 199.067 5.70627 -3.15004 0
M  V30 2206 N 202.5 1.5196 0.417844 0
M  V30 2207 C 203.447 1.74678 1.50852 0
M  V30 2208 C 204.417 0.588947 1.55308 0
M  V30 2209 O 205.602 0.825544 1.72016 0
M  V30 2210 C 202.742 1.89544 2.88387 0
M  V30 2211 C 201.855 3.17166 2.93309 0
M  V30 2212 C 200.99 3.22513 4.22088 0
M  V30 2213 C 200.029 4.44372 4.20951 0
M  V30 2214 N 199.166 4.47161 5.41287 0
M  V30 2215 H 204.006 2.67768 1.30783 0
M  V30 2216 H 201.543 1.32689 0.63498 0
M  V30 2217 H 203.501 1.96146 3.68216 0
M  V30 2218 H 202.131 0.998424 3.06971 0
M  V30 2219 H 201.183 3.19778 2.06024 0
M  V30 2220 H 202.495 4.07021 2.88332 0
M  V30 2221 H 201.649 3.28139 5.10303 0
M  V30 2222 H 200.388 2.30581 4.29748 0
M  V30 2223 H 199.393 4.38902 3.31127 0
M  V30 2224 H 200.618 5.3759 4.14938 0
M  V30 2225 H 198.564 3.58108 5.49632 0
M  V30 2226 H 198.481 5.3085 5.3827 0
M  V30 2227 H 199.749 4.57005 6.3148 0
M  V30 2228 N 203.978 -0.674533 1.42435 0
M  V30 2229 C 204.91 -1.80005 1.41883 0
M  V30 2230 C 205.923 -1.59667 0.31787 0
M  V30 2231 O 207.112 -1.68781 0.580973 0
M  V30 2232 C 204.212 -3.17114 1.19549 0
M  V30 2233 C 203.385 -3.64299 2.42084 0
M  V30 2234 C 202.444 -4.80142 2.15291 0
M  V30 2235 O 201.47 -4.90673 2.88493 0
M  V30 2236 N 202.672 -5.68869 1.1562 0
M  V30 2237 H 205.437 -1.80964 2.38898 0
M  V30 2238 H 202.998 -0.857633 1.37318 0
M  V30 2239 H 204.99 -3.92267 0.995417 0
M  V30 2240 H 203.56 -3.11053 0.310569 0
M  V30 2241 H 202.78 -2.79822 2.77657 0
M  V30 2242 H 204.068 -3.92567 3.23679 0
M  V30 2243 H 203.466 -5.63012 0.550765 0
M  V30 2244 H 202.023 -6.43833 1.016 0
M  V30 2245 N 205.456 -1.28612 -0.910864 0
M  V30 2246 C 206.403 -1.12786 -2.01365 0
M  V30 2247 C 207.373 -0.024201 -1.66082 0
M  V30 2248 O 208.558 -0.189667 -1.89855 0
M  V30 2249 C 205.698 -0.798743 -3.35729 0
M  V30 2250 C 204.811 -1.98173 -3.83864 0
M  V30 2251 C 203.946 -1.59298 -5.06752 0
M  V30 2252 C 202.985 -2.74245 -5.47226 0
M  V30 2253 N 202.122 -2.35842 -6.61304 0
M  V30 2254 H 206.962 -2.07142 -2.14234 0
M  V30 2255 H 204.499 -1.03093 -1.0493 0
M  V30 2256 H 206.457 -0.588662 -4.13026 0
M  V30 2257 H 205.087 0.10789 -3.2262 0
M  V30 2258 H 204.139 -2.30386 -3.02699 0
M  V30 2259 H 205.451 -2.84343 -4.09818 0
M  V30 2260 H 204.605 -1.34513 -5.916 0
M  V30 2261 H 203.344 -0.702618 -4.82612 0
M  V30 2262 H 202.349 -2.99725 -4.60918 0
M  V30 2263 H 203.574 -3.63928 -5.73353 0
M  V30 2264 H 201.52 -1.49279 -6.38789 0
M  V30 2265 H 201.437 -3.15546 -6.86998 0
M  V30 2266 H 202.705 -2.14348 -7.4945 0
M  V30 2267 N 206.934 1.1197 -1.10907 0
M  V30 2268 C 207.884 2.15946 -0.731538 0
M  V30 2269 C 208.868 1.58758 0.261699 0
M  V30 2270 O 210.06 1.76863 0.0696722 0
M  V30 2271 C 207.189 3.42877 -0.170299 0
M  V30 2272 C 206.275 4.07037 -1.19087 0
M  V30 2273 N 206.666 4.46135 -2.38322 0
M  V30 2274 C 204.964 4.33884 -1.03252 0
M  V30 2275 C 205.665 4.96331 -3.03366 0
M  V30 2276 N 204.641 4.9214 -2.30865 0
M  V30 2277 H 208.443 2.43947 -1.63912 0
M  V30 2278 H 205.957 1.28927 -0.987505 0
M  V30 2279 H 207.954 4.16732 0.118271 0
M  V30 2280 H 206.614 3.16343 0.731935 0
M  V30 2281 H 207.625 4.38345 -2.75815 0
M  V30 2282 H 204.302 4.17084 -0.186256 0
M  V30 2283 H 205.692 5.36257 -4.04818 0
M  V30 2284 N 208.412 0.89855 1.29475 0
M  V30 2285 C 209.659 0.523882 1.95606 0
M  V30 2286 C 209.987 -0.929608 1.70847 0
M  V30 2287 O 209.242 -1.67401 1.01367 0
M  V30 2288 C 209.541 0.761398 3.49195 0
M  V30 2289 C 209.207 2.19207 3.94029 0
M  V30 2290 C 207.869 2.58326 4.05982 0
M  V30 2291 C 210.221 3.12379 4.17216 0
M  V30 2292 C 207.549 3.898 4.38489 0
M  V30 2293 C 209.901 4.43401 4.51197 0
M  V30 2294 C 208.565 4.82394 4.61359 0
M  V30 2295 H 207.835 0.191702 0.715773 0
M  V30 2296 H 210.482 1.13699 1.54094 0
M  V30 2297 H 208.787 0.0653622 3.91745 0
M  V30 2298 H 210.484 0.450904 3.98457 0
M  V30 2299 H 207.074 1.87846 3.85242 0
M  V30 2300 H 211.258 2.83371 4.07449 0
M  V30 2301 H 206.514 4.19734 4.44559 0
M  V30 2302 H 210.688 5.15623 4.68087 0
M  V30 2303 H 208.315 5.84306 4.86303 0
M  V30 2304 N 209.89 -1.43072 0.660911 0
M  V30 2305 C 210.838 -2.32569 -0.0378199 0
M  V30 2306 C 211.832 -1.49046 -0.805092 0
M  V30 2307 O 213.038 -1.65206 -0.714624 0
M  V30 2308 H 209.413 -0.75136 -0.031019 0
M  V30 2309 H 211.384 -2.89216 0.734609 0
M  V30 2310 C 210.133 -3.33453 -0.985124 0
M  V30 2311 H 209.456 -3.97752 -0.404147 0
M  V30 2312 H 210.896 -3.98691 -1.44297 0
M  V30 2313 C 209.355 -2.64642 -2.08486 0
M  V30 2314 O 209.885 -2.46776 -3.16961 0
M  V30 2315 N 208.091 -2.23891 -1.8526 0
M  V30 2316 H 207.638 -2.38621 -0.970449 0
M  V30 2317 H 207.596 -1.78181 -2.59034 0
M  V30 2318 N 211.368 -0.403325 -1.52352 0
M  V30 2319 C 212.278 0.432009 -2.30588 0
M  V30 2320 C 213.294 1.05884 -1.38075 0
M  V30 2321 O 214.47 1.06161 -1.71148 0
M  V30 2322 C 211.535 1.53669 -3.10784 0
M  V30 2323 C 210.596 0.933525 -4.19027 0
M  V30 2324 C 209.829 1.98557 -4.9539 0
M  V30 2325 O 210.052 3.20283 -4.71991 0
M  V30 2326 O 208.986 1.59504 -5.80381 0
M  V30 2327 H 212.812 -0.205739 -3.03002 0
M  V30 2328 H 210.397 -0.166675 -1.48467 0
M  V30 2329 H 212.279 2.17814 -3.60742 0
M  V30 2330 H 210.954 2.15915 -2.41169 0
M  V30 2331 H 209.861 0.254954 -3.7323 0
M  V30 2332 H 211.194 0.35508 -4.90918 0
M  V30 2333 N 212.846 1.57033 -0.133567 0
M  V30 2334 C 214.262 1.58035 0.222944 0
M  V30 2335 C 214.462 1.14713 1.6566 0
M  V30 2336 O 213.518 0.841218 2.38075 0
M  V30 2337 C 214.831 3.00691 -0.0236116 0
M  V30 2338 C 216.379 3.12973 0.0411512 0
M  V30 2339 C 216.854 4.57654 -0.177899 0
M  V30 2340 N 218.345 4.63033 -0.124365 0
M  V30 2341 C 219.08 5.72771 -0.268553 0
M  V30 2342 N 218.576 6.91206 -0.46972 0
M  V30 2343 N 220.369 5.61718 -0.2071 0
M  V30 2344 H 212.52 1.8349 -1.06981 0
M  V30 2345 H 214.783 0.848677 -0.422436 0
M  V30 2346 H 214.489 3.36726 -1.0153 0
M  V30 2347 H 214.363 3.70614 0.701808 0
M  V30 2348 H 216.75 2.76787 1.02338 0
M  V30 2349 H 216.831 2.45564 -0.716383 0
M  V30 2350 H 216.475 4.94542 -1.15717 0
M  V30 2351 H 216.405 5.23173 0.599797 0
M  V30 2352 H 218.896 3.7789 0.027011 0
M  V30 2353 H 219.209 7.70693 -0.570212 0
M  V30 2354 H 217.554 6.93156 -0.505876 0
M  V30 2355 H 220.745 4.68072 -0.0507986 0
M  V30 2356 H 220.918 6.47195 -0.322909 0
M  V30 2357 N 214.325 -0.140222 1.56975 0
M  V30 2358 C 215.235 -1.19223 2.02047 0
M  V30 2359 C 216.251 -1.46612 0.937062 0
M  V30 2360 O 217.427 -1.58148 1.24704 0
M  V30 2361 C 214.492 -2.50414 2.39778 0
M  V30 2362 C 213.553 -2.30612 3.621 0
M  V30 2363 C 212.786 -3.55547 3.98023 0
M  V30 2364 O 213.009 -4.62004 3.34528 0
M  V30 2365 O 211.943 -3.47808 4.91237 0
M  V30 2366 H 215.769 -0.839559 2.91865 0
M  V30 2367 H 213.354 -0.349453 1.45256 0
M  V30 2368 H 215.236 -3.27747 2.64877 0
M  V30 2369 H 213.911 -2.85198 1.53114 0
M  V30 2370 H 212.818 -1.51207 3.4218 0
M  V30 2371 H 214.151 -2.00741 4.49404 0
M  V30 2372 N 215.803 -1.52179 -0.40978 0
M  V30 2373 C 216.766 -1.74853 -1.48186 0
M  V30 2374 C 217.766 -0.618417 -1.48433 0
M  V30 2375 O 218.956 -0.886286 -1.49969 0
M  V30 2376 C 216.088 -1.8303 -2.87598 0
M  V30 2377 H 217.281 -2.70559 -1.29374 0
M  V30 2378 H 214.834 -1.42586 -0.640233 0
M  V30 2379 H 215.569 -0.89236 -3.11781 0
M  V30 2380 H 215.354 -2.65187 -2.88822 0
M  V30 2381 H 216.844 -2.02316 -3.65319 0
M  V30 2382 N 217.281 0.66697 -1.42791 0
M  V30 2383 C 218.506 1.46004 -1.47301 0
M  V30 2384 C 218.931 1.87894 -0.0880317 0
M  V30 2385 O 218.289 1.56502 0.915253 0
M  V30 2386 C 218.337 2.68031 -2.41229 0
M  V30 2387 O 217.441 3.6659 -1.88906 0
M  V30 2388 H 216.782 0.43832 -0.49877 0
M  V30 2389 H 219.312 0.817391 -1.87563 0
M  V30 2390 H 219.322 3.1601 -2.58073 0
M  V30 2391 H 217.997 2.36883 -3.41847 0
M  V30 2392 H 216.574 3.25661 -1.81656 0
M  V30 2393 N 218.759 1.29093 0.90403 0
M  V30 2394 C 220.175 1.07011 1.1841 0
M  V30 2395 C 220.375 -0.181358 2.00682 0
M  V30 2396 O 219.431 -0.880331 2.36657 0
M  V30 2397 C 220.744 2.32311 1.90924 0
M  V30 2398 C 222.292 2.37587 2.03768 0
M  V30 2399 C 222.767 3.62679 2.79693 0
M  V30 2400 N 224.258 3.63376 2.87249 0
M  V30 2401 C 224.993 4.56848 3.46522 0
M  V30 2402 N 224.489 5.60648 4.06996 0
M  V30 2403 N 226.282 4.44426 3.44154 0
M  V30 2404 H 218.433 2.09412 0.354993 0
M  V30 2405 H 220.696 0.922181 0.219742 0
M  V30 2406 H 220.402 3.23536 1.37905 0
M  V30 2407 H 220.276 2.39483 2.91424 0
M  V30 2408 H 222.663 1.46853 2.55965 0
M  V30 2409 H 222.744 2.34403 1.02415 0
M  V30 2410 H 222.388 4.53762 2.28173 0
M  V30 2411 H 222.318 3.63119 3.81381 0
M  V30 2412 H 224.809 2.88321 2.44293 0
M  V30 2413 H 225.122 6.28101 4.50232 0
M  V30 2414 H 223.467 5.64463 4.05471 0
M  V30 2415 H 226.658 3.62529 2.96126 0
M  V30 2416 H 226.831 5.17457 3.90054 0
M  V30 2417 N 220.237 -1.11381 1.11499 0
M  V30 2418 C 221.483 -1.83403 0.865512 0
M  V30 2419 C 221.816 -1.84459 -0.607329 0
M  V30 2420 O 221.091 -1.29811 -1.44842 0
M  V30 2421 C 221.374 -3.30552 1.42855 0
M  V30 2422 C 221.227 -3.37886 2.96906 0
M  V30 2423 C 222.546 -4.26643 1.08 0
M  V30 2424 H 219.665 -0.665879 0.31587 0
M  V30 2425 H 222.307 -1.30601 1.37998 0
M  V30 2426 H 220.457 -3.75648 0.990985 0
M  V30 2427 H 222.129 -3.01343 3.49271 0
M  V30 2428 H 220.372 -2.78088 3.32941 0
M  V30 2429 H 221.043 -4.41458 3.31389 0
M  V30 2430 H 223.519 -3.89729 1.45775 0
M  V30 2431 H 222.395 -5.27986 1.50072 0
M  V30 2432 H 222.656 -4.42099 -0.00915037 0
M  V30 2433 N 221.715 -0.905404 -1.28997 0
M  V30 2434 C 222.961 -0.535039 -1.95615 0
M  V30 2435 C 223.294 0.917404 -1.71165 0
M  V30 2436 O 222.569 1.65123 -1.02785 0
M  V30 2437 C 222.852 -0.834918 -3.50287 0
M  V30 2438 C 222.705 -2.33948 -3.84172 0
M  V30 2439 C 224.024 -0.325318 -4.38896 0
M  V30 2440 H 221.143 -0.195861 -0.710498 0
M  V30 2441 H 223.785 -1.13313 -1.52513 0
M  V30 2442 H 221.935 -0.325904 -3.87131 0
M  V30 2443 H 223.607 -2.91847 -3.57243 0
M  V30 2444 H 221.85 -2.79789 -3.31513 0
M  V30 2445 H 222.521 -2.49987 -4.92149 0
M  V30 2446 H 224.997 -0.761256 -4.09077 0
M  V30 2447 H 223.873 -0.564295 -5.45992 0
M  V30 2448 H 224.134 0.774144 -4.35269 0
M  V30 2449 N 223.193 1.4272 -0.668489 0
M  V30 2450 C 224.609 1.55992 -0.33745 0
M  V30 2451 C 224.809 1.64933 1.15756 0
M  V30 2452 O 223.865 1.61278 1.94282 0
M  V30 2453 C 225.178 2.81314 -1.06222 0
M  V30 2454 C 226.726 2.95078 -1.04394 0
M  V30 2455 C 227.201 4.23252 -1.74991 0
M  V30 2456 N 228.692 4.3015 -1.71829 0
M  V30 2457 C 229.427 5.28127 -2.23315 0
M  V30 2458 N 228.923 6.32293 -2.83156 0
M  V30 2459 N 230.716 5.19882 -2.13726 0
M  V30 2460 H 222.867 1.3516 -1.63846 0
M  V30 2461 H 225.13 0.650174 -0.689912 0
M  V30 2462 H 224.836 2.80823 -2.11734 0
M  V30 2463 H 224.71 3.72012 -0.62344 0
M  V30 2464 H 227.097 2.951 0.0028244 0
M  V30 2465 H 227.178 2.05627 -1.52155 0
M  V30 2466 H 226.822 4.2399 -2.79633 0
M  V30 2467 H 226.752 5.11626 -1.24685 0
M  V30 2468 H 229.243 3.55499 -1.28175 0
M  V30 2469 H 229.556 7.03398 -3.20079 0
M  V30 2470 H 227.901 6.32873 -2.87223 0
M  V30 2471 H 231.092 4.37423 -1.66669 0
M  V30 2472 H 231.265 5.96077 -2.54158 0
M  V30 2473 N 224.671 0.411399 1.52136 0
M  V30 2474 C 225.948 -0.222308 1.94333 0
M  V30 2475 C 226.328 -1.6242 1.34844 0
M  V30 2476 O 225.676 -2.22384 0.525145 0
M  V30 2477 C 225.886 -0.226345 3.48265 0
M  V30 2478 C 227.234 -0.444592 4.22266 0
M  V30 2479 O 228.258 -0.305602 3.54887 0
M  V30 2480 O 227.117 -0.718749 5.41753 0
M  V30 2481 H 224.211 -0.143907 0.814383 0
M  V30 2482 H 226.757 0.467506 1.63133 0
M  V30 2483 H 225.529 0.75475 3.83952 0
M  V30 2484 H 225.152 -0.960163 3.85832 0
M  V30 2485 N 226.149 -1.5696 0.141893 0
M  V30 2486 C 227.395 -1.9625 -0.511248 0
M  V30 2487 C 227.728 -1.02654 -1.64851 0
M  V30 2488 O 227.003 -0.0679676 -1.94381 0
M  V30 2489 C 227.286 -3.45285 -1.02227 0
M  V30 2490 C 227.139 -4.49658 0.113138 0
M  V30 2491 C 228.458 -3.96698 -1.90574 0
M  V30 2492 H 225.577 -0.713567 -0.184367 0
M  V30 2493 H 228.219 -1.88698 0.222087 0
M  V30 2494 H 226.369 -3.51852 -1.64719 0
M  V30 2495 H 228.041 -4.55174 0.749302 0
M  V30 2496 H 226.284 -4.26857 0.773026 0
M  V30 2497 H 226.955 -5.51258 -0.286053 0
M  V30 2498 H 229.431 -3.92578 -1.37918 0
M  V30 2499 H 228.307 -5.01453 -2.2324 0
M  V30 2500 H 228.568 -3.3875 -2.84079 0
M  V30 2501 N 227.627 0.131896 -1.57047 0
M  V30 2502 C 228.59 1.14638 -1.98471 0
M  V30 2503 C 229.59 1.35029 -0.873148 0
M  V30 2504 O 230.78 1.31764 -1.13946 0
M  V30 2505 C 227.912 2.50358 -2.31373 0
M  V30 2506 H 229.105 0.79064 -2.8929 0
M  V30 2507 H 226.658 0.375761 -1.51716 0
M  V30 2508 H 227.393 2.90876 -1.43393 0
M  V30 2509 H 227.178 2.36915 -3.12432 0
M  V30 2510 H 228.668 3.23395 -2.64207 0
M  V30 2511 N 229.106 1.52395 0.401703 0
M  V30 2512 C 230.069 1.75636 1.47257 0
M  V30 2513 C 231.069 0.62628 1.48103 0
M  V30 2514 O 232.259 0.894227 1.49497 0
M  V30 2515 C 229.391 1.84553 2.86624 0
M  V30 2516 H 230.584 2.71241 1.27938 0
M  V30 2517 H 228.137 1.42923 0.632662 0
M  V30 2518 H 228.872 0.908882 3.11303 0
M  V30 2519 H 228.657 2.66715 2.87412 0
M  V30 2520 H 230.147 2.04251 3.64241 0
M  V30 2521 N 230.584 -0.659388 1.43143 0
M  V30 2522 C 231.547 -1.75432 1.47501 0
M  V30 2523 C 232.547 -1.56707 0.360512 0
M  V30 2524 O 233.737 -1.62717 0.622002 0
M  V30 2525 C 230.869 -3.14239 1.32162 0
M  V30 2526 H 232.062 -1.7295 2.45006 0
M  V30 2527 H 229.615 -0.870469 1.29817 0
M  V30 2528 H 230.35 -3.22336 0.356401 0
M  V30 2529 H 230.135 -3.29235 2.12948 0
M  V30 2530 H 231.625 -3.94094 1.3813 0
M  V30 2531 N 232.062 -1.29571 -0.897171 0
M  V30 2532 C 232.992 -1.17473 -2.01798 0
M  V30 2533 C 233.973 -0.068323 -1.69963 0
M  V30 2534 O 235.158 -0.248239 -1.92607 0
M  V30 2535 C 232.288 -0.853099 -3.36659 0
M  V30 2536 C 231.242 -1.9161 -3.82713 0
M  V30 2537 C 230.568 -1.44773 -5.14728 0
M  V30 2538 C 231.868 -3.32535 -4.02763 0
M  V30 2539 H 233.562 -2.11237 -2.12177 0
M  V30 2540 H 231.108 -1.01699 -1.01948 0
M  V30 2541 H 233.061 -0.755165 -4.14578 0
M  V30 2542 H 231.785 0.120236 -3.26379 0
M  V30 2543 H 230.444 -2.00346 -3.07013 0
M  V30 2544 H 230.092 -0.462995 -5.00865 0
M  V30 2545 H 229.792 -2.15865 -5.46513 0
M  V30 2546 H 231.316 -1.36334 -5.95185 0
M  V30 2547 H 232.73 -3.26626 -4.71156 0
M  V30 2548 H 231.127 -4.01607 -4.45905 0
M  V30 2549 H 232.197 -3.75326 -3.07016 0
M  V30 2550 N 233.54 1.10788 -1.12088 0
M  V30 2551 C 234.817 1.79136 -0.785476 0
M  V30 2552 C 235.197 1.98246 0.725377 0
M  V30 2553 O 234.545 1.57258 1.65778 0
M  V30 2554 C 234.755 3.12375 -1.55636 0
M  V30 2555 C 236.103 3.8731 -1.74001 0
M  V30 2556 O 237.127 3.22085 -1.52117 0
M  V30 2557 O 235.986 5.04369 -2.10415 0
M  V30 2558 H 233.08 0.776226 -0.285311 0
M  V30 2559 H 235.626 1.1747 -1.2247 0
M  V30 2560 H 234.398 2.93863 -2.5838 0
M  V30 2561 H 234.021 3.81758 -1.11114 0
M  V30 2562 N 235.018 0.912232 1.28515 0
M  V30 2563 C 236.265 0.544599 1.95039 0
M  V30 2564 C 236.593 -0.911435 1.71823 0
M  V30 2565 O 235.848 -1.66317 1.03137 0
M  V30 2566 C 236.147 0.798392 3.48368 0
M  V30 2567 C 235.813 2.23374 3.91682 0
M  V30 2568 C 234.475 2.62617 4.03219 0
M  V30 2569 C 236.827 3.16786 4.13879 0
M  V30 2570 C 234.155 3.94429 4.3433 0
M  V30 2571 C 236.507 4.48161 4.46469 0
M  V30 2572 C 235.171 4.8726 4.56217 0
M  V30 2573 H 234.441 0.199283 0.7137 0
M  V30 2574 H 237.088 1.15327 1.52879 0
M  V30 2575 H 235.393 0.106908 3.91654 0
M  V30 2576 H 237.09 0.493141 3.97956 0
M  V30 2577 H 233.68 1.91922 3.83228 0
M  V30 2578 H 237.864 2.87677 4.0442 0
M  V30 2579 H 233.12 4.24426 4.40082 0
M  V30 2580 H 237.294 5.20559 4.62592 0
M  V30 2581 H 234.921 5.89431 4.80078 0
M  V30 2582 N 236.496 -1.42363 0.676048 0
M  V30 2583 C 237.426 -2.33497 0.0124832 0
M  V30 2584 C 238.407 -1.50748 -0.787981 0
M  V30 2585 O 239.592 -1.79346 -0.744884 0
M  V30 2586 C 236.722 -3.34377 -0.938582 0
M  V30 2587 C 235.676 -4.27289 -0.246622 0
M  V30 2588 C 235.002 -5.18386 -1.31071 0
M  V30 2589 C 236.302 -5.14916 0.875125 0
M  V30 2590 H 237.996 -2.89233 0.773593 0
M  V30 2591 H 235.542 -1.39073 0.37346 0
M  V30 2592 H 237.495 -3.97044 -1.41188 0
M  V30 2593 H 236.219 -2.76947 -1.73113 0
M  V30 2594 H 234.878 -3.66018 0.206456 0
M  V30 2595 H 234.526 -4.57282 -2.09528 0
M  V30 2596 H 234.226 -5.81378 -0.852839 0
M  V30 2597 H 235.75 -5.83929 -1.78492 0
M  V30 2598 H 237.164 -5.71262 0.482983 0
M  V30 2599 H 235.561 -5.86747 1.25887 0
M  V30 2600 H 236.631 -4.53242 1.72335 0
M  V30 2601 N 237.974 -0.419461 -1.51915 0
M  V30 2602 C 238.924 0.418496 -2.24126 0
M  V30 2603 C 239.908 1.00495 -1.25656 0
M  V30 2604 O 241.1 0.926058 -1.50842 0
M  V30 2605 C 238.229 1.52899 -3.07371 0
M  V30 2606 C 237.315 0.952797 -4.13258 0
M  V30 2607 N 237.706 0.104175 -5.05693 0
M  V30 2608 C 236.004 1.22224 -4.28926 0
M  V30 2609 C 236.705 -0.21752 -5.81293 0
M  V30 2610 N 235.681 0.394293 -5.42168 0
M  V30 2611 H 239.483 -0.236048 -2.92951 0
M  V30 2612 H 236.997 -0.230481 -1.60756 0
M  V30 2613 H 238.994 2.14199 -3.57665 0
M  V30 2614 H 237.654 2.18605 -2.40088 0
M  V30 2615 H 238.665 -0.260924 -5.17242 0
M  V30 2616 H 235.342 1.87812 -3.72871 0
M  V30 2617 H 236.732 -0.906992 -6.6575 0
M  V30 2618 N 239.452 1.56882 -0.150215 0
M  V30 2619 C 240.68 2.00593 0.506948 0
M  V30 2620 C 241.095 1.03033 1.58208 0
M  V30 2621 O 240.452 0.0278396 1.82479 0
M  V30 2622 C 240.503 3.44209 1.10465 0
M  V30 2623 O 240.224 4.3804 0.0724636 0
M  V30 2624 C 241.725 4.03214 1.84211 0
M  V30 2625 H 238.945 0.65795 0.13169 0
M  V30 2626 H 241.489 2.03018 -0.245743 0
M  V30 2627 H 239.644 3.42625 1.80795 0
M  V30 2628 H 240.058 5.22007 0.510793 0
M  V30 2629 H 241.532 5.0569 2.21318 0
M  V30 2630 H 242.009 3.44107 2.72923 0
M  V30 2631 H 242.615 4.08437 1.18572 0
M  V30 2632 N 240.93 -0.123565 1.57115 0
M  V30 2633 C 241.877 -1.15177 2.00007 0
M  V30 2634 C 242.847 -1.41403 0.871454 0
M  V30 2635 O 244.032 -1.53346 1.13533 0
M  V30 2636 C 241.172 -2.47436 2.40561 0
M  V30 2637 C 240.285 -2.28184 3.66819 0
M  V30 2638 C 239.42 -3.53641 3.96373 0
M  V30 2639 C 238.459 -3.29528 5.15827 0
M  V30 2640 N 237.596 -4.47175 5.41275 0
M  V30 2641 H 242.436 -0.779008 2.87638 0
M  V30 2642 H 239.973 -0.373166 1.42288 0
M  V30 2643 H 241.931 -3.24584 2.62109 0
M  V30 2644 H 240.561 -2.82614 1.55978 0
M  V30 2645 H 239.613 -1.41976 3.52912 0
M  V30 2646 H 240.925 -2.0634 4.5412 0
M  V30 2647 H 240.079 -4.39209 4.18545 0
M  V30 2648 H 238.818 -3.78512 3.07538 0
M  V30 2649 H 237.823 -2.42349 4.93505 0
M  V30 2650 H 239.048 -3.06031 6.06236 0
M  V30 2651 H 236.994 -4.72175 4.55397 0
M  V30 2652 H 236.911 -4.28419 6.22891 0
M  V30 2653 H 238.179 -5.3389 5.67963 0
M  V30 2654 N 242.408 -1.52605 -0.393616 0
M  V30 2655 C 243.685 -1.58001 -1.15304 0
M  V30 2656 C 244.065 -0.370385 -2.07825 0
M  V30 2657 O 243.413 0.641638 -2.19306 0
M  V30 2658 C 243.623 -2.91652 -1.91677 0
M  V30 2659 C 244.971 -3.4522 -2.47201 0
M  V30 2660 O 245.995 -2.93495 -2.01839 0
M  V30 2661 O 244.854 -4.35579 -3.3005 0
M  V30 2662 H 241.948 -0.637068 -0.527327 0
M  V30 2663 H 244.494 -1.64939 -0.399141 0
M  V30 2664 H 243.266 -3.71136 -1.23992 0
M  V30 2665 H 242.889 -2.88077 -2.74039 0
M  V30 2666 N 243.887 0.651787 -1.4349 0
M  V30 2667 C 244.834 1.76462 -1.4876 0
M  V30 2668 C 245.804 1.62641 -0.337189 0
M  V30 2669 O 246.989 1.82864 -0.544544 0
M  V30 2670 C 244.129 3.14623 -1.41796 0
M  V30 2671 C 243.242 3.39568 -2.67053 0
M  V30 2672 C 242.377 4.67585 -2.52068 0
M  V30 2673 C 241.416 4.85639 -3.72587 0
M  V30 2674 N 240.553 6.04915 -3.56402 0
M  V30 2675 H 245.393 1.71293 -2.43849 0
M  V30 2676 H 242.93 0.835889 -1.21043 0
M  V30 2677 H 244.888 3.94496 -1.35753 0
M  V30 2678 H 243.518 3.18859 -0.50288 0
M  V30 2679 H 242.57 2.53783 -2.8337 0
M  V30 2680 H 243.882 3.48795 -3.56572 0
M  V30 2681 H 243.036 5.55586 -2.4374 0
M  V30 2682 H 241.775 4.60681 -1.60075 0
M  V30 2683 H 240.78 3.96073 -3.81321 0
M  V30 2684 H 242.005 4.94372 -4.65589 0
M  V30 2685 H 239.951 5.9914 -2.67146 0
M  V30 2686 H 239.868 6.15106 -4.39524 0
M  V30 2687 H 241.136 6.95533 -3.51929 0
M  V30 2688 N 245.365 1.30045 0.890287 0
M  V30 2689 C 246.611 1.18737 1.64406 0
M  V30 2690 C 246.944 -0.258525 1.92472 0
M  V30 2691 O 246.219 -1.18562 1.54186 0
M  V30 2692 C 246.502 2.01087 2.98724 0
M  V30 2693 C 246.355 3.53867 2.77665 0
M  V30 2694 C 247.674 1.84457 3.9958 0
M  V30 2695 H 244.793 0.432698 0.596608 0
M  V30 2696 H 247.435 1.5962 1.0306 0
M  V30 2697 H 245.585 1.66349 3.51084 0
M  V30 2698 H 247.257 3.98637 2.32133 0
M  V30 2699 H 245.5 3.78318 2.12269 0
M  V30 2700 H 246.171 4.06772 3.7315 0
M  V30 2701 H 248.647 2.14817 3.56361 0
M  V30 2702 H 247.523 2.44411 4.91482 0
M  V30 2703 H 247.784 0.802276 4.3476 0
M  V30 2704 N 246.843 -1.10192 1.12674 0
M  V30 2705 C 248.068 -1.86523 0.906853 0
M  V30 2706 C 248.493 -1.80221 -0.538711 0
M  V30 2707 O 247.851 -1.17396 -1.38158 0
M  V30 2708 C 247.899 -3.32758 1.3894 0
M  V30 2709 O 247.003 -4.08449 0.5695 0
M  V30 2710 H 246.344 -0.578678 0.325619 0
M  V30 2711 H 248.874 -1.39203 1.49946 0
M  V30 2712 H 248.884 -3.83608 1.38958 0
M  V30 2713 H 247.559 -3.36661 2.44197 0
M  V30 2714 H 246.136 -3.67427 0.636528 0
M  V30 2715 N 248.321 -0.919034 -1.28029 0
M  V30 2716 C 249.251 -0.428581 -2.29533 0
M  V30 2717 C 250.232 0.50659 -1.62381 0
M  V30 2718 O 251.417 0.413195 -1.89753 0
M  V30 2719 C 248.547 0.327388 -3.45753 0
M  V30 2720 C 247.501 -0.519137 -4.2484 0
M  V30 2721 C 246.827 0.365486 -5.33449 0
M  V30 2722 C 248.127 -1.77914 -4.91064 0
M  V30 2723 H 249.821 -1.27687 -2.70807 0
M  V30 2724 H 247.367 -0.615428 -1.30186 0
M  V30 2725 H 249.32 0.681378 -4.15855 0
M  V30 2726 H 248.044 1.20963 -3.03374 0
M  V30 2727 H 246.703 -0.855717 -3.56473 0
M  V30 2728 H 246.351 1.24642 -4.87312 0
M  V30 2729 H 246.051 -0.197356 -5.87268 0
M  V30 2730 H 247.575 0.715241 -6.06396 0
M  V30 2731 H 248.989 -1.49374 -5.53498 0
M  V30 2732 H 247.386 -2.2848 -5.54903 0
M  V30 2733 H 248.456 -2.50382 -4.15255 0
M  V30 2734 N 249.799 1.42003 -0.683588 0
M  V30 2735 C 251.039 2.03282 -0.213513 0
M  V30 2736 C 251.403 1.52924 1.16097 0
M  V30 2737 O 252.604 2.06048 1.7262 0
M  V30 2738 C 250.875 3.56483 -0.255856 0
M  V30 2739 S 252.434 4.3857 0.14193 0
M  V30 2740 H 249.252 0.705659 -0.0869853 0
M  V30 2741 H 251.854 1.73619 -0.8987 0
M  V30 2742 H 250.558 3.90631 -1.25841 0
M  V30 2743 H 250.089 3.90831 0.448875 0
M  V30 2744 H 252.104 4.76828 1.37295 0
M  V30 2745 N 251.277 0.427512 1.51691 0
M  V30 2746 C 252.227 -0.406604 2.24345 0
M  V30 2747 C 253.211 -0.998276 1.26187 0
M  V30 2748 O 254.403 -0.918045 1.51331 0
M  V30 2749 C 251.532 -1.51266 3.08177 0
M  V30 2750 C 250.618 -0.930868 4.13758 0
M  V30 2751 N 251.009 -0.0773552 5.05741 0
M  V30 2752 C 249.307 -1.19948 4.29568 0
M  V30 2753 C 250.008 0.248344 5.8117 0
M  V30 2754 N 248.984 -0.365535 5.4237 0
M  V30 2755 H 252.786 0.251581 2.92821 0
M  V30 2756 H 250.3 0.239003 1.60632 0
M  V30 2757 H 252.297 -2.123 3.58796 0
M  V30 2758 H 250.957 -2.17328 2.41244 0
M  V30 2759 H 251.968 0.288351 5.17097 0
M  V30 2760 H 248.645 -1.85832 3.73862 0
M  V30 2761 H 250.035 0.942286 6.6526 0
M  V30 2762 N 252.755 -1.56801 0.158532 0
M  V30 2763 C 253.685 -2.20347 -0.772609 0
M  V30 2764 C 254.666 -1.15518 -1.24859 0
M  V30 2765 O 255.851 -1.43902 -1.30406 0
M  V30 2766 C 252.981 -2.83417 -2.00729 0
M  V30 2767 C 251.935 -3.94174 -1.66765 0
M  V30 2768 C 251.261 -4.44233 -2.97592 0
M  V30 2769 C 252.561 -5.14392 -0.905447 0
M  V30 2770 H 254.255 -2.98413 -0.242959 0
M  V30 2771 H 251.801 -1.43537 -0.115419 0
M  V30 2772 H 253.754 -3.26543 -2.6636 0
M  V30 2773 H 252.478 -2.02701 -2.56086 0
M  V30 2774 H 251.137 -3.51684 -1.03508 0
M  V30 2775 H 250.785 -3.60325 -3.50963 0
M  V30 2776 H 250.485 -5.18945 -2.75626 0
M  V30 2777 H 252.009 -4.90037 -3.64274 0
M  V30 2778 H 253.423 -5.5429 -1.46408 0
M  V30 2779 H 251.82 -5.9494 -0.7853 0
M  V30 2780 H 252.89 -4.84795 0.100668 0
M  V30 2781 N 254.233 0.115231 -1.57178 0
M  V30 2782 C 255.481 0.820727 -1.84685 0
M  V30 2783 C 255.802 1.80237 -0.744279 0
M  V30 2784 O 255.072 1.94529 0.231375 0
M  V30 2785 H 253.652 0.306084 -0.681411 0
M  V30 2786 H 256.314 0.101656 -1.94635 0
M  V30 2787 H 255.41 1.36366 -2.80733 0
M  V30 2788 N 255.711 1.52812 0.385517 0
M  V30 2789 C 256.957 1.69225 1.12847 0
M  V30 2790 C 257.312 0.42864 1.87564 0
M  V30 2791 O 256.605 -0.57779 1.8268 0
M  V30 2792 C 256.799 2.86856 2.13187 0
M  V30 2793 C 256.628 4.24535 1.48325 0
M  V30 2794 C 255.398 4.89701 1.24585 0
M  V30 2795 C 257.596 5.05794 0.931501 0
M  V30 2796 N 255.578 6.11353 0.558644 0
M  V30 2797 C 256.949 6.1888 0.372552 0
M  V30 2798 C 259.004 4.90963 0.828248 0
M  V30 2799 C 257.707 7.18757 -0.279556 0
M  V30 2800 C 259.733 5.91095 0.189956 0
M  V30 2801 C 259.095 7.03489 -0.358207 0
M  V30 2802 H 255.194 0.67268 0.39878 0
M  V30 2803 H 257.778 1.9017 0.417528 0
M  V30 2804 H 255.949 2.67484 2.81614 0
M  V30 2805 H 257.681 2.92188 2.80014 0
M  V30 2806 H 254.436 4.48485 1.52178 0
M  V30 2807 H 254.86 6.76606 0.230983 0
M  V30 2808 H 259.502 4.04274 1.23784 0
M  V30 2809 H 257.22 8.05052 -0.701152 0
M  V30 2810 H 260.806 5.81694 0.111264 0
M  V30 2811 H 259.686 7.79642 -0.844314 0
M  V30 2812 N 257.189 -0.644168 1.43834 0
M  V30 2813 C 258.414 -1.43642 1.49605 0
M  V30 2814 C 258.839 -1.8773 0.117913 0
M  V30 2815 O 258.197 -1.57938 -0.890239 0
M  V30 2816 C 258.245 -2.6416 2.45463 0
M  V30 2817 O 257.349 -3.63538 1.94714 0
M  V30 2818 H 256.69 -0.430329 0.50568 0
M  V30 2819 H 259.22 -0.787448 1.8884 0
M  V30 2820 H 259.23 -3.11864 2.63068 0
M  V30 2821 H 257.905 -2.31414 3.45572 0
M  V30 2822 H 256.482 -3.2273 1.86814 0
M  V30 2823 N 258.668 -1.30515 -0.883378 0
M  V30 2824 C 259.631 -1.1701 -1.97082 0
M  V30 2825 C 260.631 -0.10089 -1.60483 0
M  V30 2826 O 261.821 -0.349127 -1.70666 0
M  V30 2827 C 258.953 -0.793045 -3.31547 0
M  V30 2828 H 260.146 -2.13622 -2.10489 0
M  V30 2829 H 257.699 -1.13935 -1.06998 0
M  V30 2830 H 258.434 0.172499 -3.23841 0
M  V30 2831 H 258.219 -1.56576 -3.5948 0
M  V30 2832 H 259.709 -0.722073 -4.1131 0
M  V30 2833 N 260.146 1.09593 -1.13257 0
M  V30 2834 C 261.079 2.15451 -0.752061 0
M  V30 2835 C 262.057 1.60493 0.260913 0
M  V30 2836 O 263.241 1.8788 0.152819 0
M  V30 2837 C 260.368 3.38506 -0.114594 0
M  V30 2838 C 259.414 4.12183 -1.09579 0
M  V30 2839 S 260.247 4.6661 -2.62745 0
M  V30 2840 C 261.403 5.92966 -2.00354 0
M  V30 2841 H 261.636 2.47395 -1.64872 0
M  V30 2842 H 259.169 1.21515 -0.952545 0
M  V30 2843 H 261.127 4.09757 0.246808 0
M  V30 2844 H 259.788 3.04784 0.759309 0
M  V30 2845 H 258.981 5.00445 -0.597545 0
M  V30 2846 H 258.583 3.46785 -1.40057 0
M  V30 2847 H 260.875 6.63882 -1.35156 0
M  V30 2848 H 261.818 6.47467 -2.86691 0
M  V30 2849 H 262.226 5.45405 -1.4558 0
M  V30 2850 N 261.624 0.925811 1.2754 0
M  V30 2851 C 262.587 0.428129 2.25166 0
M  V30 2852 C 263.587 -0.452261 1.54309 0
M  V30 2853 O 264.777 -0.253608 1.72344 0
M  V30 2854 C 261.909 -0.384749 3.38722 0
M  V30 2855 H 263.102 1.29066 2.70706 0
M  V30 2856 H 260.655 0.706323 1.3943 0
M  V30 2857 H 261.39 -1.26618 2.98561 0
M  V30 2858 H 261.175 0.246454 3.91325 0
M  V30 2859 H 262.665 -0.723389 4.11287 0
M  V30 2860 N 263.102 -1.41638 0.69111 0
M  V30 2861 C 264.513 -1.84346 0.295517 0
M  V30 2862 C 264.864 -1.57833 -1.16547 0
M  V30 2863 O 263.989 -1.04648 -1.89414 0
M  V30 2864 C 264.584 -3.34636 0.529575 0
M  V30 2865 C 263.143 -3.7593 0.187944 0
M  V30 2866 C 262.29 -2.65082 0.814052 0
M  V30 2867 H 265.241 -1.31253 0.892092 0
M  V30 2868 H 265.262 -3.79903 -0.213148 0
M  V30 2869 H 264.774 -3.53901 1.59297 0
M  V30 2870 H 262.875 -3.62268 -0.871367 0
M  V30 2871 H 262.988 -4.74808 0.63985 0
M  V30 2872 H 261.352 -2.53528 0.244017 0
M  V30 2873 H 262.135 -2.87167 1.88123 0
M  V30 2874 N 264.58 -0.43555 -1.51462 0
M  V30 2875 C 265.805 0.132627 -2.06976 0
M  V30 2876 C 266.23 1.35848 -1.30104 0
M  V30 2877 O 265.588 1.78112 -0.338493 0
M  V30 2878 C 265.636 0.43523 -3.57964 0
M  V30 2879 O 264.74 1.52198 -3.83288 0
M  V30 2880 H 264.081 0.00265 -0.663995 0
M  V30 2881 H 266.611 -0.616369 -1.95095 0
M  V30 2882 H 266.621 0.686206 -4.02188 0
M  V30 2883 H 265.296 -0.460739 -4.1334 0
M  V30 2884 H 263.873 1.2611 -3.50928 0
M  V30 2885 N 266.058 1.56714 -0.166846 0
M  V30 2886 C 267.306 1.96358 0.478305 0
M  V30 2887 C 267.627 1.0537 1.6408 0
M  V30 2888 O 266.897 0.119154 1.95537 0
M  V30 2889 H 265.477 0.725065 0.179692 0
M  V30 2890 H 268.139 1.93329 -0.246985 0
M  V30 2891 H 267.235 3.00547 0.841292 0
M  V30 2892 N 267.536 -0.106894 1.57237 0
M  V30 2893 C 268.466 -1.13148 2.04254 0
M  V30 2894 C 269.447 -1.42476 0.929224 0
M  V30 2895 O 270.632 -1.52709 1.19973 0
M  V30 2896 C 267.762 -2.4545 2.45706 0
M  V30 2897 C 266.716 -2.30558 3.60592 0
M  V30 2898 C 266.042 -3.67931 3.87983 0
M  V30 2899 C 267.342 -1.75597 4.91897 0
M  V30 2900 H 269.036 -0.740374 2.90101 0
M  V30 2901 H 266.582 -0.354696 1.39563 0
M  V30 2902 H 268.535 -3.17389 2.77205 0
M  V30 2903 H 267.259 -2.86475 1.56843 0
M  V30 2904 H 265.918 -1.61067 3.29322 0
M  V30 2905 H 265.566 -4.06462 2.96306 0
M  V30 2906 H 265.266 -3.58817 4.65322 0
M  V30 2907 H 266.79 -4.41356 4.21945 0
M  V30 2908 H 268.204 -2.37364 5.21854 0
M  V30 2909 H 266.601 -1.77272 5.73319 0
M  V30 2910 H 267.671 -0.714451 4.79608 0
M  V30 2911 N 269.014 -1.53014 -0.377408 0
M  V30 2912 C 270.242 -1.72515 -1.14219 0
M  V30 2913 C 270.657 -0.448735 -1.8339 0
M  V30 2914 O 270.014 0.577592 -1.73119 0
M  V30 2915 C 270.065 -2.8826 -2.18148 0
M  V30 2916 O 269.786 -4.10962 -1.51795 0
M  V30 2917 C 271.287 -3.19536 -3.07264 0
M  V30 2918 H 268.507 -0.577301 -0.342001 0
M  V30 2919 H 271.051 -1.99712 -0.439935 0
M  V30 2920 H 269.206 -2.63492 -2.83991 0
M  V30 2921 H 269.62 -4.75693 -2.20945 0
M  V30 2922 H 271.094 -4.03959 -3.76193 0
M  V30 2923 H 271.571 -2.34403 -3.71419 0
M  V30 2924 H 272.177 -3.46186 -2.47053 0
M  V30 2925 N 270.492 0.636531 -1.44174 0
M  V30 2926 C 271.455 1.73063 -1.50273 0
M  V30 2927 C 272.455 1.56113 -0.385397 0
M  V30 2928 O 273.645 1.61707 -0.64781 0
M  V30 2929 C 270.777 3.12096 -1.37145 0
M  V30 2930 H 271.97 1.69031 -2.47727 0
M  V30 2931 H 269.523 0.849706 -1.31186 0
M  V30 2932 H 270.258 3.21728 -0.407636 0
M  V30 2933 H 270.043 3.25805 -2.18159 0
M  V30 2934 H 271.533 3.91846 -1.44382 0
M  V30 2935 N 271.97 1.30982 0.876444 0
M  V30 2936 C 272.933 1.18054 1.96459 0
M  V30 2937 C 273.933 0.109399 1.60427 0
M  V30 2938 O 275.123 0.358173 1.70478 0
M  V30 2939 C 272.255 0.810616 3.31122 0
M  V30 2940 H 273.448 2.14735 2.09354 0
M  V30 2941 H 271.001 1.145 1.06392 0
M  V30 2942 H 271.736 -0.155322 3.23928 0
M  V30 2943 H 271.521 1.58481 3.58645 0
M  V30 2944 H 273.011 0.743876 4.10921 0
M  V30 2945 N 273.449 -1.08991 1.13837 0
M  V30 2946 C 274.86 -1.62746 0.914917 0
M  V30 2947 C 275.211 -1.88403 -0.547594 0
M  V30 2948 O 274.336 -1.63706 -1.41525 0
M  V30 2949 C 274.931 -2.95662 1.65437 0
M  V30 2950 C 273.49 -3.46225 1.47666 0
M  V30 2951 C 272.637 -2.20562 1.6807 0
M  V30 2952 H 275.588 -0.922946 1.29102 0
M  V30 2953 H 275.609 -3.63825 1.11407 0
M  V30 2954 H 275.121 -2.76956 2.71877 0
M  V30 2955 H 273.222 -3.70046 0.435478 0
M  V30 2956 H 273.335 -4.23368 2.24268 0
M  V30 2957 H 271.699 -2.29439 1.10589 0
M  V30 2958 H 272.482 -2.0437 2.7584 0
M  V30 2959 N 274.927 -0.932562 -1.27047 0
M  V30 2960 C 276.155 -0.592031 -1.98249 0
M  V30 2961 C 276.57 0.831062 -1.69525 0
M  V30 2962 O 275.927 1.55299 -0.958561 0
M  V30 2963 C 275.978 -0.814279 -3.5221 0
M  V30 2964 O 275.699 -2.18139 -3.7993 0
M  V30 2965 C 277.2 -0.483121 -4.4066 0
M  V30 2966 H 274.42 -0.223896 -0.632544 0
M  V30 2967 H 276.964 -1.25091 -1.61779 0
M  V30 2968 H 275.119 -0.20213 -3.86872 0
M  V30 2969 H 275.533 -2.235 -4.74498 0
M  V30 2970 H 277.007 -0.689298 -5.47679 0
M  V30 2971 H 277.484 0.581546 -4.35333 0
M  V30 2972 H 278.09 -1.07362 -4.11526 0
M  V30 2973 N 276.405 1.4127 -0.698611 0
M  V30 2974 C 277.63 2.06024 -0.238512 0
M  V30 2975 C 278.055 1.5224 1.10475 0
M  V30 2976 O 277.413 0.650623 1.69223 0
M  V30 2977 C 277.461 3.59988 -0.209952 0
M  V30 2978 O 276.565 4.04282 0.814235 0
M  V30 2979 H 275.906 0.653829 -0.115775 0
M  V30 2980 H 278.436 1.8098 -0.954326 0
M  V30 2981 H 278.446 4.07979 -0.0418436 0
M  V30 2982 H 277.121 3.98503 -1.1903 0
M  V30 2983 H 275.698 3.6779 0.615234 0
M  V30 2984 N 277.883 0.443576 1.51229 0
M  V30 2985 C 278.813 -0.355142 2.30783 0
M  V30 2986 C 279.794 -1.0154 1.36468 0
M  V30 2987 O 280.979 -1.01785 1.65389 0
M  V30 2988 C 278.109 -1.45312 3.15439 0
M  V30 2989 C 277.063 -0.916002 4.18083 0
M  V30 2990 C 276.389 -2.1102 4.91299 0
M  V30 2991 C 277.689 0.0538602 5.22272 0
M  V30 2992 H 279.383 0.308767 2.97804 0
M  V30 2993 H 276.929 0.149937 1.43217 0
M  V30 2994 H 278.882 -2.01914 3.69876 0
M  V30 2995 H 277.606 -2.14541 2.46252 0
M  V30 2996 H 276.265 -0.372145 3.64706 0
M  V30 2997 H 275.913 -2.78882 4.18609 0
M  V30 2998 H 275.613 -1.75717 5.60712 0
M  V30 2999 H 277.137 -2.68164 5.48562 0
M  V30 3000 H 278.551 -0.422069 5.71744 0
M  V30 3001 H 276.948 0.319776 5.99247 0
M  V30 3002 H 278.018 0.98858 4.74716 0
M  V30 3003 N 279.361 -1.56624 0.175154 0
M  V30 3004 C 280.609 -1.96609 -0.467885 0
M  V30 3005 C 280.93 -1.06238 -1.63519 0
M  V30 3006 O 280.2 -0.129523 -1.95471 0
M  V30 3007 H 278.78 -0.726008 -0.175845 0
M  V30 3008 H 281.442 -1.93195 0.257234 0
M  V30 3009 H 280.538 -3.00989 -0.825342 0
M  V30 3010 N 280.839 0.0985539 -1.57292 0
M  V30 3011 C 282.064 0.820196 -1.90493 0
M  V30 3012 C 282.489 1.71658 -0.769094 0
M  V30 3013 O 281.847 1.79133 0.279495 0
M  V30 3014 C 281.895 1.61242 -3.22542 0
M  V30 3015 O 280.999 2.72108 -3.09888 0
M  V30 3016 H 280.34 0.225547 -0.62452 0
M  V30 3017 H 282.87 0.0748159 -2.04463 0
M  V30 3018 H 282.88 1.99737 -3.55766 0
M  V30 3019 H 281.555 0.954535 -4.04798 0
M  V30 3020 H 280.132 2.36667 -2.88172 0
M  V30 3021 N 282.317 1.53212 0.369288 0
M  V30 3022 C 283.542 1.73423 1.1375 0
M  V30 3023 C 283.967 0.460404 1.82378 0
M  V30 3024 O 283.325 -0.585298 1.71592 0
M  V30 3025 C 283.373 2.89769 2.1463 0
M  V30 3026 O 282.477 2.58119 3.21634 0
M  V30 3027 H 281.818 0.576061 0.330227 0
M  V30 3028 H 284.348 2.00083 0.427547 0
M  V30 3029 H 284.358 3.15829 2.58294 0
M  V30 3030 H 283.033 3.8217 1.64071 0
M  V30 3031 H 281.61 2.42864 2.82969 0
M  V30 3032 N 283.795 -0.628877 1.44509 0
M  V30 3033 C 285.072 -1.38733 1.37886 0
M  V30 3034 C 285.452 -2.11065 0.0387008 0
M  V30 3035 O 284.8 -2.06476 -0.97878 0
M  V30 3036 C 285.01 -2.35188 2.57852 0
M  V30 3037 C 286.358 -2.9845 3.02014 0
M  V30 3038 O 287.382 -2.45513 2.58073 0
M  V30 3039 O 286.241 -3.94487 3.78209 0
M  V30 3040 H 283.335 -0.621015 0.54614 0
M  V30 3041 H 285.881 -0.653744 1.56602 0
M  V30 3042 H 284.653 -1.80855 3.46998 0
M  V30 3043 H 284.276 -3.1596 2.4136 0
M  V30 3044 N 285.273 -1.31445 -0.869486 0
M  V30 3045 C 286.684 -1.19042 -1.43826 0
M  V30 3046 C 287.035 0.202919 -1.95148 0
M  V30 3047 O 286.16 1.10071 -1.86315 0
M  V30 3048 C 286.755 -2.15499 -2.6143 0
M  V30 3049 C 285.314 -2.07028 -3.14351 0
M  V30 3050 C 284.461 -2.04701 -1.87063 0
M  V30 3051 H 287.412 -1.43489 -0.677984 0
M  V30 3052 H 287.433 -1.74488 -3.38134 0
M  V30 3053 H 286.945 -3.16899 -2.24046 0
M  V30 3054 H 285.046 -1.08825 -3.56354 0
M  V30 3055 H 285.159 -2.96157 -3.766 0
M  V30 3056 H 283.523 -1.49724 -2.06046 0
M  V30 3057 H 284.306 -3.07857 -1.51917 0
M  V30 3058 N 286.751 1.08385 -1.14413 0
M  V30 3059 C 288.162 1.62258 -0.923535 0
M  V30 3060 C 288.513 1.88691 0.537595 0
M  V30 3061 O 287.638 1.64454 1.40655 0
M  V30 3062 C 288.233 2.94781 -1.67002 0
M  V30 3063 C 286.792 3.45437 -1.495 0
M  V30 3064 C 285.939 2.19668 -1.69238 0
M  V30 3065 H 288.89 0.916086 -1.2959 0
M  V30 3066 H 288.911 3.63229 -1.13334 0
M  V30 3067 H 288.423 2.7551 -2.73342 0
M  V30 3068 H 286.524 3.6981 -0.455097 0
M  V30 3069 H 286.637 4.22173 -2.2651 0
M  V30 3070 H 285.001 2.28849 -1.11804 0
M  V30 3071 H 285.784 2.02905 -2.7692 0
M  V30 3072 N 288.23 0.939286 1.26551 0
M  V30 3073 C 289.458 0.602536 1.97932 0
M  V30 3074 C 289.873 -0.82206 1.69964 0
M  V30 3075 O 289.23 -1.54789 0.966784 0
M  V30 3076 C 289.281 0.832946 3.51773 0
M  V30 3077 O 289.002 2.20151 3.78768 0
M  V30 3078 C 290.503 0.506483 4.40397 0
M  V30 3079 H 287.723 0.227248 0.631347 0
M  V30 3080 H 290.267 1.25948 1.61113 0
M  V30 3081 H 288.422 0.222644 3.8676 0
M  V30 3082 H 288.836 2.26013 4.73306 0
M  V30 3083 H 290.31 0.718333 5.47306 0
M  V30 3084 H 290.787 -0.558451 4.35635 0
M  V30 3085 H 291.393 1.09543 4.10951 0
M  V30 3086 N 289.708 -1.40897 0.706093 0
M  V30 3087 C 290.933 -2.05895 0.249435 0
M  V30 3088 C 291.358 -1.52823 -1.09666 0
M  V30 3089 O 290.716 -0.659589 -1.68876 0
M  V30 3090 C 290.764 -3.59872 0.22904 0
M  V30 3091 O 289.868 -4.04708 -0.792784 0
M  V30 3092 H 289.209 -0.653206 0.119241 0
M  V30 3093 H 291.739 -1.80471 0.96391 0
M  V30 3094 H 291.749 -4.07951 0.0634791 0
M  V30 3095 H 290.424 -3.97866 1.21141 0
M  V30 3096 H 289.001 -3.68111 -0.59572 0
M  V30 3097 N 291.186 -0.45159 -1.50991 0
M  V30 3098 C 292.149 0.341117 -2.26647 0
M  V30 3099 C 293.149 0.937422 -1.30649 0
M  V30 3100 O 294.339 0.809644 -1.54241 0
M  V30 3101 C 291.471 1.48398 -3.06905 0
M  V30 3102 H 292.664 -0.322117 -2.98165 0
M  V30 3103 H 290.217 -0.205122 -1.54948 0
M  V30 3104 H 290.952 2.18284 -2.39838 0
M  V30 3105 H 290.737 1.06241 -3.77432 0
M  V30 3106 H 292.227 2.04367 -3.64176 0
M  V30 3107 N 292.664 1.56529 -0.183458 0
M  V30 3108 C 293.889 2.02064 0.467428 0
M  V30 3109 C 294.314 1.06282 1.55196 0
M  V30 3110 O 293.672 0.0443565 1.81246 0
M  V30 3111 C 293.72 3.46122 1.01153 0
M  V30 3112 O 292.824 3.53437 2.12499 0
M  V30 3113 H 292.165 0.654726 0.110588 0
M  V30 3114 H 294.695 2.02521 -0.290917 0
M  V30 3115 H 294.705 3.85676 1.33108 0
M  V30 3116 H 293.38 4.15331 0.217533 0
M  V30 3117 H 291.957 3.2575 1.81497 0
M  V30 3118 N 294.142 -0.090211 1.57342 0
M  V30 3119 C 295.074 -1.13541 1.99101 0
M  V30 3120 C 296.087 -1.3604 0.894258 0
M  V30 3121 O 297.276 -1.34606 1.17233 0
M  V30 3122 C 294.376 -2.49001 2.29895 0
M  V30 3123 C 293.549 -2.46712 3.61182 0
M  V30 3124 C 292.608 -3.64136 3.79857 0
M  V30 3125 O 291.634 -3.46405 4.51655 0
M  V30 3126 N 292.836 -4.83802 3.20806 0
M  V30 3127 H 295.601 -0.779942 2.89373 0
M  V30 3128 H 293.162 -0.279125 1.59476 0
M  V30 3129 H 295.154 -3.26166 2.39578 0
M  V30 3130 H 293.724 -2.76619 1.45605 0
M  V30 3131 H 292.944 -1.55058 3.62423 0
M  V30 3132 H 294.232 -2.42265 4.4742 0
M  V30 3133 H 293.63 -5.01112 2.62494 0
M  V30 3134 H 292.187 -5.58543 3.35966 0
M  V30 3135 N 295.62 -1.53406 -0.361157 0
M  V30 3136 C 296.866 -1.70054 -1.10496 0
M  V30 3137 C 297.199 -0.453278 -1.88836 0
M  V30 3138 O 296.474 0.5495 -1.86576 0
M  V30 3139 C 296.757 -2.95317 -2.06058 0
M  V30 3140 C 296.61 -4.3021 -1.31298 0
M  V30 3141 C 297.929 -3.16193 -3.06121 0
M  V30 3142 H 295.048 -0.618799 -0.400321 0
M  V30 3143 H 297.69 -1.86052 -0.385318 0
M  V30 3144 H 295.84 -2.81809 -2.67425 0
M  V30 3145 H 297.512 -4.55538 -0.726807 0
M  V30 3146 H 295.755 -4.29421 -0.614853 0
M  V30 3147 H 296.426 -5.14 -2.01265 0
M  V30 3148 H 298.902 -3.28916 -2.5486 0
M  V30 3149 H 297.778 -4.05266 -3.70204 0
M  V30 3150 H 298.039 -2.31676 -3.76535 0
M  V30 3151 N 297.098 0.621204 -1.44841 0
M  V30 3152 C 298.061 1.71459 -1.521 0
M  V30 3153 C 299.061 1.55696 -0.401933 0
M  V30 3154 O 300.251 1.61011 -0.664925 0
M  V30 3155 C 297.383 3.10624 -1.40447 0
M  V30 3156 H 298.576 1.66394 -2.49506 0
M  V30 3157 H 296.129 0.835745 -1.3208 0
M  V30 3158 H 296.864 3.21277 -0.441737 0
M  V30 3159 H 296.649 3.23473 -2.21602 0
M  V30 3160 H 298.139 3.90293 -1.4853 0
M  V30 3161 N 298.576 1.31904 0.862503 0
M  V30 3162 C 299.824 1.21776 1.61292 0
M  V30 3163 C 300.145 -0.222413 1.93727 0
M  V30 3164 O 299.415 -1.1451 1.58947 0
M  V30 3165 H 297.995 0.447717 0.597962 0
M  V30 3166 H 300.657 1.65326 1.03215 0
M  V30 3167 H 299.753 1.7948 2.5533 0
M  V30 3168 N 300.054 -1.07777 1.14986 0
M  V30 3169 C 301.282 -1.84018 0.945773 0
M  V30 3170 C 301.697 -1.81897 -0.505863 0
M  V30 3171 O 301.054 -1.22726 -1.35072 0
M  V30 3172 C 301.105 -3.31287 1.44677 0
M  V30 3173 O 300.826 -3.33449 2.84154 0
M  V30 3174 C 302.327 -4.24311 1.28355 0
M  V30 3175 H 299.547 -0.580716 0.336169 0
M  V30 3176 H 302.091 -1.36077 1.52654 0
M  V30 3177 H 300.246 -3.76594 0.908625 0
M  V30 3178 H 300.66 -4.25427 3.06777 0
M  V30 3179 H 302.134 -5.2573 1.68261 0
M  V30 3180 H 302.611 -4.38612 0.227184 0
M  V30 3181 H 303.217 -3.84836 1.81056 0
M  V30 3182 N 301.532 -0.945985 -1.26051 0
M  V30 3183 C 302.76 -0.613025 -1.9761 0
M  V30 3184 C 303.175 0.813035 -1.70397 0
M  V30 3185 O 302.532 1.54274 -0.974979 0
M  V30 3186 C 302.583 -0.85159 -3.51326 0
M  V30 3187 O 302.304 -2.22157 -3.77595 0
M  V30 3188 C 303.805 -0.529831 -4.40122 0
M  V30 3189 H 301.025 -0.230593 -0.630133 0
M  V30 3190 H 303.569 -1.268 -1.60443 0
M  V30 3191 H 301.724 -0.243151 -3.86636 0
M  V30 3192 H 302.138 -2.2852 -4.721 0
M  V30 3193 H 303.612 -0.747348 -5.46917 0
M  V30 3194 H 304.089 0.535341 -4.35925 0
M  V30 3195 H 304.695 -1.11721 -4.10364 0
M  V30 3196 N 303.011 1.40521 -0.713556 0
M  V30 3197 C 304.259 2.00527 -0.251692 0
M  V30 3198 C 304.58 1.56857 1.15848 0
M  V30 3199 O 303.85 0.807127 1.785 0
M  V30 3200 H 302.43 0.741551 -0.0900646 0
M  V30 3201 H 305.092 1.71887 -0.918733 0
M  V30 3202 H 304.188 3.10813 -0.283192 0
M  V30 3203 N 304.489 0.459591 1.5075 0
M  V30 3204 C 305.738 -0.100971 2.01447 0
M  V30 3205 C 306.051 -1.41816 1.34713 0
M  V30 3206 O 307.257 -2.06299 1.76502 0
M  V30 3207 C 305.713 -0.23047 3.59161 0
M  V30 3208 C 305.321 1.0776 4.34847 0
M  V30 3209 C 307.065 -0.743608 4.17936 0
M  V30 3210 C 304.972 0.91253 5.84317 0
M  V30 3211 H 303.902 -0.0415102 0.752856 0
M  V30 3212 H 306.553 0.592742 1.73663 0
M  V30 3213 H 304.935 -0.987703 3.83485 0
M  V30 3214 H 306.109 1.8449 4.22256 0
M  V30 3215 H 304.424 1.52097 3.87628 0
M  V30 3216 H 307.021 -0.883959 5.27343 0
M  V30 3217 H 307.364 -1.73196 3.78562 0
M  V30 3218 H 307.897 -0.04408 3.97776 0
M  V30 3219 H 304.636 1.87391 6.28144 0
M  V30 3220 H 304.156 0.185422 5.99513 0
M  V30 3221 H 305.835 0.574547 6.44444 0
M  V30 3222 N 305.967 -1.56429 0.191757 0
M  V30 3223 C 306.93 -2.17707 -0.716688 0
M  V30 3224 C 307.93 -1.13061 -1.14341 0
M  V30 3225 O 309.12 -1.38464 -1.05704 0
M  V30 3226 C 306.252 -2.77644 -1.97804 0
M  V30 3227 H 307.445 -2.99342 -0.1829 0
M  V30 3228 H 304.998 -1.56193 -0.0578566 0
M  V30 3229 H 305.733 -1.99799 -2.55443 0
M  V30 3230 H 305.518 -3.54246 -1.68083 0
M  V30 3231 H 307.008 -3.24708 -2.62592 0
M  V30 3232 N 307.445 0.0818655 -1.57387 0
M  V30 3233 C 308.395 1.10501 -1.99433 0
M  V30 3234 C 309.379 1.35041 -0.874798 0
M  V30 3235 O 310.571 1.35511 -1.13868 0
M  V30 3236 C 307.7 2.42159 -2.43339 0
M  V30 3237 C 306.786 2.20937 -3.62005 0
M  V30 3238 N 307.177 1.69616 -4.76512 0
M  V30 3239 C 305.475 2.51451 -3.68359 0
M  V30 3240 C 306.176 1.62973 -5.58404 0
M  V30 3241 N 305.152 2.08664 -5.01956 0
M  V30 3242 H 308.954 0.701373 -2.85408 0
M  V30 3243 H 306.468 0.289096 -1.59806 0
M  V30 3244 H 308.465 3.16208 -2.71695 0
M  V30 3245 H 307.125 2.83249 -1.58746 0
M  V30 3246 H 308.136 1.38624 -4.99003 0
M  V30 3247 H 304.813 2.95975 -2.94457 0
M  V30 3248 H 306.203 1.24233 -6.60315 0
M  V30 3249 N 308.923 1.53595 0.353017 0
M  V30 3250 C 310.339 1.43648 0.695516 0
M  V30 3251 C 310.539 0.585617 1.92802 0
M  V30 3252 O 309.595 0.0729223 2.52395 0
M  V30 3253 C 310.908 2.8701 0.896991 0
M  V30 3254 C 312.456 2.96723 0.996209 0
M  V30 3255 C 312.931 4.41173 1.23007 0
M  V30 3256 N 314.422 4.44657 1.29749 0
M  V30 3257 C 315.157 5.53547 1.49577 0
M  V30 3258 N 314.653 6.72461 1.66639 0
M  V30 3259 N 316.446 5.41145 1.52048 0
M  V30 3260 H 308.597 2.07415 -0.457481 0
M  V30 3261 H 310.86 0.9372 -0.142687 0
M  V30 3262 H 310.566 3.51644 0.0629938 0
M  V30 3263 H 310.44 3.31401 1.80148 0
M  V30 3264 H 312.827 2.32235 1.82074 0
M  V30 3265 H 312.908 2.55707 0.0688331 0
M  V30 3266 H 312.552 5.06238 0.410505 0
M  V30 3267 H 312.482 4.79772 2.17086 0
M  V30 3268 H 314.973 3.58963 1.18126 0
M  V30 3269 H 315.286 7.51214 1.81378 0
M  V30 3270 H 313.631 6.75423 1.63794 0
M  V30 3271 H 316.822 4.47205 1.38294 0
M  V30 3272 H 316.995 6.26068 1.67159 0
M  V30 3273 N 310.401 -0.613514 1.45168 0
M  V30 3274 C 311.678 -1.37263 1.39349 0
M  V30 3275 C 312.058 -2.11012 0.0610848 0
M  V30 3276 O 311.406 -2.07502 -0.956825 0
M  V30 3277 C 311.616 -2.3244 2.60332 0
M  V30 3278 C 312.964 -2.9523 3.05163 0
M  V30 3279 O 313.988 -2.42762 2.60663 0
M  V30 3280 O 312.847 -3.90454 3.82372 0
M  V30 3281 H 309.941 -0.615188 0.552696 0
M  V30 3282 H 312.487 -0.637097 1.57287 0
M  V30 3283 H 311.259 -1.77164 3.48896 0
M  V30 3284 H 310.882 -3.13383 2.44698 0
M  V30 3285 N 311.879 -1.3236 -0.855495 0
M  V30 3286 C 312.809 -1.23833 -1.97958 0
M  V30 3287 C 313.79 -0.122361 -1.69659 0
M  V30 3288 O 314.975 -0.30939 -1.9172 0
M  V30 3289 C 312.105 -0.959772 -3.33775 0
M  V30 3290 C 311.059 -2.03689 -3.76424 0
M  V30 3291 C 310.385 -1.61075 -5.09862 0
M  V30 3292 C 311.685 -3.4518 -3.9198 0
M  V30 3293 H 313.379 -2.1788 -2.0535 0
M  V30 3294 H 310.925 -1.04891 -0.986605 0
M  V30 3295 H 312.878 -0.886678 -4.11966 0
M  V30 3296 H 311.602 0.0163404 -3.26596 0
M  V30 3297 H 310.261 -2.10012 -3.00484 0
M  V30 3298 H 309.909 -0.622107 -4.99138 0
M  V30 3299 H 309.609 -2.33143 -5.39368 0
M  V30 3300 H 311.133 -1.55201 -5.90546 0
M  V30 3301 H 312.547 -3.4145 -4.60526 0
M  V30 3302 H 310.944 -4.1559 -4.32903 0
M  V30 3303 H 312.014 -3.84903 -2.94919 0
M  V30 3304 N 313.357 1.07166 -1.15556 0
M  V30 3305 C 314.304 2.14417 -0.854055 0
M  V30 3306 C 315.274 1.64965 0.193806 0
M  V30 3307 O 316.459 1.90703 0.0609443 0
M  V30 3308 C 313.599 3.43304 -0.351574 0
M  V30 3309 C 312.712 4.06537 -1.46123 0
M  V30 3310 C 311.847 5.23266 -0.914677 0
M  V30 3311 C 310.886 5.78464 -2.00114 0
M  V30 3312 N 310.023 6.86521 -1.47083 0
M  V30 3313 H 314.863 2.39548 -1.77259 0
M  V30 3314 H 312.4 1.17543 -0.884425 0
M  V30 3315 H 314.358 4.17179 -0.0419409 0
M  V30 3316 H 312.988 3.18419 0.530037 0
M  V30 3317 H 312.04 3.30297 -1.88701 0
M  V30 3318 H 313.352 4.43567 -2.28144 0
M  V30 3319 H 312.506 6.04131 -0.557698 0
M  V30 3320 H 311.245 4.87658 -0.0636583 0
M  V30 3321 H 310.25 4.96243 -2.36692 0
M  V30 3322 H 311.475 6.16126 -2.85597 0
M  V30 3323 H 309.421 6.52849 -0.642198 0
M  V30 3324 H 309.338 7.22446 -2.22729 0
M  V30 3325 H 310.606 7.71087 -1.14215 0
M  V30 3326 N 314.835 0.952656 1.25548 0
M  V30 3327 C 316.246 0.647392 1.75116 0
M  V30 3328 C 316.597 -0.837274 1.77438 0
M  V30 3329 O 315.722 -1.65525 1.39393 0
M  V30 3330 C 316.317 1.16845 3.18014 0
M  V30 3331 C 314.876 0.913382 3.6515 0
M  V30 3332 C 314.023 1.31265 2.44264 0
M  V30 3333 H 316.974 1.12968 1.11462 0
M  V30 3334 H 316.995 0.527606 3.76824 0
M  V30 3335 H 316.507 2.24902 3.16292 0
M  V30 3336 H 314.608 -0.152316 3.72289 0
M  V30 3337 H 314.721 1.54845 4.53387 0
M  V30 3338 H 313.085 0.731028 2.43984 0
M  V30 3339 H 313.868 2.40239 2.45234 0
M  V30 3340 N 316.313 -1.40141 0.720998 0
M  V30 3341 C 317.223 -2.34486 0.0731031 0
M  V30 3342 C 318.239 -1.57587 -0.737723 0
M  V30 3343 O 319.415 -1.89949 -0.669429 0
M  V30 3344 C 316.48 -3.36528 -0.833656 0
M  V30 3345 C 315.541 -4.29298 -0.0121673 0
M  V30 3346 C 314.774 -5.26466 -0.875742 0
M  V30 3347 O 314.997 -5.29745 -2.11485 0
M  V30 3348 O 313.931 -6.01092 -0.31185 0
M  V30 3349 H 317.757 -2.9152 0.851444 0
M  V30 3350 H 315.342 -1.41427 0.481527 0
M  V30 3351 H 317.224 -3.99093 -1.35289 0
M  V30 3352 H 315.899 -2.81899 -1.59105 0
M  V30 3353 H 314.806 -3.70001 0.552262 0
M  V30 3354 H 316.139 -4.87094 0.707129 0
M  V30 3355 N 317.792 -0.46758 -1.50504 0
M  V30 3356 C 318.74 0.342482 -2.30065 0
M  V30 3357 C 319.734 0.993596 -1.37201 0
M  V30 3358 O 320.94 0.925102 -1.54408 0
M  V30 3359 H 317.315 0.129283 -0.740803 0
M  V30 3360 H 319.286 -0.34899 -2.96352 0
M  V30 3361 C 318.035 1.4139 -3.17654 0
M  V30 3362 H 317.358 0.922264 -3.89017 0
M  V30 3363 H 318.798 1.95335 -3.76325 0
M  V30 3364 C 317.257 2.4139 -2.35016 0
M  V30 3365 O 317.787 3.46586 -2.03079 0
M  V30 3366 N 315.993 2.13021 -1.97662 0
M  V30 3367 H 315.54 1.27499 -2.23834 0
M  V30 3368 H 315.498 2.80164 -1.42673 0
M  V30 3369 N 319.27 1.56325 -0.20005 0
M  V30 3370 C 320.519 1.96895 0.437652 0
M  V30 3371 C 320.832 1.08999 1.62415 0
M  V30 3372 O 322.038 1.39372 2.32997 0
M  V30 3373 C 320.494 3.50198 0.830025 0
M  V30 3374 C 320.102 4.46765 -0.332461 0
M  V30 3375 C 321.846 3.99526 1.43453 0
M  V30 3376 C 319.753 5.91344 0.0811468 0
M  V30 3377 H 318.683 0.735209 0.167282 0
M  V30 3378 H 321.334 1.81148 -0.292853 0
M  V30 3379 H 319.716 3.61467 1.61734 0
M  V30 3380 H 320.89 4.47231 -1.11 0
M  V30 3381 H 319.205 4.07657 -0.848789 0
M  V30 3382 H 321.802 5.05025 1.75652 0
M  V30 3383 H 322.145 3.44122 2.34277 0
M  V30 3384 H 322.678 3.91393 0.71109 0
M  V30 3385 H 319.417 6.50685 -0.793033 0
M  V30 3386 H 318.937 5.94121 0.823445 0
M  V30 3387 H 320.616 6.44945 0.515252 0
M  V30 3388 N 320.748 -0.0735177 1.57428 0
M  V30 3389 C 321.678 -1.0879 2.06608 0
M  V30 3390 C 322.659 -1.40473 0.959237 0
M  V30 3391 O 323.844 -1.5013 1.23185 0
M  V30 3392 C 320.974 -2.40183 2.50857 0
M  V30 3393 C 319.928 -2.22858 3.65402 0
M  V30 3394 C 319.254 -3.59619 3.957 0
M  V30 3395 C 320.554 -1.65123 4.95511 0
M  V30 3396 H 322.248 -0.678673 2.91607 0
M  V30 3397 H 319.794 -0.325013 1.40284 0
M  V30 3398 H 321.747 -3.11437 2.83874 0
M  V30 3399 H 320.471 -2.83083 1.62885 0
M  V30 3400 H 319.13 -1.54045 3.32664 0
M  V30 3401 H 318.778 -4.00086 3.04861 0
M  V30 3402 H 318.478 -3.48866 4.72828 0
M  V30 3403 H 320.002 -4.32306 4.31212 0
M  V30 3404 H 321.416 -2.26241 5.26771 0
M  V30 3405 H 319.813 -1.65071 5.7695 0
M  V30 3406 H 320.883 -0.612559 4.81015 0
M  V30 3407 N 322.226 -1.5378 -0.344866 0
M  V30 3408 C 323.466 -1.72677 -1.09371 0
M  V30 3409 C 323.83 -0.479084 -1.85927 0
M  V30 3410 O 325.031 -0.54505 -2.63216 0
M  V30 3411 C 323.302 -2.95457 -2.01097 0
M  V30 3412 S 324.861 -3.35158 -2.83222 0
M  V30 3413 H 321.679 -0.607402 -0.369573 0
M  V30 3414 H 324.281 -1.91922 -0.372307 0
M  V30 3415 H 322.985 -3.84437 -1.43655 0
M  V30 3416 H 322.516 -2.78673 -2.77678 0
M  V30 3417 H 324.531 -2.88789 -4.03504 0
M  V30 3418 N 323.704 0.605807 -1.45491 0
M  V30 3419 C 324.614 1.74466 -1.56839 0
M  V30 3420 C 325.63 1.68006 -0.452772 0
M  V30 3421 O 326.806 1.8833 -0.713708 0
M  V30 3422 C 323.871 3.10931 -1.53371 0
M  V30 3423 C 322.932 3.28832 -2.75986 0
M  V30 3424 C 322.165 4.58787 -2.72673 0
M  V30 3425 O 322.388 5.4122 -1.80102 0
M  V30 3426 O 321.322 4.79438 -3.63899 0
M  V30 3427 H 325.148 1.67843 -2.53106 0
M  V30 3428 H 322.733 0.770108 -1.28022 0
M  V30 3429 H 324.615 3.92233 -1.54051 0
M  V30 3430 H 323.29 3.18042 -0.602572 0
M  V30 3431 H 322.197 2.47112 -2.80867 0
M  V30 3432 H 323.53 3.26599 -3.68231 0
M  V30 3433 N 325.182 1.32811 0.848464 0
M  V30 3434 C 326.407 1.26882 1.6406 0
M  V30 3435 C 326.832 -0.15913 1.87426 0
M  V30 3436 O 326.19 -1.11258 1.43148 0
M  V30 3437 C 326.238 2.03997 2.97351 0
M  V30 3438 O 325.342 1.39201 3.88197 0
M  V30 3439 H 324.683 0.436982 0.499943 0
M  V30 3440 H 327.213 1.75224 1.0563 0
M  V30 3441 H 327.223 2.14403 3.47124 0
M  V30 3442 H 325.898 3.0783 2.79666 0
M  V30 3443 H 324.475 1.37381 3.46671 0
M  V30 3444 N 326.66 -1.06551 1.16123 0
M  V30 3445 C 328.071 -1.60768 0.949232 0
M  V30 3446 C 328.422 -1.89523 -0.507508 0
M  V30 3447 O 327.547 -1.66671 -1.38021 0
M  V30 3448 C 328.142 -2.92086 1.71671 0
M  V30 3449 C 326.701 -3.43015 1.54977 0
M  V30 3450 C 325.848 -2.16947 1.72711 0
M  V30 3451 H 328.799 -0.895354 1.31031 0
M  V30 3452 H 328.82 -3.6138 1.19099 0
M  V30 3453 H 328.332 -2.71127 2.7769 0
M  V30 3454 H 326.433 -3.69039 0.513873 0
M  V30 3455 H 326.546 -4.18516 2.33198 0
M  V30 3456 H 324.91 -2.27041 1.15431 0
M  V30 3457 H 325.693 -1.98473 2.80113 0
M  V30 3458 N 328.138 -0.959301 -1.25041 0
M  V30 3459 C 329.048 -0.489994 -2.29426 0
M  V30 3460 C 330.064 0.444944 -1.68215 0
M  V30 3461 O 331.24 0.320046 -1.98841 0
M  V30 3462 C 328.305 0.220309 -3.45999 0
M  V30 3463 C 327.366 -0.753418 -4.22637 0
M  V30 3464 C 326.599 -0.076918 -5.33645 0
M  V30 3465 O 326.822 1.13649 -5.58963 0
M  V30 3466 O 325.756 -0.764824 -5.97021 0
M  V30 3467 H 329.582 -1.35755 -2.71669 0
M  V30 3468 H 327.167 -0.725961 -1.30576 0
M  V30 3469 H 329.049 0.619677 -4.16819 0
M  V30 3470 H 327.724 1.06296 -3.0575 0
M  V30 3471 H 326.631 -1.20308 -3.54227 0
M  V30 3472 H 327.964 -1.56423 -4.66683 0
M  V30 3473 N 329.616 1.39756 -0.72842 0
M  V30 3474 C 330.563 2.30647 -0.0841519 0
M  V30 3475 C 331.533 1.48869 0.7367 0
M  V30 3476 O 332.718 1.77574 0.698015 0
M  V30 3477 C 329.858 3.35165 0.822091 0
M  V30 3478 C 328.971 4.31999 -0.0106663 0
M  V30 3479 C 328.106 5.23585 0.896241 0
M  V30 3480 C 327.145 6.12072 0.0583381 0
M  V30 3481 N 326.282 6.96035 0.920818 0
M  V30 3482 H 331.122 2.85173 -0.864891 0
M  V30 3483 H 328.659 1.40422 -0.438179 0
M  V30 3484 H 330.617 3.94345 1.36189 0
M  V30 3485 H 329.247 2.8211 1.56888 0
M  V30 3486 H 328.299 3.74492 -0.66781 0
M  V30 3487 H 329.611 4.9443 -0.658825 0
M  V30 3488 H 328.765 5.87759 1.50412 0
M  V30 3489 H 327.504 4.61459 1.57819 0
M  V30 3490 H 326.509 5.46916 -0.562389 0
M  V30 3491 H 327.734 6.76261 -0.6203 0
M  V30 3492 H 325.68 6.36485 1.58818 0
M  V30 3493 H 325.597 7.55284 0.32899 0
M  V30 3494 H 326.865 7.64646 1.51447 0
M  V30 3495 N 331.094 0.475555 1.50254 0
M  V30 3496 C 332.34 -0.0780073 2.0265 0
M  V30 3497 C 332.673 -1.38968 1.35652 0
M  V30 3498 O 331.948 -1.8839 0.483691 0
M  V30 3499 C 332.231 -0.257161 3.59181 0
M  V30 3500 C 332.084 1.07585 4.36744 0
M  V30 3501 C 333.403 -1.00965 4.28362 0
M  V30 3502 H 330.522 -0.0268758 0.73651 0
M  V30 3503 H 333.164 0.622015 1.7953 0
M  V30 3504 H 331.314 -0.853412 3.79011 0
M  V30 3505 H 332.986 1.70902 4.28474 0
M  V30 3506 H 331.229 1.6714 4.00308 0
M  V30 3507 H 331.9 0.904088 5.44546 0
M  V30 3508 H 334.376 -0.504214 4.13034 0
M  V30 3509 H 333.252 -1.10381 5.37687 0
M  V30 3510 H 333.513 -2.04731 3.91839 0
M  V30 3511 N 332.573 -1.56217 0.208337 0
M  V30 3512 C 333.798 -2.02782 -0.435222 0
M  V30 3513 C 334.223 -1.08738 -1.53485 0
M  V30 3514 O 333.581 -0.0731855 -1.81152 0
M  V30 3515 C 333.629 -3.47687 -0.956335 0
M  V30 3516 O 332.733 -3.56773 -2.06849 0
M  V30 3517 H 332.074 -0.656403 -0.100158 0
M  V30 3518 H 334.604 -2.02033 0.3231 0
M  V30 3519 H 334.614 -3.87745 -1.26955 0
M  V30 3520 H 333.289 -4.15624 -0.15143 0
M  V30 3521 H 331.866 -3.28597 -1.76292 0
M  V30 3522 N 334.051 0.0651679 -1.57465 0
M  V30 3523 C 335.462 0.616213 -1.76238 0
M  V30 3524 C 335.813 1.7756 -0.834689 0
M  V30 3525 O 334.938 2.1639 -0.0204156 0
M  V30 3526 C 335.533 1.12462 -3.1959 0
M  V30 3527 C 334.092 1.62147 -3.39684 0
M  V30 3528 C 333.239 0.543739 -2.71917 0
M  V30 3529 H 336.19 -0.161022 -1.57881 0
M  V30 3530 H 336.211 1.99324 -3.24114 0
M  V30 3531 H 335.723 0.280592 -3.87084 0
M  V30 3532 H 333.824 2.48854 -2.77313 0
M  V30 3533 H 333.937 1.69385 -4.48158 0
M  V30 3534 H 332.301 0.990352 -2.34657 0
M  V30 3535 H 333.084 -0.290216 -3.42071 0
M  V30 3536 N 335.529 1.53961 0.336706 0
M  V30 3537 C 336.775 1.7179 1.07777 0
M  V30 3538 C 337.108 0.483263 1.88091 0
M  V30 3539 O 336.383 -0.519747 1.87427 0
M  V30 3540 C 336.666 2.98558 2.01334 0
M  V30 3541 C 336.519 4.32245 1.24437 0
M  V30 3542 C 337.838 3.21023 3.01052 0
M  V30 3543 H 334.957 0.625089 0.390426 0
M  V30 3544 H 337.599 1.86641 0.35567 0
M  V30 3545 H 335.749 2.86028 2.62908 0
M  V30 3546 H 337.421 4.56637 0.654243 0
M  V30 3547 H 335.664 4.30344 0.546458 0
M  V30 3548 H 336.335 5.17137 1.93063 0
M  V30 3549 H 338.811 3.32929 2.49595 0
M  V30 3550 H 337.687 4.11104 3.6371 0
M  V30 3551 H 337.948 2.37637 3.72802 0
M  V30 3552 N 337.007 -0.598083 1.45811 0
M  V30 3553 C 337.954 -1.7082 1.55207 0
M  V30 3554 C 338.924 -1.61278 0.39732 0
M  V30 3555 O 340.109 -1.80717 0.612038 0
M  V30 3556 C 337.249 -3.09144 1.53376 0
M  V30 3557 C 336.362 -3.29423 2.79472 0
M  V30 3558 C 335.497 -4.57907 2.69248 0
M  V30 3559 C 334.536 -4.71476 3.90354 0
M  V30 3560 N 333.673 -5.9127 3.78608 0
M  V30 3561 H 338.513 -1.62125 2.50039 0
M  V30 3562 H 336.05 -0.790389 1.24062 0
M  V30 3563 H 338.008 -3.89186 1.50301 0
M  V30 3564 H 336.638 -3.16773 0.620876 0
M  V30 3565 H 335.69 -2.43091 2.92594 0
M  V30 3566 H 337.002 -3.3532 3.69272 0
M  V30 3567 H 336.156 -5.46157 2.64192 0
M  V30 3568 H 334.895 -4.54423 1.77063 0
M  V30 3569 H 333.9 -3.81648 3.95759 0
M  V30 3570 H 335.125 -4.76751 4.83617 0
M  V30 3571 H 333.071 -5.88813 2.89199 0
M  V30 3572 H 332.988 -5.98369 4.6205 0
M  V30 3573 H 334.256 -6.81992 3.77501 0
M  V30 3574 N 338.485 -1.33259 -0.841409 0
M  V30 3575 C 339.734 -1.23921 -1.59143 0
M  V30 3576 C 340.047 0.1941 -1.94635 0
M  V30 3577 O 341.253 0.409474 -2.68394 0
M  V30 3578 C 339.709 -2.17119 -2.87032 0
M  V30 3579 C 339.317 -3.65606 -2.58914 0
M  V30 3580 C 341.061 -2.16648 -3.65053 0
M  V30 3581 C 338.968 -4.50726 -3.82884 0
M  V30 3582 H 337.898 -0.460264 -0.597221 0
M  V30 3583 H 340.549 -1.58307 -0.927959 0
M  V30 3584 H 338.931 -1.75663 -3.54906 0
M  V30 3585 H 340.105 -4.15487 -1.99267 0
M  V30 3586 H 338.42 -3.68341 -1.942 0
M  V30 3587 H 341.017 -2.77474 -4.57069 0
M  V30 3588 H 341.36 -1.16088 -3.99787 0
M  V30 3589 H 341.893 -2.56453 -3.041 0
M  V30 3590 H 338.632 -5.52151 -3.53283 0
M  V30 3591 H 338.152 -4.0559 -4.41879 0
M  V30 3592 H 339.831 -4.64401 -4.50489 0
M  V30 3593 N 339.963 1.05934 -1.16686 0
M  V30 3594 C 341.203 1.80382 -0.961345 0
M  V30 3595 C 341.567 1.85331 0.501643 0
M  V30 3596 O 342.768 2.55795 0.825986 0
M  V30 3597 C 341.039 3.20777 -1.57596 0
M  V30 3598 S 342.598 4.11795 -1.51559 0
M  V30 3599 H 339.416 0.621332 -0.345641 0
M  V30 3600 H 342.018 1.27157 -1.48497 0
M  V30 3601 H 340.722 3.14773 -2.63337 0
M  V30 3602 H 340.253 3.79078 -1.05182 0
M  V30 3603 H 342.268 4.93485 -0.518374 0
M  V30 3604 N 341.441 0.965919 1.2453 0
M  V30 3605 C 342.718 0.543777 1.87889 0
M  V30 3606 C 343.098 -0.97909 1.87021 0
M  V30 3607 O 342.446 -1.84969 1.3416 0
M  V30 3608 C 342.656 1.13327 3.30088 0
M  V30 3609 C 344.004 1.21707 4.06783 0
M  V30 3610 O 345.028 1.08566 3.39252 0
M  V30 3611 O 343.887 1.42456 5.27606 0
M  V30 3612 H 340.981 0.181054 0.806938 0
M  V30 3613 H 343.527 1.06007 1.32516 0
M  V30 3614 H 342.299 2.17612 3.25209 0
M  V30 3615 H 341.922 0.600911 3.93033 0
M  V30 3616 N 342.919 -1.39368 0.735821 0
M  V30 3617 C 344.166 -2.00497 0.284123 0
M  V30 3618 C 344.494 -1.58387 -1.12889 0
M  V30 3619 O 343.749 -0.804359 -1.78406 0
M  V30 3620 C 344.048 -3.5583 0.334651 0
M  V30 3621 C 343.714 -4.17593 1.7008 0
M  V30 3622 C 342.376 -4.34176 2.07472 0
M  V30 3623 C 344.728 -4.51848 2.59775 0
M  V30 3624 C 342.056 -4.82304 3.34065 0
M  V30 3625 C 344.408 -5.01384 3.85741 0
M  V30 3626 C 343.072 -5.16175 4.23225 0
M  V30 3627 H 342.342 -0.73367 0.103968 0
M  V30 3628 H 344.989 -1.66683 0.942825 0
M  V30 3629 H 343.294 -3.89674 -0.407625 0
M  V30 3630 H 344.991 -4.00986 -0.0329927 0
M  V30 3631 H 341.581 -4.05087 1.40008 0
M  V30 3632 H 345.765 -4.38653 2.32157 0
M  V30 3633 H 341.021 -4.91941 3.63049 0
M  V30 3634 H 345.195 -5.26863 4.55399 0
M  V30 3635 H 342.822 -5.5323 5.21384 0
M  V30 3636 N 344.397 -0.483516 -1.5 0
M  V30 3637 C 345.674 0.129337 -1.95172 0
M  V30 3638 C 346.054 1.55802 -1.4244 0
M  V30 3639 O 345.402 2.19625 -0.630649 0
M  V30 3640 C 345.612 0.0599251 -3.48949 0
M  V30 3641 C 346.96 0.242617 -4.23906 0
M  V30 3642 O 347.984 0.135933 -3.55941 0
M  V30 3643 O 346.843 0.459454 -5.44565 0
M  V30 3644 H 343.937 0.104887 -0.820322 0
M  V30 3645 H 346.483 -0.544807 -1.60717 0
M  V30 3646 H 345.255 -0.937079 -3.79914 0
M  V30 3647 H 344.878 0.774984 -3.89974 0
M  V30 3648 N 345.875 1.56104 -0.216619 0
M  V30 3649 C 346.805 2.23063 0.690296 0
M  V30 3650 C 347.786 1.20072 1.20485 0
M  V30 3651 O 348.971 1.48643 1.24976 0
M  V30 3652 C 346.101 2.90672 1.90072 0
M  V30 3653 C 345.055 4.00092 1.5202 0
M  V30 3654 C 344.381 4.54972 2.80899 0
M  V30 3655 C 345.681 5.17398 0.71391 0
M  V30 3656 H 347.375 2.99109 0.132038 0
M  V30 3657 H 344.921 1.43866 0.0620664 0
M  V30 3658 H 346.874 3.36204 2.54057 0
M  V30 3659 H 345.598 2.12066 2.48386 0
M  V30 3660 H 344.257 3.55283 0.903839 0
M  V30 3661 H 343.905 3.73102 3.37348 0
M  V30 3662 H 343.605 5.28817 2.56176 0
M  V30 3663 H 345.129 5.0322 3.45836 0
M  V30 3664 H 346.543 5.59342 1.25735 0
M  V30 3665 H 344.94 5.97444 0.563951 0
M  V30 3666 H 346.01 4.84088 -0.280527 0
M  V30 3667 N 347.353 -0.0568162 1.57498 0
M  V30 3668 C 348.601 -0.751617 1.87604 0
M  V30 3669 C 348.922 -1.77351 0.81066 0
M  V30 3670 O 348.192 -1.95254 -0.159018 0
M  V30 3671 H 346.772 -0.280583 0.692302 0
M  V30 3672 H 349.434 -0.0293483 1.94878 0
M  V30 3673 H 348.53 -1.25852 2.856 0
M  V30 3674 N 348.832 -1.54138 -0.328536 0
M  V30 3675 C 350.057 -1.76378 -1.09112 0
M  V30 3676 C 350.482 -0.508596 -1.81094 0
M  V30 3677 O 349.84 0.539598 -1.73084 0
M  V30 3678 C 349.888 -2.95358 -2.06872 0
M  V30 3679 O 348.992 -2.66556 -3.14677 0
M  V30 3680 H 348.333 -0.584614 -0.314838 0
M  V30 3681 H 350.863 -2.01146 -0.374348 0
M  V30 3682 H 350.873 -3.22566 -2.4983 0
M  V30 3683 H 349.548 -3.86385 -1.5388 0
M  V30 3684 H 348.125 -2.50282 -2.7643 0
M  V30 3685 N 350.31 0.590341 -1.46126 0
M  V30 3686 C 351.558 1.34616 -1.50742 0
M  V30 3687 C 351.879 1.94363 -0.157486 0
M  V30 3688 O 351.149 1.78136 0.815136 0
M  V30 3689 H 349.729 0.499789 -0.555175 0
M  V30 3690 H 352.391 0.691953 -1.82203 0
M  V30 3691 H 351.487 2.15678 -2.25587 0
M  V30 3692 N 351.788 1.33704 0.83433 0
M  V30 3693 C 352.721 1.18675 1.94914 0
M  V30 3694 C 353.699 0.0811145 1.62398 0
M  V30 3695 O 354.883 0.244186 1.86912 0
M  V30 3696 C 352.01 0.821231 3.28593 0
M  V30 3697 C 351.056 1.93501 3.80079 0
M  V30 3698 S 351.889 3.54671 4.01209 0
M  V30 3699 C 353.045 3.20136 5.37833 0
M  V30 3700 H 353.278 2.13043 2.07364 0
M  V30 3701 H 350.811 1.18598 0.988624 0
M  V30 3702 H 352.769 0.617123 4.05835 0
M  V30 3703 H 351.43 -0.103927 3.13928 0
M  V30 3704 H 350.623 1.63273 4.76821 0
M  V30 3705 H 350.225 2.09601 3.09747 0
M  V30 3706 H 352.517 2.71242 6.20833 0
M  V30 3707 H 353.46 4.15975 5.73036 0
M  V30 3708 H 353.868 2.56613 5.02802 0
M  V30 3709 N 353.266 -1.05314 1.17247 0
M  V30 3710 C 354.213 -2.13031 0.888058 0
M  V30 3711 C 355.183 -1.65253 -0.167537 0
M  V30 3712 O 356.368 -1.90775 -0.0305974 0
M  V30 3713 C 353.508 -3.42702 0.406147 0
M  V30 3714 C 352.621 -4.04161 1.52572 0
M  V30 3715 C 351.756 -5.21744 0.997808 0
M  V30 3716 C 350.795 -5.75207 2.09291 0
M  V30 3717 N 349.932 -6.84094 1.57986 0
M  V30 3718 H 354.772 -2.36698 1.81048 0
M  V30 3719 H 352.309 -1.16121 0.903013 0
M  V30 3720 H 354.267 -4.17059 0.108305 0
M  V30 3721 H 352.897 -3.19222 -0.479313 0
M  V30 3722 H 351.949 -3.27253 1.93931 0
M  V30 3723 H 353.261 -4.39881 2.35172 0
M  V30 3724 H 352.415 -6.03168 0.653739 0
M  V30 3725 H 351.154 -4.87495 0.141232 0
M  V30 3726 H 350.159 -4.92414 2.44557 0
M  V30 3727 H 351.384 -6.11505 2.95362 0
M  V30 3728 H 349.33 -6.51745 0.74598 0
M  V30 3729 H 349.247 -7.18811 2.34195 0
M  V30 3730 H 350.515 -7.69172 1.26468 0
M  V30 3731 N 354.744 -0.972509 -1.24016 0
M  V30 3732 C 355.674 -0.525548 -2.27509 0
M  V30 3733 C 356.655 0.437262 -1.64384 0
M  V30 3734 O 357.84 0.332343 -1.91335 0
M  V30 3735 C 354.97 0.180448 -3.46831 0
M  V30 3736 C 353.924 -0.698859 -4.22256 0
M  V30 3737 C 353.25 0.138903 -5.3452 0
M  V30 3738 C 354.55 -1.98582 -4.83076 0
M  V30 3739 H 356.244 -1.39058 -2.65148 0
M  V30 3740 H 353.79 -0.67009 -1.27459 0
M  V30 3741 H 355.743 0.504387 -4.18371 0
M  V30 3742 H 354.467 1.07987 -3.08231 0
M  V30 3743 H 353.126 -1.00614 -3.52523 0
M  V30 3744 H 352.774 1.03862 -4.9216 0
M  V30 3745 H 352.474 -0.446259 -5.85903 0
M  V30 3746 H 353.998 0.457404 -6.08884 0
M  V30 3747 H 355.412 -1.72715 -5.46665 0
M  V30 3748 H 353.809 -2.5181 -5.44713 0
M  V30 3749 H 354.879 -2.67769 -4.04262 0
M  V30 3750 N 356.222 1.38976 -0.743202 0
M  V30 3751 C 357.17 2.32394 -0.0978389 0
M  V30 3752 C 358.164 1.53486 0.716824 0
M  V30 3753 O 359.37 1.69092 0.617088 0
M  V30 3754 H 355.745 0.75189 -0.0128402 0
M  V30 3755 H 357.716 2.84441 -0.901981 0
M  V30 3756 C 356.465 3.38629 0.789036 0
M  V30 3757 H 355.788 3.99432 0.171559 0
M  V30 3758 H 357.228 4.06426 1.20807 0
M  V30 3759 C 355.687 2.76347 1.92702 0
M  V30 3760 O 356.217 2.64836 3.02034 0
M  V30 3761 N 354.423 2.34311 1.71891 0
M  V30 3762 H 353.97 2.43873 0.829675 0
M  V30 3763 H 353.928 1.9298 2.48205 0
M  V30 3764 N 357.7 0.491464 1.49741 0
M  V30 3765 C 358.648 -0.305837 2.30581 0
M  V30 3766 C 359.642 -0.971642 1.38764 0
M  V30 3767 O 360.848 -0.90042 1.5586 0
M  V30 3768 H 357.223 -0.117482 0.742767 0
M  V30 3769 H 359.194 0.396093 2.95759 0
M  V30 3770 C 357.943 -1.36319 3.19863 0
M  V30 3771 H 357.266 -0.860258 3.90435 0
M  V30 3772 H 358.706 -1.89323 3.79385 0
M  V30 3773 C 357.165 -2.37621 2.38826 0
M  V30 3774 O 357.695 -3.43311 2.08567 0
M  V30 3775 N 355.901 -2.09849 2.01026 0
M  V30 3776 H 355.448 -1.23922 2.25834 0
M  V30 3777 H 355.406 -2.77859 1.47112 0
M  V30 3778 N 359.178 -1.55987 0.224894 0
M  V30 3779 C 360.403 -2.03232 -0.41369 0
M  V30 3780 C 360.828 -1.10359 -1.52323 0
M  V30 3781 O 360.186 -0.092395 -1.81064 0
M  V30 3782 C 360.234 -3.48682 -0.919405 0
M  V30 3783 O 359.338 -3.58947 -2.03054 0
M  V30 3784 H 358.679 -0.657428 -0.0931903 0
M  V30 3785 H 361.209 -2.01679 0.34451 0
M  V30 3786 H 361.219 -3.8907 -1.22835 0
M  V30 3787 H 359.894 -4.15761 -0.107339 0
M  V30 3788 H 358.471 -3.30448 -1.72796 0
M  V30 3789 N 360.656 0.0484629 -1.57525 0
M  V30 3790 C 361.896 0.748196 -1.90214 0
M  V30 3791 C 362.26 1.73545 -0.821347 0
M  V30 3792 O 363.461 2.48201 -1.03198 0
M  V30 3793 C 361.732 1.41727 -3.28098 0
M  V30 3794 S 363.291 2.14884 -3.82584 0
M  V30 3795 H 360.109 0.248307 -0.666232 0
M  V30 3796 H 362.711 0.00343188 -1.955 0
M  V30 3797 H 361.415 0.685244 -4.04639 0
M  V30 3798 H 360.946 2.20099 -3.26068 0
M  V30 3799 H 362.961 3.41755 -3.59747 0
M  V30 3800 N 362.134 1.5431 0.320358 0
M  V30 3801 C 363.362 1.76636 1.07738 0
M  V30 3802 C 363.777 0.51649 1.81598 0
M  V30 3803 O 363.134 -0.512942 1.75143 0
M  V30 3804 C 363.185 2.96158 2.07299 0
M  V30 3805 O 362.906 4.16313 1.36438 0
M  V30 3806 C 364.407 3.3072 2.95193 0
M  V30 3807 H 361.627 0.589597 0.320339 0
M  V30 3808 H 364.171 2.01207 0.36551 0
M  V30 3809 H 362.326 2.73851 2.74016 0
M  V30 3810 H 362.74 4.83565 2.03138 0
M  V30 3811 H 364.214 4.17643 3.60941 0
M  V30 3812 H 364.691 2.48026 3.62463 0
M  V30 3813 H 365.297 3.55117 2.34034 0
M  V30 3814 N 363.613 -0.582584 1.46437 0
M  V30 3815 C 365.024 -1.1647 1.45916 0
M  V30 3816 C 365.375 -1.95177 0.200077 0
M  V30 3817 O 364.5 -2.04874 -0.696819 0
M  V30 3818 C 365.095 -2.11885 2.64367 0
M  V30 3819 C 363.654 -2.65421 2.66887 0
M  V30 3820 C 362.801 -1.41294 2.38603 0
M  V30 3821 H 365.752 -0.370514 1.54314 0
M  V30 3822 H 365.773 -2.9535 2.39892 0
M  V30 3823 H 365.285 -1.54573 3.5599 0
M  V30 3824 H 363.386 -3.26602 1.79338 0
M  V30 3825 H 363.499 -3.08147 3.66854 0
M  V30 3826 H 361.863 -1.71109 1.88663 0
M  V30 3827 H 362.646 -0.858125 3.32402 0
M  V30 3828 N 365.091 -1.34144 -0.827227 0
M  V30 3829 C 366.34 -1.25602 -1.5782 0
M  V30 3830 C 366.653 0.173445 -1.94829 0
M  V30 3831 O 367.859 0.380984 -2.68814 0
M  V30 3832 C 366.315 -2.20151 -2.84713 0
M  V30 3833 C 365.923 -3.68331 -2.55021 0
M  V30 3834 C 367.667 -2.20508 -3.62735 0
M  V30 3835 C 365.574 -4.54762 -3.78082 0
M  V30 3836 H 364.504 -0.466573 -0.592306 0
M  V30 3837 H 367.155 -1.59283 -0.911116 0
M  V30 3838 H 365.537 -1.79417 -3.53023 0
M  V30 3839 H 366.711 -4.17577 -1.94849 0
M  V30 3840 H 365.026 -3.7038 -1.90283 0
M  V30 3841 H 367.623 -2.82306 -4.54101 0
M  V30 3842 H 367.966 -1.20322 -3.98533 0
M  V30 3843 H 368.499 -2.59664 -3.01362 0
M  V30 3844 H 365.238 -5.55867 -3.47407 0
M  V30 3845 H 364.758 -4.10254 -4.37552 0
M  V30 3846 H 366.437 -4.69153 -4.45538 0
M  V30 3847 N 366.569 1.04691 -1.17803 0
M  V30 3848 C 367.797 1.81446 -0.99423 0
M  V30 3849 C 368.212 1.83174 0.457459 0
M  V30 3850 O 367.569 1.26265 1.31771 0
M  V30 3851 C 367.62 3.27334 -1.5341 0
M  V30 3852 O 367.341 3.25798 -2.92895 0
M  V30 3853 C 368.842 4.20759 -1.39559 0
M  V30 3854 H 366.062 0.571599 -0.351447 0
M  V30 3855 H 368.606 1.31982 -1.56208 0
M  V30 3856 H 366.761 3.74052 -1.00815 0
M  V30 3857 H 367.175 4.17144 -3.17949 0
M  V30 3858 H 368.649 5.21084 -1.82141 0
M  V30 3859 H 369.126 4.37856 -0.343394 0
M  V30 3860 H 369.732 3.79901 -1.91195 0
M  V30 3861 N 368.047 0.979072 1.23499 0
M  V30 3862 C 369.275 0.665202 1.95915 0
M  V30 3863 C 369.69 -0.767571 1.72493 0
M  V30 3864 O 369.047 -1.51635 1.01554 0
M  V30 3865 C 369.098 0.944438 3.48945 0
M  V30 3866 O 368.819 2.3209 3.71572 0
M  V30 3867 C 370.32 0.646336 4.38563 0
M  V30 3868 H 367.54 0.247218 0.623798 0
M  V30 3869 H 370.084 1.31009 1.57025 0
M  V30 3870 H 368.239 0.345575 3.85856 0
M  V30 3871 H 368.653 2.40957 4.65876 0
M  V30 3872 H 370.127 0.892091 5.44744 0
M  V30 3873 H 370.604 -0.419575 4.37191 0
M  V30 3874 H 371.21 1.22562 4.07258 0
M  V30 3875 N 369.525 -1.3858 0.750561 0
M  V30 3876 C 370.936 -1.82927 0.373438 0
M  V30 3877 C 371.287 -1.62634 -1.09748 0
M  V30 3878 O 370.412 -1.12588 -1.84805 0
M  V30 3879 C 371.007 -3.32088 0.671029 0
M  V30 3880 C 369.566 -3.74795 0.34722 0
M  V30 3881 C 368.713 -2.61391 0.92575 0
M  V30 3882 H 371.664 -1.27351 0.946958 0
M  V30 3883 H 371.685 -3.80465 -0.0518269 0
M  V30 3884 H 371.197 -3.46826 1.74164 0
M  V30 3885 H 369.298 -3.65638 -0.716933 0
M  V30 3886 H 369.411 -4.71667 0.840656 0
M  V30 3887 H 367.775 -2.52265 0.351327 0
M  V30 3888 H 368.558 -2.78929 2.00133 0
M  V30 3889 N 371.003 -0.499398 -1.49478 0
M  V30 3890 C 371.913 0.284489 -2.32869 0
M  V30 3891 C 372.929 0.968885 -1.44529 0
M  V30 3892 O 374.105 0.95062 -1.77553 0
M  V30 3893 C 371.17 1.33594 -3.19928 0
M  V30 3894 C 370.231 0.665149 -4.24116 0
M  V30 3895 C 369.464 1.6665 -5.07014 0
M  V30 3896 O 369.687 2.89618 -4.91404 0
M  V30 3897 O 368.621 1.22271 -5.8935 0
M  V30 3898 H 372.447 -0.39802 -3.01081 0
M  V30 3899 H 370.032 -0.260758 -1.47107 0
M  V30 3900 H 371.914 1.94431 -3.73864 0
M  V30 3901 H 370.589 2.0014 -2.54412 0
M  V30 3902 H 369.496 0.0170769 -3.74096 0
M  V30 3903 H 370.829 0.0421555 -4.92182 0
M  V30 3904 N 372.481 1.55866 -0.233164 0
M  V30 3905 C 373.411 2.23783 0.666599 0
M  V30 3906 C 374.392 1.21343 1.19205 0
M  V30 3907 O 375.577 1.4996 1.23392 0
M  V30 3908 C 372.707 2.92671 1.86978 0
M  V30 3909 C 371.661 4.01682 1.47768 0
M  V30 3910 C 370.987 4.57926 2.76058 0
M  V30 3911 C 372.287 5.18126 0.658993 0
M  V30 3912 H 373.981 2.99232 0.100306 0
M  V30 3913 H 371.527 1.43924 0.046804 0
M  V30 3914 H 373.48 3.3888 2.50476 0
M  V30 3915 H 372.204 2.14688 2.46123 0
M  V30 3916 H 370.863 3.56222 0.866106 0
M  V30 3917 H 370.511 3.76659 3.33372 0
M  V30 3918 H 370.211 5.31505 2.50552 0
M  V30 3919 H 371.735 5.06859 3.40479 0
M  V30 3920 H 373.149 5.60644 1.19795 0
M  V30 3921 H 371.546 5.98009 0.500552 0
M  V30 3922 H 372.616 4.83763 -0.331856 0
M  V30 3923 N 373.959 -0.0401083 1.57549 0
M  V30 3924 C 375.187 -0.745196 1.93014 0
M  V30 3925 C 375.602 -1.6948 0.831984 0
M  V30 3926 O 374.959 -1.81482 -0.192463 0
M  V30 3927 C 375.01 -1.51176 3.28372 0
M  V30 3928 O 374.731 -0.600284 4.33968 0
M  V30 3929 C 376.232 -2.315 3.78051 0
M  V30 3930 H 373.452 -0.210088 0.637263 0
M  V30 3931 H 375.996 -0.000924689 2.045 0
M  V30 3932 H 374.151 -2.20801 3.18317 0
M  V30 3933 H 374.565 -1.13669 5.12035 0
M  V30 3934 H 376.039 -2.80697 4.75303 0
M  V30 3935 H 376.516 -3.12436 3.08675 0
M  V30 3936 H 377.122 -1.66971 3.91153 0
M  V30 3937 N 375.437 -1.54477 -0.31217 0
M  V30 3938 C 376.665 -1.77205 -1.068 0
M  V30 3939 C 377.08 -0.526114 -1.81321 0
M  V30 3940 O 376.437 0.503647 -1.75413 0
M  V30 3941 C 376.488 -2.97253 -2.05725 0
M  V30 3942 O 376.209 -4.1703 -1.34228 0
M  V30 3943 C 377.71 -3.32281 -2.93435 0
M  V30 3944 H 374.93 -0.591287 -0.317208 0
M  V30 3945 H 377.474 -2.01398 -0.354834 0
M  V30 3946 H 375.629 -2.753 -2.72559 0
M  V30 3947 H 376.043 -4.84636 -2.00571 0
M  V30 3948 H 377.517 -4.19551 -3.58721 0
M  V30 3949 H 377.994 -2.49945 -3.61143 0
M  V30 3950 H 378.6 -3.56353 -2.32147 0
M  V30 3951 N 376.915 0.57481 -1.46744 0
M  V30 3952 C 378.326 1.15695 -1.46532 0
M  V30 3953 C 378.677 1.95068 -0.210425 0
M  V30 3954 O 377.802 2.05241 0.685944 0
M  V30 3955 C 378.397 2.1048 -2.65487 0
M  V30 3956 C 376.956 2.64002 -2.68291 0
M  V30 3957 C 376.103 1.40026 -2.39349 0
M  V30 3958 H 379.054 0.362325 -1.54509 0
M  V30 3959 H 379.075 2.94074 -2.41455 0
M  V30 3960 H 378.587 1.52683 -3.56805 0
M  V30 3961 H 376.688 3.25646 -1.81067 0
M  V30 3962 H 376.801 3.06197 -3.68483 0
M  V30 3963 H 375.165 1.70106 -1.89568 0
M  V30 3964 H 375.948 0.840485 -3.32852 0
M  V30 3965 N 378.394 1.34581 0.820102 0
M  V30 3966 C 379.634 1.28448 1.58998 0
M  V30 3967 C 379.998 -0.142883 1.91468 0
M  V30 3968 O 381.199 -0.328422 2.66786 0
M  V30 3969 C 379.47 2.153 2.85273 0
M  V30 3970 S 381.029 2.26548 3.75794 0
M  V30 3971 H 377.847 0.456685 0.54494 0
M  V30 3972 H 380.449 1.69825 0.968487 0
M  V30 3973 H 379.153 3.18008 2.59421 0
M  V30 3974 H 378.684 1.7483 3.52417 0
M  V30 3975 H 380.699 1.44034 4.74835 0
M  V30 3976 N 379.872 -1.04064 1.18357 0
M  V30 3977 C 381.12 -1.76915 0.977013 0
M  V30 3978 C 381.441 -1.88624 -0.494577 0
M  V30 3979 O 380.711 -1.41125 -1.3587 0
M  V30 3980 H 379.291 -0.65535 0.358504 0
M  V30 3981 H 381.953 -1.25592 1.49039 0
M  V30 3982 H 381.049 -2.78178 1.41504 0
M  V30 3983 N 381.35 -0.985608 -1.22978 0
M  V30 3984 C 382.575 -0.675254 -1.961 0
M  V30 3985 C 383 0.752154 -1.72407 0
M  V30 3986 O 382.358 1.5131 -0.998751 0
M  V30 3987 C 382.406 -0.977899 -3.47087 0
M  V30 3988 O 381.51 -0.072685 -4.12336 0
M  V30 3989 H 380.851 -0.253443 -0.613728 0
M  V30 3990 H 383.381 -1.32061 -1.56272 0
M  V30 3991 H 383.391 -0.916739 -3.97567 0
M  V30 3992 H 382.066 -2.01807 -3.63657 0
M  V30 3993 H 380.643 -0.188703 -3.72422 0
M  V30 3994 N 382.828 1.3818 -0.7579 0
M  V30 3995 C 383.791 2.28764 -0.141286 0
M  V30 3996 C 384.791 1.47388 0.642907 0
M  V30 3997 O 385.981 1.67781 0.468536 0
M  V30 3998 C 383.113 3.31184 0.808069 0
M  V30 3999 H 384.306 2.848 -0.939633 0
M  V30 4000 H 381.859 1.47212 -0.525191 0
M  V30 4001 H 382.594 2.80247 1.63193 0
M  V30 4002 H 382.379 3.91314 0.248104 0
M  V30 4003 H 383.869 3.98909 1.23536 0
M  V30 4004 N 384.306 0.507319 1.49211 0
M  V30 4005 C 385.216 -0.272136 2.33016 0
M  V30 4006 C 386.232 -0.961206 1.45041 0
M  V30 4007 O 387.408 -0.941191 1.78055 0
M  V30 4008 C 384.473 -1.31895 3.20631 0
M  V30 4009 C 383.534 -0.642648 4.24463 0
M  V30 4010 C 382.767 -1.63959 5.07891 0
M  V30 4011 O 382.99 -2.87007 4.92933 0
M  V30 4012 O 381.924 -1.19143 5.8999 0
M  V30 4013 H 385.75 0.413982 3.00865 0
M  V30 4014 H 383.335 0.268556 1.46966 0
M  V30 4015 H 385.217 -1.92446 3.7489 0
M  V30 4016 H 383.892 -1.98788 2.5547 0
M  V30 4017 H 382.799 0.00276252 3.741 0
M  V30 4018 H 384.132 -0.0160534 4.92197 0
M  V30 4019 N 385.784 -1.5574 0.241426 0
M  V30 4020 C 387.014 -2.02913 -0.38857 0
M  V30 4021 C 387.422 -1.12014 -1.52478 0
M  V30 4022 O 386.765 -0.125903 -1.83268 0
M  V30 4023 C 386.827 -3.4636 -0.963075 0
M  V30 4024 C 386.491 -4.56982 0.0401916 0
M  V30 4025 C 387.488 -5.12941 0.847766 0
M  V30 4026 C 385.173 -5.0203 0.164699 0
M  V30 4027 C 387.167 -6.12437 1.76636 0
M  V30 4028 C 384.854 -6.01358 1.0868 0
M  V30 4029 C 385.852 -6.5644 1.88616 0
M  V30 4030 O 385.54 -7.53831 2.79273 0
M  V30 4031 H 385.272 -0.668983 -0.0971452 0
M  V30 4032 H 387.826 -2.02198 0.361248 0
M  V30 4033 H 386.056 -3.44206 -1.76235 0
M  V30 4034 H 387.745 -3.77065 -1.50257 0
M  V30 4035 H 388.511 -4.78974 0.762133 0
M  V30 4036 H 384.39 -4.58824 -0.447411 0
M  V30 4037 H 387.934 -6.55355 2.39071 0
M  V30 4038 H 383.831 -6.34746 1.17338 0
M  V30 4039 H 384.599 -7.71428 2.73572 0
M  V30 4040 N 387.262 0.0317525 -1.57568 0
M  V30 4041 C 388.195 1.06621 -2.0176 0
M  V30 4042 C 389.173 1.35323 -0.901462 0
M  V30 4043 O 390.357 1.48025 -1.16708 0
M  V30 4044 C 387.484 2.40155 -2.38837 0
M  V30 4045 C 386.53 2.27327 -3.60867 0
M  V30 4046 S 387.363 1.62925 -5.10113 0
M  V30 4047 C 388.519 2.97955 -5.5043 0
M  V30 4048 H 388.752 0.689781 -2.89187 0
M  V30 4049 H 386.285 0.24164 -1.52497 0
M  V30 4050 H 388.243 3.1695 -2.6087 0
M  V30 4051 H 386.904 2.74946 -1.51867 0
M  V30 4052 H 386.097 3.25898 -3.84456 0
M  V30 4053 H 385.699 1.58675 -3.38671 0
M  V30 4054 H 387.991 3.94285 -5.5095 0
M  V30 4055 H 388.934 2.79102 -6.50775 0
M  V30 4056 H 389.342 3.00404 -4.77931 0
M  V30 4057 N 388.74 1.54641 0.303973 0
M  V30 4058 C 389.703 1.84646 1.35789 0
M  V30 4059 C 390.703 0.7192 1.4382 0
M  V30 4060 O 391.893 0.987491 1.43507 0
M  V30 4061 C 389.025 2.02407 2.74307 0
M  V30 4062 H 390.218 2.78829 1.10429 0
M  V30 4063 H 387.771 1.46658 0.540487 0
M  V30 4064 H 388.506 1.10502 3.04893 0
M  V30 4065 H 388.291 2.84453 2.69868 0
M  V30 4066 H 389.781 2.27002 3.50514 0
M  V30 4067 N 390.218 -0.567019 1.47046 0
M  V30 4068 C 391.629 -1.14916 1.47143 0
M  V30 4069 C 391.98 -1.94954 0.220767 0
M  V30 4070 O 391.105 -2.05602 -0.67505 0
M  V30 4071 C 391.7 -2.09069 2.666 0
M  V30 4072 C 390.259 -2.62575 2.69687 0
M  V30 4073 C 389.406 -1.38755 2.40088 0
M  V30 4074 H 392.357 -0.354126 1.54699 0
M  V30 4075 H 392.378 -2.92789 2.43011 0
M  V30 4076 H 391.89 -1.50789 3.57609 0
M  V30 4077 H 389.991 -3.24681 1.82792 0
M  V30 4078 H 390.104 -3.04239 3.70102 0
M  V30 4079 H 388.468 -1.69098 1.90468 0
M  V30 4080 H 389.251 -0.822822 3.33293 0
M  V30 4081 N 391.696 -1.35014 -0.812953 0
M  V30 4082 C 392.606 -1.2951 -1.95613 0
M  V30 4083 C 393.622 -0.20107 -1.72834 0
M  V30 4084 O 394.798 -0.42932 -1.96771 0
M  V30 4085 C 391.863 -1.06033 -3.30088 0
M  V30 4086 C 390.924 -2.24688 -3.65805 0
M  V30 4087 C 390.157 -2.02322 -4.93864 0
M  V30 4088 O 390.38 -0.986464 -5.61805 0
M  V30 4089 O 389.314 -2.89525 -5.27692 0
M  V30 4090 H 393.14 -2.25705 -2.03202 0
M  V30 4091 H 390.725 -1.15321 -0.949811 0
M  V30 4092 H 392.607 -0.94763 -4.10607 0
M  V30 4093 H 391.282 -0.128852 -3.23443 0
M  V30 4094 H 390.189 -2.41521 -2.85689 0
M  V30 4095 H 391.522 -3.16261 -3.77147 0
M  V30 4096 N 393.175 1.03435 -1.18907 0
M  V30 4097 C 394.421 1.77005 -0.989798 0
M  V30 4098 C 394.754 1.88205 0.478816 0
M  V30 4099 O 394.029 1.39481 1.35556 0
M  V30 4100 C 394.312 3.19925 -1.65287 0
M  V30 4101 C 394.165 3.1663 -3.19477 0
M  V30 4102 C 395.484 4.18189 -1.37134 0
M  V30 4103 H 392.603 0.642538 -0.360991 0
M  V30 4104 H 395.245 1.20784 -1.46667 0
M  V30 4105 H 393.395 3.67929 -1.24741 0
M  V30 4106 H 395.067 2.76567 -3.692 0
M  V30 4107 H 393.31 2.54491 -3.51307 0
M  V30 4108 H 393.981 4.1758 -3.61013 0
M  V30 4109 H 396.457 3.78761 -1.72276 0
M  V30 4110 H 395.333 5.16394 -1.86087 0
M  V30 4111 H 395.594 4.41112 -0.295424 0
M  V30 4112 N 394.653 0.992116 1.22453 0
M  V30 4113 C 395.899 0.668523 1.91464 0
M  V30 4114 C 396.232 -0.797313 1.77078 0
M  V30 4115 O 395.507 -1.5765 1.13916 0
M  V30 4116 C 395.79 1.07424 3.43703 0
M  V30 4117 C 395.643 2.59857 3.67143 0
M  V30 4118 C 396.962 0.626891 4.35612 0
M  V30 4119 H 394.081 0.244341 0.695318 0
M  V30 4120 H 396.723 1.2355 1.44345 0
M  V30 4121 H 394.873 0.591816 3.83966 0
M  V30 4122 H 396.545 3.15764 3.3629 0
M  V30 4123 H 394.788 3.01961 3.11451 0
M  V30 4124 H 395.459 2.83296 4.73759 0
M  V30 4125 H 397.935 1.04125 4.02861 0
M  V30 4126 H 396.811 0.939076 5.40807 0
M  V30 4127 H 397.072 -0.472457 4.39568 0
M  V30 4128 N 396.131 -1.37776 0.765217 0
M  V30 4129 C 397.041 -2.34135 0.147666 0
M  V30 4130 C 398.057 -1.59854 -0.687215 0
M  V30 4131 O 399.233 -1.91983 -0.608659 0
M  V30 4132 C 396.298 -3.3901 -0.72617 0
M  V30 4133 C 395.359 -4.2912 0.124417 0
M  V30 4134 C 394.592 -5.28986 -0.707807 0
M  V30 4135 O 394.815 -5.36205 -1.94525 0
M  V30 4136 O 393.749 -6.01779 -0.12046 0
M  V30 4137 H 397.575 -2.88664 0.943758 0
M  V30 4138 H 395.16 -1.39824 0.526277 0
M  V30 4139 H 397.042 -4.03195 -1.22524 0
M  V30 4140 H 395.717 -2.86819 -1.50056 0
M  V30 4141 H 394.624 -3.68057 0.669696 0
M  V30 4142 H 395.957 -4.84598 0.861736 0
M  V30 4143 N 397.609 -0.515225 -1.4894 0
M  V30 4144 C 398.855 0.0242508 -2.02785 0
M  V30 4145 C 399.188 1.35323 -1.39289 0
M  V30 4146 O 398.463 1.87041 -0.533469 0
M  V30 4147 C 398.746 0.16184 -3.59736 0
M  V30 4148 C 398.599 -1.19127 -4.33738 0
M  V30 4149 C 399.918 0.895719 -4.30888 0
M  V30 4150 H 397.037 0.00733914 -0.736963 0
M  V30 4151 H 399.679 -0.669395 -1.77818 0
M  V30 4152 H 397.829 0.752624 -3.8114 0
M  V30 4153 H 399.501 -1.82202 -4.23792 0
M  V30 4154 H 397.744 -1.77695 -3.95736 0
M  V30 4155 H 398.415 -1.04815 -5.41957 0
M  V30 4156 H 400.891 0.394528 -4.14225 0
M  V30 4157 H 399.767 0.960859 -5.40425 0
M  V30 4158 H 400.028 1.9427 -3.97129 0
M  V30 4159 N 399.087 1.5561 -0.249682 0
M  V30 4160 C 400.334 1.99011 0.374287 0
M  V30 4161 C 400.662 1.13785 1.57744 0
M  V30 4162 O 399.917 0.189326 1.94782 0
M  V30 4163 C 400.216 3.4775 0.824887 0
M  V30 4164 C 399.882 4.50086 -0.270819 0
M  V30 4165 C 398.544 4.77791 -0.571746 0
M  V30 4166 C 400.896 5.11312 -1.01041 0
M  V30 4167 C 398.224 5.63997 -1.61629 0
M  V30 4168 C 400.576 5.98651 -2.0445 0
M  V30 4169 C 399.24 6.24688 -2.35204 0
M  V30 4170 H 398.51 0.728233 0.136961 0
M  V30 4171 H 401.157 1.88122 -0.358087 0
M  V30 4172 H 399.462 3.55985 1.63651 0
M  V30 4173 H 401.159 3.78721 1.31799 0
M  V30 4174 H 397.749 4.28592 -0.026136 0
M  V30 4175 H 401.933 4.89953 -0.791177 0
M  V30 4176 H 397.189 5.82425 -1.85988 0
M  V30 4177 H 401.363 6.45135 -2.62248 0
M  V30 4178 H 398.99 6.91281 -3.16282 0
M  V30 4179 N 400.565 -0.0233959 1.57583 0
M  V30 4180 C 401.793 -0.724682 1.93794 0
M  V30 4181 C 402.208 -1.68588 0.849912 0
M  V30 4182 O 401.565 -1.81676 -0.173204 0
M  V30 4183 C 401.616 -1.47684 3.29957 0
M  V30 4184 O 401.337 -0.554222 4.3458 0
M  V30 4185 C 402.838 -2.27477 3.80485 0
M  V30 4186 H 400.058 -0.203317 0.639455 0
M  V30 4187 H 402.602 0.0207653 2.04489 0
M  V30 4188 H 400.757 -2.17412 3.20641 0
M  V30 4189 H 401.171 -1.08232 5.13212 0
M  V30 4190 H 402.645 -2.7564 4.78254 0
M  V30 4191 H 403.122 -3.09144 3.11972 0
M  V30 4192 H 403.728 -1.62813 3.92902 0
M  V30 4193 N 402.043 -1.548 -0.295768 0
M  V30 4194 C 403.32 -1.65014 -1.05023 0
M  V30 4195 C 403.7 -0.501805 -2.05049 0
M  V30 4196 O 403.048 0.500869 -2.22943 0
M  V30 4197 C 403.258 -3.03252 -1.72741 0
M  V30 4198 C 404.606 -3.60242 -2.24746 0
M  V30 4199 O 405.63 -3.05737 -1.82765 0
M  V30 4200 O 404.489 -4.55687 -3.01681 0
M  V30 4201 H 401.583 -0.669314 -0.485744 0
M  V30 4202 H 404.129 -1.67144 -0.293438 0
M  V30 4203 H 402.901 -3.7827 -1.00138 0
M  V30 4204 H 402.524 -3.04922 -2.55163 0
M  V30 4205 N 403.521 0.559213 -1.47345 0
M  V30 4206 C 404.453 1.68161 -1.55738 0
M  V30 4207 C 405.466 1.56636 -0.443744 0
M  V30 4208 O 406.655 1.6363 -0.713258 0
M  V30 4209 C 403.755 3.06611 -1.4437 0
M  V30 4210 C 402.928 3.4391 -2.70268 0
M  V30 4211 C 401.987 4.61515 -2.52765 0
M  V30 4212 O 401.013 4.66197 -3.26572 0
M  V30 4213 N 402.215 5.57883 -1.6046 0
M  V30 4214 H 404.98 1.61408 -2.52522 0
M  V30 4215 H 402.541 0.7458 -1.43699 0
M  V30 4216 H 404.533 3.83117 -1.30398 0
M  V30 4217 H 403.103 3.07602 -0.556766 0
M  V30 4218 H 402.323 2.56873 -2.99015 0
M  V30 4219 H 403.611 3.65605 -3.53851 0
M  V30 4220 H 403.009 5.56855 -0.996422 0
M  V30 4221 H 401.566 6.33723 -1.52441 0
M  V30 4222 N 404.999 1.35443 0.805782 0
M  V30 4223 C 405.962 1.28301 1.89925 0
M  V30 4224 C 406.962 0.194285 1.59622 0
M  V30 4225 O 408.152 0.448036 1.6834 0
M  V30 4226 C 405.284 0.984997 3.2636 0
M  V30 4227 H 406.477 2.2553 1.97677 0
M  V30 4228 H 404.03 1.19979 1.00173 0
M  V30 4229 H 404.765 0.016603 3.24296 0
M  V30 4230 H 404.55 1.77269 3.4974 0
M  V30 4231 H 406.04 0.960651 4.064 0
M  V30 4232 N 406.477 -1.02803 1.19454 0
M  V30 4233 C 407.705 -1.79841 1.02297 0
M  V30 4234 C 408.12 -1.83879 -0.428259 0
M  V30 4235 O 407.477 -1.28345 -1.29745 0
M  V30 4236 C 407.528 -3.24852 1.58598 0
M  V30 4237 O 407.249 -3.21097 2.98041 0
M  V30 4238 C 408.75 -4.18485 1.46236 0
M  V30 4239 H 405.97 -0.565936 0.360496 0
M  V30 4240 H 408.514 -1.2948 1.58288 0
M  V30 4241 H 406.669 -3.72401 1.06753 0
M  V30 4242 H 407.083 -4.12033 3.24545 0
M  V30 4243 H 408.557 -5.18121 1.90407 0
M  V30 4244 H 409.034 -4.37254 0.41301 0
M  V30 4245 H 409.64 -3.76811 1.97215 0
M  V30 4246 N 407.956 -0.998596 -1.21925 0
M  V30 4247 C 409.203 -0.677663 -1.90824 0
M  V30 4248 C 409.531 0.790905 -1.77693 0
M  V30 4249 O 408.786 1.58817 -1.14349 0
M  V30 4250 C 409.085 -1.03648 -3.42041 0
M  V30 4251 C 408.751 -2.49825 -3.75364 0
M  V30 4252 C 407.413 -2.8977 -3.8417 0
M  V30 4253 C 409.765 -3.44545 -3.91073 0
M  V30 4254 C 407.093 -4.23412 -4.06127 0
M  V30 4255 C 409.445 -4.77853 -4.14535 0
M  V30 4256 C 408.109 -5.17531 -4.21566 0
M  V30 4257 H 407.379 -0.247975 -0.698276 0
M  V30 4258 H 410.026 -1.25584 -1.44571 0
M  V30 4259 H 408.331 -0.376457 -3.89987 0
M  V30 4260 H 410.028 -0.766113 -3.93614 0
M  V30 4261 H 406.618 -2.17866 -3.69097 0
M  V30 4262 H 410.802 -3.14853 -3.83642 0
M  V30 4263 H 406.058 -4.53734 -4.09799 0
M  V30 4264 H 410.232 -5.51189 -4.25633 0
M  V30 4265 H 407.859 -6.21102 -4.38333 0
M  V30 4266 N 409.434 1.37368 -0.772513 0
M  V30 4267 C 410.664 2.03647 -0.348082 0
M  V30 4268 C 411.072 1.58392 1.03482 0
M  V30 4269 O 410.415 0.760921 1.672 0
M  V30 4270 C 410.477 3.58131 -0.313404 0
M  V30 4271 C 410.141 4.2652 -1.64102 0
M  V30 4272 C 411.138 4.50587 -2.5936 0
M  V30 4273 C 408.823 4.64335 -1.91567 0
M  V30 4274 C 410.817 5.11526 -3.80289 0
M  V30 4275 C 408.504 5.24996 -3.12766 0
M  V30 4276 C 409.502 5.48529 -4.06946 0
M  V30 4277 O 409.19 6.07921 -5.26011 0
M  V30 4278 H 408.922 0.660538 -0.143753 0
M  V30 4279 H 411.476 1.76669 -1.04772 0
M  V30 4280 H 409.706 3.84159 0.442617 0
M  V30 4281 H 411.395 4.05813 0.0840613 0
M  V30 4282 H 412.161 4.21784 -2.39423 0
M  V30 4283 H 408.04 4.45353 -1.19088 0
M  V30 4284 H 411.584 5.29811 -4.53813 0
M  V30 4285 H 407.481 5.53223 -3.32588 0
M  V30 4286 H 408.249 6.26398 -5.26847 0
M  V30 4287 N 410.912 0.523116 1.48665 0
M  V30 4288 C 412.189 -0.0775449 1.95446 0
M  V30 4289 C 412.569 -1.5197 1.4652 0
M  V30 4290 O 411.917 -2.17876 0.688657 0
M  V30 4291 C 412.127 0.0326135 3.48985 0
M  V30 4292 C 413.475 -0.130141 4.24401 0
M  V30 4293 O 414.499 -0.0415142 3.56176 0
M  V30 4294 O 413.358 -0.31491 5.45592 0
M  V30 4295 H 410.452 -0.0831012 0.822814 0
M  V30 4296 H 412.998 0.587227 1.59216 0
M  V30 4297 H 411.77 1.03748 3.77296 0
M  V30 4298 H 411.393 -0.671317 3.91892 0
M  V30 4299 N 412.39 -1.55475 0.257931 0
M  V30 4300 C 413.337 -2.21837 -0.636939 0
M  V30 4301 C 414.307 -1.18596 -1.16294 0
M  V30 4302 O 415.492 -1.47081 -1.21539 0
M  V30 4303 C 412.632 -2.9301 -1.82317 0
M  V30 4304 C 411.745 -4.10931 -1.33265 0
M  V30 4305 C 410.88 -4.69791 -2.47931 0
M  V30 4306 C 409.919 -5.7994 -1.95796 0
M  V30 4307 N 409.056 -6.32935 -3.0387 0
M  V30 4308 H 413.896 -2.9793 -0.0643591 0
M  V30 4309 H 411.433 -1.47086 -0.0200031 0
M  V30 4310 H 413.391 -3.3248 -2.52018 0
M  V30 4311 H 412.021 -2.1937 -2.36805 0
M  V30 4312 H 411.073 -3.76699 -0.52931 0
M  V30 4313 H 412.385 -4.90417 -0.910654 0
M  V30 4314 H 411.539 -5.11892 -3.25656 0
M  V30 4315 H 410.278 -3.89545 -2.93438 0
M  V30 4316 H 409.283 -5.37305 -1.16546 0
M  V30 4317 H 410.508 -6.62043 -1.51246 0
M  V30 4318 H 408.454 -5.55591 -3.48791 0
M  V30 4319 H 408.371 -7.07645 -2.66035 0
M  V30 4320 H 409.639 -6.79695 -3.81621 0
M  V30 4321 N 413.868 0.0150385 -1.57593 0
M  V30 4322 C 415.284 0.370907 -1.5523 0
M  V30 4323 C 415.484 1.75735 -0.985882 0
M  V30 4324 O 414.54 2.44944 -0.613077 0
M  V30 4325 C 415.853 0.259908 -2.99575 0
M  V30 4326 C 417.401 0.335959 -3.11192 0
M  V30 4327 C 417.876 0.254253 -4.57294 0
M  V30 4328 N 419.367 0.312618 -4.62144 0
M  V30 4329 C 420.102 0.272505 -5.72752 0
M  V30 4330 N 419.598 0.183864 -6.92556 0
M  V30 4331 N 421.391 0.323267 -5.6117 0
M  V30 4332 H 413.542 -0.892104 -1.92757 0
M  V30 4333 H 415.805 -0.340563 -0.884715 0
M  V30 4334 H 415.511 -0.693403 -3.44797 0
M  V30 4335 H 415.385 1.048 -3.62349 0
M  V30 4336 H 417.772 1.27971 -2.65909 0
M  V30 4337 H 417.853 -0.481739 -2.51223 0
M  V30 4338 H 417.497 -0.685887 -5.03247 0
M  V30 4339 H 417.427 1.09024 -5.15191 0
M  V30 4340 H 419.918 0.38307 -3.75953 0
M  V30 4341 H 420.231 0.15874 -7.72637 0
M  V30 4342 H 418.576 0.149708 -6.94839 0
M  V30 4343 H 421.767 0.390607 -4.66467 0
M  V30 4344 H 421.94 0.288539 -6.47357 0
M  V30 4345 N 415.346 1.54954 0.287554 0
M  V30 4346 C 416.586 1.76617 1.02887 0
M  V30 4347 C 416.95 0.547759 1.84021 0
M  V30 4348 O 418.151 0.642365 2.61012 0
M  V30 4349 C 416.422 3.02717 1.89993 0
M  V30 4350 S 417.981 3.45438 2.70588 0
M  V30 4351 H 414.799 0.6207 0.346775 0
M  V30 4352 H 417.401 1.93172 0.30082 0
M  V30 4353 H 416.105 3.89503 1.29287 0
M  V30 4354 H 415.636 2.88787 2.67144 0
M  V30 4355 H 417.651 3.03566 3.92508 0
M  V30 4356 N 416.824 -0.551391 1.4764 0
M  V30 4357 C 418.101 -1.31229 1.45046 0
M  V30 4358 C 418.481 -2.10563 0.150527 0
M  V30 4359 O 417.829 -2.11374 -0.867956 0
M  V30 4360 C 418.039 -2.21189 2.69956 0
M  V30 4361 C 419.387 -2.82021 3.1741 0
M  V30 4362 O 420.411 -2.31488 2.70724 0
M  V30 4363 O 419.27 -3.73885 3.98588 0
M  V30 4364 H 416.364 -0.591193 0.578291 0
M  V30 4365 H 418.91 -0.569813 1.59847 0
M  V30 4366 H 417.682 -1.62207 3.56096 0
M  V30 4367 H 417.305 -3.02722 2.57769 0
M  V30 4368 N 418.302 -1.35869 -0.798587 0
M  V30 4369 C 419.232 -1.32118 -1.92528 0
M  V30 4370 C 420.213 -0.194209 -1.68988 0
M  V30 4371 O 421.398 -0.390426 -1.90235 0
M  V30 4372 C 418.528 -1.10047 -3.29404 0
M  V30 4373 C 417.482 -2.19471 -3.67446 0
M  V30 4374 C 416.808 -1.82555 -5.02571 0
M  V30 4375 C 418.108 -3.61495 -3.76987 0
M  V30 4376 H 419.802 -2.26394 -1.95924 0
M  V30 4377 H 417.348 -1.08981 -0.94123 0
M  V30 4378 H 419.301 -1.06061 -4.07835 0
M  V30 4379 H 418.025 -0.122195 -3.26371 0
M  V30 4380 H 416.684 -2.22568 -2.91306 0
M  V30 4381 H 416.332 -0.833249 -4.9605 0
M  V30 4382 H 416.032 -2.5581 -5.28995 0
M  V30 4383 H 417.556 -1.80108 -5.83432 0
M  V30 4384 H 418.97 -3.60676 -4.4563 0
M  V30 4385 H 417.367 -4.33577 -4.14887 0
M  V30 4386 H 418.437 -3.97065 -2.78329 0
M  V30 4387 N 419.78 1.02168 -1.19998 0
M  V30 4388 C 421.026 1.7606 -1.01855 0
M  V30 4389 C 421.381 1.87178 0.445222 0
M  V30 4390 O 420.674 1.3828 1.32624 0
M  V30 4391 C 420.868 3.18081 -1.62969 0
M  V30 4392 C 420.697 3.20809 -3.15137 0
M  V30 4393 C 419.467 3.28342 -3.84083 0
M  V30 4394 C 421.665 3.07268 -4.1242 0
M  V30 4395 N 419.647 3.2052 -5.23584 0
M  V30 4396 C 421.018 3.0716 -5.38566 0
M  V30 4397 C 423.073 2.91448 -4.03686 0
M  V30 4398 C 421.776 2.92853 -6.56985 0
M  V30 4399 C 423.802 2.78494 -5.21723 0
M  V30 4400 C 423.164 2.79046 -6.46771 0
M  V30 4401 H 419.263 0.655192 -0.426905 0
M  V30 4402 H 421.847 1.21564 -1.52087 0
M  V30 4403 H 420.018 3.70882 -1.15329 0
M  V30 4404 H 421.75 3.80375 -1.38192 0
M  V30 4405 H 418.505 3.34859 -3.34913 0
M  V30 4406 H 418.929 3.19997 -5.96599 0
M  V30 4407 H 423.571 2.89838 -3.07821 0
M  V30 4408 H 421.289 2.93213 -7.53028 0
M  V30 4409 H 424.875 2.67278 -5.16773 0
M  V30 4410 H 423.755 2.69134 -7.36571 0
M  V30 4411 N 421.258 1.00505 1.21394 0
M  V30 4412 C 422.483 0.706367 1.95001 0
M  V30 4413 C 422.908 -0.72463 1.73582 0
M  V30 4414 O 422.266 -1.49702 1.0227 0
M  V30 4415 C 422.314 1.03299 3.45487 0
M  V30 4416 O 421.418 0.138275 4.12168 0
M  V30 4417 H 420.759 0.263175 0.609619 0
M  V30 4418 H 423.289 1.34531 1.54151 0
M  V30 4419 H 423.299 0.979872 3.96059 0
M  V30 4420 H 421.974 2.07567 3.60401 0
M  V30 4421 H 420.551 0.247928 3.72075 0
M  V30 4422 N 422.737 -1.36956 0.779787 0
M  V30 4423 C 423.667 -2.32761 0.185651 0
M  V30 4424 C 424.648 -1.56177 -0.673989 0
M  V30 4425 O 425.833 -1.84378 -0.609797 0
M  V30 4426 C 422.963 -3.40418 -0.687964 0
M  V30 4427 C 421.917 -4.27941 0.0710102 0
M  V30 4428 C 421.243 -5.26681 -0.922573 0
M  V30 4429 C 422.543 -5.07006 1.25467 0
M  V30 4430 H 424.237 -2.82698 0.986008 0
M  V30 4431 H 421.783 -1.3592 0.475592 0
M  V30 4432 H 423.736 -4.06423 -1.11348 0
M  V30 4433 H 422.46 -2.89025 -1.52093 0
M  V30 4434 H 421.119 -3.63478 0.47739 0
M  V30 4435 H 420.767 -4.71565 -1.7503 0
M  V30 4436 H 420.467 -5.86103 -0.419237 0
M  V30 4437 H 421.991 -5.9556 -1.34686 0
M  V30 4438 H 423.405 -5.66105 0.905401 0
M  V30 4439 H 421.802 -5.75793 1.69063 0
M  V30 4440 H 422.872 -4.3921 2.05481 0
M  V30 4441 N 424.215 -0.530993 -1.48385 0
M  V30 4442 C 425.463 0.00273189 -2.021 0
M  V30 4443 C 425.784 1.34672 -1.41027 0
M  V30 4444 O 425.054 1.8724 -0.576012 0
M  V30 4445 H 423.634 0.00399774 -0.746989 0
M  V30 4446 H 426.296 -0.695054 -1.82085 0
M  V30 4447 H 425.392 0.11031 -3.11905 0
M  V30 4448 N 425.693 1.55336 -0.266172 0
M  V30 4449 C 426.939 1.99692 0.353681 0
M  V30 4450 C 427.272 1.1543 1.56172 0
M  V30 4451 O 426.547 0.222218 1.93226 0
M  V30 4452 C 426.83 3.52316 0.74466 0
M  V30 4453 C 426.683 4.47337 -0.470101 0
M  V30 4454 C 428.002 4.10588 1.58447 0
M  V30 4455 H 425.121 0.725961 0.12708 0
M  V30 4456 H 427.763 1.86336 -0.371333 0
M  V30 4457 H 425.913 3.63829 1.36239 0
M  V30 4458 H 427.585 4.4778 -1.10864 0
M  V30 4459 H 425.828 4.19364 -1.10978 0
M  V30 4460 H 426.499 5.51788 -0.15291 0
M  V30 4461 H 428.975 4.02297 1.06286 0
M  V30 4462 H 427.851 5.17607 1.82686 0
M  V30 4463 H 428.112 3.60253 2.56262 0
M  V30 4464 N 427.171 -0.0066808 1.57599 0
M  V30 4465 C 428.417 -0.693947 1.90558 0
M  V30 4466 C 428.75 -1.73792 0.866594 0
M  V30 4467 O 428.025 -1.94156 -0.115548 0
M  V30 4468 C 428.308 -1.34317 3.34112 0
M  V30 4469 C 428.161 -0.311189 4.48722 0
M  V30 4470 C 429.48 -2.27116 3.7697 0
M  V30 4471 H 426.599 -0.250803 0.693013 0
M  V30 4472 H 429.241 0.043242 1.89951 0
M  V30 4473 H 427.391 -1.9715 3.3476 0
M  V30 4474 H 429.063 0.316944 4.6021 0
M  V30 4475 H 427.306 0.367253 4.32243 0
M  V30 4476 H 427.977 -0.804366 5.46108 0
M  V30 4477 H 430.453 -1.74306 3.77831 0
M  V30 4478 H 429.329 -2.69511 4.78179 0
M  V30 4479 H 429.59 -3.14743 3.10466 0
M  V30 4480 N 428.649 -1.55105 -0.279332 0
M  V30 4481 C 429.579 -1.90557 -1.34945 0
M  V30 4482 C 430.56 -0.766738 -1.51839 0
M  V30 4483 O 431.745 -1.02434 -1.64988 0
M  V30 4484 C 428.875 -2.17193 -2.71006 0
M  V30 4485 C 427.829 -3.33021 -2.68851 0
M  V30 4486 C 427.155 -3.45123 -4.08405 0
M  V30 4487 C 428.455 -4.69578 -2.28678 0
M  V30 4488 H 430.149 -2.80188 -1.05522 0
M  V30 4489 H 427.695 -1.34811 -0.506173 0
M  V30 4490 H 429.648 -2.40581 -3.45975 0
M  V30 4491 H 428.372 -1.24355 -3.01999 0
M  V30 4492 H 427.031 -3.0959 -1.9634 0
M  V30 4493 H 426.679 -2.49762 -4.3661 0
M  V30 4494 H 426.379 -4.22995 -4.07859 0
M  V30 4495 H 427.903 -3.70796 -4.85121 0
M  V30 4496 H 429.317 -4.92553 -2.93368 0
M  V30 4497 H 427.714 -5.5032 -2.39306 0
M  V30 4498 H 428.784 -4.68828 -1.23807 0
M  V30 4499 N 430.127 0.543554 -1.4793 0
M  V30 4500 C 431.357 1.32324 -1.58663 0
M  V30 4501 C 431.765 1.8766 -0.240896 0
M  V30 4502 O 431.108 1.66411 0.778011 0
M  V30 4503 C 431.17 2.52094 -2.56299 0
M  V30 4504 C 430.834 2.17944 -4.01683 0
M  V30 4505 C 431.831 1.74422 -4.89768 0
M  V30 4506 C 429.516 2.28884 -4.47121 0
M  V30 4507 C 431.51 1.42287 -6.21316 0
M  V30 4508 C 429.197 1.96361 -5.78693 0
M  V30 4509 C 430.195 1.53132 -6.65612 0
M  V30 4510 O 429.883 1.21029 -7.94737 0
M  V30 4511 H 429.615 0.409174 -0.538101 0
M  V30 4512 H 432.169 0.663887 -1.94375 0
M  V30 4513 H 430.399 3.20965 -2.15681 0
M  V30 4514 H 432.088 3.14165 -2.57012 0
M  V30 4515 H 432.854 1.65452 -4.55907 0
M  V30 4516 H 428.733 2.61488 -3.79664 0
M  V30 4517 H 432.277 1.08472 -6.89115 0
M  V30 4518 H 428.174 2.04967 -6.12094 0
M  V30 4519 H 428.942 1.34543 -8.07366 0
M  V30 4520 N 431.605 1.3629 0.791371 0
M  V30 4521 C 432.854 1.29742 1.54434 0
M  V30 4522 C 433.167 -0.121729 1.95221 0
M  V30 4523 O 434.373 -0.309579 2.69729 0
M  V30 4524 C 432.829 2.27623 2.78776 0
M  V30 4525 C 432.437 3.74963 2.45166 0
M  V30 4526 C 434.181 2.30047 3.56761 0
M  V30 4527 C 432.088 4.64626 3.65891 0
M  V30 4528 H 431.018 0.482113 0.579727 0
M  V30 4529 H 433.669 1.61642 0.868565 0
M  V30 4530 H 432.051 1.88714 3.48142 0
M  V30 4531 H 433.225 4.22596 1.83709 0
M  V30 4532 H 431.54 3.75295 1.80396 0
M  V30 4533 H 434.137 2.94247 4.46456 0
M  V30 4534 H 434.48 1.30846 3.95203 0
M  V30 4535 H 435.013 2.67563 2.94372 0
M  V30 4536 H 431.752 5.64883 3.32547 0
M  V30 4537 H 431.272 4.2171 4.26521 0
M  V30 4538 H 432.951 4.80801 4.32943 0
M  V30 4539 N 433.083 -1.0153 1.20538 0
M  V30 4540 C 434.016 -2.09759 0.898695 0
M  V30 4541 C 434.994 -1.61909 -0.149733 0
M  V30 4542 O 436.178 -1.88486 -0.0230293 0
M  V30 4543 C 433.305 -3.36913 0.347512 0
M  V30 4544 C 432.351 -4.03655 1.37713 0
M  V30 4545 S 433.184 -4.47402 2.94265 0
M  V30 4546 C 434.34 -5.77756 2.40726 0
M  V30 4547 H 434.573 -2.3545 1.81523 0
M  V30 4548 H 432.106 -1.14665 1.03399 0
M  V30 4549 H 434.064 -4.10484 0.0360518 0
M  V30 4550 H 432.725 -3.09291 -0.547546 0
M  V30 4551 H 431.918 -4.9514 0.940872 0
M  V30 4552 H 431.52 -3.36313 1.63614 0
M  V30 4553 H 433.812 -6.52994 1.80569 0
M  V30 4554 H 434.755 -6.2618 3.30612 0
M  V30 4555 H 435.163 -5.34081 1.82806 0
M  V30 4556 N 434.561 -1.01147 -1.20859 0
M  V30 4557 C 435.491 -0.597663 -2.25722 0
M  V30 4558 C 436.472 0.384744 -1.65692 0
M  V30 4559 O 437.657 0.271303 -1.92296 0
M  V30 4560 C 434.787 0.0700149 -3.47229 0
M  V30 4561 C 433.741 -0.832843 -4.19819 0
M  V30 4562 C 433.067 -0.0312202 -5.34691 0
M  V30 4563 C 434.367 -2.1385 -4.76514 0
M  V30 4564 H 436.061 -1.47423 -2.60589 0
M  V30 4565 H 433.607 -0.710301 -1.25263 0
M  V30 4566 H 435.56 0.37103 -4.19763 0
M  V30 4567 H 434.284 0.981259 -3.11511 0
M  V30 4568 H 432.943 -1.11778 -3.49144 0
M  V30 4569 H 432.591 0.881515 -4.95215 0
M  V30 4570 H 432.291 -0.632434 -5.84187 0
M  V30 4571 H 433.815 0.26346 -6.10031 0
M  V30 4572 H 435.229 -1.9002 -5.40893 0
M  V30 4573 H 433.626 -2.69012 -5.36426 0
M  V30 4574 H 434.696 -2.80495 -3.95538 0
M  V30 4575 N 436.039 1.36541 -0.78704 0
M  V30 4576 C 437.264 2.0409 -0.369053 0
M  V30 4577 C 437.689 1.58957 1.00569 0
M  V30 4578 O 437.047 0.756926 1.64743 0
M  V30 4579 C 437.095 3.57924 -0.438466 0
M  V30 4580 O 436.199 4.08642 0.555479 0
M  V30 4581 H 435.54 0.645142 -0.157122 0
M  V30 4582 H 438.07 1.74545 -1.06749 0
M  V30 4583 H 438.08 4.06887 -0.301218 0
M  V30 4584 H 436.755 3.90127 -1.44132 0
M  V30 4585 H 435.332 3.70958 0.380088 0
M  V30 4586 N 437.518 0.538854 1.48102 0
M  V30 4587 C 438.766 0.00798599 2.02098 0
M  V30 4588 C 439.087 -1.33922 1.41739 0
M  V30 4589 O 438.357 -1.86932 0.585934 0
M  V30 4590 H 436.937 -3.62179e-05 0.747 0
M  V30 4591 H 439.599 0.7047 1.81714 0
M  V30 4592 H 438.695 -0.0937672 3.11959 0
M  V30 4593 N 438.996 -1.55193 0.274407 0
M  V30 4594 C 440.226 -2.03692 -0.345442 0
M  V30 4595 C 440.634 -1.15224 -1.50067 0
M  V30 4596 O 439.977 -0.164749 -1.8296 0
M  V30 4597 C 440.039 -3.48325 -0.88939 0
M  V30 4598 C 439.703 -4.56794 0.137115 0
M  V30 4599 C 440.7 -5.11028 0.956378 0
M  V30 4600 C 438.385 -5.01568 0.27115 0
M  V30 4601 C 440.379 -6.08552 1.89587 0
M  V30 4602 C 438.066 -5.98918 1.21412 0
M  V30 4603 C 439.064 -6.52291 2.02498 0
M  V30 4604 O 438.752 -7.47738 2.952 0
M  V30 4605 H 438.484 -0.670893 -0.0829332 0
M  V30 4606 H 441.038 -2.01387 0.404056 0
M  V30 4607 H 439.268 -3.47867 -1.68895 0
M  V30 4608 H 440.957 -3.80167 -1.42225 0
M  V30 4609 H 441.723 -4.7725 0.863559 0
M  V30 4610 H 437.602 -4.5967 -0.349987 0
M  V30 4611 H 441.146 -6.50137 2.52918 0
M  V30 4612 H 437.043 -6.32114 1.30776 0
M  V30 4613 H 437.811 -7.65451 2.89874 0
M  V30 4614 N 440.474 -0.00167713 -1.576 0
M  V30 4615 C 441.885 0.54091 -1.78693 0
M  V30 4616 C 442.236 1.7386 -0.909247 0
M  V30 4617 O 441.361 2.16109 -0.112176 0
M  V30 4618 C 441.956 0.98806 -3.24072 0
M  V30 4619 C 440.515 1.47594 -3.46256 0
M  V30 4620 C 439.662 0.42792 -2.73978 0
M  V30 4621 H 442.613 -0.22784 -1.57056 0
M  V30 4622 H 442.634 1.85398 -3.32277 0
M  V30 4623 H 442.146 0.116164 -3.87926 0
M  V30 4624 H 440.247 2.36868 -2.87618 0
M  V30 4625 H 440.36 1.50225 -4.54939 0
M  V30 4626 H 438.724 0.889934 -2.38647 0
M  V30 4627 H 439.507 -0.435038 -3.40532 0
M  V30 4628 N 441.952 1.55251 0.271103 0
M  V30 4629 C 443.363 1.66635 0.842007 0
M  V30 4630 C 443.714 0.594631 1.86972 0
M  V30 4631 O 442.839 -0.263532 2.14789 0
M  V30 4632 C 443.434 3.02082 1.53401 0
M  V30 4633 C 441.993 3.15487 2.05293 0
M  V30 4634 C 441.14 2.62438 0.895631 0
M  V30 4635 H 444.091 1.58629 0.0474117 0
M  V30 4636 H 444.112 2.95176 2.40107 0
M  V30 4637 H 443.624 3.80062 0.785786 0
M  V30 4638 H 441.725 2.42284 2.83071 0
M  V30 4639 H 441.838 4.22075 2.26693 0
M  V30 4640 H 440.202 2.19644 1.28953 0
M  V30 4641 H 440.985 3.42923 0.160878 0
M  V30 4642 N 443.43 -0.535701 1.48216 0
M  V30 4643 C 444.677 -1.29183 1.55942 0
M  V30 4644 C 445.005 -1.93125 0.230857 0
M  V30 4645 O 444.26 -1.79556 -0.778331 0
M  V30 4646 C 444.559 -2.4068 2.64212 0
M  V30 4647 C 444.225 -1.94428 4.06827 0
M  V30 4648 C 442.887 -1.81532 4.45645 0
M  V30 4649 C 445.239 -1.59405 4.96225 0
M  V30 4650 C 442.567 -1.31939 5.71672 0
M  V30 4651 C 444.919 -1.11276 6.22736 0
M  V30 4652 C 443.583 -0.969924 6.60416 0
M  V30 4653 H 442.853 -0.472715 0.570632 0
M  V30 4654 H 445.5 -0.598437 1.81909 0
M  V30 4655 H 443.805 -3.15666 2.32083 0
M  V30 4656 H 445.502 -2.98822 2.67407 0
M  V30 4657 H 442.092 -2.05415 3.76168 0
M  V30 4658 H 446.276 -1.68231 4.66917 0
M  V30 4659 H 441.532 -1.19562 5.99596 0
M  V30 4660 H 445.706 -0.832453 6.91407 0
M  V30 4661 H 443.333 -0.583436 7.57958 0
M  V30 4662 N 444.908 -1.36708 -0.784132 0
M  V30 4663 C 446.154 -1.31426 -1.54451 0
M  V30 4664 C 446.487 0.10476 -1.93917 0
M  V30 4665 O 445.762 1.05934 -1.6312 0
M  V30 4666 C 446.045 -2.24189 -2.818 0
M  V30 4667 C 445.898 -3.74813 -2.48667 0
M  V30 4668 C 447.217 -2.15626 -3.83658 0
M  V30 4669 H 444.336 -0.478739 -0.560337 0
M  V30 4670 H 446.978 -1.67305 -0.900498 0
M  V30 4671 H 445.128 -1.93722 -3.36755 0
M  V30 4672 H 446.8 -4.15823 -1.99722 0
M  V30 4673 H 445.043 -3.93989 -1.81535 0
M  V30 4674 H 445.714 -4.35138 -3.39646 0
M  V30 4675 H 448.19 -2.42456 -3.38163 0
M  V30 4676 H 447.066 -2.82694 -4.70506 0
M  V30 4677 H 447.327 -1.14522 -4.27009 0
M  V30 4678 N 446.386 1.0089 -1.21074 0
M  V30 4679 C 447.634 1.74262 -1.02358 0
M  V30 4680 C 447.955 1.89869 0.444393 0
M  V30 4681 O 447.225 1.44677 1.32081 0
M  V30 4682 H 445.805 0.645615 -0.375754 0
M  V30 4683 H 448.467 1.21596 -1.52317 0
M  V30 4684 H 447.563 2.74328 -1.4883 0
M  V30 4685 N 447.864 1.01787 1.20321 0
M  V30 4686 C 448.814 0.559976 2.21016 0
M  V30 4687 C 449.798 -0.385366 1.56217 0
M  V30 4688 O 450.99 -0.208126 1.75772 0
M  V30 4689 C 448.119 -0.0990553 3.43157 0
M  V30 4690 C 447.205 0.86807 4.15121 0
M  V30 4691 N 447.596 2.0261 4.63447 0
M  V30 4692 C 445.894 0.689162 4.40643 0
M  V30 4693 C 446.595 2.63518 5.18588 0
M  V30 4694 N 445.571 1.91569 5.08726 0
M  V30 4695 H 449.373 1.44281 2.56048 0
M  V30 4696 H 446.887 0.883381 1.36272 0
M  V30 4697 H 448.884 -0.444643 4.14522 0
M  V30 4698 H 447.544 -0.977709 3.0963 0
M  V30 4699 H 448.555 2.40598 4.58621 0
M  V30 4700 H 445.232 -0.14133 4.17261 0
M  V30 4701 H 446.622 3.61527 5.66346 0
M  V30 4702 N 449.342 -1.36122 0.79427 0
M  V30 4703 C 450.582 -2.00942 0.374376 0
M  V30 4704 C 450.946 -1.61666 -1.03577 0
M  V30 4705 O 452.147 -2.19113 -1.55701 0
M  V30 4706 C 450.418 -3.53323 0.538327 0
M  V30 4707 S 451.977 -4.38311 0.20703 0
M  V30 4708 H 448.795 -0.696515 0.142785 0
M  V30 4709 H 451.397 -1.65929 1.03382 0
M  V30 4710 H 450.101 -3.79395 1.56484 0
M  V30 4711 H 449.632 -3.93162 -0.136882 0
M  V30 4712 H 451.647 -4.8623 -0.989695 0
M  V30 4713 N 450.82 -0.546701 -1.47814 0
M  V30 4714 C 452.068 -0.0187037 -2.02091 0
M  V30 4715 C 452.389 1.33168 -1.42447 0
M  V30 4716 O 451.659 1.86619 -0.595839 0
M  V30 4717 H 450.239 -0.00392531 -0.74699 0
M  V30 4718 H 452.901 -0.714327 -1.81338 0
M  V30 4719 H 451.997 0.0772219 -3.12004 0
M  V30 4720 N 452.299 1.55045 -0.282633 0
M  V30 4721 C 453.262 2.21515 0.588539 0
M  V30 4722 C 454.262 1.19535 1.07554 0
M  V30 4723 O 455.452 1.44391 0.974514 0
M  V30 4724 C 452.584 2.88704 1.8128 0
M  V30 4725 H 453.777 2.99899 0.00806397 0
M  V30 4726 H 451.33 1.56265 -0.0333067 0
M  V30 4727 H 452.065 2.14352 2.43359 0
M  V30 4728 H 451.85 3.63443 1.47144 0
M  V30 4729 H 453.34 3.39465 2.43214 0
M  V30 4730 N 453.777 0.010035 1.57597 0
M  V30 4731 C 455.054 -0.710296 1.82248 0
M  V30 4732 C 455.434 -1.91426 0.889911 0
M  V30 4733 O 454.782 -2.28424 -0.0590292 0
M  V30 4734 C 454.992 -1.10655 3.30993 0
M  V30 4735 C 456.34 -1.50621 3.96987 0
M  V30 4736 O 457.364 -1.20007 3.35375 0
M  V30 4737 O 456.223 -2.07587 5.05539 0
M  V30 4738 H 453.317 -0.34673 0.750804 0
M  V30 4739 H 455.863 0.0362578 1.69661 0
M  V30 4740 H 454.635 -0.248826 3.90508 0
M  V30 4741 H 454.258 -1.91189 3.48615 0
M  V30 4742 N 455.255 -1.55392 -0.262866 0
M  V30 4743 C 456.495 -1.78231 -1.00064 0
M  V30 4744 C 456.859 -0.576966 -1.83126 0
M  V30 4745 O 458.06 -0.683809 -2.59957 0
M  V30 4746 C 456.331 -3.05701 -1.85153 0
M  V30 4747 S 457.89 -3.49699 -2.65058 0
M  V30 4748 H 454.708 -0.626138 -0.336856 0
M  V30 4749 H 457.31 -1.93626 -0.27005 0
M  V30 4750 H 456.014 -3.91511 -1.23074 0
M  V30 4751 H 455.545 -2.93 -2.62515 0
M  V30 4752 H 457.56 -3.09772 -3.87629 0
M  V30 4753 N 456.733 0.527833 -1.48498 0
M  V30 4754 C 457.981 1.28101 -1.56316 0
M  V30 4755 C 458.302 1.9352 -0.239781 0
M  V30 4756 O 457.572 1.81433 0.738849 0
M  V30 4757 H 456.152 0.475793 -0.575873 0
M  V30 4758 H 458.814 0.614052 -1.84974 0
M  V30 4759 H 457.91 2.05916 -2.34532 0
M  V30 4760 N 458.211 1.37122 0.776871 0
M  V30 4761 C 459.457 1.3325 1.53675 0
M  V30 4762 C 459.812 -0.0839891 1.92217 0
M  V30 4763 O 459.105 -1.04145 1.60824 0
M  V30 4764 C 459.299 2.20068 2.81611 0
M  V30 4765 C 459.128 3.70016 2.55574 0
M  V30 4766 C 457.898 4.39144 2.4996 0
M  V30 4767 C 460.096 4.62996 2.23917 0
M  V30 4768 N 458.078 5.74663 2.15953 0
M  V30 4769 C 459.449 5.86854 2.00005 0
M  V30 4770 C 461.504 4.51433 2.1003 0
M  V30 4771 C 460.207 7.00446 1.63609 0
M  V30 4772 C 462.233 5.64905 1.75033 0
M  V30 4773 C 461.595 6.8781 1.51977 0
M  V30 4774 H 457.694 0.542878 0.562856 0
M  V30 4775 H 460.278 1.72295 0.906784 0
M  V30 4776 H 458.449 1.83248 3.42454 0
M  V30 4777 H 460.181 2.07492 3.47461 0
M  V30 4778 H 456.936 3.92088 2.65639 0
M  V30 4779 H 457.36 6.46268 2.0166 0
M  V30 4780 H 462.002 3.56987 2.26539 0
M  V30 4781 H 459.72 7.94831 1.45837 0
M  V30 4782 H 463.306 5.57926 1.64952 0
M  V30 4783 H 462.186 7.74126 1.25296 0
M  V30 4784 N 459.689 -1.00246 1.21608 0
M  V30 4785 C 460.966 -1.71336 0.943568 0
M  V30 4786 C 461.346 -2.03972 -0.543943 0
M  V30 4787 O 460.694 -1.71545 -1.50946 0
M  V30 4788 C 460.904 -2.97094 1.83128 0
M  V30 4789 C 462.252 -3.70071 2.08165 0
M  V30 4790 O 463.276 -3.07081 1.80498 0
M  V30 4791 O 462.135 -4.83376 2.54971 0
M  V30 4792 H 459.229 -0.747386 0.354039 0
M  V30 4793 H 461.775 -1.05967 1.32549 0
M  V30 4794 H 460.547 -2.69407 2.83788 0
M  V30 4795 H 460.17 -3.70204 1.45034 0
M  V30 4796 N 461.167 -1.02423 -1.1978 0
M  V30 4797 C 462.583 -0.740459 -1.41384 0
M  V30 4798 C 462.783 0.676827 -1.89793 0
M  V30 4799 O 461.839 1.4435 -2.0717 0
M  V30 4800 C 463.152 -1.77264 -2.42895 0
M  V30 4801 C 464.7 -1.79165 -2.56649 0
M  V30 4802 C 465.175 -2.8133 -3.6141 0
M  V30 4803 N 466.666 -2.80118 -3.68901 0
M  V30 4804 C 467.401 -3.55824 -4.49641 0
M  V30 4805 N 466.897 -4.41231 -5.34123 0
M  V30 4806 N 468.69 -3.44387 -4.44246 0
M  V30 4807 H 460.841 -1.9391 -0.866764 0
M  V30 4808 H 463.104 -0.838074 -0.443098 0
M  V30 4809 H 462.81 -2.7884 -2.14339 0
M  V30 4810 H 462.684 -1.59108 -3.42001 0
M  V30 4811 H 465.071 -0.782702 -2.84531 0
M  V30 4812 H 465.152 -2.01396 -1.57713 0
M  V30 4813 H 464.796 -3.82394 -3.34271 0
M  V30 4814 H 464.726 -2.56359 -4.59986 0
M  V30 4815 H 467.217 -2.1817 -3.08562 0
M  V30 4816 H 467.53 -4.95747 -5.92836 0
M  V30 4817 H 465.875 -4.45306 -5.33599 0
M  V30 4818 H 469.066 -2.7708 -3.77285 0
M  V30 4819 H 469.239 -4.0364 -5.06931 0
M  V30 4820 N 462.645 1.35699 -0.801477 0
M  V30 4821 C 463.893 1.9852 -0.37871 0
M  V30 4822 C 464.214 1.63907 1.05638 0
M  V30 4823 O 463.484 0.919013 1.73006 0
M  V30 4824 H 462.064 0.734322 -0.137042 0
M  V30 4825 H 464.726 1.65697 -1.02619 0
M  V30 4826 H 463.822 3.08382 -0.480284 0
M  V30 4827 N 464.123 0.554532 1.47522 0
M  V30 4828 C 465.033 -0.197865 2.33764 0
M  V30 4829 C 466.049 -0.914576 1.48025 0
M  V30 4830 O 467.225 -0.884067 1.80959 0
M  V30 4831 C 464.29 -1.21628 3.24665 0
M  V30 4832 C 463.351 -0.507283 4.26292 0
M  V30 4833 C 462.584 -1.47718 5.1285 0
M  V30 4834 O 462.807 -2.7118 5.01814 0
M  V30 4835 O 461.741 -1.00313 5.93482 0
M  V30 4836 H 465.567 0.50949 2.99396 0
M  V30 4837 H 463.152 0.315176 1.46038 0
M  V30 4838 H 465.034 -1.80421 3.80823 0
M  V30 4839 H 463.709 -1.9056 2.61665 0
M  V30 4840 H 462.616 0.121778 3.73902 0
M  V30 4841 H 463.949 0.140544 4.91999 0
M  V30 4842 N 465.601 -1.54893 0.290851 0
M  V30 4843 C 466.847 -2.0023 -0.321867 0
M  V30 4844 C 467.18 -1.179 -1.54316 0
M  V30 4845 O 466.455 -0.25293 -1.92848 0
M  V30 4846 C 466.738 -3.53456 -0.688515 0
M  V30 4847 C 466.591 -4.46532 0.541209 0
M  V30 4848 C 467.91 -4.13057 -1.51895 0
M  V30 4849 H 465.029 -0.727891 -0.115515 0
M  V30 4850 H 467.671 -1.85722 0.400931 0
M  V30 4851 H 465.821 -3.6595 -1.30433 0
M  V30 4852 H 467.493 -4.4596 1.17973 0
M  V30 4853 H 465.736 -4.17545 1.17636 0
M  V30 4854 H 466.407 -5.51475 0.240675 0
M  V30 4855 H 468.883 -4.03937 -0.99872 0
M  V30 4856 H 467.759 -5.20448 -1.74429 0
M  V30 4857 H 468.02 -3.64284 -2.50498 0
M  V30 4858 N 467.08 -0.0183926 -1.57589 0
M  V30 4859 C 468.32 0.666846 -1.93216 0
M  V30 4860 C 468.684 1.69905 -0.894215 0
M  V30 4861 O 469.885 2.436 -1.13633 0
M  V30 4862 C 468.156 1.27684 -3.33814 0
M  V30 4863 S 469.715 1.98464 -3.91353 0
M  V30 4864 H 466.533 0.219826 -0.676164 0
M  V30 4865 H 469.135 -0.0794893 -1.95338 0
M  V30 4866 H 467.839 0.513006 -4.07181 0
M  V30 4867 H 467.37 2.06071 -3.3511 0
M  V30 4868 H 469.385 3.26189 -3.73918 0
M  V30 4869 N 468.558 1.5553 0.254621 0
M  V30 4870 C 469.974 1.4778 0.602753 0
M  V30 4871 C 470.174 0.707047 1.88688 0
M  V30 4872 O 469.23 0.233288 2.5142 0
M  V30 4873 C 470.543 2.92133 0.712648 0
M  V30 4874 C 472.091 3.02458 0.805488 0
M  V30 4875 C 472.566 4.48102 0.947009 0
M  V30 4876 N 474.057 4.52008 1.01207 0
M  V30 4877 C 474.792 5.61939 1.1407 0
M  V30 4878 N 474.288 6.81697 1.23536 0
M  V30 4879 N 476.081 5.49719 1.17325 0
M  V30 4880 H 468.232 2.04085 -0.588463 0
M  V30 4881 H 470.495 0.926229 -0.202001 0
M  V30 4882 H 470.201 3.51332 -0.160766 0
M  V30 4883 H 470.075 3.42187 1.58707 0
M  V30 4884 H 472.462 2.43344 1.66936 0
M  V30 4885 H 472.543 2.55627 -0.0939266 0
M  V30 4886 H 472.187 5.07824 0.087725 0
M  V30 4887 H 472.117 4.92607 1.86135 0
M  V30 4888 H 474.608 3.65749 0.950577 0
M  V30 4889 H 474.921 7.61228 1.33236 0
M  V30 4890 H 473.266 6.84473 1.20508 0
M  V30 4891 H 476.457 4.55095 1.09573 0
M  V30 4892 H 476.63 6.35432 1.27005 0
M  V30 4893 N 470.036 -0.519951 1.48776 0
M  V30 4894 C 471.282 -1.27711 1.57536 0
M  V30 4895 C 471.615 -1.92547 0.252866 0
M  V30 4896 O 470.89 -1.7979 -0.742021 0
M  V30 4897 C 471.173 -2.35875 2.72094 0
M  V30 4898 C 471.026 -1.75664 4.1408 0
M  V30 4899 C 472.345 -3.37575 2.82367 0
M  V30 4900 H 469.464 -0.462971 0.573434 0
M  V30 4901 H 472.106 -0.578194 1.80989 0
M  V30 4902 H 470.256 -2.95488 2.52228 0
M  V30 4903 H 471.928 -1.20025 4.45412 0
M  V30 4904 H 470.171 -1.06154 4.20611 0
M  V30 4905 H 470.842 -2.54029 4.90075 0
M  V30 4906 H 473.318 -2.87929 3.00393 0
M  V30 4907 H 472.194 -4.1064 3.64233 0
M  V30 4908 H 472.455 -3.98743 1.90936 0
M  V30 4909 N 471.514 -1.37532 -0.769588 0
M  V30 4910 C 472.754 -1.34261 -1.54122 0
M  V30 4911 C 473.118 0.0717222 -1.91866 0
M  V30 4912 O 474.319 0.22918 -2.67821 0
M  V30 4913 C 472.59 -2.2574 -2.77086 0
M  V30 4914 S 474.149 -2.40339 -3.67127 0
M  V30 4915 H 470.967 -0.476595 -0.527615 0
M  V30 4916 H 473.569 -1.73303 -0.90479 0
M  V30 4917 H 472.273 -3.27417 -2.4744 0
M  V30 4918 H 471.804 -1.87789 -3.45686 0
M  V30 4919 H 473.819 -1.61558 -4.69163 0
M  V30 4920 N 472.992 0.995999 -1.22138 0
M  V30 4921 C 473.924 2.08745 -0.946485 0
M  V30 4922 C 474.937 1.62633 0.0737356 0
M  V30 4923 O 476.126 1.77782 -0.159886 0
M  V30 4924 C 473.226 3.36516 -0.401305 0
M  V30 4925 C 472.399 4.11672 -1.47801 0
M  V30 4926 C 471.458 5.17728 -0.940461 0
M  V30 4927 O 470.484 5.45482 -1.62596 0
M  V30 4928 N 471.686 5.80005 0.239723 0
M  V30 4929 H 474.451 2.32908 -1.88611 0
M  V30 4930 H 472.012 1.16152 -1.12785 0
M  V30 4931 H 474.004 4.04691 -0.0270837 0
M  V30 4932 H 472.574 3.0944 0.443354 0
M  V30 4933 H 471.794 3.38171 -2.02568 0
M  V30 4934 H 473.082 4.58657 -2.20253 0
M  V30 4935 H 472.48 5.5982 0.813518 0
M  V30 4936 H 471.037 6.4943 0.555361 0
M  V30 4937 N 474.47 1.03057 1.19235 0
M  V30 4938 C 475.418 0.606391 2.24557 0
M  V30 4939 C 476.412 -0.361826 1.65491 0
M  V30 4940 O 477.618 -0.23022 1.78522 0
M  V30 4941 H 473.993 0.177838 0.730669 0
M  V30 4942 H 475.964 1.50529 2.5765 0
M  V30 4943 C 474.713 -0.0252127 3.47691 0
M  V30 4944 H 474.036 0.710838 3.9343 0
M  V30 4945 H 475.476 -0.284931 4.23042 0
M  V30 4946 C 473.935 -1.27229 3.11953 0
M  V30 4947 O 474.465 -2.36416 3.24762 0
M  V30 4948 N 472.671 -1.16169 2.6637 0
M  V30 4949 H 472.218 -0.273189 2.56147 0
M  V30 4950 H 472.176 -1.99703 2.42829 0
M  V30 4951 N 475.948 -1.35272 0.808662 0
M  V30 4952 C 476.895 -2.29764 0.218482 0
M  V30 4953 C 477.865 -1.52911 -0.648652 0
M  V30 4954 O 479.05 -1.81341 -0.593297 0
M  V30 4955 C 476.19 -3.39388 -0.625282 0
M  V30 4956 C 475.303 -4.31202 0.262516 0
M  V30 4957 C 474.438 -5.27919 -0.589451 0
M  V30 4958 C 473.477 -6.11371 0.298617 0
M  V30 4959 N 472.614 -7.0022 -0.513443 0
M  V30 4960 H 477.454 -2.79645 1.02968 0
M  V30 4961 H 474.991 -1.37629 0.519303 0
M  V30 4962 H 476.949 -4.01615 -1.12966 0
M  V30 4963 H 475.579 -2.90777 -1.40173 0
M  V30 4964 H 474.631 -3.69962 0.885013 0
M  V30 4965 H 475.943 -4.89748 0.945971 0
M  V30 4966 H 475.097 -5.95529 -1.15888 0
M  V30 4967 H 473.836 -4.69875 -1.30647 0
M  V30 4968 H 472.841 -5.42707 0.880301 0
M  V30 4969 H 474.066 -6.71494 1.01352 0
M  V30 4970 H 472.012 -6.44662 -1.21439 0
M  V30 4971 H 471.929 -7.55917 0.111922 0
M  V30 4972 H 473.197 -7.72175 -1.06608 0
M  V30 4973 N 477.426 -0.562348 -1.47226 0
M  V30 4974 C 478.356 0.170627 -2.32876 0
M  V30 4975 C 479.337 0.903748 -1.44106 0
M  V30 4976 O 480.522 0.883206 -1.72954 0
M  V30 4977 C 477.652 1.19786 -3.25989 0
M  V30 4978 C 476.606 0.580875 -4.2404 0
M  V30 4979 C 475.932 1.71311 -5.06514 0
M  V30 4980 C 477.232 -0.468714 -5.20193 0
M  V30 4981 H 478.926 -0.544441 -2.94408 0
M  V30 4982 H 476.472 -0.263271 -1.41573 0
M  V30 4983 H 478.425 1.71884 -3.84752 0
M  V30 4984 H 477.149 1.94294 -2.62521 0
M  V30 4985 H 475.808 0.0811538 -3.6651 0
M  V30 4986 H 475.456 2.44736 -4.39447 0
M  V30 4987 H 475.156 1.30604 -5.72902 0
M  V30 4988 H 476.68 2.23725 -5.68137 0
M  V30 4989 H 478.094 -0.0336028 -5.7329 0
M  V30 4990 H 476.491 -0.794957 -5.94811 0
M  V30 4991 H 477.561 -1.36269 -4.65359 0
M  V30 4992 N 478.904 1.54736 -0.299062 0
M  V30 4993 C 480.151 2.00101 0.310784 0
M  V30 4994 C 480.479 1.18746 1.54045 0
M  V30 4995 O 479.734 0.251198 1.94081 0
M  V30 4996 C 480.033 3.50199 0.713835 0
M  V30 4997 C 479.699 4.48997 -0.413873 0
M  V30 4998 C 478.361 4.7573 -0.723462 0
M  V30 4999 C 480.713 5.07839 -1.17257 0
M  V30 5000 C 478.041 5.5857 -1.79491 0
M  V30 5001 C 480.393 5.91844 -2.23392 0
M  V30 5002 C 479.057 6.16889 -2.54959 0
M  V30 5003 H 478.327 0.732221 0.113724 0
M  V30 5004 H 480.974 1.86888 -0.417756 0
M  V30 5005 H 479.279 3.61012 1.52243 0
M  V30 5006 H 480.976 3.82723 1.19684 0
M  V30 5007 H 477.566 4.28292 -0.162476 0
M  V30 5008 H 481.75 4.87188 -0.946651 0
M  V30 5009 H 477.006 5.76213 -2.04423 0
M  V30 5010 H 481.18 6.36465 -2.8264 0
M  V30 5011 H 478.807 6.80869 -3.38114 0
M  V30 5012 N 480.382 0.0267497 1.57577 0
M  V30 5013 C 481.292 -0.971633 2.13533 0
M  V30 5014 C 482.308 -1.35868 1.08701 0
M  V30 5015 O 483.484 -1.44058 1.40746 0
M  V30 5016 C 480.549 -2.23622 2.64941 0
M  V30 5017 C 479.61 -1.90982 3.8448 0
M  V30 5018 C 478.843 -3.11411 4.33427 0
M  V30 5019 O 479.066 -4.23992 3.81558 0
M  V30 5020 O 478 -2.93848 5.25297 0
M  V30 5021 H 481.826 -0.525853 2.99113 0
M  V30 5022 H 479.411 -0.193712 1.48139 0
M  V30 5023 H 481.293 -2.97864 2.98086 0
M  V30 5024 H 479.968 -2.67386 1.82446 0
M  V30 5025 H 478.875 -1.14132 3.56265 0
M  V30 5026 H 480.208 -1.52036 4.6813 0
M  V30 5027 N 481.861 -1.55662 -0.24637 0
M  V30 5028 C 483.086 -1.81914 -0.996093 0
M  V30 5029 C 483.511 -0.603875 -1.78143 0
M  V30 5030 O 482.869 0.447091 -1.75701 0
M  V30 5031 C 482.917 -3.05908 -1.90925 0
M  V30 5032 O 482.021 -2.82861 -3.00105 0
M  V30 5033 H 481.362 -0.600481 -0.283406 0
M  V30 5034 H 483.892 -2.02848 -0.267199 0
M  V30 5035 H 483.902 -3.35356 -2.3238 0
M  V30 5036 H 482.577 -3.93999 -1.33183 0
M  V30 5037 H 481.154 -2.64583 -2.62775 0
M  V30 5038 N 483.339 0.512053 -1.4905 0
M  V30 5039 C 484.588 1.26343 -1.57227 0
M  V30 5040 C 484.901 1.93876 -0.259155 0
M  V30 5041 O 486.107 2.70612 -0.219358 0
M  V30 5042 C 484.563 2.29343 -2.77362 0
M  V30 5043 C 484.171 1.67799 -4.15388 0
M  V30 5044 C 485.915 3.05378 -2.94864 0
M  V30 5045 C 483.822 2.68845 -5.2676 0
M  V30 5046 H 482.752 0.475231 -0.585382 0
M  V30 5047 H 485.403 0.53862 -1.75417 0
M  V30 5048 H 483.785 3.04938 -2.52643 0
M  V30 5049 H 484.959 0.982715 -4.50199 0
M  V30 5050 H 483.274 1.04194 -4.03153 0
M  V30 5051 H 485.871 3.80921 -3.75238 0
M  V30 5052 H 486.214 3.62327 -2.05 0
M  V30 5053 H 486.747 2.36898 -3.19569 0
M  V30 5054 H 483.486 2.16692 -6.18647 0
M  V30 5055 H 483.006 3.36647 -4.96416 0
M  V30 5056 H 484.685 3.31487 -5.5563 0
M  V30 5057 N 484.817 1.37938 0.762283 0
M  V30 5058 C 485.749 1.30349 1.88525 0
M  V30 5059 C 486.762 0.217402 1.61342 0
M  V30 5060 O 487.951 0.474291 1.72084 0
M  V30 5061 C 485.051 0.994844 3.23969 0
M  V30 5062 C 484.224 2.18829 3.78725 0
M  V30 5063 C 483.283 1.84844 4.92665 0
M  V30 5064 O 482.309 2.57244 5.07754 0
M  V30 5065 N 483.511 0.798201 5.74986 0
M  V30 5066 H 486.276 2.27114 1.95549 0
M  V30 5067 H 483.837 1.31686 0.941825 0
M  V30 5068 H 485.829 0.748168 3.97724 0
M  V30 5069 H 484.399 0.115446 3.12387 0
M  V30 5070 H 483.619 2.59615 2.96637 0
M  V30 5071 H 484.907 2.98497 4.1204 0
M  V30 5072 H 484.305 0.197611 5.65355 0
M  V30 5073 H 482.862 0.611396 6.48926 0
M  V30 5074 N 486.295 -0.989507 1.22664 0
M  V30 5075 C 487.205 -2.11449 1.01619 0
M  V30 5076 C 488.221 -1.73962 -0.036545 0
M  V30 5077 O 489.397 -2.00788 0.156924 0
M  V30 5078 C 486.462 -3.41465 0.600204 0
M  V30 5079 C 485.523 -3.93033 1.72695 0
M  V30 5080 C 484.756 -5.16844 1.33071 0
M  V30 5081 O 484.979 -5.7001 0.210975 0
M  V30 5082 O 483.913 -5.6225 2.14845 0
M  V30 5083 H 487.739 -2.32088 1.9588 0
M  V30 5084 H 485.324 -1.09823 1.01289 0
M  V30 5085 H 487.206 -4.19695 0.37873 0
M  V30 5086 H 485.881 -3.22178 -0.313511 0
M  V30 5087 H 484.788 -3.15961 2.00298 0
M  V30 5088 H 486.121 -4.16758 2.61865 0
M  V30 5089 N 487.773 -1.03688 -1.18687 0
M  V30 5090 C 489.021 -0.736572 -1.88199 0
M  V30 5091 C 489.342 0.737665 -1.80509 0
M  V30 5092 O 488.612 1.53204 -1.22088 0
M  V30 5093 H 487.192 -0.269466 -0.696704 0
M  V30 5094 H 489.854 -1.31282 -1.44052 0
M  V30 5095 H 488.95 -1.03802 -2.94332 0
M  V30 5096 N 489.251 1.34841 -0.815825 0
M  V30 5097 C 490.198 2.29644 -0.230664 0
M  V30 5098 C 491.168 1.53253 0.640533 0
M  V30 5099 O 492.353 1.81653 0.583672 0
M  V30 5100 C 489.493 3.39715 0.607275 0
M  V30 5101 C 488.606 4.31056 -0.28538 0
M  V30 5102 C 487.741 5.28225 0.561446 0
M  V30 5103 C 486.78 6.11204 -0.331035 0
M  V30 5104 N 485.917 7.00483 0.476302 0
M  V30 5105 H 490.757 2.79095 -1.0445 0
M  V30 5106 H 488.294 1.37351 -0.526595 0
M  V30 5107 H 490.252 4.02208 1.10835 0
M  V30 5108 H 488.882 2.91517 1.38629 0
M  V30 5109 H 487.934 3.69487 -0.904621 0
M  V30 5110 H 489.246 4.89239 -0.97193 0
M  V30 5111 H 488.4 5.96135 1.12728 0
M  V30 5112 H 487.139 4.70562 1.28153 0
M  V30 5113 H 486.144 5.42232 -0.909069 0
M  V30 5114 H 487.369 6.70947 -1.04912 0
M  V30 5115 H 485.315 6.45296 1.18019 0
M  V30 5116 H 485.232 7.55847 -0.152008 0
M  V30 5117 H 486.5 7.7273 1.02512 0
M  V30 5118 N 490.729 0.570148 1.46925 0
M  V30 5119 C 491.959 0.0561151 2.06524 0
M  V30 5120 C 492.367 -1.24874 1.42137 0
M  V30 5121 O 491.71 -1.76292 0.516417 0
M  V30 5122 C 491.772 -0.197035 3.5896 0
M  V30 5123 C 491.436 1.02033 4.45464 0
M  V30 5124 C 492.433 1.92921 4.82781 0
M  V30 5125 C 490.118 1.23864 4.86788 0
M  V30 5126 C 492.112 3.03999 5.60235 0
M  V30 5127 C 489.799 2.35249 5.64004 0
M  V30 5128 C 490.797 3.25146 6.0064 0
M  V30 5129 O 490.485 4.34598 6.76299 0
M  V30 5130 H 490.217 0.0487409 0.674241 0
M  V30 5131 H 492.771 0.786915 1.89728 0
M  V30 5132 H 491.001 -0.982299 3.74016 0
M  V30 5133 H 492.69 -0.658032 4.00531 0
M  V30 5134 H 493.456 1.77265 4.51444 0
M  V30 5135 H 489.335 0.54805 4.57731 0
M  V30 5136 H 492.879 3.74192 5.8875 0
M  V30 5137 H 488.776 2.50873 5.94755 0
M  V30 5138 H 489.544 4.32808 6.94708 0
M  V30 5139 N 492.207 -1.54576 0.307264 0
M  V30 5140 C 493.117 -2.27435 -0.57536 0
M  V30 5141 C 494.133 -1.31183 -1.14311 0
M  V30 5142 O 495.309 -1.64175 -1.16656 0
M  V30 5143 C 492.374 -3.00566 -1.72803 0
M  V30 5144 C 491.435 -4.12369 -1.19373 0
M  V30 5145 C 490.668 -4.82003 -2.29147 0
M  V30 5146 O 490.891 -4.51038 -3.49171 0
M  V30 5147 O 489.825 -5.69271 -1.95485 0
M  V30 5148 H 493.651 -3.03696 0.0158558 0
M  V30 5149 H 491.236 -1.49219 0.0735064 0
M  V30 5150 H 493.118 -3.46416 -2.39946 0
M  V30 5151 H 491.793 -2.27195 -2.30574 0
M  V30 5152 H 490.7 -3.70905 -0.487851 0
M  V30 5153 H 492.033 -4.87736 -0.661376 0
M  V30 5154 N 493.685 -0.035106 -1.57561 0
M  V30 5155 C 494.932 0.642229 -1.92046 0
M  V30 5156 C 495.26 1.7179 -0.91206 0
M  V30 5157 O 494.515 1.95544 0.0781153 0
M  V30 5158 C 494.814 1.29149 -3.3325 0
M  V30 5159 C 494.48 0.345604 -4.49574 0
M  V30 5160 C 493.142 0.0852775 -4.81124 0
M  V30 5161 C 495.494 -0.303569 -5.20315 0
M  V30 5162 C 492.822 -0.831927 -5.80772 0
M  V30 5163 C 495.174 -1.20886 -6.20942 0
M  V30 5164 C 493.838 -1.47802 -6.50931 0
M  V30 5165 H 493.108 0.235008 -0.702746 0
M  V30 5166 H 495.755 -0.0981529 -1.91248 0
M  V30 5167 H 494.06 2.10676 -3.30337 0
M  V30 5168 H 495.757 1.82223 -3.57205 0
M  V30 5169 H 492.347 0.558683 -4.24943 0
M  V30 5170 H 496.531 -0.115515 -4.96166 0
M  V30 5171 H 491.787 -1.0481 -6.02349 0
M  V30 5172 H 495.961 -1.71804 -6.74875 0
M  V30 5173 H 493.588 -2.19039 -7.2796 0
M  V30 5174 N 495.163 1.55791 0.238111 0
M  V30 5175 C 496.574 1.68383 0.806472 0
M  V30 5176 C 496.925 0.634157 1.85669 0
M  V30 5177 O 496.05 -0.217913 2.153 0
M  V30 5178 C 496.645 3.05268 1.46959 0
M  V30 5179 C 495.204 3.1977 1.98555 0
M  V30 5180 C 494.351 2.64279 0.839763 0
M  V30 5181 H 497.302 1.58694 0.0137535 0
M  V30 5182 H 497.323 3.00203 2.33792 0
M  V30 5183 H 496.835 3.81643 0.704993 0
M  V30 5184 H 494.936 2.48234 2.77868 0
M  V30 5185 H 495.049 4.26788 2.17689 0
M  V30 5186 H 493.413 2.22329 1.24265 0
M  V30 5187 H 494.196 3.43187 0.0881032 0
M  V30 5188 N 496.642 -0.504142 1.49319 0
M  V30 5189 C 497.919 -1.26548 1.49147 0
M  V30 5190 C 498.299 -2.09977 0.21744 0
M  V30 5191 O 497.647 -2.14028 -0.800269 0
M  V30 5192 C 497.857 -2.12489 2.76857 0
M  V30 5193 C 499.205 -2.7178 3.26222 0
M  V30 5194 O 500.229 -2.22758 2.77952 0
M  V30 5195 O 499.088 -3.61015 4.10281 0
M  V30 5196 H 496.182 -0.572495 0.596806 0
M  V30 5197 H 498.728 -0.51867 1.61579 0
M  V30 5198 H 497.5 -1.50796 3.61077 0
M  V30 5199 H 497.123 -2.94368 2.6727 0
M  V30 5200 N 498.12 -1.38341 -0.754957 0
M  V30 5201 C 499.067 -1.3546 -1.86867 0
M  V30 5202 C 500.037 -0.217369 -1.64672 0
M  V30 5203 O 501.222 -0.409383 -1.86356 0
M  V30 5204 C 498.362 -1.18413 -3.24149 0
M  V30 5205 C 497.475 -2.41511 -3.58185 0
M  V30 5206 C 496.61 -2.17205 -4.84763 0
M  V30 5207 C 495.649 -3.36081 -5.11582 0
M  V30 5208 N 494.786 -3.11219 -6.29354 0
M  V30 5209 H 499.626 -2.30672 -1.88664 0
M  V30 5210 H 497.163 -1.14607 -0.922154 0
M  V30 5211 H 499.121 -1.06545 -4.03366 0
M  V30 5212 H 497.751 -0.268397 -3.21682 0
M  V30 5213 H 496.803 -2.64056 -2.73822 0
M  V30 5214 H 498.115 -3.30115 -3.73932 0
M  V30 5215 H 497.269 -2.02465 -5.7192 0
M  V30 5216 H 496.008 -1.25964 -4.71152 0
M  V30 5217 H 495.013 -3.51341 -4.22894 0
M  V30 5218 H 496.238 -4.28196 -5.27091 0
M  V30 5219 H 494.184 -2.22624 -6.17069 0
M  V30 5220 H 494.101 -3.93373 -6.45596 0
M  V30 5221 H 495.369 -3.00132 -7.19403 0
M  V30 5222 N 499.598 0.982988 -1.23187 0
M  V30 5223 C 500.875 1.69814 -0.970707 0
M  V30 5224 C 501.255 2.04811 0.511424 0
M  V30 5225 O 500.603 1.73924 1.48198 0
M  V30 5226 C 500.813 2.94143 -1.87831 0
M  V30 5227 C 502.161 3.66712 -2.14026 0
M  V30 5228 O 503.185 3.04171 -1.8536 0
M  V30 5229 O 502.044 4.79258 -2.62629 0
M  V30 5230 H 499.138 0.741659 -0.365884 0
M  V30 5231 H 501.684 1.03844 -1.34218 0
M  V30 5232 H 500.456 2.64858 -2.88038 0
M  V30 5233 H 500.079 3.6785 -1.50905 0
M  V30 5234 N 501.076 1.04316 1.18135 0
M  V30 5235 C 502.322 0.758899 1.88712 0
M  V30 5236 C 502.677 -0.705863 1.78984 0
M  V30 5237 O 501.97 -1.50874 1.18101 0
M  V30 5238 C 502.164 1.16271 3.37958 0
M  V30 5239 C 501.993 2.66518 3.62213 0
M  V30 5240 C 500.763 3.33702 3.79436 0
M  V30 5241 C 502.961 3.64739 3.62588 0
M  V30 5242 N 500.943 4.72904 3.91452 0
M  V30 5243 C 502.314 4.89627 3.80348 0
M  V30 5244 C 504.369 3.58333 3.4569 0
M  V30 5245 C 503.072 6.08879 3.8296 0
M  V30 5246 C 505.098 4.77016 3.49586 0
M  V30 5247 C 504.46 6.00724 3.67845 0
M  V30 5248 H 500.559 0.329795 0.709055 0
M  V30 5249 H 503.143 1.33334 1.4188 0
M  V30 5250 H 501.314 0.616319 3.83479 0
M  V30 5251 H 503.046 0.829205 3.96114 0
M  V30 5252 H 499.801 2.84105 3.78921 0
M  V30 5253 H 500.225 5.45258 4.01277 0
M  V30 5254 H 504.867 2.63663 3.30517 0
M  V30 5255 H 502.585 7.03903 3.96921 0
M  V30 5256 H 506.171 4.73703 3.37782 0
M  V30 5257 H 505.051 6.91022 3.70753 0
M  V30 5258 N 502.554 -1.34406 0.822964 0
M  V30 5259 C 503.517 -2.2783 0.250271 0
M  V30 5260 C 504.517 -1.50288 -0.571854 0
M  V30 5261 O 505.707 -1.69825 -0.387952 0
M  V30 5262 C 502.839 -3.34663 -0.649137 0
M  V30 5263 H 504.032 -2.79992 1.07444 0
M  V30 5264 H 501.585 -1.44539 0.594829 0
M  V30 5265 H 502.32 -2.87714 -1.49637 0
M  V30 5266 H 502.105 -3.92052 -0.0611199 0
M  V30 5267 H 503.595 -4.04349 -1.04363 0
M  V30 5268 N 504.032 -0.577932 -1.46621 0
M  V30 5269 C 504.982 0.178869 -2.27297 0
M  V30 5270 C 505.966 0.866279 -1.35589 0
M  V30 5271 O 507.158 0.761163 -1.59798 0
M  V30 5272 C 504.287 1.19499 -3.2183 0
M  V30 5273 C 503.373 0.50994 -4.21023 0
M  V30 5274 N 503.764 -0.43177 -5.03954 0
M  V30 5275 C 502.062 0.761287 -4.39455 0
M  V30 5276 C 502.763 -0.831693 -5.75724 0
M  V30 5277 N 501.739 -0.181897 -5.43296 0
M  V30 5278 H 505.541 -0.544859 -2.88805 0
M  V30 5279 H 503.055 -0.399373 -1.57413 0
M  V30 5280 H 505.052 1.75131 -3.78332 0
M  V30 5281 H 503.712 1.91959 -2.61881 0
M  V30 5282 H 504.723 -0.807045 -5.11573 0
M  V30 5283 H 501.4 1.47282 -3.90659 0
M  V30 5284 H 502.79 -1.6067 -6.52407 0
M  V30 5285 N 505.51 1.54411 -0.315457 0
M  V30 5286 C 506.759 1.99599 0.290395 0
M  V30 5287 C 507.072 1.20746 1.53882 0
M  V30 5288 O 508.278 1.56272 2.22017 0
M  V30 5289 C 506.734 3.5539 0.56797 0
M  V30 5290 C 506.342 4.43068 -0.662945 0
M  V30 5291 C 508.086 4.09067 1.13422 0
M  V30 5292 C 505.993 5.90317 -0.357722 0
M  V30 5293 H 504.923 0.745592 0.112286 0
M  V30 5294 H 507.574 1.78477 -0.426418 0
M  V30 5295 H 505.956 3.72468 1.34476 0
M  V30 5296 H 507.13 4.37765 -1.43869 0
M  V30 5297 H 505.445 4.00238 -1.14884 0
M  V30 5298 H 508.042 5.16663 1.37707 0
M  V30 5299 H 508.385 3.60552 2.08106 0
M  V30 5300 H 508.918 3.95589 0.418805 0
M  V30 5301 H 505.657 6.4301 -1.27351 0
M  V30 5302 H 505.177 5.98592 0.380472 0
M  V30 5303 H 506.856 6.4699 0.0354284 0
M  V30 5304 N 506.988 0.0434614 1.5754 0
M  V30 5305 C 508.213 -0.645358 1.97104 0
M  V30 5306 C 508.638 -1.64037 0.920521 0
M  V30 5307 O 507.996 -1.80922 -0.11708 0
M  V30 5308 C 508.044 -1.31547 3.35749 0
M  V30 5309 O 507.148 -2.43103 3.33129 0
M  V30 5310 H 506.489 -0.168403 0.64229 0
M  V30 5311 H 509.019 0.109573 2.04306 0
M  V30 5312 H 509.029 -1.66895 3.72304 0
M  V30 5313 H 507.704 -0.586205 4.11748 0
M  V30 5314 H 506.281 -2.0976 3.0831 0
M  V30 5315 N 508.466 -1.55915 -0.229846 0
M  V30 5316 C 509.691 -1.8296 -0.976743 0
M  V30 5317 C 510.116 -0.622735 -1.77493 0
M  V30 5318 O 509.474 0.428431 -1.76165 0
M  V30 5319 C 509.522 -3.07916 -1.8767 0
M  V30 5320 O 508.626 -2.86028 -2.97088 0
M  V30 5321 H 507.967 -0.603453 -0.277021 0
M  V30 5322 H 510.497 -2.0312 -0.245669 0
M  V30 5323 H 510.507 -3.37802 -2.2881 0
M  V30 5324 H 509.182 -3.95389 -1.28996 0
M  V30 5325 H 507.759 -2.67355 -2.59954 0
M  V30 5326 N 509.944 0.496216 -1.49584 0
M  V30 5327 C 510.854 1.62352 -1.69349 0
M  V30 5328 C 511.87 1.64184 -0.576147 0
M  V30 5329 O 513.046 1.82517 -0.85144 0
M  V30 5330 C 510.111 2.98698 -1.76013 0
M  V30 5331 C 509.172 3.07454 -2.99617 0
M  V30 5332 C 508.405 4.37296 -3.05953 0
M  V30 5333 O 508.628 5.2637 -2.19752 0
M  V30 5334 O 507.562 4.51124 -3.9846 0
M  V30 5335 H 511.388 1.48606 -2.64859 0
M  V30 5336 H 508.973 0.673022 -1.33382 0
M  V30 5337 H 510.855 3.79725 -1.82721 0
M  V30 5338 H 509.53 3.12696 -0.836828 0
M  V30 5339 H 508.437 2.25597 -2.98424 0
M  V30 5340 H 509.77 2.98385 -3.91443 0
M  V30 5341 N 511.423 1.38739 0.74761 0
M  V30 5342 C 512.386 1.36241 1.84312 0
M  V30 5343 C 513.386 0.261811 1.58654 0
M  V30 5344 O 514.576 0.519031 1.66288 0
M  V30 5345 C 511.708 1.12253 3.21888 0
M  V30 5346 H 512.901 2.33712 1.87933 0
M  V30 5347 H 510.454 1.2412 0.949946 0
M  V30 5348 H 511.189 0.154133 3.23934 0
M  V30 5349 H 510.974 1.91943 3.41907 0
M  V30 5350 H 512.464 1.13215 4.0196 0
M  V30 5351 N 512.901 -0.976442 1.23707 0
M  V30 5352 C 513.848 -2.06952 1.02174 0
M  V30 5353 C 514.818 -1.65984 -0.0621034 0
M  V30 5354 O 516.003 -1.90584 0.0907906 0
M  V30 5355 C 513.143 -3.39425 0.62327 0
M  V30 5356 C 512.256 -3.9364 1.77966 0
M  V30 5357 C 511.391 -5.14343 1.3276 0
M  V30 5358 C 510.43 -5.60733 2.45449 0
M  V30 5359 N 509.567 -6.72662 2.01172 0
M  V30 5360 H 514.407 -2.24704 1.95734 0
M  V30 5361 H 511.944 -1.10143 0.975034 0
M  V30 5362 H 513.902 -4.15526 0.37332 0
M  V30 5363 H 512.532 -3.21624 -0.275329 0
M  V30 5364 H 511.584 -3.14258 2.14351 0
M  V30 5365 H 512.896 -4.24035 2.62671 0
M  V30 5366 H 512.05 -5.97789 1.03601 0
M  V30 5367 H 510.789 -4.8561 0.450975 0
M  V30 5368 H 509.794 -4.75865 2.75378 0
M  V30 5369 H 511.019 -5.91483 3.33654 0
M  V30 5370 H 508.965 -6.45681 1.15895 0
M  V30 5371 H 508.882 -7.02462 2.79434 0
M  V30 5372 H 510.15 -7.59572 1.75129 0
M  V30 5373 N 514.379 -1.04941 -1.1758 0
M  V30 5374 C 515.656 -0.671918 -1.83697 0
M  V30 5375 C 516.036 0.847929 -1.93322 0
M  V30 5376 O 515.384 1.75287 -1.46583 0
M  V30 5377 C 515.594 -1.35797 -3.21497 0
M  V30 5378 C 516.942 -1.4944 -3.97433 0
M  V30 5379 O 517.966 -1.31678 -3.30967 0
M  V30 5380 O 516.825 -1.78463 -5.1654 0
M  V30 5381 H 513.919 -0.236212 -0.792548 0
M  V30 5382 H 516.465 -1.14884 -1.24899 0
M  V30 5383 H 515.237 -2.39498 -3.09446 0
M  V30 5384 H 514.86 -0.870236 -3.8796 0
M  V30 5385 N 515.857 1.33968 -0.830081 0
M  V30 5386 C 516.787 2.31911 -0.271911 0
M  V30 5387 C 517.768 1.58571 0.61556 0
M  V30 5388 O 518.953 1.86514 0.540946 0
M  V30 5389 C 516.083 3.42737 0.561146 0
M  V30 5390 C 515.037 4.27383 -0.229789 0
M  V30 5391 C 514.363 5.29742 0.726463 0
M  V30 5392 C 515.663 5.02 -1.44197 0
M  V30 5393 H 517.357 2.78844 -1.09025 0
M  V30 5394 H 514.903 1.34061 -0.52571 0
M  V30 5395 H 516.856 4.10276 0.961867 0
M  V30 5396 H 515.58 2.94471 1.41261 0
M  V30 5397 H 514.239 3.61456 -0.611964 0
M  V30 5398 H 513.887 4.77736 1.57408 0
M  V30 5399 H 513.587 5.87255 0.20142 0
M  V30 5400 H 515.111 6.00149 1.12489 0
M  V30 5401 H 516.525 5.62355 -1.11488 0
M  V30 5402 H 514.922 5.69122 -1.90317 0
M  V30 5403 H 515.992 4.31281 -2.2164 0
M  V30 5404 N 517.335 0.585699 1.46312 0
M  V30 5405 C 518.584 0.0701192 2.01578 0
M  V30 5406 C 518.897 -1.29889 1.46247 0
M  V30 5407 O 520.103 -1.90598 1.93351 0
M  V30 5408 C 518.559 0.0747499 3.59822 0
M  V30 5409 C 518.167 1.44226 4.24149 0
M  V30 5410 C 519.911 -0.38673 4.22735 0
M  V30 5411 C 517.818 1.40446 5.74481 0
M  V30 5412 H 516.748 0.0224441 0.753666 0
M  V30 5413 H 519.399 0.737789 1.68015 0
M  V30 5414 H 517.781 -0.659144 3.90476 0
M  V30 5415 H 518.955 2.19612 4.05101 0
M  V30 5416 H 517.27 1.84401 3.73343 0
M  V30 5417 H 519.867 -0.433853 5.32937 0
M  V30 5418 H 520.21 -1.40489 3.91878 0
M  V30 5419 H 520.743 0.293195 3.96718 0
M  V30 5420 H 517.482 2.39952 6.10003 0
M  V30 5421 H 517.002 0.692845 5.95785 0
M  V30 5422 H 518.681 1.11865 6.37256 0
M  V30 5423 N 518.813 -1.54241 0.323641 0
M  V30 5424 C 520.038 -2.05452 -0.283605 0
M  V30 5425 C 520.463 -1.19823 -1.44997 0
M  V30 5426 O 519.821 -0.207358 -1.8011 0
M  V30 5427 C 519.869 -3.53823 -0.695795 0
M  V30 5428 O 518.973 -3.71134 -1.79815 0
M  V30 5429 H 518.314 -0.662024 -0.0511917 0
M  V30 5430 H 520.844 -1.99079 0.472073 0
M  V30 5431 H 520.854 -3.96094 -0.978434 0
M  V30 5432 H 519.529 -4.15602 0.157287 0
M  V30 5433 H 518.106 -3.40768 -1.51431 0
M  V30 5434 N 520.291 -0.0518155 -1.57515 0
M  V30 5435 C 521.238 0.922352 -2.11569 0
M  V30 5436 C 522.208 1.30842 -1.02321 0
M  V30 5437 O 523.393 1.39778 -1.29872 0
M  V30 5438 C 520.533 2.19167 -2.6657 0
M  V30 5439 C 519.646 1.86003 -3.89906 0
M  V30 5440 C 518.781 3.07398 -4.33221 0
M  V30 5441 C 517.82 2.70158 -5.49255 0
M  V30 5442 N 516.957 3.84248 -5.8762 0
M  V30 5443 H 521.797 0.454506 -2.94514 0
M  V30 5444 H 519.334 0.212718 -1.45554 0
M  V30 5445 H 521.292 2.93443 -2.96559 0
M  V30 5446 H 519.922 2.63528 -1.86421 0
M  V30 5447 H 518.974 1.01874 -3.66505 0
M  V30 5448 H 520.286 1.54592 -4.74239 0
M  V30 5449 H 519.44 3.89972 -4.64765 0
M  V30 5450 H 518.179 3.41988 -3.477 0
M  V30 5451 H 517.184 1.86001 -5.17382 0
M  V30 5452 H 518.409 2.36759 -6.36492 0
M  V30 5453 H 516.355 4.18638 -5.05053 0
M  V30 5454 H 516.272 3.56538 -6.66646 0
M  V30 5455 H 517.54 4.6746 -6.2378 0
M  V30 5456 N 521.769 1.56035 0.221574 0
M  V30 5457 C 522.699 1.95434 1.2778 0
M  V30 5458 C 523.68 0.822564 1.48889 0
M  V30 5459 O 524.865 1.08486 1.61072 0
M  V30 5460 C 521.995 2.27102 2.62759 0
M  V30 5461 C 520.949 3.4277 2.56306 0
M  V30 5462 C 520.275 3.60043 3.95314 0
M  V30 5463 C 521.575 4.77742 2.11093 0
M  V30 5464 H 523.269 2.83912 0.950504 0
M  V30 5465 H 520.815 1.36596 0.455791 0
M  V30 5466 H 522.768 2.53256 3.36807 0
M  V30 5467 H 521.492 1.35478 2.97176 0
M  V30 5468 H 520.151 3.16664 1.84715 0
M  V30 5469 H 519.799 2.65794 4.27039 0
M  V30 5470 H 519.499 4.37841 3.91879 0
M  V30 5471 H 521.023 3.88545 4.71025 0
M  V30 5472 H 522.437 5.03102 2.74885 0
M  V30 5473 H 520.834 5.58823 2.18716 0
M  V30 5474 H 521.904 4.731 1.06321 0
M  V30 5475 N 523.247 -0.488276 1.49845 0
M  V30 5476 C 524.177 -1.59675 1.70371 0
M  V30 5477 C 525.158 -1.60878 0.552473 0
M  V30 5478 O 526.343 -1.77417 0.78973 0
M  V30 5479 C 523.473 -2.98098 1.782 0
M  V30 5480 C 522.427 -3.11761 2.93239 0
M  V30 5481 C 521.753 -4.51661 2.86193 0
M  V30 5482 C 523.053 -2.90589 4.33999 0
M  V30 5483 H 524.747 -1.42752 2.63177 0
M  V30 5484 H 522.293 -0.685317 1.26647 0
M  V30 5485 H 524.246 -3.75555 1.91144 0
M  V30 5486 H 522.97 -3.16138 0.820018 0
M  V30 5487 H 521.629 -2.36732 2.79917 0
M  V30 5488 H 521.277 -4.66595 1.87877 0
M  V30 5489 H 520.977 -4.61742 3.63412 0
M  V30 5490 H 522.501 -5.31162 3.01163 0
M  V30 5491 H 523.915 -3.57807 4.47936 0
M  V30 5492 H 522.312 -3.1213 5.12538 0
M  V30 5493 H 523.382 -1.86595 4.4756 0
M  V30 5494 N 524.725 -1.39134 -0.740242 0
M  V30 5495 C 525.971 -1.36273 -1.50192 0
M  V30 5496 C 526.304 0.0430136 -1.94152 0
M  V30 5497 O 525.579 1.00691 -1.66408 0
M  V30 5498 C 525.862 -2.33041 -2.74525 0
M  V30 5499 C 525.715 -3.82535 -2.36617 0
M  V30 5500 C 527.034 -2.27723 -3.76604 0
M  V30 5501 H 524.153 -0.496323 -0.544823 0
M  V30 5502 H 526.795 -1.70085 -0.846815 0
M  V30 5503 H 524.945 -2.04337 -3.30422 0
M  V30 5504 H 526.617 -4.21967 -1.86391 0
M  V30 5505 H 524.86 -3.99565 -1.68909 0
M  V30 5506 H 525.531 -4.45723 -3.2563 0
M  V30 5507 H 528.007 -2.53091 -3.30279 0
M  V30 5508 H 526.883 -2.97519 -4.61274 0
M  V30 5509 H 527.144 -1.28049 -4.2315 0
M  V30 5510 N 526.204 0.969867 -1.24223 0
M  V30 5511 C 527.62 1.23809 -1.00716 0
M  V30 5512 C 527.82 1.99469 0.285358 0
M  V30 5513 O 526.876 2.31764 1.00207 0
M  V30 5514 C 528.189 2.02734 -2.2208 0
M  V30 5515 C 529.737 2.15834 -2.26681 0
M  V30 5516 C 530.212 2.98154 -3.47661 0
M  V30 5517 N 531.703 3.05737 -3.47964 0
M  V30 5518 C 532.438 3.69785 -4.38231 0
M  V30 5519 N 531.934 4.35569 -5.3875 0
M  V30 5520 N 533.727 3.66775 -4.25949 0
M  V30 5521 H 525.878 0.463294 -2.07286 0
M  V30 5522 H 528.141 0.267348 -0.909521 0
M  V30 5523 H 527.847 1.54524 -3.15935 0
M  V30 5524 H 527.721 3.0347 -2.24021 0
M  V30 5525 H 530.108 2.63248 -1.33359 0
M  V30 5526 H 530.189 1.14453 -2.28767 0
M  V30 5527 H 529.833 2.51435 -4.41297 0
M  V30 5528 H 529.763 3.99729 -3.42818 0
M  V30 5529 H 532.254 2.58941 -2.75242 0
M  V30 5530 H 532.567 4.82251 -6.03866 0
M  V30 5531 H 530.912 4.34244 -5.42639 0
M  V30 5532 H 534.103 3.14558 -3.46657 0
M  V30 5533 H 534.276 4.16407 -4.96497 0
M  V30 5534 N 527.682 1.05563 1.17022 0
M  V30 5535 C 528.959 0.68165 1.83338 0
M  V30 5536 C 529.339 -0.837665 1.93769 0
M  V30 5537 O 528.687 -1.74507 1.47511 0
M  V30 5538 C 528.897 1.375 3.20772 0
M  V30 5539 C 530.245 1.51545 3.96635 0
M  V30 5540 O 531.269 1.33431 3.30264 0
M  V30 5541 O 530.128 1.812 5.15586 0
M  V30 5542 H 527.222 0.240412 0.791285 0
M  V30 5543 H 529.768 1.15545 1.24288 0
M  V30 5544 H 528.54 2.41135 3.08171 0
M  V30 5545 H 528.163 0.890798 3.87493 0
M  V30 5546 N 529.16 -1.33526 0.837174 0
M  V30 5547 C 530.123 -2.27551 0.274421 0
M  V30 5548 C 531.123 -1.50886 -0.555881 0
M  V30 5549 O 532.313 -1.70227 -0.369918 0
M  V30 5550 C 529.445 -3.35332 -0.613605 0
M  V30 5551 H 530.638 -2.78837 1.10408 0
M  V30 5552 H 528.191 -1.439 0.610126 0
M  V30 5553 H 528.926 -2.89285 -1.46577 0
M  V30 5554 H 528.711 -3.92095 -0.0195341 0
M  V30 5555 H 530.201 -4.05433 -1.00068 0
M  V30 5556 N 530.638 -0.59345 -1.46 0
M  V30 5557 C 531.585 0.133618 -2.30413 0
M  V30 5558 C 532.555 0.873736 -1.41262 0
M  V30 5559 O 533.74 0.862279 -1.70204 0
M  V30 5560 C 530.88 1.13434 -3.25924 0
M  V30 5561 C 529.993 0.39656 -4.30176 0
M  V30 5562 C 529.128 1.38575 -5.12806 0
M  V30 5563 C 528.167 0.634984 -6.08797 0
M  V30 5564 N 527.304 1.57276 -6.84258 0
M  V30 5565 H 532.144 -0.592252 -2.92055 0
M  V30 5566 H 529.681 -0.303874 -1.43927 0
M  V30 5567 H 531.639 1.72752 -3.79753 0
M  V30 5568 H 530.269 1.82779 -2.66067 0
M  V30 5569 H 529.321 -0.311861 -3.79119 0
M  V30 5570 H 530.633 -0.189869 -4.98438 0
M  V30 5571 H 529.787 2.05141 -5.70966 0
M  V30 5572 H 528.526 2.00611 -4.44529 0
M  V30 5573 H 527.531 -0.0443925 -5.49782 0
M  V30 5574 H 528.756 0.0198678 -6.79097 0
M  V30 5575 H 526.702 2.18103 -6.18682 0
M  V30 5576 H 526.619 1.03941 -7.48821 0
M  V30 5577 H 527.887 2.22844 -7.46968 0
M  V30 5578 N 532.116 1.54067 -0.331816 0
M  V30 5579 C 533.048 2.22139 0.564538 0
M  V30 5580 C 534.061 1.22408 1.07332 0
M  V30 5581 O 535.25 1.4883 0.985481 0
M  V30 5582 C 532.35 2.87876 1.78831 0
M  V30 5583 C 531.523 4.13817 1.41682 0
M  V30 5584 C 530.582 4.63072 2.49901 0
M  V30 5585 O 529.608 5.27562 2.13699 0
M  V30 5586 N 530.81 4.38001 3.80967 0
M  V30 5587 H 533.575 2.99694 -0.0183736 0
M  V30 5588 H 531.136 1.61153 -0.155396 0
M  V30 5589 H 533.128 3.17747 2.50637 0
M  V30 5590 H 531.698 2.13977 2.27887 0
M  V30 5591 H 530.918 3.9062 0.530044 0
M  V30 5592 H 532.206 4.95762 1.14443 0
M  V30 5593 H 531.604 3.864 4.13173 0
M  V30 5594 H 530.161 4.72507 4.48977 0
M  V30 5595 N 533.594 0.0601682 1.57485 0
M  V30 5596 C 535.01 -0.296422 1.56823 0
M  V30 5597 C 535.21 -1.70831 1.0686 0
M  V30 5598 O 534.266 -2.4174 0.729245 0
M  V30 5599 C 535.579 -0.116681 3.00474 0
M  V30 5600 C 537.127 -0.187103 3.1244 0
M  V30 5601 C 537.602 -0.035783 4.57986 0
M  V30 5602 N 539.093 -0.0917676 4.63109 0
M  V30 5603 C 539.828 0.00107251 5.734 0
M  V30 5604 N 539.324 0.146773 6.92645 0
M  V30 5605 N 541.117 -0.0551577 5.62073 0
M  V30 5606 H 533.268 0.983055 1.88281 0
M  V30 5607 H 535.531 0.382386 0.867459 0
M  V30 5608 H 535.237 0.85712 3.41096 0
M  V30 5609 H 535.111 -0.873929 3.66936 0
M  V30 5610 H 537.498 -1.15138 2.71712 0
M  V30 5611 H 537.579 0.601052 2.48638 0
M  V30 5612 H 537.223 0.925212 4.99402 0
M  V30 5613 H 537.153 -0.843196 5.19806 0
M  V30 5614 H 539.644 -0.203261 3.77353 0
M  V30 5615 H 539.957 0.210076 7.72514 0
M  V30 5616 H 538.302 0.181979 6.94762 0
M  V30 5617 H 541.493 -0.167605 4.678 0
M  V30 5618 H 541.666 0.020652 6.47997 0
M  V30 5619 N 535.072 -1.5615 -0.213296 0
M  V30 5620 C 536.002 -1.96109 -1.26742 0
M  V30 5621 C 536.983 -0.830448 -1.48451 0
M  V30 5622 O 538.168 -1.09339 -1.60495 0
M  V30 5623 C 535.298 -2.28492 -2.61551 0
M  V30 5624 C 534.252 -3.44124 -2.54485 0
M  V30 5625 C 533.578 -3.62134 -3.93399 0
M  V30 5626 C 534.878 -4.78855 -2.08556 0
M  V30 5627 H 536.572 -2.84412 -0.935434 0
M  V30 5628 H 534.118 -1.36836 -0.44854 0
M  V30 5629 H 536.071 -2.55039 -3.3546 0
M  V30 5630 H 534.795 -1.37052 -2.96453 0
M  V30 5631 H 533.454 -3.17639 -1.83033 0
M  V30 5632 H 533.102 -2.68055 -4.25623 0
M  V30 5633 H 532.802 -4.39913 -3.89551 0
M  V30 5634 H 534.326 -3.91038 -4.68958 0
M  V30 5635 H 535.74 -5.04552 -2.72213 0
M  V30 5636 H 534.137 -5.59975 -2.1575 0
M  V30 5637 H 535.207 -4.73657 -1.03811 0
M  V30 5638 N 536.55 0.480323 -1.50102 0
M  V30 5639 C 537.775 1.26126 -1.64642 0
M  V30 5640 C 538.2 1.85257 -0.325823 0
M  V30 5641 O 537.558 1.66854 0.709194 0
M  V30 5642 C 537.606 2.35243 -2.73301 0
M  V30 5643 O 536.71 3.39646 -2.33911 0
M  V30 5644 H 536.051 0.371463 -0.550374 0
M  V30 5645 H 538.581 0.572696 -1.96421 0
M  V30 5646 H 538.591 2.80695 -2.96098 0
M  V30 5647 H 537.266 1.91574 -3.6915 0
M  V30 5648 H 535.843 2.99969 -2.21525 0
M  V30 5649 N 538.028 1.39524 0.732853 0
M  V30 5650 C 538.991 1.38189 1.82857 0
M  V30 5651 C 539.991 0.278624 1.58368 0
M  V30 5652 O 541.181 0.536639 1.65728 0
M  V30 5653 C 538.313 1.15661 3.2068 0
M  V30 5654 H 539.506 2.35692 1.85444 0
M  V30 5655 H 537.059 1.2512 0.936728 0
M  V30 5656 H 537.794 0.188482 3.23752 0
M  V30 5657 H 537.579 1.95559 3.39852 0
M  V30 5658 H 539.069 1.17472 4.00737 0
M  V30 5659 N 539.506 -0.963266 1.24736 0
M  V30 5660 C 540.469 -2.04013 1.04457 0
M  V30 5661 C 541.469 -1.608 0.000335555 0
M  V30 5662 O 542.659 -1.72515 0.241719 0
M  V30 5663 C 539.791 -3.35858 0.584162 0
M  V30 5664 H 540.984 -2.23436 2.00041 0
M  V30 5665 H 538.537 -1.13914 1.07021 0
M  V30 5666 H 539.272 -3.22128 -0.374673 0
M  V30 5667 H 539.057 -3.68568 1.3379 0
M  V30 5668 H 540.547 -4.1502 0.463451 0
M  V30 5669 N 540.985 -1.06182 -1.16461 0
M  V30 5670 C 541.917 -0.629584 -2.20383 0
M  V30 5671 C 542.93 0.311834 -1.59786 0
M  V30 5672 O 544.119 0.103 -1.78203 0
M  V30 5673 C 541.219 0.0973695 -3.3876 0
M  V30 5674 C 540.392 -0.857252 -4.28917 0
M  V30 5675 C 539.451 -0.169749 -5.25926 0
M  V30 5676 O 538.477 -0.807044 -5.6345 0
M  V30 5677 N 539.679 1.08911 -5.70192 0
M  V30 5678 H 542.444 -1.52352 -2.58087 0
M  V30 5679 H 540.005 -0.944993 -1.31459 0
M  V30 5680 H 541.997 0.567676 -4.00699 0
M  V30 5681 H 540.567 0.893093 -2.99571 0
M  V30 5682 H 539.787 -1.50696 -3.64259 0
M  V30 5683 H 541.075 -1.50489 -4.86035 0
M  V30 5684 H 540.473 1.62703 -5.41797 0
M  V30 5685 H 539.03 1.50331 -6.34227 0
M  V30 5686 N 542.463 1.3308 -0.844243 0
M  V30 5687 C 543.709 1.97898 -0.443206 0
M  V30 5688 C 544.042 1.66699 0.99625 0
M  V30 5689 O 543.317 0.949704 1.69738 0
M  V30 5690 C 543.6 3.53801 -0.670606 0
M  V30 5691 C 543.453 3.94667 -2.15772 0
M  V30 5692 C 544.772 4.39936 -0.120226 0
M  V30 5693 H 541.891 0.718861 -0.162504 0
M  V30 5694 H 544.533 1.57633 -1.06075 0
M  V30 5695 H 542.683 3.88229 -0.14496 0
M  V30 5696 H 544.355 3.70469 -2.74865 0
M  V30 5697 H 542.598 3.44203 -2.6402 0
M  V30 5698 H 543.269 5.03275 -2.26757 0
M  V30 5699 H 545.745 4.12183 -0.5696 0
M  V30 5700 H 544.621 5.4803 -0.308984 0
M  V30 5701 H 544.882 4.31184 0.976347 0
M  V30 5702 N 543.941 0.601185 1.45683 0
M  V30 5703 C 544.871 -0.108824 2.33246 0
M  V30 5704 C 545.852 -0.865223 1.46451 0
M  V30 5705 O 547.037 -0.83704 1.75235 0
M  V30 5706 C 544.167 -1.11101 3.2905 0
M  V30 5707 C 543.121 -0.468244 4.25431 0
M  V30 5708 C 542.447 -1.57822 5.10878 0
M  V30 5709 C 543.747 0.606469 5.18767 0
M  V30 5710 H 545.441 0.622306 2.92861 0
M  V30 5711 H 542.987 0.300714 1.40825 0
M  V30 5712 H 544.94 -1.61622 3.89174 0
M  V30 5713 H 543.664 -1.87265 2.67581 0
M  V30 5714 H 542.323 0.0160484 3.66596 0
M  V30 5715 H 541.971 -2.32998 4.45781 0
M  V30 5716 H 541.671 -1.15369 5.76163 0
M  V30 5717 H 543.195 -2.08583 5.73869 0
M  V30 5718 H 544.609 0.185589 5.73 0
M  V30 5719 H 543.006 0.952381 5.92494 0
M  V30 5720 H 544.076 1.48559 4.61582 0
M  V30 5721 N 545.419 -1.53889 0.339982 0
M  V30 5722 C 546.351 -2.22435 -0.55275 0
M  V30 5723 C 547.364 -1.22975 -1.06681 0
M  V30 5724 O 548.553 -1.49351 -0.977575 0
M  V30 5725 C 545.653 -2.8882 -1.77302 0
M  V30 5726 C 544.826 -4.14563 -1.39486 0
M  V30 5727 C 543.885 -4.64391 -2.47442 0
M  V30 5728 O 542.911 -5.28687 -2.10899 0
M  V30 5729 N 544.113 -4.40015 -3.78639 0
M  V30 5730 H 546.878 -2.9968 0.0342669 0
M  V30 5731 H 544.439 -1.61068 0.16394 0
M  V30 5732 H 546.431 -3.19072 -2.48948 0
M  V30 5733 H 545.001 -2.15182 -2.26749 0
M  V30 5734 H 544.221 -3.90896 -0.509321 0
M  V30 5735 H 545.509 -4.96362 -1.11813 0
M  V30 5736 H 544.907 -3.88586 -4.11118 0
M  V30 5737 H 543.464 -4.74881 -4.46465 0
M  V30 5738 N 546.897 -0.0685191 -1.57451 0
M  V30 5739 C 547.847 0.909895 -2.09057 0
M  V30 5740 C 548.831 1.26088 -0.999528 0
M  V30 5741 O 550.023 1.24041 -1.26265 0
M  V30 5742 C 547.152 2.17863 -2.65312 0
M  V30 5743 C 546.238 1.85427 -3.81415 0
M  V30 5744 N 546.629 1.23426 -4.9051 0
M  V30 5745 C 544.927 2.15196 -3.90649 0
M  V30 5746 C 545.628 1.09008 -5.71395 0
M  V30 5747 N 544.604 1.59871 -5.1956 0
M  V30 5748 H 548.406 0.426145 -2.90794 0
M  V30 5749 H 545.92 0.135462 -1.61834 0
M  V30 5750 H 547.917 2.88872 -3.00597 0
M  V30 5751 H 546.577 2.66829 -1.85021 0
M  V30 5752 H 547.588 0.904305 -5.09944 0
M  V30 5753 H 544.265 2.66562 -3.21327 0
M  V30 5754 H 545.655 0.607305 -6.6915 0
M  V30 5755 N 548.375 1.56261 0.205012 0
M  V30 5756 C 549.786 1.70056 0.770574 0
M  V30 5757 C 550.137 0.673398 1.84282 0
M  V30 5758 O 549.262 -0.172196 2.15714 0
M  V30 5759 C 549.857 3.08316 1.40451 0
M  V30 5760 C 548.416 3.2391 1.91727 0
M  V30 5761 C 547.563 2.66001 0.783516 0
M  V30 5762 H 550.514 1.58688 -0.019911 0
M  V30 5763 H 550.535 3.05094 2.27371 0
M  V30 5764 H 550.047 3.83053 0.623882 0
M  V30 5765 H 548.148 2.54072 2.7254 0
M  V30 5766 H 548.261 4.3131 2.08588 0
M  V30 5767 H 546.625 2.24915 1.19521 0
M  V30 5768 H 547.408 3.43297 0.0152883 0
M  V30 5769 N 549.853 -0.472356 1.50355 0
M  V30 5770 C 551.099 -1.22348 1.62488 0
M  V30 5771 C 551.454 -1.89711 0.320574 0
M  V30 5772 O 550.747 -1.79074 -0.68141 0
M  V30 5773 C 550.941 -2.29257 2.74182 0
M  V30 5774 C 550.77 -1.72383 4.15348 0
M  V30 5775 C 549.54 -1.52411 4.81766 0
M  V30 5776 C 551.738 -1.21949 4.99633 0
M  V30 5777 N 549.72 -0.907669 6.07153 0
M  V30 5778 C 551.091 -0.726191 6.15732 0
M  V30 5779 C 553.146 -1.10792 4.85417 0
M  V30 5780 C 551.849 -0.132322 7.19178 0
M  V30 5781 C 553.875 -0.52799 5.89038 0
M  V30 5782 C 553.237 -0.0450604 7.04386 0
M  V30 5783 H 549.336 -0.436631 0.648751 0
M  V30 5784 H 551.92 -0.525698 1.87469 0
M  V30 5785 H 550.091 -2.96464 2.50926 0
M  V30 5786 H 551.823 -2.9628 2.75681 0
M  V30 5787 H 548.578 -1.776 4.39039 0
M  V30 5788 H 549.002 -0.617897 6.74174 0
M  V30 5789 H 553.644 -1.46722 3.96525 0
M  V30 5790 H 551.362 0.239187 8.07746 0
M  V30 5791 H 554.948 -0.444046 5.80103 0
M  V30 5792 H 553.828 0.396659 7.83196 0
M  V30 5793 N 551.331 -1.39911 -0.725443 0
M  V30 5794 C 552.577 -1.37858 -1.48738 0
M  V30 5795 C 552.91 0.0224187 -1.94187 0
M  V30 5796 O 552.185 0.989204 -1.67466 0
M  V30 5797 C 552.468 -2.3594 -2.72038 0
M  V30 5798 C 552.321 -3.85023 -2.32546 0
M  V30 5799 C 553.64 -2.31704 -3.74167 0
M  V30 5800 H 550.759 -0.502074 -0.539528 0
M  V30 5801 H 553.401 -1.70974 -0.828728 0
M  V30 5802 H 551.551 -2.0783 -3.28236 0
M  V30 5803 H 553.223 -4.2392 -1.81905 0
M  V30 5804 H 551.466 -4.01334 -1.64661 0
M  V30 5805 H 552.137 -4.49152 -3.20884 0
M  V30 5806 H 554.613 -2.5658 -3.27576 0
M  V30 5807 H 553.489 -3.02395 -4.58092 0
M  V30 5808 H 553.75 -1.3253 -4.21768 0
M  V30 5809 N 552.809 0.956637 -1.25245 0
M  V30 5810 C 553.741 2.05628 -1.01242 0
M  V30 5811 C 554.754 1.62785 0.0219579 0
M  V30 5812 O 555.943 1.77184 -0.216365 0
M  V30 5813 C 553.043 3.35069 -0.508161 0
M  V30 5814 C 552.216 4.06761 -1.60823 0
M  V30 5815 C 551.275 5.14473 -1.1047 0
M  V30 5816 O 550.301 5.40033 -1.79868 0
M  V30 5817 N 551.503 5.80474 0.0550773 0
M  V30 5818 H 554.268 2.2679 -1.95925 0
M  V30 5819 H 551.829 1.12505 -1.16423 0
M  V30 5820 H 553.821 4.044 -0.155819 0
M  V30 5821 H 552.391 3.10694 0.344683 0
M  V30 5822 H 551.611 3.31555 -2.13224 0
M  V30 5823 H 552.899 4.51418 -2.34733 0
M  V30 5824 H 552.297 5.62125 0.635004 0
M  V30 5825 H 550.854 6.50868 0.348469 0
M  V30 5826 N 554.287 1.06798 1.15896 0
M  V30 5827 C 555.535 0.786211 1.8618 0
M  V30 5828 C 555.856 -0.689547 1.82401 0
M  V30 5829 O 555.126 -1.49913 1.26107 0
M  V30 5830 H 553.706 0.287843 0.689315 0
M  V30 5831 H 556.368 1.35055 1.40521 0
M  V30 5832 H 555.464 1.1157 2.91477 0
M  V30 5833 N 555.766 -1.3263 0.851289 0
M  V30 5834 C 556.698 -2.27824 0.250757 0
M  V30 5835 C 557.711 -1.52285 -0.575598 0
M  V30 5836 O 558.9 -1.73946 -0.400638 0
M  V30 5837 C 556 -3.3232 -0.664571 0
M  V30 5838 C 555.173 -4.37221 0.125187 0
M  V30 5839 C 554.232 -5.21314 -0.715385 0
M  V30 5840 O 553.258 -5.69002 -0.150111 0
M  V30 5841 N 554.46 -5.43823 -2.03069 0
M  V30 5842 H 557.225 -2.79997 1.06873 0
M  V30 5843 H 554.786 -1.45455 0.710943 0
M  V30 5844 H 556.778 -3.85486 -1.23216 0
M  V30 5845 H 555.348 -2.80331 -1.38323 0
M  V30 5846 H 554.568 -3.84384 0.874199 0
M  V30 5847 H 555.856 -5.04399 0.667774 0
M  V30 5848 H 555.254 -5.06803 -2.51332 0
M  V30 5849 H 553.811 -5.99998 -2.54648 0
M  V30 5850 N 557.244 -0.608902 -1.45362 0
M  V30 5851 C 558.207 0.0992563 -2.28985 0
M  V30 5852 C 559.207 0.793841 -1.39838 0
M  V30 5853 O 560.397 0.641804 -1.61946 0
M  V30 5854 C 557.529 1.15073 -3.20891 0
M  V30 5855 H 558.722 -0.635964 -2.93079 0
M  V30 5856 H 556.275 -0.368007 -1.51906 0
M  V30 5857 H 557.01 1.91667 -2.616 0
M  V30 5858 H 556.795 0.656867 -3.86559 0
M  V30 5859 H 558.285 1.64665 -3.83765 0
M  V30 5860 N 558.722 1.53707 -0.348139 0
M  V30 5861 C 560.133 1.86213 0.134797 0
M  V30 5862 C 560.484 1.26925 1.49614 0
M  V30 5863 O 559.609 0.584573 2.08355 0
M  V30 5864 C 560.204 3.37866 0.251371 0
M  V30 5865 C 558.763 3.70233 0.678543 0
M  V30 5866 C 557.91 2.76683 -0.184925 0
M  V30 5867 H 560.861 1.48204 -0.567571 0
M  V30 5868 H 560.882 3.64908 1.07806 0
M  V30 5869 H 560.394 3.80988 -0.739581 0
M  V30 5870 H 558.495 3.32659 1.67835 0
M  V30 5871 H 558.608 4.76836 0.465251 0
M  V30 5872 H 556.972 2.52374 0.343465 0
M  V30 5873 H 557.755 3.22635 -1.1731 0
M  V30 5874 N 560.2 0.0768682 1.57412 0
M  V30 5875 C 561.11 -0.903207 2.16516 0
M  V30 5876 C 562.126 -1.32341 1.12968 0
M  V30 5877 O 563.302 -1.39507 1.45258 0
M  V30 5878 C 560.367 -2.1508 2.71922 0
M  V30 5879 C 559.428 -1.78653 3.90361 0
M  V30 5880 C 558.661 -2.97465 4.43114 0
M  V30 5881 O 558.884 -4.11638 3.94854 0
M  V30 5882 O 557.818 -2.76987 5.3438 0
M  V30 5883 H 561.644 -0.430427 3.00634 0
M  V30 5884 H 559.229 -0.146485 1.4868 0
M  V30 5885 H 561.111 -2.8823 3.07411 0
M  V30 5886 H 559.786 -2.61446 1.9086 0
M  V30 5887 H 558.693 -1.0274 3.59716 0
M  V30 5888 H 560.026 -1.37066 4.7273 0
M  V30 5889 N 561.678 -1.56367 -0.196722 0
M  V30 5890 C 562.625 -1.94417 -1.24382 0
M  V30 5891 C 563.595 -0.804543 -1.45315 0
M  V30 5892 O 564.78 -1.06256 -1.58475 0
M  V30 5893 C 561.92 -2.28757 -2.58388 0
M  V30 5894 C 561.033 -3.55775 -2.45047 0
M  V30 5895 C 560.168 -3.79445 -3.71746 0
M  V30 5896 C 559.207 -4.99894 -3.53231 0
M  V30 5897 N 558.344 -5.19826 -4.71938 0
M  V30 5898 H 563.184 -2.83691 -0.912338 0
M  V30 5899 H 560.721 -1.40392 -0.439135 0
M  V30 5900 H 562.679 -2.46682 -3.36457 0
M  V30 5901 H 561.309 -1.42625 -2.89582 0
M  V30 5902 H 560.361 -3.45905 -1.58284 0
M  V30 5903 H 561.673 -4.44 -2.27299 0
M  V30 5904 H 560.827 -3.97601 -4.58256 0
M  V30 5905 H 559.566 -2.89546 -3.92446 0
M  V30 5906 H 558.571 -4.81662 -2.65107 0
M  V30 5907 H 559.796 -5.913 -3.33978 0
M  V30 5908 H 557.742 -4.32875 -4.92905 0
M  V30 5909 H 557.659 -6.02228 -4.57009 0
M  V30 5910 H 558.927 -5.42439 -5.59803 0
M  V30 5911 N 563.156 0.464375 -1.50603 0
M  V30 5912 C 564.404 1.21356 -1.61608 0
M  V30 5913 C 564.725 1.92329 -0.321643 0
M  V30 5914 O 563.995 1.84403 0.661232 0
M  V30 5915 H 562.575 0.45094 -0.595535 0
M  V30 5916 H 565.237 0.535046 -1.87412 0
M  V30 5917 H 564.333 1.95783 -2.43054 0
M  V30 5918 N 564.634 1.40294 0.718013 0
M  V30 5919 C 565.564 1.43118 1.84498 0
M  V30 5920 C 566.545 0.292403 1.67568 0
M  V30 5921 O 567.73 0.500675 1.87635 0
M  V30 5922 C 564.86 1.29065 3.22427 0
M  V30 5923 C 563.814 2.40521 3.54025 0
M  V30 5924 C 563.14 2.11546 4.91073 0
M  V30 5925 C 564.44 3.82859 3.55269 0
M  V30 5926 H 566.134 2.37432 1.82391 0
M  V30 5927 H 563.68 1.14283 0.87609 0
M  V30 5928 H 565.633 1.29658 4.00957 0
M  V30 5929 H 564.357 0.312271 3.25104 0
M  V30 5930 H 563.016 2.39173 2.77834 0
M  V30 5931 H 562.664 1.12104 4.90348 0
M  V30 5932 H 562.364 2.86216 5.1318 0
M  V30 5933 H 563.888 2.13817 5.71939 0
M  V30 5934 H 565.302 3.86044 4.23843 0
M  V30 5935 H 563.699 4.57029 3.88902 0
M  V30 5936 H 564.769 4.12617 2.54706 0
M  V30 5937 N 566.112 -0.949982 1.2575 0
M  V30 5938 C 567.523 -1.50989 1.09815 0
M  V30 5939 C 567.874 -1.93497 -0.324556 0
M  V30 5940 O 566.999 -1.79068 -1.21506 0
M  V30 5941 C 567.594 -2.74394 1.98729 0
M  V30 5942 C 566.153 -3.26682 1.86965 0
M  V30 5943 C 565.3 -1.99498 1.92603 0
M  V30 5944 H 568.251 -0.766387 1.38968 0
M  V30 5945 H 568.272 -3.48383 1.53001 0
M  V30 5946 H 567.784 -2.43425 3.02268 0
M  V30 5947 H 565.885 -3.62461 0.863279 0
M  V30 5948 H 565.998 -3.94383 2.72027 0
M  V30 5949 H 564.362 -2.15005 1.36546 0
M  V30 5950 H 565.145 -1.70871 2.97755 0
M  V30 5951 N 567.59 -1.07411 -1.15328 0
M  V30 5952 C 568.818 -0.818782 -1.90009 0
M  V30 5953 C 569.233 0.628072 -1.78047 0
M  V30 5954 O 568.59 1.43085 -1.13282 0
M  V30 5955 C 568.641 -1.21874 -3.40337 0
M  V30 5956 O 568.362 -2.60883 -3.51954 0
M  V30 5957 C 569.863 -0.992796 -4.3204 0
M  V30 5958 H 567.083 -0.296007 -0.60218 0
M  V30 5959 H 569.627 -1.43073 -1.46117 0
M  V30 5960 H 567.782 -0.651103 -3.81889 0
M  V30 5961 H 568.196 -2.77216 -4.45255 0
M  V30 5962 H 569.67 -1.32215 -5.35932 0
M  V30 5963 H 570.147 0.0708331 -4.39143 0
M  V30 5964 H 570.753 -1.54537 -3.9623 0
M  V30 5965 N 569.068 1.32177 -0.85831 0
M  V30 5966 C 570.479 1.79381 -0.517621 0
M  V30 5967 C 570.83 1.70841 0.964769 0
M  V30 5968 O 569.955 1.26917 1.75274 0
M  V30 5969 C 570.55 3.25706 -0.932801 0
M  V30 5970 C 569.109 3.70851 -0.643953 0
M  V30 5971 C 568.256 2.53208 -1.13054 0
M  V30 5972 H 571.207 1.19424 -1.04516 0
M  V30 5973 H 571.228 3.79673 -0.250674 0
M  V30 5974 H 570.74 3.31889 -2.01174 0
M  V30 5975 H 568.841 3.70178 0.424112 0
M  V30 5976 H 568.954 4.63495 -1.21281 0
M  V30 5977 H 567.318 2.48676 -0.550679 0
M  V30 5978 H 568.101 2.62143 -2.21666 0
M  V30 5979 N 570.547 0.616602 1.45037 0
M  V30 5980 C 571.479 -0.135186 2.28801 0
M  V30 5981 C 572.492 -0.82303 1.40464 0
M  V30 5982 O 573.681 -0.686909 1.64754 0
M  V30 5983 C 570.781 -1.21292 3.16451 0
M  V30 5984 C 569.954 -0.61043 4.3312 0
M  V30 5985 C 569.013 -1.58022 5.01912 0
M  V30 5986 O 568.039 -1.10301 5.58411 0
M  V30 5987 N 569.241 -2.91464 5.02025 0
M  V30 5988 H 572.006 0.583612 2.93963 0
M  V30 5989 H 569.567 0.456723 1.55324 0
M  V30 5990 H 571.559 -1.86169 3.59337 0
M  V30 5991 H 570.129 -1.83412 2.53138 0
M  V30 5992 H 569.349 0.216638 3.93604 0
M  V30 5993 H 570.637 -0.188293 5.08451 0
M  V30 5994 H 570.035 -3.32829 4.57429 0
M  V30 5995 H 568.592 -3.51741 5.48745 0
M  V30 5996 N 572.025 -1.5352 0.356285 0
M  V30 5997 C 573.271 -2.01414 -0.236653 0
M  V30 5998 C 573.604 -1.24339 -1.49176 0
M  V30 5999 O 572.879 -0.334496 -1.91602 0
M  V30 6000 C 573.162 -3.56059 -0.537982 0
M  V30 6001 C 573.015 -4.43835 0.730112 0
M  V30 6002 C 574.334 -4.19127 -1.34239 0
M  V30 6003 H 571.453 -0.732135 -0.0845386 0
M  V30 6004 H 574.095 -1.83854 0.479341 0
M  V30 6005 H 572.245 -3.71153 -1.14795 0
M  V30 6006 H 573.917 -4.40555 1.36782 0
M  V30 6007 H 572.16 -4.1218 1.3524 0
M  V30 6008 H 572.831 -5.49958 0.474358 0
M  V30 6009 H 575.307 -4.07809 -0.826498 0
M  V30 6010 H 574.183 -5.27378 -1.52198 0
M  V30 6011 H 574.444 -3.74581 -2.34822 0
M  V30 6012 N 573.503 -0.0852151 -1.57369 0
M  V30 6013 C 574.433 0.874556 -2.16503 0
M  V30 6014 C 575.414 1.30111 -1.09568 0
M  V30 6015 O 576.599 1.36977 -1.37662 0
M  V30 6016 C 573.729 2.13731 -2.73745 0
M  V30 6017 C 572.683 1.84971 -3.85966 0
M  V30 6018 C 572.009 3.17991 -4.29867 0
M  V30 6019 C 573.309 1.14442 -5.09608 0
M  V30 6020 H 575.003 0.381899 -2.96954 0
M  V30 6021 H 572.549 0.18225 -1.42842 0
M  V30 6022 H 574.502 2.81302 -3.13763 0
M  V30 6023 H 573.226 2.65263 -1.90534 0
M  V30 6024 H 571.885 1.19801 -3.46473 0
M  V30 6025 H 571.533 3.6739 -3.4356 0
M  V30 6026 H 571.233 2.99534 -5.05523 0
M  V30 6027 H 572.757 3.86737 -4.72511 0
M  V30 6028 H 574.171 1.72105 -5.46857 0
M  V30 6029 H 572.568 1.06197 -5.90629 0
M  V30 6030 H 573.638 0.12559 -4.84737 0
M  V30 6031 N 574.981 1.5647 0.188427 0
M  V30 6032 C 575.913 1.91611 1.25769 0
M  V30 6033 C 576.926 0.807436 1.41366 0
M  V30 6034 O 578.115 1.08586 1.41673 0
M  V30 6035 C 575.215 2.13874 2.6289 0
M  V30 6036 C 574.388 3.45047 2.68815 0
M  V30 6037 C 573.447 3.56342 3.87178 0
M  V30 6038 O 572.473 4.29109 3.73971 0
M  V30 6039 N 573.675 2.89924 5.02916 0
M  V30 6040 H 576.44 2.8393 0.959373 0
M  V30 6041 H 574.001 1.57418 0.378306 0
M  V30 6042 H 575.993 2.18713 3.4051 0
M  V30 6043 H 574.563 1.28022 2.85183 0
M  V30 6044 H 573.783 3.52017 1.77419 0
M  V30 6045 H 575.071 4.31395 2.6977 0
M  V30 6046 H 574.469 2.30644 5.16546 0
M  V30 6047 H 573.026 3.0038 5.78459 0
M  V30 6048 N 576.459 -0.456382 1.50847 0
M  V30 6049 C 577.875 -0.791345 1.386 0
M  V30 6050 C 578.075 -1.9633 0.453498 0
M  V30 6051 O 577.131 -2.52308 -0.0984353 0
M  V30 6052 C 578.444 -1.08959 2.80265 0
M  V30 6053 C 579.992 -1.19517 2.89283 0
M  V30 6054 C 580.467 -1.52647 4.31814 0
M  V30 6055 N 581.958 -1.59609 4.34832 0
M  V30 6056 C 582.693 -1.86777 5.42127 0
M  V30 6057 N 582.189 -2.11866 6.59609 0
M  V30 6058 N 583.982 -1.88402 5.29586 0
M  V30 6059 H 576.133 0.315746 2.1004 0
M  V30 6060 H 578.396 0.0787916 0.94472 0
M  V30 6061 H 578.102 -0.301355 3.50407 0
M  V30 6062 H 577.976 -2.02211 3.18419 0
M  V30 6063 H 580.363 -1.97406 2.19351 0
M  V30 6064 H 580.444 -0.242111 2.54652 0
M  V30 6065 H 580.088 -0.752922 5.02288 0
M  V30 6066 H 580.018 -2.49127 4.63943 0
M  V30 6067 H 582.509 -1.42201 3.50125 0
M  V30 6068 H 582.822 -2.31912 7.37182 0
M  V30 6069 H 581.167 -2.09228 6.62758 0
M  V30 6070 H 584.358 -1.68307 4.36795 0
M  V30 6071 H 584.531 -2.09238 6.13289 0
M  V30 6072 N 577.937 -1.40673 -0.710563 0
M  V30 6073 C 578.885 -1.41517 -1.84596 0
M  V30 6074 C 579.879 -0.295043 -1.66811 0
M  V30 6075 O 581.085 -0.466331 -1.73854 0
M  V30 6076 H 577.46 -0.442467 -0.608052 0
M  V30 6077 H 579.431 -2.37238 -1.80999 0
M  V30 6078 C 578.18 -1.29957 -3.225 0
M  V30 6079 H 577.503 -2.15429 -3.36794 0
M  V30 6080 H 578.943 -1.34608 -4.02066 0
M  V30 6081 C 577.402 -0.0103164 -3.36898 0
M  V30 6082 O 577.932 0.950707 -3.90288 0
M  V30 6083 N 576.138 0.0608409 -2.90536 0
M  V30 6084 H 575.685 -0.721943 -2.47277 0
M  V30 6085 H 575.643 0.92292 -3.00549 0
M  V30 6086 N 579.415 0.9433 -1.26252 0
M  V30 6087 C 580.64 1.72898 -1.14547 0
M  V30 6088 C 581.065 1.85761 0.295743 0
M  V30 6089 O 580.423 1.3463 1.21427 0
M  V30 6090 C 580.471 3.11471 -1.8171 0
M  V30 6091 O 579.575 3.97336 -1.10445 0
M  V30 6092 H 578.916 0.530555 -0.399259 0
M  V30 6093 H 581.446 1.18159 -1.67032 0
M  V30 6094 H 581.456 3.61872 -1.88449 0
M  V30 6095 H 580.131 3.01425 -2.86558 0
M  V30 6096 H 578.708 3.55788 -1.11666 0
M  V30 6097 N 580.893 1.08022 1.14757 0
M  V30 6098 C 582.118 0.82895 1.90114 0
M  V30 6099 C 582.543 -0.612772 1.77839 0
M  V30 6100 O 581.901 -1.42895 1.11583 0
M  V30 6101 C 581.949 1.25062 3.38219 0
M  V30 6102 O 581.053 0.400119 4.10454 0
M  V30 6103 H 580.394 0.301412 0.591648 0
M  V30 6104 H 582.924 1.44062 1.45284 0
M  V30 6105 H 582.934 1.22977 3.89025 0
M  V30 6106 H 581.609 2.30067 3.46471 0
M  V30 6107 H 580.186 0.484052 3.69745 0
M  V30 6108 N 582.371 -1.3172 0.865308 0
M  V30 6109 C 583.599 -2.01057 0.488251 0
M  V30 6110 C 584.014 -1.64979 -0.918 0
M  V30 6111 O 583.371 -0.876597 -1.60069 0
M  V30 6112 C 583.422 -3.55964 0.630224 0
M  V30 6113 O 583.143 -3.90749 1.98109 0
M  V30 6114 C 584.644 -4.42574 0.253567 0
M  V30 6115 H 581.864 -0.64332 0.190736 0
M  V30 6116 H 584.408 -1.68058 1.16519 0
M  V30 6117 H 582.563 -3.874 0.000895422 0
M  V30 6118 H 582.977 -4.85467 1.9855 0
M  V30 6119 H 584.451 -5.50521 0.403875 0
M  V30 6120 H 584.928 -4.31724 -0.806895 0
M  V30 6121 H 585.534 -4.16547 0.858404 0
M  V30 6122 N 583.85 -0.624285 -1.44708 0
M  V30 6123 C 584.783 0.133905 -2.27807 0
M  V30 6124 C 585.76 0.857794 -1.38133 0
M  V30 6125 O 586.945 0.863277 -1.6757 0
M  V30 6126 C 584.072 1.19541 -3.16903 0
M  V30 6127 C 583.118 0.572813 -4.22636 0
M  V30 6128 S 583.951 -0.631953 -5.31758 0
M  V30 6129 C 585.106 0.429733 -6.24423 0
M  V30 6130 H 585.34 -0.571072 -2.91764 0
M  V30 6131 H 582.873 -0.412261 -1.48794 0
M  V30 6132 H 584.831 1.80293 -3.68788 0
M  V30 6133 H 583.492 1.87255 -2.5218 0
M  V30 6134 H 582.685 1.37205 -4.84965 0
M  V30 6135 H 582.287 0.0400641 -3.73979 0
M  V30 6136 H 584.579 1.30421 -6.64828 0
M  V30 6137 H 585.522 -0.157804 -7.07924 0
M  V30 6138 H 585.93 0.75256 -5.59461 0
M  V30 6139 N 585.328 1.53329 -0.364422 0
M  V30 6140 C 586.605 1.93557 0.281962 0
M  V30 6141 C 586.985 1.29786 1.6649 0
M  V30 6142 O 586.333 0.456512 2.23893 0
M  V30 6143 C 586.543 3.47405 0.333331 0
M  V30 6144 C 587.891 4.20699 0.574231 0
M  V30 6145 O 588.915 3.53779 0.414588 0
M  V30 6146 O 587.774 5.39287 0.885002 0
M  V30 6147 H 584.868 0.809573 0.168881 0
M  V30 6148 H 587.414 1.64494 -0.417121 0
M  V30 6149 H 586.186 3.86091 -0.636326 0
M  V30 6150 H 585.809 3.82697 1.07836 0
M  V30 6151 N 586.806 0.0935595 1.57322 0
M  V30 6152 C 587.736 -0.863062 2.16964 0
M  V30 6153 C 588.717 -1.29528 1.10256 0
M  V30 6154 O 589.902 -1.36245 1.38387 0
M  V30 6155 C 587.032 -2.12276 2.74875 0
M  V30 6156 C 585.986 -1.82921 3.86942 0
M  V30 6157 C 585.312 -3.15707 4.31548 0
M  V30 6158 C 586.612 -1.11737 5.10208 0
M  V30 6159 H 588.306 -0.366145 2.97153 0
M  V30 6160 H 585.852 -0.174673 1.42937 0
M  V30 6161 H 587.805 -2.79634 3.1525 0
M  V30 6162 H 586.529 -2.64248 1.91938 0
M  V30 6163 H 585.188 -1.17961 3.47103 0
M  V30 6164 H 584.836 -3.65563 3.45504 0
M  V30 6165 H 584.536 -2.96849 5.07104 0
M  V30 6166 H 586.06 -3.84226 4.74555 0
M  V30 6167 H 587.474 -1.69203 5.47762 0
M  V30 6168 H 585.871 -1.03064 5.91183 0
M  V30 6169 H 586.941 -0.0998818 4.84797 0
M  V30 6170 N 588.284 -1.56567 -0.180126 0
M  V30 6171 C 589.512 -1.85618 -0.913972 0
M  V30 6172 C 589.927 -0.677892 -1.7621 0
M  V30 6173 O 589.284 0.353171 -1.7905 0
M  V30 6174 C 589.335 -3.13619 -1.79793 0
M  V30 6175 O 589.056 -4.26906 -0.98402 0
M  V30 6176 C 590.557 -3.55954 -2.64219 0
M  V30 6177 H 587.777 -0.616043 -0.265954 0
M  V30 6178 H 590.321 -2.03681 -0.182872 0
M  V30 6179 H 588.476 -2.97409 -2.48247 0
M  V30 6180 H 588.89 -4.9989 -1.58776 0
M  V30 6181 H 590.364 -4.48444 -3.21873 0
M  V30 6182 H 590.841 -2.79653 -3.38661 0
M  V30 6183 H 591.447 -3.74746 -2.01111 0
M  V30 6184 N 589.762 0.448376 -1.51087 0
M  V30 6185 C 590.692 1.55102 -1.74544 0
M  V30 6186 C 591.673 1.59357 -0.594932 0
M  V30 6187 O 592.858 1.75261 -0.836491 0
M  V30 6188 C 589.988 2.93268 -1.86041 0
M  V30 6189 C 588.942 3.03877 -3.01402 0
M  V30 6190 C 588.268 4.43914 -2.98068 0
M  V30 6191 C 589.568 2.7898 -4.41551 0
M  V30 6192 H 591.262 1.35724 -2.66869 0
M  V30 6193 H 588.808 0.651498 -1.28419 0
M  V30 6194 H 590.761 3.70356 -2.01034 0
M  V30 6195 H 589.485 3.13853 -0.903548 0
M  V30 6196 H 588.144 2.29227 -2.86096 0
M  V30 6197 H 587.792 4.6145 -2.00182 0
M  V30 6198 H 587.492 4.51944 -3.75527 0
M  V30 6199 H 589.016 5.22991 -3.1514 0
M  V30 6200 H 590.43 3.45805 -4.57265 0
M  V30 6201 H 588.827 2.98431 -5.20633 0
M  V30 6202 H 589.897 1.74663 -4.5235 0
M  V30 6203 N 591.24 1.41047 0.703093 0
M  V30 6204 C 592.487 1.4 1.46309 0
M  V30 6205 C 592.815 0.00654574 1.94499 0
M  V30 6206 O 592.07 -0.980255 1.6938 0
M  V30 6207 C 592.369 2.34686 2.6955 0
M  V30 6208 C 592.035 3.81684 2.40058 0
M  V30 6209 C 590.697 4.21731 2.31725 0
M  V30 6210 C 593.049 4.74525 2.15581 0
M  V30 6211 C 590.377 5.52637 1.97001 0
M  V30 6212 C 592.729 6.05744 1.82366 0
M  V30 6213 C 591.393 6.44819 1.72524 0
M  V30 6214 H 590.663 0.512295 0.535382 0
M  V30 6215 H 593.31 1.73792 0.804275 0
M  V30 6216 H 591.615 1.94122 3.40329 0
M  V30 6217 H 593.312 2.31152 3.27673 0
M  V30 6218 H 589.902 3.49963 2.47435 0
M  V30 6219 H 594.086 4.44395 2.20968 0
M  V30 6220 H 589.342 5.81802 1.87928 0
M  V30 6221 H 593.516 6.77189 1.62444 0
M  V30 6222 H 591.143 7.46168 1.45385 0
M  V30 6223 N 592.718 -0.936591 1.26751 0
M  V30 6224 C 593.681 -2.01752 1.08761 0
M  V30 6225 C 594.681 -1.60763 0.0344435 0
M  V30 6226 O 595.871 -1.71963 0.278258 0
M  V30 6227 C 593.003 -3.34543 0.655271 0
M  V30 6228 H 594.196 -2.19143 2.04735 0
M  V30 6229 H 591.749 -1.11618 1.09413 0
M  V30 6230 H 592.484 -3.22851 -0.30626 0
M  V30 6231 H 592.269 -3.65647 1.41578 0
M  V30 6232 H 593.759 -4.13944 0.551378 0
M  V30 6233 N 594.196 -1.08629 -1.14182 0
M  V30 6234 C 595.159 -0.722027 -2.1753 0
M  V30 6235 C 596.159 0.244305 -1.58933 0
M  V30 6236 O 597.349 0.0235545 -1.74184 0
M  V30 6237 C 594.481 -0.0663966 -3.40835 0
M  V30 6238 H 595.674 -1.63719 -2.51269 0
M  V30 6239 H 593.227 -0.884442 -1.28869 0
M  V30 6240 H 593.962 0.860389 -3.12678 0
M  V30 6241 H 593.747 -0.761598 -3.84632 0
M  V30 6242 H 595.237 0.173346 -4.1724 0
M  V30 6243 N 595.674 1.31259 -0.872281 0
M  V30 6244 C 596.584 2.32221 -0.333255 0
M  V30 6245 C 597.6 1.6481 0.558013 0
M  V30 6246 O 598.776 1.96212 0.454175 0
M  V30 6247 C 595.841 3.43708 0.454479 0
M  V30 6248 C 594.902 4.26774 -0.465024 0
M  V30 6249 C 594.135 5.32937 0.28521 0
M  V30 6250 O 594.358 5.49968 1.513 0
M  V30 6251 O 593.292 6.00834 -0.358126 0
M  V30 6252 H 597.118 2.80252 -1.17016 0
M  V30 6253 H 594.703 1.352 -0.635724 0
M  V30 6254 H 596.585 4.11656 0.900963 0
M  V30 6255 H 595.26 2.97836 1.26789 0
M  V30 6256 H 594.167 3.61571 -0.960055 0
M  V30 6257 H 595.5 4.76217 -1.2441 0
M  V30 6258 N 597.152 0.631951 1.44375 0
M  V30 6259 C 598.115 -0.0628142 2.29114 0
M  V30 6260 C 599.115 -0.771494 1.41084 0
M  V30 6261 O 600.305 -0.615959 1.62947 0
M  V30 6262 C 597.437 -1.09953 3.22681 0
M  V30 6263 H 598.63 0.682509 2.92031 0
M  V30 6264 H 596.183 0.392128 1.51301 0
M  V30 6265 H 596.918 -1.87481 2.64616 0
M  V30 6266 H 596.703 -0.595286 3.87555 0
M  V30 6267 H 598.193 -1.58538 3.86336 0
M  V30 6268 N 598.631 -1.53133 0.372548 0
M  V30 6269 C 599.88 -2.00539 -0.216115 0
M  V30 6270 C 600.193 -1.26374 -1.49295 0
M  V30 6271 O 601.399 -1.64404 -2.16064 0
M  V30 6272 C 599.855 -3.57253 -0.435678 0
M  V30 6273 C 599.463 -4.40302 0.82693 0
M  V30 6274 C 601.207 -4.12995 -0.981618 0
M  V30 6275 C 599.114 -5.88583 0.576567 0
M  V30 6276 H 598.044 -0.749246 -0.084536 0
M  V30 6277 H 600.695 -1.76771 0.492364 0
M  V30 6278 H 599.077 -3.77202 -1.20559 0
M  V30 6279 H 600.251 -4.32124 1.60017 0
M  V30 6280 H 598.566 -3.95699 1.29659 0
M  V30 6281 H 601.163 -5.21418 -1.18436 0
M  V30 6282 H 601.506 -3.68027 -1.94581 0
M  V30 6283 H 602.039 -3.96871 -0.271696 0
M  V30 6284 H 598.778 -6.37841 1.51128 0
M  V30 6285 H 598.298 -5.99592 -0.158047 0
M  V30 6286 H 599.977 -6.46676 0.204722 0
M  V30 6287 N 600.109 -0.101901 -1.5727 0
M  V30 6288 C 601.072 0.840129 -2.13247 0
M  V30 6289 C 602.072 1.20625 -1.06331 0
M  V30 6290 O 603.262 1.13456 -1.32186 0
M  V30 6291 C 600.394 2.13372 -2.65867 0
M  V30 6292 H 601.587 0.353945 -2.97804 0
M  V30 6293 H 599.14 0.147167 -1.55606 0
M  V30 6294 H 599.875 2.66461 -1.84849 0
M  V30 6295 H 599.66 1.88085 -3.44044 0
M  V30 6296 H 601.15 2.80748 -3.09145 0
M  V30 6297 N 601.587 1.56661 0.17182 0
M  V30 6298 C 602.517 1.99401 1.21498 0
M  V30 6299 C 603.498 0.869516 1.46197 0
M  V30 6300 O 604.683 1.13556 1.57539 0
M  V30 6301 C 601.813 2.35346 2.55401 0
M  V30 6302 C 600.767 3.5075 2.45272 0
M  V30 6303 C 600.093 3.72437 3.8366 0
M  V30 6304 C 601.393 4.84216 1.95787 0
M  V30 6305 H 603.087 2.86792 0.859699 0
M  V30 6306 H 600.633 1.37977 0.412103 0
M  V30 6307 H 602.586 2.63843 3.2858 0
M  V30 6308 H 601.31 1.44864 2.92715 0
M  V30 6309 H 599.969 3.2238 1.74547 0
M  V30 6310 H 599.617 2.79246 4.18367 0
M  V30 6311 H 599.317 4.50087 3.77751 0
M  V30 6312 H 600.841 4.03334 4.58426 0
M  V30 6313 H 602.255 5.11592 2.5874 0
M  V30 6314 H 600.652 5.65498 2.00827 0
M  V30 6315 H 601.722 4.76243 0.912159 0
M  V30 6316 N 603.065 -0.440357 1.51323 0
M  V30 6317 C 604.013 -1.55492 1.72988 0
M  V30 6318 C 605.007 -1.58564 0.596138 0
M  V30 6319 O 606.213 -1.62345 0.777443 0
M  V30 6320 H 602.588 -0.516532 0.546533 0
M  V30 6321 H 604.559 -1.34392 2.66423 0
M  V30 6322 C 603.308 -2.93176 1.86931 0
M  V30 6323 H 602.631 -2.91543 2.73574 0
M  V30 6324 H 604.071 -3.70537 2.06103 0
M  V30 6325 C 602.53 -3.30988 0.628365 0
M  V30 6326 O 603.06 -4.01106 -0.218367 0
M  V30 6327 N 601.266 -2.86719 0.473339 0
M  V30 6328 H 600.813 -2.2983 1.16345 0
M  V30 6329 H 600.771 -3.12381 -0.355727 0
M  V30 6330 N 604.543 -1.41418 -0.695603 0
M  V30 6331 C 605.959 -1.23887 -1.00619 0
M  V30 6332 C 606.159 -0.128206 -2.01092 0
M  V30 6333 O 605.215 0.507408 -2.47349 0
M  V30 6334 C 606.528 -2.58816 -1.53083 0
M  V30 6335 C 608.076 -2.65998 -1.64967 0
M  V30 6336 C 608.551 -4.01244 -2.20833 0
M  V30 6337 N 610.042 -4.0309 -2.28194 0
M  V30 6338 C 610.777 -5.04539 -2.72448 0
M  V30 6339 N 610.273 -6.16378 -3.16306 0
M  V30 6340 N 612.066 -4.91901 -2.72011 0
M  V30 6341 H 604.217 -2.12379 -0.0300061 0
M  V30 6342 H 606.48 -0.944958 -0.0758797 0
M  V30 6343 H 606.186 -3.40842 -0.867147 0
M  V30 6344 H 606.06 -2.81299 -2.51298 0
M  V30 6345 H 608.447 -1.84331 -2.30448 0
M  V30 6346 H 608.528 -2.47325 -0.652982 0
M  V30 6347 H 608.172 -4.83359 -1.55968 0
M  V30 6348 H 608.102 -4.17257 -3.21254 0
M  V30 6349 H 610.593 -3.22341 -1.97242 0
M  V30 6350 H 610.906 -6.89658 -3.487 0
M  V30 6351 H 609.251 -6.19914 -3.14215 0
M  V30 6352 H 612.442 -4.03613 -2.37095 0
M  V30 6353 H 612.615 -5.71102 -3.06181 0
M  V30 6354 N 606.021 0.929856 -1.27246 0
M  V30 6355 C 606.953 2.03434 -1.0558 0
M  V30 6356 C 607.966 1.62795 -0.0125762 0
M  V30 6357 O 609.155 1.76685 -0.2539 0
M  V30 6358 C 606.255 3.33915 -0.57912 0
M  V30 6359 C 605.428 4.03259 -1.69415 0
M  V30 6360 C 604.487 5.12014 -1.21357 0
M  V30 6361 O 603.513 5.36097 -1.91282 0
M  V30 6362 N 604.715 5.8046 -0.0680622 0
M  V30 6363 H 607.48 2.22583 -2.00691 0
M  V30 6364 H 605.041 1.1001 -1.18783 0
M  V30 6365 H 607.033 4.03978 -0.241563 0
M  V30 6366 H 605.603 3.11355 0.278703 0
M  V30 6367 H 604.823 3.26958 -2.20209 0
M  V30 6368 H 606.111 4.46337 -2.44255 0
M  V30 6369 H 605.509 5.63345 0.515626 0
M  V30 6370 H 604.066 6.51461 0.210332 0
M  V30 6371 N 607.499 1.09233 1.13605 0
M  V30 6372 C 608.429 0.751738 2.21068 0
M  V30 6373 C 609.41 -0.269688 1.67948 0
M  V30 6374 O 610.595 -0.13819 1.93708 0
M  V30 6375 C 607.725 0.16935 3.46887 0
M  V30 6376 C 606.679 1.12007 4.13084 0
M  V30 6377 C 606.005 0.399483 5.33206 0
M  V30 6378 C 607.305 2.46168 4.6065 0
M  V30 6379 H 608.999 1.65024 2.49815 0
M  V30 6380 H 606.545 0.794905 1.20072 0
M  V30 6381 H 608.498 -0.0809824 4.21322 0
M  V30 6382 H 607.222 -0.764335 3.1753 0
M  V30 6383 H 605.881 1.35564 3.40614 0
M  V30 6384 H 605.529 -0.538277 5.00112 0
M  V30 6385 H 605.229 1.03337 5.78442 0
M  V30 6386 H 606.753 0.157403 6.10397 0
M  V30 6387 H 608.167 2.26829 5.26518 0
M  V30 6388 H 606.564 3.05326 5.1662 0
M  V30 6389 H 607.634 3.07076 3.75276 0
M  V30 6390 N 608.977 -1.30795 0.87923 0
M  V30 6391 C 610.202 -2.01063 0.508769 0
M  V30 6392 C 610.627 -1.65508 -0.893803 0
M  V30 6393 O 609.985 -0.868616 -1.59138 0
M  V30 6394 C 610.033 -3.54054 0.683991 0
M  V30 6395 O 609.137 -4.11498 -0.272654 0
M  V30 6396 H 608.478 -0.632786 0.201191 0
M  V30 6397 H 611.008 -1.66776 1.18519 0
M  V30 6398 H 611.018 -4.03845 0.580798 0
M  V30 6399 H 609.693 -3.79271 1.70665 0
M  V30 6400 H 608.27 -3.72695 -0.12364 0
M  V30 6401 N 610.455 -0.639598 -1.44038 0
M  V30 6402 C 611.387 0.0987684 -2.28987 0
M  V30 6403 C 612.4 0.80058 -1.41755 0
M  V30 6404 O 613.589 0.660611 -1.65826 0
M  V30 6405 C 610.689 1.16242 -3.18341 0
M  V30 6406 C 609.862 0.541447 -4.34036 0
M  V30 6407 C 608.921 1.50017 -5.04362 0
M  V30 6408 O 607.947 1.01403 -5.60095 0
M  V30 6409 N 609.149 2.83441 -5.06598 0
M  V30 6410 H 611.914 -0.630305 -2.92997 0
M  V30 6411 H 609.475 -0.481376 -1.54578 0
M  V30 6412 H 611.467 1.80429 -3.62253 0
M  V30 6413 H 610.037 1.79362 -2.56024 0
M  V30 6414 H 609.257 -0.27923 -3.9321 0
M  V30 6415 H 610.545 0.107379 -5.08687 0
M  V30 6416 H 609.943 3.2551 -4.62666 0
M  V30 6417 H 608.5 3.42966 -5.54272 0
M  V30 6418 N 611.933 1.52934 -0.380664 0
M  V30 6419 C 612.883 2.22989 0.475399 0
M  V30 6420 C 613.867 1.23058 1.03661 0
M  V30 6421 O 615.059 1.48436 0.964146 0
M  V30 6422 C 612.188 3.0338 1.60671 0
M  V30 6423 C 611.274 4.107 1.05766 0
M  V30 6424 N 611.665 5.05264 0.232837 0
M  V30 6425 C 609.963 4.25676 1.33101 0
M  V30 6426 C 610.664 5.81658 -0.0695134 0
M  V30 6427 N 609.64 5.40989 0.532144 0
M  V30 6428 H 613.442 2.93456 -0.161418 0
M  V30 6429 H 610.956 1.61291 -0.189495 0
M  V30 6430 H 612.953 3.52098 2.23232 0
M  V30 6431 H 611.613 2.34446 2.24644 0
M  V30 6432 H 612.624 5.17739 -0.129204 0
M  V30 6433 H 609.301 3.6797 1.97241 0
M  V30 6434 H 610.691 6.67843 -0.737269 0
M  V30 6435 N 613.412 0.11024 1.57214 0
M  V30 6436 C 614.322 -0.857077 2.18383 0
M  V30 6437 C 615.338 -1.29915 1.1575 0
M  V30 6438 O 616.514 -1.36394 1.48184 0
M  V30 6439 C 613.579 -2.09264 2.76423 0
M  V30 6440 C 612.64 -1.70333 3.94063 0
M  V30 6441 C 611.873 -2.87999 4.49324 0
M  V30 6442 O 612.096 -4.0317 4.03497 0
M  V30 6443 O 611.03 -2.6559 5.40135 0
M  V30 6444 H 614.856 -0.366561 3.0148 0
M  V30 6445 H 612.441 -0.114914 1.48957 0
M  V30 6446 H 614.323 -2.81644 3.13456 0
M  V30 6447 H 612.998 -2.57339 1.96363 0
M  V30 6448 H 611.905 -0.950864 3.61814 0
M  V30 6449 H 613.238 -1.27007 4.75531 0
M  V30 6450 N 614.89 -1.56749 -0.16351 0
M  V30 6451 C 615.8 -2.00255 -1.2221 0
M  V30 6452 C 616.816 -0.915194 -1.47987 0
M  V30 6453 O 617.992 -1.22342 -1.59982 0
M  V30 6454 C 615.057 -2.36035 -2.53946 0
M  V30 6455 C 614.118 -3.58637 -2.35962 0
M  V30 6456 C 613.351 -3.92701 -3.61416 0
M  V30 6457 O 613.574 -3.27632 -4.66919 0
M  V30 6458 O 612.508 -4.86019 -3.55062 0
M  V30 6459 H 616.334 -2.90586 -0.882794 0
M  V30 6460 H 613.919 -1.44721 -0.370978 0
M  V30 6461 H 615.801 -2.59982 -3.31643 0
M  V30 6462 H 614.476 -1.48863 -2.8744 0
M  V30 6463 H 613.383 -3.39898 -1.5627 0
M  V30 6464 H 614.716 -4.46374 -2.0739 0
M  V30 6465 N 616.368 0.432326 -1.51554 0
M  V30 6466 C 617.316 1.54572 -1.73811 0
M  V30 6467 C 618.31 1.58246 -0.604539 0
M  V30 6468 O 619.516 1.6193 -0.786041 0
M  V30 6469 H 615.891 0.513626 -0.549265 0
M  V30 6470 H 617.862 1.32977 -2.67132 0
M  V30 6471 C 616.611 2.92181 -1.88483 0
M  V30 6472 H 615.934 2.90088 -2.75116 0
M  V30 6473 H 617.374 3.69439 -2.08065 0
M  V30 6474 C 615.833 3.3065 -0.645909 0
M  V30 6475 O 616.363 4.01216 0.197093 0
M  V30 6476 N 614.569 2.86464 -0.488538 0
M  V30 6477 H 614.116 2.29209 -1.17562 0
M  V30 6478 H 614.074 3.12565 0.339156 0
M  V30 6479 N 617.846 1.41785 0.688094 0
M  V30 6480 C 618.756 1.46596 1.83158 0
M  V30 6481 C 619.772 0.355862 1.70322 0
M  V30 6482 O 620.948 0.604737 1.92106 0
M  V30 6483 C 618.013 1.35322 3.192 0
M  V30 6484 C 617.074 2.56711 3.4409 0
M  V30 6485 C 616.307 2.45965 4.73642 0
M  V30 6486 O 616.53 1.48827 5.50642 0
M  V30 6487 O 615.464 3.35859 4.99482 0
M  V30 6488 H 619.29 2.43083 1.82056 0
M  V30 6489 H 616.875 1.23404 0.842126 0
M  V30 6490 H 618.757 1.31347 4.00407 0
M  V30 6491 H 617.432 0.419536 3.2097 0
M  V30 6492 H 616.339 2.66262 2.62784 0
M  V30 6493 H 617.672 3.48933 3.47141 0
M  V30 6494 N 619.324 -0.923095 1.27737 0
M  V30 6495 C 620.254 -2.04124 1.13383 0
M  V30 6496 C 621.235 -1.70066 0.0340658 0
M  V30 6497 O 622.42 -1.93068 0.209383 0
M  V30 6498 C 619.55 -3.3831 0.785097 0
M  V30 6499 C 618.504 -3.86496 1.8386 0
M  V30 6500 C 617.83 -5.1754 1.34373 0
M  V30 6501 C 619.13 -4.09381 3.24353 0
M  V30 6502 H 620.824 -2.1639 2.06919 0
M  V30 6503 H 618.37 -1.03976 0.996243 0
M  V30 6504 H 620.323 -4.16016 0.671485 0
M  V30 6505 H 619.047 -3.2607 -0.185969 0
M  V30 6506 H 617.706 -3.10987 1.9412 0
M  V30 6507 H 617.354 -5.01696 0.361989 0
M  V30 6508 H 617.054 -5.50751 2.04811 0
M  V30 6509 H 618.578 -5.97811 1.24315 0
M  V30 6510 H 619.992 -4.77641 3.17067 0
M  V30 6511 H 618.389 -4.53906 3.92542 0
M  V30 6512 H 619.459 -3.14515 3.69064 0
M  V30 6513 N 620.802 -1.09834 -1.13024 0
M  V30 6514 C 621.765 -0.745058 -2.16752 0
M  V30 6515 C 622.765 0.227435 -1.59183 0
M  V30 6516 O 623.955 0.0050786 -1.74199 0
M  V30 6517 C 621.087 -0.102543 -3.40746 0
M  V30 6518 H 622.28 -1.66375 -2.49518 0
M  V30 6519 H 619.833 -0.898061 -1.27924 0
M  V30 6520 H 620.568 0.827177 -3.13573 0
M  V30 6521 H 620.353 -0.80235 -3.83803 0
M  V30 6522 H 621.843 0.129082 -4.174 0
M  V30 6523 N 622.28 1.30327 -0.886154 0
M  V30 6524 C 623.19 2.31854 -0.357866 0
M  V30 6525 C 624.206 1.65392 0.540502 0
M  V30 6526 O 625.382 1.96683 0.433339 0
M  V30 6527 C 622.447 3.44171 0.417999 0
M  V30 6528 C 621.508 4.26257 -0.510263 0
M  V30 6529 C 620.741 5.3321 0.228669 0
M  V30 6530 O 620.964 5.51542 1.45458 0
M  V30 6531 O 619.898 6.0042 -0.421832 0
M  V30 6532 H 623.724 2.78995 -1.19982 0
M  V30 6533 H 621.309 1.34518 -0.650028 0
M  V30 6534 H 623.191 4.12588 0.857251 0
M  V30 6535 H 621.866 2.99164 1.23623 0
M  V30 6536 H 620.773 3.60533 -0.99835 0
M  V30 6537 H 622.106 4.74871 -1.29454 0
M  V30 6538 N 623.758 0.647228 1.43697 0
M  V30 6539 C 624.668 -0.0487997 2.34549 0
M  V30 6540 C 625.684 -0.818586 1.53542 0
M  V30 6541 O 626.86 -0.767195 1.86215 0
M  V30 6542 C 623.925 -1.00734 3.31743 0
M  V30 6543 C 622.986 -0.23515 4.28655 0
M  V30 6544 C 622.219 -1.14803 5.21206 0
M  V30 6545 O 622.442 -2.38717 5.18045 0
M  V30 6546 O 621.376 -0.623667 5.9866 0
M  V30 6547 H 625.202 0.698863 2.9555 0
M  V30 6548 H 622.787 0.407412 1.43738 0
M  V30 6549 H 624.669 -1.55837 3.91526 0
M  V30 6550 H 623.344 -1.73534 2.73254 0
M  V30 6551 H 622.251 0.359319 3.7237 0
M  V30 6552 H 623.584 0.453152 4.9011 0
M  V30 6553 N 625.236 -1.5273 0.388769 0
M  V30 6554 C 626.647 -1.86505 -0.0853788 0
M  V30 6555 C 626.998 -1.30847 -1.46197 0
M  V30 6556 O 626.123 -0.639609 -2.06732 0
M  V30 6557 C 626.718 -3.38414 -0.161703 0
M  V30 6558 C 625.277 -3.71902 -0.580144 0
M  V30 6559 C 624.424 -2.76095 0.258218 0
M  V30 6560 H 627.375 -1.46647 0.606665 0
M  V30 6561 H 627.396 -3.67638 -0.980936 0
M  V30 6562 H 626.908 -3.78893 0.840333 0
M  V30 6563 H 625.009 -3.36992 -1.58957 0
M  V30 6564 H 625.122 -4.77902 -0.338663 0
M  V30 6565 H 623.486 -2.53195 -0.276432 0
M  V30 6566 H 624.269 -3.19411 1.25822 0
M  V30 6567 N 626.714 -0.118576 -1.57153 0
M  V30 6568 C 627.624 0.845484 -2.18835 0
M  V30 6569 C 628.64 1.29299 -1.16438 0
M  V30 6570 O 629.816 1.35607 -1.48905 0
M  V30 6571 C 626.881 2.07795 -2.77529 0
M  V30 6572 C 625.942 1.6824 -3.9496 0
M  V30 6573 C 625.175 2.85612 -4.50845 0
M  V30 6574 O 625.398 4.01025 -4.05629 0
M  V30 6575 O 624.332 2.62721 -5.41536 0
M  V30 6576 H 628.158 0.350568 -3.0167 0
M  V30 6577 H 625.743 0.107013 -1.49016 0
M  V30 6578 H 627.625 2.79978 -3.14945 0
M  V30 6579 H 626.3 2.56294 -1.97725 0
M  V30 6580 H 625.207 0.931663 -3.62313 0
M  V30 6581 H 626.54 1.24484 -4.76198 0
M  V30 6582 N 628.193 1.56834 0.155195 0
M  V30 6583 C 629.156 1.96748 1.17571 0
M  V30 6584 C 630.156 0.853006 1.3631 0
M  V30 6585 O 631.346 1.11978 1.33441 0
M  V30 6586 C 628.478 2.27631 2.53765 0
M  V30 6587 H 629.671 2.88085 0.833498 0
M  V30 6588 H 627.224 1.51141 0.398242 0
M  V30 6589 H 627.959 1.39059 2.92973 0
M  V30 6590 H 627.744 3.0888 2.41527 0
M  V30 6591 H 629.234 2.59377 3.27282 0
M  V30 6592 N 629.671 -0.424282 1.51781 0
M  V30 6593 C 630.601 -1.52305 1.7699 0
M  V30 6594 C 631.582 -1.5839 0.620209 0
M  V30 6595 O 632.767 -1.73908 0.864268 0
M  V30 6596 C 629.897 -2.90271 1.90683 0
M  V30 6597 C 628.851 -2.99043 3.06198 0
M  V30 6598 C 628.177 -4.39116 3.05092 0
M  V30 6599 C 629.477 -2.7192 4.45934 0
M  V30 6600 H 631.171 -1.31461 2.68995 0
M  V30 6601 H 628.717 -0.630985 1.29439 0
M  V30 6602 H 630.67 -3.6711 2.06901 0
M  V30 6603 H 629.394 -3.12376 0.953365 0
M  V30 6604 H 628.053 -2.24646 2.89706 0
M  V30 6605 H 627.701 -4.58207 2.07498 0
M  V30 6606 H 627.401 -4.45912 3.82669 0
M  V30 6607 H 628.925 -5.17911 3.2342 0
M  V30 6608 H 630.339 -3.38487 4.62709 0
M  V30 6609 H 628.736 -2.90111 5.25315 0
M  V30 6610 H 629.806 -1.67445 4.55072 0
M  V30 6611 N 631.149 -1.42148 -0.680565 0
M  V30 6612 C 632.112 -1.4488 -1.77602 0
M  V30 6613 C 633.112 -0.337209 -1.57224 0
M  V30 6614 O 634.302 -0.597778 -1.63622 0
M  V30 6615 C 631.434 -1.27483 -3.16166 0
M  V30 6616 H 632.627 -2.42412 -1.76568 0
M  V30 6617 H 630.18 -1.28511 -0.889645 0
M  V30 6618 H 630.915 -0.30851 -3.22829 0
M  V30 6619 H 630.7 -2.08037 -3.3236 0
M  V30 6620 H 632.19 -1.32265 -3.96101 0
M  V30 6621 N 632.627 0.916307 -1.28225 0
M  V30 6622 C 633.904 1.64429 -1.05936 0
M  V30 6623 C 634.284 2.07234 0.402139 0
M  V30 6624 O 633.632 1.81535 1.3877 0
M  V30 6625 C 633.842 2.83773 -2.03159 0
M  V30 6626 C 635.19 3.54852 -2.33164 0
M  V30 6627 O 636.214 2.93918 -2.01223 0
M  V30 6628 O 635.073 4.64663 -2.87664 0
M  V30 6629 H 632.167 0.721221 -0.404683 0
M  V30 6630 H 634.713 0.965838 -1.39534 0
M  V30 6631 H 633.485 2.49217 -3.01673 0
M  V30 6632 H 633.108 3.59333 -1.70192 0
M  V30 6633 N 634.105 1.10431 1.1244 0
M  V30 6634 C 635.353 0.845045 1.83585 0
M  V30 6635 C 635.674 -0.631168 1.84503 0
M  V30 6636 O 634.944 -1.45825 1.30813 0
M  V30 6637 H 633.524 0.309628 0.679809 0
M  V30 6638 H 636.186 1.39458 1.36153 0
M  V30 6639 H 635.282 1.20786 2.8778 0
M  V30 6640 N 635.583 -1.29855 0.893053 0
M  V30 6641 C 636.513 -2.3035 0.382249 0
M  V30 6642 C 637.494 -1.61328 -0.539203 0
M  V30 6643 O 638.679 -1.88882 -0.451342 0
M  V30 6644 C 635.809 -3.45024 -0.396983 0
M  V30 6645 C 634.763 -4.258 0.433437 0
M  V30 6646 C 634.089 -5.32605 -0.472889 0
M  V30 6647 C 635.389 -4.94549 1.67984 0
M  V30 6648 H 637.083 -2.73325 1.22205 0
M  V30 6649 H 634.629 -1.314 0.589073 0
M  V30 6650 H 636.582 -4.14398 -0.765024 0
M  V30 6651 H 635.306 -3.00875 -1.2705 0
M  V30 6652 H 633.965 -3.58125 0.783723 0
M  V30 6653 H 633.613 -4.84702 -1.34435 0
M  V30 6654 H 633.313 -5.87547 0.0789958 0
M  V30 6655 H 634.837 -6.04832 -0.837269 0
M  V30 6656 H 636.251 -5.56395 1.38192 0
M  V30 6657 H 634.648 -5.59393 2.17254 0
M  V30 6658 H 635.718 -4.20215 2.41965 0
M  V30 6659 N 637.061 -0.65484 -1.43351 0
M  V30 6660 C 638.301 -0.172514 -2.03671 0
M  V30 6661 C 638.665 1.19154 -1.50553 0
M  V30 6662 O 639.866 1.76737 -2.02528 0
M  V30 6663 C 638.137 -0.183982 -3.56926 0
M  V30 6664 S 639.696 0.230262 -4.38195 0
M  V30 6665 H 636.514 -0.0727503 -0.707268 0
M  V30 6666 H 639.116 -0.863537 -1.75395 0
M  V30 6667 H 637.82 -1.17945 -3.93087 0
M  V30 6668 H 637.351 0.527527 -3.89847 0
M  V30 6669 H 639.366 1.46874 -4.73965 0
M  V30 6670 N 638.539 1.52521 -0.396863 0
M  V30 6671 C 639.764 2.06571 0.185258 0
M  V30 6672 C 640.189 1.26605 1.39115 0
M  V30 6673 O 639.547 0.293055 1.78916 0
M  V30 6674 C 639.595 3.5674 0.526189 0
M  V30 6675 O 638.699 3.7929 1.61903 0
M  V30 6676 H 638.04 0.663712 0.0195474 0
M  V30 6677 H 640.57 1.966 -0.566519 0
M  V30 6678 H 640.58 4.00311 0.788338 0
M  V30 6679 H 639.255 4.14379 -0.355397 0
M  V30 6680 H 637.832 3.47605 1.35 0
M  V30 6681 N 640.017 0.126909 1.57088 0
M  V30 6682 C 640.95 -0.857844 2.11462 0
M  V30 6683 C 641.928 -1.25569 1.03301 0
M  V30 6684 O 643.112 -1.35535 1.31006 0
M  V30 6685 C 640.239 -2.14912 2.61784 0
M  V30 6686 C 639.285 -1.89874 3.81903 0
M  V30 6687 S 640.118 -1.10785 5.23915 0
M  V30 6688 C 641.274 -2.41075 5.7761 0
M  V30 6689 H 641.507 -0.395384 2.94659 0
M  V30 6690 H 639.04 -0.0870151 1.54155 0
M  V30 6691 H 640.998 -2.89101 2.91429 0
M  V30 6692 H 639.659 -2.58275 1.78754 0
M  V30 6693 H 638.852 -2.85572 4.15289 0
M  V30 6694 H 638.454 -1.23802 3.52915 0
M  V30 6695 H 640.746 -3.36864 5.87817 0
M  V30 6696 H 641.689 -2.12223 6.75549 0
M  V30 6697 H 642.097 -2.50804 5.05725 0
M  V30 6698 N 641.495 -1.56914 -0.146875 0
M  V30 6699 C 642.442 -1.98275 -1.18134 0
M  V30 6700 C 643.412 -0.850367 -1.42681 0
M  V30 6701 O 644.597 -1.11244 -1.55014 0
M  V30 6702 C 641.737 -2.36861 -2.5098 0
M  V30 6703 C 640.85 -3.63391 -2.33605 0
M  V30 6704 C 639.985 -3.91079 -3.59486 0
M  V30 6705 C 639.024 -5.10879 -3.37149 0
M  V30 6706 N 638.161 -5.34577 -4.55161 0
M  V30 6707 H 643.001 -2.8645 -0.821622 0
M  V30 6708 H 640.538 -1.41718 -0.394248 0
M  V30 6709 H 642.496 -2.57262 -3.28439 0
M  V30 6710 H 641.126 -1.51766 -2.84898 0
M  V30 6711 H 640.178 -3.50766 -1.47199 0
M  V30 6712 H 641.49 -4.51007 -2.13059 0
M  V30 6713 H 640.644 -4.11979 -4.45374 0
M  V30 6714 H 639.383 -3.01885 -3.83036 0
M  V30 6715 H 638.388 -4.89853 -2.49649 0
M  V30 6716 H 639.613 -6.01626 -3.14997 0
M  V30 6717 H 637.559 -4.48337 -4.78884 0
M  V30 6718 H 637.476 -6.16463 -4.37618 0
M  V30 6719 H 638.744 -5.59975 -5.42263 0
M  V30 6720 N 642.974 0.416227 -1.52004 0
M  V30 6721 C 643.904 1.51365 -1.77795 0
M  V30 6722 C 644.885 1.58059 -0.628601 0
M  V30 6723 O 646.07 1.73447 -0.873478 0
M  V30 6724 C 643.2 2.89256 -1.92219 0
M  V30 6725 C 642.154 2.97415 -3.0778 0
M  V30 6726 C 641.48 4.37492 -3.07417 0
M  V30 6727 C 642.78 2.69551 -4.47369 0
M  V30 6728 H 644.474 1.30033 -2.69688 0
M  V30 6729 H 642.02 0.624112 -1.29772 0
M  V30 6730 H 643.973 3.66008 -2.08845 0
M  V30 6731 H 642.697 3.11866 -0.969917 0
M  V30 6732 H 641.356 2.23107 -2.90893 0
M  V30 6733 H 641.004 4.571 -2.09925 0
M  V30 6734 H 640.704 4.43877 -3.85029 0
M  V30 6735 H 642.228 5.16188 -3.26162 0
M  V30 6736 H 643.642 3.36028 -4.64497 0
M  V30 6737 H 642.039 2.87321 -5.26846 0
M  V30 6738 H 643.109 1.65029 -4.55953 0
M  V30 6739 N 644.452 1.42507 0.673017 0
M  V30 6740 C 645.677 1.4668 1.46627 0
M  V30 6741 C 646.102 0.080066 1.8793 0
M  V30 6742 O 645.46 -0.921879 1.56112 0
M  V30 6743 C 645.508 2.40091 2.69051 0
M  V30 6744 O 644.612 1.8735 3.67387 0
M  V30 6745 H 643.953 0.496908 0.44043 0
M  V30 6746 H 646.483 1.87215 0.825334 0
M  V30 6747 H 646.493 2.56731 3.17101 0
M  V30 6748 H 645.168 3.4084 2.3833 0
M  V30 6749 H 643.745 1.80274 3.26429 0
M  V30 6750 N 645.93 -0.909495 1.28709 0
M  V30 6751 C 647.341 -1.47419 1.14563 0
M  V30 6752 C 647.692 -1.94432 -0.262832 0
M  V30 6753 O 646.817 -1.82842 -1.15748 0
M  V30 6754 C 647.412 -2.67933 2.07358 0
M  V30 6755 C 645.971 -3.20568 1.97264 0
M  V30 6756 C 645.118 -1.93269 1.98852 0
M  V30 6757 H 648.069 -0.721787 1.41336 0
M  V30 6758 H 648.09 -3.43339 1.64007 0
M  V30 6759 H 647.602 -2.33685 3.09859 0
M  V30 6760 H 645.703 -3.59531 0.978157 0
M  V30 6761 H 645.816 -3.85529 2.84436 0
M  V30 6762 H 644.18 -2.10553 1.43317 0
M  V30 6763 H 644.963 -1.61312 3.0304 0
M  V30 6764 N 647.408 -1.11026 -1.11852 0
M  V30 6765 C 648.819 -0.873203 -1.65021 0
M  V30 6766 C 649.17 0.595364 -1.86949 0
M  V30 6767 O 648.295 1.45645 -1.60051 0
M  V30 6768 C 648.89 -1.57859 -2.99777 0
M  V30 6769 C 647.449 -1.38807 -3.49871 0
M  V30 6770 C 646.596 -1.62403 -2.24768 0
M  V30 6771 H 649.547 -1.26712 -0.955503 0
M  V30 6772 H 649.568 -1.02111 -3.66543 0
M  V30 6773 H 649.08 -2.6474 -2.83786 0
M  V30 6774 H 647.181 -0.341163 -3.71035 0
M  V30 6775 H 647.294 -2.13421 -4.28938 0
M  V30 6776 H 645.658 -1.04714 -2.32179 0
M  V30 6777 H 646.441 -2.70549 -2.11324 0
M  V30 6778 N 648.886 1.2938 -0.899927 0
M  V30 6779 C 650.126 1.97332 -0.532871 0
M  V30 6780 C 650.49 1.69385 0.904029 0
M  V30 6781 O 651.691 2.30793 1.37797 0
M  V30 6782 C 649.962 3.47927 -0.817393 0
M  V30 6783 S 651.521 4.3528 -0.55468 0
M  V30 6784 H 648.339 0.682966 -0.197683 0
M  V30 6785 H 650.941 1.57189 -1.16241 0
M  V30 6786 H 649.645 3.65761 -1.86138 0
M  V30 6787 H 649.176 3.93006 -0.175978 0
M  V30 6788 H 651.191 4.92557 0.600182 0
M  V30 6789 N 650.364 0.662433 1.43002 0
M  V30 6790 C 651.311 -0.0235324 2.30788 0
M  V30 6791 C 652.281 -0.805342 1.4527 0
M  V30 6792 O 653.466 -0.78009 1.74124 0
M  V30 6793 C 650.606 -0.977545 3.30965 0
M  V30 6794 C 649.719 -0.190865 4.31578 0
M  V30 6795 C 648.854 -1.13951 5.18834 0
M  V30 6796 C 647.893 -0.343796 6.11134 0
M  V30 6797 N 647.03 -1.2445 6.90982 0
M  V30 6798 H 651.87 0.730921 2.88897 0
M  V30 6799 H 649.407 0.372197 1.42313 0
M  V30 6800 H 651.365 -1.54437 3.87563 0
M  V30 6801 H 649.995 -1.69877 2.74484 0
M  V30 6802 H 649.047 0.492388 3.772 0
M  V30 6803 H 650.359 0.427464 4.96965 0
M  V30 6804 H 649.513 -1.77666 5.80103 0
M  V30 6805 H 648.252 -1.79174 4.53595 0
M  V30 6806 H 647.257 0.30665 5.48944 0
M  V30 6807 H 648.482 0.304161 6.78419 0
M  V30 6808 H 646.428 -1.88336 6.28383 0
M  V30 6809 H 646.345 -0.680959 7.52927 0
M  V30 6810 H 647.613 -1.86952 7.56749 0
M  V30 6811 N 651.842 -1.52309 0.404946 0
M  V30 6812 C 653.067 -2.06666 -0.1743 0
M  V30 6813 C 653.492 -1.27341 -1.38441 0
M  V30 6814 O 652.85 -0.302539 -1.78758 0
M  V30 6815 C 652.898 -3.57014 -0.507262 0
M  V30 6816 O 652.002 -3.80144 -1.59889 0
M  V30 6817 H 651.343 -0.663807 -0.0160273 0
M  V30 6818 H 653.873 -1.96297 0.576937 0
M  V30 6819 H 653.883 -4.00724 -0.767098 0
M  V30 6820 H 652.558 -4.14184 0.377368 0
M  V30 6821 H 651.135 -3.48316 -1.33155 0
M  V30 6822 N 653.32 -0.135238 -1.57019 0
M  V30 6823 C 654.736 0.221262 -1.58059 0
M  V30 6824 C 654.936 1.65538 -1.14889 0
M  V30 6825 O 653.992 2.37985 -0.843751 0
M  V30 6826 C 655.305 -0.0268114 -3.00688 0
M  V30 6827 C 656.853 0.0378206 -3.12977 0
M  V30 6828 C 657.328 -0.182769 -4.57635 0
M  V30 6829 N 658.819 -0.129292 -4.6302 0
M  V30 6830 C 659.554 -0.274648 -5.72742 0
M  V30 6831 N 659.05 -0.477075 -6.91155 0
M  V30 6832 N 660.843 -0.213077 -5.61696 0
M  V30 6833 H 652.994 -1.07177 -1.83376 0
M  V30 6834 H 655.257 -0.423338 -0.848227 0
M  V30 6835 H 654.963 -1.01889 -3.36618 0
M  V30 6836 H 654.837 0.697863 -3.70688 0
M  V30 6837 H 657.224 1.02043 -2.76896 0
M  V30 6838 H 657.305 -0.718996 -2.45487 0
M  V30 6839 H 656.949 -1.16243 -4.94419 0
M  V30 6840 H 656.879 0.59423 -5.23237 0
M  V30 6841 H 659.37 0.0229896 -3.77893 0
M  V30 6842 H 659.683 -0.578413 -7.70632 0
M  V30 6843 H 658.028 -0.513252 -6.93102 0
M  V30 6844 H 661.219 -0.0557796 -4.68067 0
M  V30 6845 H 661.392 -0.329796 -6.4716 0
M  V30 6846 N 654.798 1.5699 0.138552 0
M  V30 6847 C 655.728 2.01933 1.17241 0
M  V30 6848 C 656.709 0.90033 1.44319 0
M  V30 6849 O 657.894 1.16872 1.55095 0
M  V30 6850 C 655.024 2.40711 2.50351 0
M  V30 6851 C 653.978 3.55874 2.37776 0
M  V30 6852 C 653.304 3.80491 3.75674 0
M  V30 6853 C 654.604 4.8826 1.85472 0
M  V30 6854 H 656.298 2.88551 0.798672 0
M  V30 6855 H 653.844 1.3882 0.382743 0
M  V30 6856 H 655.797 2.70754 3.22909 0
M  V30 6857 H 654.521 1.5104 2.89576 0
M  V30 6858 H 653.18 3.2601 1.67669 0
M  V30 6859 H 652.828 2.88057 4.12349 0
M  V30 6860 H 652.528 4.57998 3.68119 0
M  V30 6861 H 654.052 4.12967 4.49767 0
M  V30 6862 H 655.466 5.16965 2.4783 0
M  V30 6863 H 653.863 5.69631 1.88787 0
M  V30 6864 H 654.933 4.78071 0.810935 0
M  V30 6865 N 656.276 -0.40816 1.52223 0
M  V30 6866 C 657.239 -1.48 1.7501 0
M  V30 6867 C 658.239 -1.48367 0.619996 0
M  V30 6868 O 659.429 -1.49874 0.887881 0
M  V30 6869 C 656.561 -2.87403 1.83336 0
M  V30 6870 H 657.754 -1.29086 2.70697 0
M  V30 6871 H 655.307 -0.638715 1.42654 0
M  V30 6872 H 656.042 -3.11686 0.895677 0
M  V30 6873 H 655.827 -2.8854 2.65494 0
M  V30 6874 H 657.317 -3.65103 2.02705 0
M  V30 6875 N 657.755 -1.42862 -0.66545 0
M  V30 6876 C 659.171 -1.25993 -0.979687 0
M  V30 6877 C 659.371 -0.170831 -2.00775 0
M  V30 6878 O 658.427 0.454827 -2.4837 0
M  V30 6879 C 659.74 -2.62005 -1.47559 0
M  V30 6880 C 661.288 -2.69437 -1.59288 0
M  V30 6881 C 661.763 -4.05838 -2.12272 0
M  V30 6882 N 663.254 -4.0784 -2.19592 0
M  V30 6883 C 663.989 -5.10205 -2.61684 0
M  V30 6884 N 663.485 -6.22949 -3.03161 0
M  V30 6885 N 665.278 -4.9756 -2.61516 0
M  V30 6886 H 657.429 -2.12395 0.0150493 0
M  V30 6887 H 659.692 -0.946355 -0.0558187 0
M  V30 6888 H 659.398 -3.42605 -0.794654 0
M  V30 6889 H 659.272 -2.86566 -2.45275 0
M  V30 6890 H 661.659 -1.89178 -2.26486 0
M  V30 6891 H 661.74 -2.48655 -0.600374 0
M  V30 6892 H 661.384 -4.86559 -1.4568 0
M  V30 6893 H 661.314 -4.23977 -3.12331 0
M  V30 6894 H 663.805 -3.26452 -1.90361 0
M  V30 6895 H 664.118 -6.96899 -3.33993 0
M  V30 6896 H 662.463 -6.2644 -3.00995 0
M  V30 6897 H 665.654 -4.08551 -2.28481 0
M  V30 6898 H 665.827 -5.77468 -2.93999 0
M  V30 6899 N 659.233 0.902656 -1.29189 0
M  V30 6900 C 660.649 1.18296 -1.07137 0
M  V30 6901 C 660.849 2.00701 0.179223 0
M  V30 6902 O 659.905 2.3675 0.877812 0
M  V30 6903 C 661.218 1.90677 -2.32514 0
M  V30 6904 C 662.766 2.03515 -2.37804 0
M  V30 6905 C 663.241 2.79307 -3.62976 0
M  V30 6906 N 664.732 2.86862 -3.63681 0
M  V30 6907 C 665.467 3.46035 -4.57217 0
M  V30 6908 N 664.963 4.06399 -5.61081 0
M  V30 6909 N 666.756 3.43681 -4.44792 0
M  V30 6910 H 658.907 0.352765 -2.0945 0
M  V30 6911 H 661.17 0.21876 -0.922414 0
M  V30 6912 H 660.876 1.3756 -3.23682 0
M  V30 6913 H 660.75 2.91169 -2.39793 0
M  V30 6914 H 663.137 2.55809 -1.47125 0
M  V30 6915 H 663.218 1.02166 -2.34512 0
M  V30 6916 H 662.862 2.2769 -4.54004 0
M  V30 6917 H 662.792 3.80995 -3.63525 0
M  V30 6918 H 665.283 2.43987 -2.88581 0
M  V30 6919 H 665.596 4.49564 -6.2858 0
M  V30 6920 H 663.941 4.0487 -5.64894 0
M  V30 6921 H 667.132 2.9574 -3.62843 0
M  V30 6922 H 667.305 3.89503 -5.17872 0
M  V30 6923 N 660.711 1.11618 1.11262 0
M  V30 6924 C 662.127 0.850468 1.35053 0
M  V30 6925 C 662.327 -0.523868 1.94571 0
M  V30 6926 O 661.383 -1.2743 2.17986 0
M  V30 6927 C 662.696 1.96005 2.28041 0
M  V30 6928 C 664.244 1.98993 2.416 0
M  V30 6929 C 664.719 3.0916 3.37911 0
M  V30 6930 N 666.21 3.08547 3.45475 0
M  V30 6931 C 666.945 3.9043 4.19943 0
M  V30 6932 N 666.441 4.8228 4.97371 0
M  V30 6933 N 668.234 3.786 4.15474 0
M  V30 6934 H 660.385 2.00184 0.709932 0
M  V30 6935 H 662.648 0.870635 0.375099 0
M  V30 6936 H 662.354 2.9499 1.91503 0
M  V30 6937 H 662.228 1.85782 3.28275 0
M  V30 6938 H 664.615 1.00633 2.77411 0
M  V30 6939 H 664.696 2.13292 1.4121 0
M  V30 6940 H 664.34 4.07748 3.02827 0
M  V30 6941 H 664.27 2.92102 4.3816 0
M  V30 6942 H 666.761 2.42 2.90249 0
M  V30 6943 H 667.074 5.41289 5.51567 0
M  V30 6944 H 665.419 4.863 4.96525 0
M  V30 6945 H 668.61 3.06185 3.54074 0
M  V30 6946 H 668.783 4.42647 4.73253 0
M  V30 6947 N 662.189 -1.289 0.906776 0
M  V30 6948 C 663.152 -2.25777 0.394656 0
M  V30 6949 C 664.152 -1.53621 -0.475119 0
M  V30 6950 O 665.342 -1.71949 -0.279165 0
M  V30 6951 C 662.474 -3.38113 -0.43499 0
M  V30 6952 H 663.667 -2.72592 1.25033 0
M  V30 6953 H 661.22 -1.40463 0.685547 0
M  V30 6954 H 661.955 -2.96648 -1.31036 0
M  V30 6955 H 661.74 -3.91647 0.188334 0
M  V30 6956 H 663.23 -4.10168 -0.784365 0
M  V30 6957 N 663.667 -0.670007 -1.42649 0
M  V30 6958 C 664.597 -0.00258501 -2.335 0
M  V30 6959 C 665.578 0.794364 -1.50412 0
M  V30 6960 O 666.763 0.75248 -1.79029 0
M  V30 6961 C 663.893 0.952748 -3.33976 0
M  V30 6962 C 662.847 0.264733 -4.2718 0
M  V30 6963 C 662.173 1.33267 -5.17826 0
M  V30 6964 C 663.473 -0.853289 -5.15283 0
M  V30 6965 H 665.167 -0.761326 -2.89559 0
M  V30 6966 H 662.713 -0.367561 -1.3923 0
M  V30 6967 H 664.666 1.4287 -3.96442 0
M  V30 6968 H 663.39 1.74285 -2.7621 0
M  V30 6969 H 662.049 -0.190938 -3.66102 0
M  V30 6970 H 661.697 2.11464 -4.5639 0
M  V30 6971 H 661.397 0.877476 -5.81011 0
M  V30 6972 H 662.921 1.80965 -5.83167 0
M  V30 6973 H 664.335 -0.458763 -5.71462 0
M  V30 6974 H 662.732 -1.23398 -5.87276 0
M  V30 6975 H 663.802 -1.70412 -4.53969 0
M  V30 6976 N 665.145 1.52092 -0.413018 0
M  V30 6977 C 666.108 2.25706 0.398687 0
M  V30 6978 C 667.108 1.28221 0.970368 0
M  V30 6979 O 668.298 1.52131 0.848635 0
M  V30 6980 C 665.43 3.03029 1.5616 0
M  V30 6981 H 666.623 2.98888 -0.246131 0
M  V30 6982 H 664.176 1.5542 -0.165622 0
M  V30 6983 H 664.911 2.34205 2.24317 0
M  V30 6984 H 664.696 3.74606 1.15812 0
M  V30 6985 H 666.186 3.58857 2.13569 0
M  V30 6986 N 666.623 0.143563 1.56945 0
M  V30 6987 C 667.555 -0.828353 2.13708 0
M  V30 6988 C 668.568 -1.21313 1.08568 0
M  V30 6989 O 669.757 -1.1578 1.35857 0
M  V30 6990 C 666.857 -2.12248 2.64204 0
M  V30 6991 C 666.03 -1.90561 3.93707 0
M  V30 6992 C 665.089 -3.03931 4.29549 0
M  V30 6993 O 664.115 -2.75772 4.97934 0
M  V30 6994 N 665.317 -4.31016 3.88852 0
M  V30 6995 H 668.082 -0.343242 2.97728 0
M  V30 6996 H 665.643 -0.0401152 1.6185 0
M  V30 6997 H 667.635 -2.87132 2.85197 0
M  V30 6998 H 666.205 -2.52033 1.84928 0
M  V30 6999 H 665.425 -0.997327 3.81375 0
M  V30 7000 H 666.713 -1.73405 4.78339 0
M  V30 7001 H 666.111 -4.56762 3.33743 0
M  V30 7002 H 664.668 -5.02691 4.14903 0
M  V30 7003 N 668.101 -1.57061 -0.130224 0
M  V30 7004 C 669.064 -1.98593 -1.14426 0
M  V30 7005 C 670.064 -0.874584 -1.34936 0
M  V30 7006 O 671.254 -1.14086 -1.31643 0
M  V30 7007 C 668.386 -2.31639 -2.50112 0
M  V30 7008 H 669.579 -2.89374 -0.787561 0
M  V30 7009 H 667.132 -1.51756 -0.374146 0
M  V30 7010 H 667.867 -1.43703 -2.90723 0
M  V30 7011 H 667.652 -3.12684 -2.36583 0
M  V30 7012 H 669.142 -2.64551 -3.23114 0
M  V30 7013 N 669.579 0.400081 -1.52437 0
M  V30 7014 C 670.827 1.14392 -1.6661 0
M  V30 7015 C 671.148 1.90792 -0.402927 0
M  V30 7016 O 670.418 1.87042 0.582425 0
M  V30 7017 H 668.998 0.425275 -0.614125 0
M  V30 7018 H 671.66 0.455076 -1.89513 0
M  V30 7019 H 670.756 1.85298 -2.51139 0
M  V30 7020 N 671.057 1.43213 0.657864 0
M  V30 7021 C 672.473 1.26511 0.972992 0
M  V30 7022 C 672.673 0.181477 2.00681 0
M  V30 7023 O 671.729 -0.441649 2.48608 0
M  V30 7024 C 673.042 2.62784 1.46168 0
M  V30 7025 C 674.59 2.70278 1.57857 0
M  V30 7026 C 675.065 4.06958 2.10117 0
M  V30 7027 N 676.556 4.08999 2.17426 0
M  V30 7028 C 677.291 5.11585 2.58975 0
M  V30 7029 N 676.787 6.24548 2.99853 0
M  V30 7030 N 678.58 4.9894 2.58873 0
M  V30 7031 H 670.731 2.12384 -0.0263129 0
M  V30 7032 H 672.994 0.946638 0.0507992 0
M  V30 7033 H 672.7 3.43022 0.776474 0
M  V30 7034 H 672.574 2.87863 2.43751 0
M  V30 7035 H 674.961 1.90376 2.25479 0
M  V30 7036 H 675.042 2.4897 0.587179 0
M  V30 7037 H 674.686 4.87325 1.43098 0
M  V30 7038 H 674.616 4.25628 3.10078 0
M  V30 7039 H 677.107 3.27457 1.88627 0
M  V30 7040 H 677.42 6.98661 3.30292 0
M  V30 7041 H 675.765 6.28027 2.97669 0
M  V30 7042 H 678.956 4.09757 2.26311 0
M  V30 7043 H 679.129 5.79019 2.90932 0
M  V30 7044 N 672.536 -0.895792 1.29666 0
M  V30 7045 C 673.784 -1.64339 1.17631 0
M  V30 7046 C 674.105 -1.93099 -0.271643 0
M  V30 7047 O 673.375 -1.55981 -1.18518 0
M  V30 7048 H 671.955 -0.609162 0.432354 0
M  V30 7049 H 674.617 -1.07389 1.62646 0
M  V30 7050 H 673.713 -2.59815 1.72924 0
M  V30 7051 N 674.014 -1.12206 -1.10668 0
M  V30 7052 C 674.924 -0.800686 -2.20513 0
M  V30 7053 C 675.94 0.209512 -1.72734 0
M  V30 7054 O 677.116 0.043705 -2.01353 0
M  V30 7055 C 674.181 -0.257353 -3.45744 0
M  V30 7056 C 673.242 -1.32718 -4.0827 0
M  V30 7057 C 672.475 -0.809674 -5.27522 0
M  V30 7058 O 672.698 0.35742 -5.69279 0
M  V30 7059 O 671.632 -1.57816 -5.80842 0
M  V30 7060 H 675.458 -1.71807 -2.50432 0
M  V30 7061 H 673.043 -0.898546 -1.19359 0
M  V30 7062 H 674.925 0.0408849 -4.2138 0
M  V30 7063 H 673.6 0.632627 -3.17458 0
M  V30 7064 H 672.507 -1.67855 -3.34329 0
M  V30 7065 H 673.84 -2.19083 -4.40753 0
M  V30 7066 N 675.492 1.28418 -0.913599 0
M  V30 7067 C 676.769 1.89977 -0.465619 0
M  V30 7068 C 677.149 1.82813 1.05559 0
M  V30 7069 O 676.497 1.26397 1.90358 0
M  V30 7070 C 676.707 3.34492 -0.995813 0
M  V30 7071 C 678.055 4.11468 -1.04782 0
M  V30 7072 O 679.079 3.43451 -0.944445 0
M  V30 7073 O 677.938 5.33046 -1.20518 0
M  V30 7074 H 675.032 0.813734 -0.147532 0
M  V30 7075 H 677.578 1.36786 -1.00437 0
M  V30 7076 H 676.35 3.33929 -2.03978 0
M  V30 7077 H 675.973 3.95181 -0.437878 0
M  V30 7078 N 676.97 0.677563 1.42291 0
M  V30 7079 C 678.386 0.347376 1.55774 0
M  V30 7080 C 678.586 -1.14703 1.65667 0
M  V30 7081 O 677.642 -1.93252 1.62512 0
M  V30 7082 C 678.955 1.08011 2.80631 0
M  V30 7083 C 680.503 1.06271 2.94407 0
M  V30 7084 C 680.978 1.77683 4.22129 0
M  V30 7085 N 682.469 1.74564 4.29047 0
M  V30 7086 C 683.204 2.26673 5.26694 0
M  V30 7087 N 682.7 2.87176 6.30477 0
M  V30 7088 N 684.493 2.17032 5.18511 0
M  V30 7089 H 676.644 1.64703 1.34114 0
M  V30 7090 H 678.907 0.694038 0.645768 0
M  V30 7091 H 678.613 2.13518 2.79469 0
M  V30 7092 H 678.487 0.647115 3.71608 0
M  V30 7093 H 680.874 0.0159658 2.95096 0
M  V30 7094 H 680.955 1.53461 2.04654 0
M  V30 7095 H 680.599 2.82327 4.22201 0
M  V30 7096 H 680.529 1.2794 5.10822 0
M  V30 7097 H 683.02 1.30436 3.54676 0
M  V30 7098 H 683.333 3.24551 7.01346 0
M  V30 7099 H 681.678 2.91247 6.31031 0
M  V30 7100 H 684.869 1.69451 4.36353 0
M  V30 7101 H 685.042 2.57948 5.94446 0
M  V30 7102 N 678.448 -1.51871 0.421078 0
M  V30 7103 C 679.673 -2.0684 -0.152371 0
M  V30 7104 C 680.098 -1.28802 -1.37083 0
M  V30 7105 O 679.456 -0.321482 -1.78427 0
M  V30 7106 C 679.504 -3.57532 -0.469368 0
M  V30 7107 O 678.608 -3.81818 -1.55848 0
M  V30 7108 H 677.949 -0.663939 -0.00898586 0
M  V30 7109 H 680.479 -1.95674 0.597724 0
M  V30 7110 H 680.489 -4.01515 -0.724553 0
M  V30 7111 H 679.164 -4.13761 0.421276 0
M  V30 7112 H 677.741 -3.49709 -1.29453 0
M  V30 7113 N 679.926 -0.151884 -1.56866 0
M  V30 7114 C 681.337 0.368128 -1.83035 0
M  V30 7115 C 681.688 1.64402 -1.07082 0
M  V30 7116 O 680.813 2.14056 -0.317647 0
M  V30 7117 C 681.408 0.674676 -3.32014 0
M  V30 7118 C 679.967 1.13919 -3.58747 0
M  V30 7119 C 679.114 0.164833 -2.7681 0
M  V30 7120 H 682.065 -0.376499 -1.54169 0
M  V30 7121 H 682.086 1.52883 -3.48435 0
M  V30 7122 H 681.598 -0.254113 -3.87267 0
M  V30 7123 H 679.699 2.08375 -3.08886 0
M  V30 7124 H 679.812 1.06179 -4.67186 0
M  V30 7125 H 678.176 0.658419 -2.46043 0
M  V30 7126 H 678.959 -0.757633 -3.34836 0
M  V30 7127 N 681.404 1.57128 0.121893 0
M  V30 7128 C 682.815 1.73902 0.679348 0
M  V30 7129 C 683.166 0.770135 1.80453 0
M  V30 7130 O 682.291 -0.0576083 2.16323 0
M  V30 7131 C 682.886 3.15328 1.2391 0
M  V30 7132 C 681.445 3.33618 1.74288 0
M  V30 7133 C 680.592 2.6978 0.641414 0
M  V30 7134 H 683.543 1.58359 -0.104 0
M  V30 7135 H 683.564 3.16718 2.10879 0
M  V30 7136 H 683.076 3.85821 0.419957 0
M  V30 7137 H 681.177 2.68162 2.58689 0
M  V30 7138 H 681.29 4.4176 1.85432 0
M  V30 7139 H 679.654 2.30935 1.0743 0
M  V30 7140 H 680.437 3.42895 -0.166707 0
M  V30 7141 N 682.882 -0.391992 1.52647 0
M  V30 7142 C 684.11 -1.1586 1.71418 0
M  V30 7143 C 684.525 -1.8381 0.431216 0
M  V30 7144 O 683.882 -1.7256 -0.594085 0
M  V30 7145 C 683.933 -2.20888 2.86165 0
M  V30 7146 O 683.654 -1.5571 4.09495 0
M  V30 7147 C 685.155 -3.103 3.1659 0
M  V30 7148 H 682.375 -0.347494 0.574011 0
M  V30 7149 H 684.919 -0.458972 1.99283 0
M  V30 7150 H 683.074 -2.86492 2.6077 0
M  V30 7151 H 683.488 -2.25474 4.73563 0
M  V30 7152 H 684.962 -3.8003 4.00351 0
M  V30 7153 H 685.439 -3.73639 2.30848 0
M  V30 7154 H 686.045 -2.50345 3.43813 0
M  V30 7155 N 684.36 -1.4356 -0.65026 0
M  V30 7156 C 685.323 -1.48615 -1.74489 0
M  V30 7157 C 686.323 -0.370483 -1.56474 0
M  V30 7158 O 687.513 -0.632351 -1.62317 0
M  V30 7159 C 684.645 -1.34161 -3.13391 0
M  V30 7160 H 685.838 -2.46103 -1.71387 0
M  V30 7161 H 683.391 -1.30369 -0.862186 0
M  V30 7162 H 684.126 -0.376918 -3.22102 0
M  V30 7163 H 683.911 -2.1504 -3.27872 0
M  V30 7164 H 685.401 -1.40637 -3.93206 0
M  V30 7165 N 685.838 0.888903 -1.30139 0
M  V30 7166 C 686.768 2.01046 -1.18755 0
M  V30 7167 C 687.749 1.69916 -0.0791438 0
M  V30 7168 O 688.934 1.92445 -0.260498 0
M  V30 7169 C 686.064 3.36109 -0.874518 0
M  V30 7170 C 685.018 3.81486 -1.94043 0
M  V30 7171 C 684.344 5.13796 -1.48047 0
M  V30 7172 C 685.644 4.00637 -3.35093 0
M  V30 7173 H 687.338 2.10828 -2.12584 0
M  V30 7174 H 684.884 1.01298 -1.02346 0
M  V30 7175 H 686.837 4.14089 -0.781548 0
M  V30 7176 H 685.561 3.26449 0.0994519 0
M  V30 7177 H 684.22 3.05731 -2.02297 0
M  V30 7178 H 683.868 5.0056 -0.494878 0
M  V30 7179 H 683.568 5.45127 -2.19341 0
M  V30 7180 H 685.092 5.94305 -1.40121 0
M  V30 7181 H 686.506 4.69067 -3.2962 0
M  V30 7182 H 684.903 4.43339 -4.04438 0
M  V30 7183 H 685.973 3.0462 -3.77273 0
M  V30 7184 O 687.355 1.24817 1.02483 0
M  V30 7185 H 688.046 1.02783 1.64181 0
M  V30 END ATOM
M  V30 BEGIN BOND
M  V30 END BOND
M  V30 END CTAB
M  END
$$$$
