drugbank_target|Q9BUP3 Oxidoreductase HTATIP2 (DB11077)
 OpenBabel12092120223D

  0  0  0     0  0            999 V3000
M  V30 BEGIN CTAB
M  V30 COUNTS 3821 3854 0 0 0
M  V30 BEGIN ATOM
M  V30 1 H -0.908 1.98254 -0.117106 0
M  V30 2 N 0 1.576 0 0
M  V30 3 C 0.933 2.03868 1.02534 0
M  V30 4 C 1.911 0.928543 1.3348 0
M  V30 5 O 3.095 1.19667 1.45644 0
M  V30 6 C 0.222 2.43627 2.35294 0
M  V30 7 C -0.732 3.65373 2.2001 0
M  V30 8 S 0.101 5.13292 1.52614 0
M  V30 9 C 1.257 5.56322 2.86805 0
M  V30 10 H 1.49 2.90518 0.631377 0
M  V30 11 H -0.977 1.52953 0.210867 0
M  V30 12 H 0.981 2.67203 3.11629 0
M  V30 13 H -0.358 1.57376 2.7183 0
M  V30 14 H -1.165 3.90944 3.18086 0
M  V30 15 H -1.563 3.418 1.51819 0
M  V30 16 H 0.729 5.58782 3.83104 0
M  V30 17 H 1.672 6.56266 2.65933 0
M  V30 18 H 2.08 4.83886 2.90714 0
M  V30 19 N 1.4781 -0.272755 1.55222 0
M  V30 20 C 2.4411 -1.32041 1.87344 0
M  V30 21 C 3.4411 -1.42342 0.74803 0
M  V30 22 O 4.6311 -1.41488 1.0162 0
M  V30 23 C 1.7631 -2.70173 2.07893 0
M  V30 24 H 2.9561 -1.04789 2.80997 0
M  V30 25 H 0.5091 -0.51083 1.47717 0
M  V30 26 H 1.2441 -3.02605 1.16622 0
M  V30 27 H 1.0291 -2.64082 2.89833 0
M  V30 28 H 2.5191 -3.45869 2.34017 0
M  V30 29 N 2.9562 -1.48159 -0.537278 0
M  V30 30 C 3.8662 -1.64807 -1.6696 0
M  V30 31 C 4.8822 -0.530651 -1.65711 0
M  V30 32 O 6.0582 -0.800784 -1.84796 0
M  V30 33 C 3.1232 -1.67708 -3.03438 0
M  V30 34 C 2.1842 -2.91025 -3.156 0
M  V30 35 C 1.4172 -2.93778 -4.45567 0
M  V30 36 O 1.6402 -2.05153 -5.3223 0
M  V30 37 O 0.5742 -3.85868 -4.61941 0
M  V30 38 H 4.4002 -2.6066 -1.55853 0
M  V30 39 H 1.9852 -1.31475 -0.709549 0
M  V30 40 H 3.8672 -1.7218 -3.84619 0
M  V30 41 H 2.5422 -0.750278 -3.14885 0
M  V30 42 H 1.4492 -2.92089 -2.33741 0
M  V30 43 H 2.7822 -3.83065 -3.09066 0
M  V30 44 N 4.4343 0.785586 -1.36625 0
M  V30 45 C 5.6623 1.57448 -1.3423 0
M  V30 46 C 6.0773 1.88649 0.0755653 0
M  V30 47 O 5.4343 1.50414 1.03354 0
M  V30 48 C 5.4853 2.89316 -2.16745 0
M  V30 49 O 5.2063 2.59459 -3.53005 0
M  V30 50 C 6.7073 3.83606 -2.22174 0
M  V30 51 H 3.9273 0.488226 -0.4603 0
M  V30 52 H 6.4713 0.974733 -1.79775 0
M  V30 53 H 4.6263 3.4575 -1.74745 0
M  V30 54 H 5.0403 3.43804 -3.96105 0
M  V30 55 H 6.5143 4.73181 -2.8426 0
M  V30 56 H 6.9913 4.21734 -1.22627 0
M  V30 57 H 7.5973 3.33104 -2.64427 0
M  V30 58 N 5.9124 1.20967 1.01018 0
M  V30 59 C 6.8224 0.980157 2.13143 0
M  V30 60 C 7.8384 -0.0660665 1.73875 0
M  V30 61 O 9.0144 0.122821 2.01025 0
M  V30 62 C 6.0794 0.54216 3.42435 0
M  V30 63 C 5.1404 1.65999 3.95908 0
M  V30 64 C 4.3734 1.2428 5.19028 0
M  V30 65 O 4.5964 0.114196 5.70286 0
M  V30 66 O 3.5304 2.05271 5.65816 0
M  V30 67 H 7.3564 1.91913 2.35379 0
M  V30 68 H 4.9414 0.994099 1.11526 0
M  V30 69 H 6.8234 0.30744 4.20277 0
M  V30 70 H 5.4984 -0.36815 3.216 0
M  V30 71 H 4.4054 1.94906 3.19316 0
M  V30 72 H 5.7384 2.54753 4.21143 0
M  V30 73 N 7.3905 -1.2043 1.01659 0
M  V30 74 C 8.3535 -2.21433 0.591616 0
M  V30 75 C 9.3535 -1.57203 -0.338226 0
M  V30 76 O 10.5435 -1.73737 -0.126918 0
M  V30 77 C 7.6755 -3.40628 -0.136058 0
M  V30 78 H 8.8685 -2.60545 1.48514 0
M  V30 79 H 6.4215 -1.33893 0.806379 0
M  V30 80 H 7.1565 -3.07019 -1.04449 0
M  V30 81 H 6.9415 -3.88475 0.531917 0
M  V30 82 H 8.4315 -4.15475 -0.420735 0
M  V30 83 N 8.8686 -0.792821 -1.36206 0
M  V30 84 C 9.7986 -0.207853 -2.32573 0
M  V30 85 C 10.7796 0.659055 -1.56813 0
M  V30 86 O 11.9646 0.592176 -1.84951 0
M  V30 87 C 9.0946 0.655449 -3.41059 0
M  V30 88 C 8.0486 -0.111842 -4.27854 0
M  V30 89 C 7.3746 0.872274 -5.27537 0
M  V30 90 C 8.6746 -1.30299 -5.05786 0
M  V30 91 H 10.3686 -1.01294 -2.81744 0
M  V30 92 H 7.9146 -0.48854 -1.3546 0
M  V30 93 H 9.8676 1.07464 -4.07467 0
M  V30 94 H 8.5916 1.49328 -2.90463 0
M  V30 95 H 7.2506 -0.512053 -3.63006 0
M  V30 96 H 6.8986 1.70523 -4.73214 0
M  V30 97 H 6.5986 0.363291 -5.86476 0
M  V30 98 H 8.1226 1.28996 -5.96818 0
M  V30 99 H 9.5366 -0.959379 -5.65216 0
M  V30 100 H 7.9336 -1.7455 -5.74154 0
M  V30 101 H 9.0036 -2.09663 -4.37229 0
M  V30 102 N 10.3467 1.47872 -0.545128 0
M  V30 103 C 11.5717 2.07391 -0.0190611 0
M  V30 104 C 11.9967 1.39688 1.25971 0
M  V30 105 O 11.3547 0.467816 1.7516 0
M  V30 106 C 11.4027 3.60188 0.172335 0
M  V30 107 O 10.5067 3.9339 1.23766 0
M  V30 108 H 9.8477 0.662411 -0.0459059 0
M  V30 109 H 12.3777 1.90066 -0.757365 0
M  V30 110 H 12.3877 4.06129 0.390305 0
M  V30 111 H 11.0627 4.08865 -0.761725 0
M  V30 112 H 9.6397 3.5921 1.00114 0
M  V30 113 N 11.8248 0.280983 1.55075 0
M  V30 114 C 12.7718 -0.603937 2.22758 0
M  V30 115 C 13.7418 -1.1452 1.20309 0
M  V30 116 O 14.9268 -1.19343 1.48869 0
M  V30 117 C 12.0668 -1.77947 2.95684 0
M  V30 118 C 11.1798 -1.2715 4.12864 0
M  V30 119 C 10.3148 -2.4093 4.7342 0
M  V30 120 C 9.3538 -1.87165 5.82783 0
M  V30 121 N 8.4908 -2.94441 6.37377 0
M  V30 122 H 13.3308 -0.020124 2.97993 0
M  V30 123 H 10.8678 0.00183425 1.471 0
M  V30 124 H 12.8258 -2.47055 3.36184 0
M  V30 125 H 11.4558 -2.33522 2.22861 0
M  V30 126 H 10.5078 -0.473331 3.77444 0
M  V30 127 H 11.8198 -0.837751 4.91715 0
M  V30 128 H 10.9738 -3.18021 5.1667 0
M  V30 129 H 9.7128 -2.87623 3.93859 0
M  V30 130 H 8.7178 -1.08556 5.38976 0
M  V30 131 H 9.9428 -1.41401 6.64216 0
M  V30 132 H 7.8888 -3.40505 5.60707 0
M  V30 133 H 7.8058 -2.55501 7.11516 0
M  V30 134 H 9.0738 -3.71489 6.85285 0
M  V30 135 N 13.3029 -1.57598 0.00835791 0
M  V30 136 C 14.2329 -2.1198 -0.979113 0
M  V30 137 C 15.2139 -1.03091 -1.35301 0
M  V30 138 O 16.3989 -1.30818 -1.43528 0
M  V30 139 C 13.5289 -2.62995 -2.26828 0
M  V30 140 C 12.4829 -3.76485 -2.03576 0
M  V30 141 C 11.8089 -4.13846 -3.38579 0
M  V30 142 C 13.1089 -5.0342 -1.39161 0
M  V30 143 H 14.8029 -2.94738 -0.526281 0
M  V30 144 H 12.3489 -1.41783 -0.251704 0
M  V30 145 H 14.3019 -2.99669 -2.96271 0
M  V30 146 H 13.0259 -1.7737 -2.7424 0
M  V30 147 H 11.6849 -3.40217 -1.36557 0
M  V30 148 H 11.3329 -3.25232 -3.83709 0
M  V30 149 H 11.0329 -4.90312 -3.23834 0
M  V30 150 H 12.5569 -4.53086 -4.09323 0
M  V30 151 H 13.9709 -5.37812 -1.98573 0
M  V30 152 H 12.3679 -5.84746 -1.34878 0
M  V30 153 H 13.4379 -4.83548 -0.361868 0
M  V30 154 N 14.781 0.264519 -1.55364 0
M  V30 155 C 16.197 0.61215 -1.47394 0
M  V30 156 C 16.397 1.89134 -0.695018 0
M  V30 157 O 15.453 2.51563 -0.217275 0
M  V30 158 C 16.766 0.731235 -2.91674 0
M  V30 159 C 18.314 0.82473 -3.01939 0
M  V30 160 C 18.789 0.975522 -4.4749 0
M  V30 161 N 20.28 1.04083 -4.51354 0
M  V30 162 C 21.015 1.17646 -5.61201 0
M  V30 163 N 20.511 1.27874 -6.80896 0
M  V30 164 N 22.304 1.20823 -5.48961 0
M  V30 165 H 14.455 -0.575456 -2.04456 0
M  V30 166 H 16.718 -0.196099 -0.927496 0
M  V30 167 H 16.424 -0.138392 -3.51428 0
M  V30 168 H 16.298 1.60883 -3.41169 0
M  V30 169 H 18.685 1.68482 -2.42276 0
M  V30 170 H 18.766 -0.0776479 -2.55682 0
M  V30 171 H 18.41 0.120058 -5.07758 0
M  V30 172 H 18.34 1.89268 -4.91412 0
M  V30 173 H 20.831 0.973846 -3.65136 0
M  V30 174 H 21.144 1.38081 -7.60364 0
M  V30 175 H 19.489 1.24863 -6.83692 0
M  V30 176 H 22.68 1.12469 -4.54388 0
M  V30 177 H 22.853 1.31049 -6.3461 0
M  V30 178 N 16.2591 1.48442 0.529413 0
M  V30 179 C 17.1691 1.6569 1.66084 0
M  V30 180 C 18.1851 0.539432 1.65427 0
M  V30 181 O 19.3611 0.810572 1.84368 0
M  V30 182 C 16.4261 1.69315 3.02545 0
M  V30 183 C 15.4871 2.92694 3.14052 0
M  V30 184 C 14.7201 2.96137 4.44003 0
M  V30 185 O 14.9431 2.07973 5.31134 0
M  V30 186 O 13.8771 3.88312 4.59888 0
M  V30 187 H 17.7031 2.61483 1.54469 0
M  V30 188 H 15.2881 1.3185 0.702567 0
M  V30 189 H 17.1701 1.74217 3.83701 0
M  V30 190 H 15.8451 0.766966 3.14483 0
M  V30 191 H 14.7521 2.93324 2.32189 0
M  V30 192 H 16.0851 3.84699 3.0703 0
M  V30 193 N 17.7372 -0.778329 1.37039 0
M  V30 194 C 19.0142 -1.52551 1.22424 0
M  V30 195 C 19.3942 -2.10288 -0.184964 0
M  V30 196 O 18.7422 -1.94953 -1.19187 0
M  V30 197 C 18.9522 -2.61164 2.31504 0
M  V30 198 C 20.3002 -3.28746 2.68721 0
M  V30 199 O 21.3242 -2.71455 2.30631 0
M  V30 200 O 20.1832 -4.3231 3.3432 0
M  V30 201 H 17.2772 -0.675343 0.477326 0
M  V30 202 H 19.8232 -0.815859 1.48801 0
M  V30 203 H 18.5952 -2.16574 3.25901 0
M  V30 204 H 18.2182 -3.39737 2.06554 0
M  V30 205 N 19.2153 -1.21501 -1.00376 0
M  V30 206 C 20.4623 -1.03299 -1.74171 0
M  V30 207 C 20.7903 0.433326 -1.89612 0
M  V30 208 O 20.0453 1.33779 -1.42834 0
M  V30 209 C 20.3443 -1.67673 -3.15627 0
M  V30 210 C 20.0103 -3.17533 -3.2013 0
M  V30 211 C 18.6723 -3.58427 -3.21067 0
M  V30 212 C 21.0243 -4.13504 -3.17275 0
M  V30 213 C 18.3523 -4.93794 -3.16835 0
M  V30 214 C 20.7043 -5.48834 -3.14585 0
M  V30 215 C 19.3683 -5.89123 -3.13831 0
M  V30 216 H 18.6383 -0.377999 -0.637336 0
M  V30 217 H 21.2853 -1.51111 -1.17634 0
M  V30 218 H 19.5903 -1.12158 -3.75404 0
M  V30 219 H 21.2873 -1.51091 -3.71446 0
M  V30 220 H 17.8773 -2.84965 -3.20145 0
M  V30 221 H 22.0613 -3.82936 -3.15711 0
M  V30 222 H 17.3173 -5.24255 -3.1459 0
M  V30 223 H 21.4913 -6.22934 -3.1133 0
M  V30 224 H 19.1183 -6.93984 -3.10307 0
M  V30 225 N 20.6934 1.19889 -1.02296 0
M  V30 226 C 22.1094 1.41462 -0.738954 0
M  V30 227 C 22.3094 1.89721 0.678846 0
M  V30 228 O 21.3654 2.07016 1.4457 0
M  V30 229 C 22.6784 2.43083 -1.77005 0
M  V30 230 C 24.2264 2.5684 -1.78892 0
M  V30 231 C 24.7014 3.61709 -2.80945 0
M  V30 232 N 26.1924 3.69199 -2.79725 0
M  V30 233 C 26.9274 4.50019 -3.55345 0
M  V30 234 N 26.4234 5.34592 -4.40662 0
M  V30 235 N 28.2164 4.44612 -3.43914 0
M  V30 236 H 20.3674 0.868827 -1.93817 0
M  V30 237 H 22.6304 0.44399 -0.837602 0
M  V30 238 H 22.3364 2.14636 -2.78612 0
M  V30 239 H 22.2104 3.4217 -1.58744 0
M  V30 240 H 24.5974 2.84614 -0.779674 0
M  V30 241 H 24.6784 1.57927 -2.01228 0
M  V30 242 H 24.3224 3.34678 -3.82038 0
M  V30 243 H 24.2524 4.60259 -2.5587 0
M  V30 244 H 26.7434 3.08794 -2.17842 0
M  V30 245 H 27.0564 5.93363 -4.95116 0
M  V30 246 H 25.4014 5.34073 -4.44737 0
M  V30 247 H 28.5924 3.7758 -2.76679 0
M  V30 248 H 28.7654 5.0736 -4.031 0
M  V30 249 N 22.1715 0.800033 1.35784 0
M  V30 250 C 23.1045 0.151499 2.27697 0
M  V30 251 C 24.0825 -0.678663 1.4776 0
M  V30 252 O 25.2665 -0.647358 1.77035 0
M  V30 253 C 22.3935 -0.790492 3.29346 0
M  V30 254 C 21.4395 -0.0407832 4.26481 0
M  V30 255 S 22.2725 1.29077 5.19711 0
M  V30 256 C 23.4285 0.353055 6.24903 0
M  V30 257 H 23.6615 0.930796 2.82353 0
M  V30 258 H 21.1945 0.594767 1.42485 0
M  V30 259 H 23.1525 -1.3285 3.88409 0
M  V30 260 H 21.8135 -1.54312 2.73581 0
M  V30 261 H 21.0065 -0.755971 4.98298 0
M  V30 262 H 20.6085 0.427063 3.71554 0
M  V30 263 H 22.9005 -0.464147 6.75908 0
M  V30 264 H 23.8435 1.04023 7.00418 0
M  V30 265 H 24.2515 -0.0483344 5.64479 0
M  V30 266 N 23.6496 -1.47581 0.552962 0
M  V30 267 C 24.5816 -2.27997 -0.234533 0
M  V30 268 C 25.5946 -1.36753 -0.883321 0
M  V30 269 O 26.7836 -1.61612 -0.757889 0
M  V30 270 C 23.8836 -3.10879 -1.34935 0
M  V30 271 C 23.0566 -4.30056 -0.798158 0
M  V30 272 C 22.1156 -4.94567 -1.79694 0
M  V30 273 O 21.1416 -5.53087 -1.34474 0
M  V30 274 N 22.3436 -4.88878 -3.13015 0
M  V30 275 H 25.1086 -2.96222 0.455255 0
M  V30 276 H 22.6696 -1.57163 0.388761 0
M  V30 277 H 24.6616 -3.50903 -2.01616 0
M  V30 278 H 23.2316 -2.44924 -1.94244 0
M  V30 279 H 22.4516 -3.94174 0.0453079 0
M  V30 280 H 23.7396 -5.07152 -0.409173 0
M  V30 281 H 23.1376 -4.42526 -3.52402 0
M  V30 282 H 21.6946 -5.32934 -3.75266 0
M  V30 283 N 25.1277 -0.289203 -1.54924 0
M  V30 284 C 26.0757 0.607966 -2.24514 0
M  V30 285 C 27.0697 1.14655 -1.24702 0
M  V30 286 O 28.2757 1.09856 -1.4259 0
M  V30 287 H 24.6507 0.21464 -0.720718 0
M  V30 288 H 26.6217 -0.00164182 -2.984 0
M  V30 289 C 25.3707 1.77406 -2.99036 0
M  V30 290 H 24.6937 1.36884 -3.75637 0
M  V30 291 H 26.1337 2.37814 -3.51028 0
M  V30 292 C 24.5927 2.67107 -2.05318 0
M  V30 293 O 25.1227 3.6787 -1.61353 0
M  V30 294 N 23.3287 2.34582 -1.71521 0
M  V30 295 H 22.8757 1.52688 -2.07471 0
M  V30 296 H 22.8337 2.94867 -1.0909 0
M  V30 297 N 26.6058 1.57591 -0.0167156 0
M  V30 298 C 27.5528 2.09462 0.969251 0
M  V30 299 C 28.5228 0.99381 1.33089 0
M  V30 300 O 29.7078 1.26726 1.42636 0
M  V30 301 C 26.8478 2.61622 2.25051 0
M  V30 302 C 25.9608 3.85666 1.94642 0
M  V30 303 C 25.0958 4.26266 3.16972 0
M  V30 304 C 24.1348 5.43101 2.82326 0
M  V30 305 N 23.2718 5.78915 3.97243 0
M  V30 306 H 28.1118 2.93428 0.519997 0
M  V30 307 H 25.6488 1.45044 0.245087 0
M  V30 308 H 27.6068 2.89949 2.99976 0
M  V30 309 H 26.2368 1.80505 2.67615 0
M  V30 310 H 25.2888 3.64145 1.10013 0
M  V30 311 H 26.6008 4.70678 1.65117 0
M  V30 312 H 25.7548 4.55963 4.00228 0
M  V30 313 H 24.4938 3.39996 3.49648 0
M  V30 314 H 23.4988 5.1311 1.97479 0
M  V30 315 H 24.7238 6.3106 2.50879 0
M  V30 316 H 22.6698 4.95602 4.29785 0
M  V30 317 H 22.5868 6.58539 3.71299 0
M  V30 318 H 23.8548 6.13212 4.81239 0
M  V30 319 N 28.0839 -0.256276 1.55502 0
M  V30 320 C 29.3089 -1.00766 1.81276 0
M  V30 321 C 29.7339 -1.78524 0.59252 0
M  V30 322 O 29.0919 -1.75413 -0.45827 0
M  V30 323 C 29.1399 -1.92869 3.04687 0
M  V30 324 O 28.2439 -3.019 2.80945 0
M  V30 325 H 27.5849 -0.287224 0.598664 0
M  V30 326 H 30.1149 -0.280109 2.02674 0
M  V30 327 H 30.1249 -2.34511 3.33869 0
M  V30 328 H 28.7999 -1.35689 3.93143 0
M  V30 329 H 27.3769 -2.64454 2.62904 0
M  V30 330 N 29.562 -1.4872 -0.521534 0
M  V30 331 C 30.808 -1.574 -1.27879 0
M  V30 332 C 31.141 -0.250817 -1.92573 0
M  V30 333 O 30.416 0.743934 -1.79711 0
M  V30 334 C 30.699 -2.71843 -2.36164 0
M  V30 335 C 30.552 -4.13893 -1.76105 0
M  V30 336 C 31.871 -2.82008 -3.37875 0
M  V30 337 H 28.99 -0.572941 -0.463581 0
M  V30 338 H 31.632 -1.80927 -0.580119 0
M  V30 339 H 29.782 -2.51914 -2.95756 0
M  V30 340 H 31.454 -4.45284 -1.20499 0
M  V30 341 H 29.697 -4.20498 -1.06601 0
M  V30 342 H 30.368 -4.89804 -2.5455 0
M  V30 343 H 32.844 -3.00086 -2.88249 0
M  V30 344 H 31.72 -3.63796 -4.11028 0
M  V30 345 H 31.981 -1.90511 -3.98946 0
M  V30 346 N 31.0401 0.771051 -1.3745 0
M  V30 347 C 32.2871 1.52963 -1.32697 0
M  V30 348 C 32.6151 1.94299 0.0883274 0
M  V30 349 O 31.8701 1.64397 1.0617 0
M  V30 350 C 32.1691 2.80676 -2.2126 0
M  V30 351 C 31.8351 2.58389 -3.69521 0
M  V30 352 C 30.4971 2.52019 -4.09927 0
M  V30 353 C 32.8491 2.38469 -4.63446 0
M  V30 354 C 30.1771 2.23721 -5.42371 0
M  V30 355 C 32.5291 2.11694 -5.96128 0
M  V30 356 C 31.1931 2.03769 -6.35637 0
M  V30 357 H 30.4631 0.559732 -0.485573 0
M  V30 358 H 33.1101 0.888083 -1.69662 0
M  V30 359 H 31.4151 3.49392 -1.77291 0
M  V30 360 H 33.1121 3.38557 -2.14895 0
M  V30 361 H 29.7021 2.6421 -3.37478 0
M  V30 362 H 33.8861 2.4238 -4.33089 0
M  V30 363 H 29.1421 2.16081 -5.71943 0
M  V30 364 H 33.3161 1.9528 -6.6846 0
M  V30 365 H 30.9431 1.81606 -7.38189 0
M  V30 366 N 32.5182 1.22032 0.997298 0
M  V30 367 C 33.7672 1.03637 1.73038 0
M  V30 368 C 34.0802 -0.429475 1.90827 0
M  V30 369 O 35.2862 -0.732995 2.61418 0
M  V30 370 C 33.7422 1.80582 3.11317 0
M  V30 371 C 33.3502 3.31387 3.01474 0
M  V30 372 C 35.0942 1.70621 3.88701 0
M  V30 373 C 33.0012 4.00791 4.3488 0
M  V30 374 H 31.9312 0.384179 0.648785 0
M  V30 375 H 34.5822 1.4584 1.11368 0
M  V30 376 H 32.9642 1.31175 3.73643 0
M  V30 377 H 34.1382 3.88155 2.4834 0
M  V30 378 H 32.4532 3.41976 2.37575 0
M  V30 379 H 35.0502 2.19799 4.87434 0
M  V30 380 H 35.3932 0.665823 4.10941 0
M  V30 381 H 35.9262 2.17547 3.33044 0
M  V30 382 H 32.6652 5.05064 4.1784 0
M  V30 383 H 32.1852 3.48811 4.87945 0
M  V30 384 H 33.8642 4.06139 5.03647 0
M  V30 385 N 33.9963 -1.19345 1.0293 0
M  V30 386 C 34.9263 -2.2481 0.631105 0
M  V30 387 C 35.9073 -1.66245 -0.360104 0
M  V30 388 O 37.0923 -1.92677 -0.242726 0
M  V30 389 C 34.2223 -3.47295 -0.0184607 0
M  V30 390 C 33.1763 -4.18536 0.895073 0
M  V30 391 C 32.5023 -5.34586 0.110592 0
M  V30 392 C 33.8023 -4.73287 2.209 0
M  V30 393 H 35.4963 -2.58372 1.51275 0
M  V30 394 H 33.0423 -1.24194 0.728818 0
M  V30 395 H 34.9953 -4.20268 -0.308675 0
M  V30 396 H 33.7193 -3.12933 -0.934907 0
M  V30 397 H 32.3783 -3.47446 1.16949 0
M  V30 398 H 32.0263 -4.96469 -0.807902 0
M  V30 399 H 31.7263 -5.83183 0.719087 0
M  V30 400 H 33.2503 -6.10355 -0.172871 0
M  V30 401 H 34.6643 -5.38013 1.98028 0
M  V30 402 H 33.0613 -5.32373 2.76946 0
M  V30 403 H 34.1313 -3.91331 2.86336 0
M  V30 404 N 35.4744 -0.807222 -1.35358 0
M  V30 405 C 36.7224 -0.387122 -1.98358 0
M  V30 406 C 37.0434 1.04942 -1.64354 0
M  V30 407 O 36.3134 1.72615 -0.926339 0
M  V30 408 H 34.8934 -0.140154 -0.733734 0
M  V30 409 H 37.5554 -1.0332 -1.6526 0
M  V30 410 H 36.6514 -0.493352 -3.08176 0
M  V30 411 N 36.9525 1.47285 -0.560781 0
M  V30 412 C 37.9155 2.28535 0.174488 0
M  V30 413 C 38.9155 1.37153 0.839388 0
M  V30 414 O 40.1055 1.59748 0.694702 0
M  V30 415 C 37.2375 3.16934 1.25561 0
M  V30 416 H 38.4305 2.95012 -0.539262 0
M  V30 417 H 35.9835 1.53034 -0.317865 0
M  V30 418 H 36.7185 2.55157 2.00164 0
M  V30 419 H 36.5035 3.8419 0.783604 0
M  V30 420 H 37.9935 3.78143 1.77193 0
M  V30 421 N 38.4306 0.297415 1.54768 0
M  V30 422 C 39.6556 -0.318435 2.04941 0
M  V30 423 C 40.0806 -1.4701 1.17345 0
M  V30 424 O 39.4386 -1.80436 0.176758 0
M  V30 425 C 39.4866 -0.755749 3.52592 0
M  V30 426 O 38.5906 -1.86088 3.68028 0
M  V30 427 H 37.9316 -0.062421 0.661059 0
M  V30 428 H 40.4616 0.438215 1.99852 0
M  V30 429 H 40.4716 -1.04552 3.94376 0
M  V30 430 H 39.1466 0.0867233 4.1581 0
M  V30 431 H 37.7236 -1.57193 3.38149 0
M  V30 432 N 39.9087 -1.5758 0.0250728 0
M  V30 433 C 41.1567 -1.91255 -0.653151 0
M  V30 434 C 41.4777 -0.901691 -1.729 0
M  V30 435 O 40.7477 0.0573785 -1.95816 0
M  V30 436 H 39.3277 -0.705942 -0.244243 0
M  V30 437 H 41.9897 -1.94767 0.0719209 0
M  V30 438 H 41.0857 -2.91752 -1.10847 0
M  V30 439 N 41.3868 0.248026 -1.55636 0
M  V30 440 C 42.2968 1.32859 -1.93354 0
M  V30 441 C 43.3128 1.52719 -0.833838 0
M  V30 442 O 44.4888 1.66363 -1.13513 0
M  V30 443 C 41.5538 2.66337 -2.21958 0
M  V30 444 C 40.6148 2.55008 -3.45354 0
M  V30 445 C 39.8478 3.82121 -3.72584 0
M  V30 446 O 40.0708 4.83951 -3.01907 0
M  V30 447 O 39.0048 3.80822 -4.6611 0
M  V30 448 H 42.8308 1.03862 -2.85388 0
M  V30 449 H 40.4158 0.448686 -1.42503 0
M  V30 450 H 42.2978 3.45216 -2.4167 0
M  V30 451 H 40.9728 2.95068 -1.33103 0
M  V30 452 H 39.8798 1.7442 -3.30951 0
M  V30 453 H 41.2128 2.31222 -4.34508 0
M  V30 454 N 42.8649 1.48995 0.513639 0
M  V30 455 C 44.0929 1.61531 1.29288 0
M  V30 456 C 44.5079 0.281801 1.86685 0
M  V30 457 O 43.8649 -0.731111 1.67215 0
M  V30 458 C 43.9159 2.67449 2.43215 0
M  V30 459 O 43.6369 3.95626 1.88179 0
M  V30 460 C 45.1379 2.90575 3.34785 0
M  V30 461 H 42.3579 0.544165 0.392588 0
M  V30 462 H 44.9019 1.9494 0.617956 0
M  V30 463 H 43.0569 2.36853 3.0656 0
M  V30 464 H 43.4709 4.53868 2.62876 0
M  V30 465 H 44.9449 3.68449 4.11035 0
M  V30 466 H 45.4219 2.00011 3.91015 0
M  V30 467 H 46.0279 3.22538 2.77218 0
M  V30 468 N 44.343 -0.763751 1.37857 0
M  V30 469 C 45.591 -1.51957 1.33243 0
M  V30 470 C 45.912 -1.94835 -0.0801709 0
M  V30 471 O 45.182 -1.66894 -1.02582 0
M  V30 472 H 43.762 -0.563626 0.49024 0
M  V30 473 H 46.424 -0.908504 1.7243 0
M  V30 474 H 45.52 -2.41523 1.97669 0
M  V30 475 N 45.8211 -1.22559 -0.990812 0
M  V30 476 C 47.2371 -0.985996 -1.255 0
M  V30 477 C 47.4371 0.319173 -1.98956 0
M  V30 478 O 46.4931 1.04127 -2.3003 0
M  V30 479 C 47.8061 -2.18607 -2.06474 0
M  V30 480 C 49.3541 -2.22985 -2.19651 0
M  V30 481 C 49.8291 -3.4255 -3.04012 0
M  V30 482 N 51.3201 -3.42725 -3.11599 0
M  V30 483 C 52.0551 -4.31892 -3.7717 0
M  V30 484 N 51.5511 -5.31279 -4.44651 0
M  V30 485 N 53.3441 -4.19662 -3.73952 0
M  V30 486 H 45.4951 -2.06469 -0.49841 0
M  V30 487 H 47.7581 -0.904853 -0.282747 0
M  V30 488 H 47.4641 -3.13267 -1.59865 0
M  V30 489 H 47.3381 -2.18838 -3.07229 0
M  V30 490 H 49.7251 -1.28871 -2.65474 0
M  V30 491 H 49.8061 -2.26791 -1.18319 0
M  V30 492 H 49.4501 -4.36965 -2.58889 0
M  V30 493 H 49.3801 -3.35984 -4.0549 0
M  V30 494 H 51.8711 -2.70807 -2.63575 0
M  V30 495 H 52.1841 -5.95593 -4.92431 0
M  V30 496 H 50.5291 -5.3519 -4.43392 0
M  V30 497 H 53.7201 -3.41268 -3.20396 0
M  V30 498 H 53.8931 -4.89358 -4.24774 0
M  V30 499 N 47.2992 1.18797 -1.03562 0
M  V30 500 C 48.5452 1.8893 -0.737113 0
M  V30 501 C 48.8782 1.79837 0.732956 0
M  V30 502 O 48.1532 1.19525 1.5344 0
M  V30 503 C 48.4362 3.39607 -1.19745 0
M  V30 504 C 48.2892 3.57537 -2.72924 0
M  V30 505 C 49.6082 4.33069 -0.783526 0
M  V30 506 H 46.7272 0.686057 -0.269249 0
M  V30 507 H 49.3692 1.39797 -1.28673 0
M  V30 508 H 47.5192 3.81583 -0.729855 0
M  V30 509 H 49.1912 3.24688 -3.27682 0
M  V30 510 H 47.4342 3.00363 -3.12993 0
M  V30 511 H 48.1052 4.63238 -3.00191 0
M  V30 512 H 50.5812 3.98846 -1.18581 0
M  V30 513 H 49.4572 5.3707 -1.13343 0
M  V30 514 H 49.7182 4.40986 0.313681 0
M  V30 515 N 48.7773 0.814389 1.34928 0
M  V30 516 C 49.7073 0.244827 2.32213 0
M  V30 517 C 50.6883 -0.634024 1.57842 0
M  V30 518 O 51.8733 -0.562676 1.8587 0
M  V30 519 C 49.0033 -0.601106 3.42058 0
M  V30 520 C 47.9573 0.179896 4.27622 0
M  V30 521 C 47.2833 -0.788237 5.28858 0
M  V30 522 C 48.5833 1.38329 5.03649 0
M  V30 523 H 50.2773 1.05763 2.80097 0
M  V30 524 H 47.8233 0.510029 1.34665 0
M  V30 525 H 49.7763 -1.00968 4.09125 0
M  V30 526 H 48.5003 -1.44688 2.92802 0
M  V30 527 H 47.1593 0.569739 3.62146 0
M  V30 528 H 46.8073 -1.62973 4.75866 0
M  V30 529 H 46.5073 -0.269942 5.8698 0
M  V30 530 H 48.0313 -1.19485 5.98795 0
M  V30 531 H 49.4453 1.04918 5.63618 0
M  V30 532 H 47.8423 1.83662 5.71304 0
M  V30 533 H 48.9123 2.16592 4.33839 0
M  V30 534 N 50.2554 -1.46986 0.568584 0
M  V30 535 C 51.1854 -2.32946 -0.160753 0
M  V30 536 C 52.1664 -1.44487 -0.897631 0
M  V30 537 O 53.3514 -1.73327 -0.875867 0
M  V30 538 C 50.4814 -3.26494 -1.18403 0
M  V30 539 C 49.4354 -4.24282 -0.562895 0
M  V30 540 C 48.7614 -5.07236 -1.69163 0
M  V30 541 C 50.0614 -5.19989 0.490761 0
M  V30 542 H 51.7554 -2.94175 0.556916 0
M  V30 543 H 49.3014 -1.4146 0.26927 0
M  V30 544 H 51.2544 -3.85477 -1.70251 0
M  V30 545 H 49.9784 -2.63343 -1.93179 0
M  V30 546 H 48.6374 -3.66541 -0.0656164 0
M  V30 547 H 48.2854 -4.4048 -2.42871 0
M  V30 548 H 47.9854 -5.7345 -1.28174 0
M  V30 549 H 49.5094 -5.6908 -2.21314 0
M  V30 550 H 50.9234 -5.73271 0.0579047 0
M  V30 551 H 49.3204 -5.94469 0.820165 0
M  V30 552 H 50.3904 -4.64777 1.3824 0
M  V30 553 N 51.7335 -0.305618 -1.54608 0
M  V30 554 C 52.6805 0.568421 -2.23691 0
M  V30 555 C 53.6505 1.12592 -1.22116 0
M  V30 556 O 54.8355 1.16959 -1.50749 0
M  V30 557 C 51.9755 1.7322 -2.98477 0
M  V30 558 C 51.0885 1.20566 -4.14835 0
M  V30 559 C 50.2235 2.33368 -4.77193 0
M  V30 560 C 49.2625 1.7787 -5.85686 0
M  V30 561 N 48.3995 2.84263 -6.4198 0
M  V30 562 H 53.2395 -0.0272867 -2.97988 0
M  V30 563 H 50.7765 -0.0252363 -1.47078 0
M  V30 564 H 52.7345 2.41675 -3.40072 0
M  V30 565 H 51.3645 2.29947 -2.26548 0
M  V30 566 H 50.4165 0.413223 -3.78149 0
M  V30 567 H 51.7285 0.759417 -4.92985 0
M  V30 568 H 50.8825 3.09761 -5.21664 0
M  V30 569 H 49.6215 2.8132 -3.98385 0
M  V30 570 H 48.6265 0.99968 -5.40635 0
M  V30 571 H 49.8515 1.30816 -6.66381 0
M  V30 572 H 47.7975 3.31541 -5.66053 0
M  V30 573 H 47.7145 2.44149 -7.15491 0
M  V30 574 H 48.9825 3.6054 -6.91109 0
M  V30 575 N 53.2116 1.57565 -0.0334293 0
M  V30 576 C 54.1216 2.13943 0.962572 0
M  V30 577 C 55.1376 1.09276 1.35406 0
M  V30 578 O 56.3136 1.41355 1.4346 0
M  V30 579 C 53.3786 2.65887 2.22497 0
M  V30 580 C 52.4396 3.85286 1.8935 0
M  V30 581 C 51.6726 4.34743 3.09571 0
M  V30 582 O 51.8956 3.83352 4.22371 0
M  V30 583 O 50.8296 5.26538 2.91618 0
M  V30 584 H 54.6556 2.99333 0.513169 0
M  V30 585 H 52.2406 1.4822 0.18743 0
M  V30 586 H 54.1226 2.99346 2.96598 0
M  V30 587 H 52.7976 1.83578 2.6661 0
M  V30 588 H 51.7046 3.56746 1.1262 0
M  V30 589 H 53.0376 4.68771 1.5005 0
M  V30 590 N 54.6897 -0.239769 1.55765 0
M  V30 591 C 55.9387 -0.964754 1.77131 0
M  V30 592 C 56.2517 -1.86213 0.59868 0
M  V30 593 O 57.4577 -2.6244 0.695522 0
M  V30 594 C 55.9137 -1.76552 3.1362 0
M  V30 595 C 55.5217 -0.915185 4.38553 0
M  V30 596 C 57.2657 -2.48281 3.44321 0
M  V30 597 C 55.1727 -1.71225 5.66071 0
M  V30 598 H 54.1027 -0.363953 0.660344 0
M  V30 599 H 56.7537 -0.219181 1.82186 0
M  V30 600 H 55.1357 -2.55331 3.02691 0
M  V30 601 H 56.3097 -0.169217 4.60489 0
M  V30 602 H 54.6247 -0.310889 4.15238 0
M  V30 603 H 57.2217 -3.08382 4.36812 0
M  V30 604 H 57.5647 -3.20256 2.65973 0
M  V30 605 H 58.0977 -1.76507 3.56497 0
M  V30 606 H 54.8367 -1.03612 6.4726 0
M  V30 607 H 54.3567 -2.43331 5.48224 0
M  V30 608 H 56.0357 -2.27758 6.05587 0
M  V30 609 N 56.1678 -1.49265 -0.50573 0
M  V30 610 C 57.0978 -1.68495 -1.61653 0
M  V30 611 C 58.0788 -0.53366 -1.61512 0
M  V30 612 O 59.2638 -0.76897 -1.78327 0
M  V30 613 C 56.3938 -1.74709 -3.00157 0
M  V30 614 C 55.3478 -2.89581 -3.15162 0
M  V30 615 C 54.6738 -2.80903 -4.5497 0
M  V30 616 C 55.9738 -4.30578 -2.95634 0
M  V30 617 H 57.6678 -2.61493 -1.45814 0
M  V30 618 H 55.2138 -1.25838 -0.70005 0
M  V30 619 H 57.1668 -1.86748 -3.77761 0
M  V30 620 H 55.8908 -0.783067 -3.17074 0
M  V30 621 H 54.5498 -2.77136 -2.39982 0
M  V30 622 H 54.1978 -1.82419 -4.68756 0
M  V30 623 H 53.8978 -3.57999 -4.65951 0
M  V30 624 H 55.4218 -2.94944 -5.34641 0
M  V30 625 H 56.8358 -4.4373 -3.63011 0
M  V30 626 H 55.2328 -5.0886 -3.18091 0
M  V30 627 H 56.3028 -4.45352 -1.91806 0
M  V30 628 N 57.6459 0.756429 -1.3826 0
M  V30 629 C 58.5559 1.9009 -1.37488 0
M  V30 630 C 59.5719 1.71855 -0.272366 0
M  V30 631 O 60.7479 1.94827 -0.510318 0
M  V30 632 C 57.8129 3.25421 -1.19592 0
M  V30 633 C 56.8739 3.56202 -2.39622 0
M  V30 634 C 56.1069 4.85075 -2.2257 0
M  V30 635 O 56.3299 5.57246 -1.21793 0
M  V30 636 O 55.2639 5.15269 -3.11098 0
M  V30 637 H 59.0899 1.93695 -2.33914 0
M  V30 638 H 56.6749 0.901313 -1.1915 0
M  V30 639 H 58.5569 4.06337 -1.11661 0
M  V30 640 H 57.2319 3.22634 -0.262486 0
M  V30 641 H 56.1389 2.75458 -2.53128 0
M  V30 642 H 57.4719 3.63747 -3.31586 0
M  V30 643 N 59.124 1.23083 0.984299 0
M  V30 644 C 60.056 0.96636 2.07832 0
M  V30 645 C 61.069 -0.0582135 1.62696 0
M  V30 646 O 62.258 0.176843 1.77622 0
M  V30 647 C 59.358 0.433397 3.36117 0
M  V30 648 C 58.531 1.51722 4.10243 0
M  V30 649 C 57.59 0.989821 5.16807 0
M  V30 650 O 56.616 1.67794 5.43906 0
M  V30 651 N 57.818 -0.184367 5.80207 0
M  V30 652 H 60.583 1.90824 2.31098 0
M  V30 653 H 58.144 1.13888 1.1507 0
M  V30 654 H 60.136 0.065699 4.04647 0
M  V30 655 H 58.706 -0.413806 3.09849 0
M  V30 656 H 57.926 2.05786 3.36223 0
M  V30 657 H 59.214 2.24619 4.56534 0
M  V30 658 H 58.612 -0.760062 5.60571 0
M  V30 659 H 57.169 -0.493366 6.4993 0
M  V30 660 N 60.6021 -1.18246 1.0419 0
M  V30 661 C 61.8501 -1.87886 0.744543 0
M  V30 662 C 62.1711 -1.8082 -0.730006 0
M  V30 663 O 61.4411 -1.22736 -1.52685 0
M  V30 664 H 60.0211 -0.695556 0.272417 0
M  V30 665 H 62.6831 -1.43494 1.31892 0
M  V30 666 H 61.7791 -2.9389 1.05049 0
M  V30 667 N 62.0802 -0.821533 -1.34494 0
M  V30 668 C 63.0102 -0.257138 -2.3208 0
M  V30 669 C 63.9912 0.625645 -1.58176 0
M  V30 670 O 65.1762 0.552811 -1.86166 0
M  V30 671 C 62.3062 0.582958 -3.42372 0
M  V30 672 C 61.2602 -0.202571 -4.2752 0
M  V30 673 C 60.5862 0.760179 -5.29269 0
M  V30 674 C 61.8862 -1.40998 -5.02908 0
M  V30 675 H 63.5802 -1.07247 -2.79532 0
M  V30 676 H 61.1262 -0.517163 -1.34393 0
M  V30 677 H 63.0792 0.987972 -4.09655 0
M  V30 678 H 61.8032 1.43133 -2.93565 0
M  V30 679 H 60.4622 -0.588936 -3.61838 0
M  V30 680 H 60.1102 1.60447 -4.76724 0
M  V30 681 H 59.8102 0.238809 -5.87115 0
M  V30 682 H 61.3342 1.16308 -5.9942 0
M  V30 683 H 62.7482 -1.07905 -5.63054 0
M  V30 684 H 61.1452 -1.86689 -5.70322 0
M  V30 685 H 62.2152 -2.1889 -4.32684 0
M  V30 686 N 63.5583 1.46682 -0.576371 0
M  V30 687 C 64.8053 2.02412 -0.0595339 0
M  V30 688 C 65.1333 1.44859 1.29793 0
M  V30 689 O 64.3883 0.601099 1.8624 0
M  V30 690 C 64.6873 3.57345 0.062886 0
M  V30 691 C 64.3533 4.33908 -1.22616 0
M  V30 692 C 63.0153 4.54544 -1.57933 0
M  V30 693 C 65.3673 4.77919 -2.07948 0
M  V30 694 C 62.6953 5.16444 -2.78393 0
M  V30 695 C 65.0473 5.41149 -3.27629 0
M  V30 696 C 63.7113 5.60014 -3.63236 0
M  V30 697 H 62.9813 0.74068 -0.021785 0
M  V30 698 H 65.6283 1.76128 -0.751735 0
M  V30 699 H 63.9333 3.82729 0.838178 0
M  V30 700 H 65.6303 3.98136 0.478439 0
M  V30 701 H 62.2203 4.18138 -0.941202 0
M  V30 702 H 66.4043 4.61738 -1.81967 0
M  V30 703 H 61.6603 5.29242 -3.06126 0
M  V30 704 H 65.8343 5.74211 -3.94023 0
M  V30 705 H 63.4613 6.07748 -4.56669 0
M  V30 706 N 65.0364 0.313813 1.54444 0
M  V30 707 C 66.2614 -0.296681 2.05267 0
M  V30 708 C 66.6864 -1.45757 1.18897 0
M  V30 709 O 66.0444 -1.80239 0.195886 0
M  V30 710 C 66.0924 -0.71831 3.53373 0
M  V30 711 O 65.1964 -1.82175 3.69981 0
M  V30 712 H 64.5374 -0.0554061 0.661684 0
M  V30 713 H 67.0674 0.459387 1.99376 0
M  V30 714 H 67.0774 -1.00364 3.95463 0
M  V30 715 H 65.7524 0.130821 4.15694 0
M  V30 716 H 64.3294 -1.53598 3.39797 0
M  V30 717 N 66.5145 -1.57545 0.0417849 0
M  V30 718 C 67.4615 -2.10977 -0.935805 0
M  V30 719 C 68.4315 -1.01486 -1.31491 0
M  V30 720 O 69.6165 -1.2898 -1.40602 0
M  V30 721 C 66.7565 -2.65169 -2.2086 0
M  V30 722 C 65.8695 -3.88714 -1.88482 0
M  V30 723 C 65.0045 -4.31254 -3.1015 0
M  V30 724 C 64.0435 -5.47524 -2.7365 0
M  V30 725 N 63.1805 -5.85162 -3.87982 0
M  V30 726 H 68.0205 -2.94218 -0.473249 0
M  V30 727 H 65.5575 -1.45415 -0.221981 0
M  V30 728 H 67.5155 -2.94685 -2.95325 0
M  V30 729 H 66.1455 -1.8474 -2.64709 0
M  V30 730 H 65.1975 -3.65849 -1.04205 0
M  V30 731 H 66.5095 -4.73245 -1.57608 0
M  V30 732 H 65.6635 -4.62273 -3.92923 0
M  V30 733 H 64.4025 -3.45516 -3.44195 0
M  V30 734 H 63.4075 -5.16187 -1.89291 0
M  V30 735 H 64.6325 -6.34971 -2.40807 0
M  V30 736 H 62.5785 -5.02377 -4.21846 0
M  V30 737 H 62.4955 -6.64362 -3.60775 0
M  V30 738 H 63.7635 -6.20791 -4.71422 0
M  V30 739 N 67.9926 0.231505 -1.5589 0
M  V30 740 C 69.2386 0.95877 -1.78705 0
M  V30 741 C 69.5716 1.8438 -0.609725 0
M  V30 742 O 68.8466 1.90521 0.391426 0
M  V30 743 C 69.1296 1.8062 -3.11526 0
M  V30 744 C 68.9826 0.948328 -4.39689 0
M  V30 745 C 70.3016 2.78585 -3.40703 0
M  V30 746 H 67.4206 0.347129 -0.650131 0
M  V30 747 H 70.0626 0.228259 -1.88624 0
M  V30 748 H 68.2126 2.42902 -3.03201 0
M  V30 749 H 69.8846 0.343016 -4.60023 0
M  V30 750 H 68.1276 0.253314 -4.3306 0
M  V30 751 H 68.7986 1.57543 -5.29041 0
M  V30 752 H 71.2746 2.26439 -3.49091 0
M  V30 753 H 70.1506 3.34988 -4.34826 0
M  V30 754 H 70.4116 3.55825 -2.62375 0
M  V30 755 N 69.4707 1.49531 0.497807 0
M  V30 756 C 70.6987 1.62893 1.27567 0
M  V30 757 C 71.1137 0.301585 1.86376 0
M  V30 758 O 70.4707 -0.713335 1.67982 0
M  V30 759 C 70.5217 2.70013 2.40364 0
M  V30 760 O 70.2427 3.976 1.83972 0
M  V30 761 C 71.7437 2.94109 3.31685 0
M  V30 762 H 68.9637 0.548298 0.386794 0
M  V30 763 H 71.5077 1.95584 0.597245 0
M  V30 764 H 69.6627 2.40092 3.04031 0
M  V30 765 H 70.0767 4.56631 2.58047 0
M  V30 766 H 71.5507 3.72788 4.07104 0
M  V30 767 H 72.0277 2.04147 3.88871 0
M  V30 768 H 72.6337 3.2546 2.73781 0
M  V30 769 N 70.9488 -0.749086 1.3866 0
M  V30 770 C 71.8788 -1.8764 1.38973 0
M  V30 771 C 72.8598 -1.68178 0.255004 0
M  V30 772 O 74.0448 -1.88704 0.458754 0
M  V30 773 C 71.1748 -3.25222 1.21851 0
M  V30 774 C 70.1288 -3.59295 2.32575 0
M  V30 775 C 69.4548 -4.95663 2.00555 0
M  V30 776 C 70.7548 -3.63709 3.7485 0
M  V30 777 H 72.4488 -1.87635 2.3331 0
M  V30 778 H 69.9948 -0.901329 1.12303 0
M  V30 779 H 71.9478 -4.03746 1.20695 0
M  V30 780 H 70.6718 -3.25719 0.239775 0
M  V30 781 H 69.3308 -2.83093 2.32925 0
M  V30 782 H 68.9788 -4.92724 1.01154 0
M  V30 783 H 68.6788 -5.19429 2.74714 0
M  V30 784 H 70.2028 -5.7656 2.01024 0
M  V30 785 H 71.6168 -4.32338 3.76506 0
M  V30 786 H 70.0138 -3.98986 4.48252 0
M  V30 787 H 71.0838 -2.63834 4.06841 0
M  V30 788 N 72.4269 -1.23603 -0.977757 0
M  V30 789 C 73.6759 -1.06377 -1.71368 0
M  V30 790 C 73.9889 0.399062 -1.91486 0
M  V30 791 O 75.1949 0.691312 -2.62551 0
M  V30 792 C 73.6509 -1.85512 -3.08404 0
M  V30 793 C 73.2589 -3.36141 -2.96164 0
M  V30 794 C 75.0029 -1.76783 -3.85938 0
M  V30 795 C 72.9099 -4.07659 -4.28449 0
M  V30 796 H 71.8399 -0.394452 -0.642591 0
M  V30 797 H 74.4909 -1.47594 -1.09034 0
M  V30 798 H 72.8729 -1.37103 -3.71509 0
M  V30 799 H 74.0469 -3.92056 -2.42133 0
M  V30 800 H 72.3619 -3.45712 -2.32104 0
M  V30 801 H 74.9589 -2.27526 -4.83876 0
M  V30 802 H 75.3019 -0.731116 -4.0983 0
M  V30 803 H 75.8349 -2.22818 -3.2954 0
M  V30 804 H 72.5739 -5.11648 -4.09752 0
M  V30 805 H 72.0939 -3.5653 -4.82334 0
M  V30 806 H 73.7729 -4.141 -4.97122 0
M  V30 807 N 73.905 1.17692 -1.04816 0
M  V30 808 C 75.153 1.87488 -0.754497 0
M  V30 809 C 75.474 1.81205 0.720407 0
M  V30 810 O 74.744 1.23544 1.52032 0
M  V30 811 H 73.324 0.694101 -0.276102 0
M  V30 812 H 75.986 1.42793 -1.32651 0
M  V30 813 H 75.082 2.93328 -1.06606 0
M  V30 814 N 75.3831 0.828654 1.34056 0
M  V30 815 C 76.7991 0.515135 1.51058 0
M  V30 816 C 76.9991 -0.959581 1.77184 0
M  V30 817 O 76.0551 -1.74382 1.82612 0
M  V30 818 C 77.3681 1.37963 2.67183 0
M  V30 819 C 78.9161 1.37735 2.81066 0
M  V30 820 C 79.3911 2.22645 4.00241 0
M  V30 821 N 80.8821 2.203 4.07458 0
M  V30 822 C 81.6171 2.82744 4.98842 0
M  V30 823 N 81.1131 3.54201 5.9541 0
M  V30 824 N 82.9061 2.72268 4.91759 0
M  V30 825 H 75.0571 1.78343 1.15358 0
M  V30 826 H 77.3201 0.760304 0.566252 0
M  V30 827 H 77.0261 2.42714 2.54525 0
M  V30 828 H 76.9001 1.0484 3.62338 0
M  V30 829 H 79.2871 0.337593 2.93163 0
M  V30 830 H 79.3681 1.74859 1.86703 0
M  V30 831 H 79.0121 3.26674 3.88905 0
M  V30 832 H 78.9421 1.82869 4.93829 0
M  V30 833 H 81.4331 1.68327 3.38341 0
M  V30 834 H 81.7461 3.9908 6.61782 0
M  V30 835 H 80.0911 3.58308 5.95517 0
M  V30 836 H 83.2821 2.16014 4.15278 0
M  V30 837 H 83.4551 3.21219 5.62781 0
M  V30 838 N 76.8612 -1.46375 0.584142 0
M  V30 839 C 78.2772 -1.57694 0.245929 0
M  V30 840 C 78.4772 -1.57903 -1.25175 0
M  V30 841 O 77.5332 -1.49676 -2.03355 0
M  V30 842 C 78.8462 -2.87028 0.896402 0
M  V30 843 C 80.3942 -3.00662 0.870127 0
M  V30 844 C 80.8692 -4.32734 1.50017 0
M  V30 845 N 82.3602 -4.39436 1.46458 0
M  V30 846 C 83.0952 -5.40248 1.92144 0
M  V30 847 N 82.5912 -6.47726 2.4581 0
M  V30 848 N 84.3842 -5.31459 1.83052 0
M  V30 849 H 76.5352 -1.44483 1.55687 0
M  V30 850 H 78.7982 -0.689291 0.650831 0
M  V30 851 H 78.5042 -2.9269 1.95002 0
M  V30 852 H 78.3782 -3.75014 0.405486 0
M  V30 853 H 80.7652 -2.94581 -0.174871 0
M  V30 854 H 80.8462 -2.14148 1.39908 0
M  V30 855 H 80.4902 -4.39573 2.54437 0
M  V30 856 H 80.4202 -5.18025 0.946432 0
M  V30 857 H 82.9112 -3.62367 1.07231 0
M  V30 858 H 83.2242 -7.20863 2.78525 0
M  V30 859 H 81.5692 -6.48542 2.49836 0
M  V30 860 H 84.7602 -4.46396 1.40883 0
M  V30 861 H 84.9332 -6.09881 2.18973 0
M  V30 862 N 78.3393 -0.321999 -1.54275 0
M  V30 863 C 79.2863 0.544664 -2.24281 0
M  V30 864 C 80.2563 1.1129 -1.23303 0
M  V30 865 O 81.4413 1.15354 -1.51981 0
M  V30 866 C 78.5813 1.70045 -3.00298 0
M  V30 867 C 77.6943 1.16159 -4.1609 0
M  V30 868 C 76.8293 2.28293 -4.79641 0
M  V30 869 C 75.8683 1.71648 -5.8754 0
M  V30 870 N 75.0053 2.77438 -6.44959 0
M  V30 871 H 79.8453 -0.0588907 -2.97942 0
M  V30 872 H 77.3823 -0.0408345 -1.47043 0
M  V30 873 H 79.3403 2.38054 -3.42616 0
M  V30 874 H 77.9703 2.27531 -2.28975 0
M  V30 875 H 77.0223 0.373092 -3.78566 0
M  V30 876 H 78.3343 0.707087 -4.93763 0
M  V30 877 H 77.4883 3.0421 -5.2492 0
M  V30 878 H 76.2273 2.77079 -4.01346 0
M  V30 879 H 75.2323 0.942282 -5.41665 0
M  V30 880 H 76.4573 1.23741 -6.67731 0
M  V30 881 H 74.4033 3.25519 -5.69538 0
M  V30 882 H 74.3203 2.36547 -7.1804 0
M  V30 883 H 75.5883 3.53189 -6.94894 0
M  V30 884 N 79.8174 1.5752 -0.0501392 0
M  V30 885 C 80.7474 2.14502 0.922566 0
M  V30 886 C 81.7284 1.06642 1.3252 0
M  V30 887 O 82.9134 1.34577 1.4001 0
M  V30 888 C 80.0434 2.68916 2.19776 0
M  V30 889 C 78.9974 3.8175 1.93523 0
M  V30 890 C 78.3234 4.22677 3.27487 0
M  V30 891 C 79.6234 5.06932 1.25765 0
M  V30 892 H 81.3174 2.9603 0.447952 0
M  V30 893 H 78.8634 1.42401 0.214024 0
M  V30 894 H 80.8164 3.07419 2.88222 0
M  V30 895 H 79.5404 1.84578 2.69441 0
M  V30 896 H 78.1994 3.43718 1.27489 0
M  V30 897 H 77.8474 3.35291 3.74952 0
M  V30 898 H 77.5474 4.98725 3.1072 0
M  V30 899 H 79.0714 4.63779 3.97166 0
M  V30 900 H 80.4854 5.42888 1.84244 0
M  V30 901 H 78.8824 5.88116 1.19328 0
M  V30 902 H 79.9524 4.84337 0.233536 0
M  V30 903 N 81.2955 -0.223234 1.56011 0
M  V30 904 C 82.5235 -0.964812 1.83027 0
M  V30 905 C 82.9385 -1.78013 0.62904 0
M  V30 906 O 82.2955 -1.78008 -0.402414 0
M  V30 907 C 82.3465 -1.88373 3.08542 0
M  V30 908 O 82.0675 -1.10137 4.2403 0
M  V30 909 C 83.5685 -2.73934 3.48533 0
M  V30 910 H 80.7885 -0.282842 0.608475 0
M  V30 911 H 83.3325 -0.238971 2.03099 0
M  V30 912 H 81.4875 -2.56354 2.9045 0
M  V30 913 H 81.9015 -1.72501 4.95322 0
M  V30 914 H 83.3755 -3.34117 4.39397 0
M  V30 915 H 83.8525 -3.46244 2.70207 0
M  V30 916 H 84.4585 -2.11369 3.69057 0
M  V30 917 N 82.7736 -1.49793 -0.48987 0
M  V30 918 C 84.0206 -1.59841 -1.24327 0
M  V30 919 C 84.3486 -0.290135 -1.92324 0
M  V30 920 O 83.6036 0.722749 -1.81865 0
M  V30 921 C 83.9026 -2.71488 -2.32441 0
M  V30 922 C 83.5686 -4.12614 -1.81826 0
M  V30 923 C 82.2306 -4.51017 -1.67742 0
M  V30 924 C 84.5826 -5.00892 -1.4407 0
M  V30 925 C 81.9106 -5.75459 -1.14297 0
M  V30 926 C 84.2626 -6.25863 -0.920742 0
M  V30 927 C 82.9266 -6.63086 -0.766383 0
M  V30 928 H 82.1966 -0.584899 -0.454944 0
M  V30 929 H 84.8436 -1.83663 -0.542215 0
M  V30 930 H 83.1486 -2.4168 -3.0838 0
M  V30 931 H 84.8456 -2.76469 -2.90458 0
M  V30 932 H 81.4356 -3.82307 -1.93751 0
M  V30 933 H 85.6196 -4.7187 -1.53794 0
M  V30 934 H 80.8756 -6.02989 -1.01068 0
M  V30 935 H 85.0496 -6.9364 -0.619448 0
M  V30 936 H 82.6766 -7.59393 -0.350083 0
M  V30 937 N 84.2517 0.741722 -1.39055 0
M  V30 938 C 85.5287 1.49252 -1.26425 0
M  V30 939 C 85.9087 2.10705 0.129144 0
M  V30 940 O 85.2567 1.98045 1.13976 0
M  V30 941 C 85.4667 2.54934 -2.38347 0
M  V30 942 C 86.8147 3.21506 -2.77343 0
M  V30 943 O 87.8387 2.65245 -2.37747 0
M  V30 944 O 86.6977 4.23294 -3.45665 0
M  V30 945 H 83.7917 0.662451 -0.495064 0
M  V30 946 H 86.3377 0.776121 -1.50912 0
M  V30 947 H 85.1097 2.07857 -3.31529 0
M  V30 948 H 84.7327 3.34141 -2.15489 0
M  V30 949 N 85.7298 1.2412 0.971189 0
M  V30 950 C 86.6398 1.04747 2.09917 0
M  V30 951 C 87.6558 -0.0107162 1.73997 0
M  V30 952 O 88.8318 0.186714 2.00533 0
M  V30 953 C 85.8968 0.650828 3.40537 0
M  V30 954 C 84.9578 1.7851 3.90426 0
M  V30 955 C 84.1908 1.40729 5.14812 0
M  V30 956 O 84.4138 0.29557 5.69634 0
M  V30 957 O 83.3478 2.23168 5.58999 0
M  V30 958 H 87.1738 1.99304 2.29154 0
M  V30 959 H 84.7588 1.02908 1.08307 0
M  V30 960 H 86.6408 0.440992 4.19086 0
M  V30 961 H 85.3158 -0.265649 3.22608 0
M  V30 962 H 84.2228 2.04966 3.12953 0
M  V30 963 H 85.5558 2.68023 4.12825 0
M  V30 964 N 87.2079 -1.17134 1.05439 0
M  V30 965 C 88.1179 -2.24878 0.668365 0
M  V30 966 C 89.1339 -1.71186 -0.311687 0
M  V30 967 O 90.3099 -2.00738 -0.163161 0
M  V30 968 C 87.3749 -3.46662 0.051648 0
M  V30 969 C 86.4359 -4.15429 1.08246 0
M  V30 970 C 85.6689 -5.31399 0.495082 0
M  V30 971 O 85.8919 -5.66153 -0.694743 0
M  V30 972 O 84.8259 -5.89187 1.23056 0
M  V30 973 H 88.6519 -2.60189 1.56637 0
M  V30 974 H 86.2369 -1.24482 0.826104 0
M  V30 975 H 88.1189 -4.20394 -0.290966 0
M  V30 976 H 86.7939 -3.13142 -0.819971 0
M  V30 977 H 85.7009 -3.43704 1.47711 0
M  V30 978 H 87.0339 -4.52982 1.92532 0
M  V30 979 N 88.686 -0.835752 -1.33615 0
M  V30 980 C 89.649 -0.272 -2.2758 0
M  V30 981 C 90.649 0.557487 -1.50827 0
M  V30 982 O 91.839 0.37173 -1.70188 0
M  V30 983 C 88.971 0.617173 -3.35267 0
M  V30 984 H 90.164 -1.10111 -2.78954 0
M  V30 985 H 87.717 -0.608594 -1.43965 0
M  V30 986 H 88.452 1.46884 -2.89129 0
M  V30 987 H 88.237 0.0237066 -3.92093 0
M  V30 988 H 89.727 1.005 -4.05326 0
M  V30 989 N 90.1641 1.46063 -0.591896 0
M  V30 990 C 91.3941 2.06418 -0.0867676 0
M  V30 991 C 91.8021 1.43975 1.22751 0
M  V30 992 O 91.1451 0.542531 1.75506 0
M  V30 993 C 91.2071 3.59213 0.143725 0
M  V30 994 C 90.8711 4.439 -1.08635 0
M  V30 995 C 91.8681 4.79864 -2.00067 0
M  V30 996 C 89.5531 4.84896 -1.31077 0
M  V30 997 C 91.5471 5.55661 -3.12282 0
M  V30 998 C 89.2341 5.6045 -2.43596 0
M  V30 999 C 90.2321 5.95747 -3.34027 0
M  V30 1000 O 89.9201 6.69772 -4.4459 0
M  V30 1001 H 89.6521 0.673443 -0.0587447 0
M  V30 1002 H 92.2061 1.88539 -0.814994 0
M  V30 1003 H 90.4361 3.75433 0.926668 0
M  V30 1004 H 92.1251 4.01463 0.5985 0
M  V30 1005 H 92.8911 4.48763 -1.83947 0
M  V30 1006 H 88.7701 4.56867 -0.61594 0
M  V30 1007 H 92.3141 5.8313 -3.82891 0
M  V30 1008 H 88.2111 5.90965 -2.59674 0
M  V30 1009 H 88.9791 6.88207 -4.43073 0
M  V30 1010 N 91.6422 0.330177 1.54103 0
M  V30 1011 C 92.5892 -0.532762 2.24567 0
M  V30 1012 C 93.5592 -1.10635 1.23892 0
M  V30 1013 O 94.7442 -1.14546 1.5259 0
M  V30 1014 C 91.8842 -1.6845 3.01195 0
M  V30 1015 C 90.9972 -1.13951 4.167 0
M  V30 1016 C 90.1322 -2.25746 4.80845 0
M  V30 1017 C 89.1712 -1.6853 5.88442 0
M  V30 1018 N 88.3082 -2.74014 6.46421 0
M  V30 1019 H 93.1482 0.0746905 2.97906 0
M  V30 1020 H 90.6852 0.048632 1.4702 0
M  V30 1021 H 92.6432 -2.36234 3.43874 0
M  V30 1022 H 91.2732 -2.26314 2.30178 0
M  V30 1023 H 90.3252 -0.35301 3.78758 0
M  V30 1024 H 91.6372 -0.680892 4.94131 0
M  V30 1025 H 90.7912 -3.01422 5.26526 0
M  V30 1026 H 89.5302 -2.74947 4.0281 0
M  V30 1027 H 88.5352 -0.913543 5.42157 0
M  V30 1028 H 89.7602 -1.20198 6.68378 0
M  V30 1029 H 87.7062 -3.22494 5.71256 0
M  V30 1030 H 87.6232 -2.32735 7.19285 0
M  V30 1031 H 88.8912 -3.49499 6.96757 0
M  V30 1032 N 93.1203 -1.57491 0.0584922 0
M  V30 1033 C 94.0683 -2.13148 -0.931168 0
M  V30 1034 C 95.0623 -1.06507 -1.31729 0
M  V30 1035 O 96.2683 -1.24906 -1.29609 0
M  V30 1036 H 92.6433 -0.68137 -0.31818 0
M  V30 1037 H 94.6143 -2.95187 -0.436707 0
M  V30 1038 C 93.3633 -2.69732 -2.19408 0
M  V30 1039 H 92.6863 -3.51454 -1.90578 0
M  V30 1040 H 94.1263 -3.12287 -2.86798 0
M  V30 1041 C 92.5853 -1.63855 -2.94369 0
M  V30 1042 O 93.1153 -1.05565 -3.87581 0
M  V30 1043 N 91.3213 -1.35202 -2.57233 0
M  V30 1044 H 90.8683 -1.82791 -1.81508 0
M  V30 1045 H 90.8263 -0.645922 -3.07693 0
M  V30 1046 N 94.5984 0.214957 -1.56127 0
M  V30 1047 C 95.8444 0.939762 -1.79712 0
M  V30 1048 C 96.1774 1.83723 -0.629247 0
M  V30 1049 O 95.4524 1.90925 0.371197 0
M  V30 1050 C 95.7354 1.77306 -3.13424 0
M  V30 1051 C 95.5884 0.90164 -4.40671 0
M  V30 1052 C 96.9074 2.74956 -3.43638 0
M  V30 1053 H 94.0264 0.340214 -0.653776 0
M  V30 1054 H 96.6684 0.20824 -1.88855 0
M  V30 1055 H 94.8184 2.39673 -3.0576 0
M  V30 1056 H 96.4904 0.294206 -4.60361 0
M  V30 1057 H 94.7334 0.207368 -4.33304 0
M  V30 1058 H 95.4044 1.51923 -5.30682 0
M  V30 1059 H 97.8804 2.22724 -3.51473 0
M  V30 1060 H 96.7564 3.30358 -4.38355 0
M  V30 1061 H 97.0174 3.53023 -2.66134 0
M  V30 1062 N 96.0765 1.50051 0.48192 0
M  V30 1063 C 97.0245 1.68635 1.60203 0
M  V30 1064 C 98.0185 0.552184 1.60148 0
M  V30 1065 O 99.2245 0.732377 1.64427 0
M  V30 1066 H 95.5995 0.532081 0.531407 0
M  V30 1067 H 97.5705 2.62616 1.41688 0
M  V30 1068 C 96.3195 1.78775 2.9822 0
M  V30 1069 H 95.6425 2.6543 2.98976 0
M  V30 1070 H 97.0825 1.95806 3.7608 0
M  V30 1071 C 95.5415 0.536849 3.32595 0
M  V30 1072 O 96.0715 -0.328897 4.00351 0
M  V30 1073 N 94.2775 0.394091 2.87915 0
M  V30 1074 H 93.8245 1.09962 2.32951 0
M  V30 1075 H 93.7825 -0.441737 3.11281 0
M  V30 1076 N 97.5546 -0.734337 1.39446 0
M  V30 1077 C 98.4866 -1.85861 1.34121 0
M  V30 1078 C 99.4996 -1.60871 0.249864 0
M  V30 1079 O 100.689 -1.71093 0.508865 0
M  V30 1080 C 97.7886 -3.21899 1.05991 0
M  V30 1081 C 96.9616 -3.74239 2.26415 0
M  V30 1082 C 96.0206 -4.88841 1.94733 0
M  V30 1083 O 95.0466 -5.02468 2.67422 0
M  V30 1084 N 96.2486 -5.73261 0.913884 0
M  V30 1085 H 99.0136 -1.90934 2.31007 0
M  V30 1086 H 96.5746 -0.915102 1.33557 0
M  V30 1087 H 98.5666 -3.96136 0.828147 0
M  V30 1088 H 97.1366 -3.12091 0.178361 0
M  V30 1089 H 96.3566 -2.91347 2.65539 0
M  V30 1090 H 97.6446 -4.05942 3.06738 0
M  V30 1091 H 97.0426 -5.64842 0.311476 0
M  V30 1092 H 95.5996 -6.47563 0.742015 0
M  V30 1093 N 99.0327 -1.24633 -0.964593 0
M  V30 1094 C 99.9427 -1.05859 -2.09359 0
M  V30 1095 C 100.959 0.00148855 -1.74 0
M  V30 1096 O 102.135 -0.197346 -2.00431 0
M  V30 1097 C 99.1997 -0.668879 -3.40187 0
M  V30 1098 C 98.2607 -1.80578 -3.89474 0
M  V30 1099 C 97.4937 -1.43457 -5.14058 0
M  V30 1100 O 97.7167 -0.325775 -5.69469 0
M  V30 1101 O 96.6507 -2.2613 -5.57807 0
M  V30 1102 H 100.477 -2.00516 -2.28094 0
M  V30 1103 H 98.0617 -1.03481 -1.0776 0
M  V30 1104 H 99.9437 -0.463211 -4.18846 0
M  V30 1105 H 98.6187 0.248536 -3.22744 0
M  V30 1106 H 97.5257 -2.06623 -3.11862 0
M  V30 1107 H 98.8587 -2.70208 -4.11398 0
M  V30 1108 N 100.511 1.16574 -1.06058 0
M  V30 1109 C 101.757 1.87324 -0.777022 0
M  V30 1110 C 102.09 1.81351 0.694645 0
M  V30 1111 O 101.365 1.22753 1.50871 0
M  V30 1112 C 101.648 3.36991 -1.26922 0
M  V30 1113 C 101.501 3.51667 -2.80447 0
M  V30 1114 C 102.82 4.3131 -0.87521 0
M  V30 1115 H 99.9388 0.680191 -0.28374 0
M  V30 1116 H 102.581 1.37036 -1.3161 0
M  V30 1117 H 100.731 3.79949 -0.81063 0
M  V30 1118 H 102.403 3.17664 -3.34495 0
M  V30 1119 H 100.646 2.93656 -3.19294 0
M  V30 1120 H 101.317 4.56766 -3.0995 0
M  V30 1121 H 103.793 3.9624 -1.27014 0
M  V30 1122 H 102.669 5.34545 -1.2471 0
M  V30 1123 H 102.93 4.41552 0.220071 0
M  V30 1124 N 101.989 0.842826 1.3317 0
M  V30 1125 C 103.235 0.441099 1.97945 0
M  V30 1126 C 103.568 -0.998024 1.66593 0
M  V30 1127 O 102.843 -1.69839 0.947898 0
M  V30 1128 C 103.126 0.666841 3.53872 0
M  V30 1129 C 102.979 2.15352 3.94897 0
M  V30 1130 C 104.298 0.115544 4.39948 0
M  V30 1131 H 101.417 0.161739 0.719034 0
M  V30 1132 H 104.059 1.05907 1.57746 0
M  V30 1133 H 102.209 0.140828 3.88245 0
M  V30 1134 H 103.881 2.7447 3.70761 0
M  V30 1135 H 102.124 2.63653 3.44484 0
M  V30 1136 H 102.795 2.26221 5.03516 0
M  V30 1137 H 105.271 0.565213 4.12243 0
M  V30 1138 H 104.147 0.303152 5.48062 0
M  V30 1139 H 104.408 -0.980935 4.3108 0
M  V30 1140 N 103.467 -1.45747 0.599634 0
M  V30 1141 C 104.744 -1.95585 0.0240846 0
M  V30 1142 C 105.124 -1.54217 -1.44154 0
M  V30 1143 O 104.472 -0.800903 -2.14004 0
M  V30 1144 C 104.682 -3.48344 0.21385 0
M  V30 1145 C 106.03 -4.24504 0.0904902 0
M  V30 1146 O 107.054 -3.55911 0.143558 0
M  V30 1147 O 105.913 -5.46491 -0.0310766 0
M  V30 1148 H 103.007 -0.82602 -0.0402478 0
M  V30 1149 H 105.553 -1.55951 0.669139 0
M  V30 1150 H 104.325 -3.71397 1.23206 0
M  V30 1151 H 103.948 -3.9485 -0.466842 0
M  V30 1152 N 104.945 -0.338344 -1.53925 0
M  V30 1153 C 106.192 0.259758 -2.00827 0
M  V30 1154 C 106.52 1.50973 -1.22628 0
M  V30 1155 O 105.775 1.93379 -0.300509 0
M  V30 1156 C 106.074 0.62448 -3.51902 0
M  V30 1157 C 105.74 -0.528006 -4.47798 0
M  V30 1158 C 104.402 -0.844298 -4.73735 0
M  V30 1159 C 106.754 -1.30143 -5.0469 0
M  V30 1160 C 104.082 -1.93648 -5.53821 0
M  V30 1161 C 106.434 -2.38382 -5.85967 0
M  V30 1162 C 105.098 -2.70576 -6.10201 0
M  V30 1163 H 104.368 0.0950523 -0.734878 0
M  V30 1164 H 107.015 -0.465182 -1.85764 0
M  V30 1165 H 105.32 1.43006 -3.64769 0
M  V30 1166 H 107.017 1.09905 -3.85645 0
M  V30 1167 H 103.607 -0.271421 -4.2774 0
M  V30 1168 H 107.791 -1.07033 -4.84621 0
M  V30 1169 H 103.047 -2.19021 -5.70824 0
M  V30 1170 H 107.221 -2.98746 -6.29066 0
M  V30 1171 H 104.848 -3.55333 -6.72044 0
M  V30 1172 N 106.423 1.57458 -0.0668435 0
M  V30 1173 C 107.333 2.15937 0.916975 0
M  V30 1174 C 108.349 1.12123 1.33058 0
M  V30 1175 O 109.525 1.44366 1.40429 0
M  V30 1176 C 106.59 2.70547 2.16807 0
M  V30 1177 C 105.651 3.89215 1.81135 0
M  V30 1178 C 104.884 4.41211 3.0028 0
M  V30 1179 O 105.107 3.92225 4.14144 0
M  V30 1180 O 104.041 5.32605 2.80384 0
M  V30 1181 H 107.867 3.00354 0.449561 0
M  V30 1182 H 105.452 1.48584 0.155949 0
M  V30 1183 H 107.334 3.0557 2.90181 0
M  V30 1184 H 106.009 1.89192 2.62656 0
M  V30 1185 H 104.916 3.59054 1.05028 0
M  V30 1186 H 106.249 4.71848 1.40073 0
M  V30 1187 N 107.901 -0.206675 1.56239 0
M  V30 1188 C 108.848 -1.25617 1.93621 0
M  V30 1189 C 109.818 -1.45824 0.795274 0
M  V30 1190 O 111.003 -1.59148 1.05245 0
M  V30 1191 C 108.143 -2.59839 2.27107 0
M  V30 1192 C 107.256 -2.47308 3.54207 0
M  V30 1193 C 106.391 -3.74155 3.7707 0
M  V30 1194 C 105.43 -3.56407 4.97635 0
M  V30 1195 N 104.567 -4.75238 5.1681 0
M  V30 1196 H 109.407 -0.930383 2.83104 0
M  V30 1197 H 106.944 -0.448065 1.4011 0
M  V30 1198 H 108.902 -3.38021 2.44535 0
M  V30 1199 H 107.532 -2.90485 1.40778 0
M  V30 1200 H 106.584 -1.60483 3.4489 0
M  V30 1201 H 107.896 -2.30122 4.42544 0
M  V30 1202 H 107.05 -4.60778 3.94675 0
M  V30 1203 H 105.789 -3.94282 2.87042 0
M  V30 1204 H 104.794 -2.68168 4.79964 0
M  V30 1205 H 106.019 -3.37736 5.89161 0
M  V30 1206 H 103.965 -4.95651 4.29728 0
M  V30 1207 H 103.882 -4.60835 5.99306 0
M  V30 1208 H 105.15 -5.63246 5.38864 0
M  V30 1209 N 109.379 -1.50304 -0.473955 0
M  V30 1210 C 110.309 -1.71886 -1.58042 0
M  V30 1211 C 111.29 -0.567799 -1.60344 0
M  V30 1212 O 112.475 -0.806623 -1.76656 0
M  V30 1213 C 109.605 -1.81036 -2.96384 0
M  V30 1214 C 108.559 -2.962 -3.08949 0
M  V30 1215 C 107.885 -2.9049 -4.48909 0
M  V30 1216 C 109.185 -4.36752 -2.86434 0
M  V30 1217 H 110.879 -2.64527 -1.40234 0
M  V30 1218 H 108.425 -1.27295 -0.673201 0
M  V30 1219 H 110.378 -1.94719 -3.73714 0
M  V30 1220 H 109.102 -0.850147 -3.15341 0
M  V30 1221 H 107.761 -2.82164 -2.3405 0
M  V30 1222 H 107.409 -1.92321 -4.64781 0
M  V30 1223 H 107.109 -3.67802 -4.58253 0
M  V30 1224 H 108.633 -3.06218 -5.28264 0
M  V30 1225 H 110.047 -4.5133 -3.53517 0
M  V30 1226 H 108.444 -5.15493 -3.07225 0
M  V30 1227 H 109.514 -4.49321 -1.82316 0
M  V30 1228 N 110.857 0.726932 -1.39834 0
M  V30 1229 C 112.134 1.47902 -1.28001 0
M  V30 1230 C 112.514 2.1083 0.106789 0
M  V30 1231 O 111.862 1.99242 1.11869 0
M  V30 1232 C 112.072 2.52392 -2.41038 0
M  V30 1233 C 113.42 3.18546 -2.80737 0
M  V30 1234 O 114.444 2.62708 -2.40547 0
M  V30 1235 O 113.303 4.19604 -3.50135 0
M  V30 1236 H 110.397 0.657163 -0.502062 0
M  V30 1237 H 112.943 0.760071 -1.51727 0
M  V30 1238 H 111.715 2.04329 -3.33715 0
M  V30 1239 H 111.338 3.31837 -2.19021 0
M  V30 1240 N 112.336 1.25143 0.95797 0
M  V30 1241 C 113.613 1.00472 1.67823 0
M  V30 1242 C 113.993 -0.470056 2.058 0
M  V30 1243 O 113.341 -1.44663 1.76875 0
M  V30 1244 C 113.551 1.9372 2.90299 0
M  V30 1245 C 114.899 2.21371 3.62326 0
M  V30 1246 O 115.923 1.91451 3.00375 0
M  V30 1247 O 114.782 2.72231 4.7387 0
M  V30 1248 H 111.876 0.380752 0.734137 0
M  V30 1249 H 114.422 1.36283 1.01119 0
M  V30 1250 H 113.194 2.93316 2.59001 0
M  V30 1251 H 112.817 1.58286 3.64735 0
M  V30 1252 N 113.814 -1.1601 1.06675 0
M  V30 1253 C 115.044 -1.90251 0.805497 0
M  V30 1254 C 115.452 -1.77891 -0.64431 0
M  V30 1255 O 114.795 -1.12383 -1.45313 0
M  V30 1256 C 114.857 -3.41419 1.12576 0
M  V30 1257 C 114.521 -3.77564 2.57477 0
M  V30 1258 C 115.518 -3.79161 3.55715 0
M  V30 1259 C 113.203 -4.08079 2.92877 0
M  V30 1260 C 115.197 -4.10767 4.8739 0
M  V30 1261 C 112.884 -4.39351 4.24751 0
M  V30 1262 C 113.882 -4.40675 5.21818 0
M  V30 1263 O 113.57 -4.71202 6.51325 0
M  V30 1264 H 113.302 -0.610018 0.291297 0
M  V30 1265 H 115.856 -1.47958 1.4247 0
M  V30 1266 H 114.086 -3.84079 0.449503 0
M  V30 1267 H 115.775 -3.9694 0.84814 0
M  V30 1268 H 116.541 -3.55693 3.29708 0
M  V30 1269 H 112.42 -4.06211 2.17976 0
M  V30 1270 H 115.964 -4.11715 5.63148 0
M  V30 1271 H 111.861 -4.62285 4.50514 0
M  V30 1272 H 112.629 -4.88996 6.56373 0
M  V30 1273 N 115.292 -0.849877 -1.32721 0
M  V30 1274 C 116.255 -0.296122 -2.27279 0
M  V30 1275 C 117.255 0.541458 -1.5141 0
M  V30 1276 O 118.445 0.353658 -1.70572 0
M  V30 1277 C 115.577 0.581579 -3.35902 0
M  V30 1278 H 116.77 -1.13064 -2.77771 0
M  V30 1279 H 114.323 -0.62383 -1.43311 0
M  V30 1280 H 115.058 1.43809 -2.9067 0
M  V30 1281 H 114.843 -0.0178814 -3.92096 0
M  V30 1282 H 116.333 0.961951 -4.0637 0
M  V30 1283 N 116.77 1.45427 -0.607355 0
M  V30 1284 C 117.995 2.07124 -0.107006 0
M  V30 1285 C 118.42 1.44906 1.19933 0
M  V30 1286 O 117.778 0.541687 1.73019 0
M  V30 1287 C 117.826 3.60595 0.0194119 0
M  V30 1288 O 116.93 3.98285 1.0697 0
M  V30 1289 H 116.271 0.659868 -0.0739597 0
M  V30 1290 H 118.801 1.86683 -0.837297 0
M  V30 1291 H 118.811 4.07419 0.2177 0
M  V30 1292 H 117.486 4.05266 -0.934453 0
M  V30 1293 H 116.063 3.63133 0.847889 0
M  V30 1294 N 118.248 0.346503 1.53744 0
M  V30 1295 C 119.211 -0.496439 2.23759 0
M  V30 1296 C 120.211 -1.0252 1.2388 0
M  V30 1297 O 121.401 -0.913974 1.48297 0
M  V30 1298 C 118.533 -1.69187 2.95954 0
M  V30 1299 H 119.726 0.115952 2.99676 0
M  V30 1300 H 117.279 0.0978939 1.55993 0
M  V30 1301 H 118.014 -2.34288 2.24231 0
M  V30 1302 H 117.799 -1.31989 3.69217 0
M  V30 1303 H 119.289 -2.28969 3.49232 0
M  V30 1304 N 119.726 -1.57421 0.075193 0
M  V30 1305 C 120.973 -1.93618 -0.593146 0
M  V30 1306 C 121.301 -0.955484 -1.69413 0
M  V30 1307 O 120.556 0.0283251 -1.9568 0
M  V30 1308 C 120.855 -3.36428 -1.20626 0
M  V30 1309 C 120.521 -4.50307 -0.231078 0
M  V30 1310 C 119.183 -4.81186 0.0371936 0
M  V30 1311 C 121.535 -5.19374 0.435888 0
M  V30 1312 C 118.863 -5.78466 0.979461 0
M  V30 1313 C 121.215 -6.17665 1.3665 0
M  V30 1314 C 119.879 -6.46958 1.6432 0
M  V30 1315 H 119.149 -0.708499 -0.217047 0
M  V30 1316 H 121.796 -1.90937 0.146793 0
M  V30 1317 H 120.101 -3.35592 -2.02201 0
M  V30 1318 H 121.798 -3.61727 -1.73073 0
M  V30 1319 H 118.388 -4.26227 -0.450357 0
M  V30 1320 H 122.572 -4.95711 0.241748 0
M  V30 1321 H 117.828 -5.99487 1.20106 0
M  V30 1322 H 122.002 -6.70284 1.88924 0
M  V30 1323 H 119.629 -7.2215 2.37494 0
M  V30 1324 N 121.204 0.198386 -1.56346 0
M  V30 1325 C 122.136 1.26987 -1.90806 0
M  V30 1326 C 123.149 1.41877 -0.798419 0
M  V30 1327 O 124.338 1.42362 -1.07682 0
M  V30 1328 C 121.438 2.64246 -2.12196 0
M  V30 1329 C 120.611 2.71007 -3.43328 0
M  V30 1330 C 119.67 3.89439 -3.5387 0
M  V30 1331 O 118.696 3.76695 -4.26719 0
M  V30 1332 N 119.898 5.04752 -2.86715 0
M  V30 1333 H 122.663 0.977433 -2.83313 0
M  V30 1334 H 120.224 0.388322 -1.57174 0
M  V30 1335 H 122.216 3.41896 -2.1654 0
M  V30 1336 H 120.786 2.85992 -1.26204 0
M  V30 1337 H 120.006 1.79657 -3.50881 0
M  V30 1338 H 121.294 2.72512 -4.29668 0
M  V30 1339 H 120.692 5.18004 -2.2735 0
M  V30 1340 H 119.249 5.8036 -2.96691 0
M  V30 1341 N 122.682 1.50554 0.465978 0
M  V30 1342 C 123.93 1.61479 1.21528 0
M  V30 1343 C 124.251 0.319596 1.92363 0
M  V30 1344 O 123.521 -0.663194 1.84333 0
M  V30 1345 H 122.101 0.595055 0.451573 0
M  V30 1346 H 124.763 1.87355 0.53704 0
M  V30 1347 H 123.859 2.42846 1.96042 0
M  V30 1348 N 124.16 -0.719506 1.40217 0
M  V30 1349 C 125.11 -1.8251 1.36653 0
M  V30 1350 C 126.094 -1.59028 0.244732 0
M  V30 1351 O 127.286 -1.70268 0.483524 0
M  V30 1352 C 124.415 -3.20599 1.22763 0
M  V30 1353 C 123.501 -3.49858 2.39708 0
M  V30 1354 N 123.892 -3.49957 3.6519 0
M  V30 1355 C 122.19 -3.80297 2.33002 0
M  V30 1356 C 122.891 -3.77449 4.42614 0
M  V30 1357 N 121.867 -3.96002 3.72402 0
M  V30 1358 H 125.669 -1.80914 2.31619 0
M  V30 1359 H 123.183 -0.918455 1.33933 0
M  V30 1360 H 125.18 -3.99766 1.18292 0
M  V30 1361 H 123.84 -3.23424 0.287614 0
M  V30 1362 H 124.851 -3.309 3.98404 0
M  V30 1363 H 121.528 -3.90635 1.47346 0
M  V30 1364 H 122.918 -3.83863 5.51451 0
M  V30 1365 N 125.638 -1.25649 -0.95132 0
M  V30 1366 C 126.915 -1.01361 -1.67288 0
M  V30 1367 C 127.295 0.459135 -2.06046 0
M  V30 1368 O 126.643 1.43723 -1.7764 0
M  V30 1369 C 126.853 -1.95256 -2.89268 0
M  V30 1370 C 128.201 -2.23289 -3.61147 0
M  V30 1371 O 129.225 -1.93041 -2.99355 0
M  V30 1372 O 128.084 -2.74741 -4.72419 0
M  V30 1373 H 125.178 -0.38464 -0.732107 0
M  V30 1374 H 127.724 -1.36817 -1.00395 0
M  V30 1375 H 126.496 -2.94685 -2.57442 0
M  V30 1376 H 126.119 -1.60218 -3.6389 0
M  V30 1377 N 127.117 1.15442 -1.07289 0
M  V30 1378 C 128.363 1.86489 -0.796846 0
M  V30 1379 C 128.696 1.82078 0.675371 0
M  V30 1380 O 127.971 1.24346 1.4956 0
M  V30 1381 C 128.254 3.35626 -1.30489 0
M  V30 1382 C 128.107 3.48673 -2.84161 0
M  V30 1383 C 129.426 4.30357 -0.920907 0
M  V30 1384 H 126.545 0.677144 -0.290939 0
M  V30 1385 H 129.187 1.35633 -1.33056 0
M  V30 1386 H 127.337 3.79068 -0.850883 0
M  V30 1387 H 129.009 3.14099 -3.37846 0
M  V30 1388 H 127.252 2.90253 -3.22391 0
M  V30 1389 H 127.923 4.53453 -3.14777 0
M  V30 1390 H 130.399 3.94871 -1.3121 0
M  V30 1391 H 129.275 5.33193 -1.30372 0
M  V30 1392 H 129.536 4.4176 0.173226 0
M  V30 1393 N 128.595 0.856903 1.32268 0
M  V30 1394 C 129.843 0.460474 1.96784 0
M  V30 1395 C 130.164 -0.987701 1.68135 0
M  V30 1396 O 129.434 -1.69058 0.989765 0
M  V30 1397 H 128.014 0.167289 0.728027 0
M  V30 1398 H 130.676 1.09383 1.61312 0
M  V30 1399 H 129.772 0.60739 3.06133 0
M  V30 1400 N 130.073 -1.45103 0.615059 0
M  V30 1401 C 131.32 -2.02183 0.113179 0
M  V30 1402 C 131.648 -1.48249 -1.25906 0
M  V30 1403 O 130.903 -0.650265 -1.84581 0
M  V30 1404 C 131.202 -3.57386 0.0318797 0
M  V30 1405 C 130.868 -4.30505 1.34077 0
M  V30 1406 C 129.53 -4.50197 1.69929 0
M  V30 1407 C 131.882 -4.72238 2.20546 0
M  V30 1408 C 129.21 -5.08881 2.91988 0
M  V30 1409 C 131.562 -5.32272 3.41861 0
M  V30 1410 C 130.226 -5.50187 3.77956 0
M  V30 1411 H 129.496 -0.739842 0.0414151 0
M  V30 1412 H 132.143 -1.74073 0.798168 0
M  V30 1413 H 130.448 -3.84817 -0.736409 0
M  V30 1414 H 132.145 -3.99264 -0.372712 0
M  V30 1415 H 128.735 -4.15496 1.05173 0
M  V30 1416 H 132.919 -4.56751 1.94146 0
M  V30 1417 H 128.175 -5.20939 3.2005 0
M  V30 1418 H 132.349 -5.63563 4.09109 0
M  V30 1419 H 129.976 -5.95427 4.72622 0
M  V30 1420 N 131.551 -0.354651 -1.53558 0
M  V30 1421 C 132.791 0.238651 -2.03002 0
M  V30 1422 C 133.155 1.46878 -1.23656 0
M  V30 1423 O 134.356 2.13699 -1.63053 0
M  V30 1424 C 132.627 0.534175 -3.53386 0
M  V30 1425 S 134.186 1.10271 -4.24719 0
M  V30 1426 H 131.004 0.0702908 -0.707517 0
M  V30 1427 H 133.606 -0.494987 -1.8913 0
M  V30 1428 H 132.31 -0.368765 -4.0874 0
M  V30 1429 H 131.841 1.29718 -3.71398 0
M  V30 1430 H 133.856 2.38772 -4.34974 0
M  V30 1431 N 133.029 1.57378 -0.0835403 0
M  V30 1432 C 134.269 1.95808 0.586381 0
M  V30 1433 C 134.633 0.963706 1.66062 0
M  V30 1434 O 135.834 1.23608 2.38693 0
M  V30 1435 C 134.105 3.38808 1.13771 0
M  V30 1436 S 135.664 3.99225 1.82112 0
M  V30 1437 H 132.482 0.684675 0.191679 0
M  V30 1438 H 135.084 1.94843 -0.160194 0
M  V30 1439 H 133.788 4.08954 0.344197 0
M  V30 1440 H 133.319 3.43344 1.92038 0
M  V30 1441 H 135.334 3.87087 3.10449 0
M  V30 1442 N 134.507 -0.190092 1.56449 0
M  V30 1443 C 135.437 -1.23816 1.97969 0
M  V30 1444 C 136.418 -1.47201 0.852395 0
M  V30 1445 O 137.603 -1.58854 1.1171 0
M  V30 1446 C 134.733 -2.5813 2.3235 0
M  V30 1447 C 133.687 -2.49348 3.47864 0
M  V30 1448 C 133.013 -3.8798 3.67934 0
M  V30 1449 C 134.313 -2.01424 4.81898 0
M  V30 1450 H 136.007 -0.89311 2.85769 0
M  V30 1451 H 133.553 -0.428177 1.37487 0
M  V30 1452 H 135.506 -3.31637 2.59991 0
M  V30 1453 H 134.23 -2.94386 1.41438 0
M  V30 1454 H 132.889 -1.78297 3.20321 0
M  V30 1455 H 132.537 -4.21597 2.74344 0
M  V30 1456 H 132.237 -3.82978 4.45648 0
M  V30 1457 H 133.761 -4.63101 3.97957 0
M  V30 1458 H 135.175 -2.64693 5.08538 0
M  V30 1459 H 133.572 -2.07413 5.63116 0
M  V30 1460 H 134.642 -0.967677 4.75146 0
M  V30 1461 N 135.985 -1.50799 -0.457987 0
M  V30 1462 C 137.233 -1.62121 -1.2067 0
M  V30 1463 C 137.554 -0.329793 -1.92191 0
M  V30 1464 O 136.824 0.653409 -1.84682 0
M  V30 1465 H 135.404 -0.597441 -0.448411 0
M  V30 1466 H 138.066 -1.87637 -0.527096 0
M  V30 1467 H 137.162 -2.43882 -1.94751 0
M  V30 1468 N 137.463 0.71206 -1.40597 0
M  V30 1469 C 138.691 1.50111 -1.42388 0
M  V30 1470 C 139.106 1.88784 -0.0245395 0
M  V30 1471 O 138.463 1.55681 0.952351 0
M  V30 1472 C 138.514 2.7742 -2.31776 0
M  V30 1473 O 138.235 2.40382 -3.66262 0
M  V30 1474 C 139.736 3.7129 -2.42196 0
M  V30 1475 H 136.956 0.46314 -0.485533 0
M  V30 1476 H 139.5 0.878068 -1.8469 0
M  V30 1477 H 137.655 3.36001 -1.92827 0
M  V30 1478 H 138.069 3.22324 -4.13772 0
M  V30 1479 H 139.543 4.57448 -3.08943 0
M  V30 1480 H 140.02 4.14641 -1.44809 0
M  V30 1481 H 140.626 3.18619 -2.81712 0
M  V30 1482 N 138.941 1.26152 0.944643 0
M  V30 1483 C 140.169 1.14259 1.72489 0
M  V30 1484 C 140.584 -0.302555 1.8636 0
M  V30 1485 O 139.941 -1.20741 1.36849 0
M  V30 1486 C 139.992 1.80266 3.13347 0
M  V30 1487 O 139.713 3.19133 3.00143 0
M  V30 1488 C 141.214 1.74283 4.07603 0
M  V30 1489 H 138.434 0.398051 0.540181 0
M  V30 1490 H 140.978 1.66706 1.18446 0
M  V30 1491 H 139.133 1.31766 3.64303 0
M  V30 1492 H 139.547 3.51744 3.89071 0
M  V30 1493 H 141.021 2.25111 5.04013 0
M  V30 1494 H 141.498 0.708631 4.33446 0
M  V30 1495 H 142.104 2.22319 3.62567 0
M  V30 1496 N 140.419 -1.14872 1.07899 0
M  V30 1497 C 141.835 -1.37776 0.805606 0
M  V30 1498 C 142.035 -1.92743 -0.587555 0
M  V30 1499 O 141.091 -2.13678 -1.34528 0
M  V30 1500 C 142.404 -2.34361 1.88402 0
M  V30 1501 C 143.952 -2.48012 1.90942 0
M  V30 1502 C 144.427 -3.47893 2.97883 0
M  V30 1503 N 145.918 -3.55433 2.97021 0
M  V30 1504 C 146.653 -4.32553 3.76412 0
M  V30 1505 N 146.149 -5.12959 4.65666 0
M  V30 1506 N 147.942 -4.27697 3.64735 0
M  V30 1507 H 140.093 -0.775365 1.97742 0
M  V30 1508 H 142.356 -0.403521 0.857831 0
M  V30 1509 H 142.062 -2.01098 2.88535 0
M  V30 1510 H 141.936 -3.34206 1.74889 0
M  V30 1511 H 144.323 -2.8057 0.914579 0
M  V30 1512 H 144.404 -1.48147 2.08534 0
M  V30 1513 H 144.048 -3.16069 3.97571 0
M  V30 1514 H 143.978 -4.47527 2.77538 0
M  V30 1515 H 146.469 -2.98048 2.32326 0
M  V30 1516 H 146.782 -5.69065 5.22862 0
M  V30 1517 H 145.127 -5.12245 4.69712 0
M  V30 1518 H 148.318 -3.63949 2.94378 0
M  V30 1519 H 148.491 -4.8755 4.26848 0
M  V30 1520 N 141.898 -0.863906 -1.31812 0
M  V30 1521 C 143.146 -0.470904 -1.96537 0
M  V30 1522 C 143.467 0.978771 -1.68657 0
M  V30 1523 O 142.737 1.6853 -0.998717 0
M  V30 1524 H 141.317 -0.171148 -0.72713 0
M  V30 1525 H 143.979 -1.10236 -1.60729 0
M  V30 1526 H 143.075 -0.623616 -3.05806 0
M  V30 1527 N 143.376 1.44774 -0.622745 0
M  V30 1528 C 144.323 2.30635 0.0871679 0
M  V30 1529 C 145.293 1.42994 0.845097 0
M  V30 1530 O 146.478 1.71907 0.827812 0
M  V30 1531 C 143.618 3.28144 1.06844 0
M  V30 1532 C 142.731 4.30888 0.309809 0
M  V30 1533 C 141.866 5.15494 1.28215 0
M  V30 1534 C 140.905 6.09953 0.512198 0
M  V30 1535 N 140.042 6.87287 1.43458 0
M  V30 1536 H 144.882 2.90803 -0.650974 0
M  V30 1537 H 142.419 1.43286 -0.33281 0
M  V30 1538 H 144.377 3.83157 1.65066 0
M  V30 1539 H 143.007 2.69695 1.77382 0
M  V30 1540 H 142.059 3.78414 -0.388181 0
M  V30 1541 H 143.371 4.97955 -0.290254 0
M  V30 1542 H 142.525 5.74983 1.93596 0
M  V30 1543 H 141.264 4.48481 1.91614 0
M  V30 1544 H 140.269 5.49581 -0.155151 0
M  V30 1545 H 141.494 6.78999 -0.116958 0
M  V30 1546 H 139.44 6.2295 2.05594 0
M  V30 1547 H 139.357 7.50763 0.888335 0
M  V30 1548 H 140.625 7.51306 2.07749 0
M  V30 1549 N 144.854 0.36279 1.53368 0
M  V30 1550 C 145.817 -0.472679 2.24273 0
M  V30 1551 C 146.817 -1.012 1.24961 0
M  V30 1552 O 148.007 -0.898194 1.49259 0
M  V30 1553 C 145.139 -1.66039 2.97731 0
M  V30 1554 H 146.332 0.14773 2.99536 0
M  V30 1555 H 143.885 0.114434 1.55881 0
M  V30 1556 H 144.62 -2.31896 2.26704 0
M  V30 1557 H 144.405 -1.28066 3.70596 0
M  V30 1558 H 145.895 -2.25252 3.51641 0
M  V30 1559 N 146.332 -1.57332 0.0918853 0
M  V30 1560 C 147.58 -1.93853 -0.571446 0
M  V30 1561 C 147.901 -0.974212 -1.6892 0
M  V30 1562 O 147.171 -0.0257254 -1.95883 0
M  V30 1563 H 145.751 -0.715666 -0.214082 0
M  V30 1564 H 148.413 -1.94287 0.154464 0
M  V30 1565 H 147.509 -2.96191 -0.983729 0
M  V30 1566 N 147.81 0.181792 -1.56548 0
M  V30 1567 C 148.773 1.20894 -1.94724 0
M  V30 1568 C 149.773 1.37738 -0.829747 0
M  V30 1569 O 150.963 1.35323 -1.09697 0
M  V30 1570 C 148.095 2.57593 -2.23291 0
M  V30 1571 H 149.288 0.882275 -2.86629 0
M  V30 1572 H 146.841 0.423838 -1.50444 0
M  V30 1573 H 147.576 2.95291 -1.34067 0
M  V30 1574 H 147.361 2.46735 -3.04736 0
M  V30 1575 H 148.851 3.31637 -2.53785 0
M  V30 1576 N 149.288 1.51039 0.449983 0
M  V30 1577 C 150.198 1.74261 1.57067 0
M  V30 1578 C 151.214 0.626363 1.62335 0
M  V30 1579 O 152.39 0.907162 1.79812 0
M  V30 1580 C 149.455 1.85114 2.93144 0
M  V30 1581 C 148.516 3.0893 2.98095 0
M  V30 1582 C 147.749 3.19256 4.27681 0
M  V30 1583 O 147.972 2.35835 5.19363 0
M  V30 1584 O 146.906 4.12144 4.38658 0
M  V30 1585 H 150.732 2.69303 1.40391 0
M  V30 1586 H 148.317 1.35389 0.631688 0
M  V30 1587 H 150.199 1.94311 3.73926 0
M  V30 1588 H 148.874 0.932588 3.09975 0
M  V30 1589 H 147.781 3.0522 2.16314 0
M  V30 1590 H 149.114 4.00433 2.86206 0
M  V30 1591 N 150.766 -0.704594 1.40972 0
M  V30 1592 C 152.014 -1.46169 1.39568 0
M  V30 1593 C 152.335 -1.95 0.00253745 0
M  V30 1594 O 151.605 -1.71095 -0.954114 0
M  V30 1595 H 150.185 -0.542326 0.513704 0
M  V30 1596 H 152.847 -0.834553 1.76128 0
M  V30 1597 H 151.943 -2.32922 2.07735 0
M  V30 1598 N 152.244 -1.26651 -0.937939 0
M  V30 1599 C 153.491 -1.12387 -1.6845 0
M  V30 1600 C 153.819 0.332208 -1.91642 0
M  V30 1601 O 153.074 1.2602 -1.49725 0
M  V30 1602 C 153.373 -1.84168 -3.06295 0
M  V30 1603 C 153.039 -3.34056 -3.02849 0
M  V30 1604 C 151.701 -3.74942 -3.01616 0
M  V30 1605 C 154.053 -4.29741 -2.9491 0
M  V30 1606 C 151.381 -5.09894 -2.90215 0
M  V30 1607 C 153.733 -5.64738 -2.8505 0
M  V30 1608 C 152.397 -6.0493 -2.82162 0
M  V30 1609 H 151.667 -0.411252 -0.616403 0
M  V30 1610 H 154.314 -1.57134 -1.09459 0
M  V30 1611 H 152.619 -1.319 -3.6893 0
M  V30 1612 H 154.316 -1.70569 -3.62915 0
M  V30 1613 H 150.906 -3.01534 -3.0459 0
M  V30 1614 H 155.09 -3.99133 -2.94969 0
M  V30 1615 H 150.346 -5.40194 -2.86358 0
M  V30 1616 H 154.52 -6.38561 -2.77872 0
M  V30 1617 H 152.147 -7.09457 -2.73084 0
M  V30 1618 N 153.722 1.14298 -1.08507 0
M  V30 1619 C 154.968 1.85633 -0.816581 0
M  V30 1620 C 155.301 1.82784 0.656021 0
M  V30 1621 O 154.576 1.25926 1.48233 0
M  V30 1622 C 154.859 3.34223 -1.34041 0
M  V30 1623 C 154.712 3.45639 -2.87843 0
M  V30 1624 C 156.031 4.29356 -0.9665 0
M  V30 1625 H 153.15 0.67402 -0.298104 0
M  V30 1626 H 155.792 1.34214 -1.34487 0
M  V30 1627 H 153.942 3.78144 -0.89104 0
M  V30 1628 H 155.614 3.10498 -3.41158 0
M  V30 1629 H 153.857 2.86817 -3.25451 0
M  V30 1630 H 154.528 4.50089 -3.19569 0
M  V30 1631 H 157.004 3.93457 -1.35391 0
M  V30 1632 H 155.88 5.3178 -1.3602 0
M  V30 1633 H 156.141 4.41919 0.126362 0
M  V30 1634 N 155.201 0.870884 1.31352 0
M  V30 1635 C 156.617 0.562932 1.49343 0
M  V30 1636 C 156.817 -0.902725 1.80148 0
M  V30 1637 O 155.873 -1.68484 1.88067 0
M  V30 1638 C 157.186 1.46393 2.62659 0
M  V30 1639 C 158.734 1.46607 2.76542 0
M  V30 1640 C 159.209 2.35266 3.92955 0
M  V30 1641 N 160.7 2.33151 4.00243 0
M  V30 1642 C 161.435 2.98471 4.89594 0
M  V30 1643 N 160.931 3.72964 5.8384 0
M  V30 1644 N 162.724 2.87775 4.82848 0
M  V30 1645 H 154.875 1.81923 1.09626 0
M  V30 1646 H 157.138 0.777934 0.541777 0
M  V30 1647 H 156.844 2.50689 2.46674 0
M  V30 1648 H 156.718 1.16314 3.58819 0
M  V30 1649 H 159.105 0.43069 2.9194 0
M  V30 1650 H 159.186 1.8071 1.81046 0
M  V30 1651 H 158.83 3.38881 3.78315 0
M  V30 1652 H 158.76 1.98487 4.87761 0
M  V30 1653 H 161.251 1.79006 3.32814 0
M  V30 1654 H 161.564 4.19932 6.4875 0
M  V30 1655 H 159.909 3.77073 5.83816 0
M  V30 1656 H 163.1 2.29116 4.08195 0
M  V30 1657 H 163.273 3.38961 5.52277 0
M  V30 1658 N 156.679 -1.44442 0.630414 0
M  V30 1659 C 157.925 -2.02351 0.134816 0
M  V30 1660 C 158.258 -1.4947 -1.23986 0
M  V30 1661 O 157.533 -0.678475 -1.82283 0
M  V30 1662 C 157.816 -3.59898 0.120707 0
M  V30 1663 C 157.669 -4.23063 1.52767 0
M  V30 1664 C 158.988 -4.36585 -0.555127 0
M  V30 1665 H 156.107 -0.73527 0.0504646 0
M  V30 1666 H 158.749 -1.72022 0.806751 0
M  V30 1667 H 156.899 -3.85868 -0.451477 0
M  V30 1668 H 158.571 -4.08202 2.14869 0
M  V30 1669 H 156.814 -3.80586 2.08175 0
M  V30 1670 H 157.485 -5.32071 1.46984 0
M  V30 1671 H 159.961 -4.16044 -0.0685429 0
M  V30 1672 H 158.837 -5.46294 -0.534185 0
M  V30 1673 H 159.098 -4.11138 -1.62535 0
M  V30 1674 N 158.157 -0.370918 -1.53173 0
M  V30 1675 C 159.434 0.273754 -1.93675 0
M  V30 1676 C 159.814 1.65938 -1.3049 0
M  V30 1677 O 159.162 2.23698 -0.465999 0
M  V30 1678 C 159.372 0.318602 -3.47543 0
M  V30 1679 C 160.72 0.556392 -4.20939 0
M  V30 1680 O 161.744 0.399587 -3.53952 0
M  V30 1681 O 160.603 0.862133 -5.39657 0
M  V30 1682 H 157.697 0.165448 -0.810281 0
M  V30 1683 H 160.243 -0.42409 -1.64315 0
M  V30 1684 H 159.015 -0.652687 -3.85818 0
M  V30 1685 H 158.638 1.06212 -3.83151 0
M  V30 1686 N 159.635 1.57281 -0.100228 0
M  V30 1687 C 161.051 1.57527 0.256416 0
M  V30 1688 C 161.251 1.11173 1.68056 0
M  V30 1689 O 160.307 0.79053 2.39806 0
M  V30 1690 C 161.62 3.00673 0.0401747 0
M  V30 1691 C 163.168 3.12815 0.107528 0
M  V30 1692 C 163.643 4.57929 -0.0807834 0
M  V30 1693 N 165.134 4.63193 -0.0261207 0
M  V30 1694 C 165.869 5.73212 -0.146999 0
M  V30 1695 N 165.365 6.92047 -0.322999 0
M  V30 1696 N 167.158 5.62031 -0.0879044 0
M  V30 1697 H 159.309 1.85718 -1.03065 0
M  V30 1698 H 161.572 0.857446 -0.404339 0
M  V30 1699 H 161.278 3.38804 -0.943649 0
M  V30 1700 H 161.152 3.69042 0.780262 0
M  V30 1701 H 163.539 2.74554 1.08186 0
M  V30 1702 H 163.62 2.47028 -0.664134 0
M  V30 1703 H 163.264 4.96886 -1.05201 0
M  V30 1704 H 163.194 5.21783 0.710635 0
M  V30 1705 H 165.685 3.77748 0.107161 0
M  V30 1706 H 165.998 7.7173 -0.406608 0
M  V30 1707 H 164.343 6.94074 -0.358733 0
M  V30 1708 H 167.534 4.68075 0.048498 0
M  V30 1709 H 167.707 6.47734 -0.185557 0
M  V30 1710 N 161.113 -0.173488 1.56642 0
M  V30 1711 C 162.39 -0.917617 1.7274 0
M  V30 1712 C 162.77 -2.00484 0.661027 0
M  V30 1713 O 162.118 -2.26184 -0.32453 0
M  V30 1714 C 162.328 -1.48433 3.15862 0
M  V30 1715 C 163.676 -1.95809 3.76754 0
M  V30 1716 O 164.7 -1.58231 3.19126 0
M  V30 1717 O 163.559 -2.65024 4.77938 0
M  V30 1718 H 160.653 -0.431772 0.705338 0
M  V30 1719 H 163.199 -0.161487 1.6893 0
M  V30 1720 H 161.971 -0.701715 3.84957 0
M  V30 1721 H 161.594 -2.30471 3.23989 0
M  V30 1722 N 162.591 -1.51276 -0.441967 0
M  V30 1723 C 163.821 -1.67273 -1.21257 0
M  V30 1724 C 164.229 -0.367624 -1.85594 0
M  V30 1725 O 163.572 0.663349 -1.71305 0
M  V30 1726 C 163.634 -2.72807 -2.34129 0
M  V30 1727 C 163.298 -4.1554 -1.90198 0
M  V30 1728 C 164.295 -5.00471 -1.40801 0
M  V30 1729 C 161.98 -4.61616 -1.9803 0
M  V30 1730 C 163.974 -6.29536 -0.998174 0
M  V30 1731 C 161.661 -5.90679 -1.56658 0
M  V30 1732 C 162.659 -6.74466 -1.07633 0
M  V30 1733 O 162.347 -8.01116 -0.668459 0
M  V30 1734 H 162.079 -0.564614 -0.371734 0
M  V30 1735 H 164.633 -1.9843 -0.530521 0
M  V30 1736 H 162.863 -2.36954 -3.05597 0
M  V30 1737 H 164.552 -2.77729 -2.96009 0
M  V30 1738 H 165.318 -4.66079 -1.34148 0
M  V30 1739 H 161.197 -3.96526 -2.35135 0
M  V30 1740 H 164.741 -6.94885 -0.61482 0
M  V30 1741 H 160.638 -6.24586 -1.62979 0
M  V30 1742 H 161.406 -8.14633 -0.794722 0
M  V30 1743 N 164.069 0.697108 -1.41344 0
M  V30 1744 C 165.315 1.4593 -1.40827 0
M  V30 1745 C 165.648 1.94193 -0.0167098 0
M  V30 1746 O 164.923 1.69425 0.955263 0
M  V30 1747 C 165.206 2.67229 -2.41373 0
M  V30 1748 C 165.059 2.24741 -3.8963 0
M  V30 1749 C 166.378 3.69423 -2.39196 0
M  V30 1750 H 163.497 0.529303 -0.512842 0
M  V30 1751 H 166.139 0.794112 -1.72609 0
M  V30 1752 H 164.289 3.23982 -2.14401 0
M  V30 1753 H 165.961 1.73327 -4.27499 0
M  V30 1754 H 164.204 1.56542 -4.0457 0
M  V30 1755 H 164.875 3.1177 -4.55525 0
M  V30 1756 H 167.351 3.2234 -2.63128 0
M  V30 1757 H 166.227 4.51907 -3.11563 0
M  V30 1758 H 166.488 4.19012 -1.41001 0
M  V30 1759 N 165.547 1.27147 0.931209 0
M  V30 1760 C 166.477 1.12081 2.04842 0
M  V30 1761 C 167.458 0.0232364 1.70084 0
M  V30 1762 O 168.643 0.197085 1.93197 0
M  V30 1763 C 165.773 0.76354 3.38803 0
M  V30 1764 C 164.727 1.81396 3.87659 0
M  V30 1765 C 164.053 1.31075 5.18385 0
M  V30 1766 C 165.353 3.21739 4.11438 0
M  V30 1767 H 167.047 2.05537 2.17703 0
M  V30 1768 H 164.593 0.989603 1.04608 0
M  V30 1769 H 166.546 0.644982 4.16435 0
M  V30 1770 H 165.27 -0.206727 3.25945 0
M  V30 1771 H 163.929 1.92136 3.12217 0
M  V30 1772 H 163.577 0.330037 5.01916 0
M  V30 1773 H 163.277 2.013 5.52044 0
M  V30 1774 H 164.801 1.20506 5.98591 0
M  V30 1775 H 166.215 3.14019 4.79651 0
M  V30 1776 H 164.612 3.89644 4.56397 0
M  V30 1777 H 165.682 3.67054 3.16859 0
M  V30 1778 N 167.025 -1.13721 1.09112 0
M  V30 1779 C 167.972 -2.19031 0.727591 0
M  V30 1780 C 168.942 -1.63555 -0.289656 0
M  V30 1781 O 170.127 -1.90023 -0.172026 0
M  V30 1782 C 167.267 -3.4477 0.15082 0
M  V30 1783 C 166.38 -4.14365 1.22172 0
M  V30 1784 C 165.515 -5.27709 0.608042 0
M  V30 1785 C 164.554 -5.89147 1.66047 0
M  V30 1786 N 163.691 -6.93929 1.06806 0
M  V30 1787 H 168.531 -2.49475 1.62991 0
M  V30 1788 H 166.068 -1.22499 0.81439 0
M  V30 1789 H 168.026 -4.16714 -0.201358 0
M  V30 1790 H 166.656 -3.14787 -0.714783 0
M  V30 1791 H 165.708 -3.40737 1.69122 0
M  V30 1792 H 167.02 -4.56114 2.01895 0
M  V30 1793 H 166.174 -6.06355 0.204523 0
M  V30 1794 H 164.913 -4.872 -0.220769 0
M  V30 1795 H 163.918 -5.09198 2.07357 0
M  V30 1796 H 165.143 -6.31729 2.49189 0
M  V30 1797 H 163.089 -6.55483 0.260476 0
M  V30 1798 H 163.006 -7.34202 1.8023 0
M  V30 1799 H 164.274 -7.76434 0.690644 0
M  V30 1800 N 168.503 -0.877838 -1.30888 0
M  V30 1801 C 169.728 -0.506629 -2.01117 0
M  V30 1802 C 170.153 0.895564 -1.65412 0
M  V30 1803 O 169.511 1.5923 -0.866922 0
M  V30 1804 C 169.559 -0.680223 -3.54126 0
M  V30 1805 O 168.663 0.277033 -4.11468 0
M  V30 1806 H 168.004 -0.200518 -0.633 0
M  V30 1807 H 170.534 -1.18342 -1.66902 0
M  V30 1808 H 170.544 -0.5765 -4.03907 0
M  V30 1809 H 169.219 -1.70261 -3.79452 0
M  V30 1810 H 167.796 0.127606 -3.72682 0
M  V30 1811 N 169.982 1.44106 -0.638065 0
M  V30 1812 C 170.945 2.29138 0.0531013 0
M  V30 1813 C 171.945 1.41409 0.765506 0
M  V30 1814 O 173.135 1.63206 0.609046 0
M  V30 1815 C 170.267 3.23144 1.08584 0
M  V30 1816 H 171.46 2.91739 -0.694883 0
M  V30 1817 H 169.013 1.51134 -0.398538 0
M  V30 1818 H 169.748 2.65408 1.86357 0
M  V30 1819 H 169.533 3.87804 0.578852 0
M  V30 1820 H 171.023 3.87004 1.56899 0
M  V30 1821 N 171.46 0.379036 1.52974 0
M  V30 1822 C 172.37 -0.468639 2.29872 0
M  V30 1823 C 173.386 -1.08067 1.36373 0
M  V30 1824 O 174.562 -1.08871 1.69438 0
M  V30 1825 C 171.627 -1.58594 3.083 0
M  V30 1826 C 170.688 -1.00007 4.17489 0
M  V30 1827 C 169.921 -2.06413 4.92168 0
M  V30 1828 O 170.144 -3.27751 4.66835 0
M  V30 1829 O 169.078 -1.68717 5.7777 0
M  V30 1830 H 172.904 0.157508 3.03291 0
M  V30 1831 H 170.489 0.143035 1.48714 0
M  V30 1832 H 172.371 -2.23525 3.57232 0
M  V30 1833 H 171.046 -2.19724 2.37703 0
M  V30 1834 H 169.953 -0.314299 3.72777 0
M  V30 1835 H 171.286 -0.433135 4.90291 0
M  V30 1836 N 172.938 -1.57226 0.108567 0
M  V30 1837 C 173.868 -2.17778 -0.84232 0
M  V30 1838 C 174.849 -1.11487 -1.2847 0
M  V30 1839 O 176.034 -1.39681 -1.34918 0
M  V30 1840 C 173.164 -2.76888 -2.09644 0
M  V30 1841 C 172.118 -3.88669 -1.79221 0
M  V30 1842 C 171.444 -4.34541 -3.11574 0
M  V30 1843 C 172.744 -5.11251 -1.06864 0
M  V30 1844 H 174.438 -2.97489 -0.337774 0
M  V30 1845 H 171.984 -1.43097 -0.161025 0
M  V30 1846 H 173.937 -3.17904 -2.76614 0
M  V30 1847 H 172.661 -1.94451 -2.62405 0
M  V30 1848 H 171.32 -3.48213 -1.14644 0
M  V30 1849 H 170.968 -3.48977 -3.62249 0
M  V30 1850 H 170.668 -5.09914 -2.91996 0
M  V30 1851 H 172.192 -4.782 -3.7968 0
M  V30 1852 H 173.606 -5.49352 -1.63968 0
M  V30 1853 H 172.003 -5.9214 -0.974178 0
M  V30 1854 H 173.073 -4.8487 -0.0536168 0
M  V30 1855 N 174.416 0.165178 -1.56732 0
M  V30 1856 C 175.379 1.18822 -1.95995 0
M  V30 1857 C 176.379 1.3685 -0.84431 0
M  V30 1858 O 177.569 1.34152 -1.11126 0
M  V30 1859 C 174.701 2.5521 -2.26011 0
M  V30 1860 H 175.894 0.851825 -2.87548 0
M  V30 1861 H 173.447 0.407857 -1.50885 0
M  V30 1862 H 174.182 2.93852 -1.37191 0
M  V30 1863 H 173.967 2.43489 -3.07336 0
M  V30 1864 H 175.457 3.28927 -2.57288 0
M  V30 1865 N 175.894 1.51508 0.433938 0
M  V30 1866 C 176.841 1.73068 1.52696 0
M  V30 1867 C 177.811 0.572441 1.55924 0
M  V30 1868 O 178.996 0.807253 1.72882 0
M  V30 1869 C 176.136 1.86474 2.90381 0
M  V30 1870 C 175.249 3.14037 2.96656 0
M  V30 1871 C 174.384 3.18019 4.25485 0
M  V30 1872 C 173.423 4.39882 4.2564 0
M  V30 1873 N 172.56 4.41394 5.45999 0
M  V30 1874 H 177.4 2.66366 1.33615 0
M  V30 1875 H 174.937 1.32008 0.649018 0
M  V30 1876 H 176.895 1.92229 3.70275 0
M  V30 1877 H 175.525 0.965809 3.08013 0
M  V30 1878 H 174.577 3.17575 2.09404 0
M  V30 1879 H 175.889 4.0394 2.92633 0
M  V30 1880 H 175.043 3.22708 5.13755 0
M  V30 1881 H 173.782 2.2601 4.3217 0
M  V30 1882 H 172.787 4.35366 3.35763 0
M  V30 1883 H 174.012 5.33159 4.20617 0
M  V30 1884 H 171.958 3.52258 5.53399 0
M  V30 1885 H 171.875 5.25111 5.4387 0
M  V30 1886 H 173.143 4.50281 6.36292 0
M  V30 1887 N 177.372 -0.689602 1.41712 0
M  V30 1888 C 178.335 -1.78521 1.43746 0
M  V30 1889 C 179.335 -1.57436 0.327191 0
M  V30 1890 O 180.525 -1.64 0.587348 0
M  V30 1891 C 177.657 -3.16971 1.25467 0
M  V30 1892 H 178.85 -1.78108 2.41283 0
M  V30 1893 H 176.403 -0.89781 1.27942 0
M  V30 1894 H 177.138 -3.23019 0.287948 0
M  V30 1895 H 176.923 -3.33678 2.05917 0
M  V30 1896 H 178.413 -3.96935 1.2974 0
M  V30 1897 N 178.85 -1.27639 -0.924453 0
M  V30 1898 C 180.098 -1.13941 -1.66918 0
M  V30 1899 C 180.419 0.314589 -1.92446 0
M  V30 1900 O 179.689 1.21964 -1.53303 0
M  V30 1901 H 178.269 -0.418678 -0.618642 0
M  V30 1902 H 180.931 -1.60213 -1.10985 0
M  V30 1903 H 180.027 -1.67094 -2.63602 0
M  V30 1904 N 180.328 1.1314 -1.09713 0
M  V30 1905 C 181.576 1.84119 -0.833338 0
M  V30 1906 C 181.897 1.84097 0.642904 0
M  V30 1907 O 181.167 1.29881 1.46655 0
M  V30 1908 H 179.747 0.681766 -0.305293 0
M  V30 1909 H 182.409 1.37038 -1.38588 0
M  V30 1910 H 181.505 2.88543 -1.18951 0
M  V30 1911 N 181.806 0.884767 1.30421 0
M  V30 1912 C 183.046 0.509806 1.9794 0
M  V30 1913 C 183.41 -0.923736 1.68319 0
M  V30 1914 O 184.611 -1.40481 2.29169 0
M  V30 1915 C 182.882 0.776732 3.48858 0
M  V30 1916 S 184.441 0.503843 4.35898 0
M  V30 1917 H 181.259 0.189699 0.685227 0
M  V30 1918 H 183.861 1.14399 1.58535 0
M  V30 1919 H 182.565 1.81857 3.67908 0
M  V30 1920 H 182.096 0.1301 3.93185 0
M  V30 1921 H 184.111 -0.657625 4.91823 0
M  V30 1922 N 183.284 -1.43765 0.645699 0
M  V30 1923 C 184.231 -2.30745 -0.0504648 0
M  V30 1924 C 185.201 -1.4432 -0.822241 0
M  V30 1925 O 186.386 -1.73202 -0.800358 0
M  V30 1926 C 183.526 -3.29802 -1.0161 0
M  V30 1927 C 182.639 -4.31326 -0.241219 0
M  V30 1928 C 181.774 -5.17469 -1.19998 0
M  V30 1929 C 180.813 -6.10691 -0.415094 0
M  V30 1930 N 179.95 -6.89483 -1.32506 0
M  V30 1931 H 184.79 -2.8973 0.697155 0
M  V30 1932 H 182.327 -1.42738 0.355563 0
M  V30 1933 H 184.285 -3.85734 -1.58949 0
M  V30 1934 H 182.915 -2.72483 -1.73069 0
M  V30 1935 H 181.967 -3.77749 0.448334 0
M  V30 1936 H 183.279 -4.9743 0.369437 0
M  V30 1937 H 182.433 -5.7799 -1.84424 0
M  V30 1938 H 181.172 -4.51473 -1.84455 0
M  V30 1939 H 180.177 -5.49265 0.242565 0
M  V30 1940 H 181.402 -6.78727 0.224966 0
M  V30 1941 H 179.348 -6.26142 -1.95657 0
M  V30 1942 H 179.265 -7.52081 -0.768783 0
M  V30 1943 H 180.533 -7.54516 -1.9577 0
M  V30 1944 N 184.763 -0.387143 -1.52771 0
M  V30 1945 C 185.713 0.465942 -2.23188 0
M  V30 1946 C 186.697 1.03138 -1.23496 0
M  V30 1947 O 187.889 0.957845 -1.48843 0
M  V30 1948 C 185.018 1.59384 -3.04059 0
M  V30 1949 C 184.104 1.04024 -4.11144 0
M  V30 1950 N 184.495 0.211416 -5.05358 0
M  V30 1951 C 182.793 1.31295 -4.26237 0
M  V30 1952 C 183.494 -0.0941698 -5.81624 0
M  V30 1953 N 182.47 0.509207 -5.4121 0
M  V30 1954 H 186.272 -0.173856 -2.93385 0
M  V30 1955 H 183.786 -0.19633 -1.61209 0
M  V30 1956 H 185.783 2.21738 -3.53041 0
M  V30 1957 H 184.443 2.23648 -2.35397 0
M  V30 1958 H 185.454 -0.151151 -5.17679 0
M  V30 1959 H 182.131 1.95679 -3.68803 0
M  V30 1960 H 183.521 -0.765572 -6.67524 0
M  V30 1961 N 186.241 1.57166 -0.116904 0
M  V30 1962 C 187.488 1.95123 0.541603 0
M  V30 1963 C 187.816 1.00006 1.6682 0
M  V30 1964 O 187.071 0.0235658 1.95686 0
M  V30 1965 C 187.37 3.39508 1.11664 0
M  V30 1966 C 187.036 4.50762 0.111606 0
M  V30 1967 C 185.698 4.80918 -0.164758 0
M  V30 1968 C 188.05 5.18036 -0.573438 0
M  V30 1969 C 185.378 5.75666 -1.13249 0
M  V30 1970 C 187.73 6.13824 -1.52978 0
M  V30 1971 C 186.394 6.42374 -1.81415 0
M  V30 1972 H 185.664 0.714005 0.198187 0
M  V30 1973 H 188.311 1.9048 -0.197365 0
M  V30 1974 H 186.616 3.40835 1.93232 0
M  V30 1975 H 188.313 3.66189 1.63422 0
M  V30 1976 H 184.903 4.27272 0.337192 0
M  V30 1977 H 189.087 4.94896 -0.373092 0
M  V30 1978 H 184.343 5.96092 -1.35958 0
M  V30 1979 H 188.517 6.65039 -2.06629 0
M  V30 1980 H 186.144 7.15599 -2.56557 0
M  V30 1981 N 187.719 -0.156864 1.56817 0
M  V30 1982 C 188.667 -1.21319 1.98455 0
M  V30 1983 C 189.661 -1.45025 0.875444 0
M  V30 1984 O 190.867 -1.45435 1.0606 0
M  V30 1985 H 187.242 -0.408142 0.631605 0
M  V30 1986 H 189.213 -0.835244 2.86472 0
M  V30 1987 C 187.962 -2.54148 2.37285 0
M  V30 1988 H 187.285 -2.36733 3.22176 0
M  V30 1989 H 188.725 -3.26712 2.70251 0
M  V30 1990 C 187.184 -3.13967 1.22173 0
M  V30 1991 O 187.714 -3.98357 0.517149 0
M  V30 1992 N 185.92 -2.7327 0.988536 0
M  V30 1993 H 185.467 -2.04744 1.56326 0
M  V30 1994 H 185.425 -3.13628 0.220209 0
M  V30 1995 N 189.197 -1.51736 -0.425897 0
M  V30 1996 C 190.127 -1.76827 -1.52494 0
M  V30 1997 C 191.108 -0.618524 -1.58456 0
M  V30 1998 O 192.293 -0.862416 -1.74 0
M  V30 1999 C 189.423 -1.90374 -2.90474 0
M  V30 2000 C 188.377 -3.0588 -2.99369 0
M  V30 2001 C 187.703 -3.04625 -4.3944 0
M  V30 2002 C 189.003 -4.45644 -2.72394 0
M  V30 2003 H 190.697 -2.68855 -1.31748 0
M  V30 2004 H 188.243 -1.29372 -0.632362 0
M  V30 2005 H 190.196 -2.0651 -3.6733 0
M  V30 2006 H 188.92 -0.95004 -3.12477 0
M  V30 2007 H 187.579 -2.89467 -2.24954 0
M  V30 2008 H 187.227 -2.0701 -4.58428 0
M  V30 2009 H 186.927 -3.82195 -4.46319 0
M  V30 2010 H 188.451 -3.22869 -5.18255 0
M  V30 2011 H 189.865 -4.62348 -3.38979 0
M  V30 2012 H 188.262 -5.25006 -2.9067 0
M  V30 2013 H 189.332 -4.54893 -1.67929 0
M  V30 2014 N 190.675 0.682077 -1.42076 0
M  V30 2015 C 191.605 1.80796 -1.47767 0
M  V30 2016 C 192.586 1.6677 -0.334954 0
M  V30 2017 O 193.771 1.863 -0.548264 0
M  V30 2018 C 190.901 3.19038 -1.37229 0
M  V30 2019 C 189.855 3.47789 -2.49453 0
M  V30 2020 C 189.181 4.8553 -2.23975 0
M  V30 2021 C 190.481 3.45411 -3.91776 0
M  V30 2022 H 192.175 1.7629 -2.41997 0
M  V30 2023 H 189.721 0.846721 -1.16476 0
M  V30 2024 H 191.674 3.97528 -1.39821 0
M  V30 2025 H 190.398 3.24204 -0.394907 0
M  V30 2026 H 189.057 2.71657 -2.46166 0
M  V30 2027 H 188.705 4.87337 -1.24547 0
M  V30 2028 H 188.405 5.0573 -2.99184 0
M  V30 2029 H 189.929 5.66312 -2.28304 0
M  V30 2030 H 191.343 4.13882 -3.96705 0
M  V30 2031 H 189.74 3.77145 -4.66778 0
M  V30 2032 H 190.81 2.44122 -4.18966 0
M  V30 2033 N 192.153 1.28127 0.917671 0
M  V30 2034 C 193.378 1.18007 1.70555 0
M  V30 2035 C 193.803 -0.258257 1.86319 0
M  V30 2036 O 193.161 -1.1869 1.37049 0
M  V30 2037 C 193.209 1.87948 3.07746 0
M  V30 2038 O 192.313 1.18427 3.9503 0
M  V30 2039 H 191.654 0.409867 0.522403 0
M  V30 2040 H 194.184 1.69379 1.1477 0
M  V30 2041 H 194.194 1.95701 3.58001 0
M  V30 2042 H 192.869 2.92573 2.95591 0
M  V30 2043 H 191.446 1.18811 3.53466 0
M  V30 2044 N 193.631 -1.12557 1.10312 0
M  V30 2045 C 194.856 -1.88405 0.867085 0
M  V30 2046 C 195.281 -1.79038 -0.576817 0
M  V30 2047 O 194.639 -1.14439 -1.40618 0
M  V30 2048 C 194.687 -3.3563 1.31851 0
M  V30 2049 O 193.791 -4.09565 0.482734 0
M  V30 2050 H 193.132 -0.585455 0.313271 0
M  V30 2051 H 195.662 -1.42352 1.4696 0
M  V30 2052 H 195.672 -3.86469 1.3079 0
M  V30 2053 H 194.347 -3.41765 2.37001 0
M  V30 2054 H 192.924 -3.68695 0.558448 0
M  V30 2055 N 195.109 -0.891671 -1.2995 0
M  V30 2056 C 196.056 -0.361736 -2.27948 0
M  V30 2057 C 197.026 0.551761 -1.56668 0
M  V30 2058 O 198.211 0.478736 -1.84696 0
M  V30 2059 C 195.351 0.411825 -3.42634 0
M  V30 2060 C 194.464 -0.531651 -4.28716 0
M  V30 2061 C 193.599 0.258167 -5.30572 0
M  V30 2062 C 192.638 -0.680349 -6.08307 0
M  V30 2063 N 191.775 0.0745613 -7.0206 0
M  V30 2064 H 196.615 -1.20254 -2.72659 0
M  V30 2065 H 194.152 -0.604352 -1.34112 0
M  V30 2066 H 196.11 0.876304 -4.07893 0
M  V30 2067 H 194.74 1.21715 -2.98974 0
M  V30 2068 H 193.792 -1.11463 -3.63703 0
M  V30 2069 H 195.104 -1.25038 -4.82874 0
M  V30 2070 H 194.258 0.784204 -6.0161 0
M  V30 2071 H 192.997 1.01008 -4.77126 0
M  V30 2072 H 192.002 -1.21796 -5.3614 0
M  V30 2073 H 193.227 -1.43145 -6.63842 0
M  V30 2074 H 191.173 0.808883 -6.50994 0
M  V30 2075 H 191.09 -0.584409 -7.53738 0
M  V30 2076 H 192.358 0.581123 -7.77331 0
M  V30 2077 N 196.587 1.43421 -0.653314 0
M  V30 2078 C 197.835 2.01414 -0.166415 0
M  V30 2079 C 198.156 1.51803 1.22397 0
M  V30 2080 O 197.426 0.730693 1.81763 0
M  V30 2081 H 196.006 0.744703 -0.0585319 0
M  V30 2082 H 198.668 1.75629 -0.845003 0
M  V30 2083 H 197.764 3.11734 -0.151111 0
M  V30 2084 N 198.065 0.39524 1.52563 0
M  V30 2085 C 199.028 -0.425001 2.25225 0
M  V30 2086 C 200.028 -0.985266 1.27079 0
M  V30 2087 O 201.218 -0.866332 1.5113 0
M  V30 2088 C 198.35 -1.59686 3.01186 0
M  V30 2089 H 199.543 0.211233 2.99155 0
M  V30 2090 H 197.096 0.147472 1.55603 0
M  V30 2091 H 197.831 -2.27035 2.31572 0
M  V30 2092 H 197.616 -1.20176 3.73229 0
M  V30 2093 H 199.106 -2.17743 3.5634 0
M  V30 2094 N 199.544 -1.57102 0.125237 0
M  V30 2095 C 200.821 -1.86953 -0.575142 0
M  V30 2096 C 201.201 -1.02749 -1.84407 0
M  V30 2097 O 200.549 -0.108144 -2.28244 0
M  V30 2098 C 200.759 -3.38198 -0.861583 0
M  V30 2099 C 202.107 -4.06937 -1.21192 0
M  V30 2100 O 203.131 -3.43252 -0.951645 0
M  V30 2101 O 201.99 -5.19364 -1.70068 0
M  V30 2102 H 199.084 -0.774147 -0.290906 0
M  V30 2103 H 201.63 -1.68942 0.160211 0
M  V30 2104 H 200.402 -3.91282 0.0373647 0
M  V30 2105 H 200.025 -3.61661 -1.65188 0
M  V30 2106 N 201.022 0.148545 -1.56898 0
M  V30 2107 C 201.969 1.18345 -1.98149 0
M  V30 2108 C 202.939 1.42772 -0.848848 0
M  V30 2109 O 204.124 1.55132 -1.11079 0
M  V30 2110 C 201.264 2.51231 -2.36594 0
M  V30 2111 C 200.377 2.33991 -3.63142 0
M  V30 2112 C 199.512 3.59902 -3.90697 0
M  V30 2113 C 198.551 3.37692 -5.1052 0
M  V30 2114 N 197.688 4.5573 -5.34092 0
M  V30 2115 H 202.528 0.82467 -2.86362 0
M  V30 2116 H 200.065 0.395756 -1.41676 0
M  V30 2117 H 202.023 3.28713 -2.56912 0
M  V30 2118 H 200.653 2.85059 -1.51463 0
M  V30 2119 H 199.705 1.47572 -3.50609 0
M  V30 2120 H 201.017 2.13539 -4.5078 0
M  V30 2121 H 200.171 4.45813 -4.11505 0
M  V30 2122 H 198.91 3.83357 -3.01477 0
M  V30 2123 H 197.915 2.5017 -4.89587 0
M  V30 2124 H 199.14 3.15637 -6.0129 0
M  V30 2125 H 197.086 4.79361 -4.47827 0
M  V30 2126 H 197.003 4.38274 -6.15996 0
M  V30 2127 H 198.271 5.42858 -5.59397 0
M  V30 2128 N 202.5 1.5196 0.417844 0
M  V30 2129 C 203.725 1.69717 1.1921 0
M  V30 2130 C 204.15 0.402148 1.83751 0
M  V30 2131 O 203.508 -0.639593 1.69643 0
M  V30 2132 C 203.556 2.82794 2.2374 0
M  V30 2133 O 202.66 2.47756 3.29683 0
M  V30 2134 H 202.001 0.565263 0.348387 0
M  V30 2135 H 204.531 1.98621 0.490985 0
M  V30 2136 H 204.541 3.07452 2.68212 0
M  V30 2137 H 203.216 3.76756 1.76146 0
M  V30 2138 H 201.793 2.33739 2.90552 0
M  V30 2139 N 203.978 -0.674533 1.42435 0
M  V30 2140 C 205.203 -1.46784 1.46524 0
M  V30 2141 C 205.628 -1.87938 0.078066 0
M  V30 2142 O 204.986 -1.56014 -0.92354 0
M  V30 2143 C 205.034 -2.69307 2.39805 0
M  V30 2144 O 204.138 -3.67587 1.86959 0
M  V30 2145 H 203.479 -0.440959 0.496439 0
M  V30 2146 H 206.009 -0.827326 1.87127 0
M  V30 2147 H 206.019 -3.17374 2.56393 0
M  V30 2148 H 204.694 -2.38692 3.40586 0
M  V30 2149 H 203.271 -3.2662 1.79927 0
M  V30 2150 N 205.456 -1.28612 -0.910864 0
M  V30 2151 C 206.404 -1.1265 -2.03501 0
M  V30 2152 C 207.398 -0.0450054 -1.6934 0
M  V30 2153 O 208.604 -0.203988 -1.7884 0
M  V30 2154 H 204.979 -0.347639 -0.666822 0
M  V30 2155 H 206.95 -2.07849 -2.14106 0
M  V30 2156 C 205.699 -0.808143 -3.38178 0
M  V30 2157 H 205.022 -1.63231 -3.6496 0
M  V30 2158 H 206.462 -0.736426 -4.17556 0
M  V30 2159 C 204.921 0.488226 -3.33344 0
M  V30 2160 O 205.451 1.51766 -3.71927 0
M  V30 2161 N 203.657 0.490009 -2.86439 0
M  V30 2162 H 203.204 -0.348161 -2.55236 0
M  V30 2163 H 203.162 1.35741 -2.83587 0
M  V30 2164 N 206.934 1.1197 -1.10907 0
M  V30 2165 C 208.181 1.83588 -0.854507 0
M  V30 2166 C 208.509 1.84357 0.6199 0
M  V30 2167 O 207.764 1.28809 1.47332 0
M  V30 2168 C 208.063 3.30749 -1.35425 0
M  V30 2169 C 207.729 3.50146 -2.84093 0
M  V30 2170 C 206.391 3.55148 -3.2469 0
M  V30 2171 C 208.743 3.56857 -3.79872 0
M  V30 2172 C 206.071 3.6441 -4.59806 0
M  V30 2173 C 208.423 3.6765 -5.14797 0
M  V30 2174 C 207.087 3.7091 -5.54961 0
M  V30 2175 H 206.357 0.671795 -0.312686 0
M  V30 2176 H 209.004 1.32091 -1.38652 0
M  V30 2177 H 207.309 3.84703 -0.742361 0
M  V30 2178 H 209.006 3.8464 -1.1337 0
M  V30 2179 H 205.596 3.46919 -2.51685 0
M  V30 2180 H 209.78 3.52258 -3.49611 0
M  V30 2181 H 205.036 3.65208 -4.9034 0
M  V30 2182 H 209.21 3.71786 -5.88853 0
M  V30 2183 H 206.837 3.7784 -6.59652 0
M  V30 2184 N 208.412 0.89855 1.29475 0
M  V30 2185 C 209.342 0.39201 2.30186 0
M  V30 2186 C 210.323 -0.532359 1.61555 0
M  V30 2187 O 211.508 -0.443331 1.89072 0
M  V30 2188 C 208.638 -0.382353 3.45189 0
M  V30 2189 C 207.592 0.451483 4.25612 0
M  V30 2190 C 206.918 -0.450307 5.328 0
M  V30 2191 C 208.218 1.70079 4.93832 0
M  V30 2192 H 209.912 1.23362 2.72804 0
M  V30 2193 H 207.458 0.594638 1.31149 0
M  V30 2194 H 209.411 -0.747451 4.14718 0
M  V30 2195 H 208.135 -1.25774 3.01411 0
M  V30 2196 H 206.794 0.798897 3.57789 0
M  V30 2197 H 206.442 -1.32379 4.85268 0
M  V30 2198 H 206.142 0.103902 5.87508 0
M  V30 2199 H 207.666 -0.811623 6.05182 0
M  V30 2200 H 209.08 1.40549 5.55805 0
M  V30 2201 H 207.477 2.19623 5.58467 0
M  V30 2202 H 208.547 2.43744 4.19186 0
M  V30 2203 N 209.89 -1.43072 0.660911 0
M  V30 2204 C 211.12 -2.05769 0.185153 0
M  V30 2205 C 211.528 -1.49668 -1.15742 0
M  V30 2206 O 210.871 -0.625649 -1.72717 0
M  V30 2207 C 210.933 -3.59489 0.0278237 0
M  V30 2208 C 210.597 -4.38212 1.2969 0
M  V30 2209 C 211.594 -4.69772 2.22734 0
M  V30 2210 C 209.279 -4.7809 1.54063 0
M  V30 2211 C 211.273 -5.40129 3.38437 0
M  V30 2212 C 208.96 -5.4819 2.70058 0
M  V30 2213 C 209.958 -5.79132 3.62071 0
M  V30 2214 O 209.646 -6.47798 4.76039 0
M  V30 2215 H 209.378 -0.669873 0.0908086 0
M  V30 2216 H 211.932 -1.84436 0.90402 0
M  V30 2217 H 210.162 -3.79426 -0.746489 0
M  V30 2218 H 211.851 -4.03862 -0.406275 0
M  V30 2219 H 212.617 -4.39476 2.05149 0
M  V30 2220 H 208.496 -4.53408 0.833215 0
M  V30 2221 H 212.04 -5.64198 4.10277 0
M  V30 2222 H 207.937 -5.77902 2.87574 0
M  V30 2223 H 208.705 -6.66283 4.75404 0
M  V30 2224 N 211.368 -0.403325 -1.52352 0
M  V30 2225 C 212.298 0.416205 -2.29761 0
M  V30 2226 C 213.279 1.05123 -1.33728 0
M  V30 2227 O 214.464 1.06134 -1.62632 0
M  V30 2228 C 211.594 1.53624 -3.11475 0
M  V30 2229 C 210.548 1.02653 -4.15507 0
M  V30 2230 C 209.874 2.23971 -4.85532 0
M  V30 2231 C 211.174 0.08463 -5.22231 0
M  V30 2232 H 212.868 -0.229701 -2.98518 0
M  V30 2233 H 210.414 -0.111913 -1.43564 0
M  V30 2234 H 212.367 2.1165 -3.64393 0
M  V30 2235 H 211.091 2.20994 -2.40477 0
M  V30 2236 H 209.75 0.46871 -3.63591 0
M  V30 2237 H 209.398 2.89883 -4.11068 0
M  V30 2238 H 209.098 1.90521 -5.55856 0
M  V30 2239 H 210.622 2.82614 -5.41259 0
M  V30 2240 H 212.036 0.573509 -5.70424 0
M  V30 2241 H 210.433 -0.160783 -5.99885 0
M  V30 2242 H 211.503 -0.86237 -4.7717 0
M  V30 2243 N 212.846 1.57033 -0.133567 0
M  V30 2244 C 213.778 2.13176 0.841944 0
M  V30 2245 C 214.791 1.07794 1.22001 0
M  V30 2246 O 215.98 1.35117 1.16643 0
M  V30 2247 C 213.08 2.62847 2.13926 0
M  V30 2248 C 212.253 3.92486 1.93064 0
M  V30 2249 C 211.312 4.27605 3.0666 0
M  V30 2250 O 210.338 4.96168 2.78937 0
M  V30 2251 N 211.54 3.861 4.33483 0
M  V30 2252 H 214.305 2.97503 0.362192 0
M  V30 2253 H 211.866 1.61821 0.05042 0
M  V30 2254 H 213.858 2.83363 2.88942 0
M  V30 2255 H 212.428 1.83319 2.53205 0
M  V30 2256 H 211.648 3.80732 1.02159 0
M  V30 2257 H 212.936 4.77225 1.76447 0
M  V30 2258 H 212.334 3.30828 4.58878 0
M  V30 2259 H 210.891 4.11694 5.05323 0
M  V30 2260 N 214.325 -0.140222 1.56975 0
M  V30 2261 C 215.571 -0.852949 1.83991 0
M  V30 2262 C 215.904 -1.80512 0.716187 0
M  V30 2263 O 215.179 -1.92479 -0.279681 0
M  V30 2264 C 215.462 -1.6215 3.21527 0
M  V30 2265 C 215.315 -0.690363 4.4447 0
M  V30 2266 C 216.634 -2.58247 3.56366 0
M  V30 2267 H 213.753 -0.308634 0.669264 0
M  V30 2268 H 216.395 -0.117898 1.89634 0
M  V30 2269 H 214.545 -2.24812 3.16847 0
M  V30 2270 H 216.217 -0.0742264 4.6124 0
M  V30 2271 H 214.46 -0.000396433 4.338 0
M  V30 2272 H 215.131 -1.2643 5.37326 0
M  V30 2273 H 217.607 -2.05701 3.61699 0
M  V30 2274 H 216.483 -3.09067 4.53617 0
M  V30 2275 H 216.744 -3.39923 2.82674 0
M  V30 2276 N 215.803 -1.52179 -0.40978 0
M  V30 2277 C 216.75 -1.75475 -1.49924 0
M  V30 2278 C 217.72 -0.597175 -1.54994 0
M  V30 2279 O 218.905 -0.834655 -1.71575 0
M  V30 2280 C 216.045 -1.9107 -2.87378 0
M  V30 2281 C 215.158 -3.18717 -2.91622 0
M  V30 2282 C 214.293 -3.24747 -4.20372 0
M  V30 2283 C 213.332 -4.46598 -4.18588 0
M  V30 2284 N 212.469 -4.50025 -5.38908 0
M  V30 2285 H 217.309 -2.68458 -1.29361 0
M  V30 2286 H 214.846 -1.33024 -0.627934 0
M  V30 2287 H 216.804 -1.98096 -3.6717 0
M  V30 2288 H 215.434 -1.01469 -3.06437 0
M  V30 2289 H 214.486 -3.20866 -2.04326 0
M  V30 2290 H 215.798 -4.08544 -2.86169 0
M  V30 2291 H 214.952 -3.30841 -5.08556 0
M  V30 2292 H 213.691 -2.32857 -4.28519 0
M  V30 2293 H 212.696 -4.40652 -3.28794 0
M  V30 2294 H 213.921 -5.39783 -4.12081 0
M  V30 2295 H 211.867 -3.61017 -5.47725 0
M  V30 2296 H 211.784 -5.33697 -5.35447 0
M  V30 2297 H 213.052 -4.60347 -6.29048 0
M  V30 2298 N 217.281 0.66697 -1.42791 0
M  V30 2299 C 218.529 1.42417 -1.43394 0
M  V30 2300 C 218.85 1.94925 -0.0542373 0
M  V30 2301 O 218.12 1.73564 0.908415 0
M  V30 2302 H 216.7 0.528515 -0.527902 0
M  V30 2303 H 219.362 0.787562 -1.78279 0
M  V30 2304 H 218.458 2.27333 -2.13837 0
M  V30 2305 N 218.759 1.29093 0.90403 0
M  V30 2306 C 219.669 1.15727 2.0407 0
M  V30 2307 C 220.685 0.0815308 1.73809 0
M  V30 2308 O 221.861 0.292749 1.99261 0
M  V30 2309 C 218.926 0.830424 3.36608 0
M  V30 2310 C 217.987 1.98955 3.80415 0
M  V30 2311 C 217.22 1.6782 5.06628 0
M  V30 2312 O 217.443 0.597105 5.67266 0
M  V30 2313 O 216.377 2.52486 5.46383 0
M  V30 2314 H 220.203 2.11171 2.18267 0
M  V30 2315 H 217.788 1.08504 1.027 0
M  V30 2316 H 219.67 0.662521 4.16159 0
M  V30 2317 H 218.345 -0.0942678 3.23563 0
M  V30 2318 H 217.252 2.21267 3.01648 0
M  V30 2319 H 218.585 2.89529 3.98037 0
M  V30 2320 N 220.237 -1.11381 1.11499 0
M  V30 2321 C 221.483 -1.83403 0.865512 0
M  V30 2322 C 221.816 -1.84459 -0.607329 0
M  V30 2323 O 221.091 -1.29811 -1.44842 0
M  V30 2324 C 221.374 -3.30552 1.42855 0
M  V30 2325 C 221.227 -3.37886 2.96906 0
M  V30 2326 C 222.546 -4.26643 1.08 0
M  V30 2327 H 219.665 -0.665879 0.31587 0
M  V30 2328 H 222.307 -1.30601 1.37998 0
M  V30 2329 H 220.457 -3.75648 0.990985 0
M  V30 2330 H 222.129 -3.01343 3.49271 0
M  V30 2331 H 220.372 -2.78088 3.32941 0
M  V30 2332 H 221.043 -4.41458 3.31389 0
M  V30 2333 H 223.519 -3.89729 1.45775 0
M  V30 2334 H 222.395 -5.27986 1.50072 0
M  V30 2335 H 222.656 -4.42099 -0.00915037 0
M  V30 2336 N 221.715 -0.905404 -1.28997 0
M  V30 2337 C 222.625 -0.392246 -2.31298 0
M  V30 2338 C 223.641 0.515889 -1.66176 0
M  V30 2339 O 224.817 0.404093 -1.97304 0
M  V30 2340 C 221.882 0.36686 -3.44754 0
M  V30 2341 C 220.943 -0.573485 -4.25452 0
M  V30 2342 C 220.176 0.149488 -5.33491 0
M  V30 2343 O 220.399 1.37255 -5.5364 0
M  V30 2344 O 219.333 -0.510919 -5.99728 0
M  V30 2345 H 223.159 -1.2411 -2.77183 0
M  V30 2346 H 220.744 -0.669926 -1.33538 0
M  V30 2347 H 222.626 0.795907 -4.13816 0
M  V30 2348 H 221.301 1.19169 -3.00966 0
M  V30 2349 H 220.208 -1.05176 -3.59011 0
M  V30 2350 H 221.541 -1.36489 -4.72897 0
M  V30 2351 N 223.193 1.4272 -0.668489 0
M  V30 2352 C 224.156 2.292 0.00448567 0
M  V30 2353 C 225.156 1.43001 0.735339 0
M  V30 2354 O 226.346 1.64461 0.57429 0
M  V30 2355 C 223.478 3.25375 1.01705 0
M  V30 2356 H 224.671 2.90199 -0.756608 0
M  V30 2357 H 222.224 1.50254 -0.430506 0
M  V30 2358 H 222.959 2.69301 1.80686 0
M  V30 2359 H 222.744 3.88944 0.496463 0
M  V30 2360 H 224.234 3.90245 1.48655 0
M  V30 2361 N 224.671 0.411399 1.52136 0
M  V30 2362 C 225.618 -0.412975 2.27075 0
M  V30 2363 C 226.588 -1.03912 1.29582 0
M  V30 2364 O 227.773 -1.06296 1.58448 0
M  V30 2365 C 224.913 -1.52247 3.09701 0
M  V30 2366 C 224.026 -0.917021 4.22155 0
M  V30 2367 C 223.161 -1.9994 4.92135 0
M  V30 2368 C 222.2 -1.37101 5.96548 0
M  V30 2369 N 221.337 -2.39364 6.60038 0
M  V30 2370 H 226.177 0.232499 2.97092 0
M  V30 2371 H 223.714 0.126496 1.46555 0
M  V30 2372 H 225.672 -2.17674 3.55913 0
M  V30 2373 H 224.302 -2.13794 2.41851 0
M  V30 2374 H 223.354 -0.151742 3.80097 0
M  V30 2375 H 224.666 -0.418006 4.97045 0
M  V30 2376 H 223.82 -2.73088 5.41763 0
M  V30 2377 H 222.559 -2.53208 4.16818 0
M  V30 2378 H 221.564 -0.624873 5.46237 0
M  V30 2379 H 222.789 -0.845998 6.7381 0
M  V30 2380 H 220.735 -2.91759 5.87548 0
M  V30 2381 H 220.652 -1.9428 7.3061 0
M  V30 2382 H 221.92 -3.12074 7.14304 0
M  V30 2383 N 226.149 -1.5696 0.141893 0
M  V30 2384 C 227.395 -1.9625 -0.511248 0
M  V30 2385 C 227.728 -1.02654 -1.64851 0
M  V30 2386 O 227.003 -0.0679676 -1.94381 0
M  V30 2387 C 227.286 -3.45285 -1.02227 0
M  V30 2388 C 227.139 -4.49658 0.113138 0
M  V30 2389 C 228.458 -3.96698 -1.90574 0
M  V30 2390 H 225.577 -0.713567 -0.184367 0
M  V30 2391 H 228.219 -1.88698 0.222087 0
M  V30 2392 H 226.369 -3.51852 -1.64719 0
M  V30 2393 H 228.041 -4.55174 0.749302 0
M  V30 2394 H 226.284 -4.26857 0.773026 0
M  V30 2395 H 226.955 -5.51258 -0.286053 0
M  V30 2396 H 229.431 -3.92578 -1.37918 0
M  V30 2397 H 228.307 -5.01453 -2.2324 0
M  V30 2398 H 228.568 -3.3875 -2.84079 0
M  V30 2399 N 227.627 0.131896 -1.57047 0
M  V30 2400 C 228.537 1.1815 -2.02676 0
M  V30 2401 C 229.553 1.46113 -0.944824 0
M  V30 2402 O 230.729 1.57485 -1.25541 0
M  V30 2403 C 227.794 2.49139 -2.41103 0
M  V30 2404 C 226.855 2.28688 -3.63318 0
M  V30 2405 C 226.088 3.53431 -3.99903 0
M  V30 2406 O 226.311 4.60223 -3.36973 0
M  V30 2407 O 225.245 3.45198 -4.93074 0
M  V30 2408 H 229.071 0.824069 -2.92306 0
M  V30 2409 H 226.656 0.341745 -1.45439 0
M  V30 2410 H 228.538 3.26338 -2.66611 0
M  V30 2411 H 227.213 2.84382 -1.54624 0
M  V30 2412 H 226.12 1.4939 -3.42977 0
M  V30 2413 H 227.453 1.98355 -4.50462 0
M  V30 2414 N 229.106 1.52395 0.401703 0
M  V30 2415 C 230.016 1.7917 1.51444 0
M  V30 2416 C 231.032 0.677691 1.6026 0
M  V30 2417 O 232.208 0.963909 1.76835 0
M  V30 2418 C 229.273 1.94347 2.87107 0
M  V30 2419 C 228.334 3.18257 2.88116 0
M  V30 2420 C 227.567 3.32701 4.17308 0
M  V30 2421 O 227.79 2.52238 5.11598 0
M  V30 2422 O 226.724 4.25891 4.25324 0
M  V30 2423 H 230.55 2.73633 1.31752 0
M  V30 2424 H 228.135 1.3733 0.588296 0
M  V30 2425 H 230.017 2.06109 3.67555 0
M  V30 2426 H 228.692 1.03073 3.06851 0
M  V30 2427 H 227.599 3.11947 2.06494 0
M  V30 2428 H 228.932 4.09336 2.73322 0
M  V30 2429 N 230.584 -0.659388 1.43143 0
M  V30 2430 C 231.514 -1.78422 1.50625 0
M  V30 2431 C 232.495 -1.66216 0.361443 0
M  V30 2432 O 233.68 -1.85404 0.577834 0
M  V30 2433 C 230.81 -3.16815 1.42287 0
M  V30 2434 C 229.764 -3.43777 2.54954 0
M  V30 2435 C 229.09 -4.81905 2.31671 0
M  V30 2436 C 230.39 -3.39134 3.97222 0
M  V30 2437 H 232.084 -1.72417 2.44771 0
M  V30 2438 H 229.63 -0.828084 1.17808 0
M  V30 2439 H 231.583 -3.95253 1.46127 0
M  V30 2440 H 230.307 -3.23534 0.446435 0
M  V30 2441 H 228.966 -2.67707 2.50457 0
M  V30 2442 H 228.614 -4.85294 1.32284 0
M  V30 2443 H 228.314 -5.00906 3.07192 0
M  V30 2444 H 229.838 -5.62609 2.37284 0
M  V30 2445 H 231.252 -4.07518 4.03239 0
M  V30 2446 H 229.649 -3.69671 4.72719 0
M  V30 2447 H 230.719 -2.37426 4.22797 0
M  V30 2448 N 232.062 -1.29571 -0.897171 0
M  V30 2449 C 233.009 -1.14916 -2.00158 0
M  V30 2450 C 233.979 -0.0418149 -1.66047 0
M  V30 2451 O 235.164 -0.209793 -1.89643 0
M  V30 2452 C 232.304 -0.834307 -3.34863 0
M  V30 2453 C 231.417 -2.02234 -3.8174 0
M  V30 2454 C 230.552 -1.64664 -5.05034 0
M  V30 2455 C 229.591 -2.80033 -5.44286 0
M  V30 2456 N 228.728 -2.42843 -6.58765 0
M  V30 2457 H 233.568 -2.09403 -2.12025 0
M  V30 2458 H 231.105 -1.042 -1.0383 0
M  V30 2459 H 233.063 -0.632436 -4.12379 0
M  V30 2460 H 231.693 0.0736656 -3.22716 0
M  V30 2461 H 230.745 -2.33583 -3.00238 0
M  V30 2462 H 232.057 -2.88673 -4.06779 0
M  V30 2463 H 231.211 -1.4078 -5.9014 0
M  V30 2464 H 229.95 -0.753766 -4.8184 0
M  V30 2465 H 228.955 -3.04596 -4.57713 0
M  V30 2466 H 230.18 -3.69989 -5.6946 0
M  V30 2467 H 228.126 -1.56046 -6.3717 0
M  V30 2468 H 228.043 -3.22815 -6.83613 0
M  V30 2469 H 229.311 -2.22285 -7.47134 0
M  V30 2470 N 233.54 1.10788 -1.12088 0
M  V30 2471 C 234.787 1.82671 -0.873931 0
M  V30 2472 C 235.115 1.85004 0.600311 0
M  V30 2473 O 234.37 1.30365 1.45957 0
M  V30 2474 C 234.669 3.29294 -1.38926 0
M  V30 2475 C 234.335 3.47113 -2.87791 0
M  V30 2476 C 232.997 3.51684 -3.28439 0
M  V30 2477 C 235.349 3.52808 -3.83635 0
M  V30 2478 C 232.677 3.59513 -4.63646 0
M  V30 2479 C 235.029 3.62169 -5.18668 0
M  V30 2480 C 233.693 3.65003 -5.58864 0
M  V30 2481 H 232.963 0.668441 -0.319794 0
M  V30 2482 H 235.61 1.30613 -1.40045 0
M  V30 2483 H 233.915 3.83894 -0.783122 0
M  V30 2484 H 235.612 3.83416 -1.17443 0
M  V30 2485 H 232.202 3.4423 -2.5535 0
M  V30 2486 H 236.386 3.4853 -3.53328 0
M  V30 2487 H 231.642 3.59987 -4.94185 0
M  V30 2488 H 235.816 3.6552 -5.92763 0
M  V30 2489 H 233.443 3.70822 -6.63623 0
M  V30 2490 N 235.018 0.912232 1.28515 0
M  V30 2491 C 236.295 0.463597 1.90027 0
M  V30 2492 C 236.675 -1.05753 1.82701 0
M  V30 2493 O 236.023 -1.90492 1.26194 0
M  V30 2494 C 236.233 0.992253 3.34597 0
M  V30 2495 C 237.581 1.04344 4.11579 0
M  V30 2496 O 238.605 0.94079 3.43551 0
M  V30 2497 O 237.464 1.1995 5.33174 0
M  V30 2498 H 234.558 0.146666 0.813891 0
M  V30 2499 H 237.104 1.00292 1.36893 0
M  V30 2500 H 235.876 2.03623 3.34146 0
M  V30 2501 H 235.499 0.433672 3.95228 0
M  V30 2502 N 236.496 -1.42363 0.676048 0
M  V30 2503 C 237.912 -1.55811 0.345718 0
M  V30 2504 C 238.112 -1.65544 -1.14879 0
M  V30 2505 O 237.168 -1.62306 -1.93424 0
M  V30 2506 C 238.481 -2.80746 1.07713 0
M  V30 2507 C 240.029 -2.9452 1.05958 0
M  V30 2508 C 240.504 -4.22318 1.77233 0
M  V30 2509 N 241.995 -4.29233 1.74108 0
M  V30 2510 C 242.73 -5.26935 2.26113 0
M  V30 2511 N 242.226 -6.30783 2.86505 0
M  V30 2512 N 244.019 -5.18741 2.1648 0
M  V30 2513 H 236.17 -1.34289 1.6456 0
M  V30 2514 H 238.433 -0.646506 0.69335 0
M  V30 2515 H 238.139 -2.79696 2.13221 0
M  V30 2516 H 238.013 -3.71676 0.64316 0
M  V30 2517 H 240.4 -2.95097 0.0128255 0
M  V30 2518 H 240.481 -2.04817 1.53244 0
M  V30 2519 H 240.125 -4.22502 2.81877 0
M  V30 2520 H 240.055 -5.10958 1.27396 0
M  V30 2521 H 242.546 -3.54814 1.30059 0
M  V30 2522 H 242.859 -7.01691 3.23805 0
M  V30 2523 H 241.204 -6.31341 2.90575 0
M  V30 2524 H 244.395 -4.36533 1.68987 0
M  V30 2525 H 244.568 -5.94721 2.57316 0
M  V30 2526 N 237.974 -0.419461 -1.51915 0
M  V30 2527 C 239.204 0.151915 -2.06041 0
M  V30 2528 C 239.612 1.38539 -1.28855 0
M  V30 2529 O 238.955 1.80592 -0.336463 0
M  V30 2530 C 239.017 0.557119 -3.55157 0
M  V30 2531 C 238.681 -0.567054 -4.53468 0
M  V30 2532 C 239.678 -1.43379 -4.99738 0
M  V30 2533 C 237.363 -0.742693 -4.96779 0
M  V30 2534 C 239.357 -2.46102 -5.87973 0
M  V30 2535 C 237.044 -1.77322 -5.84808 0
M  V30 2536 C 238.042 -2.63078 -6.30301 0
M  V30 2537 O 237.73 -3.64364 -7.16585 0
M  V30 2538 H 237.462 0.0193293 -0.675724 0
M  V30 2539 H 240.016 -0.592073 -1.96682 0
M  V30 2540 H 238.246 1.35355 -3.62238 0
M  V30 2541 H 239.935 1.05759 -3.9188 0
M  V30 2542 H 240.701 -1.30954 -4.66986 0
M  V30 2543 H 236.58 -0.0848307 -4.60922 0
M  V30 2544 H 240.124 -3.13071 -6.23404 0
M  V30 2545 H 236.021 -1.89773 -6.16974 0
M  V30 2546 H 236.789 -3.60731 -7.34721 0
M  V30 2547 N 239.452 1.56882 -0.150215 0
M  V30 2548 C 240.677 2.01027 0.510184 0
M  V30 2549 C 241.102 1.02966 1.57415 0
M  V30 2550 O 240.46 0.00590158 1.81299 0
M  V30 2551 C 240.508 3.43899 1.08472 0
M  V30 2552 O 239.612 3.4885 2.19948 0
M  V30 2553 H 238.953 0.652233 0.124451 0
M  V30 2554 H 241.483 2.03093 -0.247894 0
M  V30 2555 H 241.493 3.82766 1.41259 0
M  V30 2556 H 240.168 4.14776 0.305582 0
M  V30 2557 H 238.745 3.21827 1.88366 0
M  V30 2558 N 240.93 -0.123565 1.57115 0
M  V30 2559 C 242.176 -0.833386 1.84885 0
M  V30 2560 C 242.509 -1.79742 0.735292 0
M  V30 2561 O 241.784 -1.92764 -0.25925 0
M  V30 2562 C 242.067 -1.5873 3.23228 0
M  V30 2563 C 241.92 -0.643183 4.45178 0
M  V30 2564 C 243.239 -2.54453 3.59085 0
M  V30 2565 H 240.358 -0.301518 0.6725 0
M  V30 2566 H 243 -0.097778 1.89748 0
M  V30 2567 H 241.15 -2.21438 3.19214 0
M  V30 2568 H 242.822 -0.0253015 4.61293 0
M  V30 2569 H 241.065 0.0456139 4.33776 0
M  V30 2570 H 241.736 -1.20724 5.38637 0
M  V30 2571 H 244.212 -2.01853 3.63861 0
M  V30 2572 H 243.088 -3.04238 4.5687 0
M  V30 2573 H 243.349 -3.36906 2.86264 0
M  V30 2574 N 242.408 -1.52605 -0.393616 0
M  V30 2575 C 243.655 -1.67424 -1.1391 0
M  V30 2576 C 243.983 -0.411859 -1.90089 0
M  V30 2577 O 243.238 0.605626 -1.86093 0
M  V30 2578 C 243.537 -2.85721 -2.14705 0
M  V30 2579 C 243.203 -4.23342 -1.55218 0
M  V30 2580 C 241.865 -4.60771 -1.3872 0
M  V30 2581 C 244.217 -5.09041 -1.11924 0
M  V30 2582 C 241.545 -5.81563 -0.774689 0
M  V30 2583 C 243.897 -6.30452 -0.520853 0
M  V30 2584 C 242.561 -6.66617 -0.343134 0
M  V30 2585 H 241.831 -0.612648 -0.416826 0
M  V30 2586 H 244.478 -1.8674 -0.424315 0
M  V30 2587 H 242.783 -2.60803 -2.92385 0
M  V30 2588 H 244.48 -2.94382 -2.72288 0
M  V30 2589 H 241.07 -3.93855 -1.69045 0
M  V30 2590 H 245.254 -4.80695 -1.23473 0
M  V30 2591 H 240.51 -6.08196 -0.625154 0
M  V30 2592 H 244.684 -6.96175 -0.177065 0
M  V30 2593 H 242.311 -7.60083 0.133571 0
M  V30 2594 N 243.887 0.651787 -1.4349 0
M  V30 2595 C 245.303 0.96762 -1.26922 0
M  V30 2596 C 245.503 2.00602 -0.189982 0
M  V30 2597 O 244.559 2.48793 0.431107 0
M  V30 2598 C 245.872 1.45052 -2.63401 0
M  V30 2599 C 247.42 1.5671 -2.70945 0
M  V30 2600 C 247.895 2.0839 -4.07845 0
M  V30 2601 N 249.386 2.1569 -4.09917 0
M  V30 2602 C 250.121 2.56804 -5.12679 0
M  V30 2603 N 249.617 2.97203 -6.25813 0
M  V30 2604 N 251.41 2.56756 -5.00033 0
M  V30 2605 H 243.561 -0.0353158 -2.12371 0
M  V30 2606 H 245.824 0.0467858 -0.946845 0
M  V30 2607 H 245.53 0.761926 -3.43348 0
M  V30 2608 H 245.404 2.42529 -2.88894 0
M  V30 2609 H 247.791 2.2467 -1.9133 0
M  V30 2610 H 247.872 0.57662 -2.49216 0
M  V30 2611 H 247.516 1.41031 -4.87927 0
M  V30 2612 H 247.446 3.08271 -4.26938 0
M  V30 2613 H 249.937 1.87237 -3.28254 0
M  V30 2614 H 250.25 3.27328 -7.00055 0
M  V30 2615 H 248.595 2.95004 -6.29283 0
M  V30 2616 H 251.786 2.24572 -4.10713 0
M  V30 2617 H 251.959 2.88475 -5.80247 0
M  V30 2618 N 245.365 1.30045 0.890287 0
M  V30 2619 C 246.776 1.16738 1.45702 0
M  V30 2620 C 247.127 -0.233939 1.948 0
M  V30 2621 O 246.252 -1.13021 1.84541 0
M  V30 2622 C 246.847 2.11313 2.64825 0
M  V30 2623 C 245.406 2.02001 3.17604 0
M  V30 2624 C 244.553 2.01699 1.90296 0
M  V30 2625 H 247.504 1.42392 0.700726 0
M  V30 2626 H 247.525 1.69086 3.40867 0
M  V30 2627 H 247.037 3.13294 2.2906 0
M  V30 2628 H 245.138 1.03142 3.5804 0
M  V30 2629 H 245.251 2.90128 3.81264 0
M  V30 2630 H 243.615 1.46427 2.08402 0
M  V30 2631 H 244.398 3.05402 1.56795 0
M  V30 2632 N 246.843 -1.10192 1.12674 0
M  V30 2633 C 248.091 -1.81845 0.881861 0
M  V30 2634 C 248.412 -1.85737 -0.593867 0
M  V30 2635 O 247.682 -1.33724 -1.4316 0
M  V30 2636 H 246.262 -0.673432 0.323261 0
M  V30 2637 H 248.924 -1.33316 1.42172 0
M  V30 2638 H 248.02 -2.85288 1.2656 0
M  V30 2639 N 248.321 -0.919034 -1.28029 0
M  V30 2640 C 249.567 -0.555757 -1.95036 0
M  V30 2641 C 249.9 0.899198 -1.72128 0
M  V30 2642 O 249.175 1.64023 -1.04531 0
M  V30 2643 C 249.458 -0.872024 -3.49382 0
M  V30 2644 C 249.311 -2.3801 -3.81669 0
M  V30 2645 C 250.63 -0.37185 -4.38526 0
M  V30 2646 H 247.749 -0.203386 -0.708381 0
M  V30 2647 H 250.391 -1.14924 -1.51303 0
M  V30 2648 H 248.541 -0.366946 -3.86763 0
M  V30 2649 H 250.213 -2.9562 -3.54128 0
M  V30 2650 H 248.456 -2.83289 -3.28526 0
M  V30 2651 H 249.127 -2.55192 -4.8947 0
M  V30 2652 H 251.603 -0.804602 -4.08247 0
M  V30 2653 H 250.479 -0.622173 -5.45362 0
M  V30 2654 H 250.74 0.727934 -4.36066 0
M  V30 2655 N 249.799 1.42003 -0.683588 0
M  V30 2656 C 250.729 2.33487 -0.024866 0
M  V30 2657 C 251.71 1.51163 0.779975 0
M  V30 2658 O 252.895 1.79739 0.735362 0
M  V30 2659 C 250.025 3.3487 0.920836 0
M  V30 2660 C 248.979 4.27414 0.223958 0
M  V30 2661 C 248.305 5.19074 1.2832 0
M  V30 2662 C 249.605 5.14445 -0.90242 0
M  V30 2663 H 251.299 2.88819 -0.788921 0
M  V30 2664 H 248.845 1.38873 -0.38083 0
M  V30 2665 H 250.798 3.97787 1.39081 0
M  V30 2666 H 249.522 2.77861 1.71642 0
M  V30 2667 H 248.181 3.65904 -0.225864 0
M  V30 2668 H 247.829 4.58387 2.071 0
M  V30 2669 H 247.529 5.81822 0.821995 0
M  V30 2670 H 249.053 5.84867 1.75392 0
M  V30 2671 H 250.467 5.70998 -0.513272 0
M  V30 2672 H 248.864 5.86072 -1.28997 0
M  V30 2673 H 249.934 4.52322 -1.74737 0
M  V30 2674 N 251.277 0.427512 1.51691 0
M  V30 2675 C 252.207 -0.3796 2.30394 0
M  V30 2676 C 253.188 -1.02982 1.35384 0
M  V30 2677 O 254.373 -1.03534 1.643 0
M  V30 2678 C 251.503 -1.48649 3.1388 0
M  V30 2679 C 250.457 -0.960294 4.17088 0
M  V30 2680 C 249.783 -2.16219 4.89033 0
M  V30 2681 C 251.083 -0.00153679 5.223 0
M  V30 2682 H 252.777 0.277164 2.98114 0
M  V30 2683 H 250.323 0.134739 1.43368 0
M  V30 2684 H 252.276 -2.05826 3.67714 0
M  V30 2685 H 251 -2.1714 2.43962 0
M  V30 2686 H 249.659 -0.410806 3.64291 0
M  V30 2687 H 249.307 -2.83307 4.15628 0
M  V30 2688 H 249.007 -1.81654 5.58816 0
M  V30 2689 H 250.531 -2.73968 5.45687 0
M  V30 2690 H 251.945 -0.482687 5.71264 0
M  V30 2691 H 250.342 0.256199 5.99553 0
M  V30 2692 H 251.412 0.938174 4.75738 0
M  V30 2693 N 252.755 -1.56801 0.158532 0
M  V30 2694 C 253.995 -1.98383 -0.49229 0
M  V30 2695 C 254.359 -1.04184 -1.61275 0
M  V30 2696 O 255.56 -1.34856 -2.32524 0
M  V30 2697 C 253.831 -3.4385 -0.974766 0
M  V30 2698 S 255.39 -4.07459 -1.62857 0
M  V30 2699 H 252.208 -0.693041 -0.158794 0
M  V30 2700 H 254.81 -1.93856 0.252974 0
M  V30 2701 H 253.514 -4.10131 -0.148688 0
M  V30 2702 H 253.045 -3.52115 -1.75438 0
M  V30 2703 H 255.06 -4.01458 -2.91627 0
M  V30 2704 N 254.233 0.115231 -1.57178 0
M  V30 2705 C 255.51 0.852873 -1.76027 0
M  V30 2706 C 255.89 1.97892 -0.73498 0
M  V30 2707 O 255.238 2.27232 0.24036 0
M  V30 2708 C 255.448 1.36608 -3.21153 0
M  V30 2709 C 256.796 1.81692 -3.83762 0
M  V30 2710 O 257.82 1.46278 -3.24779 0
M  V30 2711 O 256.679 2.47104 -4.87444 0
M  V30 2712 H 253.773 0.405296 -0.720877 0
M  V30 2713 H 256.319 0.0986785 -1.69413 0
M  V30 2714 H 255.091 0.558357 -3.87296 0
M  V30 2715 H 254.714 2.18287 -3.3232 0
M  V30 2716 N 255.711 1.52812 0.385517 0
M  V30 2717 C 257.127 1.4214 0.725829 0
M  V30 2718 C 257.327 0.544589 1.94001 0
M  V30 2719 O 256.383 0.0193693 2.52493 0
M  V30 2720 C 257.696 2.85042 0.957668 0
M  V30 2721 C 259.244 2.94543 1.05892 0
M  V30 2722 C 259.719 4.38464 1.32337 0
M  V30 2723 N 261.21 4.41804 1.39151 0
M  V30 2724 C 261.945 5.5025 1.61285 0
M  V30 2725 N 261.441 6.68775 1.80866 0
M  V30 2726 N 263.234 5.37798 1.63492 0
M  V30 2727 H 255.385 2.08338 -0.413383 0
M  V30 2728 H 257.648 0.940016 -0.122775 0
M  V30 2729 H 257.354 3.51431 0.137568 0
M  V30 2730 H 257.228 3.27505 1.87137 0
M  V30 2731 H 259.615 2.28321 1.86959 0
M  V30 2732 H 259.696 2.55504 0.123057 0
M  V30 2733 H 259.34 5.05254 0.517793 0
M  V30 2734 H 259.27 4.75059 2.27214 0
M  V30 2735 H 261.761 3.56377 1.25713 0
M  V30 2736 H 262.074 7.47197 1.97271 0
M  V30 2737 H 260.419 6.71797 1.78083 0
M  V30 2738 H 263.61 4.44171 1.47749 0
M  V30 2739 H 263.783 6.22382 1.80402 0
M  V30 2740 N 257.189 -0.644168 1.43834 0
M  V30 2741 C 258.121 -1.76955 1.45669 0
M  V30 2742 C 259.134 -1.58956 0.351666 0
M  V30 2743 O 260.323 -1.6751 0.616644 0
M  V30 2744 C 257.423 -3.14507 1.26248 0
M  V30 2745 C 256.596 -3.59083 2.49757 0
M  V30 2746 C 255.655 -4.75467 2.25427 0
M  V30 2747 O 254.681 -4.84444 2.98836 0
M  V30 2748 N 255.883 -5.66289 1.27661 0
M  V30 2749 H 258.648 -1.75856 2.42682 0
M  V30 2750 H 256.209 -0.828312 1.39106 0
M  V30 2751 H 258.201 -3.90067 1.0784 0
M  V30 2752 H 256.771 -3.10325 0.376478 0
M  V30 2753 H 255.991 -2.7387 2.8353 0
M  V30 2754 H 257.279 -3.85613 3.31934 0
M  V30 2755 H 256.677 -5.61718 0.670064 0
M  V30 2756 H 255.234 -6.41533 1.15234 0
M  V30 2757 N 258.668 -1.30515 -0.883378 0
M  V30 2758 C 259.578 -1.18959 -2.02203 0
M  V30 2759 C 260.594 -0.109172 -1.73657 0
M  V30 2760 O 261.77 -0.324413 -1.9877 0
M  V30 2761 C 258.835 -0.883871 -3.35244 0
M  V30 2762 C 257.896 -2.04982 -3.77201 0
M  V30 2763 C 257.129 -1.75859 -5.03894 0
M  V30 2764 O 257.352 -0.687276 -5.66244 0
M  V30 2765 O 256.286 -2.61146 -5.42297 0
M  V30 2766 H 260.112 -2.14616 -2.1488 0
M  V30 2767 H 257.697 -1.10124 -1.0096 0
M  V30 2768 H 259.579 -0.728644 -4.15053 0
M  V30 2769 H 258.254 0.0427798 -3.23672 0
M  V30 2770 H 257.161 -2.26038 -2.9809 0
M  V30 2771 H 258.494 -2.95825 -3.93381 0
M  V30 2772 N 260.146 1.09593 -1.13257 0
M  V30 2773 C 261.371 1.8604 -0.916732 0
M  V30 2774 C 261.796 1.80504 0.529146 0
M  V30 2775 O 261.154 1.18127 1.37534 0
M  V30 2776 C 261.202 3.32017 -1.40703 0
M  V30 2777 O 260.306 4.08141 -0.591153 0
M  V30 2778 H 259.647 0.576943 -0.328683 0
M  V30 2779 H 262.177 1.38405 -1.50682 0
M  V30 2780 H 262.187 3.82865 -1.4099 0
M  V30 2781 H 260.862 3.35361 -2.45979 0
M  V30 2782 H 259.439 3.67084 -0.656005 0
M  V30 2783 N 261.624 0.925811 1.2754 0
M  V30 2784 C 263.04 0.625767 1.46821 0
M  V30 2785 C 263.24 -0.825506 1.83814 0
M  V30 2786 O 262.296 -1.60356 1.95044 0
M  V30 2787 C 263.609 1.57402 2.56213 0
M  V30 2788 C 265.157 1.58204 2.70075 0
M  V30 2789 C 265.632 2.51721 3.82623 0
M  V30 2790 N 267.123 2.49917 3.89994 0
M  V30 2791 C 267.858 3.18968 4.76494 0
M  V30 2792 N 267.354 3.97391 5.67496 0
M  V30 2793 N 269.147 3.07996 4.70208 0
M  V30 2794 H 261.298 1.86409 1.01811 0
M  V30 2795 H 263.561 0.800213 0.508295 0
M  V30 2796 H 263.267 2.60925 2.35819 0
M  V30 2797 H 263.141 1.31428 3.53563 0
M  V30 2798 H 265.528 0.554124 2.89851 0
M  V30 2799 H 265.609 1.88226 1.73218 0
M  V30 2800 H 265.253 3.54622 3.63601 0
M  V30 2801 H 265.183 2.18996 4.78903 0
M  V30 2802 H 267.674 1.9296 3.24923 0
M  V30 2803 H 267.987 4.4707 6.30356 0
M  V30 2804 H 266.332 4.01495 5.67298 0
M  V30 2805 H 269.523 2.46223 3.9811 0
M  V30 2806 H 269.696 3.6208 5.37403 0
M  V30 2807 N 263.102 -1.41638 0.69111 0
M  V30 2808 C 264.513 -1.84346 0.295517 0
M  V30 2809 C 264.864 -1.57833 -1.16547 0
M  V30 2810 O 263.989 -1.04648 -1.89414 0
M  V30 2811 C 264.584 -3.34636 0.529575 0
M  V30 2812 C 263.143 -3.7593 0.187944 0
M  V30 2813 C 262.29 -2.65082 0.814052 0
M  V30 2814 H 265.241 -1.31253 0.892092 0
M  V30 2815 H 265.262 -3.79903 -0.213148 0
M  V30 2816 H 264.774 -3.53901 1.59297 0
M  V30 2817 H 262.875 -3.62268 -0.871367 0
M  V30 2818 H 262.988 -4.74808 0.63985 0
M  V30 2819 H 261.352 -2.53528 0.244017 0
M  V30 2820 H 262.135 -2.87167 1.88123 0
M  V30 2821 N 264.58 -0.43555 -1.51462 0
M  V30 2822 C 265.828 0.131254 -2.01673 0
M  V30 2823 C 266.149 1.43368 -1.32177 0
M  V30 2824 O 265.419 1.90524 -0.455769 0
M  V30 2825 H 263.999 0.0514954 -0.745223 0
M  V30 2826 H 266.661 -0.577847 -1.86137 0
M  V30 2827 H 265.757 0.308446 -3.10572 0
M  V30 2828 N 266.058 1.56714 -0.166846 0
M  V30 2829 C 266.968 2.21331 0.777791 0
M  V30 2830 C 267.984 1.20358 1.25658 0
M  V30 2831 O 269.16 1.53005 1.30964 0
M  V30 2832 C 266.225 2.83787 1.99163 0
M  V30 2833 C 265.286 3.99947 1.56016 0
M  V30 2834 C 264.519 4.59415 2.71613 0
M  V30 2835 O 264.742 4.17769 3.88362 0
M  V30 2836 O 263.676 5.49359 2.45945 0
M  V30 2837 H 267.502 3.02605 0.257636 0
M  V30 2838 H 265.087 1.49275 0.0611393 0
M  V30 2839 H 266.969 3.23405 2.70161 0
M  V30 2840 H 265.644 2.05513 2.50092 0
M  V30 2841 H 264.551 3.65007 0.819809 0
M  V30 2842 H 265.884 4.79801 1.09782 0
M  V30 2843 N 267.536 -0.106894 1.57237 0
M  V30 2844 C 268.782 -0.808678 1.86633 0
M  V30 2845 C 269.137 -1.76917 0.756178 0
M  V30 2846 O 268.43 -1.90055 -0.242834 0
M  V30 2847 C 268.624 -1.58628 3.20268 0
M  V30 2848 C 268.453 -0.702592 4.44178 0
M  V30 2849 C 267.223 -0.352808 5.04067 0
M  V30 2850 C 269.421 -0.0148031 5.14298 0
M  V30 2851 N 267.403 0.540279 6.11518 0
M  V30 2852 C 268.774 0.736809 6.15606 0
M  V30 2853 C 270.829 0.0603524 4.97863 0
M  V30 2854 C 269.532 1.55654 7.02257 0
M  V30 2855 C 271.558 0.866942 5.85011 0
M  V30 2856 C 270.92 1.60671 6.85831 0
M  V30 2857 H 267.019 -0.27246 0.733001 0
M  V30 2858 H 269.603 -0.0717858 1.94568 0
M  V30 2859 H 267.774 -2.29413 3.13408 0
M  V30 2860 H 269.506 -2.23434 3.3743 0
M  V30 2861 H 266.261 -0.697802 4.68431 0
M  V30 2862 H 266.685 0.979029 6.69884 0
M  V30 2863 H 271.327 -0.497236 4.19866 0
M  V30 2864 H 269.045 2.12524 7.79653 0
M  V30 2865 H 272.631 0.927612 5.74358 0
M  V30 2866 H 271.511 2.2208 7.52097 0
M  V30 2867 N 269.014 -1.53014 -0.377408 0
M  V30 2868 C 269.944 -1.81589 -1.46791 0
M  V30 2869 C 270.925 -0.668622 -1.56408 0
M  V30 2870 O 272.11 -0.917337 -1.71168 0
M  V30 2871 C 269.24 -1.99519 -2.8427 0
M  V30 2872 C 268.194 -3.15249 -2.89486 0
M  V30 2873 C 267.52 -3.18451 -4.29527 0
M  V30 2874 C 268.82 -4.54084 -2.58079 0
M  V30 2875 H 270.514 -2.7291 -1.23127 0
M  V30 2876 H 268.06 -1.31319 -0.590883 0
M  V30 2877 H 270.013 -2.18092 -3.60575 0
M  V30 2878 H 268.737 -1.04897 -3.09296 0
M  V30 2879 H 267.396 -2.96477 -2.15631 0
M  V30 2880 H 267.044 -2.2149 -4.5161 0
M  V30 2881 H 266.744 -3.962 -4.33934 0
M  V30 2882 H 268.268 -3.39193 -5.07721 0
M  V30 2883 H 269.682 -4.72899 -3.24098 0
M  V30 2884 H 268.079 -5.33987 -2.7382 0
M  V30 2885 H 269.149 -4.60006 -1.53372 0
M  V30 2886 N 270.492 0.636531 -1.44174 0
M  V30 2887 C 271.738 1.39826 -1.4689 0
M  V30 2888 C 272.071 1.93947 -0.0990585 0
M  V30 2889 O 271.346 1.73325 0.882544 0
M  V30 2890 C 271.629 2.56751 -2.5249 0
M  V30 2891 C 271.482 2.08014 -3.98811 0
M  V30 2892 C 272.801 3.58946 -2.54649 0
M  V30 2893 H 269.92 0.507075 -0.53483 0
M  V30 2894 H 272.562 0.720188 -1.75822 0
M  V30 2895 H 270.712 3.14597 -2.2795 0
M  V30 2896 H 272.384 1.5504 -4.34466 0
M  V30 2897 H 270.627 1.39242 -4.10846 0
M  V30 2898 H 271.298 2.92169 -4.68339 0
M  V30 2899 H 273.774 3.1089 -2.76563 0
M  V30 2900 H 272.65 4.38286 -3.3045 0
M  V30 2901 H 272.911 4.12655 -1.58646 0
M  V30 2902 N 271.97 1.30982 0.876444 0
M  V30 2903 C 273.386 1.09498 1.16113 0
M  V30 2904 C 273.586 -0.13875 2.01022 0
M  V30 2905 O 272.642 -0.829935 2.38471 0
M  V30 2906 C 273.955 2.36308 1.85954 0
M  V30 2907 C 275.503 2.41856 1.98683 0
M  V30 2908 C 275.978 3.6853 2.71937 0
M  V30 2909 N 277.469 3.69387 2.79477 0
M  V30 2910 C 278.204 4.64096 3.36753 0
M  V30 2911 N 277.7 5.69155 3.95012 0
M  V30 2912 N 279.493 4.51626 3.3465 0
M  V30 2913 H 271.644 2.10118 0.310494 0
M  V30 2914 H 273.907 0.926634 0.200131 0
M  V30 2915 H 273.613 3.26388 1.31011 0
M  V30 2916 H 273.487 2.4561 2.86278 0
M  V30 2917 H 275.874 1.52249 2.52793 0
M  V30 2918 H 275.955 2.36523 0.9742 0
M  V30 2919 H 275.599 4.58499 2.18496 0
M  V30 2920 H 275.529 3.71127 3.73593 0
M  V30 2921 H 278.02 2.93438 2.38123 0
M  V30 2922 H 278.333 6.3751 4.36808 0
M  V30 2923 H 276.678 5.72937 3.93406 0
M  V30 2924 H 279.869 3.68728 2.8837 0
M  V30 2925 H 280.042 5.25614 3.7899 0
M  V30 2926 N 273.449 -1.08991 1.13837 0
M  V30 2927 C 274.396 -2.15748 0.819835 0
M  V30 2928 C 275.366 -1.64636 -0.220026 0
M  V30 2929 O 276.551 -1.90582 -0.0912757 0
M  V30 2930 C 273.691 -3.4382 0.296913 0
M  V30 2931 C 272.804 -4.0881 1.39636 0
M  V30 2932 C 271.939 -5.24655 0.831314 0
M  V30 2933 C 270.978 -5.81575 1.90886 0
M  V30 2934 N 270.115 -6.88774 1.36142 0
M  V30 2935 H 274.955 -2.42338 1.73426 0
M  V30 2936 H 272.492 -1.18935 0.865613 0
M  V30 2937 H 274.45 -4.17193 -0.0244339 0
M  V30 2938 H 273.08 -3.17535 -0.580628 0
M  V30 2939 H 272.132 -3.33258 1.83422 0
M  V30 2940 H 273.444 -4.47141 2.21058 0
M  V30 2941 H 272.598 -6.04942 0.461515 0
M  V30 2942 H 271.337 -4.87698 -0.013932 0
M  V30 2943 H 270.342 -4.99946 2.28767 0
M  V30 2944 H 271.567 -6.20592 2.75758 0
M  V30 2945 H 269.513 -6.53788 0.538254 0
M  V30 2946 H 269.43 -7.25898 2.11208 0
M  V30 2947 H 270.698 -7.72806 1.01933 0
M  V30 2948 N 274.927 -0.932562 -1.27047 0
M  V30 2949 C 276.174 -0.575559 -1.94148 0
M  V30 2950 C 276.502 0.883984 -1.73251 0
M  V30 2951 O 275.757 1.64655 -1.0577 0
M  V30 2952 C 276.056 -0.853713 -3.47054 0
M  V30 2953 C 275.722 -2.29577 -3.88079 0
M  V30 2954 C 274.384 -2.68999 -3.9899 0
M  V30 2955 C 276.736 -3.23331 -4.08787 0
M  V30 2956 C 274.064 -4.01289 -4.28 0
M  V30 2957 C 276.416 -4.55207 -4.39282 0
M  V30 2958 C 275.08 -4.94457 -4.48407 0
M  V30 2959 H 274.35 -0.210612 -0.710439 0
M  V30 2960 H 276.997 -1.17744 -1.51025 0
M  V30 2961 H 275.302 -0.169204 -3.91434 0
M  V30 2962 H 276.999 -0.55639 -3.97121 0
M  V30 2963 H 273.589 -1.97994 -3.80127 0
M  V30 2964 H 277.773 -2.94074 -3.99793 0
M  V30 2965 H 273.029 -4.31374 -4.33275 0
M  V30 2966 H 277.203 -5.27852 -4.54252 0
M  V30 2967 H 274.83 -5.96994 -4.7064 0
M  V30 2968 N 276.405 1.4127 -0.698611 0
M  V30 2969 C 277.652 2.0118 -0.230865 0
M  V30 2970 C 277.98 1.55338 1.17049 0
M  V30 2971 O 277.235 0.756775 1.80475 0
M  V30 2972 C 277.534 3.56592 -0.240192 0
M  V30 2973 C 277.2 4.21955 -1.58948 0
M  V30 2974 C 275.862 4.39524 -1.95887 0
M  V30 2975 C 278.214 4.58576 -2.47704 0
M  V30 2976 C 275.542 4.90992 -3.2116 0
M  V30 2977 C 277.894 5.11435 -3.72313 0
M  V30 2978 C 276.558 5.27215 -4.0939 0
M  V30 2979 H 275.828 0.736169 -0.0844796 0
M  V30 2980 H 278.475 1.69124 -0.8983 0
M  V30 2981 H 276.78 3.88456 0.510797 0
M  V30 2982 H 278.477 4.00758 0.139296 0
M  V30 2983 H 275.067 4.08657 -1.29219 0
M  V30 2984 H 279.251 4.44654 -2.20445 0
M  V30 2985 H 274.507 5.01393 -3.49878 0
M  V30 2986 H 278.681 5.38752 -4.4127 0
M  V30 2987 H 276.308 5.66859 -5.06533 0
M  V30 2988 N 277.883 0.443576 1.51229 0
M  V30 2989 C 279.131 -0.120557 2.0174 0
M  V30 2990 C 279.452 -1.42665 1.32935 0
M  V30 2991 O 278.722 -1.9028 0.465866 0
M  V30 2992 H 277.302 -0.0475426 0.745486 0
M  V30 2993 H 279.964 0.587711 1.85828 0
M  V30 2994 H 279.06 -0.291972 3.10731 0
M  V30 2995 N 279.361 -1.56624 0.175154 0
M  V30 2996 C 280.586 -2.01813 -0.478137 0
M  V30 2997 C 281.011 -1.05457 -1.55757 0
M  V30 2998 O 280.369 -0.0347439 -1.81267 0
M  V30 2999 C 280.417 -3.45581 -1.02987 0
M  V30 3000 O 279.521 -3.52305 -2.14371 0
M  V30 3001 H 278.862 -0.65413 -0.114059 0
M  V30 3002 H 281.392 -2.02673 0.280173 0
M  V30 3003 H 281.402 -3.84965 -1.35151 0
M  V30 3004 H 280.077 -4.1521 -0.239556 0
M  V30 3005 H 278.654 -3.24783 -1.83222 0
M  V30 3006 N 280.839 0.0985539 -1.57292 0
M  V30 3007 C 281.769 1.12064 -2.04851 0
M  V30 3008 C 282.75 1.41981 -0.936767 0
M  V30 3009 O 283.935 1.52071 -1.20781 0
M  V30 3010 C 281.065 2.44144 -2.47004 0
M  V30 3011 C 280.019 2.28643 -3.6181 0
M  V30 3012 C 279.345 3.65869 -3.89929 0
M  V30 3013 C 280.645 1.72986 -4.92822 0
M  V30 3014 H 282.339 0.724979 -2.9049 0
M  V30 3015 H 279.885 0.34729 -1.39749 0
M  V30 3016 H 281.838 3.15914 -2.78884 0
M  V30 3017 H 280.562 2.85639 -1.5836 0
M  V30 3018 H 279.221 1.59318 -3.30172 0
M  V30 3019 H 278.869 4.04885 -2.98458 0
M  V30 3020 H 278.569 3.56344 -4.67218 0
M  V30 3021 H 280.093 4.39112 -4.2428 0
M  V30 3022 H 281.507 2.34593 -5.23105 0
M  V30 3023 H 279.904 1.74229 -5.74251 0
M  V30 3024 H 280.974 0.689007 -4.7998 0
M  V30 3025 N 282.317 1.53212 0.369288 0
M  V30 3026 C 283.728 1.60943 0.946276 0
M  V30 3027 C 284.079 0.47452 1.90375 0
M  V30 3028 O 283.204 -0.399597 2.12679 0
M  V30 3029 C 283.799 2.91715 1.72302 0
M  V30 3030 C 282.358 3.01792 2.24941 0
M  V30 3031 C 281.505 2.56211 1.06072 0
M  V30 3032 H 284.456 1.58007 0.148198 0
M  V30 3033 H 284.477 2.79309 2.58393 0
M  V30 3034 H 283.989 3.74295 1.0259 0
M  V30 3035 H 282.09 2.23791 2.97906 0
M  V30 3036 H 282.203 4.06803 2.53077 0
M  V30 3037 H 280.567 2.10998 1.4266 0
M  V30 3038 H 281.35 3.41206 0.378639 0
M  V30 3039 N 283.795 -0.628877 1.44509 0
M  V30 3040 C 285.072 -1.38733 1.37886 0
M  V30 3041 C 285.452 -2.11065 0.0387008 0
M  V30 3042 O 284.8 -2.06476 -0.97878 0
M  V30 3043 C 285.01 -2.35188 2.57852 0
M  V30 3044 C 286.358 -2.9845 3.02014 0
M  V30 3045 O 287.382 -2.45513 2.58073 0
M  V30 3046 O 286.241 -3.94487 3.78209 0
M  V30 3047 H 283.335 -0.621015 0.54614 0
M  V30 3048 H 285.881 -0.653744 1.56602 0
M  V30 3049 H 284.653 -1.80855 3.46998 0
M  V30 3050 H 284.276 -3.1596 2.4136 0
M  V30 3051 N 285.273 -1.31445 -0.869486 0
M  V30 3052 C 286.498 -1.24256 -1.66058 0
M  V30 3053 C 286.923 0.188928 -1.87149 0
M  V30 3054 O 286.281 1.13522 -1.4136 0
M  V30 3055 C 286.329 -1.9924 -3.00559 0
M  V30 3056 O 285.433 -1.33007 -3.90362 0
M  V30 3057 H 284.774 -0.428973 -0.506831 0
M  V30 3058 H 287.304 -1.73521 -1.08404 0
M  V30 3059 H 287.314 -2.08854 -3.50491 0
M  V30 3060 H 285.989 -3.03342 -2.84528 0
M  V30 3061 H 284.566 -1.31848 -3.48813 0
M  V30 3062 N 286.751 1.08385 -1.14413 0
M  V30 3063 C 287.997 1.81212 -0.923793 0
M  V30 3064 C 288.352 1.84555 0.543814 0
M  V30 3065 O 287.645 1.31056 1.39767 0
M  V30 3066 C 287.839 3.26273 -1.45879 0
M  V30 3067 C 287.668 3.37063 -2.97689 0
M  V30 3068 C 286.438 3.4824 -3.66138 0
M  V30 3069 C 288.636 3.28698 -3.95553 0
M  V30 3070 N 286.618 3.47824 -5.05858 0
M  V30 3071 C 287.989 3.35276 -5.21527 0
M  V30 3072 C 290.044 3.12437 -3.8767 0
M  V30 3073 C 288.747 3.27267 -6.40538 0
M  V30 3074 C 290.773 3.05757 -5.06228 0
M  V30 3075 C 290.135 3.12938 -6.3107 0
M  V30 3076 H 286.234 0.6769 -0.391574 0
M  V30 3077 H 288.818 1.29455 -1.45429 0
M  V30 3078 H 286.989 3.76474 -0.95507 0
M  V30 3079 H 288.721 3.87165 -1.17835 0
M  V30 3080 H 285.476 3.52141 -3.16692 0
M  V30 3081 H 285.9 3.51171 -5.78798 0
M  V30 3082 H 290.542 3.05747 -2.92025 0
M  V30 3083 H 288.26 3.32718 -7.36427 0
M  V30 3084 H 291.846 2.94295 -5.01878 0
M  V30 3085 H 290.726 3.078 -7.21269 0
M  V30 3086 N 288.23 0.939286 1.26551 0
M  V30 3087 C 289.193 0.451987 2.24699 0
M  V30 3088 C 290.193 -0.435869 1.5478 0
M  V30 3089 O 291.383 -0.235314 1.72603 0
M  V30 3090 C 288.515 -0.348801 3.39111 0
M  V30 3091 H 289.708 1.3193 2.69322 0
M  V30 3092 H 287.261 0.721072 1.38673 0
M  V30 3093 H 287.996 -1.23444 2.99887 0
M  V30 3094 H 287.781 0.287945 3.91041 0
M  V30 3095 H 289.271 -0.679726 4.12031 0
M  V30 3096 N 289.708 -1.40897 0.706093 0
M  V30 3097 C 290.933 -2.05895 0.249435 0
M  V30 3098 C 291.358 -1.52823 -1.09666 0
M  V30 3099 O 290.716 -0.659589 -1.68876 0
M  V30 3100 C 290.764 -3.59872 0.22904 0
M  V30 3101 O 289.868 -4.04708 -0.792784 0
M  V30 3102 H 289.209 -0.653206 0.119241 0
M  V30 3103 H 291.739 -1.80471 0.96391 0
M  V30 3104 H 291.749 -4.07951 0.0634791 0
M  V30 3105 H 290.424 -3.97866 1.21141 0
M  V30 3106 H 289.001 -3.68111 -0.59572 0
M  V30 3107 N 291.186 -0.45159 -1.50991 0
M  V30 3108 C 292.434 0.109857 -2.01801 0
M  V30 3109 C 292.755 1.41958 -1.3369 0
M  V30 3110 O 292.025 1.9003 -0.475951 0
M  V30 3111 H 290.605 0.0435884 -0.745727 0
M  V30 3112 H 293.267 -0.597557 -1.85514 0
M  V30 3113 H 292.363 0.275489 -3.10882 0
M  V30 3114 N 292.664 1.56529 -0.183458 0
M  V30 3115 C 293.614 2.1515 0.754605 0
M  V30 3116 C 294.598 1.08904 1.18443 0
M  V30 3117 O 295.79 1.34997 1.14476 0
M  V30 3118 C 292.919 2.80531 1.97881 0
M  V30 3119 C 292.005 3.93952 1.57043 0
M  V30 3120 N 292.396 4.98221 0.87231 0
M  V30 3121 C 290.694 4.05338 1.86057 0
M  V30 3122 C 291.395 5.77836 0.669377 0
M  V30 3123 N 290.371 5.29858 1.21454 0
M  V30 3124 H 294.173 2.93132 0.212387 0
M  V30 3125 H 291.687 1.62391 0.0167725 0
M  V30 3126 H 293.684 3.20914 2.6612 0
M  V30 3127 H 292.344 2.04035 2.52586 0
M  V30 3128 H 293.355 5.15191 0.529033 0
M  V30 3129 H 290.032 3.39957 2.42354 0
M  V30 3130 H 291.422 6.71799 0.116422 0
M  V30 3131 N 294.142 -0.090211 1.57342 0
M  V30 3132 C 295.367 -0.810082 1.90925 0
M  V30 3133 C 295.792 -1.71248 0.778187 0
M  V30 3134 O 295.15 -1.79278 -0.269991 0
M  V30 3135 C 295.198 -1.59529 3.23393 0
M  V30 3136 O 294.302 -2.70461 3.11327 0
M  V30 3137 H 293.643 -0.222231 0.625707 0
M  V30 3138 H 296.173 -0.0639716 2.045 0
M  V30 3139 H 296.183 -1.97847 3.5682 0
M  V30 3140 H 294.858 -0.933055 4.05299 0
M  V30 3141 H 293.435 -2.35135 2.89423 0
M  V30 3142 N 295.62 -1.53406 -0.361157 0
M  V30 3143 C 296.866 -1.70054 -1.10496 0
M  V30 3144 C 297.199 -0.453278 -1.88836 0
M  V30 3145 O 296.474 0.5495 -1.86576 0
M  V30 3146 C 296.757 -2.95317 -2.06058 0
M  V30 3147 C 296.61 -4.3021 -1.31298 0
M  V30 3148 C 297.929 -3.16193 -3.06121 0
M  V30 3149 H 295.048 -0.618799 -0.400321 0
M  V30 3150 H 297.69 -1.86052 -0.385318 0
M  V30 3151 H 295.84 -2.81809 -2.67425 0
M  V30 3152 H 297.512 -4.55538 -0.726807 0
M  V30 3153 H 295.755 -4.29421 -0.614853 0
M  V30 3154 H 296.426 -5.14 -2.01265 0
M  V30 3155 H 298.902 -3.28916 -2.5486 0
M  V30 3156 H 297.778 -4.05266 -3.70204 0
M  V30 3157 H 298.039 -2.31676 -3.76535 0
M  V30 3158 N 297.098 0.621204 -1.44841 0
M  V30 3159 C 298.509 1.20298 -1.42777 0
M  V30 3160 C 298.86 1.95639 -0.148259 0
M  V30 3161 O 297.985 2.02955 0.750892 0
M  V30 3162 C 298.58 2.1882 -2.58657 0
M  V30 3163 C 297.139 2.72403 -2.59756 0
M  V30 3164 C 296.286 1.4757 -2.34773 0
M  V30 3165 H 299.237 0.411297 -1.53278 0
M  V30 3166 H 299.258 3.01607 -2.31977 0
M  V30 3167 H 298.77 1.63957 -3.51766 0
M  V30 3168 H 296.871 3.31242 -1.70615 0
M  V30 3169 H 296.984 3.17765 -3.58556 0
M  V30 3170 H 295.348 1.76051 -1.8406 0
M  V30 3171 H 296.131 0.945954 -3.3001 0
M  V30 3172 N 298.576 1.31904 0.862503 0
M  V30 3173 C 299.822 1.22197 1.61851 0
M  V30 3174 C 300.155 -0.217641 1.92977 0
M  V30 3175 O 299.43 -1.15264 1.56666 0
M  V30 3176 C 299.713 2.07378 2.94391 0
M  V30 3177 C 299.566 3.59678 2.70096 0
M  V30 3178 C 300.885 1.92891 3.95577 0
M  V30 3179 H 298.004 0.445255 0.587296 0
M  V30 3180 H 300.646 1.6177 0.99651 0
M  V30 3181 H 298.796 1.73758 3.47477 0
M  V30 3182 H 300.468 4.03472 2.23625 0
M  V30 3183 H 298.711 3.82735 2.04197 0
M  V30 3184 H 299.382 4.14595 3.64438 0
M  V30 3185 H 301.858 2.22327 3.51724 0
M  V30 3186 H 300.734 2.54781 4.86187 0
M  V30 3187 H 300.995 0.894315 4.3296 0
M  V30 3188 N 300.054 -1.07777 1.14986 0
M  V30 3189 C 301.3 -1.80557 0.923422 0
M  V30 3190 C 301.633 -1.86298 -0.548337 0
M  V30 3191 O 300.908 -1.34354 -1.40639 0
M  V30 3192 C 301.191 -3.25839 1.53299 0
M  V30 3193 C 301.044 -3.28269 3.07505 0
M  V30 3194 C 302.363 -4.22991 1.21518 0
M  V30 3195 H 299.482 -0.655493 0.336894 0
M  V30 3196 H 302.124 -1.26144 1.42083 0
M  V30 3197 H 300.274 -3.72306 1.10999 0
M  V30 3198 H 301.946 -2.90079 3.58681 0
M  V30 3199 H 300.189 -2.67355 3.4162 0
M  V30 3200 H 300.86 -4.30691 3.45266 0
M  V30 3201 H 303.336 -3.84894 1.581 0
M  V30 3202 H 302.212 -5.22945 1.66793 0
M  V30 3203 H 302.473 -4.41904 0.131505 0
M  V30 3204 N 301.532 -0.945985 -1.26051 0
M  V30 3205 C 302.76 -0.613025 -1.9761 0
M  V30 3206 C 303.175 0.813035 -1.70397 0
M  V30 3207 O 302.532 1.54274 -0.974979 0
M  V30 3208 C 302.583 -0.85159 -3.51326 0
M  V30 3209 O 302.304 -2.22157 -3.77595 0
M  V30 3210 C 303.805 -0.529831 -4.40122 0
M  V30 3211 H 301.025 -0.230593 -0.630133 0
M  V30 3212 H 303.569 -1.268 -1.60443 0
M  V30 3213 H 301.724 -0.243151 -3.86636 0
M  V30 3214 H 302.138 -2.2852 -4.721 0
M  V30 3215 H 303.612 -0.747348 -5.46917 0
M  V30 3216 H 304.089 0.535341 -4.35925 0
M  V30 3217 H 304.695 -1.11721 -4.10364 0
M  V30 3218 N 303.011 1.40521 -0.713556 0
M  V30 3219 C 304.257 2.01221 -0.252564 0
M  V30 3220 C 304.59 1.56444 1.1506 0
M  V30 3221 O 303.865 0.783597 1.78017 0
M  V30 3222 C 304.148 3.58582 -0.330332 0
M  V30 3223 C 304.001 4.13437 -1.77173 0
M  V30 3224 C 305.32 4.39079 0.299641 0
M  V30 3225 H 302.439 0.731077 -0.0932471 0
M  V30 3226 H 305.081 1.67026 -0.905673 0
M  V30 3227 H 303.231 3.87844 0.225737 0
M  V30 3228 H 304.903 3.9498 -2.38303 0
M  V30 3229 H 303.146 3.67801 -2.3001 0
M  V30 3230 H 303.817 5.22597 -1.77755 0
M  V30 3231 H 306.293 4.15735 -0.174139 0
M  V30 3232 H 305.169 5.4848 0.214771 0
M  V30 3233 H 305.43 4.19915 1.38288 0
M  V30 3234 N 304.489 0.459591 1.5075 0
M  V30 3235 C 305.735 -0.0994966 2.02556 0
M  V30 3236 C 306.068 -1.40399 1.3417 0
M  V30 3237 O 305.343 -1.88892 0.463683 0
M  V30 3238 C 305.626 -0.295242 3.58888 0
M  V30 3239 C 305.479 1.02947 4.37861 0
M  V30 3240 C 306.798 -1.05502 4.27267 0
M  V30 3241 H 303.917 -0.034686 0.736183 0
M  V30 3242 H 306.559 0.602938 1.8018 0
M  V30 3243 H 304.709 -0.893563 3.78084 0
M  V30 3244 H 306.381 1.66348 4.30263 0
M  V30 3245 H 304.624 1.62885 4.02058 0
M  V30 3246 H 305.295 0.846281 5.45474 0
M  V30 3247 H 307.771 -0.547993 4.12476 0
M  V30 3248 H 306.647 -1.16077 5.36486 0
M  V30 3249 H 306.908 -2.08875 3.89645 0
M  V30 3250 N 305.967 -1.56429 0.191757 0
M  V30 3251 C 307.383 -1.58754 -0.164137 0
M  V30 3252 C 307.583 -1.20782 -1.61288 0
M  V30 3253 O 306.639 -0.928999 -2.34789 0
M  V30 3254 C 307.952 -3.00396 0.135195 0
M  V30 3255 C 309.5 -3.1291 0.0750351 0
M  V30 3256 C 309.975 -4.56679 0.347632 0
M  V30 3257 N 311.466 -4.62252 0.296131 0
M  V30 3258 C 312.201 -5.71379 0.480948 0
M  V30 3259 N 311.697 -6.88986 0.725933 0
M  V30 3260 N 313.49 -5.60563 0.415435 0
M  V30 3261 H 305.641 -1.79393 1.13718 0
M  V30 3262 H 307.904 -0.832414 0.453643 0
M  V30 3263 H 307.61 -3.32726 1.13958 0
M  V30 3264 H 307.484 -3.72963 -0.563773 0
M  V30 3265 H 309.871 -2.80394 -0.919948 0
M  V30 3266 H 309.952 -2.42736 0.807029 0
M  V30 3267 H 309.596 -4.89907 1.33992 0
M  V30 3268 H 309.526 -5.25039 -0.405212 0
M  V30 3269 H 312.017 -3.7773 0.113259 0
M  V30 3270 H 312.33 -7.68046 0.855857 0
M  V30 3271 H 310.675 -6.90801 0.762788 0
M  V30 3272 H 313.866 -4.67561 0.224486 0
M  V30 3273 H 314.039 -6.45551 0.562889 0
M  V30 3274 N 307.445 0.0818655 -1.57387 0
M  V30 3275 C 308.408 1.08265 -2.02018 0
M  V30 3276 C 309.408 1.32183 -0.915664 0
M  V30 3277 O 310.598 1.28073 -1.18081 0
M  V30 3278 C 307.73 2.42871 -2.39221 0
M  V30 3279 H 308.923 0.698204 -2.91659 0
M  V30 3280 H 306.476 0.327303 -1.52835 0
M  V30 3281 H 307.211 2.86167 -1.52575 0
M  V30 3282 H 306.996 2.26855 -3.19811 0
M  V30 3283 H 308.486 3.14826 -2.74362 0
M  V30 3284 N 308.923 1.53595 0.353017 0
M  V30 3285 C 309.856 1.7572 1.45594 0
M  V30 3286 C 310.834 0.605961 1.50887 0
M  V30 3287 O 312.018 0.840023 1.68748 0
M  V30 3288 C 309.145 1.84732 2.83887 0
M  V30 3289 C 308.191 3.06808 2.96262 0
M  V30 3290 S 309.024 4.66065 2.63711 0
M  V30 3291 C 310.18 4.77943 4.04131 0
M  V30 3292 H 310.413 2.68994 1.26608 0
M  V30 3293 H 307.946 1.44343 0.548117 0
M  V30 3294 H 309.904 1.9061 3.63563 0
M  V30 3295 H 308.565 0.92488 3.00175 0
M  V30 3296 H 307.758 3.09761 3.97573 0
M  V30 3297 H 307.36 2.99108 2.24523 0
M  V30 3298 H 309.652 4.5877 4.98534 0
M  V30 3299 H 310.595 5.80022 4.06177 0
M  V30 3300 H 311.003 4.06472 3.91715 0
M  V30 3301 N 310.401 -0.613514 1.45168 0
M  V30 3302 C 311.331 -1.7354 1.56225 0
M  V30 3303 C 312.312 -1.64981 0.41414 0
M  V30 3304 O 313.497 -1.83472 0.636526 0
M  V30 3305 C 310.627 -3.12128 1.52295 0
M  V30 3306 C 309.581 -3.35491 2.65762 0
M  V30 3307 C 308.907 -4.74291 2.46885 0
M  V30 3308 C 310.207 -3.26325 4.0781 0
M  V30 3309 H 311.901 -1.64543 2.50132 0
M  V30 3310 H 309.447 -0.790185 1.20383 0
M  V30 3311 H 311.4 -3.90404 1.58628 0
M  V30 3312 H 310.124 -3.2195 0.549139 0
M  V30 3313 H 308.783 -2.59603 2.58847 0
M  V30 3314 H 308.431 -4.80839 1.47657 0
M  V30 3315 H 308.131 -4.9088 3.22972 0
M  V30 3316 H 309.655 -5.54775 2.55063 0
M  V30 3317 H 311.069 -3.94483 4.16 0
M  V30 3318 H 309.466 -3.54445 4.8424 0
M  V30 3319 H 310.536 -2.23855 4.30136 0
M  V30 3320 N 311.879 -1.3236 -0.855495 0
M  V30 3321 C 312.827 -1.2118 -1.9854 0
M  V30 3322 C 313.821 -0.116788 -1.68997 0
M  V30 3323 O 315.027 -0.279657 -1.77814 0
M  V30 3324 H 311.402 -0.375608 -0.651477 0
M  V30 3325 H 313.373 -2.16743 -2.05098 0
M  V30 3326 C 312.122 -0.950849 -3.34446 0
M  V30 3327 H 311.445 -1.78563 -3.57708 0
M  V30 3328 H 312.885 -0.912863 -4.14057 0
M  V30 3329 C 311.344 0.346404 -3.35114 0
M  V30 3330 O 311.874 1.35855 -3.7803 0
M  V30 3331 N 310.08 0.36808 -2.88259 0
M  V30 3332 H 309.627 -0.456102 -2.5353 0
M  V30 3333 H 309.585 1.23591 -2.89089 0
M  V30 3334 N 313.357 1.07166 -1.15556 0
M  V30 3335 C 314.305 2.16517 -0.8499 0
M  V30 3336 C 315.299 1.68468 0.177454 0
M  V30 3337 O 316.505 1.79971 0.0323026 0
M  V30 3338 H 312.88 0.706652 -0.25719 0
M  V30 3339 H 314.851 2.39514 -1.77976 0
M  V30 3340 C 313.6 3.45855 -0.357682 0
M  V30 3341 H 312.923 3.83214 -1.13961 0
M  V30 3342 H 314.363 4.23607 -0.182489 0
M  V30 3343 C 312.822 3.24062 0.921152 0
M  V30 3344 O 313.352 3.48813 1.9923 0
M  V30 3345 N 311.558 2.77539 0.86141 0
M  V30 3346 H 311.105 2.57598 -0.0104408 0
M  V30 3347 H 311.063 2.63337 1.71758 0
M  V30 3348 N 314.835 0.952656 1.25548 0
M  V30 3349 C 316.081 0.607272 1.93494 0
M  V30 3350 C 316.414 -0.853245 1.74452 0
M  V30 3351 O 315.689 -1.61194 1.08843 0
M  V30 3352 C 315.972 0.96435 3.46947 0
M  V30 3353 C 315.825 2.48045 3.75225 0
M  V30 3354 C 317.144 0.487987 4.37386 0
M  V30 3355 H 314.263 0.222096 0.702739 0
M  V30 3356 H 316.905 1.18895 1.48203 0
M  V30 3357 H 315.055 0.469361 3.85654 0
M  V30 3358 H 316.727 3.04905 3.46166 0
M  V30 3359 H 314.97 2.919 3.209 0
M  V30 3360 H 315.641 2.6808 4.82532 0
M  V30 3361 H 318.117 0.912558 4.0597 0
M  V30 3362 H 316.993 0.766547 5.43521 0
M  V30 3363 H 317.254 -0.612063 4.37843 0
M  V30 3364 N 316.313 -1.40141 0.720998 0
M  V30 3365 C 317.559 -2.01084 0.263231 0
M  V30 3366 C 317.892 -1.57052 -1.14229 0
M  V30 3367 O 317.167 -0.793027 -1.77599 0
M  V30 3368 C 317.45 -3.58401 0.349344 0
M  V30 3369 C 317.303 -4.12491 1.79363 0
M  V30 3370 C 318.622 -4.39231 -0.276351 0
M  V30 3371 H 315.741 -0.730572 0.0971228 0
M  V30 3372 H 318.383 -1.66543 0.914518 0
M  V30 3373 H 316.533 -3.87958 -0.205165 0
M  V30 3374 H 318.205 -3.93711 2.40394 0
M  V30 3375 H 316.448 -3.66576 2.31958 0
M  V30 3376 H 317.119 -5.21646 1.80524 0
M  V30 3377 H 319.595 -4.15637 0.196184 0
M  V30 3378 H 318.471 -5.48586 -0.185681 0
M  V30 3379 H 318.732 -4.20643 -1.36059 0
M  V30 3380 N 317.792 -0.46758 -1.50504 0
M  V30 3381 C 319.208 -0.121533 -1.59137 0
M  V30 3382 C 319.408 1.3717 -1.47603 0
M  V30 3383 O 318.464 2.14464 -1.33272 0
M  V30 3384 C 319.777 -0.6686 -2.93173 0
M  V30 3385 C 321.325 -0.631716 -3.06559 0
M  V30 3386 C 321.8 -1.15627 -4.43164 0
M  V30 3387 N 323.291 -1.11553 -4.49567 0
M  V30 3388 C 324.026 -1.49195 -5.5365 0
M  V30 3389 N 323.522 -1.94269 -6.65005 0
M  V30 3390 N 325.315 -1.4082 -5.44175 0
M  V30 3391 H 317.466 -1.4388 -1.56245 0
M  V30 3392 H 319.729 -0.594784 -0.738198 0
M  V30 3393 H 319.435 -1.71453 -3.07078 0
M  V30 3394 H 319.309 -0.11021 -3.77039 0
M  V30 3395 H 321.696 0.405297 -2.92304 0
M  V30 3396 H 321.777 -1.22687 -2.24458 0
M  V30 3397 H 321.421 -2.1919 -4.58168 0
M  V30 3398 H 321.351 -0.537365 -5.23851 0
M  V30 3399 H 323.842 -0.784895 -3.69659 0
M  V30 3400 H 324.155 -2.21148 -7.40482 0
M  V30 3401 H 322.5 -1.98219 -6.66134 0
M  V30 3402 H 325.691 -1.0545 -4.56068 0
M  V30 3403 H 325.864 -1.70481 -6.25172 0
M  V30 3404 N 319.27 1.56325 -0.20005 0
M  V30 3405 C 320.681 1.8408 0.31167 0
M  V30 3406 C 321.032 1.12087 1.61031 0
M  V30 3407 O 320.157 0.38332 2.12978 0
M  V30 3408 C 320.752 3.33932 0.57226 0
M  V30 3409 C 319.311 3.6208 1.02834 0
M  V30 3410 C 318.458 2.77186 0.079634 0
M  V30 3411 H 321.409 1.52939 -0.423729 0
M  V30 3412 H 321.43 3.52971 1.42096 0
M  V30 3413 H 320.942 3.86303 -0.37308 0
M  V30 3414 H 319.043 3.15147 1.98778 0
M  V30 3415 H 319.156 4.7023 0.917624 0
M  V30 3416 H 317.52 2.47951 0.582448 0
M  V30 3417 H 318.303 3.32347 -0.860238 0
M  V30 3418 N 320.748 -0.0735177 1.57428 0
M  V30 3419 C 322.164 -0.428264 1.53747 0
M  V30 3420 C 322.364 -1.79272 0.91998 0
M  V30 3421 O 321.42 -2.47051 0.521745 0
M  V30 3422 C 322.733 -0.370914 2.98404 0
M  V30 3423 C 324.281 -0.451224 3.0973 0
M  V30 3424 C 324.756 -0.4238 4.56035 0
M  V30 3425 N 326.247 -0.483925 4.60665 0
M  V30 3426 C 326.982 -0.484891 5.71346 0
M  V30 3427 N 326.478 -0.440775 6.91396 0
M  V30 3428 N 328.271 -0.531319 5.59583 0
M  V30 3429 H 320.422 0.819949 1.95935 0
M  V30 3430 H 322.685 0.307493 0.896745 0
M  V30 3431 H 322.391 0.564956 3.47133 0
M  V30 3432 H 322.265 -1.18176 3.5821 0
M  V30 3433 H 324.652 -1.37752 2.60976 0
M  V30 3434 H 324.733 0.388167 2.52838 0
M  V30 3435 H 324.377 0.498638 5.05446 0
M  V30 3436 H 324.307 -1.2807 5.10789 0
M  V30 3437 H 326.798 -0.522338 3.74273 0
M  V30 3438 H 327.111 -0.44539 7.71515 0
M  V30 3439 H 325.456 -0.40749 6.93804 0
M  V30 3440 H 328.647 -0.563464 4.64696 0
M  V30 3441 H 328.82 -0.528603 6.4584 0
M  V30 3442 N 322.226 -1.5378 -0.344866 0
M  V30 3443 C 323.503 -1.61589 -1.10219 0
M  V30 3444 C 323.883 -0.436316 -2.06542 0
M  V30 3445 O 323.231 0.571543 -2.21237 0
M  V30 3446 C 323.441 -2.97602 -1.82301 0
M  V30 3447 C 324.789 -3.5291 -2.36093 0
M  V30 3448 O 325.813 -2.99768 -1.924 0
M  V30 3449 O 324.672 -4.45859 -3.16026 0
M  V30 3450 H 321.766 -0.653522 -0.506792 0
M  V30 3451 H 324.312 -1.66126 -0.346465 0
M  V30 3452 H 323.084 -3.74893 -1.12121 0
M  V30 3453 H 322.707 -2.9665 -2.64735 0
M  V30 3454 N 323.704 0.605807 -1.45491 0
M  V30 3455 C 324.651 1.7164 -1.54299 0
M  V30 3456 C 325.621 1.61486 -0.388761 0
M  V30 3457 O 326.806 1.81039 -0.602445 0
M  V30 3458 C 323.946 3.09953 -1.51734 0
M  V30 3459 C 323.059 3.309 -2.77721 0
M  V30 3460 C 322.194 4.59329 -2.66816 0
M  V30 3461 C 321.233 4.7354 -3.87848 0
M  V30 3462 N 320.37 5.9327 -3.75467 0
M  V30 3463 H 325.21 1.63449 -2.49176 0
M  V30 3464 H 322.747 0.796957 -1.23641 0
M  V30 3465 H 324.705 3.89977 -1.48235 0
M  V30 3466 H 323.335 3.17098 -0.604068 0
M  V30 3467 H 322.387 2.44639 -2.913 0
M  V30 3468 H 323.699 3.37274 -3.67488 0
M  V30 3469 H 322.853 5.4755 -2.61292 0
M  V30 3470 H 321.592 4.55355 -1.74651 0
M  V30 3471 H 320.597 3.83741 -3.93729 0
M  V30 3472 H 321.822 4.79309 -4.81082 0
M  V30 3473 H 319.768 5.90338 -2.86072 0
M  V30 3474 H 319.685 6.00811 -4.5887 0
M  V30 3475 H 320.953 6.83984 -3.73879 0
M  V30 3476 N 325.182 1.32811 0.848464 0
M  V30 3477 C 326.114 1.18095 1.96433 0
M  V30 3478 C 327.127 0.114354 1.62398 0
M  V30 3479 O 328.316 0.363892 1.74751 0
M  V30 3480 C 325.416 0.786798 3.2964 0
M  V30 3481 C 324.589 1.943 3.91875 0
M  V30 3482 C 323.648 1.53138 5.03423 0
M  V30 3483 O 322.674 2.24432 5.23086 0
M  V30 3484 N 323.876 0.430915 5.78898 0
M  V30 3485 H 326.641 2.14218 2.09597 0
M  V30 3486 H 324.202 1.2543 1.02367 0
M  V30 3487 H 326.194 0.493715 4.01677 0
M  V30 3488 H 324.764 -0.0834541 3.12489 0
M  V30 3489 H 323.984 2.40224 3.12547 0
M  V30 3490 H 325.272 2.71689 4.30189 0
M  V30 3491 H 324.67 -0.162333 5.65467 0
M  V30 3492 H 323.227 0.197466 6.51501 0
M  V30 3493 N 326.66 -1.06551 1.16123 0
M  V30 3494 C 327.593 -2.13382 0.80892 0
M  V30 3495 C 328.571 -1.61128 -0.21827 0
M  V30 3496 O 329.755 -1.88219 -0.102952 0
M  V30 3497 C 326.882 -3.38083 0.204303 0
M  V30 3498 C 325.928 -4.09133 1.20469 0
M  V30 3499 S 326.761 -4.5948 2.75024 0
M  V30 3500 C 327.917 -5.87446 2.16005 0
M  V30 3501 H 328.15 -2.42937 1.71373 0
M  V30 3502 H 325.683 -1.18947 0.984428 0
M  V30 3503 H 327.641 -4.10268 -0.138081 0
M  V30 3504 H 326.302 -3.0669 -0.678234 0
M  V30 3505 H 325.495 -4.98685 0.730019 0
M  V30 3506 H 325.097 -3.4295 1.49202 0
M  V30 3507 H 327.389 -6.60065 1.5271 0
M  V30 3508 H 328.332 -6.39639 3.03756 0
M  V30 3509 H 328.74 -5.41354 1.59989 0
M  V30 3510 N 328.138 -0.959301 -1.25041 0
M  V30 3511 C 329.048 -0.489994 -2.29426 0
M  V30 3512 C 330.064 0.444944 -1.68215 0
M  V30 3513 O 331.24 0.320046 -1.98841 0
M  V30 3514 C 328.305 0.220309 -3.45999 0
M  V30 3515 C 327.366 -0.753418 -4.22637 0
M  V30 3516 C 326.599 -0.076918 -5.33645 0
M  V30 3517 O 326.822 1.13649 -5.58963 0
M  V30 3518 O 325.756 -0.764824 -5.97021 0
M  V30 3519 H 329.582 -1.35755 -2.71669 0
M  V30 3520 H 327.167 -0.725961 -1.30576 0
M  V30 3521 H 329.049 0.619677 -4.16819 0
M  V30 3522 H 327.724 1.06296 -3.0575 0
M  V30 3523 H 326.631 -1.20308 -3.54227 0
M  V30 3524 H 327.964 -1.56423 -4.66683 0
M  V30 3525 N 329.616 1.39756 -0.72842 0
M  V30 3526 C 330.546 2.33289 -0.0991354 0
M  V30 3527 C 331.527 1.53568 0.731489 0
M  V30 3528 O 332.712 1.81987 0.677807 0
M  V30 3529 C 329.842 3.3763 0.813834 0
M  V30 3530 C 328.796 4.2791 0.0878663 0
M  V30 3531 C 328.122 5.22894 1.11741 0
M  V30 3532 C 329.422 5.11314 -1.06563 0
M  V30 3533 H 331.116 2.86163 -0.880408 0
M  V30 3534 H 328.662 1.37591 -0.424819 0
M  V30 3535 H 330.615 4.0201 1.26355 0
M  V30 3536 H 329.339 2.83181 1.62715 0
M  V30 3537 H 327.998 3.65 -0.342159 0
M  V30 3538 H 327.646 4.64744 1.92412 0
M  V30 3539 H 327.346 5.84143 0.636477 0
M  V30 3540 H 328.87 5.90151 1.56697 0
M  V30 3541 H 330.284 5.69076 -0.694671 0
M  V30 3542 H 328.681 5.81671 -1.47577 0
M  V30 3543 H 329.751 4.46534 -1.89038 0
M  V30 3544 N 331.094 0.475555 1.50254 0
M  V30 3545 C 332.024 -0.30611 2.31485 0
M  V30 3546 C 333.005 -0.986228 1.38591 0
M  V30 3547 O 334.19 -0.982541 1.67511 0
M  V30 3548 C 331.32 -1.38588 3.1845 0
M  V30 3549 C 330.274 -0.827115 4.19932 0
M  V30 3550 C 329.6 -2.00551 4.95665 0
M  V30 3551 C 330.9 0.16463 5.2204 0
M  V30 3552 H 332.594 0.371866 2.97082 0
M  V30 3553 H 330.14 0.180282 1.42867 0
M  V30 3554 H 332.093 -1.94023 3.74076 0
M  V30 3555 H 330.817 -2.09269 2.50747 0
M  V30 3556 H 329.476 -0.294702 3.65414 0
M  V30 3557 H 329.124 -2.6994 4.2443 0
M  V30 3558 H 328.824 -1.63784 5.64313 0
M  V30 3559 H 330.348 -2.56468 5.54127 0
M  V30 3560 H 331.762 -0.300699 5.72511 0
M  V30 3561 H 330.159 0.446813 5.98434 0
M  V30 3562 H 331.229 1.08905 4.72512 0
M  V30 3563 N 332.573 -1.56217 0.208337 0
M  V30 3564 C 333.483 -2.23316 -0.718836 0
M  V30 3565 C 334.499 -1.23648 -1.22422 0
M  V30 3566 O 335.675 -1.56423 -1.26861 0
M  V30 3567 C 332.74 -2.88968 -1.91568 0
M  V30 3568 C 331.801 -4.03943 -1.45357 0
M  V30 3569 C 331.034 -4.66455 -2.59337 0
M  V30 3570 O 331.257 -4.27919 -3.77149 0
M  V30 3571 O 330.191 -5.55686 -2.31293 0
M  V30 3572 H 334.017 -3.03182 -0.177315 0
M  V30 3573 H 331.602 -1.49384 -0.0215402 0
M  V30 3574 H 333.484 -3.30455 -2.61491 0
M  V30 3575 H 332.159 -2.12071 -2.44556 0
M  V30 3576 H 331.066 -3.67052 -0.722746 0
M  V30 3577 H 332.399 -4.82543 -0.970219 0
M  V30 3578 N 334.051 0.0651679 -1.57465 0
M  V30 3579 C 334.999 1.09542 -2.05191 0
M  V30 3580 C 335.993 1.39675 -0.958509 0
M  V30 3581 O 337.199 1.39003 -1.14359 0
M  V30 3582 H 333.574 0.370623 -0.654326 0
M  V30 3583 H 335.545 0.666802 -2.90854 0
M  V30 3584 C 334.294 2.39881 -2.51699 0
M  V30 3585 H 333.617 2.17547 -3.3543 0
M  V30 3586 H 335.057 3.104 -2.88839 0
M  V30 3587 C 333.516 3.0631 -1.40271 0
M  V30 3588 O 334.046 3.94664 -0.748523 0
M  V30 3589 N 332.252 2.67041 -1.14618 0
M  V30 3590 H 331.799 1.95281 -1.67997 0
M  V30 3591 H 331.757 3.1181 -0.402688 0
M  V30 3592 N 335.529 1.53961 0.336706 0
M  V30 3593 C 336.476 1.82428 1.41381 0
M  V30 3594 C 337.446 0.670444 1.51968 0
M  V30 3595 O 338.631 0.915565 1.67398 0
M  V30 3596 C 335.771 2.04564 2.77934 0
M  V30 3597 C 334.884 3.32267 2.76084 0
M  V30 3598 C 334.019 3.44434 4.04399 0
M  V30 3599 C 333.058 4.66061 3.96804 0
M  V30 3600 N 332.195 4.75224 5.16823 0
M  V30 3601 H 337.035 2.74324 1.16405 0
M  V30 3602 H 334.572 1.35869 0.563752 0
M  V30 3603 H 336.53 2.15388 3.57301 0
M  V30 3604 H 335.16 1.15974 3.01247 0
M  V30 3605 H 334.212 3.3025 1.88784 0
M  V30 3606 H 335.524 4.21733 2.66351 0
M  V30 3607 H 334.678 3.54728 4.92192 0
M  V30 3608 H 333.417 2.53037 4.16921 0
M  V30 3609 H 332.422 4.55838 3.07396 0
M  V30 3610 H 333.647 5.58829 3.85858 0
M  V30 3611 H 331.593 3.86739 5.29876 0
M  V30 3612 H 331.51 5.58636 5.09374 0
M  V30 3613 H 332.778 4.89835 6.06367 0
M  V30 3614 N 337.007 -0.598083 1.45811 0
M  V30 3615 C 337.97 -1.69018 1.54808 0
M  V30 3616 C 338.97 -1.55037 0.426652 0
M  V30 3617 O 340.16 -1.59932 0.690456 0
M  V30 3618 C 337.292 -3.0835 1.45371 0
M  V30 3619 H 338.485 -1.62403 2.52121 0
M  V30 3620 H 336.038 -0.814626 1.33392 0
M  V30 3621 H 336.773 -3.20534 0.492793 0
M  V30 3622 H 336.558 -3.19907 2.26721 0
M  V30 3623 H 338.048 -3.8788 1.54721 0
M  V30 3624 N 338.485 -1.33259 -0.841409 0
M  V30 3625 C 339.734 -1.23921 -1.59143 0
M  V30 3626 C 340.047 0.1941 -1.94635 0
M  V30 3627 O 341.253 0.409474 -2.68394 0
M  V30 3628 C 339.709 -2.17119 -2.87032 0
M  V30 3629 C 339.317 -3.65606 -2.58914 0
M  V30 3630 C 341.061 -2.16648 -3.65053 0
M  V30 3631 C 338.968 -4.50726 -3.82884 0
M  V30 3632 H 337.898 -0.460264 -0.597221 0
M  V30 3633 H 340.549 -1.58307 -0.927959 0
M  V30 3634 H 338.931 -1.75663 -3.54906 0
M  V30 3635 H 340.105 -4.15487 -1.99267 0
M  V30 3636 H 338.42 -3.68341 -1.942 0
M  V30 3637 H 341.017 -2.77474 -4.57069 0
M  V30 3638 H 341.36 -1.16088 -3.99787 0
M  V30 3639 H 341.893 -2.56453 -3.041 0
M  V30 3640 H 338.632 -5.52151 -3.53283 0
M  V30 3641 H 338.152 -4.0559 -4.41879 0
M  V30 3642 H 339.831 -4.64401 -4.50489 0
M  V30 3643 N 339.963 1.05934 -1.16686 0
M  V30 3644 C 340.913 2.11764 -0.844978 0
M  V30 3645 C 341.897 1.59922 0.177178 0
M  V30 3646 O 343.089 1.76983 -0.0241768 0
M  V30 3647 C 340.218 3.41493 -0.351812 0
M  V30 3648 C 339.304 4.00152 -1.40496 0
M  V30 3649 N 339.695 4.32874 -2.61636 0
M  V30 3650 C 337.993 4.278 -1.26106 0
M  V30 3651 C 338.694 4.79552 -3.29249 0
M  V30 3652 N 337.67 4.79211 -2.56628 0
M  V30 3653 H 341.472 2.34916 -1.76612 0
M  V30 3654 H 338.986 1.23511 -1.05446 0
M  V30 3655 H 340.983 4.16773 -0.102796 0
M  V30 3656 H 339.643 3.19778 0.56322 0
M  V30 3657 H 340.654 4.23109 -2.98663 0
M  V30 3658 H 337.331 4.15511 -0.407081 0
M  V30 3659 H 338.721 5.14045 -4.32675 0
M  V30 3660 N 341.441 0.965919 1.2453 0
M  V30 3661 C 342.718 0.543777 1.87889 0
M  V30 3662 C 343.098 -0.97909 1.87021 0
M  V30 3663 O 342.446 -1.84969 1.3416 0
M  V30 3664 C 342.656 1.13327 3.30088 0
M  V30 3665 C 344.004 1.21707 4.06783 0
M  V30 3666 O 345.028 1.08566 3.39252 0
M  V30 3667 O 343.887 1.42456 5.27606 0
M  V30 3668 H 340.981 0.181054 0.806938 0
M  V30 3669 H 343.527 1.06007 1.32516 0
M  V30 3670 H 342.299 2.17612 3.25209 0
M  V30 3671 H 341.922 0.600911 3.93033 0
M  V30 3672 N 342.919 -1.39368 0.735821 0
M  V30 3673 C 343.849 -2.33234 0.111506 0
M  V30 3674 C 344.83 -1.53954 -0.723334 0
M  V30 3675 O 346.015 -1.82344 -0.668147 0
M  V30 3676 C 343.145 -3.38057 -0.795917 0
M  V30 3677 C 342.099 -4.2795 -0.065172 0
M  V30 3678 C 341.425 -5.23479 -1.08967 0
M  V30 3679 C 342.725 -5.10741 1.09273 0
M  V30 3680 H 344.419 -2.85692 0.895571 0
M  V30 3681 H 341.965 -1.37364 0.432109 0
M  V30 3682 H 343.918 -4.02675 -1.24221 0
M  V30 3683 H 342.642 -2.8404 -1.61211 0
M  V30 3684 H 341.301 -3.64813 0.361511 0
M  V30 3685 H 340.949 -4.65758 -1.89944 0
M  V30 3686 H 340.649 -5.84472 -0.605489 0
M  V30 3687 H 342.173 -5.90974 -1.53565 0
M  V30 3688 H 343.587 -5.68699 0.724841 0
M  V30 3689 H 341.984 -5.8088 1.50659 0
M  V30 3690 H 343.054 -4.45525 1.91404 0
M  V30 3691 N 344.397 -0.483516 -1.5 0
M  V30 3692 C 345.645 0.067027 -2.01989 0
M  V30 3693 C 345.966 1.3909 -1.36671 0
M  V30 3694 O 345.236 1.88978 -0.516152 0
M  V30 3695 H 343.816 0.0277606 -0.746484 0
M  V30 3696 H 346.478 -0.636773 -1.84204 0
M  V30 3697 H 345.574 0.209484 -3.11396 0
M  V30 3698 N 345.875 1.56104 -0.216619 0
M  V30 3699 C 346.822 2.2007 0.695531 0
M  V30 3700 C 347.792 1.15471 1.19397 0
M  V30 3701 O 348.977 1.43807 1.25396 0
M  V30 3702 C 346.117 2.88073 1.90021 0
M  V30 3703 C 345.23 4.07253 1.44113 0
M  V30 3704 C 344.365 4.63052 2.603 0
M  V30 3705 C 343.404 5.74545 2.11103 0
M  V30 3706 N 342.541 6.24656 3.20545 0
M  V30 3707 H 347.381 2.97655 0.143327 0
M  V30 3708 H 344.918 1.46982 0.0589934 0
M  V30 3709 H 346.876 3.25681 2.60745 0
M  V30 3710 H 345.506 2.13015 2.42538 0
M  V30 3711 H 344.558 3.75164 0.628999 0
M  V30 3712 H 345.87 4.8783 1.04036 0
M  V30 3713 H 345.024 5.03078 3.39113 0
M  V30 3714 H 343.763 3.81628 3.03663 0
M  V30 3715 H 342.768 5.34027 1.3075 0
M  V30 3716 H 343.993 6.57801 1.68746 0
M  V30 3717 H 341.939 5.46148 3.63399 0
M  V30 3718 H 341.856 7.00343 2.84704 0
M  V30 3719 H 343.124 6.69338 3.99508 0
M  V30 3720 N 347.353 -0.0568162 1.57498 0
M  V30 3721 C 348.316 -1.05038 2.03715 0
M  V30 3722 C 349.316 -1.30709 0.936577 0
M  V30 3723 O 350.506 -1.26178 1.20103 0
M  V30 3724 C 347.638 -2.39034 2.43055 0
M  V30 3725 H 348.831 -0.651715 2.92733 0
M  V30 3726 H 346.384 -0.302947 1.53336 0
M  V30 3727 H 347.119 -2.83703 1.57108 0
M  V30 3728 H 346.904 -2.21739 3.2338 0
M  V30 3729 H 348.394 -3.10421 2.79336 0
M  V30 3730 N 348.832 -1.54138 -0.328536 0
M  V30 3731 C 349.782 -1.79557 -1.4051 0
M  V30 3732 C 350.766 -0.651373 -1.47126 0
M  V30 3733 O 351.958 -0.911226 -1.51742 0
M  V30 3734 C 349.087 -2.02196 -2.77438 0
M  V30 3735 C 348.173 -3.22724 -2.75155 0
M  V30 3736 N 348.564 -4.43881 -2.42494 0
M  V30 3737 C 346.862 -3.24196 -3.06289 0
M  V30 3738 C 347.563 -5.25797 -2.48822 0
M  V30 3739 N 346.539 -4.62862 -2.8506 0
M  V30 3740 H 350.341 -2.70814 -1.1418 0
M  V30 3741 H 347.855 -1.53265 -0.536991 0
M  V30 3742 H 349.852 -2.18546 -3.55026 0
M  V30 3743 H 348.512 -1.12191 -3.04702 0
M  V30 3744 H 349.523 -4.70969 -2.15428 0
M  V30 3745 H 346.2 -2.44208 -3.38627 0
M  V30 3746 H 347.59 -6.32535 -2.26603 0
M  V30 3747 N 350.31 0.590341 -1.46126 0
M  V30 3748 C 351.558 1.34616 -1.50742 0
M  V30 3749 C 351.879 1.94363 -0.157486 0
M  V30 3750 O 351.149 1.78136 0.815136 0
M  V30 3751 H 349.729 0.499789 -0.555175 0
M  V30 3752 H 352.391 0.691953 -1.82203 0
M  V30 3753 H 351.487 2.15678 -2.25587 0
M  V30 3754 N 351.788 1.33704 0.83433 0
M  V30 3755 C 353.013 1.28615 1.62705 0
M  V30 3756 C 353.438 -0.139242 1.87584 0
M  V30 3757 O 352.796 -1.09734 1.4432 0
M  V30 3758 C 352.844 2.07139 2.95171 0
M  V30 3759 O 351.948 1.4331 3.86699 0
M  V30 3760 H 351.289 0.44226 0.49528 0
M  V30 3761 H 353.819 1.76335 1.03766 0
M  V30 3762 H 353.829 2.18073 3.44831 0
M  V30 3763 H 352.504 3.10779 2.76386 0
M  V30 3764 H 351.081 1.4105 3.45195 0
M  V30 3765 N 353.266 -1.05314 1.17247 0
M  V30 3766 C 354.196 -2.1498 0.911362 0
M  V30 3767 C 355.177 -1.69471 -0.146169 0
M  V30 3768 O 356.362 -1.942 0.003812 0
M  V30 3769 C 353.492 -3.4472 0.422528 0
M  V30 3770 C 352.446 -4.03789 1.4191 0
M  V30 3771 C 351.772 -5.28858 0.788274 0
M  V30 3772 C 353.072 -4.41418 2.7919 0
M  V30 3773 H 354.766 -2.3708 1.82848 0
M  V30 3774 H 352.312 -1.13938 0.880569 0
M  V30 3775 H 354.265 -4.20787 0.227289 0
M  V30 3776 H 352.989 -3.22269 -0.530123 0
M  V30 3777 H 351.648 -3.2979 1.60106 0
M  V30 3778 H 351.296 -5.02709 -0.171173 0
M  V30 3779 H 350.996 -5.69338 1.45353 0
M  V30 3780 H 352.52 -6.07612 0.603282 0
M  V30 3781 H 353.934 -5.08524 2.64719 0
M  V30 3782 H 352.331 -4.92913 3.42282 0
M  V30 3783 H 353.401 -3.51819 3.33693 0
M  V30 3784 N 354.744 -0.972509 -1.24016 0
M  V30 3785 C 355.691 -0.505969 -2.25186 0
M  V30 3786 C 356.661 0.451009 -1.5986 0
M  V30 3787 O 357.846 0.360307 -1.87367 0
M  V30 3788 C 354.986 0.193089 -3.44559 0
M  V30 3789 C 354.099 -0.803222 -4.24467 0
M  V30 3790 C 353.234 -0.0797793 -5.3114 0
M  V30 3791 C 352.273 -1.06583 -6.02749 0
M  V30 3792 N 351.41 -0.372074 -7.01113 0
M  V30 3793 H 356.25 -1.37351 -2.64459 0
M  V30 3794 H 353.787 -0.688419 -1.29997 0
M  V30 3795 H 355.745 0.615125 -4.1264 0
M  V30 3796 H 354.375 1.02455 -3.06109 0
M  V30 3797 H 353.427 -1.34368 -3.55878 0
M  V30 3798 H 354.739 -1.55494 -4.73944 0
M  V30 3799 H 353.893 0.400015 -6.0538 0
M  V30 3800 H 352.632 0.704597 -4.82583 0
M  V30 3801 H 351.637 -1.55645 -5.27309 0
M  V30 3802 H 352.862 -1.85074 -6.53395 0
M  V30 3803 H 350.808 0.393238 -6.5482 0
M  V30 3804 H 350.725 -1.06258 -7.48495 0
M  V30 3805 H 351.993 0.0855932 -7.79453 0
M  V30 3806 N 356.222 1.38976 -0.743202 0
M  V30 3807 C 357.633 1.83123 -0.363732 0
M  V30 3808 C 357.984 1.6205 1.10609 0
M  V30 3809 O 357.109 1.11606 1.854 0
M  V30 3810 C 357.704 3.32439 -0.653408 0
M  V30 3811 C 356.263 3.74974 -0.327338 0
M  V30 3812 C 355.41 2.61878 -0.911875 0
M  V30 3813 H 358.361 1.27852 -0.940191 0
M  V30 3814 H 358.382 3.80432 0.0720031 0
M  V30 3815 H 357.894 3.47745 -1.72323 0
M  V30 3816 H 355.995 3.65252 0.736314 0
M  V30 3817 H 356.108 4.72106 -0.815631 0
M  V30 3818 H 354.472 2.52448 -0.337944 0
M  V30 3819 H 355.255 2.79987 -1.98651 0
M  V30 3820 O 357.739 0.63318 1.4857 0
M  V30 3821 H 358.43 0.152617 1.93098 0
M  V30 END ATOM
M  V30 BEGIN BOND
M  V30 END BOND
M  V30 END CTAB
M  END
$$$$
