drugbank_target|Q9BVJ7 Dual specificity protein phosphatase 23 (DB04214)
 OpenBabel12092120403D

  0  0  0     0  0            999 V3000
M  V30 BEGIN CTAB
M  V30 COUNTS 2342 2372 0 0 0
M  V30 BEGIN ATOM
M  V30 1 H -0.908 1.98254 -0.117106 0
M  V30 2 N 0 1.576 0 0
M  V30 3 C 0.933 2.03868 1.02534 0
M  V30 4 C 1.911 0.928543 1.3348 0
M  V30 5 O 3.095 1.19667 1.45644 0
M  V30 6 C 0.222 2.43627 2.35294 0
M  V30 7 C -0.732 3.65373 2.2001 0
M  V30 8 S 0.101 5.13292 1.52614 0
M  V30 9 C 1.257 5.56322 2.86805 0
M  V30 10 H 1.49 2.90518 0.631377 0
M  V30 11 H -0.977 1.52953 0.210867 0
M  V30 12 H 0.981 2.67203 3.11629 0
M  V30 13 H -0.358 1.57376 2.7183 0
M  V30 14 H -1.165 3.90944 3.18086 0
M  V30 15 H -1.563 3.418 1.51819 0
M  V30 16 H 0.729 5.58782 3.83104 0
M  V30 17 H 1.672 6.56266 2.65933 0
M  V30 18 H 2.08 4.83886 2.90714 0
M  V30 19 N 1.4781 -0.272755 1.55222 0
M  V30 20 C 2.7261 -1.00234 1.75492 0
M  V30 21 C 3.0471 -1.8681 0.5592 0
M  V30 22 O 2.3171 -1.91215 -0.425882 0
M  V30 23 H 0.8971 -0.373076 0.647166 0
M  V30 24 H 3.5591 -0.296926 1.92625 0
M  V30 25 H 2.6551 -1.63913 2.65592 0
M  V30 26 N 2.9562 -1.48159 -0.537278 0
M  V30 27 C 4.2022 -1.56035 -1.29541 0
M  V30 28 C 4.5352 -0.230377 -1.92829 0
M  V30 29 O 3.8102 0.762952 -1.78911 0
M  V30 30 C 4.0932 -2.69323 -2.39034 0
M  V30 31 C 3.9462 -4.12002 -1.80485 0
M  V30 32 C 5.2652 -2.78408 -3.40847 0
M  V30 33 H 2.3842 -0.567992 -0.469632 0
M  V30 34 H 5.0262 -1.80302 -0.599277 0
M  V30 35 H 3.1762 -2.48763 -2.98412 0
M  V30 36 H 4.8482 -4.43981 -1.25215 0
M  V30 37 H 3.0912 -4.19344 -1.11055 0
M  V30 38 H 3.7622 -4.87077 -2.59731 0
M  V30 39 H 6.2382 -2.97012 -2.91416 0
M  V30 40 H 5.1142 -3.59416 -4.14863 0
M  V30 41 H 5.3752 -1.86269 -4.00944 0
M  V30 42 N 4.4343 0.785586 -1.36625 0
M  V30 43 C 5.3663 1.90711 -1.2713 0
M  V30 44 C 6.3793 1.61688 -0.189986 0
M  V30 45 O 7.5683 1.72864 -0.445014 0
M  V30 46 C 4.6683 3.25611 -0.939713 0
M  V30 47 C 3.8413 3.82385 -2.12369 0
M  V30 48 C 2.9003 4.95732 -1.76456 0
M  V30 49 O 1.9263 5.12047 -2.48589 0
M  V30 50 N 3.1283 5.76258 -0.700492 0
M  V30 51 H 5.8933 1.99376 -2.23762 0
M  V30 52 H 3.4543 0.964041 -1.30069 0
M  V30 53 H 5.4463 3.98937 -0.680554 0
M  V30 54 H 4.0163 3.12538 -0.0624074 0
M  V30 55 H 3.2363 3.01001 -2.54543 0
M  V30 56 H 4.5243 4.17047 -2.9146 0
M  V30 57 H 3.9223 5.65609 -0.101624 0
M  V30 58 H 2.4793 6.4987 -0.501165 0
M  V30 59 N 5.9124 1.20967 1.01018 0
M  V30 60 C 7.3234 1.02319 1.56165 0
M  V30 61 C 7.6744 -0.418546 1.91684 0
M  V30 62 O 6.7994 -1.30096 1.72928 0
M  V30 63 C 7.3944 1.85109 2.8376 0
M  V30 64 C 5.9534 1.70809 3.35412 0
M  V30 65 C 5.1004 1.82643 2.08655 0
M  V30 66 H 8.0514 1.35065 0.833255 0
M  V30 67 H 8.0724 1.35827 3.55431 0
M  V30 68 H 7.5844 2.90035 2.57878 0
M  V30 69 H 5.6854 0.685464 3.66241 0
M  V30 70 H 5.7984 2.52467 4.07182 0
M  V30 71 H 4.1624 1.25896 2.21409 0
M  V30 72 H 4.9454 2.89066 1.85191 0
M  V30 73 N 7.3905 -1.2043 1.01659 0
M  V30 74 C 8.8015 -1.71517 0.737482 0
M  V30 75 C 9.1525 -1.81547 -0.743973 0
M  V30 76 O 8.2775 -1.47803 -1.58061 0
M  V30 77 C 8.8725 -3.11515 1.33206 0
M  V30 78 C 7.4315 -3.59912 1.10183 0
M  V30 79 C 6.5785 -2.37116 1.43776 0
M  V30 80 H 9.5295 -1.05444 1.18606 0
M  V30 81 H 9.5505 -3.73575 0.722636 0
M  V30 82 H 9.0625 -3.04182 2.41028 0
M  V30 83 H 7.1635 -3.72577 0.0412756 0
M  V30 84 H 7.2765 -4.44731 1.78188 0
M  V30 85 H 5.6405 -2.39857 0.856778 0
M  V30 86 H 6.4235 -2.32424 2.52654 0
M  V30 87 N 8.8686 -0.792821 -1.36206 0
M  V30 88 C 9.8166 -0.181555 -2.3189 0
M  V30 89 C 10.8106 0.661025 -1.55971 0
M  V30 90 O 12.0166 0.555728 -1.71206 0
M  V30 91 H 8.3916 -0.0399382 -0.750939 0
M  V30 92 H 10.3626 -1.00394 -2.81005 0
M  V30 93 C 9.1116 0.666444 -3.41253 0
M  V30 94 H 8.4346 0.0274489 -3.99791 0
M  V30 95 H 9.8746 1.06076 -4.10517 0
M  V30 96 C 8.3336 1.82614 -2.83114 0
M  V30 97 O 8.8636 2.9229 -2.75553 0
M  V30 98 N 7.0696 1.63333 -2.40356 0
M  V30 99 H 6.6166 0.741217 -2.46706 0
M  V30 100 H 6.5746 2.41087 -2.01803 0
M  V30 101 N 10.3467 1.47872 -0.545128 0
M  V30 102 C 11.5937 2.02493 -0.0165858 0
M  V30 103 C 11.9217 1.42073 1.32836 0
M  V30 104 O 11.1767 0.561459 1.87473 0
M  V30 105 C 11.4757 3.57131 0.13867 0
M  V30 106 C 11.1417 4.36411 -1.13384 0
M  V30 107 C 9.8037 4.57792 -1.48256 0
M  V30 108 C 12.1557 4.82223 -1.97764 0
M  V30 109 C 9.4837 5.22233 -2.67376 0
M  V30 110 C 11.8357 5.47977 -3.16076 0
M  V30 111 C 10.4997 5.67593 -3.51275 0
M  V30 112 H 9.7697 0.740975 -0.00606918 0
M  V30 113 H 12.4167 1.77683 -0.714207 0
M  V30 114 H 10.7217 3.80865 0.919172 0
M  V30 115 H 12.4187 3.97031 0.562782 0
M  V30 116 H 9.0087 4.2004 -0.852297 0
M  V30 117 H 13.1927 4.65493 -1.72132 0
M  V30 118 H 8.4487 5.35616 -2.94831 0
M  V30 119 H 12.6227 5.8244 -3.81755 0
M  V30 120 H 10.2497 6.17298 -4.43675 0
M  V30 121 N 11.8248 0.280983 1.55075 0
M  V30 122 C 13.0498 -0.340154 2.04592 0
M  V30 123 C 13.4748 -1.48246 1.15779 0
M  V30 124 O 12.8328 -1.80614 0.15761 0
M  V30 125 C 12.8808 -0.793104 3.5177 0
M  V30 126 O 11.9848 -1.89981 3.66034 0
M  V30 127 H 11.3258 -0.0694289 0.66036 0
M  V30 128 H 13.8558 0.416993 2.00306 0
M  V30 129 H 13.8658 -1.08729 3.93245 0
M  V30 130 H 12.5408 0.0426163 4.15878 0
M  V30 131 H 11.1178 -1.60771 3.36463 0
M  V30 132 N 13.3029 -1.57598 0.00835791 0
M  V30 133 C 14.5489 -1.92046 -0.670055 0
M  V30 134 C 14.9039 -0.88351 -1.70915 0
M  V30 135 O 14.1969 0.103223 -1.91322 0
M  V30 136 C 14.3909 -3.3101 -1.34787 0
M  V30 137 C 14.2199 -4.48126 -0.375945 0
M  V30 138 C 12.9899 -5.05297 0.0166914 0
M  V30 139 C 15.1879 -5.1303 0.361272 0
M  V30 140 N 13.1699 -6.05931 0.985952 0
M  V30 141 C 14.5409 -6.08571 1.18495 0
M  V30 142 C 16.5959 -4.9609 0.42421 0
M  V30 143 C 15.2989 -6.88996 2.06584 0
M  V30 144 C 17.3249 -5.77107 1.29236 0
M  V30 145 C 16.6869 -6.72248 2.10386 0
M  V30 146 H 12.7859 -0.75096 -0.218136 0
M  V30 147 H 15.3699 -1.94572 0.0706669 0
M  V30 148 H 13.5409 -3.29342 -2.05884 0
M  V30 149 H 15.2729 -3.52864 -1.98164 0
M  V30 150 H 12.0279 -4.72279 -0.353435 0
M  V30 151 H 12.4519 -6.60932 1.4662 0
M  V30 152 H 17.0939 -4.22378 -0.188915 0
M  V30 153 H 14.8119 -7.62028 2.6896 0
M  V30 154 H 18.3979 -5.66038 1.34508 0
M  V30 155 H 17.2779 -7.33846 2.76476 0
M  V30 156 N 14.781 0.264519 -1.55364 0
M  V30 157 C 16.027 0.99646 -1.76631 0
M  V30 158 C 16.36 1.85632 -0.570478 0
M  V30 159 O 15.635 1.89647 0.43175 0
M  V30 160 C 15.918 1.87187 -3.07625 0
M  V30 161 C 15.771 1.04138 -4.37579 0
M  V30 162 C 17.09 2.85749 -3.34717 0
M  V30 163 H 14.209 0.360841 -0.642622 0
M  V30 164 H 16.851 0.268218 -1.88097 0
M  V30 165 H 15.001 2.49279 -2.9798 0
M  V30 166 H 16.673 0.440517 -4.59192 0
M  V30 167 H 14.916 0.345115 -4.32425 0
M  V30 168 H 15.587 1.68729 -5.2558 0
M  V30 169 H 18.063 2.33793 -3.4421 0
M  V30 170 H 16.939 3.44136 -4.27623 0
M  V30 171 H 17.2 3.61311 -2.54768 0
M  V30 172 N 16.2591 1.48442 0.529413 0
M  V30 173 C 17.1891 1.65902 1.64313 0
M  V30 174 C 18.1701 0.507897 1.6234 0
M  V30 175 O 19.3551 0.740503 1.79528 0
M  V30 176 C 16.4851 1.69911 3.02898 0
M  V30 177 C 15.4391 2.8453 3.19729 0
M  V30 178 C 14.7651 2.73629 4.59381 0
M  V30 179 C 16.0651 4.25821 3.02447 0
M  V30 180 H 17.7591 2.5914 1.49955 0
M  V30 181 H 15.3051 1.24709 0.719982 0
M  V30 182 H 17.2581 1.80715 3.80684 0
M  V30 183 H 15.9821 0.732524 3.18279 0
M  V30 184 H 14.6411 2.73283 2.44361 0
M  V30 185 H 14.2891 1.74938 4.71599 0
M  V30 186 H 13.9891 3.50541 4.71588 0
M  V30 187 H 15.5131 2.86401 5.39265 0
M  V30 188 H 16.9271 4.37898 3.70024 0
M  V30 189 H 15.3241 5.03735 3.26146 0
M  V30 190 H 16.3941 4.42244 1.98867 0
M  V30 191 N 17.7372 -0.778329 1.37039 0
M  V30 192 C 19.1482 -1.35421 1.28523 0
M  V30 193 C 19.4992 -1.96075 -0.0700901 0
M  V30 194 O 18.6242 -1.93352 -0.971801 0
M  V30 195 C 19.2192 -2.46211 2.32735 0
M  V30 196 C 17.7782 -2.99585 2.27873 0
M  V30 197 C 16.9252 -1.72748 2.16918 0
M  V30 198 H 19.8762 -0.5791 1.47757 0
M  V30 199 H 19.8972 -3.2552 1.9702 0
M  V30 200 H 19.4092 -2.02036 3.31365 0
M  V30 201 H 17.5102 -3.48152 1.32745 0
M  V30 202 H 17.6232 -3.55646 3.21018 0
M  V30 203 H 15.9872 -1.95416 1.63354 0
M  V30 204 H 16.7702 -1.30686 3.17452 0
M  V30 205 N 19.2153 -1.21501 -1.00376 0
M  V30 206 C 20.4633 -1.03095 -1.73827 0
M  V30 207 C 20.7843 0.436341 -1.90055 0
M  V30 208 O 20.0543 1.31466 -1.45236 0
M  V30 209 H 18.6343 -0.378487 -0.644016 0
M  V30 210 H 21.2963 -1.52831 -1.20949 0
M  V30 211 H 20.3923 -1.49991 -2.73695 0
M  V30 212 N 20.6934 1.19889 -1.02296 0
M  V30 213 C 22.1094 1.41462 -0.738954 0
M  V30 214 C 22.3094 1.89721 0.678846 0
M  V30 215 O 21.3654 2.07016 1.4457 0
M  V30 216 C 22.6784 2.43083 -1.77005 0
M  V30 217 C 24.2264 2.5684 -1.78892 0
M  V30 218 C 24.7014 3.61709 -2.80945 0
M  V30 219 N 26.1924 3.69199 -2.79725 0
M  V30 220 C 26.9274 4.50019 -3.55345 0
M  V30 221 N 26.4234 5.34592 -4.40662 0
M  V30 222 N 28.2164 4.44612 -3.43914 0
M  V30 223 H 20.3674 0.868827 -1.93817 0
M  V30 224 H 22.6304 0.44399 -0.837602 0
M  V30 225 H 22.3364 2.14636 -2.78612 0
M  V30 226 H 22.2104 3.4217 -1.58744 0
M  V30 227 H 24.5974 2.84614 -0.779674 0
M  V30 228 H 24.6784 1.57927 -2.01228 0
M  V30 229 H 24.3224 3.34678 -3.82038 0
M  V30 230 H 24.2524 4.60259 -2.5587 0
M  V30 231 H 26.7434 3.08794 -2.17842 0
M  V30 232 H 27.0564 5.93363 -4.95116 0
M  V30 233 H 25.4014 5.34073 -4.44737 0
M  V30 234 H 28.5924 3.7758 -2.76679 0
M  V30 235 H 28.7654 5.0736 -4.031 0
M  V30 236 N 22.1715 0.800033 1.35784 0
M  V30 237 C 23.1015 0.220184 2.3246 0
M  V30 238 C 24.0825 -0.65073 1.57161 0
M  V30 239 O 25.2675 -0.582359 1.85263 0
M  V30 240 C 22.3975 -0.637353 3.41402 0
M  V30 241 C 21.3515 0.134531 4.27789 0
M  V30 242 C 20.6775 -0.844285 5.27992 0
M  V30 243 C 21.9775 1.32979 5.05088 0
M  V30 244 H 23.6715 1.02787 2.81203 0
M  V30 245 H 21.2175 0.495717 1.35199 0
M  V30 246 H 23.1705 -1.05302 4.08031 0
M  V30 247 H 21.8945 -1.47785 2.91251 0
M  V30 248 H 20.5535 0.531296 3.6273 0
M  V30 249 H 20.2015 -1.68011 4.74111 0
M  V30 250 H 19.9015 -0.332184 5.8666 0
M  V30 251 H 21.4255 -1.2583 5.97494 0
M  V30 252 H 22.8395 0.98934 5.64699 0
M  V30 253 H 21.2365 1.77593 5.7322 0
M  V30 254 H 22.3065 2.11978 4.36111 0
M  V30 255 N 23.6496 -1.47581 0.552962 0
M  V30 256 C 24.6126 -2.28439 -0.186605 0
M  V30 257 C 25.6126 -1.36706 -0.84665 0
M  V30 258 O 26.8026 -1.59378 -0.703164 0
M  V30 259 C 23.9346 -3.16264 -1.2724 0
M  V30 260 H 25.1276 -2.95294 0.523609 0
M  V30 261 H 22.6806 -1.532 0.309745 0
M  V30 262 H 23.4156 -2.54091 -2.01514 0
M  V30 263 H 23.2006 -3.83769 -0.803968 0
M  V30 264 H 24.6906 -3.77198 -1.79196 0
M  V30 265 N 25.1277 -0.289203 -1.54924 0
M  V30 266 C 26.3757 0.322879 -1.99504 0
M  V30 267 C 26.6967 1.55313 -1.1791 0
M  V30 268 O 25.9667 1.94001 -0.272097 0
M  V30 269 H 24.5467 0.122291 -0.736922 0
M  V30 270 H 27.2087 -0.397802 -1.90797 0
M  V30 271 H 26.3047 0.603061 -3.06218 0
M  V30 272 N 26.6058 1.57591 -0.0167156 0
M  V30 273 C 27.5358 2.12496 0.967858 0
M  V30 274 C 28.5168 1.03807 1.34752 0
M  V30 275 O 29.7018 1.31577 1.42833 0
M  V30 276 C 26.8318 2.64194 2.25431 0
M  V30 277 C 25.7858 3.77559 2.01576 0
M  V30 278 C 25.1118 4.15636 3.36379 0
M  V30 279 C 26.4118 5.04151 1.36489 0
M  V30 280 H 28.1058 2.95013 0.510643 0
M  V30 281 H 25.6518 1.41915 0.244181 0
M  V30 282 H 27.6048 3.01236 2.94678 0
M  V30 283 H 26.3288 1.78821 2.73296 0
M  V30 284 H 24.9878 3.40937 1.34751 0
M  V30 285 H 24.6358 3.27263 3.81979 0
M  V30 286 H 24.3358 4.92022 3.21229 0
M  V30 287 H 25.8598 4.5525 4.06915 0
M  V30 288 H 27.2738 5.38857 1.95718 0
M  V30 289 H 25.6708 5.85453 1.31776 0
M  V30 290 H 26.7408 4.83733 0.336219 0
M  V30 291 N 28.0839 -0.256276 1.55502 0
M  V30 292 C 29.0469 -1.30047 1.88734 0
M  V30 293 C 30.0469 -1.4154 0.763086 0
M  V30 294 O 31.2369 -1.40403 1.03115 0
M  V30 295 C 28.3689 -2.67953 2.10747 0
M  V30 296 H 29.5619 -1.01802 2.82093 0
M  V30 297 H 27.1149 -0.495134 1.4825 0
M  V30 298 H 27.8499 -3.01351 1.19825 0
M  V30 299 H 27.6349 -2.60993 2.92617 0
M  V30 300 H 29.1249 -3.43368 2.37673 0
M  V30 301 N 29.562 -1.4872 -0.521534 0
M  V30 302 C 30.492 -1.66771 -1.63431 0
M  V30 303 C 31.473 -0.516499 -1.62069 0
M  V30 304 O 32.658 -0.750013 -1.79132 0
M  V30 305 C 29.788 -1.71515 -3.01993 0
M  V30 306 C 28.742 -2.86222 -3.18216 0
M  V30 307 C 28.068 -2.76061 -4.57924 0
M  V30 308 C 29.368 -4.27419 -3.00184 0
M  V30 309 H 31.062 -2.59932 -1.48579 0
M  V30 310 H 28.608 -1.25089 -0.713358 0
M  V30 311 H 30.561 -1.82731 -3.7972 0
M  V30 312 H 29.285 -0.749393 -3.17886 0
M  V30 313 H 27.944 -2.74575 -2.42908 0
M  V30 314 H 27.592 -1.77437 -4.70665 0
M  V30 315 H 27.292 -3.53037 -4.69722 0
M  V30 316 H 28.816 -2.89256 -5.37739 0
M  V30 317 H 30.23 -4.39855 -3.67697 0
M  V30 318 H 28.627 -5.05458 -3.2347 0
M  V30 319 H 29.697 -4.43293 -1.96518 0
M  V30 320 N 31.0401 0.771051 -1.3745 0
M  V30 321 C 32.4511 1.34737 -1.29239 0
M  V30 322 C 32.8021 1.96109 0.0596908 0
M  V30 323 O 31.9271 1.93865 0.961534 0
M  V30 324 C 32.5221 2.44973 -2.34037 0
M  V30 325 C 31.0811 2.98372 -2.29458 0
M  V30 326 C 30.2281 1.71595 -2.17831 0
M  V30 327 H 33.1791 0.571256 -1.48062 0
M  V30 328 H 33.2001 3.24471 -1.98744 0
M  V30 329 H 32.7121 2.00276 -3.32432 0
M  V30 330 H 30.8131 3.47443 -1.34589 0
M  V30 331 H 30.9261 3.53939 -3.229 0
M  V30 332 H 29.2901 1.94547 -1.64388 0
M  V30 333 H 30.0731 1.29001 -3.18141 0
M  V30 334 N 32.5182 1.22032 0.997298 0
M  V30 335 C 33.9342 0.979326 1.26021 0
M  V30 336 C 34.1342 -0.32972 1.98784 0
M  V30 337 O 33.1902 -1.05345 2.29475 0
M  V30 338 C 34.5032 2.17509 2.07631 0
M  V30 339 C 36.0512 2.21817 2.2083 0
M  V30 340 C 36.5262 3.40933 3.05825 0
M  V30 341 N 38.0172 3.41067 3.13412 0
M  V30 342 C 38.7522 4.29885 3.79455 0
M  V30 343 N 38.2482 5.28914 4.47462 0
M  V30 344 N 40.0412 4.17673 3.76173 0
M  V30 345 H 32.1922 2.06202 0.509352 0
M  V30 346 H 34.4552 0.90334 0.287541 0
M  V30 347 H 34.1612 3.12415 1.61524 0
M  V30 348 H 34.0352 2.17206 3.08385 0
M  V30 349 H 36.4222 1.27462 2.66153 0
M  V30 350 H 36.5032 2.2616 1.1952 0
M  V30 351 H 36.1472 4.35586 2.61203 0
M  V30 352 H 36.0772 3.33829 4.07266 0
M  V30 353 H 38.5682 2.69406 2.65007 0
M  V30 354 H 38.8812 5.92973 4.95583 0
M  V30 355 H 37.2262 5.32831 4.46224 0
M  V30 356 H 40.4172 3.39564 3.22202 0
M  V30 357 H 40.5902 4.87098 4.27363 0
M  V30 358 N 33.9963 -1.19345 1.0293 0
M  V30 359 C 34.9263 -2.2481 0.631105 0
M  V30 360 C 35.9073 -1.66245 -0.360104 0
M  V30 361 O 37.0923 -1.92677 -0.242726 0
M  V30 362 C 34.2223 -3.47295 -0.0184607 0
M  V30 363 C 33.1763 -4.18536 0.895073 0
M  V30 364 C 32.5023 -5.34586 0.110592 0
M  V30 365 C 33.8023 -4.73287 2.209 0
M  V30 366 H 35.4963 -2.58372 1.51275 0
M  V30 367 H 33.0423 -1.24194 0.728818 0
M  V30 368 H 34.9953 -4.20268 -0.308675 0
M  V30 369 H 33.7193 -3.12933 -0.934907 0
M  V30 370 H 32.3783 -3.47446 1.16949 0
M  V30 371 H 32.0263 -4.96469 -0.807902 0
M  V30 372 H 31.7263 -5.83183 0.719087 0
M  V30 373 H 33.2503 -6.10355 -0.172871 0
M  V30 374 H 34.6643 -5.38013 1.98028 0
M  V30 375 H 33.0613 -5.32373 2.76946 0
M  V30 376 H 34.1313 -3.91331 2.86336 0
M  V30 377 N 35.4744 -0.807222 -1.35358 0
M  V30 378 C 36.8854 -0.44876 -1.81226 0
M  V30 379 C 37.2364 1.02929 -1.67033 0
M  V30 380 O 36.3614 1.79991 -1.20133 0
M  V30 381 C 36.9564 -0.807774 -3.2903 0
M  V30 382 C 35.5154 -0.501901 -3.73039 0
M  V30 383 C 34.6624 -1.03304 -2.57339 0
M  V30 384 H 37.6134 -0.998808 -1.23327 0
M  V30 385 H 37.6344 -0.10554 -3.80354 0
M  V30 386 H 37.1464 -1.88357 -3.39328 0
M  V30 387 H 35.2474 0.565128 -3.68289 0
M  V30 388 H 35.3604 -1.03497 -4.67787 0
M  V30 389 H 33.7244 -0.455339 -2.50597 0
M  V30 390 H 34.5074 -2.11496 -2.70415 0
M  V30 391 N 36.9525 1.47285 -0.560781 0
M  V30 392 C 37.9155 2.28535 0.174488 0
M  V30 393 C 38.9155 1.37153 0.839388 0
M  V30 394 O 40.1055 1.59748 0.694702 0
M  V30 395 C 37.2375 3.16934 1.25561 0
M  V30 396 H 38.4305 2.95012 -0.539262 0
M  V30 397 H 35.9835 1.53034 -0.317865 0
M  V30 398 H 36.7185 2.55157 2.00164 0
M  V30 399 H 36.5035 3.8419 0.783604 0
M  V30 400 H 37.9935 3.78143 1.77193 0
M  V30 401 N 38.4306 0.297415 1.54768 0
M  V30 402 C 39.3806 -0.595275 2.20092 0
M  V30 403 C 40.3646 -1.10163 1.17273 0
M  V30 404 O 41.5566 -1.043 1.43006 0
M  V30 405 C 38.6856 -1.7684 2.94249 0
M  V30 406 C 37.7716 -1.27818 4.0438 0
M  V30 407 N 38.1626 -0.505695 5.03266 0
M  V30 408 C 36.4606 -1.55923 4.17857 0
M  V30 409 C 37.1616 -0.245094 5.81183 0
M  V30 410 N 36.1376 -0.823881 5.3732 0
M  V30 411 H 39.9396 0.00250837 2.939 0
M  V30 412 H 37.4536 0.102007 1.62079 0
M  V30 413 H 39.4506 -2.41944 3.39513 0
M  V30 414 H 38.1106 -2.36992 2.21957 0
M  V30 415 H 39.1216 -0.150928 5.1768 0
M  V30 416 H 35.7986 -2.16849 3.56767 0
M  V30 417 H 37.1886 0.375084 6.70852 0
M  V30 418 N 39.9087 -1.5758 0.0250728 0
M  V30 419 C 41.1387 -1.95646 -0.663783 0
M  V30 420 C 41.5467 -0.899935 -1.66427 0
M  V30 421 O 40.8897 0.127191 -1.83259 0
M  V30 422 C 40.9517 -3.29835 -1.43 0
M  V30 423 C 40.6157 -4.53197 -0.588305 0
M  V30 424 C 41.6127 -5.19726 0.13469 0
M  V30 425 C 39.2977 -4.99529 -0.526897 0
M  V30 426 C 41.2917 -6.30902 0.90781 0
M  V30 427 C 38.9787 -6.10589 0.24993 0
M  V30 428 C 39.9767 -6.76134 0.965994 0
M  V30 429 O 39.6647 -7.85062 1.7301 0
M  V30 430 H 39.3967 -0.649282 -0.188174 0
M  V30 431 H 41.9507 -2.05245 0.0799006 0
M  V30 432 H 40.1807 -3.16716 -2.21873 0
M  V30 433 H 41.8697 -3.52833 -2.00658 0
M  V30 434 H 42.6357 -4.84904 0.0965562 0
M  V30 435 H 38.5147 -4.48319 -1.07381 0
M  V30 436 H 42.0587 -6.81995 1.46724 0
M  V30 437 H 37.9557 -6.44849 0.289795 0
M  V30 438 H 38.7237 -8.01708 1.64944 0
M  V30 439 N 41.3868 0.248026 -1.55636 0
M  V30 440 C 42.3188 1.32993 -1.8667 0
M  V30 441 C 43.3318 1.44345 -0.752877 0
M  V30 442 O 44.5208 1.45715 -1.03098 0
M  V30 443 C 41.6208 2.70863 -2.03682 0
M  V30 444 C 40.7938 2.81792 -3.34532 0
M  V30 445 C 39.8528 4.005 -3.41301 0
M  V30 446 O 38.8788 3.9008 -4.14519 0
M  V30 447 N 40.0808 5.13618 -2.70512 0
M  V30 448 H 42.8458 1.06707 -2.8006 0
M  V30 449 H 40.4068 0.438129 -1.55859 0
M  V30 450 H 42.3988 3.48612 -2.05553 0
M  V30 451 H 40.9688 2.89862 -1.17041 0
M  V30 452 H 40.1888 1.90729 -3.44987 0
M  V30 453 H 41.4768 2.86043 -4.20781 0
M  V30 454 H 40.8748 5.24975 -2.10755 0
M  V30 455 H 39.4318 5.89505 -2.78077 0
M  V30 456 N 42.8649 1.48995 0.513639 0
M  V30 457 C 44.1119 1.57843 1.26854 0
M  V30 458 C 44.4399 0.259501 1.92761 0
M  V30 459 O 43.6949 -0.75159 1.80692 0
M  V30 460 C 43.9939 2.67756 2.36731 0
M  V30 461 C 43.6599 4.09669 1.88368 0
M  V30 462 C 42.3219 4.48291 1.74896 0
M  V30 463 C 44.6739 4.98537 1.52021 0
M  V30 464 C 42.0019 5.73568 1.23438 0
M  V30 465 C 44.3539 6.24319 1.0202 0
M  V30 466 C 43.0179 6.61783 0.871778 0
M  V30 467 H 42.2879 0.577587 0.464192 0
M  V30 468 H 44.9349 1.82778 0.571366 0
M  V30 469 H 43.2399 2.36743 3.12185 0
M  V30 470 H 44.9369 2.71813 2.9482 0
M  V30 471 H 41.5269 3.79176 1.99808 0
M  V30 472 H 45.7109 4.69363 1.61281 0
M  V30 473 H 40.9669 6.01304 1.10648 0
M  V30 474 H 45.1409 6.92566 0.729722 0
M  V30 475 H 42.7679 7.5874 0.470852 0
M  V30 476 N 44.343 -0.763751 1.37857 0
M  V30 477 C 45.273 -1.89103 1.36975 0
M  V30 478 C 46.254 -1.68439 0.237152 0
M  V30 479 O 47.439 -1.8918 0.438713 0
M  V30 480 C 44.569 -3.26496 1.18395 0
M  V30 481 C 43.523 -3.61741 2.28751 0
M  V30 482 C 42.849 -4.97762 1.95286 0
M  V30 483 C 44.149 -3.67665 3.70972 0
M  V30 484 H 45.843 -1.90099 2.31307 0
M  V30 485 H 43.389 -0.91319 1.11341 0
M  V30 486 H 45.342 -4.05003 1.16406 0
M  V30 487 H 44.066 -3.25955 0.205215 0
M  V30 488 H 42.725 -2.85547 2.29909 0
M  V30 489 H 42.373 -4.93769 0.959221 0
M  V30 490 H 42.073 -5.22313 2.69189 0
M  V30 491 H 43.597 -5.7866 1.94898 0
M  V30 492 H 45.011 -4.36307 3.719 0
M  V30 493 H 43.408 -4.03718 4.43995 0
M  V30 494 H 44.478 -2.68134 4.0402 0
M  V30 495 N 45.8211 -1.22559 -0.990812 0
M  V30 496 C 46.7511 -1.0218 -2.09956 0
M  V30 497 C 47.7321 0.0579394 -1.70001 0
M  V30 498 O 48.9171 -0.104684 -1.93918 0
M  V30 499 C 46.0471 -0.601023 -3.4206 0
M  V30 500 C 45.0011 -1.62694 -3.95872 0
M  V30 501 C 44.3271 -1.06193 -5.24049 0
M  V30 502 C 45.6271 -3.01743 -4.2632 0
M  V30 503 H 47.3211 -1.94916 -2.27262 0
M  V30 504 H 44.8671 -0.938566 -1.09211 0
M  V30 505 H 46.8201 -0.445561 -4.19038 0
M  V30 506 H 45.5441 0.362005 -3.24588 0
M  V30 507 H 44.2031 -1.77021 -3.21028 0
M  V30 508 H 43.8511 -0.0901903 -5.02919 0
M  V30 509 H 43.5511 -1.74732 -5.61019 0
M  V30 510 H 45.0751 -0.918092 -6.03658 0
M  V30 511 H 46.4891 -2.90777 -4.94087 0
M  V30 512 H 44.8861 -3.67425 -4.74467 0
M  V30 513 H 45.9561 -3.51518 -3.34011 0
M  V30 514 N 47.2992 1.18797 -1.03562 0
M  V30 515 C 48.5762 1.84469 -0.650434 0
M  V30 516 C 48.9562 1.92319 0.870433 0
M  V30 517 O 48.3042 1.44528 1.76986 0
M  V30 518 C 48.5142 3.2306 -1.32036 0
M  V30 519 C 49.8622 3.9915 -1.44792 0
M  V30 520 O 50.8862 3.32481 -1.27806 0
M  V30 521 O 49.7452 5.18587 -1.72423 0
M  V30 522 H 46.8392 0.795251 -0.226946 0
M  V30 523 H 49.3852 1.26231 -1.13419 0
M  V30 524 H 48.1572 3.1222 -2.3587 0
M  V30 525 H 47.7802 3.88949 -0.8249 0
M  V30 526 N 48.7773 0.814389 1.34928 0
M  V30 527 C 49.7073 0.244827 2.32213 0
M  V30 528 C 50.6883 -0.634024 1.57842 0
M  V30 529 O 51.8733 -0.562676 1.8587 0
M  V30 530 C 49.0033 -0.601106 3.42058 0
M  V30 531 C 47.9573 0.179896 4.27622 0
M  V30 532 C 47.2833 -0.788237 5.28858 0
M  V30 533 C 48.5833 1.38329 5.03649 0
M  V30 534 H 50.2773 1.05763 2.80097 0
M  V30 535 H 47.8233 0.510029 1.34665 0
M  V30 536 H 49.7763 -1.00968 4.09125 0
M  V30 537 H 48.5003 -1.44688 2.92802 0
M  V30 538 H 47.1593 0.569739 3.62146 0
M  V30 539 H 46.8073 -1.62973 4.75866 0
M  V30 540 H 46.5073 -0.269942 5.8698 0
M  V30 541 H 48.0313 -1.19485 5.98795 0
M  V30 542 H 49.4453 1.04918 5.63618 0
M  V30 543 H 47.8423 1.83662 5.71304 0
M  V30 544 H 48.9123 2.16592 4.33839 0
M  V30 545 N 50.2554 -1.46986 0.568584 0
M  V30 546 C 51.5034 -2.02041 0.0487022 0
M  V30 547 C 51.8244 -1.44408 -1.31039 0
M  V30 548 O 51.0944 -0.623477 -1.85714 0
M  V30 549 H 49.6744 -0.746849 0.015014 0
M  V30 550 H 52.3364 -1.80257 0.741168 0
M  V30 551 H 51.4324 -3.12085 -0.0308961 0
M  V30 552 N 51.7335 -0.305618 -1.54608 0
M  V30 553 C 52.9795 0.302746 -2.00528 0
M  V30 554 C 53.3125 1.53184 -1.19367 0
M  V30 555 O 52.5875 1.92598 -0.271321 0
M  V30 556 C 52.8705 0.654756 -3.54097 0
M  V30 557 C 52.7235 -0.583793 -4.45995 0
M  V30 558 C 54.0425 1.47947 -4.14487 0
M  V30 559 H 51.1615 0.108564 -0.72896 0
M  V30 560 H 53.8035 -0.418634 -1.85331 0
M  V30 561 H 51.9535 1.26935 -3.67178 0
M  V30 562 H 53.6255 -1.22224 -4.44814 0
M  V30 563 H 51.8685 -1.21615 -4.16404 0
M  V30 564 H 52.5395 -0.293287 -5.5122 0
M  V30 565 H 55.0155 0.96013 -4.04871 0
M  V30 566 H 53.8915 1.69454 -5.22088 0
M  V30 567 H 54.1525 2.47011 -3.66658 0
M  V30 568 N 53.2116 1.57565 -0.0334293 0
M  V30 569 C 54.6276 1.56297 0.322997 0
M  V30 570 C 54.8276 1.03945 1.7262 0
M  V30 571 O 53.8836 0.688109 2.42943 0
M  V30 572 C 55.1966 3.00232 0.167664 0
M  V30 573 C 56.7446 3.12078 0.240107 0
M  V30 574 C 57.2196 4.57859 0.113513 0
M  V30 575 N 58.7106 4.62887 0.170359 0
M  V30 576 C 59.4456 5.73319 0.0962517 0
M  V30 577 N 58.9416 6.92794 -0.0291881 0
M  V30 578 N 60.7346 5.61898 0.150551 0
M  V30 579 H 52.8856 1.89923 -0.950956 0
M  V30 580 H 55.1486 0.873824 -0.367608 0
M  V30 581 H 54.8546 3.42501 -0.799102 0
M  V30 582 H 54.7286 3.654 0.936083 0
M  V30 583 H 57.1156 2.69718 1.19733 0
M  V30 584 H 57.1966 2.49623 -0.558763 0
M  V30 585 H 56.8406 5.009 -0.840314 0
M  V30 586 H 56.7706 5.18299 0.931302 0
M  V30 587 H 59.2616 3.76954 0.26728 0
M  V30 588 H 59.5746 7.7276 -0.0789252 0
M  V30 589 H 57.9196 6.94971 -0.0640299 0
M  V30 590 H 61.1106 4.67448 0.246981 0
M  V30 591 H 61.2836 6.47938 0.0893365 0
M  V30 592 N 54.6897 -0.239769 1.55765 0
M  V30 593 C 55.6397 -1.30002 1.87306 0
M  V30 594 C 56.6237 -1.43156 0.73452 0
M  V30 595 O 57.8157 -1.46277 0.99659 0
M  V30 596 C 54.9447 -2.65409 2.17745 0
M  V30 597 C 54.0307 -2.56231 3.37945 0
M  V30 598 N 54.4217 -2.16689 4.57033 0
M  V30 599 C 52.7197 -2.87229 3.41197 0
M  V30 600 C 53.4207 -2.18318 5.39177 0
M  V30 601 N 52.3967 -2.58098 4.78421 0
M  V30 602 H 56.1987 -0.984912 2.76906 0
M  V30 603 H 53.7127 -0.448381 1.56087 0
M  V30 604 H 55.7097 -3.41934 2.38509 0
M  V30 605 H 54.3697 -2.97781 1.29448 0
M  V30 606 H 55.3807 -1.88116 4.82528 0
M  V30 607 H 52.0577 -3.24094 2.63191 0
M  V30 608 H 53.4477 -1.90025 6.44469 0
M  V30 609 N 56.1678 -1.49265 -0.50573 0
M  V30 610 C 57.0978 -1.68495 -1.61653 0
M  V30 611 C 58.0788 -0.53366 -1.61512 0
M  V30 612 O 59.2638 -0.76897 -1.78327 0
M  V30 613 C 56.3938 -1.74709 -3.00157 0
M  V30 614 C 55.3478 -2.89581 -3.15162 0
M  V30 615 C 54.6738 -2.80903 -4.5497 0
M  V30 616 C 55.9738 -4.30578 -2.95634 0
M  V30 617 H 57.6678 -2.61493 -1.45814 0
M  V30 618 H 55.2138 -1.25838 -0.70005 0
M  V30 619 H 57.1668 -1.86748 -3.77761 0
M  V30 620 H 55.8908 -0.783067 -3.17074 0
M  V30 621 H 54.5498 -2.77136 -2.39982 0
M  V30 622 H 54.1978 -1.82419 -4.68756 0
M  V30 623 H 53.8978 -3.57999 -4.65951 0
M  V30 624 H 55.4218 -2.94944 -5.34641 0
M  V30 625 H 56.8358 -4.4373 -3.63011 0
M  V30 626 H 55.2328 -5.0886 -3.18091 0
M  V30 627 H 56.3028 -4.45352 -1.91806 0
M  V30 628 N 57.6459 0.756429 -1.3826 0
M  V30 629 C 58.8919 1.51772 -1.34511 0
M  V30 630 C 59.2249 1.94089 0.0656691 0
M  V30 631 O 58.4999 1.65221 1.02626 0
M  V30 632 C 58.7829 2.77226 -2.29821 0
M  V30 633 C 58.6359 2.41065 -3.79747 0
M  V30 634 C 59.9549 3.79236 -2.23312 0
M  V30 635 H 57.0739 0.550578 -0.489931 0
M  V30 636 H 59.7159 0.866607 -1.69086 0
M  V30 637 H 57.8659 3.32784 -2.00467 0
M  V30 638 H 59.5379 1.91303 -4.19763 0
M  V30 639 H 57.7809 1.7356 -3.97567 0
M  V30 640 H 58.4519 3.3081 -4.41892 0
M  V30 641 H 60.9279 3.3321 -2.49219 0
M  V30 642 H 59.8039 4.64714 -2.92116 0
M  V30 643 H 60.0649 4.24615 -1.23102 0
M  V30 644 N 59.124 1.23083 0.984299 0
M  V30 645 C 60.349 1.088 1.76571 0
M  V30 646 C 60.774 -0.356657 1.84688 0
M  V30 647 O 60.132 -1.25788 1.30565 0
M  V30 648 C 60.18 1.71371 3.17277 0
M  V30 649 O 59.284 0.973213 4.00752 0
M  V30 650 H 58.625 0.381599 0.543395 0
M  V30 651 H 61.155 1.63057 1.23587 0
M  V30 652 H 61.165 1.76449 3.67872 0
M  V30 653 H 59.84 2.76493 3.10684 0
M  V30 654 H 58.417 0.999078 3.59267 0
M  V30 655 N 60.6021 -1.18246 1.0419 0
M  V30 656 C 61.5321 -2.24127 0.654914 0
M  V30 657 C 62.5131 -1.66617 -0.342451 0
M  V30 658 O 63.6981 -1.92924 -0.222277 0
M  V30 659 C 60.8281 -3.47295 0.0183757 0
M  V30 660 C 59.7821 -4.17563 0.939414 0
M  V30 661 C 59.1081 -5.34438 0.167286 0
M  V30 662 C 60.4081 -4.70917 2.25908 0
M  V30 663 H 62.1021 -2.56753 1.54007 0
M  V30 664 H 59.6481 -1.23414 0.74195 0
M  V30 665 H 61.6011 -4.20572 -0.264082 0
M  V30 666 H 60.3251 -3.13907 -0.901664 0
M  V30 667 H 58.9841 -3.46186 1.20628 0
M  V30 668 H 58.6321 -4.97298 -0.7552 0
M  V30 669 H 58.3321 -5.82388 0.780901 0
M  V30 670 H 59.8561 -6.10504 -0.108125 0
M  V30 671 H 61.2701 -5.35882 2.03724 0
M  V30 672 H 59.6671 -5.29406 2.82577 0
M  V30 673 H 60.7371 -3.88272 2.9047 0
M  V30 674 N 62.0802 -0.821533 -1.34494 0
M  V30 675 C 63.3082 -0.421884 -2.02553 0
M  V30 676 C 63.7232 0.971745 -1.61872 0
M  V30 677 O 63.0802 1.62864 -0.823496 0
M  V30 678 C 63.1312 -0.51285 -3.57844 0
M  V30 679 O 62.8522 -1.85155 -3.97051 0
M  V30 680 C 64.3532 -0.107921 -4.43169 0
M  V30 681 H 61.5732 -0.169482 -0.649243 0
M  V30 682 H 64.1172 -1.1093 -1.71798 0
M  V30 683 H 62.2722 0.126474 -3.87193 0
M  V30 684 H 62.6862 -1.82482 -4.91732 0
M  V30 685 H 64.1602 -0.222657 -5.51551 0
M  V30 686 H 64.6372 0.948401 -4.28838 0
M  V30 687 H 65.2432 -0.720989 -4.19144 0
M  V30 688 N 63.5583 1.46682 -0.576371 0
M  V30 689 C 64.4683 2.34032 0.163141 0
M  V30 690 C 65.4843 1.49367 0.892501 0
M  V30 691 O 66.6603 1.82252 0.857106 0
M  V30 692 C 63.7253 3.26435 1.16795 0
M  V30 693 C 62.7863 4.26998 0.443944 0
M  V30 694 C 62.0193 5.14986 1.40088 0
M  V30 695 O 62.2423 5.05785 2.637 0
M  V30 696 O 61.1763 5.94906 0.914917 0
M  V30 697 H 65.0023 2.98607 -0.55388 0
M  V30 698 H 62.5873 1.45554 -0.336821 0
M  V30 699 H 64.4693 3.83459 1.74748 0
M  V30 700 H 63.1443 2.64465 1.86655 0
M  V30 701 H 62.0513 3.7368 -0.177271 0
M  V30 702 H 63.3843 4.91736 -0.213566 0
M  V30 703 N 65.0364 0.313813 1.54444 0
M  V30 704 C 66.4524 -0.0391619 1.59552 0
M  V30 705 C 66.6524 -1.51322 1.33056 0
M  V30 706 O 65.7084 -2.26782 1.11022 0
M  V30 707 C 67.0214 0.370302 2.98411 0
M  V30 708 C 68.5694 0.320139 3.11358 0
M  V30 709 C 69.0444 0.704617 4.52547 0
M  V30 710 N 70.5354 0.657645 4.58508 0
M  V30 711 C 71.2704 0.927453 5.6585 0
M  V30 712 N 70.7664 1.26389 6.81174 0
M  V30 713 N 72.5594 0.853662 5.5558 0
M  V30 714 H 64.7104 1.27433 1.69925 0
M  V30 715 H 66.9734 0.517511 0.794284 0
M  V30 716 H 66.6794 1.39694 3.22767 0
M  V30 717 H 66.5534 -0.269619 3.76235 0
M  V30 718 H 68.9404 -0.697275 2.86744 0
M  V30 719 H 69.0214 0.99486 2.35661 0
M  V30 720 H 68.6654 1.7199 4.77893 0
M  V30 721 H 68.5954 0.00768843 5.26599 0
M  V30 722 H 71.0864 0.409067 3.75679 0
M  V30 723 H 71.3994 1.4554 7.58972 0
M  V30 724 H 69.7444 1.30206 6.82694 0
M  V30 725 H 72.9354 0.590383 4.64362 0
M  V30 726 H 73.1084 1.0673 6.3915 0
M  V30 727 N 66.5145 -1.57545 0.0417849 0
M  V30 728 C 67.7625 -1.91937 -0.632829 0
M  V30 729 C 68.0835 -0.919978 -1.71934 0
M  V30 730 O 67.3535 0.0366064 -1.95866 0
M  V30 731 H 65.9335 -0.708493 -0.236742 0
M  V30 732 H 68.5955 -1.9468 0.0925745 0
M  V30 733 H 67.6915 -2.92912 -1.07746 0
M  V30 734 N 67.9926 0.231505 -1.5589 0
M  V30 735 C 69.4036 0.799327 -1.68724 0
M  V30 736 C 69.7546 1.85398 -0.642022 0
M  V30 737 O 68.8796 2.1539 0.208784 0
M  V30 738 C 69.4746 1.45664 -3.05888 0
M  V30 739 C 68.0336 1.97197 -3.20609 0
M  V30 740 C 67.1806 0.828552 -2.64632 0
M  V30 741 H 70.1316 0.00702616 -1.58698 0
M  V30 742 H 70.1526 2.32517 -3.01191 0
M  V30 743 H 69.6646 0.688808 -3.81939 0
M  V30 744 H 67.7656 2.76813 -2.4941 0
M  V30 745 H 67.8786 2.15878 -4.27707 0
M  V30 746 H 66.2426 1.23321 -2.22854 0
M  V30 747 H 67.0256 0.0735544 -3.43221 0
M  V30 748 N 69.4707 1.49531 0.497807 0
M  V30 749 C 70.8817 1.52344 1.07927 0
M  V30 750 C 71.2327 0.311469 1.93712 0
M  V30 751 O 70.3577 -0.578405 2.08527 0
M  V30 752 C 70.9527 2.76062 1.96405 0
M  V30 753 C 69.5117 2.81643 2.49709 0
M  V30 754 C 68.6587 2.46299 1.27404 0
M  V30 755 H 71.6097 1.56182 0.281576 0
M  V30 756 H 71.6307 2.56405 2.81135 0
M  V30 757 H 71.1427 3.64254 1.33943 0
M  V30 758 H 69.2437 1.97739 3.15801 0
M  V30 759 H 69.3567 3.83891 2.86643 0
M  V30 760 H 67.7207 1.98148 1.60029 0
M  V30 761 H 68.5037 3.36769 0.66645 0
M  V30 762 N 70.9488 -0.749086 1.3866 0
M  V30 763 C 71.8988 -1.85368 1.32751 0
M  V30 764 C 72.8828 -1.59511 0.210945 0
M  V30 765 O 74.0748 -1.71255 0.447299 0
M  V30 766 C 71.2038 -3.23131 1.15935 0
M  V30 767 C 70.2898 -3.54864 2.32233 0
M  V30 768 N 70.6808 -3.57625 3.57684 0
M  V30 769 C 68.9788 -3.85154 2.24883 0
M  V30 770 C 69.6798 -3.86753 4.34508 0
M  V30 771 N 68.6558 -4.03812 3.63918 0
M  V30 772 H 72.4578 -1.85787 2.27729 0
M  V30 773 H 69.9718 -0.946658 1.31955 0
M  V30 774 H 71.9688 -4.02185 1.09786 0
M  V30 775 H 70.6288 -3.23961 0.218947 0
M  V30 776 H 71.6398 -3.39276 3.91295 0
M  V30 777 H 68.3168 -3.93672 1.39027 0
M  V30 778 H 69.7068 -3.95474 5.43185 0
M  V30 779 N 72.4269 -1.23603 -0.977757 0
M  V30 780 C 73.6519 -1.09735 -1.75991 0
M  V30 781 C 74.0769 0.346858 -1.84874 0
M  V30 782 O 73.4349 1.25093 -1.3123 0
M  V30 783 C 73.4829 -1.73051 -3.16363 0
M  V30 784 O 72.5869 -0.994452 -4.0023 0
M  V30 785 H 71.9279 -0.384476 -0.541364 0
M  V30 786 H 74.4579 -1.6371 -1.2272 0
M  V30 787 H 74.4679 -1.78398 -3.66931 0
M  V30 788 H 73.1429 -2.78137 -3.09213 0
M  V30 789 H 71.7199 -1.01812 -3.58732 0
M  V30 790 N 73.905 1.17692 -1.04816 0
M  V30 791 C 75.182 1.83768 -0.669963 0
M  V30 792 C 75.562 1.93232 0.849986 0
M  V30 793 O 74.91 1.46397 1.75443 0
M  V30 794 C 75.12 3.21641 -1.35455 0
M  V30 795 C 76.468 3.97592 -1.49017 0
M  V30 796 O 77.492 3.31107 -1.31326 0
M  V30 797 O 76.351 5.16729 -1.77914 0
M  V30 798 H 73.445 0.792799 -0.235368 0
M  V30 799 H 75.991 1.25021 -1.14751 0
M  V30 800 H 74.763 3.097 -2.39168 0
M  V30 801 H 74.386 3.88052 -0.866107 0
M  V30 802 N 75.3831 0.828654 1.34056 0
M  V30 803 C 76.6081 0.431637 2.02859 0
M  V30 804 C 77.0331 -0.956339 1.61975 0
M  V30 805 O 76.3911 -1.62338 0.807228 0
M  V30 806 C 76.4391 0.548323 3.56407 0
M  V30 807 O 75.5431 -0.429556 4.10157 0
M  V30 808 H 74.8841 0.176886 0.640006 0
M  V30 809 H 77.4141 1.12066 1.71179 0
M  V30 810 H 77.4241 0.426196 4.05768 0
M  V30 811 H 76.0991 1.5606 3.8551 0
M  V30 812 H 74.6761 -0.265836 3.71951 0
M  V30 813 N 76.8612 -1.46375 0.584142 0
M  V30 814 C 78.1012 -2.0427 0.0729695 0
M  V30 815 C 78.4652 -1.44563 -1.26355 0
M  V30 816 O 79.6662 -1.93667 -1.86405 0
M  V30 817 C 77.9372 -3.57399 0.00967464 0
M  V30 818 S 79.4962 -4.36551 -0.443714 0
M  V30 819 H 76.3142 -0.709975 0.0381673 0
M  V30 820 H 78.9162 -1.79398 0.776962 0
M  V30 821 H 77.6202 -3.98372 0.986319 0
M  V30 822 H 77.1512 -3.8681 -0.717044 0
M  V30 823 H 79.1662 -4.66237 -1.69816 0
M  V30 824 N 78.3393 -0.321999 -1.54275 0
M  V30 825 C 79.7503 0.166384 -1.85957 0
M  V30 826 C 80.1013 1.51747 -1.24367 0
M  V30 827 O 79.2263 2.09317 -0.549124 0
M  V30 828 C 79.8213 0.308681 -3.37391 0
M  V30 829 C 78.3803 0.741286 -3.69028 0
M  V30 830 C 77.5273 -0.137937 -2.76957 0
M  V30 831 H 80.4783 -0.542335 -1.49146 0
M  V30 832 H 80.4993 1.13984 -3.63026 0
M  V30 833 H 80.0113 -0.674809 -3.82188 0
M  V30 834 H 78.1123 1.73458 -3.29762 0
M  V30 835 H 78.2253 0.546118 -4.75977 0
M  V30 836 H 76.5893 0.386251 -2.51754 0
M  V30 837 H 77.3723 -1.11816 -3.2458 0
M  V30 838 N 79.8174 1.5752 -0.0501392 0
M  V30 839 C 81.0654 1.9227 0.622642 0
M  V30 840 C 81.3864 0.929083 1.71444 0
M  V30 841 O 80.6564 -0.0262186 1.95882 0
M  V30 842 H 79.2364 0.709739 0.232981 0
M  V30 843 H 81.8984 1.94628 -0.102898 0
M  V30 844 H 80.9944 2.93479 1.06191 0
M  V30 845 N 81.2955 -0.223234 1.56011 0
M  V30 846 C 82.2255 -1.27988 1.95298 0
M  V30 847 C 83.2065 -1.48976 0.820979 0
M  V30 848 O 84.3915 -1.61188 1.08315 0
M  V30 849 C 81.5215 -2.63 2.26822 0
M  V30 850 C 80.4755 -2.56671 3.42497 0
M  V30 851 C 79.8015 -3.95697 3.59622 0
M  V30 852 C 81.1015 -2.11601 4.77517 0
M  V30 853 H 82.7955 -0.953525 2.8381 0
M  V30 854 H 80.3415 -0.457244 1.36548 0
M  V30 855 H 82.2945 -3.37077 2.52898 0
M  V30 856 H 81.0185 -2.9732 1.35161 0
M  V30 857 H 79.6775 -1.85051 3.16467 0
M  V30 858 H 79.3255 -4.27322 2.6534 0
M  V30 859 H 79.0255 -3.92345 4.37424 0
M  V30 860 H 80.5495 -4.71438 3.88044 0
M  V30 861 H 81.9635 -2.7542 5.02809 0
M  V30 862 H 80.3605 -2.19311 5.5859 0
M  V30 863 H 81.4305 -1.06824 4.72987 0
M  V30 864 N 82.7736 -1.49793 -0.48987 0
M  V30 865 C 84.0016 -1.63568 -1.26701 0
M  V30 866 C 84.4166 -0.311465 -1.86213 0
M  V30 867 O 83.7736 0.704416 -1.68357 0
M  V30 868 C 83.8246 -2.71284 -2.38929 0
M  V30 869 O 83.5456 -3.9857 -1.81861 0
M  V30 870 C 85.0466 -2.95864 -3.3012 0
M  V30 871 H 82.2666 -0.550342 -0.383881 0
M  V30 872 H 84.8106 -1.95898 -0.586864 0
M  V30 873 H 82.9656 -2.417 -3.02753 0
M  V30 874 H 83.3796 -4.57993 -2.55622 0
M  V30 875 H 84.8536 -3.74941 -4.05121 0
M  V30 876 H 85.3306 -2.06206 -3.87783 0
M  V30 877 H 85.9366 -3.26907 -2.72051 0
M  V30 878 N 84.2517 0.741722 -1.39055 0
M  V30 879 C 85.1817 1.869 -1.39966 0
M  V30 880 C 86.1627 1.6804 -0.26392 0
M  V30 881 O 87.3477 1.88458 -0.468755 0
M  V30 882 C 84.4777 3.24572 -1.23574 0
M  V30 883 C 83.4317 3.58056 -2.34477 0
M  V30 884 C 82.7577 4.94593 -2.0318 0
M  V30 885 C 84.0577 3.61716 -3.76774 0
M  V30 886 H 85.7517 1.86395 -2.34302 0
M  V30 887 H 83.2977 0.895361 -1.1278 0
M  V30 888 H 85.2507 4.031 -1.22834 0
M  V30 889 H 83.9747 3.25587 -0.257045 0
M  V30 890 H 82.6337 2.81854 -2.34423 0
M  V30 891 H 82.2817 4.92181 -1.03765 0
M  V30 892 H 81.9817 5.17964 -2.77465 0
M  V30 893 H 83.5057 5.75486 -2.04079 0
M  V30 894 H 84.9197 4.30335 -3.78794 0
M  V30 895 H 83.3167 3.96603 -4.50362 0
M  V30 896 H 84.3867 2.61672 -4.08235 0
M  V30 897 N 85.7298 1.2412 0.971189 0
M  V30 898 C 86.6798 0.997551 2.05019 0
M  V30 899 C 87.6638 -0.0597747 1.60789 0
M  V30 900 O 88.8558 0.153516 1.76333 0
M  V30 901 C 85.9848 0.600557 3.38006 0
M  V30 902 C 85.0708 1.69377 3.88809 0
M  V30 903 N 85.4618 2.92586 4.12586 0
M  V30 904 C 83.7598 1.57048 4.17435 0
M  V30 905 C 84.4608 3.63431 4.54195 0
M  V30 906 N 83.4368 2.90979 4.59165 0
M  V30 907 H 87.2388 1.93316 2.21374 0
M  V30 908 H 84.7528 1.14194 1.1547 0
M  V30 909 H 86.7498 0.40725 4.14906 0
M  V30 910 H 85.4098 -0.327903 3.2304 0
M  V30 911 H 86.4208 3.288 4.00139 0
M  V30 912 H 83.0978 0.709798 4.11422 0
M  V30 913 H 84.4878 4.69102 4.81033 0
M  V30 914 N 87.2079 -1.17134 1.05439 0
M  V30 915 C 88.6239 -1.39454 0.776201 0
M  V30 916 C 88.8239 -1.91454 -0.628307 0
M  V30 917 O 87.8799 -2.10777 -1.39031 0
M  V30 918 C 89.1929 -2.38305 1.83388 0
M  V30 919 C 90.7409 -2.52006 1.85639 0
M  V30 920 C 91.2159 -3.54133 2.90437 0
M  V30 921 N 92.7069 -3.61653 2.89415 0
M  V30 922 C 93.4419 -4.4044 3.67152 0
M  V30 923 N 92.9379 -5.22721 4.54681 0
M  V30 924 N 94.7309 -4.35337 3.55581 0
M  V30 925 H 86.8819 -0.817134 1.96053 0
M  V30 926 H 89.1449 -0.421626 0.849079 0
M  V30 927 H 88.8509 -2.07173 2.84204 0
M  V30 928 H 88.7249 -3.37841 1.67761 0
M  V30 929 H 91.1119 -2.82447 0.85486 0
M  V30 930 H 91.1929 -1.52537 2.05344 0
M  V30 931 H 90.8369 -3.24431 3.90777 0
M  V30 932 H 90.7669 -4.53313 2.67983 0
M  V30 933 H 93.2579 -3.02909 2.25952 0
M  V30 934 H 93.5709 -5.80027 5.10674 0
M  V30 935 H 91.9159 -5.22093 4.58741 0
M  V30 936 H 95.1069 -3.70112 2.86592 0
M  V30 937 H 95.2799 -4.96494 4.1641 0
M  V30 938 N 88.686 -0.835752 -1.33615 0
M  V30 939 C 89.616 -0.281739 -2.31794 0
M  V30 940 C 90.597 0.608833 -1.58831 0
M  V30 941 O 91.782 0.533035 -1.86741 0
M  V30 942 C 88.912 0.546612 -3.42971 0
M  V30 943 C 87.866 -0.247904 -4.27281 0
M  V30 944 C 87.192 0.704001 -5.30045 0
M  V30 945 C 88.492 -1.46324 -5.01385 0
M  V30 946 H 90.186 -1.10206 -2.78379 0
M  V30 947 H 87.732 -0.531388 -1.33837 0
M  V30 948 H 89.685 0.944467 -4.1068 0
M  V30 949 H 88.409 1.40011 -2.95067 0
M  V30 950 H 87.068 -0.627281 -3.61194 0
M  V30 951 H 86.716 1.55381 -4.78399 0
M  V30 952 H 86.416 0.176524 -5.87335 0
M  V30 953 H 87.94 1.09944 -6.0062 0
M  V30 954 H 89.354 -1.13871 -5.61877 0
M  V30 955 H 87.751 -1.92728 -5.6831 0
M  V30 956 H 88.821 -2.23467 -4.30338 0
M  V30 957 N 90.1641 1.46063 -0.591896 0
M  V30 958 C 91.5801 1.57561 -0.254288 0
M  V30 959 C 91.7801 1.58565 1.24336 0
M  V30 960 O 90.8361 1.50753 2.02558 0
M  V30 961 C 92.1491 2.86549 -0.911611 0
M  V30 962 C 93.6971 3.00197 -0.886059 0
M  V30 963 C 94.1721 4.31933 -1.5231 0
M  V30 964 N 95.6631 4.38654 -1.48786 0
M  V30 965 C 96.3981 5.39222 -1.95006 0
M  V30 966 N 95.8941 6.46414 -2.49241 0
M  V30 967 N 97.6871 5.3048 -1.85868 0
M  V30 968 H 89.8381 1.43655 -1.56451 0
M  V30 969 H 92.1011 0.68583 -0.654478 0
M  V30 970 H 91.8071 2.91651 -1.96551 0
M  V30 971 H 91.6811 3.74794 -0.425368 0
M  V30 972 H 94.0681 2.9467 0.159246 0
M  V30 973 H 94.1491 2.13403 -1.41041 0
M  V30 974 H 93.7931 4.38217 -2.56765 0
M  V30 975 H 93.7231 5.17516 -0.973891 0
M  V30 976 H 96.2141 3.61793 -1.09151 0
M  V30 977 H 96.5271 7.19376 -2.82344 0
M  V30 978 H 94.8721 6.47208 -2.53272 0
M  V30 979 H 98.0631 4.45643 -1.43248 0
M  V30 980 H 98.2361 6.08711 -2.22204 0
M  V30 981 N 91.6422 0.330177 1.54103 0
M  V30 982 C 92.8912 -0.271336 1.99867 0
M  V30 983 C 93.2042 -1.52723 1.22209 0
M  V30 984 O 94.4102 -2.20515 1.58383 0
M  V30 985 C 92.8662 -0.534032 3.55916 0
M  V30 986 C 92.4742 0.705193 4.42415 0
M  V30 987 C 94.2182 -1.09514 4.1013 0
M  V30 988 C 92.1252 0.414035 5.89949 0
M  V30 989 H 91.0552 -0.105166 0.74663 0
M  V30 990 H 93.7062 0.443429 1.78062 0
M  V30 991 H 92.0882 -1.30915 3.73734 0
M  V30 992 H 93.2622 1.4804 4.36372 0
M  V30 993 H 91.5772 1.18698 3.99124 0
M  V30 994 H 94.1742 -1.3277 5.17954 0
M  V30 995 H 94.5172 -2.04656 3.62521 0
M  V30 996 H 95.0502 -0.381038 3.95971 0
M  V30 997 H 91.7892 1.33481 6.41766 0
M  V30 998 H 91.3092 -0.323336 5.98928 0
M  V30 999 H 92.9882 0.0263105 6.46995 0
M  V30 1000 N 93.1203 -1.57491 0.0584922 0
M  V30 1001 C 94.5313 -1.80526 -0.476138 0
M  V30 1002 C 94.8823 -0.971334 -1.70469 0
M  V30 1003 O 94.0073 -0.190012 -2.15564 0
M  V30 1004 C 94.6023 -3.27424 -0.870587 0
M  V30 1005 C 93.1613 -3.51351 -1.35015 0
M  V30 1006 C 92.3083 -2.75343 -0.32887 0
M  V30 1007 H 95.2593 -1.56133 0.284312 0
M  V30 1008 H 95.2803 -3.38745 -1.73299 0
M  V30 1009 H 94.7923 -3.88093 0.0237627 0
M  V30 1010 H 92.8933 -2.95971 -2.26345 0
M  V30 1011 H 93.0063 -4.60059 -1.33726 0
M  V30 1012 H 91.3703 -2.417 -0.803321 0
M  V30 1013 H 92.1533 -3.38743 0.557521 0
M  V30 1014 N 94.5984 0.214957 -1.56127 0
M  V30 1015 C 95.8754 0.963093 -1.70247 0
M  V30 1016 C 96.2554 2.02166 -0.60764 0
M  V30 1017 O 95.6034 2.25244 0.384385 0
M  V30 1018 C 95.8134 1.56756 -3.11815 0
M  V30 1019 C 97.1614 2.0573 -3.7143 0
M  V30 1020 O 98.1854 1.66637 -3.14818 0
M  V30 1021 O 97.0444 2.77603 -4.70743 0
M  V30 1022 H 94.1384 0.450321 -0.693643 0
M  V30 1023 H 96.6844 0.206219 -1.68442 0
M  V30 1024 H 95.4564 0.803533 -3.82961 0
M  V30 1025 H 95.0794 2.3898 -3.17765 0
M  V30 1026 N 96.0765 1.50051 0.48192 0
M  V30 1027 C 97.3235 1.60498 1.23477 0
M  V30 1028 C 97.6515 0.300331 1.92167 0
M  V30 1029 O 96.9065 -0.713094 1.82246 0
M  V30 1030 C 97.2055 2.72717 2.30998 0
M  V30 1031 C 96.8715 4.13572 1.79636 0
M  V30 1032 C 95.5335 4.519 1.65348 0
M  V30 1033 C 97.8855 5.01649 1.41412 0
M  V30 1034 C 95.2135 5.76057 1.11244 0
M  V30 1035 C 97.5655 6.26343 0.887538 0
M  V30 1036 C 96.2295 6.63483 0.731207 0
M  V30 1037 H 95.4995 0.587303 0.451836 0
M  V30 1038 H 98.1465 1.83948 0.532468 0
M  V30 1039 H 96.4515 2.43312 3.07094 0
M  V30 1040 H 98.1485 2.78006 2.88988 0
M  V30 1041 H 94.7385 3.83329 1.91721 0
M  V30 1042 H 98.9225 4.72679 1.51289 0
M  V30 1043 H 94.1785 6.03516 0.978686 0
M  V30 1044 H 98.3525 6.93958 0.582654 0
M  V30 1045 H 95.9795 7.59568 0.309806 0
M  V30 1046 N 97.5546 -0.734337 1.39446 0
M  V30 1047 C 98.7946 -1.50655 1.38139 0
M  V30 1048 C 99.1586 -1.91986 -0.0228701 0
M  V30 1049 O 100.36 -2.68318 -0.160947 0
M  V30 1050 C 98.6306 -2.71251 2.32718 0
M  V30 1051 S 100.19 -3.60892 2.49605 0
M  V30 1052 H 97.0076 -0.515315 0.489869 0
M  V30 1053 H 99.6096 -0.860392 1.75549 0
M  V30 1054 H 98.3136 -2.39027 3.33608 0
M  V30 1055 H 97.8446 -3.40795 1.96526 0
M  V30 1056 H 99.8596 -4.64899 1.73446 0
M  V30 1057 N 99.0327 -1.24633 -0.964593 0
M  V30 1058 C 100.444 -1.08045 -1.5226 0
M  V30 1059 C 100.795 0.347116 -1.93105 0
M  V30 1060 O 99.9197 1.23588 -1.77637 0
M  V30 1061 C 100.515 -1.95514 -2.76695 0
M  V30 1062 C 99.0737 -1.8314 -3.28841 0
M  V30 1063 C 98.2207 -1.90262 -2.01732 0
M  V30 1064 H 101.172 -1.38064 -0.782553 0
M  V30 1065 H 101.193 -1.48925 -3.50145 0
M  V30 1066 H 100.705 -2.99407 -2.46936 0
M  V30 1067 H 98.8057 -0.82092 -3.63444 0
M  V30 1068 H 98.9187 -2.67406 -3.97531 0
M  V30 1069 H 97.2827 -1.34027 -2.16584 0
M  V30 1070 H 98.0657 -2.9574 -1.74334 0
M  V30 1071 N 100.511 1.16574 -1.06058 0
M  V30 1072 C 101.922 1.68662 -0.800632 0
M  V30 1073 C 102.273 1.84184 0.67608 0
M  V30 1074 O 101.398 1.53568 1.52466 0
M  V30 1075 C 101.993 3.06356 -1.44676 0
M  V30 1076 C 100.552 3.55575 -1.23465 0
M  V30 1077 C 99.6988 2.31616 -1.52477 0
M  V30 1078 H 102.65 1.00969 -1.22438 0
M  V30 1079 H 102.671 3.70636 -0.860788 0
M  V30 1080 H 102.183 2.95027 -2.52152 0
M  V30 1081 H 100.284 3.72167 -0.179527 0
M  V30 1082 H 100.397 4.37812 -1.94571 0
M  V30 1083 H 98.7608 2.36512 -0.945209 0
M  V30 1084 H 99.5438 2.22887 -2.61106 0
M  V30 1085 N 101.989 0.842826 1.3317 0
M  V30 1086 C 102.952 0.284065 2.27433 0
M  V30 1087 C 103.952 -0.54948 1.5112 0
M  V30 1088 O 105.142 -0.362699 1.70382 0
M  V30 1089 C 102.274 -0.599384 3.35589 0
M  V30 1090 H 103.467 1.11589 2.78366 0
M  V30 1091 H 101.02 0.616221 1.4364 0
M  V30 1092 H 101.755 -1.45349 2.89904 0
M  V30 1093 H 101.54 -0.00291266 3.921 0
M  V30 1094 H 103.03 -0.983488 4.05854 0
M  V30 1095 N 103.467 -1.45747 0.599634 0
M  V30 1096 C 104.878 -1.85853 0.177681 0
M  V30 1097 C 105.229 -1.50102 -1.26348 0
M  V30 1098 O 104.354 -0.923905 -1.95686 0
M  V30 1099 C 104.949 -3.37326 0.315688 0
M  V30 1100 C 103.508 -3.76365 -0.0515144 0
M  V30 1101 C 102.655 -2.69722 0.643822 0
M  V30 1102 H 105.606 -1.36661 0.806814 0
M  V30 1103 H 105.627 -3.77778 -0.454321 0
M  V30 1104 H 105.139 -3.63315 1.36468 0
M  V30 1105 H 103.24 -3.55993 -1.09999 0
M  V30 1106 H 103.353 -4.77916 0.336594 0
M  V30 1107 H 101.717 -2.54567 0.0822881 0
M  V30 1108 H 102.5 -2.98549 1.6948 0
M  V30 1109 N 104.945 -0.338344 -1.53925 0
M  V30 1110 C 106.222 0.314774 -1.93051 0
M  V30 1111 C 106.602 1.68669 -1.26941 0
M  V30 1112 O 105.95 2.24636 -0.418445 0
M  V30 1113 C 106.16 0.392249 -3.46789 0
M  V30 1114 C 107.508 0.645554 -4.19664 0
M  V30 1115 O 108.532 0.474575 -3.53024 0
M  V30 1116 O 107.391 0.976408 -5.37707 0
M  V30 1117 H 104.485 0.182598 -0.80659 0
M  V30 1118 H 107.031 -0.389141 -1.65178 0
M  V30 1119 H 105.803 -0.570702 -3.87116 0
M  V30 1120 H 105.426 1.14316 -3.80812 0
M  V30 1121 N 106.423 1.57458 -0.0668435 0
M  V30 1122 C 107.355 2.09413 0.931601 0
M  V30 1123 C 108.368 1.02522 1.26464 0
M  V30 1124 O 109.557 1.30049 1.22269 0
M  V30 1125 C 106.657 2.53537 2.24882 0
M  V30 1126 C 105.83 3.83944 2.09537 0
M  V30 1127 C 104.889 4.14214 3.2452 0
M  V30 1128 O 103.915 4.83891 2.9973 0
M  V30 1129 N 105.117 3.67367 4.49469 0
M  V30 1130 H 107.882 2.95699 0.488048 0
M  V30 1131 H 105.443 1.61462 0.119009 0
M  V30 1132 H 107.435 2.70853 3.00701 0
M  V30 1133 H 106.005 1.72415 2.60753 0
M  V30 1134 H 105.225 3.76057 1.18215 0
M  V30 1135 H 106.513 4.69312 1.96529 0
M  V30 1136 H 105.911 3.11068 4.72497 0
M  V30 1137 H 104.468 3.89891 5.2233 0
M  V30 1138 N 107.901 -0.206675 1.56239 0
M  V30 1139 C 109.15 -0.926964 1.79138 0
M  V30 1140 C 109.463 -1.84901 0.638043 0
M  V30 1141 O 110.669 -2.60906 0.751033 0
M  V30 1142 C 109.125 -1.6986 3.17294 0
M  V30 1143 C 108.733 -0.821956 4.40395 0
M  V30 1144 C 110.477 -2.40922 3.4951 0
M  V30 1145 C 108.384 -1.59179 5.69575 0
M  V30 1146 H 107.314 -0.349864 0.667915 0
M  V30 1147 H 109.965 -0.180487 1.8261 0
M  V30 1148 H 108.347 -2.48853 3.08039 0
M  V30 1149 H 109.521 -0.0715019 4.60745 0
M  V30 1150 H 107.836 -0.222741 4.15804 0
M  V30 1151 H 110.433 -2.99047 4.43255 0
M  V30 1152 H 110.776 -3.14542 2.72707 0
M  V30 1153 H 111.309 -1.68905 3.60161 0
M  V30 1154 H 108.048 -0.898589 6.49312 0
M  V30 1155 H 107.568 -2.31648 5.53262 0
M  V30 1156 H 109.247 -2.14862 6.10281 0
M  V30 1157 N 109.379 -1.50304 -0.473955 0
M  V30 1158 C 110.656 -1.51667 -1.23518 0
M  V30 1159 C 111.036 -0.259701 -2.09496 0
M  V30 1160 O 110.384 0.756986 -2.15597 0
M  V30 1161 C 110.594 -2.81082 -2.06868 0
M  V30 1162 C 111.942 -3.31631 -2.65153 0
M  V30 1163 O 112.966 -2.82384 -2.17113 0
M  V30 1164 O 111.825 -4.17471 -3.52675 0
M  V30 1165 H 108.919 -0.60822 -0.560355 0
M  V30 1166 H 111.465 -1.62592 -0.486011 0
M  V30 1167 H 110.237 -3.64041 -1.4349 0
M  V30 1168 H 109.86 -2.73146 -2.88924 0
M  V30 1169 N 110.857 0.726932 -1.39834 0
M  V30 1170 C 112.273 1.03354 -1.21615 0
M  V30 1171 C 112.473 2.01327 -0.08338 0
M  V30 1172 O 111.529 2.46158 0.56238 0
M  V30 1173 C 112.842 1.58811 -2.55342 0
M  V30 1174 C 114.39 1.70851 -2.62257 0
M  V30 1175 C 114.865 2.29716 -3.96225 0
M  V30 1176 N 116.356 2.37116 -3.97907 0
M  V30 1177 C 117.091 2.83619 -4.98345 0
M  V30 1178 N 116.587 3.29958 -6.09179 0
M  V30 1179 N 118.38 2.82901 -4.8572 0
M  V30 1180 H 110.531 0.0773069 -2.12259 0
M  V30 1181 H 112.794 0.0969102 -0.943034 0
M  V30 1182 H 112.5 0.942855 -3.38826 0
M  V30 1183 H 112.374 2.57502 -2.75632 0
M  V30 1184 H 114.761 2.34497 -1.79152 0
M  V30 1185 H 114.842 0.707913 -2.45809 0
M  V30 1186 H 114.486 1.66696 -4.79765 0
M  V30 1187 H 114.416 3.30469 -4.09997 0
M  V30 1188 H 116.907 2.04374 -3.17868 0
M  V30 1189 H 117.22 3.63976 -6.8172 0
M  V30 1190 H 115.565 3.27946 -6.12761 0
M  V30 1191 H 118.756 2.46027 -3.98231 0
M  V30 1192 H 118.929 3.18827 -5.6414 0
M  V30 1193 N 112.336 1.25143 0.95797 0
M  V30 1194 C 113.583 1.09692 1.70217 0
M  V30 1195 C 113.911 -0.362654 1.91089 0
M  V30 1196 O 113.166 -1.28386 1.47701 0
M  V30 1197 C 113.465 1.79272 3.09187 0
M  V30 1198 C 113.131 3.29196 3.08125 0
M  V30 1199 C 111.793 3.70096 3.07543 0
M  V30 1200 C 114.145 4.24995 3.0171 0
M  V30 1201 C 111.473 5.05213 2.9829 0
M  V30 1202 C 113.825 5.60132 2.93999 0
M  V30 1203 C 112.489 6.00365 2.9175 0
M  V30 1204 H 111.759 0.401393 0.622868 0
M  V30 1205 H 114.406 1.55372 1.11945 0
M  V30 1206 H 112.711 1.26014 3.70982 0
M  V30 1207 H 114.408 1.64773 3.65583 0
M  V30 1208 H 110.998 2.96651 3.09348 0
M  V30 1209 H 115.182 3.9439 3.01281 0
M  V30 1210 H 110.438 5.35569 2.94916 0
M  V30 1211 H 114.612 6.3406 2.87996 0
M  V30 1212 H 112.239 7.05023 2.84336 0
M  V30 1213 N 113.814 -1.1601 1.06675 0
M  V30 1214 C 115.06 -1.86909 0.786945 0
M  V30 1215 C 115.393 -1.81717 -0.685018 0
M  V30 1216 O 114.668 -1.23551 -1.50218 0
M  V30 1217 C 114.951 -3.36313 1.28707 0
M  V30 1218 C 114.804 -3.50175 2.82308 0
M  V30 1219 C 116.123 -4.3084 0.898071 0
M  V30 1220 H 113.242 -0.678677 0.287343 0
M  V30 1221 H 115.884 -1.36336 1.32334 0
M  V30 1222 H 114.034 -3.79513 0.830768 0
M  V30 1223 H 115.706 -3.15886 3.36175 0
M  V30 1224 H 113.949 -2.91959 3.20847 0
M  V30 1225 H 114.62 -4.55116 3.12368 0
M  V30 1226 H 117.096 -3.95561 1.29114 0
M  V30 1227 H 115.972 -5.33876 1.27543 0
M  V30 1228 H 116.233 -4.41662 -0.196651 0
M  V30 1229 N 115.292 -0.849877 -1.32721 0
M  V30 1230 C 116.224 -0.248332 -2.27851 0
M  V30 1231 C 117.237 0.577218 -1.52224 0
M  V30 1232 O 118.426 0.402489 -1.73903 0
M  V30 1233 C 115.526 0.668107 -3.32249 0
M  V30 1234 C 114.699 -0.120534 -4.37234 0
M  V30 1235 C 113.758 0.720932 -5.21238 0
M  V30 1236 O 112.784 0.156166 -5.68986 0
M  V30 1237 N 113.986 2.03647 -5.43607 0
M  V30 1238 H 116.751 -1.06575 -2.80111 0
M  V30 1239 H 114.312 -0.709395 -1.45531 0
M  V30 1240 H 116.304 1.23627 -3.85355 0
M  V30 1241 H 114.874 1.38621 -2.80184 0
M  V30 1242 H 114.094 -0.870108 -3.84477 0
M  V30 1243 H 115.382 -0.662406 -5.0447 0
M  V30 1244 H 114.78 2.51871 -5.06535 0
M  V30 1245 H 113.337 2.55287 -5.99727 0
M  V30 1246 N 116.77 1.45427 -0.607355 0
M  V30 1247 C 118.019 2.01452 -0.100036 0
M  V30 1248 C 118.332 1.48159 1.27704 0
M  V30 1249 O 119.538 1.96159 1.87707 0
M  V30 1250 C 117.994 3.59672 -0.128158 0
M  V30 1251 C 117.602 4.21962 -1.50507 0
M  V30 1252 C 119.346 4.23262 0.323932 0
M  V30 1253 C 117.253 5.72333 -1.48959 0
M  V30 1254 H 116.183 0.75325 -0.0336299 0
M  V30 1255 H 118.834 1.66901 -0.76265 0
M  V30 1256 H 117.216 3.91411 0.601105 0
M  V30 1257 H 118.39 4.01796 -2.25602 0
M  V30 1258 H 116.705 3.70565 -1.89923 0
M  V30 1259 H 119.302 5.33522 0.354691 0
M  V30 1260 H 119.645 3.93921 1.34656 0
M  V30 1261 H 120.178 3.96239 -0.352056 0
M  V30 1262 H 116.917 6.06373 -2.48981 0
M  V30 1263 H 116.437 5.94691 -0.781214 0
M  V30 1264 H 118.116 6.35525 -1.21313 0
M  V30 1265 N 118.248 0.346503 1.53744 0
M  V30 1266 C 119.494 -0.249473 2.0126 0
M  V30 1267 C 119.827 -1.49965 1.23386 0
M  V30 1268 O 119.102 -1.91811 0.32229 0
M  V30 1269 C 119.385 -0.560643 3.55709 0
M  V30 1270 C 119.238 0.701836 4.44291 0
M  V30 1271 C 120.557 -1.36905 4.18264 0
M  V30 1272 H 117.676 -0.0891987 0.731582 0
M  V30 1273 H 120.318 0.467624 1.84156 0
M  V30 1274 H 118.468 -1.17156 3.70414 0
M  V30 1275 H 120.14 1.33974 4.41417 0
M  V30 1276 H 118.383 1.32612 4.13033 0
M  V30 1277 H 119.054 0.43933 5.50249 0
M  V30 1278 H 121.53 -0.852448 4.07275 0
M  V30 1279 H 120.406 -1.55553 5.26398 0
M  V30 1280 H 120.667 -2.37203 3.73078 0
M  V30 1281 N 119.726 -1.57421 0.075193 0
M  V30 1282 C 121.003 -1.85029 -0.634329 0
M  V30 1283 C 121.383 -0.968305 -1.87582 0
M  V30 1284 O 120.731 -0.0354749 -2.28472 0
M  V30 1285 C 120.941 -3.35286 -0.968742 0
M  V30 1286 C 122.289 -4.02875 -1.34077 0
M  V30 1287 O 123.313 -3.40051 -1.06037 0
M  V30 1288 O 122.172 -5.13691 -1.86506 0
M  V30 1289 H 119.266 -0.7645 -0.315387 0
M  V30 1290 H 121.812 -1.69366 0.106382 0
M  V30 1291 H 120.584 -3.91203 -0.0871376 0
M  V30 1292 H 120.207 -3.56223 -1.7661 0
M  V30 1293 N 121.204 0.198386 -1.56346 0
M  V30 1294 C 122.114 1.2664 -1.97483 0
M  V30 1295 C 123.13 1.49989 -0.882002 0
M  V30 1296 O 124.306 1.62668 -1.18748 0
M  V30 1297 C 121.371 2.59141 -2.30319 0
M  V30 1298 C 120.432 2.43892 -3.53292 0
M  V30 1299 C 119.665 3.70074 -3.84553 0
M  V30 1300 O 119.888 4.74101 -3.1715 0
M  V30 1301 O 118.822 3.658 -4.7799 0
M  V30 1302 H 122.648 0.947304 -2.88548 0
M  V30 1303 H 120.233 0.403123 -1.43859 0
M  V30 1304 H 122.115 3.37352 -2.5253 0
M  V30 1305 H 120.79 2.90684 -1.42423 0
M  V30 1306 H 119.697 1.63803 -3.36332 0
M  V30 1307 H 121.03 2.17282 -4.41644 0
M  V30 1308 N 122.682 1.50554 0.465978 0
M  V30 1309 C 123.645 1.69233 1.54574 0
M  V30 1310 C 124.645 0.562901 1.50626 0
M  V30 1311 O 125.835 0.830016 1.53155 0
M  V30 1312 C 122.967 1.7223 2.94193 0
M  V30 1313 H 124.16 2.65571 1.39327 0
M  V30 1314 H 121.713 1.40111 0.692711 0
M  V30 1315 H 122.448 0.77603 3.14878 0
M  V30 1316 H 122.233 2.54285 2.98466 0
M  V30 1317 H 123.723 1.88618 3.72576 0
M  V30 1318 N 124.16 -0.719506 1.40217 0
M  V30 1319 C 125.108 -1.85493 1.40339 0
M  V30 1320 C 126.102 -1.66995 0.284415 0
M  V30 1321 O 127.308 -1.74148 0.455252 0
M  V30 1322 H 123.683 -0.610857 0.438586 0
M  V30 1323 H 125.654 -1.82506 2.36081 0
M  V30 1324 C 124.403 -3.23321 1.27901 0
M  V30 1325 H 123.726 -3.38159 2.1328 0
M  V30 1326 H 125.166 -4.02914 1.32045 0
M  V30 1327 C 123.625 -3.36898 -0.0111355 0
M  V30 1328 O 124.155 -3.89674 -0.975538 0
M  V30 1329 N 122.361 -2.90492 -0.0793393 0
M  V30 1330 H 121.908 -2.47731 0.706183 0
M  V30 1331 H 121.866 -2.99955 -0.942038 0
M  V30 1332 N 125.638 -1.25649 -0.95132 0
M  V30 1333 C 126.601 -1.06399 -2.03007 0
M  V30 1334 C 127.601 -0.0156794 -1.60792 0
M  V30 1335 O 128.791 -0.25817 -1.72276 0
M  V30 1336 C 125.923 -0.616184 -3.35285 0
M  V30 1337 H 127.116 -2.02164 -2.21517 0
M  V30 1338 H 124.669 -1.08103 -1.12887 0
M  V30 1339 H 125.404 0.343917 -3.22471 0
M  V30 1340 H 125.189 -1.37301 -3.67275 0
M  V30 1341 H 126.679 -0.503032 -4.14559 0
M  V30 1342 N 127.117 1.15442 -1.07289 0
M  V30 1343 C 128.533 1.38201 -0.798288 0
M  V30 1344 C 128.733 1.92429 0.597769 0
M  V30 1345 O 127.789 2.12962 1.3566 0
M  V30 1346 C 129.102 2.35357 -1.87156 0
M  V30 1347 C 130.65 2.49021 -1.89624 0
M  V30 1348 C 131.125 3.49468 -2.96034 0
M  V30 1349 N 132.616 3.57003 -2.95132 0
M  V30 1350 C 133.351 4.34543 -3.74112 0
M  V30 1351 N 132.847 5.15421 -4.6294 0
M  V30 1352 N 134.64 4.29625 -3.62462 0
M  V30 1353 H 126.791 0.78584 -1.97328 0
M  V30 1354 H 129.054 0.408065 -0.855679 0
M  V30 1355 H 128.76 2.02626 -2.87464 0
M  V30 1356 H 128.634 3.35129 -1.73114 0
M  V30 1357 H 131.021 2.81051 -0.899687 0
M  V30 1358 H 131.102 1.4925 -2.07745 0
M  V30 1359 H 130.746 3.18173 -3.95889 0
M  V30 1360 H 130.676 4.48992 -2.75161 0
M  V30 1361 H 133.167 2.99276 -2.30743 0
M  V30 1362 H 133.48 5.7183 -5.19837 0
M  V30 1363 H 131.825 5.14729 -4.66989 0
M  V30 1364 H 135.016 3.65505 -2.92444 0
M  V30 1365 H 135.189 4.89807 -4.24256 0
M  V30 1366 N 128.595 0.856903 1.32268 0
M  V30 1367 C 129.843 0.460474 1.96784 0
M  V30 1368 C 130.164 -0.987701 1.68135 0
M  V30 1369 O 129.434 -1.69058 0.989765 0
M  V30 1370 H 128.014 0.167289 0.728027 0
M  V30 1371 H 130.676 1.09383 1.61312 0
M  V30 1372 H 129.772 0.60739 3.06133 0
M  V30 1373 N 130.073 -1.45103 0.615059 0
M  V30 1374 C 130.983 -2.34382 -0.101034 0
M  V30 1375 C 131.999 -1.51681 -0.852585 0
M  V30 1376 O 133.175 -1.8446 -0.808484 0
M  V30 1377 C 130.24 -3.29417 -1.08099 0
M  V30 1378 C 129.301 -4.28025 -0.330577 0
M  V30 1379 C 128.534 -5.1852 -1.26385 0
M  V30 1380 O 128.757 -5.12598 -2.50198 0
M  V30 1381 O 127.691 -5.97122 -0.756866 0
M  V30 1382 H 131.517 -2.97033 0.632855 0
M  V30 1383 H 129.102 -1.4461 0.375293 0
M  V30 1384 H 130.984 -3.87958 -1.6452 0
M  V30 1385 H 129.659 -2.69321 -1.79577 0
M  V30 1386 H 128.566 -3.73078 0.276283 0
M  V30 1387 H 129.899 -4.90997 0.343866 0
M  V30 1388 N 131.551 -0.354651 -1.53558 0
M  V30 1389 C 132.514 0.484566 -2.24019 0
M  V30 1390 C 133.514 1.01861 -1.24422 0
M  V30 1391 O 134.704 0.906097 -1.4878 0
M  V30 1392 C 131.836 1.67615 -2.96847 0
M  V30 1393 H 133.029 -0.131843 -2.9961 0
M  V30 1394 H 130.582 -0.106165 -1.55939 0
M  V30 1395 H 131.317 2.33095 -2.25471 0
M  V30 1396 H 131.102 1.30029 -3.69912 0
M  V30 1397 H 132.592 2.27114 -3.50441 0
M  V30 1398 N 133.029 1.57378 -0.0835403 0
M  V30 1399 C 134.275 1.94217 0.583733 0
M  V30 1400 C 134.608 0.964653 1.68547 0
M  V30 1401 O 133.883 -0.00422258 1.945 0
M  V30 1402 C 134.166 3.41253 1.14972 0
M  V30 1403 C 134.019 4.49768 0.0538277 0
M  V30 1404 C 135.338 3.89352 2.05166 0
M  V30 1405 H 132.457 0.706233 0.210724 0
M  V30 1406 H 135.099 1.89392 -0.1519 0
M  V30 1407 H 133.249 3.45496 1.77665 0
M  V30 1408 H 134.921 4.57641 -0.579851 0
M  V30 1409 H 133.164 4.29432 -0.614068 0
M  V30 1410 H 133.835 5.49817 0.490452 0
M  V30 1411 H 136.311 3.87189 1.52393 0
M  V30 1412 H 135.187 4.92822 2.41698 0
M  V30 1413 H 135.448 3.27973 2.96456 0
M  V30 1414 N 134.507 -0.190092 1.56449 0
M  V30 1415 C 135.755 -0.907908 1.80559 0
M  V30 1416 C 136.076 -1.83583 0.657438 0
M  V30 1417 O 135.346 -1.93203 -0.323924 0
M  V30 1418 H 133.926 -0.338247 0.666032 0
M  V30 1419 H 136.588 -0.194403 1.93928 0
M  V30 1420 H 135.684 -1.49604 2.73907 0
M  V30 1421 N 135.985 -1.50799 -0.457987 0
M  V30 1422 C 137.231 -1.62683 -1.21088 0
M  V30 1423 C 137.564 -0.332268 -1.91336 0
M  V30 1424 O 136.839 0.667043 -1.82704 0
M  V30 1425 C 137.122 -2.81615 -2.24422 0
M  V30 1426 C 136.975 -4.20989 -1.58392 0
M  V30 1427 C 138.294 -2.96085 -3.2561 0
M  V30 1428 H 135.413 -0.592087 -0.438864 0
M  V30 1429 H 138.055 -1.83225 -0.50286 0
M  V30 1430 H 136.205 -2.64231 -2.84806 0
M  V30 1431 H 137.877 -4.49994 -1.01504 0
M  V30 1432 H 136.12 -4.24641 -0.886704 0
M  V30 1433 H 136.791 -5.0016 -2.33547 0
M  V30 1434 H 139.267 -3.12042 -2.75262 0
M  V30 1435 H 138.143 -3.80902 -3.95228 0
M  V30 1436 H 138.404 -2.0726 -3.90507 0
M  V30 1437 N 137.463 0.71206 -1.40597 0
M  V30 1438 C 138.413 1.81783 -1.37619 0
M  V30 1439 C 139.397 1.58896 -0.253162 0
M  V30 1440 O 140.589 1.70009 -0.492547 0
M  V30 1441 C 137.718 3.19944 -1.24462 0
M  V30 1442 C 136.804 3.48582 -2.4156 0
M  V30 1443 N 137.195 3.48016 -3.67041 0
M  V30 1444 C 135.493 3.79056 -2.35016 0
M  V30 1445 C 136.194 3.75096 -4.44609 0
M  V30 1446 N 135.17 3.94022 -3.74497 0
M  V30 1447 H 138.972 1.79683 -2.32575 0
M  V30 1448 H 136.486 0.91134 -1.34419 0
M  V30 1449 H 138.483 3.99133 -1.20411 0
M  V30 1450 H 137.143 3.23267 -0.304762 0
M  V30 1451 H 138.154 3.28782 -4.00153 0
M  V30 1452 H 134.831 3.89848 -1.49415 0
M  V30 1453 H 136.221 3.80934 -5.53479 0
M  V30 1454 N 138.941 1.26152 0.944643 0
M  V30 1455 C 140.181 1.12708 1.70517 0
M  V30 1456 C 140.545 -0.324727 1.89234 0
M  V30 1457 O 141.746 -0.581211 2.62441 0
M  V30 1458 C 140.017 1.8713 3.04495 0
M  V30 1459 S 141.576 1.89698 3.95677 0
M  V30 1460 H 138.394 0.402665 0.585988 0
M  V30 1461 H 140.996 1.59821 1.12594 0
M  V30 1462 H 139.7 2.91833 2.88551 0
M  V30 1463 H 139.231 1.40444 3.67477 0
M  V30 1464 H 141.246 0.981198 4.86402 0
M  V30 1465 N 140.419 -1.14872 1.07899 0
M  V30 1466 C 141.382 -2.17986 0.708161 0
M  V30 1467 C 142.382 -1.58775 -0.25442 0
M  V30 1468 O 143.572 -1.74166 -0.034645 0
M  V30 1469 C 140.704 -3.40871 0.0446929 0
M  V30 1470 H 141.897 -2.52306 1.62116 0
M  V30 1471 H 139.45 -1.2943 0.876218 0
M  V30 1472 H 140.185 -3.12124 -0.880281 0
M  V30 1473 H 139.97 -3.8511 0.737091 0
M  V30 1474 H 141.46 -4.17121 -0.19991 0
M  V30 1475 N 141.898 -0.863906 -1.31812 0
M  V30 1476 C 142.828 -0.330843 -2.31144 0
M  V30 1477 C 143.809 0.575005 -1.60087 0
M  V30 1478 O 144.994 0.493304 -1.8783 0
M  V30 1479 C 142.124 0.47374 -3.44054 0
M  V30 1480 C 141.078 -0.338481 -4.26659 0
M  V30 1481 C 140.404 0.591412 -5.31419 0
M  V30 1482 C 141.704 -1.56926 -4.98168 0
M  V30 1483 H 143.398 -1.16086 -2.75979 0
M  V30 1484 H 140.944 -0.559657 -1.32679 0
M  V30 1485 H 142.897 0.857143 -4.12591 0
M  V30 1486 H 141.621 1.33721 -2.9797 0
M  V30 1487 H 140.28 -0.703754 -3.59782 0
M  V30 1488 H 139.928 1.45199 -4.81587 0
M  V30 1489 H 139.628 0.0519022 -5.87577 0
M  V30 1490 H 141.152 0.97179 -6.02817 0
M  V30 1491 H 142.566 -1.25764 -5.59336 0
M  V30 1492 H 140.963 -2.04739 -5.64094 0
M  V30 1493 H 142.033 -2.32544 -4.25501 0
M  V30 1494 N 143.376 1.44774 -0.622745 0
M  V30 1495 C 144.624 2.01721 -0.123655 0
M  V30 1496 C 144.945 1.49172 1.25589 0
M  V30 1497 O 144.215 0.691974 1.83272 0
M  V30 1498 H 142.795 0.745777 -0.0427225 0
M  V30 1499 H 145.457 1.77382 -0.807559 0
M  V30 1500 H 144.553 3.11984 -0.0849534 0
M  V30 1501 N 144.854 0.36279 1.53368 0
M  V30 1502 C 146.101 -0.227776 2.01215 0
M  V30 1503 C 146.429 -1.49003 1.25014 0
M  V30 1504 O 145.684 -1.92876 0.331236 0
M  V30 1505 C 145.983 -0.568417 3.52851 0
M  V30 1506 C 145.649 0.59918 4.46901 0
M  V30 1507 C 144.311 0.919559 4.72332 0
M  V30 1508 C 146.663 1.38156 5.02556 0
M  V30 1509 C 143.991 2.02434 5.5067 0
M  V30 1510 C 146.343 2.47674 5.821 0
M  V30 1511 C 145.007 2.8025 6.05819 0
M  V30 1512 H 144.277 -0.083349 0.736297 0
M  V30 1513 H 146.924 0.494677 1.85001 0
M  V30 1514 H 145.229 -1.37185 3.66998 0
M  V30 1515 H 146.926 -1.03756 3.87344 0
M  V30 1516 H 143.516 0.339437 4.27254 0
M  V30 1517 H 147.7 1.14729 4.82857 0
M  V30 1518 H 142.956 2.28075 5.67267 0
M  V30 1519 H 147.13 3.08716 6.24234 0
M  V30 1520 H 144.757 3.65979 6.66306 0
M  V30 1521 N 146.332 -1.57332 0.0918853 0
M  V30 1522 C 147.58 -1.93853 -0.571446 0
M  V30 1523 C 147.901 -0.974212 -1.6892 0
M  V30 1524 O 147.171 -0.0257254 -1.95883 0
M  V30 1525 H 145.751 -0.715666 -0.214082 0
M  V30 1526 H 148.413 -1.94287 0.154464 0
M  V30 1527 H 147.509 -2.96191 -0.983729 0
M  V30 1528 N 147.81 0.181792 -1.56548 0
M  V30 1529 C 149.226 0.53316 -1.50431 0
M  V30 1530 C 149.426 1.85184 -0.794297 0
M  V30 1531 O 148.482 2.50058 -0.350318 0
M  V30 1532 C 149.795 0.575597 -2.9514 0
M  V30 1533 C 151.343 0.663519 -3.05886 0
M  V30 1534 C 151.818 0.736946 -4.52032 0
M  V30 1535 N 153.309 0.800118 -4.56237 0
M  V30 1536 C 154.044 0.877327 -5.66649 0
M  V30 1537 N 153.54 0.916016 -6.86718 0
M  V30 1538 N 155.333 0.915542 -5.54594 0
M  V30 1539 H 147.484 -0.683025 -2.01118 0
M  V30 1540 H 149.747 -0.244988 -0.915797 0
M  V30 1541 H 149.453 -0.324482 -3.502 0
M  V30 1542 H 149.327 1.42572 -3.49218 0
M  V30 1543 H 151.714 1.55403 -2.50867 0
M  V30 1544 H 151.795 -0.21307 -2.54911 0
M  V30 1545 H 151.439 -0.149262 -5.07681 0
M  V30 1546 H 151.369 1.62953 -5.00753 0
M  V30 1547 H 153.86 0.778926 -3.69785 0
M  V30 1548 H 154.173 0.975813 -7.66614 0
M  V30 1549 H 152.518 0.884469 -6.89349 0
M  V30 1550 H 155.709 0.882245 -4.59711 0
M  V30 1551 H 155.882 0.972253 -6.40665 0
M  V30 1552 N 149.288 1.51039 0.449983 0
M  V30 1553 C 150.516 1.66869 1.2232 0
M  V30 1554 C 150.931 0.360727 1.85322 0
M  V30 1555 O 150.288 -0.659531 1.70166 0
M  V30 1556 C 150.339 2.77524 2.31652 0
M  V30 1557 O 150.06 4.03252 1.7123 0
M  V30 1558 C 151.561 3.04512 3.2216 0
M  V30 1559 H 148.781 0.560326 0.369155 0
M  V30 1560 H 151.325 1.97385 0.534719 0
M  V30 1561 H 149.48 2.49642 2.96239 0
M  V30 1562 H 149.894 4.64609 2.43389 0
M  V30 1563 H 151.368 3.85551 3.95038 0
M  V30 1564 H 151.845 2.16415 3.8218 0
M  V30 1565 H 152.451 3.34005 2.63288 0
M  V30 1566 N 150.766 -0.704594 1.40972 0
M  V30 1567 C 152.014 -1.46169 1.39568 0
M  V30 1568 C 152.335 -1.95 0.00253745 0
M  V30 1569 O 151.605 -1.71095 -0.954114 0
M  V30 1570 H 150.185 -0.542326 0.513704 0
M  V30 1571 H 152.847 -0.834553 1.76128 0
M  V30 1572 H 151.943 -2.32922 2.07735 0
M  V30 1573 N 152.244 -1.26651 -0.937939 0
M  V30 1574 C 153.472 -1.15173 -1.7188 0
M  V30 1575 C 153.887 0.292668 -1.86518 0
M  V30 1576 O 153.244 1.20014 -1.37488 0
M  V30 1577 C 153.295 -1.81925 -3.12387 0
M  V30 1578 O 153.016 -3.2072 -2.98446 0
M  V30 1579 C 154.517 -1.76442 -4.06673 0
M  V30 1580 H 151.737 -0.400911 -0.538063 0
M  V30 1581 H 154.281 -1.67332 -1.1756 0
M  V30 1582 H 152.436 -1.33696 -3.63599 0
M  V30 1583 H 152.85 -3.53802 -3.872 0
M  V30 1584 H 154.324 -2.27781 -5.02812 0
M  V30 1585 H 154.801 -0.731608 -4.33064 0
M  V30 1586 H 155.407 -2.24238 -3.61382 0
M  V30 1587 N 153.722 1.14298 -1.08507 0
M  V30 1588 C 154.655 2.18447 -0.660004 0
M  V30 1589 C 155.633 1.59242 0.328749 0
M  V30 1590 O 156.817 1.87062 0.232367 0
M  V30 1591 C 153.944 3.38688 0.0290807 0
M  V30 1592 C 152.99 4.1646 -0.919982 0
M  V30 1593 S 153.823 4.77334 -2.42718 0
M  V30 1594 C 154.979 6.00931 -1.75024 0
M  V30 1595 H 155.212 2.54166 -1.54231 0
M  V30 1596 H 152.745 1.25446 -0.900149 0
M  V30 1597 H 154.703 4.08342 0.420378 0
M  V30 1598 H 153.364 3.01289 0.887895 0
M  V30 1599 H 152.557 5.02529 -0.384751 0
M  V30 1600 H 152.159 3.52414 -1.25223 0
M  V30 1601 H 154.451 6.69017 -1.06877 0
M  V30 1602 H 155.394 6.59044 -2.58971 0
M  V30 1603 H 155.802 5.51089 -1.22317 0
M  V30 1604 N 155.201 0.870884 1.31352 0
M  V30 1605 C 156.131 0.343096 2.30966 0
M  V30 1606 C 157.112 -0.566507 1.60389 0
M  V30 1607 O 158.297 -0.483336 1.88089 0
M  V30 1608 C 155.427 -0.455487 3.443 0
M  V30 1609 C 154.381 0.361103 4.26474 0
M  V30 1610 C 153.707 -0.563221 5.31725 0
M  V30 1611 C 155.007 1.59566 4.97329 0
M  V30 1612 H 156.701 1.17548 2.75359 0
M  V30 1613 H 154.247 0.566686 1.32381 0
M  V30 1614 H 156.2 -0.83525 4.13039 0
M  V30 1615 H 154.924 -1.32139 2.98675 0
M  V30 1616 H 153.583 0.722825 3.59403 0
M  V30 1617 H 153.231 -1.42643 4.82351 0
M  V30 1618 H 152.931 -0.0207409 5.87596 0
M  V30 1619 H 154.455 -0.939808 6.03324 0
M  V30 1620 H 155.869 1.28728 5.58661 0
M  V30 1621 H 154.266 2.07728 5.63 0
M  V30 1622 H 155.336 2.34798 4.24262 0
M  V30 1623 N 156.679 -1.44442 0.630414 0
M  V30 1624 C 157.642 -2.29107 -0.0652523 0
M  V30 1625 C 158.642 -1.41002 -0.772995 0
M  V30 1626 O 159.832 -1.62881 -0.617692 0
M  V30 1627 C 156.964 -3.22564 -1.10296 0
M  V30 1628 H 158.157 -2.92103 0.679401 0
M  V30 1629 H 155.71 -1.51343 0.390517 0
M  V30 1630 H 156.445 -2.64416 -1.87762 0
M  V30 1631 H 156.23 -3.87491 -0.59941 0
M  V30 1632 H 157.72 -3.86167 -1.5895 0
M  V30 1633 N 158.157 -0.370918 -1.53173 0
M  V30 1634 C 159.397 0.217106 -2.03244 0
M  V30 1635 C 159.761 1.45558 -1.25207 0
M  V30 1636 O 160.962 2.11957 -1.65311 0
M  V30 1637 C 159.233 0.496664 -3.53932 0
M  V30 1638 S 160.792 1.0576 -4.25864 0
M  V30 1639 H 157.61 0.0627827 -0.708223 0
M  V30 1640 H 160.212 -0.515019 -1.88594 0
M  V30 1641 H 158.916 -0.412096 -4.08326 0
M  V30 1642 H 158.447 1.25772 -3.72753 0
M  V30 1643 H 160.462 2.34145 -4.37482 0
M  V30 1644 N 159.635 1.57281 -0.100228 0
M  V30 1645 C 160.865 1.98591 0.569681 0
M  V30 1646 C 161.273 0.978315 1.61943 0
M  V30 1647 O 160.616 -0.0396108 1.83657 0
M  V30 1648 C 160.678 3.36282 1.271 0
M  V30 1649 C 160.342 4.55488 0.371409 0
M  V30 1650 C 161.339 5.18491 -0.382504 0
M  V30 1651 C 159.024 5.01474 0.287965 0
M  V30 1652 C 161.018 6.25852 -1.20779 0
M  V30 1653 C 158.705 6.08701 -0.540965 0
M  V30 1654 C 159.703 6.70755 -1.28749 0
M  V30 1655 O 159.391 7.75914 -2.10269 0
M  V30 1656 H 159.123 0.65752 0.156982 0
M  V30 1657 H 161.677 2.0463 -0.177734 0
M  V30 1658 H 159.907 3.26941 2.0651 0
M  V30 1659 H 161.596 3.62005 1.83595 0
M  V30 1660 H 162.362 4.83891 -0.3278 0
M  V30 1661 H 158.241 4.52932 0.858689 0
M  V30 1662 H 161.785 6.74218 -1.79096 0
M  V30 1663 H 157.682 6.42732 -0.597131 0
M  V30 1664 H 158.45 7.92925 -2.03007 0
M  V30 1665 N 161.113 -0.173488 1.56642 0
M  V30 1666 C 162.043 -1.2171 1.99271 0
M  V30 1667 C 163.024 -1.46289 0.867959 0
M  V30 1668 O 164.209 -1.5766 1.13388 0
M  V30 1669 C 161.339 -2.55651 2.35074 0
M  V30 1670 C 160.293 -2.45645 3.50489 0
M  V30 1671 C 159.619 -3.84056 3.72028 0
M  V30 1672 C 160.919 -1.96302 4.84007 0
M  V30 1673 H 162.613 -0.86275 2.867 0
M  V30 1674 H 160.159 -0.413571 1.37933 0
M  V30 1675 H 162.112 -3.2886 2.63494 0
M  V30 1676 H 160.836 -2.92869 1.44552 0
M  V30 1677 H 159.495 -1.7489 3.22194 0
M  V30 1678 H 159.143 -4.18664 2.788 0
M  V30 1679 H 158.843 -3.7823 4.49684 0
M  V30 1680 H 160.367 -4.58854 4.02846 0
M  V30 1681 H 161.781 -2.59284 5.11317 0
M  V30 1682 H 160.178 -2.01429 5.65284 0
M  V30 1683 H 161.248 -0.917226 4.76146 0
M  V30 1684 N 162.591 -1.51276 -0.441967 0
M  V30 1685 C 163.837 -1.63958 -1.19355 0
M  V30 1686 C 164.17 -0.352543 -1.90973 0
M  V30 1687 O 163.445 0.647627 -1.83401 0
M  V30 1688 C 163.728 -2.83979 -2.21422 0
M  V30 1689 C 163.581 -4.22646 -1.53918 0
M  V30 1690 C 164.9 -2.99521 -3.22451 0
M  V30 1691 H 162.019 -0.596709 -0.432559 0
M  V30 1692 H 164.661 -1.83748 -0.483398 0
M  V30 1693 H 162.811 -2.67237 -2.81987 0
M  V30 1694 H 164.483 -4.51045 -0.967256 0
M  V30 1695 H 162.726 -4.25558 -0.841615 0
M  V30 1696 H 163.397 -5.02609 -2.28229 0
M  V30 1697 H 165.873 -3.14944 -2.71937 0
M  V30 1698 H 164.749 -3.85072 -3.91166 0
M  V30 1699 H 165.01 -2.11391 -3.88287 0
M  V30 1700 N 164.069 0.697108 -1.41344 0
M  V30 1701 C 165.016 1.81106 -1.43071 0
M  V30 1702 C 165.986 1.63632 -0.285275 0
M  V30 1703 O 167.171 1.84504 -0.486091 0
M  V30 1704 C 164.311 3.18975 -1.31715 0
M  V30 1705 C 163.424 3.47892 -2.56115 0
M  V30 1706 C 162.559 4.75367 -2.37064 0
M  V30 1707 C 161.598 4.97247 -3.56948 0
M  V30 1708 N 160.735 6.15947 -3.36977 0
M  V30 1709 H 165.575 1.78965 -2.38276 0
M  V30 1710 H 163.112 0.873975 -1.18322 0
M  V30 1711 H 165.07 3.98615 -1.23133 0
M  V30 1712 H 163.7 3.20297 -0.401183 0
M  V30 1713 H 162.752 2.62669 -2.75153 0
M  V30 1714 H 164.064 3.59962 -3.45295 0
M  V30 1715 H 163.218 5.63059 -2.25941 0
M  V30 1716 H 161.957 4.65541 -1.45338 0
M  V30 1717 H 160.962 4.08004 -3.68527 0
M  V30 1718 H 162.187 5.08934 -4.49626 0
M  V30 1719 H 160.133 6.07336 -2.47949 0
M  V30 1720 H 160.05 6.28777 -4.19732 0
M  V30 1721 H 161.318 7.06377 -3.29623 0
M  V30 1722 N 165.547 1.27147 0.931209 0
M  V30 1723 C 166.457 1.11372 2.06478 0
M  V30 1724 C 167.473 0.044645 1.73943 0
M  V30 1725 O 168.649 0.250417 1.99837 0
M  V30 1726 C 165.714 0.758838 3.38294 0
M  V30 1727 C 164.775 1.90841 3.84549 0
M  V30 1728 C 164.008 1.57036 5.10074 0
M  V30 1729 O 164.231 0.476645 5.68405 0
M  V30 1730 O 163.165 2.40839 5.51616 0
M  V30 1731 H 166.991 2.06493 2.22698 0
M  V30 1732 H 164.576 1.06301 1.04978 0
M  V30 1733 H 166.458 0.574098 4.17471 0
M  V30 1734 H 165.133 -0.162879 3.2329 0
M  V30 1735 H 164.04 2.14819 3.06274 0
M  V30 1736 H 165.373 2.81021 4.04089 0
M  V30 1737 N 167.025 -1.13721 1.09112 0
M  V30 1738 C 168.441 -1.36914 0.820174 0
M  V30 1739 C 168.641 -1.93356 -0.567079 0
M  V30 1740 O 167.697 -2.15093 -1.32255 0
M  V30 1741 C 169.01 -2.3235 1.90877 0
M  V30 1742 C 170.558 -2.45973 1.93562 0
M  V30 1743 C 171.033 -3.44714 3.01556 0
M  V30 1744 N 172.524 -3.52263 3.00775 0
M  V30 1745 C 173.259 -4.28536 3.80978 0
M  V30 1746 N 172.755 -5.07991 4.71081 0
M  V30 1747 N 174.548 -4.23804 3.69251 0
M  V30 1748 H 166.699 -0.754348 1.98553 0
M  V30 1749 H 168.962 -0.3944 0.862063 0
M  V30 1750 H 168.668 -1.98027 2.90651 0
M  V30 1751 H 168.542 -3.32332 1.78424 0
M  V30 1752 H 170.929 -2.79584 0.944286 0
M  V30 1753 H 171.01 -1.45926 2.10093 0
M  V30 1754 H 170.654 -3.11835 4.00901 0
M  V30 1755 H 170.584 -4.44558 2.82269 0
M  V30 1756 H 173.075 -2.95567 2.35475 0
M  V30 1757 H 173.388 -5.63487 5.28869 0
M  V30 1758 H 171.733 -5.07235 4.75119 0
M  V30 1759 H 174.924 -3.60806 2.98222 0
M  V30 1760 H 175.097 -4.82995 4.31995 0
M  V30 1761 N 168.503 -0.877838 -1.30888 0
M  V30 1762 C 169.751 -0.491723 -1.96027 0
M  V30 1763 C 170.072 0.960827 -1.69685 0
M  V30 1764 O 169.342 1.67462 -1.01654 0
M  V30 1765 H 167.922 -0.17885 -0.725273 0
M  V30 1766 H 170.584 -1.11935 -1.59551 0
M  V30 1767 H 169.68 -0.656016 -3.05128 0
M  V30 1768 N 169.982 1.44106 -0.638065 0
M  V30 1769 C 170.912 2.33448 0.0494287 0
M  V30 1770 C 171.893 1.48606 0.827672 0
M  V30 1771 O 173.078 1.77308 0.792173 0
M  V30 1772 C 170.208 3.31771 1.02691 0
M  V30 1773 C 169.162 4.26485 0.359823 0
M  V30 1774 C 168.488 5.14729 1.44769 0
M  V30 1775 C 169.788 5.17056 -0.738296 0
M  V30 1776 H 171.482 2.91183 -0.696636 0
M  V30 1777 H 169.028 1.40014 -0.336456 0
M  V30 1778 H 170.981 3.93161 1.51666 0
M  V30 1779 H 169.705 2.7226 1.80395 0
M  V30 1780 H 168.364 3.66437 -0.10934 0
M  V30 1781 H 168.012 4.51566 2.21578 0
M  V30 1782 H 167.712 5.78913 1.00668 0
M  V30 1783 H 169.236 5.78991 1.93911 0
M  V30 1784 H 170.65 5.72342 -0.331354 0
M  V30 1785 H 169.047 5.89879 -1.10286 0
M  V30 1786 H 170.117 4.57652 -1.60258 0
M  V30 1787 N 171.46 0.379036 1.52974 0
M  V30 1788 C 172.423 -0.448865 2.24762 0
M  V30 1789 C 173.423 -0.998689 1.26027 0
M  V30 1790 O 174.613 -0.882313 1.50203 0
M  V30 1791 C 171.745 -1.62872 2.99476 0
M  V30 1792 H 172.938 0.179491 2.99362 0
M  V30 1793 H 170.491 0.13096 1.5575 0
M  V30 1794 H 171.226 -2.29479 2.29151 0
M  V30 1795 H 171.011 -1.24128 3.71934 0
M  V30 1796 H 172.501 -2.2151 3.5401 0
M  V30 1797 N 172.938 -1.57226 0.108567 0
M  V30 1798 C 173.901 -2.13602 -0.831082 0
M  V30 1799 C 174.901 -1.06841 -1.20173 0
M  V30 1800 O 176.091 -1.32666 -1.12895 0
M  V30 1801 C 173.223 -2.66769 -2.12243 0
M  V30 1802 H 174.416 -2.97951 -0.341317 0
M  V30 1803 H 171.969 -1.55667 -0.14057 0
M  V30 1804 H 172.704 -1.85977 -2.65675 0
M  V30 1805 H 172.489 -3.44839 -1.86625 0
M  V30 1806 H 173.979 -3.10332 -2.79435 0
M  V30 1807 N 174.416 0.165178 -1.56732 0
M  V30 1808 C 175.664 0.879068 -1.8198 0
M  V30 1809 C 175.985 1.82514 -0.686561 0
M  V30 1810 O 175.255 1.93694 0.293146 0
M  V30 1811 H 173.835 0.327608 -0.671329 0
M  V30 1812 H 176.497 0.163526 -1.94213 0
M  V30 1813 H 175.593 1.45228 -2.76252 0
M  V30 1814 N 175.894 1.51508 0.433938 0
M  V30 1815 C 177.171 1.54888 1.19453 0
M  V30 1816 C 177.551 0.315154 2.08734 0
M  V30 1817 O 176.899 -0.699558 2.17528 0
M  V30 1818 C 177.109 2.86467 1.99342 0
M  V30 1819 C 178.457 3.38545 2.56267 0
M  V30 1820 O 179.481 2.88041 2.0955 0
M  V30 1821 O 178.34 4.26675 3.41483 0
M  V30 1822 H 175.434 0.622863 0.544032 0
M  V30 1823 H 177.98 1.63823 0.442732 0
M  V30 1824 H 176.752 3.67718 1.33788 0
M  V30 1825 H 176.375 2.8071 2.8158 0
M  V30 1826 N 177.372 -0.689602 1.41712 0
M  V30 1827 C 178.335 -1.78521 1.43746 0
M  V30 1828 C 179.335 -1.57436 0.327191 0
M  V30 1829 O 180.525 -1.64 0.587348 0
M  V30 1830 C 177.657 -3.16971 1.25467 0
M  V30 1831 H 178.85 -1.78108 2.41283 0
M  V30 1832 H 176.403 -0.89781 1.27942 0
M  V30 1833 H 177.138 -3.23019 0.287948 0
M  V30 1834 H 176.923 -3.33678 2.05917 0
M  V30 1835 H 178.413 -3.96935 1.2974 0
M  V30 1836 N 178.85 -1.27639 -0.924453 0
M  V30 1837 C 180.099 -1.13549 -1.66702 0
M  V30 1838 C 180.412 0.317487 -1.93006 0
M  V30 1839 O 181.618 0.579333 -2.65247 0
M  V30 1840 C 180.074 -1.98426 -3.00259 0
M  V30 1841 C 179.682 -3.484 -2.81641 0
M  V30 1842 C 181.426 -1.92993 -3.78092 0
M  V30 1843 C 179.333 -4.25464 -4.10773 0
M  V30 1844 H 178.263 -0.421351 -0.625283 0
M  V30 1845 H 180.914 -1.52085 -1.02676 0
M  V30 1846 H 179.296 -1.52736 -3.6536 0
M  V30 1847 H 180.47 -4.01973 -2.25287 0
M  V30 1848 H 178.785 -3.55245 -2.17232 0
M  V30 1849 H 181.382 -2.47844 -4.7379 0
M  V30 1850 H 181.725 -0.904281 -4.0636 0
M  V30 1851 H 182.258 -2.36595 -3.19793 0
M  V30 1852 H 178.997 -5.28566 -3.87683 0
M  V30 1853 H 178.517 -3.76667 -4.66779 0
M  V30 1854 H 180.196 -4.34812 -4.79111 0
M  V30 1855 N 180.328 1.1314 -1.09713 0
M  V30 1856 C 181.291 2.16831 -0.742751 0
M  V30 1857 C 182.291 1.59159 0.229129 0
M  V30 1858 O 183.481 1.74199 0.00693237 0
M  V30 1859 C 180.613 3.40756 -0.0989168 0
M  V30 1860 H 181.806 2.49695 -1.66109 0
M  V30 1861 H 179.359 1.2802 -0.896699 0
M  V30 1862 H 180.094 3.13485 0.830514 0
M  V30 1863 H 179.879 3.83888 -0.798265 0
M  V30 1864 H 181.369 4.17386 0.133524 0
M  V30 1865 N 181.806 0.884767 1.30421 0
M  V30 1866 C 182.716 0.355398 2.31892 0
M  V30 1867 C 183.732 -0.542261 1.65335 0
M  V30 1868 O 184.908 -0.435432 1.96637 0
M  V30 1869 C 181.973 -0.421661 3.44126 0
M  V30 1870 C 181.034 0.505727 4.26311 0
M  V30 1871 C 180.267 -0.234343 5.33185 0
M  V30 1872 O 180.49 -1.46045 5.51386 0
M  V30 1873 O 179.424 0.415443 6.00465 0
M  V30 1874 H 183.25 1.19685 2.79122 0
M  V30 1875 H 180.835 0.648596 1.34587 0
M  V30 1876 H 182.717 -0.861641 4.12497 0
M  V30 1877 H 181.392 -1.23942 2.99032 0
M  V30 1878 H 180.299 0.994513 3.60639 0
M  V30 1879 H 181.632 1.28948 4.75009 0
M  V30 1880 N 183.284 -1.43765 0.645699 0
M  V30 1881 C 184.533 -2.01116 0.153412 0
M  V30 1882 C 184.846 -1.51493 -1.23731 0
M  V30 1883 O 186.052 -2.01067 -1.8244 0
M  V30 1884 C 184.508 -3.59206 0.223473 0
M  V30 1885 C 184.116 -4.17823 1.61642 0
M  V30 1886 C 185.86 -4.23972 -0.211597 0
M  V30 1887 C 183.767 -5.68183 1.64081 0
M  V30 1888 H 182.697 -0.752093 0.0535891 0
M  V30 1889 H 185.348 -1.6482 0.806633 0
M  V30 1890 H 183.73 -3.92867 -0.497118 0
M  V30 1891 H 184.904 -3.95674 2.36176 0
M  V30 1892 H 183.219 -3.65399 1.99681 0
M  V30 1893 H 185.816 -5.34275 -0.213112 0
M  V30 1894 H 186.159 -3.97352 -1.24165 0
M  V30 1895 H 186.692 -3.95166 0.456988 0
M  V30 1896 H 183.431 -5.99559 2.64971 0
M  V30 1897 H 182.951 -5.9241 0.938611 0
M  V30 1898 H 184.63 -6.32085 1.3812 0
M  V30 1899 N 184.763 -0.387143 -1.52771 0
M  V30 1900 C 186.179 -0.037007 -1.59557 0
M  V30 1901 C 186.379 1.44801 -1.40124 0
M  V30 1902 O 185.435 2.21227 -1.21716 0
M  V30 1903 C 186.748 -0.512256 -2.96305 0
M  V30 1904 C 188.296 -0.468328 -3.09476 0
M  V30 1905 C 188.771 -0.919731 -4.4867 0
M  V30 1906 N 190.262 -0.875656 -4.54848 0
M  V30 1907 C 190.997 -1.19637 -5.6078 0
M  V30 1908 N 190.493 -1.58745 -6.74368 0
M  V30 1909 N 192.286 -1.11776 -5.50874 0
M  V30 1910 H 184.437 -1.35395 -1.63652 0
M  V30 1911 H 186.7 -0.554818 -0.768688 0
M  V30 1912 H 186.406 -1.54935 -3.15734 0
M  V30 1913 H 186.28 0.089805 -3.77093 0
M  V30 1914 H 188.667 0.559671 -2.89744 0
M  V30 1915 H 188.748 -1.10616 -2.30646 0
M  V30 1916 H 188.392 -1.94595 -4.69143 0
M  V30 1917 H 188.322 -0.258927 -5.25963 0
M  V30 1918 H 190.813 -0.587843 -3.733 0
M  V30 1919 H 191.126 -1.81586 -7.51163 0
M  V30 1920 H 189.471 -1.6263 -6.75705 0
M  V30 1921 H 192.662 -0.811264 -4.61016 0
M  V30 1922 H 192.835 -1.37103 -6.3333 0
M  V30 1923 N 186.241 1.57166 -0.116904 0
M  V30 1924 C 187.657 1.5779 0.239693 0
M  V30 1925 C 187.857 1.1295 1.66867 0
M  V30 1926 O 186.913 0.81592 2.38954 0
M  V30 1927 C 188.226 3.00699 0.00828202 0
M  V30 1928 C 189.774 3.12912 0.0743438 0
M  V30 1929 C 190.249 4.57817 -0.129348 0
M  V30 1930 N 191.74 4.63139 -0.075247 0
M  V30 1931 C 192.475 5.73023 -0.207788 0
M  V30 1932 N 191.971 6.91665 -0.396382 0
M  V30 1933 N 193.764 5.61906 -0.14751 0
M  V30 1934 H 185.915 1.84615 -1.05029 0
M  V30 1935 H 188.178 0.85311 -0.41341 0
M  V30 1936 H 187.884 3.37784 -0.979531 0
M  V30 1937 H 187.758 3.69848 0.741077 0
M  V30 1938 H 190.145 2.75686 1.05268 0
M  V30 1939 H 190.226 2.4631 -0.690297 0
M  V30 1940 H 189.87 4.95742 -1.10465 0
M  V30 1941 H 189.8 5.22507 0.655253 0
M  V30 1942 H 192.291 3.7784 0.0670898 0
M  V30 1943 H 192.604 7.71255 -0.488437 0
M  V30 1944 H 190.949 6.93654 -0.432329 0
M  V30 1945 H 194.14 4.681 -0.00115036 0
M  V30 1946 H 194.313 6.47501 -0.254247 0
M  V30 1947 N 187.719 -0.156864 1.56817 0
M  V30 1948 C 188.649 -1.19589 2.00551 0
M  V30 1949 C 189.63 -1.4536 0.883426 0
M  V30 1950 O 190.815 -1.56449 1.15054 0
M  V30 1951 C 187.945 -2.53143 2.37773 0
M  V30 1952 C 186.899 -2.41913 3.53075 0
M  V30 1953 C 186.225 -3.80088 3.76081 0
M  V30 1954 C 187.525 -1.91157 4.86062 0
M  V30 1955 H 189.219 -0.832293 2.87599 0
M  V30 1956 H 186.765 -0.398918 1.38364 0
M  V30 1957 H 188.718 -3.26047 2.66967 0
M  V30 1958 H 187.442 -2.91319 1.4765 0
M  V30 1959 H 186.101 -1.71462 3.24031 0
M  V30 1960 H 185.749 -4.15683 2.83225 0
M  V30 1961 H 185.449 -3.73439 4.53671 0
M  V30 1962 H 186.973 -4.54556 4.0769 0
M  V30 1963 H 188.387 -2.53846 5.14038 0
M  V30 1964 H 186.784 -1.95422 5.67389 0
M  V30 1965 H 187.854 -0.866673 4.77092 0
M  V30 1966 N 189.197 -1.51736 -0.425897 0
M  V30 1967 C 190.613 -1.40166 -0.76326 0
M  V30 1968 C 190.813 -0.492962 -1.95377 0
M  V30 1969 O 189.869 0.0475815 -2.52455 0
M  V30 1970 C 191.182 -2.82403 -1.03291 0
M  V30 1971 C 192.73 -2.91632 -1.13665 0
M  V30 1972 C 193.205 -4.34801 -1.43916 0
M  V30 1973 N 194.696 -4.3796 -1.50816 0
M  V30 1974 C 195.431 -5.4578 -1.75817 0
M  V30 1975 N 194.927 -6.63744 -1.98534 0
M  V30 1976 N 196.72 -5.33274 -1.77694 0
M  V30 1977 H 188.871 -2.09361 0.358 0
M  V30 1978 H 191.134 -0.942941 0.0978094 0
M  V30 1979 H 190.84 -3.50943 -0.230696 0
M  V30 1980 H 190.714 -3.22428 -1.95754 0
M  V30 1981 H 193.101 -2.23284 -1.92947 0
M  V30 1982 H 193.182 -2.55088 -0.190756 0
M  V30 1983 H 192.826 -5.03703 -0.65157 0
M  V30 1984 H 192.756 -4.68868 -2.39729 0
M  V30 1985 H 195.247 -3.52919 -1.35118 0
M  V30 1986 H 195.56 -7.41704 -2.17013 0
M  V30 1987 H 193.905 -6.66839 -1.95832 0
M  V30 1988 H 197.096 -4.40098 -1.59473 0
M  V30 1989 H 197.269 -6.1738 -1.9684 0
M  V30 1990 N 190.675 0.682077 -1.42076 0
M  V30 1991 C 192.086 1.26246 -1.37546 0
M  V30 1992 C 192.437 1.96092 -0.0651481 0
M  V30 1993 O 191.562 1.99587 0.836297 0
M  V30 1994 C 192.157 2.29594 -2.49143 0
M  V30 1995 C 190.716 2.83175 -2.47969 0
M  V30 1996 C 189.863 1.57395 -2.28303 0
M  V30 1997 H 192.814 0.475937 -1.51395 0
M  V30 1998 H 192.835 3.11175 -2.18976 0
M  V30 1999 H 192.347 1.78729 -3.44496 0
M  V30 2000 H 190.448 3.3818 -1.56413 0
M  V30 2001 H 190.561 3.32687 -3.44755 0
M  V30 2002 H 188.925 1.83699 -1.76428 0
M  V30 2003 H 189.708 1.08507 -3.25701 0
M  V30 2004 N 192.153 1.28127 0.917671 0
M  V30 2005 C 193.401 1.14825 1.66312 0
M  V30 2006 C 193.722 -0.304379 1.9261 0
M  V30 2007 O 192.992 -1.21149 1.53947 0
M  V30 2008 H 191.572 0.421953 0.616413 0
M  V30 2009 H 194.234 1.608 1.10134 0
M  V30 2010 H 193.33 1.68489 2.62712 0
M  V30 2011 N 193.631 -1.12557 1.10312 0
M  V30 2012 C 194.856 -1.88405 0.867085 0
M  V30 2013 C 195.281 -1.79038 -0.576817 0
M  V30 2014 O 194.639 -1.14439 -1.40618 0
M  V30 2015 C 194.687 -3.3563 1.31851 0
M  V30 2016 O 193.791 -4.09565 0.482734 0
M  V30 2017 H 193.132 -0.585455 0.313271 0
M  V30 2018 H 195.662 -1.42352 1.4696 0
M  V30 2019 H 195.672 -3.86469 1.3079 0
M  V30 2020 H 194.347 -3.41765 2.37001 0
M  V30 2021 H 192.924 -3.68695 0.558448 0
M  V30 2022 N 195.109 -0.891671 -1.2995 0
M  V30 2023 C 196.358 -0.509521 -1.95158 0
M  V30 2024 C 196.671 0.947388 -1.71125 0
M  V30 2025 O 197.877 1.43669 -2.30372 0
M  V30 2026 C 196.333 -0.860315 -3.49466 0
M  V30 2027 C 195.941 -2.33545 -3.8231 0
M  V30 2028 C 197.685 -0.547687 -4.20952 0
M  V30 2029 C 195.592 -2.62752 -5.29826 0
M  V30 2030 H 194.522 -0.18682 -0.730489 0
M  V30 2031 H 197.173 -1.08756 -1.47798 0
M  V30 2032 H 195.555 -0.211285 -3.95436 0
M  V30 2033 H 196.729 -3.02936 -3.47227 0
M  V30 2034 H 195.044 -2.61629 -3.23944 0
M  V30 2035 H 197.641 -0.742854 -5.29515 0
M  V30 2036 H 197.984 0.51332 -4.13123 0
M  V30 2037 H 198.517 -1.1542 -3.80688 0
M  V30 2038 H 195.256 -3.6762 -5.42712 0
M  V30 2039 H 194.776 -1.97977 -5.66185 0
M  V30 2040 H 196.455 -2.48601 -5.97333 0
M  V30 2041 N 196.587 1.43421 -0.653314 0
M  V30 2042 C 197.497 2.34568 0.0388565 0
M  V30 2043 C 198.513 1.53888 0.81207 0
M  V30 2044 O 199.689 1.86539 0.759294 0
M  V30 2045 C 196.754 3.32167 0.993269 0
M  V30 2046 C 195.815 4.28751 0.216977 0
M  V30 2047 C 195.048 5.21688 1.12593 0
M  V30 2048 O 195.271 5.19052 2.36519 0
M  V30 2049 O 194.205 5.98919 0.598284 0
M  V30 2050 H 198.031 2.95251 -0.711386 0
M  V30 2051 H 195.616 1.43564 -0.413502 0
M  V30 2052 H 197.498 3.92183 1.54176 0
M  V30 2053 H 196.173 2.73987 1.72374 0
M  V30 2054 H 195.08 3.72215 -0.375101 0
M  V30 2055 H 196.413 4.89913 -0.473924 0
M  V30 2056 N 198.065 0.39524 1.52563 0
M  V30 2057 C 199.293 -0.184943 2.06072 0
M  V30 2058 C 199.708 -1.40021 1.26647 0
M  V30 2059 O 199.065 -1.79767 0.314672 0
M  V30 2060 C 199.116 -0.549179 3.57304 0
M  V30 2061 O 198.837 0.617813 4.33722 0
M  V30 2062 C 200.338 -1.18459 4.2718 0
M  V30 2063 H 197.558 -0.0265025 0.670476 0
M  V30 2064 H 200.102 0.562184 1.96621 0
M  V30 2065 H 198.257 -1.2462 3.66809 0
M  V30 2066 H 198.671 0.317091 5.23541 0
M  V30 2067 H 200.145 -1.38976 5.34219 0
M  V30 2068 H 200.622 -2.15368 3.82771 0
M  V30 2069 H 201.228 -0.528163 4.22008 0
M  V30 2070 N 199.544 -1.57102 0.125237 0
M  V30 2071 C 200.774 -1.99472 -0.538015 0
M  V30 2072 C 201.182 -1.00395 -1.60366 0
M  V30 2073 O 200.525 0.0103875 -1.83697 0
M  V30 2074 C 200.587 -3.38262 -1.21734 0
M  V30 2075 C 200.251 -4.56021 -0.298897 0
M  V30 2076 C 201.248 -5.17817 0.464943 0
M  V30 2077 C 198.933 -5.01869 -0.208149 0
M  V30 2078 C 200.927 -6.23852 1.3072 0
M  V30 2079 C 198.614 -6.07763 0.637736 0
M  V30 2080 C 199.612 -6.68622 1.39403 0
M  V30 2081 O 199.3 -7.7247 2.22586 0
M  V30 2082 H 199.032 -0.659934 -0.146501 0
M  V30 2083 H 201.586 -2.04321 0.210267 0
M  V30 2084 H 199.816 -3.30185 -2.01282 0
M  V30 2085 H 201.505 -3.6488 -1.77813 0
M  V30 2086 H 202.271 -4.83308 0.404741 0
M  V30 2087 H 198.15 -4.54241 -0.786522 0
M  V30 2088 H 201.694 -6.71284 1.898 0
M  V30 2089 H 197.591 -6.41701 0.699309 0
M  V30 2090 H 198.359 -7.89595 2.15596 0
M  V30 2091 N 201.022 0.148545 -1.56898 0
M  V30 2092 C 201.932 1.20293 -2.01412 0
M  V30 2093 C 202.948 1.47107 -0.929273 0
M  V30 2094 O 204.124 1.58807 -1.23863 0
M  V30 2095 C 201.189 2.51682 -2.38447 0
M  V30 2096 C 200.25 2.32529 -3.60872 0
M  V30 2097 C 199.483 3.57653 -3.96132 0
M  V30 2098 O 199.706 4.63771 -3.32073 0
M  V30 2099 O 198.64 3.50408 -4.89385 0
M  V30 2100 H 202.466 0.855025 -2.91416 0
M  V30 2101 H 200.051 0.357151 -1.45068 0
M  V30 2102 H 201.933 3.29147 -2.63135 0
M  V30 2103 H 200.608 2.86006 -1.51599 0
M  V30 2104 H 199.515 1.53019 -3.41373 0
M  V30 2105 H 200.848 2.03121 -4.48333 0
M  V30 2106 N 202.5 1.5196 0.417844 0
M  V30 2107 C 203.432 1.70895 1.52733 0
M  V30 2108 C 204.445 0.589405 1.51756 0
M  V30 2109 O 205.634 0.864312 1.56179 0
M  V30 2110 C 202.734 1.72627 2.91639 0
M  V30 2111 C 201.907 3.01479 3.16905 0
M  V30 2112 C 200.966 2.95139 4.35637 0
M  V30 2113 O 199.992 3.69059 4.3334 0
M  V30 2114 N 201.194 2.12328 5.40275 0
M  V30 2115 H 203.959 2.66612 1.36888 0
M  V30 2116 H 201.52 1.50089 0.607037 0
M  V30 2117 H 203.512 1.65928 3.6912 0
M  V30 2118 H 202.082 0.844216 3.00985 0
M  V30 2119 H 201.302 3.21895 2.27546 0
M  V30 2120 H 202.59 3.86736 3.30625 0
M  V30 2121 H 201.988 1.51685 5.44985 0
M  V30 2122 H 200.545 2.11494 6.16534 0
M  V30 2123 N 203.978 -0.674533 1.42435 0
M  V30 2124 C 204.888 -1.81751 1.48337 0
M  V30 2125 C 205.904 -1.69975 0.372099 0
M  V30 2126 O 207.08 -1.91521 0.62304 0
M  V30 2127 C 204.145 -3.17895 1.38361 0
M  V30 2128 C 203.206 -3.41625 2.59982 0
M  V30 2129 C 202.439 -4.71274 2.50473 0
M  V30 2130 O 202.662 -5.49197 1.54075 0
M  V30 2131 O 201.596 -4.96254 3.4061 0
M  V30 2132 H 205.422 -1.79728 2.44809 0
M  V30 2133 H 203.007 -0.830312 1.24202 0
M  V30 2134 H 204.889 -3.99136 1.35161 0
M  V30 2135 H 203.564 -3.20555 0.450144 0
M  V30 2136 H 202.471 -2.60231 2.68757 0
M  V30 2137 H 203.804 -3.43796 3.52229 0
M  V30 2138 N 205.456 -1.28612 -0.910864 0
M  V30 2139 C 206.403 -1.12786 -2.01365 0
M  V30 2140 C 207.373 -0.024201 -1.66082 0
M  V30 2141 O 208.558 -0.189667 -1.89855 0
M  V30 2142 C 205.698 -0.798743 -3.35729 0
M  V30 2143 C 204.811 -1.98173 -3.83864 0
M  V30 2144 C 203.946 -1.59298 -5.06752 0
M  V30 2145 C 202.985 -2.74245 -5.47226 0
M  V30 2146 N 202.122 -2.35842 -6.61304 0
M  V30 2147 H 206.962 -2.07142 -2.14234 0
M  V30 2148 H 204.499 -1.03093 -1.0493 0
M  V30 2149 H 206.457 -0.588662 -4.13026 0
M  V30 2150 H 205.087 0.10789 -3.2262 0
M  V30 2151 H 204.139 -2.30386 -3.02699 0
M  V30 2152 H 205.451 -2.84343 -4.09818 0
M  V30 2153 H 204.605 -1.34513 -5.916 0
M  V30 2154 H 203.344 -0.702618 -4.82612 0
M  V30 2155 H 202.349 -2.99725 -4.60918 0
M  V30 2156 H 203.574 -3.63928 -5.73353 0
M  V30 2157 H 201.52 -1.49279 -6.38789 0
M  V30 2158 H 201.437 -3.15546 -6.86998 0
M  V30 2159 H 202.705 -2.14348 -7.4945 0
M  V30 2160 N 206.934 1.1197 -1.10907 0
M  V30 2161 C 207.897 2.16031 -0.765707 0
M  V30 2162 C 208.897 1.59393 0.212235 0
M  V30 2163 O 210.087 1.74196 -0.0115441 0
M  V30 2164 C 207.219 3.40632 -0.135053 0
M  V30 2165 H 208.412 2.47919 -1.68748 0
M  V30 2166 H 205.965 1.27061 -0.910226 0
M  V30 2167 H 206.7 3.14348 0.797218 0
M  V30 2168 H 206.485 3.8302 -0.838937 0
M  V30 2169 H 207.975 4.17505 0.0892469 0
M  V30 2170 N 208.412 0.89855 1.29475 0
M  V30 2171 C 209.658 0.524658 1.95896 0
M  V30 2172 C 209.991 -0.926468 1.70676 0
M  V30 2173 O 209.266 -1.65665 1.01908 0
M  V30 2174 C 209.549 0.81633 3.50725 0
M  V30 2175 C 209.402 2.31907 3.85408 0
M  V30 2176 C 210.721 0.302038 4.39062 0
M  V30 2177 H 207.84 0.19209 0.711527 0
M  V30 2178 H 210.482 1.12502 1.53112 0
M  V30 2179 H 208.632 0.305369 3.87298 0
M  V30 2180 H 210.304 2.89949 3.58786 0
M  V30 2181 H 208.547 2.78027 3.32992 0
M  V30 2182 H 209.218 2.47373 4.93468 0
M  V30 2183 H 211.694 0.739551 4.09475 0
M  V30 2184 H 210.57 0.535331 5.46283 0
M  V30 2185 H 210.831 -0.797216 4.34853 0
M  V30 2186 N 209.89 -1.43072 0.660911 0
M  V30 2187 C 211.137 -2.01721 0.177445 0
M  V30 2188 C 211.465 -1.5218 -1.21126 0
M  V30 2189 O 210.72 -0.708659 -1.82419 0
M  V30 2190 C 211.019 -3.57103 0.145563 0
M  V30 2191 C 210.685 -4.26021 1.47705 0
M  V30 2192 C 209.347 -4.44563 1.84165 0
M  V30 2193 C 211.699 -4.64983 2.35458 0
M  V30 2194 C 209.027 -4.99334 3.0803 0
M  V30 2195 C 211.379 -5.21127 3.58622 0
M  V30 2196 C 210.043 -5.37884 3.95268 0
M  V30 2197 H 209.313 -0.73815 0.0649317 0
M  V30 2198 H 211.96 -1.71446 0.853144 0
M  V30 2199 H 210.265 -3.86965 -0.61361 0
M  V30 2200 H 211.962 -4.00248 -0.2455 0
M  V30 2201 H 208.552 -4.11939 1.18339 0
M  V30 2202 H 212.736 -4.50343 2.08579 0
M  V30 2203 H 207.992 -5.10493 3.36462 0
M  V30 2204 H 212.166 -5.50262 4.26831 0
M  V30 2205 H 209.793 -5.80089 4.91325 0
M  V30 2206 N 211.368 -0.403325 -1.52352 0
M  V30 2207 C 212.3 0.4603 -2.2453 0
M  V30 2208 C 213.313 1.01505 -1.27282 0
M  V30 2209 O 214.502 0.914982 -1.53266 0
M  V30 2210 C 211.602 1.65208 -2.95905 0
M  V30 2211 C 210.775 1.22224 -4.19976 0
M  V30 2212 C 209.834 2.28028 -4.74226 0
M  V30 2213 O 208.86 1.88857 -5.36956 0
M  V30 2214 N 210.062 3.6012 -4.55295 0
M  V30 2215 H 212.827 -0.158156 -2.99282 0
M  V30 2216 H 210.388 -0.230402 -1.60252 0
M  V30 2217 H 212.38 2.35541 -3.29093 0
M  V30 2218 H 210.95 2.17658 -2.24374 0
M  V30 2219 H 210.17 0.34725 -3.92668 0
M  V30 2220 H 211.458 0.911924 -5.00561 0
M  V30 2221 H 210.856 3.94698 -4.05253 0
M  V30 2222 H 209.413 4.26447 -4.92936 0
M  V30 2223 N 212.846 1.57033 -0.133567 0
M  V30 2224 C 214.093 1.95686 0.520877 0
M  V30 2225 C 214.421 1.0177 1.6575 0
M  V30 2226 O 213.676 0.0443195 1.9565 0
M  V30 2227 C 213.975 3.40674 1.08057 0
M  V30 2228 C 213.641 4.50855 0.0637899 0
M  V30 2229 C 212.303 4.80716 -0.215757 0
M  V30 2230 C 214.655 5.17398 -0.62835 0
M  V30 2231 C 211.983 5.74433 -1.19348 0
M  V30 2232 C 214.335 6.12167 -1.5948 0
M  V30 2233 C 212.999 6.40414 -1.88218 0
M  V30 2234 H 212.269 0.716067 0.190602 0
M  V30 2235 H 214.916 1.9026 -0.217556 0
M  V30 2236 H 213.221 3.42865 1.89606 0
M  V30 2237 H 214.918 3.67902 1.59529 0
M  V30 2238 H 211.508 4.27605 0.291855 0
M  V30 2239 H 215.692 4.94472 -0.425562 0
M  V30 2240 H 210.948 5.94616 -1.42272 0
M  V30 2241 H 215.122 6.6281 -2.13671 0
M  V30 2242 H 212.749 7.12838 -2.64133 0
M  V30 2243 N 214.325 -0.140222 1.56975 0
M  V30 2244 C 215.555 -0.865181 1.87612 0
M  V30 2245 C 215.963 -1.74942 0.72055 0
M  V30 2246 O 215.306 -1.80917 -0.318561 0
M  V30 2247 C 215.368 -1.76782 3.13031 0
M  V30 2248 C 215.032 -1.06005 4.44536 0
M  V30 2249 C 216.029 -0.410768 5.18275 0
M  V30 2250 C 213.714 -1.04754 4.91255 0
M  V30 2251 C 215.708 0.241572 6.36942 0
M  V30 2252 C 213.395 -0.391394 6.09845 0
M  V30 2253 C 214.393 0.252029 6.82535 0
M  V30 2254 O 214.081 0.897757 7.98871 0
M  V30 2255 H 213.813 -0.255188 0.625983 0
M  V30 2256 H 216.367 -0.135653 2.04952 0
M  V30 2257 H 214.597 -2.53846 2.91718 0
M  V30 2258 H 216.286 -2.36533 3.29859 0
M  V30 2259 H 217.052 -0.412195 4.83245 0
M  V30 2260 H 212.931 -1.53777 4.34596 0
M  V30 2261 H 216.475 0.744375 6.93617 0
M  V30 2262 H 212.372 -0.387656 6.44335 0
M  V30 2263 H 213.14 0.800102 8.1458 0
M  V30 2264 N 215.803 -1.52179 -0.40978 0
M  V30 2265 C 216.735 -1.71703 -1.51825 0
M  V30 2266 C 217.748 -0.597445 -1.51441 0
M  V30 2267 O 218.937 -0.872582 -1.55719 0
M  V30 2268 C 216.037 -1.74171 -2.90719 0
M  V30 2269 C 215.21 -3.03156 -3.15302 0
M  V30 2270 C 214.269 -2.97445 -4.34065 0
M  V30 2271 O 213.295 -3.71352 -4.31377 0
M  V30 2272 N 214.497 -2.15191 -5.39141 0
M  V30 2273 H 217.262 -2.67334 -1.35472 0
M  V30 2274 H 214.823 -1.50409 -0.599069 0
M  V30 2275 H 216.815 -1.67884 -3.68235 0
M  V30 2276 H 215.385 -0.860166 -3.00533 0
M  V30 2277 H 214.605 -3.23097 -2.25836 0
M  V30 2278 H 215.893 -3.88484 -3.28569 0
M  V30 2279 H 215.291 -1.54573 -5.44173 0
M  V30 2280 H 213.848 -2.1476 -6.15403 0
M  V30 2281 N 217.281 0.66697 -1.42791 0
M  V30 2282 C 218.697 0.981027 -1.25889 0
M  V30 2283 C 218.897 2.00793 -0.168695 0
M  V30 2284 O 217.953 2.48321 0.45747 0
M  V30 2285 C 219.266 1.47838 -2.61848 0
M  V30 2286 C 220.814 1.59575 -2.69267 0
M  V30 2287 C 221.289 2.12704 -4.05612 0
M  V30 2288 N 222.78 2.20026 -4.07606 0
M  V30 2289 C 223.515 2.62227 -5.09926 0
M  V30 2290 N 223.011 3.03824 -6.22626 0
M  V30 2291 N 224.804 2.62045 -4.97281 0
M  V30 2292 H 216.955 -0.0127891 -2.12396 0
M  V30 2293 H 219.218 0.0568258 -0.946295 0
M  V30 2294 H 218.924 0.798299 -3.4252 0
M  V30 2295 H 218.798 2.45579 -2.86305 0
M  V30 2296 H 221.185 2.26687 -1.88936 0
M  V30 2297 H 221.266 0.60302 -2.48591 0
M  V30 2298 H 220.91 1.46198 -4.86404 0
M  V30 2299 H 220.84 3.12782 -4.23645 0
M  V30 2300 H 223.331 1.90708 -3.2625 0
M  V30 2301 H 223.644 3.34734 -6.96544 0
M  V30 2302 H 221.989 3.01662 -6.26119 0
M  V30 2303 H 225.18 2.28916 -4.08308 0
M  V30 2304 H 225.353 2.94613 -5.77154 0
M  V30 2305 N 218.759 1.29093 0.90403 0
M  V30 2306 C 219.987 1.19689 1.68766 0
M  V30 2307 C 220.402 -0.243113 1.87228 0
M  V30 2308 O 219.759 -1.16326 1.40621 0
M  V30 2309 C 219.81 1.90144 3.07453 0
M  V30 2310 O 219.531 3.2852 2.89838 0
M  V30 2311 C 221.032 1.87162 4.01852 0
M  V30 2312 H 218.252 0.415035 0.527244 0
M  V30 2313 H 220.796 1.7039 1.13082 0
M  V30 2314 H 218.951 1.43289 3.59926 0
M  V30 2315 H 219.365 3.63944 3.77684 0
M  V30 2316 H 220.839 2.41032 4.96596 0
M  V30 2317 H 221.316 0.84617 4.30972 0
M  V30 2318 H 221.922 2.33741 3.5531 0
M  V30 2319 N 220.237 -1.11381 1.11499 0
M  V30 2320 C 221.184 -2.17439 0.773887 0
M  V30 2321 C 222.154 -1.64132 -0.254899 0
M  V30 2322 O 223.339 -1.90345 -0.13168 0
M  V30 2323 C 220.479 -3.44373 0.223917 0
M  V30 2324 C 219.592 -4.1168 1.30934 0
M  V30 2325 C 218.727 -5.263 0.71984 0
M  V30 2326 C 217.766 -5.85493 1.78507 0
M  V30 2327 N 216.903 -6.91507 1.21502 0
M  V30 2328 H 221.743 -2.45962 1.68246 0
M  V30 2329 H 219.28 -1.20744 0.840191 0
M  V30 2330 H 221.238 -4.17047 -0.112921 0
M  V30 2331 H 219.868 -3.16232 -0.647851 0
M  V30 2332 H 218.92 -3.37073 1.76312 0
M  V30 2333 H 220.232 -4.51729 2.11524 0
M  V30 2334 H 219.386 -6.05785 0.333094 0
M  V30 2335 H 218.125 -4.87559 -0.117377 0
M  V30 2336 H 217.13 -5.04686 2.18111 0
M  V30 2337 H 218.355 -6.26301 2.62533 0
M  V30 2338 H 216.301 -6.54783 0.399455 0
M  V30 2339 H 216.218 -7.30214 1.95763 0
M  V30 2340 H 217.486 -7.74795 0.855181 0
M  V30 2341 O 221.754 -1.0376 -1.23758 0
M  V30 2342 H 222.445 -0.707174 -1.8033 0
M  V30 END ATOM
M  V30 BEGIN BOND
M  V30 END BOND
M  V30 END CTAB
M  END
$$$$
