drugbank_target|Q9BVM4 Gamma-glutamylaminecyclotransferase (DB01942)
 OpenBabel12092120563D

  0  0  0     0  0            999 V3000
M  V30 BEGIN CTAB
M  V30 COUNTS 2411 2449 0 0 0
M  V30 BEGIN ATOM
M  V30 1 H -0.908 1.98254 -0.117106 0
M  V30 2 N 0 1.576 0 0
M  V30 3 C 0.933 2.03868 1.02534 0
M  V30 4 C 1.911 0.928543 1.3348 0
M  V30 5 O 3.095 1.19667 1.45644 0
M  V30 6 C 0.222 2.43627 2.35294 0
M  V30 7 C -0.732 3.65373 2.2001 0
M  V30 8 S 0.101 5.13292 1.52614 0
M  V30 9 C 1.257 5.56322 2.86805 0
M  V30 10 H 1.49 2.90518 0.631377 0
M  V30 11 H -0.977 1.52953 0.210867 0
M  V30 12 H 0.981 2.67203 3.11629 0
M  V30 13 H -0.358 1.57376 2.7183 0
M  V30 14 H -1.165 3.90944 3.18086 0
M  V30 15 H -1.563 3.418 1.51819 0
M  V30 16 H 0.729 5.58782 3.83104 0
M  V30 17 H 1.672 6.56266 2.65933 0
M  V30 18 H 2.08 4.83886 2.90714 0
M  V30 19 N 1.4781 -0.272755 1.55222 0
M  V30 20 C 2.4411 -1.32041 1.87344 0
M  V30 21 C 3.4411 -1.42342 0.74803 0
M  V30 22 O 4.6311 -1.41488 1.0162 0
M  V30 23 C 1.7631 -2.70173 2.07893 0
M  V30 24 H 2.9561 -1.04789 2.80997 0
M  V30 25 H 0.5091 -0.51083 1.47717 0
M  V30 26 H 1.2441 -3.02605 1.16622 0
M  V30 27 H 1.0291 -2.64082 2.89833 0
M  V30 28 H 2.5191 -3.45869 2.34017 0
M  V30 29 N 2.9562 -1.48159 -0.537278 0
M  V30 30 C 3.8862 -1.65029 -1.6519 0
M  V30 31 C 4.8672 -0.499281 -1.62607 0
M  V30 32 O 6.0522 -0.730972 -1.79918 0
M  V30 33 C 3.1822 -1.68303 -3.03795 0
M  V30 34 C 2.1362 -2.8283 -3.21234 0
M  V30 35 C 1.4622 -2.71189 -4.60826 0
M  V30 36 C 2.7622 -4.24211 -3.04701 0
M  V30 37 H 4.4562 -2.58341 -1.51328 0
M  V30 38 H 2.0022 -1.24325 -0.726585 0
M  V30 39 H 3.9552 -1.78693 -3.81637 0
M  V30 40 H 2.6792 -0.715635 -3.18663 0
M  V30 41 H 1.3382 -2.71983 -2.45807 0
M  V30 42 H 0.9862 -1.72435 -4.7252 0
M  V30 43 H 0.6862 -3.48035 -4.7344 0
M  V30 44 H 2.2102 -2.83537 -5.40777 0
M  V30 45 H 3.6242 -4.3593 -3.72341 0
M  V30 46 H 2.0212 -5.01998 -3.28813 0
M  V30 47 H 3.0912 -4.41184 -2.01209 0
M  V30 48 N 4.4343 0.785586 -1.36625 0
M  V30 49 C 5.6803 1.54591 -1.31261 0
M  V30 50 C 6.0133 1.93906 0.106823 0
M  V30 51 O 5.2883 1.63007 1.06108 0
M  V30 52 C 5.5713 2.82038 -2.23889 0
M  V30 53 C 5.4243 2.49066 -3.74548 0
M  V30 54 C 6.7433 3.83887 -2.15217 0
M  V30 55 H 3.8623 0.560846 -0.478143 0
M  V30 56 H 6.5043 0.902278 -1.67209 0
M  V30 57 H 4.6543 3.36961 -1.93363 0
M  V30 58 H 6.3263 2.00164 -4.15611 0
M  V30 59 H 4.5693 1.81954 -3.93796 0
M  V30 60 H 5.2403 3.40109 -4.34776 0
M  V30 61 H 7.7163 3.38421 -2.42096 0
M  V30 62 H 6.5923 4.70806 -2.82193 0
M  V30 63 H 6.8533 4.27131 -1.14068 0
M  V30 64 N 5.9124 1.20967 1.01018 0
M  V30 65 C 7.1594 1.02374 1.74716 0
M  V30 66 C 7.4874 -0.443375 1.89379 0
M  V30 67 O 6.7424 -1.34535 1.42123 0
M  V30 68 C 7.0414 1.65997 3.16512 0
M  V30 69 C 6.7074 3.15831 3.2181 0
M  V30 70 C 5.3694 3.56719 3.22963 0
M  V30 71 C 7.7214 4.11816 3.19464 0
M  V30 72 C 5.0494 4.92107 3.19449 0
M  V30 73 C 7.4014 5.47158 3.17491 0
M  V30 74 C 6.0654 5.87451 3.16951 0
M  V30 75 H 5.3354 0.374614 0.639332 0
M  V30 76 H 7.9824 1.50485 1.18434 0
M  V30 77 H 6.2874 1.10166 3.75993 0
M  V30 78 H 7.9844 1.49119 3.72242 0
M  V30 79 H 4.5744 2.83263 3.21652 0
M  V30 80 H 8.7584 3.81257 3.17737 0
M  V30 81 H 4.0144 5.22579 3.17366 0
M  V30 82 H 8.1884 6.21274 3.14629 0
M  V30 83 H 5.8154 6.92329 3.13983 0
M  V30 84 N 7.3905 -1.2043 1.01659 0
M  V30 85 C 8.6365 -1.90079 0.706963 0
M  V30 86 C 8.9695 -1.78648 -0.761474 0
M  V30 87 O 8.2445 -1.17069 -1.55323 0
M  V30 88 C 8.5275 -3.41469 1.14327 0
M  V30 89 C 8.3805 -3.61833 2.67201 0
M  V30 90 C 9.6995 -4.34261 0.714529 0
M  V30 91 H 6.8185 -0.690254 0.2583 0
M  V30 92 H 9.4605 -1.41826 1.26433 0
M  V30 93 H 7.6105 -3.82696 0.669056 0
M  V30 94 H 9.2825 -3.2986 3.22475 0
M  V30 95 H 7.5255 -3.05304 3.08175 0
M  V30 96 H 8.1965 -4.67955 2.92783 0
M  V30 97 H 10.6725 -4.00682 1.12221 0
M  V30 98 H 9.5485 -5.38806 1.04784 0
M  V30 99 H 9.8095 -4.40431 -0.383799 0
M  V30 100 N 8.8686 -0.792821 -1.36206 0
M  V30 101 C 10.0986 -0.378275 -2.03107 0
M  V30 102 C 10.5066 1.01119 -1.59911 0
M  V30 103 O 9.8496 1.66052 -0.785658 0
M  V30 104 C 9.9116 -0.366535 -3.57627 0
M  V30 105 C 9.5756 -1.70416 -4.24037 0
M  V30 106 C 10.5726 -2.6602 -4.46687 0
M  V30 107 C 8.2576 -1.98439 -4.6144 0
M  V30 108 C 10.2516 -3.8784 -5.05825 0
M  V30 109 C 7.9386 -3.20525 -5.20295 0
M  V30 110 C 8.9366 -4.15044 -5.42427 0
M  V30 111 O 8.6246 -5.34978 -6.00045 0
M  V30 112 H 8.3566 -0.153543 -0.658332 0
M  V30 113 H 10.9106 -1.07383 -1.75094 0
M  V30 114 H 9.1406 0.385539 -3.84773 0
M  V30 115 H 10.8296 0.0238088 -4.05893 0
M  V30 116 H 11.5956 -2.45658 -4.18183 0
M  V30 117 H 7.4746 -1.25686 -4.43536 0
M  V30 118 H 11.0186 -4.61628 -5.23015 0
M  V30 119 H 6.9156 -3.40764 -5.48225 0
M  V30 120 H 7.6836 -5.36088 -6.18508 0
M  V30 121 N 10.3467 1.47872 -0.545128 0
M  V30 122 C 11.5947 2.02093 -0.016553 0
M  V30 123 C 11.9157 1.42305 1.3332 0
M  V30 124 O 11.1857 0.593853 1.86682 0
M  V30 125 H 9.7657 0.746993 -0.00313038 0
M  V30 126 H 12.4277 1.81414 -0.712397 0
M  V30 127 H 11.5237 3.11996 0.0805422 0
M  V30 128 N 11.8248 0.280983 1.55075 0
M  V30 129 C 13.0528 -0.337293 2.04132 0
M  V30 130 C 13.4678 -1.4903 1.15912 0
M  V30 131 O 12.8248 -1.81606 0.180459 0
M  V30 132 C 12.8758 -0.812706 3.52246 0
M  V30 133 O 12.5968 0.294387 4.3711 0
M  V30 134 C 14.0978 -1.4982 4.17216 0
M  V30 135 H 11.3178 -0.0761638 0.666663 0
M  V30 136 H 13.8618 0.414787 2.00249 0
M  V30 137 H 12.0168 -1.51486 3.56554 0
M  V30 138 H 12.4308 -0.0721325 5.2445 0
M  V30 139 H 13.9048 -1.7822 5.22438 0
M  V30 140 H 14.3818 -2.43168 3.65741 0
M  V30 141 H 14.9878 -0.839742 4.16927 0
M  V30 142 N 13.3029 -1.57598 0.00835791 0
M  V30 143 C 14.2329 -2.1198 -0.979113 0
M  V30 144 C 15.2139 -1.03091 -1.35301 0
M  V30 145 O 16.3989 -1.30818 -1.43528 0
M  V30 146 C 13.5289 -2.62995 -2.26828 0
M  V30 147 C 12.4829 -3.76485 -2.03576 0
M  V30 148 C 11.8089 -4.13846 -3.38579 0
M  V30 149 C 13.1089 -5.0342 -1.39161 0
M  V30 150 H 14.8029 -2.94738 -0.526281 0
M  V30 151 H 12.3489 -1.41783 -0.251704 0
M  V30 152 H 14.3019 -2.99669 -2.96271 0
M  V30 153 H 13.0259 -1.7737 -2.7424 0
M  V30 154 H 11.6849 -3.40217 -1.36557 0
M  V30 155 H 11.3329 -3.25232 -3.83709 0
M  V30 156 H 11.0329 -4.90312 -3.23834 0
M  V30 157 H 12.5569 -4.53086 -4.09323 0
M  V30 158 H 13.9709 -5.37812 -1.98573 0
M  V30 159 H 12.3679 -5.84746 -1.34878 0
M  V30 160 H 13.4379 -4.83548 -0.361868 0
M  V30 161 N 14.781 0.264519 -1.55364 0
M  V30 162 C 15.728 1.32717 -1.88825 0
M  V30 163 C 16.698 1.48675 -0.740605 0
M  V30 164 O 17.883 1.62945 -0.992657 0
M  V30 165 C 15.023 2.68089 -2.17307 0
M  V30 166 C 14.136 2.60284 -3.44785 0
M  V30 167 C 13.271 3.87892 -3.62924 0
M  V30 168 C 12.31 3.74631 -4.84064 0
M  V30 169 N 11.447 4.94092 -4.98816 0
M  V30 170 H 16.287 1.03481 -2.79456 0
M  V30 171 H 13.824 0.499757 -1.3835 0
M  V30 172 H 15.782 3.46864 -2.31821 0
M  V30 173 H 14.412 2.95509 -1.299 0
M  V30 174 H 13.464 1.73173 -3.38697 0
M  V30 175 H 14.776 2.46388 -4.33698 0
M  V30 176 H 13.93 4.75109 -3.77302 0
M  V30 177 H 12.669 4.04664 -2.7221 0
M  V30 178 H 11.674 2.85797 -4.69681 0
M  V30 179 H 12.899 3.5937 -5.76221 0
M  V30 180 H 10.845 5.11259 -4.11036 0
M  V30 181 H 10.762 4.8276 -5.81789 0
M  V30 182 H 12.03 5.82857 -5.17588 0
M  V30 183 N 16.2591 1.48442 0.529413 0
M  V30 184 C 17.6751 1.34575 0.858004 0
M  V30 185 C 17.8751 0.3572 1.98309 0
M  V30 186 O 16.9311 -0.221379 2.51528 0
M  V30 187 C 18.2441 2.74617 1.22499 0
M  V30 188 C 19.7921 2.83109 1.33484 0
M  V30 189 C 20.2671 4.23854 1.73526 0
M  V30 190 N 21.7581 4.2653 1.80628 0
M  V30 191 C 22.4931 5.32372 2.12997 0
M  V30 192 N 21.9891 6.48491 2.43786 0
M  V30 193 N 23.7821 5.19766 2.14008 0
M  V30 194 H 15.9331 2.1133 -0.212925 0
M  V30 195 H 18.1961 0.947439 -0.0326199 0
M  V30 196 H 17.9021 3.4852 0.471905 0
M  V30 197 H 17.7761 3.08177 2.17501 0
M  V30 198 H 20.1631 2.09462 2.0787 0
M  V30 199 H 20.2441 2.53168 0.366027 0
M  V30 200 H 19.8881 4.98018 0.997013 0
M  V30 201 H 19.8181 4.5124 2.71459 0
M  V30 202 H 22.3091 3.42772 1.59108 0
M  V30 203 H 22.6221 7.24993 2.67592 0
M  V30 204 H 20.9671 6.51765 2.41304 0
M  V30 205 H 24.1581 4.28066 1.89412 0
M  V30 206 H 24.3311 6.02354 2.38902 0
M  V30 207 N 17.7372 -0.778329 1.37039 0
M  V30 208 C 18.9852 -1.53361 1.31623 0
M  V30 209 C 19.3062 -1.94739 -0.100831 0
M  V30 210 O 18.5762 -1.65797 -1.04347 0
M  V30 211 H 17.1562 -0.568794 0.484234 0
M  V30 212 H 19.8182 -0.926742 1.71457 0
M  V30 213 H 18.9142 -2.43606 1.95096 0
M  V30 214 N 19.2153 -1.21501 -1.00376 0
M  V30 215 C 20.1473 -0.933174 -2.09343 0
M  V30 216 C 21.1603 0.0840896 -1.62583 0
M  V30 217 O 22.3493 -0.148563 -1.77881 0
M  V30 218 C 19.4493 -0.379869 -3.36764 0
M  V30 219 C 18.6223 -1.45176 -4.12605 0
M  V30 220 C 17.6813 -0.907476 -5.18316 0
M  V30 221 O 16.7073 -1.5912 -5.46507 0
M  V30 222 N 17.9093 0.276649 -5.7984 0
M  V30 223 H 20.6743 -1.87124 -2.34104 0
M  V30 224 H 18.2353 -1.12043 -1.16867 0
M  V30 225 H 20.2273 -0.00131488 -4.047 0
M  V30 226 H 18.7973 0.463048 -3.09151 0
M  V30 227 H 18.0173 -2.00411 -3.39454 0
M  V30 228 H 19.3053 -2.17328 -4.6005 0
M  V30 229 H 18.7033 0.849147 -5.59291 0
M  V30 230 H 17.2603 0.596702 -6.49063 0
M  V30 231 N 20.6934 1.19889 -1.02296 0
M  V30 232 C 22.1044 1.71124 -0.746568 0
M  V30 233 C 22.4554 1.81939 0.734335 0
M  V30 234 O 21.5804 1.48639 1.57275 0
M  V30 235 C 22.1754 3.10804 -1.34857 0
M  V30 236 C 20.7344 3.59323 -1.1209 0
M  V30 237 C 19.8814 2.3635 -1.45031 0
M  V30 238 H 22.8324 1.04813 -1.19163 0
M  V30 239 H 22.8534 3.73186 -0.742437 0
M  V30 240 H 22.3654 3.029 -2.42638 0
M  V30 241 H 20.4664 3.7255 -0.0610337 0
M  V30 242 H 20.5794 4.4378 -1.80544 0
M  V30 243 H 18.9434 2.39399 -0.869487 0
M  V30 244 H 19.7264 2.31081 -2.53883 0
M  V30 245 N 22.1715 0.800033 1.35784 0
M  V30 246 C 23.1195 0.193851 2.31791 0
M  V30 247 C 24.1135 -0.652744 1.56319 0
M  V30 248 O 25.3195 -0.546641 1.71499 0
M  V30 249 H 21.6945 0.04392 0.750716 0
M  V30 250 H 23.6655 1.01883 2.80468 0
M  V30 251 C 22.4145 -0.648338 3.41602 0
M  V30 252 H 21.7375 -0.00624665 3.998 0
M  V30 253 H 23.1775 -1.03898 4.11073 0
M  V30 254 C 21.6365 -1.8111 2.84079 0
M  V30 255 O 22.1665 -2.90825 2.77099 0
M  V30 256 N 20.3725 -1.62056 2.41218 0
M  V30 257 H 19.9195 -0.728123 2.47095 0
M  V30 258 H 19.8775 -2.40013 2.03079 0
M  V30 259 N 23.6496 -1.47581 0.552962 0
M  V30 260 C 24.5996 -2.26961 -0.217423 0
M  V30 261 C 25.5836 -1.34099 -0.889168 0
M  V30 262 O 26.7756 -1.58483 -0.788176 0
M  V30 263 C 23.9046 -3.19756 -1.24944 0
M  V30 264 C 22.9906 -4.20097 -0.581327 0
M  V30 265 N 23.3816 -5.04614 0.346171 0
M  V30 266 C 21.6796 -4.38099 -0.835767 0
M  V30 267 C 22.3806 -5.77052 0.733854 0
M  V30 268 N 21.3566 -5.43526 0.0896567 0
M  V30 269 H 25.1586 -2.89688 0.495761 0
M  V30 270 H 22.6726 -1.58068 0.372597 0
M  V30 271 H 24.6696 -3.75305 -1.81527 0
M  V30 272 H 23.3296 -2.58585 -1.96376 0
M  V30 273 H 24.3406 -5.12869 0.720098 0
M  V30 274 H 21.0176 -3.88102 -1.53892 0
M  V30 275 H 22.4076 -6.5504 1.49574 0
M  V30 276 N 25.1277 -0.289203 -1.54924 0
M  V30 277 C 26.5437 0.0645403 -1.59469 0
M  V30 278 C 26.7437 1.53419 -1.30632 0
M  V30 279 O 25.7997 2.2852 -1.074 0
M  V30 280 C 27.1127 -0.32278 -2.98963 0
M  V30 281 C 28.6607 -0.270564 -3.11828 0
M  V30 282 C 29.1357 -0.632532 -4.53611 0
M  V30 283 N 30.6267 -0.584617 -4.59496 0
M  V30 284 C 31.3617 -0.837314 -5.67254 0
M  V30 285 N 30.8577 -1.15536 -6.83098 0
M  V30 286 N 32.6507 -0.765166 -5.56868 0
M  V30 287 H 24.8017 -1.24714 -1.71931 0
M  V30 288 H 27.0647 -0.504809 -0.802416 0
M  V30 289 H 26.7707 -1.34541 -3.24948 0
M  V30 290 H 26.6447 0.32944 -3.75759 0
M  V30 291 H 29.0317 0.742805 -2.85598 0
M  V30 292 H 29.1127 -0.957242 -2.37214 0
M  V30 293 H 28.7567 -1.64365 -4.80569 0
M  V30 294 H 28.6867 0.07609 -5.26545 0
M  V30 295 H 31.1777 -0.349248 -3.76283 0
M  V30 296 H 31.4907 -1.33447 -7.61191 0
M  V30 297 H 29.8357 -1.19328 -6.84679 0
M  V30 298 H 33.0267 -0.516432 -4.65243 0
M  V30 299 H 33.1997 -0.965477 -6.40767 0
M  V30 300 N 26.6058 1.57591 -0.0167156 0
M  V30 301 C 27.8518 1.91567 0.665582 0
M  V30 302 C 28.1848 0.892298 1.72487 0
M  V30 303 O 27.4598 -0.0867127 1.94307 0
M  V30 304 C 27.7428 3.36069 1.29342 0
M  V30 305 C 27.5958 4.49135 0.244541 0
M  V30 306 C 28.9148 3.803 2.21495 0
M  V30 307 H 26.0338 0.69666 0.240488 0
M  V30 308 H 28.6758 1.89866 -0.0714356 0
M  V30 309 H 26.8258 3.3765 1.92158 0
M  V30 310 H 28.4978 4.59689 -0.385228 0
M  V30 311 H 26.7408 4.3165 -0.431379 0
M  V30 312 H 27.4118 5.47242 0.723207 0
M  V30 313 H 29.8878 3.80377 1.68678 0
M  V30 314 H 28.7638 4.82127 2.62382 0
M  V30 315 H 29.0248 3.15104 3.101 0
M  V30 316 N 28.0839 -0.256276 1.55502 0
M  V30 317 C 29.0139 -1.32102 1.92539 0
M  V30 318 C 29.9949 -1.50684 0.789194 0
M  V30 319 O 31.1799 -1.63449 1.04872 0
M  V30 320 C 28.3099 -2.67752 2.21192 0
M  V30 321 C 27.2639 -2.63878 3.36975 0
M  V30 322 C 26.5899 -4.03236 3.51147 0
M  V30 323 C 27.8899 -2.21682 4.72921 0
M  V30 324 H 29.5839 -1.01351 2.81724 0
M  V30 325 H 27.1299 -0.486105 1.35547 0
M  V30 326 H 29.0829 -3.42365 2.45691 0
M  V30 327 H 27.8069 -3.0012 1.28824 0
M  V30 328 H 26.4659 -1.91722 3.12471 0
M  V30 329 H 26.1139 -4.32854 2.56216 0
M  V30 330 H 25.8139 -4.01535 4.29003 0
M  V30 331 H 27.3379 -4.79563 3.77957 0
M  V30 332 H 28.7519 -2.86023 4.96854 0
M  V30 333 H 27.1489 -2.3111 5.53812 0
M  V30 334 H 28.2189 -1.16833 4.70615 0
M  V30 335 N 29.562 -1.4872 -0.521534 0
M  V30 336 C 30.978 -1.35028 -0.850855 0
M  V30 337 C 31.178 -0.367712 -1.98116 0
M  V30 338 O 30.234 0.208037 -2.51642 0
M  V30 339 C 31.547 -2.75263 -1.21041 0
M  V30 340 C 33.095 -2.83813 -1.31981 0
M  V30 341 C 33.57 -4.24769 -1.71276 0
M  V30 342 N 35.061 -4.27482 -1.78363 0
M  V30 343 C 35.796 -5.33494 -2.1017 0
M  V30 344 N 35.292 -6.49775 -2.40343 0
M  V30 345 N 37.085 -5.20894 -2.11248 0
M  V30 346 H 29.236 -2.11214 0.22413 0
M  V30 347 H 31.499 -0.947252 0.0376439 0
M  V30 348 H 31.205 -3.48765 -0.453415 0
M  V30 349 H 31.079 -3.09327 -2.15863 0
M  V30 350 H 33.466 -2.10561 -2.06756 0
M  V30 351 H 33.547 -2.53358 -0.352596 0
M  V30 352 H 33.191 -4.9854 -0.970588 0
M  V30 353 H 33.121 -4.52673 -2.69062 0
M  V30 354 H 35.612 -3.43611 -1.57288 0
M  V30 355 H 35.925 -7.26402 -2.63743 0
M  V30 356 H 34.27 -6.53035 -2.37844 0
M  V30 357 H 37.461 -4.29065 -1.87139 0
M  V30 358 H 37.634 -6.03612 -2.35704 0
M  V30 359 N 31.0401 0.771051 -1.3745 0
M  V30 360 C 32.3171 1.519 -1.23231 0
M  V30 361 C 32.6971 2.10383 0.173809 0
M  V30 362 O 32.0451 1.95583 1.18151 0
M  V30 363 C 32.2551 2.59933 -2.32886 0
M  V30 364 C 33.6031 3.27316 -2.70461 0
M  V30 365 O 34.6271 2.70228 -2.32068 0
M  V30 366 O 33.4861 4.30531 -3.36608 0
M  V30 367 H 30.5801 0.672803 -0.480901 0
M  V30 368 H 33.1261 0.807957 -1.49232 0
M  V30 369 H 31.8981 2.14842 -3.27045 0
M  V30 370 H 31.5211 3.38637 -2.08353 0
M  V30 371 N 32.5182 1.22032 0.997298 0
M  V30 372 C 33.7662 1.04016 1.73278 0
M  V30 373 C 34.0872 -0.426255 1.90284 0
M  V30 374 O 33.3572 -1.30694 1.45931 0
M  V30 375 H 31.9372 0.381897 0.642 0
M  V30 376 H 34.5992 1.5347 1.20137 0
M  V30 377 H 33.6952 1.51441 2.72896 0
M  V30 378 N 33.9963 -1.19345 1.0293 0
M  V30 379 C 34.9593 -2.20793 0.615069 0
M  V30 380 C 35.9593 -1.57553 -0.321533 0
M  V30 381 O 37.1493 -1.73862 -0.108483 0
M  V30 382 C 34.2813 -3.40754 -0.0999222 0
M  V30 383 H 35.4743 -2.58955 1.51269 0
M  V30 384 H 33.0273 -1.3303 0.820534 0
M  V30 385 H 33.7623 -3.0811 -1.01187 0
M  V30 386 H 33.5473 -3.87889 0.57309 0
M  V30 387 H 35.0373 -4.15898 -0.376645 0
M  V30 388 N 35.4744 -0.807222 -1.35358 0
M  V30 389 C 36.4244 -0.190706 -2.27201 0
M  V30 390 C 37.4084 0.635838 -1.47804 0
M  V30 391 O 38.6004 0.492991 -1.69996 0
M  V30 392 C 35.7294 0.659337 -3.36909 0
M  V30 393 C 34.8154 -0.176971 -4.23731 0
M  V30 394 N 35.2064 -1.24029 -4.90357 0
M  V30 395 C 33.5044 0.0412953 -4.45981 0
M  V30 396 C 34.2054 -1.75092 -5.54723 0
M  V30 397 N 33.1814 -1.05727 -5.33219 0
M  V30 398 H 36.9834 -1.0043 -2.76208 0
M  V30 399 H 34.4974 -0.648445 -1.48892 0
M  V30 400 H 36.4944 1.11706 -4.01656 0
M  V30 401 H 35.1544 1.47127 -2.89454 0
M  V30 402 H 36.1654 -1.62295 -4.91814 0
M  V30 403 H 32.8424 0.82232 -4.09322 0
M  V30 404 H 34.2324 -2.63963 -6.17878 0
M  V30 405 N 36.9525 1.47285 -0.560781 0
M  V30 406 C 38.2005 2.02064 -0.0379868 0
M  V30 407 C 38.5215 1.43711 1.31803 0
M  V30 408 O 37.7915 0.61362 1.86042 0
M  V30 409 H 36.3715 0.746918 -0.0110531 0
M  V30 410 H 39.0335 1.80648 -0.731598 0
M  V30 411 H 38.1295 3.12064 0.0474463 0
M  V30 412 N 38.4306 0.297415 1.54768 0
M  V30 413 C 39.6556 -0.318435 2.04941 0
M  V30 414 C 40.0806 -1.4701 1.17345 0
M  V30 415 O 39.4386 -1.80436 0.176758 0
M  V30 416 C 39.4866 -0.755749 3.52592 0
M  V30 417 O 38.5906 -1.86088 3.68028 0
M  V30 418 H 37.9316 -0.062421 0.661059 0
M  V30 419 H 40.4616 0.438215 1.99852 0
M  V30 420 H 40.4716 -1.04552 3.94376 0
M  V30 421 H 39.1466 0.0867233 4.1581 0
M  V30 422 H 37.7236 -1.57193 3.38149 0
M  V30 423 N 39.9087 -1.5758 0.0250728 0
M  V30 424 C 40.8717 -2.08896 -0.943139 0
M  V30 425 C 41.8717 -1.00321 -1.25668 0
M  V30 426 O 43.0617 -1.26495 -1.19769 0
M  V30 427 C 40.1937 -2.55143 -2.26086 0
M  V30 428 H 41.3867 -2.95723 -0.498775 0
M  V30 429 H 38.9397 -1.54703 -0.222888 0
M  V30 430 H 39.6747 -1.71633 -2.75159 0
M  V30 431 H 39.4597 -3.34461 -2.04641 0
M  V30 432 H 40.9497 -2.95083 -2.95492 0
M  V30 433 N 41.3868 0.248026 -1.55636 0
M  V30 434 C 42.3498 1.29044 -1.89421 0
M  V30 435 C 43.3498 1.41134 -0.770581 0
M  V30 436 O 44.5398 1.39854 -1.03858 0
M  V30 437 C 41.6718 2.66831 -2.12165 0
M  V30 438 H 42.8648 1.00305 -2.82629 0
M  V30 439 H 40.4178 0.487265 -1.48511 0
M  V30 440 H 41.1528 3.00711 -1.21422 0
M  V30 441 H 40.9378 2.59438 -2.93997 0
M  V30 442 H 42.4278 3.42103 -2.3949 0
M  V30 443 N 42.8649 1.48995 0.513639 0
M  V30 444 C 44.1119 1.57843 1.26854 0
M  V30 445 C 44.4399 0.259501 1.92761 0
M  V30 446 O 43.6949 -0.75159 1.80692 0
M  V30 447 C 43.9939 2.67756 2.36731 0
M  V30 448 C 43.6599 4.09669 1.88368 0
M  V30 449 C 42.3219 4.48291 1.74896 0
M  V30 450 C 44.6739 4.98537 1.52021 0
M  V30 451 C 42.0019 5.73568 1.23438 0
M  V30 452 C 44.3539 6.24319 1.0202 0
M  V30 453 C 43.0179 6.61783 0.871778 0
M  V30 454 H 42.2879 0.577587 0.464192 0
M  V30 455 H 44.9349 1.82778 0.571366 0
M  V30 456 H 43.2399 2.36743 3.12185 0
M  V30 457 H 44.9369 2.71813 2.9482 0
M  V30 458 H 41.5269 3.79176 1.99808 0
M  V30 459 H 45.7109 4.69363 1.61281 0
M  V30 460 H 40.9669 6.01304 1.10648 0
M  V30 461 H 45.1409 6.92566 0.729722 0
M  V30 462 H 42.7679 7.5874 0.470852 0
M  V30 463 N 44.343 -0.763751 1.37857 0
M  V30 464 C 45.759 -1.06542 1.18832 0
M  V30 465 C 45.959 -2.01478 0.0299722 0
M  V30 466 O 45.015 -2.4458 -0.627447 0
M  V30 467 C 46.328 -1.65525 2.51042 0
M  V30 468 C 47.876 -1.77745 2.57635 0
M  V30 469 C 48.351 -2.4014 3.89996 0
M  V30 470 N 49.842 -2.47582 3.91481 0
M  V30 471 C 50.577 -2.96732 4.9065 0
M  V30 472 N 50.073 -3.45993 6.00217 0
M  V30 473 N 51.866 -2.95679 4.78048 0
M  V30 474 H 44.017 -0.133556 2.1198 0
M  V30 475 H 46.28 -0.121879 0.940133 0
M  V30 476 H 45.986 -1.03236 3.36207 0
M  V30 477 H 45.86 -2.64719 2.68707 0
M  V30 478 H 48.247 -2.39164 1.72872 0
M  V30 479 H 48.328 -0.772836 2.43846 0
M  V30 480 H 47.972 -1.79358 4.75177 0
M  V30 481 H 47.902 -3.41223 4.01092 0
M  V30 482 H 50.393 -2.1273 3.12337 0
M  V30 483 H 50.706 -3.81922 6.7183 0
M  V30 484 H 49.051 -3.44077 6.03851 0
M  V30 485 H 52.242 -2.56499 3.91568 0
M  V30 486 H 52.415 -3.33672 5.55488 0
M  V30 487 N 45.8211 -1.22559 -0.990812 0
M  V30 488 C 46.7841 -0.998863 -2.0629 0
M  V30 489 C 47.7841 0.0354834 -1.60761 0
M  V30 490 O 48.9741 -0.203231 -1.7301 0
M  V30 491 C 46.1061 -0.509203 -3.37076 0
M  V30 492 H 47.2991 -1.95014 -2.27837 0
M  V30 493 H 44.8521 -1.04456 -1.16269 0
M  V30 494 H 45.5871 0.446335 -3.21214 0
M  V30 495 H 45.3721 -1.25547 -3.71457 0
M  V30 496 H 46.8621 -0.370888 -4.1595 0
M  V30 497 N 47.2992 1.18797 -1.03562 0
M  V30 498 C 48.7152 1.40671 -0.753917 0
M  V30 499 C 48.9152 1.9043 0.658686 0
M  V30 500 O 47.9712 2.08538 1.42366 0
M  V30 501 C 49.2842 2.41192 -1.79574 0
M  V30 502 C 50.8322 2.54928 -1.81606 0
M  V30 503 C 51.3072 3.58709 -2.84766 0
M  V30 504 N 52.7982 3.66212 -2.83625 0
M  V30 505 C 53.5332 4.46225 -3.60098 0
M  V30 506 N 53.0292 5.29888 -4.46308 0
M  V30 507 N 54.8222 4.40939 -3.4861 0
M  V30 508 H 46.9732 0.848221 -1.94728 0
M  V30 509 H 49.2362 0.435081 -0.842264 0
M  V30 510 H 48.9422 2.11669 -2.80872 0
M  V30 511 H 48.8162 3.40467 -1.62365 0
M  V30 512 H 51.2032 2.83771 -0.809817 0
M  V30 513 H 51.2842 1.55784 -2.02891 0
M  V30 514 H 50.9282 3.30607 -3.85566 0
M  V30 515 H 50.8582 4.57519 -2.60737 0
M  V30 516 H 53.3492 3.06466 -2.21105 0
M  V30 517 H 53.6622 5.88078 -5.01382 0
M  V30 518 H 52.0072 5.29326 -4.50377 0
M  V30 519 H 55.1982 3.74624 -2.80668 0
M  V30 520 H 55.3712 5.03056 -4.08459 0
M  V30 521 N 48.7773 0.814389 1.34928 0
M  V30 522 C 50.0253 0.397636 1.9815 0
M  V30 523 C 50.3463 -1.04069 1.64908 0
M  V30 524 O 49.6163 -1.72121 0.93548 0
M  V30 525 H 48.1963 0.144043 0.732981 0
M  V30 526 H 50.8583 1.04195 1.6471 0
M  V30 527 H 49.9543 0.509688 3.0791 0
M  V30 528 N 50.2554 -1.46986 0.568584 0
M  V30 529 C 51.6714 -1.57946 0.229189 0
M  V30 530 C 51.8714 -1.56567 -1.26843 0
M  V30 531 O 50.9274 -1.47511 -2.04931 0
M  V30 532 C 52.2404 -2.87963 0.865909 0
M  V30 533 C 53.7884 -3.01568 0.838188 0
M  V30 534 C 54.2634 -4.34301 1.45419 0
M  V30 535 N 55.7544 -4.40965 1.41788 0
M  V30 536 C 56.4894 -5.42256 1.86403 0
M  V30 537 N 55.9854 -6.50297 2.38926 0
M  V30 538 N 57.7784 -5.3337 1.77405 0
M  V30 539 H 49.9294 -1.46126 1.54146 0
M  V30 540 H 52.1924 -0.696156 0.643484 0
M  V30 541 H 51.8984 -2.94742 1.91886 0
M  V30 542 H 51.7724 -3.75423 0.365687 0
M  V30 543 H 54.1594 -2.94379 -0.206106 0
M  V30 544 H 54.2404 -2.1562 1.37629 0
M  V30 545 H 53.8844 -4.42247 2.49761 0
M  V30 546 H 53.8144 -5.19 0.891435 0
M  V30 547 H 56.3054 -3.63484 1.03381 0
M  V30 548 H 56.6184 -7.23777 2.70863 0
M  V30 549 H 54.9634 -6.51155 2.42944 0
M  V30 550 H 58.1544 -4.47865 1.3614 0
M  V30 551 H 58.3274 -6.12169 2.12492 0
M  V30 552 N 51.7335 -0.305618 -1.54608 0
M  V30 553 C 52.9615 0.304775 -2.04643 0
M  V30 554 C 53.3765 1.47167 -1.18268 0
M  V30 555 O 52.7335 1.81296 -0.209328 0
M  V30 556 C 52.7845 0.756564 -3.53495 0
M  V30 557 O 52.5055 -0.36389 -4.36586 0
M  V30 558 C 54.0065 1.43163 -4.19546 0
M  V30 559 H 51.2265 0.0655481 -0.667791 0
M  V30 560 H 53.7705 -0.446592 -1.99564 0
M  V30 561 H 51.9255 1.45794 -3.58919 0
M  V30 562 H 52.3395 -0.0113121 -5.24499 0
M  V30 563 H 53.8135 1.69886 -5.25207 0
M  V30 564 H 54.2905 2.37318 -3.69563 0
M  V30 565 H 54.8965 0.773307 -4.18211 0
M  V30 566 N 53.2116 1.57565 -0.0334293 0
M  V30 567 C 54.1416 2.13511 0.945265 0
M  V30 568 C 55.1226 1.05231 1.33643 0
M  V30 569 O 56.3076 1.33084 1.41429 0
M  V30 570 C 53.4376 2.6657 2.22616 0
M  V30 571 C 52.3916 3.79676 1.97561 0
M  V30 572 C 51.7176 4.1918 3.31952 0
M  V30 573 C 53.0176 5.0557 1.31135 0
M  V30 574 H 54.7116 2.95538 0.479325 0
M  V30 575 H 52.2576 1.42166 0.229115 0
M  V30 576 H 54.2106 3.04344 2.91466 0
M  V30 577 H 52.9346 1.8171 2.71384 0
M  V30 578 H 51.5936 3.42347 1.31127 0
M  V30 579 H 51.2416 3.31296 3.78487 0
M  V30 580 H 50.9416 4.95402 3.15992 0
M  V30 581 H 52.4656 4.59541 4.02063 0
M  V30 582 H 53.8796 5.40903 1.89992 0
M  V30 583 H 52.2766 5.86818 1.25559 0
M  V30 584 H 53.3466 4.84062 0.284894 0
M  V30 585 N 54.6897 -0.239769 1.55765 0
M  V30 586 C 55.5997 -1.31831 1.94056 0
M  V30 587 C 56.6157 -1.52275 0.841925 0
M  V30 588 O 57.7917 -1.65759 1.14394 0
M  V30 589 C 54.8567 -2.65156 2.23368 0
M  V30 590 C 53.9177 -2.53173 3.46701 0
M  V30 591 C 53.1507 -3.8014 3.74606 0
M  V30 592 O 53.3737 -4.82343 3.04469 0
M  V30 593 O 52.3077 -3.78344 4.68123 0
M  V30 594 H 56.1337 -1.02347 2.85935 0
M  V30 595 H 53.7187 -0.441123 1.42739 0
M  V30 596 H 55.6007 -3.43929 2.43497 0
M  V30 597 H 54.2757 -2.94358 1.34666 0
M  V30 598 H 53.1827 -1.72662 3.31871 0
M  V30 599 H 54.5157 -2.28915 4.35728 0
M  V30 600 N 56.1678 -1.49265 -0.50573 0
M  V30 601 C 57.5788 -1.51769 -1.08734 0
M  V30 602 C 57.9298 -0.301192 -1.93874 0
M  V30 603 O 57.0548 0.589456 -2.08217 0
M  V30 604 C 57.6498 -2.75017 -1.97867 0
M  V30 605 C 56.2088 -2.80314 -2.51199 0
M  V30 606 C 55.3558 -2.4562 -1.28709 0
M  V30 607 H 58.3068 -1.56031 -0.289855 0
M  V30 608 H 58.3278 -2.5491 -2.82491 0
M  V30 609 H 57.8398 -3.63539 -1.35873 0
M  V30 610 H 55.9408 -1.96061 -3.16845 0
M  V30 611 H 56.0538 -3.82366 -2.88675 0
M  V30 612 H 54.4178 -1.97297 -1.61078 0
M  V30 613 H 55.2008 -3.36411 -0.6843 0
M  V30 614 N 57.6459 0.756429 -1.3826 0
M  V30 615 C 58.8759 1.54341 -1.3734 0
M  V30 616 C 59.2839 1.89159 0.0393917 0
M  V30 617 O 58.6269 1.5307 1.01565 0
M  V30 618 C 58.6889 2.87238 -2.16182 0
M  V30 619 C 58.3529 2.74973 -3.65019 0
M  V30 620 C 59.3499 2.44962 -4.58574 0
M  V30 621 C 57.0349 2.92515 -4.08338 0
M  V30 622 C 59.0289 2.32642 -5.93428 0
M  V30 623 C 56.7159 2.79815 -5.43274 0
M  V30 624 C 57.7139 2.49921 -6.35632 0
M  V30 625 O 57.4019 2.37275 -7.68086 0
M  V30 626 H 57.1339 0.484281 -0.471643 0
M  V30 627 H 59.6879 0.944152 -1.82414 0
M  V30 628 H 57.9179 3.49342 -1.65822 0
M  V30 629 H 59.6069 3.48731 -2.07705 0
M  V30 630 H 60.3729 2.31081 -4.26412 0
M  V30 631 H 56.2519 3.14781 -3.368 0
M  V30 632 H 59.7959 2.0923 -6.65484 0
M  V30 633 H 55.6929 2.93269 -5.75034 0
M  V30 634 H 56.4609 2.52509 -7.78577 0
M  V30 635 N 59.124 1.23083 0.984299 0
M  V30 636 C 60.535 1.05609 1.5396 0
M  V30 637 C 60.886 -0.377793 1.92528 0
M  V30 638 O 60.011 -1.26398 1.75649 0
M  V30 639 C 60.606 1.91087 2.7977 0
M  V30 640 C 59.165 1.77885 3.31713 0
M  V30 641 C 58.312 1.87028 2.04733 0
M  V30 642 H 61.263 1.36802 0.804419 0
M  V30 643 H 61.284 1.43336 3.5247 0
M  V30 644 H 60.796 2.9544 2.51668 0
M  V30 645 H 58.897 0.762995 3.64704 0
M  V30 646 H 59.01 2.61047 4.01735 0
M  V30 647 H 57.374 1.30565 2.18689 0
M  V30 648 H 58.157 2.92929 1.79017 0
M  V30 649 N 60.6021 -1.18246 1.0419 0
M  V30 650 C 61.5321 -2.24127 0.654914 0
M  V30 651 C 62.5131 -1.66617 -0.342451 0
M  V30 652 O 63.6981 -1.92924 -0.222277 0
M  V30 653 C 60.8281 -3.47295 0.0183757 0
M  V30 654 C 59.7821 -4.17563 0.939414 0
M  V30 655 C 59.1081 -5.34438 0.167286 0
M  V30 656 C 60.4081 -4.70917 2.25908 0
M  V30 657 H 62.1021 -2.56753 1.54007 0
M  V30 658 H 59.6481 -1.23414 0.74195 0
M  V30 659 H 61.6011 -4.20572 -0.264082 0
M  V30 660 H 60.3251 -3.13907 -0.901664 0
M  V30 661 H 58.9841 -3.46186 1.20628 0
M  V30 662 H 58.6321 -4.97298 -0.7552 0
M  V30 663 H 58.3321 -5.82388 0.780901 0
M  V30 664 H 59.8561 -6.10504 -0.108125 0
M  V30 665 H 61.2701 -5.35882 2.03724 0
M  V30 666 H 59.6671 -5.29406 2.82577 0
M  V30 667 H 60.7371 -3.88272 2.9047 0
M  V30 668 N 62.0802 -0.821533 -1.34494 0
M  V30 669 C 63.3262 -0.409552 -1.98622 0
M  V30 670 C 63.6592 1.0244 -1.64984 0
M  V30 671 O 62.9342 1.71325 -0.920758 0
M  V30 672 C 63.2172 -0.610458 -3.54888 0
M  V30 673 C 63.0702 -2.09043 -3.98273 0
M  V30 674 C 64.3892 -0.0455379 -4.40076 0
M  V30 675 H 61.5082 -0.15028 -0.721516 0
M  V30 676 H 64.1502 -1.03384 -1.59411 0
M  V30 677 H 62.3002 -0.079044 -3.8842 0
M  V30 678 H 63.9722 -2.68537 -3.75081 0
M  V30 679 H 62.2152 -2.58139 -3.48635 0
M  V30 680 H 62.8862 -2.18182 -5.07051 0
M  V30 681 H 65.3622 -0.499557 -4.1309 0
M  V30 682 H 64.2382 -0.215922 -5.48475 0
M  V30 683 H 64.4992 1.04939 -4.29465 0
M  V30 684 N 63.5583 1.46682 -0.576371 0
M  V30 685 C 64.8073 2.01619 -0.0572825 0
M  V30 686 C 65.1203 1.45417 1.30818 0
M  V30 687 O 66.3263 1.92133 1.91825 0
M  V30 688 C 64.7823 3.59863 -0.0518371 0
M  V30 689 C 64.3903 4.25059 -1.41523 0
M  V30 690 C 66.1343 4.2248 0.413639 0
M  V30 691 C 64.0413 5.75364 -1.36785 0
M  V30 692 H 62.9713 0.753794 -0.0176448 0
M  V30 693 H 65.6223 1.68481 -0.727076 0
M  V30 694 H 64.0043 3.90048 0.683994 0
M  V30 695 H 65.1783 4.06491 -2.17029 0
M  V30 696 H 63.4933 3.7451 -1.8202 0
M  V30 697 H 66.0903 5.3265 0.467779 0
M  V30 698 H 66.4333 3.90976 1.42982 0
M  V30 699 H 66.9663 3.96897 -0.267929 0
M  V30 700 H 63.7053 6.11518 -2.36063 0
M  V30 701 H 63.2253 5.96214 -0.654895 0
M  V30 702 H 64.9043 6.37955 -1.07805 0
M  V30 703 N 65.0364 0.313813 1.54444 0
M  V30 704 C 65.9994 -0.54379 2.22656 0
M  V30 705 C 66.9994 -1.05124 1.21678 0
M  V30 706 O 68.1894 -0.945225 1.46325 0
M  V30 707 C 65.3214 -1.75427 2.92298 0
M  V30 708 H 66.5144 0.0523599 2.99854 0
M  V30 709 H 64.0674 0.0647834 1.56166 0
M  V30 710 H 64.8024 -2.38991 2.19211 0
M  V30 711 H 64.5874 -1.39791 3.66334 0
M  V30 712 H 66.0774 -2.36325 3.44297 0
M  V30 713 N 66.5145 -1.57545 0.0417849 0
M  V30 714 C 67.7625 -1.91937 -0.632829 0
M  V30 715 C 68.0835 -0.919978 -1.71934 0
M  V30 716 O 67.3535 0.0366064 -1.95866 0
M  V30 717 H 65.9335 -0.708493 -0.236742 0
M  V30 718 H 68.5955 -1.9468 0.0925745 0
M  V30 719 H 67.6915 -2.92912 -1.07746 0
M  V30 720 N 67.9926 0.231505 -1.5589 0
M  V30 721 C 68.9026 1.308 -1.94752 0
M  V30 722 C 69.9186 1.51826 -0.849989 0
M  V30 723 O 71.0946 1.6515 -1.15271 0
M  V30 724 C 68.1596 2.63968 -2.24771 0
M  V30 725 C 67.2206 2.51331 -3.48039 0
M  V30 726 C 66.4536 3.78148 -3.76616 0
M  V30 727 O 66.6766 4.80722 -3.07022 0
M  V30 728 O 65.6106 3.75857 -4.70123 0
M  V30 729 H 69.4366 1.0083 -2.86474 0
M  V30 730 H 67.0216 0.433547 -1.42971 0
M  V30 731 H 68.9036 3.42633 -2.45318 0
M  V30 732 H 67.5786 2.9364 -1.36225 0
M  V30 733 H 66.4856 1.709 -3.32782 0
M  V30 734 H 67.8186 2.26601 -4.36936 0
M  V30 735 N 69.4707 1.49531 0.497807 0
M  V30 736 C 70.4207 1.62829 1.59596 0
M  V30 737 C 71.4047 0.483824 1.53453 0
M  V30 738 O 72.5967 0.736937 1.60929 0
M  V30 739 C 69.7257 1.7011 2.98191 0
M  V30 740 C 68.8117 2.90144 3.09317 0
M  V30 741 N 69.2027 4.1418 2.90324 0
M  V30 742 C 67.5007 2.88148 3.40422 0
M  V30 743 C 68.2017 4.94886 3.05717 0
M  V30 744 N 67.1777 4.28314 3.34736 0
M  V30 745 H 70.9797 2.56446 1.4357 0
M  V30 746 H 68.4937 1.46347 0.704001 0
M  V30 747 H 70.4907 1.77735 3.77115 0
M  V30 748 H 69.1507 0.776315 3.15283 0
M  V30 749 H 70.1617 4.44109 2.66436 0
M  V30 750 H 66.8387 2.05061 3.63671 0
M  V30 751 H 68.2287 6.03432 2.95499 0
M  V30 752 N 70.9488 -0.749086 1.3866 0
M  V30 753 C 71.8968 -1.88428 1.36373 0
M  V30 754 C 72.8908 -1.67561 0.248929 0
M  V30 755 O 74.0968 -1.75074 0.41821 0
M  V30 756 H 70.4718 -0.620023 0.42553 0
M  V30 757 H 72.4428 -1.87473 2.32156 0
M  V30 758 C 71.1918 -3.25961 1.21014 0
M  V30 759 H 70.5148 -3.42607 2.06059 0
M  V30 760 H 71.9548 -4.05625 1.23469 0
M  V30 761 C 70.4138 -3.36799 -0.0825941 0
M  V30 762 O 70.9438 -3.87517 -1.05797 0
M  V30 763 N 69.1498 -2.90258 -0.140939 0
M  V30 764 H 68.6968 -2.49174 0.653477 0
M  V30 765 H 68.6548 -2.97889 -1.00545 0
M  V30 766 N 72.4269 -1.23603 -0.977757 0
M  V30 767 C 73.6759 -1.06377 -1.71368 0
M  V30 768 C 73.9889 0.399062 -1.91486 0
M  V30 769 O 75.1949 0.691312 -2.62551 0
M  V30 770 C 73.6509 -1.85512 -3.08404 0
M  V30 771 C 73.2589 -3.36141 -2.96164 0
M  V30 772 C 75.0029 -1.76783 -3.85938 0
M  V30 773 C 72.9099 -4.07659 -4.28449 0
M  V30 774 H 71.8399 -0.394452 -0.642591 0
M  V30 775 H 74.4909 -1.47594 -1.09034 0
M  V30 776 H 72.8729 -1.37103 -3.71509 0
M  V30 777 H 74.0469 -3.92056 -2.42133 0
M  V30 778 H 72.3619 -3.45712 -2.32104 0
M  V30 779 H 74.9589 -2.27526 -4.83876 0
M  V30 780 H 75.3019 -0.731116 -4.0983 0
M  V30 781 H 75.8349 -2.22818 -3.2954 0
M  V30 782 H 72.5739 -5.11648 -4.09752 0
M  V30 783 H 72.0939 -3.5653 -4.82334 0
M  V30 784 H 73.7729 -4.141 -4.97122 0
M  V30 785 N 73.905 1.17692 -1.04816 0
M  V30 786 C 75.316 1.69501 -0.782698 0
M  V30 787 C 75.667 1.83456 0.695577 0
M  V30 788 O 74.792 1.51942 1.54086 0
M  V30 789 C 75.387 3.07874 -1.41419 0
M  V30 790 C 73.946 3.56864 -1.19686 0
M  V30 791 C 73.093 2.3322 -1.50012 0
M  V30 792 H 76.044 1.02262 -1.2136 0
M  V30 793 H 76.065 3.71528 -0.821428 0
M  V30 794 H 75.577 2.97685 -2.49009 0
M  V30 795 H 73.678 3.72337 -0.140043 0
M  V30 796 H 73.791 4.39851 -1.89916 0
M  V30 797 H 72.155 2.37501 -0.920071 0
M  V30 798 H 72.938 2.25644 -2.58727 0
M  V30 799 N 75.3831 0.828654 1.34056 0
M  V30 800 C 76.6291 0.429279 1.98818 0
M  V30 801 C 76.9841 -0.998011 1.64492 0
M  V30 802 O 76.2771 -1.68652 0.909228 0
M  V30 803 C 76.4711 0.575226 3.52741 0
M  V30 804 C 76.3001 2.01515 4.02022 0
M  V30 805 C 75.0701 2.64825 4.30344 0
M  V30 806 C 77.2681 2.98261 4.18981 0
M  V30 807 N 75.2501 3.99998 4.65698 0
M  V30 808 C 76.6211 4.18356 4.57578 0
M  V30 809 C 78.6761 2.94802 4.01243 0
M  V30 810 C 77.3791 5.35454 4.80293 0
M  V30 811 C 79.4051 4.11121 4.25128 0
M  V30 812 C 78.7671 5.29969 4.64018 0
M  V30 813 H 74.8661 0.205304 0.754569 0
M  V30 814 H 77.4501 1.07457 1.62361 0
M  V30 815 H 75.6211 -0.0401962 3.88379 0
M  V30 816 H 77.3531 0.148292 4.04428 0
M  V30 817 H 74.1081 2.16027 4.21461 0
M  V30 818 H 74.5321 4.69653 4.87601 0
M  V30 819 H 79.1741 2.04054 3.70299 0
M  V30 820 H 76.8921 6.26755 5.10102 0
M  V30 821 H 80.4781 4.0985 4.12934 0
M  V30 822 H 79.3581 6.18479 4.82134 0
M  V30 823 N 76.8612 -1.46375 0.584142 0
M  V30 824 C 77.7912 -2.33103 -0.136037 0
M  V30 825 C 78.7722 -1.45431 -0.882255 0
M  V30 826 O 79.9572 -1.74246 -0.857434 0
M  V30 827 C 77.0872 -3.27731 -1.14933 0
M  V30 828 C 76.0412 -4.24855 -0.517862 0
M  V30 829 C 75.3672 -5.09001 -1.63773 0
M  V30 830 C 76.6672 -5.19439 0.545886 0
M  V30 831 H 78.3612 -2.93568 0.588086 0
M  V30 832 H 75.9072 -1.41166 0.284259 0
M  V30 833 H 77.8602 -3.87261 -1.66153 0
M  V30 834 H 76.5842 -2.65377 -1.90375 0
M  V30 835 H 75.2432 -3.6659 -0.0267361 0
M  V30 836 H 74.8912 -4.43031 -2.38185 0
M  V30 837 H 74.5912 -5.74777 -1.22085 0
M  V30 838 H 76.1152 -5.71396 -2.15266 0
M  V30 839 H 77.5292 -5.73177 0.118704 0
M  V30 840 H 75.9262 -5.93566 0.88317 0
M  V30 841 H 76.9962 -4.63285 1.43162 0
M  V30 842 N 78.3393 -0.321999 -1.54275 0
M  V30 843 C 79.2693 0.537411 -2.27231 0
M  V30 844 C 80.2503 1.12064 -1.27968 0
M  V30 845 O 81.4353 1.14606 -1.56777 0
M  V30 846 C 78.5653 1.69919 -3.02894 0
M  V30 847 C 77.5193 1.24534 -4.09482 0
M  V30 848 C 76.8453 2.49394 -4.72977 0
M  V30 849 C 78.1453 0.361335 -5.21049 0
M  V30 850 H 79.8393 -0.0711406 -2.99315 0
M  V30 851 H 77.3853 -0.0356555 -1.43956 0
M  V30 852 H 79.3383 2.30668 -3.52662 0
M  V30 853 H 78.0623 2.33431 -2.28424 0
M  V30 854 H 76.7213 0.660782 -3.60596 0
M  V30 855 H 76.3693 3.11265 -3.95124 0
M  V30 856 H 76.0693 2.19718 -5.44975 0
M  V30 857 H 77.5933 3.10908 -5.25517 0
M  V30 858 H 79.0073 0.875072 -5.66582 0
M  V30 859 H 77.4043 0.157428 -5.99893 0
M  V30 860 H 78.4743 -0.60822 -4.8107 0
M  V30 861 N 79.8174 1.5752 -0.0501392 0
M  V30 862 C 80.7674 2.07981 0.934231 0
M  V30 863 C 81.7514 0.984745 1.27246 0
M  V30 864 O 82.9434 1.24809 1.25506 0
M  V30 865 C 80.0724 2.62751 2.20945 0
M  V30 866 C 79.1584 3.79225 1.89865 0
M  V30 867 N 79.5494 4.89036 1.29142 0
M  V30 868 C 77.8474 3.88111 2.19741 0
M  V30 869 C 78.5484 5.70084 1.15669 0
M  V30 870 N 77.5244 5.17659 1.65923 0
M  V30 871 H 81.3264 2.90277 0.460053 0
M  V30 872 H 78.8404 1.61665 0.15434 0
M  V30 873 H 80.8374 2.97205 2.9236 0
M  V30 874 H 79.4974 1.81894 2.6897 0
M  V30 875 H 80.5084 5.08854 0.963756 0
M  V30 876 H 77.1854 3.18194 2.70293 0
M  V30 877 H 78.5754 6.68395 0.685356 0
M  V30 878 N 81.2955 -0.223234 1.56011 0
M  V30 879 C 82.2255 -1.27988 1.95298 0
M  V30 880 C 83.2065 -1.48976 0.820979 0
M  V30 881 O 84.3915 -1.61188 1.08315 0
M  V30 882 C 81.5215 -2.63 2.26822 0
M  V30 883 C 80.4755 -2.56671 3.42497 0
M  V30 884 C 79.8015 -3.95697 3.59622 0
M  V30 885 C 81.1015 -2.11601 4.77517 0
M  V30 886 H 82.7955 -0.953525 2.8381 0
M  V30 887 H 80.3415 -0.457244 1.36548 0
M  V30 888 H 82.2945 -3.37077 2.52898 0
M  V30 889 H 81.0185 -2.9732 1.35161 0
M  V30 890 H 79.6775 -1.85051 3.16467 0
M  V30 891 H 79.3255 -4.27322 2.6534 0
M  V30 892 H 79.0255 -3.92345 4.37424 0
M  V30 893 H 80.5495 -4.71438 3.88044 0
M  V30 894 H 81.9635 -2.7542 5.02809 0
M  V30 895 H 80.3605 -2.19311 5.5859 0
M  V30 896 H 81.4305 -1.06824 4.72987 0
M  V30 897 N 82.7736 -1.49793 -0.48987 0
M  V30 898 C 84.1846 -1.52914 -1.07118 0
M  V30 899 C 84.5356 -0.321738 -1.93544 0
M  V30 900 O 83.6606 0.567338 -2.08831 0
M  V30 901 C 84.2556 -2.771 -1.94938 0
M  V30 902 C 82.8146 -2.82963 -2.48212 0
M  V30 903 C 81.9616 -2.46972 -1.26096 0
M  V30 904 H 84.9126 -1.56329 -0.273289 0
M  V30 905 H 84.9336 -2.57892 -2.79771 0
M  V30 906 H 84.4456 -3.64959 -1.32009 0
M  V30 907 H 82.5466 -1.99411 -3.14748 0
M  V30 908 H 82.6596 -3.85406 -2.84603 0
M  V30 909 H 81.0236 -1.98994 -1.58976 0
M  V30 910 H 81.8066 -3.37118 -0.648581 0
M  V30 911 N 84.2517 0.741722 -1.39055 0
M  V30 912 C 85.4997 1.49818 -1.35643 0
M  V30 913 C 85.8207 1.94938 0.0491642 0
M  V30 914 O 85.0907 1.68505 0.999141 0
M  V30 915 H 83.6707 0.555755 -0.499144 0
M  V30 916 H 86.3327 0.880957 -1.73854 0
M  V30 917 H 85.4287 2.38348 -2.01486 0
M  V30 918 N 85.7298 1.2412 0.971189 0
M  V30 919 C 86.9548 1.10667 1.75407 0
M  V30 920 C 87.3798 -0.337048 1.85056 0
M  V30 921 O 86.7378 -1.24396 1.31892 0
M  V30 922 C 86.7858 1.74726 3.15441 0
M  V30 923 O 85.8898 1.01566 3.99697 0
M  V30 924 H 85.2308 0.387341 0.539317 0
M  V30 925 H 87.7608 1.64358 1.2185 0
M  V30 926 H 87.7708 1.80341 3.6598 0
M  V30 927 H 86.4458 2.79773 3.07734 0
M  V30 928 H 85.0228 1.03713 3.58187 0
M  V30 929 N 87.2079 -1.17134 1.05439 0
M  V30 930 C 88.4559 -1.87085 0.764429 0
M  V30 931 C 88.7769 -1.81584 -0.710787 0
M  V30 932 O 88.0469 -1.24349 -1.51374 0
M  V30 933 H 86.6269 -0.692627 0.279779 0
M  V30 934 H 89.2889 -1.42087 1.33406 0
M  V30 935 H 88.3849 -2.92759 1.0816 0
M  V30 936 N 88.686 -0.835752 -1.33615 0
M  V30 937 C 90.102 -0.523139 -1.50783 0
M  V30 938 C 90.302 0.950171 -1.77691 0
M  V30 939 O 89.358 1.73411 -1.83534 0
M  V30 940 C 90.671 -1.39378 -2.66448 0
M  V30 941 C 92.219 -1.39223 -2.80332 0
M  V30 942 C 92.694 -2.24765 -3.99055 0
M  V30 943 N 94.185 -2.22458 -4.06284 0
M  V30 944 C 94.92 -2.85386 -4.97336 0
M  V30 945 N 94.416 -3.57354 -5.93523 0
M  V30 946 N 96.209 -2.74872 -4.90308 0
M  V30 947 H 88.36 -1.78952 -1.14411 0
M  V30 948 H 90.623 -0.763297 -0.562212 0
M  V30 949 H 90.329 -2.44061 -2.53234 0
M  V30 950 H 90.203 -1.0676 -3.61776 0
M  V30 951 H 92.59 -0.353136 -2.92979 0
M  V30 952 H 92.671 -1.75846 -1.85773 0
M  V30 953 H 92.315 -3.28732 -3.87167 0
M  V30 954 H 92.245 -1.85485 -4.92852 0
M  V30 955 H 94.736 -1.70119 -3.37443 0
M  V30 956 H 95.049 -4.02584 -6.59656 0
M  V30 957 H 93.394 -3.61461 -5.93608 0
M  V30 958 H 96.585 -2.18213 -4.14126 0
M  V30 959 H 96.758 -3.24199 -5.61069 0
M  V30 960 N 90.1641 1.46063 -0.591896 0
M  V30 961 C 91.0941 2.33172 0.123673 0
M  V30 962 C 92.0751 1.45897 0.87453 0
M  V30 963 O 93.2601 1.74698 0.848181 0
M  V30 964 C 90.3901 3.28336 1.13194 0
M  V30 965 C 89.3441 4.25124 0.495324 0
M  V30 966 C 88.6701 5.09863 1.61071 0
M  V30 967 C 89.9701 5.19143 -0.573425 0
M  V30 968 H 91.6641 2.93252 -0.603646 0
M  V30 969 H 89.2101 1.41014 -0.291741 0
M  V30 970 H 91.1631 3.88137 1.64097 0
M  V30 971 H 89.8871 2.66383 1.88965 0
M  V30 972 H 88.5461 3.66599 0.00729452 0
M  V30 973 H 88.1941 4.44288 2.35832 0
M  V30 974 H 87.8941 5.75417 1.19035 0
M  V30 975 H 89.4181 5.72529 2.12233 0
M  V30 976 H 90.8321 5.73106 -0.1491 0
M  V30 977 H 89.2291 5.93089 -0.914636 0
M  V30 978 H 90.2991 4.62519 -1.45617 0
M  V30 979 N 91.6422 0.330177 1.54103 0
M  V30 980 C 92.8882 -0.270806 2.00984 0
M  V30 981 C 93.2212 -1.51265 1.21789 0
M  V30 982 O 92.4962 -1.92142 0.301927 0
M  V30 983 C 92.7792 -0.598339 3.55094 0
M  V30 984 C 92.6322 0.654674 4.4501 0
M  V30 985 C 93.9512 -1.41334 4.16789 0
M  V30 986 H 91.0702 -0.0969531 0.730595 0
M  V30 987 H 93.7122 0.448066 1.84641 0
M  V30 988 H 91.8622 -1.21078 3.69151 0
M  V30 989 H 93.5342 1.29285 4.42813 0
M  V30 990 H 91.7772 1.28224 4.14416 0
M  V30 991 H 92.4482 0.380944 5.50684 0
M  V30 992 H 94.9242 -0.895597 4.06347 0
M  V30 993 H 93.8002 -1.61127 5.24718 0
M  V30 994 H 94.0612 -2.41146 3.70541 0
M  V30 995 N 93.1203 -1.57491 0.0584922 0
M  V30 996 C 94.0303 -2.15448 -0.928414 0
M  V30 997 C 95.0463 -1.11416 -1.3365 0
M  V30 998 O 96.2223 -1.4362 -1.41193 0
M  V30 999 C 93.2873 -2.69393 -2.18239 0
M  V30 1000 C 92.3483 -3.88249 -1.83196 0
M  V30 1001 C 91.5813 -4.39613 -3.02616 0
M  V30 1002 O 91.8043 -3.90023 -4.16219 0
M  V30 1003 O 90.7383 -5.31111 -2.83204 0
M  V30 1004 H 94.5643 -3.00112 -0.465483 0
M  V30 1005 H 92.1493 -1.48499 -0.163826 0
M  V30 1006 H 94.0313 -3.04026 -2.91798 0
M  V30 1007 H 92.7063 -1.87796 -2.63656 0
M  V30 1008 H 91.6133 -3.58492 -1.06931 0
M  V30 1009 H 92.9463 -4.71098 -1.42573 0
M  V30 1010 N 94.5984 0.214957 -1.56127 0
M  V30 1011 C 95.8464 0.936518 -1.79091 0
M  V30 1012 C 96.1674 1.84606 -0.628148 0
M  V30 1013 O 95.4374 1.92664 0.35462 0
M  V30 1014 H 94.0174 0.3488 -0.660566 0
M  V30 1015 H 96.6794 0.22523 -1.93594 0
M  V30 1016 H 95.7754 1.53943 -2.71492 0
M  V30 1017 N 96.0765 1.50051 0.48192 0
M  V30 1018 C 96.9865 1.7089 1.60728 0
M  V30 1019 C 98.0025 0.591788 1.63627 0
M  V30 1020 O 99.1785 0.868817 1.81696 0
M  V30 1021 C 96.2435 1.78855 2.97005 0
M  V30 1022 C 95.3045 3.02537 3.04581 0
M  V30 1023 C 94.5375 3.10112 4.34357 0
M  V30 1024 O 94.7605 2.24765 5.24249 0
M  V30 1025 O 93.6945 4.02747 4.47301 0
M  V30 1026 H 97.5205 2.66264 1.46072 0
M  V30 1027 H 95.1055 1.34018 0.660264 0
M  V30 1028 H 96.9875 1.86336 3.77964 0
M  V30 1029 H 95.6625 0.866628 3.11883 0
M  V30 1030 H 94.5695 3.00563 2.22739 0
M  V30 1031 H 95.9025 3.94272 2.94636 0
M  V30 1032 N 97.5546 -0.734337 1.39446 0
M  V30 1033 C 98.8006 -1.49613 1.36908 0
M  V30 1034 C 99.1336 -1.94169 -0.0347829 0
M  V30 1035 O 98.4086 -1.66833 -0.999847 0
M  V30 1036 C 98.6916 -2.73534 2.34203 0
M  V30 1037 C 98.5446 -2.34993 3.83534 0
M  V30 1038 C 99.8636 -3.75635 2.29317 0
M  V30 1039 H 96.9826 -0.542714 0.498629 0
M  V30 1040 H 99.6246 -0.839597 1.70443 0
M  V30 1041 H 97.7746 -3.29553 2.05736 0
M  V30 1042 H 99.4466 -1.84601 4.22753 0
M  V30 1043 H 97.6896 -1.67213 4.00278 0
M  V30 1044 H 98.3606 -3.23738 4.47099 0
M  V30 1045 H 100.837 -3.29203 2.54489 0
M  V30 1046 H 99.7126 -4.60008 2.99472 0
M  V30 1047 H 99.9736 -4.22603 1.29842 0
M  V30 1048 N 99.0327 -1.24633 -0.964593 0
M  V30 1049 C 100.263 -1.11339 -1.74032 0
M  V30 1050 C 100.671 0.336593 -1.86182 0
M  V30 1051 O 100.014 1.24389 -1.35178 0
M  V30 1052 C 100.076 -1.68284 -3.1768 0
M  V30 1053 C 99.7397 -3.17196 -3.28992 0
M  V30 1054 C 100.737 -4.14308 -3.14078 0
M  V30 1055 C 98.4217 -3.57215 -3.53133 0
M  V30 1056 C 100.416 -5.4942 -3.23135 0
M  V30 1057 C 98.1027 -4.92468 -3.61827 0
M  V30 1058 C 99.1007 -5.8838 -3.46841 0
M  V30 1059 O 98.7887 -7.21173 -3.55197 0
M  V30 1060 H 98.5207 -0.389551 -0.552472 0
M  V30 1061 H 101.075 -1.65282 -1.21946 0
M  V30 1062 H 99.3047 -1.08777 -3.71085 0
M  V30 1063 H 100.994 -1.50234 -3.77074 0
M  V30 1064 H 101.76 -3.84731 -2.95308 0
M  V30 1065 H 97.6387 -2.83063 -3.63863 0
M  V30 1066 H 101.183 -6.24263 -3.11355 0
M  V30 1067 H 97.0797 -5.21714 -3.80111 0
M  V30 1068 H 97.8477 -7.29135 -3.71892 0
M  V30 1069 N 100.511 1.16574 -1.06058 0
M  V30 1070 C 101.474 2.19085 -0.673392 0
M  V30 1071 C 102.474 1.5835 0.279648 0
M  V30 1072 O 103.664 1.74088 0.0623488 0
M  V30 1073 C 100.796 3.40899 0.00954234 0
M  V30 1074 H 101.989 2.54853 -1.58081 0
M  V30 1075 H 99.5418 1.30808 -0.855516 0
M  V30 1076 H 100.277 3.10684 0.929826 0
M  V30 1077 H 100.062 3.86233 -0.67573 0
M  V30 1078 H 101.552 4.1675 0.266245 0
M  V30 1079 N 101.989 0.842826 1.3317 0
M  V30 1080 C 103.235 0.441099 1.97945 0
M  V30 1081 C 103.568 -0.998024 1.66593 0
M  V30 1082 O 102.843 -1.69839 0.947898 0
M  V30 1083 C 103.126 0.666841 3.53872 0
M  V30 1084 C 102.979 2.15352 3.94897 0
M  V30 1085 C 104.298 0.115544 4.39948 0
M  V30 1086 H 101.417 0.161739 0.719034 0
M  V30 1087 H 104.059 1.05907 1.57746 0
M  V30 1088 H 102.209 0.140828 3.88245 0
M  V30 1089 H 103.881 2.7447 3.70761 0
M  V30 1090 H 102.124 2.63653 3.44484 0
M  V30 1091 H 102.795 2.26221 5.03516 0
M  V30 1092 H 105.271 0.565213 4.12243 0
M  V30 1093 H 104.147 0.303152 5.48062 0
M  V30 1094 H 104.408 -0.980935 4.3108 0
M  V30 1095 N 103.467 -1.45747 0.599634 0
M  V30 1096 C 104.744 -1.95585 0.0240846 0
M  V30 1097 C 105.124 -1.54217 -1.44154 0
M  V30 1098 O 104.472 -0.800903 -2.14004 0
M  V30 1099 C 104.682 -3.48344 0.21385 0
M  V30 1100 C 106.03 -4.24504 0.0904902 0
M  V30 1101 O 107.054 -3.55911 0.143558 0
M  V30 1102 O 105.913 -5.46491 -0.0310766 0
M  V30 1103 H 103.007 -0.82602 -0.0402478 0
M  V30 1104 H 105.553 -1.55951 0.669139 0
M  V30 1105 H 104.325 -3.71397 1.23206 0
M  V30 1106 H 103.948 -3.9485 -0.466842 0
M  V30 1107 N 104.945 -0.338344 -1.53925 0
M  V30 1108 C 105.855 0.529421 -2.28548 0
M  V30 1109 C 106.871 1.11645 -1.3346 0
M  V30 1110 O 108.047 1.13325 -1.66492 0
M  V30 1111 C 105.112 1.66713 -3.03987 0
M  V30 1112 C 104.173 1.11041 -4.14691 0
M  V30 1113 C 103.406 2.19389 -4.86522 0
M  V30 1114 O 103.629 3.40013 -4.57982 0
M  V30 1115 O 102.563 1.83976 -5.73094 0
M  V30 1116 H 106.389 -0.0770399 -3.03602 0
M  V30 1117 H 103.974 -0.103555 -1.49041 0
M  V30 1118 H 105.856 2.32918 -3.5118 0
M  V30 1119 H 104.531 2.25949 -2.31794 0
M  V30 1120 H 103.438 0.413024 -3.71813 0
M  V30 1121 H 104.771 0.562975 -4.8897 0
M  V30 1122 N 106.423 1.57458 -0.0668435 0
M  V30 1123 C 107.839 1.56947 0.289772 0
M  V30 1124 C 108.039 1.07584 1.70376 0
M  V30 1125 O 107.095 0.739486 2.41429 0
M  V30 1126 C 108.408 3.0052 0.103943 0
M  V30 1127 C 109.956 3.12517 0.173857 0
M  V30 1128 C 110.431 4.57997 0.0163682 0
M  V30 1129 N 111.922 4.63144 0.0721352 0
M  V30 1130 C 112.657 5.73394 -0.0253794 0
M  V30 1131 N 112.153 6.92576 -0.176133 0
M  V30 1132 N 113.946 5.62091 0.0313305 0
M  V30 1133 H 106.097 1.87863 -0.991027 0
M  V30 1134 H 108.36 0.86583 -0.38606 0
M  V30 1135 H 108.066 3.40729 -0.871572 0
M  V30 1136 H 107.94 3.67304 0.858366 0
M  V30 1137 H 110.327 2.72197 1.13985 0
M  V30 1138 H 110.408 2.48381 -0.611586 0
M  V30 1139 H 110.052 4.99005 -0.946374 0
M  V30 1140 H 109.982 5.20158 0.821153 0
M  V30 1141 H 112.473 3.77436 0.187263 0
M  V30 1142 H 112.786 7.72418 -0.242821 0
M  V30 1143 H 111.131 6.94678 -0.211429 0
M  V30 1144 H 114.322 4.67867 0.147773 0
M  V30 1145 H 114.495 6.47982 -0.048121 0
M  V30 1146 N 107.901 -0.206675 1.56239 0
M  V30 1147 C 108.834 -1.28383 1.88661 0
M  V30 1148 C 109.812 -1.44504 0.745481 0
M  V30 1149 O 110.996 -1.60079 0.995336 0
M  V30 1150 C 108.123 -2.65211 2.10667 0
M  V30 1151 C 107.169 -2.66025 3.33366 0
M  V30 1152 S 108.002 -2.18609 4.88846 0
M  V30 1153 C 109.158 -3.57283 5.13906 0
M  V30 1154 H 109.391 -1.00691 2.7973 0
M  V30 1155 H 106.924 -0.409627 1.48867 0
M  V30 1156 H 108.882 -3.43979 2.24029 0
M  V30 1157 H 107.543 -2.90121 1.20369 0
M  V30 1158 H 106.736 -3.66607 3.45855 0
M  V30 1159 H 106.338 -1.95331 3.18938 0
M  V30 1160 H 108.63 -4.53074 5.03717 0
M  V30 1161 H 109.573 -3.49699 6.15724 0
M  V30 1162 H 109.981 -3.51659 4.41583 0
M  V30 1163 N 109.379 -1.50304 -0.473955 0
M  V30 1164 C 110.309 -1.71886 -1.58042 0
M  V30 1165 C 111.29 -0.567799 -1.60344 0
M  V30 1166 O 112.475 -0.806623 -1.76656 0
M  V30 1167 C 109.605 -1.81036 -2.96384 0
M  V30 1168 C 108.559 -2.962 -3.08949 0
M  V30 1169 C 107.885 -2.9049 -4.48909 0
M  V30 1170 C 109.185 -4.36752 -2.86434 0
M  V30 1171 H 110.879 -2.64527 -1.40234 0
M  V30 1172 H 108.425 -1.27295 -0.673201 0
M  V30 1173 H 110.378 -1.94719 -3.73714 0
M  V30 1174 H 109.102 -0.850147 -3.15341 0
M  V30 1175 H 107.761 -2.82164 -2.3405 0
M  V30 1176 H 107.409 -1.92321 -4.64781 0
M  V30 1177 H 107.109 -3.67802 -4.58253 0
M  V30 1178 H 108.633 -3.06218 -5.28264 0
M  V30 1179 H 110.047 -4.5133 -3.53517 0
M  V30 1180 H 108.444 -5.15493 -3.07225 0
M  V30 1181 H 109.514 -4.49321 -1.82316 0
M  V30 1182 N 110.857 0.726932 -1.39834 0
M  V30 1183 C 112.273 1.03354 -1.21615 0
M  V30 1184 C 112.473 2.01327 -0.08338 0
M  V30 1185 O 111.529 2.46158 0.56238 0
M  V30 1186 C 112.842 1.58811 -2.55342 0
M  V30 1187 C 114.39 1.70851 -2.62257 0
M  V30 1188 C 114.865 2.29716 -3.96225 0
M  V30 1189 N 116.356 2.37116 -3.97907 0
M  V30 1190 C 117.091 2.83619 -4.98345 0
M  V30 1191 N 116.587 3.29958 -6.09179 0
M  V30 1192 N 118.38 2.82901 -4.8572 0
M  V30 1193 H 110.531 0.0773069 -2.12259 0
M  V30 1194 H 112.794 0.0969102 -0.943034 0
M  V30 1195 H 112.5 0.942855 -3.38826 0
M  V30 1196 H 112.374 2.57502 -2.75632 0
M  V30 1197 H 114.761 2.34497 -1.79152 0
M  V30 1198 H 114.842 0.707913 -2.45809 0
M  V30 1199 H 114.486 1.66696 -4.79765 0
M  V30 1200 H 114.416 3.30469 -4.09997 0
M  V30 1201 H 116.907 2.04374 -3.17868 0
M  V30 1202 H 117.22 3.63976 -6.8172 0
M  V30 1203 H 115.565 3.27946 -6.12761 0
M  V30 1204 H 118.756 2.46027 -3.98231 0
M  V30 1205 H 118.929 3.18827 -5.6414 0
M  V30 1206 N 112.336 1.25143 0.95797 0
M  V30 1207 C 113.583 1.09692 1.70217 0
M  V30 1208 C 113.911 -0.362654 1.91089 0
M  V30 1209 O 113.166 -1.28386 1.47701 0
M  V30 1210 C 113.465 1.79272 3.09187 0
M  V30 1211 C 113.131 3.29196 3.08125 0
M  V30 1212 C 111.793 3.70096 3.07543 0
M  V30 1213 C 114.145 4.24995 3.0171 0
M  V30 1214 C 111.473 5.05213 2.9829 0
M  V30 1215 C 113.825 5.60132 2.93999 0
M  V30 1216 C 112.489 6.00365 2.9175 0
M  V30 1217 H 111.759 0.401393 0.622868 0
M  V30 1218 H 114.406 1.55372 1.11945 0
M  V30 1219 H 112.711 1.26014 3.70982 0
M  V30 1220 H 114.408 1.64773 3.65583 0
M  V30 1221 H 110.998 2.96651 3.09348 0
M  V30 1222 H 115.182 3.9439 3.01281 0
M  V30 1223 H 110.438 5.35569 2.94916 0
M  V30 1224 H 114.612 6.3406 2.87996 0
M  V30 1225 H 112.239 7.05023 2.84336 0
M  V30 1226 N 113.814 -1.1601 1.06675 0
M  V30 1227 C 114.744 -2.22688 0.702307 0
M  V30 1228 C 115.725 -1.67306 -0.307032 0
M  V30 1229 O 116.91 -1.93352 -0.181305 0
M  V30 1230 C 114.04 -3.47178 0.092038 0
M  V30 1231 C 112.994 -4.15477 1.02777 0
M  V30 1232 C 112.32 -5.33963 0.28061 0
M  V30 1233 C 113.62 -4.66019 2.35846 0
M  V30 1234 H 115.314 -2.53429 1.59419 0
M  V30 1235 H 112.86 -1.21813 0.767961 0
M  V30 1236 H 114.813 -4.21037 -0.174814 0
M  V30 1237 H 113.537 -3.15749 -0.834877 0
M  V30 1238 H 112.196 -3.43549 1.27944 0
M  V30 1239 H 111.844 -4.98788 -0.649545 0
M  V30 1240 H 111.544 -5.806 0.904258 0
M  V30 1241 H 113.068 -6.10596 0.021396 0
M  V30 1242 H 114.482 -5.3144 2.15045 0
M  V30 1243 H 112.879 -5.23293 2.93743 0
M  V30 1244 H 113.949 -3.82023 2.98641 0
M  V30 1245 N 115.292 -0.849877 -1.32721 0
M  V30 1246 C 116.569 -0.372405 -1.92022 0
M  V30 1247 C 116.949 1.1435 -1.77447 0
M  V30 1248 O 116.297 1.96296 -1.16962 0
M  V30 1249 C 116.507 -0.831482 -3.3895 0
M  V30 1250 C 117.855 -0.845882 -4.16089 0
M  V30 1251 O 118.879 -0.775806 -3.47649 0
M  V30 1252 O 117.738 -0.943753 -5.38289 0
M  V30 1253 H 114.832 -0.107667 -0.819961 0
M  V30 1254 H 117.378 -0.93646 -1.41522 0
M  V30 1255 H 116.15 -1.87448 -3.4348 0
M  V30 1256 H 115.773 -0.24461 -3.96847 0
M  V30 1257 N 116.77 1.45427 -0.607355 0
M  V30 1258 C 118.047 1.9557 -0.0344566 0
M  V30 1259 C 118.427 1.54979 1.43334 0
M  V30 1260 O 117.775 0.812241 2.13576 0
M  V30 1261 C 117.985 3.48226 -0.232321 0
M  V30 1262 C 119.333 4.2445 -0.113001 0
M  V30 1263 O 120.357 3.55829 -0.162431 0
M  V30 1264 O 119.216 5.465 0.00209442 0
M  V30 1265 H 116.31 0.826222 0.0358667 0
M  V30 1266 H 118.856 1.55594 -0.6774 0
M  V30 1267 H 117.628 3.70739 -1.25174 0
M  V30 1268 H 117.251 3.95092 0.445896 0
M  V30 1269 N 118.248 0.346503 1.53744 0
M  V30 1270 C 119.495 -0.249104 2.00962 0
M  V30 1271 C 119.823 -1.5032 1.23426 0
M  V30 1272 O 119.078 -1.93217 0.310761 0
M  V30 1273 C 119.377 -0.605809 3.52228 0
M  V30 1274 C 119.043 0.551747 4.47512 0
M  V30 1275 C 117.705 0.86941 4.73281 0
M  V30 1276 C 120.057 1.32818 5.03993 0
M  V30 1277 C 117.385 1.96582 5.52786 0
M  V30 1278 C 119.737 2.41486 5.84694 0
M  V30 1279 C 118.401 2.73808 6.08757 0
M  V30 1280 H 117.671 -0.0911538 0.735372 0
M  V30 1281 H 120.318 0.475027 1.85515 0
M  V30 1282 H 118.623 -1.4107 3.65522 0
M  V30 1283 H 120.32 -1.07858 3.86222 0
M  V30 1284 H 116.91 0.294102 4.2759 0
M  V30 1285 H 121.094 1.09602 4.84047 0
M  V30 1286 H 116.35 2.22045 5.69654 0
M  V30 1287 H 120.524 3.02078 6.27473 0
M  V30 1288 H 118.151 3.58892 6.7015 0
M  V30 1289 N 119.726 -1.57421 0.075193 0
M  V30 1290 C 120.636 -2.1642 -0.905511 0
M  V30 1291 C 121.652 -1.12828 -1.32461 0
M  V30 1292 O 122.828 -1.45109 -1.39661 0
M  V30 1293 C 119.893 -2.71693 -2.15369 0
M  V30 1294 C 118.954 -3.90171 -1.79068 0
M  V30 1295 C 118.187 -4.42798 -2.97936 0
M  V30 1296 O 118.41 -3.94416 -4.12058 0
M  V30 1297 O 117.344 -5.34085 -2.77555 0
M  V30 1298 H 121.17 -3.00588 -0.433626 0
M  V30 1299 H 118.755 -1.48664 -0.148067 0
M  V30 1300 H 120.637 -3.07104 -2.88557 0
M  V30 1301 H 119.312 -1.90582 -2.61649 0
M  V30 1302 H 118.219 -3.59606 -1.03122 0
M  V30 1303 H 119.552 -4.72584 -1.37569 0
M  V30 1304 N 121.204 0.198386 -1.56346 0
M  V30 1305 C 122.429 0.939682 -1.84891 0
M  V30 1306 C 122.854 1.76202 -0.658369 0
M  V30 1307 O 122.212 1.76993 0.392851 0
M  V30 1308 C 122.26 1.81428 -3.11635 0
M  V30 1309 O 121.364 2.91265 -2.91956 0
M  V30 1310 H 120.705 0.264807 -0.608912 0
M  V30 1311 H 123.235 0.204695 -2.03573 0
M  V30 1312 H 123.245 2.21958 -3.42343 0
M  V30 1313 H 121.92 1.21004 -3.97908 0
M  V30 1314 H 120.497 2.54514 -2.72538 0
M  V30 1315 N 122.682 1.50554 0.465978 0
M  V30 1316 C 123.922 1.63439 1.22747 0
M  V30 1317 C 124.286 0.329822 1.89146 0
M  V30 1318 O 125.487 0.334161 2.66715 0
M  V30 1319 C 123.758 2.78542 2.2394 0
M  V30 1320 S 125.317 3.11591 3.0896 0
M  V30 1321 H 122.135 0.576113 0.416672 0
M  V30 1322 H 124.737 1.88357 0.523641 0
M  V30 1323 H 123.441 3.71805 1.7375 0
M  V30 1324 H 122.972 2.55726 2.98944 0
M  V30 1325 H 124.987 2.55811 4.25176 0
M  V30 1326 N 124.16 -0.719506 1.40217 0
M  V30 1327 C 125.571 -1.29848 1.34151 0
M  V30 1328 C 125.922 -1.96196 0.0131349 0
M  V30 1329 O 125.047 -1.973 -0.88892 0
M  V30 1330 C 125.642 -2.36118 2.42968 0
M  V30 1331 C 124.201 -2.8965 2.40374 0
M  V30 1332 C 123.348 -1.63393 2.24049 0
M  V30 1333 H 126.299 -0.51591 1.5008 0
M  V30 1334 H 126.32 -3.16871 2.10649 0
M  V30 1335 H 125.832 -1.878 3.39636 0
M  V30 1336 H 123.933 -3.42208 1.47392 0
M  V30 1337 H 124.046 -3.4171 3.35814 0
M  V30 1338 H 122.41 -1.88312 1.71495 0
M  V30 1339 H 123.193 -1.17104 3.2271 0
M  V30 1340 N 125.638 -1.25649 -0.95132 0
M  V30 1341 C 126.601 -1.06399 -2.03007 0
M  V30 1342 C 127.601 -0.0156794 -1.60792 0
M  V30 1343 O 128.791 -0.25817 -1.72276 0
M  V30 1344 C 125.923 -0.616184 -3.35285 0
M  V30 1345 H 127.116 -2.02164 -2.21517 0
M  V30 1346 H 124.669 -1.08103 -1.12887 0
M  V30 1347 H 125.404 0.343917 -3.22471 0
M  V30 1348 H 125.189 -1.37301 -3.67275 0
M  V30 1349 H 126.679 -0.503032 -4.14559 0
M  V30 1350 N 127.117 1.15442 -1.07289 0
M  V30 1351 C 128.047 2.22312 -0.714107 0
M  V30 1352 C 129.028 1.67467 0.298155 0
M  V30 1353 O 130.213 1.93445 0.171048 0
M  V30 1354 C 127.343 3.47124 -0.110448 0
M  V30 1355 C 126.297 4.14926 -1.04979 0
M  V30 1356 C 125.623 5.33807 -0.308924 0
M  V30 1357 C 126.923 4.64762 -2.38314 0
M  V30 1358 H 128.617 2.5258 -1.6076 0
M  V30 1359 H 126.163 1.21404 -0.77441 0
M  V30 1360 H 128.116 4.21124 0.152482 0
M  V30 1361 H 126.84 3.16187 0.81812 0
M  V30 1362 H 125.499 3.42866 -1.29764 0
M  V30 1363 H 125.147 4.99126 0.623084 0
M  V30 1364 H 124.847 5.80113 -0.935036 0
M  V30 1365 H 126.371 6.10576 -0.0537771 0
M  V30 1366 H 127.785 5.30292 -2.1786 0
M  V30 1367 H 126.182 5.21728 -2.96514 0
M  V30 1368 H 127.252 3.80434 -3.00663 0
M  V30 1369 N 128.595 0.856903 1.32268 0
M  V30 1370 C 129.825 0.47475 2.01071 0
M  V30 1371 C 130.233 -0.933746 1.64553 0
M  V30 1372 O 129.576 -1.62114 0.863989 0
M  V30 1373 C 129.638 0.536746 3.55471 0
M  V30 1374 C 129.302 1.90453 4.15423 0
M  V30 1375 C 130.299 2.87029 4.33486 0
M  V30 1376 C 127.984 2.20229 4.51447 0
M  V30 1377 C 129.978 4.11532 4.86744 0
M  V30 1378 C 127.665 3.44984 5.0441 0
M  V30 1379 C 128.663 4.40452 5.22007 0
M  V30 1380 O 128.351 5.62998 5.73837 0
M  V30 1381 H 128.083 0.184778 0.650256 0
M  V30 1382 H 130.637 1.15615 1.69771 0
M  V30 1383 H 128.867 -0.20152 3.86175 0
M  V30 1384 H 130.556 0.169875 4.05544 0
M  V30 1385 H 131.322 2.6533 4.05986 0
M  V30 1386 H 127.201 1.46705 4.37034 0
M  V30 1387 H 130.745 4.86056 5.00395 0
M  V30 1388 H 126.642 3.66532 5.31342 0
M  V30 1389 H 127.41 5.64987 5.92226 0
M  V30 1390 N 130.073 -1.45103 0.615059 0
M  V30 1391 C 131.005 -2.28786 -0.13762 0
M  V30 1392 C 132.018 -1.40376 -0.824525 0
M  V30 1393 O 133.207 -1.64681 -0.688662 0
M  V30 1394 C 130.307 -3.16322 -1.21628 0
M  V30 1395 C 129.48 -4.33054 -0.615039 0
M  V30 1396 C 128.539 -5.01743 -1.58556 0
M  V30 1397 O 127.565 -5.58293 -1.10895 0
M  V30 1398 N 128.767 -5.01714 -2.91998 0
M  V30 1399 H 131.532 -2.94025 0.580483 0
M  V30 1400 H 129.093 -1.55373 0.45507 0
M  V30 1401 H 131.085 -3.59139 -1.86552 0
M  V30 1402 H 129.655 -2.52943 -1.83681 0
M  V30 1403 H 128.875 -3.93627 0.21245 0
M  V30 1404 H 130.163 -5.08431 -0.193704 0
M  V30 1405 H 129.561 -4.57075 -3.33316 0
M  V30 1406 H 128.118 -5.48371 -3.52325 0
M  V30 1407 N 131.551 -0.354651 -1.53558 0
M  V30 1408 C 132.967 -0.00315426 -1.596 0
M  V30 1409 C 133.167 1.47741 -1.37021 0
M  V30 1410 O 132.223 2.23759 -1.16996 0
M  V30 1411 C 133.536 -0.44929 -2.97325 0
M  V30 1412 C 135.084 -0.402578 -3.104 0
M  V30 1413 C 135.559 -0.824355 -4.5052 0
M  V30 1414 N 137.05 -0.778979 -4.56603 0
M  V30 1415 C 137.785 -1.07715 -5.63192 0
M  V30 1416 N 137.281 -1.44405 -6.77583 0
M  V30 1417 N 139.074 -1.00066 -5.53121 0
M  V30 1418 H 131.225 -1.31893 -1.66487 0
M  V30 1419 H 133.488 -0.538388 -0.780284 0
M  V30 1420 H 133.194 -1.48202 -3.1895 0
M  V30 1421 H 133.068 0.169772 -3.76818 0
M  V30 1422 H 135.455 0.621004 -2.88492 0
M  V30 1423 H 135.536 -1.05699 -2.32941 0
M  V30 1424 H 135.18 -1.846 -4.73165 0
M  V30 1425 H 135.11 -0.147304 -5.26394 0
M  V30 1426 H 137.601 -0.508528 -3.74463 0
M  V30 1427 H 137.914 -1.65612 -7.54846 0
M  V30 1428 H 136.259 -1.4826 -6.79002 0
M  V30 1429 H 139.45 -0.713293 -4.62633 0
M  V30 1430 H 139.623 -1.23638 -6.36096 0
M  V30 1431 N 133.029 1.57378 -0.0835403 0
M  V30 1432 C 134.257 1.98263 0.59157 0
M  V30 1433 C 134.672 0.962302 1.62435 0
M  V30 1434 O 134.029 -0.049581 1.82433 0
M  V30 1435 C 134.08 3.39214 1.24965 0
M  V30 1436 O 133.801 4.37339 0.258186 0
M  V30 1437 C 135.302 3.95038 2.01147 0
M  V30 1438 H 132.522 0.651773 0.159477 0
M  V30 1439 H 135.066 2.03878 -0.159415 0
M  V30 1440 H 133.221 3.34649 1.95164 0
M  V30 1441 H 133.635 5.19371 0.731734 0
M  V30 1442 H 135.109 4.95848 2.42567 0
M  V30 1443 H 135.586 3.32222 2.87272 0
M  V30 1444 H 136.192 4.0304 1.35789 0
M  V30 1445 N 134.507 -0.190092 1.56449 0
M  V30 1446 C 135.753 -0.911052 1.81184 0
M  V30 1447 C 136.086 -1.82699 0.658396 0
M  V30 1448 O 135.361 -1.91491 -0.340775 0
M  V30 1449 C 135.644 -1.72297 3.16205 0
M  V30 1450 C 135.497 -0.831419 4.42049 0
M  V30 1451 C 136.816 -2.69454 3.47969 0
M  V30 1452 H 133.935 -0.32977 0.659106 0
M  V30 1453 H 136.577 -0.178169 1.89163 0
M  V30 1454 H 134.727 -2.34778 3.09534 0
M  V30 1455 H 136.399 -0.220929 4.60771 0
M  V30 1456 H 134.642 -0.138406 4.33579 0
M  V30 1457 H 135.313 -1.43461 5.33032 0
M  V30 1458 H 137.789 -2.17104 3.54972 0
M  V30 1459 H 136.665 -3.23342 4.43555 0
M  V30 1460 H 136.926 -3.48744 2.71717 0
M  V30 1461 N 135.985 -1.50799 -0.457987 0
M  V30 1462 C 136.915 -1.73553 -1.5621 0
M  V30 1463 C 137.896 -0.584774 -1.59732 0
M  V30 1464 O 139.081 -0.825314 -1.7579 0
M  V30 1465 C 136.211 -1.84169 -2.94447 0
M  V30 1466 C 135.165 -2.99461 -3.0579 0
M  V30 1467 C 134.491 -2.95235 -4.45803 0
M  V30 1468 C 135.791 -4.39766 -2.81786 0
M  V30 1469 H 137.485 -2.66 -1.37421 0
M  V30 1470 H 135.031 -1.28002 -0.659662 0
M  V30 1471 H 136.984 -1.98672 -3.71628 0
M  V30 1472 H 135.708 -0.883545 -3.14422 0
M  V30 1473 H 134.367 -2.8463 -2.31044 0
M  V30 1474 H 134.015 -1.97239 -4.62715 0
M  V30 1475 H 133.715 -3.72642 -4.54326 0
M  V30 1476 H 135.239 -3.11803 -5.24987 0
M  V30 1477 H 136.653 -4.55054 -3.4871 0
M  V30 1478 H 135.05 -5.18722 -3.0174 0
M  V30 1479 H 136.12 -4.51229 -1.7754 0
M  V30 1480 N 137.463 0.71206 -1.40597 0
M  V30 1481 C 138.879 1.02058 -1.22704 0
M  V30 1482 C 139.079 2.01228 -0.104729 0
M  V30 1483 O 138.135 2.4674 0.53624 0
M  V30 1484 C 139.448 1.56094 -2.57012 0
M  V30 1485 C 140.996 1.6806 -2.64054 0
M  V30 1486 C 141.471 2.25501 -3.9864 0
M  V30 1487 N 142.962 2.32882 -4.004 0
M  V30 1488 C 143.697 2.78317 -5.01325 0
M  V30 1489 N 143.193 3.23478 -6.12645 0
M  V30 1490 N 144.986 2.77733 -4.88693 0
M  V30 1491 H 137.137 0.0547896 -2.12329 0
M  V30 1492 H 139.4 0.0869027 -0.944008 0
M  V30 1493 H 139.106 0.906865 -3.39807 0
M  V30 1494 H 138.98 2.54564 -2.78347 0
M  V30 1495 H 141.367 2.32583 -1.81629 0
M  V30 1496 H 141.448 0.681802 -2.46546 0
M  V30 1497 H 141.092 1.61598 -4.81506 0
M  V30 1498 H 141.022 3.26102 -4.13479 0
M  V30 1499 H 143.513 2.00991 -3.20017 0
M  V30 1500 H 143.826 3.56725 -6.85542 0
M  V30 1501 H 142.171 3.21429 -6.16205 0
M  V30 1502 H 145.362 2.4179 -4.00818 0
M  V30 1503 H 145.535 3.12826 -5.67489 0
M  V30 1504 N 138.941 1.26152 0.944643 0
M  V30 1505 C 140.187 1.11657 1.69294 0
M  V30 1506 C 140.52 -0.339926 1.91202 0
M  V30 1507 O 139.795 -1.24994 1.49019 0
M  V30 1508 C 140.078 1.88236 3.06984 0
M  V30 1509 C 139.931 3.41772 2.92424 0
M  V30 1510 C 141.25 1.67343 4.07043 0
M  V30 1511 H 138.369 0.407004 0.614424 0
M  V30 1512 H 141.011 1.55106 1.09737 0
M  V30 1513 H 139.161 1.51308 3.57824 0
M  V30 1514 H 140.833 3.88433 2.48832 0
M  V30 1515 H 139.076 3.68974 2.28124 0
M  V30 1516 H 139.747 3.90579 3.90067 0
M  V30 1517 H 142.223 1.99509 3.65151 0
M  V30 1518 H 141.099 2.23346 5.01406 0
M  V30 1519 H 141.36 0.617158 4.37771 0
M  V30 1520 N 140.419 -1.14872 1.07899 0
M  V30 1521 C 141.351 -2.19425 0.662231 0
M  V30 1522 C 142.364 -1.60231 -0.288079 0
M  V30 1523 O 143.553 -1.78336 -0.076534 0
M  V30 1524 C 140.653 -3.38867 -0.0470695 0
M  V30 1525 C 139.826 -4.27597 0.920831 0
M  V30 1526 C 138.885 -5.25616 0.247805 0
M  V30 1527 O 137.911 -5.62189 0.890599 0
M  V30 1528 N 139.113 -5.71746 -1.00435 0
M  V30 1529 H 141.878 -2.55797 1.56166 0
M  V30 1530 H 139.439 -1.30042 0.964404 0
M  V30 1531 H 141.431 -4.01497 -0.50813 0
M  V30 1532 H 140.001 -3.00864 -0.848523 0
M  V30 1533 H 139.221 -3.61982 1.56087 0
M  V30 1534 H 140.509 -4.83748 1.57688 0
M  V30 1535 H 139.907 -5.44153 -1.54642 0
M  V30 1536 H 138.464 -6.36389 -1.40899 0
M  V30 1537 N 141.898 -0.863906 -1.31812 0
M  V30 1538 C 142.828 -0.330843 -2.31144 0
M  V30 1539 C 143.809 0.575005 -1.60087 0
M  V30 1540 O 144.994 0.493304 -1.8783 0
M  V30 1541 C 142.124 0.47374 -3.44054 0
M  V30 1542 C 141.078 -0.338481 -4.26659 0
M  V30 1543 C 140.404 0.591412 -5.31419 0
M  V30 1544 C 141.704 -1.56926 -4.98168 0
M  V30 1545 H 143.398 -1.16086 -2.75979 0
M  V30 1546 H 140.944 -0.559657 -1.32679 0
M  V30 1547 H 142.897 0.857143 -4.12591 0
M  V30 1548 H 141.621 1.33721 -2.9797 0
M  V30 1549 H 140.28 -0.703754 -3.59782 0
M  V30 1550 H 139.928 1.45199 -4.81587 0
M  V30 1551 H 139.628 0.0519022 -5.87577 0
M  V30 1552 H 141.152 0.97179 -6.02817 0
M  V30 1553 H 142.566 -1.25764 -5.59336 0
M  V30 1554 H 140.963 -2.04739 -5.64094 0
M  V30 1555 H 142.033 -2.32544 -4.25501 0
M  V30 1556 N 143.376 1.44774 -0.622745 0
M  V30 1557 C 144.306 2.33382 0.0741861 0
M  V30 1558 C 145.287 1.47719 0.843387 0
M  V30 1559 O 146.472 1.76458 0.810934 0
M  V30 1560 C 143.602 3.30663 1.06204 0
M  V30 1561 C 142.556 4.26079 0.405037 0
M  V30 1562 C 141.882 5.13165 1.5022 0
M  V30 1563 C 143.182 5.1781 -0.683414 0
M  V30 1564 H 144.876 2.91905 -0.665713 0
M  V30 1565 H 142.422 1.40363 -0.321587 0
M  V30 1566 H 144.375 3.9153 1.55827 0
M  V30 1567 H 143.099 2.70331 1.83272 0
M  V30 1568 H 141.758 3.66532 -0.0704683 0
M  V30 1569 H 141.406 4.49191 2.26355 0
M  V30 1570 H 141.106 5.77812 1.06803 0
M  V30 1571 H 142.63 5.76902 2.00041 0
M  V30 1572 H 144.044 5.72661 -0.270631 0
M  V30 1573 H 142.441 5.91015 -1.04023 0
M  V30 1574 H 143.511 4.59326 -1.55395 0
M  V30 1575 N 144.854 0.36279 1.53368 0
M  V30 1576 C 145.764 -0.492994 2.29362 0
M  V30 1577 C 146.78 -1.09507 1.35219 0
M  V30 1578 O 147.956 -1.10662 1.68273 0
M  V30 1579 C 145.021 -1.61855 3.066 0
M  V30 1580 C 144.082 -1.04429 4.16405 0
M  V30 1581 C 143.315 -2.11621 4.89951 0
M  V30 1582 O 143.538 -3.32684 4.63333 0
M  V30 1583 O 142.472 -1.74835 5.75948 0
M  V30 1584 H 146.298 0.125331 3.03441 0
M  V30 1585 H 143.883 0.127253 1.48857 0
M  V30 1586 H 145.765 -2.27302 3.54841 0
M  V30 1587 H 144.44 -2.22233 2.3536 0
M  V30 1588 H 143.347 -0.353819 3.72423 0
M  V30 1589 H 144.68 -0.485113 4.89804 0
M  V30 1590 N 146.332 -1.57332 0.0918853 0
M  V30 1591 C 147.609 -1.85691 -0.614668 0
M  V30 1592 C 147.989 -0.988146 -1.86545 0
M  V30 1593 O 147.337 -0.0597055 -2.28422 0
M  V30 1594 C 147.547 -3.36294 -0.933126 0
M  V30 1595 C 148.895 -4.04275 -1.29796 0
M  V30 1596 O 149.919 -3.41157 -1.02424 0
M  V30 1597 O 148.778 -5.1564 -1.81047 0
M  V30 1598 H 145.872 -0.767802 -0.307261 0
M  V30 1599 H 148.418 -1.69244 0.12434 0
M  V30 1600 H 147.19 -3.91273 -0.0456404 0
M  V30 1601 H 146.813 -3.58076 -1.72822 0
M  V30 1602 N 147.81 0.181792 -1.56548 0
M  V30 1603 C 149.226 0.53316 -1.50431 0
M  V30 1604 C 149.426 1.85184 -0.794297 0
M  V30 1605 O 148.482 2.50058 -0.350318 0
M  V30 1606 C 149.795 0.575597 -2.9514 0
M  V30 1607 C 151.343 0.663519 -3.05886 0
M  V30 1608 C 151.818 0.736946 -4.52032 0
M  V30 1609 N 153.309 0.800118 -4.56237 0
M  V30 1610 C 154.044 0.877327 -5.66649 0
M  V30 1611 N 153.54 0.916016 -6.86718 0
M  V30 1612 N 155.333 0.915542 -5.54594 0
M  V30 1613 H 147.484 -0.683025 -2.01118 0
M  V30 1614 H 149.747 -0.244988 -0.915797 0
M  V30 1615 H 149.453 -0.324482 -3.502 0
M  V30 1616 H 149.327 1.42572 -3.49218 0
M  V30 1617 H 151.714 1.55403 -2.50867 0
M  V30 1618 H 151.795 -0.21307 -2.54911 0
M  V30 1619 H 151.439 -0.149262 -5.07681 0
M  V30 1620 H 151.369 1.62953 -5.00753 0
M  V30 1621 H 153.86 0.778926 -3.69785 0
M  V30 1622 H 154.173 0.975813 -7.66614 0
M  V30 1623 H 152.518 0.884469 -6.89349 0
M  V30 1624 H 155.709 0.882245 -4.59711 0
M  V30 1625 H 155.882 0.972253 -6.40665 0
M  V30 1626 N 149.288 1.51039 0.449983 0
M  V30 1627 C 150.251 1.70863 1.5277 0
M  V30 1628 C 151.251 0.578846 1.5002 0
M  V30 1629 O 152.441 0.846213 1.52266 0
M  V30 1630 C 149.573 1.75341 2.9235 0
M  V30 1631 H 150.766 2.67034 1.36502 0
M  V30 1632 H 148.319 1.40838 0.677812 0
M  V30 1633 H 149.054 0.809383 3.14037 0
M  V30 1634 H 148.839 2.57436 2.95752 0
M  V30 1635 H 150.329 1.92559 3.70555 0
M  V30 1636 N 150.766 -0.704594 1.40972 0
M  V30 1637 C 152.177 -1.28418 1.3552 0
M  V30 1638 C 152.528 -1.96171 0.0339434 0
M  V30 1639 O 151.653 -1.98231 -0.867944 0
M  V30 1640 C 152.248 -2.33528 2.45459 0
M  V30 1641 C 150.807 -2.87085 2.43433 0
M  V30 1642 C 149.954 -1.61007 2.2577 0
M  V30 1643 H 152.905 -0.499963 1.50619 0
M  V30 1644 H 152.926 -3.14619 2.13998 0
M  V30 1645 H 152.438 -1.84187 3.41609 0
M  V30 1646 H 150.539 -3.40626 1.51013 0
M  V30 1647 H 150.652 -3.3813 3.39419 0
M  V30 1648 H 149.016 -1.86482 1.73483 0
M  V30 1649 H 149.799 -1.13675 3.23933 0
M  V30 1650 N 152.244 -1.26651 -0.937939 0
M  V30 1651 C 153.492 -1.12165 -1.68118 0
M  V30 1652 C 153.813 0.334983 -1.92101 0
M  V30 1653 O 153.083 1.23583 -1.52 0
M  V30 1654 H 151.663 -0.412093 -0.623048 0
M  V30 1655 H 154.325 -1.59027 -1.12678 0
M  V30 1656 H 153.421 -1.64289 -2.6536 0
M  V30 1657 N 153.722 1.14298 -1.08507 0
M  V30 1658 C 154.685 2.17607 -0.719711 0
M  V30 1659 C 155.685 1.58907 0.245997 0
M  V30 1660 O 156.875 1.74181 0.0254081 0
M  V30 1661 C 154.007 3.40842 -0.0627695 0
M  V30 1662 H 155.2 2.51443 -1.63452 0
M  V30 1663 H 152.753 1.28963 -0.88307 0
M  V30 1664 H 153.488 3.12587 0.863716 0
M  V30 1665 H 153.273 3.84713 -0.757504 0
M  V30 1666 H 154.763 4.17221 0.177786 0
M  V30 1667 N 155.201 0.870884 1.31352 0
M  V30 1668 C 156.111 0.330783 2.32256 0
M  V30 1669 C 157.127 -0.559767 1.6475 0
M  V30 1670 O 158.303 -0.456263 1.96164 0
M  V30 1671 C 155.368 -0.458137 3.4366 0
M  V30 1672 C 154.429 0.460482 4.26823 0
M  V30 1673 C 153.662 -0.290881 5.32907 0
M  V30 1674 O 153.885 -1.51885 5.49806 0
M  V30 1675 O 152.819 0.351732 6.00871 0
M  V30 1676 H 156.645 1.16718 2.80376 0
M  V30 1677 H 154.23 0.634285 1.35267 0
M  V30 1678 H 156.112 -0.905343 4.1156 0
M  V30 1679 H 154.787 -1.27106 2.97701 0
M  V30 1680 H 153.694 0.956207 3.61673 0
M  V30 1681 H 155.027 1.23903 4.7635 0
M  V30 1682 N 156.679 -1.44442 0.630414 0
M  V30 1683 C 157.589 -2.34476 -0.0761693 0
M  V30 1684 C 158.605 -1.52576 -0.836449 0
M  V30 1685 O 159.781 -1.85307 -0.788874 0
M  V30 1686 C 156.846 -3.30545 -1.04599 0
M  V30 1687 C 155.907 -4.28352 -0.28516 0
M  V30 1688 C 155.14 -5.19831 -1.20878 0
M  V30 1689 O 155.363 -5.15223 -2.44747 0
M  V30 1690 O 154.297 -5.97892 -0.693491 0
M  V30 1691 H 158.123 -2.96345 0.664324 0
M  V30 1692 H 155.708 -1.44203 0.39061 0
M  V30 1693 H 157.59 -3.89681 -1.60396 0
M  V30 1694 H 156.265 -2.7121 -1.76711 0
M  V30 1695 H 155.172 -3.72764 0.315837 0
M  V30 1696 H 156.505 -4.90605 0.395924 0
M  V30 1697 N 158.157 -0.370918 -1.53173 0
M  V30 1698 C 159.568 0.107139 -1.86392 0
M  V30 1699 C 159.919 1.47714 -1.29132 0
M  V30 1700 O 159.044 2.07464 -0.615439 0
M  V30 1701 C 159.639 0.201187 -3.38202 0
M  V30 1702 C 158.198 0.623507 -3.712 0
M  V30 1703 C 157.345 -0.225978 -2.76378 0
M  V30 1704 H 160.296 -0.58951 -1.47345 0
M  V30 1705 H 160.317 1.02377 -3.66468 0
M  V30 1706 H 159.829 -0.796058 -3.79848 0
M  V30 1707 H 157.93 1.62879 -3.35114 0
M  V30 1708 H 158.043 0.394414 -4.77474 0
M  V30 1709 H 156.407 0.305962 -2.52856 0
M  V30 1710 H 157.19 -1.22086 -3.20858 0
M  V30 1711 N 159.635 1.57281 -0.100228 0
M  V30 1712 C 161.046 1.81725 0.428107 0
M  V30 1713 C 161.397 1.01619 1.67833 0
M  V30 1714 O 160.522 0.247098 2.14985 0
M  V30 1715 C 161.117 3.29617 0.78347 0
M  V30 1716 C 159.676 3.54808 1.25653 0
M  V30 1717 C 158.823 2.76118 0.255752 0
M  V30 1718 H 161.774 1.55324 -0.325608 0
M  V30 1719 H 161.795 3.4322 1.64256 0
M  V30 1720 H 161.307 3.87893 -0.12665 0
M  V30 1721 H 159.408 3.01868 2.18418 0
M  V30 1722 H 159.521 4.63443 1.21482 0
M  V30 1723 H 157.885 2.43745 0.738956 0
M  V30 1724 H 158.668 3.37145 -0.647136 0
M  V30 1725 N 161.113 -0.173488 1.56642 0
M  V30 1726 C 162.076 -1.19859 1.95362 0
M  V30 1727 C 163.076 -1.37296 0.83704 0
M  V30 1728 O 164.266 -1.34739 1.10413 0
M  V30 1729 C 161.398 -2.56405 2.24654 0
M  V30 1730 H 162.591 -0.867062 2.87092 0
M  V30 1731 H 160.144 -0.415853 1.50666 0
M  V30 1732 H 160.879 -2.94576 1.35631 0
M  V30 1733 H 160.664 -2.45115 3.06041 0
M  V30 1734 H 162.154 -3.30287 2.5554 0
M  V30 1735 N 162.591 -1.51276 -0.441967 0
M  V30 1736 C 164.002 -1.56244 -1.02199 0
M  V30 1737 C 164.353 -0.383149 -1.92422 0
M  V30 1738 O 163.478 0.500613 -2.1053 0
M  V30 1739 C 164.073 -2.83162 -1.86024 0
M  V30 1740 C 162.632 -2.90716 -2.39084 0
M  V30 1741 C 161.779 -2.50858 -1.18175 0
M  V30 1742 H 164.73 -1.5712 -0.223416 0
M  V30 1743 H 164.751 -2.66663 -2.71425 0
M  V30 1744 H 164.263 -3.68974 -1.20331 0
M  V30 1745 H 162.364 -2.09323 -3.08244 0
M  V30 1746 H 162.477 -3.94266 -2.72198 0
M  V30 1747 H 160.841 -2.03951 -1.52565 0
M  V30 1748 H 161.624 -3.3901 -0.541001 0
M  V30 1749 N 164.069 0.697108 -1.41344 0
M  V30 1750 C 165.297 1.48593 -1.43972 0
M  V30 1751 C 165.712 1.88747 -0.0445612 0
M  V30 1752 O 165.069 1.56682 0.935785 0
M  V30 1753 C 165.12 2.74946 -2.34706 0
M  V30 1754 O 164.841 2.36484 -3.68791 0
M  V30 1755 C 166.342 3.687 -2.46121 0
M  V30 1756 H 163.562 0.457964 -0.490418 0
M  V30 1757 H 166.106 0.858429 -1.8561 0
M  V30 1758 H 164.261 3.33937 -1.9638 0
M  V30 1759 H 164.675 3.17918 -4.17167 0
M  V30 1760 H 166.149 4.54145 -3.13777 0
M  V30 1761 H 166.626 4.13081 -1.49199 0
M  V30 1762 H 167.232 3.15613 -2.85076 0
M  V30 1763 N 165.547 1.27147 0.931209 0
M  V30 1764 C 166.51 1.09615 2.01289 0
M  V30 1765 C 167.51 0.0412581 1.60747 0
M  V30 1766 O 168.7 0.285545 1.71844 0
M  V30 1767 C 165.832 0.669447 3.34262 0
M  V30 1768 H 167.025 2.05662 2.18273 0
M  V30 1769 H 164.578 1.09885 1.11153 0
M  V30 1770 H 165.313 -0.292572 3.22978 0
M  V30 1771 H 165.098 1.43127 3.65044 0
M  V30 1772 H 166.588 0.568921 4.13706 0
M  V30 1773 N 167.025 -1.13721 1.09112 0
M  V30 1774 C 168.271 -1.85198 0.826414 0
M  V30 1775 C 168.604 -1.83129 -0.646319 0
M  V30 1776 O 167.879 -1.2671 -1.47563 0
M  V30 1777 C 168.162 -3.33507 1.35812 0
M  V30 1778 C 168.015 -3.44108 2.89672 0
M  V30 1779 C 169.334 -4.28838 0.989256 0
M  V30 1780 H 166.453 -0.67243 0.301675 0
M  V30 1781 H 169.095 -1.33499 1.35197 0
M  V30 1782 H 167.245 -3.77666 0.911082 0
M  V30 1783 H 168.917 -3.08684 3.428 0
M  V30 1784 H 167.16 -2.85087 3.26967 0
M  V30 1785 H 167.831 -4.48388 3.21951 0
M  V30 1786 H 170.307 -3.92734 1.37475 0
M  V30 1787 H 169.183 -5.31051 1.38838 0
M  V30 1788 H 169.444 -4.4198 -0.102924 0
M  V30 1789 N 168.503 -0.877838 -1.30888 0
M  V30 1790 C 169.435 -0.296607 -2.27273 0
M  V30 1791 C 170.448 0.544799 -1.53414 0
M  V30 1792 O 171.637 0.365511 -1.74718 0
M  V30 1793 C 168.737 0.597481 -3.33592 0
M  V30 1794 C 167.91 -0.213251 -4.3688 0
M  V30 1795 C 166.969 0.610208 -5.2265 0
M  V30 1796 O 165.995 0.035441 -5.69189 0
M  V30 1797 N 167.197 1.92071 -5.47804 0
M  V30 1798 H 169.962 -1.12492 -2.77787 0
M  V30 1799 H 167.523 -0.740105 -1.43993 0
M  V30 1800 H 169.515 1.15425 -3.87891 0
M  V30 1801 H 168.085 1.32647 -2.83061 0
M  V30 1802 H 167.305 -0.951466 -3.82545 0
M  V30 1803 H 168.593 -0.769262 -5.02951 0
M  V30 1804 H 167.991 2.4107 -5.11763 0
M  V30 1805 H 166.548 2.42508 -6.05007 0
M  V30 1806 N 169.982 1.44106 -0.638065 0
M  V30 1807 C 171.222 2.03858 -0.148733 0
M  V30 1808 C 171.586 1.49153 1.20903 0
M  V30 1809 O 172.787 2.00452 1.79088 0
M  V30 1810 C 171.058 3.57117 -0.142314 0
M  V30 1811 S 172.617 4.37897 0.281385 0
M  V30 1812 H 169.435 0.708069 -0.0644912 0
M  V30 1813 H 172.037 1.7639 -0.843009 0
M  V30 1814 H 170.741 3.94436 -1.13349 0
M  V30 1815 H 170.272 3.89205 0.572988 0
M  V30 1816 H 172.287 4.72218 1.52395 0
M  V30 1817 N 171.46 0.379036 1.52974 0
M  V30 1818 C 172.707 -0.206421 2.01445 0
M  V30 1819 C 173.035 -1.47668 1.26587 0
M  V30 1820 O 172.29 -1.92514 0.351675 0
M  V30 1821 C 172.589 -0.53096 3.53434 0
M  V30 1822 C 172.255 0.646546 4.46241 0
M  V30 1823 C 170.917 0.969604 4.7133 0
M  V30 1824 C 173.269 1.43479 5.01062 0
M  V30 1825 C 170.597 2.08263 5.48492 0
M  V30 1826 C 172.949 2.53834 5.7944 0
M  V30 1827 C 171.613 2.86659 6.02812 0
M  V30 1828 H 170.883 -0.0755349 0.73714 0
M  V30 1829 H 173.53 0.514271 1.84465 0
M  V30 1830 H 171.835 -1.33285 3.68432 0
M  V30 1831 H 173.532 -0.996417 3.88423 0
M  V30 1832 H 170.122 0.384734 4.2687 0
M  V30 1833 H 174.306 1.19844 4.81613 0
M  V30 1834 H 169.562 2.34078 5.64816 0
M  V30 1835 H 173.736 3.15319 6.20924 0
M  V30 1836 H 171.363 3.73026 6.62387 0
M  V30 1837 N 172.938 -1.57226 0.108567 0
M  V30 1838 C 174.184 -1.95121 -0.552761 0
M  V30 1839 C 174.517 -0.991345 -1.66991 0
M  V30 1840 O 173.792 -0.0267211 -1.94482 0
M  V30 1841 C 174.075 -3.43039 -1.09528 0
M  V30 1842 C 173.928 -4.49797 0.0177332 0
M  V30 1843 C 175.247 -3.92567 -1.98945 0
M  V30 1844 H 172.366 -0.709496 -0.199461 0
M  V30 1845 H 175.008 -1.89126 0.182011 0
M  V30 1846 H 173.158 -3.48279 -1.72146 0
M  V30 1847 H 174.83 -4.56661 0.652584 0
M  V30 1848 H 173.073 -4.284 0.682309 0
M  V30 1849 H 173.744 -5.50528 -0.402919 0
M  V30 1850 H 176.22 -3.89565 -1.46214 0
M  V30 1851 H 175.096 -4.96605 -2.33827 0
M  V30 1852 H 175.357 -3.32648 -2.91201 0
M  V30 1853 N 174.416 0.165178 -1.56732 0
M  V30 1854 C 175.646 0.894919 -1.86212 0
M  V30 1855 C 176.054 1.76066 -0.692627 0
M  V30 1856 O 175.397 1.80387 0.347303 0
M  V30 1857 C 175.459 1.8174 -3.10179 0
M  V30 1858 C 175.123 1.13064 -4.42793 0
M  V30 1859 C 176.12 0.493169 -5.17556 0
M  V30 1860 C 173.805 1.12556 -4.89527 0
M  V30 1861 C 175.799 -0.140209 -6.37246 0
M  V30 1862 C 173.486 0.488366 -6.09145 0
M  V30 1863 C 174.484 -0.143411 -6.82849 0
M  V30 1864 O 174.172 -0.77055 -8.00199 0
M  V30 1865 H 173.904 0.265114 -0.621844 0
M  V30 1866 H 176.458 0.168242 -2.0471 0
M  V30 1867 H 174.688 2.58455 -2.87642 0
M  V30 1868 H 176.377 2.4175 -3.26055 0
M  V30 1869 H 177.143 0.489023 -4.82528 0
M  V30 1870 H 173.022 1.60672 -4.32094 0
M  V30 1871 H 176.566 -0.633932 -6.94714 0
M  V30 1872 H 172.463 0.490116 -6.43637 0
M  V30 1873 H 173.231 -0.670408 -8.1575 0
M  V30 1874 N 175.894 1.51508 0.433938 0
M  V30 1875 C 177.119 1.68443 1.21003 0
M  V30 1876 C 177.544 0.382636 1.84167 0
M  V30 1877 O 176.902 -0.65755 1.68956 0
M  V30 1878 C 176.95 2.80405 2.26727 0
M  V30 1879 O 176.054 2.44245 3.32292 0
M  V30 1880 H 175.395 0.561536 0.354363 0
M  V30 1881 H 177.925 1.9809 0.512024 0
M  V30 1882 H 177.935 3.0459 2.71457 0
M  V30 1883 H 176.61 3.74867 1.80132 0
M  V30 1884 H 175.187 2.30644 2.93015 0
M  V30 1885 N 177.372 -0.689602 1.41712 0
M  V30 1886 C 178.788 -1.00093 1.24312 0
M  V30 1887 C 178.988 -2.01036 0.136729 0
M  V30 1888 O 178.044 -2.47562 -0.496918 0
M  V30 1889 C 179.357 -1.51985 2.59463 0
M  V30 1890 C 180.905 -1.63838 2.66695 0
M  V30 1891 C 181.38 -2.1913 4.02177 0
M  V30 1892 N 182.871 -2.26483 4.04054 0
M  V30 1893 C 183.606 -2.70306 5.0569 0
M  V30 1894 N 183.102 -3.13691 6.17713 0
M  V30 1895 N 184.895 -2.69923 4.9305 0
M  V30 1896 H 177.046 -0.0210029 2.1239 0
M  V30 1897 H 179.309 -0.0718733 0.945272 0
M  V30 1898 H 179.015 -0.85269 3.41207 0
M  V30 1899 H 178.889 -2.50103 2.82362 0
M  V30 1900 H 181.276 -2.29664 1.85306 0
M  V30 1901 H 181.357 -0.642492 2.476 0
M  V30 1902 H 181.001 -1.53918 4.84016 0
M  V30 1903 H 180.931 -3.19482 4.18615 0
M  V30 1904 H 183.422 -1.95874 3.23174 0
M  V30 1905 H 183.735 -3.45773 6.9113 0
M  V30 1906 H 182.08 -3.11585 6.21241 0
M  V30 1907 H 185.271 -2.35382 4.04614 0
M  V30 1908 H 185.444 -3.03758 5.72394 0
M  V30 1909 N 178.85 -1.27639 -0.924453 0
M  V30 1910 C 179.813 -1.10681 -2.00705 0
M  V30 1911 C 180.813 -0.0497823 -1.60723 0
M  V30 1912 O 182.003 -0.294654 -1.7169 0
M  V30 1913 C 179.135 -0.687164 -3.33902 0
M  V30 1914 H 180.328 -2.06817 -2.17179 0
M  V30 1915 H 177.881 -1.10473 -1.10569 0
M  V30 1916 H 178.616 0.275439 -3.23128 0
M  V30 1917 H 178.401 -1.45061 -3.6428 0
M  V30 1918 H 179.891 -0.590853 -4.13399 0
M  V30 1919 N 180.328 1.1314 -1.09713 0
M  V30 1920 C 181.556 1.88321 -0.856898 0
M  V30 1921 C 181.971 1.79276 0.592073 0
M  V30 1922 O 181.328 1.16142 1.40774 0
M  V30 1923 C 181.379 3.37812 -1.28706 0
M  V30 1924 O 181.1 3.46627 -2.67921 0
M  V30 1925 C 182.601 4.29952 -1.07964 0
M  V30 1926 H 179.821 0.596094 -0.308079 0
M  V30 1927 H 182.365 1.43205 -1.45988 0
M  V30 1928 H 180.52 3.805 -0.727912 0
M  V30 1929 H 180.934 4.39579 -2.8613 0
M  V30 1930 H 182.408 5.33159 -1.42986 0
M  V30 1931 H 182.885 4.39196 -0.0176577 0
M  V30 1932 H 183.491 3.93036 -1.62489 0
M  V30 1933 N 181.806 0.884767 1.30421 0
M  V30 1934 C 183.053 0.503105 1.96151 0
M  V30 1935 C 183.381 -0.947676 1.69851 0
M  V30 1936 O 182.636 -1.68467 0.995861 0
M  V30 1937 C 182.935 0.724318 3.49983 0
M  V30 1938 C 182.601 2.15015 3.96332 0
M  V30 1939 C 181.263 2.54005 4.08699 0
M  V30 1940 C 183.615 3.07936 4.20505 0
M  V30 1941 C 180.943 3.85128 4.42599 0
M  V30 1942 C 183.295 4.3859 4.55874 0
M  V30 1943 C 181.959 4.77474 4.66449 0
M  V30 1944 H 181.229 0.184099 0.717766 0
M  V30 1945 H 183.876 1.12058 1.55291 0
M  V30 1946 H 182.181 0.0238086 3.91793 0
M  V30 1947 H 183.878 0.408617 3.98913 0
M  V30 1948 H 180.468 1.8375 3.87213 0
M  V30 1949 H 184.652 2.79033 4.10431 0
M  V30 1950 H 179.908 4.14996 4.48986 0
M  V30 1951 H 184.082 5.10629 4.7353 0
M  V30 1952 H 181.709 5.79115 4.92473 0
M  V30 1953 N 183.284 -1.43765 0.645699 0
M  V30 1954 C 184.695 -1.85193 0.236719 0
M  V30 1955 C 185.046 -1.54045 -1.21509 0
M  V30 1956 O 184.171 -0.985694 -1.92647 0
M  V30 1957 C 184.766 -3.36151 0.422845 0
M  V30 1958 C 183.325 -3.76338 0.0682492 0
M  V30 1959 C 182.472 -2.67538 0.729306 0
M  V30 1960 H 185.423 -1.34025 0.849883 0
M  V30 1961 H 185.444 -3.79032 -0.333904 0
M  V30 1962 H 184.956 -3.5879 1.47958 0
M  V30 1963 H 183.057 -3.59312 -0.986179 0
M  V30 1964 H 183.17 -4.76603 0.488469 0
M  V30 1965 H 181.534 -2.54176 0.163235 0
M  V30 1966 H 182.317 -2.93006 1.78892 0
M  V30 1967 N 184.763 -0.387143 -1.52771 0
M  V30 1968 C 186.174 0.0873634 -1.86495 0
M  V30 1969 C 186.525 1.46336 -1.30691 0
M  V30 1970 O 185.65 2.068 -0.637409 0
M  V30 1971 C 186.245 0.165305 -3.38396 0
M  V30 1972 C 184.804 0.584101 -3.7184 0
M  V30 1973 C 183.951 -0.255279 -2.76122 0
M  V30 1974 H 186.902 -0.605104 -1.46711 0
M  V30 1975 H 186.923 0.984848 -3.67534 0
M  V30 1976 H 186.435 -0.836301 -3.78982 0
M  V30 1977 H 184.536 1.59315 -3.36823 0
M  V30 1978 H 184.649 0.343749 -4.77865 0
M  V30 1979 H 183.013 0.279126 -2.53166 0
M  V30 1980 H 183.796 -1.25482 -3.19545 0
M  V30 1981 N 186.241 1.57166 -0.116904 0
M  V30 1982 C 187.151 2.18745 0.847812 0
M  V30 1983 C 188.167 1.163 1.29423 0
M  V30 1984 O 189.343 1.48761 1.35765 0
M  V30 1985 C 186.408 2.77307 2.0809 0
M  V30 1986 C 185.469 3.94781 1.68661 0
M  V30 1987 C 184.702 4.50541 2.86091 0
M  V30 1988 O 184.925 4.05202 4.01456 0
M  V30 1989 O 183.859 5.41256 2.63298 0
M  V30 1990 H 187.685 3.01632 0.353778 0
M  V30 1991 H 185.27 1.49005 0.108599 0
M  V30 1992 H 187.152 3.14647 2.80313 0
M  V30 1993 H 185.827 1.97452 2.56504 0
M  V30 1994 H 184.734 3.62214 0.935518 0
M  V30 1995 H 186.067 4.76065 1.24991 0
M  V30 1996 N 187.719 -0.156864 1.56817 0
M  V30 1997 C 188.965 -0.867645 1.83966 0
M  V30 1998 C 189.32 -1.79233 0.699511 0
M  V30 1999 O 188.613 -1.89186 -0.303176 0
M  V30 2000 C 188.807 -1.68737 3.1506 0
M  V30 2001 C 188.636 -0.843548 4.41718 0
M  V30 2002 C 187.406 -0.512994 5.02689 0
M  V30 2003 C 189.604 -0.178416 5.1399 0
M  V30 2004 N 187.586 0.345456 6.12927 0
M  V30 2005 C 188.957 0.540586 6.17639 0
M  V30 2006 C 191.012 -0.0980696 4.97803 0
M  V30 2007 C 189.715 1.33233 7.06853 0
M  V30 2008 C 191.741 0.680387 5.87473 0
M  V30 2009 C 191.103 1.3877 6.90596 0
M  V30 2010 H 187.202 -0.295642 0.723961 0
M  V30 2011 H 189.786 -0.13365 1.94241 0
M  V30 2012 H 187.957 -2.39268 3.0595 0
M  V30 2013 H 189.689 -2.34056 3.30151 0
M  V30 2014 H 186.444 -0.846476 4.65974 0
M  V30 2015 H 186.868 0.765415 6.72659 0
M  V30 2016 H 191.51 -0.630562 4.18071 0
M  V30 2017 H 189.228 1.87612 7.8602 0
M  V30 2018 H 192.814 0.744415 5.77018 0
M  V30 2019 H 191.694 1.9804 7.58782 0
M  V30 2020 N 189.197 -1.51736 -0.425897 0
M  V30 2021 C 190.16 -1.73271 -1.50032 0
M  V30 2022 C 191.16 -0.602639 -1.4908 0
M  V30 2023 O 192.35 -0.87033 -1.509 0
M  V30 2024 C 189.482 -1.79969 -2.89523 0
M  V30 2025 H 190.675 -2.69172 -1.32237 0
M  V30 2026 H 188.228 -1.41899 -0.65532 0
M  V30 2027 H 188.963 -0.859241 -3.1271 0
M  V30 2028 H 188.748 -2.62109 -2.91619 0
M  V30 2029 H 190.238 -1.9843 -3.67444 0
M  V30 2030 N 190.675 0.682077 -1.42076 0
M  V30 2031 C 191.607 1.80755 -1.40926 0
M  V30 2032 C 192.62 1.59833 -0.309398 0
M  V30 2033 O 193.809 1.69087 -0.572014 0
M  V30 2034 C 190.909 3.17744 -1.17865 0
M  V30 2035 C 190.082 3.65578 -2.40149 0
M  V30 2036 C 189.141 4.81277 -2.12742 0
M  V30 2037 O 188.167 4.92197 -2.85887 0
M  V30 2038 N 189.369 5.69474 -1.12602 0
M  V30 2039 H 192.134 1.82229 -2.37935 0
M  V30 2040 H 189.695 0.864903 -1.36861 0
M  V30 2041 H 191.687 3.9279 -0.9746 0
M  V30 2042 H 190.257 3.11214 -0.294068 0
M  V30 2043 H 189.477 2.81291 -2.76169 0
M  V30 2044 H 190.765 3.94278 -3.21593 0
M  V30 2045 H 190.163 5.63297 -0.520899 0
M  V30 2046 H 188.72 6.44363 -0.981842 0
M  V30 2047 N 192.153 1.28127 0.917671 0
M  V30 2048 C 193.083 1.14248 2.03641 0
M  V30 2049 C 194.064 0.0412748 1.7005 0
M  V30 2050 O 195.249 0.217566 1.92977 0
M  V30 2051 C 192.379 0.799431 3.37974 0
M  V30 2052 C 191.333 1.85497 3.85713 0
M  V30 2053 C 190.659 1.36565 5.16966 0
M  V30 2054 C 191.959 3.26085 4.08002 0
M  V30 2055 H 193.653 2.07835 2.15511 0
M  V30 2056 H 191.199 1.00064 1.03553 0
M  V30 2057 H 193.152 0.689114 4.15727 0
M  V30 2058 H 191.876 -0.172145 3.26146 0
M  V30 2059 H 190.535 1.95437 3.10161 0
M  V30 2060 H 190.183 0.383253 5.01538 0
M  V30 2061 H 189.883 2.07143 5.49878 0
M  V30 2062 H 191.407 1.26848 5.97279 0
M  V30 2063 H 192.821 3.19089 4.76293 0
M  V30 2064 H 191.218 3.94462 4.52238 0
M  V30 2065 H 192.288 3.70394 3.12948 0
M  V30 2066 N 193.631 -1.12557 1.10312 0
M  V30 2067 C 195.042 -1.65574 0.862678 0
M  V30 2068 C 195.393 -1.86566 -0.607256 0
M  V30 2069 O 194.518 -1.59121 -1.46662 0
M  V30 2070 C 195.113 -3.00776 1.55947 0
M  V30 2071 C 193.672 -3.50748 1.36576 0
M  V30 2072 C 192.819 -2.25797 1.60968 0
M  V30 2073 H 195.77 -0.963552 1.26101 0
M  V30 2074 H 195.791 -3.67185 0.997753 0
M  V30 2075 H 195.303 -2.85465 2.62928 0
M  V30 2076 H 193.404 -3.71245 0.317531 0
M  V30 2077 H 193.517 -4.30289 2.10686 0
M  V30 2078 H 191.881 -2.32841 1.03234 0
M  V30 2079 H 192.664 -2.13043 2.69198 0
M  V30 2080 N 195.109 -0.891671 -1.2995 0
M  V30 2081 C 196.059 -0.334811 -2.25528 0
M  V30 2082 C 197.043 0.540553 -1.51548 0
M  V30 2083 O 198.235 0.383882 -1.72787 0
M  V30 2084 C 195.364 0.44374 -3.4042 0
M  V30 2085 C 194.45 -0.44609 -4.21747 0
M  V30 2086 N 194.841 -1.54963 -4.81477 0
M  V30 2087 C 193.139 -0.242415 -4.45341 0
M  V30 2088 C 193.84 -2.10015 -5.42465 0
M  V30 2089 N 192.816 -1.39423 -5.25416 0
M  V30 2090 H 196.618 -1.17792 -2.69262 0
M  V30 2091 H 194.132 -0.741822 -1.44467 0
M  V30 2092 H 196.129 0.859362 -4.07947 0
M  V30 2093 H 194.789 1.28421 -2.98225 0
M  V30 2094 H 195.8 -1.93244 -4.80497 0
M  V30 2095 H 192.477 0.560342 -4.13723 0
M  V30 2096 H 193.867 -3.02724 -5.9984 0
M  V30 2097 N 196.587 1.43421 -0.653314 0
M  V30 2098 C 197.537 2.2792 0.060558 0
M  V30 2099 C 198.521 1.39906 0.794677 0
M  V30 2100 O 199.713 1.63536 0.677128 0
M  V30 2101 C 196.842 3.27603 1.0262 0
M  V30 2102 C 195.928 4.23104 0.290551 0
M  V30 2103 N 196.319 5.01031 -0.692967 0
M  V30 2104 C 194.617 4.42816 0.531984 0
M  V30 2105 C 195.318 5.70626 -1.12963 0
M  V30 2106 N 194.294 5.41617 -0.463867 0
M  V30 2107 H 198.096 2.85585 -0.694143 0
M  V30 2108 H 195.61 1.55126 -0.480602 0
M  V30 2109 H 197.607 3.86918 1.55242 0
M  V30 2110 H 196.267 2.71499 1.78096 0
M  V30 2111 H 197.278 5.0669 -1.07169 0
M  V30 2112 H 193.955 3.97782 1.26791 0
M  V30 2113 H 195.345 6.4318 -1.94343 0
M  V30 2114 N 198.065 0.39524 1.52563 0
M  V30 2115 C 199.342 -0.242908 1.94086 0
M  V30 2116 C 199.722 -1.63841 1.33114 0
M  V30 2117 O 199.07 -2.22928 0.501529 0
M  V30 2118 C 199.28 -0.26327 3.48006 0
M  V30 2119 C 200.628 -0.489354 4.21771 0
M  V30 2120 O 201.652 -0.343226 3.54543 0
M  V30 2121 O 200.511 -0.776169 5.4096 0
M  V30 2122 H 197.605 -0.152536 0.812811 0
M  V30 2123 H 200.151 0.450178 1.6362 0
M  V30 2124 H 198.923 0.713985 3.84731 0
M  V30 2125 H 198.546 -1.00103 3.84792 0
M  V30 2126 N 199.544 -1.57102 0.125237 0
M  V30 2127 C 200.769 -2.0019 -0.542101 0
M  V30 2128 C 201.194 -1.00449 -1.59034 0
M  V30 2129 O 200.552 0.0229423 -1.81285 0
M  V30 2130 C 200.6 -3.42129 -1.13929 0
M  V30 2131 O 199.704 -3.45307 -2.2547 0
M  V30 2132 H 199.045 -0.650171 -0.134812 0
M  V30 2133 H 201.575 -2.03461 0.215553 0
M  V30 2134 H 201.585 -3.80471 -1.4733 0
M  V30 2135 H 200.26 -4.14237 -0.371531 0
M  V30 2136 H 198.837 -3.1879 -1.93462 0
M  V30 2137 N 201.022 0.148545 -1.56898 0
M  V30 2138 C 202.252 0.875118 -1.8715 0
M  V30 2139 C 202.66 1.75322 -0.711262 0
M  V30 2140 O 202.003 1.80745 0.328151 0
M  V30 2141 C 202.065 1.7844 -3.12089 0
M  V30 2142 C 201.729 1.08361 -4.43967 0
M  V30 2143 C 202.726 0.438247 -5.1805 0
M  V30 2144 C 200.411 1.07358 -4.90693 0
M  V30 2145 C 202.405 -0.20779 -6.37061 0
M  V30 2146 C 200.092 0.42373 -6.09629 0
M  V30 2147 C 201.09 -0.215829 -6.82659 0
M  V30 2148 O 200.778 -0.855378 -7.99336 0
M  V30 2149 H 200.51 0.258504 -0.624621 0
M  V30 2150 H 203.064 0.14652 -2.04877 0
M  V30 2151 H 201.294 2.55389 -2.90367 0
M  V30 2152 H 202.983 2.38279 -3.286 0
M  V30 2153 H 203.749 0.437817 -4.8302 0
M  V30 2154 H 199.628 1.5608 -4.33774 0
M  V30 2155 H 203.172 -0.70758 -6.94002 0
M  V30 2156 H 199.069 0.421822 -6.4412 0
M  V30 2157 H 199.837 -0.756892 -8.14993 0
M  V30 2158 N 202.5 1.5196 0.417844 0
M  V30 2159 C 203.777 1.56146 1.17803 0
M  V30 2160 C 204.157 0.337275 2.08388 0
M  V30 2161 O 203.505 -0.676447 2.18258 0
M  V30 2162 C 203.715 2.88566 1.96293 0
M  V30 2163 C 205.063 3.41244 2.52662 0
M  V30 2164 O 206.087 2.90247 2.06483 0
M  V30 2165 O 204.946 4.30273 3.36938 0
M  V30 2166 H 202.04 0.628598 0.537395 0
M  V30 2167 H 204.586 1.64283 0.425331 0
M  V30 2168 H 203.358 3.69116 1.2988 0
M  V30 2169 H 202.981 2.83681 2.78587 0
M  V30 2170 N 203.978 -0.674533 1.42435 0
M  V30 2171 C 205.203 -1.46784 1.46524 0
M  V30 2172 C 205.628 -1.87938 0.078066 0
M  V30 2173 O 204.986 -1.56014 -0.92354 0
M  V30 2174 C 205.034 -2.69307 2.39805 0
M  V30 2175 O 204.138 -3.67587 1.86959 0
M  V30 2176 H 203.479 -0.440959 0.496439 0
M  V30 2177 H 206.009 -0.827326 1.87127 0
M  V30 2178 H 206.019 -3.17374 2.56393 0
M  V30 2179 H 204.694 -2.38692 3.40586 0
M  V30 2180 H 203.271 -3.2662 1.79927 0
M  V30 2181 N 205.456 -1.28612 -0.910864 0
M  V30 2182 C 206.366 -1.14643 -2.0468 0
M  V30 2183 C 207.382 -0.0723121 -1.7385 0
M  V30 2184 O 208.558 -0.282178 -1.99413 0
M  V30 2185 C 205.623 -0.812561 -3.37044 0
M  V30 2186 C 204.684 -1.96935 -3.81465 0
M  V30 2187 C 203.917 -1.65131 -5.07511 0
M  V30 2188 O 204.14 -0.567013 -5.67575 0
M  V30 2189 O 203.074 -2.49585 -5.47714 0
M  V30 2190 H 206.9 -2.1001 -2.19384 0
M  V30 2191 H 204.485 -1.07958 -1.03274 0
M  V30 2192 H 206.367 -0.640441 -4.16505 0
M  V30 2193 H 205.042 0.111426 -3.23508 0
M  V30 2194 H 203.949 -2.19664 -3.02818 0
M  V30 2195 H 205.282 -2.87414 -3.99567 0
M  V30 2196 N 206.934 1.1197 -1.10907 0
M  V30 2197 C 208.182 1.83225 -0.852819 0
M  V30 2198 C 208.503 1.84769 0.623341 0
M  V30 2199 O 207.773 1.3143 1.45269 0
M  V30 2200 H 206.353 0.67849 -0.312507 0
M  V30 2201 H 209.015 1.3556 -1.40033 0
M  V30 2202 H 208.111 2.87265 -1.22005 0
M  V30 2203 N 208.412 0.89855 1.29475 0
M  V30 2204 C 209.823 0.572537 1.77705 0
M  V30 2205 C 210.174 -0.911778 1.73727 0
M  V30 2206 O 209.299 -1.71288 1.32247 0
M  V30 2207 C 209.894 1.03252 3.22683 0
M  V30 2208 C 208.453 0.757687 3.68695 0
M  V30 2209 C 207.6 1.20787 2.49612 0
M  V30 2210 H 210.551 1.08139 1.16153 0
M  V30 2211 H 210.572 0.367307 3.78723 0
M  V30 2212 H 210.084 2.11285 3.25546 0
M  V30 2213 H 208.185 -0.310079 3.71308 0
M  V30 2214 H 208.298 1.35476 4.59547 0
M  V30 2215 H 206.662 0.626888 2.46865 0
M  V30 2216 H 207.445 2.29622 2.55203 0
M  V30 2217 N 209.89 -1.43072 0.660911 0
M  V30 2218 C 210.84 -2.27948 -0.04847 0
M  V30 2219 C 211.824 -1.40325 -0.787246 0
M  V30 2220 O 213.016 -1.63893 -0.668446 0
M  V30 2221 C 210.145 -3.28143 -1.00881 0
M  V30 2222 C 209.231 -4.23252 -0.268108 0
M  V30 2223 N 209.622 -5.00656 0.719528 0
M  V30 2224 C 207.92 -4.43092 -0.508493 0
M  V30 2225 C 208.621 -5.70019 1.15988 0
M  V30 2226 N 207.597 -5.41364 0.492584 0
M  V30 2227 H 211.399 -2.85213 0.709279 0
M  V30 2228 H 208.913 -1.54869 0.488822 0
M  V30 2229 H 210.91 -3.87736 -1.53188 0
M  V30 2230 H 209.57 -2.7244 -1.76654 0
M  V30 2231 H 210.581 -5.06115 1.09855 0
M  V30 2232 H 207.258 -3.98449 -1.24679 0
M  V30 2233 H 208.648 -6.4214 1.97751 0
M  V30 2234 N 211.368 -0.403325 -1.52352 0
M  V30 2235 C 212.616 0.174003 -2.0135 0
M  V30 2236 C 212.937 1.46139 -1.29106 0
M  V30 2237 O 212.207 1.91448 -0.415253 0
M  V30 2238 H 210.787 0.0672911 -0.743963 0
M  V30 2239 H 213.449 -0.538235 -1.87321 0
M  V30 2240 H 212.545 0.374254 -3.09848 0
M  V30 2241 N 212.846 1.57033 -0.133567 0
M  V30 2242 C 213.776 2.1909 0.807567 0
M  V30 2243 C 214.757 1.13517 1.26681 0
M  V30 2244 O 215.942 1.41809 1.32679 0
M  V30 2245 C 213.072 2.80188 2.05212 0
M  V30 2246 C 212.026 3.91471 1.73015 0
M  V30 2247 C 211.352 4.39443 3.04622 0
M  V30 2248 C 212.652 5.12886 0.987168 0
M  V30 2249 H 214.346 2.97988 0.290403 0
M  V30 2250 H 211.892 1.43335 0.138239 0
M  V30 2251 H 213.845 3.22264 2.71521 0
M  V30 2252 H 212.569 1.98601 2.59278 0
M  V30 2253 H 211.228 3.49993 1.0909 0
M  V30 2254 H 210.876 3.54695 3.56651 0
M  V30 2255 H 210.576 5.14495 2.83847 0
M  V30 2256 H 212.1 4.8418 3.72024 0
M  V30 2257 H 213.514 5.51891 1.55208 0
M  V30 2258 H 211.911 5.93615 0.87985 0
M  V30 2259 H 212.981 4.84894 -0.0235286 0
M  V30 2260 N 214.325 -0.140222 1.56975 0
M  V30 2261 C 215.741 -0.493088 1.51792 0
M  V30 2262 C 215.941 -1.83013 0.843116 0
M  V30 2263 O 214.997 -2.49041 0.416493 0
M  V30 2264 C 216.31 -0.497144 2.96562 0
M  V30 2265 C 217.858 -0.582186 3.07538 0
M  V30 2266 C 218.333 -0.616838 4.53827 0
M  V30 2267 N 219.824 -0.678873 4.58198 0
M  V30 2268 C 220.559 -0.726782 5.68775 0
M  V30 2269 N 220.055 -0.733623 6.88905 0
M  V30 2270 N 221.848 -0.768179 5.56826 0
M  V30 2271 H 213.999 0.736108 1.99237 0
M  V30 2272 H 216.262 0.269182 0.90898 0
M  V30 2273 H 215.968 0.417217 3.49217 0
M  V30 2274 H 215.842 -1.33263 3.52875 0
M  V30 2275 H 218.229 -1.48697 2.54899 0
M  V30 2276 H 218.31 0.280581 2.54257 0
M  V30 2277 H 217.954 0.283812 5.07106 0
M  V30 2278 H 217.884 -1.49619 5.04898 0
M  V30 2279 H 220.375 -0.68061 3.7172 0
M  V30 2280 H 220.688 -0.772215 7.68932 0
M  V30 2281 H 219.033 -0.701389 6.91452 0
M  V30 2282 H 222.224 -0.760051 4.61888 0
M  V30 2283 H 222.397 -0.80205 6.43017 0
M  V30 2284 N 215.803 -1.52179 -0.40978 0
M  V30 2285 C 217.033 -1.69807 -1.17682 0
M  V30 2286 C 217.441 -0.406908 -1.84773 0
M  V30 2287 O 216.784 0.626863 -1.72673 0
M  V30 2288 C 216.846 -2.77712 -2.2829 0
M  V30 2289 C 216.51 -4.19481 -1.81341 0
M  V30 2290 C 217.507 -5.03345 -1.30154 0
M  V30 2291 C 215.192 -4.65713 -1.88194 0
M  V30 2292 C 217.186 -6.31511 -0.864416 0
M  V30 2293 C 214.873 -5.93869 -1.44093 0
M  V30 2294 C 215.871 -6.76597 -0.933023 0
M  V30 2295 O 215.559 -8.02354 -0.49838 0
M  V30 2296 H 215.291 -0.572372 -0.359675 0
M  V30 2297 H 217.845 -1.99511 -0.488311 0
M  V30 2298 H 216.075 -2.43383 -3.00502 0
M  V30 2299 H 217.764 -2.83946 -2.90051 0
M  V30 2300 H 218.53 -4.68819 -1.24232 0
M  V30 2301 H 214.409 -4.01424 -2.26671 0
M  V30 2302 H 217.953 -6.96033 -0.467286 0
M  V30 2303 H 213.85 -6.27903 -1.49694 0
M  V30 2304 H 214.618 -8.16135 -0.621747 0
M  V30 2305 N 217.281 0.66697 -1.42791 0
M  V30 2306 C 218.229 1.80157 -1.47127 0
M  V30 2307 C 219.223 1.65825 -0.346199 0
M  V30 2308 O 220.429 1.72338 -0.519572 0
M  V30 2309 H 216.804 0.594158 -0.460956 0
M  V30 2310 H 218.775 1.73619 -2.42692 0
M  V30 2311 C 217.524 3.18351 -1.39813 0
M  V30 2312 H 216.847 3.3001 -2.25684 0
M  V30 2313 H 218.287 3.97736 -1.46908 0
M  V30 2314 C 216.746 3.36707 -0.11391 0
M  V30 2315 O 217.276 3.93027 0.830241 0
M  V30 2316 N 215.482 2.90586 -0.0285295 0
M  V30 2317 H 215.029 2.4494 -0.79764 0
M  V30 2318 H 214.987 3.03245 0.830063 0
M  V30 2319 N 218.759 1.29093 0.90403 0
M  V30 2320 C 220.17 1.15186 1.46932 0
M  V30 2321 C 220.521 -0.254587 1.94541 0
M  V30 2322 O 219.646 -1.14972 1.83332 0
M  V30 2323 C 220.241 2.08492 2.67051 0
M  V30 2324 C 218.8 1.98621 3.19729 0
M  V30 2325 C 217.947 1.9967 1.92425 0
M  V30 2326 H 220.898 1.41641 0.715789 0
M  V30 2327 H 220.919 1.65461 3.42641 0
M  V30 2328 H 220.431 3.10847 2.3237 0
M  V30 2329 H 218.532 0.993389 3.59114 0
M  V30 2330 H 218.645 2.86068 3.8432 0
M  V30 2331 H 217.009 1.44208 2.09943 0
M  V30 2332 H 217.792 3.03721 1.60026 0
M  V30 2333 N 220.237 -1.11381 1.11499 0
M  V30 2334 C 221.653 -1.35143 0.849031 0
M  V30 2335 C 221.853 -1.94515 -0.525938 0
M  V30 2336 O 220.909 -2.1785 -1.27662 0
M  V30 2337 C 222.222 -2.28249 1.95762 0
M  V30 2338 C 223.77 -2.41812 1.98736 0
M  V30 2339 C 224.245 -3.3824 3.088 0
M  V30 2340 N 225.736 -3.45803 3.08179 0
M  V30 2341 C 226.471 -4.20358 3.89982 0
M  V30 2342 N 225.967 -4.97884 4.8175 0
M  V30 2343 N 227.76 -4.15877 3.78157 0
M  V30 2344 H 219.911 -0.712062 2.00109 0
M  V30 2345 H 222.174 -0.376025 0.870235 0
M  V30 2346 H 221.88 -1.91817 2.94787 0
M  V30 2347 H 221.754 -3.28473 1.85433 0
M  V30 2348 H 224.141 -2.77518 1.00338 0
M  V30 2349 H 224.222 -1.41437 2.13141 0
M  V30 2350 H 223.866 -3.03261 4.07425 0
M  V30 2351 H 223.796 -4.38471 2.91635 0
M  V30 2352 H 226.287 -2.90506 2.41691 0
M  V30 2353 H 226.6 -5.52142 5.40702 0
M  V30 2354 H 224.945 -4.97043 4.85771 0
M  V30 2355 H 228.136 -3.544 3.05808 0
M  V30 2356 H 228.309 -4.73723 4.42143 0
M  V30 2357 N 221.715 -0.905404 -1.28997 0
M  V30 2358 C 222.625 -0.392246 -2.31298 0
M  V30 2359 C 223.641 0.515889 -1.66176 0
M  V30 2360 O 224.817 0.404093 -1.97304 0
M  V30 2361 C 221.882 0.36686 -3.44754 0
M  V30 2362 C 220.943 -0.573485 -4.25452 0
M  V30 2363 C 220.176 0.149488 -5.33491 0
M  V30 2364 O 220.399 1.37255 -5.5364 0
M  V30 2365 O 219.333 -0.510919 -5.99728 0
M  V30 2366 H 223.159 -1.2411 -2.77183 0
M  V30 2367 H 220.744 -0.669926 -1.33538 0
M  V30 2368 H 222.626 0.795907 -4.13816 0
M  V30 2369 H 221.301 1.19169 -3.00966 0
M  V30 2370 H 220.208 -1.05176 -3.59011 0
M  V30 2371 H 221.541 -1.36489 -4.72897 0
M  V30 2372 N 223.193 1.4272 -0.668489 0
M  V30 2373 C 224.141 2.32586 0.0254857 0
M  V30 2374 C 225.135 1.49471 0.797176 0
M  V30 2375 O 226.341 1.65583 0.705853 0
M  V30 2376 H 222.716 0.751514 0.0270339 0
M  V30 2377 H 224.687 2.88823 -0.749936 0
M  V30 2378 C 223.436 3.3397 0.967427 0
M  V30 2379 H 222.759 3.97961 0.383048 0
M  V30 2380 H 224.199 3.9945 1.42181 0
M  V30 2381 C 222.658 2.65744 2.0708 0
M  V30 2382 O 223.188 2.48454 3.15648 0
M  V30 2383 N 221.394 2.2487 1.8407 0
M  V30 2384 H 220.941 2.39132 0.95778 0
M  V30 2385 H 220.899 1.79552 2.58086 0
M  V30 2386 N 224.671 0.411399 1.52136 0
M  V30 2387 C 226.087 0.0623865 1.59478 0
M  V30 2388 C 226.287 -1.42554 1.4241 0
M  V30 2389 O 225.343 -2.19263 1.2522 0
M  V30 2390 C 226.656 0.559331 2.95452 0
M  V30 2391 C 228.204 0.517503 3.08692 0
M  V30 2392 C 228.679 0.990994 4.4715 0
M  V30 2393 N 230.17 0.947908 4.53397 0
M  V30 2394 C 230.905 1.28544 5.58806 0
M  V30 2395 N 230.401 1.69454 6.71757 0
M  V30 2396 N 232.194 1.20526 5.49026 0
M  V30 2397 H 224.345 1.37982 1.61477 0
M  V30 2398 H 226.608 0.566977 0.759764 0
M  V30 2399 H 226.314 1.59938 3.1323 0
M  V30 2400 H 226.188 -0.0298014 3.77188 0
M  V30 2401 H 228.575 -0.513505 2.90598 0
M  V30 2402 H 228.656 1.14272 2.28857 0
M  V30 2403 H 228.3 2.02034 4.65988 0
M  V30 2404 H 228.23 0.34257 5.25485 0
M  V30 2405 H 230.721 0.647157 3.72317 0
M  V30 2406 H 231.034 1.93513 7.48179 0
M  V30 2407 H 229.379 1.73359 6.73032 0
M  V30 2408 H 232.57 0.884505 4.59667 0
M  V30 2409 H 232.743 1.47161 6.31069 0
M  V30 2410 O 226.188 -1.59008 0.282609 0
M  V30 2411 H 226.879 -1.91579 -0.285831 0
M  V30 END ATOM
M  V30 BEGIN BOND
M  V30 END BOND
M  V30 END CTAB
M  END
$$$$
