drugbank_target|Q9BVS4 Serine/threonine-protein kinase RIO2 (DB12010)
 OpenBabel12092121183D

  0  0  0     0  0            999 V3000
M  V30 BEGIN CTAB
M  V30 COUNTS 8766 8849 0 0 0
M  V30 BEGIN ATOM
M  V30 1 H -0.908 1.98254 -0.117106 0
M  V30 2 N 0 1.576 0 0
M  V30 3 C 0.933 2.03868 1.02534 0
M  V30 4 C 1.911 0.928543 1.3348 0
M  V30 5 O 3.095 1.19667 1.45644 0
M  V30 6 C 0.222 2.43627 2.35294 0
M  V30 7 C -0.732 3.65373 2.2001 0
M  V30 8 S 0.101 5.13292 1.52614 0
M  V30 9 C 1.257 5.56322 2.86805 0
M  V30 10 H 1.49 2.90518 0.631377 0
M  V30 11 H -0.977 1.52953 0.210867 0
M  V30 12 H 0.981 2.67203 3.11629 0
M  V30 13 H -0.358 1.57376 2.7183 0
M  V30 14 H -1.165 3.90944 3.18086 0
M  V30 15 H -1.563 3.418 1.51819 0
M  V30 16 H 0.729 5.58782 3.83104 0
M  V30 17 H 1.672 6.56266 2.65933 0
M  V30 18 H 2.08 4.83886 2.90714 0
M  V30 19 N 1.4781 -0.272755 1.55222 0
M  V30 20 C 2.7261 -1.00234 1.75492 0
M  V30 21 C 3.0471 -1.8681 0.5592 0
M  V30 22 O 2.3171 -1.91215 -0.425882 0
M  V30 23 H 0.8971 -0.373076 0.647166 0
M  V30 24 H 3.5591 -0.296926 1.92625 0
M  V30 25 H 2.6551 -1.63913 2.65592 0
M  V30 26 N 2.9562 -1.48159 -0.537278 0
M  V30 27 C 3.9032 -1.62138 -1.64256 0
M  V30 28 C 4.8732 -0.463668 -1.59497 0
M  V30 29 O 6.0582 -0.686241 -1.78032 0
M  V30 30 C 3.1982 -1.66028 -3.02537 0
M  V30 31 C 2.3112 -2.92855 -3.17585 0
M  V30 32 C 1.4462 -2.87952 -4.46382 0
M  V30 33 C 0.4852 -4.09516 -4.54932 0
M  V30 34 N -0.3778 -4.02733 -5.75109 0
M  V30 35 H 4.4622 -2.56529 -1.51647 0
M  V30 36 H 1.9992 -1.27224 -0.738414 0
M  V30 37 H 3.9572 -1.66265 -3.82638 0
M  V30 38 H 2.5872 -0.751331 -3.13934 0
M  V30 39 H 1.6392 -3.02395 -2.30784 0
M  V30 40 H 2.9512 -3.82822 -3.19764 0
M  V30 41 H 2.1052 -2.8655 -5.34765 0
M  V30 42 H 0.8442 -1.95702 -4.46712 0
M  V30 43 H -0.1508 -4.11201 -3.64957 0
M  V30 44 H 1.0742 -5.02917 -4.56346 0
M  V30 45 H -0.9798 -3.13299 -5.76351 0
M  V30 46 H -1.0628 -4.86397 -5.78752 0
M  V30 47 H 0.2052 -4.05379 -6.65799 0
M  V30 48 N 4.4343 0.785586 -1.36625 0
M  V30 49 C 5.6803 1.54591 -1.31261 0
M  V30 50 C 6.0133 1.93906 0.106823 0
M  V30 51 O 5.2883 1.63007 1.06108 0
M  V30 52 C 5.5713 2.82038 -2.23889 0
M  V30 53 C 5.4243 2.49066 -3.74548 0
M  V30 54 C 6.7433 3.83887 -2.15217 0
M  V30 55 H 3.8623 0.560846 -0.478143 0
M  V30 56 H 6.5043 0.902278 -1.67209 0
M  V30 57 H 4.6543 3.36961 -1.93363 0
M  V30 58 H 6.3263 2.00164 -4.15611 0
M  V30 59 H 4.5693 1.81954 -3.93796 0
M  V30 60 H 5.2403 3.40109 -4.34776 0
M  V30 61 H 7.7163 3.38421 -2.42096 0
M  V30 62 H 6.5923 4.70806 -2.82193 0
M  V30 63 H 6.8533 4.27131 -1.14068 0
M  V30 64 N 5.9124 1.20967 1.01018 0
M  V30 65 C 6.8604 0.961223 2.1181 0
M  V30 66 C 7.8544 -0.0897034 1.69162 0
M  V30 67 O 9.0604 0.0612271 1.79896 0
M  V30 68 H 5.4354 0.29355 0.692338 0
M  V30 69 H 7.4064 1.90178 2.29946 0
M  V30 70 C 6.1554 0.536854 3.4353 0
M  V30 71 H 5.4784 1.33713 3.76777 0
M  V30 72 H 6.9184 0.402286 4.22087 0
M  V30 73 C 5.3774 -0.751574 3.2841 0
M  V30 74 O 5.9074 -1.80841 3.58691 0
M  V30 75 N 4.1134 -0.716079 2.81639 0
M  V30 76 H 3.6604 0.144236 2.57196 0
M  V30 77 H 3.6184 -1.57847 2.71904 0
M  V30 78 N 7.3905 -1.2043 1.01659 0
M  V30 79 C 8.6365 -1.90079 0.706963 0
M  V30 80 C 8.9695 -1.78648 -0.761474 0
M  V30 81 O 8.2445 -1.17069 -1.55323 0
M  V30 82 C 8.5275 -3.41469 1.14327 0
M  V30 83 C 8.3805 -3.61833 2.67201 0
M  V30 84 C 9.6995 -4.34261 0.714529 0
M  V30 85 H 6.8185 -0.690254 0.2583 0
M  V30 86 H 9.4605 -1.41826 1.26433 0
M  V30 87 H 7.6105 -3.82696 0.669056 0
M  V30 88 H 9.2825 -3.2986 3.22475 0
M  V30 89 H 7.5255 -3.05304 3.08175 0
M  V30 90 H 8.1965 -4.67955 2.92783 0
M  V30 91 H 10.6725 -4.00682 1.12221 0
M  V30 92 H 9.5485 -5.38806 1.04784 0
M  V30 93 H 9.8095 -4.40431 -0.383799 0
M  V30 94 N 8.8686 -0.792821 -1.36206 0
M  V30 95 C 9.8316 -0.199459 -2.2833 0
M  V30 96 C 10.8316 0.605189 -1.48977 0
M  V30 97 O 12.0216 0.425685 -1.68919 0
M  V30 98 C 9.1536 0.723523 -3.33134 0
M  V30 99 H 10.3466 -1.01181 -2.82316 0
M  V30 100 H 7.8996 -0.562485 -1.45828 0
M  V30 101 H 8.6346 1.56008 -2.84309 0
M  V30 102 H 8.4196 0.148436 -3.91819 0
M  V30 103 H 9.9096 1.13344 -4.01924 0
M  V30 104 N 10.3467 1.47872 -0.545128 0
M  V30 105 C 11.2937 2.29849 0.2093 0
M  V30 106 C 12.2637 1.38313 0.919707 0
M  V30 107 O 13.4487 1.67277 0.917772 0
M  V30 108 C 10.5887 3.22019 1.24088 0
M  V30 109 C 9.7017 4.2864 0.537778 0
M  V30 110 C 8.8367 5.07973 1.5536 0
M  V30 111 C 7.8757 6.06381 0.8348 0
M  V30 112 N 7.0127 6.78717 1.79688 0
M  V30 113 H 11.8527 2.93845 -0.49591 0
M  V30 114 H 9.3897 1.44848 -0.256389 0
M  V30 115 H 11.3477 3.73868 1.85144 0
M  V30 116 H 9.9777 2.59914 1.91428 0
M  V30 117 H 9.0297 3.7994 -0.187046 0
M  V30 118 H 10.3417 4.98793 -0.0258907 0
M  V30 119 H 9.4957 5.63912 2.23803 0
M  V30 120 H 8.2347 4.37693 2.15118 0
M  V30 121 H 7.2397 5.49631 0.136388 0
M  V30 122 H 8.4647 6.78665 0.24313 0
M  V30 123 H 6.4107 6.11177 2.38326 0
M  V30 124 H 6.3277 7.44998 1.28505 0
M  V30 125 H 7.5957 7.39237 2.47282 0
M  V30 126 N 11.8248 0.280983 1.55075 0
M  V30 127 C 12.7548 -0.597469 2.25727 0
M  V30 128 C 13.7358 -1.15417 1.24952 0
M  V30 129 O 14.9208 -1.18722 1.53684 0
M  V30 130 C 12.0508 -1.7789 2.98283 0
M  V30 131 C 11.0048 -1.35347 4.06036 0
M  V30 132 C 10.3308 -2.61846 4.66198 0
M  V30 133 C 11.6308 -0.499354 5.19907 0
M  V30 134 H 13.3248 -0.00824265 2.99399 0
M  V30 135 H 10.8708 -0.0025244 1.44 0
M  V30 136 H 12.8238 -2.39937 3.46422 0
M  V30 137 H 11.5478 -2.39405 2.22155 0
M  V30 138 H 10.2068 -0.756156 3.58717 0
M  V30 139 H 9.8548 -3.21632 3.86732 0
M  V30 140 H 9.5548 -2.3409 5.38958 0
M  V30 141 H 11.0788 -3.24732 5.1709 0
M  V30 142 H 12.4928 -1.02498 5.64063 0
M  V30 143 H 10.8898 -0.316424 5.99265 0
M  V30 144 H 11.9598 0.480459 4.82514 0
M  V30 145 N 13.3029 -1.57598 0.00835791 0
M  V30 146 C 14.7189 -1.55764 -0.347822 0
M  V30 147 C 14.9189 -1.01186 -1.74252 0
M  V30 148 O 13.9749 -0.649371 -2.44007 0
M  V30 149 C 15.2879 -2.99927 -0.215407 0
M  V30 150 C 16.8359 -3.11656 -0.289725 0
M  V30 151 C 17.3109 -4.57621 -0.18634 0
M  V30 152 N 18.8019 -4.62557 -0.243978 0
M  V30 153 C 19.5369 -5.73094 -0.18745 0
M  V30 154 N 19.0329 -6.92753 -0.0810331 0
M  V30 155 N 20.8259 -5.61588 -0.239925 0
M  V30 156 H 12.9769 -1.91411 0.92062 0
M  V30 157 H 15.2399 -0.879562 0.353659 0
M  V30 158 H 14.9459 -3.43729 0.744512 0
M  V30 159 H 14.8199 -3.63865 -0.994097 0
M  V30 160 H 17.2069 -2.67779 -1.24009 0
M  V30 161 H 17.2879 -2.5048 0.51898 0
M  V30 162 H 16.9319 -5.02174 0.760519 0
M  V30 163 H 16.8619 -5.16752 -1.01364 0
M  V30 164 H 19.3529 -3.76481 -0.327217 0
M  V30 165 H 19.6659 -7.72787 -0.0440241 0
M  V30 166 H 18.0109 -6.94984 -0.0465419 0
M  V30 167 H 21.2019 -4.66996 -0.321317 0
M  V30 168 H 21.3749 -6.47714 -0.192407 0
M  V30 169 N 14.781 0.264519 -1.55364 0
M  V30 170 C 16.011 1.01153 -1.80143 0
M  V30 171 C 16.419 1.80115 -0.579253 0
M  V30 172 O 15.762 1.77813 0.46132 0
M  V30 173 C 15.824 2.01098 -2.97993 0
M  V30 174 C 15.488 1.40995 -4.34706 0
M  V30 175 C 16.485 0.821316 -5.13372 0
M  V30 176 C 14.17 1.43461 -4.81378 0
M  V30 177 C 16.164 0.265339 -6.36847 0
M  V30 178 C 13.851 0.874771 -6.04807 0
M  V30 179 C 14.849 0.291146 -6.82379 0
M  V30 180 O 14.537 -0.260093 -8.03479 0
M  V30 181 H 14.269 0.304125 -0.603725 0
M  V30 182 H 16.823 0.298089 -2.03225 0
M  V30 183 H 15.053 2.76224 -2.70623 0
M  V30 184 H 16.742 2.61997 -3.1002 0
M  V30 185 H 17.508 0.794903 -4.78442 0
M  V30 186 H 13.387 1.87826 -4.21002 0
M  V30 187 H 16.931 -0.190837 -6.97339 0
M  V30 188 H 12.828 0.898452 -6.39217 0
M  V30 189 H 13.596 -0.150265 -8.18362 0
M  V30 190 N 16.2591 1.48442 0.529413 0
M  V30 191 C 17.1921 1.57577 1.65059 0
M  V30 192 C 18.1701 0.426198 1.56915 0
M  V30 193 O 19.3541 0.637877 1.77379 0
M  V30 194 C 16.4811 1.5043 3.03461 0
M  V30 195 C 15.5271 2.70235 3.29962 0
M  V30 196 S 16.3601 4.32198 3.16172 0
M  V30 197 C 17.5161 4.2765 4.57019 0
M  V30 198 H 17.7491 2.52427 1.5706 0
M  V30 199 H 15.2821 1.36982 0.712417 0
M  V30 200 H 17.2401 1.46992 3.8328 0
M  V30 201 H 15.9011 0.569167 3.089 0
M  V30 202 H 15.0941 2.61374 4.30929 0
M  V30 203 H 14.6961 2.70938 2.57815 0
M  V30 204 H 16.9881 3.97618 5.48549 0
M  V30 205 H 17.9311 5.28797 4.70934 0
M  V30 206 H 18.3391 3.5811 4.36368 0
M  V30 207 N 17.7372 -0.778329 1.37039 0
M  V30 208 C 18.9622 -1.57248 1.35233 0
M  V30 209 C 19.3872 -1.87999 -0.0615568 0
M  V30 210 O 18.7452 -1.48734 -1.03672 0
M  V30 211 C 18.7932 -2.86353 2.19167 0
M  V30 212 O 17.8972 -3.80442 1.59178 0
M  V30 213 H 17.2382 -0.476569 0.462362 0
M  V30 214 H 19.7682 -0.963853 1.80474 0
M  V30 215 H 19.7782 -3.35519 2.32145 0
M  V30 216 H 18.4532 -2.63299 3.21942 0
M  V30 217 H 17.0302 -3.39067 1.55203 0
M  V30 218 N 19.2153 -1.21501 -1.00376 0
M  V30 219 C 20.6313 -0.972629 -1.26539 0
M  V30 220 C 20.8313 0.340257 -1.98606 0
M  V30 221 O 19.8873 1.06561 -2.28913 0
M  V30 222 C 21.2003 -2.16404 -2.08781 0
M  V30 223 C 22.7483 -2.20643 -2.22004 0
M  V30 224 C 23.2233 -3.39306 -3.07629 0
M  V30 225 N 24.7143 -3.39401 -3.15217 0
M  V30 226 C 25.4493 -4.27867 -3.81729 0
M  V30 227 N 24.9453 -5.26533 -4.5026 0
M  V30 228 N 26.7383 -4.15672 -3.78382 0
M  V30 229 H 18.8893 -2.05929 -0.520281 0
M  V30 230 H 21.1523 -0.901803 -0.292328 0
M  V30 231 H 20.8583 -3.11554 -1.63178 0
M  V30 232 H 20.7323 -2.15567 -3.09533 0
M  V30 233 H 23.1193 -1.26048 -2.66825 0
M  V30 234 H 23.2003 -2.25523 -1.20718 0
M  V30 235 H 22.8443 -4.34195 -2.63509 0
M  V30 236 H 22.7743 -3.31665 -4.09031 0
M  V30 237 H 25.2653 -2.67997 -2.66432 0
M  V30 238 H 25.5783 -5.90337 -4.98721 0
M  V30 239 H 23.9233 -5.30457 -4.49044 0
M  V30 240 H 27.1143 -3.3785 -3.23998 0
M  V30 241 H 27.2873 -4.84825 -4.2994 0
M  V30 242 N 20.6934 1.19889 -1.02296 0
M  V30 243 C 21.9704 1.85148 -0.630832 0
M  V30 244 C 22.3504 1.91385 0.890782 0
M  V30 245 O 21.6984 1.42642 1.78509 0
M  V30 246 C 21.9084 3.24442 -1.28602 0
M  V30 247 C 23.2564 4.00663 -1.4055 0
M  V30 248 O 24.2804 3.33818 -1.24273 0
M  V30 249 O 23.1394 5.20387 -1.66913 0
M  V30 250 H 20.2334 0.797613 -0.218499 0
M  V30 251 H 22.7794 1.27427 -1.12074 0
M  V30 252 H 21.5514 3.14704 -2.32545 0
M  V30 253 H 21.1744 3.89802 -0.7836 0
M  V30 254 N 22.1715 0.800033 1.35784 0
M  V30 255 C 23.4485 0.30088 1.93272 0
M  V30 256 C 23.8285 -1.20857 1.73081 0
M  V30 257 O 23.1765 -2.00502 1.09596 0
M  V30 258 C 23.3865 0.70511 3.41803 0
M  V30 259 C 24.7345 0.690871 4.18942 0
M  V30 260 O 25.7585 0.646244 3.50289 0
M  V30 261 O 24.6175 0.74332 5.41421 0
M  V30 262 H 21.7115 0.0771605 0.823393 0
M  V30 263 H 24.2575 0.88329 1.449 0
M  V30 264 H 23.0295 1.74571 3.50201 0
M  V30 265 H 22.6525 0.0971541 3.97481 0
M  V30 266 N 23.6496 -1.47581 0.552962 0
M  V30 267 C 24.8966 -2.02482 0.0273243 0
M  V30 268 C 25.2246 -1.42776 -1.32081 0
M  V30 269 O 24.4796 -0.571393 -1.87173 0
M  V30 270 C 24.7786 -3.57199 -0.119728 0
M  V30 271 C 24.4446 -4.35804 1.15697 0
M  V30 272 C 23.1066 -4.57 1.50681 0
M  V30 273 C 25.4586 -4.81167 2.00319 0
M  V30 274 C 22.7866 -5.20807 2.70142 0
M  V30 275 C 25.1386 -5.46293 3.18978 0
M  V30 276 C 23.8026 -5.65722 3.54281 0
M  V30 277 H 23.0726 -0.740933 0.00999866 0
M  V30 278 H 25.7196 -1.77302 0.72362 0
M  V30 279 H 24.0246 -3.81348 -0.89896 0
M  V30 280 H 25.7216 -3.97324 -0.541718 0
M  V30 281 H 22.3116 -4.19582 0.874561 0
M  V30 282 H 26.4956 -4.64574 1.74599 0
M  V30 283 H 21.7516 -5.34045 2.97668 0
M  V30 284 H 25.9256 -5.80407 3.84838 0
M  V30 285 H 23.5526 -6.14936 4.46942 0
M  V30 286 N 25.1277 -0.289203 -1.54924 0
M  V30 287 C 26.5437 0.0645403 -1.59469 0
M  V30 288 C 26.7437 1.53419 -1.30632 0
M  V30 289 O 25.7997 2.2852 -1.074 0
M  V30 290 C 27.1127 -0.32278 -2.98963 0
M  V30 291 C 28.6607 -0.270564 -3.11828 0
M  V30 292 C 29.1357 -0.632532 -4.53611 0
M  V30 293 N 30.6267 -0.584617 -4.59496 0
M  V30 294 C 31.3617 -0.837314 -5.67254 0
M  V30 295 N 30.8577 -1.15536 -6.83098 0
M  V30 296 N 32.6507 -0.765166 -5.56868 0
M  V30 297 H 24.8017 -1.24714 -1.71931 0
M  V30 298 H 27.0647 -0.504809 -0.802416 0
M  V30 299 H 26.7707 -1.34541 -3.24948 0
M  V30 300 H 26.6447 0.32944 -3.75759 0
M  V30 301 H 29.0317 0.742805 -2.85598 0
M  V30 302 H 29.1127 -0.957242 -2.37214 0
M  V30 303 H 28.7567 -1.64365 -4.80569 0
M  V30 304 H 28.6867 0.07609 -5.26545 0
M  V30 305 H 31.1777 -0.349248 -3.76283 0
M  V30 306 H 31.4907 -1.33447 -7.61191 0
M  V30 307 H 29.8357 -1.19328 -6.84679 0
M  V30 308 H 33.0267 -0.516432 -4.65243 0
M  V30 309 H 33.1997 -0.965477 -6.40767 0
M  V30 310 N 26.6058 1.57591 -0.0167156 0
M  V30 311 C 27.8518 1.91567 0.665582 0
M  V30 312 C 28.1848 0.892298 1.72487 0
M  V30 313 O 27.4598 -0.0867127 1.94307 0
M  V30 314 C 27.7428 3.36069 1.29342 0
M  V30 315 C 27.5958 4.49135 0.244541 0
M  V30 316 C 28.9148 3.803 2.21495 0
M  V30 317 H 26.0338 0.69666 0.240488 0
M  V30 318 H 28.6758 1.89866 -0.0714356 0
M  V30 319 H 26.8258 3.3765 1.92158 0
M  V30 320 H 28.4978 4.59689 -0.385228 0
M  V30 321 H 26.7408 4.3165 -0.431379 0
M  V30 322 H 27.4118 5.47242 0.723207 0
M  V30 323 H 29.8878 3.80377 1.68678 0
M  V30 324 H 28.7638 4.82127 2.62382 0
M  V30 325 H 29.0248 3.15104 3.101 0
M  V30 326 N 28.0839 -0.256276 1.55502 0
M  V30 327 C 29.0139 -1.32102 1.92539 0
M  V30 328 C 29.9949 -1.50684 0.789194 0
M  V30 329 O 31.1799 -1.63449 1.04872 0
M  V30 330 C 28.3099 -2.67752 2.21192 0
M  V30 331 C 27.2639 -2.63878 3.36975 0
M  V30 332 C 26.5899 -4.03236 3.51147 0
M  V30 333 C 27.8899 -2.21682 4.72921 0
M  V30 334 H 29.5839 -1.01351 2.81724 0
M  V30 335 H 27.1299 -0.486105 1.35547 0
M  V30 336 H 29.0829 -3.42365 2.45691 0
M  V30 337 H 27.8069 -3.0012 1.28824 0
M  V30 338 H 26.4659 -1.91722 3.12471 0
M  V30 339 H 26.1139 -4.32854 2.56216 0
M  V30 340 H 25.8139 -4.01535 4.29003 0
M  V30 341 H 27.3379 -4.79563 3.77957 0
M  V30 342 H 28.7519 -2.86023 4.96854 0
M  V30 343 H 27.1489 -2.3111 5.53812 0
M  V30 344 H 28.2189 -1.16833 4.70615 0
M  V30 345 N 29.562 -1.4872 -0.521534 0
M  V30 346 C 30.79 -1.60843 -1.30142 0
M  V30 347 C 31.205 -0.271897 -1.86832 0
M  V30 348 O 30.562 0.739969 -1.66825 0
M  V30 349 C 30.613 -2.66155 -2.4463 0
M  V30 350 O 30.334 -3.94623 -1.90275 0
M  V30 351 C 31.835 -2.88795 -3.36322 0
M  V30 352 H 29.055 -0.542075 -0.395468 0
M  V30 353 H 31.599 -1.94609 -0.628285 0
M  V30 354 H 29.754 -2.35224 -3.07812 0
M  V30 355 H 30.168 -4.52468 -2.65279 0
M  V30 356 H 31.642 -3.66264 -4.12983 0
M  V30 357 H 32.119 -1.97934 -3.9207 0
M  V30 358 H 32.725 -3.21063 -2.78924 0
M  V30 359 N 31.0401 0.771051 -1.3745 0
M  V30 360 C 32.0031 1.86598 -1.33093 0
M  V30 361 C 33.0031 1.59076 -0.234845 0
M  V30 362 O 34.1931 1.67145 -0.490732 0
M  V30 363 C 31.3251 3.23747 -1.06773 0
M  V30 364 H 32.5181 1.91873 -2.30488 0
M  V30 365 H 30.0711 0.970876 -1.2249 0
M  V30 366 H 30.8061 3.24148 -0.099129 0
M  V30 367 H 30.5911 3.45115 -1.86112 0
M  V30 368 H 32.0811 4.03824 -1.06377 0
M  V30 369 N 32.5182 1.22032 0.997298 0
M  V30 370 C 33.7642 1.04376 1.73878 0
M  V30 371 C 34.0972 -0.420716 1.89588 0
M  V30 372 O 33.3722 -1.31202 1.43583 0
M  V30 373 C 33.6552 1.75047 3.14691 0
M  V30 374 C 33.5082 3.29062 3.06656 0
M  V30 375 C 34.8272 1.49928 4.13775 0
M  V30 376 H 31.9462 0.380578 0.631133 0
M  V30 377 H 34.5882 1.50312 1.16217 0
M  V30 378 H 32.7382 1.35996 3.63919 0
M  V30 379 H 34.4102 3.7753 2.65083 0
M  V30 380 H 32.6532 3.58967 2.43568 0
M  V30 381 H 33.3242 3.73683 4.06282 0
M  V30 382 H 35.8002 1.83842 3.73285 0
M  V30 383 H 34.6762 2.01878 5.10428 0
M  V30 384 H 34.9372 0.430929 4.39995 0
M  V30 385 N 33.9963 -1.19345 1.0293 0
M  V30 386 C 34.9063 -2.26245 0.620515 0
M  V30 387 C 35.9223 -1.70486 -0.347928 0
M  V30 388 O 37.0983 -2.00347 -0.205704 0
M  V30 389 C 34.1633 -3.46693 -0.0218957 0
M  V30 390 C 33.2243 -4.17632 0.994102 0
M  V30 391 C 32.4573 -5.32329 0.382253 0
M  V30 392 O 32.6803 -5.64552 -0.814676 0
M  V30 393 O 31.6143 -5.91664 1.10531 0
M  V30 394 H 35.4403 -2.63453 1.51083 0
M  V30 395 H 33.0253 -1.26207 0.799513 0
M  V30 396 H 34.9073 -4.19683 -0.380072 0
M  V30 397 H 33.5823 -3.11333 -0.886209 0
M  V30 398 H 32.4893 -3.4676 1.40387 0
M  V30 399 H 33.8223 -4.56964 1.8288 0
M  V30 400 N 35.4744 -0.807222 -1.35358 0
M  V30 401 C 36.4074 -0.163572 -2.27613 0
M  V30 402 C 37.3854 0.670817 -1.48118 0
M  V30 403 O 38.5694 0.63796 -1.77376 0
M  V30 404 C 35.6964 0.773015 -3.29761 0
M  V30 405 C 34.7424 0.0181653 -4.26496 0
M  V30 406 S 35.5754 -1.31831 -5.19019 0
M  V30 407 C 36.7314 -0.38619 -6.24707 0
M  V30 408 H 36.9644 -0.945757 -2.81856 0
M  V30 409 H 34.4974 -0.602315 -1.42167 0
M  V30 410 H 36.4554 1.30788 -3.89108 0
M  V30 411 H 35.1164 1.52859 -2.74396 0
M  V30 412 H 34.3094 0.729534 -4.98692 0
M  V30 413 H 33.9114 -0.446761 -3.71322 0
M  V30 414 H 36.2034 0.428295 -6.76145 0
M  V30 415 H 37.1464 -1.07736 -6.99856 0
M  V30 416 H 37.5544 0.018398 -5.64497 0
M  V30 417 N 36.9525 1.47285 -0.560781 0
M  V30 418 C 38.2005 2.02064 -0.0379868 0
M  V30 419 C 38.5215 1.43711 1.31803 0
M  V30 420 O 37.7915 0.61362 1.86042 0
M  V30 421 H 36.3715 0.746918 -0.0110531 0
M  V30 422 H 39.0335 1.80648 -0.731598 0
M  V30 423 H 38.1295 3.12064 0.0474463 0
M  V30 424 N 38.4306 0.297415 1.54768 0
M  V30 425 C 39.3636 -0.622188 2.19554 0
M  V30 426 C 40.3416 -1.13558 1.16376 0
M  V30 427 O 41.5256 -1.20444 1.45002 0
M  V30 428 C 38.6526 -1.8509 2.83653 0
M  V30 429 C 37.6986 -1.47106 4.00328 0
M  V30 430 S 38.5316 -0.53006 5.3287 0
M  V30 431 C 39.6876 -1.76665 6.0045 0
M  V30 432 H 39.9206 -0.0717806 2.97213 0
M  V30 433 H 37.4536 0.0815678 1.54184 0
M  V30 434 H 39.4116 -2.55605 3.21211 0
M  V30 435 H 38.0726 -2.37247 2.05846 0
M  V30 436 H 37.2656 -2.38594 4.43947 0
M  V30 437 H 36.8676 -0.845885 3.64309 0
M  V30 438 H 39.1596 -2.7077 6.21039 0
M  V30 439 H 40.1026 -1.37308 6.9466 0
M  V30 440 H 40.5106 -1.94174 5.30054 0
M  V30 441 N 39.9087 -1.5758 0.0250728 0
M  V30 442 C 40.8557 -2.09973 -0.958129 0
M  V30 443 C 41.8257 -1.00085 -1.3256 0
M  V30 444 O 43.0107 -1.27481 -1.41962 0
M  V30 445 C 40.1507 -2.62812 -2.2366 0
M  V30 446 C 39.2637 -3.86693 -1.92594 0
M  V30 447 C 38.3987 -4.27941 -3.14707 0
M  V30 448 C 37.4377 -5.44591 -2.79442 0
M  V30 449 N 36.5747 -5.81014 -3.94167 0
M  V30 450 H 41.4147 -2.937 -0.504428 0
M  V30 451 H 38.9517 -1.45172 -0.237392 0
M  V30 452 H 40.9097 -2.91536 -2.98434 0
M  V30 453 H 39.5397 -1.81922 -2.66654 0
M  V30 454 H 38.5917 -3.64723 -1.0808 0
M  V30 455 H 39.9037 -4.71547 -1.62619 0
M  V30 456 H 39.0577 -4.58079 -3.97804 0
M  V30 457 H 37.7967 -3.41845 -3.4784 0
M  V30 458 H 36.8017 -5.1415 -1.94755 0
M  V30 459 H 38.0267 -6.32382 -2.47528 0
M  V30 460 H 35.9727 -4.97874 -4.2715 0
M  V30 461 H 35.8897 -6.60498 -3.67801 0
M  V30 462 H 37.1577 -6.15756 -4.7798 0
M  V30 463 N 41.3868 0.248026 -1.55636 0
M  V30 464 C 42.3348 1.32683 -1.91045 0
M  V30 465 C 43.3288 1.49883 -0.789401 0
M  V30 466 O 44.5348 1.51371 -0.974007 0
M  V30 467 H 40.9098 0.444272 -0.606734 0
M  V30 468 H 42.8808 1.00085 -2.81115 0
M  V30 469 C 41.6298 2.6755 -2.22064 0
M  V30 470 H 40.9528 2.55114 -3.07826 0
M  V30 471 H 42.3928 3.41912 -2.50743 0
M  V30 472 C 40.8518 3.20556 -1.0366 0
M  V30 473 O 41.3818 4.00695 -0.284016 0
M  V30 474 N 39.5878 2.78568 -0.82753 0
M  V30 475 H 39.1348 2.1351 -1.44123 0
M  V30 476 H 39.0928 3.14378 -0.0369803 0
M  V30 477 N 42.8649 1.48995 0.513639 0
M  V30 478 C 43.8149 1.61127 1.61314 0
M  V30 479 C 44.7989 0.467521 1.53958 0
M  V30 480 O 45.9909 0.719826 1.61702 0
M  V30 481 C 43.1199 1.66937 2.99978 0
M  V30 482 C 42.2059 2.86847 3.12377 0
M  V30 483 N 42.5969 4.11078 2.94701 0
M  V30 484 C 40.8949 2.84521 3.43459 0
M  V30 485 C 41.5959 4.91615 3.10949 0
M  V30 486 N 40.5719 4.24739 3.3926 0
M  V30 487 H 44.3739 2.54909 1.46282 0
M  V30 488 H 41.8879 1.45593 0.719483 0
M  V30 489 H 43.8849 1.73725 3.78979 0
M  V30 490 H 42.5449 0.742831 3.16089 0
M  V30 491 H 43.5559 4.41258 2.71131 0
M  V30 492 H 40.2329 2.01192 3.65825 0
M  V30 493 H 41.6229 6.00264 3.01882 0
M  V30 494 N 44.343 -0.763751 1.37857 0
M  V30 495 C 45.253 -1.90817 1.36478 0
M  V30 496 C 46.269 -1.71997 0.263248 0
M  V30 497 O 47.445 -1.95095 0.499979 0
M  V30 498 C 44.51 -3.2605 1.17864 0
M  V30 499 C 43.571 -3.57467 2.3773 0
M  V30 500 C 42.804 -4.86249 2.19995 0
M  V30 501 O 43.027 -5.57884 1.18836 0
M  V30 502 O 41.961 -5.16911 3.08361 0
M  V30 503 H 45.787 -1.94933 2.32884 0
M  V30 504 H 43.372 -0.907619 1.1867 0
M  V30 505 H 45.254 -4.06924 1.09504 0
M  V30 506 H 43.929 -3.22769 0.245372 0
M  V30 507 H 42.836 -2.76796 2.51664 0
M  V30 508 H 44.169 -3.655 3.29652 0
M  V30 509 N 45.8211 -1.22559 -0.990812 0
M  V30 510 C 47.0701 -1.04553 -1.72486 0
M  V30 511 C 47.3831 0.419349 -1.91052 0
M  V30 512 O 48.5891 0.719121 -2.61803 0
M  V30 513 C 47.0451 -1.82231 -3.10355 0
M  V30 514 C 46.6531 -3.32981 -2.99713 0
M  V30 515 C 48.3971 -1.7268 -3.87791 0
M  V30 516 C 46.3041 -4.03091 -4.32748 0
M  V30 517 H 45.2341 -0.387614 -0.646739 0
M  V30 518 H 47.8851 -1.46429 -1.10593 0
M  V30 519 H 46.2671 -1.33155 -3.72942 0
M  V30 520 H 47.4411 -3.89466 -2.46278 0
M  V30 521 H 45.7561 -3.43231 -2.35758 0
M  V30 522 H 48.3531 -2.22381 -4.86262 0
M  V30 523 H 48.6961 -0.687607 -4.10582 0
M  V30 524 H 49.2291 -2.1931 -3.31885 0
M  V30 525 H 45.9681 -5.07273 -4.15156 0
M  V30 526 H 45.4881 -3.51394 -4.86089 0
M  V30 527 H 47.1671 -4.08804 -5.01486 0
M  V30 528 N 47.2992 1.18797 -1.03562 0
M  V30 529 C 48.5452 1.8893 -0.737113 0
M  V30 530 C 48.8782 1.79837 0.732956 0
M  V30 531 O 48.1532 1.19525 1.5344 0
M  V30 532 C 48.4362 3.39607 -1.19745 0
M  V30 533 C 48.2892 3.57537 -2.72924 0
M  V30 534 C 49.6082 4.33069 -0.783526 0
M  V30 535 H 46.7272 0.686057 -0.269249 0
M  V30 536 H 49.3692 1.39797 -1.28673 0
M  V30 537 H 47.5192 3.81583 -0.729855 0
M  V30 538 H 49.1912 3.24688 -3.27682 0
M  V30 539 H 47.4342 3.00363 -3.12993 0
M  V30 540 H 48.1052 4.63238 -3.00191 0
M  V30 541 H 50.5812 3.98846 -1.18581 0
M  V30 542 H 49.4572 5.3707 -1.13343 0
M  V30 543 H 49.7182 4.40986 0.313681 0
M  V30 544 N 48.7773 0.814389 1.34928 0
M  V30 545 C 50.1883 0.458364 1.80986 0
M  V30 546 C 50.5393 -1.02042 1.67577 0
M  V30 547 O 49.6643 -1.79352 1.21086 0
M  V30 548 C 50.2593 0.825212 3.28597 0
M  V30 549 C 48.8183 0.521677 3.72767 0
M  V30 550 C 47.9653 1.04668 2.56788 0
M  V30 551 H 50.9163 1.00533 1.22795 0
M  V30 552 H 50.9373 0.12571 3.80292 0
M  V30 553 H 50.4493 1.90154 3.38324 0
M  V30 554 H 48.5503 -0.545589 3.68584 0
M  V30 555 H 48.6633 1.05977 4.67232 0
M  V30 556 H 47.0273 0.468622 2.50352 0
M  V30 557 H 47.8103 2.12927 2.6929 0
M  V30 558 N 50.2554 -1.46986 0.568584 0
M  V30 559 C 51.5034 -2.02041 0.0487022 0
M  V30 560 C 51.8244 -1.44408 -1.31039 0
M  V30 561 O 51.0944 -0.623477 -1.85714 0
M  V30 562 H 49.6744 -0.746849 0.015014 0
M  V30 563 H 52.3364 -1.80257 0.741168 0
M  V30 564 H 51.4324 -3.12085 -0.0308961 0
M  V30 565 N 51.7335 -0.305618 -1.54608 0
M  V30 566 C 52.9585 0.307562 -2.05107 0
M  V30 567 C 53.3835 1.46385 -1.18123 0
M  V30 568 O 52.7415 1.8034 -0.186324 0
M  V30 569 C 52.7895 0.73704 -3.52987 0
M  V30 570 O 51.8935 1.84134 -3.6901 0
M  V30 571 H 51.2345 0.0589143 -0.661381 0
M  V30 572 H 53.7645 -0.448807 -1.99617 0
M  V30 573 H 53.7745 1.02459 -3.94925 0
M  V30 574 H 52.4495 -0.108773 -4.15758 0
M  V30 575 H 51.0265 1.55398 -3.38978 0
M  V30 576 N 53.2116 1.57565 -0.0334293 0
M  V30 577 C 54.1416 2.13511 0.945265 0
M  V30 578 C 55.1226 1.05231 1.33643 0
M  V30 579 O 56.3076 1.33084 1.41429 0
M  V30 580 C 53.4376 2.6657 2.22616 0
M  V30 581 C 52.3916 3.79676 1.97561 0
M  V30 582 C 51.7176 4.1918 3.31952 0
M  V30 583 C 53.0176 5.0557 1.31135 0
M  V30 584 H 54.7116 2.95538 0.479325 0
M  V30 585 H 52.2576 1.42166 0.229115 0
M  V30 586 H 54.2106 3.04344 2.91466 0
M  V30 587 H 52.9346 1.8171 2.71384 0
M  V30 588 H 51.5936 3.42347 1.31127 0
M  V30 589 H 51.2416 3.31296 3.78487 0
M  V30 590 H 50.9416 4.95402 3.15992 0
M  V30 591 H 52.4656 4.59541 4.02063 0
M  V30 592 H 53.8796 5.40903 1.89992 0
M  V30 593 H 52.2766 5.86818 1.25559 0
M  V30 594 H 53.3466 4.84062 0.284894 0
M  V30 595 N 54.6897 -0.239769 1.55765 0
M  V30 596 C 55.9387 -0.964754 1.77131 0
M  V30 597 C 56.2517 -1.86213 0.59868 0
M  V30 598 O 57.4577 -2.6244 0.695522 0
M  V30 599 C 55.9137 -1.76552 3.1362 0
M  V30 600 C 55.5217 -0.915185 4.38553 0
M  V30 601 C 57.2657 -2.48281 3.44321 0
M  V30 602 C 55.1727 -1.71225 5.66071 0
M  V30 603 H 54.1027 -0.363953 0.660344 0
M  V30 604 H 56.7537 -0.219181 1.82186 0
M  V30 605 H 55.1357 -2.55331 3.02691 0
M  V30 606 H 56.3097 -0.169217 4.60489 0
M  V30 607 H 54.6247 -0.310889 4.15238 0
M  V30 608 H 57.2217 -3.08382 4.36812 0
M  V30 609 H 57.5647 -3.20256 2.65973 0
M  V30 610 H 58.0977 -1.76507 3.56497 0
M  V30 611 H 54.8367 -1.03612 6.4726 0
M  V30 612 H 54.3567 -2.43331 5.48224 0
M  V30 613 H 56.0357 -2.27758 6.05587 0
M  V30 614 N 56.1678 -1.49265 -0.50573 0
M  V30 615 C 57.1308 -1.65075 -1.59006 0
M  V30 616 C 58.1308 -0.522768 -1.52065 0
M  V30 617 O 59.3208 -0.789117 -1.55302 0
M  V30 618 C 56.4528 -1.64369 -2.98656 0
M  V30 619 H 57.6458 -2.61784 -1.46319 0
M  V30 620 H 55.1988 -1.38226 -0.729616 0
M  V30 621 H 55.9338 -0.692272 -3.16825 0
M  V30 622 H 55.7188 -2.46282 -3.05103 0
M  V30 623 H 57.2088 -1.78674 -3.77446 0
M  V30 624 N 57.6459 0.756429 -1.3826 0
M  V30 625 C 58.8709 1.55077 -1.37717 0
M  V30 626 C 59.2959 1.88073 0.03164 0
M  V30 627 O 58.6539 1.50364 1.01293 0
M  V30 628 C 58.7019 2.8283 -2.23695 0
M  V30 629 O 57.8059 3.77862 -1.6521 0
M  V30 630 H 57.1469 0.469152 -0.469885 0
M  V30 631 H 59.6769 0.935019 -1.81985 0
M  V30 632 H 59.6869 3.31783 -2.37453 0
M  V30 633 H 58.3619 2.58144 -3.2609 0
M  V30 634 H 56.9389 3.36555 -1.60578 0
M  V30 635 N 59.124 1.23083 0.984299 0
M  V30 636 C 60.373 1.05466 1.71929 0
M  V30 637 C 60.686 -0.409211 1.91272 0
M  V30 638 O 61.892 -0.705226 2.62181 0
M  V30 639 C 60.348 1.83874 3.09384 0
M  V30 640 C 59.956 3.34566 2.97943 0
M  V30 641 C 61.7 1.74734 3.8687 0
M  V30 642 C 59.607 4.05381 4.30605 0
M  V30 643 H 58.537 0.391039 0.644674 0
M  V30 644 H 61.188 1.47013 1.09815 0
M  V30 645 H 59.57 1.35131 3.72231 0
M  V30 646 H 60.744 3.90767 2.44209 0
M  V30 647 H 59.059 3.44476 2.33934 0
M  V30 648 H 61.656 2.24957 4.85076 0
M  V30 649 H 61.999 0.709372 4.10212 0
M  V30 650 H 62.532 2.21067 3.30717 0
M  V30 651 H 59.271 5.09467 4.1246 0
M  V30 652 H 58.791 3.53967 4.84218 0
M  V30 653 H 60.47 4.11458 4.99311 0
M  V30 654 N 60.6021 -1.18246 1.0419 0
M  V30 655 C 61.5651 -2.20128 0.638452 0
M  V30 656 C 62.5651 -1.57885 -0.304805 0
M  V30 657 O 63.7551 -1.73967 -0.0900369 0
M  V30 658 C 60.8871 -3.4084 -0.0637751 0
M  V30 659 H 62.0801 -2.57336 1.54007 0
M  V30 660 H 59.6331 -1.32152 0.834598 0
M  V30 661 H 60.3681 -3.09166 -0.979136 0
M  V30 662 H 60.1531 -3.8726 0.614198 0
M  V30 663 H 61.6431 -4.16274 -0.332512 0
M  V30 664 N 62.0802 -0.821533 -1.34494 0
M  V30 665 C 63.3052 -0.420873 -2.03085 0
M  V30 666 C 63.7302 0.964915 -1.61465 0
M  V30 667 O 63.0882 1.62763 -0.798607 0
M  V30 668 C 63.1362 -0.529414 -3.56693 0
M  V30 669 O 62.2402 0.451302 -4.09923 0
M  V30 670 H 61.5812 -0.173489 -0.640935 0
M  V30 671 H 64.1112 -1.11157 -1.71771 0
M  V30 672 H 64.1212 -0.404671 -4.05988 0
M  V30 673 H 62.7962 -1.54014 -3.86332 0
M  V30 674 H 61.3732 0.285558 -3.71805 0
M  V30 675 N 63.5583 1.46682 -0.576371 0
M  V30 676 C 64.4883 2.33028 0.148397 0
M  V30 677 C 65.4693 1.44961 0.889956 0
M  V30 678 O 66.6543 1.73789 0.866662 0
M  V30 679 C 63.7843 3.27117 1.1667 0
M  V30 680 C 62.7383 4.24575 0.540386 0
M  V30 681 C 62.0643 5.08126 1.6647 0
M  V30 682 C 63.3643 5.19722 -0.518331 0
M  V30 683 H 65.0583 2.93875 -0.572509 0
M  V30 684 H 62.6043 1.41315 -0.276768 0
M  V30 685 H 64.5573 3.86374 1.68204 0
M  V30 686 H 63.2813 2.64364 1.9178 0
M  V30 687 H 61.9403 3.66571 0.0461769 0
M  V30 688 H 61.5883 4.41762 2.40531 0
M  V30 689 H 61.2883 5.74122 1.25131 0
M  V30 690 H 62.8123 5.70246 2.18293 0
M  V30 691 H 64.2263 5.73232 -0.0883058 0
M  V30 692 H 62.6233 5.94026 -0.851679 0
M  V30 693 H 63.6933 4.64037 -1.40703 0
M  V30 694 N 65.0364 0.313813 1.54444 0
M  V30 695 C 65.9834 -0.55655 2.23989 0
M  V30 696 C 66.9534 -1.11943 1.22711 0
M  V30 697 O 68.1384 -1.16158 1.51367 0
M  V30 698 C 65.2784 -1.71635 2.99392 0
M  V30 699 C 64.3914 -1.18364 4.15468 0
M  V30 700 C 63.5264 -2.30834 4.78424 0
M  V30 701 C 62.5654 -1.74762 5.86622 0
M  V30 702 N 61.7024 -2.80855 6.43479 0
M  V30 703 H 66.5424 0.0430893 2.97969 0
M  V30 704 H 64.0794 0.0330359 1.47063 0
M  V30 705 H 66.0374 -2.39868 3.41349 0
M  V30 706 H 64.6674 -2.28742 2.27765 0
M  V30 707 H 63.7194 -0.393163 3.78363 0
M  V30 708 H 65.0314 -0.733262 4.93381 0
M  V30 709 H 64.1854 -3.0699 5.23299 0
M  V30 710 H 62.9244 -2.79204 3.99871 0
M  V30 711 H 61.9294 -0.970995 5.41158 0
M  V30 712 H 63.1544 -1.2728 6.67066 0
M  V30 713 H 61.1004 -3.28535 5.67804 0
M  V30 714 H 61.0174 -2.40351 7.16776 0
M  V30 715 H 62.2854 -3.5687 6.93011 0
M  V30 716 N 66.5145 -1.57545 0.0417849 0
M  V30 717 C 67.4645 -2.07483 -0.945247 0
M  V30 718 C 68.4485 -0.977983 -1.27767 0
M  V30 719 O 69.6405 -1.24142 -1.26166 0
M  V30 720 C 66.7695 -2.61576 -2.22335 0
M  V30 721 C 65.8555 -3.78213 -1.91874 0
M  V30 722 N 66.2465 -4.88344 -1.31733 0
M  V30 723 C 64.5445 -3.8694 -2.21796 0
M  V30 724 C 65.2455 -5.69462 -1.1869 0
M  V30 725 N 64.2215 -5.16771 -1.68666 0
M  V30 726 H 68.0235 -2.90029 -0.475441 0
M  V30 727 H 65.5375 -1.61581 -0.162911 0
M  V30 728 H 67.5345 -2.95651 -2.93932 0
M  V30 729 H 66.1945 -1.80465 -2.69931 0
M  V30 730 H 67.2055 -5.08335 -0.990729 0
M  V30 731 H 63.8825 -3.16757 -2.71977 0
M  V30 732 H 65.2725 -6.68023 -0.720793 0
M  V30 733 N 67.9926 0.231505 -1.5589 0
M  V30 734 C 69.2406 0.955461 -1.78088 0
M  V30 735 C 69.5616 1.85262 -0.608533 0
M  V30 736 O 68.8316 1.92277 0.375035 0
M  V30 737 H 67.4116 0.355787 -0.656829 0
M  V30 738 H 70.0736 0.245751 -1.93344 0
M  V30 739 H 69.1696 1.56814 -2.69844 0
M  V30 740 N 69.4707 1.49531 0.497807 0
M  V30 741 C 70.7187 1.58865 1.24926 0
M  V30 742 C 71.0397 0.278721 1.92998 0
M  V30 743 O 70.3097 -0.702144 1.82885 0
M  V30 744 H 68.8897 0.585343 0.464094 0
M  V30 745 H 71.5517 1.86174 0.57666 0
M  V30 746 H 70.6477 2.38633 2.01149 0
M  V30 747 N 70.9488 -0.749086 1.3866 0
M  V30 748 C 72.1888 -1.52112 1.36534 0
M  V30 749 C 72.5528 -1.91951 -0.0432316 0
M  V30 750 O 73.7538 -2.68132 -0.189396 0
M  V30 751 C 72.0248 -2.73704 2.29828 0
M  V30 752 S 73.5838 -3.63519 2.45763 0
M  V30 753 H 70.4018 -0.520482 0.484375 0
M  V30 754 H 73.0038 -0.878963 1.74627 0
M  V30 755 H 71.7078 -2.42552 3.31054 0
M  V30 756 H 71.2388 -3.4286 1.929 0
M  V30 757 H 73.2538 -4.66712 1.68505 0
M  V30 758 N 72.4269 -1.23603 -0.977757 0
M  V30 759 C 73.3749 -1.01704 -2.09187 0
M  V30 760 C 74.3689 0.0448214 -1.69341 0
M  V30 761 O 75.5749 -0.108902 -1.7967 0
M  V30 762 H 71.9499 -0.311803 -0.684312 0
M  V30 763 H 73.9209 -1.96207 -2.24823 0
M  V30 764 C 72.6699 -0.627746 -3.41986 0
M  V30 765 H 71.9929 -1.43656 -3.73099 0
M  V30 766 H 73.4329 -0.514053 -4.20872 0
M  V30 767 C 71.8919 0.664238 -3.30287 0
M  V30 768 O 72.4219 1.71268 -3.6336 0
M  V30 769 N 70.6279 0.641156 -2.83439 0
M  V30 770 H 70.1749 -0.212376 -2.56723 0
M  V30 771 H 70.1329 1.50583 -2.75993 0
M  V30 772 N 73.905 1.17692 -1.04816 0
M  V30 773 C 74.852 2.21581 -0.645797 0
M  V30 774 C 75.822 1.62367 0.350159 0
M  V30 775 O 77.007 1.89254 0.242433 0
M  V30 776 C 74.147 3.45092 -0.0227568 0
M  V30 777 C 73.26 4.18613 -1.06709 0
M  V30 778 C 72.395 5.29602 -0.411767 0
M  V30 779 C 71.434 5.94904 -1.44067 0
M  V30 780 N 70.571 6.97414 -0.809781 0
M  V30 781 H 75.411 2.55353 -1.5362 0
M  V30 782 H 72.948 1.25438 -0.768364 0
M  V30 783 H 74.906 4.15679 0.35588 0
M  V30 784 H 73.536 3.11917 0.831122 0
M  V30 785 H 72.588 3.46779 -1.5636 0
M  V30 786 H 73.9 4.63293 -1.84827 0
M  V30 787 H 73.054 6.06696 0.0206623 0
M  V30 788 H 71.793 4.86045 0.401438 0
M  V30 789 H 70.798 5.16544 -1.88316 0
M  V30 790 H 72.023 6.40542 -2.25571 0
M  V30 791 H 69.969 6.55998 -0.0170186 0
M  V30 792 H 69.886 7.40386 -1.52856 0
M  V30 793 H 71.154 7.78463 -0.401999 0
M  V30 794 N 75.3831 0.828654 1.34056 0
M  V30 795 C 76.6291 0.42008 1.98402 0
M  V30 796 C 76.9621 -1.01564 1.65525 0
M  V30 797 O 76.2371 -1.70834 0.929831 0
M  V30 798 C 76.5201 0.62927 3.54559 0
M  V30 799 C 76.3731 2.11152 3.97159 0
M  V30 800 C 77.6921 0.0688756 4.40046 0
M  V30 801 H 74.8111 0.154104 0.720709 0
M  V30 802 H 77.4531 1.04228 1.5886 0
M  V30 803 H 75.6031 0.0996418 3.88372 0
M  V30 804 H 77.2751 2.70522 3.73651 0
M  V30 805 H 75.5181 2.59985 3.47261 0
M  V30 806 H 76.1891 2.20868 5.05887 0
M  V30 807 H 78.6651 0.521458 4.1282 0
M  V30 808 H 77.5411 0.245006 5.48353 0
M  V30 809 H 77.8021 -1.0266 4.30015 0
M  V30 810 N 76.8612 -1.46375 0.584142 0
M  V30 811 C 77.7912 -2.33103 -0.136037 0
M  V30 812 C 78.7722 -1.45431 -0.882255 0
M  V30 813 O 79.9572 -1.74246 -0.857434 0
M  V30 814 C 77.0872 -3.27731 -1.14933 0
M  V30 815 C 76.0412 -4.24855 -0.517862 0
M  V30 816 C 75.3672 -5.09001 -1.63773 0
M  V30 817 C 76.6672 -5.19439 0.545886 0
M  V30 818 H 78.3612 -2.93568 0.588086 0
M  V30 819 H 75.9072 -1.41166 0.284259 0
M  V30 820 H 77.8602 -3.87261 -1.66153 0
M  V30 821 H 76.5842 -2.65377 -1.90375 0
M  V30 822 H 75.2432 -3.6659 -0.0267361 0
M  V30 823 H 74.8912 -4.43031 -2.38185 0
M  V30 824 H 74.5912 -5.74777 -1.22085 0
M  V30 825 H 76.1152 -5.71396 -2.15266 0
M  V30 826 H 77.5292 -5.73177 0.118704 0
M  V30 827 H 75.9262 -5.93566 0.88317 0
M  V30 828 H 76.9962 -4.63285 1.43162 0
M  V30 829 N 78.3393 -0.321999 -1.54275 0
M  V30 830 C 79.7553 0.0306999 -1.5957 0
M  V30 831 C 79.9553 1.50614 -1.33857 0
M  V30 832 O 79.0113 2.2619 -1.12223 0
M  V30 833 C 80.3243 -0.386122 -2.98211 0
M  V30 834 C 81.8723 -0.336647 -3.11184 0
M  V30 835 C 82.3473 -0.728607 -4.52167 0
M  V30 836 N 83.8383 -0.681952 -4.58152 0
M  V30 837 C 84.5733 -0.957449 -5.6535 0
M  V30 838 N 84.0693 -1.3 -6.80494 0
M  V30 839 N 85.8623 -0.883113 -5.55119 0
M  V30 840 H 78.0133 -1.28332 -1.69247 0
M  V30 841 H 80.2763 -0.521716 -0.791528 0
M  V30 842 H 79.9823 -1.41404 -3.22022 0
M  V30 843 H 79.8563 0.249662 -3.76373 0
M  V30 844 H 82.2433 0.682058 -2.8711 0
M  V30 845 H 82.3243 -1.00734 -2.3513 0
M  V30 846 H 81.9683 -1.74522 -4.76974 0
M  V30 847 H 81.8983 -0.0356152 -5.26588 0
M  V30 848 H 84.3893 -0.428985 -3.75457 0
M  V30 849 H 84.7023 -1.49563 -7.58189 0
M  V30 850 H 83.0473 -1.33824 -6.81994 0
M  V30 851 H 86.2383 -0.615001 -4.64042 0
M  V30 852 H 86.4113 -1.10118 -6.38575 0
M  V30 853 N 79.8174 1.5752 -0.0501392 0
M  V30 854 C 80.7274 2.14952 0.939827 0
M  V30 855 C 81.7434 1.10706 1.34239 0
M  V30 856 O 82.9194 1.42869 1.41952 0
M  V30 857 C 79.9844 2.68232 2.19665 0
M  V30 858 C 79.0454 3.87272 1.85253 0
M  V30 859 C 78.2784 4.38002 3.04943 0
M  V30 860 O 78.5014 3.87811 4.18281 0
M  V30 861 O 77.4354 5.29602 2.86017 0
M  V30 862 H 81.2614 2.9986 0.481392 0
M  V30 863 H 78.8464 1.4841 0.171699 0
M  V30 864 H 80.7284 3.02475 2.93406 0
M  V30 865 H 79.4034 1.86395 2.64648 0
M  V30 866 H 78.3104 3.5792 1.0883 0
M  V30 867 H 79.6434 4.70336 1.4507 0
M  V30 868 N 81.2955 -0.223234 1.56011 0
M  V30 869 C 82.2255 -1.27988 1.95298 0
M  V30 870 C 83.2065 -1.48976 0.820979 0
M  V30 871 O 84.3915 -1.61188 1.08315 0
M  V30 872 C 81.5215 -2.63 2.26822 0
M  V30 873 C 80.4755 -2.56671 3.42497 0
M  V30 874 C 79.8015 -3.95697 3.59622 0
M  V30 875 C 81.1015 -2.11601 4.77517 0
M  V30 876 H 82.7955 -0.953525 2.8381 0
M  V30 877 H 80.3415 -0.457244 1.36548 0
M  V30 878 H 82.2945 -3.37077 2.52898 0
M  V30 879 H 81.0185 -2.9732 1.35161 0
M  V30 880 H 79.6775 -1.85051 3.16467 0
M  V30 881 H 79.3255 -4.27322 2.6534 0
M  V30 882 H 79.0255 -3.92345 4.37424 0
M  V30 883 H 80.5495 -4.71438 3.88044 0
M  V30 884 H 81.9635 -2.7542 5.02809 0
M  V30 885 H 80.3605 -2.19311 5.5859 0
M  V30 886 H 81.4305 -1.06824 4.72987 0
M  V30 887 N 82.7736 -1.49793 -0.48987 0
M  V30 888 C 84.0196 -1.60078 -1.24511 0
M  V30 889 C 84.3526 -0.291608 -1.91998 0
M  V30 890 O 83.6276 0.705647 -1.81248 0
M  V30 891 C 83.9106 -2.76791 -2.30345 0
M  V30 892 C 83.7636 -4.17535 -1.67286 0
M  V30 893 C 85.0826 -2.89111 -3.31817 0
M  V30 894 H 82.2016 -0.582645 -0.451324 0
M  V30 895 H 84.8436 -1.82117 -0.541612 0
M  V30 896 H 82.9936 -2.5813 -2.90346 0
M  V30 897 H 84.6656 -4.4774 -1.11026 0
M  V30 898 H 82.9086 -4.22665 -0.976577 0
M  V30 899 H 83.5796 -4.95094 -2.44103 0
M  V30 900 H 86.0556 -3.06133 -2.81819 0
M  V30 901 H 84.9316 -3.72433 -4.03219 0
M  V30 902 H 85.1926 -1.9893 -3.94815 0
M  V30 903 N 84.2517 0.741722 -1.39055 0
M  V30 904 C 85.1987 1.85566 -1.37237 0
M  V30 905 C 86.1687 1.64457 -0.233072 0
M  V30 906 O 87.3537 1.85957 -0.427147 0
M  V30 907 C 84.4937 3.23004 -1.215 0
M  V30 908 C 83.6067 3.55864 -2.44918 0
M  V30 909 C 82.7417 4.82669 -2.21821 0
M  V30 910 C 81.7807 5.08351 -3.40948 0
M  V30 911 N 80.9177 6.26356 -3.17211 0
M  V30 912 H 85.7577 1.86455 -2.32462 0
M  V30 913 H 83.2947 0.911176 -1.15482 0
M  V30 914 H 85.2527 4.02331 -1.10389 0
M  V30 915 H 83.8827 3.21411 -0.29908 0
M  V30 916 H 82.9347 2.7129 -2.66657 0
M  V30 917 H 84.2467 3.70765 -3.33668 0
M  V30 918 H 83.4007 5.69962 -2.07914 0
M  V30 919 H 82.1397 4.69929 -1.30454 0
M  V30 920 H 81.1447 4.19522 -3.55361 0
M  V30 921 H 82.3697 5.22981 -4.33207 0
M  V30 922 H 80.3157 6.14917 -2.28502 0
M  V30 923 H 80.2327 6.41813 -3.99515 0
M  V30 924 H 81.5007 7.16506 -3.06984 0
M  V30 925 N 85.7298 1.2412 0.971189 0
M  V30 926 C 86.6798 0.997551 2.05019 0
M  V30 927 C 87.6638 -0.0597747 1.60789 0
M  V30 928 O 88.8558 0.153516 1.76333 0
M  V30 929 C 85.9848 0.600557 3.38006 0
M  V30 930 C 85.0708 1.69377 3.88809 0
M  V30 931 N 85.4618 2.92586 4.12586 0
M  V30 932 C 83.7598 1.57048 4.17435 0
M  V30 933 C 84.4608 3.63431 4.54195 0
M  V30 934 N 83.4368 2.90979 4.59165 0
M  V30 935 H 87.2388 1.93316 2.21374 0
M  V30 936 H 84.7528 1.14194 1.1547 0
M  V30 937 H 86.7498 0.40725 4.14906 0
M  V30 938 H 85.4098 -0.327903 3.2304 0
M  V30 939 H 86.4208 3.288 4.00139 0
M  V30 940 H 83.0978 0.709798 4.11422 0
M  V30 941 H 84.4878 4.69102 4.81033 0
M  V30 942 N 87.2079 -1.17134 1.05439 0
M  V30 943 C 88.1549 -2.21235 0.657539 0
M  V30 944 C 89.1249 -1.62551 -0.341543 0
M  V30 945 O 90.3099 -1.89379 -0.232393 0
M  V30 946 C 87.4499 -3.45076 0.0410575 0
M  V30 947 C 86.5629 -4.18042 1.08927 0
M  V30 948 C 85.6979 -5.29376 0.439848 0
M  V30 949 C 84.7369 -5.94132 1.4722 0
M  V30 950 N 83.8739 -6.96975 0.846756 0
M  V30 951 H 88.7139 -2.54534 1.54972 0
M  V30 952 H 86.2509 -1.25028 0.775006 0
M  V30 953 H 88.2089 -4.15862 -0.33383 0
M  V30 954 H 86.8389 -3.12353 -0.814568 0
M  V30 955 H 85.8909 -3.45945 1.58196 0
M  V30 956 H 87.2029 -4.62306 1.87282 0
M  V30 957 H 86.3569 -6.06699 0.0115125 0
M  V30 958 H 85.0959 -4.86251 -0.375656 0
M  V30 959 H 84.1009 -5.15538 1.91052 0
M  V30 960 H 85.3259 -6.39337 2.28965 0
M  V30 961 H 83.2719 -6.5598 0.0518075 0
M  V30 962 H 83.1889 -7.39565 1.5678 0
M  V30 963 H 84.4569 -7.78239 0.443277 0
M  V30 964 N 88.686 -0.835752 -1.33615 0
M  V30 965 C 89.616 -0.281739 -2.31794 0
M  V30 966 C 90.597 0.608833 -1.58831 0
M  V30 967 O 91.782 0.533035 -1.86741 0
M  V30 968 C 88.912 0.546612 -3.42971 0
M  V30 969 C 87.866 -0.247904 -4.27281 0
M  V30 970 C 87.192 0.704001 -5.30045 0
M  V30 971 C 88.492 -1.46324 -5.01385 0
M  V30 972 H 90.186 -1.10206 -2.78379 0
M  V30 973 H 87.732 -0.531388 -1.33837 0
M  V30 974 H 89.685 0.944467 -4.1068 0
M  V30 975 H 88.409 1.40011 -2.95067 0
M  V30 976 H 87.068 -0.627281 -3.61194 0
M  V30 977 H 86.716 1.55381 -4.78399 0
M  V30 978 H 86.416 0.176524 -5.87335 0
M  V30 979 H 87.94 1.09944 -6.0062 0
M  V30 980 H 89.354 -1.13871 -5.61877 0
M  V30 981 H 87.751 -1.92728 -5.6831 0
M  V30 982 H 88.821 -2.23467 -4.30338 0
M  V30 983 N 90.1641 1.46063 -0.591896 0
M  V30 984 C 91.4131 2.01547 -0.0786637 0
M  V30 985 C 91.7261 1.46796 1.29268 0
M  V30 986 O 92.9321 1.94157 1.89777 0
M  V30 987 C 91.3881 3.59787 -0.0900024 0
M  V30 988 C 90.9961 4.23534 -1.46023 0
M  V30 989 C 92.7401 4.22895 0.368806 0
M  V30 990 C 90.6471 5.73881 -1.4288 0
M  V30 991 H 89.5771 0.753564 -0.0256388 0
M  V30 992 H 92.2281 1.677 -0.744905 0
M  V30 993 H 90.6101 3.90752 0.642586 0
M  V30 994 H 91.7841 4.04167 -2.21328 0
M  V30 995 H 90.0991 3.72558 -1.85982 0
M  V30 996 H 92.6961 5.33116 0.411258 0
M  V30 997 H 93.0391 3.9247 1.38827 0
M  V30 998 H 93.5721 3.9659 -0.31001 0
M  V30 999 H 90.3111 6.0898 -2.42536 0
M  V30 1000 H 89.8311 5.95486 -0.718095 0
M  V30 1001 H 91.5101 6.36776 -1.14565 0
M  V30 1002 N 91.6422 0.330177 1.54103 0
M  V30 1003 C 92.6052 -0.520144 2.2322 0
M  V30 1004 C 93.6052 -1.03828 1.22786 0
M  V30 1005 O 94.7952 -0.929652 1.4732 0
M  V30 1006 C 91.9272 -1.72317 2.94142 0
M  V30 1007 H 93.1202 0.0841605 2.99782 0
M  V30 1008 H 90.6732 0.0813433 1.56088 0
M  V30 1009 H 91.4082 -2.36653 2.21734 0
M  V30 1010 H 91.1932 -1.35898 3.67796 0
M  V30 1011 H 92.6832 -2.3266 3.46784 0
M  V30 1012 N 93.1203 -1.57491 0.0584922 0
M  V30 1013 C 94.3663 -1.94081 -0.608617 0
M  V30 1014 C 94.7213 -0.937438 -1.68017 0
M  V30 1015 O 94.0143 0.0423034 -1.91553 0
M  V30 1016 C 94.2083 -3.3513 -1.24188 0
M  V30 1017 C 94.0373 -4.49095 -0.233187 0
M  V30 1018 C 92.8073 -5.04988 0.177439 0
M  V30 1019 C 95.0053 -5.1162 0.524306 0
M  V30 1020 N 92.9873 -6.02487 1.17823 0
M  V30 1021 C 94.3583 -6.04493 1.37796 0
M  V30 1022 C 96.4133 -4.94489 0.581822 0
M  V30 1023 C 95.1163 -6.82075 2.28399 0
M  V30 1024 C 97.1423 -5.72703 1.47531 0
M  V30 1025 C 96.5043 -6.65214 2.31667 0
M  V30 1026 H 92.6033 -0.75752 -0.194134 0
M  V30 1027 H 95.1873 -1.94248 0.132533 0
M  V30 1028 H 93.3583 -3.35726 -1.95302 0
M  V30 1029 H 95.0903 -3.5899 -1.86838 0
M  V30 1030 H 91.8453 -4.73165 -0.203004 0
M  V30 1031 H 92.2693 -6.55933 1.67573 0
M  V30 1032 H 96.9113 -4.22765 -0.054443 0
M  V30 1033 H 94.6293 -7.53085 2.93067 0
M  V30 1034 H 98.2153 -5.61472 1.52448 0
M  V30 1035 H 97.0953 -7.24679 2.99683 0
M  V30 1036 N 94.5984 0.214957 -1.56127 0
M  V30 1037 C 95.5084 1.28727 -1.96129 0
M  V30 1038 C 96.5244 1.50916 -0.866044 0
M  V30 1039 O 97.7004 1.63918 -1.17016 0
M  V30 1040 C 94.7654 2.61569 -2.27558 0
M  V30 1041 C 93.8264 2.47625 -3.50685 0
M  V30 1042 C 93.0594 3.74132 -3.80606 0
M  V30 1043 O 93.2824 4.77438 -3.12104 0
M  V30 1044 O 92.2164 3.70849 -4.74083 0
M  V30 1045 H 96.0424 0.977855 -2.87527 0
M  V30 1046 H 93.6274 0.418358 -1.43423 0
M  V30 1047 H 95.5094 3.40012 -2.48938 0
M  V30 1048 H 94.1844 2.92178 -1.39332 0
M  V30 1049 H 93.0914 1.67361 -3.34576 0
M  V30 1050 H 94.4244 2.21954 -4.39315 0
M  V30 1051 N 96.0765 1.50051 0.48192 0
M  V30 1052 C 97.4925 1.37237 0.814756 0
M  V30 1053 C 97.6925 0.420109 1.97072 0
M  V30 1054 O 96.7485 -0.141246 2.52105 0
M  V30 1055 C 98.0615 2.78375 1.13701 0
M  V30 1056 C 99.6095 2.87213 1.2441 0
M  V30 1057 C 100.084 4.29161 1.59954 0
M  V30 1058 N 101.575 4.32061 1.66967 0
M  V30 1059 C 102.31 5.38879 1.95952 0
M  V30 1060 N 101.806 6.55918 2.23031 0
M  V30 1061 N 103.599 5.26312 1.97363 0
M  V30 1062 H 95.7505 2.10546 -0.28005 0
M  V30 1063 H 98.0135 0.945921 -0.0627454 0
M  V30 1064 H 97.7195 3.49845 0.360787 0
M  V30 1065 H 97.5935 3.14941 2.07586 0
M  V30 1066 H 99.9805 2.15969 2.01101 0
M  V30 1067 H 100.061 2.54204 0.285299 0
M  V30 1068 H 99.7055 5.00938 0.838067 0
M  V30 1069 H 99.6355 4.59648 2.56966 0
M  V30 1070 H 102.126 3.47661 1.48123 0
M  V30 1071 H 102.439 7.33139 2.44391 0
M  V30 1072 H 100.784 6.59112 2.20447 0
M  V30 1073 H 103.975 4.33876 1.75697 0
M  V30 1074 H 104.148 6.09649 2.19618 0
M  V30 1075 N 97.5546 -0.734337 1.39446 0
M  V30 1076 C 98.7826 -1.52358 1.39981 0
M  V30 1077 C 99.1976 -1.88799 -0.0054975 0
M  V30 1078 O 98.5546 -1.54146 -0.976998 0
M  V30 1079 C 98.6056 -2.81072 2.27333 0
M  V30 1080 O 98.3266 -2.46178 3.62392 0
M  V30 1081 C 99.8276 -3.75096 2.36259 0
M  V30 1082 H 97.0476 -0.470806 0.478103 0
M  V30 1083 H 99.5916 -0.907339 1.83269 0
M  V30 1084 H 97.7466 -3.39026 1.87457 0
M  V30 1085 H 98.1606 -3.28866 4.08592 0
M  V30 1086 H 99.6346 -4.62305 3.01626 0
M  V30 1087 H 100.112 -4.16892 1.38194 0
M  V30 1088 H 100.718 -3.23061 2.76608 0
M  V30 1089 N 99.0327 -1.24633 -0.964593 0
M  V30 1090 C 99.9797 -1.04144 -2.05968 0
M  V30 1091 C 100.95 0.046262 -1.66036 0
M  V30 1092 O 102.135 -0.108972 -1.90489 0
M  V30 1093 C 99.2747 -0.65563 -3.38815 0
M  V30 1094 C 98.3877 -1.81714 -3.91923 0
M  V30 1095 C 97.5227 -1.37662 -5.13052 0
M  V30 1096 C 96.5617 -2.50788 -5.58365 0
M  V30 1097 N 95.6987 -2.07582 -6.70712 0
M  V30 1098 H 100.539 -1.9787 -2.22827 0
M  V30 1099 H 98.0757 -0.9855 -1.09208 0
M  V30 1100 H 100.034 -0.412954 -4.15151 0
M  V30 1101 H 98.6637 0.244627 -3.21872 0
M  V30 1102 H 97.7157 -2.1734 -3.12198 0
M  V30 1103 H 99.0277 -2.66705 -4.21509 0
M  V30 1104 H 98.1817 -1.093 -5.96773 0
M  V30 1105 H 96.9207 -0.497293 -4.85158 0
M  V30 1106 H 95.9257 -2.79906 -4.73215 0
M  V30 1107 H 97.1507 -3.39283 -5.88272 0
M  V30 1108 H 95.0967 -1.22051 -6.44546 0
M  V30 1109 H 95.0137 -2.86125 -6.99763 0
M  V30 1110 H 96.2817 -1.82369 -7.57867 0
M  V30 1111 N 100.511 1.16574 -1.06058 0
M  V30 1112 C 101.739 1.90952 -0.796552 0
M  V30 1113 C 102.154 1.77302 0.648808 0
M  V30 1114 O 101.511 1.11605 1.44397 0
M  V30 1115 C 101.562 3.41736 -1.17894 0
M  V30 1116 O 101.283 3.54975 -2.56758 0
M  V30 1117 C 102.784 4.33169 -0.942308 0
M  V30 1118 H 100.004 0.605594 -0.288959 0
M  V30 1119 H 102.548 1.47777 -1.41358 0
M  V30 1120 H 100.703 3.82623 -0.606491 0
M  V30 1121 H 101.117 4.4846 -2.72 0
M  V30 1122 H 102.591 5.37439 -1.25952 0
M  V30 1123 H 103.068 4.3903 0.122078 0
M  V30 1124 H 103.674 3.98007 -1.49902 0
M  V30 1125 N 101.989 0.842826 1.3317 0
M  V30 1126 C 103.235 0.441099 1.97945 0
M  V30 1127 C 103.568 -0.998024 1.66593 0
M  V30 1128 O 102.843 -1.69839 0.947898 0
M  V30 1129 C 103.126 0.666841 3.53872 0
M  V30 1130 C 102.979 2.15352 3.94897 0
M  V30 1131 C 104.298 0.115544 4.39948 0
M  V30 1132 H 101.417 0.161739 0.719034 0
M  V30 1133 H 104.059 1.05907 1.57746 0
M  V30 1134 H 102.209 0.140828 3.88245 0
M  V30 1135 H 103.881 2.7447 3.70761 0
M  V30 1136 H 102.124 2.63653 3.44484 0
M  V30 1137 H 102.795 2.26221 5.03516 0
M  V30 1138 H 105.271 0.565213 4.12243 0
M  V30 1139 H 104.147 0.303152 5.48062 0
M  V30 1140 H 104.408 -0.980935 4.3108 0
M  V30 1141 N 103.467 -1.45747 0.599634 0
M  V30 1142 C 104.399 -2.28628 -0.161879 0
M  V30 1143 C 105.412 -1.39494 -0.839367 0
M  V30 1144 O 106.601 -1.63941 -0.706089 0
M  V30 1145 C 103.701 -3.15014 -1.24976 0
M  V30 1146 C 102.874 -4.32378 -0.660935 0
M  V30 1147 C 101.933 -5.00033 -1.63869 0
M  V30 1148 O 100.959 -5.57085 -1.1681 0
M  V30 1149 N 102.161 -4.98589 -2.97303 0
M  V30 1150 H 104.926 -2.94624 0.549265 0
M  V30 1151 H 102.487 -1.55847 0.438565 0
M  V30 1152 H 104.479 -3.5714 -1.9035 0
M  V30 1153 H 103.049 -2.5098 -1.86354 0
M  V30 1154 H 102.269 -3.9383 0.170688 0
M  V30 1155 H 103.557 -5.08197 -0.247619 0
M  V30 1156 H 102.955 -4.53514 -3.38145 0
M  V30 1157 H 101.512 -5.44603 -3.58121 0
M  V30 1158 N 104.945 -0.338344 -1.53925 0
M  V30 1159 C 106.193 0.259245 -2.0043 0
M  V30 1160 C 106.514 1.51484 -1.22791 0
M  V30 1161 O 105.784 1.93037 -0.33368 0
M  V30 1162 H 104.364 0.0987845 -0.740439 0
M  V30 1163 H 107.026 -0.458302 -1.89435 0
M  V30 1164 H 106.122 0.505334 -3.07982 0
M  V30 1165 N 106.423 1.57458 -0.0668435 0
M  V30 1166 C 107.653 1.97337 0.611677 0
M  V30 1167 C 108.061 0.943744 1.63982 0
M  V30 1168 O 107.404 -0.0785584 1.83532 0
M  V30 1169 C 107.466 3.33511 1.34205 0
M  V30 1170 C 107.13 4.54598 0.467941 0
M  V30 1171 C 108.127 5.19186 -0.272439 0
M  V30 1172 C 105.812 5.0075 0.39427 0
M  V30 1173 C 107.806 6.28274 -1.07476 0
M  V30 1174 C 105.493 6.09711 -0.411729 0
M  V30 1175 C 106.491 6.73335 -1.14492 0
M  V30 1176 O 106.179 7.80199 -1.93763 0
M  V30 1177 H 105.911 0.654042 0.170893 0
M  V30 1178 H 108.465 2.04961 -0.134289 0
M  V30 1179 H 106.695 3.22487 2.13398 0
M  V30 1180 H 108.384 3.58029 1.91233 0
M  V30 1181 H 109.15 4.84477 -0.225086 0
M  V30 1182 H 105.029 4.51009 0.954569 0
M  V30 1183 H 108.573 6.77866 -1.64755 0
M  V30 1184 H 104.47 6.43854 -0.460664 0
M  V30 1185 H 105.238 7.97053 -1.86142 0
M  V30 1186 N 107.901 -0.206675 1.56239 0
M  V30 1187 C 109.317 -0.557025 1.49564 0
M  V30 1188 C 109.517 -1.86424 0.764735 0
M  V30 1189 O 108.573 -2.50584 0.310491 0
M  V30 1190 C 109.886 -0.622478 2.94186 0
M  V30 1191 C 111.434 -0.712099 3.04792 0
M  V30 1192 C 111.909 -0.808767 4.50803 0
M  V30 1193 N 113.4 -0.8726 4.54907 0
M  V30 1194 C 114.135 -0.967365 5.65181 0
M  V30 1195 N 113.631 -1.02515 6.85173 0
M  V30 1196 N 115.424 -1.00366 5.53067 0
M  V30 1197 H 107.575 0.650943 2.02179 0
M  V30 1198 H 109.838 0.230387 0.919579 0
M  V30 1199 H 109.544 0.268727 3.50672 0
M  V30 1200 H 109.418 -1.4811 3.46905 0
M  V30 1201 H 111.805 -1.59374 2.48363 0
M  V30 1202 H 111.886 0.172489 2.55218 0
M  V30 1203 H 111.53 0.0684754 5.07854 0
M  V30 1204 H 111.46 -1.70899 4.98098 0
M  V30 1205 H 113.951 -0.837657 3.68499 0
M  V30 1206 H 114.264 -1.09765 7.64965 0
M  V30 1207 H 112.609 -0.994026 6.87855 0
M  V30 1208 H 115.8 -0.95527 4.58249 0
M  V30 1209 H 115.973 -1.07405 6.39037 0
M  V30 1210 N 109.379 -1.50304 -0.473955 0
M  V30 1211 C 110.309 -1.71886 -1.58042 0
M  V30 1212 C 111.29 -0.567799 -1.60344 0
M  V30 1213 O 112.475 -0.806623 -1.76656 0
M  V30 1214 C 109.605 -1.81036 -2.96384 0
M  V30 1215 C 108.559 -2.962 -3.08949 0
M  V30 1216 C 107.885 -2.9049 -4.48909 0
M  V30 1217 C 109.185 -4.36752 -2.86434 0
M  V30 1218 H 110.879 -2.64527 -1.40234 0
M  V30 1219 H 108.425 -1.27295 -0.673201 0
M  V30 1220 H 110.378 -1.94719 -3.73714 0
M  V30 1221 H 109.102 -0.850147 -3.15341 0
M  V30 1222 H 107.761 -2.82164 -2.3405 0
M  V30 1223 H 107.409 -1.92321 -4.64781 0
M  V30 1224 H 107.109 -3.67802 -4.58253 0
M  V30 1225 H 108.633 -3.06218 -5.28264 0
M  V30 1226 H 110.047 -4.5133 -3.53517 0
M  V30 1227 H 108.444 -5.15493 -3.07225 0
M  V30 1228 H 109.514 -4.49321 -1.82316 0
M  V30 1229 N 110.857 0.726932 -1.39834 0
M  V30 1230 C 112.085 1.51613 -1.40787 0
M  V30 1231 C 112.5 1.88799 -0.00451505 0
M  V30 1232 O 111.857 1.54662 0.968809 0
M  V30 1233 C 111.908 2.79863 -2.28821 0
M  V30 1234 O 111.629 2.44253 -3.63692 0
M  V30 1235 C 113.13 3.73837 -2.38245 0
M  V30 1236 H 110.35 0.468264 -0.480593 0
M  V30 1237 H 112.894 0.897607 -1.83748 0
M  V30 1238 H 111.049 3.38027 -1.89252 0
M  V30 1239 H 111.463 3.26695 -4.1033 0
M  V30 1240 H 112.937 4.60699 -3.04073 0
M  V30 1241 H 113.414 4.16153 -1.40403 0
M  V30 1242 H 114.02 3.21589 -2.78317 0
M  V30 1243 N 112.336 1.25143 0.95797 0
M  V30 1244 C 113.284 1.05019 2.07542 0
M  V30 1245 C 114.278 -0.0178751 1.69391 0
M  V30 1246 O 115.484 0.137472 1.79474 0
M  V30 1247 H 111.859 0.32265 0.679265 0
M  V30 1248 H 113.83 1.99759 2.21673 0
M  V30 1249 C 112.579 0.682074 3.40944 0
M  V30 1250 H 111.902 1.49573 3.70767 0
M  V30 1251 H 113.342 0.580945 4.20001 0
M  V30 1252 C 111.801 -0.611608 3.31302 0
M  V30 1253 O 112.331 -1.65465 3.66038 0
M  V30 1254 N 110.537 -0.595982 2.84423 0
M  V30 1255 H 110.084 0.253192 2.56353 0
M  V30 1256 H 110.042 -1.46173 2.78354 0
M  V30 1257 N 113.814 -1.1601 1.06675 0
M  V30 1258 C 114.777 -2.18724 0.685001 0
M  V30 1259 C 115.777 -1.58496 -0.271246 0
M  V30 1260 O 116.967 -1.74119 -0.0531156 0
M  V30 1261 C 114.099 -3.40899 0.00853648 0
M  V30 1262 H 115.292 -2.54011 1.59431 0
M  V30 1263 H 112.845 -1.30352 0.862441 0
M  V30 1264 H 113.58 -3.11173 -0.913337 0
M  V30 1265 H 113.365 -3.8587 0.696204 0
M  V30 1266 H 114.855 -4.16886 -0.24414 0
M  V30 1267 N 115.292 -0.849877 -1.32721 0
M  V30 1268 C 116.54 -0.450032 -1.97026 0
M  V30 1269 C 116.861 0.996604 -1.67609 0
M  V30 1270 O 116.131 1.6958 -0.980786 0
M  V30 1271 H 114.711 -0.163426 -0.728904 0
M  V30 1272 H 117.373 -1.08526 -1.6189 0
M  V30 1273 H 116.469 -0.591146 -3.0645 0
M  V30 1274 N 116.77 1.45427 -0.607355 0
M  V30 1275 C 118 2.06314 -0.108656 0
M  V30 1276 C 118.408 1.45269 1.21217 0
M  V30 1277 O 117.751 0.561115 1.74921 0
M  V30 1278 C 117.813 3.59345 0.105618 0
M  V30 1279 C 117.477 4.42723 -1.13337 0
M  V30 1280 C 118.474 4.77715 -2.05145 0
M  V30 1281 C 116.159 4.83478 -1.36213 0
M  V30 1282 C 118.153 5.52317 -3.18158 0
M  V30 1283 C 115.84 5.57835 -2.49527 0
M  V30 1284 C 116.838 5.92171 -3.40327 0
M  V30 1285 O 116.526 6.65019 -4.51669 0
M  V30 1286 H 116.258 0.672782 -0.0658842 0
M  V30 1287 H 118.812 1.87664 -0.834945 0
M  V30 1288 H 117.042 3.76394 0.886796 0
M  V30 1289 H 118.731 4.02076 0.555886 0
M  V30 1290 H 119.497 4.46787 -1.88697 0
M  V30 1291 H 115.376 4.56188 -0.664362 0
M  V30 1292 H 118.92 5.79036 -3.89054 0
M  V30 1293 H 114.817 5.88177 -2.65928 0
M  V30 1294 H 115.585 6.83469 -4.50348 0
M  V30 1295 N 118.248 0.346503 1.53744 0
M  V30 1296 C 119.525 -0.304532 1.93215 0
M  V30 1297 C 119.905 -1.67993 1.27834 0
M  V30 1298 O 119.253 -2.24411 0.430352 0
M  V30 1299 C 119.463 -0.373852 3.46992 0
M  V30 1300 C 120.811 -0.62329 4.2 0
M  V30 1301 O 121.835 -0.455847 3.53271 0
M  V30 1302 O 120.694 -0.947879 5.38217 0
M  V30 1303 H 117.788 -0.178318 0.807547 0
M  V30 1304 H 120.334 0.397895 1.64969 0
M  V30 1305 H 119.106 0.591224 3.86808 0
M  V30 1306 H 118.729 -1.12294 3.81413 0
M  V30 1307 N 119.726 -1.57421 0.075193 0
M  V30 1308 C 120.956 -1.97659 -0.601203 0
M  V30 1309 C 121.364 -0.952427 -1.63479 0
M  V30 1310 O 120.707 0.0688241 -1.83571 0
M  V30 1311 C 120.769 -3.34218 -1.32434 0
M  V30 1312 C 120.433 -4.5484 -0.443826 0
M  V30 1313 C 121.43 -5.19034 0.299969 0
M  V30 1314 C 119.115 -5.00952 -0.367709 0
M  V30 1315 C 121.109 -6.27695 1.10807 0
M  V30 1316 C 118.796 -6.09484 0.444058 0
M  V30 1317 C 119.794 -6.72719 1.18061 0
M  V30 1318 O 119.482 -7.79161 1.97898 0
M  V30 1319 H 119.214 -0.65494 -0.167422 0
M  V30 1320 H 121.768 -2.04886 0.145157 0
M  V30 1321 H 119.998 -3.23615 -2.11685 0
M  V30 1322 H 121.687 -3.59038 -1.89331 0
M  V30 1323 H 122.453 -4.84351 0.250776 0
M  V30 1324 H 118.332 -4.51509 -0.930638 0
M  V30 1325 H 121.876 -6.76982 1.68347 0
M  V30 1326 H 117.773 -6.43601 0.494803 0
M  V30 1327 H 118.541 -7.96055 1.90367 0
M  V30 1328 N 121.204 0.198386 -1.56346 0
M  V30 1329 C 122.134 1.24865 -1.9731 0
M  V30 1330 C 123.115 1.47651 -0.844576 0
M  V30 1331 O 124.3 1.59444 -1.10866 0
M  V30 1332 C 121.43 2.59358 -2.30977 0
M  V30 1333 C 120.384 2.5119 -3.46537 0
M  V30 1334 C 119.71 3.89926 -3.65871 0
M  V30 1335 C 121.01 2.03977 -4.80823 0
M  V30 1336 H 122.704 0.908252 -2.85291 0
M  V30 1337 H 120.25 0.435462 -1.37258 0
M  V30 1338 H 122.203 3.33011 -2.58228 0
M  V30 1339 H 120.927 2.95132 -1.39874 0
M  V30 1340 H 119.586 1.79993 -3.19371 0
M  V30 1341 H 119.234 4.23046 -2.72105 0
M  V30 1342 H 118.934 3.85336 -4.4361 0
M  V30 1343 H 120.458 4.65205 -3.95495 0
M  V30 1344 H 121.872 2.67386 -5.07127 0
M  V30 1345 H 120.269 2.10397 -5.62008 0
M  V30 1346 H 121.339 0.992861 -4.74626 0
M  V30 1347 N 122.682 1.50554 0.465978 0
M  V30 1348 C 123.645 1.69233 1.54574 0
M  V30 1349 C 124.645 0.562901 1.50626 0
M  V30 1350 O 125.835 0.830016 1.53155 0
M  V30 1351 C 122.967 1.7223 2.94193 0
M  V30 1352 H 124.16 2.65571 1.39327 0
M  V30 1353 H 121.713 1.40111 0.692711 0
M  V30 1354 H 122.448 0.77603 3.14878 0
M  V30 1355 H 122.233 2.54285 2.98466 0
M  V30 1356 H 123.723 1.88618 3.72576 0
M  V30 1357 N 124.16 -0.719506 1.40217 0
M  V30 1358 C 125.09 -1.8465 1.42922 0
M  V30 1359 C 126.071 -1.67599 0.29062 0
M  V30 1360 O 127.256 -1.87688 0.498677 0
M  V30 1361 C 124.386 -3.22565 1.28722 0
M  V30 1362 C 123.34 -3.54281 2.40144 0
M  V30 1363 C 122.666 -4.91298 2.11023 0
M  V30 1364 C 123.966 -3.55676 3.82481 0
M  V30 1365 H 125.66 -1.82644 2.37237 0
M  V30 1366 H 123.206 -0.877305 1.1419 0
M  V30 1367 H 125.159 -4.01095 1.29232 0
M  V30 1368 H 123.883 -3.25137 0.308811 0
M  V30 1369 H 122.542 -2.78088 2.38877 0
M  V30 1370 H 122.19 -4.90468 1.11582 0
M  V30 1371 H 121.89 -5.13485 2.8567 0
M  V30 1372 H 123.414 -5.72166 2.13209 0
M  V30 1373 H 124.828 -4.24254 3.85592 0
M  V30 1374 H 123.225 -3.89388 4.56614 0
M  V30 1375 H 124.295 -2.55144 4.12346 0
M  V30 1376 N 125.638 -1.25649 -0.95132 0
M  V30 1377 C 126.585 -1.06323 -2.04851 0
M  V30 1378 C 127.555 0.0286491 -1.66075 0
M  V30 1379 O 128.74 -0.12917 -1.90362 0
M  V30 1380 C 125.88 -0.691529 -3.381 0
M  V30 1381 C 124.993 -1.85861 -3.89974 0
M  V30 1382 C 124.128 -1.43096 -5.11563 0
M  V30 1383 C 123.167 -2.56696 -5.55674 0
M  V30 1384 N 122.304 -2.14684 -6.68472 0
M  V30 1385 H 127.144 -2.00222 -2.20715 0
M  V30 1386 H 124.681 -0.997027 -1.08156 0
M  V30 1387 H 126.639 -0.456963 -4.1469 0
M  V30 1388 H 125.269 0.210474 -3.22113 0
M  V30 1389 H 124.321 -2.20639 -3.09875 0
M  V30 1390 H 125.633 -2.71161 -4.18657 0
M  V30 1391 H 124.787 -1.15624 -5.9558 0
M  V30 1392 H 123.526 -0.548722 -4.84603 0
M  V30 1393 H 122.531 -2.84909 -4.7022 0
M  V30 1394 H 123.756 -3.45503 -5.8464 0
M  V30 1395 H 121.702 -1.28881 -6.43215 0
M  V30 1396 H 121.619 -2.9353 -6.96689 0
M  V30 1397 H 122.887 -1.90397 -7.5589 0
M  V30 1398 N 127.117 1.15442 -1.07289 0
M  V30 1399 C 128.345 1.90096 -0.81676 0
M  V30 1400 C 128.76 1.7798 0.629966 0
M  V30 1401 O 128.117 1.1313 1.43206 0
M  V30 1402 C 128.168 3.40466 -1.21512 0
M  V30 1403 O 127.889 3.52232 -2.60508 0
M  V30 1404 C 129.39 4.32145 -0.988198 0
M  V30 1405 H 126.61 0.602495 -0.295366 0
M  V30 1406 H 129.154 1.4627 -1.42918 0
M  V30 1407 H 127.309 3.81958 -0.647039 0
M  V30 1408 H 127.723 4.45549 -2.76742 0
M  V30 1409 H 129.197 5.36072 -1.31645 0
M  V30 1410 H 129.674 4.39135 0.0755063 0
M  V30 1411 H 130.28 3.96395 -1.54115 0
M  V30 1412 N 128.595 0.856903 1.32268 0
M  V30 1413 C 129.525 0.31858 2.31316 0
M  V30 1414 C 130.506 -0.583487 1.59779 0
M  V30 1415 O 131.691 -0.503259 1.87566 0
M  V30 1416 C 128.821 -0.491979 3.43798 0
M  V30 1417 C 127.775 0.315849 4.26833 0
M  V30 1418 C 127.101 -0.619586 5.31098 0
M  V30 1419 C 128.401 1.54282 4.98993 0
M  V30 1420 H 130.095 1.14621 2.76591 0
M  V30 1421 H 127.641 0.552613 1.32974 0
M  V30 1422 H 129.594 -0.879012 4.1213 0
M  V30 1423 H 128.318 -1.35299 2.97257 0
M  V30 1424 H 126.977 0.684664 3.6015 0
M  V30 1425 H 126.625 -1.47751 4.8081 0
M  V30 1426 H 126.325 -0.0830621 5.87541 0
M  V30 1427 H 127.849 -1.00375 6.02293 0
M  V30 1428 H 129.263 1.22796 5.59995 0
M  V30 1429 H 127.66 2.01745 5.65172 0
M  V30 1430 H 128.73 2.30285 4.26728 0
M  V30 1431 N 130.073 -1.45103 0.615059 0
M  V30 1432 C 131.298 -2.07064 0.117988 0
M  V30 1433 C 131.723 -1.4554 -1.19163 0
M  V30 1434 O 131.081 -0.550855 -1.72729 0
M  V30 1435 C 131.129 -3.606 -0.000288387 0
M  V30 1436 O 130.233 -3.98847 -1.04856 0
M  V30 1437 H 129.574 -0.659467 0.0774581 0
M  V30 1438 H 132.104 -1.86236 0.847186 0
M  V30 1439 H 132.114 -4.07529 -0.196091 0
M  V30 1440 H 130.789 -4.04765 0.955932 0
M  V30 1441 H 129.366 -3.63577 -0.828619 0
M  V30 1442 N 131.551 -0.354651 -1.53558 0
M  V30 1443 C 132.776 0.242153 -2.05981 0
M  V30 1444 C 133.201 1.42553 -1.2272 0
M  V30 1445 O 132.559 1.79656 -0.243604 0
M  V30 1446 C 132.607 0.624367 -3.55154 0
M  V30 1447 O 131.711 1.72301 -3.74681 0
M  V30 1448 H 131.052 0.0378432 -0.662921 0
M  V30 1449 H 133.582 -0.512087 -1.98088 0
M  V30 1450 H 133.592 0.898433 -3.97985 0
M  V30 1451 H 132.267 -0.240989 -4.15201 0
M  V30 1452 H 130.844 1.44535 -3.4375 0
M  V30 1453 N 133.029 1.57378 -0.0835403 0
M  V30 1454 C 134.445 1.57246 0.273109 0
M  V30 1455 C 134.645 1.09385 1.69225 0
M  V30 1456 O 133.701 0.765051 2.40631 0
M  V30 1457 C 135.014 3.00614 0.0720628 0
M  V30 1458 C 136.562 3.12684 0.1407 0
M  V30 1459 C 137.037 4.57989 -0.0322094 0
M  V30 1460 N 138.528 4.63194 0.0230085 0
M  V30 1461 C 139.263 5.73335 -0.0861941 0
M  V30 1462 N 138.759 6.9235 -0.24958 0
M  V30 1463 N 140.552 5.62093 -0.0282886 0
M  V30 1464 H 132.703 1.86801 -1.0109 0
M  V30 1465 H 134.966 0.861687 -0.395222 0
M  V30 1466 H 134.672 3.39786 -0.907662 0
M  V30 1467 H 134.546 3.68193 0.81936 0
M  V30 1468 H 136.933 2.73391 1.11092 0
M  V30 1469 H 137.014 2.47719 -0.637896 0
M  V30 1470 H 136.658 4.97973 -0.999247 0
M  V30 1471 H 136.588 5.21 0.765937 0
M  V30 1472 H 139.079 3.77613 0.14722 0
M  V30 1473 H 139.392 7.72117 -0.324733 0
M  V30 1474 H 137.737 6.94415 -0.285097 0
M  V30 1475 H 140.928 4.67997 0.0981408 0
M  V30 1476 H 141.101 6.47895 -0.116845 0
M  V30 1477 N 134.507 -0.190092 1.56449 0
M  V30 1478 C 135.439 -1.25973 1.91477 0
M  V30 1479 C 136.452 -1.41452 0.805931 0
M  V30 1480 O 137.641 -1.41789 1.08435 0
M  V30 1481 C 134.741 -2.63117 2.13594 0
M  V30 1482 C 133.914 -2.69182 3.4476 0
M  V30 1483 C 132.973 -3.87557 3.5593 0
M  V30 1484 O 131.999 -3.74427 4.28711 0
M  V30 1485 N 133.201 -5.03224 2.89388 0
M  V30 1486 H 135.966 -0.962394 2.83828 0
M  V30 1487 H 133.527 -0.379981 1.57378 0
M  V30 1488 H 135.519 -3.40742 2.1835 0
M  V30 1489 H 134.089 -2.85319 1.27719 0
M  V30 1490 H 133.309 -1.77793 3.51828 0
M  V30 1491 H 134.597 -2.70229 4.31107 0
M  V30 1492 H 133.995 -5.16791 2.30094 0
M  V30 1493 H 132.552 -5.78778 2.99764 0
M  V30 1494 N 135.985 -1.50799 -0.457987 0
M  V30 1495 C 137.231 -1.62683 -1.21088 0
M  V30 1496 C 137.564 -0.332268 -1.91336 0
M  V30 1497 O 136.839 0.667043 -1.82704 0
M  V30 1498 C 137.122 -2.81615 -2.24422 0
M  V30 1499 C 136.975 -4.20989 -1.58392 0
M  V30 1500 C 138.294 -2.96085 -3.2561 0
M  V30 1501 H 135.413 -0.592087 -0.438864 0
M  V30 1502 H 138.055 -1.83225 -0.50286 0
M  V30 1503 H 136.205 -2.64231 -2.84806 0
M  V30 1504 H 137.877 -4.49994 -1.01504 0
M  V30 1505 H 136.12 -4.24641 -0.886704 0
M  V30 1506 H 136.791 -5.0016 -2.33547 0
M  V30 1507 H 139.267 -3.12042 -2.75262 0
M  V30 1508 H 138.143 -3.80902 -3.95228 0
M  V30 1509 H 138.404 -2.0726 -3.90507 0
M  V30 1510 N 137.463 0.71206 -1.40597 0
M  V30 1511 C 138.709 1.47416 -1.39271 0
M  V30 1512 C 139.042 1.942 0.00388791 0
M  V30 1513 O 138.317 1.68403 0.973179 0
M  V30 1514 C 138.6 2.69774 -2.38525 0
M  V30 1515 C 138.453 2.28861 -3.87224 0
M  V30 1516 C 139.772 3.71939 -2.35264 0
M  V30 1517 H 136.891 0.534713 -0.5072 0
M  V30 1518 H 139.533 0.812375 -1.71757 0
M  V30 1519 H 137.683 3.26238 -2.10953 0
M  V30 1520 H 139.355 1.77852 -4.25636 0
M  V30 1521 H 137.598 1.60824 -4.02887 0
M  V30 1522 H 138.269 3.16584 -4.52193 0
M  V30 1523 H 140.745 3.25113 -2.59694 0
M  V30 1524 H 139.621 4.55186 -3.06753 0
M  V30 1525 H 139.882 4.20484 -1.36549 0
M  V30 1526 N 138.941 1.26152 0.944643 0
M  V30 1527 C 139.851 1.09176 2.07648 0
M  V30 1528 C 140.867 0.0261935 1.7398 0
M  V30 1529 O 142.043 0.229208 2.00091 0
M  V30 1530 C 139.108 0.722915 3.39079 0
M  V30 1531 C 138.169 1.86752 3.86552 0
M  V30 1532 C 137.402 1.51617 5.11711 0
M  V30 1533 O 137.625 0.416331 5.68879 0
M  V30 1534 O 136.559 2.34975 5.54139 0
M  V30 1535 H 140.385 2.0412 2.24875 0
M  V30 1536 H 137.97 1.05182 1.061 0
M  V30 1537 H 139.852 0.529787 4.18056 0
M  V30 1538 H 138.527 -0.197159 3.23099 0
M  V30 1539 H 137.434 2.11558 3.08535 0
M  V30 1540 H 138.767 2.76719 4.07047 0
M  V30 1541 N 140.419 -1.14872 1.07899 0
M  V30 1542 C 141.644 -1.90202 0.826926 0
M  V30 1543 C 142.069 -1.77774 -0.614664 0
M  V30 1544 O 141.427 -1.11431 -1.43013 0
M  V30 1545 C 141.475 -3.38352 1.24702 0
M  V30 1546 O 140.579 -4.10497 0.39575 0
M  V30 1547 H 139.92 -0.591968 0.300782 0
M  V30 1548 H 142.45 -1.45437 1.43907 0
M  V30 1549 H 142.46 -3.89156 1.22563 0
M  V30 1550 H 141.135 -3.46715 2.29698 0
M  V30 1551 H 139.712 -3.69796 0.480117 0
M  V30 1552 N 141.898 -0.863906 -1.31812 0
M  V30 1553 C 143.144 -0.472535 -1.97218 0
M  V30 1554 C 143.477 0.971394 -1.68159 0
M  V30 1555 O 142.752 1.68309 -0.974798 0
M  V30 1556 C 143.035 -0.723054 -3.52766 0
M  V30 1557 C 142.888 -2.21608 -3.91421 0
M  V30 1558 C 144.207 -0.185522 -4.39709 0
M  V30 1559 H 141.326 -0.173158 -0.71637 0
M  V30 1560 H 143.968 -1.08403 -1.56041 0
M  V30 1561 H 142.118 -0.202577 -3.87971 0
M  V30 1562 H 143.79 -2.80334 -3.66347 0
M  V30 1563 H 142.033 -2.691 -3.40246 0
M  V30 1564 H 142.704 -2.34203 -4.99853 0
M  V30 1565 H 145.18 -0.630726 -4.11292 0
M  V30 1566 H 144.056 -0.390306 -5.47511 0
M  V30 1567 H 144.317 0.912229 -4.32586 0
M  V30 1568 N 143.376 1.44774 -0.622745 0
M  V30 1569 C 144.624 2.01721 -0.123655 0
M  V30 1570 C 144.945 1.49172 1.25589 0
M  V30 1571 O 144.215 0.691974 1.83272 0
M  V30 1572 H 142.795 0.745777 -0.0427225 0
M  V30 1573 H 145.457 1.77382 -0.807559 0
M  V30 1574 H 144.553 3.11984 -0.0849534 0
M  V30 1575 N 144.854 0.36279 1.53368 0
M  V30 1576 C 145.802 -0.500155 2.27159 0
M  V30 1577 C 146.796 -1.08575 1.3003 0
M  V30 1578 O 148.002 -1.02927 1.47668 0
M  V30 1579 H 144.377 -0.180009 0.730138 0
M  V30 1580 H 146.348 0.14401 2.98052 0
M  V30 1581 C 145.097 -1.62937 3.07159 0
M  V30 1582 H 144.42 -1.18806 3.8174 0
M  V30 1583 H 145.86 -2.20795 3.61975 0
M  V30 1584 C 144.319 -2.57007 2.17829 0
M  V30 1585 O 144.849 -3.59752 1.78721 0
M  V30 1586 N 143.055 -2.26131 1.82518 0
M  V30 1587 H 142.602 -1.42616 2.14519 0
M  V30 1588 H 142.56 -2.89327 1.23034 0
M  V30 1589 N 146.332 -1.57332 0.0918853 0
M  V30 1590 C 147.264 -2.10869 -0.898168 0
M  V30 1591 C 148.277 -1.04521 -1.24817 0
M  V30 1592 O 149.466 -1.31977 -1.20184 0
M  V30 1593 C 146.566 -2.57083 -2.2082 0
M  V30 1594 C 145.739 -3.87229 -2.03402 0
M  V30 1595 C 144.798 -4.19324 -3.17889 0
M  V30 1596 O 143.824 -4.88598 -2.91994 0
M  V30 1597 N 145.026 -3.74471 -4.43567 0
M  V30 1598 H 147.791 -2.96439 -0.440943 0
M  V30 1599 H 145.352 -1.61631 -0.0933064 0
M  V30 1600 H 147.344 -2.75602 -2.96354 0
M  V30 1601 H 145.914 -1.76541 -2.57977 0
M  V30 1602 H 145.134 -3.7789 -1.12218 0
M  V30 1603 H 146.422 -4.72379 -1.89038 0
M  V30 1604 H 145.82 -3.18546 -4.67488 0
M  V30 1605 H 144.377 -3.98151 -5.16061 0
M  V30 1606 N 147.81 0.181792 -1.56548 0
M  V30 1607 C 148.743 1.25366 -1.90679 0
M  V30 1608 C 149.721 1.43299 -0.768376 0
M  V30 1609 O 150.905 1.58475 -1.02068 0
M  V30 1610 C 148.032 2.61826 -2.1486 0
M  V30 1611 C 147.078 2.60688 -3.37556 0
M  V30 1612 S 147.911 2.10804 -4.92262 0
M  V30 1613 C 149.067 3.49062 -5.19525 0
M  V30 1614 H 149.3 0.962277 -2.81296 0
M  V30 1615 H 146.833 0.385892 -1.495 0
M  V30 1616 H 148.791 3.40371 -2.29473 0
M  V30 1617 H 147.452 2.88169 -1.24969 0
M  V30 1618 H 146.645 3.61058 -3.51643 0
M  V30 1619 H 146.247 1.90232 -3.22006 0
M  V30 1620 H 148.539 4.45003 -5.10861 0
M  V30 1621 H 149.482 3.39859 -6.2121 0
M  V30 1622 H 149.89 3.4459 -4.47122 0
M  V30 1623 N 149.288 1.51039 0.449983 0
M  V30 1624 C 150.536 1.62759 1.19808 0
M  V30 1625 C 150.857 0.339981 1.92013 0
M  V30 1626 O 150.127 -0.643606 1.85026 0
M  V30 1627 H 148.707 0.599811 0.445237 0
M  V30 1628 H 151.369 1.87914 0.517138 0
M  V30 1629 H 150.465 2.44911 1.93455 0
M  V30 1630 N 150.766 -0.704594 1.40972 0
M  V30 1631 C 152.012 -1.46675 1.40051 0
M  V30 1632 C 152.345 -1.94199 0.00641102 0
M  V30 1633 O 151.62 -1.68916 -0.964235 0
M  V30 1634 C 151.903 -2.68505 2.39952 0
M  V30 1635 C 151.756 -2.26805 3.88432 0
M  V30 1636 C 153.075 -3.70686 2.37233 0
M  V30 1637 H 150.194 -0.532015 0.510028 0
M  V30 1638 H 152.836 -0.803255 1.72185 0
M  V30 1639 H 150.986 -3.25114 2.1268 0
M  V30 1640 H 152.658 -1.75592 4.26574 0
M  V30 1641 H 150.901 -1.58685 4.03734 0
M  V30 1642 H 151.572 -3.14181 4.53866 0
M  V30 1643 H 154.048 -3.23731 2.61415 0
M  V30 1644 H 152.924 -4.53553 3.09162 0
M  V30 1645 H 153.185 -4.19754 1.38777 0
M  V30 1646 N 152.244 -1.26651 -0.937939 0
M  V30 1647 C 153.492 -1.12165 -1.68118 0
M  V30 1648 C 153.813 0.334983 -1.92101 0
M  V30 1649 O 153.083 1.23583 -1.52 0
M  V30 1650 H 151.663 -0.412093 -0.623048 0
M  V30 1651 H 154.325 -1.59027 -1.12678 0
M  V30 1652 H 153.421 -1.64289 -2.6536 0
M  V30 1653 N 153.722 1.14298 -1.08507 0
M  V30 1654 C 154.669 2.19414 -0.715965 0
M  V30 1655 C 155.639 1.63399 0.298326 0
M  V30 1656 O 156.824 1.89929 0.182101 0
M  V30 1657 C 153.964 3.44845 -0.132534 0
M  V30 1658 C 153.077 4.15007 -1.19973 0
M  V30 1659 C 152.212 5.28024 -0.580048 0
M  V30 1660 C 151.251 5.9002 -1.62921 0
M  V30 1661 N 150.388 6.94485 -1.03125 0
M  V30 1662 H 155.228 2.50336 -1.61666 0
M  V30 1663 H 152.765 1.2293 -0.807882 0
M  V30 1664 H 154.723 4.16601 0.223454 0
M  V30 1665 H 153.353 3.14403 0.731467 0
M  V30 1666 H 152.405 3.41629 -1.67313 0
M  V30 1667 H 153.717 4.57178 -1.99473 0
M  V30 1668 H 152.871 6.06455 -0.172364 0
M  V30 1669 H 151.61 4.87076 0.246603 0
M  V30 1670 H 150.615 5.10291 -2.04654 0
M  V30 1671 H 151.84 6.33042 -2.45835 0
M  V30 1672 H 149.786 6.55612 -0.225711 0
M  V30 1673 H 149.703 7.35148 -1.76334 0
M  V30 1674 H 150.971 7.7679 -0.649458 0
M  V30 1675 N 155.201 0.870884 1.31352 0
M  V30 1676 C 156.111 0.330783 2.32256 0
M  V30 1677 C 157.127 -0.559767 1.6475 0
M  V30 1678 O 158.303 -0.456263 1.96164 0
M  V30 1679 C 155.368 -0.458137 3.4366 0
M  V30 1680 C 154.429 0.460482 4.26823 0
M  V30 1681 C 153.662 -0.290881 5.32907 0
M  V30 1682 O 153.885 -1.51885 5.49806 0
M  V30 1683 O 152.819 0.351732 6.00871 0
M  V30 1684 H 156.645 1.16718 2.80376 0
M  V30 1685 H 154.23 0.634285 1.35267 0
M  V30 1686 H 156.112 -0.905343 4.1156 0
M  V30 1687 H 154.787 -1.27106 2.97701 0
M  V30 1688 H 153.694 0.956207 3.61673 0
M  V30 1689 H 155.027 1.23903 4.7635 0
M  V30 1690 N 156.679 -1.44442 0.630414 0
M  V30 1691 C 157.904 -2.06927 0.139944 0
M  V30 1692 C 158.329 -1.46795 -1.17613 0
M  V30 1693 O 157.687 -0.569144 -1.72135 0
M  V30 1694 C 157.735 -3.6058 0.0379581 0
M  V30 1695 O 156.839 -3.99937 -1.0062 0
M  V30 1696 H 156.18 -0.658608 0.0844483 0
M  V30 1697 H 158.71 -1.85327 0.866891 0
M  V30 1698 H 158.72 -4.07714 -0.152856 0
M  V30 1699 H 157.395 -4.03728 0.998809 0
M  V30 1700 H 155.972 -3.64436 -0.79001 0
M  V30 1701 N 158.157 -0.370918 -1.53173 0
M  V30 1702 C 159.434 0.273754 -1.93675 0
M  V30 1703 C 159.814 1.65938 -1.3049 0
M  V30 1704 O 159.162 2.23698 -0.465999 0
M  V30 1705 C 159.372 0.318602 -3.47543 0
M  V30 1706 C 160.72 0.556392 -4.20939 0
M  V30 1707 O 161.744 0.399587 -3.53952 0
M  V30 1708 O 160.603 0.862133 -5.39657 0
M  V30 1709 H 157.697 0.165448 -0.810281 0
M  V30 1710 H 160.243 -0.42409 -1.64315 0
M  V30 1711 H 159.015 -0.652687 -3.85818 0
M  V30 1712 H 158.638 1.06212 -3.83151 0
M  V30 1713 N 159.635 1.57281 -0.100228 0
M  V30 1714 C 160.884 1.93713 0.561984 0
M  V30 1715 C 161.197 0.984492 1.69018 0
M  V30 1716 O 162.403 1.24273 2.41389 0
M  V30 1717 C 160.859 3.4421 1.05106 0
M  V30 1718 C 160.467 4.47975 -0.0476628 0
M  V30 1719 C 162.211 3.89595 1.68571 0
M  V30 1720 C 160.118 5.89631 0.457055 0
M  V30 1721 H 159.048 0.723082 0.2137 0
M  V30 1722 H 161.699 1.82644 -0.177057 0
M  V30 1723 H 160.081 3.50449 1.84395 0
M  V30 1724 H 161.255 4.53385 -0.823333 0
M  V30 1725 H 159.57 4.1223 -0.587816 0
M  V30 1726 H 162.167 4.92832 2.07414 0
M  V30 1727 H 162.51 3.28526 2.55688 0
M  V30 1728 H 163.043 3.86078 0.958562 0
M  V30 1729 H 159.782 6.54411 -0.377616 0
M  V30 1730 H 159.302 5.87681 1.19962 0
M  V30 1731 H 160.981 6.40363 0.92437 0
M  V30 1732 N 161.113 -0.173488 1.56642 0
M  V30 1733 C 162.343 -0.904781 1.85734 0
M  V30 1734 C 162.751 -1.76431 0.68328 0
M  V30 1735 O 162.094 -1.802 -0.356865 0
M  V30 1736 C 162.156 -1.83382 3.09211 0
M  V30 1737 C 161.82 -1.15411 4.42187 0
M  V30 1738 C 162.817 -0.520609 5.17287 0
M  V30 1739 C 160.502 -1.15151 4.88923 0
M  V30 1740 C 162.496 0.106412 6.37311 0
M  V30 1741 C 160.183 -0.520664 6.08878 0
M  V30 1742 C 161.181 0.107196 6.82916 0
M  V30 1743 O 160.869 0.728102 8.00596 0
M  V30 1744 H 160.601 -0.268408 0.62043 0
M  V30 1745 H 163.155 -0.179096 2.04618 0
M  V30 1746 H 161.385 -2.59976 2.86268 0
M  V30 1747 H 163.074 -2.43476 3.24768 0
M  V30 1748 H 163.84 -0.514606 4.82262 0
M  V30 1749 H 159.719 -1.62961 4.31236 0
M  V30 1750 H 163.263 0.597081 6.9504 0
M  V30 1751 H 159.16 -0.524242 6.43368 0
M  V30 1752 H 159.928 0.627138 8.16094 0
M  V30 1753 N 162.591 -1.51276 -0.441967 0
M  V30 1754 C 163.84 -1.6295 -1.18871 0
M  V30 1755 C 164.153 -0.349312 -1.92456 0
M  V30 1756 O 165.359 -0.345355 -2.69295 0
M  V30 1757 C 163.815 -2.87759 -2.16155 0
M  V30 1758 C 163.423 -4.22764 -1.48239 0
M  V30 1759 C 165.167 -3.08788 -2.91291 0
M  V30 1760 C 163.074 -5.38728 -2.4398 0
M  V30 1761 H 162.004 -0.606913 -0.447406 0
M  V30 1762 H 164.655 -1.77739 -0.456205 0
M  V30 1763 H 163.037 -2.66593 -2.92821 0
M  V30 1764 H 164.211 -4.54293 -0.771635 0
M  V30 1765 H 162.526 -4.07575 -0.852741 0
M  V30 1766 H 165.123 -3.92599 -3.63002 0
M  V30 1767 H 165.466 -2.21679 -3.5237 0
M  V30 1768 H 165.999 -3.30272 -2.21733 0
M  V30 1769 H 162.738 -6.28082 -1.87598 0
M  V30 1770 H 162.258 -5.1158 -3.13123 0
M  V30 1771 H 163.937 -5.70489 -3.05207 0
M  V30 1772 N 164.069 0.697108 -1.41344 0
M  V30 1773 C 165.315 1.4593 -1.40827 0
M  V30 1774 C 165.648 1.94193 -0.0167098 0
M  V30 1775 O 164.923 1.69425 0.955263 0
M  V30 1776 C 165.206 2.67229 -2.41373 0
M  V30 1777 C 165.059 2.24741 -3.8963 0
M  V30 1778 C 166.378 3.69423 -2.39196 0
M  V30 1779 H 163.497 0.529303 -0.512842 0
M  V30 1780 H 166.139 0.794112 -1.72609 0
M  V30 1781 H 164.289 3.23982 -2.14401 0
M  V30 1782 H 165.961 1.73327 -4.27499 0
M  V30 1783 H 164.204 1.56542 -4.0457 0
M  V30 1784 H 164.875 3.1177 -4.55525 0
M  V30 1785 H 167.351 3.2234 -2.63128 0
M  V30 1786 H 166.227 4.51907 -3.11563 0
M  V30 1787 H 166.488 4.19012 -1.41001 0
M  V30 1788 N 165.547 1.27147 0.931209 0
M  V30 1789 C 166.51 1.09615 2.01289 0
M  V30 1790 C 167.51 0.0412581 1.60747 0
M  V30 1791 O 168.7 0.285545 1.71844 0
M  V30 1792 C 165.832 0.669447 3.34262 0
M  V30 1793 H 167.025 2.05662 2.18273 0
M  V30 1794 H 164.578 1.09885 1.11153 0
M  V30 1795 H 165.313 -0.292572 3.22978 0
M  V30 1796 H 165.098 1.43127 3.65044 0
M  V30 1797 H 166.588 0.568921 4.13706 0
M  V30 1798 N 167.025 -1.13721 1.09112 0
M  V30 1799 C 167.973 -2.21103 0.722219 0
M  V30 1800 C 168.967 -1.67147 -0.275374 0
M  V30 1801 O 170.173 -1.79477 -0.137176 0
M  V30 1802 H 166.548 -0.720445 0.215553 0
M  V30 1803 H 168.519 -2.49483 1.63709 0
M  V30 1804 C 167.268 -3.47352 0.15543 0
M  V30 1805 H 166.591 -3.89206 0.914246 0
M  V30 1806 H 168.031 -4.2395 -0.0647967 0
M  V30 1807 C 166.49 -3.1814 -1.10852 0
M  V30 1808 O 167.02 -3.36604 -2.19227 0
M  V30 1809 N 165.226 -2.72045 -1.02176 0
M  V30 1810 H 164.773 -2.57221 -0.139764 0
M  V30 1811 H 164.731 -2.52875 -1.8682 0
M  V30 1812 N 168.503 -0.877838 -1.30888 0
M  V30 1813 C 169.413 -0.343096 -2.32078 0
M  V30 1814 C 170.429 0.551022 -1.65045 0
M  V30 1815 O 171.605 0.445854 -1.96403 0
M  V30 1816 C 168.67 0.439905 -3.43898 0
M  V30 1817 C 167.731 -0.483111 -4.26573 0
M  V30 1818 C 166.964 0.262616 -5.33053 0
M  V30 1819 O 167.187 1.48967 -5.50604 0
M  V30 1820 O 166.121 -0.383593 -6.00676 0
M  V30 1821 H 169.947 -1.18203 -2.79753 0
M  V30 1822 H 167.532 -0.64145 -1.34929 0
M  V30 1823 H 169.414 0.883504 -4.12034 0
M  V30 1824 H 168.089 1.25526 -2.98371 0
M  V30 1825 H 166.996 -0.975374 -3.61161 0
M  V30 1826 H 168.329 -1.26427 -4.75686 0
M  V30 1827 N 169.982 1.44106 -0.638065 0
M  V30 1828 C 170.892 2.34513 0.0637334 0
M  V30 1829 C 171.908 1.53018 0.828346 0
M  V30 1830 O 173.084 1.85723 0.779036 0
M  V30 1831 C 170.149 3.31095 1.02844 0
M  V30 1832 C 169.21 4.28497 0.26244 0
M  V30 1833 C 168.443 5.20465 1.1812 0
M  V30 1834 O 168.666 5.16514 2.42011 0
M  V30 1835 O 167.6 5.98251 0.661774 0
M  V30 1836 H 171.426 2.95989 -0.68003 0
M  V30 1837 H 169.011 1.43994 -0.398252 0
M  V30 1838 H 170.893 3.90526 1.58327 0
M  V30 1839 H 169.568 2.72144 1.7527 0
M  V30 1840 H 168.475 3.72592 -0.335602 0
M  V30 1841 H 169.808 4.90388 -0.421936 0
M  V30 1842 N 171.46 0.379036 1.52974 0
M  V30 1843 C 172.708 -0.206014 2.01047 0
M  V30 1844 C 173.029 -1.48175 1.26765 0
M  V30 1845 O 172.299 -1.92085 0.384743 0
M  V30 1846 H 170.879 -0.0791184 0.742798 0
M  V30 1847 H 173.541 0.508366 1.88153 0
M  V30 1848 H 172.637 -0.423501 3.09213 0
M  V30 1849 N 172.938 -1.57226 0.108567 0
M  V30 1850 C 173.87 -2.11809 -0.875752 0
M  V30 1851 C 174.883 -1.05839 -1.23701 0
M  V30 1852 O 176.072 -1.33245 -1.18778 0
M  V30 1853 C 173.172 -2.59411 -2.18081 0
M  V30 1854 C 172.345 -3.89364 -1.99284 0
M  V30 1855 C 171.404 -4.22672 -3.13424 0
M  V30 1856 O 170.43 -4.91668 -2.86795 0
M  V30 1857 N 171.632 -3.79154 -4.3957 0
M  V30 1858 H 174.397 -2.9689 -0.409477 0
M  V30 1859 H 171.958 -1.61721 -0.076158 0
M  V30 1860 H 173.95 -2.7873 -2.93414 0
M  V30 1861 H 172.52 -1.79268 -2.5609 0
M  V30 1862 H 171.74 -3.79059 -1.08203 0
M  V30 1863 H 173.028 -4.74358 -1.84017 0
M  V30 1864 H 172.426 -3.23486 -4.64083 0
M  V30 1865 H 170.983 -4.03602 -5.11809 0
M  V30 1866 N 174.416 0.165178 -1.56732 0
M  V30 1867 C 175.348 1.22911 -1.93457 0
M  V30 1868 C 176.361 1.40152 -0.828333 0
M  V30 1869 O 177.55 1.40046 -1.10677 0
M  V30 1870 C 174.65 2.59686 -2.17753 0
M  V30 1871 C 173.823 2.63663 -3.48999 0
M  V30 1872 C 172.882 3.81845 -3.62051 0
M  V30 1873 O 171.908 3.67559 -4.34613 0
M  V30 1874 N 173.11 4.98557 -2.97357 0
M  V30 1875 H 175.875 0.917118 -2.85323 0
M  V30 1876 H 173.436 0.354895 -1.57962 0
M  V30 1877 H 175.428 3.37225 -2.23743 0
M  V30 1878 H 173.998 2.83251 -1.32242 0
M  V30 1879 H 173.218 1.72173 -3.54612 0
M  V30 1880 H 174.506 2.63336 -4.35352 0
M  V30 1881 H 173.904 5.13065 -2.38287 0
M  V30 1882 H 172.461 5.73936 -3.08934 0
M  V30 1883 N 175.894 1.51508 0.433938 0
M  V30 1884 C 177.141 1.64345 1.18309 0
M  V30 1885 C 177.469 0.361315 1.91115 0
M  V30 1886 O 176.724 -0.654753 1.84422 0
M  V30 1887 C 177.023 2.79928 2.22205 0
M  V30 1888 C 176.689 4.19078 1.66387 0
M  V30 1889 C 175.351 4.56932 1.50887 0
M  V30 1890 C 177.703 5.05894 1.25381 0
M  V30 1891 C 175.031 5.79305 0.928608 0
M  V30 1892 C 177.383 6.2885 0.687823 0
M  V30 1893 C 176.047 6.65473 0.519755 0
M  V30 1894 H 175.317 0.601381 0.432923 0
M  V30 1895 H 177.964 1.85549 0.473676 0
M  V30 1896 H 176.269 2.52959 2.99197 0
M  V30 1897 H 177.966 2.87059 2.79997 0
M  V30 1898 H 174.556 3.89234 1.79428 0
M  V30 1899 H 178.74 4.77253 1.36175 0
M  V30 1900 H 173.996 6.06324 0.786186 0
M  V30 1901 H 178.17 6.95461 0.361581 0
M  V30 1902 H 175.797 7.6017 0.0679979 0
M  V30 1903 N 177.372 -0.689602 1.41712 0
M  V30 1904 C 178.335 -1.78521 1.43746 0
M  V30 1905 C 179.335 -1.57436 0.327191 0
M  V30 1906 O 180.525 -1.64 0.587348 0
M  V30 1907 C 177.657 -3.16971 1.25467 0
M  V30 1908 H 178.85 -1.78108 2.41283 0
M  V30 1909 H 176.403 -0.89781 1.27942 0
M  V30 1910 H 177.138 -3.23019 0.287948 0
M  V30 1911 H 176.923 -3.33678 2.05917 0
M  V30 1912 H 178.413 -3.96935 1.2974 0
M  V30 1913 N 178.85 -1.27639 -0.924453 0
M  V30 1914 C 179.78 -1.13166 -2.04244 0
M  V30 1915 C 180.761 -0.032256 -1.70069 0
M  V30 1916 O 181.946 -0.207328 -1.9309 0
M  V30 1917 C 179.076 -0.781496 -3.38393 0
M  V30 1918 C 178.03 -1.83449 -3.86692 0
M  V30 1919 C 177.356 -1.33822 -5.17683 0
M  V30 1920 C 178.656 -3.23917 -4.09726 0
M  V30 1921 H 180.35 -2.06689 -2.1661 0
M  V30 1922 H 177.896 -0.995136 -1.04082 0
M  V30 1923 H 179.849 -0.667057 -4.16087 0
M  V30 1924 H 178.573 0.189439 -3.2605 0
M  V30 1925 H 177.232 -1.93789 -3.11193 0
M  V30 1926 H 176.88 -0.35665 -5.01734 0
M  V30 1927 H 176.58 -2.04224 -5.50968 0
M  V30 1928 H 178.104 -1.23679 -5.97943 0
M  V30 1929 H 179.518 -3.16559 -4.77978 0
M  V30 1930 H 177.915 -3.92059 -4.54324 0
M  V30 1931 H 178.985 -3.68729 -3.14908 0
M  V30 1932 N 180.328 1.1314 -1.09713 0
M  V30 1933 C 181.275 2.18642 -0.739196 0
M  V30 1934 C 182.245 1.63706 0.280978 0
M  V30 1935 O 183.43 1.90111 0.161946 0
M  V30 1936 C 180.57 3.44685 -0.169102 0
M  V30 1937 C 179.683 4.13711 -1.24367 0
M  V30 1938 C 178.818 5.27379 -0.636019 0
M  V30 1939 C 177.857 5.88259 -1.69169 0
M  V30 1940 N 176.994 6.93352 -1.10485 0
M  V30 1941 H 181.834 2.48607 -1.64312 0
M  V30 1942 H 179.371 1.22066 -0.820875 0
M  V30 1943 H 181.329 4.16815 0.179256 0
M  V30 1944 H 179.959 3.15161 0.698079 0
M  V30 1945 H 179.011 3.39835 -1.70927 0
M  V30 1946 H 180.323 4.55037 -2.04311 0
M  V30 1947 H 179.477 6.06238 -0.236677 0
M  V30 1948 H 178.216 4.8731 0.194928 0
M  V30 1949 H 177.221 5.08092 -2.10055 0
M  V30 1950 H 178.446 6.30399 -2.52536 0
M  V30 1951 H 176.392 6.55335 -0.295234 0
M  V30 1952 H 176.309 7.33236 -1.84121 0
M  V30 1953 H 177.577 7.76057 -0.73181 0
M  V30 1954 N 181.806 0.884767 1.30421 0
M  V30 1955 C 182.736 0.367574 2.30589 0
M  V30 1956 C 183.717 -0.549464 1.60981 0
M  V30 1957 O 184.902 -0.46336 1.88591 0
M  V30 1958 C 182.032 -0.418944 3.44764 0
M  V30 1959 C 180.986 0.406316 4.26067 0
M  V30 1960 C 180.312 -0.506793 5.32293 0
M  V30 1961 C 181.612 1.64832 4.95608 0
M  V30 1962 H 183.306 1.20462 2.74097 0
M  V30 1963 H 180.852 0.580695 1.31772 0
M  V30 1964 H 182.805 -0.791395 4.13902 0
M  V30 1965 H 181.529 -1.28964 3.0006 0
M  V30 1966 H 180.188 0.760903 3.58617 0
M  V30 1967 H 179.836 -1.37519 4.83836 0
M  V30 1968 H 179.536 0.0415828 5.87585 0
M  V30 1969 H 181.06 -0.875764 6.04287 0
M  V30 1970 H 182.474 1.34646 5.57264 0
M  V30 1971 H 180.871 2.13688 5.60765 0
M  V30 1972 H 181.941 2.39284 4.21748 0
M  V30 1973 N 183.284 -1.43765 0.645699 0
M  V30 1974 C 184.234 -2.27884 -0.0726442 0
M  V30 1975 C 185.218 -1.39483 -0.802086 0
M  V30 1976 O 186.41 -1.63174 -0.685791 0
M  V30 1977 C 183.539 -3.27055 -1.04356 0
M  V30 1978 C 182.625 -4.22944 -0.312985 0
M  V30 1979 N 183.016 -5.01391 0.666386 0
M  V30 1980 C 181.314 -4.42528 -0.55546 0
M  V30 1981 C 182.015 -5.71217 1.09935 0
M  V30 1982 N 180.991 -5.41856 0.435137 0
M  V30 1983 H 184.793 -2.85949 0.678988 0
M  V30 1984 H 182.307 -1.55378 0.472368 0
M  V30 1985 H 184.304 -3.86089 -1.57292 0
M  V30 1986 H 182.964 -2.70551 -1.79534 0
M  V30 1987 H 183.975 -5.07252 1.04481 0
M  V30 1988 H 180.652 -3.97104 -1.28899 0
M  V30 1989 H 182.042 -6.44202 1.90929 0
M  V30 1990 N 184.763 -0.387143 -1.52771 0
M  V30 1991 C 186.179 -0.037007 -1.59557 0
M  V30 1992 C 186.379 1.44801 -1.40124 0
M  V30 1993 O 185.435 2.21227 -1.21716 0
M  V30 1994 C 186.748 -0.512256 -2.96305 0
M  V30 1995 C 188.296 -0.468328 -3.09476 0
M  V30 1996 C 188.771 -0.919731 -4.4867 0
M  V30 1997 N 190.262 -0.875656 -4.54848 0
M  V30 1998 C 190.997 -1.19637 -5.6078 0
M  V30 1999 N 190.493 -1.58745 -6.74368 0
M  V30 2000 N 192.286 -1.11776 -5.50874 0
M  V30 2001 H 184.437 -1.35395 -1.63652 0
M  V30 2002 H 186.7 -0.554818 -0.768688 0
M  V30 2003 H 186.406 -1.54935 -3.15734 0
M  V30 2004 H 186.28 0.089805 -3.77093 0
M  V30 2005 H 188.667 0.559671 -2.89744 0
M  V30 2006 H 188.748 -1.10616 -2.30646 0
M  V30 2007 H 188.392 -1.94595 -4.69143 0
M  V30 2008 H 188.322 -0.258927 -5.25963 0
M  V30 2009 H 190.813 -0.587843 -3.733 0
M  V30 2010 H 191.126 -1.81586 -7.51163 0
M  V30 2011 H 189.471 -1.6263 -6.75705 0
M  V30 2012 H 192.662 -0.811264 -4.61016 0
M  V30 2013 H 192.835 -1.37103 -6.3333 0
M  V30 2014 N 186.241 1.57166 -0.116904 0
M  V30 2015 C 187.171 2.18222 0.830759 0
M  V30 2016 C 188.152 1.12167 1.27877 0
M  V30 2017 O 189.337 1.40394 1.34176 0
M  V30 2018 C 186.467 2.77996 2.08172 0
M  V30 2019 C 185.421 3.89614 1.77157 0
M  V30 2020 C 184.747 4.36187 3.09265 0
M  V30 2021 C 186.047 5.1181 1.04151 0
M  V30 2022 H 187.741 2.97664 0.321992 0
M  V30 2023 H 185.287 1.4318 0.153434 0
M  V30 2024 H 187.24 3.19366 2.74924 0
M  V30 2025 H 185.964 1.9584 2.6137 0
M  V30 2026 H 184.623 3.48816 1.12796 0
M  V30 2027 H 184.271 3.50893 3.60393 0
M  V30 2028 H 183.971 5.11455 2.89288 0
M  V30 2029 H 185.495 4.80207 3.77139 0
M  V30 2030 H 186.909 5.50214 1.61052 0
M  V30 2031 H 185.306 5.92648 0.942762 0
M  V30 2032 H 186.376 4.84892 0.0279022 0
M  V30 2033 N 187.719 -0.156864 1.56817 0
M  V30 2034 C 188.967 -0.869404 1.82444 0
M  V30 2035 C 189.288 -1.82147 0.69623 0
M  V30 2036 O 188.558 -1.93847 -0.28287 0
M  V30 2037 H 187.138 -0.324043 0.673056 0
M  V30 2038 H 189.8 -0.153224 1.94297 0
M  V30 2039 H 188.896 -1.43761 2.77019 0
M  V30 2040 N 189.197 -1.51736 -0.425897 0
M  V30 2041 C 190.613 -1.40166 -0.76326 0
M  V30 2042 C 190.813 -0.492962 -1.95377 0
M  V30 2043 O 189.869 0.0475815 -2.52455 0
M  V30 2044 C 191.182 -2.82403 -1.03291 0
M  V30 2045 C 192.73 -2.91632 -1.13665 0
M  V30 2046 C 193.205 -4.34801 -1.43916 0
M  V30 2047 N 194.696 -4.3796 -1.50816 0
M  V30 2048 C 195.431 -5.4578 -1.75817 0
M  V30 2049 N 194.927 -6.63744 -1.98534 0
M  V30 2050 N 196.72 -5.33274 -1.77694 0
M  V30 2051 H 188.871 -2.09361 0.358 0
M  V30 2052 H 191.134 -0.942941 0.0978094 0
M  V30 2053 H 190.84 -3.50943 -0.230696 0
M  V30 2054 H 190.714 -3.22428 -1.95754 0
M  V30 2055 H 193.101 -2.23284 -1.92947 0
M  V30 2056 H 193.182 -2.55088 -0.190756 0
M  V30 2057 H 192.826 -5.03703 -0.65157 0
M  V30 2058 H 192.756 -4.68868 -2.39729 0
M  V30 2059 H 195.247 -3.52919 -1.35118 0
M  V30 2060 H 195.56 -7.41704 -2.17013 0
M  V30 2061 H 193.905 -6.66839 -1.95832 0
M  V30 2062 H 197.096 -4.40098 -1.59473 0
M  V30 2063 H 197.269 -6.1738 -1.9684 0
M  V30 2064 N 190.675 0.682077 -1.42076 0
M  V30 2065 C 191.903 1.47057 -1.4554 0
M  V30 2066 C 192.318 1.8869 -0.0645779 0
M  V30 2067 O 191.675 1.57666 0.919115 0
M  V30 2068 C 191.726 2.72442 -2.37609 0
M  V30 2069 O 191.447 2.32559 -3.71279 0
M  V30 2070 C 192.948 3.66069 -2.50017 0
M  V30 2071 H 190.168 0.452737 -0.495248 0
M  V30 2072 H 192.712 0.838695 -1.8651 0
M  V30 2073 H 190.867 3.31835 -1.9991 0
M  V30 2074 H 191.281 3.13475 -4.20516 0
M  V30 2075 H 192.755 4.50792 -3.18576 0
M  V30 2076 H 193.232 4.11476 -1.53572 0
M  V30 2077 H 193.838 3.12572 -2.88407 0
M  V30 2078 N 192.153 1.28127 0.917671 0
M  V30 2079 C 193.378 1.18007 1.70555 0
M  V30 2080 C 193.803 -0.258257 1.86319 0
M  V30 2081 O 193.161 -1.1869 1.37049 0
M  V30 2082 C 193.209 1.87948 3.07746 0
M  V30 2083 O 192.313 1.18427 3.9503 0
M  V30 2084 H 191.654 0.409867 0.522403 0
M  V30 2085 H 194.184 1.69379 1.1477 0
M  V30 2086 H 194.194 1.95701 3.58001 0
M  V30 2087 H 192.869 2.92573 2.95591 0
M  V30 2088 H 191.446 1.18811 3.53466 0
M  V30 2089 N 193.631 -1.12557 1.10312 0
M  V30 2090 C 194.878 -1.84038 0.844759 0
M  V30 2091 C 195.206 -1.84026 -0.629668 0
M  V30 2092 O 194.461 -1.28026 -1.48013 0
M  V30 2093 C 194.76 -3.31462 1.33669 0
M  V30 2094 C 194.426 -3.51647 2.82232 0
M  V30 2095 C 193.088 -3.56864 3.22802 0
M  V30 2096 C 195.44 -3.58867 3.77974 0
M  V30 2097 C 192.768 -3.66844 4.57867 0
M  V30 2098 C 195.12 -3.70375 5.1284 0
M  V30 2099 C 193.784 -3.73848 5.52986 0
M  V30 2100 H 193.054 -0.673444 0.309119 0
M  V30 2101 H 195.701 -1.32824 1.37949 0
M  V30 2102 H 194.006 -3.85091 0.721949 0
M  V30 2103 H 195.703 -3.85236 1.11329 0
M  V30 2104 H 192.293 -3.48249 2.49842 0
M  V30 2105 H 196.477 -3.54107 3.47738 0
M  V30 2106 H 191.733 -3.67804 4.88396 0
M  V30 2107 H 195.907 -3.74904 5.86873 0
M  V30 2108 H 193.534 -3.81333 6.57639 0
M  V30 2109 N 195.109 -0.891671 -1.2995 0
M  V30 2110 C 196.525 -0.58662 -1.48428 0
M  V30 2111 C 196.725 0.873951 -1.81561 0
M  V30 2112 O 195.781 1.65471 -1.90724 0
M  V30 2113 C 197.094 -1.50553 -2.60296 0
M  V30 2114 C 198.642 -1.50988 -2.74175 0
M  V30 2115 C 199.117 -2.41488 -3.89163 0
M  V30 2116 N 200.608 -2.39489 -3.96483 0
M  V30 2117 C 201.343 -3.06223 -4.84784 0
M  V30 2118 N 200.839 -3.82206 -5.77833 0
M  V30 2119 N 202.632 -2.95421 -4.78208 0
M  V30 2120 H 194.783 -1.83644 -1.06718 0
M  V30 2121 H 197.046 -0.786455 -0.529332 0
M  V30 2122 H 196.752 -2.54581 -2.42654 0
M  V30 2123 H 196.626 -1.22008 -3.56923 0
M  V30 2124 H 199.013 -0.47708 -2.91218 0
M  V30 2125 H 199.094 -1.83567 -1.78148 0
M  V30 2126 H 198.738 -3.44857 -3.72876 0
M  V30 2127 H 198.668 -2.06222 -4.84541 0
M  V30 2128 H 201.159 -1.84278 -3.29924 0
M  V30 2129 H 201.472 -4.302 -6.41988 0
M  V30 2130 H 199.817 -3.86313 -5.77743 0
M  V30 2131 H 203.008 -2.35581 -4.04499 0
M  V30 2132 H 203.181 -3.47704 -5.46814 0
M  V30 2133 N 196.587 1.43421 -0.653314 0
M  V30 2134 C 197.535 2.32546 0.0501531 0
M  V30 2135 C 198.529 1.48617 0.812985 0
M  V30 2136 O 199.735 1.64825 0.723375 0
M  V30 2137 H 196.11 0.751185 0.0350032 0
M  V30 2138 H 198.081 2.89602 -0.719261 0
M  V30 2139 C 196.83 3.32925 1.00279 0
M  V30 2140 H 196.153 3.97532 0.425236 0
M  V30 2141 H 197.593 3.9792 1.46409 0
M  V30 2142 C 196.052 2.63532 2.09886 0
M  V30 2143 O 196.582 2.45092 3.18265 0
M  V30 2144 N 194.788 2.22905 1.86445 0
M  V30 2145 H 194.335 2.38103 0.98309 0
M  V30 2146 H 194.293 1.76805 2.59976 0
M  V30 2147 N 198.065 0.39524 1.52563 0
M  V30 2148 C 198.995 -0.428384 2.29537 0
M  V30 2149 C 199.976 -1.05831 1.33169 0
M  V30 2150 O 201.161 -1.06995 1.62067 0
M  V30 2151 C 198.291 -1.55274 3.10656 0
M  V30 2152 C 197.245 -1.04855 4.14957 0
M  V30 2153 C 196.571 -2.26543 4.84337 0
M  V30 2154 C 197.871 -0.112324 5.22179 0
M  V30 2155 H 199.565 0.213867 2.98635 0
M  V30 2156 H 197.111 0.104298 1.43622 0
M  V30 2157 H 199.064 -2.1358 3.63265 0
M  V30 2158 H 197.788 -2.22266 2.39302 0
M  V30 2159 H 196.447 -0.487985 3.63338 0
M  V30 2160 H 196.095 -2.92059 4.09525 0
M  V30 2161 H 195.795 -1.93466 5.54837 0
M  V30 2162 H 197.319 -2.85481 5.39753 0
M  V30 2163 H 198.733 -0.603752 5.70112 0
M  V30 2164 H 197.13 0.128968 5.99961 0
M  V30 2165 H 198.2 0.837052 4.77621 0
M  V30 2166 N 199.544 -1.57102 0.125237 0
M  V30 2167 C 200.491 -2.15641 -0.822655 0
M  V30 2168 C 201.461 -1.08313 -1.25927 0
M  V30 2169 O 202.646 -1.36251 -1.33567 0
M  V30 2170 C 199.786 -2.76504 -2.06494 0
M  V30 2171 C 198.899 -3.98158 -1.67612 0
M  V30 2172 C 198.034 -4.47088 -2.86854 0
M  V30 2173 C 197.073 -5.6126 -2.44242 0
M  V30 2174 N 196.21 -6.04905 -3.56419 0
M  V30 2175 H 201.05 -2.96313 -0.316625 0
M  V30 2176 H 198.587 -1.46388 -0.144588 0
M  V30 2177 H 200.545 -3.09925 -2.79289 0
M  V30 2178 H 199.175 -1.98512 -2.54545 0
M  V30 2179 H 198.227 -3.70858 -0.846661 0
M  V30 2180 H 199.539 -4.80934 -1.32301 0
M  V30 2181 H 198.693 -4.82451 -3.67867 0
M  V30 2182 H 197.432 -3.63275 -3.25396 0
M  V30 2183 H 196.437 -5.25495 -1.61663 0
M  V30 2184 H 197.662 -6.46843 -2.0681 0
M  V30 2185 H 195.608 -5.24032 -3.94623 0
M  V30 2186 H 195.525 -6.82552 -3.25051 0
M  V30 2187 H 196.793 -6.44907 -4.37853 0
M  V30 2188 N 201.022 0.148545 -1.56898 0
M  V30 2189 C 201.97 1.20265 -1.99096 0
M  V30 2190 C 202.964 1.44559 -0.883123 0
M  V30 2191 O 204.17 1.4487 -1.0683 0
M  V30 2192 H 200.545 0.404786 -0.63376 0
M  V30 2193 H 202.516 0.82004 -2.86911 0
M  V30 2194 C 201.265 2.52886 -2.3863 0
M  V30 2195 H 200.588 2.35021 -3.23427 0
M  V30 2196 H 202.028 3.25274 -2.7198 0
M  V30 2197 C 200.487 3.13315 -1.23837 0
M  V30 2198 O 201.017 3.98077 -0.538268 0
M  V30 2199 N 199.223 2.72742 -1.00301 0
M  V30 2200 H 198.77 2.03912 -1.5741 0
M  V30 2201 H 198.728 3.13507 -0.236838 0
M  V30 2202 N 202.5 1.5196 0.417844 0
M  V30 2203 C 203.447 1.74678 1.50852 0
M  V30 2204 C 204.417 0.588947 1.55308 0
M  V30 2205 O 205.602 0.825544 1.72016 0
M  V30 2206 C 202.742 1.89544 2.88387 0
M  V30 2207 C 201.855 3.17166 2.93309 0
M  V30 2208 C 200.99 3.22513 4.22088 0
M  V30 2209 C 200.029 4.44372 4.20951 0
M  V30 2210 N 199.166 4.47161 5.41287 0
M  V30 2211 H 204.006 2.67768 1.30783 0
M  V30 2212 H 201.543 1.32689 0.63498 0
M  V30 2213 H 203.501 1.96146 3.68216 0
M  V30 2214 H 202.131 0.998424 3.06971 0
M  V30 2215 H 201.183 3.19778 2.06024 0
M  V30 2216 H 202.495 4.07021 2.88332 0
M  V30 2217 H 201.649 3.28139 5.10303 0
M  V30 2218 H 200.388 2.30581 4.29748 0
M  V30 2219 H 199.393 4.38902 3.31127 0
M  V30 2220 H 200.618 5.3759 4.14938 0
M  V30 2221 H 198.564 3.58108 5.49632 0
M  V30 2222 H 198.481 5.3085 5.3827 0
M  V30 2223 H 199.749 4.57005 6.3148 0
M  V30 2224 N 203.978 -0.674533 1.42435 0
M  V30 2225 C 205.394 -0.98769 1.25367 0
M  V30 2226 C 205.594 -2.00879 0.158044 0
M  V30 2227 O 204.65 -2.48075 -0.470633 0
M  V30 2228 C 205.963 -1.49224 2.6106 0
M  V30 2229 C 207.511 -1.61 2.68417 0
M  V30 2230 C 207.986 -2.14852 4.04478 0
M  V30 2231 N 209.477 -2.22185 4.06434 0
M  V30 2232 C 210.212 -2.64928 5.08528 0
M  V30 2233 N 209.708 -3.07121 6.21006 0
M  V30 2234 N 211.501 -2.64679 4.95885 0
M  V30 2235 H 203.652 0.00152503 2.124 0
M  V30 2236 H 205.915 -0.0618434 0.945981 0
M  V30 2237 H 205.621 -0.816453 3.42092 0
M  V30 2238 H 205.495 -2.47094 2.84999 0
M  V30 2239 H 207.882 -2.27686 1.87732 0
M  V30 2240 H 207.963 -0.616195 2.48267 0
M  V30 2241 H 207.607 -1.48775 4.85622 0
M  V30 2242 H 207.537 -3.15024 4.2198 0
M  V30 2243 H 210.028 -1.92435 3.25234 0
M  V30 2244 H 210.341 -3.38423 6.94759 0
M  V30 2245 H 208.686 -3.04978 6.24511 0
M  V30 2246 H 211.877 -2.31078 4.07088 0
M  V30 2247 H 212.05 -2.9767 5.75584 0
M  V30 2248 N 205.456 -1.28612 -0.910864 0
M  V30 2249 C 206.733 -1.06632 -1.63979 0
M  V30 2250 C 207.113 0.393351 -2.07403 0
M  V30 2251 O 206.461 1.37999 -1.82122 0
M  V30 2252 C 206.671 -2.0436 -2.8291 0
M  V30 2253 C 208.019 -2.34666 -3.5386 0
M  V30 2254 O 209.043 -2.02467 -2.93062 0
M  V30 2255 O 207.902 -2.89631 -4.63439 0
M  V30 2256 H 204.996 -0.407737 -0.7195 0
M  V30 2257 H 207.542 -1.39942 -0.959914 0
M  V30 2258 H 206.314 -3.02727 -2.47936 0
M  V30 2259 H 205.937 -1.71714 -3.58609 0
M  V30 2260 N 206.934 1.1197 -1.10907 0
M  V30 2261 C 208.164 1.8713 -0.875553 0
M  V30 2262 C 208.572 1.8016 0.577843 0
M  V30 2263 O 207.915 1.17699 1.41042 0
M  V30 2264 C 207.977 3.37005 -1.2517 0
M  V30 2265 C 207.641 3.67748 -2.71313 0
M  V30 2266 C 208.638 3.65698 -3.69542 0
M  V30 2267 C 206.323 3.96928 -3.07821 0
M  V30 2268 C 208.317 3.92395 -5.023 0
M  V30 2269 C 206.004 4.23284 -4.40765 0
M  V30 2270 C 207.002 4.21005 -5.37814 0
M  V30 2271 O 206.69 4.46704 -6.68364 0
M  V30 2272 H 206.422 0.598786 -0.313737 0
M  V30 2273 H 208.976 1.42568 -1.47863 0
M  V30 2274 H 207.206 3.82146 -0.591741 0
M  V30 2275 H 208.895 3.93519 -0.994877 0
M  V30 2276 H 209.661 3.43211 -3.42682 0
M  V30 2277 H 205.54 3.97841 -2.32902 0
M  V30 2278 H 209.084 3.90531 -5.78041 0
M  V30 2279 H 204.981 4.45246 -4.67361 0
M  V30 2280 H 205.749 4.64299 -6.74069 0
M  V30 2281 N 208.412 0.89855 1.29475 0
M  V30 2282 C 209.362 0.346767 2.25348 0
M  V30 2283 C 210.346 -0.532509 1.51833 0
M  V30 2284 O 211.538 -0.374714 1.72988 0
M  V30 2285 C 208.667 -0.425681 3.40651 0
M  V30 2286 C 207.753 0.46845 4.21505 0
M  V30 2287 N 208.144 1.57514 4.80648 0
M  V30 2288 C 206.442 0.26603 4.45206 0
M  V30 2289 C 207.143 2.12889 5.41344 0
M  V30 2290 N 206.119 1.42208 5.24669 0
M  V30 2291 H 209.921 1.19219 2.68634 0
M  V30 2292 H 207.435 0.749473 1.44072 0
M  V30 2293 H 209.432 -0.837716 4.08397 0
M  V30 2294 H 208.092 -1.26838 2.98902 0
M  V30 2295 H 209.103 1.95789 4.79465 0
M  V30 2296 H 205.78 -0.538394 4.14014 0
M  V30 2297 H 207.17 3.05901 5.98226 0
M  V30 2298 N 209.89 -1.43072 0.660911 0
M  V30 2299 C 210.837 -2.30785 -0.0259884 0
M  V30 2300 C 211.807 -1.45184 -0.806888 0
M  V30 2301 O 212.992 -1.74041 -0.781943 0
M  V30 2302 C 210.132 -3.30861 -0.981067 0
M  V30 2303 C 209.245 -4.31558 -0.195458 0
M  V30 2304 C 208.38 -5.18712 -1.14503 0
M  V30 2305 C 207.419 -6.11097 -0.350299 0
M  V30 2306 N 206.556 -6.90849 -1.25186 0
M  V30 2307 H 211.396 -2.88975 0.727846 0
M  V30 2308 H 208.933 -1.42353 0.370682 0
M  V30 2309 H 210.891 -3.87399 -1.54849 0
M  V30 2310 H 209.521 -2.74304 -1.70169 0
M  V30 2311 H 208.573 -3.77252 0.488374 0
M  V30 2312 H 209.885 -4.9701 0.422176 0
M  V30 2313 H 209.039 -5.79914 -1.78284 0
M  V30 2314 H 207.778 -4.53404 -1.79656 0
M  V30 2315 H 206.783 -5.48976 0.300808 0
M  V30 2316 H 208.008 -6.7845 0.296941 0
M  V30 2317 H 205.954 -6.28182 -1.89005 0
M  V30 2318 H 205.871 -7.52854 -0.688971 0
M  V30 2319 H 207.139 -7.5655 -1.87757 0
M  V30 2320 N 211.368 -0.403325 -1.52352 0
M  V30 2321 C 212.318 0.442244 -2.2367 0
M  V30 2322 C 213.302 1.01823 -1.24583 0
M  V30 2323 O 214.494 0.942005 -1.49851 0
M  V30 2324 C 211.623 1.5615 -3.05732 0
M  V30 2325 C 210.709 0.996575 -4.12225 0
M  V30 2326 N 211.1 0.157804 -5.05554 0
M  V30 2327 C 209.398 1.26767 -4.27605 0
M  V30 2328 C 210.099 -0.155853 -5.81491 0
M  V30 2329 N 209.075 0.451775 -5.41719 0
M  V30 2330 H 212.877 -0.204964 -2.93184 0
M  V30 2331 H 210.391 -0.213418 -1.60992 0
M  V30 2332 H 212.388 2.17981 -3.55373 0
M  V30 2333 H 211.048 2.21139 -2.37755 0
M  V30 2334 H 212.059 -0.206049 -5.1749 0
M  V30 2335 H 208.736 1.91757 -3.70858 0
M  V30 2336 H 210.126 -0.836329 -6.66675 0
M  V30 2337 N 212.846 1.57033 -0.133567 0
M  V30 2338 C 214.262 1.58035 0.222944 0
M  V30 2339 C 214.462 1.14713 1.6566 0
M  V30 2340 O 213.518 0.841218 2.38075 0
M  V30 2341 C 214.831 3.00691 -0.0236116 0
M  V30 2342 C 216.379 3.12973 0.0411512 0
M  V30 2343 C 216.854 4.57654 -0.177899 0
M  V30 2344 N 218.345 4.63033 -0.124365 0
M  V30 2345 C 219.08 5.72771 -0.268553 0
M  V30 2346 N 218.576 6.91206 -0.46972 0
M  V30 2347 N 220.369 5.61718 -0.2071 0
M  V30 2348 H 212.52 1.8349 -1.06981 0
M  V30 2349 H 214.783 0.848677 -0.422436 0
M  V30 2350 H 214.489 3.36726 -1.0153 0
M  V30 2351 H 214.363 3.70614 0.701808 0
M  V30 2352 H 216.75 2.76787 1.02338 0
M  V30 2353 H 216.831 2.45564 -0.716383 0
M  V30 2354 H 216.475 4.94542 -1.15717 0
M  V30 2355 H 216.405 5.23173 0.599797 0
M  V30 2356 H 218.896 3.7789 0.027011 0
M  V30 2357 H 219.209 7.70693 -0.570212 0
M  V30 2358 H 217.554 6.93156 -0.505876 0
M  V30 2359 H 220.745 4.68072 -0.0507986 0
M  V30 2360 H 220.918 6.47195 -0.322909 0
M  V30 2361 N 214.325 -0.140222 1.56975 0
M  V30 2362 C 215.275 -1.17827 1.95194 0
M  V30 2363 C 216.259 -1.38195 0.824075 0
M  V30 2364 O 217.451 -1.39643 1.0876 0
M  V30 2365 C 214.58 -2.51024 2.34184 0
M  V30 2366 C 213.666 -2.3422 3.53556 0
M  V30 2367 N 214.057 -1.87185 4.69889 0
M  V30 2368 C 212.355 -2.64949 3.58773 0
M  V30 2369 C 213.056 -1.83586 5.5197 0
M  V30 2370 N 212.032 -2.2715 4.93866 0
M  V30 2371 H 215.834 -0.806817 2.82609 0
M  V30 2372 H 213.348 -0.348208 1.58623 0
M  V30 2373 H 215.345 -3.26074 2.59772 0
M  V30 2374 H 214.005 -2.88945 1.48124 0
M  V30 2375 H 215.016 -1.57048 4.93514 0
M  V30 2376 H 211.693 -3.067 2.8327 0
M  V30 2377 H 213.083 -1.48655 6.55249 0
M  V30 2378 N 215.803 -1.52179 -0.40978 0
M  V30 2379 C 216.751 -1.76086 -1.51975 0
M  V30 2380 C 217.745 -0.627964 -1.57331 0
M  V30 2381 O 218.951 -0.809993 -1.60745 0
M  V30 2382 H 215.326 -0.556829 -0.505416 0
M  V30 2383 H 217.297 -2.69077 -1.28996 0
M  V30 2384 C 216.046 -1.92799 -2.8935 0
M  V30 2385 H 215.369 -2.79392 -2.85972 0
M  V30 2386 H 216.809 -2.13527 -3.66309 0
M  V30 2387 C 215.268 -0.694923 -3.29655 0
M  V30 2388 O 215.798 0.13751 -4.01465 0
M  V30 2389 N 214.004 -0.53101 -2.85707 0
M  V30 2390 H 213.551 -1.20952 -2.27439 0
M  V30 2391 H 213.509 0.292718 -3.13034 0
M  V30 2392 N 217.281 0.66697 -1.42791 0
M  V30 2393 C 218.527 1.4291 -1.43891 0
M  V30 2394 C 218.86 1.94114 -0.0578972 0
M  V30 2395 O 218.135 1.71414 0.91911 0
M  V30 2396 C 218.418 2.62049 -2.46987 0
M  V30 2397 C 218.271 2.16426 -3.94309 0
M  V30 2398 C 219.59 3.64266 -2.46978 0
M  V30 2399 H 216.709 0.518306 -0.523954 0
M  V30 2400 H 219.351 0.757321 -1.74255 0
M  V30 2401 H 217.501 3.19361 -2.21225 0
M  V30 2402 H 219.173 1.64221 -4.31079 0
M  V30 2403 H 217.416 1.47925 -4.078 0
M  V30 2404 H 218.087 3.02038 -4.62036 0
M  V30 2405 H 220.563 3.16686 -2.69906 0
M  V30 2406 H 219.439 4.45196 -3.21079 0
M  V30 2407 H 219.7 4.15927 -1.49857 0
M  V30 2408 N 218.759 1.29093 0.90403 0
M  V30 2409 C 219.984 1.19809 1.69294 0
M  V30 2410 C 220.409 -0.238481 1.86582 0
M  V30 2411 O 219.767 -1.1723 1.383 0
M  V30 2412 C 219.815 1.91202 3.05736 0
M  V30 2413 O 218.919 1.22611 3.93752 0
M  V30 2414 H 218.26 0.415385 0.518027 0
M  V30 2415 H 220.79 1.70586 1.12967 0
M  V30 2416 H 220.8 1.99487 3.55906 0
M  V30 2417 H 219.475 2.95692 2.92471 0
M  V30 2418 H 218.052 1.22554 3.52186 0
M  V30 2419 N 220.237 -1.11381 1.11499 0
M  V30 2420 C 221.483 -1.83597 0.875423 0
M  V30 2421 C 221.838 -1.83048 -0.592555 0
M  V30 2422 O 221.131 -1.27304 -1.43193 0
M  V30 2423 C 221.325 -3.30026 1.37177 0
M  V30 2424 C 221.154 -3.44837 2.88647 0
M  V30 2425 C 219.924 -3.57825 3.56776 0
M  V30 2426 C 222.122 -3.3907 3.86699 0
M  V30 2427 N 220.104 -3.61113 4.96458 0
M  V30 2428 C 221.475 -3.48986 5.12454 0
M  V30 2429 C 223.53 -3.22605 3.7925 0
M  V30 2430 C 222.233 -3.44135 6.31636 0
M  V30 2431 C 224.259 -3.19072 4.97943 0
M  V30 2432 C 223.621 -3.29559 6.22551 0
M  V30 2433 H 219.72 -0.687044 0.37349 0
M  V30 2434 H 222.304 -1.33265 1.41946 0
M  V30 2435 H 220.475 -3.78874 0.854919 0
M  V30 2436 H 222.207 -3.90153 1.07529 0
M  V30 2437 H 218.962 -3.60414 3.07244 0
M  V30 2438 H 219.386 -3.66394 5.69284 0
M  V30 2439 H 224.028 -3.13382 2.83816 0
M  V30 2440 H 221.746 -3.52126 7.27347 0
M  V30 2441 H 225.332 -3.07498 4.93899 0
M  V30 2442 H 224.212 -3.26815 7.12855 0
M  V30 2443 N 221.715 -0.905404 -1.28997 0
M  V30 2444 C 222.645 -0.404212 -2.29975 0
M  V30 2445 C 223.626 0.523784 -1.61835 0
M  V30 2446 O 224.811 0.433298 -1.89304 0
M  V30 2447 C 221.941 0.364042 -3.45387 0
M  V30 2448 C 220.895 -0.474048 -4.25367 0
M  V30 2449 C 220.221 0.422045 -5.33032 0
M  V30 2450 C 221.521 -1.72696 -4.92923 0
M  V30 2451 H 223.215 -1.24807 -2.72146 0
M  V30 2452 H 220.761 -0.601585 -1.30832 0
M  V30 2453 H 222.714 0.725447 -4.15109 0
M  V30 2454 H 221.438 1.24174 -3.02074 0
M  V30 2455 H 220.097 -0.81786 -3.57361 0
M  V30 2456 H 219.745 1.29804 -4.85963 0
M  V30 2457 H 219.445 -0.135057 -5.87445 0
M  V30 2458 H 220.969 0.779517 -6.05604 0
M  V30 2459 H 222.383 -1.43495 -5.55051 0
M  V30 2460 H 220.78 -2.22582 -5.57295 0
M  V30 2461 H 221.85 -2.45964 -4.17887 0
M  V30 2462 N 223.193 1.4272 -0.668489 0
M  V30 2463 C 224.423 2.05668 -0.196063 0
M  V30 2464 C 224.831 1.5028 1.14946 0
M  V30 2465 O 224.174 0.6348 1.72383 0
M  V30 2466 C 224.236 3.59469 -0.0468879 0
M  V30 2467 C 223.9 4.37518 -1.32012 0
M  V30 2468 C 224.897 4.68584 -2.25222 0
M  V30 2469 C 222.582 4.77266 -1.56596 0
M  V30 2470 C 224.576 5.38326 -3.41297 0
M  V30 2471 C 222.263 5.4675 -2.72962 0
M  V30 2472 C 223.261 5.77204 -3.65137 0
M  V30 2473 O 222.949 6.45264 -4.79468 0
M  V30 2474 H 222.681 0.669382 -0.0943599 0
M  V30 2475 H 225.235 1.83954 -0.913788 0
M  V30 2476 H 223.465 3.79817 0.726357 0
M  V30 2477 H 225.154 4.04071 0.384852 0
M  V30 2478 H 225.92 4.38382 -2.07477 0
M  V30 2479 H 221.799 4.52959 -0.857249 0
M  V30 2480 H 225.343 5.62014 -4.13263 0
M  V30 2481 H 221.24 5.76369 -2.90635 0
M  V30 2482 H 222.008 6.63753 -4.78931 0
M  V30 2483 N 224.671 0.411399 1.52136 0
M  V30 2484 C 225.601 -0.404015 2.29978 0
M  V30 2485 C 226.582 -1.04412 1.34284 0
M  V30 2486 O 227.767 -1.0527 1.63192 0
M  V30 2487 C 224.897 -1.5197 3.12286 0
M  V30 2488 C 223.851 -1.00448 4.16046 0
M  V30 2489 C 223.177 -2.21393 4.86712 0
M  V30 2490 C 224.477 -0.0569336 5.22269 0
M  V30 2491 H 226.171 0.245529 2.98392 0
M  V30 2492 H 223.717 0.119525 1.43503 0
M  V30 2493 H 225.67 -2.09715 3.6551 0
M  V30 2494 H 224.394 -2.19716 2.41646 0
M  V30 2495 H 223.053 -0.449421 3.63835 0
M  V30 2496 H 222.701 -2.87699 4.12599 0
M  V30 2497 H 222.401 -1.87571 5.56858 0
M  V30 2498 H 223.925 -2.7974 5.4275 0
M  V30 2499 H 225.339 -0.54325 5.7072 0
M  V30 2500 H 223.736 0.192594 5.99791 0
M  V30 2501 H 224.806 0.887663 4.76706 0
M  V30 2502 N 226.149 -1.5696 0.141893 0
M  V30 2503 C 227.374 -2.00754 -0.520838 0
M  V30 2504 C 227.799 -1.0213 -1.57959 0
M  V30 2505 O 227.157 0.00371324 -1.813 0
M  V30 2506 C 227.205 -3.43318 -1.10294 0
M  V30 2507 O 226.309 -3.47679 -2.21795 0
M  V30 2508 H 225.65 -0.651564 -0.127908 0
M  V30 2509 H 228.18 -2.03221 0.23712 0
M  V30 2510 H 228.19 -3.82012 -1.43287 0
M  V30 2511 H 226.865 -4.14608 -0.327574 0
M  V30 2512 H 225.442 -3.20824 -1.9007 0
M  V30 2513 N 227.627 0.131896 -1.57047 0
M  V30 2514 C 229.043 0.485031 -1.52051 0
M  V30 2515 C 229.243 1.82563 -0.85281 0
M  V30 2516 O 228.299 2.48817 -0.429694 0
M  V30 2517 C 229.612 0.481409 -2.96821 0
M  V30 2518 C 231.16 0.565868 -3.07842 0
M  V30 2519 C 231.635 0.592762 -4.54148 0
M  V30 2520 N 233.126 0.654564 -4.58552 0
M  V30 2521 C 233.861 0.696608 -5.69153 0
M  V30 2522 N 233.357 0.697078 -6.89284 0
M  V30 2523 N 235.15 0.738639 -5.57226 0
M  V30 2524 H 227.301 -0.746664 -1.98843 0
M  V30 2525 H 229.564 -0.273999 -0.90754 0
M  V30 2526 H 229.27 -0.435731 -3.4899 0
M  V30 2527 H 229.144 1.3139 -3.53577 0
M  V30 2528 H 231.531 1.47343 -2.55684 0
M  V30 2529 H 231.612 -0.29406 -2.54104 0
M  V30 2530 H 231.256 -0.310701 -5.06949 0
M  V30 2531 H 231.186 1.46939 -5.05684 0
M  V30 2532 H 233.677 0.660887 -3.72076 0
M  V30 2533 H 233.99 0.731426 -7.69331 0
M  V30 2534 H 232.335 0.66471 -6.91814 0
M  V30 2535 H 235.526 0.735545 -4.62285 0
M  V30 2536 H 235.699 0.767938 -6.43434 0
M  V30 2537 N 229.106 1.52395 0.401703 0
M  V30 2538 C 230.036 1.79231 1.49661 0
M  V30 2539 C 231.017 0.643654 1.57452 0
M  V30 2540 O 232.202 0.889989 1.72606 0
M  V30 2541 C 229.332 1.94971 2.87409 0
M  V30 2542 C 228.286 3.10604 2.94465 0
M  V30 2543 C 227.612 3.11577 4.34538 0
M  V30 2544 C 228.912 4.49921 2.6527 0
M  V30 2545 H 230.606 2.70917 1.27454 0
M  V30 2546 H 228.152 1.30362 0.6117 0
M  V30 2547 H 230.105 2.12328 3.63999 0
M  V30 2548 H 228.829 0.999632 3.10926 0
M  V30 2549 H 227.488 2.93009 2.20321 0
M  V30 2550 H 227.136 2.14277 4.55076 0
M  V30 2551 H 226.836 3.89247 4.40183 0
M  V30 2552 H 228.36 3.31073 5.13053 0
M  V30 2553 H 229.774 4.67683 3.31581 0
M  V30 2554 H 228.171 5.29564 2.82281 0
M  V30 2555 H 229.241 4.57507 1.60671 0
M  V30 2556 N 230.584 -0.659388 1.43143 0
M  V30 2557 C 231.809 -1.45221 1.48073 0
M  V30 2558 C 232.234 -1.87845 0.097995 0
M  V30 2559 O 231.592 -1.56985 -0.90694 0
M  V30 2560 C 231.64 -2.66748 2.42647 0
M  V30 2561 O 230.744 -3.65583 1.90848 0
M  V30 2562 H 230.085 -0.435669 0.501088 0
M  V30 2563 H 232.615 -0.807432 1.87994 0
M  V30 2564 H 232.625 -3.14637 2.59745 0
M  V30 2565 H 231.3 -2.35067 3.43098 0
M  V30 2566 H 229.877 -3.24693 1.83381 0
M  V30 2567 N 232.062 -1.29571 -0.897171 0
M  V30 2568 C 233.025 -1.14913 -1.98312 0
M  V30 2569 C 234.025 -0.0838629 -1.60581 0
M  V30 2570 O 235.215 -0.331006 -1.71026 0
M  V30 2571 C 232.347 -0.757835 -3.3237 0
M  V30 2572 H 233.54 -2.11377 -2.12743 0
M  V30 2573 H 231.093 -1.12793 -1.08201 0
M  V30 2574 H 231.828 0.206837 -3.2364 0
M  V30 2575 H 231.613 -1.52755 -3.61121 0
M  V30 2576 H 233.103 -0.678408 -4.12053 0
M  V30 2577 N 233.54 1.10788 -1.12088 0
M  V30 2578 C 234.473 2.16237 -0.729168 0
M  V30 2579 C 235.451 1.60207 0.277921 0
M  V30 2580 O 236.635 1.87707 0.172737 0
M  V30 2581 C 233.762 3.38609 -0.0786848 0
M  V30 2582 C 232.808 4.13322 -1.05201 0
M  V30 2583 S 233.641 4.69371 -2.57781 0
M  V30 2584 C 234.797 5.95058 -1.94053 0
M  V30 2585 H 235.03 2.4913 -1.62239 0
M  V30 2586 H 232.563 1.22519 -0.939603 0
M  V30 2587 H 234.521 4.09473 0.290254 0
M  V30 2588 H 233.182 3.03962 0.791593 0
M  V30 2589 H 232.375 5.01051 -0.544433 0
M  V30 2590 H 231.977 3.48251 -1.36371 0
M  V30 2591 H 234.269 6.65278 -1.28107 0
M  V30 2592 H 235.212 6.50472 -2.79807 0
M  V30 2593 H 235.62 5.46918 -1.39787 0
M  V30 2594 N 235.018 0.912232 1.28515 0
M  V30 2595 C 235.965 0.397954 2.27343 0
M  V30 2596 C 236.935 -0.526766 1.57526 0
M  V30 2597 O 238.12 -0.449292 1.85435 0
M  V30 2598 C 235.26 -0.357263 3.43246 0
M  V30 2599 C 234.373 0.599788 4.27816 0
M  V30 2600 C 233.508 -0.173725 5.30916 0
M  V30 2601 C 232.547 0.777039 6.07148 0
M  V30 2602 N 231.684 0.0371398 7.0209 0
M  V30 2603 H 236.524 1.24577 2.70711 0
M  V30 2604 H 234.061 0.625612 1.33133 0
M  V30 2605 H 236.019 -0.8113 4.09236 0
M  V30 2606 H 234.649 -1.16943 3.00872 0
M  V30 2607 H 233.701 1.17235 3.61884 0
M  V30 2608 H 235.013 1.32704 4.80823 0
M  V30 2609 H 234.167 -0.688394 6.02782 0
M  V30 2610 H 232.906 -0.934041 4.78672 0
M  V30 2611 H 231.911 1.3031 5.34134 0
M  V30 2612 H 233.136 1.53689 6.61481 0
M  V30 2613 H 231.082 -0.705213 6.52198 0
M  V30 2614 H 230.999 0.704249 7.52713 0
M  V30 2615 H 232.267 -0.457383 7.78157 0
M  V30 2616 N 236.496 -1.42363 0.676048 0
M  V30 2617 C 237.406 -2.346 -0.00153389 0
M  V30 2618 C 238.422 -1.5516 -0.787485 0
M  V30 2619 O 239.598 -1.87723 -0.729521 0
M  V30 2620 C 236.663 -3.33705 -0.940298 0
M  V30 2621 C 235.724 -4.29042 -0.148739 0
M  V30 2622 C 234.957 -5.23413 -1.04279 0
M  V30 2623 O 235.18 -5.22749 -2.28232 0
M  V30 2624 O 234.114 -5.99795 -0.502925 0
M  V30 2625 H 237.94 -2.94082 0.758268 0
M  V30 2626 H 235.525 -1.42888 0.436289 0
M  V30 2627 H 237.407 -3.94586 -1.47917 0
M  V30 2628 H 236.082 -2.76695 -1.67993 0
M  V30 2629 H 234.989 -3.71571 0.43427 0
M  V30 2630 H 236.322 -4.89097 0.551805 0
M  V30 2631 N 237.974 -0.419461 -1.51915 0
M  V30 2632 C 239.221 0.152939 -2.01922 0
M  V30 2633 C 239.549 1.4426 -1.30458 0
M  V30 2634 O 238.804 1.91514 -0.402593 0
M  V30 2635 C 239.103 0.437067 -3.54717 0
M  V30 2636 C 238.769 -0.764632 -4.44369 0
M  V30 2637 C 237.431 -1.09423 -4.68594 0
M  V30 2638 C 239.783 -1.56713 -4.97082 0
M  V30 2639 C 237.111 -2.22732 -5.42777 0
M  V30 2640 C 239.463 -2.69107 -5.72507 0
M  V30 2641 C 238.127 -3.02541 -5.95 0
M  V30 2642 H 237.397 0.0559644 -0.738884 0
M  V30 2643 H 240.044 -0.562998 -1.83037 0
M  V30 2644 H 238.349 1.23469 -3.71837 0
M  V30 2645 H 240.046 0.893083 -3.90928 0
M  V30 2646 H 236.636 -0.497775 -4.257 0
M  V30 2647 H 240.82 -1.32571 -4.78266 0
M  V30 2648 H 236.076 -2.48971 -5.58411 0
M  V30 2649 H 240.25 -3.31671 -6.12346 0
M  V30 2650 H 237.877 -3.90457 -6.52264 0
M  V30 2651 N 239.452 1.56882 -0.150215 0
M  V30 2652 C 240.415 2.1573 0.774157 0
M  V30 2653 C 241.415 1.0999 1.17298 0
M  V30 2654 O 242.605 1.35613 1.09338 0
M  V30 2655 C 239.737 2.72302 2.05096 0
M  V30 2656 H 240.93 2.98752 0.262201 0
M  V30 2657 H 238.483 1.55985 0.099248 0
M  V30 2658 H 239.218 1.92956 2.6065 0
M  V30 2659 H 239.003 3.49665 1.77416 0
M  V30 2660 H 240.493 3.17632 2.71109 0
M  V30 2661 N 240.93 -0.123565 1.57115 0
M  V30 2662 C 242.16 -0.845233 1.88519 0
M  V30 2663 C 242.568 -1.74168 0.739064 0
M  V30 2664 O 241.911 -1.81244 -0.299355 0
M  V30 2665 C 241.973 -1.73452 3.14888 0
M  V30 2666 C 241.637 -1.01285 4.45635 0
M  V30 2667 C 242.634 -0.355774 5.18681 0
M  V30 2668 C 240.319 -0.99538 4.92339 0
M  V30 2669 C 242.313 0.309114 6.3665 0
M  V30 2670 C 240 -0.32669 6.10226 0
M  V30 2671 C 240.998 0.324406 6.82229 0
M  V30 2672 O 240.686 0.982437 7.97874 0
M  V30 2673 H 240.418 -0.248534 0.628655 0
M  V30 2674 H 242.972 -0.113907 2.05084 0
M  V30 2675 H 241.202 -2.50737 2.94394 0
M  V30 2676 H 242.891 -2.33021 3.32349 0
M  V30 2677 H 243.657 -0.360918 4.83655 0
M  V30 2678 H 239.536 -1.49159 4.36202 0
M  V30 2679 H 243.08 0.8179 6.92789 0
M  V30 2680 H 238.977 -0.319294 6.4471 0
M  V30 2681 H 239.745 0.886454 8.13686 0
M  V30 2682 N 242.408 -1.52605 -0.393616 0
M  V30 2683 C 243.341 -1.71798 -1.50202 0
M  V30 2684 C 244.319 -0.565743 -1.52441 0
M  V30 2685 O 245.503 -0.794987 -1.70916 0
M  V30 2686 C 242.63 -1.7714 -2.88685 0
M  V30 2687 C 241.676 -2.98845 -3.04292 0
M  V30 2688 S 242.509 -4.58909 -2.75976 0
M  V30 2689 C 243.665 -4.6706 -4.1666 0
M  V30 2690 H 243.898 -2.65542 -1.33696 0
M  V30 2691 H 241.431 -1.42839 -0.586195 0
M  V30 2692 H 243.389 -1.80903 -3.68489 0
M  V30 2693 H 242.05 -0.844969 -3.02521 0
M  V30 2694 H 241.243 -2.99111 -4.05646 0
M  V30 2695 H 240.845 -2.9305 -2.32374 0
M  V30 2696 H 243.137 -4.45391 -5.10523 0
M  V30 2697 H 244.08 -5.6905 -4.21412 0
M  V30 2698 H 244.488 -3.95944 -4.02354 0
M  V30 2699 N 243.887 0.651787 -1.4349 0
M  V30 2700 C 244.834 1.76462 -1.4876 0
M  V30 2701 C 245.804 1.62641 -0.337189 0
M  V30 2702 O 246.989 1.82864 -0.544544 0
M  V30 2703 C 244.129 3.14623 -1.41796 0
M  V30 2704 C 243.242 3.39568 -2.67053 0
M  V30 2705 C 242.377 4.67585 -2.52068 0
M  V30 2706 C 241.416 4.85639 -3.72587 0
M  V30 2707 N 240.553 6.04915 -3.56402 0
M  V30 2708 H 245.393 1.71293 -2.43849 0
M  V30 2709 H 242.93 0.835889 -1.21043 0
M  V30 2710 H 244.888 3.94496 -1.35753 0
M  V30 2711 H 243.518 3.18859 -0.50288 0
M  V30 2712 H 242.57 2.53783 -2.8337 0
M  V30 2713 H 243.882 3.48795 -3.56572 0
M  V30 2714 H 243.036 5.55586 -2.4374 0
M  V30 2715 H 241.775 4.60681 -1.60075 0
M  V30 2716 H 240.78 3.96073 -3.81321 0
M  V30 2717 H 242.005 4.94372 -4.65589 0
M  V30 2718 H 239.951 5.9914 -2.67146 0
M  V30 2719 H 239.868 6.15106 -4.39524 0
M  V30 2720 H 241.136 6.95533 -3.51929 0
M  V30 2721 N 245.365 1.30045 0.890287 0
M  V30 2722 C 246.328 1.15963 1.977 0
M  V30 2723 C 247.328 0.0923777 1.60534 0
M  V30 2724 O 248.518 0.340071 1.70848 0
M  V30 2725 C 245.65 0.775451 3.31963 0
M  V30 2726 H 246.843 2.12502 2.11619 0
M  V30 2727 H 244.396 1.13366 1.07601 0
M  V30 2728 H 245.131 -0.189671 3.23745 0
M  V30 2729 H 244.916 1.54668 3.60306 0
M  V30 2730 H 246.406 0.700251 4.11687 0
M  V30 2731 N 246.843 -1.10192 1.12674 0
M  V30 2732 C 247.773 -2.18652 0.819362 0
M  V30 2733 C 248.754 -1.68698 -0.217915 0
M  V30 2734 O 249.939 -1.94041 -0.0785581 0
M  V30 2735 C 247.069 -3.46202 0.27594 0
M  V30 2736 C 246.023 -4.09444 1.24656 0
M  V30 2737 C 245.349 -5.31725 0.563258 0
M  V30 2738 C 246.649 -4.52863 2.60217 0
M  V30 2739 H 248.343 -2.44622 1.72628 0
M  V30 2740 H 245.889 -1.17571 0.831451 0
M  V30 2741 H 247.842 -4.21372 0.0486149 0
M  V30 2742 H 246.566 -3.1973 -0.666331 0
M  V30 2743 H 245.225 -3.36284 1.45974 0
M  V30 2744 H 244.873 -5.0153 -0.384235 0
M  V30 2745 H 244.573 -5.74991 1.21075 0
M  V30 2746 H 246.097 -6.09624 0.34503 0
M  V30 2747 H 247.511 -5.19294 2.42913 0
M  V30 2748 H 245.908 -5.06986 3.21068 0
M  V30 2749 H 246.978 -3.65656 3.18471 0
M  V30 2750 N 248.321 -0.919034 -1.28029 0
M  V30 2751 C 249.551 -0.570143 -1.98577 0
M  V30 2752 C 249.959 0.854172 -1.68821 0
M  V30 2753 O 249.302 1.57807 -0.940351 0
M  V30 2754 C 249.364 -0.705734 -3.52505 0
M  V30 2755 C 249.028 -2.10057 -4.05863 0
M  V30 2756 C 250.025 -3.07385 -4.19298 0
M  V30 2757 C 247.71 -2.41517 -4.40426 0
M  V30 2758 C 249.704 -4.34287 -4.66555 0
M  V30 2759 C 247.391 -3.68657 -4.87376 0
M  V30 2760 C 248.389 -4.64856 -5.00398 0
M  V30 2761 O 248.077 -5.89735 -5.46322 0
M  V30 2762 H 247.809 -0.215592 -0.6407 0
M  V30 2763 H 250.363 -1.23583 -1.64062 0
M  V30 2764 H 248.593 0.0170414 -3.86696 0
M  V30 2765 H 250.282 -0.363172 -4.04272 0
M  V30 2766 H 251.048 -2.84398 -3.92865 0
M  V30 2767 H 246.927 -1.67389 -4.29537 0
M  V30 2768 H 250.471 -5.09377 -4.76635 0
M  V30 2769 H 246.368 -3.91466 -5.13249 0
M  V30 2770 H 247.136 -5.92599 -5.64596 0
M  V30 2771 N 249.799 1.42003 -0.683588 0
M  V30 2772 C 250.709 2.34597 -0.0109075 0
M  V30 2773 C 251.725 1.55576 0.779245 0
M  V30 2774 O 252.901 1.88107 0.719555 0
M  V30 2775 C 249.966 3.34199 0.922588 0
M  V30 2776 C 249.027 4.29115 0.125984 0
M  V30 2777 C 248.26 5.23959 1.01502 0
M  V30 2778 O 248.483 5.23952 2.25456 0
M  V30 2779 O 247.417 6.00053 0.47111 0
M  V30 2780 H 251.243 2.93675 -0.773853 0
M  V30 2781 H 248.828 1.42654 -0.443861 0
M  V30 2782 H 250.71 3.95365 1.45823 0
M  V30 2783 H 249.385 2.77582 1.66523 0
M  V30 2784 H 248.292 3.71335 -0.453969 0
M  V30 2785 H 249.625 4.88798 -0.577736 0
M  V30 2786 N 251.277 0.427512 1.51691 0
M  V30 2787 C 252.693 0.0792977 1.59403 0
M  V30 2788 C 252.893 -1.41035 1.43914 0
M  V30 2789 O 251.949 -2.17922 1.27539 0
M  V30 2790 C 253.262 0.590636 2.94842 0
M  V30 2791 C 254.81 0.550215 3.08126 0
M  V30 2792 C 255.285 1.03836 4.46074 0
M  V30 2793 N 256.776 0.995943 4.52366 0
M  V30 2794 C 257.511 1.34463 5.57411 0
M  V30 2795 N 257.007 1.76569 6.69922 0
M  V30 2796 N 258.8 1.26343 5.47717 0
M  V30 2797 H 250.951 1.39687 1.60004 0
M  V30 2798 H 253.214 0.575003 0.753708 0
M  V30 2799 H 252.92 1.63251 3.11516 0
M  V30 2800 H 252.794 0.0102061 3.77199 0
M  V30 2801 H 255.181 -0.482654 2.91126 0
M  V30 2802 H 255.262 1.16693 2.27632 0
M  V30 2803 H 254.906 2.06965 4.63819 0
M  V30 2804 H 254.836 0.398286 5.25092 0
M  V30 2805 H 257.327 0.68661 3.7161 0
M  V30 2806 H 257.64 2.01438 7.46085 0
M  V30 2807 H 255.985 1.80488 6.71155 0
M  V30 2808 H 259.176 0.933209 4.58703 0
M  V30 2809 H 259.349 1.53846 6.29472 0
M  V30 2810 N 252.755 -1.56801 0.158532 0
M  V30 2811 C 253.702 -2.17337 -0.776729 0
M  V30 2812 C 254.672 -1.1096 -1.23601 0
M  V30 2813 O 255.857 -1.39054 -1.30647 0
M  V30 2814 C 252.997 -2.80822 -2.00582 0
M  V30 2815 C 252.11 -4.01624 -1.59129 0
M  V30 2816 C 251.245 -4.53072 -2.77306 0
M  V30 2817 C 250.284 -5.66314 -2.32282 0
M  V30 2818 N 249.421 -6.12329 -3.43508 0
M  V30 2819 H 254.261 -2.96918 -0.253701 0
M  V30 2820 H 251.798 -1.46661 -0.113504 0
M  V30 2821 H 253.756 -3.15779 -2.72652 0
M  V30 2822 H 252.386 -2.03866 -2.50277 0
M  V30 2823 H 251.438 -3.72571 -0.767806 0
M  V30 2824 H 252.75 -4.83633 -1.2207 0
M  V30 2825 H 251.904 -4.90145 -3.57551 0
M  V30 2826 H 250.643 -3.70095 -3.17617 0
M  V30 2827 H 249.648 -5.28806 -1.5048 0
M  V30 2828 H 250.873 -6.51085 -1.93043 0
M  V30 2829 H 248.819 -5.32284 -3.83418 0
M  V30 2830 H 248.736 -6.89293 -3.105 0
M  V30 2831 H 250.004 -6.5405 -4.24075 0
M  V30 2832 N 254.233 0.115231 -1.57178 0
M  V30 2833 C 255.48 0.822351 -1.8505 0
M  V30 2834 C 255.808 1.79701 -0.744168 0
M  V30 2835 O 255.063 1.93909 0.26414 0
M  V30 2836 C 255.362 1.60324 -3.19423 0
M  V30 2837 C 255.028 0.772536 -4.44233 0
M  V30 2838 C 253.69 0.543468 -4.78121 0
M  V30 2839 C 256.042 0.193746 -5.2084 0
M  V30 2840 C 253.37 -0.274583 -5.86057 0
M  V30 2841 C 255.722 -0.611517 -6.29637 0
M  V30 2842 C 254.386 -0.850867 -6.62055 0
M  V30 2843 H 253.656 0.30092 -0.677147 0
M  V30 2844 H 256.303 0.0845802 -1.91313 0
M  V30 2845 H 254.608 2.41203 -3.08753 0
M  V30 2846 H 256.305 2.1544 -3.38211 0
M  V30 2847 H 252.895 0.96117 -4.17683 0
M  V30 2848 H 257.079 0.357926 -4.95008 0
M  V30 2849 H 252.335 -0.469206 -6.09597 0
M  V30 2850 H 256.509 -1.06697 -6.88178 0
M  V30 2851 H 254.136 -1.48657 -7.45523 0
M  V30 2852 N 255.711 1.52812 0.385517 0
M  V30 2853 C 257.122 1.5993 0.963293 0
M  V30 2854 C 257.473 0.454302 1.90868 0
M  V30 2855 O 256.598 -0.422132 2.12243 0
M  V30 2856 C 257.193 2.89871 1.75387 0
M  V30 2857 C 255.752 2.99389 2.28129 0
M  V30 2858 C 254.899 2.55071 1.08783 0
M  V30 2859 H 257.85 1.5784 0.164948 0
M  V30 2860 H 257.871 2.76553 2.61341 0
M  V30 2861 H 257.383 3.73186 1.06554 0
M  V30 2862 H 255.484 2.20619 3.00263 0
M  V30 2863 H 255.597 4.04096 2.57377 0
M  V30 2864 H 253.961 2.09473 1.4489 0
M  V30 2865 H 254.744 3.40785 0.414807 0
M  V30 2866 N 257.189 -0.644168 1.43834 0
M  V30 2867 C 258.435 -1.40603 1.46146 0
M  V30 2868 C 258.768 -1.93997 0.0887717 0
M  V30 2869 O 258.043 -1.72854 -0.891724 0
M  V30 2870 C 258.326 -2.58086 2.51124 0
M  V30 2871 C 258.179 -2.10126 3.97702 0
M  V30 2872 C 259.498 -3.60291 2.52742 0
M  V30 2873 H 256.617 -0.509905 0.532134 0
M  V30 2874 H 259.259 -0.729502 1.75437 0
M  V30 2875 H 257.409 -3.15801 2.26278 0
M  V30 2876 H 259.081 -1.57342 4.33637 0
M  V30 2877 H 257.324 -1.41419 4.10101 0
M  V30 2878 H 257.995 -2.94649 4.66783 0
M  V30 2879 H 260.471 -3.12352 2.7491 0
M  V30 2880 H 259.347 -4.40032 3.28121 0
M  V30 2881 H 259.608 -4.1349 1.56455 0
M  V30 2882 N 258.668 -1.30515 -0.883378 0
M  V30 2883 C 260.079 -1.17509 -1.45081 0
M  V30 2884 C 260.43 0.223605 -1.94922 0
M  V30 2885 O 259.555 1.12041 -1.85137 0
M  V30 2886 C 260.15 -2.12715 -2.63701 0
M  V30 2887 C 258.709 -2.03682 -3.16529 0
M  V30 2888 C 257.856 -2.02706 -1.89224 0
M  V30 2889 H 260.807 -1.42762 -0.693165 0
M  V30 2890 H 260.828 -1.70891 -3.39965 0
M  V30 2891 H 260.34 -3.14505 -2.27395 0
M  V30 2892 H 258.441 -1.05039 -3.57488 0
M  V30 2893 H 258.554 -2.92146 -3.7972 0
M  V30 2894 H 256.918 -1.4753 -2.07622 0
M  V30 2895 H 257.701 -3.06229 -1.55174 0
M  V30 2896 N 260.146 1.09593 -1.13257 0
M  V30 2897 C 261.093 2.1618 -0.808381 0
M  V30 2898 C 262.063 1.64517 0.228754 0
M  V30 2899 O 263.248 1.9053 0.101381 0
M  V30 2900 C 260.388 3.43973 -0.278675 0
M  V30 2901 C 259.501 4.09545 -1.37466 0
M  V30 2902 C 258.636 5.25088 -0.803479 0
M  V30 2903 C 257.675 5.82579 -1.87799 0
M  V30 2904 N 256.812 6.89486 -1.32488 0
M  V30 2905 H 261.652 2.43254 -1.72138 0
M  V30 2906 H 259.189 1.19392 -0.859294 0
M  V30 2907 H 261.147 4.17174 0.0465583 0
M  V30 2908 H 259.777 3.17223 0.597459 0
M  V30 2909 H 258.829 3.34226 -1.81652 0
M  V30 2910 H 260.141 4.48307 -2.18684 0
M  V30 2911 H 259.295 6.05178 -0.429427 0
M  V30 2912 H 258.034 4.87684 0.0397956 0
M  V30 2913 H 257.039 5.01152 -2.26113 0
M  V30 2914 H 258.264 6.22045 -2.72463 0
M  V30 2915 H 256.21 6.54064 -0.503575 0
M  V30 2916 H 256.127 7.27007 -2.07355 0
M  V30 2917 H 257.395 7.73336 -0.978336 0
M  V30 2918 N 261.624 0.925811 1.2754 0
M  V30 2919 C 263.035 0.610102 1.7645 0
M  V30 2920 C 263.386 -0.874723 1.75622 0
M  V30 2921 O 262.511 -1.68444 1.35851 0
M  V30 2922 C 263.106 1.10073 3.20421 0
M  V30 2923 C 261.665 0.835723 3.67005 0
M  V30 2924 C 260.812 1.26054 2.46993 0
M  V30 2925 H 263.763 1.10579 1.13833 0
M  V30 2926 H 263.784 0.447557 3.77859 0
M  V30 2927 H 263.296 2.18143 3.20991 0
M  V30 2928 H 261.397 -0.231249 3.71882 0
M  V30 2929 H 261.51 1.45193 4.56569 0
M  V30 2930 H 259.874 0.679111 2.45479 0
M  V30 2931 H 260.657 2.34984 2.50275 0
M  V30 2932 N 263.102 -1.41638 0.69111 0
M  V30 2933 C 264.351 -2.00526 0.217318 0
M  V30 2934 C 264.664 -1.55353 -1.18848 0
M  V30 2935 O 265.87 -2.06769 -1.75951 0
M  V30 2936 C 264.326 -3.58313 0.337639 0
M  V30 2937 C 263.934 -4.12469 1.74852 0
M  V30 2938 C 265.678 -4.24431 -0.0766066 0
M  V30 2939 C 263.585 -5.62675 1.82074 0
M  V30 2940 H 262.515 -0.750008 0.0774893 0
M  V30 2941 H 265.166 -1.6217 0.858661 0
M  V30 2942 H 263.548 -3.9425 -0.371879 0
M  V30 2943 H 264.722 -3.8796 2.48644 0
M  V30 2944 H 263.037 -3.58861 2.11205 0
M  V30 2945 H 265.634 -5.34683 -0.0430284 0
M  V30 2946 H 265.977 -4.01101 -1.1146 0
M  V30 2947 H 266.51 -3.93512 0.582476 0
M  V30 2948 H 263.249 -5.90826 2.83911 0
M  V30 2949 H 262.769 -5.89124 1.12661 0
M  V30 2950 H 264.448 -6.27371 1.58159 0
M  V30 2951 N 264.58 -0.43555 -1.51462 0
M  V30 2952 C 265.857 0.191364 -1.94662 0
M  V30 2953 C 266.237 1.60254 -1.37411 0
M  V30 2954 O 265.585 2.2152 -0.560458 0
M  V30 2955 C 265.795 0.17091 -3.48581 0
M  V30 2956 C 267.143 0.377357 -4.2292 0
M  V30 2957 O 268.167 0.249104 -3.55328 0
M  V30 2958 O 267.026 0.63247 -5.42828 0
M  V30 2959 H 264.12 0.130932 -0.816569 0
M  V30 2960 H 266.666 -0.4934 -1.62369 0
M  V30 2961 H 265.438 -0.815738 -3.82703 0
M  V30 2962 H 265.061 0.898659 -3.87311 0
M  V30 2963 N 266.058 1.56714 -0.166846 0
M  V30 2964 C 267.288 2.00828 0.48494 0
M  V30 2965 C 267.696 1.04612 1.57648 0
M  V30 2966 O 267.039 0.0383201 1.8366 0
M  V30 2967 C 267.101 3.4137 1.12723 0
M  V30 2968 C 266.765 4.56654 0.177886 0
M  V30 2969 C 267.762 5.16402 -0.60207 0
M  V30 2970 C 265.447 5.02244 0.0750139 0
M  V30 2971 C 267.441 6.20167 -1.47215 0
M  V30 2972 C 265.128 6.05859 -0.798649 0
M  V30 2973 C 266.126 6.64691 -1.57082 0
M  V30 2974 O 265.814 7.66297 -2.42989 0
M  V30 2975 H 265.546 0.663587 0.128953 0
M  V30 2976 H 268.1 2.03692 -0.264365 0
M  V30 2977 H 266.33 3.35406 1.92457 0
M  V30 2978 H 268.019 3.69466 1.68076 0
M  V30 2979 H 268.785 4.82065 -0.53274 0
M  V30 2980 H 264.664 4.56167 0.665812 0
M  V30 2981 H 268.208 6.66016 -2.07531 0
M  V30 2982 H 264.105 6.39621 -0.869199 0
M  V30 2983 H 264.873 7.83601 -2.36455 0
M  V30 2984 N 267.536 -0.106894 1.57237 0
M  V30 2985 C 268.484 -1.14944 2.02215 0
M  V30 2986 C 269.478 -1.42167 0.92114 0
M  V30 2987 O 270.684 -1.41987 1.10634 0
M  V30 2988 H 267.059 -0.387841 0.64427 0
M  V30 2989 H 269.03 -0.743683 2.88984 0
M  V30 2990 C 267.779 -2.4647 2.4525 0
M  V30 2991 H 267.102 -2.26363 3.29545 0
M  V30 2992 H 268.542 -3.17948 2.80508 0
M  V30 2993 C 267.001 -3.09921 1.321 0
M  V30 2994 O 267.531 -3.9651 0.643622 0
M  V30 2995 N 265.737 -2.69986 1.07497 0
M  V30 2996 H 265.284 -1.99667 1.62761 0
M  V30 2997 H 265.242 -3.12769 0.319876 0
M  V30 2998 N 269.014 -1.53014 -0.377408 0
M  V30 2999 C 270.43 -1.42523 -0.718281 0
M  V30 3000 C 270.63 -0.55487 -1.9371 0
M  V30 3001 O 269.686 -0.0327593 -2.52479 0
M  V30 3002 C 270.999 -2.85546 -0.942539 0
M  V30 3003 C 272.547 -2.95101 -1.04329 0
M  V30 3004 C 273.022 -4.3916 -1.3001 0
M  V30 3005 N 274.513 -4.42536 -1.36806 0
M  V30 3006 C 275.248 -5.51097 -1.58364 0
M  V30 3007 N 274.744 -6.69724 -1.77317 0
M  V30 3008 N 276.537 -5.38657 -1.60638 0
M  V30 3009 H 268.688 -2.08116 0.424426 0
M  V30 3010 H 270.951 -0.939352 0.127759 0
M  V30 3011 H 270.657 -3.51499 -0.118929 0
M  V30 3012 H 270.531 -3.28493 -1.85397 0
M  V30 3013 H 272.918 -2.29309 -1.85745 0
M  V30 3014 H 272.999 -2.55566 -0.109505 0
M  V30 3015 H 272.643 -5.05521 -0.490991 0
M  V30 3016 H 272.573 -4.76258 -2.24691 0
M  V30 3017 H 275.064 -3.57039 -1.23821 0
M  V30 3018 H 275.377 -7.48233 -1.93306 0
M  V30 3019 H 273.722 -6.72732 -1.74518 0
M  V30 3020 H 276.913 -4.44948 -1.45391 0
M  V30 3021 H 277.086 -6.2333 -1.77098 0
M  V30 3022 N 270.492 0.636531 -1.44174 0
M  V30 3023 C 271.442 1.74233 -1.47061 0
M  V30 3024 C 272.426 1.57331 -0.337034 0
M  V30 3025 O 273.618 1.67159 -0.581973 0
M  V30 3026 C 270.747 3.12897 -1.41246 0
M  V30 3027 C 269.833 3.35288 -2.59698 0
M  V30 3028 N 270.224 3.2807 -3.84972 0
M  V30 3029 C 268.522 3.66065 -2.54778 0
M  V30 3030 C 269.223 3.51001 -4.63867 0
M  V30 3031 N 268.199 3.73616 -3.94857 0
M  V30 3032 H 272.001 1.67103 -2.41773 0
M  V30 3033 H 269.515 0.838806 -1.3906 0
M  V30 3034 H 271.512 3.92189 -1.41398 0
M  V30 3035 H 270.172 3.21197 -0.47569 0
M  V30 3036 H 271.183 3.07109 -4.17019 0
M  V30 3037 H 267.86 3.81379 -1.6987 0
M  V30 3038 H 269.25 3.51059 -5.72894 0
M  V30 3039 N 271.97 1.30982 0.876444 0
M  V30 3040 C 272.933 1.18054 1.96459 0
M  V30 3041 C 273.933 0.109399 1.60427 0
M  V30 3042 O 275.123 0.358173 1.70478 0
M  V30 3043 C 272.255 0.810616 3.31122 0
M  V30 3044 H 273.448 2.14735 2.09354 0
M  V30 3045 H 271.001 1.145 1.06392 0
M  V30 3046 H 271.736 -0.155322 3.23928 0
M  V30 3047 H 271.521 1.58481 3.58645 0
M  V30 3048 H 273.011 0.743876 4.10921 0
M  V30 3049 N 273.449 -1.08991 1.13837 0
M  V30 3050 C 274.695 -1.81526 0.90422 0
M  V30 3051 C 275.028 -1.85706 -0.568066 0
M  V30 3052 O 274.303 -1.32855 -1.42056 0
M  V30 3053 C 274.586 -3.27447 1.49835 0
M  V30 3054 C 274.439 -3.31512 3.04006 0
M  V30 3055 C 275.758 -4.24256 1.17025 0
M  V30 3056 H 272.877 -0.659029 0.329923 0
M  V30 3057 H 275.519 -1.27644 1.40737 0
M  V30 3058 H 273.669 -3.73462 1.07044 0
M  V30 3059 H 275.341 -2.93867 3.55584 0
M  V30 3060 H 273.584 -2.70963 3.38765 0
M  V30 3061 H 274.255 -4.34329 3.40679 0
M  V30 3062 H 276.731 -3.86549 1.54009 0
M  V30 3063 H 275.607 -5.24684 1.61237 0
M  V30 3064 H 275.868 -4.42019 0.0846274 0
M  V30 3065 N 274.927 -0.932562 -1.27047 0
M  V30 3066 C 276.173 -0.576412 -1.94436 0
M  V30 3067 C 276.506 0.880891 -1.73072 0
M  V30 3068 O 275.781 1.62905 -1.06264 0
M  V30 3069 C 276.064 -0.909031 -3.48437 0
M  V30 3070 C 275.917 -2.42044 -3.79123 0
M  V30 3071 C 277.236 -0.418341 -4.38107 0
M  V30 3072 H 274.355 -0.210888 -0.706184 0
M  V30 3073 H 276.997 -1.16522 -1.50075 0
M  V30 3074 H 275.147 -0.407947 -3.86352 0
M  V30 3075 H 276.819 -2.99359 -3.50973 0
M  V30 3076 H 275.062 -2.86758 -3.25503 0
M  V30 3077 H 275.733 -2.6037 -4.86736 0
M  V30 3078 H 278.209 -0.847856 -4.0737 0
M  V30 3079 H 277.085 -0.679981 -5.44672 0
M  V30 3080 H 277.346 0.681642 -4.36814 0
M  V30 3081 N 276.405 1.4127 -0.698611 0
M  V30 3082 C 277.338 2.28195 0.0153898 0
M  V30 3083 C 278.316 1.42402 0.784883 0
M  V30 3084 O 279.5 1.71828 0.775067 0
M  V30 3085 C 276.627 3.22685 1.02918 0
M  V30 3086 C 275.673 4.25041 0.352501 0
M  V30 3087 S 276.506 5.27757 -0.907322 0
M  V30 3088 C 277.662 6.25812 0.104796 0
M  V30 3089 H 277.895 2.88403 -0.721858 0
M  V30 3090 H 275.428 1.46452 -0.488996 0
M  V30 3091 H 277.386 3.77655 1.60893 0
M  V30 3092 H 276.047 2.61566 1.73902 0
M  V30 3093 H 275.24 4.91437 1.11828 0
M  V30 3094 H 274.842 3.73682 -0.154254 0
M  V30 3095 H 277.134 6.70705 0.957103 0
M  V30 3096 H 278.077 7.06149 -0.525323 0
M  V30 3097 H 278.485 5.62615 0.460931 0
M  V30 3098 N 277.883 0.443576 1.51229 0
M  V30 3099 C 278.793 -0.370721 2.31652 0
M  V30 3100 C 279.809 -1.02186 1.40833 0
M  V30 3101 O 280.985 -1.01586 1.73903 0
M  V30 3102 C 278.05 -1.45376 3.14749 0
M  V30 3103 C 277.111 -0.822099 4.21355 0
M  V30 3104 C 276.344 -1.85353 5.0048 0
M  V30 3105 O 276.567 -3.07656 4.80316 0
M  V30 3106 O 275.501 -1.4406 5.84406 0
M  V30 3107 H 279.327 0.286002 3.0235 0
M  V30 3108 H 276.912 0.20598 1.47973 0
M  V30 3109 H 278.794 -2.08173 3.66391 0
M  V30 3110 H 277.469 -2.09445 2.46809 0
M  V30 3111 H 276.376 -0.155909 3.73775 0
M  V30 3112 H 277.709 -0.224797 4.91686 0
M  V30 3113 N 279.361 -1.56624 0.175154 0
M  V30 3114 C 280.291 -2.21155 -0.749195 0
M  V30 3115 C 281.272 -1.16836 -1.23626 0
M  V30 3116 O 282.457 -1.45277 -1.28873 0
M  V30 3117 C 279.587 -2.8553 -1.97711 0
M  V30 3118 C 278.541 -3.95921 -1.62575 0
M  V30 3119 C 277.867 -4.47365 -2.92864 0
M  V30 3120 C 279.167 -5.15323 -0.850838 0
M  V30 3121 H 280.861 -2.98653 -0.211295 0
M  V30 3122 H 278.407 -1.43651 -0.100188 0
M  V30 3123 H 280.36 -3.2935 -2.62881 0
M  V30 3124 H 279.084 -2.05406 -2.53921 0
M  V30 3125 H 277.743 -3.52762 -0.997719 0
M  V30 3126 H 277.391 -3.64027 -3.47122 0
M  V30 3127 H 277.091 -5.21839 -2.70106 0
M  V30 3128 H 278.615 -4.93873 -3.59056 0
M  V30 3129 H 280.029 -5.55812 -1.40521 0
M  V30 3130 H 278.426 -5.95739 -0.722154 0
M  V30 3131 H 279.496 -4.84661 0.152082 0
M  V30 3132 N 280.839 0.0985539 -1.57292 0
M  V30 3133 C 282.088 0.801358 -1.85098 0
M  V30 3134 C 282.401 1.80066 -0.763902 0
M  V30 3135 O 283.607 2.55112 -0.928981 0
M  V30 3136 C 282.063 1.47599 -3.28242 0
M  V30 3137 C 281.671 0.516624 -4.45011 0
M  V30 3138 C 283.415 2.16272 -3.65276 0
M  V30 3139 C 281.322 1.19564 -5.79188 0
M  V30 3140 H 280.252 0.303022 -0.69043 0
M  V30 3141 H 282.903 0.0542623 -1.8342 0
M  V30 3142 H 281.285 2.27042 -3.2445 0
M  V30 3143 H 282.459 -0.246065 -4.60143 0
M  V30 3144 H 280.774 -0.064227 -4.1635 0
M  V30 3145 H 283.371 2.67802 -4.62803 0
M  V30 3146 H 283.714 2.95009 -2.93727 0
M  V30 3147 H 284.247 1.43693 -3.70941 0
M  V30 3148 H 280.986 0.449157 -6.53959 0
M  V30 3149 H 280.506 1.92984 -5.67906 0
M  V30 3150 H 282.185 1.7231 -6.23633 0
M  V30 3151 N 282.317 1.53212 0.369288 0
M  V30 3152 C 283.265 1.80054 1.47253 0
M  V30 3153 C 284.259 0.669456 1.55611 0
M  V30 3154 O 285.465 0.852328 1.58541 0
M  V30 3155 H 281.84 0.570034 0.490475 0
M  V30 3156 H 283.811 2.72403 1.21817 0
M  V30 3157 C 282.56 2.00403 2.84137 0
M  V30 3158 H 281.883 2.86876 2.78464 0
M  V30 3159 H 283.323 2.23164 3.60519 0
M  V30 3160 C 281.782 0.782081 3.27697 0
M  V30 3161 O 282.312 -0.0310205 4.01688 0
M  V30 3162 N 280.518 0.606573 2.84199 0
M  V30 3163 H 280.065 1.26939 2.24152 0
M  V30 3164 H 280.023 -0.20962 3.137 0
M  V30 3165 N 283.795 -0.628877 1.44509 0
M  V30 3166 C 285.043 -1.38565 1.4712 0
M  V30 3167 C 285.364 -1.94712 0.105899 0
M  V30 3168 O 284.634 -1.75912 -0.862079 0
M  V30 3169 H 283.214 -0.514333 0.541729 0
M  V30 3170 H 285.876 -0.740018 1.80305 0
M  V30 3171 H 284.972 -2.21583 2.19789 0
M  V30 3172 N 285.273 -1.31445 -0.869486 0
M  V30 3173 C 286.503 -1.23942 -1.65294 0
M  V30 3174 C 286.911 0.197561 -1.88166 0
M  V30 3175 O 286.254 1.14019 -1.44033 0
M  V30 3176 C 286.316 -1.91385 -3.04322 0
M  V30 3177 C 285.98 -3.40726 -3.04557 0
M  V30 3178 C 286.977 -4.36464 -2.82481 0
M  V30 3179 C 284.662 -3.82425 -3.25663 0
M  V30 3180 C 286.656 -5.71876 -2.8149 0
M  V30 3181 C 284.343 -5.1795 -3.243 0
M  V30 3182 C 285.341 -6.12486 -3.02241 0
M  V30 3183 O 285.029 -7.45534 -3.00724 0
M  V30 3184 H 284.761 -0.429459 -0.522054 0
M  V30 3185 H 287.315 -1.73873 -1.0935 0
M  V30 3186 H 285.545 -1.36004 -3.61994 0
M  V30 3187 H 287.234 -1.77791 -3.64891 0
M  V30 3188 H 288 -4.05576 -2.65956 0
M  V30 3189 H 283.879 -3.09274 -3.41863 0
M  V30 3190 H 287.423 -6.45638 -2.64191 0
M  V30 3191 H 283.32 -5.48473 -3.40365 0
M  V30 3192 H 284.088 -7.54713 -3.16782 0
M  V30 3193 N 286.751 1.08385 -1.14413 0
M  V30 3194 C 288.162 1.62258 -0.923535 0
M  V30 3195 C 288.513 1.88691 0.537595 0
M  V30 3196 O 287.638 1.64454 1.40655 0
M  V30 3197 C 288.233 2.94781 -1.67002 0
M  V30 3198 C 286.792 3.45437 -1.495 0
M  V30 3199 C 285.939 2.19668 -1.69238 0
M  V30 3200 H 288.89 0.916086 -1.2959 0
M  V30 3201 H 288.911 3.63229 -1.13334 0
M  V30 3202 H 288.423 2.7551 -2.73342 0
M  V30 3203 H 286.524 3.6981 -0.455097 0
M  V30 3204 H 286.637 4.22173 -2.2651 0
M  V30 3205 H 285.001 2.28849 -1.11804 0
M  V30 3206 H 285.784 2.02905 -2.7692 0
M  V30 3207 N 288.23 0.939286 1.26551 0
M  V30 3208 C 289.16 0.465044 2.28822 0
M  V30 3209 C 290.141 -0.480692 1.63167 0
M  V30 3210 O 291.326 -0.382955 1.90387 0
M  V30 3211 C 288.456 -0.27234 3.46231 0
M  V30 3212 C 287.41 0.58666 4.2396 0
M  V30 3213 C 286.736 -0.280573 5.33963 0
M  V30 3214 C 288.036 1.85704 4.88171 0
M  V30 3215 H 289.73 1.31979 2.68741 0
M  V30 3216 H 287.276 0.636061 1.29191 0
M  V30 3217 H 289.229 -0.615133 4.16886 0
M  V30 3218 H 287.953 -1.16121 3.0526 0
M  V30 3219 H 286.612 0.91232 3.55067 0
M  V30 3220 H 286.26 -1.16874 4.89234 0
M  V30 3221 H 285.96 0.29076 5.8688 0
M  V30 3222 H 287.484 -0.618678 6.07458 0
M  V30 3223 H 288.898 1.58161 5.51052 0
M  V30 3224 H 287.295 2.37279 5.51197 0
M  V30 3225 H 288.365 2.56957 4.11219 0
M  V30 3226 N 289.708 -1.40897 0.706093 0
M  V30 3227 C 290.948 -2.02916 0.245827 0
M  V30 3228 C 291.312 -1.54751 -1.13649 0
M  V30 3229 O 292.513 -2.08768 -1.69321 0
M  V30 3230 C 290.784 -3.56031 0.312537 0
M  V30 3231 S 292.343 -4.38741 -0.0721388 0
M  V30 3232 H 289.161 -0.704186 0.0982007 0
M  V30 3233 H 291.763 -1.72168 0.926207 0
M  V30 3234 H 290.467 -3.88579 1.32039 0
M  V30 3235 H 289.998 -3.91495 -0.386641 0
M  V30 3236 H 292.013 -4.78952 -1.29692 0
M  V30 3237 N 291.186 -0.45159 -1.50991 0
M  V30 3238 C 292.118 0.388634 -2.25881 0
M  V30 3239 C 293.131 0.974041 -1.30446 0
M  V30 3240 O 294.32 0.865758 -1.56099 0
M  V30 3241 C 291.42 1.5571 -3.01011 0
M  V30 3242 C 290.593 1.08801 -4.23652 0
M  V30 3243 C 289.652 2.12825 -4.8124 0
M  V30 3244 O 288.678 1.71678 -5.42693 0
M  V30 3245 N 289.88 3.45453 -4.66522 0
M  V30 3246 H 292.645 -0.25329 -2.98628 0
M  V30 3247 H 290.206 -0.281268 -1.59438 0
M  V30 3248 H 292.198 2.24952 -3.3642 0
M  V30 3249 H 290.768 2.10409 -2.31186 0
M  V30 3250 H 289.988 0.22215 -3.93574 0
M  V30 3251 H 291.276 0.752213 -5.03209 0
M  V30 3252 H 290.674 3.81605 -4.17605 0
M  V30 3253 H 289.231 4.10549 -5.06254 0
M  V30 3254 N 292.664 1.56529 -0.183458 0
M  V30 3255 C 293.913 1.96419 0.458511 0
M  V30 3256 C 294.226 1.0727 1.63562 0
M  V30 3257 O 295.432 1.36893 2.34462 0
M  V30 3258 C 293.888 3.49298 0.867122 0
M  V30 3259 C 293.496 4.47092 -0.285057 0
M  V30 3260 C 295.24 3.97983 1.47683 0
M  V30 3261 C 293.147 5.91225 0.143862 0
M  V30 3262 H 292.077 0.733394 0.175071 0
M  V30 3263 H 294.728 1.81448 -0.273624 0
M  V30 3264 H 293.11 3.59731 1.65559 0
M  V30 3265 H 294.284 4.48383 -1.0625 0
M  V30 3266 H 292.599 4.08535 -0.805503 0
M  V30 3267 H 295.196 5.03134 1.80999 0
M  V30 3268 H 295.539 3.41618 2.37914 0
M  V30 3269 H 296.072 3.90617 0.752562 0
M  V30 3270 H 292.811 6.5149 -0.723974 0
M  V30 3271 H 292.331 5.93214 0.886413 0
M  V30 3272 H 294.01 6.44362 0.583628 0
M  V30 3273 N 294.142 -0.090211 1.57342 0
M  V30 3274 C 295.092 -1.11557 1.98844 0
M  V30 3275 C 296.076 -1.35503 0.867624 0
M  V30 3276 O 297.268 -1.36113 1.13148 0
M  V30 3277 C 294.397 -2.43446 2.42051 0
M  V30 3278 C 293.483 -2.22853 3.60828 0
M  V30 3279 N 293.874 -1.72141 4.75606 0
M  V30 3280 C 292.172 -2.53401 3.67021 0
M  V30 3281 C 292.873 -1.65932 5.57531 0
M  V30 3282 N 291.849 -2.11323 5.00843 0
M  V30 3283 H 295.651 -0.716499 2.85032 0
M  V30 3284 H 293.165 -0.297567 1.59651 0
M  V30 3285 H 295.162 -3.17644 2.70014 0
M  V30 3286 H 293.822 -2.84087 1.57241 0
M  V30 3287 H 294.833 -1.41268 4.98261 0
M  V30 3288 H 291.51 -2.97532 2.92884 0
M  V30 3289 H 292.9 -1.27733 6.59647 0
M  V30 3290 N 295.62 -1.53406 -0.361157 0
M  V30 3291 C 296.57 -1.76536 -1.44287 0
M  V30 3292 C 297.554 -0.620019 -1.48474 0
M  V30 3293 O 298.746 -0.878834 -1.53641 0
M  V30 3294 C 295.875 -1.96266 -2.81664 0
M  V30 3295 C 294.961 -3.16815 -2.81938 0
M  V30 3296 N 295.352 -4.38637 -2.51855 0
M  V30 3297 C 293.65 -3.17627 -3.13096 0
M  V30 3298 C 294.351 -5.20401 -2.59919 0
M  V30 3299 N 293.327 -4.56712 -2.94814 0
M  V30 3300 H 297.129 -2.68331 -1.19899 0
M  V30 3301 H 294.643 -1.52091 -0.56938 0
M  V30 3302 H 296.64 -2.10966 -3.59582 0
M  V30 3303 H 295.3 -1.05702 -3.07013 0
M  V30 3304 H 296.311 -4.66293 -2.25369 0
M  V30 3305 H 292.988 -2.36971 -3.43731 0
M  V30 3306 H 294.378 -6.27586 -2.39969 0
M  V30 3307 N 297.098 0.621204 -1.44841 0
M  V30 3308 C 298.344 1.3826 -1.48365 0
M  V30 3309 C 298.677 1.93831 -0.119624 0
M  V30 3310 O 297.952 1.74251 0.864111 0
M  V30 3311 C 298.235 2.54058 -2.55199 0
M  V30 3312 C 298.088 2.03772 -4.00995 0
M  V30 3313 C 299.407 3.56225 -2.58442 0
M  V30 3314 H 296.526 0.501374 -0.540179 0
M  V30 3315 H 299.168 0.7015 -1.76576 0
M  V30 3316 H 297.318 3.12162 -2.31274 0
M  V30 3317 H 298.99 1.50423 -4.36086 0
M  V30 3318 H 297.233 1.34876 -4.12299 0
M  V30 3319 H 297.904 2.87185 -4.71411 0
M  V30 3320 H 300.38 3.07939 -2.79844 0
M  V30 3321 H 299.256 4.34756 -3.3508 0
M  V30 3322 H 299.517 4.10949 -1.63013 0
M  V30 3323 N 298.576 1.31904 0.862503 0
M  V30 3324 C 299.486 1.22161 2.00285 0
M  V30 3325 C 300.502 0.136785 1.73462 0
M  V30 3326 O 301.678 0.355994 1.98229 0
M  V30 3327 C 298.743 0.937093 3.33796 0
M  V30 3328 C 297.804 2.10957 3.73893 0
M  V30 3329 C 297.037 1.83853 5.01033 0
M  V30 3330 O 297.26 0.777274 5.65079 0
M  V30 3331 O 296.194 2.69741 5.38074 0
M  V30 3332 H 300.02 2.18008 2.11439 0
M  V30 3333 H 297.605 1.11716 0.991957 0
M  V30 3334 H 299.487 0.794583 4.13841 0
M  V30 3335 H 298.162 0.00871894 3.23699 0
M  V30 3336 H 297.069 2.30752 2.94456 0
M  V30 3337 H 298.402 3.02046 3.88625 0
M  V30 3338 N 300.054 -1.07777 1.14986 0
M  V30 3339 C 301.331 -1.7699 0.832695 0
M  V30 3340 C 301.711 -2.001 -0.672561 0
M  V30 3341 O 301.059 -1.61598 -1.6155 0
M  V30 3342 C 301.269 -3.08139 1.63863 0
M  V30 3343 C 302.617 -3.8256 1.84208 0
M  V30 3344 O 303.641 -3.17939 1.60603 0
M  V30 3345 O 302.5 -4.98612 2.23714 0
M  V30 3346 H 299.594 -0.768389 0.305791 0
M  V30 3347 H 302.14 -1.14182 1.25541 0
M  V30 3348 H 300.912 -2.86909 2.6608 0
M  V30 3349 H 300.535 -3.78678 1.21197 0
M  V30 3350 N 301.532 -0.945985 -1.26051 0
M  V30 3351 C 302.943 -0.638096 -1.75457 0
M  V30 3352 C 303.294 0.846672 -1.76991 0
M  V30 3353 O 302.419 1.66262 -1.38513 0
M  V30 3354 C 303.014 -1.15157 -3.18629 0
M  V30 3355 C 301.573 -0.894004 -3.65629 0
M  V30 3356 C 300.72 -1.29967 -2.44957 0
M  V30 3357 H 303.671 -1.12376 -1.1206 0
M  V30 3358 H 303.692 -0.507615 -3.77099 0
M  V30 3359 H 303.204 -2.23222 -3.1748 0
M  V30 3360 H 301.305 0.172057 -3.72203 0
M  V30 3361 H 301.418 -1.52439 -4.54202 0
M  V30 3362 H 299.782 -0.718078 -2.44368 0
M  V30 3363 H 300.565 -2.38935 -2.46505 0
M  V30 3364 N 303.011 1.40521 -0.713556 0
M  V30 3365 C 303.974 2.29098 -0.0684347 0
M  V30 3366 C 304.974 1.45268 0.689472 0
M  V30 3367 O 306.164 1.66205 0.521677 0
M  V30 3368 C 303.296 3.28446 0.913024 0
M  V30 3369 H 304.489 2.87645 -0.84855 0
M  V30 3370 H 302.042 1.48809 -0.47809 0
M  V30 3371 H 302.777 2.74913 1.72027 0
M  V30 3372 H 302.562 3.90327 0.372472 0
M  V30 3373 H 304.052 3.94777 1.36165 0
M  V30 3374 N 304.489 0.459591 1.5075 0
M  V30 3375 C 305.714 -0.0996819 2.0716 0
M  V30 3376 C 306.139 -1.33761 1.32249 0
M  V30 3377 O 305.497 -1.77551 0.366786 0
M  V30 3378 C 305.545 -0.378226 3.58611 0
M  V30 3379 O 304.649 -1.46081 3.85661 0
M  V30 3380 H 303.99 0.00791392 0.663953 0
M  V30 3381 H 306.52 0.647329 1.9409 0
M  V30 3382 H 306.53 -0.622135 4.03229 0
M  V30 3383 H 305.205 0.526439 4.12555 0
M  V30 3384 H 303.782 -1.20511 3.5289 0
M  V30 3385 N 305.967 -1.56429 0.191757 0
M  V30 3386 C 307.213 -1.97777 -0.448554 0
M  V30 3387 C 307.546 -1.07847 -1.61501 0
M  V30 3388 O 306.821 -0.129774 -1.94067 0
M  V30 3389 C 307.104 -3.48362 -0.911906 0
M  V30 3390 C 306.957 -4.4907 0.256136 0
M  V30 3391 C 308.276 -4.02561 -1.77857 0
M  V30 3392 H 305.395 -0.719071 -0.161572 0
M  V30 3393 H 308.037 -1.87896 0.282007 0
M  V30 3394 H 306.187 -3.56914 -1.53442 0
M  V30 3395 H 307.859 -4.5256 0.893733 0
M  V30 3396 H 306.102 -4.24181 0.908436 0
M  V30 3397 H 306.773 -5.51889 -0.11053 0
M  V30 3398 H 309.249 -3.96767 -1.25359 0
M  V30 3399 H 308.125 -5.08301 -2.07174 0
M  V30 3400 H 308.386 -3.47616 -2.73158 0
M  V30 3401 N 307.445 0.0818655 -1.57387 0
M  V30 3402 C 308.675 0.794954 -1.90694 0
M  V30 3403 C 309.083 1.72147 -0.784982 0
M  V30 3404 O 308.426 1.81974 0.251196 0
M  V30 3405 C 308.488 1.65042 -3.19376 0
M  V30 3406 C 308.152 0.894337 -4.48164 0
M  V30 3407 C 309.149 0.21813 -5.19442 0
M  V30 3408 C 306.834 0.864495 -4.94805 0
M  V30 3409 C 308.828 -0.477802 -6.35607 0
M  V30 3410 C 306.515 0.164785 -6.10878 0
M  V30 3411 C 307.513 -0.505173 -6.81129 0
M  V30 3412 O 307.201 -1.19363 -7.94989 0
M  V30 3413 H 306.933 0.231779 -0.635023 0
M  V30 3414 H 309.487 0.059493 -2.05314 0
M  V30 3415 H 307.717 2.42844 -3.00938 0
M  V30 3416 H 309.406 2.24127 -3.38411 0
M  V30 3417 H 310.172 0.232558 -4.84442 0
M  V30 3418 H 306.051 1.37542 -4.40004 0
M  V30 3419 H 309.595 -1.00129 -6.90377 0
M  V30 3420 H 305.492 0.148249 -6.4533 0
M  V30 3421 H 306.26 -1.10188 -8.11049 0
M  V30 3422 N 308.923 1.53595 0.353017 0
M  V30 3423 C 310.2 1.61002 1.11075 0
M  V30 3424 C 310.58 0.425356 2.0677 0
M  V30 3425 O 309.928 -0.583267 2.2093 0
M  V30 3426 C 310.138 2.96631 1.83877 0
M  V30 3427 C 311.486 3.51653 2.37961 0
M  V30 3428 O 312.51 2.98743 1.93987 0
M  V30 3429 O 311.369 4.44177 3.18386 0
M  V30 3430 H 308.463 0.650825 0.510251 0
M  V30 3431 H 311.009 1.6594 0.35527 0
M  V30 3432 H 309.781 3.74293 1.14108 0
M  V30 3433 H 309.404 2.95242 2.66304 0
M  V30 3434 N 310.401 -0.613514 1.45168 0
M  V30 3435 C 311.311 -1.75296 1.55912 0
M  V30 3436 C 312.327 -1.68244 0.443856 0
M  V30 3437 O 313.503 -1.88706 0.70371 0
M  V30 3438 C 310.568 -3.1174 1.5172 0
M  V30 3439 C 309.629 -3.30291 2.74238 0
M  V30 3440 C 308.862 -4.60226 2.70236 0
M  V30 3441 O 309.085 -5.42168 1.77229 0
M  V30 3442 O 308.019 -4.81361 3.61352 0
M  V30 3443 H 311.845 -1.69183 2.52212 0
M  V30 3444 H 309.43 -0.776886 1.27612 0
M  V30 3445 H 311.312 -3.93044 1.51968 0
M  V30 3446 H 309.987 -3.18357 0.585697 0
M  V30 3447 H 308.894 -2.48598 2.79553 0
M  V30 3448 H 310.227 -3.28547 3.66494 0
M  V30 3449 N 311.879 -1.3236 -0.855495 0
M  V30 3450 C 312.842 -1.21164 -1.94556 0
M  V30 3451 C 313.842 -0.134908 -1.60233 0
M  V30 3452 O 315.032 -0.385249 -1.69887 0
M  V30 3453 C 312.164 -0.863192 -3.29791 0
M  V30 3454 H 313.357 -2.18038 -2.05911 0
M  V30 3455 H 310.91 -1.16179 -1.04557 0
M  V30 3456 H 311.645 0.103769 -3.24134 0
M  V30 3457 H 311.43 -1.64166 -3.56078 0
M  V30 3458 H 312.92 -0.809156 -4.09686 0
M  V30 3459 N 313.357 1.07166 -1.15556 0
M  V30 3460 C 314.29 2.13808 -0.797593 0
M  V30 3461 C 315.268 1.6101 0.226812 0
M  V30 3462 O 316.452 1.88161 0.112932 0
M  V30 3463 C 313.579 3.38187 -0.186371 0
M  V30 3464 C 312.625 4.09766 -1.18297 0
M  V30 3465 S 313.458 4.60932 -2.72584 0
M  V30 3466 C 314.614 5.88583 -2.12886 0
M  V30 3467 H 314.847 2.43843 -1.70083 0
M  V30 3468 H 312.38 1.19467 -0.978106 0
M  V30 3469 H 314.338 4.10189 0.159837 0
M  V30 3470 H 312.999 3.06326 0.694489 0
M  V30 3471 H 312.192 4.99065 -0.703562 0
M  V30 3472 H 311.794 3.43736 -1.47381 0
M  V30 3473 H 314.086 6.60866 -1.49208 0
M  V30 3474 H 315.029 6.41241 -3.0036 0
M  V30 3475 H 315.437 5.42194 -1.57116 0
M  V30 3476 N 314.835 0.952656 1.25548 0
M  V30 3477 C 315.745 0.47782 2.29682 0
M  V30 3478 C 316.761 -0.453859 1.67977 0
M  V30 3479 O 317.937 -0.330587 1.98668 0
M  V30 3480 C 315.002 -0.238655 3.45878 0
M  V30 3481 C 314.063 0.730994 4.23031 0
M  V30 3482 C 313.296 0.0486165 5.33678 0
M  V30 3483 O 313.519 -1.16612 5.58353 0
M  V30 3484 O 312.453 0.733152 5.97418 0
M  V30 3485 H 316.279 1.34312 2.72386 0
M  V30 3486 H 313.864 0.719026 1.30959 0
M  V30 3487 H 315.746 -0.641774 4.16484 0
M  V30 3488 H 314.421 -1.07916 3.05181 0
M  V30 3489 H 313.328 1.18428 3.5486 0
M  V30 3490 H 314.661 1.53946 4.67506 0
M  V30 3491 N 316.313 -1.40141 0.720998 0
M  V30 3492 C 317.243 -2.33339 0.0867621 0
M  V30 3493 C 318.224 -1.53178 -0.739622 0
M  V30 3494 O 319.409 -1.81625 -0.687449 0
M  V30 3495 C 316.539 -3.37194 -0.831728 0
M  V30 3496 C 315.493 -4.27857 -0.110558 0
M  V30 3497 C 314.819 -5.22294 -1.14513 0
M  V30 3498 C 316.119 -5.11872 1.0385 0
M  V30 3499 H 317.813 -2.86626 0.865219 0
M  V30 3500 H 315.359 -1.37814 0.417516 0
M  V30 3501 H 317.312 -4.01335 -1.28485 0
M  V30 3502 H 316.036 -2.82314 -1.64214 0
M  V30 3503 H 314.695 -3.65176 0.322797 0
M  V30 3504 H 314.343 -4.63717 -1.94874 0
M  V30 3505 H 314.043 -5.83797 -0.667446 0
M  V30 3506 H 315.567 -5.89312 -1.59824 0
M  V30 3507 H 316.981 -5.69436 0.664482 0
M  V30 3508 H 315.378 -5.82445 1.4449 0
M  V30 3509 H 316.448 -4.4753 1.86668 0
M  V30 3510 N 317.792 -0.46758 -1.50504 0
M  V30 3511 C 319.041 0.0902868 -2.01498 0
M  V30 3512 C 319.354 1.411 -1.35463 0
M  V30 3513 O 320.56 2.0536 -1.77594 0
M  V30 3514 C 319.016 0.21142 -3.59278 0
M  V30 3515 C 318.624 -1.10065 -4.34269 0
M  V30 3516 C 320.368 0.721433 -4.18325 0
M  V30 3517 C 318.275 -0.943505 -5.83825 0
M  V30 3518 H 317.205 0.037517 -0.753066 0
M  V30 3519 H 319.856 -0.601943 -1.73346 0
M  V30 3520 H 318.238 0.967352 -3.84003 0
M  V30 3521 H 319.412 -1.86726 -4.21272 0
M  V30 3522 H 317.727 -1.5415 -3.86816 0
M  V30 3523 H 320.324 0.85598 -5.27804 0
M  V30 3524 H 320.667 1.71186 -3.79475 0
M  V30 3525 H 321.2 0.0229843 -3.97793 0
M  V30 3526 H 317.939 -1.90719 -6.27141 0
M  V30 3527 H 317.459 -0.217213 -5.99407 0
M  V30 3528 H 319.138 -0.608715 -6.4413 0
M  V30 3529 N 319.27 1.56325 -0.20005 0
M  V30 3530 C 320.516 1.98012 0.438059 0
M  V30 3531 C 320.849 1.08702 1.60927 0
M  V30 3532 O 320.124 0.140064 1.93995 0
M  V30 3533 C 320.407 3.48841 0.893419 0
M  V30 3534 C 320.26 4.48928 -0.279947 0
M  V30 3535 C 321.579 4.03498 1.75719 0
M  V30 3536 H 318.698 0.719918 0.157757 0
M  V30 3537 H 321.34 1.87743 -0.291968 0
M  V30 3538 H 319.49 3.57723 1.51547 0
M  V30 3539 H 321.162 4.52079 -0.91772 0
M  V30 3540 H 319.405 4.23694 -0.930919 0
M  V30 3541 H 320.076 5.5194 0.0812601 0
M  V30 3542 H 322.552 3.97427 1.23253 0
M  V30 3543 H 321.428 5.09393 2.04476 0
M  V30 3544 H 321.689 3.4906 2.71311 0
M  V30 3545 N 320.748 -0.0735177 1.57428 0
M  V30 3546 C 321.695 -1.08756 2.0357 0
M  V30 3547 C 322.665 -1.38559 0.916 0
M  V30 3548 O 323.85 -1.49656 1.18354 0
M  V30 3549 C 320.99 -2.39657 2.48311 0
M  V30 3550 C 320.103 -2.16399 3.73892 0
M  V30 3551 C 319.238 -3.40852 4.07423 0
M  V30 3552 C 318.277 -3.1295 5.2605 0
M  V30 3553 N 317.414 -4.29729 5.55228 0
M  V30 3554 H 322.254 -0.687104 2.8997 0
M  V30 3555 H 319.791 -0.327709 1.43403 0
M  V30 3556 H 321.749 -3.16081 2.72303 0
M  V30 3557 H 320.379 -2.77508 1.64891 0
M  V30 3558 H 319.431 -1.30676 3.57251 0
M  V30 3559 H 320.743 -1.91788 4.60455 0
M  V30 3560 H 319.897 -4.25671 4.32306 0
M  V30 3561 H 318.636 -3.68537 3.19425 0
M  V30 3562 H 317.641 -2.26526 5.00965 0
M  V30 3563 H 318.866 -2.86589 6.15665 0
M  V30 3564 H 316.812 -4.57448 4.70188 0
M  V30 3565 H 316.729 -4.08385 6.36206 0
M  V30 3566 H 317.997 -5.1555 5.84661 0
M  V30 3567 N 322.226 -1.5378 -0.344866 0
M  V30 3568 C 323.156 -1.84662 -1.42906 0
M  V30 3569 C 324.137 -0.701648 -1.54955 0
M  V30 3570 O 325.322 -0.953438 -1.69184 0
M  V30 3571 C 322.452 -2.05503 -2.79974 0
M  V30 3572 C 321.406 -3.21318 -2.82734 0
M  V30 3573 C 320.732 -3.2749 -4.22675 0
M  V30 3574 C 322.032 -4.59456 -2.48389 0
M  V30 3575 H 323.726 -2.75461 -1.17311 0
M  V30 3576 H 321.272 -1.32542 -0.562896 0
M  V30 3577 H 323.225 -2.25691 -3.55867 0
M  V30 3578 H 321.949 -1.11434 -3.07002 0
M  V30 3579 H 320.608 -3.00984 -2.09294 0
M  V30 3580 H 320.256 -2.31019 -4.4681 0
M  V30 3581 H 319.956 -4.05316 -4.25433 0
M  V30 3582 H 321.48 -3.49887 -5.00412 0
M  V30 3583 H 322.894 -4.79667 -3.13995 0
M  V30 3584 H 321.291 -5.39675 -2.62432 0
M  V30 3585 H 322.361 -4.63155 -1.4358 0
M  V30 3586 N 323.704 0.605807 -1.45491 0
M  V30 3587 C 324.667 1.69836 -1.5391 0
M  V30 3588 C 325.667 1.55261 -0.418424 0
M  V30 3589 O 326.857 1.60296 -0.681965 0
M  V30 3590 C 323.989 3.09117 -1.43734 0
M  V30 3591 H 325.182 1.63738 -2.51257 0
M  V30 3592 H 322.735 0.821689 -1.32959 0
M  V30 3593 H 323.47 3.20791 -0.475788 0
M  V30 3594 H 323.255 3.21104 -2.25021 0
M  V30 3595 H 324.745 3.88696 -1.52661 0
M  V30 3596 N 325.182 1.32811 0.848464 0
M  V30 3597 C 326.13 1.22231 1.97895 0
M  V30 3598 C 327.124 0.125749 1.68933 0
M  V30 3599 O 328.33 0.289083 1.77663 0
M  V30 3600 H 324.705 0.379058 0.649476 0
M  V30 3601 H 326.676 2.17828 2.03945 0
M  V30 3602 C 325.425 0.968572 3.33937 0
M  V30 3603 H 324.748 1.80458 3.56756 0
M  V30 3604 H 326.188 0.934808 4.13567 0
M  V30 3605 C 324.647 -0.328628 3.35293 0
M  V30 3606 O 325.177 -1.33848 3.78745 0
M  V30 3607 N 323.383 -0.352788 2.88451 0
M  V30 3608 H 322.93 0.469541 2.53285 0
M  V30 3609 H 322.888 -1.22057 2.89741 0
M  V30 3610 N 326.66 -1.06551 1.16123 0
M  V30 3611 C 327.61 -2.12209 0.833736 0
M  V30 3612 C 328.594 -1.59825 -0.185656 0
M  V30 3613 O 329.786 -1.76994 0.0147906 0
M  V30 3614 C 326.915 -3.41674 0.333697 0
M  V30 3615 C 326.001 -4.00892 1.38372 0
M  V30 3616 N 326.392 -4.34256 2.59337 0
M  V30 3617 C 324.69 -4.28463 1.23836 0
M  V30 3618 C 325.391 -4.81291 3.26701 0
M  V30 3619 N 324.367 -4.80565 2.54083 0
M  V30 3620 H 328.169 -2.35849 1.75364 0
M  V30 3621 H 325.683 -1.24068 1.04789 0
M  V30 3622 H 327.68 -4.16822 0.0806918 0
M  V30 3623 H 326.34 -3.19475 -0.58017 0
M  V30 3624 H 327.351 -4.24687 2.96415 0
M  V30 3625 H 324.028 -4.15721 0.38504 0
M  V30 3626 H 325.418 -5.16332 4.29943 0
M  V30 3627 N 328.138 -0.959301 -1.25041 0
M  V30 3628 C 329.386 -0.615393 -1.92503 0
M  V30 3629 C 329.707 0.850969 -1.75452 0
M  V30 3630 O 328.977 1.60658 -1.12098 0
M  V30 3631 H 327.557 -0.224613 -0.712431 0
M  V30 3632 H 330.219 -1.21855 -1.5211 0
M  V30 3633 H 329.315 -0.848738 -3.00338 0
M  V30 3634 N 329.616 1.39756 -0.72842 0
M  V30 3635 C 330.546 2.33289 -0.0991354 0
M  V30 3636 C 331.527 1.53568 0.731489 0
M  V30 3637 O 332.712 1.81987 0.677807 0
M  V30 3638 C 329.842 3.3763 0.813834 0
M  V30 3639 C 328.796 4.2791 0.0878663 0
M  V30 3640 C 328.122 5.22894 1.11741 0
M  V30 3641 C 329.422 5.11314 -1.06563 0
M  V30 3642 H 331.116 2.86163 -0.880408 0
M  V30 3643 H 328.662 1.37591 -0.424819 0
M  V30 3644 H 330.615 4.0201 1.26355 0
M  V30 3645 H 329.339 2.83181 1.62715 0
M  V30 3646 H 327.998 3.65 -0.342159 0
M  V30 3647 H 327.646 4.64744 1.92412 0
M  V30 3648 H 327.346 5.84143 0.636477 0
M  V30 3649 H 328.87 5.90151 1.56697 0
M  V30 3650 H 330.284 5.69076 -0.694671 0
M  V30 3651 H 328.681 5.81671 -1.47577 0
M  V30 3652 H 329.751 4.46534 -1.89038 0
M  V30 3653 N 331.094 0.475555 1.50254 0
M  V30 3654 C 332.343 -0.0795996 2.01543 0
M  V30 3655 C 332.656 -1.4038 1.36209 0
M  V30 3656 O 333.862 -2.04415 1.7868 0
M  V30 3657 C 332.318 -0.192363 3.59386 0
M  V30 3658 C 331.926 1.12367 4.33679 0
M  V30 3659 C 333.67 -0.699238 4.18701 0
M  V30 3660 C 331.577 0.974453 5.83317 0
M  V30 3661 H 330.507 -0.0335228 0.753254 0
M  V30 3662 H 333.158 0.611128 1.73025 0
M  V30 3663 H 331.54 -0.946974 3.84511 0
M  V30 3664 H 332.714 1.88958 4.20276 0
M  V30 3665 H 331.029 1.562 3.85993 0
M  V30 3666 H 333.626 -0.827978 5.28251 0
M  V30 3667 H 333.969 -1.69171 3.80377 0
M  V30 3668 H 334.502 -0.00188807 3.978 0
M  V30 3669 H 331.241 1.94042 6.26121 0
M  V30 3670 H 330.761 0.248998 5.99283 0
M  V30 3671 H 332.44 0.642867 6.43798 0
M  V30 3672 N 332.573 -1.56217 0.208337 0
M  V30 3673 C 333.523 -2.16324 -0.720281 0
M  V30 3674 C 334.507 -1.10775 -1.16695 0
M  V30 3675 O 335.699 -1.36801 -1.12314 0
M  V30 3676 C 332.828 -2.83644 -1.93393 0
M  V30 3677 C 331.914 -3.96401 -1.50755 0
M  V30 3678 N 332.305 -4.99546 -0.792937 0
M  V30 3679 C 330.603 -4.08246 -1.79585 0
M  V30 3680 C 331.304 -5.78828 -0.577364 0
M  V30 3681 N 330.28 -5.31723 -1.1301 0
M  V30 3682 H 334.082 -2.93432 -0.165725 0
M  V30 3683 H 331.596 -1.62397 0.00906463 0
M  V30 3684 H 333.593 -3.25107 -2.60981 0
M  V30 3685 H 332.253 -2.08027 -2.49308 0
M  V30 3686 H 333.264 -5.15967 -0.447004 0
M  V30 3687 H 329.941 -3.4377 -2.36915 0
M  V30 3688 H 331.331 -6.71899 -0.00952956 0
M  V30 3689 N 334.051 0.0651679 -1.57465 0
M  V30 3690 C 335.299 0.761555 -1.87202 0
M  V30 3691 C 335.62 1.77778 -0.801243 0
M  V30 3692 O 334.89 1.95166 0.16937 0
M  V30 3693 H 333.47 0.284251 -0.690804 0
M  V30 3694 H 336.132 0.0396827 -1.9486 0
M  V30 3695 H 335.228 1.27365 -2.84929 0
M  V30 3696 N 335.529 1.53961 0.336706 0
M  V30 3697 C 336.806 1.62171 1.09361 0
M  V30 3698 C 337.186 0.447263 2.06307 0
M  V30 3699 O 336.534 -0.559802 2.21537 0
M  V30 3700 C 336.744 2.98565 1.80721 0
M  V30 3701 C 338.092 3.54157 2.34218 0
M  V30 3702 O 339.116 3.00784 1.90807 0
M  V30 3703 O 337.975 4.47528 3.13657 0
M  V30 3704 H 335.069 0.6562 0.503319 0
M  V30 3705 H 337.615 1.66307 0.33765 0
M  V30 3706 H 336.387 3.75482 1.10132 0
M  V30 3707 H 336.01 2.9805 2.63158 0
M  V30 3708 N 337.007 -0.598083 1.45811 0
M  V30 3709 C 338.254 -1.35681 1.50323 0
M  V30 3710 C 338.582 -1.9393 0.148739 0
M  V30 3711 O 337.837 -1.76094 -0.853787 0
M  V30 3712 C 338.136 -2.51669 2.53766 0
M  V30 3713 C 337.802 -2.11508 3.98215 0
M  V30 3714 C 336.464 -2.0027 4.37545 0
M  V30 3715 C 338.816 -1.80308 4.89018 0
M  V30 3716 C 336.144 -1.56067 5.65562 0
M  V30 3717 C 338.496 -1.37589 6.17456 0
M  V30 3718 C 337.16 -1.24916 6.55708 0
M  V30 3719 H 336.43 -0.496492 0.550069 0
M  V30 3720 H 339.077 -0.675052 1.79207 0
M  V30 3721 H 337.382 -3.25225 2.18486 0
M  V30 3722 H 339.079 -3.09895 2.54492 0
M  V30 3723 H 335.669 -2.21185 3.67117 0
M  V30 3724 H 339.853 -1.87884 4.59362 0
M  V30 3725 H 335.109 -1.44886 5.93985 0
M  V30 3726 H 339.283 -1.12495 6.87254 0
M  V30 3727 H 336.91 -0.904386 7.54801 0
M  V30 3728 N 338.485 -1.33259 -0.841409 0
M  V30 3729 C 339.433 -1.23279 -1.97244 0
M  V30 3730 C 340.427 -0.134706 -1.68864 0
M  V30 3731 O 341.633 -0.298501 -1.77508 0
M  V30 3732 H 338.008 -0.382497 -0.647457 0
M  V30 3733 H 339.979 -2.18906 -2.02787 0
M  V30 3734 C 338.728 -0.986268 -3.33419 0
M  V30 3735 H 338.051 -1.82347 -3.55794 0
M  V30 3736 H 339.491 -0.956728 -4.13065 0
M  V30 3737 C 337.95 0.310842 -3.35463 0
M  V30 3738 O 338.48 1.31838 -3.79449 0
M  V30 3739 N 336.686 0.337485 -2.88634 0
M  V30 3740 H 336.233 -0.482967 -2.53032 0
M  V30 3741 H 336.191 1.20518 -2.90384 0
M  V30 3742 N 339.963 1.05934 -1.16686 0
M  V30 3743 C 340.873 2.17014 -0.891183 0
M  V30 3744 C 341.889 1.73453 0.137907 0
M  V30 3745 O 343.065 2.01361 -0.039592 0
M  V30 3746 C 340.13 3.44384 -0.400099 0
M  V30 3747 C 339.191 4.02433 -1.49486 0
M  V30 3748 C 338.424 5.23723 -1.02711 0
M  V30 3749 O 338.647 5.7027 0.121716 0
M  V30 3750 O 337.581 5.7382 -1.81699 0
M  V30 3751 H 341.407 2.43113 -1.82015 0
M  V30 3752 H 338.992 1.15541 -0.947132 0
M  V30 3753 H 340.874 4.21189 -0.133392 0
M  V30 3754 H 339.549 3.19802 0.500817 0
M  V30 3755 H 338.456 3.27102 -1.81535 0
M  V30 3756 H 339.789 4.31317 -2.37121 0
M  V30 3757 N 341.441 0.965919 1.2453 0
M  V30 3758 C 342.688 0.626831 1.92554 0
M  V30 3759 C 343.016 -0.837739 1.75534 0
M  V30 3760 O 342.271 -1.61793 1.10098 0
M  V30 3761 C 342.57 0.945428 3.44669 0
M  V30 3762 C 342.236 2.39785 3.81856 0
M  V30 3763 C 340.898 2.79483 3.91718 0
M  V30 3764 C 343.25 3.34055 4.00071 0
M  V30 3765 C 340.578 4.12496 4.1721 0
M  V30 3766 C 342.93 4.66694 4.27059 0
M  V30 3767 C 341.594 5.06172 4.3514 0
M  V30 3768 H 340.864 0.229374 0.704605 0
M  V30 3769 H 343.511 1.21707 1.4785 0
M  V30 3770 H 341.816 0.272926 3.90848 0
M  V30 3771 H 343.513 0.661484 3.95507 0
M  V30 3772 H 340.103 2.08003 3.74743 0
M  V30 3773 H 344.287 3.04571 3.91855 0
M  V30 3774 H 339.543 4.42709 4.21685 0
M  V30 3775 H 343.717 5.3971 4.40097 0
M  V30 3776 H 341.344 6.09262 4.54646 0
M  V30 3777 N 342.919 -1.39368 0.735821 0
M  V30 3778 C 343.867 -2.32443 0.0855131 0
M  V30 3779 C 344.861 -1.53104 -0.724954 0
M  V30 3780 O 346.067 -1.68762 -0.626047 0
M  V30 3781 H 342.442 -0.751948 0.00885257 0
M  V30 3782 H 344.413 -2.84916 0.886883 0
M  V30 3783 C 343.162 -3.38206 -0.806983 0
M  V30 3784 H 342.485 -3.99335 -0.19274 0
M  V30 3785 H 343.925 -4.05779 -1.2296 0
M  V30 3786 C 342.384 -2.75321 -1.94165 0
M  V30 3787 O 342.914 -2.63231 -3.03435 0
M  V30 3788 N 341.12 -2.33396 -1.73132 0
M  V30 3789 H 340.667 -2.4343 -0.842596 0
M  V30 3790 H 340.625 -1.91661 -2.49225 0
M  V30 3791 N 344.397 -0.483516 -1.5 0
M  V30 3792 C 345.327 0.293829 -2.31644 0
M  V30 3793 C 346.308 0.978864 -1.39112 0
M  V30 3794 O 347.493 0.973644 -1.68029 0
M  V30 3795 C 344.623 1.36897 -3.19181 0
M  V30 3796 C 343.577 0.804833 -4.20365 0
M  V30 3797 C 342.903 1.9792 -4.96721 0
M  V30 3798 C 344.203 -0.192313 -5.21946 0
M  V30 3799 H 345.897 -0.387616 -2.9688 0
M  V30 3800 H 343.443 -0.187856 -1.42769 0
M  V30 3801 H 345.396 1.92037 -3.751 0
M  V30 3802 H 344.12 2.07936 -2.51853 0
M  V30 3803 H 342.779 0.275319 -3.65565 0
M  V30 3804 H 342.427 2.67686 -4.25856 0
M  V30 3805 H 342.127 1.60789 -5.65173 0
M  V30 3806 H 343.651 2.53526 -5.55479 0
M  V30 3807 H 345.065 0.270333 -5.72662 0
M  V30 3808 H 343.462 -0.478543 -5.98189 0
M  V30 3809 H 344.532 -1.11409 -4.71928 0
M  V30 3810 N 345.875 1.56104 -0.216619 0
M  V30 3811 C 347.124 1.97348 0.416744 0
M  V30 3812 C 347.437 1.10715 1.6125 0
M  V30 3813 O 348.643 1.41836 2.31506 0
M  V30 3814 C 347.099 3.51059 0.792835 0
M  V30 3815 C 346.707 4.46387 -0.379828 0
M  V30 3816 C 348.451 4.01026 1.39208 0
M  V30 3817 C 346.358 5.91397 0.0184223 0
M  V30 3818 H 345.288 0.736942 0.159475 0
M  V30 3819 H 347.939 1.80827 -0.31205 0
M  V30 3820 H 346.321 3.63162 1.57891 0
M  V30 3821 H 347.495 4.46029 -1.15737 0
M  V30 3822 H 345.81 4.06734 -0.891979 0
M  V30 3823 H 348.407 5.0686 1.70286 0
M  V30 3824 H 348.75 3.46587 2.30614 0
M  V30 3825 H 349.283 3.92125 0.669537 0
M  V30 3826 H 346.022 6.49807 -0.862002 0
M  V30 3827 H 345.542 5.94961 0.760384 0
M  V30 3828 H 347.221 6.45455 0.446818 0
M  V30 3829 N 347.353 -0.0568162 1.57498 0
M  V30 3830 C 348.283 -1.06593 2.0775 0
M  V30 3831 C 349.264 -1.39448 0.974082 0
M  V30 3832 O 350.449 -1.48815 1.24771 0
M  V30 3833 C 347.579 -2.37509 2.5339 0
M  V30 3834 C 346.533 -2.1897 3.67745 0
M  V30 3835 C 345.859 -3.55402 3.99492 0
M  V30 3836 C 347.159 -1.59859 4.97235 0
M  V30 3837 H 348.853 -0.647706 2.9231 0
M  V30 3838 H 346.399 -0.310116 1.40621 0
M  V30 3839 H 348.352 -3.08409 2.87162 0
M  V30 3840 H 347.076 -2.8134 1.65878 0
M  V30 3841 H 345.735 -1.50508 3.3428 0
M  V30 3842 H 345.383 -3.9683 3.09088 0
M  V30 3843 H 345.083 -3.43831 4.76502 0
M  V30 3844 H 346.607 -4.27708 4.35773 0
M  V30 3845 H 348.021 -2.20642 5.29141 0
M  V30 3846 H 346.418 -1.58942 5.78669 0
M  V30 3847 H 347.488 -0.561506 4.81638 0
M  V30 3848 N 348.832 -1.54138 -0.328536 0
M  V30 3849 C 350.109 -1.62749 -1.08499 0
M  V30 3850 C 350.489 -0.458198 -2.06067 0
M  V30 3851 O 349.837 0.548046 -2.2183 0
M  V30 3852 C 350.047 -2.99519 -1.79135 0
M  V30 3853 C 351.395 -3.55394 -2.32337 0
M  V30 3854 O 352.419 -3.01792 -1.89209 0
M  V30 3855 O 351.278 -4.49186 -3.11279 0
M  V30 3856 H 348.372 -0.65886 -0.499832 0
M  V30 3857 H 350.918 -1.66484 -0.328826 0
M  V30 3858 H 349.69 -3.76061 -1.08139 0
M  V30 3859 H 349.313 -2.99441 -2.61574 0
M  V30 3860 N 350.31 0.590341 -1.46126 0
M  V30 3861 C 351.22 1.72793 -1.58681 0
M  V30 3862 C 352.236 1.67516 -0.470566 0
M  V30 3863 O 353.412 1.87562 -0.733642 0
M  V30 3864 C 350.477 3.09287 -1.5666 0
M  V30 3865 C 349.538 3.25886 -2.79458 0
M  V30 3866 C 348.771 4.55869 -2.77524 0
M  V30 3867 O 348.994 5.3928 -1.85832 0
M  V30 3868 O 347.928 4.75552 -3.68964 0
M  V30 3869 H 351.754 1.65149 -2.54872 0
M  V30 3870 H 349.339 0.756486 -1.28832 0
M  V30 3871 H 351.221 3.90577 -1.58202 0
M  V30 3872 H 349.896 3.17385 -0.636271 0
M  V30 3873 H 348.803 2.44119 -2.83472 0
M  V30 3874 H 350.136 3.22675 -3.71674 0
M  V30 3875 N 351.788 1.33704 0.83433 0
M  V30 3876 C 353.013 1.28615 1.62705 0
M  V30 3877 C 353.438 -0.139242 1.87584 0
M  V30 3878 O 352.796 -1.09734 1.4432 0
M  V30 3879 C 352.844 2.07139 2.95171 0
M  V30 3880 O 351.948 1.4331 3.86699 0
M  V30 3881 H 351.289 0.44226 0.49528 0
M  V30 3882 H 353.819 1.76335 1.03766 0
M  V30 3883 H 353.829 2.18073 3.44831 0
M  V30 3884 H 352.504 3.10779 2.76386 0
M  V30 3885 H 351.081 1.4105 3.45195 0
M  V30 3886 N 353.266 -1.05314 1.17247 0
M  V30 3887 C 354.543 -1.75184 0.87005 0
M  V30 3888 C 354.923 -2.01481 -0.629965 0
M  V30 3889 O 354.271 -1.64988 -1.58086 0
M  V30 3890 C 354.481 -3.04594 1.70363 0
M  V30 3891 C 355.829 -3.78567 1.92281 0
M  V30 3892 O 356.853 -3.14461 1.67311 0
M  V30 3893 O 355.712 -4.93755 2.3424 0
M  V30 3894 H 352.806 -0.761729 0.322021 0
M  V30 3895 H 355.352 -1.11493 1.27935 0
M  V30 3896 H 354.124 -2.81201 2.72106 0
M  V30 3897 H 353.747 -3.76022 1.29202 0
M  V30 3898 N 354.744 -0.972509 -1.24016 0
M  V30 3899 C 355.694 -0.477561 -2.22942 0
M  V30 3900 C 356.678 0.44308 -1.54679 0
M  V30 3901 O 357.87 0.273219 -1.74879 0
M  V30 3902 C 354.999 0.226348 -3.42553 0
M  V30 3903 C 354.085 -0.713403 -4.18057 0
M  V30 3904 N 354.476 -1.8527 -4.70647 0
M  V30 3905 C 352.774 -0.525145 -4.42898 0
M  V30 3906 C 353.475 -2.44089 -5.28011 0
M  V30 3907 N 352.451 -1.72556 -5.15486 0
M  V30 3908 H 356.253 -1.34678 -2.61226 0
M  V30 3909 H 353.767 -0.832196 -1.39457 0
M  V30 3910 H 355.764 0.598184 -4.12586 0
M  V30 3911 H 354.424 1.09195 -3.05788 0
M  V30 3912 H 355.435 -2.2341 -4.67235 0
M  V30 3913 H 352.112 0.296096 -4.16449 0
M  V30 3914 H 353.502 -3.40259 -5.79374 0
M  V30 3915 N 356.222 1.38976 -0.743202 0
M  V30 3916 C 357.471 1.99581 -0.291592 0
M  V30 3917 C 357.784 1.59656 1.13001 0
M  V30 3918 O 358.99 2.13157 1.68156 0
M  V30 3919 C 357.446 3.56813 -0.470391 0
M  V30 3920 C 357.054 4.05695 -1.90041 0
M  V30 3921 C 358.798 4.24423 -0.0809709 0
M  V30 3922 C 356.705 5.5553 -2.02832 0
M  V30 3923 H 355.635 0.746615 -0.105272 0
M  V30 3924 H 358.286 1.58872 -0.918258 0
M  V30 3925 H 356.668 3.95359 0.225299 0
M  V30 3926 H 357.842 3.78464 -2.62872 0
M  V30 3927 H 356.157 3.50775 -2.24379 0
M  V30 3928 H 358.754 5.34474 -0.155445 0
M  V30 3929 H 359.097 4.04962 0.96497 0
M  V30 3930 H 359.63 3.9108 -0.728124 0
M  V30 3931 H 356.369 5.79881 -3.05643 0
M  V30 3932 H 355.889 5.84537 -1.34448 0
M  V30 3933 H 357.568 6.21069 -1.81335 0
M  V30 3934 N 357.7 0.491464 1.49741 0
M  V30 3935 C 358.928 -0.0535151 2.06831 0
M  V30 3936 C 359.343 -1.31683 1.35296 0
M  V30 3937 O 358.7 -1.77402 0.42836 0
M  V30 3938 C 358.751 -0.320835 3.60073 0
M  V30 3939 O 358.472 0.892394 4.28915 0
M  V30 3940 C 359.973 -0.910519 4.33848 0
M  V30 3941 H 357.193 0.0161909 0.670805 0
M  V30 3942 H 359.737 0.68609 1.92647 0
M  V30 3943 H 357.892 -1.0104 3.73991 0
M  V30 3944 H 358.306 0.649401 5.20464 0
M  V30 3945 H 359.78 -1.04721 5.41976 0
M  V30 3946 H 360.257 -1.90589 3.95692 0
M  V30 3947 H 360.863 -0.258712 4.24512 0
M  V30 3948 N 359.178 -1.55987 0.224894 0
M  V30 3949 C 360.111 -2.16413 -0.723929 0
M  V30 3950 C 361.089 -1.10952 -1.18863 0
M  V30 3951 O 362.273 -1.39225 -1.27077 0
M  V30 3952 C 359.4 -2.74711 -1.98121 0
M  V30 3953 C 358.446 -3.9303 -1.6562 0
M  V30 3954 S 359.279 -5.29817 -0.778058 0
M  V30 3955 C 360.435 -5.91555 -2.04483 0
M  V30 3956 H 360.668 -2.96555 -0.210347 0
M  V30 3957 H 358.201 -1.54397 0.00955457 0
M  V30 3958 H 360.159 -3.08938 -2.70311 0
M  V30 3959 H 358.82 -1.94555 -2.46591 0
M  V30 3960 H 358.013 -4.32334 -2.59043 0
M  V30 3961 H 357.615 -3.59966 -1.01491 0
M  V30 3962 H 359.907 -6.07732 -2.99446 0
M  V30 3963 H 360.85 -6.87498 -1.69563 0
M  V30 3964 H 361.258 -5.20419 -2.18688 0
M  V30 3965 N 360.656 0.0484629 -1.57525 0
M  V30 3966 C 361.905 0.742065 -1.87553 0
M  V30 3967 C 362.218 1.77545 -0.820802 0
M  V30 3968 O 363.424 2.52027 -1.00967 0
M  V30 3969 C 361.88 1.37081 -3.32771 0
M  V30 3970 C 361.488 0.374786 -4.4643 0
M  V30 3971 C 363.232 2.04542 -3.71972 0
M  V30 3972 C 361.139 1.01077 -5.82698 0
M  V30 3973 H 360.069 0.280903 -0.699721 0
M  V30 3974 H 362.72 -0.00411877 -1.835 0
M  V30 3975 H 361.102 2.16605 -3.31509 0
M  V30 3976 H 362.276 -0.392331 -4.59127 0
M  V30 3977 H 360.591 -0.196653 -4.15935 0
M  V30 3978 H 363.188 2.52943 -4.71088 0
M  V30 3979 H 363.531 2.85515 -3.02964 0
M  V30 3980 H 364.064 1.31819 -3.75325 0
M  V30 3981 H 360.803 0.240878 -6.55057 0
M  V30 3982 H 360.323 1.74819 -5.73758 0
M  V30 3983 H 362.002 1.52383 -6.28799 0
M  V30 3984 N 362.134 1.5431 0.320358 0
M  V30 3985 C 363.411 1.63322 1.07635 0
M  V30 3986 C 363.791 0.46912 2.05821 0
M  V30 3987 O 363.139 -0.536274 2.22118 0
M  V30 3988 C 363.349 3.00465 1.77544 0
M  V30 3989 C 364.697 3.56621 2.30449 0
M  V30 3990 O 365.721 3.02791 1.87606 0
M  V30 3991 O 364.58 4.5083 3.08892 0
M  V30 3992 H 361.674 0.661502 0.496331 0
M  V30 3993 H 364.22 1.66656 0.319992 0
M  V30 3994 H 362.992 3.76629 1.06143 0
M  V30 3995 H 362.615 3.00824 2.59982 0
M  V30 3996 N 363.613 -0.582584 1.46437 0
M  V30 3997 C 364.86 -1.34079 1.51753 0
M  V30 3998 C 365.188 -1.93762 0.169299 0
M  V30 3999 O 364.443 -1.76989 -0.835062 0
M  V30 4000 C 364.742 -2.48964 2.56421 0
M  V30 4001 C 364.408 -2.07273 4.00436 0
M  V30 4002 C 363.07 -1.95618 4.39644 0
M  V30 4003 C 365.422 -1.75111 4.90903 0
M  V30 4004 C 362.75 -1.5006 5.67185 0
M  V30 4005 C 365.102 -1.31032 6.18881 0
M  V30 4006 C 363.766 -1.17954 6.56996 0
M  V30 4007 H 363.036 -0.49063 0.555304 0
M  V30 4008 H 365.683 -0.656007 1.79913 0
M  V30 4009 H 363.988 -3.22889 2.21923 0
M  V30 4010 H 365.685 -3.07178 2.57765 0
M  V30 4011 H 362.275 -2.17279 3.69443 0
M  V30 4012 H 366.459 -1.83001 4.61329 0
M  V30 4013 H 361.715 -1.38577 5.95488 0
M  V30 4014 H 365.889 -1.052 6.88408 0
M  V30 4015 H 363.516 -0.824279 7.55718 0
M  V30 4016 N 365.091 -1.34144 -0.827227 0
M  V30 4017 C 366.502 -1.23557 -1.39966 0
M  V30 4018 C 366.853 0.140731 -1.95695 0
M  V30 4019 O 365.978 1.04087 -1.89723 0
M  V30 4020 C 366.573 -2.23708 -2.54441 0
M  V30 4021 C 365.132 -2.16924 -3.07605 0
M  V30 4022 C 364.279 -2.10549 -1.80456 0
M  V30 4023 H 367.23 -1.45573 -0.631991 0
M  V30 4024 H 367.251 -1.85157 -3.32411 0
M  V30 4025 H 366.763 -3.23866 -2.13851 0
M  V30 4026 H 364.864 -1.20107 -3.52711 0
M  V30 4027 H 364.977 -3.07988 -3.66988 0
M  V30 4028 H 363.341 -1.56203 -2.01178 0
M  V30 4029 H 364.124 -3.12535 -1.42046 0
M  V30 4030 N 366.569 1.04691 -1.17803 0
M  V30 4031 C 367.501 2.12571 -0.857097 0
M  V30 4032 C 368.514 1.62174 0.142647 0
M  V30 4033 O 369.703 1.78301 -0.0843387 0
M  V30 4034 C 366.803 3.37915 -0.258216 0
M  V30 4035 C 365.976 4.1757 -1.30207 0
M  V30 4036 C 365.035 5.2125 -0.720029 0
M  V30 4037 O 364.061 5.51888 -1.39314 0
M  V30 4038 N 365.263 5.78466 0.485507 0
M  V30 4039 H 368.028 2.40698 -1.78562 0
M  V30 4040 H 365.589 1.20831 -1.07757 0
M  V30 4041 H 367.581 4.04442 0.144584 0
M  V30 4042 H 366.151 3.07281 0.574199 0
M  V30 4043 H 365.371 3.46458 -1.88043 0
M  V30 4044 H 366.659 4.67586 -2.00601 0
M  V30 4045 H 366.057 5.55866 1.05022 0
M  V30 4046 H 364.614 6.4649 0.830307 0
M  V30 4047 N 368.047 0.979072 1.23499 0
M  V30 4048 C 368.98 0.463027 2.23453 0
M  V30 4049 C 369.958 -0.469128 1.55685 0
M  V30 4050 O 371.142 -0.397882 1.84253 0
M  V30 4051 C 368.269 -0.330308 3.37086 0
M  V30 4052 C 367.315 0.545795 4.22993 0
M  V30 4053 S 368.148 1.99285 4.97037 0
M  V30 4054 C 369.304 1.20862 6.1412 0
M  V30 4055 H 369.537 1.31005 2.6688 0
M  V30 4056 H 367.07 0.784965 1.32957 0
M  V30 4057 H 369.028 -0.782027 4.02982 0
M  V30 4058 H 367.689 -1.15244 2.92194 0
M  V30 4059 H 366.882 -0.0638928 5.03959 0
M  V30 4060 H 366.484 0.933705 3.62157 0
M  V30 4061 H 368.776 0.469284 6.75873 0
M  V30 4062 H 369.719 1.99307 6.79472 0
M  V30 4063 H 370.127 0.727992 5.59786 0
M  V30 4064 N 369.525 -1.3858 0.750561 0
M  V30 4065 C 370.771 -2.00481 0.305825 0
M  V30 4066 C 371.104 -1.5944 -1.10872 0
M  V30 4067 O 370.379 -0.83052 -1.75877 0
M  V30 4068 C 370.662 -3.5758 0.425287 0
M  V30 4069 C 370.515 -4.08594 1.88072 0
M  V30 4070 C 371.834 -4.39719 -0.183122 0
M  V30 4071 H 368.953 -0.728348 0.112598 0
M  V30 4072 H 371.595 -1.64566 0.949638 0
M  V30 4073 H 369.745 -3.88306 -0.122828 0
M  V30 4074 H 371.417 -3.88523 2.48691 0
M  V30 4075 H 369.66 -3.61574 2.39681 0
M  V30 4076 H 370.331 -5.177 1.91548 0
M  V30 4077 H 372.807 -4.15128 0.284303 0
M  V30 4078 H 371.683 -5.48856 -0.0692757 0
M  V30 4079 H 371.944 -4.23434 -1.27106 0
M  V30 4080 N 371.003 -0.499398 -1.49478 0
M  V30 4081 C 372.228 0.044722 -2.07352 0
M  V30 4082 C 372.653 1.30207 -1.35749 0
M  V30 4083 O 372.011 1.76516 -0.413732 0
M  V30 4084 C 372.059 0.283013 -3.59488 0
M  V30 4085 O 371.163 1.35804 -3.89398 0
M  V30 4086 H 370.504 -0.0255147 -0.66351 0
M  V30 4087 H 373.034 -0.698561 -1.92305 0
M  V30 4088 H 373.044 0.515007 -4.04737 0
M  V30 4089 H 371.719 -0.635636 -4.11014 0
M  V30 4090 H 370.296 1.11113 -3.55961 0
M  V30 4091 N 372.481 1.55866 -0.233164 0
M  V30 4092 C 373.709 2.02998 0.399905 0
M  V30 4093 C 374.124 1.11274 1.52524 0
M  V30 4094 O 373.481 0.124528 1.82075 0
M  V30 4095 C 373.532 3.4958 0.920639 0
M  V30 4096 O 373.253 4.37808 -0.159834 0
M  V30 4097 C 374.754 4.12411 1.62578 0
M  V30 4098 H 371.974 0.664006 0.0966281 0
M  V30 4099 H 374.518 2.0143 -0.353013 0
M  V30 4100 H 372.673 3.51727 1.62379 0
M  V30 4101 H 373.087 5.23981 0.23337 0
M  V30 4102 H 374.561 5.16711 1.94201 0
M  V30 4103 H 375.038 3.5809 2.54299 0
M  V30 4104 H 375.644 4.14148 0.967553 0
M  V30 4105 N 373.959 -0.0401083 1.57549 0
M  V30 4106 C 375.184 -0.748931 1.93406 0
M  V30 4107 C 375.609 -1.68686 0.832274 0
M  V30 4108 O 374.967 -1.80047 -0.212818 0
M  V30 4109 C 375.015 -1.4916 3.28304 0
M  V30 4110 O 374.119 -2.6042 3.19774 0
M  V30 4111 H 373.46 -0.202212 0.63246 0
M  V30 4112 H 375.99 0.00112086 2.046 0
M  V30 4113 H 376 -1.86395 3.62934 0
M  V30 4114 H 374.675 -0.80364 4.08062 0
M  V30 4115 H 373.252 -2.25808 2.96758 0
M  V30 4116 N 375.437 -1.54477 -0.31217 0
M  V30 4117 C 376.387 -1.81037 -1.38598 0
M  V30 4118 C 377.371 -0.666941 -1.46426 0
M  V30 4119 O 378.563 -0.927269 -1.50767 0
M  V30 4120 C 375.692 -2.05127 -2.75277 0
M  V30 4121 C 374.778 -3.25624 -2.71716 0
M  V30 4122 N 375.169 -4.46428 -2.37773 0
M  V30 4123 C 373.467 -3.27427 -3.02833 0
M  V30 4124 C 374.168 -5.28406 -2.43232 0
M  V30 4125 N 373.144 -4.6586 -2.80135 0
M  V30 4126 H 376.946 -2.7201 -1.11301 0
M  V30 4127 H 374.46 -1.53826 -0.520705 0
M  V30 4128 H 376.457 -2.22299 -3.52688 0
M  V30 4129 H 375.117 -1.15416 -3.03495 0
M  V30 4130 H 376.128 -4.73227 -2.1042 0
M  V30 4131 H 372.805 -2.47786 -3.36018 0
M  V30 4132 H 374.195 -6.34903 -2.19882 0
M  V30 4133 N 376.915 0.57481 -1.46744 0
M  V30 4134 C 378.326 1.15695 -1.46532 0
M  V30 4135 C 378.677 1.95068 -0.210425 0
M  V30 4136 O 377.802 2.05241 0.685944 0
M  V30 4137 C 378.397 2.1048 -2.65487 0
M  V30 4138 C 376.956 2.64002 -2.68291 0
M  V30 4139 C 376.103 1.40026 -2.39349 0
M  V30 4140 H 379.054 0.362325 -1.54509 0
M  V30 4141 H 379.075 2.94074 -2.41455 0
M  V30 4142 H 378.587 1.52683 -3.56805 0
M  V30 4143 H 376.688 3.25646 -1.81067 0
M  V30 4144 H 376.801 3.06197 -3.68483 0
M  V30 4145 H 375.165 1.70106 -1.89568 0
M  V30 4146 H 375.948 0.840485 -3.32852 0
M  V30 4147 N 378.394 1.34581 0.820102 0
M  V30 4148 C 379.342 1.26401 1.95258 0
M  V30 4149 C 380.336 0.161553 1.68628 0
M  V30 4150 O 381.542 0.326703 1.7701 0
M  V30 4151 H 377.917 0.392749 0.64129 0
M  V30 4152 H 379.888 2.22105 1.99279 0
M  V30 4153 C 378.637 1.03919 3.31807 0
M  V30 4154 H 377.96 1.87984 3.52848 0
M  V30 4155 H 379.4 1.02232 4.11491 0
M  V30 4156 C 377.859 -0.257433 3.35915 0
M  V30 4157 O 378.389 -1.25784 3.81499 0
M  V30 4158 N 376.595 -0.291524 2.89134 0
M  V30 4159 H 376.142 0.523161 2.52232 0
M  V30 4160 H 376.1 -1.15883 2.92264 0
M  V30 4161 N 379.872 -1.04064 1.18357 0
M  V30 4162 C 380.835 -2.10243 0.912707 0
M  V30 4163 C 381.835 -1.60477 -0.101928 0
M  V30 4164 O 383.025 -1.73703 0.131517 0
M  V30 4165 C 380.157 -3.38893 0.369387 0
M  V30 4166 H 381.35 -2.35706 1.85426 0
M  V30 4167 H 378.903 -1.20489 0.995594 0
M  V30 4168 H 379.638 -3.19094 -0.578776 0
M  V30 4169 H 379.423 -3.76331 1.1008 0
M  V30 4170 H 380.913 -4.17128 0.198575 0
M  V30 4171 N 381.35 -0.985608 -1.22978 0
M  V30 4172 C 382.26 -0.538548 -2.28335 0
M  V30 4173 C 383.276 0.409163 -1.69121 0
M  V30 4174 O 384.452 0.277797 -1.99475 0
M  V30 4175 C 381.517 0.146867 -3.46389 0
M  V30 4176 C 380.578 -0.842896 -4.20944 0
M  V30 4177 C 379.811 -0.190095 -5.33361 0
M  V30 4178 O 380.034 1.01767 -5.61248 0
M  V30 4179 O 378.968 -0.891289 -5.95264 0
M  V30 4180 H 382.794 -1.41487 -2.68729 0
M  V30 4181 H 380.379 -0.753495 -1.29007 0
M  V30 4182 H 382.261 0.531125 -4.1804 0
M  V30 4183 H 380.936 0.997871 -3.07935 0
M  V30 4184 H 379.843 -1.27795 -3.51595 0
M  V30 4185 H 381.176 -1.66287 -4.6326 0
M  V30 4186 N 382.828 1.3818 -0.7579 0
M  V30 4187 C 384.074 2.0078 -0.325423 0
M  V30 4188 C 384.429 1.59085 1.08211 0
M  V30 4189 O 383.722 0.820394 1.73148 0
M  V30 4190 C 383.916 3.55252 -0.391218 0
M  V30 4191 C 383.745 4.11947 -1.8036 0
M  V30 4192 C 382.515 4.43519 -2.42113 0
M  V30 4193 C 384.713 4.33908 -2.76095 0
M  V30 4194 N 382.695 4.85847 -3.75267 0
M  V30 4195 C 384.066 4.78692 -3.94023 0
M  V30 4196 C 386.121 4.16015 -2.73561 0
M  V30 4197 C 384.824 5.07459 -5.09782 0
M  V30 4198 C 386.85 4.45909 -3.88483 0
M  V30 4199 C 386.212 4.90921 -5.0515 0
M  V30 4200 H 382.311 0.764215 -0.165831 0
M  V30 4201 H 384.895 1.67724 -0.988776 0
M  V30 4202 H 383.066 3.87646 0.241886 0
M  V30 4203 H 384.798 4.04653 0.061989 0
M  V30 4204 H 381.553 4.32113 -1.93842 0
M  V30 4205 H 381.977 5.11339 -4.4369 0
M  V30 4206 H 386.619 3.80399 -1.84544 0
M  V30 4207 H 384.337 5.4197 -5.99412 0
M  V30 4208 H 387.923 4.33666 -3.87847 0
M  V30 4209 H 386.803 5.1361 -5.92599 0
M  V30 4210 N 384.306 0.507319 1.49211 0
M  V30 4211 C 385.536 -0.0315292 2.06576 0
M  V30 4212 C 385.944 -1.30791 1.36713 0
M  V30 4213 O 385.287 -1.78324 0.441181 0
M  V30 4214 C 385.349 -0.349104 3.57801 0
M  V30 4215 C 385.013 0.830475 4.49391 0
M  V30 4216 C 386.01 1.72271 4.90529 0
M  V30 4217 C 383.695 1.03107 4.91604 0
M  V30 4218 C 385.689 2.79964 5.72625 0
M  V30 4219 C 383.376 2.11116 5.73475 0
M  V30 4220 C 384.374 2.99379 6.1389 0
M  V30 4221 O 384.062 4.05523 6.94123 0
M  V30 4222 H 383.794 0.0201002 0.675701 0
M  V30 4223 H 386.348 0.705737 1.92895 0
M  V30 4224 H 384.578 -1.14005 3.69513 0
M  V30 4225 H 386.267 -0.827319 3.97379 0
M  V30 4226 H 387.033 1.57958 4.58557 0
M  V30 4227 H 382.912 0.353417 4.59643 0
M  V30 4228 H 386.456 3.48884 6.04091 0
M  V30 4229 H 382.353 2.25421 6.0486 0
M  V30 4230 H 383.121 4.02953 7.1244 0
M  V30 4231 N 385.784 -1.5574 0.241426 0
M  V30 4232 C 387.031 -1.9881 -0.384836 0
M  V30 4233 C 387.359 -1.12947 -1.58346 0
M  V30 4234 O 386.614 -0.178993 -1.9488 0
M  V30 4235 C 386.913 -3.47308 -0.843317 0
M  V30 4236 C 386.579 -4.50223 0.246946 0
M  V30 4237 C 385.241 -4.78088 0.546399 0
M  V30 4238 C 387.593 -5.11841 0.983282 0
M  V30 4239 C 384.921 -5.64846 1.58636 0
M  V30 4240 C 387.273 -5.99727 2.01272 0
M  V30 4241 C 385.937 -6.25927 2.31888 0
M  V30 4242 H 385.207 -0.727496 -0.140821 0
M  V30 4243 H 387.854 -1.8831 0.348106 0
M  V30 4244 H 386.159 -3.55112 -1.65537 0
M  V30 4245 H 387.856 -3.78017 -1.33806 0
M  V30 4246 H 384.446 -4.286 0.00340639 0
M  V30 4247 H 388.63 -4.90366 0.765182 0
M  V30 4248 H 383.886 -5.83403 1.82896 0
M  V30 4249 H 388.06 -6.46517 2.58823 0
M  V30 4250 H 385.687 -6.92949 3.12611 0
M  V30 4251 N 387.262 0.0317525 -1.57568 0
M  V30 4252 C 388.539 0.758366 -1.803 0
M  V30 4253 C 388.919 1.93718 -0.838845 0
M  V30 4254 O 388.267 2.28187 0.119571 0
M  V30 4255 C 388.477 1.19392 -3.27943 0
M  V30 4256 C 389.825 1.61094 -3.92854 0
M  V30 4257 O 390.849 1.28857 -3.32076 0
M  V30 4258 O 389.708 2.20918 -4.99858 0
M  V30 4259 H 386.802 0.366514 -0.741348 0
M  V30 4260 H 389.348 0.00873765 -1.69698 0
M  V30 4261 H 388.12 0.352275 -3.89711 0
M  V30 4262 H 387.743 2.00365 -3.43424 0
M  V30 4263 N 388.74 1.54641 0.303973 0
M  V30 4264 C 390.156 1.45788 0.649463 0
M  V30 4265 C 390.356 0.64666 1.90842 0
M  V30 4266 O 389.412 0.153183 2.52035 0
M  V30 4267 C 390.725 2.89718 0.805227 0
M  V30 4268 C 392.273 2.99742 0.901305 0
M  V30 4269 C 392.748 4.44863 1.08909 0
M  V30 4270 N 394.239 4.48559 1.15536 0
M  V30 4271 C 394.974 5.58026 1.3189 0
M  V30 4272 N 394.47 6.77422 1.45161 0
M  V30 4273 N 396.263 5.45708 1.34755 0
M  V30 4274 H 388.414 2.05854 -0.523237 0
M  V30 4275 H 390.677 0.932186 -0.172431 0
M  V30 4276 H 390.383 3.51666 -0.0489108 0
M  V30 4277 H 390.257 3.36964 1.69513 0
M  V30 4278 H 392.644 2.3791 1.74593 0
M  V30 4279 H 392.725 2.55797 -0.0125531 0
M  V30 4280 H 392.369 5.07288 0.249241 0
M  V30 4281 H 392.299 4.86436 2.01713 0
M  V30 4282 H 394.79 3.6254 1.06646 0
M  V30 4283 H 395.103 7.56604 1.57387 0
M  V30 4284 H 393.448 6.80292 1.42223 0
M  V30 4285 H 396.639 4.51378 1.23996 0
M  V30 4286 H 396.812 6.3107 1.47157 0
M  V30 4287 N 390.218 -0.567019 1.47046 0
M  V30 4288 C 391.495 -1.3276 1.43646 0
M  V30 4289 C 391.875 -2.1071 0.128186 0
M  V30 4290 O 391.223 -2.10441 -0.890326 0
M  V30 4291 C 391.433 -2.2404 2.67595 0
M  V30 4292 C 392.781 -2.85372 3.14401 0
M  V30 4293 O 393.805 -2.34346 2.68254 0
M  V30 4294 O 392.664 -3.78091 3.946 0
M  V30 4295 H 389.758 -0.597293 0.571988 0
M  V30 4296 H 392.304 -0.586735 1.59234 0
M  V30 4297 H 391.076 -1.65975 3.54356 0
M  V30 4298 H 390.699 -3.05439 2.54544 0
M  V30 4299 N 391.696 -1.35014 -0.812953 0
M  V30 4300 C 392.942 -1.2812 -1.57204 0
M  V30 4301 C 393.275 0.145869 -1.93651 0
M  V30 4302 O 392.55 1.0937 -1.60836 0
M  V30 4303 C 392.833 -2.18162 -2.86492 0
M  V30 4304 C 392.686 -3.69454 -2.56561 0
M  V30 4305 C 394.005 -2.07439 -3.88145 0
M  V30 4306 H 391.124 -0.466746 -0.570366 0
M  V30 4307 H 393.766 -1.65357 -0.935783 0
M  V30 4308 H 391.916 -1.86535 -3.40789 0
M  V30 4309 H 393.588 -4.11493 -2.08497 0
M  V30 4310 H 391.831 -3.9005 -1.89851 0
M  V30 4311 H 392.502 -4.27835 -3.48799 0
M  V30 4312 H 394.978 -2.35228 -3.4323 0
M  V30 4313 H 393.854 -2.7265 -4.76396 0
M  V30 4314 H 394.115 -1.05439 -4.29343 0
M  V30 4315 N 393.175 1.03435 -1.18907 0
M  V30 4316 C 394.122 2.11591 -0.921837 0
M  V30 4317 C 395.092 1.65499 0.141226 0
M  V30 4318 O 396.277 1.908 0.000242829 0
M  V30 4319 C 393.417 3.42012 -0.460616 0
M  V30 4320 C 392.53 4.01682 -1.58982 0
M  V30 4321 C 391.665 5.20091 -1.08069 0
M  V30 4322 C 390.704 5.71805 -2.18416 0
M  V30 4323 N 389.841 6.81494 -1.68849 0
M  V30 4324 H 394.681 2.33787 -1.8479 0
M  V30 4325 H 392.218 1.1467 -0.921373 0
M  V30 4326 H 394.176 4.16834 -0.174642 0
M  V30 4327 H 392.806 3.19944 0.428467 0
M  V30 4328 H 391.858 3.24127 -1.99113 0
M  V30 4329 H 393.17 4.36084 -2.4214 0
M  V30 4330 H 392.324 6.02051 -0.749615 0
M  V30 4331 H 391.063 4.87209 -0.218771 0
M  V30 4332 H 390.068 4.88461 -2.5236 0
M  V30 4333 H 391.293 6.06728 -3.05054 0
M  V30 4334 H 389.239 6.50475 -0.849572 0
M  V30 4335 H 389.156 7.14994 -2.45601 0
M  V30 4336 H 390.424 7.67063 -1.38689 0
M  V30 4337 N 394.653 0.992116 1.22453 0
M  V30 4338 C 395.893 0.675727 1.92907 0
M  V30 4339 C 396.257 -0.777762 1.75542 0
M  V30 4340 O 397.458 -1.20553 2.40251 0
M  V30 4341 C 395.729 1.0696 3.4102 0
M  V30 4342 S 397.288 0.871456 4.30059 0
M  V30 4343 H 394.106 0.247089 0.666684 0
M  V30 4344 H 396.708 1.27423 1.48269 0
M  V30 4345 H 395.412 2.12383 3.51172 0
M  V30 4346 H 394.943 0.462858 3.90668 0
M  V30 4347 H 396.958 -0.238436 4.95627 0
M  V30 4348 N 396.131 -1.37776 0.765217 0
M  V30 4349 C 397.38 -1.99092 0.323307 0
M  V30 4350 C 397.693 -1.61434 -1.10446 0
M  V30 4351 O 398.899 -2.15805 -1.64743 0
M  V30 4352 C 397.355 -3.56019 0.527098 0
M  V30 4353 C 396.963 -4.0262 1.96471 0
M  V30 4354 C 398.707 -4.2424 0.148483 0
M  V30 4355 C 396.614 -5.52233 2.11644 0
M  V30 4356 H 395.544 -0.744846 0.117137 0
M  V30 4357 H 398.195 -1.57391 0.943417 0
M  V30 4358 H 396.577 -3.95667 -0.162372 0
M  V30 4359 H 397.751 -3.74234 2.68859 0
M  V30 4360 H 396.066 -3.47161 2.29931 0
M  V30 4361 H 398.663 -5.34159 0.240456 0
M  V30 4362 H 399.006 -4.06446 -0.900422 0
M  V30 4363 H 399.539 -3.89872 0.79025 0
M  V30 4364 H 396.278 -5.74945 3.1483 0
M  V30 4365 H 395.798 -5.82324 1.4373 0
M  V30 4366 H 397.477 -6.18106 1.91193 0
M  V30 4367 N 397.609 -0.515225 -1.4894 0
M  V30 4368 C 398.556 0.255567 -2.29381 0
M  V30 4369 C 399.526 0.947387 -1.36432 0
M  V30 4370 O 400.711 0.951288 -1.65394 0
M  V30 4371 C 397.851 1.30551 -3.19453 0
M  V30 4372 C 396.964 0.624029 -4.27469 0
M  V30 4373 C 396.099 1.65563 -5.0474 0
M  V30 4374 C 395.138 0.956802 -6.04576 0
M  V30 4375 N 394.275 1.93326 -6.74959 0
M  V30 4376 H 399.115 -0.436607 -2.94784 0
M  V30 4377 H 396.652 -0.227154 -1.45336 0
M  V30 4378 H 398.61 1.92639 -3.70062 0
M  V30 4379 H 397.24 1.96626 -2.56004 0
M  V30 4380 H 396.292 -0.110459 -3.8024 0
M  V30 4381 H 397.604 0.0746092 -4.98744 0
M  V30 4382 H 396.758 2.35119 -5.59289 0
M  V30 4383 H 395.497 2.23893 -4.3327 0
M  V30 4384 H 394.502 0.247097 -5.49244 0
M  V30 4385 H 395.727 0.379814 -6.78037 0
M  V30 4386 H 393.673 2.50591 -6.06251 0
M  V30 4387 H 393.59 1.43489 -7.42258 0
M  V30 4388 H 394.858 2.62126 -7.34105 0
M  V30 4389 N 399.087 1.5561 -0.249682 0
M  V30 4390 C 400.364 1.90932 0.424761 0
M  V30 4391 C 400.744 1.17078 1.75658 0
M  V30 4392 O 400.092 0.289176 2.26663 0
M  V30 4393 C 400.302 3.43975 0.590109 0
M  V30 4394 C 401.65 4.15281 0.884714 0
M  V30 4395 O 402.674 3.49729 0.67587 0
M  V30 4396 O 401.533 5.31236 1.28259 0
M  V30 4397 H 398.627 0.794815 0.228468 0
M  V30 4398 H 401.173 1.67135 -0.293954 0
M  V30 4399 H 399.945 3.89748 -0.34818 0
M  V30 4400 H 399.568 3.73644 1.35926 0
M  V30 4401 N 400.565 -0.0233959 1.57583 0
M  V30 4402 C 401.812 -0.713063 1.8953 0
M  V30 4403 C 402.14 -1.75056 0.847673 0
M  V30 4404 O 401.395 -1.95119 -0.150636 0
M  V30 4405 C 401.694 -1.41428 3.28227 0
M  V30 4406 C 401.36 -0.512222 4.47981 0
M  V30 4407 C 400.022 -0.263785 4.80476 0
M  V30 4408 C 402.374 0.110248 5.21083 0
M  V30 4409 C 399.702 0.615804 5.83459 0
M  V30 4410 C 402.054 0.977573 6.25001 0
M  V30 4411 C 400.718 1.23542 6.55968 0
M  V30 4412 H 399.988 -0.260928 0.69354 0
M  V30 4413 H 402.635 0.0271047 1.91481 0
M  V30 4414 H 400.94 -2.22791 3.22291 0
M  V30 4415 H 402.637 -1.95355 3.50196 0
M  V30 4416 H 399.227 -0.716013 4.22577 0
M  V30 4417 H 403.411 -0.0687137 4.96252 0
M  V30 4418 H 398.667 0.82382 6.05824 0
M  V30 4419 H 402.841 1.46638 6.80786 0
M  V30 4420 H 400.468 1.91871 7.35588 0
M  V30 4421 N 402.043 -1.548 -0.295768 0
M  V30 4422 C 403.29 -1.74329 -1.03032 0
M  V30 4423 C 403.618 -0.531915 -1.87085 0
M  V30 4424 O 402.873 0.486052 -1.89568 0
M  V30 4425 C 403.172 -2.98797 -1.961 0
M  V30 4426 C 402.838 -4.32356 -1.2798 0
M  V30 4427 C 401.5 -4.68661 -1.09135 0
M  V30 4428 C 403.852 -5.15128 -0.793243 0
M  V30 4429 C 401.18 -5.85312 -0.403269 0
M  V30 4430 C 403.532 -6.32488 -0.118854 0
M  V30 4431 C 402.196 -6.6745 0.0815043 0
M  V30 4432 H 401.466 -0.637916 -0.37702 0
M  V30 4433 H 404.113 -1.8906 -0.304696 0
M  V30 4434 H 402.418 -2.78869 -2.75207 0
M  V30 4435 H 404.115 -3.11102 -2.53015 0
M  V30 4436 H 400.705 -4.03808 -1.43655 0
M  V30 4437 H 404.889 -4.87575 -0.92653 0
M  V30 4438 H 400.145 -6.1094 -0.237098 0
M  V30 4439 H 404.319 -6.95892 0.266035 0
M  V30 4440 H 401.946 -7.57695 0.616685 0
M  V30 4441 N 403.521 0.559213 -1.47345 0
M  V30 4442 C 404.454 1.68201 -1.5422 0
M  V30 4443 C 405.432 1.57742 -0.394497 0
M  V30 4444 O 406.616 1.78628 -0.60201 0
M  V30 4445 C 403.743 3.0643 -1.44285 0
M  V30 4446 C 402.789 3.3534 -2.63532 0
M  V30 4447 S 403.622 3.24816 -4.25741 0
M  V30 4448 C 404.778 4.65542 -4.18355 0
M  V30 4449 H 405.011 1.62114 -2.49211 0
M  V30 4450 H 402.544 0.739871 -1.35519 0
M  V30 4451 H 404.502 3.86164 -1.3924 0
M  V30 4452 H 403.163 3.09984 -0.506816 0
M  V30 4453 H 402.356 4.36107 -2.52639 0
M  V30 4454 H 401.958 2.63221 -2.65689 0
M  V30 4455 H 404.25 5.56449 -3.86485 0
M  V30 4456 H 405.193 4.81493 -5.19202 0
M  V30 4457 H 405.601 4.43495 -3.49246 0
M  V30 4458 N 404.999 1.35443 0.805782 0
M  V30 4459 C 405.946 1.28431 1.91766 0
M  V30 4460 C 406.916 0.156102 1.65365 0
M  V30 4461 O 408.101 0.339936 1.87747 0
M  V30 4462 C 405.241 1.06301 3.2832 0
M  V30 4463 C 404.354 2.2805 3.66902 0
M  V30 4464 C 403.489 1.99064 4.92491 0
M  V30 4465 C 402.528 3.16863 5.23703 0
M  V30 4466 N 401.665 2.87647 6.40471 0
M  V30 4467 H 406.505 2.23511 1.97096 0
M  V30 4468 H 404.042 1.11105 0.964054 0
M  V30 4469 H 406 0.915012 4.07042 0
M  V30 4470 H 404.63 0.148822 3.22457 0
M  V30 4471 H 403.682 2.53711 2.83434 0
M  V30 4472 H 404.994 3.1601 3.85927 0
M  V30 4473 H 404.148 1.81099 5.7904 0
M  V30 4474 H 402.887 1.0839 4.75503 0
M  V30 4475 H 401.892 3.35404 4.35642 0
M  V30 4476 H 403.117 4.08339 5.4262 0
M  V30 4477 H 401.063 1.99568 6.24907 0
M  V30 4478 H 400.98 3.69141 6.59751 0
M  V30 4479 H 402.248 2.73226 7.30047 0
M  V30 4480 N 406.477 -1.02803 1.19454 0
M  V30 4481 C 407.893 -1.28473 0.946937 0
M  V30 4482 C 408.093 -1.97881 -0.380202 0
M  V30 4483 O 407.149 -2.26719 -1.11151 0
M  V30 4484 C 408.462 -2.13099 2.12154 0
M  V30 4485 C 410.01 -2.26404 2.16126 0
M  V30 4486 C 410.485 -3.14402 3.33039 0
M  V30 4487 N 411.976 -3.21991 3.32981 0
M  V30 4488 C 412.711 -3.90272 4.20089 0
M  V30 4489 N 412.207 -4.60777 5.17355 0
M  V30 4490 N 414 -3.8668 4.07964 0
M  V30 4491 H 406.151 -0.561665 2.04839 0
M  V30 4492 H 408.414 -0.310438 0.89573 0
M  V30 4493 H 408.12 -1.69422 3.08203 0
M  V30 4494 H 407.994 -3.13813 2.09287 0
M  V30 4495 H 410.381 -2.69311 1.20647 0
M  V30 4496 H 410.462 -1.25237 2.23045 0
M  V30 4497 H 410.106 -2.72204 4.28798 0
M  V30 4498 H 410.036 -4.1563 3.23356 0
M  V30 4499 H 412.527 -2.71778 2.62574 0
M  V30 4500 H 412.84 -5.10513 5.80169 0
M  V30 4501 H 411.185 -4.5964 5.21302 0
M  V30 4502 H 414.376 -3.30739 3.31254 0
M  V30 4503 H 414.549 -4.39621 4.76064 0
M  V30 4504 N 407.956 -0.998596 -1.21925 0
M  V30 4505 C 409.203 -0.677663 -1.90824 0
M  V30 4506 C 409.531 0.790905 -1.77693 0
M  V30 4507 O 408.786 1.58817 -1.14349 0
M  V30 4508 C 409.085 -1.03648 -3.42041 0
M  V30 4509 C 408.751 -2.49825 -3.75364 0
M  V30 4510 C 407.413 -2.8977 -3.8417 0
M  V30 4511 C 409.765 -3.44545 -3.91073 0
M  V30 4512 C 407.093 -4.23412 -4.06127 0
M  V30 4513 C 409.445 -4.77853 -4.14535 0
M  V30 4514 C 408.109 -5.17531 -4.21566 0
M  V30 4515 H 407.379 -0.247975 -0.698276 0
M  V30 4516 H 410.026 -1.25584 -1.44571 0
M  V30 4517 H 408.331 -0.376457 -3.89987 0
M  V30 4518 H 410.028 -0.766113 -3.93614 0
M  V30 4519 H 406.618 -2.17866 -3.69097 0
M  V30 4520 H 410.802 -3.14853 -3.83642 0
M  V30 4521 H 406.058 -4.53734 -4.09799 0
M  V30 4522 H 410.232 -5.51189 -4.25633 0
M  V30 4523 H 407.859 -6.21102 -4.38333 0
M  V30 4524 N 409.434 1.37368 -0.772513 0
M  V30 4525 C 410.659 2.0447 -0.347386 0
M  V30 4526 C 411.084 1.57882 1.0225 0
M  V30 4527 O 410.442 0.73941 1.65537 0
M  V30 4528 C 410.49 3.58369 -0.400479 0
M  V30 4529 O 409.594 4.0803 0.598789 0
M  V30 4530 H 408.935 0.646773 -0.15027 0
M  V30 4531 H 411.465 1.75667 -1.04892 0
M  V30 4532 H 411.475 4.07183 -0.258045 0
M  V30 4533 H 410.15 3.91633 -1.39986 0
M  V30 4534 H 408.727 3.70534 0.419411 0
M  V30 4535 N 410.912 0.523116 1.48665 0
M  V30 4536 C 412.142 -0.00961724 2.06598 0
M  V30 4537 C 412.55 -1.29333 1.38093 0
M  V30 4538 O 411.893 -1.77846 0.46007 0
M  V30 4539 C 411.955 -0.311135 3.58151 0
M  V30 4540 C 411.619 0.878092 4.48485 0
M  V30 4541 C 412.616 1.77464 4.88674 0
M  V30 4542 C 410.301 1.08315 4.90483 0
M  V30 4543 C 412.295 2.86021 5.69623 0
M  V30 4544 C 409.982 2.17187 5.71203 0
M  V30 4545 C 410.98 3.05873 6.10681 0
M  V30 4546 O 410.668 4.12862 6.89783 0
M  V30 4547 H 410.4 0.0272658 0.67545 0
M  V30 4548 H 412.954 0.726156 1.92136 0
M  V30 4549 H 411.184 -1.10079 3.70701 0
M  V30 4550 H 412.873 -0.785125 3.98234 0
M  V30 4551 H 413.639 1.62813 4.56855 0
M  V30 4552 H 409.518 0.402149 4.59243 0
M  V30 4553 H 413.062 3.55272 6.00356 0
M  V30 4554 H 408.959 2.31824 6.02435 0
M  V30 4555 H 409.727 4.10487 7.08126 0
M  V30 4556 N 412.39 -1.55475 0.257931 0
M  V30 4557 C 413.3 -2.2549 -0.647425 0
M  V30 4558 C 414.316 -1.2748 -1.18427 0
M  V30 4559 O 415.492 -1.6038 -1.2182 0
M  V30 4560 C 412.557 -2.94916 -1.82278 0
M  V30 4561 C 411.618 -4.08363 -1.32432 0
M  V30 4562 C 410.851 -4.74469 -2.44366 0
M  V30 4563 O 411.074 -4.39701 -3.63344 0
M  V30 4564 O 410.008 -5.62763 -2.13497 0
M  V30 4565 H 413.834 -3.03593 -0.0807707 0
M  V30 4566 H 411.419 -1.49377 0.0259962 0
M  V30 4567 H 413.301 -3.38606 -2.50846 0
M  V30 4568 H 411.976 -2.19744 -2.37685 0
M  V30 4569 H 410.883 -3.69166 -0.605605 0
M  V30 4570 H 412.216 -4.85385 -0.816211 0
M  V30 4571 N 413.868 0.0150385 -1.57593 0
M  V30 4572 C 415.093 0.718067 -1.94573 0
M  V30 4573 C 415.518 1.6734 -0.859005 0
M  V30 4574 O 414.876 1.80362 0.184147 0
M  V30 4575 C 414.924 1.43918 -3.30636 0
M  V30 4576 O 414.028 2.55299 -3.23876 0
M  V30 4577 H 413.369 0.192125 -0.635597 0
M  V30 4578 H 415.899 -0.0336708 -2.04572 0
M  V30 4579 H 415.909 1.80598 -3.65853 0
M  V30 4580 H 414.584 0.738619 -4.09289 0
M  V30 4581 H 413.161 2.21058 -3.00312 0
M  V30 4582 N 415.346 1.54954 0.287554 0
M  V30 4583 C 416.256 1.8991 1.37736 0
M  V30 4584 C 417.272 0.794701 1.54792 0
M  V30 4585 O 418.448 1.09243 1.69198 0
M  V30 4586 C 415.513 2.15108 2.71899 0
M  V30 4587 C 414.574 3.38752 2.63715 0
M  V30 4588 C 413.807 3.62739 3.91479 0
M  V30 4589 O 414.03 2.89492 4.91478 0
M  V30 4590 O 412.964 4.56267 3.92561 0
M  V30 4591 H 416.79 2.82652 1.11092 0
M  V30 4592 H 414.375 1.41315 0.484807 0
M  V30 4593 H 416.257 2.32806 3.51254 0
M  V30 4594 H 414.932 1.25551 2.9836 0
M  V30 4595 H 413.839 3.26405 1.82786 0
M  V30 4596 H 415.172 4.28483 2.42205 0
M  V30 4597 N 416.824 -0.551391 1.4764 0
M  V30 4598 C 417.754 -1.66757 1.63445 0
M  V30 4599 C 418.735 -1.63077 0.483742 0
M  V30 4600 O 419.92 -1.80607 0.71377 0
M  V30 4601 C 417.05 -3.05387 1.65396 0
M  V30 4602 C 416.004 -3.23918 2.79752 0
M  V30 4603 C 415.33 -4.63393 2.66779 0
M  V30 4604 C 416.63 -3.08735 4.21284 0
M  V30 4605 H 418.324 -1.53786 2.56886 0
M  V30 4606 H 415.87 -0.738415 1.23626 0
M  V30 4607 H 417.823 -3.83325 1.75043 0
M  V30 4608 H 416.547 -3.19332 0.685195 0
M  V30 4609 H 415.206 -2.48391 2.69625 0
M  V30 4610 H 414.854 -4.74144 1.67918 0
M  V30 4611 H 414.554 -4.7674 3.43501 0
M  V30 4612 H 416.078 -5.43458 2.78364 0
M  V30 4613 H 417.492 -3.76484 4.32357 0
M  V30 4614 H 415.889 -3.33588 4.98838 0
M  V30 4615 H 416.959 -2.0541 4.39243 0
M  V30 4616 N 418.302 -1.35869 -0.798587 0
M  V30 4617 C 419.549 -1.29588 -1.55606 0
M  V30 4618 C 419.877 0.127456 -1.94082 0
M  V30 4619 O 419.132 1.09461 -1.62225 0
M  V30 4620 C 419.431 -2.1556 -2.85077 0
M  V30 4621 C 419.097 -3.6424 -2.65781 0
M  V30 4622 C 417.759 -4.04766 -2.60227 0
M  V30 4623 C 420.111 -4.58547 -2.47758 0
M  V30 4624 C 417.439 -5.37753 -2.34603 0
M  V30 4625 C 419.791 -5.91742 -2.23662 0
M  V30 4626 C 418.455 -6.31402 -2.16534 0
M  V30 4627 H 417.725 -0.474197 -0.569402 0
M  V30 4628 H 420.372 -1.67839 -0.922086 0
M  V30 4629 H 418.677 -1.70216 -3.52893 0
M  V30 4630 H 420.374 -2.08031 -3.42818 0
M  V30 4631 H 416.964 -3.32086 -2.70956 0
M  V30 4632 H 421.148 -4.28117 -2.51056 0
M  V30 4633 H 416.404 -5.67474 -2.2756 0
M  V30 4634 H 420.578 -6.6439 -2.08708 0
M  V30 4635 H 418.205 -7.34381 -1.96441 0
M  V30 4636 N 419.78 1.02168 -1.19998 0
M  V30 4637 C 421.191 1.57135 -1.00825 0
M  V30 4638 C 421.542 1.91276 0.436818 0
M  V30 4639 O 420.667 1.71679 1.3174 0
M  V30 4640 C 421.262 2.85514 -1.82393 0
M  V30 4641 C 419.821 3.37027 -1.67601 0
M  V30 4642 C 418.968 2.10388 -1.80644 0
M  V30 4643 H 421.919 0.846106 -1.34264 0
M  V30 4644 H 421.94 3.56711 -1.32429 0
M  V30 4645 H 421.452 2.60634 -2.87561 0
M  V30 4646 H 419.553 3.66878 -0.650485 0
M  V30 4647 H 419.666 4.09572 -2.4857 0
M  V30 4648 H 418.03 2.22601 -1.23778 0
M  V30 4649 H 418.813 1.8794 -2.87286 0
M  V30 4650 N 421.258 1.00505 1.21394 0
M  V30 4651 C 422.486 0.706609 1.9446 0
M  V30 4652 C 422.901 -0.73081 1.74082 0
M  V30 4653 O 422.258 -1.49446 1.04747 0
M  V30 4654 C 422.309 1.01824 3.46863 0
M  V30 4655 O 422.03 2.39919 3.66566 0
M  V30 4656 C 423.531 0.739216 4.37093 0
M  V30 4657 H 420.751 0.260394 0.618414 0
M  V30 4658 H 423.295 1.34311 1.54211 0
M  V30 4659 H 421.45 0.427343 3.85036 0
M  V30 4660 H 421.864 2.50784 4.6066 0
M  V30 4661 H 423.338 1.00744 5.42729 0
M  V30 4662 H 423.815 -0.326746 4.37983 0
M  V30 4663 H 424.421 1.31173 4.04566 0
M  V30 4664 N 422.737 -1.36956 0.779787 0
M  V30 4665 C 423.984 -1.99491 0.347766 0
M  V30 4666 C 424.312 -1.61898 -1.07793 0
M  V30 4667 O 423.567 -0.86071 -1.75756 0
M  V30 4668 C 423.866 -3.54585 0.447686 0
M  V30 4669 C 423.532 -4.1197 1.83279 0
M  V30 4670 C 422.194 -4.27356 2.2118 0
M  V30 4671 C 424.546 -4.43354 2.74019 0
M  V30 4672 C 421.874 -4.71432 3.4924 0
M  V30 4673 C 424.226 -4.88858 4.01497 0
M  V30 4674 C 422.89 -5.0245 4.39432 0
M  V30 4675 H 422.16 -0.729991 0.127257 0
M  V30 4676 H 424.807 -1.63599 0.995376 0
M  V30 4677 H 423.112 -3.90773 -0.283447 0
M  V30 4678 H 424.809 -4.00888 0.0945948 0
M  V30 4679 H 421.399 -4.00428 1.52825 0
M  V30 4680 H 425.583 -4.31045 2.45995 0
M  V30 4681 H 420.839 -4.80141 3.78516 0
M  V30 4682 H 425.013 -5.12108 4.71931 0
M  V30 4683 H 422.64 -5.36362 5.38721 0
M  V30 4684 N 424.215 -0.530993 -1.48385 0
M  V30 4685 C 425.162 0.231223 -2.29639 0
M  V30 4686 C 426.132 0.932864 -1.37429 0
M  V30 4687 O 427.317 0.933692 -1.66394 0
M  V30 4688 C 424.457 1.27155 -3.2082 0
M  V30 4689 C 423.57 0.578655 -4.28107 0
M  V30 4690 C 422.705 1.602 -5.06467 0
M  V30 4691 C 421.744 0.892625 -6.05556 0
M  V30 4692 N 420.881 1.86157 -6.76971 0
M  V30 4693 H 425.721 -0.467848 -2.94305 0
M  V30 4694 H 423.258 -0.242556 -1.45086 0
M  V30 4695 H 425.216 1.88703 -3.72085 0
M  V30 4696 H 423.846 1.939 -2.58075 0
M  V30 4697 H 422.898 -0.150782 -3.80101 0
M  V30 4698 H 424.21 0.0217065 -4.98795 0
M  V30 4699 H 423.364 2.29173 -5.61751 0
M  V30 4700 H 422.103 2.19285 -4.35621 0
M  V30 4701 H 421.108 0.188829 -5.49476 0
M  V30 4702 H 422.333 0.307878 -6.78402 0
M  V30 4703 H 420.279 2.44147 -6.08875 0
M  V30 4704 H 420.196 1.35608 -7.43738 0
M  V30 4705 H 421.464 2.54325 -7.36844 0
M  V30 4706 N 425.693 1.55336 -0.266172 0
M  V30 4707 C 426.97 1.91372 0.404486 0
M  V30 4708 C 427.35 1.18935 1.74407 0
M  V30 4709 O 426.698 0.3132 2.26343 0
M  V30 4710 C 426.908 3.44581 0.553593 0
M  V30 4711 C 428.256 4.16196 0.840618 0
M  V30 4712 O 429.28 3.50426 0.638739 0
M  V30 4713 O 428.139 5.32567 1.22618 0
M  V30 4714 H 425.233 0.797194 0.220025 0
M  V30 4715 H 427.779 1.66813 -0.311664 0
M  V30 4716 H 426.551 3.89357 -0.389498 0
M  V30 4717 H 426.174 3.75065 1.31955 0
M  V30 4718 N 427.171 -0.0066808 1.57599 0
M  V30 4719 C 428.42 -0.692078 1.89455 0
M  V30 4720 C 428.733 -1.75306 0.867586 0
M  V30 4721 O 429.939 -2.49262 1.07614 0
M  V30 4722 C 428.395 -1.2821 3.36289 0
M  V30 4723 C 428.003 -0.256291 4.47266 0
M  V30 4724 C 429.747 -1.94608 3.77264 0
M  V30 4725 C 427.654 -0.855927 5.85173 0
M  V30 4726 H 426.584 -0.262252 0.706923 0
M  V30 4727 H 429.235 0.052769 1.83424 0
M  V30 4728 H 427.617 -2.0774 3.37135 0
M  V30 4729 H 428.791 0.513923 4.57925 0
M  V30 4730 H 427.106 0.306862 4.15268 0
M  V30 4731 H 429.703 -2.40364 4.77629 0
M  V30 4732 H 430.046 -2.77382 3.10427 0
M  V30 4733 H 430.579 -1.21822 3.78688 0
M  V30 4734 H 427.318 -0.0671161 6.55466 0
M  V30 4735 H 426.838 -1.59546 5.78191 0
M  V30 4736 H 428.517 -1.35658 6.32618 0
M  V30 4737 N 428.649 -1.55105 -0.279332 0
M  V30 4738 C 430.065 -1.46803 -0.626187 0
M  V30 4739 C 430.265 -0.676939 -1.89789 0
M  V30 4740 O 429.321 -0.19326 -2.51759 0
M  V30 4741 C 430.634 -2.90962 -0.759034 0
M  V30 4742 C 432.182 -3.01138 -0.853504 0
M  V30 4743 C 432.657 -4.46539 -1.01818 0
M  V30 4744 N 434.148 -4.50341 -1.08386 0
M  V30 4745 C 434.883 -5.60053 -1.22996 0
M  V30 4746 N 434.379 -6.79645 -1.34366 0
M  V30 4747 N 436.172 -5.47783 -1.26056 0
M  V30 4748 H 428.323 -2.04996 0.555921 0
M  V30 4749 H 430.586 -0.929325 0.187239 0
M  V30 4750 H 430.292 -3.51544 0.104852 0
M  V30 4751 H 430.166 -3.39619 -1.64131 0
M  V30 4752 H 432.553 -2.40658 -1.70786 0
M  V30 4753 H 432.634 -2.55745 0.0532466 0
M  V30 4754 H 432.278 -5.0762 -0.168504 0
M  V30 4755 H 432.208 -4.89583 -1.93948 0
M  V30 4756 H 434.699 -3.64191 -1.00864 0
M  V30 4757 H 435.012 -7.59012 -1.4533 0
M  V30 4758 H 433.357 -6.82469 -1.31382 0
M  V30 4759 H 436.548 -4.53294 -1.168 0
M  V30 4760 H 436.721 -6.33331 -1.37098 0
M  V30 4761 N 430.127 0.543554 -1.4793 0
M  V30 4762 C 431.543 0.870806 -1.3375 0
M  V30 4763 C 431.743 1.9864 -0.338261 0
M  V30 4764 O 430.799 2.51305 0.245371 0
M  V30 4765 C 432.112 1.25114 -2.73435 0
M  V30 4766 C 433.66 1.3618 -2.81823 0
M  V30 4767 C 434.135 1.77563 -4.22179 0
M  V30 4768 N 435.626 1.8469 -4.24787 0
M  V30 4769 C 436.361 2.18067 -5.30315 0
M  V30 4770 N 435.857 2.49963 -6.46135 0
M  V30 4771 N 437.65 2.18958 -5.17701 0
M  V30 4772 H 429.801 -0.19275 -2.11524 0
M  V30 4773 H 432.064 -0.0235777 -0.947707 0
M  V30 4774 H 431.77 0.50514 -3.48053 0
M  V30 4775 H 431.644 2.20431 -3.06088 0
M  V30 4776 H 434.031 2.09859 -2.07468 0
M  V30 4777 H 434.112 0.390169 -2.52807 0
M  V30 4778 H 433.756 1.04449 -4.97044 0
M  V30 4779 H 433.686 2.75753 -4.48629 0
M  V30 4780 H 436.177 1.62372 -3.41239 0
M  V30 4781 H 436.49 2.74497 -7.22406 0
M  V30 4782 H 434.835 2.47513 -6.49432 0
M  V30 4783 H 438.026 1.93488 -4.2624 0
M  V30 4784 H 438.199 2.44639 -6.00047 0
M  V30 4785 N 431.605 1.3629 0.791371 0
M  V30 4786 C 432.515 1.32606 1.93527 0
M  V30 4787 C 433.531 0.228541 1.72493 0
M  V30 4788 O 434.707 0.460571 1.96063 0
M  V30 4789 C 431.772 1.11271 3.28359 0
M  V30 4790 C 430.833 2.3048 3.62185 0
M  V30 4791 C 430.066 2.10154 4.90583 0
M  V30 4792 O 430.289 1.07572 5.60165 0
M  V30 4793 O 429.223 2.97884 5.23019 0
M  V30 4794 H 433.049 2.28909 1.99585 0
M  V30 4795 H 430.634 1.16818 0.931344 0
M  V30 4796 H 432.516 1.01283 4.09047 0
M  V30 4797 H 431.191 0.180292 3.23198 0
M  V30 4798 H 430.098 2.46036 2.81811 0
M  V30 4799 H 431.431 3.22221 3.72068 0
M  V30 4800 N 433.083 -1.0153 1.20538 0
M  V30 4801 C 434.36 -1.72327 0.925343 0
M  V30 4802 C 434.74 -2.03383 -0.565547 0
M  V30 4803 O 434.088 -1.69934 -1.52757 0
M  V30 4804 C 434.298 -2.9902 1.79967 0
M  V30 4805 C 435.646 -3.72258 2.04228 0
M  V30 4806 O 436.67 -3.08979 1.77231 0
M  V30 4807 O 435.529 -4.86053 2.4983 0
M  V30 4808 H 432.623 -0.751099 0.346092 0
M  V30 4809 H 435.169 -1.07366 1.31417 0
M  V30 4810 H 433.941 -2.72402 2.80915 0
M  V30 4811 H 433.564 -3.71721 1.41099 0
M  V30 4812 N 434.561 -1.01147 -1.20859 0
M  V30 4813 C 435.789 -0.716911 -1.94082 0
M  V30 4814 C 436.204 0.721568 -1.74467 0
M  V30 4815 O 435.561 1.48889 -1.05539 0
M  V30 4816 C 435.612 -1.03662 -3.46318 0
M  V30 4817 O 435.333 -2.4186 -3.65288 0
M  V30 4818 C 436.834 -0.762386 -4.36695 0
M  V30 4819 H 434.054 -0.26367 -0.617024 0
M  V30 4820 H 436.598 -1.35127 -1.53496 0
M  V30 4821 H 434.753 -0.447757 -3.84804 0
M  V30 4822 H 435.167 -2.53224 -4.59323 0
M  V30 4823 H 436.641 -1.03621 -5.42187 0
M  V30 4824 H 437.118 0.303514 -4.3815 0
M  V30 4825 H 437.724 -1.33316 -4.03865 0
M  V30 4826 N 436.039 1.36541 -0.78704 0
M  V30 4827 C 436.969 2.32659 -0.197992 0
M  V30 4828 C 437.95 1.56533 0.665697 0
M  V30 4829 O 439.135 1.84698 0.60001 0
M  V30 4830 C 436.265 3.40778 0.669901 0
M  V30 4831 C 435.219 4.27897 -0.0937039 0
M  V30 4832 C 434.545 5.27163 0.894629 0
M  V30 4833 C 435.845 5.06334 -1.28154 0
M  V30 4834 H 437.539 2.82171 -1.00099 0
M  V30 4835 H 435.085 1.35665 -0.482793 0
M  V30 4836 H 437.038 4.07008 1.09191 0
M  V30 4837 H 435.762 2.89827 1.50558 0
M  V30 4838 H 434.421 3.6322 -0.49666 0
M  V30 4839 H 434.069 4.72486 1.72527 0
M  V30 4840 H 433.769 5.86317 0.388149 0
M  V30 4841 H 435.293 5.96266 1.31525 0
M  V30 4842 H 436.707 5.65617 -0.93541 0
M  V30 4843 H 435.104 5.74888 -1.72115 0
M  V30 4844 H 436.174 4.38114 -2.07807 0
M  V30 4845 N 437.518 0.538854 1.48102 0
M  V30 4846 C 438.795 -0.0568108 1.95517 0
M  V30 4847 C 439.175 -1.50408 1.48124 0
M  V30 4848 O 438.523 -2.17133 0.711727 0
M  V30 4849 C 438.733 0.0696262 3.48931 0
M  V30 4850 C 440.081 -0.0851202 4.24515 0
M  V30 4851 O 441.105 -0.0037347 3.562 0
M  V30 4852 O 439.964 -0.257025 5.45895 0
M  V30 4853 H 437.058 -0.0743695 0.823649 0
M  V30 4854 H 439.604 0.604081 1.58584 0
M  V30 4855 H 438.376 1.07744 3.76174 0
M  V30 4856 H 437.999 -0.629714 3.92582 0
M  V30 4857 N 438.996 -1.55193 0.274407 0
M  V30 4858 C 440.242 -1.99877 -0.343086 0
M  V30 4859 C 440.575 -1.16256 -1.55558 0
M  V30 4860 O 439.85 -0.232462 -1.93106 0
M  V30 4861 C 440.133 -3.52706 -0.725965 0
M  V30 4862 C 439.986 -4.47081 0.493818 0
M  V30 4863 C 441.305 -4.11422 -1.56268 0
M  V30 4864 H 438.424 -0.726625 -0.123229 0
M  V30 4865 H 441.066 -1.86136 0.38121 0
M  V30 4866 H 439.216 -3.64546 -1.34307 0
M  V30 4867 H 440.888 -4.47186 1.13237 0
M  V30 4868 H 439.131 -4.1877 1.13201 0
M  V30 4869 H 439.802 -5.51699 0.18217 0
M  V30 4870 H 442.278 -4.02855 -1.04151 0
M  V30 4871 H 441.154 -5.18568 -1.79939 0
M  V30 4872 H 441.415 -3.61607 -2.54348 0
M  V30 4873 N 440.474 -0.00167713 -1.576 0
M  V30 4874 C 441.384 1.00548 -2.1196 0
M  V30 4875 C 442.4 1.3758 -1.06526 0
M  V30 4876 O 443.576 1.46278 -1.38436 0
M  V30 4877 C 440.641 2.27809 -2.6135 0
M  V30 4878 C 439.702 1.97074 -3.81393 0
M  V30 4879 C 438.935 3.18267 -4.28417 0
M  V30 4880 O 439.158 4.30009 -3.74765 0
M  V30 4881 O 438.092 3.02167 -5.20556 0
M  V30 4882 H 441.918 0.573373 -2.98238 0
M  V30 4883 H 439.503 0.217255 -1.47812 0
M  V30 4884 H 441.385 3.02568 -2.93309 0
M  V30 4885 H 440.06 2.70254 -1.78169 0
M  V30 4886 H 438.967 1.19785 -3.54404 0
M  V30 4887 H 440.3 1.59464 -4.65652 0
M  V30 4888 N 441.952 1.55251 0.271103 0
M  V30 4889 C 443.198 1.76207 1.00394 0
M  V30 4890 C 443.531 0.562604 1.85872 0
M  V30 4891 O 442.806 -0.439785 1.89463 0
M  V30 4892 C 443.089 3.06828 1.8849 0
M  V30 4893 C 442.942 4.37134 1.05992 0
M  V30 4894 C 444.261 3.33503 2.87165 0
M  V30 4895 H 441.38 0.641086 0.363562 0
M  V30 4896 H 444.022 1.87982 0.276189 0
M  V30 4897 H 442.172 2.96921 2.5054 0
M  V30 4898 H 443.844 4.59001 0.459978 0
M  V30 4899 H 442.087 4.32275 0.363443 0
M  V30 4900 H 442.758 5.2486 1.70955 0
M  V30 4901 H 445.234 3.43215 2.3525 0
M  V30 4902 H 444.11 4.2616 3.45946 0
M  V30 4903 H 444.371 2.53235 3.62387 0
M  V30 4904 N 443.43 -0.535701 1.48216 0
M  V30 4905 C 444.655 -1.32149 1.59848 0
M  V30 4906 C 445.08 -1.86338 0.256842 0
M  V30 4907 O 444.438 -1.64107 -0.770632 0
M  V30 4908 C 444.486 -2.45224 2.64381 0
M  V30 4909 O 443.59 -3.48093 2.21144 0
M  V30 4910 H 442.931 -0.391634 0.536208 0
M  V30 4911 H 445.461 -0.645202 1.94161 0
M  V30 4912 H 445.471 -2.91491 2.85476 0
M  V30 4913 H 444.146 -2.05143 3.61786 0
M  V30 4914 H 442.723 -3.07984 2.10239 0
M  V30 4915 N 444.908 -1.36708 -0.784132 0
M  V30 4916 C 445.871 -1.31307 -1.87859 0
M  V30 4917 C 446.871 -0.219654 -1.59293 0
M  V30 4918 O 448.061 -0.47476 -1.67606 0
M  V30 4919 C 445.193 -1.03679 -3.24751 0
M  V30 4920 H 446.386 -2.28647 -1.94064 0
M  V30 4921 H 443.939 -1.21558 -0.98252 0
M  V30 4922 H 444.674 -0.0681936 -3.24228 0
M  V30 4923 H 444.459 -1.82811 -3.46876 0
M  V30 4924 H 445.949 -1.02518 -4.04821 0
M  V30 4925 N 446.386 1.0089 -1.21074 0
M  V30 4926 C 447.611 1.78727 -1.05221 0
M  V30 4927 C 448.036 1.83932 0.393795 0
M  V30 4928 O 447.394 1.28004 1.28393 0
M  V30 4929 C 447.442 3.20665 -1.64944 0
M  V30 4930 O 446.546 4.02632 -0.892273 0
M  V30 4931 H 445.887 0.550973 -0.370574 0
M  V30 4932 H 448.417 1.26847 -1.60534 0
M  V30 4933 H 448.427 3.71352 -1.69002 0
M  V30 4934 H 447.102 3.16191 -2.70177 0
M  V30 4935 H 445.679 3.61207 -0.926492 0
M  V30 4936 N 447.864 1.01787 1.20321 0
M  V30 4937 C 449.112 0.706538 1.89347 0
M  V30 4938 C 449.433 -0.766289 1.79313 0
M  V30 4939 O 448.703 -1.55126 1.19635 0
M  V30 4940 H 447.283 0.258348 0.700903 0
M  V30 4941 H 449.945 1.28974 1.46122 0
M  V30 4942 H 449.041 0.991066 2.95946 0
M  V30 4943 N 449.342 -1.36122 0.79427 0
M  V30 4944 C 450.572 -2.03067 0.380437 0
M  V30 4945 C 450.98 -1.60018 -1.00949 0
M  V30 4946 O 450.323 -0.787425 -1.65968 0
M  V30 4947 C 450.385 -3.57587 0.37034 0
M  V30 4948 C 450.049 -4.23855 1.70867 0
M  V30 4949 C 451.046 -4.46404 2.66496 0
M  V30 4950 C 448.731 -4.61229 1.9893 0
M  V30 4951 C 450.725 -5.05412 3.88378 0
M  V30 4952 C 448.412 -5.19953 3.21079 0
M  V30 4953 C 449.41 -5.41985 4.15621 0
M  V30 4954 O 449.098 -5.99475 5.35616 0
M  V30 4955 H 448.83 -0.658168 0.154243 0
M  V30 4956 H 451.384 -1.7498 1.0757 0
M  V30 4957 H 449.614 -3.84814 -0.381444 0
M  V30 4958 H 451.303 -4.05895 -0.0194894 0
M  V30 4959 H 452.069 -4.17921 2.46103 0
M  V30 4960 H 447.948 -4.43402 1.26158 0
M  V30 4961 H 451.492 -5.22524 4.62185 0
M  V30 4962 H 447.389 -5.47862 3.41347 0
M  V30 4963 H 448.157 -6.17937 5.36745 0
M  V30 4964 N 450.82 -0.546701 -1.47814 0
M  V30 4965 C 452.048 -0.0232857 -2.06887 0
M  V30 4966 C 452.463 1.26571 -1.4009 0
M  V30 4967 O 451.82 1.7569 -0.493906 0
M  V30 4968 C 451.871 0.186975 -3.61016 0
M  V30 4969 O 451.592 -1.05097 -4.25307 0
M  V30 4970 C 453.093 0.748872 -4.36929 0
M  V30 4971 H 450.313 -0.0410763 -0.669742 0
M  V30 4972 H 452.857 -0.757117 -1.89968 0
M  V30 4973 H 451.012 0.870903 -3.77484 0
M  V30 4974 H 451.426 -0.842121 -5.17695 0
M  V30 4975 H 452.9 0.845334 -5.45489 0
M  V30 4976 H 453.377 1.75772 -4.02493 0
M  V30 4977 H 453.983 0.100979 -4.2518 0
M  V30 4978 N 452.299 1.55045 -0.282633 0
M  V30 4979 C 453.246 2.22822 0.601566 0
M  V30 4980 C 454.216 1.20431 1.14392 0
M  V30 4981 O 455.401 1.48996 1.19184 0
M  V30 4982 C 452.541 2.95873 1.77632 0
M  V30 4983 C 451.654 4.12999 1.26711 0
M  V30 4984 C 450.789 4.73676 2.40426 0
M  V30 4985 C 449.828 5.82981 1.86545 0
M  V30 4986 N 448.965 6.3769 2.93762 0
M  V30 4987 H 453.805 2.97995 0.0169528 0
M  V30 4988 H 451.342 1.471 -0.00339964 0
M  V30 4989 H 453.3 3.36447 2.46697 0
M  V30 4990 H 451.93 2.2311 2.33285 0
M  V30 4991 H 450.982 3.77494 0.469314 0
M  V30 4992 H 452.294 4.91803 0.832518 0
M  V30 4993 H 451.448 5.17008 3.17471 0
M  V30 4994 H 450.187 3.94164 2.87203 0
M  V30 4995 H 449.192 5.39092 1.07983 0
M  V30 4996 H 450.417 6.64366 1.40694 0
M  V30 4997 H 448.363 5.61069 3.39908 0
M  V30 4998 H 448.28 7.11788 2.54744 0
M  V30 4999 H 449.548 6.8568 3.7076 0
M  V30 5000 N 453.777 0.010035 1.57597 0
M  V30 5001 C 454.687 -0.994226 2.12491 0
M  V30 5002 C 455.703 -1.37013 1.07254 0
M  V30 5003 O 456.879 -1.45542 1.3921 0
M  V30 5004 C 453.944 -2.2642 2.62555 0
M  V30 5005 C 453.005 -1.95049 3.82432 0
M  V30 5006 C 452.238 -3.15991 4.30099 0
M  V30 5007 O 452.461 -4.28015 3.7704 0
M  V30 5008 O 451.395 -2.99403 5.22151 0
M  V30 5009 H 455.221 -0.557549 2.98538 0
M  V30 5010 H 452.806 -0.209413 1.47925 0
M  V30 5011 H 454.688 -3.01009 2.9491 0
M  V30 5012 H 453.363 -2.69306 1.796 0
M  V30 5013 H 452.27 -1.17904 3.55034 0
M  V30 5014 H 453.603 -1.56992 4.66491 0
M  V30 5015 N 455.255 -1.55392 -0.262866 0
M  V30 5016 C 456.188 -1.8391 -1.35101 0
M  V30 5017 C 457.166 -0.692901 -1.47097 0
M  V30 5018 O 458.35 -0.936979 -1.63563 0
M  V30 5019 C 455.477 -2.00969 -2.72634 0
M  V30 5020 C 454.523 -3.23559 -2.7787 0
M  V30 5021 S 455.356 -4.80647 -2.3609 0
M  V30 5022 C 456.512 -5.00692 -3.75578 0
M  V30 5023 H 456.745 -2.75918 -1.1071 0
M  V30 5024 H 454.278 -1.47294 -0.463029 0
M  V30 5025 H 456.236 -2.11482 -3.51832 0
M  V30 5026 H 454.897 -1.09832 -2.94272 0
M  V30 5027 H 454.09 -3.32413 -3.78837 0
M  V30 5028 H 453.692 -3.11689 -2.06702 0
M  V30 5029 H 455.984 -4.87055 -4.70939 0
M  V30 5030 H 456.927 -6.02717 -3.71669 0
M  V30 5031 H 457.335 -4.28619 -3.6735 0
M  V30 5032 N 456.733 0.527833 -1.48498 0
M  V30 5033 C 457.665 1.6482 -1.5927 0
M  V30 5034 C 458.678 1.55659 -0.476869 0
M  V30 5035 O 459.867 1.62081 -0.747806 0
M  V30 5036 C 456.967 3.0348 -1.50842 0
M  V30 5037 C 456.14 3.381 -2.77502 0
M  V30 5038 C 455.199 4.5605 -2.62497 0
M  V30 5039 O 454.225 4.59165 -3.36387 0
M  V30 5040 N 455.427 5.54353 -1.72257 0
M  V30 5041 H 458.192 1.56015 -2.55889 0
M  V30 5042 H 455.753 0.715152 -1.45249 0
M  V30 5043 H 457.745 3.80264 -1.38496 0
M  V30 5044 H 456.315 3.06352 -0.621887 0
M  V30 5045 H 455.535 2.50473 -3.04396 0
M  V30 5046 H 456.823 3.58017 -3.61527 0
M  V30 5047 H 456.221 5.54617 -1.11431 0
M  V30 5048 H 454.778 6.30347 -1.65849 0
M  V30 5049 N 458.211 1.37122 0.776871 0
M  V30 5050 C 459.174 1.32301 1.8716 0
M  V30 5051 C 460.174 0.228099 1.59174 0
M  V30 5052 O 461.364 0.483642 1.67352 0
M  V30 5053 C 458.496 1.054 3.24197 0
M  V30 5054 H 459.689 2.29673 1.92848 0
M  V30 5055 H 457.242 1.22077 0.97606 0
M  V30 5056 H 457.977 0.0853872 3.24188 0
M  V30 5057 H 457.762 1.84648 3.45901 0
M  V30 5058 H 459.252 1.04664 4.04271 0
M  V30 5059 N 459.689 -1.00246 1.21608 0
M  V30 5060 C 460.966 -1.71336 0.943568 0
M  V30 5061 C 461.346 -2.03972 -0.543943 0
M  V30 5062 O 460.694 -1.71545 -1.50946 0
M  V30 5063 C 460.904 -2.97094 1.83128 0
M  V30 5064 C 462.252 -3.70071 2.08165 0
M  V30 5065 O 463.276 -3.07081 1.80498 0
M  V30 5066 O 462.135 -4.83376 2.54971 0
M  V30 5067 H 459.229 -0.747386 0.354039 0
M  V30 5068 H 461.775 -1.05967 1.32549 0
M  V30 5069 H 460.547 -2.69407 2.83788 0
M  V30 5070 H 460.17 -3.70204 1.45034 0
M  V30 5071 N 461.167 -1.02423 -1.1978 0
M  V30 5072 C 462.444 -0.632802 -1.85081 0
M  V30 5073 C 462.824 0.888745 -1.9148 0
M  V30 5074 O 462.172 1.78357 -1.42832 0
M  V30 5075 C 462.382 -1.28947 -3.24305 0
M  V30 5076 C 463.73 -1.40976 -4.00513 0
M  V30 5077 O 464.754 -1.24628 -3.33686 0
M  V30 5078 O 463.613 -1.67467 -5.20209 0
M  V30 5079 H 460.707 -0.219348 -0.79738 0
M  V30 5080 H 463.253 -1.12209 -1.27307 0
M  V30 5081 H 462.025 -2.3288 -3.14456 0
M  V30 5082 H 461.648 -0.787748 -3.89718 0
M  V30 5083 N 462.645 1.35699 -0.801477 0
M  V30 5084 C 463.555 2.33661 -0.209691 0
M  V30 5085 C 464.571 1.6162 0.644591 0
M  V30 5086 O 465.747 1.93529 0.557545 0
M  V30 5087 C 462.812 3.40816 0.636033 0
M  V30 5088 C 461.873 4.28639 -0.238147 0
M  V30 5089 C 461.106 5.30676 0.567307 0
M  V30 5090 O 461.329 5.41174 1.8024 0
M  V30 5091 O 460.263 6.01887 -0.0391336 0
M  V30 5092 H 464.089 2.8606 -1.01996 0
M  V30 5093 H 461.674 1.38379 -0.563164 0
M  V30 5094 H 463.556 4.06301 1.11791 0
M  V30 5095 H 462.231 2.90696 1.42399 0
M  V30 5096 H 461.138 3.66152 -0.767044 0
M  V30 5097 H 462.471 4.82143 -0.989915 0
M  V30 5098 N 464.123 0.554532 1.47522 0
M  V30 5099 C 465.053 -0.182974 2.32782 0
M  V30 5100 C 466.034 -0.911377 1.43624 0
M  V30 5101 O 467.219 -0.892366 1.72483 0
M  V30 5102 C 464.349 -1.21513 3.25349 0
M  V30 5103 C 463.303 -0.603355 4.23726 0
M  V30 5104 C 462.629 -1.73995 5.05598 0
M  V30 5105 C 463.929 0.441121 5.20434 0
M  V30 5106 H 465.623 0.52882 2.94693 0
M  V30 5107 H 463.169 0.255759 1.41711 0
M  V30 5108 H 465.122 -1.73922 3.83835 0
M  V30 5109 H 463.846 -1.95683 2.61487 0
M  V30 5110 H 462.505 -0.10059 3.66462 0
M  V30 5111 H 462.153 -2.47063 4.38143 0
M  V30 5112 H 461.853 -1.3364 5.72201 0
M  V30 5113 H 463.377 -2.26735 5.66942 0
M  V30 5114 H 464.791 0.00319931 5.733 0
M  V30 5115 H 463.188 0.763402 5.95224 0
M  V30 5116 H 464.258 1.33799 4.66075 0
M  V30 5117 N 465.601 -1.54893 0.290851 0
M  V30 5118 C 466.531 -2.26103 -0.583084 0
M  V30 5119 C 467.512 -1.25684 -1.14619 0
M  V30 5120 O 468.697 -1.54436 -1.17741 0
M  V30 5121 C 465.827 -2.99409 -1.75987 0
M  V30 5122 C 464.781 -4.0689 -1.32758 0
M  V30 5123 C 464.107 -4.67856 -2.58872 0
M  V30 5124 C 465.407 -5.20215 -0.46624 0
M  V30 5125 H 467.101 -2.99398 0.0108214 0
M  V30 5126 H 464.647 -1.43998 0.00664468 0
M  V30 5127 H 466.6 -3.47943 -2.37727 0
M  V30 5128 H 465.324 -2.23675 -2.37985 0
M  V30 5129 H 463.983 -3.59191 -0.733299 0
M  V30 5130 H 463.631 -3.88772 -3.19163 0
M  V30 5131 H 463.331 -5.40438 -2.30653 0
M  V30 5132 H 464.855 -5.19147 -3.21433 0
M  V30 5133 H 466.269 -5.64704 -0.989047 0
M  V30 5134 H 464.666 -5.99455 -0.27826 0
M  V30 5135 H 465.736 -4.82198 0.511173 0
M  V30 5136 N 467.08 -0.0183926 -1.57589 0
M  V30 5137 C 468.03 0.975944 -2.06057 0
M  V30 5138 C 469.014 1.29204 -0.958908 0
M  V30 5139 O 470.206 1.27995 -1.22255 0
M  V30 5140 C 467.335 2.26194 -2.58247 0
M  V30 5141 C 466.421 1.97467 -3.75323 0
M  V30 5142 N 466.812 1.38968 -4.86335 0
M  V30 5143 C 465.11 2.27515 -3.83605 0
M  V30 5144 C 465.811 1.27131 -5.67638 0
M  V30 5145 N 464.787 1.76319 -5.14211 0
M  V30 5146 H 468.589 0.518444 -2.89291 0
M  V30 5147 H 466.103 0.18688 -1.61321 0
M  V30 5148 H 468.1 2.98289 -2.91255 0
M  V30 5149 H 466.76 2.7258 -1.76438 0
M  V30 5150 H 467.771 1.06608 -5.06809 0
M  V30 5151 H 464.448 2.76649 -3.12684 0
M  V30 5152 H 465.838 0.819882 -6.66879 0
M  V30 5153 N 468.558 1.5553 0.254621 0
M  V30 5154 C 469.969 1.67518 0.824286 0
M  V30 5155 C 470.32 0.614429 1.86331 0
M  V30 5156 O 469.445 -0.240736 2.15057 0
M  V30 5157 C 470.04 3.03692 1.50189 0
M  V30 5158 C 468.599 3.17646 2.01935 0
M  V30 5159 C 467.746 2.63373 0.867746 0
M  V30 5160 H 470.697 1.58671 0.0305843 0
M  V30 5161 H 470.718 2.97706 2.36962 0
M  V30 5162 H 470.23 3.80874 0.745431 0
M  V30 5163 H 468.331 2.45273 2.80485 0
M  V30 5164 H 468.444 4.24455 2.22204 0
M  V30 5165 H 466.808 2.20999 1.26616 0
M  V30 5166 H 467.591 3.43074 0.124498 0
M  V30 5167 N 470.036 -0.519951 1.48776 0
M  V30 5168 C 470.966 -1.63253 1.66945 0
M  V30 5169 C 471.947 -1.62014 0.518224 0
M  V30 5170 O 473.132 -1.79053 0.751919 0
M  V30 5171 C 470.262 -3.0181 1.71836 0
M  V30 5172 C 469.216 -3.17911 2.8656 0
M  V30 5173 C 468.542 -4.5763 2.76548 0
M  V30 5174 C 469.842 -2.99729 4.27738 0
M  V30 5175 H 471.536 -1.48302 2.6009 0
M  V30 5176 H 469.082 -0.712026 1.25165 0
M  V30 5177 H 471.035 -3.79525 1.83135 0
M  V30 5178 H 469.759 -3.17806 0.752775 0
M  V30 5179 H 468.418 -2.42616 2.74833 0
M  V30 5180 H 468.066 -4.70476 1.77937 0
M  V30 5181 H 467.766 -4.69346 3.53536 0
M  V30 5182 H 469.29 -5.37431 2.89828 0
M  V30 5183 H 470.704 -3.67228 4.40246 0
M  V30 5184 H 469.101 -3.22932 5.05801 0
M  V30 5185 H 470.171 -1.96047 4.43502 0
M  V30 5186 N 471.514 -1.37532 -0.769588 0
M  V30 5187 C 472.762 -1.32597 -1.5252 0
M  V30 5188 C 473.083 0.0884294 -1.94799 0
M  V30 5189 O 472.353 1.03289 -1.66458 0
M  V30 5190 H 470.933 -0.487846 -0.565699 0
M  V30 5191 H 473.595 -1.72044 -0.915806 0
M  V30 5192 H 472.691 -1.96643 -2.42359 0
M  V30 5193 N 472.992 0.995999 -1.22138 0
M  V30 5194 C 474.403 1.54961 -1.04135 0
M  V30 5195 C 474.754 1.92159 0.396147 0
M  V30 5196 O 473.879 1.74435 1.28069 0
M  V30 5197 C 474.474 2.81581 -1.88408 0
M  V30 5198 C 473.033 3.33396 -1.74712 0
M  V30 5199 C 472.18 2.06509 -1.85066 0
M  V30 5200 H 475.131 0.817436 -1.36028 0
M  V30 5201 H 475.152 3.53822 -1.39966 0
M  V30 5202 H 474.664 2.54476 -2.93025 0
M  V30 5203 H 472.765 3.65416 -0.728159 0
M  V30 5204 H 472.878 4.04208 -2.57202 0
M  V30 5205 H 471.242 2.19925 -1.28472 0
M  V30 5206 H 472.025 1.81804 -2.91208 0
M  V30 5207 N 474.47 1.03057 1.19235 0
M  V30 5208 C 475.747 0.642608 1.84743 0
M  V30 5209 C 476.127 -0.878577 1.91948 0
M  V30 5210 O 475.475 -1.77597 1.43776 0
M  V30 5211 C 475.685 1.30665 3.23616 0
M  V30 5212 C 477.033 1.43098 3.9976 0
M  V30 5213 O 478.057 1.26396 3.3302 0
M  V30 5214 O 476.916 1.70223 5.19313 0
M  V30 5215 H 474.01 0.223573 0.796206 0
M  V30 5216 H 476.556 1.12883 1.26711 0
M  V30 5217 H 475.328 2.34544 3.13217 0
M  V30 5218 H 474.951 0.808405 3.89295 0
M  V30 5219 N 475.948 -1.35272 0.808662 0
M  V30 5220 C 477.225 -1.93077 0.313181 0
M  V30 5221 C 477.605 -1.73847 -1.19752 0
M  V30 5222 O 476.953 -1.1087 -1.998 0
M  V30 5223 C 477.163 -3.41347 0.726859 0
M  V30 5224 C 478.511 -4.18493 0.717532 0
M  V30 5225 O 479.535 -3.4987 0.668535 0
M  V30 5226 O 478.394 -5.40937 0.777779 0
M  V30 5227 H 475.488 -0.822885 0.0824018 0
M  V30 5228 H 478.034 -1.44335 0.892499 0
M  V30 5229 H 476.806 -3.49082 1.76797 0
M  V30 5230 H 476.429 -3.97411 0.122461 0
M  V30 5231 N 477.426 -0.562348 -1.47226 0
M  V30 5232 C 478.373 0.182461 -2.30078 0
M  V30 5233 C 479.343 0.903503 -1.39377 0
M  V30 5234 O 480.528 0.898188 -1.68337 0
M  V30 5235 C 477.668 1.20322 -3.23445 0
M  V30 5236 C 476.781 0.487717 -4.29238 0
M  V30 5237 C 475.916 1.49422 -5.09752 0
M  V30 5238 C 474.955 0.763976 -6.07314 0
M  V30 5239 N 474.092 1.71755 -6.80768 0
M  V30 5240 H 478.932 -0.530169 -2.93246 0
M  V30 5241 H 476.469 -0.273276 -1.44539 0
M  V30 5242 H 478.427 1.80768 -3.76004 0
M  V30 5243 H 477.057 1.88382 -2.6213 0
M  V30 5244 H 476.109 -0.231374 -3.79696 0
M  V30 5245 H 477.421 -0.0841003 -4.98729 0
M  V30 5246 H 476.575 2.17206 -5.66486 0
M  V30 5247 H 475.314 2.09995 -4.40174 0
M  V30 5248 H 474.319 0.0722344 -5.49753 0
M  V30 5249 H 475.544 0.16391 -6.78902 0
M  V30 5250 H 473.49 2.31177 -6.13916 0
M  V30 5251 H 473.407 1.19802 -7.46447 0
M  V30 5252 H 474.675 2.38638 -7.42073 0
M  V30 5253 N 478.904 1.54736 -0.299062 0
M  V30 5254 C 479.852 2.24897 0.593658 0
M  V30 5255 C 480.846 1.25429 1.13859 0
M  V30 5256 O 482.052 1.43286 1.08945 0
M  V30 5257 H 478.427 0.72207 0.210046 0
M  V30 5258 H 480.398 2.98393 -0.0206421 0
M  V30 5259 C 479.147 3.00159 1.75499 0
M  V30 5260 H 478.47 3.76501 1.34489 0
M  V30 5261 H 479.91 3.52535 2.35574 0
M  V30 5262 C 478.369 2.07015 2.65794 0
M  V30 5263 O 478.899 1.63692 3.66835 0
M  V30 5264 N 477.105 1.73012 2.33485 0
M  V30 5265 H 476.652 2.08439 1.51364 0
M  V30 5266 H 476.61 1.10965 2.94167 0
M  V30 5267 N 480.382 0.0267497 1.57577 0
M  V30 5268 C 481.631 -0.651736 1.9088 0
M  V30 5269 C 481.944 -1.73427 0.904576 0
M  V30 5270 O 483.15 -2.46923 1.12877 0
M  V30 5271 C 481.606 -1.21048 3.38933 0
M  V30 5272 C 481.214 -0.161362 4.47709 0
M  V30 5273 C 482.958 -1.86562 3.81307 0
M  V30 5274 C 480.865 -0.731611 5.86857 0
M  V30 5275 H 479.795 -0.247198 0.712326 0
M  V30 5276 H 482.446 0.0916641 1.83271 0
M  V30 5277 H 480.828 -2.00542 3.41466 0
M  V30 5278 H 482.002 0.61094 4.56732 0
M  V30 5279 H 480.317 0.394877 4.14523 0
M  V30 5280 H 482.914 -2.30178 4.8262 0
M  V30 5281 H 483.257 -2.70735 3.16241 0
M  V30 5282 H 483.79 -1.13762 3.81186 0
M  V30 5283 H 480.529 0.0719329 6.55461 0
M  V30 5284 H 480.049 -1.47245 5.81445 0
M  V30 5285 H 481.728 -1.22208 6.35354 0
M  V30 5286 N 481.861 -1.55662 -0.24637 0
M  V30 5287 C 482.771 -1.93495 -1.32653 0
M  V30 5288 C 483.787 -0.835462 -1.5263 0
M  V30 5289 O 484.963 -1.1369 -1.66242 0
M  V30 5290 C 482.028 -2.22242 -2.66101 0
M  V30 5291 C 481.089 -3.45625 -2.54641 0
M  V30 5292 C 480.322 -3.72991 -3.81724 0
M  V30 5293 O 480.545 -3.02421 -4.8363 0
M  V30 5294 O 479.479 -4.66515 -3.80325 0
M  V30 5295 H 483.305 -2.85498 -1.03559 0
M  V30 5296 H 480.89 -1.42551 -0.44717 0
M  V30 5297 H 482.772 -2.42037 -3.44958 0
M  V30 5298 H 481.447 -1.33417 -2.94926 0
M  V30 5299 H 480.354 -3.31136 -1.74067 0
M  V30 5300 H 481.687 -4.34754 -2.3076 0
M  V30 5301 N 483.339 0.512053 -1.4905 0
M  V30 5302 C 484.567 1.29116 -1.61669 0
M  V30 5303 C 484.982 1.86655 -0.283787 0
M  V30 5304 O 484.339 1.67293 0.729331 0
M  V30 5305 C 484.39 2.4293 -2.67707 0
M  V30 5306 O 484.111 1.87758 -3.95826 0
M  V30 5307 C 485.612 3.34476 -2.90931 0
M  V30 5308 H 482.832 0.392009 -0.544583 0
M  V30 5309 H 485.376 0.615881 -1.95006 0
M  V30 5310 H 483.531 3.06308 -2.37179 0
M  V30 5311 H 483.945 2.62393 -4.54148 0
M  V30 5312 H 485.419 4.10642 -3.68886 0
M  V30 5313 H 485.896 3.90801 -2.00427 0
M  V30 5314 H 486.502 2.76874 -3.22832 0
M  V30 5315 N 484.817 1.37938 0.762283 0
M  V30 5316 C 485.764 1.34467 1.87583 0
M  V30 5317 C 486.734 0.208633 1.64785 0
M  V30 5318 O 487.919 0.399494 1.86571 0
M  V30 5319 C 485.059 1.16692 3.24772 0
M  V30 5320 C 484.172 2.39608 3.59461 0
M  V30 5321 C 483.307 2.14631 4.85908 0
M  V30 5322 C 482.346 3.33364 5.13357 0
M  V30 5323 N 481.483 3.07877 6.30996 0
M  V30 5324 H 486.323 2.29669 1.89885 0
M  V30 5325 H 483.86 1.14116 0.928219 0
M  V30 5326 H 485.818 1.04405 4.03925 0
M  V30 5327 H 484.448 0.251333 3.2182 0
M  V30 5328 H 483.5 2.626 2.75219 0
M  V30 5329 H 484.812 3.28128 3.75678 0
M  V30 5330 H 483.966 1.99429 5.72986 0
M  V30 5331 H 482.705 1.23463 4.71814 0
M  V30 5332 H 481.71 3.49094 4.24751 0
M  V30 5333 H 482.935 4.25395 5.29354 0
M  V30 5334 H 480.881 2.19348 6.18241 0
M  V30 5335 H 480.798 3.89944 6.47673 0
M  V30 5336 H 482.066 2.96313 7.20985 0
M  V30 5337 N 486.295 -0.989507 1.22664 0
M  V30 5338 C 487.205 -2.11449 1.01619 0
M  V30 5339 C 488.221 -1.73962 -0.036545 0
M  V30 5340 O 489.397 -2.00788 0.156924 0
M  V30 5341 C 486.462 -3.41465 0.600204 0
M  V30 5342 C 485.523 -3.93033 1.72695 0
M  V30 5343 C 484.756 -5.16844 1.33071 0
M  V30 5344 O 484.979 -5.7001 0.210975 0
M  V30 5345 O 483.913 -5.6225 2.14845 0
M  V30 5346 H 487.739 -2.32088 1.9588 0
M  V30 5347 H 485.324 -1.09823 1.01289 0
M  V30 5348 H 487.206 -4.19695 0.37873 0
M  V30 5349 H 485.881 -3.22178 -0.313511 0
M  V30 5350 H 484.788 -3.15961 2.00298 0
M  V30 5351 H 486.121 -4.16758 2.61865 0
M  V30 5352 N 487.773 -1.03688 -1.18687 0
M  V30 5353 C 489.021 -0.736572 -1.88199 0
M  V30 5354 C 489.342 0.737665 -1.80509 0
M  V30 5355 O 488.612 1.53204 -1.22088 0
M  V30 5356 H 487.192 -0.269466 -0.696704 0
M  V30 5357 H 489.854 -1.31282 -1.44052 0
M  V30 5358 H 488.95 -1.03802 -2.94332 0
M  V30 5359 N 489.251 1.34841 -0.815825 0
M  V30 5360 C 490.476 2.03261 -0.41226 0
M  V30 5361 C 490.901 1.61055 0.971751 0
M  V30 5362 O 490.259 0.7917 1.63101 0
M  V30 5363 C 490.307 3.56914 -0.514289 0
M  V30 5364 O 489.411 4.09728 0.468675 0
M  V30 5365 H 488.752 0.641664 -0.170771 0
M  V30 5366 H 491.282 1.72241 -1.10427 0
M  V30 5367 H 491.292 4.06156 -0.387457 0
M  V30 5368 H 489.967 3.86982 -1.52375 0
M  V30 5369 H 488.544 3.71681 0.301316 0
M  V30 5370 N 490.729 0.570148 1.46925 0
M  V30 5371 C 491.639 -0.173061 2.33961 0
M  V30 5372 C 492.655 -0.898825 1.48987 0
M  V30 5373 O 493.831 -0.864825 1.81887 0
M  V30 5374 C 490.896 -1.18177 3.25937 0
M  V30 5375 C 489.957 -0.462041 4.26806 0
M  V30 5376 C 489.19 -1.4227 5.14388 0
M  V30 5377 O 489.413 -2.65842 5.04662 0
M  V30 5378 O 488.347 -0.940127 5.94513 0
M  V30 5379 H 492.173 0.541216 2.98839 0
M  V30 5380 H 489.758 0.330647 1.45695 0
M  V30 5381 H 491.64 -1.76372 3.82715 0
M  V30 5382 H 490.315 -1.87774 2.63671 0
M  V30 5383 H 489.222 0.161429 3.73752 0
M  V30 5384 H 490.555 0.192719 4.91823 0
M  V30 5385 N 492.207 -1.54576 0.307264 0
M  V30 5386 C 493.454 -2.00263 -0.300167 0
M  V30 5387 C 493.782 -1.19561 -1.53413 0
M  V30 5388 O 493.037 -0.261487 -1.93945 0
M  V30 5389 C 493.336 -3.50572 -0.695253 0
M  V30 5390 C 493.002 -4.48771 0.437679 0
M  V30 5391 C 491.664 -4.7534 0.748681 0
M  V30 5392 C 494.016 -5.0721 1.19949 0
M  V30 5393 C 491.344 -5.5761 1.8245 0
M  V30 5394 C 493.696 -5.90651 2.26527 0
M  V30 5395 C 492.36 -6.15528 2.58227 0
M  V30 5396 H 491.63 -0.732814 -0.109839 0
M  V30 5397 H 494.277 -1.86664 0.427661 0
M  V30 5398 H 492.582 -3.61814 -1.50326 0
M  V30 5399 H 494.279 -3.83352 -1.17653 0
M  V30 5400 H 490.869 -4.282 0.185187 0
M  V30 5401 H 495.053 -4.86679 0.972474 0
M  V30 5402 H 490.309 -5.75121 2.07476 0
M  V30 5403 H 494.483 -6.34957 2.86011 0
M  V30 5404 H 492.11 -6.79066 3.4172 0
M  V30 5405 N 493.685 -0.035106 -1.57561 0
M  V30 5406 C 494.91 0.655802 -1.96759 0
M  V30 5407 C 495.335 1.64523 -0.911809 0
M  V30 5408 O 494.693 1.80857 0.126673 0
M  V30 5409 C 494.741 1.33326 -3.35047 0
M  V30 5410 O 493.845 2.44866 -3.31835 0
M  V30 5411 H 493.186 0.171807 -0.641388 0
M  V30 5412 H 495.716 -0.0987369 -2.04362 0
M  V30 5413 H 495.726 1.68867 -3.71413 0
M  V30 5414 H 494.401 0.608033 -4.11431 0
M  V30 5415 H 492.978 2.11392 -3.07193 0
M  V30 5416 N 495.163 1.55791 0.238111 0
M  V30 5417 C 496.41 1.78033 0.964907 0
M  V30 5418 C 496.738 0.600984 1.84982 0
M  V30 5419 O 495.993 -0.41536 1.91241 0
M  V30 5420 C 496.292 3.05869 1.84875 0
M  V30 5421 C 495.958 4.36808 1.11846 0
M  V30 5422 C 494.62 4.72388 0.916662 0
M  V30 5423 C 496.972 5.17717 0.60151 0
M  V30 5424 C 494.3 5.86406 0.185756 0
M  V30 5425 C 496.652 6.32494 -0.115972 0
M  V30 5426 C 495.316 6.66688 -0.329168 0
M  V30 5427 H 494.586 0.651469 0.353085 0
M  V30 5428 H 497.233 1.90061 0.234318 0
M  V30 5429 H 495.538 2.88891 2.64668 0
M  V30 5430 H 497.235 3.20278 2.41294 0
M  V30 5431 H 493.825 4.08862 1.28569 0
M  V30 5432 H 498.009 4.90678 0.744932 0
M  V30 5433 H 493.265 6.11399 0.0101886 0
M  V30 5434 H 497.439 6.94425 -0.524127 0
M  V30 5435 H 495.066 7.54884 -0.897474 0
M  V30 5436 N 496.642 -0.504142 1.49319 0
M  V30 5437 C 497.867 -1.28729 1.62615 0
M  V30 5438 C 498.292 -1.85752 0.296309 0
M  V30 5439 O 497.65 -1.65704 -0.735649 0
M  V30 5440 C 497.698 -2.39561 2.69524 0
M  V30 5441 O 496.802 -3.43324 2.28478 0
M  V30 5442 H 496.143 -0.380172 0.544395 0
M  V30 5443 H 498.673 -0.603872 1.95485 0
M  V30 5444 H 498.683 -2.8537 2.91595 0
M  V30 5445 H 497.358 -1.97423 3.66056 0
M  V30 5446 H 495.935 -3.03455 2.16725 0
M  V30 5447 N 498.12 -1.38341 -0.754957 0
M  V30 5448 C 499.397 -1.24995 -1.50451 0
M  V30 5449 C 499.777 0.149244 -2.10572 0
M  V30 5450 O 499.125 1.15861 -1.96948 0
M  V30 5451 C 499.335 -2.35904 -2.57197 0
M  V30 5452 C 500.683 -2.74262 -3.24138 0
M  V30 5453 O 501.707 -2.35205 -2.67501 0
M  V30 5454 O 500.566 -3.4161 -4.26574 0
M  V30 5455 H 497.66 -0.48872 -0.667144 0
M  V30 5456 H 500.206 -1.50165 -0.790486 0
M  V30 5457 H 498.978 -3.2953 -2.11011 0
M  V30 5458 H 498.601 -2.12291 -3.36182 0
M  V30 5459 N 499.598 0.982988 -1.23187 0
M  V30 5460 C 500.846 1.72052 -1.06031 0
M  V30 5461 C 501.167 1.90769 0.404019 0
M  V30 5462 O 500.437 1.47446 1.28982 0
M  V30 5463 H 499.017 0.637499 -0.389363 0
M  V30 5464 H 501.679 1.18338 -1.54862 0
M  V30 5465 H 500.775 2.7111 -1.54615 0
M  V30 5466 N 501.076 1.04316 1.18135 0
M  V30 5467 C 501.986 0.646876 2.25505 0
M  V30 5468 C 503.002 -0.328008 1.7088 0
M  V30 5469 O 504.178 -0.182309 2.00573 0
M  V30 5470 C 501.243 0.0185664 3.46695 0
M  V30 5471 C 500.304 1.04277 4.16443 0
M  V30 5472 C 499.537 0.444352 5.31847 0
M  V30 5473 O 499.76 -0.748735 5.65465 0
M  V30 5474 O 498.694 1.17428 5.90334 0
M  V30 5475 H 502.52 1.54147 2.61672 0
M  V30 5476 H 500.105 0.814188 1.25265 0
M  V30 5477 H 501.987 -0.331068 4.20097 0
M  V30 5478 H 500.662 -0.849814 3.12346 0
M  V30 5479 H 499.569 1.44425 3.45098 0
M  V30 5480 H 500.902 1.882 4.54798 0
M  V30 5481 N 502.554 -1.34406 0.822964 0
M  V30 5482 C 503.8 -1.98578 0.411666 0
M  V30 5483 C 504.133 -1.65093 -1.02264 0
M  V30 5484 O 503.408 -0.92258 -1.71227 0
M  V30 5485 C 503.691 -3.54823 0.614235 0
M  V30 5486 C 503.544 -3.9805 2.09466 0
M  V30 5487 C 504.863 -4.40071 0.050221 0
M  V30 5488 H 501.982 -0.721355 0.151047 0
M  V30 5489 H 504.624 -1.59301 1.03554 0
M  V30 5490 H 502.774 -3.88411 0.0831774 0
M  V30 5491 H 504.446 -3.74795 2.68936 0
M  V30 5492 H 502.689 -3.4836 2.5851 0
M  V30 5493 H 503.36 -5.06819 2.18721 0
M  V30 5494 H 505.836 -4.13037 0.503953 0
M  V30 5495 H 504.712 -5.48452 0.221759 0
M  V30 5496 H 504.973 -4.29576 -1.04482 0
M  V30 5497 N 504.032 -0.577932 -1.46621 0
M  V30 5498 C 504.995 0.147805 -2.28723 0
M  V30 5499 C 505.995 0.823325 -1.38123 0
M  V30 5500 O 507.185 0.676011 -1.60548 0
M  V30 5501 C 504.317 1.21853 -3.18378 0
M  V30 5502 H 505.51 -0.573654 -2.94362 0
M  V30 5503 H 503.063 -0.335703 -1.52652 0
M  V30 5504 H 503.798 1.97173 -2.57475 0
M  V30 5505 H 503.583 0.738714 -3.85078 0
M  V30 5506 H 505.073 1.72768 -3.80186 0
M  V30 5507 N 505.51 1.54411 -0.315457 0
M  V30 5508 C 506.42 2.27737 0.56329 0
M  V30 5509 C 507.436 1.31787 1.13614 0
M  V30 5510 O 508.612 1.64791 1.15784 0
M  V30 5511 C 505.677 3.01478 1.71207 0
M  V30 5512 C 504.738 4.12997 1.17185 0
M  V30 5513 C 503.971 4.83212 2.26588 0
M  V30 5514 O 504.194 4.52884 3.46775 0
M  V30 5515 O 503.128 5.70299 1.92463 0
M  V30 5516 H 506.954 3.03683 -0.0319614 0
M  V30 5517 H 504.539 1.49178 -0.0814188 0
M  V30 5518 H 506.421 3.47683 2.38106 0
M  V30 5519 H 505.096 2.28414 2.29366 0
M  V30 5520 H 504.003 3.71159 0.468174 0
M  V30 5521 H 505.336 4.8808 0.635501 0
M  V30 5522 N 506.988 0.0434614 1.5754 0
M  V30 5523 C 507.935 -0.93356 2.11077 0
M  V30 5524 C 508.905 -1.31383 1.01626 0
M  V30 5525 O 510.09 -1.40465 1.29129 0
M  V30 5526 C 507.23 -2.20578 2.65404 0
M  V30 5527 C 506.343 -1.88068 3.88914 0
M  V30 5528 C 505.478 -3.09691 4.31584 0
M  V30 5529 C 504.517 -2.73067 5.47815 0
M  V30 5530 N 503.654 -3.87359 5.85574 0
M  V30 5531 H 508.494 -0.470118 2.94268 0
M  V30 5532 H 506.031 -0.220434 1.45439 0
M  V30 5533 H 507.989 -2.95011 2.94999 0
M  V30 5534 H 506.619 -2.64513 1.85021 0
M  V30 5535 H 505.671 -1.03816 3.6596 0
M  V30 5536 H 506.983 -1.57104 4.73413 0
M  V30 5537 H 506.137 -3.92431 4.62691 0
M  V30 5538 H 504.876 -3.43827 3.45882 0
M  V30 5539 H 503.881 -1.88742 5.16388 0
M  V30 5540 H 505.106 -2.40131 6.35227 0
M  V30 5541 H 503.052 -4.21311 5.02825 0
M  V30 5542 H 502.969 -3.60068 6.64746 0
M  V30 5543 H 504.237 -4.70761 6.21292 0
M  V30 5544 N 508.466 -1.55915 -0.229846 0
M  V30 5545 C 509.429 -1.90914 -1.26824 0
M  V30 5546 C 510.429 -0.786999 -1.40225 0
M  V30 5547 O 511.619 -1.05484 -1.38632 0
M  V30 5548 C 508.751 -2.15264 -2.64337 0
M  V30 5549 H 509.944 -2.8378 -0.969998 0
M  V30 5550 H 507.497 -1.49069 -0.4699 0
M  V30 5551 H 508.232 -1.24923 -2.99274 0
M  V30 5552 H 508.017 -2.97005 -2.55989 0
M  V30 5553 H 509.507 -2.43467 -3.39284 0
M  V30 5554 N 509.944 0.496216 -1.49584 0
M  V30 5555 C 510.854 1.62352 -1.69349 0
M  V30 5556 C 511.87 1.64184 -0.576147 0
M  V30 5557 O 513.046 1.82517 -0.85144 0
M  V30 5558 C 510.111 2.98698 -1.76013 0
M  V30 5559 C 509.172 3.07454 -2.99617 0
M  V30 5560 C 508.405 4.37296 -3.05953 0
M  V30 5561 O 508.628 5.2637 -2.19752 0
M  V30 5562 O 507.562 4.51124 -3.9846 0
M  V30 5563 H 511.388 1.48606 -2.64859 0
M  V30 5564 H 508.973 0.673022 -1.33382 0
M  V30 5565 H 510.855 3.79725 -1.82721 0
M  V30 5566 H 509.53 3.12696 -0.836828 0
M  V30 5567 H 508.437 2.25597 -2.98424 0
M  V30 5568 H 509.77 2.98385 -3.91443 0
M  V30 5569 N 511.423 1.38739 0.74761 0
M  V30 5570 C 512.669 1.35475 1.50912 0
M  V30 5571 C 513.002 -0.0533093 1.94127 0
M  V30 5572 O 512.277 -1.01572 1.65871 0
M  V30 5573 C 512.56 2.31582 2.75757 0
M  V30 5574 C 512.413 3.81274 2.38642 0
M  V30 5575 C 513.732 2.25722 3.77806 0
M  V30 5576 H 510.851 0.493427 0.547447 0
M  V30 5577 H 513.493 1.69634 0.855823 0
M  V30 5578 H 511.643 2.02582 3.31501 0
M  V30 5579 H 513.315 4.20972 1.88626 0
M  V30 5580 H 511.558 3.98664 1.71025 0
M  V30 5581 H 512.229 4.4399 3.27989 0
M  V30 5582 H 514.705 2.51336 3.31616 0
M  V30 5583 H 513.581 2.95069 4.62845 0
M  V30 5584 H 513.842 1.25803 4.23823 0
M  V30 5585 N 512.901 -0.976442 1.23707 0
M  V30 5586 C 514.131 -1.75087 1.09673 0
M  V30 5587 C 514.539 -1.85852 -0.354344 0
M  V30 5588 O 513.882 -1.33985 -1.25673 0
M  V30 5589 C 513.944 -3.19272 1.65245 0
M  V30 5590 C 513.608 -3.32004 3.14042 0
M  V30 5591 C 514.605 -3.18017 4.11292 0
M  V30 5592 C 512.29 -3.56525 3.53829 0
M  V30 5593 C 514.284 -3.28363 5.46312 0
M  V30 5594 C 511.971 -3.6651 4.88993 0
M  V30 5595 C 512.969 -3.52439 5.85043 0
M  V30 5596 O 512.657 -3.62063 7.1775 0
M  V30 5597 H 512.389 -0.556164 0.384262 0
M  V30 5598 H 514.943 -1.23518 1.64111 0
M  V30 5599 H 513.173 -3.72107 1.05231 0
M  V30 5600 H 514.862 -3.7849 1.46629 0
M  V30 5601 H 515.628 -2.98966 3.81896 0
M  V30 5602 H 511.507 -3.66547 2.79579 0
M  V30 5603 H 515.051 -3.17297 6.21263 0
M  V30 5604 H 510.948 -3.85072 5.18063 0
M  V30 5605 H 511.716 -3.78833 7.25553 0
M  V30 5606 N 514.379 -1.04941 -1.1758 0
M  V30 5607 C 515.627 -0.756492 -1.87408 0
M  V30 5608 C 515.948 0.718478 -1.81281 0
M  V30 5609 O 515.218 1.519 -1.23706 0
M  V30 5610 H 513.798 -0.276841 -0.693807 0
M  V30 5611 H 516.46 -1.32803 -1.42652 0
M  V30 5612 H 515.556 -1.06918 -2.93215 0
M  V30 5613 N 515.857 1.33968 -0.830081 0
M  V30 5614 C 517.082 2.02813 -0.433796 0
M  V30 5615 C 517.507 1.62076 0.954614 0
M  V30 5616 O 516.865 0.808955 1.62252 0
M  V30 5617 C 516.913 3.56348 -0.552115 0
M  V30 5618 O 516.017 4.10202 0.425191 0
M  V30 5619 H 515.358 0.639817 -0.177567 0
M  V30 5620 H 517.888 1.7106 -1.12248 0
M  V30 5621 H 517.898 4.05722 -0.430513 0
M  V30 5622 H 516.573 3.85344 -1.56471 0
M  V30 5623 H 515.15 3.71979 0.261878 0
M  V30 5624 N 517.335 0.585699 1.46312 0
M  V30 5625 C 518.245 -0.148236 2.34131 0
M  V30 5626 C 519.261 -0.882972 1.49932 0
M  V30 5627 O 520.437 -0.845484 1.82794 0
M  V30 5628 C 517.502 -1.14714 3.27172 0
M  V30 5629 C 516.563 -0.416746 4.27272 0
M  V30 5630 C 515.796 -1.36806 5.15868 0
M  V30 5631 O 516.019 -2.60475 5.07454 0
M  V30 5632 O 514.953 -0.877018 5.95476 0
M  V30 5633 H 518.779 0.572882 2.98248 0
M  V30 5634 H 516.364 0.346082 1.45336 0
M  V30 5635 H 518.246 -1.72303 3.84564 0
M  V30 5636 H 516.921 -1.84967 2.65648 0
M  V30 5637 H 515.828 0.201061 3.73559 0
M  V30 5638 H 517.161 0.244872 4.9159 0
M  V30 5639 N 518.813 -1.54241 0.323641 0
M  V30 5640 C 519.761 -2.25813 -0.557804 0
M  V30 5641 C 520.755 -1.27225 -1.11849 0
M  V30 5642 O 521.961 -1.45001 -1.06652 0
M  V30 5643 H 518.336 -0.72532 -0.198532 0
M  V30 5644 H 520.307 -2.98322 0.0681112 0
M  V30 5645 C 519.056 -3.02913 -1.70701 0
M  V30 5646 H 518.379 -3.78593 -1.28482 0
M  V30 5647 H 519.819 -3.56238 -2.29935 0
M  V30 5648 C 518.278 -2.11217 -2.62467 0
M  V30 5649 O 518.808 -1.69508 -3.64184 0
M  V30 5650 N 517.014 -1.76704 -2.30703 0
M  V30 5651 H 516.561 -2.1082 -1.48029 0
M  V30 5652 H 516.519 -1.15631 -2.92364 0
M  V30 5653 N 520.291 -0.0518155 -1.57515 0
M  V30 5654 C 521.201 0.937539 -2.15052 0
M  V30 5655 C 522.217 1.34121 -1.10849 0
M  V30 5656 O 523.393 1.418 -1.4302 0
M  V30 5657 C 520.458 2.19379 -2.68466 0
M  V30 5658 C 519.519 1.84841 -3.87469 0
M  V30 5659 C 518.752 3.04477 -4.38326 0
M  V30 5660 O 518.975 4.17868 -3.88256 0
M  V30 5661 O 517.909 2.85453 -5.29906 0
M  V30 5662 H 521.735 0.478201 -2.99912 0
M  V30 5663 H 519.32 0.17012 -1.48428 0
M  V30 5664 H 521.202 2.93084 -3.02787 0
M  V30 5665 H 519.877 2.64449 -1.86677 0
M  V30 5666 H 518.784 1.08449 -3.58036 0
M  V30 5667 H 520.117 1.44569 -4.7049 0
M  V30 5668 N 521.769 1.56035 0.221574 0
M  V30 5669 C 522.994 1.83476 0.967026 0
M  V30 5670 C 523.419 0.632139 1.7716 0
M  V30 5671 O 522.777 -0.419082 1.7639 0
M  V30 5672 C 522.825 3.08907 1.86034 0
M  V30 5673 O 521.929 2.876 2.95567 0
M  V30 5674 H 521.27 0.604913 0.273817 0
M  V30 5675 H 523.8 2.03247 0.234893 0
M  V30 5676 H 523.81 3.3901 2.27016 0
M  V30 5677 H 522.485 3.96068 1.26898 0
M  V30 5678 H 521.062 2.6873 2.58532 0
M  V30 5679 N 523.247 -0.488276 1.49845 0
M  V30 5680 C 524.157 -1.61451 1.70207 0
M  V30 5681 C 525.173 -1.63877 0.584846 0
M  V30 5682 O 526.349 -1.82063 0.861107 0
M  V30 5683 C 523.414 -2.9776 1.77594 0
M  V30 5684 C 522.475 -3.05861 3.01243 0
M  V30 5685 C 521.708 -4.35668 3.08268 0
M  V30 5686 O 521.931 -5.25197 2.22541 0
M  V30 5687 O 520.865 -4.49005 4.00847 0
M  V30 5688 H 524.691 -1.47199 2.65643 0
M  V30 5689 H 522.276 -0.665939 1.33737 0
M  V30 5690 H 524.158 -3.7875 1.84732 0
M  V30 5691 H 522.833 -3.12248 0.8534 0
M  V30 5692 H 521.74 -2.24012 2.99616 0
M  V30 5693 H 523.073 -2.96304 3.9302 0
M  V30 5694 N 524.725 -1.39134 -0.740242 0
M  V30 5695 C 526.141 -1.20623 -1.0451 0
M  V30 5696 C 526.341 -0.0641651 -2.01398 0
M  V30 5697 O 525.397 0.585843 -2.4561 0
M  V30 5698 C 526.71 -2.53815 -1.6124 0
M  V30 5699 C 528.258 -2.60615 -1.73346 0
M  V30 5700 C 528.733 -3.94015 -2.33486 0
M  V30 5701 N 530.224 -3.95627 -2.40902 0
M  V30 5702 C 530.959 -4.95616 -2.88361 0
M  V30 5703 N 530.455 -6.06003 -3.35756 0
M  V30 5704 N 532.248 -4.82998 -2.87523 0
M  V30 5705 H 524.399 -2.12176 -0.0975576 0
M  V30 5706 H 526.662 -0.942066 -0.105904 0
M  V30 5707 H 526.368 -3.37911 -0.975144 0
M  V30 5708 H 526.242 -2.73162 -2.6012 0
M  V30 5709 H 528.629 -1.76906 -2.36195 0
M  V30 5710 H 528.71 -2.45123 -0.731336 0
M  V30 5711 H 528.354 -4.78153 -1.71267 0
M  V30 5712 H 528.284 -4.06825 -3.34366 0
M  V30 5713 H 530.775 -3.15903 -2.07398 0
M  V30 5714 H 531.088 -6.78215 -3.70464 0
M  V30 5715 H 529.433 -6.09604 -3.33778 0
M  V30 5716 H 532.624 -3.95866 -2.49816 0
M  V30 5717 H 532.797 -5.61072 -3.24196 0
M  V30 5718 N 526.204 0.969867 -1.24223 0
M  V30 5719 C 527.152 2.08535 -1.03034 0
M  V30 5720 C 528.146 1.69366 0.0340379 0
M  V30 5721 O 529.352 1.79597 -0.12034 0
M  V30 5722 H 525.727 0.682313 -0.316154 0
M  V30 5723 H 527.698 2.23569 -1.97635 0
M  V30 5724 C 526.447 3.4158 -0.649509 0
M  V30 5725 H 525.77 3.72177 -1.46028 0
M  V30 5726 H 527.21 4.20536 -0.540841 0
M  V30 5727 C 525.669 3.30703 0.643194 0
M  V30 5728 O 526.199 3.64443 1.68951 0
M  V30 5729 N 524.405 2.83841 0.623095 0
M  V30 5730 H 523.952 2.56583 -0.228719 0
M  V30 5731 H 523.91 2.76946 1.48823 0
M  V30 5732 N 527.682 1.05563 1.17022 0
M  V30 5733 C 528.922 0.777033 1.89054 0
M  V30 5734 C 529.286 -0.683617 1.79418 0
M  V30 5735 O 530.487 -1.07648 2.46303 0
M  V30 5736 C 528.758 1.24886 3.34871 0
M  V30 5737 S 530.317 1.0982 4.24835 0
M  V30 5738 H 527.135 0.282082 0.652649 0
M  V30 5739 H 529.737 1.35103 1.41306 0
M  V30 5740 H 528.441 2.30699 3.3942 0
M  V30 5741 H 527.972 0.669292 3.87665 0
M  V30 5742 H 529.987 0.02462 4.96194 0
M  V30 5743 N 529.16 -1.33526 0.837174 0
M  V30 5744 C 530.09 -2.31764 0.284206 0
M  V30 5745 C 531.071 -1.58896 -0.607142 0
M  V30 5746 O 532.256 -1.86798 -0.531047 0
M  V30 5747 C 529.386 -3.43029 -0.542962 0
M  V30 5748 C 528.34 -4.27255 0.252451 0
M  V30 5749 C 527.666 -5.3012 -0.69836 0
M  V30 5750 C 528.966 -5.01229 1.46858 0
M  V30 5751 H 530.66 -2.78262 1.10502 0
M  V30 5752 H 528.206 -1.3378 0.532812 0
M  V30 5753 H 530.159 -4.1078 -0.940096 0
M  V30 5754 H 528.883 -2.95216 -1.39697 0
M  V30 5755 H 527.542 -3.61127 0.631124 0
M  V30 5756 H 527.19 -4.78564 -1.54872 0
M  V30 5757 H 526.89 -5.87353 -0.170274 0
M  V30 5758 H 528.414 -6.00737 -1.09305 0
M  V30 5759 H 529.828 -5.61756 1.14469 0
M  V30 5760 H 528.225 -5.68104 1.93333 0
M  V30 5761 H 529.295 -4.301 2.23924 0
M  V30 5762 N 530.638 -0.59345 -1.46 0
M  V30 5763 C 531.548 0.135817 -2.34207 0
M  V30 5764 C 532.564 0.875008 -1.50398 0
M  V30 5765 O 533.74 0.835778 -1.83239 0
M  V30 5766 C 530.805 1.12977 -3.27776 0
M  V30 5767 C 529.866 0.394081 -4.27487 0
M  V30 5768 C 529.099 1.34068 -5.16586 0
M  V30 5769 O 529.322 2.5778 -5.08828 0
M  V30 5770 O 528.256 0.845426 -5.95933 0
M  V30 5771 H 532.082 -0.588691 -2.9794 0
M  V30 5772 H 529.667 -0.353784 -1.45151 0
M  V30 5773 H 531.549 1.70261 -3.85473 0
M  V30 5774 H 530.224 1.83556 -2.66625 0
M  V30 5775 H 529.131 -0.220869 -3.73447 0
M  V30 5776 H 530.464 -0.270939 -4.91454 0
M  V30 5777 N 532.116 1.54067 -0.331816 0
M  V30 5778 C 533.026 2.28322 0.539104 0
M  V30 5779 C 534.042 1.32985 1.1221 0
M  V30 5780 O 535.218 1.6601 1.1403 0
M  V30 5781 C 532.283 3.03277 1.68 0
M  V30 5782 C 531.344 4.14216 1.12798 0
M  V30 5783 C 530.577 4.85588 2.2145 0
M  V30 5784 O 530.8 4.56536 3.41952 0
M  V30 5785 O 529.734 5.72309 1.86404 0
M  V30 5786 H 533.56 3.03632 -0.0641692 0
M  V30 5787 H 531.145 1.49083 -0.0972365 0
M  V30 5788 H 533.027 3.50189 2.34405 0
M  V30 5789 H 531.702 2.30834 2.2693 0
M  V30 5790 H 530.609 3.71635 0.428782 0
M  V30 5791 H 531.942 4.88727 0.583698 0
M  V30 5792 N 533.594 0.0601682 1.57485 0
M  V30 5793 C 534.819 -0.624416 1.97777 0
M  V30 5794 C 535.244 -1.63051 0.937867 0
M  V30 5795 O 534.602 -1.81036 -0.0978845 0
M  V30 5796 C 534.65 -1.27979 3.37126 0
M  V30 5797 O 533.754 -2.39556 3.35688 0
M  V30 5798 H 533.095 -0.161581 0.64404 0
M  V30 5799 H 535.625 0.131237 2.04179 0
M  V30 5800 H 535.635 -1.62937 3.74053 0
M  V30 5801 H 534.31 -0.542501 4.12347 0
M  V30 5802 H 532.887 -2.06478 3.10517 0
M  V30 5803 N 535.072 -1.5615 -0.213296 0
M  V30 5804 C 535.982 -1.96265 -1.28519 0
M  V30 5805 C 536.998 -0.86765 -1.50824 0
M  V30 5806 O 538.174 -1.17191 -1.63793 0
M  V30 5807 C 535.239 -2.27836 -2.61327 0
M  V30 5808 C 534.3 -3.50949 -2.47252 0
M  V30 5809 C 533.533 -3.81004 -3.73727 0
M  V30 5810 O 533.756 -3.12612 -4.77106 0
M  V30 5811 O 532.69 -4.74477 -3.70344 0
M  V30 5812 H 536.516 -2.87631 -0.974795 0
M  V30 5813 H 534.101 -1.43467 -0.416832 0
M  V30 5814 H 535.983 -2.49299 -3.39747 0
M  V30 5815 H 534.658 -1.39643 -2.9203 0
M  V30 5816 H 533.565 -3.34754 -1.67004 0
M  V30 5817 H 534.898 -4.39551 -2.21486 0
M  V30 5818 N 536.55 0.480323 -1.50102 0
M  V30 5819 C 537.798 1.23063 -1.60312 0
M  V30 5820 C 538.119 1.92659 -0.301226 0
M  V30 5821 O 537.389 1.83691 0.680753 0
M  V30 5822 H 535.969 0.457231 -0.590719 0
M  V30 5823 H 538.631 0.554893 -1.86834 0
M  V30 5824 H 537.727 1.9835 -2.40964 0
M  V30 5825 N 538.028 1.39524 0.732853 0
M  V30 5826 C 539.268 1.383 1.50508 0
M  V30 5827 C 539.632 -0.0208271 1.91989 0
M  V30 5828 O 540.833 -0.158091 2.68335 0
M  V30 5829 C 539.104 2.33007 2.71003 0
M  V30 5830 S 540.663 2.49989 3.60626 0
M  V30 5831 H 537.481 0.490417 0.514794 0
M  V30 5832 H 540.083 1.75641 0.858524 0
M  V30 5833 H 538.787 3.33862 2.38672 0
M  V30 5834 H 538.318 1.96889 3.40585 0
M  V30 5835 H 540.333 1.7394 4.64714 0
M  V30 5836 N 539.506 -0.963266 1.24736 0
M  V30 5837 C 540.736 -1.73913 1.11524 0
M  V30 5838 C 541.144 -1.86218 -0.334612 0
M  V30 5839 O 540.487 -1.3531 -1.24245 0
M  V30 5840 C 540.549 -3.17501 1.68622 0
M  V30 5841 C 540.213 -3.28655 3.17546 0
M  V30 5842 C 541.21 -3.13637 4.14642 0
M  V30 5843 C 538.895 -3.52753 3.5759 0
M  V30 5844 C 540.889 -3.2255 5.49764 0
M  V30 5845 C 538.576 -3.61303 4.92852 0
M  V30 5846 C 539.574 -3.46214 5.88748 0
M  V30 5847 O 539.262 -3.5443 7.2155 0
M  V30 5848 H 538.994 -0.552057 0.390139 0
M  V30 5849 H 541.548 -1.2177 1.65412 0
M  V30 5850 H 539.778 -3.70969 1.09172 0
M  V30 5851 H 541.467 -3.76914 1.50635 0
M  V30 5852 H 542.233 -2.94899 3.85045 0
M  V30 5853 H 538.112 -3.63561 2.83451 0
M  V30 5854 H 541.656 -3.1069 6.24594 0
M  V30 5855 H 537.553 -3.79556 5.22118 0
M  V30 5856 H 538.321 -3.71116 7.29531 0
M  V30 5857 N 540.985 -1.06182 -1.16461 0
M  V30 5858 C 542.225 -0.787048 -1.8864 0
M  V30 5859 C 542.589 0.674093 -1.79778 0
M  V30 5860 O 543.79 1.06341 -2.46871 0
M  V30 5861 C 542.061 -1.2666 -3.34203 0
M  V30 5862 S 543.62 -1.12071 -4.24247 0
M  V30 5863 H 540.438 -0.285539 -0.651144 0
M  V30 5864 H 543.04 -1.35851 -1.40587 0
M  V30 5865 H 541.744 -2.32496 -3.38192 0
M  V30 5866 H 541.275 -0.689841 -3.87304 0
M  V30 5867 H 543.29 -0.0509341 -4.96174 0
M  V30 5868 N 542.463 1.3308 -0.844243 0
M  V30 5869 C 543.879 1.50447 -0.532729 0
M  V30 5870 C 544.079 1.78292 0.938837 0
M  V30 5871 O 543.135 1.84635 1.72239 0
M  V30 5872 C 544.448 2.65555 -1.41072 0
M  V30 5873 C 545.996 2.7944 -1.41005 0
M  V30 5874 C 546.471 3.97616 -2.27301 0
M  V30 5875 N 547.962 4.0486 -2.2504 0
M  V30 5876 C 548.697 4.95508 -2.88547 0
M  V30 5877 N 548.193 5.91236 -3.61126 0
M  V30 5878 N 549.986 4.88548 -2.77989 0
M  V30 5879 H 542.137 1.13269 -1.79677 0
M  V30 5880 H 544.4 0.55734 -0.766861 0
M  V30 5881 H 544.106 2.51675 -2.45668 0
M  V30 5882 H 543.98 3.61089 -1.09061 0
M  V30 5883 H 546.367 2.92749 -0.371784 0
M  V30 5884 H 546.448 1.8465 -1.77026 0
M  V30 5885 H 546.092 3.85066 -3.3119 0
M  V30 5886 H 546.022 4.91661 -1.88619 0
M  V30 5887 H 548.513 3.36353 -1.72264 0
M  V30 5888 H 548.826 6.57079 -4.06776 0
M  V30 5889 H 547.171 5.91295 -3.65234 0
M  V30 5890 H 550.362 4.12729 -2.20846 0
M  V30 5891 H 550.535 5.58994 -3.27765 0
M  V30 5892 N 543.941 0.601185 1.45683 0
M  V30 5893 C 545.166 0.0982245 2.07167 0
M  V30 5894 C 545.591 -1.20546 1.44396 0
M  V30 5895 O 544.949 -1.73247 0.534347 0
M  V30 5896 C 544.997 -0.0346976 3.60583 0
M  V30 5897 O 544.101 -1.08657 3.97828 0
M  V30 5898 H 543.442 0.0711618 0.660176 0
M  V30 5899 H 545.972 0.829376 1.87036 0
M  V30 5900 H 545.982 -0.234969 4.07323 0
M  V30 5901 H 544.657 0.917265 4.05659 0
M  V30 5902 H 543.234 -0.863275 3.6277 0
M  V30 5903 N 545.419 -1.53889 0.339982 0
M  V30 5904 C 546.644 -2.05741 -0.261798 0
M  V30 5905 C 547.069 -1.21354 -1.43718 0
M  V30 5906 O 546.427 -0.22645 -1.7988 0
M  V30 5907 C 546.475 -3.54542 -0.658228 0
M  V30 5908 O 545.579 -3.7302 -1.75869 0
M  V30 5909 H 544.92 -0.662529 -0.0441672 0
M  V30 5910 H 547.45 -1.98568 0.493161 0
M  V30 5911 H 547.46 -3.9711 -0.936368 0
M  V30 5912 H 546.135 -4.15412 0.201358 0
M  V30 5913 H 544.712 -3.42355 -1.47809 0
M  V30 5914 N 546.897 -0.0685191 -1.57451 0
M  V30 5915 C 548.145 0.60016 -1.92983 0
M  V30 5916 C 548.466 1.70348 -0.949028 0
M  V30 5917 O 547.736 1.959 0.00335647 0
M  V30 5918 H 546.316 0.224682 -0.712409 0
M  V30 5919 H 548.978 -0.125605 -1.94495 0
M  V30 5920 H 548.074 1.02759 -2.94698 0
M  V30 5921 N 548.375 1.56261 0.205012 0
M  V30 5922 C 549.652 1.70856 0.952233 0
M  V30 5923 C 550.032 0.620501 2.01775 0
M  V30 5924 O 549.38 -0.370035 2.25484 0
M  V30 5925 C 549.59 3.12807 1.54767 0
M  V30 5926 C 550.938 3.72733 2.0336 0
M  V30 5927 O 551.962 3.15873 1.64629 0
M  V30 5928 O 550.821 4.72501 2.746 0
M  V30 5929 H 547.915 0.696496 0.445895 0
M  V30 5930 H 550.461 1.6857 0.195489 0
M  V30 5931 H 549.233 3.83465 0.779132 0
M  V30 5932 H 548.856 3.1928 2.36951 0
M  V30 5933 N 549.853 -0.472356 1.50355 0
M  V30 5934 C 551.264 -1.05326 1.54154 0
M  V30 5935 C 551.615 -1.93155 0.344303 0
M  V30 5936 O 550.74 -2.09479 -0.542928 0
M  V30 5937 C 551.335 -1.91691 2.79356 0
M  V30 5938 C 549.894 -2.44892 2.8584 0
M  V30 5939 C 549.041 -1.23205 2.48426 0
M  V30 5940 H 551.992 -0.255027 1.56637 0
M  V30 5941 H 552.013 -2.76742 2.6114 0
M  V30 5942 H 551.525 -1.27741 3.66475 0
M  V30 5943 H 549.626 -3.12399 2.0307 0
M  V30 5944 H 549.739 -2.80086 3.88701 0
M  V30 5945 H 548.103 -1.56643 2.00836 0
M  V30 5946 H 548.886 -0.609194 3.37852 0
M  V30 5947 N 551.331 -1.39911 -0.725443 0
M  V30 5948 C 552.241 -1.41688 -1.8698 0
M  V30 5949 C 553.257 -0.310579 -1.71206 0
M  V30 5950 O 554.433 -0.55359 -1.93642 0
M  V30 5951 C 551.498 -1.26811 -3.22676 0
M  V30 5952 C 550.559 -2.47497 -3.50776 0
M  V30 5953 C 549.792 -2.3332 -4.79997 0
M  V30 5954 O 550.015 -1.34175 -5.54394 0
M  V30 5955 O 548.949 -3.22498 -5.08211 0
M  V30 5956 H 552.775 -2.38171 -1.88436 0
M  V30 5957 H 550.36 -1.21128 -0.874548 0
M  V30 5958 H 552.242 -1.20684 -4.03749 0
M  V30 5959 H 550.917 -0.334289 -3.21969 0
M  V30 5960 H 549.824 -2.59201 -2.69751 0
M  V30 5961 H 551.157 -3.39606 -3.5627 0
M  V30 5962 N 552.809 0.956637 -1.25245 0
M  V30 5963 C 553.741 2.05628 -1.01242 0
M  V30 5964 C 554.754 1.62785 0.0219579 0
M  V30 5965 O 555.943 1.77184 -0.216365 0
M  V30 5966 C 553.043 3.35069 -0.508161 0
M  V30 5967 C 552.216 4.06761 -1.60823 0
M  V30 5968 C 551.275 5.14473 -1.1047 0
M  V30 5969 O 550.301 5.40033 -1.79868 0
M  V30 5970 N 551.503 5.80474 0.0550773 0
M  V30 5971 H 554.268 2.2679 -1.95925 0
M  V30 5972 H 551.829 1.12505 -1.16423 0
M  V30 5973 H 553.821 4.044 -0.155819 0
M  V30 5974 H 552.391 3.10694 0.344683 0
M  V30 5975 H 551.611 3.31555 -2.13224 0
M  V30 5976 H 552.899 4.51418 -2.34733 0
M  V30 5977 H 552.297 5.62125 0.635004 0
M  V30 5978 H 550.854 6.50868 0.348469 0
M  V30 5979 N 554.287 1.06798 1.15896 0
M  V30 5980 C 555.536 0.782796 1.8589 0
M  V30 5981 C 555.849 -0.693498 1.82893 0
M  V30 5982 O 557.055 -1.09325 2.48516 0
M  V30 5983 C 555.511 1.3502 3.33613 0
M  V30 5984 C 555.119 2.8571 3.45071 0
M  V30 5985 C 556.863 1.14278 4.08829 0
M  V30 5986 C 554.77 3.35669 4.86909 0
M  V30 5987 H 553.7 0.289149 0.696354 0
M  V30 5988 H 556.351 1.28734 1.30766 0
M  V30 5989 H 554.733 0.773407 3.88374 0
M  V30 5990 H 555.907 3.49385 3.00445 0
M  V30 5991 H 554.222 3.05178 2.83294 0
M  V30 5992 H 556.819 1.49087 5.13495 0
M  V30 5993 H 557.162 0.0814575 4.1622 0
M  V30 5994 H 557.695 1.68563 3.60321 0
M  V30 5995 H 554.434 4.41302 4.84698 0
M  V30 5996 H 553.954 2.76745 5.32139 0
M  V30 5997 H 555.633 3.31296 5.55745 0
M  V30 5998 N 555.766 -1.3263 0.851289 0
M  V30 5999 C 556.713 -2.28952 0.291469 0
M  V30 6000 C 557.683 -1.54897 -0.599676 0
M  V30 6001 O 558.868 -1.83137 -0.535305 0
M  V30 6002 C 556.008 -3.41206 -0.516992 0
M  V30 6003 C 555.121 -4.30148 0.399566 0
M  V30 6004 C 554.256 -5.29527 -0.4212 0
M  V30 6005 C 553.295 -6.10112 0.492969 0
M  V30 6006 N 552.432 -7.01499 -0.290414 0
M  V30 6007 H 557.272 -2.76228 1.11813 0
M  V30 6008 H 554.809 -1.35907 0.562826 0
M  V30 6009 H 556.767 -4.05005 -1.00132 0
M  V30 6010 H 555.397 -2.9509 -1.30851 0
M  V30 6011 H 554.449 -3.66959 1.00227 0
M  V30 6012 H 555.761 -4.8649 1.1013 0
M  V30 6013 H 554.915 -5.98914 -0.968832 0
M  V30 6014 H 553.654 -4.73794 -1.15632 0
M  V30 6015 H 552.659 -5.39632 1.05251 0
M  V30 6016 H 553.884 -6.6793 1.22664 0
M  V30 6017 H 551.83 -6.48199 -1.00868 0
M  V30 6018 H 551.747 -7.55178 0.352354 0
M  V30 6019 H 553.015 -7.75176 -0.819882 0
M  V30 6020 N 557.244 -0.608902 -1.45362 0
M  V30 6021 C 558.154 0.110969 -2.34337 0
M  V30 6022 C 559.17 0.859007 -1.51318 0
M  V30 6023 O 560.346 0.816296 -1.84116 0
M  V30 6024 C 557.411 1.09494 -3.28956 0
M  V30 6025 C 556.472 0.348718 -4.27881 0
M  V30 6026 C 555.705 1.28582 -5.17979 0
M  V30 6027 O 555.928 2.52369 -5.11533 0
M  V30 6028 O 554.862 0.782172 -5.96796 0
M  V30 6029 H 558.688 -0.620258 -2.97299 0
M  V30 6030 H 556.273 -0.36916 -1.44767 0
M  V30 6031 H 558.155 1.66163 -3.87257 0
M  V30 6032 H 556.83 1.80717 -2.68557 0
M  V30 6033 H 555.737 -0.260465 -3.73192 0
M  V30 6034 H 557.07 -0.323049 -4.91139 0
M  V30 6035 N 558.722 1.53707 -0.348139 0
M  V30 6036 C 559.999 1.93247 0.302475 0
M  V30 6037 C 560.379 1.28012 1.67857 0
M  V30 6038 O 559.727 0.43274 2.24365 0
M  V30 6039 C 559.937 3.47031 0.370159 0
M  V30 6040 C 561.285 4.20066 0.61882 0
M  V30 6041 O 562.309 3.53319 0.452087 0
M  V30 6042 O 561.168 5.38318 0.94215 0
M  V30 6043 H 558.262 0.807736 0.177458 0
M  V30 6044 H 560.808 1.64927 -0.399651 0
M  V30 6045 H 559.58 3.86745 -0.59534 0
M  V30 6046 H 559.203 3.81532 1.11888 0
M  V30 6047 N 560.2 0.0768682 1.57412 0
M  V30 6048 C 561.425 -0.603404 1.98428 0
M  V30 6049 C 561.85 -1.62047 0.955108 0
M  V30 6050 O 561.208 -1.81129 -0.0786778 0
M  V30 6051 C 561.256 -1.24396 3.38464 0
M  V30 6052 O 560.36 -2.35982 3.3821 0
M  V30 6053 H 559.701 -0.154741 0.645718 0
M  V30 6054 H 562.231 0.152885 2.04028 0
M  V30 6055 H 562.241 -1.5896 3.7576 0
M  V30 6056 H 560.916 -0.498735 4.12899 0
M  V30 6057 H 559.493 -2.03173 3.1269 0
M  V30 6058 N 561.678 -1.56367 -0.196722 0
M  V30 6059 C 562.608 -1.97442 -1.24655 0
M  V30 6060 C 563.589 -0.846147 -1.47561 0
M  V30 6061 O 564.774 -1.11035 -1.59326 0
M  V30 6062 C 561.904 -2.31253 -2.59112 0
M  V30 6063 C 560.858 -3.46804 -2.50821 0
M  V30 6064 C 560.184 -3.66286 -3.89536 0
M  V30 6065 C 561.484 -4.8104 -2.03465 0
M  V30 6066 H 563.178 -2.85388 -0.905216 0
M  V30 6067 H 560.724 -1.37304 -0.434002 0
M  V30 6068 H 562.677 -2.58583 -3.32736 0
M  V30 6069 H 561.401 -1.40188 -2.94983 0
M  V30 6070 H 560.06 -3.19563 -1.79653 0
M  V30 6071 H 559.708 -2.72555 -4.22756 0
M  V30 6072 H 559.408 -4.4402 -3.84864 0
M  V30 6073 H 560.932 -3.9599 -4.64784 0
M  V30 6074 H 562.346 -5.07411 -2.66846 0
M  V30 6075 H 560.743 -5.62232 -2.09798 0
M  V30 6076 H 561.813 -4.74732 -0.98781 0
M  V30 6077 N 563.156 0.464375 -1.50603 0
M  V30 6078 C 564.381 1.24372 -1.65971 0
M  V30 6079 C 564.806 1.84901 -0.345453 0
M  V30 6080 O 564.164 1.67596 0.691457 0
M  V30 6081 C 564.212 2.32331 -2.7578 0
M  V30 6082 O 563.316 3.37146 -2.375 0
M  V30 6083 H 562.657 0.365604 -0.554283 0
M  V30 6084 H 565.187 0.55183 -1.97018 0
M  V30 6085 H 565.197 2.77539 -2.99059 0
M  V30 6086 H 563.872 1.87648 -3.71162 0
M  V30 6087 H 562.449 2.97602 -2.24694 0
M  V30 6088 N 564.634 1.40294 0.718013 0
M  V30 6089 C 565.544 1.42678 1.86226 0
M  V30 6090 C 566.56 0.319655 1.71039 0
M  V30 6091 O 567.736 0.563852 1.93346 0
M  V30 6092 C 564.801 1.2852 3.21999 0
M  V30 6093 C 563.862 2.49354 3.49458 0
M  V30 6094 C 563.095 2.35863 4.78753 0
M  V30 6095 O 563.318 1.37114 5.53675 0
M  V30 6096 O 562.252 3.25189 5.06494 0
M  V30 6097 H 566.078 2.39167 1.87171 0
M  V30 6098 H 563.663 1.2159 0.868112 0
M  V30 6099 H 565.545 1.22824 4.03103 0
M  V30 6100 H 564.22 0.351359 3.21787 0
M  V30 6101 H 563.127 2.60628 2.68373 0
M  V30 6102 H 564.46 3.41491 3.54464 0
M  V30 6103 N 566.112 -0.949982 1.2575 0
M  V30 6104 C 567.022 -2.08109 1.08295 0
M  V30 6105 C 568.038 -1.7399 0.0188181 0
M  V30 6106 O 569.214 -2.00187 0.220724 0
M  V30 6107 C 566.279 -3.39383 0.708534 0
M  V30 6108 C 565.34 -3.8734 1.85111 0
M  V30 6109 C 564.573 -5.12349 1.49447 0
M  V30 6110 O 564.796 -5.6905 0.392212 0
M  V30 6111 O 563.73 -5.5513 2.32624 0
M  V30 6112 H 567.556 -2.25738 2.03165 0
M  V30 6113 H 565.141 -1.06545 1.04731 0
M  V30 6114 H 567.023 -4.18277 0.512061 0
M  V30 6115 H 565.698 -3.23013 -0.210854 0
M  V30 6116 H 564.605 -3.09429 2.10248 0
M  V30 6117 H 565.938 -4.08216 2.74991 0
M  V30 6118 N 567.59 -1.07411 -1.15328 0
M  V30 6119 C 568.815 -0.818856 -1.90551 0
M  V30 6120 C 569.24 0.622194 -1.77512 0
M  V30 6121 O 568.598 1.43484 -1.10824 0
M  V30 6122 C 568.646 -1.23267 -3.38877 0
M  V30 6123 O 567.75 -0.378345 -4.10661 0
M  V30 6124 H 567.091 -0.29827 -0.593238 0
M  V30 6125 H 569.621 -1.43289 -1.46046 0
M  V30 6126 H 569.631 -1.20912 -3.89672 0
M  V30 6127 H 568.306 -2.28226 -3.47686 0
M  V30 6128 H 566.883 -0.464437 -3.69996 0
M  V30 6129 N 569.068 1.32177 -0.85831 0
M  V30 6130 C 570.031 2.27086 -0.310588 0
M  V30 6131 C 571.031 1.51751 0.531806 0
M  V30 6132 O 572.221 1.70794 0.34279 0
M  V30 6133 C 569.353 3.36266 0.560179 0
M  V30 6134 H 570.546 2.77045 -1.1483 0
M  V30 6135 H 568.099 1.42911 -0.632942 0
M  V30 6136 H 568.834 2.9158 1.41956 0
M  V30 6137 H 568.619 3.92077 -0.0428473 0
M  V30 6138 H 570.109 4.06974 0.936056 0
M  V30 6139 N 570.547 0.616602 1.45037 0
M  V30 6140 C 571.824 0.0469086 1.95544 0
M  V30 6141 C 572.204 -1.42345 1.55888 0
M  V30 6142 O 571.552 -2.13055 0.825824 0
M  V30 6143 C 571.762 0.254489 3.48071 0
M  V30 6144 C 573.11 0.140025 4.24369 0
M  V30 6145 O 574.134 0.185084 3.55719 0
M  V30 6146 O 572.993 0.0327034 5.4649 0
M  V30 6147 H 570.087 -0.0306051 0.826433 0
M  V30 6148 H 572.633 0.687293 1.55159 0
M  V30 6149 H 571.405 1.27532 3.69934 0
M  V30 6150 H 571.028 -0.42073 3.95368 0
M  V30 6151 N 572.025 -1.5352 0.356285 0
M  V30 6152 C 572.988 -2.24071 -0.482182 0
M  V30 6153 C 573.988 -1.24531 -1.01729 0
M  V30 6154 O 575.178 -1.48876 -0.904513 0
M  V30 6155 C 572.31 -2.97025 -1.67299 0
M  V30 6156 H 573.503 -2.99596 0.135031 0
M  V30 6157 H 571.056 -1.55928 0.107825 0
M  V30 6158 H 571.791 -2.25719 -2.32855 0
M  V30 6159 H 571.576 -3.7005 -1.29636 0
M  V30 6160 H 573.066 -3.50683 -2.26741 0
M  V30 6161 N 573.503 -0.0852151 -1.57369 0
M  V30 6162 C 574.919 0.271436 -1.57275 0
M  V30 6163 C 575.119 1.69109 -1.09565 0
M  V30 6164 O 574.175 2.40549 -0.767611 0
M  V30 6165 C 575.488 0.0688638 -3.00621 0
M  V30 6166 C 577.036 0.137373 -3.12698 0
M  V30 6167 C 577.511 -0.0370832 -4.57985 0
M  V30 6168 N 579.002 0.0180794 -4.63196 0
M  V30 6169 C 579.737 -0.0922953 -5.73326 0
M  V30 6170 N 579.233 -0.256948 -6.92323 0
M  V30 6171 N 581.026 -0.0342702 -5.6209 0
M  V30 6172 H 573.177 -1.01288 -1.86693 0
M  V30 6173 H 575.44 -0.396138 -0.861266 0
M  V30 6174 H 575.146 -0.911277 -3.39689 0
M  V30 6175 H 575.02 0.815442 -3.6828 0
M  V30 6176 H 577.407 1.10801 -2.73509 0
M  V30 6177 H 577.488 -0.640532 -2.47651 0
M  V30 6178 H 577.132 -1.00455 -4.97867 0
M  V30 6179 H 577.062 0.760392 -5.21081 0
M  V30 6180 H 579.553 0.143202 -3.77629 0
M  V30 6181 H 579.866 -0.332949 -7.72082 0
M  V30 6182 H 578.211 -0.292487 -6.94384 0
M  V30 6183 H 581.402 0.0931605 -4.68007 0
M  V30 6184 H 581.575 -0.12374 -6.47882 0
M  V30 6185 N 574.981 1.5647 0.188427 0
M  V30 6186 C 576.206 1.85486 0.927891 0
M  V30 6187 C 576.631 0.669575 1.75779 0
M  V30 6188 O 575.989 -0.381573 1.77239 0
M  V30 6189 C 576.037 3.12784 1.7944 0
M  V30 6190 O 575.141 2.93805 2.894 0
M  V30 6191 H 574.482 0.610585 0.260925 0
M  V30 6192 H 577.012 2.037 0.191729 0
M  V30 6193 H 577.022 3.43749 2.19774 0
M  V30 6194 H 575.697 3.98671 1.18468 0
M  V30 6195 H 574.274 2.74153 2.52774 0
M  V30 6196 N 576.459 -0.456382 1.50847 0
M  V30 6197 C 577.706 -1.20736 1.62571 0
M  V30 6198 C 578.034 -1.9163 0.332904 0
M  V30 6199 O 577.289 -1.8343 -0.682058 0
M  V30 6200 C 577.588 -2.26336 2.76599 0
M  V30 6201 C 577.254 -1.7259 4.16562 0
M  V30 6202 C 575.916 -1.57654 4.54641 0
M  V30 6203 C 578.268 -1.32877 5.03977 0
M  V30 6204 C 575.596 -1.0145 5.77862 0
M  V30 6205 C 577.948 -0.7811 6.27759 0
M  V30 6206 C 576.612 -0.618488 6.64628 0
M  V30 6207 H 575.882 -0.441803 0.594888 0
M  V30 6208 H 578.529 -0.501169 1.84826 0
M  V30 6209 H 576.834 -3.0292 2.48489 0
M  V30 6210 H 578.531 -2.84227 2.82871 0
M  V30 6211 H 575.121 -1.85187 3.86528 0
M  V30 6212 H 579.305 -1.43245 4.75179 0
M  V30 6213 H 574.561 -0.876109 6.0509 0
M  V30 6214 H 578.735 -0.464783 6.94847 0
M  V30 6215 H 576.362 -0.180838 7.59985 0
M  V30 6216 N 577.937 -1.40673 -0.710563 0
M  V30 6217 C 578.847 -1.43663 -1.85467 0
M  V30 6218 C 579.863 -0.328721 -1.70867 0
M  V30 6219 O 581.039 -0.574098 -1.93044 0
M  V30 6220 C 578.104 -1.30226 -3.21313 0
M  V30 6221 C 577.165 -2.51204 -3.48131 0
M  V30 6222 C 576.398 -2.38398 -4.77495 0
M  V30 6223 O 576.621 -1.40048 -5.5294 0
M  V30 6224 O 575.555 -3.2787 -5.04762 0
M  V30 6225 H 579.381 -2.40156 -1.859 0
M  V30 6226 H 576.966 -1.22049 -0.861652 0
M  V30 6227 H 578.848 -1.2496 -4.02446 0
M  V30 6228 H 577.523 -0.368419 -3.21597 0
M  V30 6229 H 576.43 -2.62048 -2.66987 0
M  V30 6230 H 577.763 -3.43366 -3.52648 0
M  V30 6231 N 579.415 0.9433 -1.26252 0
M  V30 6232 C 580.348 2.04162 -1.01946 0
M  V30 6233 C 581.326 1.62507 0.0550808 0
M  V30 6234 O 582.51 1.883 -0.0869025 0
M  V30 6235 C 579.637 3.34313 -0.54335 0
M  V30 6236 C 578.683 3.94939 -1.61013 0
M  V30 6237 S 579.516 4.29484 -3.19849 0
M  V30 6238 C 580.672 5.62738 -2.74001 0
M  V30 6239 H 580.905 2.24466 -1.94942 0
M  V30 6240 H 578.438 1.08441 -1.09909 0
M  V30 6241 H 580.396 4.09576 -0.275315 0
M  V30 6242 H 579.057 3.11957 0.36629 0
M  V30 6243 H 578.25 4.88812 -1.22795 0
M  V30 6244 H 577.852 3.26202 -1.82943 0
M  V30 6245 H 580.144 6.41356 -2.18333 0
M  V30 6246 H 581.087 6.05839 -3.66558 0
M  V30 6247 H 581.495 5.22514 -2.13634 0
M  V30 6248 N 580.893 1.08022 1.14757 0
M  V30 6249 C 582.121 0.828847 1.89572 0
M  V30 6250 C 582.536 -0.618621 1.78377 0
M  V30 6251 O 581.893 -1.42482 1.1404 0
M  V30 6252 C 581.944 1.23677 3.39685 0
M  V30 6253 O 581.665 2.62746 3.50566 0
M  V30 6254 C 583.166 1.01569 4.31507 0
M  V30 6255 H 580.386 0.299196 0.600602 0
M  V30 6256 H 582.93 1.43846 1.45357 0
M  V30 6257 H 581.085 0.671347 3.81539 0
M  V30 6258 H 581.499 2.79573 4.43778 0
M  V30 6259 H 582.973 1.35055 5.35223 0
M  V30 6260 H 583.45 -0.0475433 4.39174 0
M  V30 6261 H 584.056 1.56636 3.95405 0
M  V30 6262 N 582.371 -1.3172 0.865308 0
M  V30 6263 C 583.281 -2.32394 0.320935 0
M  V30 6264 C 584.297 -1.64511 -0.566746 0
M  V30 6265 O 585.473 -1.95969 -0.464575 0
M  V30 6266 C 582.538 -3.43462 -0.472701 0
M  V30 6267 C 581.599 -4.27015 0.442385 0
M  V30 6268 C 580.832 -5.32779 -0.313469 0
M  V30 6269 O 581.055 -5.49158 -1.54214 0
M  V30 6270 O 579.989 -6.01015 0.326257 0
M  V30 6271 H 583.815 -2.80868 1.15528 0
M  V30 6272 H 581.4 -1.35535 0.628545 0
M  V30 6273 H 583.282 -4.11172 -0.922781 0
M  V30 6274 H 581.957 -2.97159 -1.28367 0
M  V30 6275 H 580.864 -3.62075 0.940866 0
M  V30 6276 H 582.197 -4.76871 1.21882 0
M  V30 6277 N 583.85 -0.624285 -1.44708 0
M  V30 6278 C 585.096 -0.126051 -2.02107 0
M  V30 6279 C 585.425 1.2496 -1.49048 0
M  V30 6280 O 584.68 1.84163 -0.662005 0
M  V30 6281 C 584.979 -0.0546353 -3.57358 0
M  V30 6282 C 584.644 -1.36815 -4.29642 0
M  V30 6283 C 583.307 -1.72792 -4.49106 0
M  V30 6284 C 585.659 -2.23549 -4.70824 0
M  V30 6285 C 582.986 -2.95222 -5.07012 0
M  V30 6286 C 585.339 -3.45243 -5.30085 0
M  V30 6287 C 584.003 -3.81452 -5.47769 0
M  V30 6288 H 583.273 -0.0461252 -0.739563 0
M  V30 6289 H 585.92 -0.809236 -1.73562 0
M  V30 6290 H 584.225 0.711891 -3.85278 0
M  V30 6291 H 585.922 0.347282 -3.99493 0
M  V30 6292 H 582.512 -1.07817 -4.14817 0
M  V30 6293 H 586.696 -1.9705 -4.55505 0
M  V30 6294 H 581.952 -3.23361 -5.18891 0
M  V30 6295 H 586.125 -4.12689 -5.60946 0
M  V30 6296 H 583.753 -4.76403 -5.92405 0
M  V30 6297 N 585.328 1.53329 -0.364422 0
M  V30 6298 C 586.276 2.27212 0.497737 0
M  V30 6299 C 587.27 1.30146 1.08437 0
M  V30 6300 O 588.476 1.47778 1.0277 0
M  V30 6301 H 584.851 0.730329 0.179232 0
M  V30 6302 H 586.822 2.98037 -0.147182 0
M  V30 6303 C 585.571 3.07333 1.6261 0
M  V30 6304 H 584.894 3.81866 1.184 0
M  V30 6305 H 586.334 3.62209 2.20409 0
M  V30 6306 C 584.793 2.18102 2.56775 0
M  V30 6307 O 585.323 1.79104 3.59562 0
M  V30 6308 N 583.529 1.82759 2.25937 0
M  V30 6309 H 583.076 2.14671 1.42387 0
M  V30 6310 H 583.034 1.23342 2.89196 0
M  V30 6311 N 586.806 0.0935595 1.57322 0
M  V30 6312 C 587.738 -0.895923 2.10964 0
M  V30 6313 C 588.751 -1.24705 1.04654 0
M  V30 6314 O 589.94 -1.20044 1.32105 0
M  V30 6315 C 587.04 -2.20546 2.57318 0
M  V30 6316 C 586.213 -2.0299 3.87445 0
M  V30 6317 C 585.272 -3.17443 4.19662 0
M  V30 6318 O 584.298 -2.91474 4.88909 0
M  V30 6319 N 585.5 -4.43168 3.74943 0
M  V30 6320 H 588.265 -0.437788 2.96485 0
M  V30 6321 H 585.826 -0.0915863 1.61641 0
M  V30 6322 H 587.818 -2.9606 2.75917 0
M  V30 6323 H 586.388 -2.57789 1.76816 0
M  V30 6324 H 585.608 -1.11815 3.78009 0
M  V30 6325 H 586.896 -1.88535 4.7258 0
M  V30 6326 H 586.294 -4.67149 3.19043 0
M  V30 6327 H 584.851 -5.15637 3.987 0
M  V30 6328 N 588.284 -1.56567 -0.180126 0
M  V30 6329 C 589.247 -1.94852 -1.20686 0
M  V30 6330 C 590.247 -0.831212 -1.3765 0
M  V30 6331 O 591.437 -1.09841 -1.35206 0
M  V30 6332 C 588.569 -2.23565 -2.57355 0
M  V30 6333 H 589.762 -2.86722 -0.879225 0
M  V30 6334 H 587.315 -1.50489 -0.422237 0
M  V30 6335 H 588.05 -1.34381 -2.95148 0
M  V30 6336 H 587.835 -3.04999 -2.46411 0
M  V30 6337 H 589.325 -2.54137 -3.31367 0
M  V30 6338 N 589.762 0.448376 -1.51087 0
M  V30 6339 C 590.692 1.55102 -1.74544 0
M  V30 6340 C 591.673 1.59357 -0.594932 0
M  V30 6341 O 592.858 1.75261 -0.836491 0
M  V30 6342 C 589.988 2.93268 -1.86041 0
M  V30 6343 C 588.942 3.03877 -3.01402 0
M  V30 6344 C 588.268 4.43914 -2.98068 0
M  V30 6345 C 589.568 2.7898 -4.41551 0
M  V30 6346 H 591.262 1.35724 -2.66869 0
M  V30 6347 H 588.808 0.651498 -1.28419 0
M  V30 6348 H 590.761 3.70356 -2.01034 0
M  V30 6349 H 589.485 3.13853 -0.903548 0
M  V30 6350 H 588.144 2.29227 -2.86096 0
M  V30 6351 H 587.792 4.6145 -2.00182 0
M  V30 6352 H 587.492 4.51944 -3.75527 0
M  V30 6353 H 589.016 5.22991 -3.1514 0
M  V30 6354 H 590.43 3.45805 -4.57265 0
M  V30 6355 H 588.827 2.98431 -5.20633 0
M  V30 6356 H 589.897 1.74663 -4.5235 0
M  V30 6357 N 591.24 1.41047 0.703093 0
M  V30 6358 C 592.15 1.44645 1.84703 0
M  V30 6359 C 593.166 0.337778 1.7069 0
M  V30 6360 O 594.342 0.584327 1.92737 0
M  V30 6361 C 591.407 1.31928 3.20618 0
M  V30 6362 C 590.468 2.53047 3.46794 0
M  V30 6363 C 589.701 2.40927 4.76224 0
M  V30 6364 O 589.924 1.42978 5.5219 0
M  V30 6365 O 588.858 3.30543 5.03016 0
M  V30 6366 H 592.684 2.41139 1.84624 0
M  V30 6367 H 590.269 1.22504 0.855167 0
M  V30 6368 H 592.151 1.27092 4.01778 0
M  V30 6369 H 590.826 0.385469 3.21397 0
M  V30 6370 H 589.733 2.6346 2.65593 0
M  V30 6371 H 591.066 3.45231 3.50822 0
M  V30 6372 N 592.718 -0.936591 1.26751 0
M  V30 6373 C 593.628 -2.06949 1.10496 0
M  V30 6374 C 594.644 -1.7396 0.037271 0
M  V30 6375 O 595.82 -1.99941 0.241944 0
M  V30 6376 C 592.885 -3.38612 0.744491 0
M  V30 6377 C 591.946 -3.85355 1.89209 0
M  V30 6378 C 591.179 -5.10735 1.54873 0
M  V30 6379 O 591.402 -5.68602 0.452546 0
M  V30 6380 O 590.336 -5.52632 2.38499 0
M  V30 6381 H 594.162 -2.23571 2.05547 0
M  V30 6382 H 591.747 -1.05428 1.05855 0
M  V30 6383 H 593.629 -4.17711 0.556396 0
M  V30 6384 H 592.304 -3.23218 -0.176582 0
M  V30 6385 H 591.211 -3.07182 2.13518 0
M  V30 6386 H 592.544 -4.05277 2.79305 0
M  V30 6387 N 594.196 -1.08629 -1.14182 0
M  V30 6388 C 595.445 -0.812271 -1.84621 0
M  V30 6389 C 595.758 0.664313 -1.83973 0
M  V30 6390 O 596.964 1.05357 -2.50224 0
M  V30 6391 C 595.42 -1.4031 -3.31423 0
M  V30 6392 C 595.028 -2.91164 -3.40481 0
M  V30 6393 C 596.772 -1.20767 -4.06959 0
M  V30 6394 C 594.679 -3.43373 -4.81507 0
M  V30 6395 H 593.609 -0.30019 -0.691666 0
M  V30 6396 H 596.26 -1.30798 -1.28701 0
M  V30 6397 H 594.642 -0.835096 -3.87094 0
M  V30 6398 H 595.816 -3.5412 -2.94848 0
M  V30 6399 H 594.131 -3.09646 -2.78403 0
M  V30 6400 H 596.728 -1.57237 -5.11058 0
M  V30 6401 H 597.071 -0.147664 -4.16038 0
M  V30 6402 H 597.604 -1.74274 -3.57594 0
M  V30 6403 H 594.343 -4.48958 -4.77616 0
M  V30 6404 H 593.863 -2.85176 -5.27669 0
M  V30 6405 H 595.542 -3.40095 -5.50404 0
M  V30 6406 N 595.674 1.31259 -0.872281 0
M  V30 6407 C 596.621 2.28459 -0.327857 0
M  V30 6408 C 597.591 1.55831 0.574957 0
M  V30 6409 O 598.776 1.83965 0.506101 0
M  V30 6410 C 595.916 3.41985 0.462644 0
M  V30 6411 C 595.029 4.29458 -0.467949 0
M  V30 6412 C 594.164 5.30131 0.336903 0
M  V30 6413 C 593.203 6.0925 -0.58997 0
M  V30 6414 N 592.34 7.01872 0.178775 0
M  V30 6415 H 597.18 2.74414 -1.16193 0
M  V30 6416 H 594.717 1.34994 -0.584376 0
M  V30 6417 H 596.675 4.06547 0.936759 0
M  V30 6418 H 595.305 2.97134 1.2614 0
M  V30 6419 H 594.357 3.65318 -1.06052 0
M  V30 6420 H 595.669 4.84677 -1.17856 0
M  V30 6421 H 594.823 6.0038 0.873427 0
M  V30 6422 H 593.562 4.75573 1.08079 0
M  V30 6423 H 592.567 5.37889 -1.13823 0
M  V30 6424 H 593.792 6.65894 -1.33275 0
M  V30 6425 H 591.738 6.49721 0.905435 0
M  V30 6426 H 591.655 7.54522 -0.472452 0
M  V30 6427 H 592.923 7.76382 0.696454 0
M  V30 6428 N 597.152 0.631951 1.44375 0
M  V30 6429 C 598.4 0.136497 2.01639 0
M  V30 6430 C 598.721 -1.24637 1.49969 0
M  V30 6431 O 597.991 -1.82827 0.70363 0
M  V30 6432 H 596.571 0.0474703 0.74549 0
M  V30 6433 H 599.233 0.818837 1.76865 0
M  V30 6434 H 598.329 0.104817 3.11924 0
M  V30 6435 N 598.631 -1.53133 0.372548 0
M  V30 6436 C 599.563 -2.23557 -0.505444 0
M  V30 6437 C 600.576 -1.25211 -1.04049 0
M  V30 6438 O 601.765 -1.51391 -0.945675 0
M  V30 6439 C 598.865 -2.92516 -1.71136 0
M  V30 6440 C 598.038 -4.17428 -1.30661 0
M  V30 6441 C 597.097 -4.69535 -2.37536 0
M  V30 6442 O 596.123 -5.33042 -1.99637 0
M  V30 6443 N 597.325 -4.47947 -3.6922 0
M  V30 6444 H 600.09 -2.9954 0.0978259 0
M  V30 6445 H 597.651 -1.60684 0.198068 0
M  V30 6446 H 599.643 -3.24281 -2.42124 0
M  V30 6447 H 598.213 -2.19944 -2.22134 0
M  V30 6448 H 597.433 -3.91888 -0.426292 0
M  V30 6449 H 598.721 -4.98622 -1.01259 0
M  V30 6450 H 598.119 -3.97219 -4.02783 0
M  V30 6451 H 596.676 -4.84245 -4.36292 0
M  V30 6452 N 600.109 -0.101901 -1.5727 0
M  V30 6453 C 601.355 0.561027 -1.94885 0
M  V30 6454 C 601.688 1.6741 -0.984258 0
M  V30 6455 O 600.963 1.94491 -0.0184767 0
M  V30 6456 C 601.246 1.10982 -3.42571 0
M  V30 6457 C 601.099 0.00133418 -4.498 0
M  V30 6458 C 602.418 2.00608 -3.9172 0
M  V30 6459 H 599.537 0.202467 -0.708644 0
M  V30 6460 H 602.179 -0.173992 -1.89202 0
M  V30 6461 H 600.329 1.73621 -3.47546 0
M  V30 6462 H 602.001 -0.63322 -4.56933 0
M  V30 6463 H 600.244 -0.664143 -4.28686 0
M  V30 6464 H 600.915 0.426253 -5.50352 0
M  V30 6465 H 603.391 1.47864 -3.88941 0
M  V30 6466 H 602.267 2.3593 -4.95609 0
M  V30 6467 H 602.528 2.92608 -3.3141 0
M  V30 6468 N 601.587 1.56661 0.17182 0
M  V30 6469 C 602.833 1.82235 0.889845 0
M  V30 6470 C 603.166 0.679673 1.81918 0
M  V30 6471 O 602.441 -0.318404 1.91876 0
M  V30 6472 C 602.724 3.18195 1.68595 0
M  V30 6473 C 602.577 4.42989 0.779773 0
M  V30 6474 C 603.896 3.5109 2.65375 0
M  V30 6475 H 601.015 0.66291 0.322056 0
M  V30 6476 H 603.657 1.89358 0.15608 0
M  V30 6477 H 601.807 3.12253 2.3115 0
M  V30 6478 H 603.479 4.60997 0.16714 0
M  V30 6479 H 601.722 4.33711 0.0877964 0
M  V30 6480 H 602.393 5.3467 1.3723 0
M  V30 6481 H 604.869 3.57482 2.12946 0
M  V30 6482 H 603.745 4.47298 3.18144 0
M  V30 6483 H 604.006 2.75768 3.45549 0
M  V30 6484 N 603.065 -0.440357 1.51323 0
M  V30 6485 C 603.975 -1.55955 1.75258 0
M  V30 6486 C 604.991 -1.61933 0.636687 0
M  V30 6487 O 606.167 -1.79231 0.918593 0
M  V30 6488 C 603.232 -2.9196 1.86977 0
M  V30 6489 C 602.293 -2.96122 3.10822 0
M  V30 6490 C 601.526 -4.2564 3.21973 0
M  V30 6491 O 601.749 -5.17851 2.39137 0
M  V30 6492 O 600.683 -4.36025 4.14929 0
M  V30 6493 H 604.509 -1.38673 2.70191 0
M  V30 6494 H 602.094 -0.623055 1.35788 0
M  V30 6495 H 603.976 -3.72682 1.96688 0
M  V30 6496 H 602.651 -3.09375 0.952307 0
M  V30 6497 H 601.558 -2.14366 3.06591 0
M  V30 6498 H 602.891 -2.83651 4.02247 0
M  V30 6499 N 604.543 -1.41418 -0.695603 0
M  V30 6500 C 605.491 -1.43467 -1.83084 0
M  V30 6501 C 606.485 -0.312719 -1.66489 0
M  V30 6502 O 607.691 -0.484744 -1.7335 0
M  V30 6503 H 604.066 -0.448891 -0.603325 0
M  V30 6504 H 606.037 -2.39144 -1.78473 0
M  V30 6505 C 604.786 -1.3337 -3.21104 0
M  V30 6506 H 604.109 -2.18989 -3.3449 0
M  V30 6507 H 605.549 -1.38865 -4.00615 0
M  V30 6508 C 604.008 -0.0460484 -3.36869 0
M  V30 6509 O 604.538 0.909258 -3.91274 0
M  V30 6510 N 602.744 0.0300222 -2.90584 0
M  V30 6511 H 602.291 -0.748129 -2.46497 0
M  V30 6512 H 602.249 0.890991 -3.01511 0
M  V30 6513 N 606.021 0.929856 -1.27246 0
M  V30 6514 C 606.969 2.05151 -1.09616 0
M  V30 6515 C 607.963 1.69388 -0.0198617 0
M  V30 6516 O 609.169 1.79124 -0.177417 0
M  V30 6517 H 605.544 0.671909 -0.337701 0
M  V30 6518 H 607.515 2.17168 -2.04648 0
M  V30 6519 C 606.264 3.3934 -0.757851 0
M  V30 6520 H 605.587 3.67343 -1.57795 0
M  V30 6521 H 607.027 4.18603 -0.674358 0
M  V30 6522 C 605.486 3.32582 0.537658 0
M  V30 6523 O 606.016 3.69633 1.57271 0
M  V30 6524 N 604.222 2.8568 0.532478 0
M  V30 6525 H 603.769 2.55725 -0.310233 0
M  V30 6526 H 603.727 2.81541 1.39936 0
M  V30 6527 N 607.499 1.09233 1.13605 0
M  V30 6528 C 608.724 0.849067 1.89224 0
M  V30 6529 C 609.149 -0.593875 1.78479 0
M  V30 6530 O 608.507 -1.41703 1.13092 0
M  V30 6531 C 608.555 1.28642 3.36873 0
M  V30 6532 O 607.659 0.44363 4.10007 0
M  V30 6533 H 607 0.30767 0.588417 0
M  V30 6534 H 609.53 1.45595 1.43748 0
M  V30 6535 H 609.54 1.27096 3.87699 0
M  V30 6536 H 608.215 2.33729 3.44011 0
M  V30 6537 H 606.792 0.523241 3.69211 0
M  V30 6538 N 608.977 -1.30795 0.87923 0
M  V30 6539 C 610.223 -1.96653 0.495519 0
M  V30 6540 C 610.556 -1.69282 -0.951703 0
M  V30 6541 O 609.831 -0.994374 -1.6716 0
M  V30 6542 C 610.114 -3.51898 0.764174 0
M  V30 6543 C 609.967 -3.88808 2.2616 0
M  V30 6544 C 611.286 -4.39462 0.236825 0
M  V30 6545 H 608.405 -0.7143 0.181507 0
M  V30 6546 H 611.047 -1.54765 1.10217 0
M  V30 6547 H 609.197 -3.87709 0.247841 0
M  V30 6548 H 610.869 -3.63051 2.8459 0
M  V30 6549 H 609.112 -3.37082 2.73053 0
M  V30 6550 H 609.783 -4.97086 2.4002 0
M  V30 6551 H 612.259 -4.10528 0.678683 0
M  V30 6552 H 611.135 -5.47018 0.454176 0
M  V30 6553 H 611.396 -4.33621 -0.861683 0
M  V30 6554 N 610.455 -0.639598 -1.44038 0
M  V30 6555 C 611.683 -0.154811 -2.0632 0
M  V30 6556 C 612.098 1.17406 -1.47856 0
M  V30 6557 O 611.455 1.72193 -0.604638 0
M  V30 6558 C 611.506 -0.0429958 -3.61474 0
M  V30 6559 O 611.227 -1.31932 -4.17763 0
M  V30 6560 C 612.728 0.469486 -4.40807 0
M  V30 6561 H 609.948 -0.0835862 -0.665773 0
M  V30 6562 H 612.492 -0.876397 -1.84769 0
M  V30 6563 H 610.647 0.629075 -3.82258 0
M  V30 6564 H 611.061 -1.16965 -5.11292 0
M  V30 6565 H 612.535 0.496712 -5.49761 0
M  V30 6566 H 613.012 1.49819 -4.12857 0
M  V30 6567 H 613.618 -0.169624 -4.24962 0
M  V30 6568 N 611.933 1.52934 -0.380664 0
M  V30 6569 C 612.843 2.29921 0.466192 0
M  V30 6570 C 613.859 1.36488 1.07922 0
M  V30 6571 O 615.035 1.69553 1.0869 0
M  V30 6572 C 612.1 3.08468 1.58266 0
M  V30 6573 C 611.161 4.17595 0.995627 0
M  V30 6574 C 610.394 4.92387 2.05889 0
M  V30 6575 O 610.617 4.67184 3.27254 0
M  V30 6576 O 609.551 5.77949 1.68102 0
M  V30 6577 H 613.377 3.03274 -0.160735 0
M  V30 6578 H 610.962 1.48698 -0.144617 0
M  V30 6579 H 612.844 3.57469 2.23145 0
M  V30 6580 H 611.519 2.37937 2.19471 0
M  V30 6581 H 610.426 3.72811 0.310332 0
M  V30 6582 H 611.759 4.90336 0.427918 0
M  V30 6583 N 613.412 0.11024 1.57214 0
M  V30 6584 C 614.659 -0.54987 1.94891 0
M  V30 6585 C 614.987 -1.67243 0.992984 0
M  V30 6586 O 614.242 -1.95694 0.0152703 0
M  V30 6587 C 614.541 -1.13102 3.39032 0
M  V30 6588 C 614.207 -0.130713 4.5071 0
M  V30 6589 C 612.869 0.14437 4.80983 0
M  V30 6590 C 615.221 0.551472 5.18274 0
M  V30 6591 C 612.549 1.10807 5.76141 0
M  V30 6592 C 614.901 1.50375 6.14467 0
M  V30 6593 C 613.565 1.78691 6.43138 0
M  V30 6594 H 612.835 -0.201212 0.713158 0
M  V30 6595 H 615.482 0.189288 1.90562 0
M  V30 6596 H 613.787 -1.94675 3.40013 0
M  V30 6597 H 615.484 -1.64973 3.65493 0
M  V30 6598 H 612.074 -0.355301 4.27125 0
M  V30 6599 H 616.258 0.35211 4.95049 0
M  V30 6600 H 611.514 1.3343 5.96663 0
M  V30 6601 H 615.688 2.03808 6.65909 0
M  V30 6602 H 613.315 2.53522 7.1668 0
M  V30 6603 N 614.89 -1.56749 -0.16351 0
M  V30 6604 C 616.115 -1.86938 -0.898264 0
M  V30 6605 C 616.54 -0.697456 -1.74692 0
M  V30 6606 O 615.898 0.353327 -1.77824 0
M  V30 6607 C 615.946 -3.15599 -1.74441 0
M  V30 6608 O 615.05 -2.98371 -2.8469 0
M  V30 6609 H 614.391 -0.614659 -0.251178 0
M  V30 6610 H 616.921 -2.03979 -0.159298 0
M  V30 6611 H 616.931 -3.47202 -2.14277 0
M  V30 6612 H 615.606 -4.00505 -1.1211 0
M  V30 6613 H 614.183 -2.7814 -2.4838 0
M  V30 6614 N 616.368 0.432326 -1.51554 0
M  V30 6615 C 617.278 1.55023 -1.76082 0
M  V30 6616 C 618.294 1.61593 -0.645265 0
M  V30 6617 O 619.47 1.78742 -0.928086 0
M  V30 6618 C 616.535 2.90964 -1.88523 0
M  V30 6619 C 615.596 2.9447 -3.12388 0
M  V30 6620 C 614.829 4.23926 -3.24225 0
M  V30 6621 O 615.052 5.16576 -2.4188 0
M  V30 6622 O 613.986 4.33818 -4.17235 0
M  V30 6623 H 617.812 1.37238 -2.70923 0
M  V30 6624 H 615.397 0.615845 -1.36117 0
M  V30 6625 H 617.279 3.71633 -1.98662 0
M  V30 6626 H 615.954 3.08865 -0.9687 0
M  V30 6627 H 614.861 2.12737 -3.07723 0
M  V30 6628 H 616.194 2.81514 -4.03746 0
M  V30 6629 N 617.846 1.41785 0.688094 0
M  V30 6630 C 618.756 1.46596 1.83158 0
M  V30 6631 C 619.772 0.355862 1.70322 0
M  V30 6632 O 620.948 0.604737 1.92106 0
M  V30 6633 C 618.013 1.35322 3.192 0
M  V30 6634 C 617.074 2.56711 3.4409 0
M  V30 6635 C 616.307 2.45965 4.73642 0
M  V30 6636 O 616.53 1.48827 5.50642 0
M  V30 6637 O 615.464 3.35859 4.99482 0
M  V30 6638 H 619.29 2.43083 1.82056 0
M  V30 6639 H 616.875 1.23404 0.842126 0
M  V30 6640 H 618.757 1.31347 4.00407 0
M  V30 6641 H 617.432 0.419536 3.2097 0
M  V30 6642 H 616.339 2.66262 2.62784 0
M  V30 6643 H 617.672 3.48933 3.47141 0
M  V30 6644 N 619.324 -0.923095 1.27737 0
M  V30 6645 C 620.271 -2.02432 1.1086 0
M  V30 6646 C 621.241 -1.66098 0.00835195 0
M  V30 6647 O 622.426 -1.90027 0.171542 0
M  V30 6648 C 619.566 -3.36476 0.766671 0
M  V30 6649 C 618.679 -3.85737 1.94501 0
M  V30 6650 C 617.814 -5.08249 1.54455 0
M  V30 6651 C 616.853 -5.49818 2.6901 0
M  V30 6652 N 615.99 -6.63524 2.29521 0
M  V30 6653 H 620.83 -2.16201 2.05089 0
M  V30 6654 H 618.367 -1.05909 1.02087 0
M  V30 6655 H 620.325 -4.13569 0.549223 0
M  V30 6656 H 618.955 -3.22502 -0.13867 0
M  V30 6657 H 618.007 -3.04883 2.27487 0
M  V30 6658 H 619.319 -4.12513 2.80419 0
M  V30 6659 H 618.473 -5.92857 1.28862 0
M  V30 6660 H 617.212 -4.83261 0.656534 0
M  V30 6661 H 616.217 -4.63757 2.95313 0
M  V30 6662 H 617.442 -5.76799 3.5844 0
M  V30 6663 H 615.388 -6.40185 1.43177 0
M  V30 6664 H 615.305 -6.89978 3.08977 0
M  V30 6665 H 616.573 -7.51461 2.07187 0
M  V30 6666 N 620.802 -1.09834 -1.13024 0
M  V30 6667 C 621.75 -0.736283 -2.20639 0
M  V30 6668 C 622.744 0.264725 -1.67319 0
M  V30 6669 O 623.95 0.125745 -1.7956 0
M  V30 6670 H 620.325 -0.220136 -0.719058 0
M  V30 6671 H 622.296 -1.65295 -2.48436 0
M  V30 6672 C 621.045 -0.177544 -3.47246 0
M  V30 6673 H 620.368 -0.939009 -3.88616 0
M  V30 6674 H 621.808 0.0378007 -4.23983 0
M  V30 6675 C 620.267 1.08824 -3.1884 0
M  V30 6676 O 620.797 2.1708 -3.37993 0
M  V30 6677 N 619.003 1.00442 -2.7269 0
M  V30 6678 H 618.55 0.123383 -2.57304 0
M  V30 6679 H 618.508 1.85206 -2.5406 0
M  V30 6680 N 622.28 1.30327 -0.886154 0
M  V30 6681 C 623.696 1.48676 -0.580323 0
M  V30 6682 C 623.896 1.81189 0.881639 0
M  V30 6683 O 622.952 1.90021 1.66278 0
M  V30 6684 C 624.265 2.60932 -1.49449 0
M  V30 6685 C 625.813 2.74812 -1.49824 0
M  V30 6686 C 626.288 3.90183 -2.39836 0
M  V30 6687 N 627.779 3.97495 -2.37806 0
M  V30 6688 C 628.514 4.86078 -3.04165 0
M  V30 6689 N 628.01 5.79448 -3.79753 0
M  V30 6690 N 629.803 4.79456 -2.93391 0
M  V30 6691 H 621.954 1.07495 -1.8319 0
M  V30 6692 H 624.217 0.532661 -0.784204 0
M  V30 6693 H 623.923 2.43731 -2.5355 0
M  V30 6694 H 623.797 3.57437 -1.20494 0
M  V30 6695 H 626.184 2.91418 -0.464731 0
M  V30 6696 H 626.265 1.78924 -1.82811 0
M  V30 6697 H 625.909 3.74334 -3.43273 0
M  V30 6698 H 625.839 4.85411 -2.04166 0
M  V30 6699 H 628.33 3.30703 -1.82877 0
M  V30 6700 H 628.643 6.43805 -4.27475 0
M  V30 6701 H 626.988 5.79376 -3.8386 0
M  V30 6702 H 630.179 4.05494 -2.33864 0
M  V30 6703 H 630.352 5.48283 -3.45383 0
M  V30 6704 N 623.758 0.647228 1.43697 0
M  V30 6705 C 624.986 0.16575 2.06235 0
M  V30 6706 C 625.401 -1.1662 1.48476 0
M  V30 6707 O 624.758 -1.7187 0.613762 0
M  V30 6708 C 624.809 0.0621651 3.61447 0
M  V30 6709 O 624.53 1.34146 4.17057 0
M  V30 6710 C 626.031 -0.446102 4.4105 0
M  V30 6711 H 623.251 0.0871158 0.665321 0
M  V30 6712 H 625.795 0.886183 1.84301 0
M  V30 6713 H 623.95 -0.608794 3.82587 0
M  V30 6714 H 624.364 1.19675 5.10664 0
M  V30 6715 H 625.838 -0.46755 5.50016 0
M  V30 6716 H 626.315 -1.47627 4.13646 0
M  V30 6717 H 626.921 0.192159 4.24866 0
M  V30 6718 N 625.236 -1.5273 0.388769 0
M  V30 6719 C 626.146 -2.30165 -0.453993 0
M  V30 6720 C 627.162 -1.37058 -1.07197 0
M  V30 6721 O 628.338 -1.70127 -1.0779 0
M  V30 6722 C 625.403 -3.09303 -1.56628 0
M  V30 6723 C 624.464 -4.18117 -0.973467 0
M  V30 6724 C 623.697 -4.93472 -2.03275 0
M  V30 6725 O 623.92 -4.68913 -3.24772 0
M  V30 6726 O 622.854 -5.78833 -1.65034 0
M  V30 6727 H 626.68 -3.03185 0.176816 0
M  V30 6728 H 624.265 -1.4862 0.152501 0
M  V30 6729 H 626.147 -3.58648 -2.21246 0
M  V30 6730 H 624.822 -2.39098 -2.18206 0
M  V30 6731 H 623.729 -3.7297 -0.290556 0
M  V30 6732 H 625.062 -4.90556 -0.401908 0
M  V30 6733 N 626.714 -0.118576 -1.57153 0
M  V30 6734 C 627.662 0.849114 -2.16547 0
M  V30 6735 C 628.656 1.27567 -1.11458 0
M  V30 6736 O 629.862 1.24746 -1.29763 0
M  V30 6737 H 626.237 0.291935 -0.693021 0
M  V30 6738 H 628.208 0.323693 -2.96639 0
M  V30 6739 C 626.957 2.08951 -2.77912 0
M  V30 6740 H 626.28 1.77021 -3.58474 0
M  V30 6741 H 627.72 2.74666 -3.23008 0
M  V30 6742 C 626.179 2.87899 -1.74974 0
M  V30 6743 O 626.709 3.83268 -1.20285 0
M  V30 6744 N 624.915 2.51884 -1.44924 0
M  V30 6745 H 624.462 1.74397 -1.89587 0
M  V30 6746 H 624.42 3.05003 -0.762921 0
M  V30 6747 N 628.193 1.56834 0.155195 0
M  V30 6748 C 629.423 1.86778 0.883044 0
M  V30 6749 C 629.831 0.703824 1.75622 0
M  V30 6750 O 629.174 -0.33581 1.80605 0
M  V30 6751 C 629.236 3.1133 1.79761 0
M  V30 6752 C 628.9 4.43504 1.10242 0
M  V30 6753 C 629.897 5.17859 0.460204 0
M  V30 6754 C 627.582 4.90233 1.09437 0
M  V30 6755 C 629.576 6.37144 -0.180782 0
M  V30 6756 C 627.263 6.09444 0.449569 0
M  V30 6757 C 628.261 6.82744 -0.186888 0
M  V30 6758 O 627.949 7.99692 -0.821486 0
M  V30 6759 H 627.681 0.62352 0.261149 0
M  V30 6760 H 630.235 2.04813 0.155204 0
M  V30 6761 H 628.465 2.89282 2.56618 0
M  V30 6762 H 630.154 3.27587 2.39669 0
M  V30 6763 H 630.92 4.8283 0.458289 0
M  V30 6764 H 626.799 4.33109 1.57917 0
M  V30 6765 H 630.343 6.94296 -0.678154 0
M  V30 6766 H 626.24 6.43936 0.449123 0
M  V30 6767 H 627.008 8.15306 -0.722337 0
M  V30 6768 N 629.671 -0.424282 1.51781 0
M  V30 6769 C 630.619 -1.53649 1.74628 0
M  V30 6770 C 631.613 -1.57923 0.612922 0
M  V30 6771 O 632.819 -1.61511 0.794618 0
M  V30 6772 H 629.194 -0.510706 0.551981 0
M  V30 6773 H 631.165 -1.31558 2.67834 0
M  V30 6774 C 629.914 -2.91177 1.9003 0
M  V30 6775 H 629.237 -2.88625 2.76651 0
M  V30 6776 H 630.677 -3.6833 2.10021 0
M  V30 6777 C 629.136 -3.30303 0.663435 0
M  V30 6778 O 629.666 -4.01315 -0.175812 0
M  V30 6779 N 627.872 -2.86201 0.503723 0
M  V30 6780 H 627.419 -2.28583 1.18776 0
M  V30 6781 H 627.377 -3.12741 -0.322575 0
M  V30 6782 N 631.149 -1.42148 -0.680565 0
M  V30 6783 C 632.565 -1.24947 -0.992995 0
M  V30 6784 C 632.765 -0.149527 -2.00944 0
M  V30 6785 O 631.821 0.481145 -2.47873 0
M  V30 6786 C 633.134 -2.60426 -1.5033 0
M  V30 6787 C 634.682 -2.67733 -1.62137 0
M  V30 6788 C 635.157 -4.03564 -2.16565 0
M  V30 6789 N 636.648 -4.05488 -2.23905 0
M  V30 6790 C 637.383 -5.07401 -2.67081 0
M  V30 6791 N 636.879 -6.19698 -3.09751 0
M  V30 6792 N 638.672 -4.94758 -2.66778 0
M  V30 6793 H 630.823 -2.12399 -0.0074788 0
M  V30 6794 H 633.086 -0.94571 -0.0658529 0
M  V30 6795 H 632.792 -3.41743 -0.830947 0
M  V30 6796 H 632.666 -2.83949 -2.483 0
M  V30 6797 H 635.053 -1.86765 -2.2848 0
M  V30 6798 H 635.134 -2.48004 -0.626713 0
M  V30 6799 H 634.778 -4.84987 -1.50833 0
M  V30 6800 H 634.708 -4.20641 -3.1681 0
M  V30 6801 H 637.199 -3.24415 -1.93812 0
M  V30 6802 H 637.512 -6.93318 -3.41365 0
M  V30 6803 H 635.857 -6.23212 -3.07623 0
M  V30 6804 H 639.048 -4.06105 -2.32801 0
M  V30 6805 H 639.221 -5.74317 -3.00107 0
M  V30 6806 N 632.627 0.916307 -1.28225 0
M  V30 6807 C 633.559 2.02303 -1.07732 0
M  V30 6808 C 634.572 1.62773 -0.0298421 0
M  V30 6809 O 635.761 1.76406 -0.272626 0
M  V30 6810 C 632.861 3.33282 -0.614504 0
M  V30 6811 C 632.034 4.01439 -1.73682 0
M  V30 6812 C 631.093 5.10698 -1.26781 0
M  V30 6813 O 630.119 5.34038 -1.96958 0
M  V30 6814 N 631.321 5.80355 -0.129624 0
M  V30 6815 H 634.086 2.20442 -2.03041 0
M  V30 6816 H 631.647 1.08744 -1.19943 0
M  V30 6817 H 633.639 4.03699 -0.284397 0
M  V30 6818 H 632.209 3.11633 0.245664 0
M  V30 6819 H 631.429 3.24604 -2.23665 0
M  V30 6820 H 632.717 4.43721 -2.48976 0
M  V30 6821 H 632.115 5.6386 0.455847 0
M  V30 6822 H 630.672 6.51647 0.141224 0
M  V30 6823 N 634.105 1.10431 1.1244 0
M  V30 6824 C 635.382 0.758797 1.80282 0
M  V30 6825 C 635.762 -0.754727 1.97147 0
M  V30 6826 O 635.11 -1.68094 1.54779 0
M  V30 6827 C 635.32 1.50982 3.14651 0
M  V30 6828 C 636.668 1.68232 3.8985 0
M  V30 6829 O 637.692 1.47319 3.24308 0
M  V30 6830 O 636.551 2.02905 5.07437 0
M  V30 6831 H 633.645 0.273756 0.780376 0
M  V30 6832 H 636.191 1.20713 1.19275 0
M  V30 6833 H 634.963 2.53989 2.97666 0
M  V30 6834 H 634.586 1.05435 3.83366 0
M  V30 6835 N 635.583 -1.29855 0.893053 0
M  V30 6836 C 636.831 -1.9544 0.514566 0
M  V30 6837 C 637.152 -1.70795 -0.940959 0
M  V30 6838 O 636.422 -1.03601 -1.66264 0
M  V30 6839 H 635.002 -0.723137 0.187302 0
M  V30 6840 H 637.664 -1.58234 1.13789 0
M  V30 6841 H 636.76 -3.04341 0.691581 0
M  V30 6842 N 637.061 -0.65484 -1.43351 0
M  V30 6843 C 637.993 0.0744757 -2.29079 0
M  V30 6844 C 639.006 0.7855 -1.42596 0
M  V30 6845 O 640.195 0.642986 -1.66517 0
M  V30 6846 C 637.295 1.12859 -3.19556 0
M  V30 6847 C 636.468 0.495381 -4.34586 0
M  V30 6848 C 635.527 1.44659 -5.05925 0
M  V30 6849 O 634.553 0.954567 -5.61139 0
M  V30 6850 N 635.755 2.78051 -5.09576 0
M  V30 6851 H 638.52 -0.661346 -2.92312 0
M  V30 6852 H 636.081 -0.497744 -1.54059 0
M  V30 6853 H 638.073 1.76577 -3.64147 0
M  V30 6854 H 636.643 1.76636 -2.57912 0
M  V30 6855 H 635.863 -0.32092 -3.92892 0
M  V30 6856 H 637.151 0.0534203 -5.08772 0
M  V30 6857 H 636.549 3.20584 -4.66093 0
M  V30 6858 H 635.106 3.37068 -5.57878 0
M  V30 6859 N 638.539 1.52521 -0.396863 0
M  V30 6860 C 639.955 1.5953 -0.0471659 0
M  V30 6861 C 640.155 1.41044 1.43906 0
M  V30 6862 O 639.211 1.23122 2.20448 0
M  V30 6863 C 640.524 2.95972 -0.531113 0
M  V30 6864 C 642.072 3.09172 -0.488024 0
M  V30 6865 C 642.547 4.48075 -0.948281 0
M  V30 6866 N 644.038 4.54281 -0.9046 0
M  V30 6867 C 644.773 5.60007 -1.23205 0
M  V30 6868 N 644.269 6.73343 -1.63036 0
M  V30 6869 N 646.062 5.50151 -1.15282 0
M  V30 6870 H 638.213 1.62786 -1.36435 0
M  V30 6871 H 640.476 0.76514 -0.559701 0
M  V30 6872 H 640.182 3.14741 -1.56942 0
M  V30 6873 H 640.056 3.77143 0.0657922 0
M  V30 6874 H 642.443 2.90095 0.541211 0
M  V30 6875 H 642.524 2.29937 -1.12083 0
M  V30 6876 H 642.168 4.67894 -1.97578 0
M  V30 6877 H 642.098 5.25788 -0.292412 0
M  V30 6878 H 644.589 3.72918 -0.6116 0
M  V30 6879 H 644.902 7.49992 -1.86365 0
M  V30 6880 H 643.247 6.74655 -1.66929 0
M  V30 6881 H 646.438 4.6049 -0.840602 0
M  V30 6882 H 646.611 6.32444 -1.41133 0
M  V30 6883 N 640.017 0.126909 1.57088 0
M  V30 6884 C 641.263 -0.529952 1.95753 0
M  V30 6885 C 641.596 -1.65823 1.01077 0
M  V30 6886 O 640.871 -1.94437 0.0494162 0
M  V30 6887 C 641.154 -1.05517 3.44294 0
M  V30 6888 C 641.007 0.0702253 4.49745 0
M  V30 6889 C 642.326 -1.9435 3.94862 0
M  V30 6890 H 639.445 -0.191168 0.711775 0
M  V30 6891 H 642.087 0.204071 1.88901 0
M  V30 6892 H 640.237 -1.68069 3.50264 0
M  V30 6893 H 641.909 0.705834 4.55868 0
M  V30 6894 H 640.152 0.732259 4.27575 0
M  V30 6895 H 640.823 -0.338642 5.5096 0
M  V30 6896 H 643.299 -1.41658 3.91244 0
M  V30 6897 H 642.175 -2.28015 4.993 0
M  V30 6898 H 642.436 -2.87299 3.36024 0
M  V30 6899 N 641.495 -1.56914 -0.146875 0
M  V30 6900 C 642.427 -1.94878 -1.20645 0
M  V30 6901 C 643.44 -0.844633 -1.39175 0
M  V30 6902 O 644.629 -1.12304 -1.38744 0
M  V30 6903 C 641.729 -2.20769 -2.57127 0
M  V30 6904 C 640.902 -3.52053 -2.59572 0
M  V30 6905 C 639.961 -3.66482 -3.77594 0
M  V30 6906 O 638.987 -4.38873 -3.62462 0
M  V30 6907 N 640.189 -3.03156 -4.95052 0
M  V30 6908 H 642.954 -2.86374 -0.883757 0
M  V30 6909 H 640.515 -1.58366 -0.336436 0
M  V30 6910 H 642.507 -2.27664 -3.34591 0
M  V30 6911 H 641.077 -1.35538 -2.81688 0
M  V30 6912 H 640.297 -3.56598 -1.68023 0
M  V30 6913 H 641.585 -4.38396 -2.58238 0
M  V30 6914 H 640.983 -2.44258 -5.10249 0
M  V30 6915 H 639.54 -3.15611 -5.70292 0
M  V30 6916 N 642.974 0.416227 -1.52004 0
M  V30 6917 C 644.222 1.16153 -1.65387 0
M  V30 6918 C 644.543 1.91208 -0.382669 0
M  V30 6919 O 643.813 1.86413 0.602231 0
M  V30 6920 H 642.393 0.431765 -0.60958 0
M  V30 6921 H 645.055 0.475151 -1.89019 0
M  V30 6922 H 644.151 1.87952 -2.4916 0
M  V30 6923 N 644.452 1.42507 0.673017 0
M  V30 6924 C 645.7 1.42789 1.43023 0
M  V30 6925 C 646.021 0.0459738 1.94946 0
M  V30 6926 O 645.291 -0.915765 1.73178 0
M  V30 6927 H 643.871 0.525657 0.530748 0
M  V30 6928 H 646.533 1.77944 0.795113 0
M  V30 6929 H 645.629 2.12872 2.28237 0
M  V30 6930 N 645.93 -0.909495 1.28709 0
M  V30 6931 C 647.176 -1.66151 1.16283 0
M  V30 6932 C 647.509 -1.92067 -0.287069 0
M  V30 6933 O 646.784 -1.52409 -1.20837 0
M  V30 6934 C 647.067 -3.01676 1.9663 0
M  V30 6935 C 646.92 -2.82888 3.49707 0
M  V30 6936 C 648.239 -4.02274 1.78504 0
M  V30 6937 H 645.358 -0.602966 0.423793 0
M  V30 6938 H 648 -1.05418 1.58073 0
M  V30 6939 H 646.15 -3.53515 1.61119 0
M  V30 6940 H 647.822 -2.38026 3.95147 0
M  V30 6941 H 646.065 -2.17862 3.75125 0
M  V30 6942 H 646.736 -3.79147 4.01187 0
M  V30 6943 H 649.212 -3.59511 2.09503 0
M  V30 6944 H 648.088 -4.95056 2.37088 0
M  V30 6945 H 648.349 -4.35903 0.737647 0
M  V30 6946 N 647.408 -1.11026 -1.11852 0
M  V30 6947 C 648.819 -0.873203 -1.65021 0
M  V30 6948 C 649.17 0.595364 -1.86949 0
M  V30 6949 O 648.295 1.45645 -1.60051 0
M  V30 6950 C 648.89 -1.57859 -2.99777 0
M  V30 6951 C 647.449 -1.38807 -3.49871 0
M  V30 6952 C 646.596 -1.62403 -2.24768 0
M  V30 6953 H 649.547 -1.26712 -0.955503 0
M  V30 6954 H 649.568 -1.02111 -3.66543 0
M  V30 6955 H 649.08 -2.6474 -2.83786 0
M  V30 6956 H 647.181 -0.341163 -3.71035 0
M  V30 6957 H 647.294 -2.13421 -4.28938 0
M  V30 6958 H 645.658 -1.04714 -2.32179 0
M  V30 6959 H 646.441 -2.70549 -2.11324 0
M  V30 6960 N 648.886 1.2938 -0.899927 0
M  V30 6961 C 649.849 2.25983 -0.382677 0
M  V30 6962 C 650.849 1.53366 0.483259 0
M  V30 6963 O 652.039 1.71798 0.28828 0
M  V30 6964 C 649.171 3.37878 0.452915 0
M  V30 6965 H 650.364 2.73252 -1.23586 0
M  V30 6966 H 647.917 1.40825 -0.678088 0
M  V30 6967 H 648.652 2.95949 1.32608 0
M  V30 6968 H 648.437 3.91742 -0.167562 0
M  V30 6969 H 649.927 4.09746 0.806107 0
M  V30 6970 N 650.364 0.662433 1.43002 0
M  V30 6971 C 651.612 0.179237 2.01304 0
M  V30 6972 C 651.933 -1.21428 1.52579 0
M  V30 6973 O 651.203 -1.81294 0.742252 0
M  V30 6974 H 649.783 0.0632725 0.744316 0
M  V30 6975 H 652.445 0.856169 1.75088 0
M  V30 6976 H 651.541 0.170957 3.11631 0
M  V30 6977 N 651.842 -1.52309 0.404946 0
M  V30 6978 C 653.067 -2.06666 -0.1743 0
M  V30 6979 C 653.492 -1.27341 -1.38441 0
M  V30 6980 O 652.85 -0.302539 -1.78758 0
M  V30 6981 C 652.898 -3.57014 -0.507262 0
M  V30 6982 O 652.002 -3.80144 -1.59889 0
M  V30 6983 H 651.343 -0.663807 -0.0160273 0
M  V30 6984 H 653.873 -1.96297 0.576937 0
M  V30 6985 H 653.883 -4.00724 -0.767098 0
M  V30 6986 H 652.558 -4.14184 0.377368 0
M  V30 6987 H 651.135 -3.48316 -1.33155 0
M  V30 6988 N 653.32 -0.135238 -1.57019 0
M  V30 6989 C 654.597 0.563227 -1.87316 0
M  V30 6990 C 654.977 1.83749 -1.03921 0
M  V30 6991 O 654.325 2.2817 -0.122675 0
M  V30 6992 C 654.535 0.840031 -3.3874 0
M  V30 6993 C 655.883 1.18598 -4.077 0
M  V30 6994 O 656.907 0.92977 -3.43851 0
M  V30 6995 O 655.766 1.66758 -5.20436 0
M  V30 6996 H 652.86 0.285971 -0.775983 0
M  V30 6997 H 655.406 -0.170965 -1.68837 0
M  V30 6998 H 654.178 -0.0622785 -3.9125 0
M  V30 6999 H 653.801 1.62882 -3.62706 0
M  V30 7000 N 654.798 1.5699 0.138552 0
M  V30 7001 C 655.708 2.02174 1.19008 0
M  V30 7002 C 656.724 0.938622 1.46512 0
M  V30 7003 O 657.9 1.24872 1.58016 0
M  V30 7004 C 654.965 2.40045 2.50159 0
M  V30 7005 C 654.026 3.62346 2.30226 0
M  V30 7006 C 653.259 3.98401 3.55123 0
M  V30 7007 O 653.482 3.35019 4.61647 0
M  V30 7008 O 652.416 4.91606 3.47285 0
M  V30 7009 H 656.242 2.91954 0.836452 0
M  V30 7010 H 653.827 1.45293 0.347907 0
M  V30 7011 H 655.709 2.65225 3.27465 0
M  V30 7012 H 654.384 1.53417 2.85035 0
M  V30 7013 H 653.291 3.42341 1.50843 0
M  V30 7014 H 654.624 4.49617 2.00262 0
M  V30 7015 N 656.276 -0.40816 1.52223 0
M  V30 7016 C 657.506 -1.17501 1.69932 0
M  V30 7017 C 657.914 -1.84729 0.408874 0
M  V30 7018 O 657.257 -1.7274 -0.625025 0
M  V30 7019 C 657.319 -2.27994 2.77955 0
M  V30 7020 C 656.983 -1.80894 4.19674 0
M  V30 7021 C 657.98 -1.29618 5.03483 0
M  V30 7022 C 655.665 -1.87698 4.65913 0
M  V30 7023 C 657.659 -0.857695 6.31603 0
M  V30 7024 C 655.346 -1.43461 5.94022 0
M  V30 7025 C 656.344 -0.925822 6.76696 0
M  V30 7026 O 656.032 -0.489841 8.02406 0
M  V30 7027 H 655.764 -0.359065 0.572755 0
M  V30 7028 H 658.318 -0.486188 1.99563 0
M  V30 7029 H 656.548 -3.00243 2.43703 0
M  V30 7030 H 658.237 -2.89749 2.84254 0
M  V30 7031 H 659.003 -1.23733 4.68951 0
M  V30 7032 H 654.882 -2.26244 4.01665 0
M  V30 7033 H 658.426 -0.459879 6.96083 0
M  V30 7034 H 654.323 -1.49026 6.28062 0
M  V30 7035 H 655.091 -0.613062 8.16201 0
M  V30 7036 N 657.755 -1.42862 -0.66545 0
M  V30 7037 C 658.665 -1.49491 -1.80803 0
M  V30 7038 C 659.681 -0.382914 -1.69734 0
M  V30 7039 O 660.857 -0.635223 -1.9112 0
M  V30 7040 C 657.922 -1.40383 -3.17007 0
M  V30 7041 C 656.983 -2.62152 -3.39963 0
M  V30 7042 C 656.216 -2.53469 -4.69669 0
M  V30 7043 O 656.439 -1.57568 -5.48205 0
M  V30 7044 O 655.373 -3.43763 -4.94075 0
M  V30 7045 H 659.199 -2.45949 -1.78165 0
M  V30 7046 H 656.784 -1.24728 -0.822387 0
M  V30 7047 H 658.666 -1.377 -3.98267 0
M  V30 7048 H 657.341 -0.470546 -3.20262 0
M  V30 7049 H 656.248 -2.70409 -2.58515 0
M  V30 7050 H 657.581 -3.54411 -3.41546 0
M  V30 7051 N 659.233 0.902656 -1.29189 0
M  V30 7052 C 660.51 1.63296 -1.07674 0
M  V30 7053 C 660.89 2.07649 0.380137 0
M  V30 7054 O 660.238 1.82997 1.36837 0
M  V30 7055 C 660.448 2.81603 -2.06158 0
M  V30 7056 C 661.796 3.52359 -2.36914 0
M  V30 7057 O 662.82 2.91767 -2.04329 0
M  V30 7058 O 661.679 4.61586 -2.92576 0
M  V30 7059 H 658.773 0.716889 -0.41231 0
M  V30 7060 H 661.319 0.950984 -1.4055 0
M  V30 7061 H 660.091 2.46004 -3.04299 0
M  V30 7062 H 659.714 3.57508 -1.73993 0
M  V30 7063 N 660.711 1.11618 1.11262 0
M  V30 7064 C 661.621 0.78898 2.20935 0
M  V30 7065 C 662.637 -0.21867 1.7262 0
M  V30 7066 O 663.813 -0.0543826 2.01327 0
M  V30 7067 C 660.878 0.239014 3.45875 0
M  V30 7068 C 659.939 1.3055 4.08968 0
M  V30 7069 C 659.172 0.781687 5.27944 0
M  V30 7070 O 659.395 -0.387605 5.69082 0
M  V30 7071 O 658.329 1.54734 5.81671 0
M  V30 7072 H 662.155 1.70477 2.51339 0
M  V30 7073 H 659.74 0.892203 1.19834 0
M  V30 7074 H 661.622 -0.0632312 4.21353 0
M  V30 7075 H 660.297 -0.649454 3.17118 0
M  V30 7076 H 659.204 1.66079 3.35214 0
M  V30 7077 H 660.537 2.16743 4.41909 0
M  V30 7078 N 662.189 -1.289 0.906776 0
M  V30 7079 C 663.429 -1.97046 0.543329 0
M  V30 7080 C 663.793 -1.69862 -0.895034 0
M  V30 7081 O 664.994 -2.31521 -1.36571 0
M  V30 7082 C 663.265 -3.47489 0.835833 0
M  V30 7083 S 664.824 -4.3498 0.577756 0
M  V30 7084 H 661.642 -0.681908 0.201302 0
M  V30 7085 H 664.244 -1.5657 1.17073 0
M  V30 7086 H 662.948 -3.64768 1.88075 0
M  V30 7087 H 662.479 -3.92907 0.196817 0
M  V30 7088 H 664.494 -4.92868 -0.574052 0
M  V30 7089 N 663.667 -0.670007 -1.42649 0
M  V30 7090 C 665.078 -0.268118 -1.84765 0
M  V30 7091 C 665.429 1.18877 -1.56086 0
M  V30 7092 O 664.554 1.90947 -1.01825 0
M  V30 7093 C 665.149 -0.47984 -3.35385 0
M  V30 7094 C 663.708 -0.132116 -3.76168 0
M  V30 7095 C 662.855 -0.774611 -2.66261 0
M  V30 7096 H 665.806 -0.872509 -1.32563 0
M  V30 7097 H 665.827 0.269522 -3.79544 0
M  V30 7098 H 665.339 -1.54026 -3.56227 0
M  V30 7099 H 663.44 0.92505 -3.60934 0
M  V30 7100 H 663.553 -0.569294 -4.75706 0
M  V30 7101 H 661.917 -0.206353 -2.53863 0
M  V30 7102 H 662.7 -1.83839 -2.89928 0
M  V30 7103 N 665.145 1.52092 -0.413018 0
M  V30 7104 C 666.095 2.23947 0.427993 0
M  V30 7105 C 667.079 1.25229 1.01027 0
M  V30 7106 O 668.271 1.50448 0.932444 0
M  V30 7107 C 665.4 3.0672 1.542 0
M  V30 7108 C 664.486 4.12851 0.970307 0
M  V30 7109 N 664.877 5.05644 0.125611 0
M  V30 7110 C 663.175 4.28404 1.24042 0
M  V30 7111 C 663.876 5.8138 -0.192876 0
M  V30 7112 N 662.852 5.41996 0.417273 0
M  V30 7113 H 666.654 2.93048 -0.223628 0
M  V30 7114 H 664.168 1.60852 -0.223664 0
M  V30 7115 H 666.165 3.56754 2.15714 0
M  V30 7116 H 664.825 2.39159 2.19621 0
M  V30 7117 H 665.836 5.17348 -0.238995 0
M  V30 7118 H 662.513 3.72071 1.89391 0
M  V30 7119 H 663.903 6.66129 -0.878762 0
M  V30 7120 N 666.623 0.143563 1.56945 0
M  V30 7121 C 667.553 -0.7936 2.196 0
M  V30 7122 C 668.534 -1.25955 1.14321 0
M  V30 7123 O 669.719 -1.31773 1.42651 0
M  V30 7124 C 666.849 -2.03424 2.81489 0
M  V30 7125 C 665.803 -1.70519 3.92565 0
M  V30 7126 C 665.129 -3.01817 4.41373 0
M  V30 7127 C 666.429 -0.95449 5.13504 0
M  V30 7128 H 668.123 -0.271423 2.98167 0
M  V30 7129 H 665.669 -0.12911 1.4342 0
M  V30 7130 H 667.622 -2.69463 3.23987 0
M  V30 7131 H 666.346 -2.58008 2.00248 0
M  V30 7132 H 665.005 -1.06859 3.5068 0
M  V30 7133 H 664.653 -3.54386 3.56959 0
M  V30 7134 H 664.353 -2.80565 5.16292 0
M  V30 7135 H 665.877 -3.68934 4.86539 0
M  V30 7136 H 667.291 -1.5169 5.52868 0
M  V30 7137 H 665.688 -0.842035 5.94163 0
M  V30 7138 H 666.758 0.0544033 4.84869 0
M  V30 7139 N 668.101 -1.57061 -0.130224 0
M  V30 7140 C 669.35 -1.83446 -0.838488 0
M  V30 7141 C 669.663 -0.727468 -1.81569 0
M  V30 7142 O 670.869 -0.877394 -2.56932 0
M  V30 7143 C 669.325 -3.25201 -1.54182 0
M  V30 7144 C 668.933 -4.4388 -0.606178 0
M  V30 7145 C 670.677 -3.60844 -2.23588 0
M  V30 7146 C 668.584 -5.76661 -1.31209 0
M  V30 7147 H 667.514 -0.684185 -0.316871 0
M  V30 7148 H 670.165 -1.83273 -0.0912059 0
M  V30 7149 H 668.547 -3.1981 -2.33533 0
M  V30 7150 H 669.721 -4.60545 0.153308 0
M  V30 7151 H 668.036 -4.16395 -0.0196705 0
M  V30 7152 H 670.633 -4.57313 -2.77072 0
M  V30 7153 H 670.976 -2.87724 -3.00867 0
M  V30 7154 H 671.509 -3.67971 -1.51137 0
M  V30 7155 H 668.248 -6.52922 -0.580823 0
M  V30 7156 H 667.768 -5.63902 -2.04387 0
M  V30 7157 H 669.447 -6.20035 -1.8484 0
M  V30 7158 N 669.579 0.400081 -1.52437 0
M  V30 7159 C 670.542 1.4707 -1.75793 0
M  V30 7160 C 671.542 1.48036 -0.627856 0
M  V30 7161 O 672.732 1.49401 -0.895817 0
M  V30 7162 C 669.864 2.86427 -1.84858 0
M  V30 7163 H 671.057 1.27649 -2.71377 0
M  V30 7164 H 668.61 0.631141 -1.42991 0
M  V30 7165 H 669.345 3.11207 -0.912194 0
M  V30 7166 H 669.13 2.87128 -2.6702 0
M  V30 7167 H 670.62 3.64023 -2.04638 0
M  V30 7168 N 671.057 1.43213 0.657864 0
M  V30 7169 C 671.987 1.50815 1.78262 0
M  V30 7170 C 672.968 0.363211 1.66177 0
M  V30 7171 O 674.153 0.579806 1.85343 0
M  V30 7172 C 671.283 1.42625 3.16663 0
M  V30 7173 C 670.237 2.5532 3.43505 0
M  V30 7174 C 669.563 2.32184 4.81658 0
M  V30 7175 C 670.863 3.97583 3.38711 0
M  V30 7176 H 672.557 2.44954 1.72157 0
M  V30 7177 H 670.103 1.17896 0.82683 0
M  V30 7178 H 672.056 1.46548 3.95097 0
M  V30 7179 H 670.78 0.449877 3.23487 0
M  V30 7180 H 669.439 2.50742 2.6744 0
M  V30 7181 H 669.087 1.32801 4.85153 0
M  V30 7182 H 668.787 3.07724 5.00579 0
M  V30 7183 H 670.311 2.37883 5.62356 0
M  V30 7184 H 671.725 4.03673 4.07089 0
M  V30 7185 H 670.122 4.73112 3.69168 0
M  V30 7186 H 671.192 4.23049 2.36976 0
M  V30 7187 N 672.536 -0.895792 1.29666 0
M  V30 7188 C 673.761 -1.68528 1.20885 0
M  V30 7189 C 674.186 -1.8673 -0.226595 0
M  V30 7190 O 673.544 -1.39044 -1.16347 0
M  V30 7191 C 673.592 -3.04512 1.93144 0
M  V30 7192 O 672.696 -3.92963 1.25115 0
M  V30 7193 H 672.037 -0.515371 0.418675 0
M  V30 7194 H 674.567 -1.11878 1.71302 0
M  V30 7195 H 674.577 -3.54628 2.0175 0
M  V30 7196 H 673.252 -2.90582 2.97548 0
M  V30 7197 H 671.829 -3.51399 1.24794 0
M  V30 7198 N 674.014 -1.12206 -1.10668 0
M  V30 7199 C 675.239 -0.898938 -1.86906 0
M  V30 7200 C 675.664 0.546346 -1.79991 0
M  V30 7201 O 675.022 1.38655 -1.1681 0
M  V30 7202 C 675.07 -1.37529 -3.33344 0
M  V30 7203 O 674.174 -0.55218 -4.08687 0
M  V30 7204 H 673.515 -0.323163 -0.580053 0
M  V30 7205 H 676.045 -1.49355 -1.39837 0
M  V30 7206 H 676.055 -1.3733 -3.84193 0
M  V30 7207 H 674.73 -2.42767 -3.37693 0
M  V30 7208 H 673.307 -0.620947 -3.67694 0
M  V30 7209 N 675.492 1.28418 -0.913599 0
M  V30 7210 C 676.422 2.29713 -0.418847 0
M  V30 7211 C 677.403 1.62165 0.513469 0
M  V30 7212 O 678.588 1.89576 0.421235 0
M  V30 7213 C 675.718 3.45612 0.342042 0
M  V30 7214 C 674.672 4.25056 -0.501123 0
M  V30 7215 C 673.998 5.3329 0.388097 0
M  V30 7216 C 675.298 4.91814 -1.75831 0
M  V30 7217 H 676.992 2.71346 -1.26538 0
M  V30 7218 H 674.538 1.30446 -0.609903 0
M  V30 7219 H 676.491 4.15562 0.699 0
M  V30 7220 H 675.215 3.02858 1.22248 0
M  V30 7221 H 673.874 3.56833 -0.840598 0
M  V30 7222 H 673.522 4.8678 1.26707 0
M  V30 7223 H 673.222 5.87347 -0.172459 0
M  V30 7224 H 674.746 6.06088 0.74094 0
M  V30 7225 H 676.16 5.54126 -1.47026 0
M  V30 7226 H 674.557 5.55866 -2.26126 0
M  V30 7227 H 675.627 4.16313 -2.4862 0
M  V30 7228 N 676.97 0.677563 1.42291 0
M  V30 7229 C 677.918 -0.0106755 2.32598 0
M  V30 7230 C 678.912 -0.787643 1.49975 0
M  V30 7231 O 680.118 -0.695295 1.66029 0
M  V30 7232 H 676.493 -0.0222482 0.751671 0
M  V30 7233 H 678.464 0.768312 2.88339 0
M  V30 7234 C 677.213 -0.946142 3.3458 0
M  V30 7235 H 676.536 -0.357701 3.98197 0
M  V30 7236 H 677.976 -1.39634 4.00348 0
M  V30 7237 C 676.435 -2.05383 2.67057 0
M  V30 7238 O 676.965 -3.1406 2.50458 0
M  V30 7239 N 675.171 -1.82635 2.26038 0
M  V30 7240 H 674.718 -0.942534 2.39737 0
M  V30 7241 H 674.676 -2.56937 1.81192 0
M  V30 7242 N 678.448 -1.51871 0.421078 0
M  V30 7243 C 679.864 -1.59435 0.0725398 0
M  V30 7244 C 680.064 -1.43315 -1.41644 0
M  V30 7245 O 679.12 -1.26614 -2.18461 0
M  V30 7246 C 680.433 -2.9509 0.578132 0
M  V30 7247 C 681.981 -3.08356 0.537149 0
M  V30 7248 C 682.456 -4.4651 1.01945 0
M  V30 7249 N 683.947 -4.52784 0.976758 0
M  V30 7250 C 684.682 -5.57976 1.32099 0
M  V30 7251 N 684.178 -6.70664 1.73727 0
M  V30 7252 N 685.971 -5.48248 1.2402 0
M  V30 7253 H 678.122 -1.60595 1.39007 0
M  V30 7254 H 680.385 -0.756138 0.571803 0
M  V30 7255 H 680.091 -3.12205 1.61929 0
M  V30 7256 H 679.965 -3.772 -0.00578374 0
M  V30 7257 H 682.352 -2.90919 -0.494991 0
M  V30 7258 H 682.433 -2.28125 1.15727 0
M  V30 7259 H 682.077 -4.64692 2.04997 0
M  V30 7260 H 682.007 -5.25256 0.376023 0
M  V30 7261 H 684.498 -3.71898 0.670851 0
M  V30 7262 H 684.811 -7.46932 1.98274 0
M  V30 7263 H 683.156 -6.71914 1.77641 0
M  V30 7264 H 686.347 -4.59095 0.913756 0
M  V30 7265 H 686.52 -6.30119 1.51176 0
M  V30 7266 N 679.926 -0.151884 -1.56866 0
M  V30 7267 C 680.836 0.798876 -2.20579 0
M  V30 7268 C 681.852 1.268 -1.19154 0
M  V30 7269 O 683.028 1.32418 -1.51748 0
M  V30 7270 C 680.093 2.01861 -2.81874 0
M  V30 7271 C 679.154 1.59825 -3.9844 0
M  V30 7272 C 678.387 2.75984 -4.56802 0
M  V30 7273 O 678.61 3.92331 -4.14044 0
M  V30 7274 O 677.544 2.51175 -5.46987 0
M  V30 7275 H 681.37 0.2865 -3.02346 0
M  V30 7276 H 678.955 0.0753806 -1.4921 0
M  V30 7277 H 680.837 2.73235 -3.20813 0
M  V30 7278 H 679.512 2.52042 -2.03117 0
M  V30 7279 H 678.419 0.854601 -3.64208 0
M  V30 7280 H 679.752 1.14355 -4.78731 0
M  V30 7281 N 681.404 1.57128 0.121893 0
M  V30 7282 C 682.651 1.847 0.830188 0
M  V30 7283 C 682.979 0.736543 1.80015 0
M  V30 7284 O 682.234 -0.272358 1.93796 0
M  V30 7285 C 682.533 3.1874 1.61677 0
M  V30 7286 C 682.199 4.43901 0.791361 0
M  V30 7287 C 680.861 4.77887 0.563731 0
M  V30 7288 C 683.213 5.20753 0.215823 0
M  V30 7289 C 680.541 5.86168 -0.249737 0
M  V30 7290 C 682.893 6.29891 -0.584821 0
M  V30 7291 C 681.557 6.6241 -0.822794 0
M  V30 7292 H 680.827 0.675866 0.303787 0
M  V30 7293 H 683.474 1.91276 0.0926894 0
M  V30 7294 H 681.779 3.07728 2.42509 0
M  V30 7295 H 683.476 3.37295 2.16872 0
M  V30 7296 H 680.066 4.17272 0.978867 0
M  V30 7297 H 684.25 4.94851 0.378907 0
M  V30 7298 H 679.506 6.0979 -0.44336 0
M  V30 7299 H 683.68 6.88624 -1.03779 0
M  V30 7300 H 681.307 7.46147 -1.45496 0
M  V30 7301 N 682.882 -0.391992 1.52647 0
M  V30 7302 C 684.298 -0.731848 1.41831 0
M  V30 7303 C 684.498 -1.9423 0.536361 0
M  V30 7304 O 683.554 -2.52499 0.00866571 0
M  V30 7305 C 684.867 -0.969743 2.84634 0
M  V30 7306 C 686.415 -1.0714 2.94092 0
M  V30 7307 C 686.89 -1.34195 4.37899 0
M  V30 7308 N 688.381 -1.41023 4.41211 0
M  V30 7309 C 689.116 -1.63616 5.49561 0
M  V30 7310 N 688.612 -1.83699 6.68002 0
M  V30 7311 N 690.405 -1.65771 5.371 0
M  V30 7312 H 682.556 0.404547 2.08512 0
M  V30 7313 H 684.819 0.11879 0.940528 0
M  V30 7314 H 684.525 -0.152465 3.51369 0
M  V30 7315 H 684.399 -1.88523 3.26709 0
M  V30 7316 H 686.786 -1.87925 2.27526 0
M  V30 7317 H 686.867 -0.133887 2.55449 0
M  V30 7318 H 686.511 -0.539207 5.0503 0
M  V30 7319 H 686.441 -2.29226 4.74092 0
M  V30 7320 H 688.932 -1.27223 3.55841 0
M  V30 7321 H 689.245 -2.00437 7.46354 0
M  V30 7322 H 687.59 -1.8093 6.71036 0
M  V30 7323 H 690.781 -1.4963 4.43541 0
M  V30 7324 H 690.954 -1.83038 6.21612 0
M  V30 7325 N 684.36 -1.4356 -0.65026 0
M  V30 7326 C 685.771 -1.40324 -1.2315 0
M  V30 7327 C 686.122 -0.108812 -1.95898 0
M  V30 7328 O 685.247 0.79163 -2.01401 0
M  V30 7329 C 685.842 -2.54195 -2.23987 0
M  V30 7330 C 684.401 -2.54215 -2.77582 0
M  V30 7331 C 683.548 -2.31752 -1.5227 0
M  V30 7332 H 686.499 -1.52418 -0.442095 0
M  V30 7333 H 686.52 -2.25854 -3.0622 0
M  V30 7334 H 686.032 -3.48392 -1.71011 0
M  V30 7335 H 684.133 -1.63907 -3.34612 0
M  V30 7336 H 684.246 -3.52081 -3.24925 0
M  V30 7337 H 682.61 -1.80476 -1.79723 0
M  V30 7338 H 683.393 -3.28037 -1.01225 0
M  V30 7339 N 685.838 0.888903 -1.30139 0
M  V30 7340 C 687.085 1.64037 -1.18736 0
M  V30 7341 C 687.413 1.92771 0.258801 0
M  V30 7342 O 686.668 1.54427 1.20212 0
M  V30 7343 C 686.967 2.99041 -1.95728 0
M  V30 7344 C 686.633 2.89874 -3.45375 0
M  V30 7345 C 685.295 2.87082 -3.86183 0
M  V30 7346 C 687.647 2.78289 -4.40687 0
M  V30 7347 C 684.975 2.70536 -5.20603 0
M  V30 7348 C 687.327 2.63282 -5.75209 0
M  V30 7349 C 685.991 2.58861 -6.15262 0
M  V30 7350 H 685.261 0.600253 -0.434485 0
M  V30 7351 H 687.908 1.0338 -1.61198 0
M  V30 7352 H 686.213 3.63626 -1.45888 0
M  V30 7353 H 687.91 3.56139 -1.843 0
M  V30 7354 H 684.5 2.92856 -3.12943 0
M  V30 7355 H 688.684 2.79516 -4.10103 0
M  V30 7356 H 683.94 2.65526 -5.50732 0
M  V30 7357 H 688.114 2.5329 -6.48704 0
M  V30 7358 H 685.741 2.45799 -7.19366 0
M  V30 7359 N 687.317 1.12792 1.10072 0
M  V30 7360 C 688.733 0.864745 1.34143 0
M  V30 7361 C 688.933 -0.503201 1.95116 0
M  V30 7362 O 687.989 -1.25111 2.19325 0
M  V30 7363 C 689.302 1.98413 2.25949 0
M  V30 7364 C 690.85 2.01545 2.39476 0
M  V30 7365 C 691.325 3.12727 3.34613 0
M  V30 7366 N 692.816 3.12194 3.42183 0
M  V30 7367 C 693.551 3.94862 4.15779 0
M  V30 7368 N 693.047 4.87528 4.92228 0
M  V30 7369 N 694.84 3.82985 4.11435 0
M  V30 7370 H 686.991 2.00926 0.68866 0
M  V30 7371 H 689.254 0.874564 0.365844 0
M  V30 7372 H 688.96 2.97005 1.88364 0
M  V30 7373 H 688.834 1.89254 3.26287 0
M  V30 7374 H 691.221 1.0357 2.76328 0
M  V30 7375 H 691.302 2.14777 1.3894 0
M  V30 7376 H 690.946 4.10936 2.98486 0
M  V30 7377 H 690.876 2.96732 4.35037 0
M  V30 7378 H 693.367 2.45065 2.87666 0
M  V30 7379 H 693.68 5.47109 5.45794 0
M  V30 7380 H 692.025 4.91539 4.9134 0
M  V30 7381 H 695.216 3.09923 3.50807 0
M  V30 7382 H 695.389 4.47641 4.68531 0
M  V30 7383 N 688.795 -1.27931 0.920396 0
M  V30 7384 C 690.072 -1.89728 0.475687 0
M  V30 7385 C 690.452 -1.8337 -1.04588 0
M  V30 7386 O 689.8 -1.27404 -1.89685 0
M  V30 7387 C 690.01 -3.33959 1.01354 0
M  V30 7388 C 691.358 -4.10907 1.06963 0
M  V30 7389 O 692.382 -3.42945 0.962646 0
M  V30 7390 O 691.241 -5.32399 1.23343 0
M  V30 7391 H 688.335 -0.81294 0.151845 0
M  V30 7392 H 690.881 -1.36252 1.01161 0
M  V30 7393 H 689.653 -3.32843 2.05746 0
M  V30 7394 H 689.276 -3.94944 0.458829 0
M  V30 7395 N 690.273 -0.685099 -1.4193 0
M  V30 7396 C 691.183 -0.013404 -2.34596 0
M  V30 7397 C 692.199 0.777589 -1.55658 0
M  V30 7398 O 693.375 0.717553 -1.88184 0
M  V30 7399 C 690.44 0.919031 -3.34297 0
M  V30 7400 C 689.501 0.121417 -4.29128 0
M  V30 7401 C 688.734 1.00944 -5.24067 0
M  V30 7402 O 688.957 2.24898 -5.24192 0
M  V30 7403 O 687.891 0.464724 -6.00103 0
M  V30 7404 H 691.717 -0.776978 -2.93593 0
M  V30 7405 H 689.302 -0.445379 -1.42607 0
M  V30 7406 H 691.184 1.45402 -3.9552 0
M  V30 7407 H 689.859 1.66228 -2.77759 0
M  V30 7408 H 688.766 -0.45792 -3.71287 0
M  V30 7409 H 690.099 -0.582937 -4.88736 0
M  V30 7410 N 691.751 1.51645 -0.429126 0
M  V30 7411 C 692.661 2.31288 0.392809 0
M  V30 7412 C 693.677 1.39852 1.03525 0
M  V30 7413 O 694.853 1.72926 1.03241 0
M  V30 7414 C 691.918 3.13347 1.48372 0
M  V30 7415 C 690.979 4.20551 0.862268 0
M  V30 7416 C 690.212 4.98688 1.9012 0
M  V30 7417 O 690.435 4.77359 3.12225 0
M  V30 7418 O 689.369 5.83005 1.4963 0
M  V30 7419 H 693.195 3.02609 -0.257138 0
M  V30 7420 H 690.78 1.48163 -0.191851 0
M  V30 7421 H 692.662 3.64387 2.1166 0
M  V30 7422 H 691.337 2.44799 2.1179 0
M  V30 7423 H 690.244 3.73609 0.191568 0
M  V30 7424 H 691.577 4.91449 0.271704 0
M  V30 7425 N 693.229 0.160201 1.56784 0
M  V30 7426 C 694.177 -0.791402 2.18723 0
M  V30 7427 C 695.171 -1.24567 1.14801 0
M  V30 7428 O 696.377 -1.21262 1.33025 0
M  V30 7429 H 692.752 -0.273458 0.700517 0
M  V30 7430 H 694.723 -0.244931 2.97393 0
M  V30 7431 C 693.472 -2.01509 2.83354 0
M  V30 7432 H 692.795 -1.67454 3.63041 0
M  V30 7433 H 694.235 -2.66006 3.30177 0
M  V30 7434 C 692.694 -2.83159 1.82545 0
M  V30 7435 O 693.224 -3.79944 1.30405 0
M  V30 7436 N 691.43 -2.47953 1.51552 0
M  V30 7437 H 690.977 -1.69309 1.94144 0
M  V30 7438 H 690.935 -3.02873 0.843519 0
M  V30 7439 N 694.707 -1.5719 -0.113559 0
M  V30 7440 C 695.953 -1.85412 -0.821597 0
M  V30 7441 C 696.286 -0.746722 -1.7927 0
M  V30 7442 O 695.561 0.246971 -1.92926 0
M  V30 7443 C 695.844 -3.24233 -1.56669 0
M  V30 7444 C 695.697 -4.45578 -0.614823 0
M  V30 7445 C 697.016 -3.60697 -2.52161 0
M  V30 7446 H 694.135 -0.674406 -0.29723 0
M  V30 7447 H 696.777 -1.89807 -0.085694 0
M  V30 7448 H 694.927 -3.20617 -2.19401 0
M  V30 7449 H 696.599 -4.613 0.00407137 0
M  V30 7450 H 694.842 -4.33738 0.0732332 0
M  V30 7451 H 695.513 -5.39395 -1.17292 0
M  V30 7452 H 697.989 -3.65139 -1.99532 0
M  V30 7453 H 696.865 -4.58798 -3.01323 0
M  V30 7454 H 697.126 -2.88403 -3.35076 0
M  V30 7455 N 696.185 0.383891 -1.52853 0
M  V30 7456 C 697.433 1.12619 -1.67814 0
M  V30 7457 C 697.754 1.90354 -0.423141 0
M  V30 7458 O 697.024 1.87649 0.562554 0
M  V30 7459 H 695.604 0.418738 -0.618601 0
M  V30 7460 H 698.266 0.43495 -1.89985 0
M  V30 7461 H 697.362 1.82624 -2.5309 0
M  V30 7462 N 697.663 1.43903 0.642637 0
M  V30 7463 C 698.626 1.49538 1.73698 0
M  V30 7464 C 699.626 0.378776 1.56275 0
M  V30 7465 O 700.816 0.64095 1.6198 0
M  V30 7466 C 697.948 1.35821 3.12675 0
M  V30 7467 H 699.141 2.47008 1.70079 0
M  V30 7468 H 696.694 1.30824 0.85526 0
M  V30 7469 H 697.429 0.393994 3.21898 0
M  V30 7470 H 697.214 2.16776 3.26727 0
M  V30 7471 H 698.704 1.4272 3.92455 0
M  V30 7472 N 699.141 -0.881989 1.30609 0
M  V30 7473 C 700.074 -1.99066 1.11571 0
M  V30 7474 C 701.052 -1.62584 0.022516 0
M  V30 7475 O 702.236 -1.87671 0.176644 0
M  V30 7476 C 699.363 -3.3134 0.702237 0
M  V30 7477 C 698.409 -3.86807 1.79673 0
M  V30 7478 S 699.242 -4.13735 3.39976 0
M  V30 7479 C 700.398 -5.49024 3.00538 0
M  V30 7480 H 700.631 -2.1491 2.05429 0
M  V30 7481 H 698.164 -1.03074 1.14957 0
M  V30 7482 H 700.122 -4.07796 0.470415 0
M  V30 7483 H 698.783 -3.13349 -0.217034 0
M  V30 7484 H 697.976 -4.82397 1.45977 0
M  V30 7485 H 697.578 -3.17102 1.98298 0
M  V30 7486 H 699.87 -6.30208 2.48684 0
M  V30 7487 H 700.813 -5.8766 3.95046 0
M  V30 7488 H 701.221 -5.11726 2.3832 0
M  V30 7489 N 700.619 -1.13374 -1.09472 0
M  V30 7490 C 701.567 -0.806105 -2.18185 0
M  V30 7491 C 702.561 0.21136 -1.68076 0
M  V30 7492 O 703.767 0.0685558 -1.79869 0
M  V30 7493 H 700.142 -0.242901 -0.71169 0
M  V30 7494 H 702.113 -1.73115 -2.43051 0
M  V30 7495 C 700.862 -0.287928 -3.46506 0
M  V30 7496 H 700.185 -1.06217 -3.85432 0
M  V30 7497 H 701.625 -0.0971054 -4.23889 0
M  V30 7498 C 700.084 0.986256 -3.22141 0
M  V30 7499 O 700.614 2.06217 -3.44728 0
M  V30 7500 N 698.82 0.917153 -2.75747 0
M  V30 7501 H 698.367 0.0414609 -2.57567 0
M  V30 7502 H 698.325 1.77029 -2.59823 0
M  V30 7503 N 702.098 1.27442 -0.927168 0
M  V30 7504 C 703.03 2.25975 -0.383158 0
M  V30 7505 C 704.043 1.55382 0.485832 0
M  V30 7506 O 705.232 1.75986 0.298541 0
M  V30 7507 C 702.332 3.35629 0.469688 0
M  V30 7508 C 701.505 4.35747 -0.379886 0
M  V30 7509 C 700.564 5.24598 0.410227 0
M  V30 7510 O 699.59 5.68909 -0.181888 0
M  V30 7511 N 700.792 5.54737 1.71017 0
M  V30 7512 H 703.557 2.7329 -1.23015 0
M  V30 7513 H 701.118 1.41063 -0.794539 0
M  V30 7514 H 703.11 3.92015 1.00532 0
M  V30 7515 H 701.68 2.87919 1.21744 0
M  V30 7516 H 700.9 3.78634 -1.09682 0
M  V30 7517 H 702.188 4.99648 -0.960717 0
M  V30 7518 H 701.586 5.20594 2.21356 0
M  V30 7519 H 700.143 6.13824 2.19234 0
M  V30 7520 N 703.576 0.692616 1.41565 0
M  V30 7521 C 704.806 0.230943 2.05305 0
M  V30 7522 C 705.214 -1.12379 1.52209 0
M  V30 7523 O 704.557 -1.71281 0.663968 0
M  V30 7524 C 704.619 0.107894 3.59338 0
M  V30 7525 C 704.283 1.39419 4.35214 0
M  V30 7526 C 705.28 2.33143 4.64694 0
M  V30 7527 C 702.965 1.64674 4.74539 0
M  V30 7528 C 704.959 3.50385 5.32456 0
M  V30 7529 C 702.646 2.82202 5.42038 0
M  V30 7530 C 703.644 3.74881 5.70923 0
M  V30 7531 O 703.332 4.90351 6.37033 0
M  V30 7532 H 703.064 0.105708 0.667684 0
M  V30 7533 H 705.618 0.94488 1.82376 0
M  V30 7534 H 703.848 -0.661785 3.80995 0
M  V30 7535 H 705.537 -0.316213 4.04666 0
M  V30 7536 H 706.303 2.14887 4.34797 0
M  V30 7537 H 702.182 0.934007 4.51439 0
M  V30 7538 H 705.726 4.22743 5.54918 0
M  V30 7539 H 701.623 3.00376 5.71353 0
M  V30 7540 H 702.391 4.90128 6.55528 0
M  V30 7541 N 705.054 -1.51416 0.437162 0
M  V30 7542 C 706.47 -1.59349 0.0894459 0
M  V30 7543 C 706.67 -1.44809 -1.40116 0
M  V30 7544 O 705.726 -1.28924 -2.17106 0
M  V30 7545 C 707.039 -2.9446 0.609398 0
M  V30 7546 C 708.587 -3.07769 0.569824 0
M  V30 7547 C 709.062 -4.45404 1.06675 0
M  V30 7548 N 710.553 -4.51723 1.02473 0
M  V30 7549 C 711.288 -5.56544 1.3801 0
M  V30 7550 N 710.784 -6.68784 1.80831 0
M  V30 7551 N 712.577 -5.46901 1.29828 0
M  V30 7552 H 704.728 -1.59112 1.40703 0
M  V30 7553 H 706.991 -0.750031 0.579791 0
M  V30 7554 H 706.697 -3.1047 1.65231 0
M  V30 7555 H 706.571 -3.77184 0.0342236 0
M  V30 7556 H 708.958 -2.91428 -0.464107 0
M  V30 7557 H 709.039 -2.26885 1.1814 0
M  V30 7558 H 708.683 -4.62492 2.09914 0
M  V30 7559 H 708.613 -5.24827 0.431712 0
M  V30 7560 H 711.104 -3.71165 0.710258 0
M  V30 7561 H 711.417 -7.44787 2.06185 0
M  V30 7562 H 709.762 -6.69992 1.84757 0
M  V30 7563 H 712.953 -4.581 0.962397 0
M  V30 7564 H 713.126 -6.2848 1.57851 0
M  V30 7565 N 706.532 -0.168513 -1.56696 0
M  V30 7566 C 707.76 0.483503 -2.01171 0
M  V30 7567 C 708.175 1.56994 -1.04872 0
M  V30 7568 O 707.532 1.82434 -0.0491337 0
M  V30 7569 C 707.583 1.0644 -3.45475 0
M  V30 7570 O 707.304 0.0213375 -4.38095 0
M  V30 7571 C 708.805 1.79493 -4.05336 0
M  V30 7572 H 706.025 0.124002 -0.659443 0
M  V30 7573 H 708.569 -0.269419 -2.02717 0
M  V30 7574 H 706.724 1.76784 -3.44712 0
M  V30 7575 H 707.138 0.449837 -5.22567 0
M  V30 7576 H 708.612 2.15401 -5.08238 0
M  V30 7577 H 709.089 2.68889 -3.47269 0
M  V30 7578 H 709.695 1.13798 -4.09793 0
M  V30 7579 N 708.01 1.57248 0.105221 0
M  V30 7580 C 709.426 1.52853 0.459153 0
M  V30 7581 C 709.626 0.883674 1.8109 0
M  V30 7582 O 708.682 0.471864 2.48052 0
M  V30 7583 C 709.995 2.97596 0.43096 0
M  V30 7584 C 711.543 3.08758 0.513536 0
M  V30 7585 C 712.018 4.55089 0.515593 0
M  V30 7586 N 713.509 4.59597 0.576639 0
M  V30 7587 C 714.244 5.70253 0.599904 0
M  V30 7588 N 713.74 6.90368 0.579985 0
M  V30 7589 N 715.533 5.58399 0.643953 0
M  V30 7590 H 707.684 1.97547 -0.780306 0
M  V30 7591 H 709.947 0.902758 -0.289363 0
M  V30 7592 H 709.653 3.48201 -0.494903 0
M  V30 7593 H 709.527 3.55756 1.2537 0
M  V30 7594 H 711.914 2.58148 1.42982 0
M  V30 7595 H 711.995 2.53568 -0.337148 0
M  V30 7596 H 711.639 5.06348 -0.396701 0
M  V30 7597 H 711.569 5.08105 1.38335 0
M  V30 7598 H 714.06 3.73144 0.597639 0
M  V30 7599 H 714.373 7.70462 0.600741 0
M  V30 7600 H 712.718 6.92843 0.547191 0
M  V30 7601 H 715.909 4.63467 0.656975 0
M  V30 7602 H 716.082 6.44644 0.658616 0
M  V30 7603 N 709.488 -0.375779 1.53054 0
M  V30 7604 C 710.716 -1.14036 1.72637 0
M  V30 7605 C 711.131 -1.83342 0.450687 0
M  V30 7606 O 710.488 -1.7318 -0.575749 0
M  V30 7607 C 710.539 -2.17841 2.88492 0
M  V30 7608 O 710.26 -1.51358 4.11123 0
M  V30 7609 C 711.761 -3.06924 3.19863 0
M  V30 7610 H 708.981 -0.341386 0.577665 0
M  V30 7611 H 711.525 -0.437809 1.99759 0
M  V30 7612 H 709.68 -2.8371 2.63794 0
M  V30 7613 H 710.094 -2.20439 4.75928 0
M  V30 7614 H 711.568 -3.75763 4.04359 0
M  V30 7615 H 712.045 -3.71169 2.34798 0
M  V30 7616 H 712.651 -2.46684 3.46449 0
M  V30 7617 N 710.966 -1.44241 -0.634997 0
M  V30 7618 C 711.896 -1.53632 -1.7584 0
M  V30 7619 C 712.877 -0.389603 -1.65578 0
M  V30 7620 O 714.062 -0.609219 -1.84397 0
M  V30 7621 C 711.192 -1.47644 -3.14354 0
M  V30 7622 C 710.146 -2.60752 -3.394 0
M  V30 7623 C 709.472 -2.39817 -4.77904 0
M  V30 7624 C 710.772 -4.02921 -3.32343 0
M  V30 7625 H 712.466 -2.47662 -1.68238 0
M  V30 7626 H 710.012 -1.19197 -0.807969 0
M  V30 7627 H 711.965 -1.52815 -3.92716 0
M  V30 7628 H 710.689 -0.501284 -3.2273 0
M  V30 7629 H 709.348 -2.54965 -2.63417 0
M  V30 7630 H 708.996 -1.40502 -4.82978 0
M  V30 7631 H 708.696 -3.15649 -4.9562 0
M  V30 7632 H 710.22 -2.46799 -5.585 0
M  V30 7633 H 711.634 -4.10098 -4.00615 0
M  V30 7634 H 710.031 -4.78925 -3.61595 0
M  V30 7635 H 711.101 -4.26766 -2.30215 0
M  V30 7636 N 712.444 0.87505 -1.31075 0
M  V30 7637 C 713.669 1.66583 -1.23551 0
M  V30 7638 C 714.094 1.87067 0.19686 0
M  V30 7639 O 713.452 1.40877 1.1412 0
M  V30 7640 C 713.5 3.01401 -1.97965 0
M  V30 7641 O 712.604 3.90923 -1.31351 0
M  V30 7642 H 711.945 0.508645 -0.426821 0
M  V30 7643 H 714.475 1.09139 -1.7306 0
M  V30 7644 H 714.485 3.51374 -2.07366 0
M  V30 7645 H 713.16 2.85812 -3.02133 0
M  V30 7646 H 711.737 3.49369 -1.30368 0
M  V30 7647 N 713.922 1.13953 1.08869 0
M  V30 7648 C 715.171 0.899431 1.80536 0
M  V30 7649 C 715.484 -0.575781 1.86933 0
M  V30 7650 O 716.69 -0.932988 2.54966 0
M  V30 7651 C 715.146 1.55963 3.24351 0
M  V30 7652 C 714.754 3.07077 3.26202 0
M  V30 7653 C 716.498 1.40046 4.00733 0
M  V30 7654 C 714.405 3.65955 4.64576 0
M  V30 7655 H 713.335 0.332849 0.676556 0
M  V30 7656 H 715.986 1.3679 1.22314 0
M  V30 7657 H 714.368 1.01883 3.82669 0
M  V30 7658 H 715.542 3.67785 2.77617 0
M  V30 7659 H 713.857 3.22576 2.63312 0
M  V30 7660 H 716.454 1.81441 5.02974 0
M  V30 7661 H 716.797 0.345993 4.1486 0
M  V30 7662 H 717.33 1.91137 3.48872 0
M  V30 7663 H 714.069 4.71234 4.55652 0
M  V30 7664 H 713.589 3.10027 5.13462 0
M  V30 7665 H 715.268 3.65968 5.33551 0
M  V30 7666 N 715.4 -1.26948 0.933913 0
M  V30 7667 C 716.628 -1.98186 0.59414 0
M  V30 7668 C 717.043 -1.69614 -0.829257 0
M  V30 7669 O 716.4 -0.960213 -1.55197 0
M  V30 7670 C 716.451 -3.52123 0.818026 0
M  V30 7671 O 716.172 -3.79698 2.18543 0
M  V30 7672 C 717.673 -4.40608 0.48781 0
M  V30 7673 H 714.893 -0.632305 0.224569 0
M  V30 7674 H 717.437 -1.61646 1.25263 0
M  V30 7675 H 715.592 -3.86851 0.206246 0
M  V30 7676 H 716.006 -4.7426 2.24005 0
M  V30 7677 H 717.48 -5.47606 0.695126 0
M  V30 7678 H 717.957 -4.35394 -0.576913 0
M  V30 7679 H 718.563 -4.11411 1.078 0
M  V30 7680 N 716.879 -0.700114 -1.41195 0
M  V30 7681 C 718.104 -0.240704 -2.05998 0
M  V30 7682 C 718.529 1.10313 -1.52357 0
M  V30 7683 O 717.887 1.69154 -0.652424 0
M  V30 7684 C 717.935 -0.213783 -3.59966 0
M  V30 7685 O 717.039 0.809933 -4.04368 0
M  V30 7686 H 716.38 -0.116471 -0.653705 0
M  V30 7687 H 718.91 -0.956251 -1.80878 0
M  V30 7688 H 718.92 -0.0461852 -4.07974 0
M  V30 7689 H 717.595 -1.19454 -3.98376 0
M  V30 7690 H 716.172 0.611319 -3.67855 0
M  V30 7691 N 718.357 1.51182 -0.445186 0
M  V30 7692 C 719.582 2.07056 0.119445 0
M  V30 7693 C 720.007 1.30966 1.35016 0
M  V30 7694 O 719.365 0.349827 1.77893 0
M  V30 7695 C 719.413 3.58234 0.412428 0
M  V30 7696 O 718.517 3.84249 1.49754 0
M  V30 7697 H 717.858 0.663998 -0.00157797 0
M  V30 7698 H 720.388 1.94699 -0.628779 0
M  V30 7699 H 720.398 4.02617 0.660583 0
M  V30 7700 H 719.073 4.13038 -0.487049 0
M  V30 7701 H 717.65 3.51724 1.23873 0
M  V30 7702 N 719.835 0.176821 1.56605 0
M  V30 7703 C 721.083 -0.465793 1.96659 0
M  V30 7704 C 721.404 -1.63406 1.06412 0
M  V30 7705 O 720.674 -1.95457 0.131603 0
M  V30 7706 H 719.254 -0.175072 0.726195 0
M  V30 7707 H 721.916 0.25929 1.93168 0
M  V30 7708 H 721.012 -0.822138 3.01077 0
M  V30 7709 N 721.313 -1.57302 -0.09688 0
M  V30 7710 C 722.538 -1.9058 -0.818169 0
M  V30 7711 C 722.963 -0.770921 -1.71576 0
M  V30 7712 O 722.321 0.277588 -1.79162 0
M  V30 7713 C 722.369 -3.22714 -1.60898 0
M  V30 7714 O 721.473 -3.10178 -2.71779 0
M  V30 7715 H 720.814 -0.624759 -0.224882 0
M  V30 7716 H 723.344 -2.04471 -0.07264 0
M  V30 7717 H 723.354 -3.55978 -1.99358 0
M  V30 7718 H 722.029 -4.04899 -0.950227 0
M  V30 7719 H 720.606 -2.88424 -2.3636 0
M  V30 7720 N 722.791 0.367657 -1.53252 0
M  V30 7721 C 723.754 1.43308 -1.78873 0
M  V30 7722 C 724.754 1.46671 -0.659115 0
M  V30 7723 O 725.944 1.47468 -0.927306 0
M  V30 7724 C 723.076 2.82442 -1.90892 0
M  V30 7725 H 724.269 1.21864 -2.74024 0
M  V30 7726 H 721.822 0.600668 -1.44297 0
M  V30 7727 H 722.557 3.09202 -0.978 0
M  V30 7728 H 722.342 2.81399 -2.73051 0
M  V30 7729 H 723.832 3.59601 -2.12314 0
M  V30 7730 N 724.269 1.44576 0.627338 0
M  V30 7731 C 725.515 1.47777 1.38888 0
M  V30 7732 C 725.848 0.111406 1.9388 0
M  V30 7733 O 725.123 -0.87149 1.73883 0
M  V30 7734 C 725.406 2.54119 2.55138 0
M  V30 7735 C 725.259 4.00128 2.0547 0
M  V30 7736 C 726.578 2.56929 3.57317 0
M  V30 7737 H 723.697 0.538048 0.50366 0
M  V30 7738 H 726.339 1.76277 0.708978 0
M  V30 7739 H 724.489 2.29948 3.13139 0
M  V30 7740 H 726.161 4.35444 1.5227 0
M  V30 7741 H 724.404 4.11724 1.36623 0
M  V30 7742 H 725.075 4.7019 2.89181 0
M  V30 7743 H 727.551 2.78536 3.09122 0
M  V30 7744 H 726.427 3.33234 4.36173 0
M  V30 7745 H 726.688 1.6127 4.11636 0
M  V30 7746 N 725.747 -0.868086 1.31537 0
M  V30 7747 C 726.972 -1.65926 1.24432 0
M  V30 7748 C 727.397 -1.87169 -0.186936 0
M  V30 7749 O 726.755 -1.4148 -1.13371 0
M  V30 7750 C 726.803 -3.00347 1.9956 0
M  V30 7751 O 725.907 -3.90221 1.33422 0
M  V30 7752 H 725.248 -0.506375 0.429512 0
M  V30 7753 H 727.778 -1.0822 1.73637 0
M  V30 7754 H 727.788 -3.50269 2.09226 0
M  V30 7755 H 726.463 -2.84205 3.03645 0
M  V30 7756 H 725.04 -3.48672 1.32219 0
M  V30 7757 N 727.225 -1.14528 -1.08264 0
M  V30 7758 C 728.465 -0.924808 -1.82282 0
M  V30 7759 C 728.829 0.538881 -1.84283 0
M  V30 7760 O 730.03 0.877355 -2.54079 0
M  V30 7761 C 728.301 -1.51102 -3.23887 0
M  V30 7762 S 729.86 -1.43232 -4.14765 0
M  V30 7763 H 726.678 -0.333052 -0.62817 0
M  V30 7764 H 729.28 -1.45905 -1.30123 0
M  V30 7765 H 727.984 -2.56942 -3.20014 0
M  V30 7766 H 727.515 -0.975234 -3.8112 0
M  V30 7767 H 729.53 -0.418843 -4.94429 0
M  V30 7768 N 728.703 1.26451 -0.940633 0
M  V30 7769 C 729.928 1.98407 -0.60412 0
M  V30 7770 C 730.353 1.69584 0.81382 0
M  V30 7771 O 729.711 0.943553 1.54812 0
M  V30 7772 C 729.759 3.50387 -0.852136 0
M  V30 7773 O 728.863 4.1233 0.076013 0
M  V30 7774 H 728.204 0.622466 -0.231153 0
M  V30 7775 H 730.734 1.60932 -1.26342 0
M  V30 7776 H 730.744 4.00614 -0.772816 0
M  V30 7777 H 729.419 3.70696 -1.88566 0
M  V30 7778 H 727.996 3.7286 -0.0543187 0
M  V30 7779 N 730.181 0.707592 1.40822 0
M  V30 7780 C 731.409 0.253073 2.05346 0
M  V30 7781 C 731.824 -1.10218 1.53289 0
M  V30 7782 O 731.181 -1.69112 0.686105 0
M  V30 7783 C 731.232 0.215411 3.60858 0
M  V30 7784 O 730.953 1.51714 4.10992 0
M  V30 7785 C 732.454 -0.258636 4.42545 0
M  V30 7786 H 729.674 0.115256 0.661027 0
M  V30 7787 H 732.218 0.963555 1.80377 0
M  V30 7788 H 730.373 -0.445978 3.84824 0
M  V30 7789 H 730.787 1.41226 5.05129 0
M  V30 7790 H 732.261 -0.233849 5.51504 0
M  V30 7791 H 732.738 -1.2995 4.19535 0
M  V30 7792 H 733.344 0.372186 4.23668 0
M  V30 7793 N 731.66 -1.50943 0.453197 0
M  V30 7794 C 732.909 -2.01402 -0.10951 0
M  V30 7795 C 733.222 -1.3411 -1.42386 0
M  V30 7796 O 734.428 -1.75626 -2.07045 0
M  V30 7797 C 732.884 -3.5906 -0.245693 0
M  V30 7798 C 732.492 -4.353 1.05916 0
M  V30 7799 C 734.236 -4.17617 -0.761318 0
M  V30 7800 C 732.143 -5.84699 0.887752 0
M  V30 7801 H 731.073 -0.752674 -0.0447013 0
M  V30 7802 H 733.724 -1.73913 0.585375 0
M  V30 7803 H 732.106 -3.83062 -1.00395 0
M  V30 7804 H 733.28 -4.23034 1.82698 0
M  V30 7805 H 731.595 -3.88269 1.50452 0
M  V30 7806 H 734.192 -5.26963 -0.906306 0
M  V30 7807 H 734.535 -3.77824 -1.74799 0
M  V30 7808 H 735.068 -3.97753 -0.0609416 0
M  V30 7809 H 731.807 -6.28933 1.84726 0
M  V30 7810 H 731.327 -5.99587 0.160006 0
M  V30 7811 H 733.006 -6.44682 0.547223 0
M  V30 7812 N 733.138 -0.185124 -1.56509 0
M  V30 7813 C 734.549 0.329221 -1.83774 0
M  V30 7814 C 734.9 1.62093 -1.10545 0
M  V30 7815 O 734.025 2.13334 -0.36298 0
M  V30 7816 C 734.62 0.604099 -3.33371 0
M  V30 7817 C 733.179 1.06284 -3.61083 0
M  V30 7818 C 732.326 0.10608 -2.77097 0
M  V30 7819 H 735.277 -0.409116 -1.53336 0
M  V30 7820 H 735.298 1.45458 -3.51599 0
M  V30 7821 H 734.81 -0.336201 -3.86641 0
M  V30 7822 H 732.911 2.01777 -3.13236 0
M  V30 7823 H 733.024 0.962453 -4.69333 0
M  V30 7824 H 731.388 0.606082 -2.47384 0
M  V30 7825 H 732.171 -0.828486 -3.33153 0
M  V30 7826 N 734.616 1.57351 0.0885366 0
M  V30 7827 C 736.027 1.75303 0.642308 0
M  V30 7828 C 736.378 0.808238 1.78779 0
M  V30 7829 O 735.503 -0.01171 2.16397 0
M  V30 7830 C 736.098 3.17885 1.17194 0
M  V30 7831 C 734.657 3.37239 1.67172 0
M  V30 7832 C 733.804 2.7108 0.584045 0
M  V30 7833 H 736.755 1.58103 -0.137567 0
M  V30 7834 H 736.776 3.2112 2.04114 0
M  V30 7835 H 736.288 3.86625 0.338024 0
M  V30 7836 H 734.389 2.73588 2.52943 0
M  V30 7837 H 734.502 4.45594 1.76019 0
M  V30 7838 H 732.866 2.33161 1.02508 0
M  V30 7839 H 733.649 3.42464 -0.239403 0
M  V30 7840 N 736.094 -0.359525 1.53444 0
M  V30 7841 C 737.004 -1.46445 1.83278 0
M  V30 7842 C 738.02 -1.5833 0.721629 0
M  V30 7843 O 739.196 -1.7411 1.01231 0
M  V30 7844 C 736.261 -2.81638 2.02191 0
M  V30 7845 C 735.322 -2.7923 3.26082 0
M  V30 7846 C 734.555 -4.07974 3.44082 0
M  V30 7847 O 734.778 -5.04447 2.66251 0
M  V30 7848 O 733.712 -4.13417 4.37458 0
M  V30 7849 H 737.538 -1.24156 2.77162 0
M  V30 7850 H 735.123 -0.550201 1.389 0
M  V30 7851 H 737.005 -3.61732 2.16167 0
M  V30 7852 H 735.68 -3.03892 1.11496 0
M  V30 7853 H 734.587 -1.97813 3.17523 0
M  V30 7854 H 735.92 -2.6193 4.16718 0
M  V30 7855 N 737.572 -1.44907 -0.619662 0
M  V30 7856 C 738.502 -1.55488 -1.742 0
M  V30 7857 C 739.483 -0.407143 -1.65156 0
M  V30 7858 O 740.668 -0.628743 -1.8374 0
M  V30 7859 C 737.798 -1.5097 -3.1277 0
M  V30 7860 C 736.752 -2.64337 -3.36615 0
M  V30 7861 C 736.078 -2.44872 -4.75333 0
M  V30 7862 C 737.378 -4.06423 -3.28051 0
M  V30 7863 H 739.072 -2.49432 -1.65602 0
M  V30 7864 H 736.618 -1.20047 -0.795281 0
M  V30 7865 H 738.571 -1.56971 -3.91073 0
M  V30 7866 H 737.295 -0.535486 -3.2218 0
M  V30 7867 H 735.954 -2.57744 -2.60698 0
M  V30 7868 H 735.602 -1.45617 -4.81461 0
M  V30 7869 H 735.302 -3.20888 -4.92244 0
M  V30 7870 H 736.826 -2.52709 -5.55851 0
M  V30 7871 H 738.24 -4.14324 -3.96243 0
M  V30 7872 H 736.637 -4.82733 -3.56495 0
M  V30 7873 H 737.707 -4.29183 -2.25676 0
M  V30 7874 N 739.05 0.861098 -1.31996 0
M  V30 7875 C 740.296 1.61721 -1.22369 0
M  V30 7876 C 740.629 1.93 0.215587 0
M  V30 7877 O 739.904 1.56789 1.15098 0
M  V30 7878 C 740.187 2.9417 -2.07691 0
M  V30 7879 C 740.04 2.69714 -3.59965 0
M  V30 7880 C 741.359 3.95372 -1.93312 0
M  V30 7881 H 738.478 0.586822 -0.44588 0
M  V30 7882 H 741.12 0.994788 -1.61876 0
M  V30 7883 H 739.27 3.47292 -1.74128 0
M  V30 7884 H 740.942 2.23196 -4.03709 0
M  V30 7885 H 739.185 2.03789 -3.82952 0
M  V30 7886 H 739.856 3.63996 -4.14983 0
M  V30 7887 H 742.332 3.51487 -2.22701 0
M  V30 7888 H 741.208 4.85916 -2.55298 0
M  V30 7889 H 741.469 4.32865 -0.898922 0
M  V30 7890 N 740.528 1.15101 1.07655 0
M  V30 7891 C 741.475 0.844958 2.14777 0
M  V30 7892 C 742.445 -0.200798 1.64882 0
M  V30 7893 O 743.63 -0.0690278 1.90675 0
M  V30 7894 C 740.77 0.337018 3.4345 0
M  V30 7895 C 739.883 1.44398 4.07153 0
M  V30 7896 C 739.018 0.892487 5.23649 0
M  V30 7897 C 738.057 1.9766 5.79307 0
M  V30 7898 N 737.194 1.44171 6.87138 0
M  V30 7899 H 742.034 1.76242 2.40297 0
M  V30 7900 H 739.571 0.879435 1.17917 0
M  V30 7901 H 741.529 0.024256 4.17193 0
M  V30 7902 H 740.159 -0.543531 3.18191 0
M  V30 7903 H 739.211 1.87299 3.31094 0
M  V30 7904 H 740.523 2.26262 4.4453 0
M  V30 7905 H 739.677 0.532083 6.04362 0
M  V30 7906 H 738.416 0.0429854 4.87681 0
M  V30 7907 H 737.421 2.34586 4.97242 0
M  V30 7908 H 738.646 2.82982 6.17331 0
M  V30 7909 H 736.592 0.614518 6.53115 0
M  V30 7910 H 736.509 2.19665 7.23383 0
M  V30 7911 H 737.777 1.10945 7.71564 0
M  V30 7912 N 742.006 -1.2595 0.947325 0
M  V30 7913 C 742.938 -2.25336 0.41906 0
M  V30 7914 C 743.951 -1.56135 -0.461051 0
M  V30 7915 O 745.14 -1.76438 -0.270505 0
M  V30 7916 C 742.24 -3.36334 -0.416233 0
M  V30 7917 C 741.413 -4.35088 0.449162 0
M  V30 7918 C 740.472 -5.25185 -0.326716 0
M  V30 7919 O 739.498 -5.68548 0.272374 0
M  V30 7920 N 740.7 -5.57388 -1.6217 0
M  V30 7921 H 743.465 -2.71298 1.27348 0
M  V30 7922 H 741.026 -1.39781 0.81688 0
M  V30 7923 H 743.018 -3.93564 -0.942826 0
M  V30 7924 H 741.588 -2.89819 -1.17148 0
M  V30 7925 H 740.808 -3.76841 1.15692 0
M  V30 7926 H 742.096 -4.98056 1.04008 0
M  V30 7927 H 741.494 -5.2405 -2.13046 0
M  V30 7928 H 740.051 -6.17234 -2.0944 0
M  V30 7929 N 743.484 -0.715051 -1.40445 0
M  V30 7930 C 744.431 -0.0621393 -2.30716 0
M  V30 7931 C 745.401 0.750871 -1.48159 0
M  V30 7932 O 746.586 0.714928 -1.76899 0
M  V30 7933 C 743.726 0.854036 -3.34365 0
M  V30 7934 C 742.839 0.0305565 -4.31989 0
M  V30 7935 C 741.974 0.946162 -5.22706 0
M  V30 7936 C 741.013 0.116741 -6.11989 0
M  V30 7937 N 740.15 0.987194 -6.95125 0
M  V30 7938 H 744.99 -0.83764 -2.85985 0
M  V30 7939 H 742.527 -0.424759 -1.40834 0
M  V30 7940 H 744.485 1.39946 -3.93028 0
M  V30 7941 H 743.115 1.59572 -2.806 0
M  V30 7942 H 742.167 -0.632044 -3.75112 0
M  V30 7943 H 743.479 -0.611615 -4.95036 0
M  V30 7944 H 742.633 1.56014 -5.86297 0
M  V30 7945 H 741.372 1.62216 -4.59932 0
M  V30 7946 H 740.377 -0.510176 -5.47428 0
M  V30 7947 H 741.602 -0.555742 -6.76822 0
M  V30 7948 H 739.548 1.64885 -6.3494 0
M  V30 7949 H 739.465 0.401046 -7.54936 0
M  V30 7950 H 740.733 1.58737 -7.63166 0
M  V30 7951 N 744.962 1.50701 -0.461195 0
M  V30 7952 C 746.208 2.02566 0.0973411 0
M  V30 7953 C 746.541 1.3432 1.40257 0
M  V30 7954 O 745.816 0.465692 1.88843 0
M  V30 7955 C 746.099 3.58919 0.291423 0
M  V30 7956 C 745.952 4.37751 -1.03413 0
M  V30 7957 C 747.271 4.27379 1.05048 0
M  V30 7958 H 744.39 0.73622 0.0339026 0
M  V30 7959 H 747.032 1.80115 -0.604855 0
M  V30 7960 H 745.182 3.78179 0.889539 0
M  V30 7961 H 746.854 4.30085 -1.66806 0
M  V30 7962 H 745.097 4.01885 -1.63313 0
M  V30 7963 H 745.768 5.45384 -0.852085 0
M  V30 7964 H 748.244 4.12534 0.543603 0
M  V30 7965 H 747.12 5.36609 1.15506 0
M  V30 7966 H 747.381 3.89868 2.0846 0
M  V30 7967 N 746.441 0.193421 1.56409 0
M  V30 7968 C 747.388 -0.728124 2.19014 0
M  V30 7969 C 748.358 -1.21098 1.13686 0
M  V30 7970 O 749.543 -1.27517 1.4193 0
M  V30 7971 C 746.683 -1.94277 2.8522 0
M  V30 7972 C 745.796 -1.50143 4.05069 0
M  V30 7973 C 744.931 -2.67145 4.59137 0
M  V30 7974 C 743.97 -2.19609 5.71348 0
M  V30 7975 N 743.107 -3.29782 6.19829 0
M  V30 7976 H 747.947 -0.187499 2.9741 0
M  V30 7977 H 745.484 -0.0808064 1.46878 0
M  V30 7978 H 747.442 -2.65551 3.21774 0
M  V30 7979 H 746.072 -2.45673 2.09391 0
M  V30 7980 H 745.124 -0.684624 3.74189 0
M  V30 7981 H 746.436 -1.11266 4.86232 0
M  V30 7982 H 745.59 -3.46544 4.97988 0
M  V30 7983 H 744.329 -3.09295 3.77078 0
M  V30 7984 H 743.334 -1.38664 5.32027 0
M  V30 7985 H 744.559 -1.78492 6.55223 0
M  V30 7986 H 742.505 -3.71466 5.40693 0
M  V30 7987 H 742.422 -2.95069 6.96039 0
M  V30 7988 H 743.69 -4.094 6.63334 0
M  V30 7989 N 747.919 -1.57396 -0.0801906 0
M  V30 7990 C 749.335 -1.53564 -0.434778 0
M  V30 7991 C 749.535 -0.912372 -1.79661 0
M  V30 7992 O 748.591 -0.511268 -2.4727 0
M  V30 7993 C 749.904 -2.98244 -0.383561 0
M  V30 7994 C 751.452 -3.09536 -0.46435 0
M  V30 7995 C 751.927 -4.55851 -0.443128 0
M  V30 7996 N 753.418 -4.60456 -0.503448 0
M  V30 7997 C 754.153 -5.71135 -0.509106 0
M  V30 7998 N 753.649 -6.91203 -0.47008 0
M  V30 7999 N 755.442 -5.59353 -0.555035 0
M  V30 8000 H 747.593 -1.96281 0.811635 0
M  V30 8001 H 749.856 -0.898041 0.303689 0
M  V30 8002 H 749.562 -3.47369 0.550236 0
M  V30 8003 H 749.436 -3.57705 -1.19694 0
M  V30 8004 H 751.823 -2.6039 -1.38857 0
M  V30 8005 H 751.904 -2.53 0.377445 0
M  V30 8006 H 751.548 -5.05653 0.477207 0
M  V30 8007 H 751.478 -5.10242 -1.30234 0
M  V30 8008 H 753.969 -3.74048 -0.538199 0
M  V30 8009 H 754.282 -7.7132 -0.478091 0
M  V30 8010 H 752.627 -6.93625 -0.436897 0
M  V30 8011 H 755.818 -4.64453 -0.583158 0
M  V30 8012 H 755.991 -6.4561 -0.555976 0
M  V30 8013 N 749.397 0.351382 -1.53633 0
M  V30 8014 C 750.329 1.45159 -1.77374 0
M  V30 8015 C 751.342 1.4905 -0.654826 0
M  V30 8016 O 752.531 1.52274 -0.931396 0
M  V30 8017 C 749.631 2.83858 -1.85143 0
M  V30 8018 C 748.804 3.03498 -3.14972 0
M  V30 8019 C 747.863 4.22393 -3.138 0
M  V30 8020 O 746.889 4.16885 -3.87551 0
M  V30 8021 N 748.091 5.30533 -2.35617 0
M  V30 8022 H 750.856 1.25167 -2.72311 0
M  V30 8023 H 748.417 0.54121 -1.52586 0
M  V30 8024 H 750.409 3.61557 -1.8182 0
M  V30 8025 H 748.979 2.9703 -0.974275 0
M  V30 8026 H 748.199 2.13336 -3.31484 0
M  V30 8027 H 749.487 3.13498 -4.00745 0
M  V30 8028 H 748.885 5.37875 -1.75235 0
M  V30 8029 H 747.442 6.06756 -2.38098 0
M  V30 8030 N 750.875 1.45233 0.611969 0
M  V30 8031 C 751.805 1.5641 1.73373 0
M  V30 8032 C 752.786 0.415896 1.64937 0
M  V30 8033 O 753.971 0.638478 1.83404 0
M  V30 8034 C 751.101 1.52627 3.11965 0
M  V30 8035 C 750.055 2.66119 3.35208 0
M  V30 8036 C 749.381 2.4739 4.74028 0
M  V30 8037 C 750.681 4.08157 3.25891 0
M  V30 8038 H 752.375 2.50307 1.64277 0
M  V30 8039 H 749.921 1.20467 0.788904 0
M  V30 8040 H 751.874 1.59043 3.90235 0
M  V30 8041 H 750.598 0.552564 3.21892 0
M  V30 8042 H 749.257 2.59123 2.59327 0
M  V30 8043 H 748.905 1.48168 4.80682 0
M  V30 8044 H 748.605 3.23494 4.90536 0
M  V30 8045 H 750.129 2.55653 5.54503 0
M  V30 8046 H 751.543 4.1642 3.9404 0
M  V30 8047 H 749.94 4.84617 3.5393 0
M  V30 8048 H 751.01 4.30374 2.23397 0
M  V30 8049 N 752.353 -0.854086 1.3245 0
M  V30 8050 C 753.581 -1.64074 1.26045 0
M  V30 8051 C 753.996 -1.8802 -0.171456 0
M  V30 8052 O 753.353 -1.4496 -1.10873 0
M  V30 8053 C 753.404 -2.9997 2.01743 0
M  V30 8054 O 753.125 -2.77084 3.39346 0
M  V30 8055 C 754.626 -3.94414 2.02368 0
M  V30 8056 H 751.846 -0.511015 0.434862 0
M  V30 8057 H 754.39 -1.06494 1.74583 0
M  V30 8058 H 752.545 -3.54193 1.56926 0
M  V30 8059 H 752.959 -3.63514 3.78098 0
M  V30 8060 H 754.433 -4.87032 2.59815 0
M  V30 8061 H 754.91 -4.27427 1.01009 0
M  V30 8062 H 755.516 -3.46127 2.47135 0
M  V30 8063 N 753.831 -1.1567 -1.07043 0
M  V30 8064 C 754.778 -0.856336 -2.14326 0
M  V30 8065 C 755.748 0.192051 -1.64986 0
M  V30 8066 O 756.933 0.0589148 -1.90709 0
M  V30 8067 C 754.073 -0.355227 -3.43267 0
M  V30 8068 C 753.186 -1.46555 -4.06381 0
M  V30 8069 C 752.321 -0.920245 -5.23168 0
M  V30 8070 C 751.36 -2.00729 -5.78251 0
M  V30 8071 N 750.497 -1.47813 -6.86364 0
M  V30 8072 H 755.337 -1.77514 -2.39359 0
M  V30 8073 H 752.874 -0.885676 -1.17449 0
M  V30 8074 H 754.832 -0.0463804 -4.17174 0
M  V30 8075 H 753.462 0.526649 -3.18475 0
M  V30 8076 H 752.514 -1.89052 -3.30096 0
M  V30 8077 H 753.826 -2.28616 -4.43324 0
M  V30 8078 H 752.98 -0.564127 -6.04072 0
M  V30 8079 H 751.719 -0.0688477 -4.87651 0
M  V30 8080 H 750.724 -2.3722 -4.95991 0
M  V30 8081 H 751.949 -2.86252 -6.15822 0
M  V30 8082 H 749.895 -0.649145 -6.5278 0
M  V30 8083 H 749.812 -2.23498 -7.22208 0
M  V30 8084 H 751.08 -1.15036 -7.70965 0
M  V30 8085 N 755.309 1.25446 -0.953992 0
M  V30 8086 C 756.241 2.25111 -0.431004 0
M  V30 8087 C 757.254 1.56377 0.452764 0
M  V30 8088 O 758.443 1.76579 0.261144 0
M  V30 8089 C 755.543 3.3655 0.39839 0
M  V30 8090 C 754.716 4.34843 -0.472229 0
M  V30 8091 C 753.775 5.25351 0.29886 0
M  V30 8092 O 752.801 5.68396 -0.302522 0
M  V30 8093 N 754.003 5.5824 1.59211 0
M  V30 8094 H 756.768 2.70619 -1.28785 0
M  V30 8095 H 754.329 1.39346 -0.824281 0
M  V30 8096 H 756.321 3.94059 0.921941 0
M  V30 8097 H 754.891 2.90436 1.15609 0
M  V30 8098 H 754.111 3.76222 -1.17689 0
M  V30 8099 H 755.399 4.97497 -1.06648 0
M  V30 8100 H 754.797 5.25172 2.10264 0
M  V30 8101 H 753.354 6.18336 2.06164 0
M  V30 8102 N 756.787 0.722489 1.40064 0
M  V30 8103 C 757.719 0.0349057 2.29173 0
M  V30 8104 C 758.732 -0.716571 1.46182 0
M  V30 8105 O 759.921 -0.562806 1.69395 0
M  V30 8106 C 757.021 -0.974839 3.24577 0
M  V30 8107 C 756.194 -0.287471 4.36454 0
M  V30 8108 C 755.253 -1.20356 5.12251 0
M  V30 8109 O 754.279 -0.685753 5.65054 0
M  V30 8110 N 755.481 -2.53422 5.22262 0
M  V30 8111 H 758.246 0.800058 2.88824 0
M  V30 8112 H 755.807 0.57068 1.51509 0
M  V30 8113 H 757.799 -1.59002 3.72157 0
M  V30 8114 H 756.369 -1.6413 2.66046 0
M  V30 8115 H 755.589 0.508008 3.90913 0
M  V30 8116 H 756.877 0.189382 5.08447 0
M  V30 8117 H 756.275 -2.97981 4.80857 0
M  V30 8118 H 754.832 -3.10067 5.73325 0
M  V30 8119 N 758.265 -1.50454 0.469181 0
M  V30 8120 C 759.212 -2.28486 -0.325982 0
M  V30 8121 C 760.182 -1.33455 -0.988893 0
M  V30 8122 O 761.367 -1.6239 -1.0017 0
M  V30 8123 C 758.507 -3.15288 -1.40313 0
M  V30 8124 C 757.62 -4.25348 -0.755183 0
M  V30 8125 C 756.755 -4.9941 -1.81006 0
M  V30 8126 C 755.794 -6.01348 -1.14226 0
M  V30 8127 N 754.931 -6.68695 -2.1399 0
M  V30 8128 H 759.771 -2.95987 0.345753 0
M  V30 8129 H 757.308 -1.45965 0.182355 0
M  V30 8130 H 759.266 -3.63964 -2.03927 0
M  V30 8131 H 757.896 -2.49837 -2.04405 0
M  V30 8132 H 756.948 -3.80399 -0.00651901 0
M  V30 8133 H 758.26 -4.98279 -0.227941 0
M  V30 8134 H 757.414 -5.51794 -2.52206 0
M  V30 8135 H 756.153 -4.26181 -2.3711 0
M  V30 8136 H 755.158 -5.48225 -0.415876 0
M  V30 8137 H 756.383 -6.76548 -0.588135 0
M  V30 8138 H 754.329 -5.98258 -2.69115 0
M  V30 8139 H 754.246 -7.37495 -1.66246 0
M  V30 8140 H 755.514 -7.25697 -2.84576 0
M  V30 8141 N 759.743 -0.201713 -1.56304 0
M  V30 8142 C 760.968 0.443815 -2.02596 0
M  V30 8143 C 761.393 1.53945 -1.08086 0
M  V30 8144 O 760.751 1.81182 -0.0655056 0
M  V30 8145 C 760.799 0.971066 -3.47279 0
M  V30 8146 O 759.903 2.0836 -3.55893 0
M  V30 8147 H 759.244 0.10294 -0.655972 0
M  V30 8148 H 761.774 -0.314533 -2.02168 0
M  V30 8149 H 761.784 1.28598 -3.87204 0
M  V30 8150 H 760.459 0.169048 -4.15556 0
M  V30 8151 H 759.036 1.77683 -3.27846 0
M  V30 8152 N 761.222 1.57436 0.0718424 0
M  V30 8153 C 762.185 2.02703 1.06977 0
M  V30 8154 C 763.185 0.924062 1.31597 0
M  V30 8155 O 764.375 1.18894 1.27318 0
M  V30 8156 C 761.507 2.40763 2.41342 0
M  V30 8157 H 762.7 2.92098 0.679619 0
M  V30 8158 H 760.253 1.5304 0.317565 0
M  V30 8159 H 760.988 1.54394 2.8519 0
M  V30 8160 H 760.773 3.21249 2.24814 0
M  V30 8161 H 762.263 2.76361 3.13073 0
M  V30 8162 N 762.7 -0.34323 1.53817 0
M  V30 8163 C 763.946 -1.08504 1.71332 0
M  V30 8164 C 764.279 -1.88294 0.475285 0
M  V30 8165 O 763.554 -1.87205 -0.527688 0
M  V30 8166 C 763.837 -2.02597 2.97702 0
M  V30 8167 C 763.69 -1.26268 4.31713 0
M  V30 8168 C 765.009 -3.0241 3.19744 0
M  V30 8169 H 762.128 -0.393072 0.623429 0
M  V30 8170 H 764.77 -0.363579 1.86489 0
M  V30 8171 H 762.92 -2.64118 2.8491 0
M  V30 8172 H 764.592 -0.673594 4.56356 0
M  V30 8173 H 762.835 -0.564696 4.30109 0
M  V30 8174 H 763.506 -1.95253 5.16314 0
M  V30 8175 H 765.982 -2.51004 3.31868 0
M  V30 8176 H 764.858 -3.65449 4.09558 0
M  V30 8177 H 765.119 -3.73806 2.36054 0
M  V30 8178 N 764.178 -1.45556 -0.604258 0
M  V30 8179 C 765.594 -1.30035 -0.925368 0
M  V30 8180 C 765.794 -0.255833 -1.99869 0
M  V30 8181 O 764.85 0.349076 -2.50075 0
M  V30 8182 C 766.163 -2.68028 -1.36314 0
M  V30 8183 C 767.711 -2.75951 -1.47717 0
M  V30 8184 C 768.186 -4.14476 -1.94868 0
M  V30 8185 N 769.677 -4.16787 -2.02097 0
M  V30 8186 C 770.412 -5.20845 -2.39809 0
M  V30 8187 N 769.908 -6.35246 -2.76467 0
M  V30 8188 N 771.701 -5.08204 -2.40177 0
M  V30 8189 H 763.852 -2.1214 0.10512 0
M  V30 8190 H 766.115 -0.947871 -0.0156303 0
M  V30 8191 H 765.821 -3.45667 -0.648628 0
M  V30 8192 H 765.695 -2.96711 -2.329 0
M  V30 8193 H 768.082 -1.98613 -2.18258 0
M  V30 8194 H 768.163 -2.50977 -0.494371 0
M  V30 8195 H 767.807 -4.923 -1.24912 0
M  V30 8196 H 767.737 -4.36843 -2.94068 0
M  V30 8197 H 770.228 -3.34233 -1.76343 0
M  V30 8198 H 770.541 -7.10438 -3.04134 0
M  V30 8199 H 768.886 -6.38642 -2.74155 0
M  V30 8200 H 772.077 -4.17874 -2.10947 0
M  V30 8201 H 772.25 -5.89417 -2.69242 0
M  V30 8202 N 765.656 0.84705 -1.32902 0
M  V30 8203 C 767.072 1.13645 -1.12058 0
M  V30 8204 C 767.272 2.01281 0.093937 0
M  V30 8205 O 766.328 2.4026 0.776608 0
M  V30 8206 C 767.641 1.80644 -2.40392 0
M  V30 8207 C 769.189 1.93246 -2.46221 0
M  V30 8208 C 769.664 2.6366 -3.74496 0
M  V30 8209 N 771.155 2.71179 -3.75521 0
M  V30 8210 C 771.89 3.26332 -4.71482 0
M  V30 8211 N 771.386 3.82236 -5.77813 0
M  V30 8212 N 773.179 3.24507 -4.58968 0
M  V30 8213 H 765.33 0.263612 -2.10758 0
M  V30 8214 H 767.593 0.17944 -0.930863 0
M  V30 8215 H 767.299 1.23708 -3.29225 0
M  V30 8216 H 767.173 2.80736 -2.51926 0
M  V30 8217 H 769.56 2.49338 -1.57843 0
M  V30 8218 H 769.641 0.921272 -2.38634 0
M  V30 8219 H 769.285 2.08229 -4.63253 0
M  V30 8220 H 769.215 3.65234 -3.79357 0
M  V30 8221 H 771.706 2.31527 -2.9867 0
M  V30 8222 H 772.019 4.22499 -6.47082 0
M  V30 8223 H 770.364 3.80546 -5.81558 0
M  V30 8224 H 773.555 2.80085 -3.7506 0
M  V30 8225 H 773.728 3.67188 -5.33926 0
M  V30 8226 N 767.134 1.16236 1.06428 0
M  V30 8227 C 768.55 0.906983 1.31324 0
M  V30 8228 C 768.75 -0.440872 1.96618 0
M  V30 8229 O 767.806 -1.1807 2.23194 0
M  V30 8230 C 769.119 2.05501 2.19522 0
M  V30 8231 C 770.667 2.09061 2.32943 0
M  V30 8232 C 771.142 3.23214 3.24495 0
M  V30 8233 N 772.633 3.22922 3.32078 0
M  V30 8234 C 773.368 4.07889 4.03006 0
M  V30 8235 N 772.864 5.02941 4.76469 0
M  V30 8236 N 774.657 3.95881 3.99043 0
M  V30 8237 H 766.808 2.03015 0.624388 0
M  V30 8238 H 769.071 0.88576 0.337835 0
M  V30 8239 H 768.777 3.02847 1.78819 0
M  V30 8240 H 768.651 1.99538 3.201 0
M  V30 8241 H 771.038 1.12308 2.72893 0
M  V30 8242 H 771.119 2.19089 1.32037 0
M  V30 8243 H 770.763 4.20225 2.85261 0
M  V30 8244 H 770.693 3.10423 4.25377 0
M  V30 8245 H 773.184 2.54093 2.79724 0
M  V30 8246 H 773.497 5.64196 5.28112 0
M  V30 8247 H 771.842 5.06922 4.75453 0
M  V30 8248 H 775.033 3.20927 3.40769 0
M  V30 8249 H 775.206 4.62321 4.54052 0
M  V30 8250 N 768.612 -1.24939 0.960631 0
M  V30 8251 C 769.542 -2.28 0.503815 0
M  V30 8252 C 770.523 -1.63959 -0.452928 0
M  V30 8253 O 771.708 -1.91009 -0.350585 0
M  V30 8254 C 768.838 -3.46643 -0.213535 0
M  V30 8255 C 767.792 -4.22903 0.658535 0
M  V30 8256 C 767.118 -5.34363 -0.189902 0
M  V30 8257 C 768.418 -4.84949 1.93963 0
M  V30 8258 H 770.112 -2.66462 1.36521 0
M  V30 8259 H 767.658 -1.28093 0.657897 0
M  V30 8260 H 769.611 -4.1787 -0.544286 0
M  V30 8261 H 768.335 -3.07187 -1.10923 0
M  V30 8262 H 766.994 -3.53467 0.972455 0
M  V30 8263 H 766.642 -4.91147 -1.08553 0
M  V30 8264 H 766.342 -5.86302 0.390331 0
M  V30 8265 H 767.866 -6.0842 -0.515484 0
M  V30 8266 H 769.28 -5.48288 1.67491 0
M  V30 8267 H 767.677 -5.47091 2.46601 0
M  V30 8268 H 768.747 -4.06799 2.639 0
M  V30 8269 N 770.09 -0.729906 -1.39679 0
M  V30 8270 C 771.022 -0.0470588 -2.29152 0
M  V30 8271 C 772.035 0.708808 -1.4656 0
M  V30 8272 O 773.224 0.553815 -1.69691 0
M  V30 8273 C 770.324 0.957612 -3.25089 0
M  V30 8274 C 769.497 0.264321 -4.36601 0
M  V30 8275 C 768.556 1.17638 -5.12882 0
M  V30 8276 O 767.582 0.655777 -5.6541 0
M  V30 8277 N 768.784 2.50649 -5.23598 0
M  V30 8278 H 771.549 -0.815364 -2.88395 0
M  V30 8279 H 769.11 -0.578707 -1.51204 0
M  V30 8280 H 771.102 1.57026 -3.72995 0
M  V30 8281 H 769.672 1.62716 -2.66912 0
M  V30 8282 H 768.892 -0.528732 -3.90638 0
M  V30 8283 H 770.18 -0.216344 -5.0834 0
M  V30 8284 H 769.578 2.95427 -4.82431 0
M  V30 8285 H 768.135 3.07022 -5.74961 0
M  V30 8286 N 771.568 1.50203 -0.477153 0
M  V30 8287 C 772.515 2.28656 0.31386 0
M  V30 8288 C 773.485 1.33977 0.981802 0
M  V30 8289 O 774.67 1.62919 0.993072 0
M  V30 8290 C 771.81 3.16027 1.38639 0
M  V30 8291 C 770.923 4.25743 0.732615 0
M  V30 8292 C 770.058 5.00363 1.78355 0
M  V30 8293 C 769.097 6.01945 1.11035 0
M  V30 8294 N 768.234 6.6982 2.10441 0
M  V30 8295 H 773.074 2.958 -0.361445 0
M  V30 8296 H 770.611 1.45867 -0.190093 0
M  V30 8297 H 772.569 3.6504 2.01994 0
M  V30 8298 H 771.199 2.50917 2.03077 0
M  V30 8299 H 770.251 3.80398 -0.0136546 0
M  V30 8300 H 771.563 4.98393 0.201513 0
M  V30 8301 H 770.717 5.53124 2.49276 0
M  V30 8302 H 769.456 4.27432 2.34847 0
M  V30 8303 H 768.461 5.48438 0.386797 0
M  V30 8304 H 769.686 6.76851 0.552248 0
M  V30 8305 H 767.632 5.99677 2.65939 0
M  V30 8306 H 767.549 7.38366 1.62332 0
M  V30 8307 H 768.817 7.27196 2.80724 0
M  V30 8308 N 773.046 0.209999 1.56195 0
M  V30 8309 C 774.294 -0.423974 1.97603 0
M  V30 8310 C 774.615 -1.61112 1.09854 0
M  V30 8311 O 773.885 -1.95134 0.173032 0
M  V30 8312 H 772.465 -0.159629 0.729745 0
M  V30 8313 H 775.127 0.300205 1.92574 0
M  V30 8314 H 774.223 -0.75809 3.02753 0
M  V30 8315 N 774.524 -1.57472 -0.0634922 0
M  V30 8316 C 775.434 -2.07621 -1.09227 0
M  V30 8317 C 776.45 -1.00746 -1.41867 0
M  V30 8318 O 777.626 -1.32269 -1.51878 0
M  V30 8319 C 774.691 -2.51707 -2.38421 0
M  V30 8320 C 773.752 -3.72917 -2.12676 0
M  V30 8321 C 772.985 -4.14891 -3.3571 0
M  V30 8322 O 773.208 -3.56663 -4.45137 0
M  V30 8323 O 772.142 -5.07616 -3.23434 0
M  V30 8324 H 775.968 -2.95612 -0.696205 0
M  V30 8325 H 773.553 -1.46787 -0.27819 0
M  V30 8326 H 775.435 -2.80547 -3.14438 0
M  V30 8327 H 774.11 -1.66842 -2.77391 0
M  V30 8328 H 773.017 -3.49148 -1.34337 0
M  V30 8329 H 774.35 -4.5866 -1.78583 0
M  V30 8330 N 776.003 0.335068 -1.53997 0
M  V30 8331 C 776.966 1.39481 -1.81872 0
M  V30 8332 C 777.966 1.4524 -0.690078 0
M  V30 8333 O 779.156 1.45467 -0.958377 0
M  V30 8334 C 776.288 2.78329 -1.9684 0
M  V30 8335 H 777.481 1.16024 -2.76547 0
M  V30 8336 H 775.034 0.569926 -1.45539 0
M  V30 8337 H 775.769 3.07058 -1.04337 0
M  V30 8338 H 775.554 2.75544 -2.78958 0
M  V30 8339 H 777.044 3.55016 -2.19894 0
M  V30 8340 N 777.481 1.45874 0.596531 0
M  V30 8341 C 778.429 1.55739 1.72766 0
M  V30 8342 C 779.423 0.426666 1.63939 0
M  V30 8343 O 780.629 0.60301 1.69599 0
M  V30 8344 H 777.004 0.489386 0.570968 0
M  V30 8345 H 778.975 2.50871 1.61575 0
M  V30 8346 C 777.724 1.55174 3.11153 0
M  V30 8347 H 777.047 2.41511 3.1861 0
M  V30 8348 H 778.487 1.66133 3.90097 0
M  V30 8349 C 776.946 0.278001 3.35751 0
M  V30 8350 O 777.476 -0.637557 3.96608 0
M  V30 8351 N 775.682 0.170227 2.90101 0
M  V30 8352 H 775.229 0.916159 2.40758 0
M  V30 8353 H 775.187 -0.68117 3.06932 0
M  V30 8354 N 778.959 -0.83999 1.33349 0
M  V30 8355 C 780.208 -1.59011 1.2409 0
M  V30 8356 C 780.521 -1.94655 -0.192029 0
M  V30 8357 O 781.727 -2.68438 -0.406617 0
M  V30 8358 C 780.183 -2.86801 2.17425 0
M  V30 8359 C 779.791 -2.58525 3.65881 0
M  V30 8360 C 781.535 -3.64823 2.17036 0
M  V30 8361 C 779.442 -3.82404 4.51133 0
M  V30 8362 H 778.372 -0.596731 0.460899 0
M  V30 8363 H 781.023 -0.926274 1.58406 0
M  V30 8364 H 779.405 -3.54719 1.7604 0
M  V30 8365 H 780.579 -1.98824 4.15699 0
M  V30 8366 H 778.894 -1.93808 3.68548 0
M  V30 8367 H 781.491 -4.56774 2.7796 0
M  V30 8368 H 781.834 -3.99663 1.16513 0
M  V30 8369 H 782.367 -3.03826 2.56777 0
M  V30 8370 H 779.106 -3.52696 5.52527 0
M  V30 8371 H 778.626 -4.41447 4.0606 0
M  V30 8372 H 780.305 -4.49995 4.6488 0
M  V30 8373 N 780.437 -1.16799 -1.0581 0
M  V30 8374 C 781.684 -0.952524 -1.78699 0
M  V30 8375 C 782.012 0.51931 -1.87439 0
M  V30 8376 O 781.267 1.40151 -1.36587 0
M  V30 8377 C 781.566 -1.53111 -3.22942 0
M  V30 8378 C 781.232 -3.0261 -3.34273 0
M  V30 8379 C 779.894 -3.43418 -3.37072 0
M  V30 8380 C 782.246 -3.98611 -3.35795 0
M  V30 8381 C 779.574 -4.78838 -3.39015 0
M  V30 8382 C 781.926 -5.33923 -3.39277 0
M  V30 8383 C 780.59 -5.74205 -3.40361 0
M  V30 8384 H 779.86 -0.348553 -0.653905 0
M  V30 8385 H 782.507 -1.45591 -1.244 0
M  V30 8386 H 780.812 -0.949286 -3.80126 0
M  V30 8387 H 782.509 -1.34002 -3.77948 0
M  V30 8388 H 779.099 -2.70075 -3.32803 0
M  V30 8389 H 783.283 -3.68146 -3.32839 0
M  V30 8390 H 778.539 -5.09369 -3.38161 0
M  V30 8391 H 782.713 -6.08094 -3.39403 0
M  V30 8392 H 780.34 -6.79117 -3.4162 0
M  V30 8393 N 781.915 1.24427 -0.967243 0
M  V30 8394 C 783.143 1.96541 -0.646477 0
M  V30 8395 C 783.558 1.71753 0.783996 0
M  V30 8396 O 782.915 1.00102 1.52597 0
M  V30 8397 C 782.966 3.4983 -0.911098 0
M  V30 8398 O 782.687 3.7377 -2.28534 0
M  V30 8399 C 784.188 4.3916 -0.604458 0
M  V30 8400 H 781.408 0.626129 -0.241255 0
M  V30 8401 H 783.952 1.58268 -1.29505 0
M  V30 8402 H 782.107 3.86168 -0.308741 0
M  V30 8403 H 782.521 4.68154 -2.365 0
M  V30 8404 H 783.995 5.4557 -0.840069 0
M  V30 8405 H 784.472 4.36771 0.461273 0
M  V30 8406 H 785.078 4.08409 -1.1867 0
M  V30 8407 N 783.393 0.737304 1.3929 0
M  V30 8408 C 784.34 0.0988364 2.30588 0
M  V30 8409 C 785.31 -0.727206 1.49335 0
M  V30 8410 O 786.495 -0.686694 1.78014 0
M  V30 8411 C 783.635 -0.800734 3.35682 0
M  V30 8412 C 782.748 0.0381731 4.31983 0
M  V30 8413 C 781.883 -0.862884 5.24145 0
M  V30 8414 C 780.922 -0.0193639 6.12097 0
M  V30 8415 N 780.059 -0.87648 6.96608 0
M  V30 8416 H 784.899 0.883031 2.84617 0
M  V30 8417 H 782.436 0.447111 1.4014 0
M  V30 8418 H 784.394 -1.33676 3.95205 0
M  V30 8419 H 783.024 -1.55088 2.83103 0
M  V30 8420 H 782.076 0.691641 3.74059 0
M  V30 8421 H 783.388 0.690294 4.94 0
M  V30 8422 H 782.542 -1.46667 5.88705 0
M  V30 8423 H 781.281 -1.54878 4.62454 0
M  V30 8424 H 780.286 0.597202 5.46547 0
M  V30 8425 H 781.511 0.663348 6.75852 0
M  V30 8426 H 779.457 -1.54762 6.37483 0
M  V30 8427 H 779.374 -0.280892 7.55478 0
M  V30 8428 H 780.642 -1.46575 7.65595 0
M  V30 8429 N 784.871 -1.49948 0.485112 0
M  V30 8430 C 785.803 -2.26691 -0.338222 0
M  V30 8431 C 786.816 -1.32584 -0.944742 0
M  V30 8432 O 788.005 -1.57989 -0.830772 0
M  V30 8433 C 785.105 -3.04405 -1.48966 0
M  V30 8434 C 784.278 -4.25971 -0.993371 0
M  V30 8435 C 783.337 -4.85861 -2.02052 0
M  V30 8436 O 782.363 -5.46382 -1.59547 0
M  V30 8437 N 783.565 -4.74101 -3.34975 0
M  V30 8438 H 786.33 -2.97989 0.319748 0
M  V30 8439 H 783.891 -1.58772 0.316714 0
M  V30 8440 H 785.883 -3.41348 -2.17403 0
M  V30 8441 H 784.453 -2.35815 -2.05207 0
M  V30 8442 H 783.673 -3.93971 -0.134424 0
M  V30 8443 H 784.961 -5.0476 -0.639934 0
M  V30 8444 H 784.359 -4.26002 -3.72208 0
M  V30 8445 H 782.916 -5.15274 -3.9917 0
M  V30 8446 N 786.349 -0.21828 -1.56081 0
M  V30 8447 C 787.765 0.137168 -1.59009 0
M  V30 8448 C 787.965 1.59215 -1.23503 0
M  V30 8449 O 787.021 2.33178 -0.968716 0
M  V30 8450 C 788.334 -0.186162 -3.00123 0
M  V30 8451 C 789.882 -0.128135 -3.12738 0
M  V30 8452 C 790.357 -0.425094 -4.56023 0
M  V30 8453 N 791.848 -0.374547 -4.61683 0
M  V30 8454 C 792.583 -0.57786 -5.70481 0
M  V30 8455 N 792.079 -0.842771 -6.87655 0
M  V30 8456 N 793.872 -0.510521 -5.59777 0
M  V30 8457 H 786.023 -1.16746 -1.77437 0
M  V30 8458 H 788.286 -0.467706 -0.824594 0
M  V30 8459 H 787.992 -1.19589 -3.30744 0
M  V30 8460 H 787.866 0.500388 -3.73866 0
M  V30 8461 H 790.253 0.872224 -2.81915 0
M  V30 8462 H 790.334 -0.848112 -2.41331 0
M  V30 8463 H 789.978 -1.42288 -4.87562 0
M  V30 8464 H 789.908 0.316038 -5.25651 0
M  V30 8465 H 792.399 -0.177356 -3.77484 0
M  V30 8466 H 792.712 -0.986095 -7.66483 0
M  V30 8467 H 791.057 -0.879929 -6.89407 0
M  V30 8468 H 794.248 -0.303813 -4.67113 0
M  V30 8469 H 794.421 -0.672378 -6.44502 0
M  V30 8470 N 787.827 1.57504 0.0551401 0
M  V30 8471 C 789.243 1.54236 0.410292 0
M  V30 8472 C 789.443 0.940839 1.78187 0
M  V30 8473 O 788.499 0.550541 2.46425 0
M  V30 8474 C 789.812 2.98816 0.336064 0
M  V30 8475 C 791.36 3.10236 0.415047 0
M  V30 8476 C 791.835 4.56499 0.37055 0
M  V30 8477 N 793.326 4.61199 0.43013 0
M  V30 8478 C 794.061 5.71873 0.418179 0
M  V30 8479 N 793.557 6.91864 0.360056 0
M  V30 8480 N 795.35 5.60165 0.465977 0
M  V30 8481 H 787.501 1.94965 -0.842759 0
M  V30 8482 H 789.764 0.893096 -0.317937 0
M  V30 8483 H 789.47 3.4645 -0.605429 0
M  V30 8484 H 789.344 3.59564 1.13988 0
M  V30 8485 H 791.731 2.62566 1.34697 0
M  V30 8486 H 791.812 2.52367 -0.417648 0
M  V30 8487 H 791.456 5.0483 -0.557592 0
M  V30 8488 H 791.386 5.12249 1.221 0
M  V30 8489 H 793.877 3.74857 0.478623 0
M  V30 8490 H 794.19 7.71983 0.35532 0
M  V30 8491 H 792.535 6.94233 0.326492 0
M  V30 8492 H 795.726 4.65322 0.509194 0
M  V30 8493 H 795.899 6.46413 0.453194 0
M  V30 8494 N 789.305 -0.326896 1.54172 0
M  V30 8495 C 790.215 -1.42525 1.86343 0
M  V30 8496 C 791.231 -1.56764 0.75505 0
M  V30 8497 O 792.407 -1.71924 1.04901 0
M  V30 8498 C 789.472 -2.77286 2.08119 0
M  V30 8499 C 788.533 -2.7225 3.31931 0
M  V30 8500 C 787.766 -4.00584 3.52659 0
M  V30 8501 O 787.989 -4.98686 2.76891 0
M  V30 8502 O 786.923 -4.04045 4.46129 0
M  V30 8503 H 790.749 -1.18249 2.79734 0
M  V30 8504 H 788.334 -0.520614 1.40036 0
M  V30 8505 H 790.216 -3.57065 2.23791 0
M  V30 8506 H 788.891 -3.01459 1.17917 0
M  V30 8507 H 787.798 -1.91033 3.21647 0
M  V30 8508 H 789.131 -2.53032 4.2218 0
M  V30 8509 N 790.784 -1.46188 -0.588786 0
M  V30 8510 C 791.732 -1.56653 -1.71938 0
M  V30 8511 C 792.726 -0.435354 -1.6371 0
M  V30 8512 O 793.932 -0.611996 -1.69277 0
M  V30 8513 H 790.307 -0.492408 -0.568365 0
M  V30 8514 H 792.278 -2.51724 -1.60242 0
M  V30 8515 C 791.027 -1.56822 -3.10326 0
M  V30 8516 H 790.35 -2.43198 -3.17325 0
M  V30 8517 H 791.79 -1.68199 -3.89211 0
M  V30 8518 C 790.249 -0.295802 -3.35599 0
M  V30 8519 O 790.779 0.616515 -3.96941 0
M  V30 8520 N 788.985 -0.185609 -2.90007 0
M  V30 8521 H 788.532 -0.928914 -2.40269 0
M  V30 8522 H 788.49 0.664883 -3.07289 0
M  V30 8523 N 792.262 0.832906 -1.33792 0
M  V30 8524 C 793.195 1.94788 -1.18882 0
M  V30 8525 C 794.173 1.62389 -0.0828426 0
M  V30 8526 O 795.357 1.86886 -0.246175 0
M  V30 8527 C 792.484 3.28506 -0.824728 0
M  V30 8528 C 791.53 3.79872 -1.93905 0
M  V30 8529 S 792.363 4.00832 -3.55097 0
M  V30 8530 C 793.519 5.37492 -3.20708 0
M  V30 8531 H 793.752 2.07137 -2.13264 0
M  V30 8532 H 791.285 0.987362 -1.18704 0
M  V30 8533 H 793.243 4.05769 -0.621442 0
M  V30 8534 H 791.904 3.13939 0.100587 0
M  V30 8535 H 791.097 4.76647 -1.6378 0
M  V30 8536 H 790.699 3.09524 -2.09931 0
M  V30 8537 H 792.991 6.20544 -2.71903 0
M  V30 8538 H 793.934 5.72593 -4.16584 0
M  V30 8539 H 794.342 5.02529 -2.57148 0
M  V30 8540 N 793.74 1.17359 1.05189 0
M  V30 8541 C 794.672 0.848078 2.12933 0
M  V30 8542 C 795.685 -0.149521 1.62112 0
M  V30 8543 O 796.874 0.0767797 1.78335 0
M  V30 8544 C 793.974 0.243889 3.38021 0
M  V30 8545 C 793.147 1.28436 4.18118 0
M  V30 8546 C 792.206 0.697926 5.21551 0
M  V30 8547 O 791.232 1.36973 5.52473 0
M  V30 8548 N 792.434 -0.510024 5.78255 0
M  V30 8549 H 795.199 1.7754 2.41453 0
M  V30 8550 H 792.76 1.07244 1.21286 0
M  V30 8551 H 794.752 -0.161727 4.04377 0
M  V30 8552 H 793.322 -0.58722 3.07035 0
M  V30 8553 H 792.542 1.86573 3.47252 0
M  V30 8554 H 793.83 1.98617 4.68432 0
M  V30 8555 H 793.228 -1.07378 5.55416 0
M  V30 8556 H 791.785 -0.857705 6.46132 0
M  V30 8557 N 795.218 -1.23913 0.973828 0
M  V30 8558 C 796.166 -2.27141 0.50098 0
M  V30 8559 C 797.16 -1.63623 -0.438631 0
M  V30 8560 O 798.366 -1.77253 -0.313247 0
M  V30 8561 H 794.741 -0.73817 0.14356 0
M  V30 8562 H 796.712 -2.64392 1.38346 0
M  V30 8563 C 795.461 -3.47195 -0.187377 0
M  V30 8564 H 794.784 -3.96318 0.526535 0
M  V30 8565 H 796.224 -4.21252 -0.481962 0
M  V30 8566 C 794.683 -3.05678 -1.41642 0
M  V30 8567 O 795.213 -3.1338 -2.51309 0
M  V30 8568 N 793.419 -2.60661 -1.28469 0
M  V30 8569 H 792.966 -2.54594 -0.39238 0
M  V30 8570 H 792.924 -2.33249 -2.10813 0
M  V30 8571 N 796.696 -0.74468 -1.38897 0
M  V30 8572 C 797.945 -0.293716 -1.9955 0
M  V30 8573 C 798.258 1.12831 -1.59777 0
M  V30 8574 O 799.464 1.67929 -2.13336 0
M  V30 8575 C 797.92 -0.474188 -3.56762 0
M  V30 8576 C 797.528 -1.90472 -4.05493 0
M  V30 8577 C 799.272 -0.0854875 -4.24414 0
M  V30 8578 C 797.179 -2.03423 -5.55314 0
M  V30 8579 H 796.109 -0.106066 -0.746502 0
M  V30 8580 H 798.76 -0.919948 -1.58774 0
M  V30 8581 H 797.142 0.221092 -3.95382 0
M  V30 8582 H 798.316 -2.63274 -3.78184 0
M  V30 8583 H 796.631 -2.24752 -3.50536 0
M  V30 8584 H 799.228 -0.161133 -5.34457 0
M  V30 8585 H 799.571 0.96066 -4.05064 0
M  V30 8586 H 800.104 -0.732286 -3.91002 0
M  V30 8587 H 796.843 -3.0626 -5.79556 0
M  V30 8588 H 796.363 -1.3507 -5.84394 0
M  V30 8589 H 798.042 -1.81996 -6.20876 0
M  V30 8590 N 798.174 1.49689 -0.493057 0
M  V30 8591 C 799.121 2.28976 0.28959 0
M  V30 8592 C 800.091 1.35011 0.967536 0
M  V30 8593 O 801.276 1.63964 0.975736 0
M  V30 8594 C 798.416 3.1748 1.35279 0
M  V30 8595 C 797.529 4.26496 0.687418 0
M  V30 8596 C 796.664 5.02226 1.73038 0
M  V30 8597 C 795.703 6.03089 1.04645 0
M  V30 8598 N 794.84 6.72014 2.03325 0
M  V30 8599 H 799.68 2.954 -0.392798 0
M  V30 8600 H 797.217 1.45657 -0.205554 0
M  V30 8601 H 799.175 3.67162 1.98111 0
M  V30 8602 H 797.805 2.53057 2.00405 0
M  V30 8603 H 796.857 3.80362 -0.0540001 0
M  V30 8604 H 798.169 4.98578 0.14864 0
M  V30 8605 H 797.323 5.55737 2.43395 0
M  V30 8606 H 796.062 4.29899 2.303 0
M  V30 8607 H 795.067 5.48817 0.328606 0
M  V30 8608 H 796.292 6.77398 0.480428 0
M  V30 8609 H 794.238 6.02464 2.59564 0
M  V30 8610 H 794.155 7.40046 1.54492 0
M  V30 8611 H 795.423 7.30133 2.72995 0
M  V30 8612 N 799.652 0.226554 1.55963 0
M  V30 8613 C 800.877 -0.411527 2.03276 0
M  V30 8614 C 801.302 -1.52206 1.10521 0
M  V30 8615 O 800.66 -1.81054 0.0943217 0
M  V30 8616 C 800.708 -0.915694 3.4878 0
M  V30 8617 O 799.812 -2.02672 3.59163 0
M  V30 8618 H 799.153 -0.0924907 0.657527 0
M  V30 8619 H 801.683 0.346656 2.01642 0
M  V30 8620 H 801.693 -1.22421 3.892 0
M  V30 8621 H 800.368 -0.102915 4.15773 0
M  V30 8622 H 798.945 -1.72445 3.30632 0
M  V30 8623 N 801.13 -1.57531 -0.0467866 0
M  V30 8624 C 802.355 -1.93087 -0.757123 0
M  V30 8625 C 802.78 -0.825116 -1.69037 0
M  V30 8626 O 802.138 0.220449 -1.79955 0
M  V30 8627 C 802.186 -3.27669 -1.5055 0
M  V30 8628 O 801.29 -3.18667 -2.61773 0
M  V30 8629 H 800.631 -0.631597 -0.204892 0
M  V30 8630 H 803.161 -2.04599 -0.00755232 0
M  V30 8631 H 803.171 -3.6214 -1.87932 0
M  V30 8632 H 801.846 -4.07717 -0.820931 0
M  V30 8633 H 800.423 -2.95798 -2.27064 0
M  V30 8634 N 802.608 0.318715 -1.54344 0
M  V30 8635 C 803.538 1.39751 -1.87061 0
M  V30 8636 C 804.519 1.53741 -0.727848 0
M  V30 8637 O 805.704 1.67541 -0.982016 0
M  V30 8638 C 802.834 2.76446 -2.10226 0
M  V30 8639 C 801.788 2.77239 -3.26071 0
M  V30 8640 C 801.114 4.17056 -3.34617 0
M  V30 8641 C 802.414 2.40555 -4.63606 0
M  V30 8642 H 804.108 1.12619 -2.77412 0
M  V30 8643 H 801.654 0.540318 -1.33479 0
M  V30 8644 H 803.607 3.51985 -2.31699 0
M  V30 8645 H 802.331 3.05066 -1.16629 0
M  V30 8646 H 800.99 2.04155 -3.04493 0
M  V30 8647 H 800.638 4.42824 -2.3857 0
M  V30 8648 H 800.338 4.18492 -4.12478 0
M  V30 8649 H 801.862 4.94401 -3.5833 0
M  V30 8650 H 803.276 3.05808 -4.84927 0
M  V30 8651 H 801.673 2.53234 -5.44052 0
M  V30 8652 H 802.743 1.35698 -4.65526 0
M  V30 8653 N 804.086 1.46499 0.581025 0
M  V30 8654 C 804.996 1.59778 1.71779 0
M  V30 8655 C 806.012 0.481223 1.67213 0
M  V30 8656 O 807.188 0.74557 1.87091 0
M  V30 8657 C 804.253 1.58626 3.08283 0
M  V30 8658 C 803.314 2.81527 3.241 0
M  V30 8659 C 802.547 2.80421 4.54092 0
M  V30 8660 O 802.77 1.89262 5.38085 0
M  V30 8661 O 801.704 3.71984 4.73193 0
M  V30 8662 H 805.53 2.55918 1.63523 0
M  V30 8663 H 803.115 1.29311 0.748267 0
M  V30 8664 H 804.997 1.60686 3.89561 0
M  V30 8665 H 803.672 0.656467 3.16973 0
M  V30 8666 H 802.579 2.85021 2.42309 0
M  V30 8667 H 803.912 3.73721 3.20302 0
M  V30 8668 N 805.565 -0.825799 1.34232 0
M  V30 8669 C 806.528 -1.91808 1.25468 0
M  V30 8670 C 807.528 -1.59893 0.170567 0
M  V30 8671 O 808.718 -1.68986 0.422996 0
M  V30 8672 C 805.85 -3.27786 0.93644 0
M  V30 8673 H 807.043 -2.01003 2.22571 0
M  V30 8674 H 804.596 -1.01944 1.18479 0
M  V30 8675 H 805.331 -3.24285 -0.0315408 0
M  V30 8676 H 805.116 -3.52333 1.72057 0
M  V30 8677 H 806.606 -4.07782 0.900214 0
M  V30 8678 N 807.043 -1.17915 -1.04565 0
M  V30 8679 C 808.006 -0.903787 -2.10628 0
M  V30 8680 C 809.006 0.10873 -1.60432 0
M  V30 8681 O 810.196 -0.124152 -1.73757 0
M  V30 8682 C 807.328 -0.355017 -3.39046 0
M  V30 8683 H 808.521 -1.84425 -2.3649 0
M  V30 8684 H 806.074 -0.990477 -1.2091 0
M  V30 8685 H 806.809 0.592297 -3.18845 0
M  V30 8686 H 806.594 -1.08484 -3.76794 0
M  V30 8687 H 808.084 -0.180891 -4.17208 0
M  V30 8688 N 808.521 1.23394 -0.980386 0
M  V30 8689 C 809.746 1.96384 -0.666935 0
M  V30 8690 C 810.171 1.72087 0.759456 0
M  V30 8691 O 809.529 0.992328 1.51732 0
M  V30 8692 C 809.577 3.47499 -0.963177 0
M  V30 8693 O 808.681 4.12363 -0.0552051 0
M  V30 8694 H 808.022 0.614797 -0.250839 0
M  V30 8695 H 810.552 1.56831 -1.31398 0
M  V30 8696 H 810.562 3.97953 -0.899877 0
M  V30 8697 H 809.237 3.6451 -2.00264 0
M  V30 8698 H 807.814 3.72499 -0.172914 0
M  V30 8699 N 809.999 0.752036 1.385 0
M  V30 8700 C 811.246 0.307503 2.00152 0
M  V30 8701 C 811.574 -1.11033 1.59693 0
M  V30 8702 O 810.829 -1.77455 0.825125 0
M  V30 8703 C 811.128 0.376155 3.55415 0
M  V30 8704 C 810.794 1.74942 4.15579 0
M  V30 8705 C 809.456 2.12525 4.31725 0
M  V30 8706 C 811.808 2.65031 4.48785 0
M  V30 8707 C 809.136 3.39671 4.78373 0
M  V30 8708 C 811.488 3.91567 4.96848 0
M  V30 8709 C 810.152 4.2922 5.11201 0
M  V30 8710 H 809.422 0.112523 0.732407 0
M  V30 8711 H 812.069 0.962213 1.65571 0
M  V30 8712 H 810.374 -0.362121 3.90123 0
M  V30 8713 H 812.071 0.0138065 4.00998 0
M  V30 8714 H 808.661 1.44726 4.03426 0
M  V30 8715 H 812.845 2.3726 4.35914 0
M  V30 8716 H 808.101 3.68765 4.8767 0
M  V30 8717 H 812.275 4.61517 5.21512 0
M  V30 8718 H 809.902 5.27805 5.47107 0
M  V30 8719 N 811.477 -1.49425 0.500989 0
M  V30 8720 C 812.723 -2.03369 -0.0355945 0
M  V30 8721 C 813.078 -1.37387 -1.34694 0
M  V30 8722 O 812.371 -0.500516 -1.84947 0
M  V30 8723 C 812.565 -3.56562 -0.24463 0
M  V30 8724 C 812.394 -4.37392 1.04491 0
M  V30 8725 C 811.164 -4.7941 1.59669 0
M  V30 8726 C 813.362 -4.75974 1.94817 0
M  V30 8727 N 811.344 -5.44668 2.83214 0
M  V30 8728 C 812.715 -5.4095 3.0294 0
M  V30 8729 C 814.77 -4.57915 1.95495 0
M  V30 8730 C 813.473 -5.89779 4.11768 0
M  V30 8731 C 815.499 -5.07705 3.03298 0
M  V30 8732 C 814.861 -5.72682 4.1014 0
M  V30 8733 H 810.96 -0.781507 0.0277547 0
M  V30 8734 H 813.544 -1.82594 0.675844 0
M  V30 8735 H 811.715 -3.77221 -0.925126 0
M  V30 8736 H 813.447 -3.97147 -0.778219 0
M  V30 8737 H 810.202 -4.59629 1.14185 0
M  V30 8738 H 810.626 -5.81884 3.46035 0
M  V30 8739 H 815.268 -4.07085 1.14199 0
M  V30 8740 H 812.986 -6.3963 4.93862 0
M  V30 8741 H 816.572 -4.95542 3.04843 0
M  V30 8742 H 815.452 -6.10512 4.92184 0
M  V30 8743 N 812.955 -0.234822 -1.55841 0
M  V30 8744 C 814.203 0.392483 -1.98252 0
M  V30 8745 C 814.524 1.59344 -1.12404 0
M  V30 8746 O 813.794 1.94834 -0.204055 0
M  V30 8747 H 812.374 0.147999 -0.732192 0
M  V30 8748 H 815.036 -0.330804 -1.92072 0
M  V30 8749 H 814.132 0.709829 -3.03921 0
M  V30 8750 N 814.433 1.57553 0.0384317 0
M  V30 8751 C 815.343 2.09333 1.0591 0
M  V30 8752 C 816.359 1.0299 1.40247 0
M  V30 8753 O 817.535 1.34669 1.49754 0
M  V30 8754 C 814.6 2.55468 2.34386 0
M  V30 8755 C 813.661 3.76254 2.06716 0
M  V30 8756 C 812.894 4.20179 3.29067 0
M  V30 8757 O 813.117 3.637 4.39407 0
M  V30 8758 O 812.051 5.12697 3.15317 0
M  V30 8759 H 815.877 2.96683 0.649087 0
M  V30 8760 H 813.462 1.47211 0.254802 0
M  V30 8761 H 815.344 2.85514 3.09935 0
M  V30 8762 H 814.019 1.71234 2.74701 0
M  V30 8763 H 812.926 3.51241 1.28766 0
M  V30 8764 H 814.259 4.61443 1.71263 0
M  V30 8765 O 815.95 -0.181452 1.60477 0
M  V30 8766 H 816.641 -0.819067 1.75531 0
M  V30 END ATOM
M  V30 BEGIN BOND
M  V30 END BOND
M  V30 END CTAB
M  END
$$$$
