drugbank_target|Q9BVG9 Phosphatidylserine synthase 2 (DB00144)
 OpenBabel12092120083D

  0  0  0     0  0            999 V3000
M  V30 BEGIN CTAB
M  V30 COUNTS 7879 8016 0 0 0
M  V30 BEGIN ATOM
M  V30 1 H -0.908 1.98254 -0.117106 0
M  V30 2 N 0 1.576 0 0
M  V30 3 C 0.933 2.03868 1.02534 0
M  V30 4 C 1.911 0.928543 1.3348 0
M  V30 5 O 3.095 1.19667 1.45644 0
M  V30 6 C 0.222 2.43627 2.35294 0
M  V30 7 C -0.732 3.65373 2.2001 0
M  V30 8 S 0.101 5.13292 1.52614 0
M  V30 9 C 1.257 5.56322 2.86805 0
M  V30 10 H 1.49 2.90518 0.631377 0
M  V30 11 H -0.977 1.52953 0.210867 0
M  V30 12 H 0.981 2.67203 3.11629 0
M  V30 13 H -0.358 1.57376 2.7183 0
M  V30 14 H -1.165 3.90944 3.18086 0
M  V30 15 H -1.563 3.418 1.51819 0
M  V30 16 H 0.729 5.58782 3.83104 0
M  V30 17 H 1.672 6.56266 2.65933 0
M  V30 18 H 2.08 4.83886 2.90714 0
M  V30 19 N 1.4781 -0.272755 1.55222 0
M  V30 20 C 2.8941 -0.619959 1.47067 0
M  V30 21 C 3.0941 -1.895 0.684978 0
M  V30 22 O 2.1501 -2.51675 0.203931 0
M  V30 23 C 3.4631 -0.746693 2.91282 0
M  V30 24 C 5.0111 -0.840731 3.01497 0
M  V30 25 C 5.4861 -0.99924 4.46967 0
M  V30 26 N 6.9771 -1.06476 4.50796 0
M  V30 27 C 7.7121 -1.20621 5.6057 0
M  V30 28 N 7.2081 -1.31483 6.80209 0
M  V30 29 N 9.0011 -1.23733 5.48312 0
M  V30 30 H 1.1521 0.564606 2.04758 0
M  V30 31 H 3.4151 0.191177 0.928523 0
M  V30 32 H 3.1211 0.119753 3.51496 0
M  V30 33 H 2.9951 -1.6269 3.40311 0
M  V30 34 H 5.3821 -1.69764 2.41379 0
M  V30 35 H 5.4631 0.0640874 2.5572 0
M  V30 36 H 5.1071 -0.146984 5.07687 0
M  V30 37 H 5.0371 -1.91871 4.90401 0
M  V30 38 H 7.5281 -0.993196 3.64615 0
M  V30 39 H 7.8411 -1.42111 7.59621 0
M  V30 40 H 6.1861 -1.28487 6.8302 0
M  V30 41 H 9.3771 -1.14877 4.53785 0
M  V30 42 H 9.5501 -1.34412 6.33906 0
M  V30 43 N 2.9562 -1.48159 -0.537278 0
M  V30 44 C 4.3722 -1.34118 -0.865129 0
M  V30 45 C 4.5722 -0.346678 -1.98495 0
M  V30 46 O 3.6282 0.234715 -2.51407 0
M  V30 47 C 4.9412 -2.73963 -1.23954 0
M  V30 48 C 6.4892 -2.82397 -1.34984 0
M  V30 49 C 6.9642 -4.22928 -1.75772 0
M  V30 50 N 8.4552 -4.25566 -1.82887 0
M  V30 51 C 9.1902 -5.31235 -2.15817 0
M  V30 52 N 8.6862 -6.47189 -2.47222 0
M  V30 53 N 10.4792 -5.18624 -2.16761 0
M  V30 54 H 2.6302 -2.1144 0.201715 0
M  V30 55 H 4.8932 -0.947598 0.0275949 0
M  V30 56 H 4.5992 -3.48264 -0.490381 0
M  V30 57 H 4.4732 -3.0702 -2.19132 0
M  V30 58 H 6.8602 -2.08356 -2.08978 0
M  V30 59 H 6.9412 -2.5297 -0.379448 0
M  V30 60 H 6.5852 -4.97482 -1.02341 0
M  V30 61 H 6.5152 -4.49794 -2.73848 0
M  V30 62 H 9.0062 -3.41924 -1.60924 0
M  V30 63 H 9.3192 -7.23564 -2.71433 0
M  V30 64 H 7.6642 -6.50476 -2.44757 0
M  V30 65 H 10.8552 -4.27056 -1.91679 0
M  V30 66 H 11.0282 -6.01078 -2.42093 0
M  V30 67 N 4.4343 0.785586 -1.36625 0
M  V30 68 C 5.6823 1.54057 -1.30808 0
M  V30 69 C 6.0033 1.94683 0.111157 0
M  V30 70 O 5.2733 1.65241 1.05224 0
M  V30 71 H 3.8533 0.571354 -0.481211 0
M  V30 72 H 6.5153 0.935821 -1.70963 0
M  V30 73 H 5.6113 2.44637 -1.93801 0
M  V30 74 N 5.9124 1.20967 1.01018 0
M  V30 75 C 6.8224 0.980157 2.13143 0
M  V30 76 C 7.8384 -0.0660665 1.73875 0
M  V30 77 O 9.0144 0.122821 2.01025 0
M  V30 78 C 6.0794 0.54216 3.42435 0
M  V30 79 C 5.1404 1.65999 3.95908 0
M  V30 80 C 4.3734 1.2428 5.19028 0
M  V30 81 O 4.5964 0.114196 5.70286 0
M  V30 82 O 3.5304 2.05271 5.65816 0
M  V30 83 H 7.3564 1.91913 2.35379 0
M  V30 84 H 4.9414 0.994099 1.11526 0
M  V30 85 H 6.8234 0.30744 4.20277 0
M  V30 86 H 5.4984 -0.36815 3.216 0
M  V30 87 H 4.4054 1.94906 3.19316 0
M  V30 88 H 5.7384 2.54753 4.21143 0
M  V30 89 N 7.3905 -1.2043 1.01659 0
M  V30 90 C 8.8065 -1.41852 0.731442 0
M  V30 91 C 9.0065 -1.89358 -0.688898 0
M  V30 92 O 8.0625 -2.06247 -1.45666 0
M  V30 93 C 9.3755 -2.44019 1.75714 0
M  V30 94 C 10.9235 -2.57785 1.77527 0
M  V30 95 C 11.3985 -3.63194 2.79023 0
M  V30 96 N 12.8895 -3.70678 2.77763 0
M  V30 97 C 13.6245 -4.51897 3.52954 0
M  V30 98 N 13.1205 -5.36921 4.37821 0
M  V30 99 N 14.9135 -4.4643 3.41551 0
M  V30 100 H 7.0645 -0.879093 1.93354 0
M  V30 101 H 9.3275 -0.448425 0.835236 0
M  V30 102 H 9.0335 -2.1611 2.77469 0
M  V30 103 H 8.9075 -3.43007 1.56927 0
M  V30 104 H 11.2945 -2.85023 0.764569 0
M  V30 105 H 11.3755 -1.58992 2.00387 0
M  V30 106 H 11.0195 -3.36699 3.80258 0
M  V30 107 H 10.9495 -4.61609 2.53425 0
M  V30 108 H 13.4405 -3.09944 2.16201 0
M  V30 109 H 13.7535 -5.95981 4.91962 0
M  V30 110 H 12.0985 -5.36424 4.41899 0
M  V30 111 H 15.2895 -3.79042 2.74672 0
M  V30 112 H 15.4625 -5.09491 4.00404 0
M  V30 113 N 8.8686 -0.792821 -1.36206 0
M  V30 114 C 10.2846 -0.474903 -1.52371 0
M  V30 115 C 10.4846 1.00622 -1.74578 0
M  V30 116 O 9.5406 1.79162 -1.77924 0
M  V30 117 C 10.8536 -1.3083 -2.70747 0
M  V30 118 C 12.4016 -1.30234 -2.84619 0
M  V30 119 C 12.8766 -2.11956 -4.06004 0
M  V30 120 N 14.3676 -2.09419 -4.13156 0
M  V30 121 C 15.1026 -2.69419 -5.06163 0
M  V30 122 N 14.5986 -3.3829 -6.04592 0
M  V30 123 N 16.3916 -2.59134 -4.98804 0
M  V30 124 H 8.5426 -1.75222 -1.20046 0
M  V30 125 H 10.8056 -0.745024 -0.586211 0
M  V30 126 H 10.5116 -2.35881 -2.6087 0
M  V30 127 H 10.3856 -0.95196 -3.6499 0
M  V30 128 H 12.7726 -0.259748 -2.93955 0
M  V30 129 H 12.8536 -1.69847 -1.91274 0
M  V30 130 H 12.4976 -3.16248 -3.97429 0
M  V30 131 H 12.4276 -1.69711 -4.98503 0
M  V30 132 H 14.9186 -1.59297 -3.42685 0
M  V30 133 H 15.2316 -3.81394 -6.7213 0
M  V30 134 H 13.5766 -3.42393 -6.04807 0
M  V30 135 H 16.7676 -2.04927 -4.20859 0
M  V30 136 H 16.9406 -3.06185 -5.711 0
M  V30 137 N 10.3467 1.47872 -0.545128 0
M  V30 138 C 11.6237 1.9554 0.0485222 0
M  V30 139 C 12.0037 1.4876 1.49779 0
M  V30 140 O 11.3517 0.720925 2.16829 0
M  V30 141 C 11.5617 3.48898 -0.084417 0
M  V30 142 C 12.9097 4.24547 0.0671239 0
M  V30 143 O 13.9337 3.56198 -0.0113649 0
M  V30 144 O 12.7927 5.45999 0.233882 0
M  V30 145 H 9.8867 0.823957 0.0708773 0
M  V30 146 H 12.4327 1.58327 -0.610798 0
M  V30 147 H 11.2047 3.75714 -1.09337 0
M  V30 148 H 10.8277 3.92845 0.613066 0
M  V30 149 N 11.8248 0.280983 1.55075 0
M  V30 150 C 12.7878 -0.590896 2.21452 0
M  V30 151 C 13.7878 -1.07682 1.19421 0
M  V30 152 O 14.9778 -0.97605 1.44288 0
M  V30 153 C 12.1098 -1.81587 2.88511 0
M  V30 154 H 13.3028 -0.0112554 2.99898 0
M  V30 155 H 10.8558 0.0316438 1.56268 0
M  V30 156 H 11.5908 -2.43587 2.14093 0
M  V30 157 H 11.3758 -1.4753 3.63287 0
M  V30 158 H 12.8658 -2.43575 3.39206 0
M  V30 159 N 13.3029 -1.57598 0.00835791 0
M  V30 160 C 14.5509 -1.90551 -0.6734 0
M  V30 161 C 14.8719 -0.883301 -1.73847 0
M  V30 162 O 14.1419 0.0781442 -1.95744 0
M  V30 163 H 12.7219 -0.703312 -0.251717 0
M  V30 164 H 15.3839 -1.94833 0.0512592 0
M  V30 165 H 14.4799 -2.9056 -1.13935 0
M  V30 166 N 14.781 0.264519 -1.55364 0
M  V30 167 C 16.029 0.993021 -1.76021 0
M  V30 168 C 16.35 1.86511 -0.569099 0
M  V30 169 O 15.62 1.91438 0.415735 0
M  V30 170 H 14.2 0.369639 -0.649135 0
M  V30 171 H 16.862 0.286707 -1.9278 0
M  V30 172 H 15.958 1.62502 -2.66457 0
M  V30 173 N 16.2591 1.48442 0.529413 0
M  V30 174 C 17.6701 1.5002 1.11134 0
M  V30 175 C 18.0211 0.27031 1.94329 0
M  V30 176 O 17.1461 -0.622507 2.07253 0
M  V30 177 C 17.7411 2.71834 2.02217 0
M  V30 178 C 16.3001 2.76283 2.55627 0
M  V30 179 C 15.4471 2.43542 1.326 0
M  V30 180 H 18.3981 1.5555 0.314641 0
M  V30 181 H 18.4191 2.50384 2.8651 0
M  V30 182 H 17.9311 3.61331 1.41639 0
M  V30 183 H 16.0321 1.90995 3.19924 0
M  V30 184 H 16.1451 3.77725 2.94721 0
M  V30 185 H 14.5091 1.94709 1.64196 0
M  V30 186 H 15.2921 3.3528 0.737734 0
M  V30 187 N 17.7372 -0.778329 1.37039 0
M  V30 188 C 19.1532 -1.07796 1.17695 0
M  V30 189 C 19.3532 -2.01498 0.00860115 0
M  V30 190 O 18.4092 -2.43901 -0.653352 0
M  V30 191 C 19.7222 -1.68178 2.49272 0
M  V30 192 C 21.2702 -1.80467 2.55735 0
M  V30 193 C 21.7452 -2.44263 3.87427 0
M  V30 194 N 23.2362 -2.51721 3.88833 0
M  V30 195 C 23.9712 -3.01919 4.87476 0
M  V30 196 N 23.4672 -3.5234 5.96513 0
M  V30 197 N 25.2602 -3.00733 4.74885 0
M  V30 198 H 17.4112 -0.156032 2.11826 0
M  V30 199 H 19.6742 -0.131844 0.938787 0
M  V30 200 H 19.3802 -1.06796 3.35093 0
M  V30 201 H 19.2542 -2.67554 2.65885 0
M  V30 202 H 21.6412 -2.40984 1.70325 0
M  V30 203 H 21.7222 -0.798656 2.43013 0
M  V30 204 H 21.3662 -1.84388 4.73248 0
M  V30 205 H 21.2962 -3.45458 3.9745 0
M  V30 206 H 23.7872 -2.1603 3.10063 0
M  V30 207 H 24.1002 -3.89027 6.67741 0
M  V30 208 H 22.4452 -3.50462 6.00168 0
M  V30 209 H 25.6362 -2.60638 3.88826 0
M  V30 210 H 25.8092 -3.39545 5.51918 0
M  V30 211 N 19.2153 -1.21501 -1.00376 0
M  V30 212 C 20.6263 -1.03146 -1.55621 0
M  V30 213 C 20.9773 0.408375 -1.91903 0
M  V30 214 O 20.1023 1.29177 -1.73616 0
M  V30 215 C 20.6973 -1.86612 -2.82775 0
M  V30 216 C 19.2563 -1.72586 -3.34501 0
M  V30 217 C 18.4033 -1.83747 -2.07683 0
M  V30 218 H 21.3543 -1.35505 -0.826081 0
M  V30 219 H 21.3753 -1.3771 -3.54706 0
M  V30 220 H 20.8873 -2.91399 -2.56336 0
M  V30 221 H 18.9883 -0.704877 -3.65872 0
M  V30 222 H 19.1013 -2.54623 -4.05837 0
M  V30 223 H 17.4653 -1.27069 -2.20739 0
M  V30 224 H 18.2483 -2.90044 -1.83655 0
M  V30 225 N 20.6934 1.19889 -1.02296 0
M  V30 226 C 21.6034 2.26571 -0.608508 0
M  V30 227 C 22.6194 1.70299 0.356964 0
M  V30 228 O 23.7954 2.00235 0.216326 0
M  V30 229 C 20.8604 3.46677 0.0402814 0
M  V30 230 C 19.9214 4.18153 -0.97194 0
M  V30 231 C 19.1544 5.32525 -0.354016 0
M  V30 232 O 19.3774 5.64112 0.844604 0
M  V30 233 O 18.3114 5.92242 -1.07391 0
M  V30 234 H 22.1374 2.64251 -1.49684 0
M  V30 235 H 19.7224 1.26629 -0.792809 0
M  V30 236 H 21.6044 4.19475 0.402324 0
M  V30 237 H 20.2794 3.10858 0.902707 0
M  V30 238 H 19.1864 3.47499 -1.38546 0
M  V30 239 H 20.5194 4.57927 -1.80454 0
M  V30 240 N 22.1715 0.800033 1.35784 0
M  V30 241 C 23.3965 0.388511 2.03729 0
M  V30 242 C 23.8215 -0.990481 1.5991 0
M  V30 243 O 23.1795 -1.64013 0.772612 0
M  V30 244 C 23.2275 0.4726 3.5749 0
M  V30 245 O 22.3315 -0.51646 4.09153 0
M  V30 246 H 21.6725 0.163271 0.643614 0
M  V30 247 H 24.2025 1.0841 1.73518 0
M  V30 248 H 24.2125 0.34003 4.06581 0
M  V30 249 H 22.8875 1.47848 3.88734 0
M  V30 250 H 21.4645 -0.344673 3.71304 0
M  V30 251 N 23.6496 -1.47581 0.552962 0
M  V30 252 C 25.0606 -1.86324 0.118463 0
M  V30 253 C 25.4116 -1.46006 -1.3106 0
M  V30 254 O 24.5366 -0.861182 -1.98526 0
M  V30 255 C 25.1316 -3.3816 0.20821 0
M  V30 256 C 23.6906 -3.7601 -0.171226 0
M  V30 257 C 22.8376 -2.71634 0.557686 0
M  V30 258 H 25.7886 -1.39159 0.762928 0
M  V30 259 H 25.8096 -3.76141 -0.574278 0
M  V30 260 H 25.3216 -3.67473 1.24841 0
M  V30 261 H 23.4226 -3.52313 -1.21269 0
M  V30 262 H 23.5356 -4.78745 0.184379 0
M  V30 263 H 21.8996 -2.547 0.00125792 0
M  V30 264 H 22.6826 -3.0379 1.59896 0
M  V30 265 N 25.1277 -0.289203 -1.54924 0
M  V30 266 C 26.3737 0.323998 -2.00195 0
M  V30 267 C 26.7067 1.54441 -1.17735 0
M  V30 268 O 25.9817 1.92875 -0.250878 0
M  V30 269 C 26.2647 0.692276 -3.53383 0
M  V30 270 C 26.1177 -0.536457 -4.46589 0
M  V30 271 C 27.4367 1.52335 -4.12895 0
M  V30 272 H 24.5557 0.116289 -0.727768 0
M  V30 273 H 27.1977 -0.398954 -1.85764 0
M  V30 274 H 25.3477 1.30822 -3.65811 0
M  V30 275 H 27.0197 -1.17499 -4.46085 0
M  V30 276 H 25.2627 -1.17192 -4.1767 0
M  V30 277 H 25.9337 -0.234806 -5.515 0
M  V30 278 H 28.4097 1.00302 -4.0383 0
M  V30 279 H 27.2857 1.74982 -5.20262 0
M  V30 280 H 27.5467 2.50886 -3.64018 0
M  V30 281 N 26.6058 1.57591 -0.0167156 0
M  V30 282 C 28.0168 1.79201 0.523834 0
M  V30 283 C 28.3678 0.925796 1.72984 0
M  V30 284 O 27.4928 0.132792 2.15992 0
M  V30 285 C 28.0878 3.25 0.957091 0
M  V30 286 C 26.6468 3.47648 1.44283 0
M  V30 287 C 25.7938 2.74374 0.401757 0
M  V30 288 H 28.7448 1.56831 -0.242816 0
M  V30 289 H 28.7658 3.34031 1.82219 0
M  V30 290 H 28.2778 3.88019 0.0791415 0
M  V30 291 H 26.3788 2.89866 2.34113 0
M  V30 292 H 26.4918 4.56352 1.45877 0
M  V30 293 H 24.8558 2.39485 0.867121 0
M  V30 294 H 25.6388 3.40102 -0.467513 0
M  V30 295 N 28.0839 -0.256276 1.55502 0
M  V30 296 C 29.0469 -1.30047 1.88734 0
M  V30 297 C 30.0469 -1.4154 0.763086 0
M  V30 298 O 31.2369 -1.40403 1.03115 0
M  V30 299 C 28.3689 -2.67953 2.10747 0
M  V30 300 H 29.5619 -1.01802 2.82093 0
M  V30 301 H 27.1149 -0.495134 1.4825 0
M  V30 302 H 27.8499 -3.01351 1.19825 0
M  V30 303 H 27.6349 -2.60993 2.92617 0
M  V30 304 H 29.1249 -3.43368 2.37673 0
M  V30 305 N 29.562 -1.4872 -0.521534 0
M  V30 306 C 30.81 -1.56857 -1.27437 0
M  V30 307 C 31.131 -0.247982 -1.93417 0
M  V30 308 O 30.401 0.731151 -1.81744 0
M  V30 309 H 28.981 -0.577885 -0.473347 0
M  V30 310 H 31.643 -1.85233 -0.606205 0
M  V30 311 H 30.739 -2.35402 -2.0492 0
M  V30 312 N 31.0401 0.771051 -1.3745 0
M  V30 313 C 32.4561 1.07171 -1.18265 0
M  V30 314 C 32.6561 2.01491 -0.019287 0
M  V30 315 O 31.7121 2.44244 0.640408 0
M  V30 316 C 33.0251 1.66854 -2.50161 0
M  V30 317 C 34.5731 1.79109 -2.56689 0
M  V30 318 C 35.0481 2.42205 -3.88717 0
M  V30 319 N 36.5391 2.49655 -3.90162 0
M  V30 320 C 37.2741 2.9933 -4.8907 0
M  V30 321 N 36.7701 3.49172 -5.98374 0
M  V30 322 N 38.5631 2.9821 -4.76474 0
M  V30 323 H 30.7141 0.144796 -2.11906 0
M  V30 324 H 32.9771 0.126863 -0.939473 0
M  V30 325 H 32.6831 1.05017 -3.35655 0
M  V30 326 H 32.5571 2.6614 -2.673 0
M  V30 327 H 34.9441 2.40077 -1.71601 0
M  V30 328 H 35.0251 0.785757 -2.43433 0
M  V30 329 H 34.6691 1.81875 -4.74219 0
M  V30 330 H 34.5991 3.43345 -3.99276 0
M  V30 331 H 37.0901 2.14383 -3.11205 0
M  V30 332 H 37.4031 3.8548 -6.69795 0
M  V30 333 H 35.7481 3.47275 -6.02018 0
M  V30 334 H 38.9391 2.58572 -3.90203 0
M  V30 335 H 39.1121 3.36613 -5.53711 0
M  V30 336 N 32.5182 1.22032 0.997298 0
M  V30 337 C 33.4812 0.987909 2.06816 0
M  V30 338 C 34.4812 -0.0440084 1.6074 0
M  V30 339 O 35.6712 0.194053 1.73116 0
M  V30 340 C 32.8032 0.49132 3.37341 0
M  V30 341 H 33.9962 1.93803 2.28868 0
M  V30 342 H 31.5492 1.03838 1.16822 0
M  V30 343 H 32.2842 -0.463364 3.20973 0
M  V30 344 H 32.0692 1.23575 3.72118 0
M  V30 345 H 33.5592 0.348824 4.16141 0
M  V30 346 N 33.9963 -1.19345 1.0293 0
M  V30 347 C 35.2213 -1.93538 0.745511 0
M  V30 348 C 35.6463 -1.75007 -0.689511 0
M  V30 349 O 35.0043 -1.05265 -1.47611 0
M  V30 350 C 35.0523 -3.43336 1.10239 0
M  V30 351 O 34.1563 -4.11806 0.221289 0
M  V30 352 H 33.4973 -0.604193 0.275404 0
M  V30 353 H 36.0273 -1.5141 1.37609 0
M  V30 354 H 36.0373 -3.94004 1.05947 0
M  V30 355 H 34.7123 -3.56146 2.14786 0
M  V30 356 H 33.2893 -3.715 0.322842 0
M  V30 357 N 35.4744 -0.807222 -1.35358 0
M  V30 358 C 36.4044 -0.232509 -2.3234 0
M  V30 359 C 37.3854 0.642386 -1.57504 0
M  V30 360 O 38.5704 0.572526 -1.85569 0
M  V30 361 C 35.7004 0.619238 -3.41735 0
M  V30 362 C 34.6544 -0.157215 -4.27711 0
M  V30 363 C 33.9804 0.816273 -5.28433 0
M  V30 364 C 35.2804 -1.35656 -5.04376 0
M  V30 365 H 36.9744 -1.04276 -2.80654 0
M  V30 366 H 34.5204 -0.50288 -1.34934 0
M  V30 367 H 36.4734 1.03137 -4.08584 0
M  V30 368 H 35.1974 1.46239 -2.92031 0
M  V30 369 H 33.8564 -0.550525 -3.62443 0
M  V30 370 H 33.5044 1.65494 -4.74996 0
M  V30 371 H 33.2044 0.301067 -5.86828 0
M  V30 372 H 34.7284 1.22659 -5.98153 0
M  V30 373 H 36.1424 -1.01927 -5.64166 0
M  V30 374 H 34.5394 -1.8063 -5.7227 0
M  V30 375 H 35.6094 -2.14288 -4.34981 0
M  V30 376 N 36.9525 1.47285 -0.560781 0
M  V30 377 C 37.8625 2.33846 0.187954 0
M  V30 378 C 38.8785 1.48412 0.908293 0
M  V30 379 O 40.0545 1.81332 0.876388 0
M  V30 380 C 37.1195 3.25178 1.2025 0
M  V30 381 C 36.1805 4.26504 0.489208 0
M  V30 382 C 35.4135 5.13472 1.45542 0
M  V30 383 O 35.6365 5.02959 2.6905 0
M  V30 384 O 34.5705 5.93902 0.977963 0
M  V30 385 H 38.3965 2.99177 -0.522177 0
M  V30 386 H 35.9815 1.45903 -0.321364 0
M  V30 387 H 37.8635 3.81584 1.78805 0
M  V30 388 H 36.5385 2.6247 1.89449 0
M  V30 389 H 35.4455 3.73847 -0.137627 0
M  V30 390 H 36.7785 4.91935 -0.161399 0
M  V30 391 N 38.4306 0.297415 1.54768 0
M  V30 392 C 39.3406 -0.58983 2.27064 0
M  V30 393 C 40.3566 -1.15144 1.30453 0
M  V30 394 O 41.5326 -1.17699 1.63428 0
M  V30 395 C 38.5976 -1.74714 2.9946 0
M  V30 396 C 37.6586 -1.21997 4.11601 0
M  V30 397 C 36.8916 -2.32212 4.80535 0
M  V30 398 O 37.1146 -3.52036 4.48806 0
M  V30 399 O 36.0486 -1.99106 5.68014 0
M  V30 400 H 39.8746 -0.00348199 3.037 0
M  V30 401 H 37.4596 0.0640035 1.49263 0
M  V30 402 H 39.3416 -2.42147 3.44881 0
M  V30 403 H 38.0166 -2.32016 2.25722 0
M  V30 404 H 36.9236 -0.511458 3.70587 0
M  V30 405 H 38.2566 -0.692419 4.87305 0
M  V30 406 N 39.9087 -1.5758 0.0250728 0
M  V30 407 C 41.3197 -1.79476 -0.514323 0
M  V30 408 C 41.6707 -0.934956 -1.72491 0
M  V30 409 O 40.7957 -0.144245 -2.15919 0
M  V30 410 C 41.3907 -3.25503 -0.939842 0
M  V30 411 C 39.9497 -3.48408 -1.42438 0
M  V30 412 C 39.0967 -2.74583 -0.387201 0
M  V30 413 H 42.0477 -1.567 0.25113 0
M  V30 414 H 42.0687 -3.34992 -1.80445 0
M  V30 415 H 41.5807 -3.88056 -0.0585628 0
M  V30 416 H 39.6817 -2.91103 -2.32572 0
M  V30 417 H 39.7947 -4.57119 -1.43455 0
M  V30 418 H 38.1587 -2.39942 -0.854409 0
M  V30 419 H 38.9417 -3.39849 0.485543 0
M  V30 420 N 41.3868 0.248026 -1.55636 0
M  V30 421 C 42.7978 0.817177 -1.67866 0
M  V30 422 C 43.1488 1.86069 -0.622322 0
M  V30 423 O 42.2738 2.15157 0.231618 0
M  V30 424 C 42.8688 1.489 -3.04326 0
M  V30 425 C 41.4278 2.00587 -3.185 0
M  V30 426 C 40.5748 0.856573 -2.63739 0
M  V30 427 H 43.5258 0.0238579 -1.58682 0
M  V30 428 H 43.5468 2.35698 -2.98708 0
M  V30 429 H 43.0588 0.729279 -3.81186 0
M  V30 430 H 41.1598 2.79443 -2.4646 0
M  V30 431 H 41.2728 2.20402 -4.25393 0
M  V30 432 H 39.6368 1.25678 -2.21534 0
M  V30 433 H 40.4198 0.109953 -3.43124 0
M  V30 434 N 42.8649 1.48995 0.513639 0
M  V30 435 C 44.1419 1.48338 1.27495 0
M  V30 436 C 44.5219 0.204065 2.10111 0
M  V30 437 O 43.8699 -0.813881 2.13514 0
M  V30 438 C 44.0799 2.75498 2.14247 0
M  V30 439 C 45.4279 3.24484 2.73852 0
M  V30 440 O 46.4519 2.76528 2.24523 0
M  V30 441 O 45.3109 4.07974 3.6362 0
M  V30 442 H 42.4049 0.593149 0.576284 0
M  V30 443 H 44.9509 1.61246 0.528948 0
M  V30 444 H 43.7229 3.60109 1.53092 0
M  V30 445 H 43.3459 2.6539 2.96064 0
M  V30 446 N 44.343 -0.763751 1.37857 0
M  V30 447 C 45.591 -1.51957 1.33243 0
M  V30 448 C 45.912 -1.94835 -0.0801709 0
M  V30 449 O 45.182 -1.66894 -1.02582 0
M  V30 450 H 43.762 -0.563626 0.49024 0
M  V30 451 H 46.424 -0.908504 1.7243 0
M  V30 452 H 45.52 -2.41523 1.97669 0
M  V30 453 N 45.8211 -1.22559 -0.990812 0
M  V30 454 C 47.2321 -1.04791 -1.54518 0
M  V30 455 C 47.5831 0.387998 -1.92325 0
M  V30 456 O 46.7081 1.27328 -1.74976 0
M  V30 457 C 47.3031 -1.896 -2.80779 0
M  V30 458 C 45.8621 -1.76124 -3.32652 0
M  V30 459 C 45.0091 -1.8594 -2.05722 0
M  V30 460 H 47.9601 -1.36374 -0.811662 0
M  V30 461 H 47.9811 -1.41464 -3.53225 0
M  V30 462 H 47.4931 -2.94101 -2.53231 0
M  V30 463 H 45.5941 -0.743643 -3.65104 0
M  V30 464 H 45.7071 -2.58913 -4.03114 0
M  V30 465 H 44.0711 -1.29403 -2.19379 0
M  V30 466 H 44.8541 -2.91976 -1.80568 0
M  V30 467 N 47.2992 1.18797 -1.03562 0
M  V30 468 C 48.5242 1.9314 -0.755764 0
M  V30 469 C 48.9492 1.7537 0.68022 0
M  V30 470 O 48.3072 1.06046 1.47051 0
M  V30 471 C 48.3552 3.42747 -1.12058 0
M  V30 472 O 47.4592 4.11683 -0.243124 0
M  V30 473 H 46.8002 0.602724 -0.278604 0
M  V30 474 H 49.3302 1.50678 -1.3841 0
M  V30 475 H 49.3402 3.93437 -1.08035 0
M  V30 476 H 48.0152 3.55002 -2.16672 0
M  V30 477 H 46.5922 3.71323 -0.342539 0
M  V30 478 N 48.7773 0.814389 1.34928 0
M  V30 479 C 49.7403 0.235759 2.27984 0
M  V30 480 C 50.7403 -0.581412 1.49921 0
M  V30 481 O 51.9303 -0.398758 1.69575 0
M  V30 482 C 49.0623 -0.670433 3.34242 0
M  V30 483 H 50.2553 1.05659 2.80671 0
M  V30 484 H 47.8083 0.585614 1.44915 0
M  V30 485 H 48.5433 -1.51466 2.86755 0
M  V30 486 H 48.3283 -0.0860822 3.92005 0
M  V30 487 H 49.8183 -1.06935 4.03676 0
M  V30 488 N 50.2554 -1.46986 0.568584 0
M  V30 489 C 51.5034 -2.02041 0.0487022 0
M  V30 490 C 51.8244 -1.44408 -1.31039 0
M  V30 491 O 51.0944 -0.623477 -1.85714 0
M  V30 492 H 49.6744 -0.746849 0.015014 0
M  V30 493 H 52.3364 -1.80257 0.741168 0
M  V30 494 H 51.4324 -3.12085 -0.0308961 0
M  V30 495 N 51.7335 -0.305618 -1.54608 0
M  V30 496 C 52.6655 0.602161 -2.21149 0
M  V30 497 C 53.6785 1.09394 -1.20569 0
M  V30 498 O 54.8675 1.0106 -1.47136 0
M  V30 499 C 51.9675 1.83692 -2.84799 0
M  V30 500 C 51.1405 1.48686 -4.11353 0
M  V30 501 C 50.1995 2.57725 -4.58764 0
M  V30 502 O 49.2255 2.22623 -5.23858 0
M  V30 503 N 50.4275 3.88346 -4.31471 0
M  V30 504 H 53.1925 0.0324966 -2.99682 0
M  V30 505 H 50.7535 -0.128021 -1.61393 0
M  V30 506 H 52.7455 2.55994 -3.13448 0
M  V30 507 H 51.3155 2.31486 -2.10078 0
M  V30 508 H 50.5355 0.596269 -3.89664 0
M  V30 509 H 51.8235 1.22842 -4.93748 0
M  V30 510 H 51.2215 4.19671 -3.79331 0
M  V30 511 H 49.7785 4.56932 -4.64818 0
M  V30 512 N 53.2116 1.57565 -0.0334293 0
M  V30 513 C 54.1746 2.09393 0.932048 0
M  V30 514 C 55.1746 1.00986 1.25134 0
M  V30 515 O 56.3646 1.27129 1.19096 0
M  V30 516 C 53.4966 2.56338 2.2473 0
M  V30 517 H 54.6896 2.95984 0.483085 0
M  V30 518 H 52.2426 1.54819 0.21468 0
M  V30 519 H 52.9776 1.7309 2.74245 0
M  V30 520 H 52.7626 3.35542 2.02865 0
M  V30 521 H 54.2526 2.96646 2.93923 0
M  V30 522 N 54.6897 -0.239769 1.55765 0
M  V30 523 C 55.9177 -0.98417 1.81994 0
M  V30 524 C 56.3327 -1.7867 0.610124 0
M  V30 525 O 55.6897 -1.77571 -0.421271 0
M  V30 526 C 55.7407 -1.91635 3.06526 0
M  V30 527 O 55.4617 -1.14629 4.22838 0
M  V30 528 C 56.9627 -2.77616 3.45607 0
M  V30 529 H 54.1827 -0.28928 0.605441 0
M  V30 530 H 56.7267 -0.260499 2.02834 0
M  V30 531 H 54.8817 -2.5942 2.87715 0
M  V30 532 H 55.2957 -1.77745 4.93464 0
M  V30 533 H 56.7697 -3.38759 4.35828 0
M  V30 534 H 57.2467 -3.4909 2.6652 0
M  V30 535 H 57.8527 -2.15271 3.66795 0
M  V30 536 N 56.1678 -1.49265 -0.50573 0
M  V30 537 C 57.4158 -1.582 -1.25766 0
M  V30 538 C 57.7368 -0.268482 -1.93143 0
M  V30 539 O 57.0068 0.711833 -1.8251 0
M  V30 540 H 55.5868 -0.582873 -0.467191 0
M  V30 541 H 58.2488 -1.85865 -0.586525 0
M  V30 542 H 57.3448 -2.37563 -2.02412 0
M  V30 543 N 57.6459 0.756429 -1.3826 0
M  V30 544 C 59.0569 1.33359 -1.30661 0
M  V30 545 C 59.4079 1.96161 0.0388875 0
M  V30 546 O 58.5329 1.94874 0.940918 0
M  V30 547 C 59.1279 2.42477 -2.36622 0
M  V30 548 C 57.6869 2.95922 -2.3261 0
M  V30 549 C 56.8339 1.69275 -2.19639 0
M  V30 550 H 59.7849 0.55552 -1.4866 0
M  V30 551 H 59.8059 3.22345 -2.02174 0
M  V30 552 H 59.3179 1.96739 -3.34538 0
M  V30 553 H 57.4189 3.45996 -1.38267 0
M  V30 554 H 57.5319 3.50494 -3.26636 0
M  V30 555 H 55.8959 1.92793 -1.66442 0
M  V30 556 H 56.6789 1.25619 -3.19491 0
M  V30 557 N 59.124 1.23083 0.984299 0
M  V30 558 C 60.372 1.05848 1.72165 0
M  V30 559 C 60.693 -0.406049 1.90726 0
M  V30 560 O 59.963 -1.29139 1.47309 0
M  V30 561 H 58.543 0.388685 0.637913 0
M  V30 562 H 61.205 1.54736 1.18503 0
M  V30 563 H 60.301 1.54327 2.71274 0
M  V30 564 N 60.6021 -1.18246 1.0419 0
M  V30 565 C 61.5121 -2.25574 0.644476 0
M  V30 566 C 62.5281 -1.70845 -0.329826 0
M  V30 567 O 63.7041 -2.00554 -0.184443 0
M  V30 568 C 60.7691 -3.46697 0.014877 0
M  V30 569 C 59.8301 -4.16554 1.03834 0
M  V30 570 C 59.0631 -5.31894 0.438692 0
M  V30 571 O 59.2861 -5.65385 -0.754752 0
M  V30 572 O 58.2201 -5.90459 1.168 0
M  V30 573 H 62.0461 -2.61836 1.53869 0
M  V30 574 H 59.6311 -1.25352 0.812854 0
M  V30 575 H 61.5131 -4.20062 -0.335538 0
M  V30 576 H 60.1881 -3.12255 -0.853138 0
M  V30 577 H 59.0951 -3.45251 1.44057 0
M  V30 578 H 60.4281 -4.54998 1.87716 0
M  V30 579 N 62.0802 -0.821533 -1.34494 0
M  V30 580 C 63.3282 -0.408139 -1.97936 0
M  V30 581 C 63.6492 1.03193 -1.65457 0
M  V30 582 O 62.9192 1.71622 -0.944595 0
M  V30 583 H 61.4992 -0.147928 -0.732206 0
M  V30 584 H 64.1612 -1.05067 -1.64155 0
M  V30 585 H 63.2572 -0.52601 -3.07635 0
M  V30 586 N 63.5583 1.46682 -0.576371 0
M  V30 587 C 64.9743 1.57822 -0.237562 0
M  V30 588 C 65.1743 1.57237 1.26011 0
M  V30 589 O 64.2303 1.48596 2.04146 0
M  V30 590 C 65.5433 2.87499 -0.881168 0
M  V30 591 C 67.0913 3.01119 -0.85417 0
M  V30 592 C 67.5663 4.33524 -1.4772 0
M  V30 593 N 69.0573 4.40207 -1.44125 0
M  V30 594 C 69.7923 5.4126 -1.89276 0
M  V30 595 N 69.2883 6.49021 -2.42371 0
M  V30 596 N 71.0813 5.32422 -1.80231 0
M  V30 597 H 63.2323 1.45306 -1.54919 0
M  V30 598 H 65.4953 0.692733 -0.647167 0
M  V30 599 H 65.2013 2.9372 -1.93447 0
M  V30 600 H 65.0753 3.75224 -0.385592 0
M  V30 601 H 67.4623 2.94485 0.190491 0
M  V30 602 H 67.5433 2.14887 -1.3877 0
M  V30 603 H 67.1873 4.40916 -2.52103 0
M  V30 604 H 67.1173 5.1852 -0.918947 0
M  V30 605 H 69.6083 3.62931 -1.05307 0
M  V30 606 H 69.9213 7.2233 -2.74698 0
M  V30 607 H 68.2663 6.49858 -2.46393 0
M  V30 608 H 71.4573 4.47137 -1.38514 0
M  V30 609 H 71.6303 6.11034 -2.15735 0
M  V30 610 N 65.0364 0.313813 1.54444 0
M  V30 611 C 66.4524 -0.0391619 1.59552 0
M  V30 612 C 66.6524 -1.51322 1.33056 0
M  V30 613 O 65.7084 -2.26782 1.11022 0
M  V30 614 C 67.0214 0.370302 2.98411 0
M  V30 615 C 68.5694 0.320139 3.11358 0
M  V30 616 C 69.0444 0.704617 4.52547 0
M  V30 617 N 70.5354 0.657645 4.58508 0
M  V30 618 C 71.2704 0.927453 5.6585 0
M  V30 619 N 70.7664 1.26389 6.81174 0
M  V30 620 N 72.5594 0.853662 5.5558 0
M  V30 621 H 64.7104 1.27433 1.69925 0
M  V30 622 H 66.9734 0.517511 0.794284 0
M  V30 623 H 66.6794 1.39694 3.22767 0
M  V30 624 H 66.5534 -0.269619 3.76235 0
M  V30 625 H 68.9404 -0.697275 2.86744 0
M  V30 626 H 69.0214 0.99486 2.35661 0
M  V30 627 H 68.6654 1.7199 4.77893 0
M  V30 628 H 68.5954 0.00768843 5.26599 0
M  V30 629 H 71.0864 0.409067 3.75679 0
M  V30 630 H 71.3994 1.4554 7.58972 0
M  V30 631 H 69.7444 1.30206 6.82694 0
M  V30 632 H 72.9354 0.590383 4.64362 0
M  V30 633 H 73.1084 1.0673 6.3915 0
M  V30 634 N 66.5145 -1.57545 0.0417849 0
M  V30 635 C 67.7395 -1.97035 -0.647455 0
M  V30 636 C 68.1645 -0.918775 -1.64135 0
M  V30 637 O 67.5225 0.119006 -1.80909 0
M  V30 638 C 67.5705 -3.35609 -1.31905 0
M  V30 639 O 66.6745 -3.3287 -2.43457 0
M  V30 640 H 66.0155 -0.64211 -0.169086 0
M  V30 641 H 68.5455 -2.04318 0.107399 0
M  V30 642 H 68.5555 -3.72126 -1.67291 0
M  V30 643 H 67.2305 -4.11685 -0.590586 0
M  V30 644 H 65.8075 -3.08087 -2.10088 0
M  V30 645 N 67.9926 0.231505 -1.5589 0
M  V30 646 C 69.2206 0.974505 -1.82513 0
M  V30 647 C 69.6356 1.78344 -0.619591 0
M  V30 648 O 68.9926 1.77792 0.411848 0
M  V30 649 C 69.0436 1.90007 -3.07538 0
M  V30 650 O 68.7646 1.12385 -4.2344 0
M  V30 651 C 70.2656 2.75779 -3.47075 0
M  V30 652 H 67.4856 0.286065 -0.606966 0
M  V30 653 H 70.0296 0.249739 -2.02969 0
M  V30 654 H 68.1846 2.57891 -2.89086 0
M  V30 655 H 68.5986 1.75125 -4.944 0
M  V30 656 H 70.0726 3.36443 -4.37619 0
M  V30 657 H 70.5496 3.47672 -2.68367 0
M  V30 658 H 71.1556 2.13323 -3.67931 0
M  V30 659 N 69.4707 1.49531 0.497807 0
M  V30 660 C 70.3807 1.69176 1.62532 0
M  V30 661 C 71.3967 0.5744 1.64246 0
M  V30 662 O 72.5727 0.849497 1.82608 0
M  V30 663 C 69.6377 1.75695 2.98885 0
M  V30 664 C 68.6987 2.9929 3.07773 0
M  V30 665 C 67.9317 3.05488 4.37622 0
M  V30 666 O 68.1547 2.19192 5.26603 0
M  V30 667 O 67.0887 3.9798 4.51548 0
M  V30 668 H 70.9147 2.647 1.48887 0
M  V30 669 H 68.4997 1.3331 0.674441 0
M  V30 670 H 70.3817 1.82317 3.79919 0
M  V30 671 H 69.0567 0.8335 3.12785 0
M  V30 672 H 67.9637 2.98183 2.25915 0
M  V30 673 H 69.2967 3.91125 2.98801 0
M  V30 674 N 70.9488 -0.749086 1.3866 0
M  V30 675 C 72.1738 -1.54344 1.38538 0
M  V30 676 C 72.5988 -1.88088 -0.0216655 0
M  V30 677 O 71.9568 -1.50899 -1.00494 0
M  V30 678 C 72.0048 -2.8164 2.25192 0
M  V30 679 O 71.1088 -3.7698 1.67212 0
M  V30 680 H 70.4498 -0.466654 0.472367 0
M  V30 681 H 72.9798 -0.925355 1.82478 0
M  V30 682 H 72.9898 -3.30519 2.3921 0
M  V30 683 H 71.6648 -2.56411 3.27454 0
M  V30 684 H 70.2418 -3.35699 1.6236 0
M  V30 685 N 72.4269 -1.23603 -0.977757 0
M  V30 686 C 73.3369 -1.03632 -2.1047 0
M  V30 687 C 74.3529 0.0199435 -1.73989 0
M  V30 688 O 75.5289 -0.176076 -2.00629 0
M  V30 689 C 72.5939 -0.63276 -3.40877 0
M  V30 690 C 71.6549 -1.76437 -3.91367 0
M  V30 691 C 70.8879 -1.37997 -5.15551 0
M  V30 692 O 71.1109 -0.265357 -5.69782 0
M  V30 693 O 70.0449 -2.20201 -5.60174 0
M  V30 694 H 73.8709 -1.98086 -2.30208 0
M  V30 695 H 71.4559 -1.02332 -1.08851 0
M  V30 696 H 73.3379 -0.418761 -4.19314 0
M  V30 697 H 72.0129 0.282754 -3.22463 0
M  V30 698 H 70.9199 -2.03304 -3.14036 0
M  V30 699 H 72.2529 -2.6583 -4.14241 0
M  V30 700 N 73.905 1.17692 -1.04816 0
M  V30 701 C 75.151 1.88137 -0.75711 0
M  V30 702 C 75.484 1.80604 0.713841 0
M  V30 703 O 74.759 1.21146 1.52164 0
M  V30 704 C 75.042 3.38318 -1.2334 0
M  V30 705 C 74.895 3.54622 -2.76701 0
M  V30 706 C 76.214 4.32214 -0.829415 0
M  V30 707 H 73.333 0.683163 -0.27651 0
M  V30 708 H 75.975 1.38424 -1.30149 0
M  V30 709 H 74.125 3.80787 -0.770286 0
M  V30 710 H 75.797 3.21194 -3.31107 0
M  V30 711 H 74.04 2.97026 -3.16161 0
M  V30 712 H 74.711 4.60028 -3.05088 0
M  V30 713 H 77.187 3.97565 -1.22805 0
M  V30 714 H 76.063 5.35838 -1.19033 0
M  V30 715 H 76.324 4.41294 0.266891 0
M  V30 716 N 75.3831 0.828654 1.34056 0
M  V30 717 C 76.6131 0.431993 2.02033 0
M  V30 718 C 77.0211 -0.96844 1.62536 0
M  V30 719 O 76.3641 -1.6391 0.829408 0
M  V30 720 C 76.4261 0.461224 3.56529 0
M  V30 721 C 76.0901 1.81599 4.1937 0
M  V30 722 C 77.0871 2.7777 4.39477 0
M  V30 723 C 74.7721 2.10604 4.56017 0
M  V30 724 C 76.7661 4.01115 4.95364 0
M  V30 725 C 74.4531 3.34207 5.11614 0
M  V30 726 C 75.4511 4.2928 5.31232 0
M  V30 727 O 75.1391 5.50699 5.8565 0
M  V30 728 H 74.8711 0.170943 0.654029 0
M  V30 729 H 77.4251 1.11988 1.72185 0
M  V30 730 H 75.6551 -0.283388 3.8566 0
M  V30 731 H 77.3441 0.0838149 4.05813 0
M  V30 732 H 78.1101 2.56659 4.11523 0
M  V30 733 H 73.9891 1.37402 4.40047 0
M  V30 734 H 77.5331 4.75333 5.10592 0
M  V30 735 H 73.4301 3.55179 5.38997 0
M  V30 736 H 74.1981 5.52298 6.04077 0
M  V30 737 N 76.8612 -1.46375 0.584142 0
M  V30 738 C 78.1382 -1.956 0.0033388 0
M  V30 739 C 78.5182 -1.52679 -1.45782 0
M  V30 740 O 77.8662 -0.77816 -2.14842 0
M  V30 741 C 78.0762 -3.48551 0.176891 0
M  V30 742 C 79.4242 -4.24576 0.0454609 0
M  V30 743 O 80.4482 -3.56043 0.105801 0
M  V30 744 O 79.3072 -5.46427 -0.0890376 0
M  V30 745 H 76.4012 -0.825547 -0.0490066 0
M  V30 746 H 78.9472 -1.56652 0.65256 0
M  V30 747 H 77.7192 -3.72683 1.1926 0
M  V30 748 H 77.3422 -3.94332 -0.508695 0
M  V30 749 N 78.3393 -0.321999 -1.54275 0
M  V30 750 C 79.6163 0.335232 -1.92706 0
M  V30 751 C 79.9963 1.70006 -1.25145 0
M  V30 752 O 79.3443 2.25067 -0.394596 0
M  V30 753 C 79.5543 0.429008 -3.46353 0
M  V30 754 C 80.9023 0.690029 -4.18956 0
M  V30 755 O 81.9263 0.511992 -3.52501 0
M  V30 756 O 80.7853 1.03338 -5.36641 0
M  V30 757 H 77.8793 0.191143 -0.804608 0
M  V30 758 H 80.4253 -0.3716 -1.65581 0
M  V30 759 H 79.1973 -0.529611 -3.87699 0
M  V30 760 H 78.8203 1.18348 -3.79578 0
M  V30 761 N 79.8174 1.5752 -0.0501392 0
M  V30 762 C 81.0654 1.9227 0.622642 0
M  V30 763 C 81.3864 0.929083 1.71444 0
M  V30 764 O 80.6564 -0.0262186 1.95882 0
M  V30 765 H 79.2364 0.709739 0.232981 0
M  V30 766 H 81.8984 1.94628 -0.102898 0
M  V30 767 H 80.9944 2.93479 1.06191 0
M  V30 768 N 81.2955 -0.223234 1.56011 0
M  V30 769 C 82.5235 -0.964812 1.83027 0
M  V30 770 C 82.9385 -1.78013 0.62904 0
M  V30 771 O 82.2955 -1.78008 -0.402414 0
M  V30 772 C 82.3465 -1.88373 3.08542 0
M  V30 773 O 82.0675 -1.10137 4.2403 0
M  V30 774 C 83.5685 -2.73934 3.48533 0
M  V30 775 H 80.7885 -0.282842 0.608475 0
M  V30 776 H 83.3325 -0.238971 2.03099 0
M  V30 777 H 81.4875 -2.56354 2.9045 0
M  V30 778 H 81.9015 -1.72501 4.95322 0
M  V30 779 H 83.3755 -3.34117 4.39397 0
M  V30 780 H 83.8525 -3.46244 2.70207 0
M  V30 781 H 84.4585 -2.11369 3.69057 0
M  V30 782 N 82.7736 -1.49793 -0.48987 0
M  V30 783 C 83.7216 -1.67783 -1.61095 0
M  V30 784 C 84.7156 -0.543683 -1.60438 0
M  V30 785 O 85.9216 -0.723647 -1.64813 0
M  V30 786 H 82.2966 -0.529255 -0.534222 0
M  V30 787 H 84.2676 -2.61861 -1.43078 0
M  V30 788 C 83.0166 -1.77191 -2.99164 0
M  V30 789 H 82.3396 -2.63841 -3.0038 0
M  V30 790 H 83.7796 -1.93809 -3.77113 0
M  V30 791 C 82.2386 -0.519203 -3.32875 0
M  V30 792 O 82.7686 0.350124 -4.00171 0
M  V30 793 N 80.9746 -0.378816 -2.8812 0
M  V30 794 H 80.5216 -1.08725 -2.33531 0
M  V30 795 H 80.4796 0.458239 -3.11043 0
M  V30 796 N 84.2517 0.741722 -1.39055 0
M  V30 797 C 85.4797 1.53098 -1.39171 0
M  V30 798 C 85.8947 1.88794 0.0155099 0
M  V30 799 O 85.2517 1.53626 0.985159 0
M  V30 800 C 85.3027 2.82274 -2.2584 0
M  V30 801 O 85.0237 2.48097 -3.61081 0
M  V30 802 C 86.5247 3.76343 -2.34266 0
M  V30 803 H 83.7447 0.473335 -0.4756 0
M  V30 804 H 86.2887 0.917045 -1.82785 0
M  V30 805 H 84.4437 3.40015 -1.85656 0
M  V30 806 H 84.8577 3.31029 -4.06842 0
M  V30 807 H 86.3317 4.63898 -2.9917 0
M  V30 808 H 86.8087 4.17619 -1.35982 0
M  V30 809 H 87.4147 3.24523 -2.74891 0
M  V30 810 N 85.7298 1.2412 0.971189 0
M  V30 811 C 86.9768 1.07881 1.71371 0
M  V30 812 C 87.3048 -0.382901 1.90694 0
M  V30 813 O 86.5598 -1.29945 1.46331 0
M  V30 814 C 86.8588 1.75983 3.11071 0
M  V30 815 C 86.5248 3.25909 3.11599 0
M  V30 816 C 85.1868 3.66813 3.11451 0
M  V30 817 C 87.5388 4.21771 3.062 0
M  V30 818 C 84.8668 5.02021 3.03631 0
M  V30 819 C 87.2188 5.56982 2.99923 0
M  V30 820 C 85.8828 5.97237 2.98102 0
M  V30 821 H 85.1528 0.394764 0.62709 0
M  V30 822 H 87.7998 1.54176 1.13587 0
M  V30 823 H 86.1048 1.22072 3.72298 0
M  V30 824 H 87.8018 1.60887 3.6731 0
M  V30 825 H 84.3918 2.93353 3.12477 0
M  V30 826 H 88.5758 3.91172 3.05447 0
M  V30 827 H 83.8318 5.32411 3.0058 0
M  V30 828 H 88.0058 6.30969 2.94704 0
M  V30 829 H 85.6328 7.01967 2.91798 0
M  V30 830 N 87.2079 -1.17134 1.05439 0
M  V30 831 C 88.4549 -1.87456 0.765942 0
M  V30 832 C 88.7829 -1.81189 -0.707153 0
M  V30 833 O 88.0379 -1.21633 -1.5331 0
M  V30 834 C 88.3369 -3.36833 1.19491 0
M  V30 835 C 88.0029 -3.63301 2.67063 0
M  V30 836 C 86.6649 -3.70234 3.07376 0
M  V30 837 C 89.0169 -3.74575 3.62413 0
M  V30 838 C 86.3449 -3.85933 4.41896 0
M  V30 839 C 88.6969 -3.91793 4.9667 0
M  V30 840 C 87.3609 -3.96966 5.36633 0
M  V30 841 H 86.6309 -0.685948 0.280278 0
M  V30 842 H 89.2779 -1.38556 1.32192 0
M  V30 843 H 87.5829 -3.87807 0.557969 0
M  V30 844 H 89.2799 -3.89611 0.948893 0
M  V30 845 H 85.8699 -3.58532 2.34846 0
M  V30 846 H 90.0539 -3.68537 3.32406 0
M  V30 847 H 85.3099 -3.88187 4.72357 0
M  V30 848 H 89.4839 -3.99458 5.70444 0
M  V30 849 H 87.1109 -4.08883 6.40874 0
M  V30 850 N 88.686 -0.835752 -1.33615 0
M  V30 851 C 89.932 -0.439817 -1.98588 0
M  V30 852 C 90.287 0.989274 -1.65019 0
M  V30 853 O 89.58 1.68168 -0.918159 0
M  V30 854 C 89.774 -0.593925 -3.52431 0
M  V30 855 C 89.603 -2.03644 -4.00948 0
M  V30 856 C 88.373 -2.67103 -4.28934 0
M  V30 857 C 90.571 -3.00479 -4.17393 0
M  V30 858 N 88.553 -4.02462 -4.6357 0
M  V30 859 C 89.924 -4.20777 -4.55353 0
M  V30 860 C 91.979 -2.96926 -3.99674 0
M  V30 861 C 90.682 -5.37994 -4.77447 0
M  V30 862 C 92.708 -4.1337 -4.22941 0
M  V30 863 C 92.07 -5.32422 -4.61201 0
M  V30 864 H 88.169 -0.209303 -0.75347 0
M  V30 865 H 90.753 -1.08316 -1.61789 0
M  V30 866 H 88.924 0.019599 -3.88395 0
M  V30 867 H 90.656 -0.169738 -4.04344 0
M  V30 868 H 87.411 -2.18259 -4.20309 0
M  V30 869 H 87.835 -4.72232 -4.85104 0
M  V30 870 H 92.477 -2.06015 -3.69212 0
M  V30 871 H 90.195 -6.29451 -5.06771 0
M  V30 872 H 93.781 -4.12034 -4.10754 0
M  V30 873 H 92.661 -6.21027 -4.78848 0
M  V30 874 N 90.1641 1.46063 -0.591896 0
M  V30 875 C 91.5801 1.57561 -0.254288 0
M  V30 876 C 91.7801 1.58565 1.24336 0
M  V30 877 O 90.8361 1.50753 2.02558 0
M  V30 878 C 92.1491 2.86549 -0.911611 0
M  V30 879 C 93.6971 3.00197 -0.886059 0
M  V30 880 C 94.1721 4.31933 -1.5231 0
M  V30 881 N 95.6631 4.38654 -1.48786 0
M  V30 882 C 96.3981 5.39222 -1.95006 0
M  V30 883 N 95.8941 6.46414 -2.49241 0
M  V30 884 N 97.6871 5.3048 -1.85868 0
M  V30 885 H 89.8381 1.43655 -1.56451 0
M  V30 886 H 92.1011 0.68583 -0.654478 0
M  V30 887 H 91.8071 2.91651 -1.96551 0
M  V30 888 H 91.6811 3.74794 -0.425368 0
M  V30 889 H 94.0681 2.9467 0.159246 0
M  V30 890 H 94.1491 2.13403 -1.41041 0
M  V30 891 H 93.7931 4.38217 -2.56765 0
M  V30 892 H 93.7231 5.17516 -0.973891 0
M  V30 893 H 96.2141 3.61793 -1.09151 0
M  V30 894 H 96.5271 7.19376 -2.82344 0
M  V30 895 H 94.8721 6.47208 -2.53272 0
M  V30 896 H 98.0631 4.45643 -1.43248 0
M  V30 897 H 98.2361 6.08711 -2.22204 0
M  V30 898 N 91.6422 0.330177 1.54103 0
M  V30 899 C 92.6052 -0.520144 2.2322 0
M  V30 900 C 93.6052 -1.03828 1.22786 0
M  V30 901 O 94.7952 -0.929652 1.4732 0
M  V30 902 C 91.9272 -1.72317 2.94142 0
M  V30 903 H 93.1202 0.0841605 2.99782 0
M  V30 904 H 90.6732 0.0813433 1.56088 0
M  V30 905 H 91.4082 -2.36653 2.21734 0
M  V30 906 H 91.1932 -1.35898 3.67796 0
M  V30 907 H 92.6832 -2.3266 3.46784 0
M  V30 908 N 93.1203 -1.57491 0.0584922 0
M  V30 909 C 94.0703 -2.08474 -0.923188 0
M  V30 910 C 95.0543 -0.991479 -1.26722 0
M  V30 911 O 96.2463 -1.25473 -1.24842 0
M  V30 912 C 93.3753 -2.6392 -2.19548 0
M  V30 913 C 92.4613 -3.80227 -1.87852 0
M  V30 914 N 92.8523 -4.89714 -1.26546 0
M  V30 915 C 91.1503 -3.89271 -2.17679 0
M  V30 916 C 91.8513 -5.70689 -1.12644 0
M  V30 917 N 90.8273 -5.18531 -1.63176 0
M  V30 918 H 94.6293 -2.90517 -0.444653 0
M  V30 919 H 92.1433 -1.61745 -0.145764 0
M  V30 920 H 94.1403 -2.98752 -2.9078 0
M  V30 921 H 92.8003 -1.83318 -2.68001 0
M  V30 922 H 93.8113 -5.09358 -0.936757 0
M  V30 923 H 90.4883 -3.19623 -2.68602 0
M  V30 924 H 91.8783 -6.6875 -0.6499 0
M  V30 925 N 94.5984 0.214957 -1.56127 0
M  V30 926 C 95.8264 0.955092 -1.83536 0
M  V30 927 C 96.2414 1.77677 -0.638472 0
M  V30 928 O 95.5984 1.78219 0.392968 0
M  V30 929 C 95.6494 1.86734 -3.09536 0
M  V30 930 O 95.3704 1.07887 -4.24608 0
M  V30 931 C 96.8714 2.72082 -3.4998 0
M  V30 932 H 94.0914 0.279611 -0.609966 0
M  V30 933 H 96.6354 0.228197 -2.03223 0
M  V30 934 H 94.7904 2.5481 -2.91806 0
M  V30 935 H 95.2044 1.69872 -4.9623 0
M  V30 936 H 96.6784 3.31782 -4.41163 0
M  V30 937 H 97.1554 3.44806 -2.7204 0
M  V30 938 H 97.7614 2.09409 -3.70173 0
M  V30 939 N 96.0765 1.50051 0.48192 0
M  V30 940 C 97.0065 1.71046 1.58951 0
M  V30 941 C 97.9875 0.559288 1.60642 0
M  V30 942 O 99.1725 0.797243 1.77081 0
M  V30 943 C 96.3025 1.79462 2.97339 0
M  V30 944 C 95.2565 2.94558 3.10515 0
M  V30 945 C 94.5825 2.88105 4.50444 0
M  V30 946 C 95.8825 4.35227 2.88747 0
M  V30 947 H 97.5765 2.6378 1.41635 0
M  V30 948 H 95.1225 1.26936 0.679942 0
M  V30 949 H 97.0755 1.92734 3.74742 0
M  V30 950 H 95.7995 0.833412 3.15788 0
M  V30 951 H 94.4585 2.80918 2.35543 0
M  V30 952 H 94.1065 1.89853 4.65795 0
M  V30 953 H 93.8065 3.65366 4.60197 0
M  V30 954 H 95.3305 3.03412 5.29881 0
M  V30 955 H 96.7445 4.49449 3.55905 0
M  V30 956 H 95.1415 5.13856 3.09955 0
M  V30 957 H 96.2115 4.48347 1.84696 0
M  V30 958 N 97.5546 -0.734337 1.39446 0
M  V30 959 C 98.7826 -1.52358 1.39981 0
M  V30 960 C 99.1976 -1.88799 -0.0054975 0
M  V30 961 O 98.5546 -1.54146 -0.976998 0
M  V30 962 C 98.6056 -2.81072 2.27333 0
M  V30 963 O 98.3266 -2.46178 3.62392 0
M  V30 964 C 99.8276 -3.75096 2.36259 0
M  V30 965 H 97.0476 -0.470806 0.478103 0
M  V30 966 H 99.5916 -0.907339 1.83269 0
M  V30 967 H 97.7466 -3.39026 1.87457 0
M  V30 968 H 98.1606 -3.28866 4.08592 0
M  V30 969 H 99.6346 -4.62305 3.01626 0
M  V30 970 H 100.112 -4.16892 1.38194 0
M  V30 971 H 100.718 -3.23061 2.76608 0
M  V30 972 N 99.0327 -1.24633 -0.964593 0
M  V30 973 C 100.279 -1.08949 -1.71049 0
M  V30 974 C 100.612 0.370302 -1.90637 0
M  V30 975 O 99.8867 1.27349 -1.47011 0
M  V30 976 C 100.17 -1.83329 -3.0994 0
M  V30 977 C 100.023 -3.37077 -2.97824 0
M  V30 978 C 101.342 -1.60846 -4.09654 0
M  V30 979 H 98.4607 -0.397178 -0.620821 0
M  V30 980 H 101.103 -1.5334 -1.12191 0
M  V30 981 H 99.2527 -1.45597 -3.60186 0
M  V30 982 H 100.925 -3.84425 -2.5498 0
M  V30 983 H 99.1677 -3.65298 -2.33965 0
M  V30 984 H 99.8387 -3.84324 -3.96231 0
M  V30 985 H 102.315 -1.93674 -3.68279 0
M  V30 986 H 101.191 -2.1534 -5.04896 0
M  V30 987 H 101.452 -0.547434 -4.38698 0
M  V30 988 N 100.511 1.16574 -1.06058 0
M  V30 989 C 101.441 2.23057 -0.690488 0
M  V30 990 C 102.422 1.67141 0.315901 0
M  V30 991 O 103.607 1.93253 0.191556 0
M  V30 992 C 100.737 3.47222 -0.073625 0
M  V30 993 C 99.6908 4.16016 -1.00573 0
M  V30 994 C 99.0168 5.34104 -0.252289 0
M  V30 995 C 100.317 4.67264 -2.33371 0
M  V30 996 H 102.011 2.54271 -1.58072 0
M  V30 997 H 99.5568 1.22218 -0.76149 0
M  V30 998 H 101.51 4.20939 0.19714 0
M  V30 999 H 100.234 3.15302 0.85161 0
M  V30 1000 H 98.8928 3.44223 -1.2612 0
M  V30 1001 H 98.5408 4.98437 0.675988 0
M  V30 1002 H 98.2408 5.81072 -0.873455 0
M  V30 1003 H 99.7648 6.10599 0.0109857 0
M  V30 1004 H 101.179 5.32573 -2.12223 0
M  V30 1005 H 99.5758 5.24843 -2.90963 0
M  V30 1006 H 100.646 3.83602 -2.96611 0
M  V30 1007 N 101.989 0.842826 1.3317 0
M  V30 1008 C 103.236 0.440447 1.97652 0
M  V30 1009 C 103.564 -1.00123 1.6675 0
M  V30 1010 O 102.819 -1.7155 0.941761 0
M  V30 1011 C 103.118 0.612607 3.52111 0
M  V30 1012 C 102.784 2.02297 4.02972 0
M  V30 1013 C 101.446 2.40874 4.16573 0
M  V30 1014 C 103.798 2.94402 4.30089 0
M  V30 1015 C 101.126 3.70852 4.54627 0
M  V30 1016 C 103.478 4.23865 4.69597 0
M  V30 1017 C 102.142 4.62392 4.81404 0
M  V30 1018 H 101.412 0.161171 0.72326 0
M  V30 1019 H 104.059 1.07061 1.58777 0
M  V30 1020 H 102.364 -0.100849 3.9167 0
M  V30 1021 H 104.061 0.2815 4.00011 0
M  V30 1022 H 100.651 1.71338 3.92863 0
M  V30 1023 H 104.835 2.65835 4.19101 0
M  V30 1024 H 100.091 4.00501 4.61962 0
M  V30 1025 H 104.265 4.95306 4.89536 0
M  V30 1026 H 101.892 5.63154 5.10648 0
M  V30 1027 N 103.467 -1.45747 0.599634 0
M  V30 1028 C 104.716 -2.01502 0.0893511 0
M  V30 1029 C 105.029 -1.4748 -1.28488 0
M  V30 1030 O 106.235 -1.95161 -1.88745 0
M  V30 1031 C 104.691 -3.59735 0.109082 0
M  V30 1032 C 104.299 -4.22754 1.48267 0
M  V30 1033 C 106.043 -4.23085 -0.346374 0
M  V30 1034 C 103.95 -5.73115 1.45921 0
M  V30 1035 H 102.88 -0.753417 0.0296347 0
M  V30 1036 H 105.531 -1.67303 0.753788 0
M  V30 1037 H 103.913 -3.91087 -0.621854 0
M  V30 1038 H 105.087 -4.02987 2.23468 0
M  V30 1039 H 103.402 -3.71567 1.87955 0
M  V30 1040 H 105.999 -5.33327 -0.38298 0
M  V30 1041 H 106.342 -3.93201 -1.36743 0
M  V30 1042 H 106.875 -3.9642 0.331038 0
M  V30 1043 H 103.614 -6.07685 2.45762 0
M  V30 1044 H 103.134 -5.95097 0.749665 0
M  V30 1045 H 104.813 -6.3616 1.17941 0
M  V30 1046 N 104.945 -0.338344 -1.53925 0
M  V30 1047 C 105.875 0.51328 -2.27789 0
M  V30 1048 C 106.856 1.107 -1.29149 0
M  V30 1049 O 108.041 1.12937 -1.57984 0
M  V30 1050 C 105.171 1.66697 -3.04679 0
M  V30 1051 C 104.125 1.20183 -4.1078 0
M  V30 1052 C 103.451 2.44363 -4.75595 0
M  V30 1053 C 104.751 0.30605 -5.21403 0
M  V30 1054 H 106.445 -0.102883 -2.99223 0
M  V30 1055 H 103.991 -0.0509219 -1.4391 0
M  V30 1056 H 105.944 2.26915 -3.55088 0
M  V30 1057 H 104.668 2.30995 -2.30887 0
M  V30 1058 H 103.327 0.622499 -3.61276 0
M  V30 1059 H 102.975 3.07057 -3.98403 0
M  V30 1060 H 102.675 2.13925 -5.47275 0
M  V30 1061 H 104.199 3.05317 -5.28786 0
M  V30 1062 H 105.613 0.814929 -5.67478 0
M  V30 1063 H 104.01 0.0937929 -6.00027 0
M  V30 1064 H 105.08 -0.65921 -4.80398 0
M  V30 1065 N 106.423 1.57458 -0.0668435 0
M  V30 1066 C 107.651 1.97624 0.612565 0
M  V30 1067 C 108.066 0.94502 1.63447 0
M  V30 1068 O 107.423 -0.0689276 1.8237 0
M  V30 1069 C 107.474 3.37869 1.28555 0
M  V30 1070 O 107.195 4.3704 0.304557 0
M  V30 1071 C 108.696 3.92882 2.05325 0
M  V30 1072 H 105.916 0.650045 0.166381 0
M  V30 1073 H 108.46 2.04035 -0.137782 0
M  V30 1074 H 106.615 3.3256 1.98702 0
M  V30 1075 H 107.029 5.18565 0.786779 0
M  V30 1076 H 108.503 4.93247 2.47812 0
M  V30 1077 H 108.98 3.29156 2.9078 0
M  V30 1078 H 109.586 4.01577 1.40056 0
M  V30 1079 N 107.901 -0.206675 1.56239 0
M  V30 1080 C 109.141 -0.93574 1.81723 0
M  V30 1081 C 109.505 -1.80927 0.642609 0
M  V30 1082 O 110.706 -2.57323 0.777081 0
M  V30 1083 C 108.977 -1.74012 3.12177 0
M  V30 1084 S 110.536 -2.52279 3.59028 0
M  V30 1085 H 107.354 -0.314065 0.637875 0
M  V30 1086 H 109.956 -0.200071 1.94474 0
M  V30 1087 H 108.66 -1.0888 3.95693 0
M  V30 1088 H 108.191 -2.51782 3.02274 0
M  V30 1089 H 110.206 -3.76209 3.23545 0
M  V30 1090 N 109.379 -1.50304 -0.473955 0
M  V30 1091 C 110.607 -1.64902 -1.24959 0
M  V30 1092 C 111.022 -0.331198 -1.85872 0
M  V30 1093 O 110.379 0.68652 -1.69095 0
M  V30 1094 C 110.43 -2.73803 -2.36038 0
M  V30 1095 O 110.151 -4.00477 -1.77624 0
M  V30 1096 C 111.652 -2.99349 -3.26964 0
M  V30 1097 H 108.872 -0.554383 -0.378022 0
M  V30 1098 H 111.416 -1.9651 -0.566054 0
M  V30 1099 H 109.571 -2.44898 -3.00173 0
M  V30 1100 H 109.985 -4.60678 -2.5075 0
M  V30 1101 H 111.459 -3.79217 -4.01121 0
M  V30 1102 H 111.936 -2.10307 -3.85574 0
M  V30 1103 H 112.542 -3.29774 -2.68569 0
M  V30 1104 N 110.857 0.726932 -1.39834 0
M  V30 1105 C 111.787 1.85405 -1.41941 0
M  V30 1106 C 112.768 1.67751 -0.281728 0
M  V30 1107 O 113.953 1.8795 -0.488717 0
M  V30 1108 C 111.083 3.23243 -1.2701 0
M  V30 1109 C 110.037 3.55549 -2.38262 0
M  V30 1110 C 109.363 4.9241 -2.08415 0
M  V30 1111 C 110.663 3.577 -3.80589 0
M  V30 1112 H 112.357 1.83899 -2.36266 0
M  V30 1113 H 109.903 0.883349 -1.13723 0
M  V30 1114 H 111.856 4.01775 -1.27103 0
M  V30 1115 H 110.58 3.25296 -0.291564 0
M  V30 1116 H 109.239 2.79351 -2.37399 0
M  V30 1117 H 108.887 4.91052 -1.0898 0
M  V30 1118 H 108.587 5.14992 -2.82943 0
M  V30 1119 H 110.111 5.73289 -2.10171 0
M  V30 1120 H 111.525 4.26293 -3.83337 0
M  V30 1121 H 109.922 3.91804 -4.54543 0
M  V30 1122 H 110.992 2.57328 -4.10987 0
M  V30 1123 N 112.336 1.25143 0.95797 0
M  V30 1124 C 113.584 1.09476 1.69881 0
M  V30 1125 C 113.905 -0.365502 1.91544 0
M  V30 1126 O 113.175 -1.25985 1.50015 0
M  V30 1127 H 111.755 0.402128 0.629525 0
M  V30 1128 H 114.417 1.57214 1.15194 0
M  V30 1129 H 113.513 1.60046 2.6794 0
M  V30 1130 N 113.814 -1.1601 1.06675 0
M  V30 1131 C 115.044 -1.90251 0.805497 0
M  V30 1132 C 115.452 -1.77891 -0.64431 0
M  V30 1133 O 114.795 -1.12383 -1.45313 0
M  V30 1134 C 114.857 -3.41419 1.12576 0
M  V30 1135 C 114.521 -3.77564 2.57477 0
M  V30 1136 C 115.518 -3.79161 3.55715 0
M  V30 1137 C 113.203 -4.08079 2.92877 0
M  V30 1138 C 115.197 -4.10767 4.8739 0
M  V30 1139 C 112.884 -4.39351 4.24751 0
M  V30 1140 C 113.882 -4.40675 5.21818 0
M  V30 1141 O 113.57 -4.71202 6.51325 0
M  V30 1142 H 113.302 -0.610018 0.291297 0
M  V30 1143 H 115.856 -1.47958 1.4247 0
M  V30 1144 H 114.086 -3.84079 0.449503 0
M  V30 1145 H 115.775 -3.9694 0.84814 0
M  V30 1146 H 116.541 -3.55693 3.29708 0
M  V30 1147 H 112.42 -4.06211 2.17976 0
M  V30 1148 H 115.964 -4.11715 5.63148 0
M  V30 1149 H 111.861 -4.62285 4.50514 0
M  V30 1150 H 112.629 -4.88996 6.56373 0
M  V30 1151 N 115.292 -0.849877 -1.32721 0
M  V30 1152 C 116.538 -0.451591 -1.97708 0
M  V30 1153 C 116.871 0.989175 -1.6712 0
M  V30 1154 O 116.146 1.69334 -0.956891 0
M  V30 1155 C 116.429 -0.685598 -3.53513 0
M  V30 1156 C 116.282 -2.17444 -3.93749 0
M  V30 1157 C 117.601 -0.138874 -4.39881 0
M  V30 1158 H 114.72 -0.16555 -0.718166 0
M  V30 1159 H 117.362 -1.06742 -1.57182 0
M  V30 1160 H 115.512 -0.161416 -3.88165 0
M  V30 1161 H 117.184 -2.76433 -3.693 0
M  V30 1162 H 115.427 -2.65476 -3.43081 0
M  V30 1163 H 116.098 -2.28888 -5.02309 0
M  V30 1164 H 118.574 -0.587068 -4.11938 0
M  V30 1165 H 117.45 -0.332213 -5.47894 0
M  V30 1166 H 117.711 0.95806 -4.31594 0
M  V30 1167 N 116.77 1.45427 -0.607355 0
M  V30 1168 C 117.998 2.06614 -0.108814 0
M  V30 1169 C 118.413 1.45204 1.2067 0
M  V30 1170 O 117.77 0.566132 1.73497 0
M  V30 1171 C 117.821 3.61481 0.0375347 0
M  V30 1172 O 117.542 4.20598 -1.22593 0
M  V30 1173 C 119.043 4.39652 0.567561 0
M  V30 1174 H 116.263 0.66747 -0.0687351 0
M  V30 1175 H 118.807 1.86675 -0.835022 0
M  V30 1176 H 116.962 3.80762 0.714068 0
M  V30 1177 H 117.376 5.1377 -1.05547 0
M  V30 1178 H 118.85 5.48518 0.61905 0
M  V30 1179 H 119.327 4.09417 1.58978 0
M  V30 1180 H 119.933 4.25234 -0.0749202 0
M  V30 1181 N 118.248 0.346503 1.53744 0
M  V30 1182 C 119.178 -0.501193 2.28058 0
M  V30 1183 C 120.159 -1.10014 1.29734 0
M  V30 1184 O 121.344 -1.12097 1.58581 0
M  V30 1185 C 118.474 -1.65078 3.05559 0
M  V30 1186 C 117.428 -1.18003 4.11411 0
M  V30 1187 C 116.754 -2.41837 4.76884 0
M  V30 1188 C 118.054 -0.278394 5.21558 0
M  V30 1189 H 119.748 0.11875 2.99164 0
M  V30 1190 H 117.294 0.0585531 1.43881 0
M  V30 1191 H 119.247 -2.25028 3.56287 0
M  V30 1192 H 117.971 -2.29767 2.32109 0
M  V30 1193 H 116.63 -0.603331 3.61601 0
M  V30 1194 H 116.278 -3.0494 4.00026 0
M  V30 1195 H 115.978 -2.1102 5.48402 0
M  V30 1196 H 117.502 -3.02508 5.30397 0
M  V30 1197 H 118.916 -0.784823 5.67903 0
M  V30 1198 H 117.313 -0.0619707 6.00068 0
M  V30 1199 H 118.383 0.684677 4.80042 0
M  V30 1200 N 119.726 -1.57421 0.075193 0
M  V30 1201 C 120.656 -2.15942 -0.888324 0
M  V30 1202 C 121.637 -1.08737 -1.30806 0
M  V30 1203 O 122.822 -1.36787 -1.37851 0
M  V30 1204 C 119.952 -2.72379 -2.1547 0
M  V30 1205 C 118.906 -3.8478 -1.87425 0
M  V30 1206 C 118.232 -4.27834 -3.20721 0
M  V30 1207 C 119.532 -5.08869 -1.17684 0
M  V30 1208 H 121.226 -2.96705 -0.400799 0
M  V30 1209 H 118.772 -1.42723 -0.191342 0
M  V30 1210 H 120.725 -3.11965 -2.83295 0
M  V30 1211 H 119.449 -1.88841 -2.6647 0
M  V30 1212 H 118.108 -3.45703 -1.22004 0
M  V30 1213 H 117.756 -3.41214 -3.6957 0
M  V30 1214 H 117.456 -5.03605 -3.02746 0
M  V30 1215 H 118.98 -4.70039 -3.89738 0
M  V30 1216 H 120.394 -5.4575 -1.75584 0
M  V30 1217 H 118.791 -5.8994 -1.09956 0
M  V30 1218 H 119.861 -4.84648 -0.156453 0
M  V30 1219 N 121.204 0.198386 -1.56346 0
M  V30 1220 C 122.114 1.2664 -1.97483 0
M  V30 1221 C 123.13 1.49989 -0.882002 0
M  V30 1222 O 124.306 1.62668 -1.18748 0
M  V30 1223 C 121.371 2.59141 -2.30319 0
M  V30 1224 C 120.432 2.43892 -3.53292 0
M  V30 1225 C 119.665 3.70074 -3.84553 0
M  V30 1226 O 119.888 4.74101 -3.1715 0
M  V30 1227 O 118.822 3.658 -4.7799 0
M  V30 1228 H 122.648 0.947304 -2.88548 0
M  V30 1229 H 120.233 0.403123 -1.43859 0
M  V30 1230 H 122.115 3.37352 -2.5253 0
M  V30 1231 H 120.79 2.90684 -1.42423 0
M  V30 1232 H 119.697 1.63803 -3.36332 0
M  V30 1233 H 121.03 2.17282 -4.41644 0
M  V30 1234 N 122.682 1.50554 0.465978 0
M  V30 1235 C 123.592 1.72585 1.58907 0
M  V30 1236 C 124.608 0.60911 1.6299 0
M  V30 1237 O 125.784 0.88804 1.80765 0
M  V30 1238 C 122.849 1.81995 2.95091 0
M  V30 1239 C 121.91 3.05751 3.01355 0
M  V30 1240 C 121.143 3.14702 4.31043 0
M  V30 1241 O 121.366 2.30313 5.21835 0
M  V30 1242 O 120.3 4.07468 4.43005 0
M  V30 1243 H 124.126 2.67799 1.43239 0
M  V30 1244 H 121.711 1.34711 0.646013 0
M  V30 1245 H 123.593 1.90335 3.75966 0
M  V30 1246 H 122.268 0.899659 3.10947 0
M  V30 1247 H 121.175 3.02908 2.19539 0
M  V30 1248 H 122.508 3.97375 2.90437 0
M  V30 1249 N 124.16 -0.719506 1.40217 0
M  V30 1250 C 125.388 -1.50864 1.41589 0
M  V30 1251 C 125.803 -1.88794 0.0145275 0
M  V30 1252 O 125.16 -1.55174 -0.960594 0
M  V30 1253 C 125.211 -2.78646 2.30302 0
M  V30 1254 O 124.932 -2.42321 3.64983 0
M  V30 1255 C 126.433 -3.72569 2.40224 0
M  V30 1256 H 123.653 -0.465709 0.48307 0
M  V30 1257 H 126.197 -0.88785 1.84221 0
M  V30 1258 H 124.352 -3.37019 1.91042 0
M  V30 1259 H 124.766 -3.24514 4.12057 0
M  V30 1260 H 126.24 -4.5908 3.06512 0
M  V30 1261 H 126.717 -4.15403 1.42608 0
M  V30 1262 H 127.323 -3.20109 2.80019 0
M  V30 1263 N 125.638 -1.25649 -0.95132 0
M  V30 1264 C 127.049 -1.09654 -1.51106 0
M  V30 1265 C 127.4 0.326615 -1.93462 0
M  V30 1266 O 126.525 1.21697 -1.78938 0
M  V30 1267 C 127.12 -1.98437 -2.74605 0
M  V30 1268 C 125.679 -1.86618 -3.2688 0
M  V30 1269 C 124.826 -1.9239 -1.99703 0
M  V30 1270 H 127.777 -1.38887 -0.767865 0
M  V30 1271 H 127.798 -1.5263 -3.48546 0
M  V30 1272 H 127.31 -3.02009 -2.43746 0
M  V30 1273 H 125.411 -0.859421 -3.62553 0
M  V30 1274 H 125.524 -2.71607 -3.94673 0
M  V30 1275 H 123.888 -1.36317 -2.15151 0
M  V30 1276 H 124.671 -2.97573 -1.71188 0
M  V30 1277 N 127.117 1.15442 -1.07289 0
M  V30 1278 C 128.049 2.19773 -0.650585 0
M  V30 1279 C 129.062 1.60076 0.296572 0
M  V30 1280 O 130.251 1.78293 0.0859905 0
M  V30 1281 C 127.351 3.38838 0.0650398 0
M  V30 1282 C 126.524 4.2808 -0.898141 0
M  V30 1283 C 125.583 5.2574 -0.219926 0
M  V30 1284 O 124.609 5.62654 -0.860773 0
M  V30 1285 N 125.811 5.71205 1.03466 0
M  V30 1286 H 128.576 2.56622 -1.54808 0
M  V30 1287 H 126.137 1.30551 -0.957494 0
M  V30 1288 H 128.129 4.01222 0.529415 0
M  V30 1289 H 126.699 3.00409 0.864466 0
M  V30 1290 H 125.919 3.62804 -1.54165 0
M  V30 1291 H 127.207 4.84577 -1.5512 0
M  V30 1292 H 126.605 5.43325 1.57526 0
M  V30 1293 H 125.162 6.35633 1.44272 0
M  V30 1294 N 128.595 0.856903 1.32268 0
M  V30 1295 C 129.872 0.382583 1.91822 0
M  V30 1296 C 130.252 -1.13407 1.78051 0
M  V30 1297 O 129.6 -1.95673 1.18001 0
M  V30 1298 C 129.81 0.849446 3.38505 0
M  V30 1299 C 131.158 0.867936 4.15634 0
M  V30 1300 O 132.182 0.794232 3.47232 0
M  V30 1301 O 131.041 0.972286 5.37781 0
M  V30 1302 H 128.135 0.112014 0.819379 0
M  V30 1303 H 130.681 0.943952 1.41024 0
M  V30 1304 H 129.453 1.89267 3.42482 0
M  V30 1305 H 129.076 0.265652 3.96712 0
M  V30 1306 N 130.073 -1.45103 0.615059 0
M  V30 1307 C 131.301 -2.06553 0.11977 0
M  V30 1308 C 131.716 -1.45842 -1.19898 0
M  V30 1309 O 131.073 -0.575325 -1.73194 0
M  V30 1310 C 131.124 -3.61495 -0.018364 0
M  V30 1311 O 130.845 -4.19942 1.24822 0
M  V30 1312 C 132.346 -4.39947 -0.544237 0
M  V30 1313 H 129.566 -0.667096 0.0722739 0
M  V30 1314 H 132.11 -1.8623 0.84491 0
M  V30 1315 H 130.265 -3.81135 -0.693865 0
M  V30 1316 H 130.679 -5.13204 1.0827 0
M  V30 1317 H 132.153 -5.48838 -0.589953 0
M  V30 1318 H 132.63 -4.10255 -1.56805 0
M  V30 1319 H 133.236 -4.25188 0.0974703 0
M  V30 1320 N 131.551 -0.354651 -1.53558 0
M  V30 1321 C 132.514 0.484566 -2.24019 0
M  V30 1322 C 133.514 1.01861 -1.24422 0
M  V30 1323 O 134.704 0.906097 -1.4878 0
M  V30 1324 C 131.836 1.67615 -2.96847 0
M  V30 1325 H 133.029 -0.131843 -2.9961 0
M  V30 1326 H 130.582 -0.106165 -1.55939 0
M  V30 1327 H 131.317 2.33095 -2.25471 0
M  V30 1328 H 131.102 1.30029 -3.69912 0
M  V30 1329 H 132.592 2.27114 -3.50441 0
M  V30 1330 N 133.029 1.57378 -0.0835403 0
M  V30 1331 C 134.259 1.97975 0.590713 0
M  V30 1332 C 134.667 0.961083 1.62972 0
M  V30 1333 O 134.01 -0.0590879 1.83605 0
M  V30 1334 C 134.072 3.34915 1.3066 0
M  V30 1335 C 133.736 4.55069 0.419698 0
M  V30 1336 C 134.733 5.18868 -0.32749 0
M  V30 1337 C 132.418 5.0114 0.341137 0
M  V30 1338 C 134.412 6.27098 -1.14134 0
M  V30 1339 C 132.099 6.0924 -0.476374 0
M  V30 1340 C 133.097 6.72083 -1.21627 0
M  V30 1341 O 132.785 7.781 -2.02028 0
M  V30 1342 H 132.517 0.655818 0.163947 0
M  V30 1343 H 135.071 2.04807 -0.156021 0
M  V30 1344 H 133.301 3.24733 2.09966 0
M  V30 1345 H 134.99 3.60037 1.87424 0
M  V30 1346 H 135.756 4.84211 -0.276459 0
M  V30 1347 H 131.635 4.51996 0.90668 0
M  V30 1348 H 135.179 6.7608 -1.71935 0
M  V30 1349 H 131.076 6.43329 -0.528927 0
M  V30 1350 H 131.844 7.95034 -1.94586 0
M  V30 1351 N 134.507 -0.190092 1.56449 0
M  V30 1352 C 135.455 -1.25501 1.95837 0
M  V30 1353 C 136.449 -1.4685 0.844485 0
M  V30 1354 O 137.655 -1.47651 1.02952 0
M  V30 1355 H 134.03 -0.421447 0.622805 0
M  V30 1356 H 136.001 -0.895821 2.84636 0
M  V30 1357 C 134.75 -2.59124 2.31841 0
M  V30 1358 H 134.073 -2.43514 3.17082 0
M  V30 1359 H 135.513 -3.32371 2.6326 0
M  V30 1360 C 133.972 -3.16488 1.15486 0
M  V30 1361 O 134.502 -3.99365 0.432535 0
M  V30 1362 N 132.708 -2.75305 0.930349 0
M  V30 1363 H 132.255 -2.08013 1.51948 0
M  V30 1364 H 132.213 -3.14024 0.153634 0
M  V30 1365 N 135.985 -1.50799 -0.457987 0
M  V30 1366 C 137.213 -1.66218 -1.23203 0
M  V30 1367 C 137.628 -0.350894 -1.85511 0
M  V30 1368 O 136.985 0.668546 -1.69814 0
M  V30 1369 C 137.036 -2.76291 -2.33121 0
M  V30 1370 O 136.757 -4.02338 -1.73366 0
M  V30 1371 C 138.258 -3.028 -3.2377 0
M  V30 1372 H 135.478 -0.558361 -0.372121 0
M  V30 1373 H 138.022 -1.97099 -0.545179 0
M  V30 1374 H 136.177 -2.48068 -2.97558 0
M  V30 1375 H 136.591 -4.63312 -2.4585 0
M  V30 1376 H 138.065 -3.8345 -3.97077 0
M  V30 1377 H 138.542 -2.14385 -3.83322 0
M  V30 1378 H 139.148 -3.32604 -2.65056 0
M  V30 1379 N 137.463 0.71206 -1.40597 0
M  V30 1380 C 138.41 1.82613 -1.41142 0
M  V30 1381 C 139.38 1.63925 -0.267903 0
M  V30 1382 O 140.565 1.85009 -0.466495 0
M  V30 1383 C 137.705 3.20354 -1.28324 0
M  V30 1384 C 136.818 3.50589 -2.52411 0
M  V30 1385 C 135.953 4.77855 -2.32009 0
M  V30 1386 C 134.992 5.01005 -3.51654 0
M  V30 1387 N 134.129 6.19487 -3.30425 0
M  V30 1388 H 138.969 1.81482 -2.36365 0
M  V30 1389 H 136.506 0.886475 -1.17388 0
M  V30 1390 H 138.464 3.99899 -1.18899 0
M  V30 1391 H 137.094 3.20705 -0.367189 0
M  V30 1392 H 136.146 2.65573 -2.72351 0
M  V30 1393 H 137.458 3.63604 -3.41458 0
M  V30 1394 H 136.612 5.65424 -2.19956 0
M  V30 1395 H 135.351 4.67056 -1.40392 0
M  V30 1396 H 134.356 4.1189 -3.64179 0
M  V30 1397 H 135.581 5.13674 -4.44202 0
M  V30 1398 H 133.527 6.09932 -2.41494 0
M  V30 1399 H 133.444 6.33194 -4.13039 0
M  V30 1400 H 134.712 7.09834 -3.22113 0
M  V30 1401 N 138.941 1.26152 0.944643 0
M  V30 1402 C 140.357 1.03189 1.21754 0
M  V30 1403 C 140.557 -0.245112 2.00004 0
M  V30 1404 O 139.613 -0.955176 2.33736 0
M  V30 1405 C 140.926 2.26119 1.98219 0
M  V30 1406 C 142.474 2.30984 2.11224 0
M  V30 1407 C 142.949 3.53597 2.91089 0
M  V30 1408 N 144.44 3.54053 2.98664 0
M  V30 1409 C 145.175 4.45593 3.60881 0
M  V30 1410 N 144.671 5.47416 4.24626 0
M  V30 1411 N 146.464 4.33252 3.58119 0
M  V30 1412 H 138.615 2.08177 0.421437 0
M  V30 1413 H 140.878 0.914723 0.248969 0
M  V30 1414 H 140.584 3.18984 1.48128 0
M  V30 1415 H 140.458 2.3009 2.98895 0
M  V30 1416 H 142.845 1.38635 2.60508 0
M  V30 1417 H 142.926 2.31026 1.09821 0
M  V30 1418 H 142.57 4.46273 2.42493 0
M  V30 1419 H 142.5 3.50802 3.92741 0
M  V30 1420 H 144.991 2.80403 2.53343 0
M  V30 1421 H 145.304 6.13459 4.69987 0
M  V30 1422 H 143.649 5.51278 4.23223 0
M  V30 1423 H 146.84 3.52924 3.0751 0
M  V30 1424 H 147.013 5.04786 4.06319 0
M  V30 1425 N 140.419 -1.14872 1.07899 0
M  V30 1426 C 141.667 -1.85422 0.803941 0
M  V30 1427 C 141.988 -1.83051 -0.67211 0
M  V30 1428 O 141.258 -1.27532 -1.48703 0
M  V30 1429 H 139.838 -0.686537 0.294408 0
M  V30 1430 H 142.5 -1.39226 1.3639 0
M  V30 1431 H 141.596 -2.90399 1.14346 0
M  V30 1432 N 141.898 -0.863906 -1.31812 0
M  V30 1433 C 143.147 -0.46801 -1.96195 0
M  V30 1434 C 143.46 0.983474 -1.69077 0
M  V30 1435 O 144.666 1.48523 -2.27273 0
M  V30 1436 C 143.122 -0.785995 -3.51212 0
M  V30 1437 C 142.73 -2.25383 -3.87178 0
M  V30 1438 C 144.474 -0.458274 -4.22019 0
M  V30 1439 C 142.381 -2.51455 -5.3528 0
M  V30 1440 H 141.311 -0.171283 -0.734287 0
M  V30 1441 H 143.962 -1.05597 -1.50072 0
M  V30 1442 H 142.344 -0.127359 -3.95795 0
M  V30 1443 H 143.518 -2.95502 -3.53575 0
M  V30 1444 H 141.833 -2.54698 -3.2942 0
M  V30 1445 H 144.43 -0.630369 -5.30971 0
M  V30 1446 H 144.773 0.600834 -4.11941 0
M  V30 1447 H 145.306 -1.07319 -3.8305 0
M  V30 1448 H 142.045 -3.56025 -5.50387 0
M  V30 1449 H 141.565 -1.85923 -5.70257 0
M  V30 1450 H 143.244 -2.35874 -6.02472 0
M  V30 1451 N 143.376 1.44774 -0.622745 0
M  V30 1452 C 144.622 2.0242 -0.124083 0
M  V30 1453 C 144.955 1.4881 1.24777 0
M  V30 1454 O 144.23 0.668799 1.8264 0
M  V30 1455 C 144.513 3.59957 -0.101619 0
M  V30 1456 C 144.366 4.23867 -1.50521 0
M  V30 1457 C 145.685 4.36284 0.578272 0
M  V30 1458 H 142.804 0.735528 -0.0465645 0
M  V30 1459 H 145.446 1.72447 -0.797617 0
M  V30 1460 H 143.596 3.85623 0.471934 0
M  V30 1461 H 145.268 4.09336 -2.12701 0
M  V30 1462 H 143.511 3.81684 -2.06154 0
M  V30 1463 H 144.182 5.32843 -1.4416 0
M  V30 1464 H 146.658 4.16001 0.0906057 0
M  V30 1465 H 145.534 5.46004 0.563149 0
M  V30 1466 H 145.795 4.10271 1.64713 0
M  V30 1467 N 144.854 0.36279 1.53368 0
M  V30 1468 C 145.817 -0.472679 2.24273 0
M  V30 1469 C 146.817 -1.012 1.24961 0
M  V30 1470 O 148.007 -0.898194 1.49259 0
M  V30 1471 C 145.139 -1.66039 2.97731 0
M  V30 1472 H 146.332 0.14773 2.99536 0
M  V30 1473 H 143.885 0.114434 1.55881 0
M  V30 1474 H 144.62 -2.31896 2.26704 0
M  V30 1475 H 144.405 -1.28066 3.70596 0
M  V30 1476 H 145.895 -2.25252 3.51641 0
M  V30 1477 N 146.332 -1.57332 0.0918853 0
M  V30 1478 C 147.557 -1.98995 -0.584442 0
M  V30 1479 C 147.982 -0.970528 -1.61128 0
M  V30 1480 O 147.34 0.0613904 -1.81196 0
M  V30 1481 C 147.388 -3.39636 -1.21161 0
M  V30 1482 O 146.492 -3.40447 -2.32744 0
M  V30 1483 H 145.833 -0.647165 -0.148572 0
M  V30 1484 H 148.363 -2.03873 0.172347 0
M  V30 1485 H 148.373 -3.7726 -1.55367 0
M  V30 1486 H 147.048 -4.13356 -0.459313 0
M  V30 1487 H 145.625 -3.14614 -2.0018 0
M  V30 1488 N 147.81 0.181792 -1.56548 0
M  V30 1489 C 149.059 0.898348 -1.8059 0
M  V30 1490 C 149.372 1.83862 -0.667379 0
M  V30 1491 O 150.578 2.59678 -0.792446 0
M  V30 1492 C 149.034 1.64791 -3.19956 0
M  V30 1493 C 148.642 0.751789 -4.41647 0
M  V30 1494 C 150.386 2.35331 -3.53298 0
M  V30 1495 C 148.293 1.50098 -5.72035 0
M  V30 1496 H 147.223 0.339194 -0.673397 0
M  V30 1497 H 149.874 0.151413 -1.82874 0
M  V30 1498 H 148.256 2.43921 -3.11959 0
M  V30 1499 H 149.43 -0.0018076 -4.608 0
M  V30 1500 H 147.745 0.156562 -4.16106 0
M  V30 1501 H 150.342 2.91958 -4.47956 0
M  V30 1502 H 150.685 3.10164 -2.77676 0
M  V30 1503 H 151.218 1.63154 -3.62803 0
M  V30 1504 H 147.957 0.795175 -6.50659 0
M  V30 1505 H 147.477 2.22817 -5.56878 0
M  V30 1506 H 149.156 2.05125 -6.13622 0
M  V30 1507 N 149.288 1.51039 0.449983 0
M  V30 1508 C 150.218 1.74379 1.55288 0
M  V30 1509 C 151.199 0.593236 1.5942 0
M  V30 1510 O 152.384 0.834625 1.7535 0
M  V30 1511 C 149.514 1.85728 2.93466 0
M  V30 1512 C 148.468 3.01078 3.04197 0
M  V30 1513 C 147.794 2.97595 4.44231 0
M  V30 1514 C 149.094 4.41254 2.7945 0
M  V30 1515 H 150.788 2.66725 1.36008 0
M  V30 1516 H 148.334 1.2835 0.652864 0
M  V30 1517 H 150.287 2.0064 3.70569 0
M  V30 1518 H 149.011 0.900207 3.13949 0
M  V30 1519 H 147.67 2.85851 2.29531 0
M  V30 1520 H 147.318 1.99691 4.61663 0
M  V30 1521 H 147.018 3.75046 4.52343 0
M  V30 1522 H 148.542 3.14583 5.23326 0
M  V30 1523 H 149.956 4.56897 3.46292 0
M  V30 1524 H 148.353 5.20315 2.98985 0
M  V30 1525 H 149.423 4.52164 1.75144 0
M  V30 1526 N 150.766 -0.704594 1.40972 0
M  V30 1527 C 152.012 -1.46675 1.40051 0
M  V30 1528 C 152.345 -1.94199 0.00641102 0
M  V30 1529 O 151.62 -1.68916 -0.964235 0
M  V30 1530 C 151.903 -2.68505 2.39952 0
M  V30 1531 C 151.756 -2.26805 3.88432 0
M  V30 1532 C 153.075 -3.70686 2.37233 0
M  V30 1533 H 150.194 -0.532015 0.510028 0
M  V30 1534 H 152.836 -0.803255 1.72185 0
M  V30 1535 H 150.986 -3.25114 2.1268 0
M  V30 1536 H 152.658 -1.75592 4.26574 0
M  V30 1537 H 150.901 -1.58685 4.03734 0
M  V30 1538 H 151.572 -3.14181 4.53866 0
M  V30 1539 H 154.048 -3.23731 2.61415 0
M  V30 1540 H 152.924 -4.53553 3.09162 0
M  V30 1541 H 153.185 -4.19754 1.38777 0
M  V30 1542 N 152.244 -1.26651 -0.937939 0
M  V30 1543 C 153.491 -1.12387 -1.6845 0
M  V30 1544 C 153.819 0.332208 -1.91642 0
M  V30 1545 O 153.074 1.2602 -1.49725 0
M  V30 1546 C 153.373 -1.84168 -3.06295 0
M  V30 1547 C 153.039 -3.34056 -3.02849 0
M  V30 1548 C 151.701 -3.74942 -3.01616 0
M  V30 1549 C 154.053 -4.29741 -2.9491 0
M  V30 1550 C 151.381 -5.09894 -2.90215 0
M  V30 1551 C 153.733 -5.64738 -2.8505 0
M  V30 1552 C 152.397 -6.0493 -2.82162 0
M  V30 1553 H 151.667 -0.411252 -0.616403 0
M  V30 1554 H 154.314 -1.57134 -1.09459 0
M  V30 1555 H 152.619 -1.319 -3.6893 0
M  V30 1556 H 154.316 -1.70569 -3.62915 0
M  V30 1557 H 150.906 -3.01534 -3.0459 0
M  V30 1558 H 155.09 -3.99133 -2.94969 0
M  V30 1559 H 150.346 -5.40194 -2.86358 0
M  V30 1560 H 154.52 -6.38561 -2.77872 0
M  V30 1561 H 152.147 -7.09457 -2.73084 0
M  V30 1562 N 153.722 1.14298 -1.08507 0
M  V30 1563 C 154.652 2.21542 -0.737646 0
M  V30 1564 C 155.633 1.67773 0.280377 0
M  V30 1565 O 156.818 1.93616 0.150521 0
M  V30 1566 C 153.948 3.46988 -0.147259 0
M  V30 1567 C 152.902 4.13789 -1.09374 0
M  V30 1568 C 152.228 5.33449 -0.365524 0
M  V30 1569 C 153.528 4.62208 -2.4323 0
M  V30 1570 H 155.222 2.5086 -1.6343 0
M  V30 1571 H 152.768 1.20576 -0.787243 0
M  V30 1572 H 154.721 4.21262 0.107808 0
M  V30 1573 H 153.445 3.17037 0.784538 0
M  V30 1574 H 152.104 3.4147 -1.33393 0
M  V30 1575 H 151.752 4.99759 0.57011 0
M  V30 1576 H 151.452 5.79088 -0.996512 0
M  V30 1577 H 152.976 6.10485 -0.118534 0
M  V30 1578 H 154.39 5.27952 -2.23472 0
M  V30 1579 H 152.787 5.18553 -3.02031 0
M  V30 1580 H 153.857 3.77224 -3.04681 0
M  V30 1581 N 155.201 0.870884 1.31352 0
M  V30 1582 C 156.441 0.488783 1.9847 0
M  V30 1583 C 156.805 -0.941536 1.67329 0
M  V30 1584 O 158.006 -1.42903 2.27667 0
M  V30 1585 C 156.277 0.739688 3.49662 0
M  V30 1586 S 157.836 0.457582 4.36408 0
M  V30 1587 H 154.654 0.18242 0.6872 0
M  V30 1588 H 157.256 1.12711 1.59739 0
M  V30 1589 H 155.96 1.77944 3.69816 0
M  V30 1590 H 155.491 0.0883905 3.93301 0
M  V30 1591 H 157.506 -0.709752 4.91098 0
M  V30 1592 N 156.679 -1.44442 0.630414 0
M  V30 1593 C 157.926 -2.02052 0.134617 0
M  V30 1594 C 158.254 -1.49576 -1.24327 0
M  V30 1595 O 157.509 -0.669806 -1.83881 0
M  V30 1596 C 157.808 -3.57332 0.0697835 0
M  V30 1597 C 157.474 -4.29058 1.38635 0
M  V30 1598 C 156.136 -4.4837 1.74694 0
M  V30 1599 C 158.488 -4.69872 2.25543 0
M  V30 1600 C 155.816 -5.05756 2.97369 0
M  V30 1601 C 158.168 -5.28616 3.47487 0
M  V30 1602 C 156.832 -5.46147 3.8377 0
M  V30 1603 H 156.102 -0.739361 0.0492598 0
M  V30 1604 H 158.749 -1.73217 0.816586 0
M  V30 1605 H 157.054 -3.85577 -0.695553 0
M  V30 1606 H 158.751 -3.99637 -0.330344 0
M  V30 1607 H 155.341 -4.14357 1.09574 0
M  V30 1608 H 159.525 -4.54666 1.98979 0
M  V30 1609 H 154.781 -5.17515 3.25558 0
M  V30 1610 H 158.955 -5.59192 4.15063 0
M  V30 1611 H 156.582 -5.9038 4.7891 0
M  V30 1612 N 158.157 -0.370918 -1.53173 0
M  V30 1613 C 159.405 0.216673 -2.00935 0
M  V30 1614 C 159.726 1.48845 -1.25977 0
M  V30 1615 O 158.996 1.92286 -0.374551 0
M  V30 1616 H 157.576 0.0830565 -0.742368 0
M  V30 1617 H 160.238 -0.49838 -1.8842 0
M  V30 1618 H 159.334 0.439893 -3.08984 0
M  V30 1619 N 159.635 1.57281 -0.100228 0
M  V30 1620 C 160.881 1.94826 0.563101 0
M  V30 1621 C 161.214 0.982475 1.67514 0
M  V30 1622 O 160.489 0.0164069 1.94493 0
M  V30 1623 C 160.772 3.42453 1.11346 0
M  V30 1624 C 160.625 4.498 0.00612081 0
M  V30 1625 C 161.944 3.91506 2.01024 0
M  V30 1626 H 159.063 0.708428 0.203221 0
M  V30 1627 H 161.705 1.8922 -0.171979 0
M  V30 1628 H 159.855 3.47361 1.7399 0
M  V30 1629 H 161.527 4.57 -0.628357 0
M  V30 1630 H 159.77 4.28756 -0.659581 0
M  V30 1631 H 160.441 5.50306 0.432109 0
M  V30 1632 H 162.917 3.88784 1.48278 0
M  V30 1633 H 161.793 4.95358 2.36457 0
M  V30 1634 H 162.054 3.31099 2.92961 0
M  V30 1635 N 161.113 -0.173488 1.56642 0
M  V30 1636 C 162.341 -0.906095 1.86004 0
M  V30 1637 C 162.756 -1.75921 0.685355 0
M  V30 1638 O 162.113 -1.79198 -0.345578 0
M  V30 1639 C 162.164 -1.78462 3.14378 0
M  V30 1640 O 161.885 -0.965914 4.27319 0
M  V30 1641 C 163.386 -2.62707 3.57071 0
M  V30 1642 H 160.606 -0.263341 0.617165 0
M  V30 1643 H 163.15 -0.174236 2.03756 0
M  V30 1644 H 161.305 -2.46984 2.98459 0
M  V30 1645 H 161.719 -1.56655 5.00559 0
M  V30 1646 H 163.193 -3.19969 4.49804 0
M  V30 1647 H 163.67 -3.37472 2.81086 0
M  V30 1648 H 164.276 -1.99521 3.75595 0
M  V30 1649 N 162.591 -1.51276 -0.441967 0
M  V30 1650 C 163.523 -1.68444 -1.55433 0
M  V30 1651 C 164.536 -0.565187 -1.52674 0
M  V30 1652 O 165.725 -0.839356 -1.57534 0
M  V30 1653 C 162.825 -1.67966 -2.94348 0
M  V30 1654 C 161.998 -2.964 -3.21661 0
M  V30 1655 C 161.057 -2.88171 -4.40277 0
M  V30 1656 O 160.083 -3.62119 -4.39157 0
M  V30 1657 N 161.285 -2.03706 -5.43584 0
M  V30 1658 H 164.05 -2.644 -1.41112 0
M  V30 1659 H 161.611 -1.49104 -0.630838 0
M  V30 1660 H 163.603 -1.60035 -3.71713 0
M  V30 1661 H 162.173 -0.796225 -3.0229 0
M  V30 1662 H 161.393 -3.18234 -2.32638 0
M  V30 1663 H 162.681 -3.81427 -3.36736 0
M  V30 1664 H 162.079 -1.42995 -5.47329 0
M  V30 1665 H 160.636 -2.01658 -6.1982 0
M  V30 1666 N 164.069 0.697108 -1.41344 0
M  V30 1667 C 165.032 1.79281 -1.42797 0
M  V30 1668 C 166.032 1.57607 -0.318837 0
M  V30 1669 O 167.222 1.64309 -0.578642 0
M  V30 1670 C 164.354 3.17632 -1.23785 0
M  V30 1671 H 165.547 1.79385 -2.40335 0
M  V30 1672 H 163.1 0.904582 -1.27464 0
M  V30 1673 H 163.835 3.23167 -0.270814 0
M  V30 1674 H 163.62 3.34765 -2.04144 0
M  V30 1675 H 165.11 3.97617 -1.27633 0
M  V30 1676 N 165.547 1.27147 0.931209 0
M  V30 1677 C 166.494 1.09568 2.03134 0
M  V30 1678 C 167.464 -0.00222433 1.661 0
M  V30 1679 O 168.649 0.159439 1.90133 0
M  V30 1680 C 165.789 0.745231 3.36957 0
M  V30 1681 C 164.902 1.92041 3.86968 0
M  V30 1682 C 164.037 1.51216 5.09222 0
M  V30 1683 C 163.076 2.65504 5.5152 0
M  V30 1684 N 162.213 2.25291 6.64972 0
M  V30 1685 H 167.053 2.03708 2.17502 0
M  V30 1686 H 164.59 1.01411 1.06556 0
M  V30 1687 H 166.548 0.522878 4.1391 0
M  V30 1688 H 165.178 -0.159202 3.22407 0
M  V30 1689 H 164.23 2.25541 3.06326 0
M  V30 1690 H 165.542 2.77787 4.1429 0
M  V30 1691 H 164.696 1.25084 5.93666 0
M  V30 1692 H 163.435 0.625749 4.83669 0
M  V30 1693 H 162.44 2.92354 4.65628 0
M  V30 1694 H 163.665 3.54761 5.7907 0
M  V30 1695 H 161.611 1.39098 6.41083 0
M  V30 1696 H 161.528 3.04577 6.91931 0
M  V30 1697 H 162.796 2.02398 7.52765 0
M  V30 1698 N 167.025 -1.13721 1.09112 0
M  V30 1699 C 168.302 -1.81155 0.737706 0
M  V30 1700 C 168.682 -1.96253 -0.777683 0
M  V30 1701 O 168.03 -1.52807 -1.69889 0
M  V30 1702 C 168.24 -3.16392 1.47299 0
M  V30 1703 C 169.588 -3.91787 1.63671 0
M  V30 1704 O 170.612 -3.26005 1.43524 0
M  V30 1705 O 169.471 -5.0977 1.96969 0
M  V30 1706 H 166.565 -0.783518 0.26463 0
M  V30 1707 H 169.111 -1.20676 1.19312 0
M  V30 1708 H 167.883 -3.0061 2.50498 0
M  V30 1709 H 167.506 -3.8457 1.00953 0
M  V30 1710 N 168.503 -0.877838 -1.30888 0
M  V30 1711 C 169.751 -0.491723 -1.96027 0
M  V30 1712 C 170.072 0.960827 -1.69685 0
M  V30 1713 O 169.342 1.67462 -1.01654 0
M  V30 1714 H 167.922 -0.17885 -0.725273 0
M  V30 1715 H 170.584 -1.11935 -1.59551 0
M  V30 1716 H 169.68 -0.656016 -3.05128 0
M  V30 1717 N 169.982 1.44106 -0.638065 0
M  V30 1718 C 171.393 1.85316 -0.226894 0
M  V30 1719 C 171.744 1.53399 1.22324 0
M  V30 1720 O 170.869 0.975463 1.93167 0
M  V30 1721 C 171.464 3.3637 -0.405013 0
M  V30 1722 C 170.023 3.76369 -0.0482902 0
M  V30 1723 C 169.17 2.67921 -0.715108 0
M  V30 1724 H 172.121 1.34474 -0.842764 0
M  V30 1725 H 172.142 3.7885 0.354 0
M  V30 1726 H 171.654 3.59569 -1.46053 0
M  V30 1727 H 169.755 3.58784 1.00522 0
M  V30 1728 H 169.868 4.76856 -0.463187 0
M  V30 1729 H 168.232 2.54259 -0.149753 0
M  V30 1730 H 169.015 2.93951 -1.77335 0
M  V30 1731 N 171.46 0.379036 1.52974 0
M  V30 1732 C 172.707 -0.206421 2.01445 0
M  V30 1733 C 173.035 -1.47668 1.26587 0
M  V30 1734 O 172.29 -1.92514 0.351675 0
M  V30 1735 C 172.589 -0.53096 3.53434 0
M  V30 1736 C 172.255 0.646546 4.46241 0
M  V30 1737 C 170.917 0.969604 4.7133 0
M  V30 1738 C 173.269 1.43479 5.01062 0
M  V30 1739 C 170.597 2.08263 5.48492 0
M  V30 1740 C 172.949 2.53834 5.7944 0
M  V30 1741 C 171.613 2.86659 6.02812 0
M  V30 1742 H 170.883 -0.0755349 0.73714 0
M  V30 1743 H 173.53 0.514271 1.84465 0
M  V30 1744 H 171.835 -1.33285 3.68432 0
M  V30 1745 H 173.532 -0.996417 3.88423 0
M  V30 1746 H 170.122 0.384734 4.2687 0
M  V30 1747 H 174.306 1.19844 4.81613 0
M  V30 1748 H 169.562 2.34078 5.64816 0
M  V30 1749 H 173.736 3.15319 6.20924 0
M  V30 1750 H 171.363 3.73026 6.62387 0
M  V30 1751 N 172.938 -1.57226 0.108567 0
M  V30 1752 C 174.163 -1.99604 -0.563303 0
M  V30 1753 C 174.588 -0.987563 -1.6009 0
M  V30 1754 O 173.946 0.0421687 -1.81251 0
M  V30 1755 C 173.994 -3.40902 -1.17552 0
M  V30 1756 O 173.098 -3.42896 -2.2912 0
M  V30 1757 H 172.439 -0.648704 -0.1417 0
M  V30 1758 H 174.969 -2.03679 0.193961 0
M  V30 1759 H 174.979 -3.78886 -1.51357 0
M  V30 1760 H 173.654 -4.1382 -0.415445 0
M  V30 1761 H 172.231 -3.1672 -1.96832 0
M  V30 1762 N 174.416 0.165178 -1.56732 0
M  V30 1763 C 175.832 0.517174 -1.50988 0
M  V30 1764 C 176.032 1.84331 -0.813894 0
M  V30 1765 O 175.088 2.49672 -0.37682 0
M  V30 1766 C 176.401 0.544261 -2.95733 0
M  V30 1767 C 177.949 0.631039 -3.06573 0
M  V30 1768 C 178.424 0.68896 -4.52788 0
M  V30 1769 N 179.915 0.751683 -4.5706 0
M  V30 1770 C 180.65 0.817177 -5.67547 0
M  V30 1771 N 180.146 0.843129 -6.8765 0
M  V30 1772 N 181.939 0.856668 -5.55534 0
M  V30 1773 H 174.09 -0.704318 -2.00382 0
M  V30 1774 H 176.353 -0.254687 -0.913148 0
M  V30 1775 H 176.059 -0.361607 -3.49836 0
M  V30 1776 H 175.933 1.3886 -3.5071 0
M  V30 1777 H 178.32 1.52733 -2.52501 0
M  V30 1778 H 178.401 -0.240095 -2.54671 0
M  V30 1779 H 178.045 -0.2031 -5.07494 0
M  V30 1780 H 177.975 1.57633 -5.02454 0
M  V30 1781 H 180.466 0.739661 -3.70591 0
M  V30 1782 H 180.779 0.894448 -7.67606 0
M  V30 1783 H 179.124 0.811304 -6.90248 0
M  V30 1784 H 182.315 0.833437 -4.60621 0
M  V30 1785 H 182.488 0.904247 -6.4166 0
M  V30 1786 N 175.894 1.51508 0.433938 0
M  V30 1787 C 177.305 1.56784 1.01369 0
M  V30 1788 C 177.656 0.393349 1.92217 0
M  V30 1789 O 176.781 -0.489441 2.10792 0
M  V30 1790 C 177.376 2.84144 1.8452 0
M  V30 1791 C 175.935 2.9198 2.37539 0
M  V30 1792 C 175.082 2.51482 1.16843 0
M  V30 1793 H 178.033 1.57236 0.215081 0
M  V30 1794 H 178.054 2.68098 2.70007 0
M  V30 1795 H 177.566 3.69607 1.18373 0
M  V30 1796 H 175.667 2.10955 3.0713 0
M  V30 1797 H 175.78 3.95704 2.70103 0
M  V30 1798 H 174.144 2.04758 1.51481 0
M  V30 1799 H 174.927 3.39293 0.523015 0
M  V30 1800 N 177.372 -0.689602 1.41712 0
M  V30 1801 C 178.322 -1.79571 1.40493 0
M  V30 1802 C 179.306 -1.58473 0.278409 0
M  V30 1803 O 180.498 -1.69204 0.519532 0
M  V30 1804 C 177.627 -3.17923 1.29536 0
M  V30 1805 C 176.713 -3.44695 2.47075 0
M  V30 1806 N 177.104 -3.42132 3.72531 0
M  V30 1807 C 175.402 -3.75269 2.41017 0
M  V30 1808 C 176.103 -3.67976 4.50521 0
M  V30 1809 N 175.079 -3.88014 3.80718 0
M  V30 1810 H 178.881 -1.75961 2.35404 0
M  V30 1811 H 176.395 -0.889839 1.35851 0
M  V30 1812 H 178.392 -3.97167 1.26745 0
M  V30 1813 H 177.052 -3.22741 0.356153 0
M  V30 1814 H 178.063 -3.22375 4.05333 0
M  V30 1815 H 174.74 -3.87421 1.55599 0
M  V30 1816 H 176.13 -3.7208 5.59469 0
M  V30 1817 N 178.85 -1.27639 -0.924453 0
M  V30 1818 C 180.261 -1.12834 -1.48746 0
M  V30 1819 C 180.612 0.285505 -1.94112 0
M  V30 1820 O 179.737 1.17874 -1.81479 0
M  V30 1821 C 180.332 -2.04217 -2.70334 0
M  V30 1822 C 178.891 -1.93509 -3.22848 0
M  V30 1823 C 178.038 -1.96583 -1.95577 0
M  V30 1824 H 180.989 -1.40484 -0.738233 0
M  V30 1825 H 181.01 -1.59989 -3.4523 0
M  V30 1826 H 180.522 -3.07111 -2.37285 0
M  V30 1827 H 178.623 -0.936131 -3.60649 0
M  V30 1828 H 178.736 -2.79917 -3.88823 0
M  V30 1829 H 177.1 -1.4085 -2.12211 0
M  V30 1830 H 177.883 -3.01137 -1.64837 0
M  V30 1831 N 180.328 1.1314 -1.09713 0
M  V30 1832 C 181.291 2.16831 -0.742751 0
M  V30 1833 C 182.291 1.59159 0.229129 0
M  V30 1834 O 183.481 1.74199 0.00693237 0
M  V30 1835 C 180.613 3.40756 -0.0989168 0
M  V30 1836 H 181.806 2.49695 -1.66109 0
M  V30 1837 H 179.359 1.2802 -0.896699 0
M  V30 1838 H 180.094 3.13485 0.830514 0
M  V30 1839 H 179.879 3.83888 -0.798265 0
M  V30 1840 H 181.369 4.17386 0.133524 0
M  V30 1841 N 181.806 0.884767 1.30421 0
M  V30 1842 C 183.036 0.517293 2.00019 0
M  V30 1843 C 183.444 -0.898632 1.66497 0
M  V30 1844 O 182.787 -1.60245 0.898181 0
M  V30 1845 C 182.849 0.612025 3.54252 0
M  V30 1846 C 182.513 1.99222 4.1129 0
M  V30 1847 C 183.51 2.9616 4.273 0
M  V30 1848 C 181.195 2.29755 4.46674 0
M  V30 1849 C 183.189 4.21764 4.77906 0
M  V30 1850 C 180.876 3.55606 4.96979 0
M  V30 1851 C 181.874 4.51425 5.12547 0
M  V30 1852 O 181.562 5.75043 5.61766 0
M  V30 1853 H 181.294 0.198529 0.64619 0
M  V30 1854 H 183.848 1.1919 1.67281 0
M  V30 1855 H 182.078 -0.119561 3.86515 0
M  V30 1856 H 183.767 0.255859 4.05093 0
M  V30 1857 H 184.533 2.73882 4.00267 0
M  V30 1858 H 180.412 1.55942 4.33824 0
M  V30 1859 H 183.956 4.96561 4.89972 0
M  V30 1860 H 179.853 3.7772 5.23448 0
M  V30 1861 H 180.621 5.77422 5.80109 0
M  V30 1862 N 183.284 -1.43765 0.645699 0
M  V30 1863 C 184.53 -2.02731 0.164844 0
M  V30 1864 C 184.885 -1.49983 -1.2051 0
M  V30 1865 O 184.178 -0.680208 -1.79119 0
M  V30 1866 C 184.372 -3.57238 0.107679 0
M  V30 1867 C 184.201 -4.24977 1.47054 0
M  V30 1868 C 182.971 -4.61356 2.06103 0
M  V30 1869 C 185.169 -4.54476 2.40741 0
M  V30 1870 N 183.151 -5.14132 3.35473 0
M  V30 1871 C 184.522 -5.08489 3.54737 0
M  V30 1872 C 186.577 -4.36438 2.39637 0
M  V30 1873 C 185.28 -5.46364 4.67845 0
M  V30 1874 C 187.306 -4.7537 3.5182 0
M  V30 1875 C 186.668 -5.2951 4.64541 0
M  V30 1876 H 182.767 -0.774976 0.104578 0
M  V30 1877 H 185.351 -1.75051 0.852367 0
M  V30 1878 H 183.522 -3.84498 -0.549165 0
M  V30 1879 H 185.254 -4.0288 -0.383351 0
M  V30 1880 H 182.009 -4.46151 1.58892 0
M  V30 1881 H 182.433 -5.4498 4.01654 0
M  V30 1882 H 187.075 -3.93861 1.53731 0
M  V30 1883 H 184.793 -5.87888 5.54448 0
M  V30 1884 H 188.379 -4.63115 3.52159 0
M  V30 1885 H 187.259 -5.59077 5.49911 0
M  V30 1886 N 184.763 -0.387143 -1.52771 0
M  V30 1887 C 186.179 -0.037007 -1.59557 0
M  V30 1888 C 186.379 1.44801 -1.40124 0
M  V30 1889 O 185.435 2.21227 -1.21716 0
M  V30 1890 C 186.748 -0.512256 -2.96305 0
M  V30 1891 C 188.296 -0.468328 -3.09476 0
M  V30 1892 C 188.771 -0.919731 -4.4867 0
M  V30 1893 N 190.262 -0.875656 -4.54848 0
M  V30 1894 C 190.997 -1.19637 -5.6078 0
M  V30 1895 N 190.493 -1.58745 -6.74368 0
M  V30 1896 N 192.286 -1.11776 -5.50874 0
M  V30 1897 H 184.437 -1.35395 -1.63652 0
M  V30 1898 H 186.7 -0.554818 -0.768688 0
M  V30 1899 H 186.406 -1.54935 -3.15734 0
M  V30 1900 H 186.28 0.089805 -3.77093 0
M  V30 1901 H 188.667 0.559671 -2.89744 0
M  V30 1902 H 188.748 -1.10616 -2.30646 0
M  V30 1903 H 188.392 -1.94595 -4.69143 0
M  V30 1904 H 188.322 -0.258927 -5.25963 0
M  V30 1905 H 190.813 -0.587843 -3.733 0
M  V30 1906 H 191.126 -1.81586 -7.51163 0
M  V30 1907 H 189.471 -1.6263 -6.75705 0
M  V30 1908 H 192.662 -0.811264 -4.61016 0
M  V30 1909 H 192.835 -1.37103 -6.3333 0
M  V30 1910 N 186.241 1.57166 -0.116904 0
M  V30 1911 C 187.488 1.95123 0.541603 0
M  V30 1912 C 187.816 1.00006 1.6682 0
M  V30 1913 O 187.071 0.0235658 1.95686 0
M  V30 1914 C 187.37 3.39508 1.11664 0
M  V30 1915 C 187.036 4.50762 0.111606 0
M  V30 1916 C 185.698 4.80918 -0.164758 0
M  V30 1917 C 188.05 5.18036 -0.573438 0
M  V30 1918 C 185.378 5.75666 -1.13249 0
M  V30 1919 C 187.73 6.13824 -1.52978 0
M  V30 1920 C 186.394 6.42374 -1.81415 0
M  V30 1921 H 185.664 0.714005 0.198187 0
M  V30 1922 H 188.311 1.9048 -0.197365 0
M  V30 1923 H 186.616 3.40835 1.93232 0
M  V30 1924 H 188.313 3.66189 1.63422 0
M  V30 1925 H 184.903 4.27272 0.337192 0
M  V30 1926 H 189.087 4.94896 -0.373092 0
M  V30 1927 H 184.343 5.96092 -1.35958 0
M  V30 1928 H 188.517 6.65039 -2.06629 0
M  V30 1929 H 186.144 7.15599 -2.56557 0
M  V30 1930 N 187.719 -0.156864 1.56817 0
M  V30 1931 C 188.965 -0.867645 1.83966 0
M  V30 1932 C 189.32 -1.79233 0.699511 0
M  V30 1933 O 188.613 -1.89186 -0.303176 0
M  V30 1934 C 188.807 -1.68737 3.1506 0
M  V30 1935 C 188.636 -0.843548 4.41718 0
M  V30 1936 C 187.406 -0.512994 5.02689 0
M  V30 1937 C 189.604 -0.178416 5.1399 0
M  V30 1938 N 187.586 0.345456 6.12927 0
M  V30 1939 C 188.957 0.540586 6.17639 0
M  V30 1940 C 191.012 -0.0980696 4.97803 0
M  V30 1941 C 189.715 1.33233 7.06853 0
M  V30 1942 C 191.741 0.680387 5.87473 0
M  V30 1943 C 191.103 1.3877 6.90596 0
M  V30 1944 H 187.202 -0.295642 0.723961 0
M  V30 1945 H 189.786 -0.13365 1.94241 0
M  V30 1946 H 187.957 -2.39268 3.0595 0
M  V30 1947 H 189.689 -2.34056 3.30151 0
M  V30 1948 H 186.444 -0.846476 4.65974 0
M  V30 1949 H 186.868 0.765415 6.72659 0
M  V30 1950 H 191.51 -0.630562 4.18071 0
M  V30 1951 H 189.228 1.87612 7.8602 0
M  V30 1952 H 192.814 0.744415 5.77018 0
M  V30 1953 H 191.694 1.9804 7.58782 0
M  V30 1954 N 189.197 -1.51736 -0.425897 0
M  V30 1955 C 190.127 -1.76827 -1.52494 0
M  V30 1956 C 191.108 -0.618524 -1.58456 0
M  V30 1957 O 192.293 -0.862416 -1.74 0
M  V30 1958 C 189.423 -1.90374 -2.90474 0
M  V30 1959 C 188.377 -3.0588 -2.99369 0
M  V30 1960 C 187.703 -3.04625 -4.3944 0
M  V30 1961 C 189.003 -4.45644 -2.72394 0
M  V30 1962 H 190.697 -2.68855 -1.31748 0
M  V30 1963 H 188.243 -1.29372 -0.632362 0
M  V30 1964 H 190.196 -2.0651 -3.6733 0
M  V30 1965 H 188.92 -0.95004 -3.12477 0
M  V30 1966 H 187.579 -2.89467 -2.24954 0
M  V30 1967 H 187.227 -2.0701 -4.58428 0
M  V30 1968 H 186.927 -3.82195 -4.46319 0
M  V30 1969 H 188.451 -3.22869 -5.18255 0
M  V30 1970 H 189.865 -4.62348 -3.38979 0
M  V30 1971 H 188.262 -5.25006 -2.9067 0
M  V30 1972 H 189.332 -4.54893 -1.67929 0
M  V30 1973 N 190.675 0.682077 -1.42076 0
M  V30 1974 C 191.915 1.45424 -1.43636 0
M  V30 1975 C 192.279 1.91939 -0.0484001 0
M  V30 1976 O 193.48 2.6873 0.0612514 0
M  V30 1977 C 191.751 2.62427 -2.42625 0
M  V30 1978 S 193.31 3.51379 -2.62827 0
M  V30 1979 H 190.128 0.496779 -0.508657 0
M  V30 1980 H 192.73 0.794645 -1.78621 0
M  V30 1981 H 191.434 2.26481 -3.42249 0
M  V30 1982 H 190.965 3.33266 -2.09039 0
M  V30 1983 H 192.98 4.58141 -1.9058 0
M  V30 1984 N 192.153 1.28127 0.917671 0
M  V30 1985 C 193.399 1.15223 1.66888 0
M  V30 1986 C 193.732 -0.299293 1.9188 0
M  V30 1987 O 193.007 -1.21805 1.51637 0
M  V30 1988 C 193.29 1.94706 3.02922 0
M  V30 1989 C 193.143 3.47898 2.85109 0
M  V30 1990 C 194.462 1.75939 4.03402 0
M  V30 1991 H 191.581 0.419946 0.605652 0
M  V30 1992 H 194.223 1.57398 1.06423 0
M  V30 1993 H 192.373 1.58864 3.54534 0
M  V30 1994 H 194.045 3.93624 2.40537 0
M  V30 1995 H 192.288 3.7373 2.20246 0
M  V30 1996 H 192.959 3.98765 3.81694 0
M  V30 1997 H 195.435 2.07209 3.60837 0
M  V30 1998 H 194.311 2.33931 4.96556 0
M  V30 1999 H 194.572 0.709877 4.36364 0
M  V30 2000 N 193.631 -1.12557 1.10312 0
M  V30 2001 C 194.856 -1.88405 0.867085 0
M  V30 2002 C 195.281 -1.79038 -0.576817 0
M  V30 2003 O 194.639 -1.14439 -1.40618 0
M  V30 2004 C 194.687 -3.3563 1.31851 0
M  V30 2005 O 193.791 -4.09565 0.482734 0
M  V30 2006 H 193.132 -0.585455 0.313271 0
M  V30 2007 H 195.662 -1.42352 1.4696 0
M  V30 2008 H 195.672 -3.86469 1.3079 0
M  V30 2009 H 194.347 -3.41765 2.37001 0
M  V30 2010 H 192.924 -3.68695 0.558448 0
M  V30 2011 N 195.109 -0.891671 -1.2995 0
M  V30 2012 C 196.355 -0.514261 -1.96171 0
M  V30 2013 C 196.688 0.935506 -1.70182 0
M  V30 2014 O 195.963 1.66204 -1.01028 0
M  V30 2015 C 196.246 -0.797719 -3.51153 0
M  V30 2016 C 196.099 -2.2986 -3.86632 0
M  V30 2017 C 197.418 -0.278749 -4.39216 0
M  V30 2018 H 194.537 -0.188314 -0.712535 0
M  V30 2019 H 197.179 -1.11689 -1.53706 0
M  V30 2020 H 195.329 -0.284826 -3.87455 0
M  V30 2021 H 197.001 -2.88042 -3.60319 0
M  V30 2022 H 195.244 -2.76257 -3.34462 0
M  V30 2023 H 195.915 -2.44753 -4.94773 0
M  V30 2024 H 198.391 -0.717825 -4.09862 0
M  V30 2025 H 197.267 -0.506353 -5.46559 0
M  V30 2026 H 197.528 0.820266 -4.34424 0
M  V30 2027 N 196.587 1.43421 -0.653314 0
M  V30 2028 C 197.833 2.02111 -0.166992 0
M  V30 2029 C 198.166 1.51423 1.21592 0
M  V30 2030 O 197.441 0.707389 1.8118 0
M  V30 2031 C 197.724 3.5966 -0.177948 0
M  V30 2032 C 197.577 4.20579 -1.59478 0
M  V30 2033 C 198.896 4.37413 0.4856 0
M  V30 2034 H 196.015 0.734374 -0.0621557 0
M  V30 2035 H 198.657 1.70717 -0.834016 0
M  V30 2036 H 196.807 3.86537 0.390032 0
M  V30 2037 H 198.479 4.04732 -2.21336 0
M  V30 2038 H 196.722 3.77226 -2.14204 0
M  V30 2039 H 197.393 5.29665 -1.5543 0
M  V30 2040 H 199.869 4.161 0.00234528 0
M  V30 2041 H 198.745 5.47075 0.447207 0
M  V30 2042 H 199.006 4.13672 1.55974 0
M  V30 2043 N 198.065 0.39524 1.52563 0
M  V30 2044 C 199.295 -0.184675 2.05773 0
M  V30 2045 C 199.703 -1.40571 1.26635 0
M  V30 2046 O 199.046 -1.81105 0.30769 0
M  V30 2047 C 199.108 -0.613551 3.54226 0
M  V30 2048 C 198.772 0.49484 4.54313 0
M  V30 2049 C 199.769 1.3541 5.01956 0
M  V30 2050 C 197.454 0.663565 4.97898 0
M  V30 2051 C 199.448 2.36716 5.91814 0
M  V30 2052 C 197.135 1.67996 5.87555 0
M  V30 2053 C 198.133 2.53017 6.34406 0
M  V30 2054 O 197.821 3.52917 7.22291 0
M  V30 2055 H 197.553 -0.030077 0.675331 0
M  V30 2056 H 200.107 0.560708 1.97599 0
M  V30 2057 H 198.337 -1.411 3.60038 0
M  V30 2058 H 200.026 -1.11981 3.90148 0
M  V30 2059 H 200.792 1.23509 4.6901 0
M  V30 2060 H 196.671 0.0114913 4.60999 0
M  V30 2061 H 200.215 3.03113 6.28306 0
M  V30 2062 H 196.112 1.79933 6.19915 0
M  V30 2063 H 196.88 3.48996 7.40367 0
M  V30 2064 N 199.544 -1.57102 0.125237 0
M  V30 2065 C 200.454 -2.19191 -0.8362 0
M  V30 2066 C 201.47 -1.16985 -1.28805 0
M  V30 2067 O 202.646 -1.49479 -1.34974 0
M  V30 2068 C 199.711 -2.78407 -2.06617 0
M  V30 2069 C 198.772 -3.9567 -1.66565 0
M  V30 2070 C 198.005 -4.52052 -2.83698 0
M  V30 2071 O 198.228 -4.07326 -3.99302 0
M  V30 2072 O 197.162 -5.42645 -2.60423 0
M  V30 2073 H 200.988 -3.01816 -0.337776 0
M  V30 2074 H 198.573 -1.4906 -0.100695 0
M  V30 2075 H 200.455 -3.16129 -2.7864 0
M  V30 2076 H 199.13 -1.9881 -2.55453 0
M  V30 2077 H 198.037 -3.62705 -0.916296 0
M  V30 2078 H 199.37 -4.76722 -1.22464 0
M  V30 2079 N 201.022 0.148545 -1.56898 0
M  V30 2080 C 201.952 1.18524 -2.01182 0
M  V30 2081 C 202.933 1.4489 -0.891123 0
M  V30 2082 O 204.118 1.55836 -1.15882 0
M  V30 2083 C 201.248 2.51879 -2.39112 0
M  V30 2084 C 200.202 2.40038 -3.54353 0
M  V30 2085 C 199.528 3.78089 -3.78091 0
M  V30 2086 C 200.828 1.88577 -4.87069 0
M  V30 2087 H 202.522 0.817029 -2.88036 0
M  V30 2088 H 200.068 0.391575 -1.38574 0
M  V30 2089 H 202.021 3.24627 -2.68692 0
M  V30 2090 H 200.745 2.90532 -1.49193 0
M  V30 2091 H 199.404 1.69742 -3.24936 0
M  V30 2092 H 199.052 4.14175 -2.85426 0
M  V30 2093 H 198.752 3.71028 -4.55645 0
M  V30 2094 H 200.276 4.52387 -4.10095 0
M  V30 2095 H 201.69 2.51117 -5.15377 0
M  V30 2096 H 200.087 1.9241 -5.68417 0
M  V30 2097 H 201.157 0.84136 -4.77545 0
M  V30 2098 N 202.5 1.5196 0.417844 0
M  V30 2099 C 203.747 1.65591 1.16559 0
M  V30 2100 C 204.075 0.381565 1.90721 0
M  V30 2101 O 203.33 -0.635156 1.85106 0
M  V30 2102 C 203.629 2.82269 2.19223 0
M  V30 2103 C 203.295 4.20819 1.61933 0
M  V30 2104 C 201.957 4.58506 1.46033 0
M  V30 2105 C 204.309 5.07196 1.20008 0
M  V30 2106 C 201.637 5.80257 0.867113 0
M  V30 2107 C 203.989 6.29544 0.621086 0
M  V30 2108 C 202.653 6.65987 0.449144 0
M  V30 2109 H 201.923 0.605939 0.42652 0
M  V30 2110 H 204.57 1.86041 0.45397 0
M  V30 2111 H 202.875 2.56118 2.96498 0
M  V30 2112 H 204.572 2.90012 2.76936 0
M  V30 2113 H 201.162 3.91116 1.7529 0
M  V30 2114 H 205.346 4.7867 1.31105 0
M  V30 2115 H 200.602 6.07124 0.721833 0
M  V30 2116 H 204.776 6.95805 0.287798 0
M  V30 2117 H 202.403 7.60199 -0.012632 0
M  V30 2118 N 203.978 -0.674533 1.42435 0
M  V30 2119 C 204.908 -1.80009 1.48724 0
M  V30 2120 C 205.889 -1.6659 0.343793 0
M  V30 2121 O 207.074 -1.86007 0.558137 0
M  V30 2122 C 204.204 -3.18306 1.38919 0
M  V30 2123 C 203.158 -3.46461 2.51294 0
M  V30 2124 C 202.484 -4.84335 2.26547 0
M  V30 2125 C 203.784 -3.43328 3.93603 0
M  V30 2126 H 205.478 -1.75004 2.42928 0
M  V30 2127 H 203.024 -0.840533 1.16923 0
M  V30 2128 H 204.977 -3.9678 1.41927 0
M  V30 2129 H 203.701 -3.2399 0.412094 0
M  V30 2130 H 202.36 -2.70348 2.47604 0
M  V30 2131 H 202.008 -4.86669 1.2713 0
M  V30 2132 H 201.708 -5.04136 3.01861 0
M  V30 2133 H 203.232 -5.65094 2.31304 0
M  V30 2134 H 204.646 -4.11772 3.98894 0
M  V30 2135 H 203.043 -3.74664 4.68771 0
M  V30 2136 H 204.113 -2.41897 4.20255 0
M  V30 2137 N 205.456 -1.28612 -0.910864 0
M  V30 2138 C 206.705 -1.15311 -1.65488 0
M  V30 2139 C 207.018 0.296999 -1.93332 0
M  V30 2140 O 208.224 0.551168 -2.65847 0
M  V30 2141 C 206.68 -2.01599 -2.98137 0
M  V30 2142 C 206.288 -3.51367 -2.7793 0
M  V30 2143 C 208.032 -1.96993 -3.76024 0
M  V30 2144 C 205.939 -4.29797 -4.06237 0
M  V30 2145 H 204.869 -0.42796 -0.620779 0
M  V30 2146 H 207.52 -1.53166 -1.01057 0
M  V30 2147 H 205.902 -1.56603 -3.63719 0
M  V30 2148 H 207.076 -4.0434 -2.21011 0
M  V30 2149 H 205.391 -3.57529 -2.13452 0
M  V30 2150 H 207.988 -2.52856 -4.71135 0
M  V30 2151 H 208.331 -0.94733 -4.05378 0
M  V30 2152 H 208.864 -2.39973 -3.17266 0
M  V30 2153 H 205.603 -5.32648 -3.82055 0
M  V30 2154 H 205.123 -3.81596 -4.62757 0
M  V30 2155 H 206.802 -4.39869 -4.74473 0
M  V30 2156 N 206.934 1.1197 -1.10907 0
M  V30 2157 C 208.181 1.83588 -0.854507 0
M  V30 2158 C 208.509 1.84357 0.6199 0
M  V30 2159 O 207.764 1.28809 1.47332 0
M  V30 2160 C 208.063 3.30749 -1.35425 0
M  V30 2161 C 207.729 3.50146 -2.84093 0
M  V30 2162 C 206.391 3.55148 -3.2469 0
M  V30 2163 C 208.743 3.56857 -3.79872 0
M  V30 2164 C 206.071 3.6441 -4.59806 0
M  V30 2165 C 208.423 3.6765 -5.14797 0
M  V30 2166 C 207.087 3.7091 -5.54961 0
M  V30 2167 H 206.357 0.671795 -0.312686 0
M  V30 2168 H 209.004 1.32091 -1.38652 0
M  V30 2169 H 207.309 3.84703 -0.742361 0
M  V30 2170 H 209.006 3.8464 -1.1337 0
M  V30 2171 H 205.596 3.46919 -2.51685 0
M  V30 2172 H 209.78 3.52258 -3.49611 0
M  V30 2173 H 205.036 3.65208 -4.9034 0
M  V30 2174 H 209.21 3.71786 -5.88853 0
M  V30 2175 H 206.837 3.7784 -6.59652 0
M  V30 2176 N 208.412 0.89855 1.29475 0
M  V30 2177 C 209.661 0.519863 1.94885 0
M  V30 2178 C 209.974 -0.9383 1.71625 0
M  V30 2179 O 211.18 -1.42445 2.31131 0
M  V30 2180 C 209.636 0.878836 3.49005 0
M  V30 2181 C 209.244 2.35569 3.81066 0
M  V30 2182 C 210.988 0.570004 4.20656 0
M  V30 2183 C 208.895 2.65558 5.28425 0
M  V30 2184 H 207.825 0.190692 0.729488 0
M  V30 2185 H 210.476 1.09539 1.47219 0
M  V30 2186 H 208.858 0.232253 3.95318 0
M  V30 2187 H 210.032 3.04773 3.45616 0
M  V30 2188 H 208.347 2.63343 3.22552 0
M  V30 2189 H 210.944 0.770925 5.29113 0
M  V30 2190 H 211.287 -0.491404 4.1339 0
M  V30 2191 H 211.82 1.17438 3.8007 0
M  V30 2192 H 208.559 3.70493 5.40754 0
M  V30 2193 H 208.079 2.00977 5.65127 0
M  V30 2194 H 209.758 2.51765 5.96006 0
M  V30 2195 N 209.89 -1.43072 0.660911 0
M  V30 2196 C 210.82 -2.33497 -0.0122829 0
M  V30 2197 C 211.801 -1.49903 -0.803925 0
M  V30 2198 O 212.986 -1.78546 -0.763864 0
M  V30 2199 C 210.116 -3.33363 -0.973994 0
M  V30 2200 C 209.07 -4.27003 -0.291928 0
M  V30 2201 C 208.396 -5.16967 -1.36562 0
M  V30 2202 C 209.696 -5.15816 0.820462 0
M  V30 2203 H 211.39 -2.90038 0.742873 0
M  V30 2204 H 208.936 -1.39461 0.358688 0
M  V30 2205 H 210.889 -3.95524 -1.45392 0
M  V30 2206 H 209.613 -2.75095 -1.7604 0
M  V30 2207 H 208.272 -3.66217 0.167623 0
M  V30 2208 H 207.92 -4.55034 -2.14366 0
M  V30 2209 H 207.62 -5.80441 -0.914454 0
M  V30 2210 H 209.144 -5.82003 -1.84675 0
M  V30 2211 H 210.558 -5.71742 0.422366 0
M  V30 2212 H 208.955 -5.8805 1.19656 0
M  V30 2213 H 210.025 -4.55045 1.67518 0
M  V30 2214 N 211.368 -0.403325 -1.52352 0
M  V30 2215 C 212.615 0.174347 -2.01748 0
M  V30 2216 C 212.943 1.45636 -1.2892 0
M  V30 2217 O 212.198 1.9193 -0.382258 0
M  V30 2218 C 212.497 0.474665 -3.54234 0
M  V30 2219 C 212.163 -0.717458 -4.45155 0
M  V30 2220 C 210.825 -1.04447 -4.69728 0
M  V30 2221 C 213.177 -1.51432 -4.98716 0
M  V30 2222 C 210.505 -2.16963 -5.45109 0
M  V30 2223 C 212.857 -2.6302 -5.75329 0
M  V30 2224 C 211.521 -2.96213 -5.98175 0
M  V30 2225 H 210.791 0.0637981 -0.738248 0
M  V30 2226 H 213.438 -0.543553 -1.83624 0
M  V30 2227 H 211.743 1.27406 -3.70506 0
M  V30 2228 H 213.44 0.934496 -3.89959 0
M  V30 2229 H 210.03 -0.452596 -4.26204 0
M  V30 2230 H 214.214 -1.27491 -4.79645 0
M  V30 2231 H 209.47 -2.43034 -5.61021 0
M  V30 2232 H 213.644 -3.25158 -6.15829 0
M  V30 2233 H 211.271 -3.83516 -6.56368 0
M  V30 2234 N 212.846 1.57033 -0.133567 0
M  V30 2235 C 213.778 2.13176 0.841944 0
M  V30 2236 C 214.791 1.07794 1.22001 0
M  V30 2237 O 215.98 1.35117 1.16643 0
M  V30 2238 C 213.08 2.62847 2.13926 0
M  V30 2239 C 212.253 3.92486 1.93064 0
M  V30 2240 C 211.312 4.27605 3.0666 0
M  V30 2241 O 210.338 4.96168 2.78937 0
M  V30 2242 N 211.54 3.861 4.33483 0
M  V30 2243 H 214.305 2.97503 0.362192 0
M  V30 2244 H 211.866 1.61821 0.05042 0
M  V30 2245 H 213.858 2.83363 2.88942 0
M  V30 2246 H 212.428 1.83319 2.53205 0
M  V30 2247 H 211.648 3.80732 1.02159 0
M  V30 2248 H 212.936 4.77225 1.76447 0
M  V30 2249 H 212.334 3.30828 4.58878 0
M  V30 2250 H 210.891 4.11694 5.05323 0
M  V30 2251 N 214.325 -0.140222 1.56975 0
M  V30 2252 C 215.553 -0.866437 1.87884 0
M  V30 2253 C 215.968 -1.74428 0.722517 0
M  V30 2254 O 215.325 -1.79891 -0.30749 0
M  V30 2255 C 215.376 -1.71753 3.18093 0
M  V30 2256 O 215.097 -0.875056 4.29272 0
M  V30 2257 C 216.598 -2.55074 3.62563 0
M  V30 2258 H 213.818 -0.25019 0.622612 0
M  V30 2259 H 216.362 -0.130977 2.0408 0
M  V30 2260 H 214.517 -2.40598 3.03631 0
M  V30 2261 H 214.931 -1.46002 5.03769 0
M  V30 2262 H 216.405 -3.10356 4.5649 0
M  V30 2263 H 216.882 -3.31434 2.88181 0
M  V30 2264 H 217.488 -1.91509 3.79743 0
M  V30 2265 N 215.803 -1.52179 -0.40978 0
M  V30 2266 C 217.049 -1.66453 -1.15851 0
M  V30 2267 C 217.382 -0.392972 -1.90182 0
M  V30 2268 O 216.657 0.608579 -1.84734 0
M  V30 2269 C 216.94 -2.88612 -2.15349 0
M  V30 2270 C 216.793 -4.25815 -1.44918 0
M  V30 2271 C 218.112 -3.06294 -3.16026 0
M  V30 2272 H 215.231 -0.60575 -0.419805 0
M  V30 2273 H 217.873 -1.84732 -0.444314 0
M  V30 2274 H 216.023 -2.73158 -2.76255 0
M  V30 2275 H 217.695 -4.52995 -0.871365 0
M  V30 2276 H 215.938 -4.27247 -0.751159 0
M  V30 2277 H 216.609 -5.07337 -2.17516 0
M  V30 2278 H 219.085 -3.20641 -2.65195 0
M  V30 2279 H 217.961 -3.93283 -3.8291 0
M  V30 2280 H 218.222 -2.19579 -3.83715 0
M  V30 2281 N 217.281 0.66697 -1.42791 0
M  V30 2282 C 218.213 1.7925 -1.42836 0
M  V30 2283 C 219.226 1.59496 -0.326333 0
M  V30 2284 O 220.415 1.6847 -0.589916 0
M  V30 2285 C 217.515 3.16476 -1.21229 0
M  V30 2286 C 216.688 3.63011 -2.44013 0
M  V30 2287 C 215.747 4.78993 -2.17834 0
M  V30 2288 O 214.773 4.89137 -2.91091 0
M  V30 2289 N 215.975 5.68248 -1.18635 0
M  V30 2290 H 218.74 1.79695 -2.39854 0
M  V30 2291 H 216.301 0.850338 -1.37771 0
M  V30 2292 H 218.293 3.91734 -1.01621 0
M  V30 2293 H 216.863 3.10884 -0.32706 0
M  V30 2294 H 216.083 2.78346 -2.79137 0
M  V30 2295 H 217.371 3.90845 -3.25757 0
M  V30 2296 H 216.769 5.62712 -0.580615 0
M  V30 2297 H 215.326 6.43285 -1.05013 0
M  V30 2298 N 218.759 1.29093 0.90403 0
M  V30 2299 C 220.036 1.075 1.63411 0
M  V30 2300 C 220.416 -0.382346 2.07609 0
M  V30 2301 O 219.764 -1.37031 1.82851 0
M  V30 2302 C 219.974 2.05858 2.81822 0
M  V30 2303 C 221.322 2.36539 3.52611 0
M  V30 2304 O 222.346 2.04019 2.91984 0
M  V30 2305 O 221.205 2.92085 4.61897 0
M  V30 2306 H 218.299 0.411547 0.717327 0
M  V30 2307 H 220.845 1.40449 0.952479 0
M  V30 2308 H 219.617 3.04037 2.46327 0
M  V30 2309 H 219.24 1.73613 3.57693 0
M  V30 2310 N 220.237 -1.11381 1.11499 0
M  V30 2311 C 221.485 -1.8277 0.862524 0
M  V30 2312 C 221.806 -1.85097 -0.613534 0
M  V30 2313 O 221.076 -1.32198 -1.4457 0
M  V30 2314 H 219.656 -0.676823 0.316101 0
M  V30 2315 H 222.318 -1.34816 1.4075 0
M  V30 2316 H 221.414 -2.86614 1.23527 0
M  V30 2317 N 221.715 -0.905404 -1.28997 0
M  V30 2318 C 223.131 -0.60233 -1.47798 0
M  V30 2319 C 223.331 0.854645 -1.82478 0
M  V30 2320 O 222.387 1.63439 -1.92468 0
M  V30 2321 C 223.7 -1.53306 -2.58685 0
M  V30 2322 C 225.248 -1.53887 -2.72558 0
M  V30 2323 C 225.723 -2.45602 -3.86579 0
M  V30 2324 N 227.214 -2.43681 -3.93921 0
M  V30 2325 C 227.949 -3.11347 -4.81509 0
M  V30 2326 N 227.445 -3.88313 -5.73746 0
M  V30 2327 N 229.238 -3.00476 -4.75048 0
M  V30 2328 H 221.389 -1.84765 -1.04764 0
M  V30 2329 H 223.652 -0.792025 -0.520961 0
M  V30 2330 H 223.358 -2.57141 -2.39941 0
M  V30 2331 H 223.232 -1.25787 -3.55609 0
M  V30 2332 H 225.619 -0.507941 -2.90696 0
M  V30 2333 H 225.7 -1.85447 -1.76191 0
M  V30 2334 H 225.344 -3.48792 -3.69197 0
M  V30 2335 H 225.274 -2.11349 -4.82327 0
M  V30 2336 H 227.765 -1.87767 -3.27951 0
M  V30 2337 H 228.078 -4.36985 -6.37389 0
M  V30 2338 H 226.423 -3.92419 -5.73614 0
M  V30 2339 H 229.614 -2.39858 -4.01977 0
M  V30 2340 H 229.787 -3.53485 -5.43095 0
M  V30 2341 N 223.193 1.4272 -0.668489 0
M  V30 2342 C 224.125 2.2914 0.052613 0
M  V30 2343 C 225.138 1.43339 0.771857 0
M  V30 2344 O 226.327 1.67123 0.627067 0
M  V30 2345 C 223.427 3.20618 1.09804 0
M  V30 2346 C 222.6 4.35039 0.45389 0
M  V30 2347 C 221.659 5.07282 1.39825 0
M  V30 2348 O 220.685 5.62024 0.900978 0
M  V30 2349 N 221.887 5.12206 2.73176 0
M  V30 2350 H 224.652 2.91668 -0.689209 0
M  V30 2351 H 222.213 1.53577 -0.512422 0
M  V30 2352 H 224.205 3.65815 1.73094 0
M  V30 2353 H 222.775 2.59585 1.74167 0
M  V30 2354 H 221.995 3.92567 -0.358396 0
M  V30 2355 H 223.283 5.088 0.00486972 0
M  V30 2356 H 222.681 4.6913 3.16122 0
M  V30 2357 H 221.238 5.61069 3.31729 0
M  V30 2358 N 224.671 0.411399 1.52136 0
M  V30 2359 C 225.918 -0.163645 2.01838 0
M  V30 2360 C 226.246 -1.4495 1.29691 0
M  V30 2361 O 225.501 -1.91725 0.392431 0
M  V30 2362 C 225.8 -0.455872 3.54481 0
M  V30 2363 C 225.466 0.741055 4.44769 0
M  V30 2364 C 224.128 1.06936 4.69167 0
M  V30 2365 C 226.48 1.54075 4.97906 0
M  V30 2366 C 223.808 2.19851 5.43951 0
M  V30 2367 C 226.16 2.66067 5.73926 0
M  V30 2368 C 224.824 2.99381 5.96596 0
M  V30 2369 H 224.094 -0.0598821 0.738576 0
M  V30 2370 H 226.741 0.553283 1.83333 0
M  V30 2371 H 225.046 -1.2544 3.71177 0
M  V30 2372 H 226.743 -0.913802 3.90449 0
M  V30 2373 H 223.333 0.475192 4.25958 0
M  V30 2374 H 227.517 1.30033 4.78963 0
M  V30 2375 H 222.773 2.46006 5.59724 0
M  V30 2376 H 226.947 3.28419 6.14096 0
M  V30 2377 H 224.574 3.86992 6.54325 0
M  V30 2378 N 226.149 -1.5696 0.141893 0
M  V30 2379 C 227.079 -2.19516 -0.795936 0
M  V30 2380 C 228.06 -1.14187 -1.26077 0
M  V30 2381 O 229.245 -1.42511 -1.31925 0
M  V30 2382 C 226.375 -2.81272 -2.03723 0
M  V30 2383 C 225.329 -3.92384 -1.70936 0
M  V30 2384 C 224.655 -4.41052 -3.02287 0
M  V30 2385 C 225.955 -5.13403 -0.959954 0
M  V30 2386 H 227.649 -2.98138 -0.274596 0
M  V30 2387 H 225.195 -1.43406 -0.130636 0
M  V30 2388 H 227.148 -3.237 -2.69808 0
M  V30 2389 H 225.872 -1.99973 -2.58221 0
M  V30 2390 H 224.531 -3.50566 -1.07232 0
M  V30 2391 H 224.179 -3.56582 -3.54765 0
M  V30 2392 H 223.879 -5.15993 -2.81114 0
M  V30 2393 H 225.403 -4.86146 -3.69451 0
M  V30 2394 H 226.817 -5.52706 -1.52279 0
M  V30 2395 H 225.214 -5.94073 -0.848357 0
M  V30 2396 H 226.284 -4.84875 0.0492434 0
M  V30 2397 N 227.627 0.131896 -1.57047 0
M  V30 2398 C 228.574 1.16236 -1.99393 0
M  V30 2399 C 229.544 1.41863 -0.863943 0
M  V30 2400 O 230.729 1.53946 -1.12718 0
M  V30 2401 C 227.869 2.48708 -2.39245 0
M  V30 2402 C 226.982 2.30127 -3.65603 0
M  V30 2403 C 226.117 3.55738 -3.94492 0
M  V30 2404 C 225.156 3.32259 -5.14073 0
M  V30 2405 N 224.293 4.50039 -5.38896 0
M  V30 2406 H 229.133 0.794251 -2.87221 0
M  V30 2407 H 226.67 0.380707 -1.42088 0
M  V30 2408 H 228.628 3.25969 -2.60384 0
M  V30 2409 H 227.258 2.83437 -1.54478 0
M  V30 2410 H 226.31 1.43845 -3.52154 0
M  V30 2411 H 227.622 2.08746 -4.5302 0
M  V30 2412 H 226.776 4.41423 -4.1621 0
M  V30 2413 H 225.515 3.80138 -3.05526 0
M  V30 2414 H 224.52 2.44963 -4.92212 0
M  V30 2415 H 225.745 3.09242 -6.04604 0
M  V30 2416 H 223.691 4.74584 -4.52886 0
M  V30 2417 H 223.608 4.31716 -6.2061 0
M  V30 2418 H 224.876 5.36895 -5.65123 0
M  V30 2419 N 229.106 1.52395 0.401703 0
M  V30 2420 C 230.336 1.70429 1.1678 0
M  V30 2421 C 230.744 0.416702 1.84554 0
M  V30 2422 O 230.087 -0.617697 1.73003 0
M  V30 2423 C 230.149 2.78919 2.26814 0
M  V30 2424 C 229.813 4.20437 1.79113 0
M  V30 2425 C 230.81 5.04028 1.27482 0
M  V30 2426 C 228.495 4.66704 1.85722 0
M  V30 2427 C 230.489 6.31961 0.830913 0
M  V30 2428 C 228.176 5.94625 1.40942 0
M  V30 2429 C 229.174 6.77082 0.897128 0
M  V30 2430 O 228.862 8.02607 0.455822 0
M  V30 2431 H 228.594 0.574272 0.356634 0
M  V30 2432 H 231.148 1.99767 0.477724 0
M  V30 2433 H 229.378 2.44973 2.99207 0
M  V30 2434 H 231.067 2.8548 2.88541 0
M  V30 2435 H 231.833 4.69471 1.21744 0
M  V30 2436 H 227.712 4.0262 2.24539 0
M  V30 2437 H 231.256 6.96271 0.430368 0
M  V30 2438 H 227.153 6.28688 1.46362 0
M  V30 2439 H 227.921 8.16453 0.578457 0
M  V30 2440 N 230.584 -0.659388 1.43143 0
M  V30 2441 C 231.83 -1.42145 1.44647 0
M  V30 2442 C 232.163 -1.9408 0.0681907 0
M  V30 2443 O 231.438 -1.71899 -0.910007 0
M  V30 2444 C 231.721 -2.60735 2.48373 0
M  V30 2445 C 231.574 -2.14332 3.95451 0
M  V30 2446 C 232.893 -3.62951 2.48906 0
M  V30 2447 H 230.012 -0.51552 0.526696 0
M  V30 2448 H 232.654 -0.748069 1.74654 0
M  V30 2449 H 230.804 -3.18184 2.22916 0
M  V30 2450 H 232.476 -1.61932 4.31944 0
M  V30 2451 H 230.719 -1.4576 4.08578 0
M  V30 2452 H 231.39 -2.99583 4.63631 0
M  V30 2453 H 233.866 -3.1525 2.71582 0
M  V30 2454 H 232.742 -4.43487 3.23435 0
M  V30 2455 H 233.003 -4.15126 1.52061 0
M  V30 2456 N 232.062 -1.29571 -0.897171 0
M  V30 2457 C 233.339 -1.08365 -1.62839 0
M  V30 2458 C 233.719 0.371331 -2.07808 0
M  V30 2459 O 233.067 1.3606 -1.83576 0
M  V30 2460 C 233.277 -2.0735 -2.80726 0
M  V30 2461 C 234.625 -2.38406 -3.51351 0
M  V30 2462 O 235.649 -2.05564 -2.90898 0
M  V30 2463 O 234.508 -2.9453 -4.60341 0
M  V30 2464 H 231.602 -0.415345 -0.715134 0
M  V30 2465 H 234.148 -1.40952 -0.945018 0
M  V30 2466 H 232.92 -3.05339 -2.44711 0
M  V30 2467 H 232.543 -1.75507 -3.56767 0
M  V30 2468 N 233.54 1.10788 -1.12088 0
M  V30 2469 C 234.951 1.64181 -0.88891 0
M  V30 2470 C 235.302 1.87508 0.577498 0
M  V30 2471 O 234.427 1.61434 1.44112 0
M  V30 2472 C 235.022 2.98257 -1.60712 0
M  V30 2473 C 233.581 3.4853 -1.42139 0
M  V30 2474 C 232.728 2.23208 -1.6454 0
M  V30 2475 H 235.679 0.943368 -1.27618 0
M  V30 2476 H 235.7 3.65552 -1.05604 0
M  V30 2477 H 235.212 2.81246 -2.67436 0
M  V30 2478 H 233.313 3.70692 -0.376552 0
M  V30 2479 H 233.426 4.26882 -2.17505 0
M  V30 2480 H 231.79 2.31169 -1.06925 0
M  V30 2481 H 232.573 2.08733 -2.72554 0
M  V30 2482 N 235.018 0.912232 1.28515 0
M  V30 2483 C 235.965 0.397954 2.27343 0
M  V30 2484 C 236.935 -0.526766 1.57526 0
M  V30 2485 O 238.12 -0.449292 1.85435 0
M  V30 2486 C 235.26 -0.357263 3.43246 0
M  V30 2487 C 234.373 0.599788 4.27816 0
M  V30 2488 C 233.508 -0.173725 5.30916 0
M  V30 2489 C 232.547 0.777039 6.07148 0
M  V30 2490 N 231.684 0.0371398 7.0209 0
M  V30 2491 H 236.524 1.24577 2.70711 0
M  V30 2492 H 234.061 0.625612 1.33133 0
M  V30 2493 H 236.019 -0.8113 4.09236 0
M  V30 2494 H 234.649 -1.16943 3.00872 0
M  V30 2495 H 233.701 1.17235 3.61884 0
M  V30 2496 H 235.013 1.32704 4.80823 0
M  V30 2497 H 234.167 -0.688394 6.02782 0
M  V30 2498 H 232.906 -0.934041 4.78672 0
M  V30 2499 H 231.911 1.3031 5.34134 0
M  V30 2500 H 233.136 1.53689 6.61481 0
M  V30 2501 H 231.082 -0.705213 6.52198 0
M  V30 2502 H 230.999 0.704249 7.52713 0
M  V30 2503 H 232.267 -0.457383 7.78157 0
M  V30 2504 N 236.496 -1.42363 0.676048 0
M  V30 2505 C 237.426 -2.33497 0.0124832 0
M  V30 2506 C 238.407 -1.50748 -0.787981 0
M  V30 2507 O 239.592 -1.79346 -0.744884 0
M  V30 2508 C 236.722 -3.34377 -0.938582 0
M  V30 2509 C 235.676 -4.27289 -0.246622 0
M  V30 2510 C 235.002 -5.18386 -1.31071 0
M  V30 2511 C 236.302 -5.14916 0.875125 0
M  V30 2512 H 237.996 -2.89233 0.773593 0
M  V30 2513 H 235.542 -1.39073 0.37346 0
M  V30 2514 H 237.495 -3.97044 -1.41188 0
M  V30 2515 H 236.219 -2.76947 -1.73113 0
M  V30 2516 H 234.878 -3.66018 0.206456 0
M  V30 2517 H 234.526 -4.57282 -2.09528 0
M  V30 2518 H 234.226 -5.81378 -0.852839 0
M  V30 2519 H 235.75 -5.83929 -1.78492 0
M  V30 2520 H 237.164 -5.71262 0.482983 0
M  V30 2521 H 235.561 -5.86747 1.25887 0
M  V30 2522 H 236.631 -4.53242 1.72335 0
M  V30 2523 N 237.974 -0.419461 -1.51915 0
M  V30 2524 C 239.222 0.152637 -2.01523 0
M  V30 2525 C 239.543 1.44762 -1.30649 0
M  V30 2526 O 238.813 1.90997 -0.435535 0
M  V30 2527 H 237.393 0.0593966 -0.744635 0
M  V30 2528 H 240.055 -0.558073 -1.86739 0
M  V30 2529 H 239.151 0.341369 -3.10227 0
M  V30 2530 N 239.452 1.56882 -0.150215 0
M  V30 2531 C 240.698 1.96518 0.500834 0
M  V30 2532 C 241.031 1.03527 1.64304 0
M  V30 2533 O 240.306 0.0782751 1.94342 0
M  V30 2534 C 240.589 3.45822 1.00395 0
M  V30 2535 C 240.442 4.49591 -0.136983 0
M  V30 2536 C 241.761 3.97704 1.88467 0
M  V30 2537 H 238.88 0.714535 0.18058 0
M  V30 2538 H 241.522 1.88577 -0.232091 0
M  V30 2539 H 239.672 3.5272 1.62851 0
M  V30 2540 H 241.344 4.5477 -0.77343 0
M  V30 2541 H 239.587 4.26441 -0.795652 0
M  V30 2542 H 240.258 5.51402 0.256815 0
M  V30 2543 H 242.734 3.93304 1.35834 0
M  V30 2544 H 241.61 5.0263 2.20578 0
M  V30 2545 H 241.871 3.40252 2.82279 0
M  V30 2546 N 240.93 -0.123565 1.57115 0
M  V30 2547 C 242.341 -0.681198 1.73829 0
M  V30 2548 C 242.692 -1.80535 0.768214 0
M  V30 2549 O 241.817 -2.16317 -0.0599103 0
M  V30 2550 C 242.412 -1.24246 3.15196 0
M  V30 2551 C 240.971 -1.74643 3.33432 0
M  V30 2552 C 240.118 -0.644284 2.69711 0
M  V30 2553 H 243.069 0.102315 1.5837 0
M  V30 2554 H 243.09 -2.11216 3.16493 0
M  V30 2555 H 242.602 -0.424062 3.85776 0
M  V30 2556 H 240.703 -2.58974 2.67886 0
M  V30 2557 H 240.816 -1.85902 4.41562 0
M  V30 2558 H 239.18 -1.07676 2.3082 0
M  V30 2559 H 239.963 0.163058 3.42913 0
M  V30 2560 N 242.408 -1.52605 -0.393616 0
M  V30 2561 C 243.338 -1.80022 -1.48709 0
M  V30 2562 C 244.319 -0.651995 -1.57108 0
M  V30 2563 O 245.504 -0.89913 -1.72132 0
M  V30 2564 C 242.634 -1.96492 -2.86371 0
M  V30 2565 C 241.588 -3.12161 -2.92813 0
M  V30 2566 C 240.914 -3.13877 -4.3288 0
M  V30 2567 C 242.214 -4.51322 -2.6288 0
M  V30 2568 H 243.908 -2.71589 -1.26015 0
M  V30 2569 H 241.454 -1.30684 -0.604778 0
M  V30 2570 H 243.407 -2.14255 -3.62867 0
M  V30 2571 H 242.131 -1.01611 -3.10391 0
M  V30 2572 H 240.79 -2.94173 -2.18764 0
M  V30 2573 H 240.438 -2.16687 -4.53933 0
M  V30 2574 H 240.138 -3.91576 -4.38112 0
M  V30 2575 H 241.662 -3.33789 -5.1129 0
M  V30 2576 H 243.076 -4.69435 -3.29096 0
M  V30 2577 H 241.473 -5.31053 -2.79468 0
M  V30 2578 H 242.543 -4.58353 -1.58242 0
M  V30 2579 N 243.887 0.651787 -1.4349 0
M  V30 2580 C 245.298 1.233 -1.40193 0
M  V30 2581 C 245.649 1.9591 -0.106727 0
M  V30 2582 O 244.774 2.01316 0.793773 0
M  V30 2583 C 245.369 2.24257 -2.53957 0
M  V30 2584 C 243.928 2.77852 -2.5392 0
M  V30 2585 C 243.075 1.52517 -2.3159 0
M  V30 2586 H 246.026 0.443717 -1.52371 0
M  V30 2587 H 246.047 3.0646 -2.25528 0
M  V30 2588 H 245.559 1.71382 -3.4821 0
M  V30 2589 H 243.66 3.34786 -1.63551 0
M  V30 2590 H 243.773 3.25299 -3.51735 0
M  V30 2591 H 242.137 1.79915 -1.80285 0
M  V30 2592 H 242.92 1.01574 -3.27929 0
M  V30 2593 N 245.365 1.30045 0.890287 0
M  V30 2594 C 246.275 1.17885 2.02831 0
M  V30 2595 C 247.291 0.0999609 1.73713 0
M  V30 2596 O 248.467 0.313867 1.98939 0
M  V30 2597 C 245.532 0.866079 3.35708 0
M  V30 2598 C 244.593 2.02979 3.78283 0
M  V30 2599 C 243.826 1.73184 5.0482 0
M  V30 2600 O 244.049 0.657237 5.66601 0
M  V30 2601 O 242.983 2.58267 5.43674 0
M  V30 2602 H 246.809 2.13474 2.16015 0
M  V30 2603 H 244.394 1.09587 1.01543 0
M  V30 2604 H 246.276 0.706623 4.15433 0
M  V30 2605 H 244.951 -0.0599443 3.23644 0
M  V30 2606 H 243.858 2.24454 2.99285 0
M  V30 2607 H 245.191 2.93734 3.94944 0
M  V30 2608 N 246.843 -1.10192 1.12674 0
M  V30 2609 C 248.259 -1.34235 0.863317 0
M  V30 2610 C 248.459 -1.95062 -0.505277 0
M  V30 2611 O 247.515 -2.19192 -1.25345 0
M  V30 2612 C 248.828 -2.2616 1.98172 0
M  V30 2613 C 250.376 -2.3969 2.0129 0
M  V30 2614 C 250.851 -3.34946 3.1237 0
M  V30 2615 N 252.342 -3.42515 3.11829 0
M  V30 2616 C 253.077 -4.16199 3.94419 0
M  V30 2617 N 252.573 -4.92747 4.87004 0
M  V30 2618 N 254.366 -4.11843 3.82547 0
M  V30 2619 H 246.517 -0.690798 2.00853 0
M  V30 2620 H 248.78 -0.366774 0.874174 0
M  V30 2621 H 248.486 -1.8868 2.96804 0
M  V30 2622 H 248.36 -3.26488 1.88906 0
M  V30 2623 H 250.747 -2.76438 1.03276 0
M  V30 2624 H 250.828 -1.39169 2.14629 0
M  V30 2625 H 250.472 -2.98923 4.10619 0
M  V30 2626 H 250.402 -4.35353 2.96269 0
M  V30 2627 H 252.893 -2.87926 2.44759 0
M  V30 2628 H 253.206 -5.46376 5.46528 0
M  V30 2629 H 251.551 -4.91862 4.91016 0
M  V30 2630 H 254.742 -3.51136 3.0955 0
M  V30 2631 H 254.915 -4.69007 4.47142 0
M  V30 2632 N 248.321 -0.919034 -1.28029 0
M  V30 2633 C 249.598 -0.473668 -1.89778 0
M  V30 2634 C 249.978 1.04783 -1.83259 0
M  V30 2635 O 249.326 1.8982 -1.27202 0
M  V30 2636 C 249.536 -1.00998 -3.34066 0
M  V30 2637 C 250.884 -1.06525 -4.1102 0
M  V30 2638 O 251.908 -0.958996 -3.43048 0
M  V30 2639 O 250.767 -1.22776 -5.3253 0
M  V30 2640 H 247.861 -0.15098 -0.813101 0
M  V30 2641 H 250.407 -1.01016 -1.36359 0
M  V30 2642 H 249.179 -2.05392 -3.33061 0
M  V30 2643 H 248.802 -0.454626 -3.94992 0
M  V30 2644 N 249.799 1.42003 -0.683588 0
M  V30 2645 C 251.029 2.05448 -0.217866 0
M  V30 2646 C 251.437 1.51491 1.13346 0
M  V30 2647 O 250.78 0.653048 1.717 0
M  V30 2648 C 250.842 3.59399 -0.0850118 0
M  V30 2649 C 250.506 4.36093 -1.36645 0
M  V30 2650 C 251.503 4.66169 -2.30179 0
M  V30 2651 C 249.188 4.75578 -1.61649 0
M  V30 2652 C 251.182 5.34676 -3.46988 0
M  V30 2653 C 248.869 5.43824 -2.78745 0
M  V30 2654 C 249.867 5.73299 -3.71238 0
M  V30 2655 O 249.555 6.40142 -4.86285 0
M  V30 2656 H 249.287 0.668344 -0.101454 0
M  V30 2657 H 251.841 1.82974 -0.933248 0
M  V30 2658 H 250.071 3.80566 0.686031 0
M  V30 2659 H 251.76 4.04457 0.341973 0
M  V30 2660 H 252.526 4.36156 -2.12115 0
M  V30 2661 H 248.405 4.52025 -0.905243 0
M  V30 2662 H 251.949 5.57599 -4.19201 0
M  V30 2663 H 247.846 5.73254 -2.96732 0
M  V30 2664 H 248.614 6.58636 -4.85944 0
M  V30 2665 N 251.277 0.427512 1.51691 0
M  V30 2666 C 252.525 -0.141948 2.01601 0
M  V30 2667 C 252.846 -1.44067 1.31414 0
M  V30 2668 O 252.116 -1.90763 0.445658 0
M  V30 2669 H 250.696 -0.0554468 0.744939 0
M  V30 2670 H 253.358 0.567968 1.86441 0
M  V30 2671 H 252.454 -0.324913 3.10404 0
M  V30 2672 N 252.755 -1.56801 0.158532 0
M  V30 2673 C 254.003 -1.96102 -0.488712 0
M  V30 2674 C 254.324 -1.04498 -1.64636 0
M  V30 2675 O 253.594 -0.108783 -1.95598 0
M  V30 2676 H 252.174 -0.724102 -0.183535 0
M  V30 2677 H 254.836 -1.93457 0.236728 0
M  V30 2678 H 253.932 -3.00097 -0.857219 0
M  V30 2679 N 254.233 0.115231 -1.57178 0
M  V30 2680 C 255.181 1.16014 -2.01602 0
M  V30 2681 C 256.175 1.42653 -0.913587 0
M  V30 2682 O 257.381 1.42571 -1.09879 0
M  V30 2683 H 253.756 0.391252 -0.642204 0
M  V30 2684 H 255.727 0.758998 -2.88586 0
M  V30 2685 C 254.476 2.47767 -2.4394 0
M  V30 2686 H 253.799 2.28108 -3.28339 0
M  V30 2687 H 255.239 3.19432 -2.78818 0
M  V30 2688 C 253.698 3.10617 -1.30455 0
M  V30 2689 O 254.228 3.96846 -0.622585 0
M  V30 2690 N 252.434 2.70553 -1.06064 0
M  V30 2691 H 251.981 2.00527 -1.61699 0
M  V30 2692 H 251.939 3.12934 -0.303284 0
M  V30 2693 N 255.711 1.52812 0.385517 0
M  V30 2694 C 256.951 1.69716 1.13911 0
M  V30 2695 C 257.315 0.42962 1.87132 0
M  V30 2696 O 258.516 0.475071 2.64569 0
M  V30 2697 C 256.787 2.90021 2.0886 0
M  V30 2698 S 258.346 3.27531 2.92009 0
M  V30 2699 H 255.164 0.59739 0.385547 0
M  V30 2700 H 257.766 1.90868 0.423061 0
M  V30 2701 H 256.47 3.80493 1.53797 0
M  V30 2702 H 256.001 2.71213 2.84969 0
M  V30 2703 H 258.016 2.77989 4.11019 0
M  V30 2704 N 257.189 -0.644168 1.43834 0
M  V30 2705 C 258.119 -1.76814 1.52509 0
M  V30 2706 C 259.1 -1.65823 0.379052 0
M  V30 2707 O 260.285 -1.84781 0.597466 0
M  V30 2708 C 257.415 -3.15288 1.4564 0
M  V30 2709 C 256.369 -3.41053 2.58586 0
M  V30 2710 C 255.695 -4.79421 2.36769 0
M  V30 2711 C 256.995 -3.34902 4.00797 0
M  V30 2712 H 258.689 -1.69812 2.46586 0
M  V30 2713 H 256.235 -0.815542 1.1868 0
M  V30 2714 H 258.188 -3.93681 1.50311 0
M  V30 2715 H 256.912 -3.23043 0.480725 0
M  V30 2716 H 255.571 -2.65035 2.53282 0
M  V30 2717 H 255.219 -4.83863 1.37424 0
M  V30 2718 H 254.919 -4.9762 3.12487 0
M  V30 2719 H 256.443 -5.6006 2.43238 0
M  V30 2720 H 257.857 -4.03218 4.07539 0
M  V30 2721 H 256.254 -3.64637 4.76613 0
M  V30 2722 H 257.324 -2.32928 4.25291 0
M  V30 2723 N 258.668 -1.30515 -0.883378 0
M  V30 2724 C 259.917 -1.18795 -1.63005 0
M  V30 2725 C 260.23 0.255923 -1.93919 0
M  V30 2726 O 261.436 0.494654 -2.66956 0
M  V30 2727 C 259.892 -2.07878 -2.93794 0
M  V30 2728 C 259.5 -3.57184 -2.70414 0
M  V30 2729 C 261.244 -2.04924 -3.71761 0
M  V30 2730 C 259.151 -4.38317 -3.97029 0
M  V30 2731 H 258.081 -0.441031 -0.611562 0
M  V30 2732 H 260.732 -1.55275 -0.977854 0
M  V30 2733 H 259.114 -1.64283 -3.60315 0
M  V30 2734 H 260.288 -4.08937 -2.12384 0
M  V30 2735 H 258.603 -3.61976 -2.0582 0
M  V30 2736 H 261.2 -2.62792 -4.65665 0
M  V30 2737 H 261.543 -1.0331 -4.03277 0
M  V30 2738 H 262.076 -2.46649 -3.12104 0
M  V30 2739 H 258.815 -5.40632 -3.70671 0
M  V30 2740 H 258.335 -3.91326 -4.54559 0
M  V30 2741 H 260.014 -4.49834 -4.65036 0
M  V30 2742 N 260.146 1.09593 -1.13257 0
M  V30 2743 C 261.376 1.85231 -0.915049 0
M  V30 2744 C 261.784 1.81345 0.539498 0
M  V30 2745 O 261.127 1.20664 1.38513 0
M  V30 2746 C 261.189 3.34275 -1.3229 0
M  V30 2747 C 260.853 3.6191 -2.79052 0
M  V30 2748 C 261.85 3.57777 -3.77216 0
M  V30 2749 C 259.535 3.90309 -3.16171 0
M  V30 2750 C 261.529 3.81652 -5.1051 0
M  V30 2751 C 259.216 4.13839 -4.49644 0
M  V30 2752 C 260.214 4.09502 -5.46623 0
M  V30 2753 O 259.902 4.32426 -6.77689 0
M  V30 2754 H 259.634 0.591997 -0.326367 0
M  V30 2755 H 262.188 1.394 -1.50854 0
M  V30 2756 H 260.418 3.80805 -0.672667 0
M  V30 2757 H 262.107 3.9132 -1.07812 0
M  V30 2758 H 262.873 3.35865 -3.49885 0
M  V30 2759 H 258.752 3.92811 -2.41289 0
M  V30 2760 H 262.296 3.78182 -5.86195 0
M  V30 2761 H 258.193 4.35232 -4.767 0
M  V30 2762 H 258.961 4.49896 -6.83766 0
M  V30 2763 N 261.624 0.925811 1.2754 0
M  V30 2764 C 262.901 0.483726 1.89524 0
M  V30 2765 C 263.281 -1.03809 1.83812 0
M  V30 2766 O 262.629 -1.89143 1.28207 0
M  V30 2767 C 262.839 1.02769 3.33526 0
M  V30 2768 C 264.187 1.08703 4.10449 0
M  V30 2769 O 265.211 0.977175 3.42534 0
M  V30 2770 O 264.07 1.25599 5.31871 0
M  V30 2771 H 261.164 0.15529 0.812289 0
M  V30 2772 H 263.71 1.01738 1.35822 0
M  V30 2773 H 262.482 2.07155 3.31967 0
M  V30 2774 H 262.105 0.475567 3.94746 0
M  V30 2775 N 263.102 -1.41638 0.69111 0
M  V30 2776 C 264.513 -1.84346 0.295517 0
M  V30 2777 C 264.864 -1.57833 -1.16547 0
M  V30 2778 O 263.989 -1.04648 -1.89414 0
M  V30 2779 C 264.584 -3.34636 0.529575 0
M  V30 2780 C 263.143 -3.7593 0.187944 0
M  V30 2781 C 262.29 -2.65082 0.814052 0
M  V30 2782 H 265.241 -1.31253 0.892092 0
M  V30 2783 H 265.262 -3.79903 -0.213148 0
M  V30 2784 H 264.774 -3.53901 1.59297 0
M  V30 2785 H 262.875 -3.62268 -0.871367 0
M  V30 2786 H 262.988 -4.74808 0.63985 0
M  V30 2787 H 261.352 -2.53528 0.244017 0
M  V30 2788 H 262.135 -2.87167 1.88123 0
M  V30 2789 N 264.58 -0.43555 -1.51462 0
M  V30 2790 C 265.857 0.191364 -1.94662 0
M  V30 2791 C 266.237 1.60254 -1.37411 0
M  V30 2792 O 265.585 2.2152 -0.560458 0
M  V30 2793 C 265.795 0.17091 -3.48581 0
M  V30 2794 C 267.143 0.377357 -4.2292 0
M  V30 2795 O 268.167 0.249104 -3.55328 0
M  V30 2796 O 267.026 0.63247 -5.42828 0
M  V30 2797 H 264.12 0.130932 -0.816569 0
M  V30 2798 H 266.666 -0.4934 -1.62369 0
M  V30 2799 H 265.438 -0.815738 -3.82703 0
M  V30 2800 H 265.061 0.898659 -3.87311 0
M  V30 2801 N 266.058 1.56714 -0.166846 0
M  V30 2802 C 267.006 2.19056 0.782123 0
M  V30 2803 C 268 1.15328 1.24079 0
M  V30 2804 O 269.206 1.33537 1.20697 0
M  V30 2805 H 265.581 0.70167 0.270486 0
M  V30 2806 H 267.552 2.97494 0.232322 0
M  V30 2807 C 266.301 2.84206 2.00306 0
M  V30 2808 H 265.624 3.63748 1.65914 0
M  V30 2809 H 267.064 3.31302 2.64604 0
M  V30 2810 C 265.523 1.83744 2.82382 0
M  V30 2811 O 266.053 1.32014 3.79388 0
M  V30 2812 N 264.259 1.52601 2.47308 0
M  V30 2813 H 263.806 1.9486 1.68485 0
M  V30 2814 H 263.764 0.856351 3.02513 0
M  V30 2815 N 267.536 -0.106894 1.57237 0
M  V30 2816 C 268.446 -1.14911 2.0453 0
M  V30 2817 C 269.462 -1.44592 0.96795 0
M  V30 2818 O 270.638 -1.55468 1.2803 0
M  V30 2819 C 267.703 -2.45272 2.45036 0
M  V30 2820 C 266.764 -2.22879 3.66911 0
M  V30 2821 C 265.997 -3.47024 4.05475 0
M  V30 2822 O 266.22 -4.54804 3.44252 0
M  V30 2823 O 265.154 -3.3731 4.98504 0
M  V30 2824 H 268.98 -0.777461 2.9358 0
M  V30 2825 H 266.565 -0.318563 1.45964 0
M  V30 2826 H 268.447 -3.22055 2.71769 0
M  V30 2827 H 267.122 -2.81886 1.59129 0
M  V30 2828 H 266.029 -1.43915 3.45311 0
M  V30 2829 H 267.362 -1.91163 4.53561 0
M  V30 2830 N 269.014 -1.53014 -0.377408 0
M  V30 2831 C 270.242 -1.72515 -1.14219 0
M  V30 2832 C 270.657 -0.448735 -1.8339 0
M  V30 2833 O 270.014 0.577592 -1.73119 0
M  V30 2834 C 270.065 -2.8826 -2.18148 0
M  V30 2835 O 269.786 -4.10962 -1.51795 0
M  V30 2836 C 271.287 -3.19536 -3.07264 0
M  V30 2837 H 268.507 -0.577301 -0.342001 0
M  V30 2838 H 271.051 -1.99712 -0.439935 0
M  V30 2839 H 269.206 -2.63492 -2.83991 0
M  V30 2840 H 269.62 -4.75693 -2.20945 0
M  V30 2841 H 271.094 -4.03959 -3.76193 0
M  V30 2842 H 271.571 -2.34403 -3.71419 0
M  V30 2843 H 272.177 -3.46186 -2.47053 0
M  V30 2844 N 270.492 0.636531 -1.44174 0
M  V30 2845 C 271.769 1.39463 -1.37148 0
M  V30 2846 C 272.149 2.11082 -0.027507 0
M  V30 2847 O 271.497 2.05954 0.989716 0
M  V30 2848 C 271.707 2.36552 -2.56601 0
M  V30 2849 C 273.055 3.00048 -3.00427 0
M  V30 2850 O 274.079 2.46878 -2.56767 0
M  V30 2851 O 272.938 3.96488 -3.76111 0
M  V30 2852 H 270.032 0.623903 -0.542839 0
M  V30 2853 H 272.578 0.662039 -1.56253 0
M  V30 2854 H 271.35 1.82692 -3.46034 0
M  V30 2855 H 270.973 3.17236 -2.39681 0
M  V30 2856 N 271.97 1.30982 0.876444 0
M  V30 2857 C 273.381 1.18277 1.44456 0
M  V30 2858 C 273.732 -0.213265 1.95037 0
M  V30 2859 O 272.857 -1.11057 1.85729 0
M  V30 2860 C 273.452 2.1411 2.62569 0
M  V30 2861 C 272.011 2.05358 3.15444 0
M  V30 2862 C 271.158 2.03706 1.88146 0
M  V30 2863 H 274.109 1.43127 0.685584 0
M  V30 2864 H 274.13 1.72692 3.39054 0
M  V30 2865 H 273.642 3.15706 2.25724 0
M  V30 2866 H 271.743 1.06934 3.56926 0
M  V30 2867 H 271.856 2.94156 3.78166 0
M  V30 2868 H 270.22 1.48629 2.06837 0
M  V30 2869 H 271.003 3.07047 1.53547 0
M  V30 2870 N 273.449 -1.08991 1.13837 0
M  V30 2871 C 274.696 -1.81258 0.902882 0
M  V30 2872 C 275.024 -1.85936 -0.570803 0
M  V30 2873 O 274.279 -1.3267 -1.43865 0
M  V30 2874 C 274.578 -3.27042 1.44147 0
M  V30 2875 C 274.244 -3.4249 2.93276 0
M  V30 2876 C 272.906 -3.46414 3.33992 0
M  V30 2877 C 275.258 -3.4666 3.892 0
M  V30 2878 C 272.586 -3.52091 4.69307 0
M  V30 2879 C 274.938 -3.53872 5.24364 0
M  V30 2880 C 273.602 -3.56066 5.646 0
M  V30 2881 H 272.872 -0.663268 0.330388 0
M  V30 2882 H 275.519 -1.28368 1.42105 0
M  V30 2883 H 273.824 -3.82599 0.844097 0
M  V30 2884 H 275.521 -3.81499 1.23528 0
M  V30 2885 H 272.111 -3.40124 2.60794 0
M  V30 2886 H 276.295 -3.42865 3.58828 0
M  V30 2887 H 271.551 -3.52079 4.9985 0
M  V30 2888 H 275.725 -3.56043 5.98503 0
M  V30 2889 H 273.352 -3.60218 6.69438 0
M  V30 2890 N 274.927 -0.932562 -1.27047 0
M  V30 2891 C 275.877 -0.406392 -2.24349 0
M  V30 2892 C 276.861 0.492066 -1.53191 0
M  V30 2893 O 278.053 0.328717 -1.73921 0
M  V30 2894 C 275.182 0.335214 -3.41659 0
M  V30 2895 C 274.268 -0.58004 -4.20115 0
M  V30 2896 N 274.659 -1.70203 -4.76303 0
M  V30 2897 C 272.957 -0.383974 -4.44344 0
M  V30 2898 C 273.658 -2.27167 -5.35509 0
M  V30 2899 N 272.634 -1.56068 -5.20715 0
M  V30 2900 H 276.436 -1.26299 -2.65378 0
M  V30 2901 H 273.95 -0.787408 -1.42034 0
M  V30 2902 H 275.947 0.729142 -4.10474 0
M  V30 2903 H 274.607 1.18868 -3.0216 0
M  V30 2904 H 275.618 -2.08433 -4.74106 0
M  V30 2905 H 272.295 0.428436 -4.15296 0
M  V30 2906 H 273.685 -3.21654 -5.89905 0
M  V30 2907 N 276.405 1.4127 -0.698611 0
M  V30 2908 C 277.353 2.32588 -0.023855 0
M  V30 2909 C 278.347 1.51128 0.765292 0
M  V30 2910 O 279.553 1.67043 0.670571 0
M  V30 2911 H 275.928 0.751918 0.0110871 0
M  V30 2912 H 277.899 2.87167 -0.811031 0
M  V30 2913 C 276.648 3.35947 0.896369 0
M  V30 2914 H 275.971 3.98684 0.298548 0
M  V30 2915 H 277.411 4.02376 1.33676 0
M  V30 2916 C 275.87 2.70076 2.01396 0
M  V30 2917 O 276.4 2.55093 3.10307 0
M  V30 2918 N 274.606 2.28724 1.79259 0
M  V30 2919 H 274.153 2.4111 0.906841 0
M  V30 2920 H 274.111 1.84986 2.54219 0
M  V30 2921 N 277.883 0.443576 1.51229 0
M  V30 2922 C 279.132 -0.122332 2.01329 0
M  V30 2923 C 279.445 -1.43237 1.33201 0
M  V30 2924 O 280.651 -2.0816 1.74304 0
M  V30 2925 C 279.107 -0.268551 3.58897 0
M  V30 2926 C 278.715 1.03142 4.35965 0
M  V30 2927 C 280.459 -0.787894 4.17124 0
M  V30 2928 C 278.366 0.850504 5.85252 0
M  V30 2929 H 277.296 -0.0494929 0.752374 0
M  V30 2930 H 279.947 0.574289 1.74282 0
M  V30 2931 H 278.329 -1.02832 3.82415 0
M  V30 2932 H 279.503 1.80001 4.24189 0
M  V30 2933 H 277.818 1.47977 3.89219 0
M  V30 2934 H 280.415 -0.939841 5.26375 0
M  V30 2935 H 280.758 -1.77201 3.76703 0
M  V30 2936 H 281.291 -0.0862669 3.97706 0
M  V30 2937 H 278.03 1.80718 6.30096 0
M  V30 2938 H 277.55 0.121825 5.99676 0
M  V30 2939 H 279.229 0.506163 6.45017 0
M  V30 2940 N 279.361 -1.56624 0.175154 0
M  V30 2941 C 280.607 -1.98061 -0.462976 0
M  V30 2942 C 280.962 -1.05949 -1.60601 0
M  V30 2943 O 280.255 -0.0999027 -1.91339 0
M  V30 2944 C 280.449 -3.43419 -0.989864 0
M  V30 2945 C 280.278 -4.49587 0.100583 0
M  V30 2946 C 279.048 -5.02281 0.551539 0
M  V30 2947 C 281.246 -5.06322 0.902369 0
M  V30 2948 N 279.228 -5.92088 1.62189 0
M  V30 2949 C 280.599 -5.92607 1.82256 0
M  V30 2950 C 282.654 -4.88811 0.947019 0
M  V30 2951 C 281.357 -6.63254 2.78364 0
M  V30 2952 C 283.383 -5.60182 1.89606 0
M  V30 2953 C 282.745 -6.46197 2.80372 0
M  V30 2954 H 278.844 -0.769833 -0.137409 0
M  V30 2955 H 281.428 -1.9273 0.276256 0
M  V30 2956 H 279.599 -3.49288 -1.6986 0
M  V30 2957 H 281.331 -3.7186 -1.59694 0
M  V30 2958 H 278.086 -4.73367 0.148537 0
M  V30 2959 H 278.51 -6.41696 2.15767 0
M  V30 2960 H 283.152 -4.22004 0.259304 0
M  V30 2961 H 280.87 -7.29271 3.48122 0
M  V30 2962 H 284.456 -5.48617 1.93676 0
M  V30 2963 H 283.336 -7.00453 3.52612 0
M  V30 2964 N 280.839 0.0985539 -1.57292 0
M  V30 2965 C 282.116 0.834155 -1.76921 0
M  V30 2966 C 282.496 1.97101 -0.755928 0
M  V30 2967 O 281.844 2.27474 0.216245 0
M  V30 2968 C 282.054 1.33194 -3.22584 0
M  V30 2969 C 283.402 1.77611 -3.85668 0
M  V30 2970 O 284.426 1.42825 -3.26312 0
M  V30 2971 O 283.285 2.4192 -4.90038 0
M  V30 2972 H 280.379 0.397628 -0.725135 0
M  V30 2973 H 282.925 0.0807044 -1.69508 0
M  V30 2974 H 281.697 0.517248 -3.87866 0
M  V30 2975 H 281.32 2.1475 -3.34616 0
M  V30 2976 N 282.317 1.53212 0.369288 0
M  V30 2977 C 283.264 1.79388 1.45219 0
M  V30 2978 C 284.234 0.638059 1.53356 0
M  V30 2979 O 285.419 0.879852 1.69302 0
M  V30 2980 C 282.559 1.98623 2.82211 0
M  V30 2981 C 281.672 3.26337 2.8307 0
M  V30 2982 C 280.807 3.35779 4.11614 0
M  V30 2983 C 279.846 4.5754 4.06601 0
M  V30 2984 N 278.983 4.64155 5.26787 0
M  V30 2985 H 283.823 2.71794 1.22198 0
M  V30 2986 H 281.36 1.34642 0.592444 0
M  V30 2987 H 283.318 2.07761 3.61789 0
M  V30 2988 H 281.948 1.09558 3.03639 0
M  V30 2989 H 281 3.26171 1.95747 0
M  V30 2990 H 282.312 4.15988 2.75237 0
M  V30 2991 H 281.466 3.44208 4.99606 0
M  V30 2992 H 280.205 2.44137 4.22195 0
M  V30 2993 H 279.21 4.49215 3.16996 0
M  V30 2994 H 280.435 5.50519 3.97625 0
M  V30 2995 H 278.381 3.75413 5.3796 0
M  V30 2996 H 278.298 5.47706 5.21109 0
M  V30 2997 H 279.566 4.76863 6.16621 0
M  V30 2998 N 283.795 -0.628877 1.44509 0
M  V30 2999 C 284.725 -1.75187 1.54376 0
M  V30 3000 C 285.706 -1.65411 0.396618 0
M  V30 3001 O 286.891 -1.84137 0.617031 0
M  V30 3002 C 284.021 -3.13725 1.48976 0
M  V30 3003 C 282.975 -3.38291 2.62189 0
M  V30 3004 C 282.301 -4.76883 2.41841 0
M  V30 3005 C 283.601 -3.30632 4.04326 0
M  V30 3006 H 285.295 -1.67187 2.48373 0
M  V30 3007 H 282.841 -0.802909 1.19538 0
M  V30 3008 H 284.794 -3.92064 1.54478 0
M  V30 3009 H 283.518 -3.22515 0.514961 0
M  V30 3010 H 282.177 -2.62334 2.56079 0
M  V30 3011 H 281.825 -4.82378 1.42548 0
M  V30 3012 H 281.525 -4.94278 3.17747 0
M  V30 3013 H 283.049 -5.57449 2.49165 0
M  V30 3014 H 284.463 -3.98873 4.11793 0
M  V30 3015 H 282.86 -3.59561 4.80454 0
M  V30 3016 H 283.93 -2.28404 4.27738 0
M  V30 3017 N 285.273 -1.31445 -0.869486 0
M  V30 3018 C 286.55 -1.11795 -1.60503 0
M  V30 3019 C 286.93 0.327168 -2.08549 0
M  V30 3020 O 286.278 1.32135 -1.8642 0
M  V30 3021 C 286.488 -2.13258 -2.76265 0
M  V30 3022 C 287.836 -2.45805 -3.46215 0
M  V30 3023 O 288.86 -2.11688 -2.86473 0
M  V30 3024 O 287.719 -3.04228 -4.5399 0
M  V30 3025 H 284.813 -0.430421 -0.706163 0
M  V30 3026 H 287.359 -1.42925 -0.914907 0
M  V30 3027 H 286.131 -3.10461 -2.3818 0
M  V30 3028 H 285.754 -1.83035 -3.52964 0
M  V30 3029 N 286.751 1.08385 -1.14413 0
M  V30 3030 C 287.999 1.80419 -0.910679 0
M  V30 3031 C 288.32 1.86658 0.564243 0
M  V30 3032 O 287.59 1.35985 1.41014 0
M  V30 3033 H 286.17 0.668204 -0.333934 0
M  V30 3034 H 288.832 1.31037 -1.44275 0
M  V30 3035 H 287.928 2.83238 -1.31082 0
M  V30 3036 N 288.23 0.939286 1.26551 0
M  V30 3037 C 289.477 0.585847 1.9384 0
M  V30 3038 C 289.805 -0.874784 1.73718 0
M  V30 3039 O 289.06 -1.64092 1.06642 0
M  V30 3040 C 289.359 0.872106 3.46596 0
M  V30 3041 C 289.025 2.31632 3.86856 0
M  V30 3042 C 287.687 2.71111 3.97558 0
M  V30 3043 C 290.039 3.25494 4.07066 0
M  V30 3044 C 287.367 4.03553 4.25866 0
M  V30 3045 C 289.719 4.57531 4.36862 0
M  V30 3046 C 288.383 4.96828 4.45778 0
M  V30 3047 H 287.653 0.214377 0.709312 0
M  V30 3048 H 290.3 1.18544 1.50398 0
M  V30 3049 H 288.605 0.18996 3.91339 0
M  V30 3050 H 290.302 0.577442 3.96821 0
M  V30 3051 H 286.892 2.00008 3.79071 0
M  V30 3052 H 291.076 2.9619 3.98227 0
M  V30 3053 H 286.332 4.33665 4.30981 0
M  V30 3054 H 290.506 5.30254 4.51446 0
M  V30 3055 H 288.133 5.99482 4.67468 0
M  V30 3056 N 289.708 -1.40897 0.706093 0
M  V30 3057 C 290.954 -2.01352 0.241889 0
M  V30 3058 C 291.287 -1.55832 -1.15888 0
M  V30 3059 O 290.562 -0.774145 -1.7843 0
M  V30 3060 C 290.845 -3.58752 0.311311 0
M  V30 3061 C 290.698 -4.1437 1.74978 0
M  V30 3062 C 292.017 -4.38914 -0.322922 0
M  V30 3063 H 289.136 -0.731562 0.0893687 0
M  V30 3064 H 291.778 -1.67504 0.896802 0
M  V30 3065 H 289.928 -3.87718 -0.246302 0
M  V30 3066 H 291.6 -3.96239 2.36205 0
M  V30 3067 H 289.843 -3.69016 2.28057 0
M  V30 3068 H 290.514 -5.23532 1.74981 0
M  V30 3069 H 292.99 -4.15822 0.152089 0
M  V30 3070 H 291.866 -5.48358 -0.243855 0
M  V30 3071 H 292.127 -4.19176 -1.40513 0
M  V30 3072 N 291.186 -0.45159 -1.50991 0
M  V30 3073 C 292.597 0.00818571 -1.86698 0
M  V30 3074 C 292.948 1.40661 -1.3678 0
M  V30 3075 O 292.073 2.0391 -0.724546 0
M  V30 3076 C 292.668 0.0216303 -3.38793 0
M  V30 3077 C 291.227 0.425865 -3.73983 0
M  V30 3078 C 290.374 -0.372163 -2.74791 0
M  V30 3079 H 293.325 -0.666785 -1.44013 0
M  V30 3080 H 293.346 0.828078 -3.7138 0
M  V30 3081 H 292.858 -0.996288 -3.75094 0
M  V30 3082 H 290.959 1.44886 -3.43277 0
M  V30 3083 H 291.072 0.140761 -4.78893 0
M  V30 3084 H 289.436 0.171498 -2.54122 0
M  V30 3085 H 290.219 -1.38922 -3.13935 0
M  V30 3086 N 292.664 1.56529 -0.183458 0
M  V30 3087 C 293.627 2.17324 0.728223 0
M  V30 3088 C 294.627 1.12453 1.14939 0
M  V30 3089 O 295.817 1.37902 1.06437 0
M  V30 3090 C 292.949 2.76591 1.99274 0
M  V30 3091 H 294.142 2.99241 0.198772 0
M  V30 3092 H 291.695 1.5616 0.0661391 0
M  V30 3093 H 292.43 1.98441 2.56499 0
M  V30 3094 H 292.215 3.5335 1.69959 0
M  V30 3095 H 293.705 3.23311 2.6431 0
M  V30 3096 N 294.142 -0.090211 1.57342 0
M  V30 3097 C 295.092 -1.11557 1.98844 0
M  V30 3098 C 296.076 -1.35503 0.867624 0
M  V30 3099 O 297.268 -1.36113 1.13148 0
M  V30 3100 C 294.397 -2.43446 2.42051 0
M  V30 3101 C 293.483 -2.22853 3.60828 0
M  V30 3102 N 293.874 -1.72141 4.75606 0
M  V30 3103 C 292.172 -2.53401 3.67021 0
M  V30 3104 C 292.873 -1.65932 5.57531 0
M  V30 3105 N 291.849 -2.11323 5.00843 0
M  V30 3106 H 295.651 -0.716499 2.85032 0
M  V30 3107 H 293.165 -0.297567 1.59651 0
M  V30 3108 H 295.162 -3.17644 2.70014 0
M  V30 3109 H 293.822 -2.84087 1.57241 0
M  V30 3110 H 294.833 -1.41268 4.98261 0
M  V30 3111 H 291.51 -2.97532 2.92884 0
M  V30 3112 H 292.9 -1.27733 6.59647 0
M  V30 3113 N 295.62 -1.53406 -0.361157 0
M  V30 3114 C 296.867 -1.69802 -1.10333 0
M  V30 3115 C 297.195 -0.452087 -1.89173 0
M  V30 3116 O 296.45 0.566017 -1.87336 0
M  V30 3117 C 296.749 -2.90211 -2.08596 0
M  V30 3118 C 296.415 -4.26539 -1.46203 0
M  V30 3119 C 295.077 -4.6361 -1.28915 0
M  V30 3120 C 297.429 -5.113 -1.01101 0
M  V30 3121 C 294.757 -5.83075 -0.651157 0
M  V30 3122 C 297.109 -6.31415 -0.387007 0
M  V30 3123 C 295.773 -6.67195 -0.201657 0
M  V30 3124 H 295.043 -0.621351 -0.403737 0
M  V30 3125 H 297.69 -1.87598 -0.384609 0
M  V30 3126 H 295.995 -2.66946 -2.86788 0
M  V30 3127 H 297.692 -3.00091 -2.65982 0
M  V30 3128 H 294.282 -3.97352 -1.60653 0
M  V30 3129 H 298.466 -4.83206 -1.13249 0
M  V30 3130 H 293.722 -6.09385 -0.496006 0
M  V30 3131 H 297.896 -6.96394 -0.0293563 0
M  V30 3132 H 295.523 -7.59628 0.294766 0
M  V30 3133 N 297.098 0.621204 -1.44841 0
M  V30 3134 C 298.028 1.74366 -1.55303 0
M  V30 3135 C 299.009 1.65199 -0.405385 0
M  V30 3136 O 300.194 1.83807 -0.626787 0
M  V30 3137 C 297.324 3.12931 -1.50637 0
M  V30 3138 C 296.278 3.36896 -2.63979 0
M  V30 3139 C 295.604 4.75594 -2.44366 0
M  V30 3140 C 296.904 3.28483 -4.06074 0
M  V30 3141 H 298.598 1.65867 -2.49256 0
M  V30 3142 H 296.144 0.796558 -1.19962 0
M  V30 3143 H 298.097 3.9124 -1.56555 0
M  V30 3144 H 296.821 3.22237 -0.532057 0
M  V30 3145 H 295.48 2.60972 -2.57467 0
M  V30 3146 H 295.128 4.81616 -1.45105 0
M  V30 3147 H 294.828 4.92586 -3.20364 0
M  V30 3148 H 296.352 5.5612 -2.52117 0
M  V30 3149 H 297.766 3.96684 -4.13902 0
M  V30 3150 H 296.163 3.57008 -4.82354 0
M  V30 3151 H 297.233 2.26133 -4.28943 0
M  V30 3152 N 298.576 1.31904 0.862503 0
M  V30 3153 C 299.824 1.21776 1.61292 0
M  V30 3154 C 300.145 -0.222413 1.93727 0
M  V30 3155 O 299.415 -1.1451 1.58947 0
M  V30 3156 H 297.995 0.447717 0.597962 0
M  V30 3157 H 300.657 1.65326 1.03215 0
M  V30 3158 H 299.753 1.7948 2.5533 0
M  V30 3159 N 300.054 -1.07777 1.14986 0
M  V30 3160 C 301.3 -1.80719 0.93339 0
M  V30 3161 C 301.655 -1.8484 -0.534019 0
M  V30 3162 O 300.948 -1.31795 -1.3907 0
M  V30 3163 C 301.142 -3.25495 1.47608 0
M  V30 3164 C 300.971 -3.3548 2.99472 0
M  V30 3165 C 299.741 -3.46293 3.6798 0
M  V30 3166 C 301.939 -3.26596 3.97291 0
M  V30 3167 N 299.921 -3.45136 5.07695 0
M  V30 3168 C 301.292 -3.32506 5.23297 0
M  V30 3169 C 303.347 -3.10376 3.89321 0
M  V30 3170 C 302.05 -3.23866 6.42264 0
M  V30 3171 C 304.076 -3.03069 5.07842 0
M  V30 3172 C 303.438 -3.09587 6.32721 0
M  V30 3173 H 299.537 -0.674814 0.395158 0
M  V30 3174 H 302.121 -1.28681 1.46114 0
M  V30 3175 H 300.292 -3.75963 0.975022 0
M  V30 3176 H 302.024 -3.86535 1.19887 0
M  V30 3177 H 298.779 -3.50456 3.18555 0
M  V30 3178 H 299.203 -3.48097 5.80653 0
M  V30 3179 H 303.845 -3.04194 2.93642 0
M  V30 3180 H 301.563 -3.28807 7.38181 0
M  V30 3181 H 305.149 -2.91629 5.03432 0
M  V30 3182 H 304.029 -3.0397 7.22891 0
M  V30 3183 N 301.532 -0.945985 -1.26051 0
M  V30 3184 C 302.762 -0.612136 -1.97323 0
M  V30 3185 C 303.17 0.818171 -1.70595 0
M  V30 3186 O 302.513 1.55777 -0.973613 0
M  V30 3187 C 302.575 -0.780347 -3.50929 0
M  V30 3188 C 302.239 -2.18619 -4.01317 0
M  V30 3189 C 303.236 -3.16209 -4.12683 0
M  V30 3190 C 300.921 -2.50805 -4.35203 0
M  V30 3191 C 302.915 -4.44085 -4.57238 0
M  V30 3192 C 300.602 -3.78912 -4.79446 0
M  V30 3193 C 301.6 -4.75365 -4.90425 0
M  V30 3194 O 301.288 -6.01191 -5.3369 0
M  V30 3195 H 301.02 -0.229134 -0.635982 0
M  V30 3196 H 303.574 -1.27036 -1.61404 0
M  V30 3197 H 301.804 -0.0649864 -3.86645 0
M  V30 3198 H 303.493 -0.448842 -4.03411 0
M  V30 3199 H 304.259 -2.92668 -3.86744 0
M  V30 3200 H 300.138 -1.76463 -4.2589 0
M  V30 3201 H 303.682 -5.19373 -4.65723 0
M  V30 3202 H 299.579 -4.02265 -5.0483 0
M  V30 3203 H 300.347 -6.04442 -5.51899 0
M  V30 3204 N 303.011 1.40521 -0.713556 0
M  V30 3205 C 303.941 2.33381 -0.0743864 0
M  V30 3206 C 304.922 1.52784 0.747735 0
M  V30 3207 O 306.107 1.81258 0.697071 0
M  V30 3208 C 303.237 3.36748 0.849598 0
M  V30 3209 C 302.191 4.27793 0.133247 0
M  V30 3210 C 301.517 5.21679 1.17281 0
M  V30 3211 C 302.817 5.12415 -1.01134 0
M  V30 3212 H 304.511 2.87081 -0.850007 0
M  V30 3213 H 302.057 1.38034 -0.410201 0
M  V30 3214 H 304.01 4.00648 1.30612 0
M  V30 3215 H 302.734 2.81439 1.65709 0
M  V30 3216 H 301.393 3.65342 -0.303426 0
M  V30 3217 H 301.041 4.62677 1.9733 0
M  V30 3218 H 300.741 5.83435 0.698397 0
M  V30 3219 H 302.265 5.88456 1.62947 0
M  V30 3220 H 303.679 5.69781 -0.634274 0
M  V30 3221 H 302.076 5.83203 -1.41399 0
M  V30 3222 H 303.146 4.48514 -1.84292 0
M  V30 3223 N 304.489 0.459591 1.5075 0
M  V30 3224 C 305.436 -0.340524 2.28274 0
M  V30 3225 C 306.406 -0.997371 1.32822 0
M  V30 3226 O 307.591 -1.01202 1.61749 0
M  V30 3227 C 304.731 -1.42317 3.14388 0
M  V30 3228 C 303.844 -0.782251 4.24859 0
M  V30 3229 C 302.979 -1.84182 4.98247 0
M  V30 3230 C 302.018 -1.18053 6.00608 0
M  V30 3231 N 301.155 -2.18244 6.67319 0
M  V30 3232 H 305.995 0.326899 2.96202 0
M  V30 3233 H 303.532 0.173057 1.46078 0
M  V30 3234 H 305.49 -2.06241 3.62658 0
M  V30 3235 H 304.12 -2.05992 2.4853 0
M  V30 3236 H 303.172 -0.0307404 3.80388 0
M  V30 3237 H 304.484 -0.259663 4.98124 0
M  V30 3238 H 303.638 -2.55714 5.50177 0
M  V30 3239 H 302.377 -2.39819 4.24662 0
M  V30 3240 H 301.382 -0.450776 5.47949 0
M  V30 3241 H 302.607 -0.631202 6.7616 0
M  V30 3242 H 300.553 -2.72919 5.96533 0
M  V30 3243 H 300.47 -1.70938 7.36421 0
M  V30 3244 H 301.738 -2.89191 7.23871 0
M  V30 3245 N 305.967 -1.56429 0.191757 0
M  V30 3246 C 307.195 -2.01867 -0.453586 0
M  V30 3247 C 307.61 -1.07191 -1.5542 0
M  V30 3248 O 306.967 -0.0762108 -1.82341 0
M  V30 3249 C 307.018 -3.47017 -1.013 0
M  V30 3250 O 306.739 -4.38078 0.0437005 0
M  V30 3251 C 308.24 -4.07956 -1.73456 0
M  V30 3252 H 305.46 -0.661211 -0.114199 0
M  V30 3253 H 308.004 -2.02295 0.299483 0
M  V30 3254 H 306.159 -3.47298 -1.71647 0
M  V30 3255 H 306.573 -5.23178 -0.372212 0
M  V30 3256 H 308.047 -5.1138 -2.07833 0
M  V30 3257 H 308.524 -3.51222 -2.63704 0
M  V30 3258 H 309.13 -4.11437 -1.07702 0
M  V30 3259 N 307.445 0.0818655 -1.57387 0
M  V30 3260 C 308.375 1.09885 -2.06028 0
M  V30 3261 C 309.356 1.4098 -0.951774 0
M  V30 3262 O 310.541 1.50781 -1.22387 0
M  V30 3263 C 307.671 2.4151 -2.4958 0
M  V30 3264 C 306.625 2.24792 -3.64215 0
M  V30 3265 C 305.951 3.61712 -3.93787 0
M  V30 3266 C 307.251 1.67749 -4.94629 0
M  V30 3267 H 308.945 0.694128 -2.91243 0
M  V30 3268 H 306.491 0.332448 -1.4011 0
M  V30 3269 H 308.444 3.12939 -2.82219 0
M  V30 3270 H 307.168 2.83943 -1.61381 0
M  V30 3271 H 305.827 1.55807 -3.31843 0
M  V30 3272 H 305.475 4.01697 -3.02735 0
M  V30 3273 H 305.175 3.51368 -4.70971 0
M  V30 3274 H 306.699 4.34587 -4.28913 0
M  V30 3275 H 308.113 2.29032 -5.25564 0
M  V30 3276 H 306.51 1.68128 -5.76067 0
M  V30 3277 H 307.58 0.638059 -4.80684 0
M  V30 3278 N 308.923 1.53595 0.353017 0
M  V30 3279 C 309.856 1.7572 1.45594 0
M  V30 3280 C 310.834 0.605961 1.50887 0
M  V30 3281 O 312.018 0.840023 1.68748 0
M  V30 3282 C 309.145 1.84732 2.83887 0
M  V30 3283 C 308.191 3.06808 2.96262 0
M  V30 3284 S 309.024 4.66065 2.63711 0
M  V30 3285 C 310.18 4.77943 4.04131 0
M  V30 3286 H 310.413 2.68994 1.26608 0
M  V30 3287 H 307.946 1.44343 0.548117 0
M  V30 3288 H 309.904 1.9061 3.63563 0
M  V30 3289 H 308.565 0.92488 3.00175 0
M  V30 3290 H 307.758 3.09761 3.97573 0
M  V30 3291 H 307.36 2.99108 2.24523 0
M  V30 3292 H 309.652 4.5877 4.98534 0
M  V30 3293 H 310.595 5.80022 4.06177 0
M  V30 3294 H 311.003 4.06472 3.91715 0
M  V30 3295 N 310.401 -0.613514 1.45168 0
M  V30 3296 C 311.65 -1.36874 1.4815 0
M  V30 3297 C 311.963 -1.952 0.124982 0
M  V30 3298 O 313.169 -2.71481 0.0324176 0
M  V30 3299 C 311.625 -2.47905 2.60904 0
M  V30 3300 C 311.233 -1.96016 4.02842 0
M  V30 3301 C 312.977 -3.24965 2.73126 0
M  V30 3302 C 310.884 -3.04494 5.06988 0
M  V30 3303 H 309.814 -0.514428 0.551253 0
M  V30 3304 H 312.465 -0.658182 1.7129 0
M  V30 3305 H 310.847 -3.21618 2.31037 0
M  V30 3306 H 312.021 -1.29051 4.4236 0
M  V30 3307 H 310.336 -1.31719 3.95018 0
M  V30 3308 H 312.933 -4.05865 3.48106 0
M  V30 3309 H 313.276 -3.75588 1.79553 0
M  V30 3310 H 313.809 -2.5835 3.0249 0
M  V30 3311 H 310.548 -2.58795 6.0225 0
M  V30 3312 H 310.068 -3.70044 4.72046 0
M  V30 3313 H 311.747 -3.68976 5.31475 0
M  V30 3314 N 311.879 -1.3236 -0.855495 0
M  V30 3315 C 313.295 -1.11332 -1.14356 0
M  V30 3316 C 313.495 0.106751 -2.01217 0
M  V30 3317 O 312.551 0.791891 -2.39761 0
M  V30 3318 C 313.864 -2.39237 -1.82171 0
M  V30 3319 C 315.412 -2.44986 -1.9481 0
M  V30 3320 C 315.887 -3.7281 -2.66039 0
M  V30 3321 N 317.378 -3.73787 -2.73565 0
M  V30 3322 C 318.113 -4.69394 -3.29327 0
M  V30 3323 N 317.609 -5.75367 -3.85907 0
M  V30 3324 N 319.402 -4.56893 -3.27423 0
M  V30 3325 H 311.553 -2.10586 -0.277027 0
M  V30 3326 H 313.816 -0.929701 -0.185364 0
M  V30 3327 H 313.522 -3.28431 -1.25802 0
M  V30 3328 H 313.396 -2.50134 -2.82335 0
M  V30 3329 H 315.783 -1.56252 -2.50338 0
M  V30 3330 H 315.864 -2.38043 -0.936448 0
M  V30 3331 H 315.508 -4.61918 -2.11174 0
M  V30 3332 H 315.438 -3.77024 -3.67642 0
M  V30 3333 H 317.929 -2.97189 -2.33424 0
M  V30 3334 H 318.242 -6.44378 -4.26611 0
M  V30 3335 H 316.587 -5.79123 -3.84242 0
M  V30 3336 H 319.778 -3.73269 -2.82467 0
M  V30 3337 H 319.951 -5.31577 -3.7058 0
M  V30 3338 N 313.357 1.07166 -1.15556 0
M  V30 3339 C 314.634 1.76546 -0.842069 0
M  V30 3340 C 315.014 2.00453 0.661939 0
M  V30 3341 O 314.362 1.62452 1.60691 0
M  V30 3342 C 314.572 3.07266 -1.65495 0
M  V30 3343 C 315.92 3.81578 -1.86234 0
M  V30 3344 O 316.944 3.17083 -1.62287 0
M  V30 3345 O 315.803 4.97419 -2.26355 0
M  V30 3346 H 312.897 0.766756 -0.309862 0
M  V30 3347 H 315.443 1.13514 -1.26145 0
M  V30 3348 H 314.215 2.85494 -2.67598 0
M  V30 3349 H 313.838 3.7803 -1.23203 0
M  V30 3350 N 314.835 0.952656 1.25548 0
M  V30 3351 C 316.081 0.616826 1.93822 0
M  V30 3352 C 316.436 -0.836684 1.73255 0
M  V30 3353 O 315.729 -1.59218 1.06584 0
M  V30 3354 C 315.923 0.908818 3.45652 0
M  V30 3355 C 315.752 2.38916 3.80984 0
M  V30 3356 C 314.522 3.04637 4.03143 0
M  V30 3357 C 316.72 3.36838 3.88645 0
M  V30 3358 N 314.702 4.42565 4.25453 0
M  V30 3359 C 316.073 4.60065 4.1562 0
M  V30 3360 C 318.128 3.31704 3.71318 0
M  V30 3361 C 316.831 5.78795 4.2707 0
M  V30 3362 C 318.857 4.4977 3.84006 0
M  V30 3363 C 318.219 5.71783 4.11392 0
M  V30 3364 H 314.318 0.27629 0.731565 0
M  V30 3365 H 316.902 1.22443 1.5138 0
M  V30 3366 H 315.073 0.330166 3.86994 0
M  V30 3367 H 316.805 0.533093 4.01174 0
M  V30 3368 H 313.56 2.55215 3.98952 0
M  V30 3369 H 313.984 5.1399 4.40617 0
M  V30 3370 H 318.626 2.3842 3.49164 0
M  V30 3371 H 316.344 6.72521 4.48041 0
M  V30 3372 H 319.93 4.47342 3.71989 0
M  V30 3373 H 318.81 6.61617 4.2099 0
M  V30 3374 N 316.313 -1.40141 0.720998 0
M  V30 3375 C 317.559 -2.01572 0.272075 0
M  V30 3376 C 317.914 -1.5616 -1.12391 0
M  V30 3377 O 317.207 -0.774198 -1.75262 0
M  V30 3378 C 317.401 -3.56165 0.296892 0
M  V30 3379 C 317.23 -4.16584 1.69375 0
M  V30 3380 C 316 -4.49783 2.30269 0
M  V30 3381 C 318.198 -4.41076 2.64493 0
M  V30 3382 N 316.18 -4.95626 3.62254 0
M  V30 3383 C 317.551 -4.88971 3.81192 0
M  V30 3384 C 319.606 -4.23122 2.62435 0
M  V30 3385 C 318.309 -5.20796 4.96149 0
M  V30 3386 C 320.335 -4.56052 3.76524 0
M  V30 3387 C 319.697 -5.04141 4.91956 0
M  V30 3388 H 315.796 -0.768343 0.145511 0
M  V30 3389 H 318.38 -1.70287 0.943959 0
M  V30 3390 H 316.551 -3.86868 -0.344578 0
M  V30 3391 H 318.283 -4.04346 -0.169254 0
M  V30 3392 H 315.038 -4.37101 1.82318 0
M  V30 3393 H 315.462 -5.22923 4.29977 0
M  V30 3394 H 320.104 -3.85158 1.74393 0
M  V30 3395 H 317.822 -5.57672 5.84831 0
M  V30 3396 H 321.408 -4.43796 3.76213 0
M  V30 3397 H 320.288 -5.29142 5.78774 0
M  V30 3398 N 317.792 -0.46758 -1.50504 0
M  V30 3399 C 318.725 0.374324 -2.25109 0
M  V30 3400 C 319.703 0.99921 -1.28275 0
M  V30 3401 O 320.887 1.03583 -1.57489 0
M  V30 3402 C 318.014 1.52419 -3.02467 0
M  V30 3403 C 317.06 1.01702 -4.14197 0
M  V30 3404 S 317.893 -0.0654477 -5.3546 0
M  V30 3405 C 319.049 1.08837 -6.16365 0
M  V30 3406 H 319.282 -0.258983 -2.9617 0
M  V30 3407 H 316.815 -0.252421 -1.52323 0
M  V30 3408 H 318.773 2.18322 -3.47628 0
M  V30 3409 H 317.434 2.129 -2.30938 0
M  V30 3410 H 316.627 1.87776 -4.67714 0
M  V30 3411 H 316.229 0.435757 -3.71453 0
M  V30 3412 H 318.521 2.00071 -6.47285 0
M  V30 3413 H 319.464 0.592538 -7.05616 0
M  V30 3414 H 319.872 1.34061 -5.4835 0
M  V30 3415 N 319.27 1.56325 -0.20005 0
M  V30 3416 C 320.51 1.99619 0.439519 0
M  V30 3417 C 320.874 1.08423 1.58456 0
M  V30 3418 O 322.075 1.40973 2.28867 0
M  V30 3419 C 320.346 3.46314 0.883258 0
M  V30 3420 S 321.905 4.11634 1.51997 0
M  V30 3421 H 318.723 0.697007 0.140363 0
M  V30 3422 H 321.325 1.93118 -0.304282 0
M  V30 3423 H 320.029 4.10381 0.0398967 0
M  V30 3424 H 319.56 3.56643 1.6604 0
M  V30 3425 H 321.575 4.09049 2.8088 0
M  V30 3426 N 320.748 -0.0735177 1.57428 0
M  V30 3427 C 321.681 -1.11932 1.98863 0
M  V30 3428 C 322.659 -1.37666 0.865266 0
M  V30 3429 O 323.843 -1.51068 1.12742 0
M  V30 3430 C 320.97 -2.46403 2.32386 0
M  V30 3431 C 320.016 -2.36815 3.54713 0
M  V30 3432 S 320.849 -1.76392 5.05614 0
M  V30 3433 C 322.005 -3.12444 5.42337 0
M  V30 3434 H 322.238 -0.766212 2.87257 0
M  V30 3435 H 319.771 -0.281987 1.51803 0
M  V30 3436 H 321.729 -3.23755 2.52375 0
M  V30 3437 H 320.39 -2.78876 1.44524 0
M  V30 3438 H 319.583 -3.35977 3.7568 0
M  V30 3439 H 319.185 -1.67598 3.34345 0
M  V30 3440 H 321.477 -4.08753 5.40303 0
M  V30 3441 H 322.42 -2.96258 6.43146 0
M  V30 3442 H 322.828 -3.1297 4.69798 0
M  V30 3443 N 322.226 -1.5378 -0.344866 0
M  V30 3444 C 323.475 -1.7018 -1.08267 0
M  V30 3445 C 323.788 -0.471 -1.89845 0
M  V30 3446 O 324.994 -0.515917 -2.66553 0
M  V30 3447 C 323.45 -3.00923 -1.97417 0
M  V30 3448 C 323.058 -4.31335 -1.21053 0
M  V30 3449 C 324.802 -3.26688 -2.71063 0
M  V30 3450 C 322.709 -5.53153 -2.09225 0
M  V30 3451 H 321.639 -0.634138 -0.407903 0
M  V30 3452 H 324.29 -1.8028 -0.342246 0
M  V30 3453 H 322.672 -2.84676 -2.75274 0
M  V30 3454 H 323.846 -4.58281 -0.481159 0
M  V30 3455 H 322.161 -4.12173 -0.591813 0
M  V30 3456 H 324.758 -4.1489 -3.37299 0
M  V30 3457 H 325.101 -2.43639 -3.37558 0
M  V30 3458 H 325.634 -3.43705 -2.0028 0
M  V30 3459 H 322.373 -6.38741 -1.47274 0
M  V30 3460 H 321.893 -5.30458 -2.79955 0
M  V30 3461 H 323.572 -5.88744 -2.68308 0
M  V30 3462 N 323.704 0.605807 -1.45491 0
M  V30 3463 C 324.953 1.36086 -1.48874 0
M  V30 3464 C 325.266 1.95131 -0.135333 0
M  V30 3465 O 326.472 2.7146 -0.0468144 0
M  V30 3466 C 324.928 2.46518 -2.62215 0
M  V30 3467 C 324.536 1.93877 -4.03876 0
M  V30 3468 C 326.28 3.23512 -2.74846 0
M  V30 3469 C 324.187 3.01801 -5.08596 0
M  V30 3470 H 323.117 0.511497 -0.553974 0
M  V30 3471 H 325.768 0.649089 -1.71636 0
M  V30 3472 H 324.15 3.20388 -2.32739 0
M  V30 3473 H 325.324 1.26704 -4.43038 0
M  V30 3474 H 323.639 1.29622 -3.95711 0
M  V30 3475 H 326.236 4.04013 -3.50253 0
M  V30 3476 H 326.579 3.74631 -1.81542 0
M  V30 3477 H 327.112 2.56742 -3.03856 0
M  V30 3478 H 323.851 2.55597 -6.03614 0
M  V30 3479 H 323.371 3.67535 -4.74002 0
M  V30 3480 H 325.05 3.66152 -5.33424 0
M  V30 3481 N 325.182 1.32811 0.848464 0
M  V30 3482 C 326.407 1.26882 1.6406 0
M  V30 3483 C 326.832 -0.15913 1.87426 0
M  V30 3484 O 326.19 -1.11258 1.43148 0
M  V30 3485 C 326.238 2.03997 2.97351 0
M  V30 3486 O 325.342 1.39201 3.88197 0
M  V30 3487 H 324.683 0.436982 0.499943 0
M  V30 3488 H 327.213 1.75224 1.0563 0
M  V30 3489 H 327.223 2.14403 3.47124 0
M  V30 3490 H 325.898 3.0783 2.79666 0
M  V30 3491 H 324.475 1.37381 3.46671 0
M  V30 3492 N 326.66 -1.06551 1.16123 0
M  V30 3493 C 327.906 -1.79567 0.94252 0
M  V30 3494 C 328.239 -1.86869 -0.528547 0
M  V30 3495 O 327.514 -1.35838 -1.39206 0
M  V30 3496 C 327.797 -3.24195 1.56747 0
M  V30 3497 C 327.65 -3.24989 3.10969 0
M  V30 3498 C 328.969 -4.21678 1.25998 0
M  V30 3499 H 326.088 -0.651883 0.343828 0
M  V30 3500 H 328.73 -1.2463 1.43413 0
M  V30 3501 H 326.88 -3.71107 1.14942 0
M  V30 3502 H 328.552 -2.86258 3.61737 0
M  V30 3503 H 326.795 -2.63716 3.44436 0
M  V30 3504 H 327.466 -4.27005 3.49815 0
M  V30 3505 H 329.942 -3.83196 1.62174 0
M  V30 3506 H 328.818 -5.21146 1.7233 0
M  V30 3507 H 329.079 -4.4174 0.178367 0
M  V30 3508 N 328.138 -0.959301 -1.25041 0
M  V30 3509 C 329.071 -0.427418 -2.24161 0
M  V30 3510 C 330.049 0.493837 -1.54919 0
M  V30 3511 O 331.233 0.427144 -1.83597 0
M  V30 3512 C 328.36 0.383893 -3.36517 0
M  V30 3513 C 327.406 -0.478431 -4.23808 0
M  V30 3514 S 328.239 -1.91353 -5.00144 0
M  V30 3515 C 329.395 -1.11077 -6.15965 0
M  V30 3516 H 329.628 -1.26743 -2.6893 0
M  V30 3517 H 327.161 -0.763714 -1.34189 0
M  V30 3518 H 329.119 0.846039 -4.01687 0
M  V30 3519 H 327.78 1.19878 -2.90324 0
M  V30 3520 H 326.973 0.14406 -5.03794 0
M  V30 3521 H 326.575 -0.87597 -3.63597 0
M  V30 3522 H 328.867 -0.361699 -6.76534 0
M  V30 3523 H 329.81 -1.88472 -6.82557 0
M  V30 3524 H 330.218 -0.638843 -5.60873 0
M  V30 3525 N 329.616 1.39756 -0.72842 0
M  V30 3526 C 330.863 2.00645 -0.273487 0
M  V30 3527 C 331.191 1.57786 1.13727 0
M  V30 3528 O 330.446 0.794886 1.7883 0
M  V30 3529 C 330.745 3.56002 -0.315776 0
M  V30 3530 C 330.411 4.18489 -1.67863 0
M  V30 3531 C 329.073 4.3527 -2.05166 0
M  V30 3532 C 331.425 4.53219 -2.57375 0
M  V30 3533 C 328.753 4.84069 -3.31503 0
M  V30 3534 C 331.105 5.03423 -3.83077 0
M  V30 3535 C 329.769 5.18413 -4.20481 0
M  V30 3536 H 329.039 0.734211 -0.100076 0
M  V30 3537 H 331.686 1.6718 -0.933972 0
M  V30 3538 H 329.991 3.89452 0.428285 0
M  V30 3539 H 331.688 4.00963 0.0542575 0
M  V30 3540 H 328.278 4.05824 -1.37858 0
M  V30 3541 H 332.462 4.39878 -2.29827 0
M  V30 3542 H 327.718 4.93859 -3.60435 0
M  V30 3543 H 331.892 5.2927 -4.52599 0
M  V30 3544 H 329.519 5.55987 -5.18443 0
M  V30 3545 N 331.094 0.475555 1.50254 0
M  V30 3546 C 332.004 -0.321501 2.32387 0
M  V30 3547 C 333.02 -0.991755 1.42969 0
M  V30 3548 O 334.196 -0.978747 1.76018 0
M  V30 3549 C 331.261 -1.38667 3.17762 0
M  V30 3550 C 330.322 -0.732538 4.23004 0
M  V30 3551 C 329.555 -1.74695 5.04299 0
M  V30 3552 O 329.778 -2.97399 4.86734 0
M  V30 3553 O 328.712 -1.31631 5.8733 0
M  V30 3554 H 332.538 0.350071 3.01676 0
M  V30 3555 H 330.123 0.237321 1.47503 0
M  V30 3556 H 332.005 -2.00354 3.70724 0
M  V30 3557 H 330.68 -2.04163 2.51196 0
M  V30 3558 H 329.587 -0.0765902 3.74022 0
M  V30 3559 H 330.92 -0.120452 4.92053 0
M  V30 3560 N 332.573 -1.56217 0.208337 0
M  V30 3561 C 333.82 -1.97949 -0.42692 0
M  V30 3562 C 334.148 -1.09562 -1.60706 0
M  V30 3563 O 333.403 -0.137616 -1.95216 0
M  V30 3564 C 333.702 -3.45441 -0.916797 0
M  V30 3565 C 333.368 -4.50646 0.151391 0
M  V30 3566 C 332.03 -4.79139 0.444867 0
M  V30 3567 C 334.382 -5.13811 0.874492 0
M  V30 3568 C 331.71 -5.68084 1.46619 0
M  V30 3569 C 334.062 -6.03861 1.88506 0
M  V30 3570 C 332.726 -6.30704 2.18559 0
M  V30 3571 H 331.996 -0.724345 -0.156221 0
M  V30 3572 H 334.643 -1.89006 0.308084 0
M  V30 3573 H 332.948 -3.51521 -1.73032 0
M  V30 3574 H 334.645 -3.75094 -1.41794 0
M  V30 3575 H 331.235 -4.28511 -0.0875068 0
M  V30 3576 H 335.419 -4.91879 0.660996 0
M  V30 3577 H 330.675 -5.87151 1.7048 0
M  V30 3578 H 334.849 -6.51861 2.45051 0
M  V30 3579 H 332.476 -6.99424 2.97843 0
M  V30 3580 N 334.051 0.0651679 -1.57465 0
M  V30 3581 C 334.981 1.07693 -2.07182 0
M  V30 3582 C 335.962 1.39962 -0.966673 0
M  V30 3583 O 337.147 1.49475 -1.2398 0
M  V30 3584 C 334.277 2.3885 -2.52127 0
M  V30 3585 C 333.231 2.20917 -3.66579 0
M  V30 3586 C 332.557 3.57515 -3.97601 0
M  V30 3587 C 333.857 1.62493 -4.9638 0
M  V30 3588 H 335.551 0.663199 -2.91962 0
M  V30 3589 H 333.097 0.317569 -1.40455 0
M  V30 3590 H 335.05 3.09928 -2.85522 0
M  V30 3591 H 333.774 2.82215 -1.64384 0
M  V30 3592 H 332.433 1.52279 -3.33477 0
M  V30 3593 H 332.081 3.98463 -3.06979 0
M  V30 3594 H 331.781 3.46353 -4.74672 0
M  V30 3595 H 333.305 4.30013 -4.33499 0
M  V30 3596 H 334.719 2.23445 -5.27963 0
M  V30 3597 H 333.116 1.62009 -5.77818 0
M  V30 3598 H 334.186 0.587041 -4.81333 0
M  V30 3599 N 335.529 1.53961 0.336706 0
M  V30 3600 C 336.439 1.85432 1.43708 0
M  V30 3601 C 337.455 0.745053 1.57242 0
M  V30 3602 O 338.631 1.03804 1.72588 0
M  V30 3603 C 335.696 2.06349 2.78605 0
M  V30 3604 C 334.757 3.30191 2.74358 0
M  V30 3605 C 333.99 3.50101 4.02822 0
M  V30 3606 O 334.213 2.7371 5.00439 0
M  V30 3607 O 333.147 4.43547 4.06878 0
M  V30 3608 H 336.973 2.78975 1.20028 0
M  V30 3609 H 334.558 1.39701 0.52952 0
M  V30 3610 H 336.44 2.21513 3.58483 0
M  V30 3611 H 335.115 1.15995 3.02203 0
M  V30 3612 H 334.022 3.20425 1.93078 0
M  V30 3613 H 335.355 4.2056 2.55715 0
M  V30 3614 N 337.007 -0.598083 1.45811 0
M  V30 3615 C 338.237 -1.38121 1.53643 0
M  V30 3616 C 338.645 -1.88425 0.171081 0
M  V30 3617 O 337.988 -1.63409 -0.839237 0
M  V30 3618 C 338.05 -2.61432 2.46766 0
M  V30 3619 C 337.714 -2.32702 3.93318 0
M  V30 3620 C 338.711 -1.92479 4.82957 0
M  V30 3621 C 336.396 -2.45321 4.38318 0
M  V30 3622 C 338.39 -1.65248 6.15607 0
M  V30 3623 C 336.077 -2.17703 5.71007 0
M  V30 3624 C 337.075 -1.7773 6.5947 0
M  V30 3625 O 336.763 -1.50441 7.89698 0
M  V30 3626 H 336.495 -0.428863 0.522544 0
M  V30 3627 H 339.049 -0.73557 1.91777 0
M  V30 3628 H 337.279 -3.28749 2.0362 0
M  V30 3629 H 338.968 -3.23487 2.45175 0
M  V30 3630 H 339.734 -1.82258 4.49452 0
M  V30 3631 H 335.613 -2.75399 3.69697 0
M  V30 3632 H 339.157 -1.33973 6.84614 0
M  V30 3633 H 335.054 -2.27544 6.04065 0
M  V30 3634 H 335.822 -1.64415 8.01817 0
M  V30 3635 N 338.485 -1.33259 -0.841409 0
M  V30 3636 C 339.71 -1.2775 -1.63385 0
M  V30 3637 C 340.135 0.149188 -1.87507 0
M  V30 3638 O 339.493 1.10498 -1.43736 0
M  V30 3639 C 339.541 -2.05571 -2.96265 0
M  V30 3640 O 338.645 -1.41257 -3.87453 0
M  V30 3641 H 337.986 -0.439627 -0.497618 0
M  V30 3642 H 340.516 -1.75782 -1.04699 0
M  V30 3643 H 340.526 -2.16241 -3.45982 0
M  V30 3644 H 339.201 -3.09309 -2.7803 0
M  V30 3645 H 337.778 -1.39217 -3.45938 0
M  V30 3646 N 339.963 1.05934 -1.16686 0
M  V30 3647 C 340.893 2.1546 -0.899949 0
M  V30 3648 C 341.874 1.69391 0.155154 0
M  V30 3649 O 343.059 1.94199 0.00648693 0
M  V30 3650 C 340.189 3.44939 -0.404241 0
M  V30 3651 C 339.143 4.04536 -1.39767 0
M  V30 3652 C 338.469 5.29268 -0.760216 0
M  V30 3653 C 339.769 4.42893 -2.76845 0
M  V30 3654 H 341.463 2.38046 -1.81588 0
M  V30 3655 H 339.009 1.14404 -0.874514 0
M  V30 3656 H 340.962 4.20901 -0.204971 0
M  V30 3657 H 339.686 3.21983 0.547206 0
M  V30 3658 H 338.345 3.30635 -1.58355 0
M  V30 3659 H 337.993 5.02611 0.197831 0
M  V30 3660 H 337.693 5.70101 -1.42332 0
M  V30 3661 H 339.217 6.07924 -0.57105 0
M  V30 3662 H 340.631 5.09921 -2.62019 0
M  V30 3663 H 339.028 4.94721 -3.39663 0
M  V30 3664 H 340.098 3.53584 -3.31823 0
M  V30 3665 N 341.441 0.965919 1.2453 0
M  V30 3666 C 342.351 0.502154 2.29163 0
M  V30 3667 C 343.367 -0.436017 1.68448 0
M  V30 3668 O 344.543 -0.309497 1.99008 0
M  V30 3669 C 341.608 -0.201956 3.46111 0
M  V30 3670 C 340.669 0.775821 4.22232 0
M  V30 3671 C 339.902 0.105217 5.33596 0
M  V30 3672 O 340.125 -1.10683 5.59558 0
M  V30 3673 O 339.059 0.796475 5.96607 0
M  V30 3674 H 342.885 1.37194 2.70946 0
M  V30 3675 H 340.47 0.732875 1.30189 0
M  V30 3676 H 342.352 -0.597564 4.17142 0
M  V30 3677 H 341.027 -1.04673 3.06309 0
M  V30 3678 H 339.934 1.22185 3.53584 0
M  V30 3679 H 341.267 1.58896 4.65846 0
M  V30 3680 N 342.919 -1.39368 0.735821 0
M  V30 3681 C 343.869 -2.27885 0.0724287 0
M  V30 3682 C 344.853 -1.44301 -0.711756 0
M  V30 3683 O 346.045 -1.67206 -0.58063 0
M  V30 3684 C 343.174 -3.33029 -0.833454 0
M  V30 3685 C 342.26 -4.24078 -0.0433749 0
M  V30 3686 N 342.651 -4.96138 0.983903 0
M  V30 3687 C 340.949 -4.45164 -0.272905 0
M  V30 3688 C 341.65 -5.63069 1.4604 0
M  V30 3689 N 340.626 -5.37991 0.778857 0
M  V30 3690 H 344.428 -2.81052 0.859467 0
M  V30 3691 H 341.942 -1.5206 0.570227 0
M  V30 3692 H 343.939 -3.95311 -1.32419 0
M  V30 3693 H 342.599 -2.81421 -1.61964 0
M  V30 3694 H 343.61 -4.9958 1.36528 0
M  V30 3695 H 340.287 -4.04497 -1.03383 0
M  V30 3696 H 341.677 -6.30755 2.31511 0
M  V30 3697 N 344.397 -0.483516 -1.5 0
M  V30 3698 C 345.329 0.340634 -2.26655 0
M  V30 3699 C 346.342 0.946152 -1.32483 0
M  V30 3700 O 347.531 0.832453 -1.579 0
M  V30 3701 C 344.631 1.4929 -3.04246 0
M  V30 3702 C 343.804 0.997903 -4.25865 0
M  V30 3703 C 342.863 2.02569 -4.85646 0
M  V30 3704 O 341.889 1.60128 -5.46212 0
M  V30 3705 N 343.091 3.3548 -4.73744 0
M  V30 3706 H 345.856 -0.316577 -2.98023 0
M  V30 3707 H 343.417 -0.315024 -1.58806 0
M  V30 3708 H 345.409 2.17766 -3.41116 0
M  V30 3709 H 343.979 2.05458 -2.35597 0
M  V30 3710 H 343.199 0.138617 -3.93956 0
M  V30 3711 H 344.487 0.645305 -5.04691 0
M  V30 3712 H 343.885 3.72661 -4.25605 0
M  V30 3713 H 342.442 3.99718 -5.14848 0
M  V30 3714 N 345.875 1.56104 -0.216619 0
M  V30 3715 C 346.805 2.23063 0.690296 0
M  V30 3716 C 347.786 1.20072 1.20485 0
M  V30 3717 O 348.971 1.48643 1.24976 0
M  V30 3718 C 346.101 2.90672 1.90072 0
M  V30 3719 C 345.055 4.00092 1.5202 0
M  V30 3720 C 344.381 4.54972 2.80899 0
M  V30 3721 C 345.681 5.17398 0.71391 0
M  V30 3722 H 347.375 2.99109 0.132038 0
M  V30 3723 H 344.921 1.43866 0.0620664 0
M  V30 3724 H 346.874 3.36204 2.54057 0
M  V30 3725 H 345.598 2.12066 2.48386 0
M  V30 3726 H 344.257 3.55283 0.903839 0
M  V30 3727 H 343.905 3.73102 3.37348 0
M  V30 3728 H 343.605 5.28817 2.56176 0
M  V30 3729 H 345.129 5.0322 3.45836 0
M  V30 3730 H 346.543 5.59342 1.25735 0
M  V30 3731 H 344.94 5.97444 0.563951 0
M  V30 3732 H 346.01 4.84088 -0.280527 0
M  V30 3733 N 347.353 -0.0568162 1.57498 0
M  V30 3734 C 348.764 -0.606858 1.76562 0
M  V30 3735 C 349.115 -1.77114 0.844094 0
M  V30 3736 O 348.24 -2.16376 0.0318911 0
M  V30 3737 C 348.835 -1.10766 3.20182 0
M  V30 3738 C 347.394 -1.60344 3.40539 0
M  V30 3739 C 346.541 -0.529311 2.72201 0
M  V30 3740 H 349.492 0.169393 1.57793 0
M  V30 3741 H 349.513 -1.97602 3.25167 0
M  V30 3742 H 349.025 -0.26006 3.87228 0
M  V30 3743 H 347.126 -2.47379 2.78629 0
M  V30 3744 H 347.239 -1.67006 4.4905 0
M  V30 3745 H 345.603 -0.977893 2.35179 0
M  V30 3746 H 346.386 0.308352 3.41912 0
M  V30 3747 N 348.832 -1.54138 -0.328536 0
M  V30 3748 C 349.78 -1.83894 -1.42428 0
M  V30 3749 C 350.774 -0.710478 -1.53781 0
M  V30 3750 O 351.98 -0.894062 -1.56226 0
M  V30 3751 H 348.355 -0.582837 -0.475189 0
M  V30 3752 H 350.326 -2.75537 -1.14552 0
M  V30 3753 C 349.075 -2.07866 -2.78724 0
M  V30 3754 H 348.398 -2.94158 -2.7076 0
M  V30 3755 H 349.838 -2.32644 -3.54476 0
M  V30 3756 C 348.297 -0.868689 -3.25508 0
M  V30 3757 O 348.827 -0.0754908 -4.01629 0
M  V30 3758 N 347.033 -0.681711 -2.82491 0
M  V30 3759 H 346.58 -1.32838 -2.20708 0
M  V30 3760 H 346.538 0.126374 -3.14146 0
M  V30 3761 N 350.31 0.590341 -1.46126 0
M  V30 3762 C 351.557 1.34882 -1.5104 0
M  V30 3763 C 351.885 1.93849 -0.159021 0
M  V30 3764 O 351.14 1.76544 0.844436 0
M  V30 3765 C 351.439 2.5032 -2.55097 0
M  V30 3766 C 351.105 2.09394 -3.99331 0
M  V30 3767 C 349.767 1.97947 -4.38601 0
M  V30 3768 C 352.119 1.77712 -4.89967 0
M  V30 3769 C 349.447 1.53065 -5.66381 0
M  V30 3770 C 351.799 1.34312 -6.18177 0
M  V30 3771 C 350.463 1.21436 -6.56361 0
M  V30 3772 H 349.733 0.493568 -0.552695 0
M  V30 3773 H 352.38 0.665539 -1.79563 0
M  V30 3774 H 350.685 3.24062 -2.20207 0
M  V30 3775 H 352.382 3.08541 -2.56132 0
M  V30 3776 H 348.972 2.19235 -3.68285 0
M  V30 3777 H 353.156 1.85445 -4.60352 0
M  V30 3778 H 348.412 1.41733 -5.94745 0
M  V30 3779 H 352.586 1.08849 -6.87841 0
M  V30 3780 H 350.213 0.864345 -7.5527 0
M  V30 3781 N 351.788 1.33704 0.83433 0
M  V30 3782 C 353.013 1.28615 1.62705 0
M  V30 3783 C 353.438 -0.139242 1.87584 0
M  V30 3784 O 352.796 -1.09734 1.4432 0
M  V30 3785 C 352.844 2.07139 2.95171 0
M  V30 3786 O 351.948 1.4331 3.86699 0
M  V30 3787 H 351.289 0.44226 0.49528 0
M  V30 3788 H 353.819 1.76335 1.03766 0
M  V30 3789 H 353.829 2.18073 3.44831 0
M  V30 3790 H 352.504 3.10779 2.76386 0
M  V30 3791 H 351.081 1.4105 3.45195 0
M  V30 3792 N 353.266 -1.05314 1.17247 0
M  V30 3793 C 354.176 -2.16538 0.90268 0
M  V30 3794 C 355.192 -1.73523 -0.128707 0
M  V30 3795 O 356.368 -2.01337 0.0502701 0
M  V30 3796 C 353.433 -3.44167 0.418356 0
M  V30 3797 C 352.494 -4.01635 1.51618 0
M  V30 3798 C 351.727 -5.23171 1.05487 0
M  V30 3799 O 351.95 -5.70327 -0.0914715 0
M  V30 3800 O 350.884 -5.72848 1.8474 0
M  V30 3801 H 354.71 -2.42145 1.83302 0
M  V30 3802 H 352.295 -1.15037 0.953246 0
M  V30 3803 H 354.177 -4.21112 0.155726 0
M  V30 3804 H 352.852 -3.20063 -0.48385 0
M  V30 3805 H 351.759 -3.26135 1.83268 0
M  V30 3806 H 353.092 -4.30053 2.39405 0
M  V30 3807 N 354.744 -0.972509 -1.24016 0
M  V30 3808 C 355.984 -0.644951 -1.93958 0
M  V30 3809 C 356.348 0.80559 -1.74282 0
M  V30 3810 O 357.549 1.2436 -2.38302 0
M  V30 3811 C 355.82 -1.01521 -3.42678 0
M  V30 3812 S 357.379 -0.802927 -4.31391 0
M  V30 3813 H 354.197 -0.236452 -0.670531 0
M  V30 3814 H 356.799 -1.25048 -1.50277 0
M  V30 3815 H 355.503 -2.06769 -3.54506 0
M  V30 3816 H 355.034 -0.400648 -3.91355 0
M  V30 3817 H 357.049 0.317256 -4.95185 0
M  V30 3818 N 356.222 1.38976 -0.743202 0
M  V30 3819 C 357.468 2.01114 -0.304109 0
M  V30 3820 C 357.823 1.57929 1.09892 0
M  V30 3821 O 357.116 0.801983 1.74008 0
M  V30 3822 C 357.31 3.55647 -0.353517 0
M  V30 3823 C 357.139 4.13837 -1.75981 0
M  V30 3824 C 355.909 4.46062 -2.37395 0
M  V30 3825 C 358.107 4.36812 -2.71477 0
M  V30 3826 N 356.089 4.898 -3.70093 0
M  V30 3827 C 357.46 4.82844 -3.88923 0
M  V30 3828 C 359.515 4.18893 -2.69134 0
M  V30 3829 C 358.218 5.12837 -5.04371 0
M  V30 3830 C 360.244 4.50005 -3.83731 0
M  V30 3831 C 359.606 4.96251 -4.99914 0
M  V30 3832 H 355.705 0.765931 -0.157716 0
M  V30 3833 H 358.289 1.68763 -0.970931 0
M  V30 3834 H 356.46 3.87368 0.282987 0
M  V30 3835 H 358.192 4.04564 0.104904 0
M  V30 3836 H 354.947 4.34145 -1.89248 0
M  V30 3837 H 355.371 5.16016 -4.38242 0
M  V30 3838 H 360.013 3.82335 -1.80499 0
M  V30 3839 H 357.731 5.48297 -5.9363 0
M  V30 3840 H 361.317 4.37755 -3.83225 0
M  V30 3841 H 360.197 5.19867 -5.87118 0
M  V30 3842 N 357.7 0.491464 1.49741 0
M  V30 3843 C 358.946 -0.0485431 2.03342 0
M  V30 3844 C 359.301 -1.35566 1.36527 0
M  V30 3845 O 358.594 -1.85262 0.488729 0
M  V30 3846 C 358.788 -0.267329 3.56399 0
M  V30 3847 C 358.617 1.01703 4.38049 0
M  V30 3848 C 357.387 1.56614 4.80417 0
M  V30 3849 C 359.585 1.91782 4.77204 0
M  V30 3850 N 357.567 2.7974 5.4646 0
M  V30 3851 C 358.938 2.99489 5.42868 0
M  V30 3852 C 360.993 1.92575 4.5915 0
M  V30 3853 C 359.696 4.08005 5.92389 0
M  V30 3854 C 361.722 3.0006 5.09626 0
M  V30 3855 C 361.084 4.06485 5.75282 0
M  V30 3856 H 357.183 0.0227779 0.781668 0
M  V30 3857 H 359.767 0.664204 1.8302 0
M  V30 3858 H 357.938 -0.949126 3.76625 0
M  V30 3859 H 359.67 -0.803492 3.96644 0
M  V30 3860 H 356.425 1.11256 4.60347 0
M  V30 3861 H 356.849 3.42323 5.84075 0
M  V30 3862 H 361.491 1.11605 4.07804 0
M  V30 3863 H 359.209 4.89779 6.42761 0
M  V30 3864 H 362.795 3.01681 4.97473 0
M  V30 3865 H 361.675 4.88287 6.13633 0
M  V30 3866 N 359.178 -1.55987 0.224894 0
M  V30 3867 C 360.455 -1.90232 -0.455083 0
M  V30 3868 C 360.835 -1.14269 -1.77499 0
M  V30 3869 O 360.183 -0.253079 -2.27094 0
M  V30 3870 C 360.393 -3.42993 -0.644758 0
M  V30 3871 C 361.741 -4.13821 -0.950669 0
M  V30 3872 O 362.765 -3.4861 -0.731423 0
M  V30 3873 O 361.624 -5.29128 -1.36695 0
M  V30 3874 H 358.718 -0.79108 -0.241084 0
M  V30 3875 H 361.264 -1.67581 0.267327 0
M  V30 3876 H 360.036 -3.90252 0.28613 0
M  V30 3877 H 359.659 -3.71434 -1.41853 0
M  V30 3878 N 360.656 0.0484629 -1.57525 0
M  V30 3879 C 361.606 1.06246 -2.01732 0
M  V30 3880 C 362.59 1.33155 -0.903245 0
M  V30 3881 O 363.782 1.33065 -1.16717 0
M  V30 3882 C 360.911 2.36943 -2.48421 0
M  V30 3883 C 359.997 2.13208 -3.6661 0
M  V30 3884 N 360.388 1.5947 -4.80003 0
M  V30 3885 C 358.686 2.43581 -3.7361 0
M  V30 3886 C 359.387 1.51092 -5.61735 0
M  V30 3887 N 358.363 1.9797 -5.0627 0
M  V30 3888 H 362.165 0.640675 -2.86832 0
M  V30 3889 H 359.679 0.255134 -1.60383 0
M  V30 3890 H 361.676 3.10374 -2.78341 0
M  V30 3891 H 360.336 2.79818 -1.64718 0
M  V30 3892 H 361.347 1.28008 -5.01831 0
M  V30 3893 H 358.024 2.89662 -3.00669 0
M  V30 3894 H 359.414 1.10199 -6.62801 0
M  V30 3895 N 362.134 1.5431 0.320358 0
M  V30 3896 C 363.38 1.73859 1.05568 0
M  V30 3897 C 363.735 0.507807 1.85578 0
M  V30 3898 O 363.028 -0.499789 1.84967 0
M  V30 3899 C 363.222 2.95639 2.00828 0
M  V30 3900 C 363.051 4.30444 1.30186 0
M  V30 3901 C 361.821 4.94544 1.03703 0
M  V30 3902 C 364.019 5.0929 0.716138 0
M  V30 3903 N 362.001 6.13172 0.298846 0
M  V30 3904 C 363.372 6.19903 0.109729 0
M  V30 3905 C 365.427 4.94034 0.619269 0
M  V30 3906 C 364.13 7.16924 -0.584153 0
M  V30 3907 C 366.156 5.91369 -0.0609184 0
M  V30 3908 C 365.518 7.01336 -0.656258 0
M  V30 3909 H 361.617 0.688988 0.36989 0
M  V30 3910 H 364.201 1.9177 0.336494 0
M  V30 3911 H 362.372 2.79188 2.70016 0
M  V30 3912 H 364.104 3.03802 2.6737 0
M  V30 3913 H 360.859 4.54536 1.33019 0
M  V30 3914 H 361.283 6.76977 -0.0561964 0
M  V30 3915 H 365.925 4.0916 1.06526 0
M  V30 3916 H 363.643 8.01354 -1.04197 0
M  V30 3917 H 367.229 5.81642 -0.135552 0
M  V30 3918 H 366.109 7.75359 -1.17423 0
M  V30 3919 N 363.613 -0.582584 1.46437 0
M  V30 3920 C 364.862 -1.337 1.5102 0
M  V30 3921 C 365.175 -1.94891 0.166359 0
M  V30 3922 O 366.381 -2.71351 0.0899954 0
M  V30 3923 C 364.837 -2.42315 2.66104 0
M  V30 3924 C 364.445 -1.87427 4.06909 0
M  V30 3925 C 366.189 -3.19099 2.79958 0
M  V30 3926 C 364.096 -2.93672 5.13333 0
M  V30 3927 H 363.026 -0.502619 0.562041 0
M  V30 3928 H 365.677 -0.621701 1.72647 0
M  V30 3929 H 364.059 -3.16645 2.37807 0
M  V30 3930 H 365.233 -1.19639 4.44998 0
M  V30 3931 H 363.548 -1.2331 3.97723 0
M  V30 3932 H 366.145 -3.9839 3.56636 0
M  V30 3933 H 366.488 -3.71695 1.87479 0
M  V30 3934 H 367.021 -2.51875 3.07902 0
M  V30 3935 H 363.76 -2.45962 6.07604 0
M  V30 3936 H 363.28 -3.59948 4.79789 0
M  V30 3937 H 364.959 -3.5762 5.39182 0
M  V30 3938 N 365.091 -1.34144 -0.827227 0
M  V30 3939 C 366.024 -1.19707 -1.94282 0
M  V30 3940 C 367.002 -0.0897256 -1.62352 0
M  V30 3941 O 368.186 -0.254095 -1.8678 0
M  V30 3942 C 365.313 -0.838646 -3.28153 0
M  V30 3943 C 364.359 -1.95514 -3.79047 0
M  V30 3944 S 365.192 -3.56793 -3.99323 0
M  V30 3945 C 366.348 -3.22983 -5.36127 0
M  V30 3946 H 366.581 -2.1414 -2.06231 0
M  V30 3947 H 364.114 -1.19121 -0.982321 0
M  V30 3948 H 366.072 -0.638637 -4.05502 0
M  V30 3949 H 364.733 0.0872776 -3.13979 0
M  V30 3950 H 363.926 -1.658 -4.75948 0
M  V30 3951 H 363.528 -2.11241 -3.08631 0
M  V30 3952 H 365.82 -2.74531 -6.19386 0
M  V30 3953 H 366.763 -4.19008 -5.70822 0
M  V30 3954 H 367.171 -2.59276 -5.01434 0
M  V30 3955 N 366.569 1.04691 -1.17803 0
M  V30 3956 C 367.846 1.7472 -0.879328 0
M  V30 3957 C 368.226 2.01812 0.619271 0
M  V30 3958 O 367.574 1.65824 1.57209 0
M  V30 3959 C 367.784 3.03686 -1.71976 0
M  V30 3960 C 369.132 3.77542 -1.94286 0
M  V30 3961 O 370.156 3.13569 -1.68976 0
M  V30 3962 O 369.015 4.92506 -2.36855 0
M  V30 3963 H 366.109 0.760011 -0.326056 0
M  V30 3964 H 368.655 1.10813 -1.28525 0
M  V30 3965 H 367.427 2.79754 -2.73594 0
M  V30 3966 H 367.05 3.75332 -1.31194 0
M  V30 3967 N 368.047 0.979072 1.23499 0
M  V30 3968 C 369.293 0.648178 1.92163 0
M  V30 3969 C 369.626 -0.816049 1.76222 0
M  V30 3970 O 368.901 -1.58849 1.12237 0
M  V30 3971 C 369.184 1.03773 3.44824 0
M  V30 3972 C 369.037 2.55948 3.69879 0
M  V30 3973 C 370.356 0.580653 4.36253 0
M  V30 3974 H 367.475 0.236952 0.69787 0
M  V30 3975 H 370.117 1.22012 1.45647 0
M  V30 3976 H 368.267 0.551058 3.84572 0
M  V30 3977 H 369.939 3.12179 3.3962 0
M  V30 3978 H 368.182 2.98641 3.14636 0
M  V30 3979 H 368.853 2.78255 4.76737 0
M  V30 3980 H 371.329 0.998465 4.03943 0
M  V30 3981 H 370.205 0.881663 5.41773 0
M  V30 3982 H 370.466 -0.519052 4.39042 0
M  V30 3983 N 369.525 -1.3858 0.750561 0
M  V30 3984 C 370.455 -2.33102 0.136237 0
M  V30 3985 C 371.436 -1.54713 -0.706965 0
M  V30 3986 O 372.621 -1.83043 -0.648769 0
M  V30 3987 C 369.751 -3.38882 -0.760017 0
M  V30 3988 C 368.705 -4.27995 -0.0197785 0
M  V30 3989 C 368.031 -5.24605 -1.03408 0
M  V30 3990 C 369.331 -5.09554 1.14684 0
M  V30 3991 H 371.025 -2.84726 0.925822 0
M  V30 3992 H 368.571 -1.36898 0.446654 0
M  V30 3993 H 370.524 -4.0397 -1.19943 0
M  V30 3994 H 369.248 -2.85734 -1.58189 0
M  V30 3995 H 367.907 -3.64409 0.400184 0
M  V30 3996 H 367.555 -4.67746 -1.84994 0
M  V30 3997 H 367.255 -5.85081 -0.543464 0
M  V30 3998 H 368.779 -5.9257 -1.47288 0
M  V30 3999 H 370.193 -5.67899 0.785118 0
M  V30 4000 H 368.59 -5.7925 1.56812 0
M  V30 4001 H 369.66 -4.4347 1.96118 0
M  V30 4002 N 371.003 -0.499398 -1.49478 0
M  V30 4003 C 372.249 0.0457576 -2.02748 0
M  V30 4004 C 372.582 1.36793 -1.37846 0
M  V30 4005 O 371.857 1.87596 -0.513601 0
M  V30 4006 C 372.14 0.199986 -3.59544 0
M  V30 4007 C 371.993 -1.1452 -4.34977 0
M  V30 4008 C 373.312 0.94137 -4.29914 0
M  V30 4009 H 370.431 0.0151552 -0.736844 0
M  V30 4010 H 373.073 -0.650498 -1.78518 0
M  V30 4011 H 371.223 0.793007 -3.8032 0
M  V30 4012 H 372.895 -1.77697 -4.25701 0
M  V30 4013 H 371.138 -1.73488 -3.97598 0
M  V30 4014 H 371.809 -0.990607 -5.43039 0
M  V30 4015 H 374.285 0.43844 -4.13784 0
M  V30 4016 H 373.161 1.01812 -5.39375 0
M  V30 4017 H 373.422 1.98471 -3.95046 0
M  V30 4018 N 372.481 1.55866 -0.233164 0
M  V30 4019 C 373.721 2.00506 0.397078 0
M  V30 4020 C 374.085 1.1176 1.56121 0
M  V30 4021 O 375.286 1.45796 2.25825 0
M  V30 4022 C 373.557 3.4811 0.809601 0
M  V30 4023 S 375.116 4.14765 1.43231 0
M  V30 4024 H 371.934 0.699828 0.125547 0
M  V30 4025 H 374.536 1.92429 -0.345177 0
M  V30 4026 H 373.24 4.10373 -0.0471601 0
M  V30 4027 H 372.771 3.60085 1.58438 0
M  V30 4028 H 374.786 4.14914 2.7214 0
M  V30 4029 N 373.959 -0.0401083 1.57549 0
M  V30 4030 C 374.907 -1.06264 2.06908 0
M  V30 4031 C 375.901 -1.38132 0.980608 0
M  V30 4032 O 377.107 -1.37167 1.16556 0
M  V30 4033 H 373.482 -0.360166 0.660139 0
M  V30 4034 H 375.453 -0.620445 2.91878 0
M  V30 4035 C 374.202 -2.35846 2.55483 0
M  V30 4036 H 373.525 -2.12183 3.38849 0
M  V30 4037 H 374.965 -3.05765 2.93741 0
M  V30 4038 C 373.424 -3.0404 1.45126 0
M  V30 4039 O 373.954 -3.93424 0.811216 0
M  V30 4040 N 372.16 -2.65184 1.18852 0
M  V30 4041 H 371.707 -1.92584 1.71083 0
M  V30 4042 H 371.665 -3.1113 0.452244 0
M  V30 4043 N 375.437 -1.54477 -0.31217 0
M  V30 4044 C 376.685 -1.72884 -1.04668 0
M  V30 4045 C 377.006 -0.511477 -1.88173 0
M  V30 4046 O 376.276 0.474407 -1.90069 0
M  V30 4047 H 374.856 -0.637461 -0.389425 0
M  V30 4048 H 377.518 -1.91807 -0.345852 0
M  V30 4049 H 376.614 -2.61334 -1.70619 0
M  V30 4050 N 376.915 0.57481 -1.46744 0
M  V30 4051 C 377.845 1.69337 -1.60771 0
M  V30 4052 C 378.826 1.63825 -0.457736 0
M  V30 4053 O 380.011 1.8172 -0.684947 0
M  V30 4054 C 377.141 3.0798 -1.60517 0
M  V30 4055 C 376.095 3.28327 -2.74564 0
M  V30 4056 C 375.421 4.67578 -2.59373 0
M  V30 4057 C 376.721 3.15398 -4.16319 0
M  V30 4058 H 378.415 1.57853 -2.54407 0
M  V30 4059 H 375.961 0.75799 -1.22436 0
M  V30 4060 H 377.914 3.86061 -1.68923 0
M  V30 4061 H 376.638 3.20381 -0.634305 0
M  V30 4062 H 375.297 2.52649 -2.65639 0
M  V30 4063 H 374.945 4.76755 -1.60353 0
M  V30 4064 H 374.645 4.82144 -3.35873 0
M  V30 4065 H 376.169 5.47817 -2.69682 0
M  V30 4066 H 377.583 3.83315 -4.26313 0
M  V30 4067 H 375.98 3.41482 -4.93468 0
M  V30 4068 H 377.05 2.12372 -4.3592 0
M  V30 4069 N 378.394 1.34581 0.820102 0
M  V30 4070 C 379.642 1.26845 1.57336 0
M  V30 4071 C 379.963 -0.160667 1.94337 0
M  V30 4072 O 379.233 -1.09396 1.6251 0
M  V30 4073 H 377.813 0.466514 0.583415 0
M  V30 4074 H 380.475 1.68526 0.979027 0
M  V30 4075 H 379.571 1.87513 2.4949 0
M  V30 4076 N 379.872 -1.04064 1.18357 0
M  V30 4077 C 381.121 -1.76662 0.973313 0
M  V30 4078 C 381.434 -1.89154 -0.497991 0
M  V30 4079 O 382.64 -2.58606 -0.826762 0
M  V30 4080 C 381.096 -3.17624 1.69242 0
M  V30 4081 C 380.704 -3.13225 3.20303 0
M  V30 4082 C 382.448 -3.946 1.56497 0
M  V30 4083 C 380.355 -4.49046 3.84853 0
M  V30 4084 H 379.285 -0.662214 0.36054 0
M  V30 4085 H 381.936 -1.16553 1.41731 0
M  V30 4086 H 380.318 -3.78129 1.1762 0
M  V30 4087 H 381.492 -2.62172 3.78949 0
M  V30 4088 H 379.807 -2.49749 3.33189 0
M  V30 4089 H 382.404 -4.95042 2.02084 0
M  V30 4090 H 382.747 -4.13074 0.517243 0
M  V30 4091 H 383.28 -3.4067 2.05399 0
M  V30 4092 H 380.019 -4.35777 4.89672 0
M  V30 4093 H 379.539 -5.00203 3.30994 0
M  V30 4094 H 381.218 -5.17961 3.87718 0
M  V30 4095 N 381.35 -0.985608 -1.22978 0
M  V30 4096 C 382.58 -0.674603 -1.95276 0
M  V30 4097 C 382.988 0.763483 -1.73111 0
M  V30 4098 O 382.331 1.52601 -1.02268 0
M  V30 4099 C 382.393 -0.891597 -3.48268 0
M  V30 4100 C 382.057 -2.31275 -3.94158 0
M  V30 4101 C 383.054 -3.29179 -4.02415 0
M  V30 4102 C 380.739 -2.64524 -4.27004 0
M  V30 4103 C 382.733 -4.58407 -4.42879 0
M  V30 4104 C 380.42 -3.93974 -4.67149 0
M  V30 4105 C 381.418 -4.90727 -4.75053 0
M  V30 4106 O 381.106 -6.17865 -5.14294 0
M  V30 4107 H 380.838 -0.249251 -0.628371 0
M  V30 4108 H 383.392 -1.32106 -1.5728 0
M  V30 4109 H 381.622 -0.187962 -3.86243 0
M  V30 4110 H 383.311 -0.576957 -4.01779 0
M  V30 4111 H 384.077 -3.04823 -3.77237 0
M  V30 4112 H 379.956 -1.89923 -4.2006 0
M  V30 4113 H 383.5 -5.33926 -4.48964 0
M  V30 4114 H 379.397 -4.18122 -4.91777 0
M  V30 4115 H 380.165 -6.21694 -5.32389 0
M  V30 4116 N 382.828 1.3818 -0.7579 0
M  V30 4117 C 384.068 2.01864 -0.320968 0
M  V30 4118 C 384.432 1.58863 1.07827 0
M  V30 4119 O 385.633 2.14908 1.61456 0
M  V30 4120 C 383.904 3.54626 -0.44446 0
M  V30 4121 S 385.463 4.38706 -0.0907467 0
M  V30 4122 H 382.281 0.700056 -0.124268 0
M  V30 4123 H 384.883 1.68611 -0.989468 0
M  V30 4124 H 383.587 3.83411 -1.4637 0
M  V30 4125 H 383.118 3.92661 0.241073 0
M  V30 4126 H 385.133 4.83435 1.11826 0
M  V30 4127 N 384.306 0.507319 1.49211 0
M  V30 4128 C 385.554 -0.0348839 2.0207 0
M  V30 4129 C 385.875 -1.36898 1.38866 0
M  V30 4130 O 385.145 -1.88133 0.546151 0
M  V30 4131 H 383.725 -0.0158812 0.746831 0
M  V30 4132 H 386.387 0.665998 1.83168 0
M  V30 4133 H 385.483 -0.159917 3.1169 0
M  V30 4134 N 385.784 -1.5574 0.241426 0
M  V30 4135 C 386.717 -2.17168 -0.700935 0
M  V30 4136 C 387.695 -1.12206 -1.1768 0
M  V30 4137 O 388.879 -1.40565 -1.25593 0
M  V30 4138 C 386.006 -2.76796 -1.95196 0
M  V30 4139 C 385.052 -3.94764 -1.61442 0
M  V30 4140 S 385.885 -5.30613 -0.72182 0
M  V30 4141 C 387.041 -5.93691 -1.98197 0
M  V30 4142 H 387.274 -2.96761 -0.178882 0
M  V30 4143 H 384.807 -1.54378 0.0259299 0
M  V30 4144 H 386.765 -3.11787 -2.67019 0
M  V30 4145 H 385.426 -1.9716 -2.44514 0
M  V30 4146 H 384.619 -4.35057 -2.54443 0
M  V30 4147 H 384.221 -3.61022 -0.976672 0
M  V30 4148 H 386.513 -6.10874 -2.92983 0
M  V30 4149 H 387.456 -6.89258 -1.62262 0
M  V30 4150 H 387.864 -5.22709 -2.13156 0
M  V30 4151 N 387.262 0.0317525 -1.57568 0
M  V30 4152 C 388.209 1.0332 -2.06382 0
M  V30 4153 C 389.179 1.36082 -0.952414 0
M  V30 4154 O 390.364 1.46466 -1.2228 0
M  V30 4155 C 387.504 2.32989 -2.54578 0
M  V30 4156 C 386.617 2.0641 -3.79498 0
M  V30 4157 C 385.752 3.2993 -4.16317 0
M  V30 4158 C 384.791 2.98893 -5.34162 0
M  V30 4159 N 383.928 4.14857 -5.66426 0
M  V30 4160 H 388.768 0.609982 -2.9169 0
M  V30 4161 H 386.305 0.289573 -1.44222 0
M  V30 4162 H 388.263 3.0875 -2.80587 0
M  V30 4163 H 386.893 2.73039 -1.7219 0
M  V30 4164 H 385.945 1.21158 -3.6059 0
M  V30 4165 H 387.257 1.79513 -4.65378 0
M  V30 4166 H 386.411 4.1406 -4.4344 0
M  V30 4167 H 385.15 3.59938 -3.29083 0
M  V30 4168 H 384.155 2.13164 -5.06795 0
M  V30 4169 H 385.38 2.70165 -6.23047 0
M  V30 4170 H 383.326 4.44821 -4.82151 0
M  V30 4171 H 383.243 3.91374 -6.4681 0
M  V30 4172 H 384.511 4.99868 -5.98124 0
M  V30 4173 N 388.74 1.54641 0.303973 0
M  V30 4174 C 389.968 1.77768 1.05858 0
M  V30 4175 C 390.383 0.535722 1.8104 0
M  V30 4176 O 389.74 -0.494337 1.75677 0
M  V30 4177 C 389.791 2.9834 2.04146 0
M  V30 4178 O 389.512 4.17736 1.32015 0
M  V30 4179 C 391.013 3.33832 2.91669 0
M  V30 4180 H 388.233 0.592961 0.314067 0
M  V30 4181 H 390.777 2.01583 0.344149 0
M  V30 4182 H 388.932 2.76742 2.71096 0
M  V30 4183 H 389.346 4.85693 1.97998 0
M  V30 4184 H 390.82 4.21448 3.56491 0
M  V30 4185 H 391.297 2.51857 3.59812 0
M  V30 4186 H 391.903 3.57579 2.30254 0
M  V30 4187 N 390.218 -0.567019 1.47046 0
M  V30 4188 C 391.148 -1.68482 1.61667 0
M  V30 4189 C 392.129 -1.6358 0.466418 0
M  V30 4190 O 393.314 -1.81354 0.694574 0
M  V30 4191 C 390.444 -3.07124 1.62148 0
M  V30 4192 C 389.398 -3.26867 2.76301 0
M  V30 4193 C 388.724 -4.66196 2.61849 0
M  V30 4194 C 390.024 -3.13186 4.17986 0
M  V30 4195 H 391.718 -1.56502 2.5524 0
M  V30 4196 H 389.264 -0.751486 1.22836 0
M  V30 4197 H 391.217 -3.8516 1.70968 0
M  V30 4198 H 389.941 -3.2004 0.651287 0
M  V30 4199 H 388.6 -2.51237 2.66975 0
M  V30 4200 H 388.248 -4.75898 1.62879 0
M  V30 4201 H 387.948 -4.80356 3.38425 0
M  V30 4202 H 389.472 -5.46379 2.72584 0
M  V30 4203 H 390.886 -3.81049 4.2834 0
M  V30 4204 H 389.283 -3.3886 4.95272 0
M  V30 4205 H 390.353 -2.10057 4.3704 0
M  V30 4206 N 391.696 -1.35014 -0.812953 0
M  V30 4207 C 392.606 -1.2951 -1.95613 0
M  V30 4208 C 393.622 -0.20107 -1.72834 0
M  V30 4209 O 394.798 -0.42932 -1.96771 0
M  V30 4210 C 391.863 -1.06033 -3.30088 0
M  V30 4211 C 390.924 -2.24688 -3.65805 0
M  V30 4212 C 390.157 -2.02322 -4.93864 0
M  V30 4213 O 390.38 -0.986464 -5.61805 0
M  V30 4214 O 389.314 -2.89525 -5.27692 0
M  V30 4215 H 393.14 -2.25705 -2.03202 0
M  V30 4216 H 390.725 -1.15321 -0.949811 0
M  V30 4217 H 392.607 -0.94763 -4.10607 0
M  V30 4218 H 391.282 -0.128852 -3.23443 0
M  V30 4219 H 390.189 -2.41521 -2.85689 0
M  V30 4220 H 391.522 -3.16261 -3.77147 0
M  V30 4221 N 393.175 1.03435 -1.18907 0
M  V30 4222 C 394.421 1.7713 -0.99982 0
M  V30 4223 C 394.776 1.86695 0.465049 0
M  V30 4224 O 394.069 1.36866 1.34083 0
M  V30 4225 C 394.263 3.19792 -1.59586 0
M  V30 4226 C 394.092 3.24134 -3.11717 0
M  V30 4227 C 392.862 3.32398 -3.80578 0
M  V30 4228 C 395.06 3.11625 -4.09138 0
M  V30 4229 N 393.042 3.26055 -5.20155 0
M  V30 4230 C 394.413 3.12855 -5.35277 0
M  V30 4231 C 396.468 2.95713 -4.00572 0
M  V30 4232 C 395.171 2.99805 -6.53842 0
M  V30 4233 C 397.197 2.84011 -5.1874 0
M  V30 4234 C 396.559 2.8589 -6.43775 0
M  V30 4235 H 392.658 0.659683 -0.419931 0
M  V30 4236 H 395.242 1.2317 -1.50789 0
M  V30 4237 H 393.413 3.72085 -1.11389 0
M  V30 4238 H 395.145 3.81819 -1.3415 0
M  V30 4239 H 391.9 3.38392 -3.31342 0
M  V30 4240 H 392.324 3.26307 -5.93172 0
M  V30 4241 H 396.966 2.93086 -3.0473 0
M  V30 4242 H 394.684 3.01184 -7.49876 0
M  V30 4243 H 398.27 2.72744 -5.13909 0
M  V30 4244 H 397.15 2.76931 -7.33675 0
M  V30 4245 N 394.653 0.992116 1.22453 0
M  V30 4246 C 395.583 0.561677 2.26644 0
M  V30 4247 C 396.564 -0.411055 1.65059 0
M  V30 4248 O 397.749 -0.301861 1.9184 0
M  V30 4249 C 394.879 -0.125247 3.47074 0
M  V30 4250 C 393.833 0.765948 4.21091 0
M  V30 4251 C 393.159 -0.0538484 5.34673 0
M  V30 4252 C 394.459 2.06242 4.79856 0
M  V30 4253 H 396.153 1.43259 2.62902 0
M  V30 4254 H 393.699 0.690283 1.26377 0
M  V30 4255 H 395.652 -0.437764 4.1912 0
M  V30 4256 H 394.376 -1.03069 3.0991 0
M  V30 4257 H 393.035 1.0621 3.50878 0
M  V30 4258 H 392.683 -0.960188 4.9375 0
M  V30 4259 H 392.383 0.539415 5.85119 0
M  V30 4260 H 393.907 -0.360477 6.09535 0
M  V30 4261 H 395.321 1.8139 5.43848 0
M  V30 4262 H 393.718 2.60444 5.40638 0
M  V30 4263 H 394.788 2.74167 3.99951 0
M  V30 4264 N 396.131 -1.37776 0.765217 0
M  V30 4265 C 397.356 -2.04651 0.336537 0
M  V30 4266 C 397.781 -1.57337 -1.03086 0
M  V30 4267 O 397.139 -0.730621 -1.65927 0
M  V30 4268 C 397.187 -3.58577 0.381468 0
M  V30 4269 O 396.291 -4.07706 -0.62042 0
M  V30 4270 H 395.632 -0.64756 0.146838 0
M  V30 4271 H 398.162 -1.76221 1.03959 0
M  V30 4272 H 398.172 -4.07314 0.236448 0
M  V30 4273 H 396.847 -3.9237 1.37907 0
M  V30 4274 H 395.424 -3.70306 -0.439056 0
M  V30 4275 N 397.609 -0.515225 -1.4894 0
M  V30 4276 C 398.539 0.244628 -2.32215 0
M  V30 4277 C 399.52 0.949136 -1.41157 0
M  V30 4278 O 400.705 0.937783 -1.70057 0
M  V30 4279 C 397.835 1.30096 -3.22013 0
M  V30 4280 C 396.789 0.715486 -4.21977 0
M  V30 4281 C 396.115 1.87339 -5.00808 0
M  V30 4282 C 397.415 -0.302982 -5.2142 0
M  V30 4283 H 399.109 -0.450501 -2.95991 0
M  V30 4284 H 396.655 -0.218098 -1.42339 0
M  V30 4285 H 398.608 1.84037 -3.79089 0
M  V30 4286 H 397.332 2.02547 -2.56207 0
M  V30 4287 H 395.991 0.197715 -3.66066 0
M  V30 4288 H 395.639 2.58592 -4.31438 0
M  V30 4289 H 395.339 1.48764 -5.68457 0
M  V30 4290 H 396.863 2.41686 -5.60732 0
M  V30 4291 H 398.277 0.148802 -5.73107 0
M  V30 4292 H 396.674 -0.60532 -5.97039 0
M  V30 4293 H 397.744 -1.21395 -4.69459 0
M  V30 4294 N 399.087 1.5561 -0.249682 0
M  V30 4295 C 400.034 2.21496 0.648694 0
M  V30 4296 C 401.004 1.17977 1.16921 0
M  V30 4297 O 402.189 1.46434 1.22318 0
M  V30 4298 C 399.329 2.92039 1.83868 0
M  V30 4299 C 398.442 4.10219 1.35442 0
M  V30 4300 C 397.577 4.6847 2.50419 0
M  V30 4301 C 396.616 5.78893 1.98869 0
M  V30 4302 N 395.753 6.31315 3.07223 0
M  V30 4303 H 400.593 2.97892 0.0801582 0
M  V30 4304 H 398.13 1.47074 0.0278031 0
M  V30 4305 H 400.088 3.31138 2.53778 0
M  V30 4306 H 398.718 2.18111 2.37965 0
M  V30 4307 H 397.77 3.76413 0.54928 0
M  V30 4308 H 399.082 4.89927 0.936649 0
M  V30 4309 H 398.236 5.10158 3.28366 0
M  V30 4310 H 396.975 3.87984 2.95499 0
M  V30 4311 H 395.98 5.3668 1.19393 0
M  V30 4312 H 397.205 6.61232 1.54755 0
M  V30 4313 H 395.151 5.53733 3.51732 0
M  V30 4314 H 395.068 7.06224 2.69784 0
M  V30 4315 H 396.336 6.77662 3.8522 0
M  V30 4316 N 400.565 -0.0233959 1.57583 0
M  V30 4317 C 401.793 -0.724682 1.93794 0
M  V30 4318 C 402.208 -1.68588 0.849912 0
M  V30 4319 O 401.565 -1.81676 -0.173204 0
M  V30 4320 C 401.616 -1.47684 3.29957 0
M  V30 4321 O 401.337 -0.554222 4.3458 0
M  V30 4322 C 402.838 -2.27477 3.80485 0
M  V30 4323 H 400.058 -0.203317 0.639455 0
M  V30 4324 H 402.602 0.0207653 2.04489 0
M  V30 4325 H 400.757 -2.17412 3.20641 0
M  V30 4326 H 401.171 -1.08232 5.13212 0
M  V30 4327 H 402.645 -2.7564 4.78254 0
M  V30 4328 H 403.122 -3.09144 3.11972 0
M  V30 4329 H 403.728 -1.62813 3.92902 0
M  V30 4330 N 402.043 -1.548 -0.295768 0
M  V30 4331 C 403.273 -1.78069 -1.04762 0
M  V30 4332 C 403.681 -0.542847 -1.81245 0
M  V30 4333 O 403.024 0.497051 -1.76848 0
M  V30 4334 C 403.086 -2.93881 -2.07061 0
M  V30 4335 C 402.75 -4.31777 -1.49725 0
M  V30 4336 C 403.747 -5.11613 -0.924581 0
M  V30 4337 C 401.432 -4.78389 -1.5313 0
M  V30 4338 C 403.426 -6.36184 -0.393594 0
M  V30 4339 C 401.113 -6.02921 -0.996447 0
M  V30 4340 C 402.111 -6.81654 -0.428569 0
M  V30 4341 O 401.799 -8.0384 0.0981593 0
M  V30 4342 H 401.531 -0.597475 -0.316226 0
M  V30 4343 H 404.085 -2.02584 -0.338973 0
M  V30 4344 H 402.315 -2.65003 -2.81621 0
M  V30 4345 H 404.004 -3.04679 -2.6819 0
M  V30 4346 H 404.77 -4.76743 -0.891136 0
M  V30 4347 H 400.649 -4.17132 -1.9627 0
M  V30 4348 H 404.193 -6.97582 0.0503014 0
M  V30 4349 H 400.09 -6.37277 -1.02706 0
M  V30 4350 H 400.858 -8.18499 -0.0146455 0
M  V30 4351 N 403.521 0.559213 -1.47345 0
M  V30 4352 C 404.468 1.66645 -1.59682 0
M  V30 4353 C 405.438 1.60168 -0.43994 0
M  V30 4354 O 406.623 1.79031 -0.659736 0
M  V30 4355 C 403.763 3.04969 -1.61518 0
M  V30 4356 C 402.876 3.21897 -2.88108 0
M  V30 4357 C 402.011 4.50608 -2.81294 0
M  V30 4358 C 401.05 4.60961 -4.02717 0
M  V30 4359 N 400.187 5.81024 -3.94151 0
M  V30 4360 H 405.027 1.55439 -2.54249 0
M  V30 4361 H 402.564 0.757219 -1.26113 0
M  V30 4362 H 404.522 3.85064 -1.60566 0
M  V30 4363 H 403.152 3.15015 -0.704645 0
M  V30 4364 H 402.204 2.35248 -2.98936 0
M  V30 4365 H 403.516 3.25412 -3.78032 0
M  V30 4366 H 402.67 5.3896 -2.7858 0
M  V30 4367 H 401.409 4.49568 -1.89049 0
M  V30 4368 H 400.414 3.71021 -4.05738 0
M  V30 4369 H 401.639 4.63761 -4.96087 0
M  V30 4370 H 399.585 5.80938 -3.04708 0
M  V30 4371 H 399.502 5.85909 -4.77752 0
M  V30 4372 H 400.77 6.71744 -3.9545 0
M  V30 4373 N 404.999 1.35443 0.805782 0
M  V30 4374 C 406.245 1.2996 1.56467 0
M  V30 4375 C 406.6 -0.124742 1.91995 0
M  V30 4376 O 405.893 -1.07533 1.58579 0
M  V30 4377 C 406.087 2.14045 2.86216 0
M  V30 4378 C 405.916 3.64512 2.63365 0
M  V30 4379 C 404.686 4.33744 2.59219 0
M  V30 4380 C 406.884 4.58142 2.33688 0
M  V30 4381 N 404.866 5.69953 2.28094 0
M  V30 4382 C 406.237 5.8248 2.12408 0
M  V30 4383 C 408.292 4.46877 2.19558 0
M  V30 4384 C 406.995 6.96818 1.78429 0
M  V30 4385 C 409.021 5.61065 1.86976 0
M  V30 4386 C 408.383 6.84431 1.66532 0
M  V30 4387 H 404.482 0.530817 0.574245 0
M  V30 4388 H 407.066 1.70333 0.943126 0
M  V30 4389 H 405.237 1.75942 3.46264 0
M  V30 4390 H 406.969 2.00075 3.51784 0
M  V30 4391 H 403.724 3.86365 2.73896 0
M  V30 4392 H 404.148 6.41845 2.15323 0
M  V30 4393 H 408.79 3.52102 2.34061 0
M  V30 4394 H 406.508 7.91559 1.62664 0
M  V30 4395 H 410.094 5.54302 1.7675 0
M  V30 4396 H 408.974 7.71294 1.41688 0
M  V30 4397 N 406.477 -1.02803 1.19454 0
M  V30 4398 C 407.409 -2.11181 0.890807 0
M  V30 4399 C 408.422 -1.6238 -0.116829 0
M  V30 4400 O 409.611 -1.78144 0.112694 0
M  V30 4401 C 406.711 -3.37461 0.311942 0
M  V30 4402 C 405.884 -4.15446 1.36834 0
M  V30 4403 C 404.943 -5.20039 0.802864 0
M  V30 4404 O 403.969 -5.49602 1.48077 0
M  V30 4405 N 405.171 -5.79165 -0.393417 0
M  V30 4406 H 407.936 -2.37827 1.82369 0
M  V30 4407 H 405.497 -1.19101 1.09666 0
M  V30 4408 H 407.489 -4.0462 -0.0802225 0
M  V30 4409 H 406.059 -3.08156 -0.52524 0
M  V30 4410 H 405.279 -3.43423 1.93531 0
M  V30 4411 H 406.567 -4.64335 2.08015 0
M  V30 4412 H 405.965 -5.57466 -0.961658 0
M  V30 4413 H 404.522 -6.47729 -0.727351 0
M  V30 4414 N 407.956 -0.998596 -1.21925 0
M  V30 4415 C 409.204 -0.676325 -1.90448 0
M  V30 4416 C 409.525 0.794719 -1.78071 0
M  V30 4417 O 408.795 1.5701 -1.17152 0
M  V30 4418 H 407.375 -0.247165 -0.704925 0
M  V30 4419 H 410.037 -1.26633 -1.48156 0
M  V30 4420 H 409.133 -0.943858 -2.97486 0
M  V30 4421 N 409.434 1.37368 -0.772513 0
M  V30 4422 C 410.364 2.32856 -0.173304 0
M  V30 4423 C 411.345 1.55818 0.682262 0
M  V30 4424 O 412.53 1.84052 0.619566 0
M  V30 4425 C 409.66 3.40048 0.706007 0
M  V30 4426 C 408.614 4.27973 -0.0483144 0
M  V30 4427 C 407.94 5.26184 0.950491 0
M  V30 4428 C 409.24 5.07665 -1.22776 0
M  V30 4429 H 410.934 2.83217 -0.971002 0
M  V30 4430 H 408.48 1.3617 -0.468377 0
M  V30 4431 H 410.433 4.05827 1.13501 0
M  V30 4432 H 409.157 2.88214 1.53623 0
M  V30 4433 H 407.816 3.63726 -0.458107 0
M  V30 4434 H 407.464 4.7063 1.77529 0
M  V30 4435 H 407.164 5.85872 0.450314 0
M  V30 4436 H 408.688 5.94838 1.37842 0
M  V30 4437 H 410.102 5.66578 -0.875366 0
M  V30 4438 H 408.499 5.76681 -1.66007 0
M  V30 4439 H 409.569 4.40294 -2.03149 0
M  V30 4440 N 410.912 0.523116 1.48665 0
M  V30 4441 C 412.158 -0.00540031 2.03399 0
M  V30 4442 C 412.513 -1.3264 1.39372 0
M  V30 4443 O 411.806 -1.84184 0.527916 0
M  V30 4444 C 412 -0.191671 3.56886 0
M  V30 4445 C 411.829 1.10972 4.35793 0
M  V30 4446 C 410.599 1.66769 4.76987 0
M  V30 4447 C 412.797 2.01861 4.73029 0
M  V30 4448 N 410.779 2.91268 5.40404 0
M  V30 4449 C 412.15 3.10937 5.36394 0
M  V30 4450 C 414.205 2.02271 4.54962 0
M  V30 4451 C 412.908 4.20478 5.83601 0
M  V30 4452 C 414.934 3.10802 5.03146 0
M  V30 4453 C 414.296 4.18597 5.6653 0
M  V30 4454 H 410.395 0.0393531 0.781009 0
M  V30 4455 H 412.979 0.702876 1.8157 0
M  V30 4456 H 411.15 -0.869025 3.78553 0
M  V30 4457 H 412.882 -0.719177 3.98259 0
M  V30 4458 H 409.637 1.20996 4.57883 0
M  V30 4459 H 410.061 3.54635 5.76683 0
M  V30 4460 H 414.703 1.2023 4.05345 0
M  V30 4461 H 412.421 5.03303 6.32228 0
M  V30 4462 H 416.007 3.12166 4.90962 0
M  V30 4463 H 414.887 5.01193 6.03138 0
M  V30 4464 N 412.39 -1.55475 0.257931 0
M  V30 4465 C 413.338 -2.23244 -0.653076 0
M  V30 4466 C 414.332 -1.22366 -1.17144 0
M  V30 4467 O 415.538 -1.40347 -1.12706 0
M  V30 4468 H 411.913 -0.716247 -0.229117 0
M  V30 4469 H 413.884 -2.98343 -0.0584788 0
M  V30 4470 C 412.633 -2.95401 -1.83395 0
M  V30 4471 H 411.956 -3.72802 -1.44424 0
M  V30 4472 H 413.396 -3.46165 -2.44838 0
M  V30 4473 C 411.855 -1.99895 -2.71189 0
M  V30 4474 O 412.385 -1.53909 -3.71046 0
M  V30 4475 N 410.591 -1.6676 -2.3799 0
M  V30 4476 H 410.138 -2.04352 -1.56837 0
M  V30 4477 H 410.096 -1.03127 -2.97005 0
M  V30 4478 N 413.868 0.0150385 -1.57593 0
M  V30 4479 C 415.117 0.702115 -1.89085 0
M  V30 4480 C 415.43 1.75764 -0.858277 0
M  V30 4481 O 416.636 2.49829 -1.0629 0
M  V30 4482 C 415.092 1.29992 -3.35604 0
M  V30 4483 C 414.7 0.280007 -4.47124 0
M  V30 4484 C 416.444 1.96606 -3.76227 0
M  V30 4485 C 414.351 0.886949 -5.84711 0
M  V30 4486 H 413.281 0.265997 -0.705522 0
M  V30 4487 H 415.932 -0.0430408 -1.8345 0
M  V30 4488 H 414.314 2.09525 -3.36029 0
M  V30 4489 H 415.488 -0.489631 -4.58191 0
M  V30 4490 H 413.803 -0.284835 -4.15425 0
M  V30 4491 H 416.4 2.42893 -4.76347 0
M  V30 4492 H 416.743 2.79024 -3.08952 0
M  V30 4493 H 417.276 1.23828 -3.78036 0
M  V30 4494 H 414.015 0.101876 -6.55421 0
M  V30 4495 H 413.535 1.6261 -5.77337 0
M  V30 4496 H 415.214 1.39011 -6.3189 0
M  V30 4497 N 415.346 1.54954 0.287554 0
M  V30 4498 C 416.757 1.65732 0.859634 0
M  V30 4499 C 417.108 0.574767 1.87592 0
M  V30 4500 O 416.233 -0.286299 2.14498 0
M  V30 4501 C 416.828 3.00438 1.56597 0
M  V30 4502 C 415.387 3.13292 2.08627 0
M  V30 4503 C 414.534 2.61473 0.923416 0
M  V30 4504 H 417.485 1.5857 0.0642338 0
M  V30 4505 H 417.506 2.92613 2.43224 0
M  V30 4506 H 417.018 3.79207 0.826053 0
M  V30 4507 H 415.119 2.39268 2.85625 0
M  V30 4508 H 415.232 4.19647 2.31157 0
M  V30 4509 H 413.596 2.18264 1.31275 0
M  V30 4510 H 414.379 3.42733 0.197241 0
M  V30 4511 N 416.824 -0.551391 1.4764 0
M  V30 4512 C 418.052 -1.33357 1.58189 0
M  V30 4513 C 418.467 -1.87342 0.234199 0
M  V30 4514 O 417.824 -1.65301 -0.77343 0
M  V30 4515 C 417.875 -2.49942 2.61173 0
M  V30 4516 O 417.596 -1.98187 3.90709 0
M  V30 4517 C 419.097 -3.42072 2.8196 0
M  V30 4518 H 416.317 -0.40631 0.533998 0
M  V30 4519 H 418.861 -0.667367 1.93304 0
M  V30 4520 H 417.016 -3.12489 2.28975 0
M  V30 4521 H 417.43 -2.74342 4.47031 0
M  V30 4522 H 418.904 -4.20278 3.57869 0
M  V30 4523 H 419.381 -3.95978 1.89995 0
M  V30 4524 H 419.987 -2.85336 3.15378 0
M  V30 4525 N 418.302 -1.35869 -0.798587 0
M  V30 4526 C 419.532 -1.32529 -1.58491 0
M  V30 4527 C 419.94 0.0975405 -1.88948 0
M  V30 4528 O 419.283 1.06224 -1.49874 0
M  V30 4529 C 419.345 -2.07247 -2.9375 0
M  V30 4530 C 419.009 -3.56391 -2.86068 0
M  V30 4531 C 420.006 -4.50824 -2.58947 0
M  V30 4532 C 417.691 -3.9915 -3.04933 0
M  V30 4533 C 419.685 -5.85993 -2.5078 0
M  V30 4534 C 417.372 -5.34413 -2.96389 0
M  V30 4535 C 418.37 -6.27646 -2.69349 0
M  V30 4536 O 418.058 -7.60426 -2.60782 0
M  V30 4537 H 417.79 -0.456529 -0.498556 0
M  V30 4538 H 420.344 -1.79425 -0.999799 0
M  V30 4539 H 418.574 -1.55001 -3.54276 0
M  V30 4540 H 420.263 -1.96883 -3.54954 0
M  V30 4541 H 421.029 -4.19104 -2.44084 0
M  V30 4542 H 416.908 -3.26961 -3.24989 0
M  V30 4543 H 420.452 -6.58735 -2.29595 0
M  V30 4544 H 416.349 -5.65743 -3.10813 0
M  V30 4545 H 417.117 -7.70444 -2.76331 0
M  V30 4546 N 419.78 1.02168 -1.19998 0
M  V30 4547 C 420.727 2.10601 -0.944228 0
M  V30 4548 C 421.697 1.65639 0.123664 0
M  V30 4549 O 422.882 1.9079 -0.0199941 0
M  V30 4550 C 420.022 3.41504 -0.496865 0
M  V30 4551 C 419.135 3.99973 -1.63234 0
M  V30 4552 C 418.27 5.18915 -1.13579 0
M  V30 4553 C 417.309 5.69456 -2.24468 0
M  V30 4554 N 416.446 6.79665 -1.76068 0
M  V30 4555 H 421.286 2.31814 -1.8726 0
M  V30 4556 H 418.823 1.13686 -0.933483 0
M  V30 4557 H 420.781 4.16626 -0.218843 0
M  V30 4558 H 419.411 3.2038 0.394508 0
M  V30 4559 H 418.463 3.21997 -2.0254 0
M  V30 4560 H 419.775 4.33492 -2.46752 0
M  V30 4561 H 418.929 6.01222 -0.813429 0
M  V30 4562 H 417.668 4.8695 -0.270434 0
M  V30 4563 H 416.673 4.85757 -2.57526 0
M  V30 4564 H 417.898 6.03459 -3.11472 0
M  V30 4565 H 415.844 6.49538 -0.918516 0
M  V30 4566 H 415.761 7.12349 -2.5317 0
M  V30 4567 H 417.029 7.65549 -1.46817 0
M  V30 4568 N 421.258 1.00505 1.21394 0
M  V30 4569 C 422.506 0.686415 1.90086 0
M  V30 4570 C 422.827 -0.785264 1.7849 0
M  V30 4571 O 422.097 -1.56387 1.17983 0
M  V30 4572 H 420.677 0.2509 0.703604 0
M  V30 4573 H 423.339 1.27417 1.47482 0
M  V30 4574 H 422.435 0.959621 2.96981 0
M  V30 4575 N 422.737 -1.36956 0.779787 0
M  V30 4576 C 423.684 -2.30175 0.169697 0
M  V30 4577 C 424.654 -1.51501 -0.68094 0
M  V30 4578 O 425.839 -1.80042 -0.631629 0
M  V30 4579 C 422.979 -3.37985 -0.697131 0
M  V30 4580 C 422.092 -4.31661 0.170992 0
M  V30 4581 C 421.227 -5.2655 -0.701298 0
M  V30 4582 C 420.266 -6.11867 0.168869 0
M  V30 4583 N 419.403 -6.98973 -0.661855 0
M  V30 4584 H 424.243 -2.81767 0.970135 0
M  V30 4585 H 421.78 -1.38699 0.489994 0
M  V30 4586 H 423.738 -3.99128 -1.2146 0
M  V30 4587 H 422.368 -2.87739 -1.46309 0
M  V30 4588 H 421.42 -3.71756 0.80634 0
M  V30 4589 H 422.732 -4.91644 0.841875 0
M  V30 4590 H 421.886 -5.92937 -1.28494 0
M  V30 4591 H 420.625 -4.66998 -1.40584 0
M  V30 4592 H 419.63 -5.44452 0.764986 0
M  V30 4593 H 420.855 -6.73493 0.870863 0
M  V30 4594 H 418.801 -6.41941 -1.35086 0
M  V30 4595 H 418.718 -7.55984 -0.0484447 0
M  V30 4596 H 419.986 -7.6974 -1.22963 0
M  V30 4597 N 424.215 -0.530993 -1.48385 0
M  V30 4598 C 425.148 0.278511 -2.26494 0
M  V30 4599 C 426.126 0.943905 -1.32398 0
M  V30 4600 O 427.31 0.968098 -1.61741 0
M  V30 4601 C 424.437 1.39453 -3.08659 0
M  V30 4602 C 423.483 0.840434 -4.18137 0
M  V30 4603 S 424.316 -0.292496 -5.34701 0
M  V30 4604 C 425.472 0.825973 -6.20426 0
M  V30 4605 H 425.705 -0.384365 -2.94805 0
M  V30 4606 H 423.238 -0.316799 -1.51115 0
M  V30 4607 H 425.196 2.03382 -3.56575 0
M  V30 4608 H 423.857 2.02913 -2.3976 0
M  V30 4609 H 423.05 1.67769 -4.75257 0
M  V30 4610 H 422.652 0.277819 -3.72967 0
M  V30 4611 H 424.944 1.72438 -6.55188 0
M  V30 4612 H 425.887 0.292728 -7.07495 0
M  V30 4613 H 426.295 1.10683 -5.53543 0
M  V30 4614 N 425.693 1.55336 -0.266172 0
M  V30 4615 C 426.64 2.22172 0.625165 0
M  V30 4616 C 427.61 1.19211 1.15663 0
M  V30 4617 O 428.795 1.47723 1.20758 0
M  V30 4618 C 425.935 2.93972 1.8076 0
M  V30 4619 C 425.048 4.11632 1.31084 0
M  V30 4620 C 424.183 4.71099 2.45436 0
M  V30 4621 C 423.222 5.8097 1.92718 0
M  V30 4622 N 422.359 6.34538 3.00509 0
M  V30 4623 H 427.199 2.9796 0.0485582 0
M  V30 4624 H 424.736 1.47095 0.0122024 0
M  V30 4625 H 426.694 3.33811 2.50251 0
M  V30 4626 H 425.324 2.20623 2.35638 0
M  V30 4627 H 424.376 3.76975 0.509326 0
M  V30 4628 H 425.688 4.90893 0.884633 0
M  V30 4629 H 424.842 5.13612 3.22936 0
M  V30 4630 H 423.581 3.91096 2.91368 0
M  V30 4631 H 422.586 5.37916 1.13695 0
M  V30 4632 H 423.811 6.62836 1.47733 0
M  V30 4633 H 421.757 5.57433 3.45839 0
M  V30 4634 H 421.674 7.09046 2.62279 0
M  V30 4635 H 422.942 6.81709 3.78011 0
M  V30 4636 N 427.171 -0.0066808 1.57599 0
M  V30 4637 C 428.587 -0.36267 1.55425 0
M  V30 4638 C 428.787 -1.75209 0.995187 0
M  V30 4639 O 427.843 -2.44616 0.626058 0
M  V30 4640 C 429.156 -0.244017 2.99708 0
M  V30 4641 C 430.704 -0.319451 3.11366 0
M  V30 4642 C 431.179 -0.229998 4.57422 0
M  V30 4643 N 432.67 -0.288105 4.62303 0
M  V30 4644 C 433.405 -0.242127 5.72889 0
M  V30 4645 N 432.901 -0.147133 6.92644 0
M  V30 4646 N 434.694 -0.293502 5.61333 0
M  V30 4647 H 426.845 0.902314 1.92281 0
M  V30 4648 H 429.108 0.34525 0.882896 0
M  V30 4649 H 428.814 0.711678 3.44424 0
M  V30 4650 H 428.688 -1.02877 3.629 0
M  V30 4651 H 431.075 -1.26559 2.66584 0
M  V30 4652 H 431.156 0.495055 2.50964 0
M  V30 4653 H 430.8 0.712566 5.02877 0
M  V30 4654 H 430.73 -1.0629 5.15761 0
M  V30 4655 H 433.221 -0.363126 3.76151 0
M  V30 4656 H 433.534 -0.117763 7.7271 0
M  V30 4657 H 431.879 -0.112857 6.94908 0
M  V30 4658 H 435.07 -0.365864 4.66668 0
M  V30 4659 H 435.243 -0.254204 6.47501 0
M  V30 4660 N 428.649 -1.55105 -0.279332 0
M  V30 4661 C 429.898 -1.74618 -1.00952 0
M  V30 4662 C 430.211 -0.551096 -1.87676 0
M  V30 4663 O 431.417 -0.628507 -2.64125 0
M  V30 4664 C 429.873 -3.09025 -1.84476 0
M  V30 4665 C 429.481 -4.36081 -1.0265 0
M  V30 4666 C 431.225 -3.37891 -2.56963 0
M  V30 4667 C 429.132 -5.6153 -1.85576 0
M  V30 4668 H 428.062 -0.650868 -0.38064 0
M  V30 4669 H 430.713 -1.81569 -0.265475 0
M  V30 4670 H 429.095 -2.96095 -2.62952 0
M  V30 4671 H 430.269 -4.59909 -0.286354 0
M  V30 4672 H 428.584 -4.14312 -0.416464 0
M  V30 4673 H 431.181 -4.28822 -3.19399 0
M  V30 4674 H 431.524 -2.57737 -3.26921 0
M  V30 4675 H 432.057 -3.5189 -1.85522 0
M  V30 4676 H 428.796 -6.44413 -1.2005 0
M  V30 4677 H 428.316 -5.41854 -2.57204 0
M  V30 4678 H 429.995 -5.99594 -2.43096 0
M  V30 4679 N 430.127 0.543554 -1.4793 0
M  V30 4680 C 431.09 1.63156 -1.60975 0
M  V30 4681 C 432.09 1.53346 -0.483899 0
M  V30 4682 O 433.28 1.5726 -0.749339 0
M  V30 4683 C 430.412 3.02743 -1.56716 0
M  V30 4684 H 431.605 1.52934 -2.57975 0
M  V30 4685 H 429.158 0.764557 -1.36324 0
M  V30 4686 H 429.893 3.18484 -0.611418 0
M  V30 4687 H 429.678 3.11272 -2.38438 0
M  V30 4688 H 431.168 3.81871 -1.6901 0
M  V30 4689 N 431.605 1.3629 0.791371 0
M  V30 4690 C 432.852 1.30412 1.54916 0
M  V30 4691 C 433.18 -0.117162 1.94147 0
M  V30 4692 O 432.435 -1.08599 1.62803 0
M  V30 4693 C 432.734 2.17068 2.8393 0
M  V30 4694 C 432.4 3.65645 2.63846 0
M  V30 4695 C 431.062 4.0614 2.58077 0
M  V30 4696 C 433.414 4.59855 2.45322 0
M  V30 4697 C 430.742 5.3899 2.31748 0
M  V30 4698 C 433.094 5.9292 2.2052 0
M  V30 4699 C 431.758 6.32542 2.13183 0
M  V30 4700 H 431.028 0.47721 0.566879 0
M  V30 4701 H 433.675 1.68325 0.913172 0
M  V30 4702 H 431.98 1.72085 3.51986 0
M  V30 4703 H 433.677 2.09846 3.4171 0
M  V30 4704 H 430.267 3.33518 2.69191 0
M  V30 4705 H 434.451 4.29443 2.48782 0
M  V30 4706 H 429.707 5.68672 2.24548 0
M  V30 4707 H 433.881 6.65487 2.05182 0
M  V30 4708 H 431.508 7.35412 1.92544 0
M  V30 4709 N 433.083 -1.0153 1.20538 0
M  V30 4710 C 434.015 -2.10224 0.913155 0
M  V30 4711 C 435.028 -1.62495 -0.0995998 0
M  V30 4712 O 436.217 -1.78014 0.131582 0
M  V30 4713 C 433.317 -3.37111 0.347717 0
M  V30 4714 C 432.49 -4.13971 1.41233 0
M  V30 4715 C 431.549 -5.19158 0.857976 0
M  V30 4716 O 430.575 -5.48 1.53897 0
M  V30 4717 N 431.777 -5.7955 -0.331966 0
M  V30 4718 H 434.542 -2.35879 1.84881 0
M  V30 4719 H 432.103 -1.17931 1.10923 0
M  V30 4720 H 434.095 -4.04683 -0.0373026 0
M  V30 4721 H 432.665 -3.08696 -0.492527 0
M  V30 4722 H 431.885 -3.41351 1.97163 0
M  V30 4723 H 433.173 -4.62103 2.12928 0
M  V30 4724 H 432.571 -5.58455 -0.902478 0
M  V30 4725 H 431.128 -6.48464 -0.65861 0
M  V30 4726 N 434.561 -1.01147 -1.20859 0
M  V30 4727 C 435.808 -0.697865 -1.90095 0
M  V30 4728 C 436.136 0.772014 -1.78522 0
M  V30 4729 O 435.391 1.57595 -1.16027 0
M  V30 4730 C 435.69 -1.0727 -3.40922 0
M  V30 4731 C 435.356 -2.53792 -3.72693 0
M  V30 4732 C 434.018 -2.93829 -3.81075 0
M  V30 4733 C 436.37 -3.48674 -3.87397 0
M  V30 4734 C 433.698 -4.27696 -4.01613 0
M  V30 4735 C 436.05 -4.82223 -4.09444 0
M  V30 4736 C 434.714 -5.21973 -4.16054 0
M  V30 4737 H 433.984 -0.255367 -0.695607 0
M  V30 4738 H 436.631 -1.27111 -1.43231 0
M  V30 4739 H 434.936 -0.417799 -3.89566 0
M  V30 4740 H 436.633 -0.807818 -3.92779 0
M  V30 4741 H 433.223 -2.21768 -3.66765 0
M  V30 4742 H 437.407 -3.18904 -3.80281 0
M  V30 4743 H 432.663 -4.58055 -4.04964 0
M  V30 4744 H 436.837 -5.55672 -4.19763 0
M  V30 4745 H 434.464 -6.25717 -4.31721 0
M  V30 4746 N 436.039 1.36541 -0.78704 0
M  V30 4747 C 437.267 2.03561 -0.370199 0
M  V30 4748 C 437.682 1.59347 1.01263 0
M  V30 4749 O 437.039 0.781781 1.64907 0
M  V30 4750 C 437.09 3.59033 -0.421614 0
M  V30 4751 O 436.811 4.01634 -1.7499 0
M  V30 4752 C 438.312 4.433 0.00489763 0
M  V30 4753 H 435.532 0.653346 -0.152904 0
M  V30 4754 H 438.076 1.74566 -1.06522 0
M  V30 4755 H 436.231 3.86746 0.224971 0
M  V30 4756 H 436.645 4.96217 -1.69909 0
M  V30 4757 H 438.119 5.51939 -0.0822184 0
M  V30 4758 H 438.596 4.26285 1.05723 0
M  V30 4759 H 439.202 4.20843 -0.614085 0
M  V30 4760 N 437.518 0.538854 1.48102 0
M  V30 4761 C 438.929 0.100679 1.86428 0
M  V30 4762 C 439.28 -1.32447 1.44749 0
M  V30 4763 O 438.405 -1.99339 0.842199 0
M  V30 4764 C 439 0.175933 3.38343 0
M  V30 4765 C 437.559 -0.207098 3.7583 0
M  V30 4766 C 436.706 0.531741 2.72154 0
M  V30 4767 H 439.657 0.749614 1.3988 0
M  V30 4768 H 439.678 -0.610144 3.75576 0
M  V30 4769 H 439.19 1.21328 3.68648 0
M  V30 4770 H 437.291 -1.24626 3.5114 0
M  V30 4771 H 437.404 0.138687 4.78899 0
M  V30 4772 H 435.768 -0.0230462 2.5469 0
M  V30 4773 H 436.551 1.56989 3.05302 0
M  V30 4774 N 438.996 -1.55193 0.274407 0
M  V30 4775 C 440.226 -2.03692 -0.345442 0
M  V30 4776 C 440.634 -1.15224 -1.50067 0
M  V30 4777 O 439.977 -0.164749 -1.8296 0
M  V30 4778 C 440.039 -3.48325 -0.88939 0
M  V30 4779 C 439.703 -4.56794 0.137115 0
M  V30 4780 C 440.7 -5.11028 0.956378 0
M  V30 4781 C 438.385 -5.01568 0.27115 0
M  V30 4782 C 440.379 -6.08552 1.89587 0
M  V30 4783 C 438.066 -5.98918 1.21412 0
M  V30 4784 C 439.064 -6.52291 2.02498 0
M  V30 4785 O 438.752 -7.47738 2.952 0
M  V30 4786 H 438.484 -0.670893 -0.0829332 0
M  V30 4787 H 441.038 -2.01387 0.404056 0
M  V30 4788 H 439.268 -3.47867 -1.68895 0
M  V30 4789 H 440.957 -3.80167 -1.42225 0
M  V30 4790 H 441.723 -4.7725 0.863559 0
M  V30 4791 H 437.602 -4.5967 -0.349987 0
M  V30 4792 H 441.146 -6.50137 2.52918 0
M  V30 4793 H 437.043 -6.32114 1.30776 0
M  V30 4794 H 437.811 -7.65451 2.89874 0
M  V30 4795 N 440.474 -0.00167713 -1.576 0
M  V30 4796 C 441.699 0.69739 -1.95323 0
M  V30 4797 C 442.124 1.6642 -0.876706 0
M  V30 4798 O 441.482 1.80548 0.165007 0
M  V30 4799 C 441.53 1.40403 -3.32144 0
M  V30 4800 O 440.634 2.5185 -3.26566 0
M  V30 4801 H 439.975 0.185373 -0.637599 0
M  V30 4802 H 442.505 -0.0553665 -2.04525 0
M  V30 4803 H 442.515 1.76707 -3.67748 0
M  V30 4804 H 441.19 0.695167 -4.10049 0
M  V30 4805 H 439.767 2.17861 -3.0264 0
M  V30 4806 N 441.952 1.55251 0.271103 0
M  V30 4807 C 443.198 1.7713 0.999832 0
M  V30 4808 C 443.553 0.56659 1.83868 0
M  V30 4809 O 442.846 -0.44069 1.86463 0
M  V30 4810 C 443.04 3.01879 1.91321 0
M  V30 4811 C 442.869 4.34368 1.16426 0
M  V30 4812 C 441.639 4.97593 0.879169 0
M  V30 4813 C 443.837 5.1131 0.553749 0
M  V30 4814 N 441.819 6.13813 0.103618 0
M  V30 4815 C 443.19 6.19938 -0.0875442 0
M  V30 4816 C 445.245 4.95754 0.461782 0
M  V30 4817 C 443.948 7.14703 -0.811942 0
M  V30 4818 C 445.974 5.90875 -0.249027 0
M  V30 4819 C 445.336 6.98893 -0.879051 0
M  V30 4820 H 441.435 0.700407 0.347784 0
M  V30 4821 H 444.019 1.92744 0.275314 0
M  V30 4822 H 442.19 2.87637 2.60997 0
M  V30 4823 H 443.922 3.12154 2.57569 0
M  V30 4824 H 440.677 4.58538 1.18491 0
M  V30 4825 H 441.101 6.76455 -0.271543 0
M  V30 4826 H 445.743 4.12342 0.934552 0
M  V30 4827 H 443.461 7.97634 -1.29639 0
M  V30 4828 H 447.047 5.80916 -0.320529 0
M  V30 4829 H 445.927 7.71231 -1.42031 0
M  V30 4830 N 443.43 -0.535701 1.48216 0
M  V30 4831 C 444.676 -1.29375 1.56173 0
M  V30 4832 C 445.009 -1.92804 0.232429 0
M  V30 4833 O 444.284 -1.78992 -0.761048 0
M  V30 4834 C 444.567 -2.38747 2.69577 0
M  V30 4835 C 444.42 -1.80046 4.12193 0
M  V30 4836 C 445.739 -3.40551 2.78771 0
M  V30 4837 H 442.858 -0.469027 0.568491 0
M  V30 4838 H 445.5 -0.597358 1.80365 0
M  V30 4839 H 443.65 -2.98147 2.4908 0
M  V30 4840 H 445.322 -1.24742 4.44114 0
M  V30 4841 H 443.565 -1.10609 4.19462 0
M  V30 4842 H 444.236 -2.59212 4.87353 0
M  V30 4843 H 446.712 -2.91099 2.97322 0
M  V30 4844 H 445.588 -4.1448 3.59857 0
M  V30 4845 H 445.849 -4.00746 1.86696 0
M  V30 4846 N 444.908 -1.36708 -0.784132 0
M  V30 4847 C 446.324 -1.17237 -1.08294 0
M  V30 4848 C 446.524 -5.93947e-05 -2.015 0
M  V30 4849 O 445.58 0.663686 -2.43622 0
M  V30 4850 C 446.893 -2.48557 -1.69233 0
M  V30 4851 C 448.441 -2.54968 -1.8155 0
M  V30 4852 C 448.916 -3.86388 -2.45904 0
M  V30 4853 N 450.407 -3.87762 -2.53367 0
M  V30 4854 C 451.142 -4.86191 -3.03983 0
M  V30 4855 N 450.638 -5.95015 -3.54866 0
M  V30 4856 N 452.431 -4.73606 -3.02743 0
M  V30 4857 H 444.582 -2.11758 -0.16501 0
M  V30 4858 H 446.845 -0.93822 -0.135822 0
M  V30 4859 H 446.551 -3.34638 -1.08215 0
M  V30 4860 H 446.425 -2.64748 -2.68679 0
M  V30 4861 H 448.812 -1.69302 -2.41704 0
M  V30 4862 H 448.893 -2.42672 -0.80895 0
M  V30 4863 H 448.537 -4.72462 -1.86392 0
M  V30 4864 H 448.467 -3.95982 -3.4714 0
M  V30 4865 H 450.958 -3.09145 -2.17343 0
M  V30 4866 H 451.271 -6.66086 -3.91854 0
M  V30 4867 H 449.616 -5.98676 -3.53003 0
M  V30 4868 H 452.807 -3.87717 -2.62284 0
M  V30 4869 H 452.98 -5.50473 -3.41881 0
M  V30 4870 N 446.386 1.0089 -1.21074 0
M  V30 4871 C 447.633 1.74607 -1.0256 0
M  V30 4872 C 447.961 1.89426 0.44136 0
M  V30 4873 O 447.216 1.42266 1.34384 0
M  V30 4874 C 447.515 3.16335 -1.66334 0
M  V30 4875 C 447.181 3.21474 -3.16173 0
M  V30 4876 C 445.843 3.22583 -3.57062 0
M  V30 4877 C 448.195 3.19025 -4.12156 0
M  V30 4878 C 445.523 3.18925 -4.92446 0
M  V30 4879 C 447.875 3.16909 -5.47496 0
M  V30 4880 C 446.539 3.16326 -5.87787 0
M  V30 4881 H 445.809 0.638933 -0.375294 0
M  V30 4882 H 448.456 1.18274 -1.50611 0
M  V30 4883 H 446.761 3.75876 -1.10566 0
M  V30 4884 H 448.458 3.72083 -1.49516 0
M  V30 4885 H 445.048 3.2135 -2.83605 0
M  V30 4886 H 449.232 3.17332 -3.81595 0
M  V30 4887 H 444.488 3.16809 -5.22917 0
M  V30 4888 H 448.662 3.13968 -6.21609 0
M  V30 4889 H 446.289 3.13246 -6.92662 0
M  V30 4890 N 447.864 1.01787 1.20321 0
M  V30 4891 C 448.774 0.598898 2.26827 0
M  V30 4892 C 449.79 -0.36418 1.70146 0
M  V30 4893 O 450.966 -0.224812 2.00141 0
M  V30 4894 C 448.031 -0.0549769 3.46656 0
M  V30 4895 C 447.092 0.954205 4.18561 0
M  V30 4896 C 446.325 0.331439 5.3267 0
M  V30 4897 O 446.548 -0.86851 5.63749 0
M  V30 4898 O 445.482 1.0488 5.92692 0
M  V30 4899 H 449.308 1.48562 2.64883 0
M  V30 4900 H 446.893 0.787434 1.26964 0
M  V30 4901 H 448.775 -0.420102 4.19301 0
M  V30 4902 H 447.45 -0.915876 3.10473 0
M  V30 4903 H 446.357 1.37072 3.48083 0
M  V30 4904 H 447.69 1.78511 4.58688 0
M  V30 4905 N 449.342 -1.36122 0.79427 0
M  V30 4906 C 450.588 -1.99846 0.378542 0
M  V30 4907 C 450.943 -1.61898 -1.03955 0
M  V30 4908 O 450.236 -0.866013 -1.70912 0
M  V30 4909 C 450.43 -3.5409 0.48527 0
M  V30 4910 C 450.259 -4.0702 1.91219 0
M  V30 4911 C 449.029 -4.36944 2.53787 0
M  V30 4912 C 451.227 -4.26435 2.87502 0
M  V30 4913 N 449.209 -4.75727 3.88017 0
M  V30 4914 C 450.58 -4.68077 4.06576 0
M  V30 4915 C 452.635 -4.08616 2.84495 0
M  V30 4916 C 451.338 -4.93765 5.23057 0
M  V30 4917 C 453.364 -4.35453 4.00169 0
M  V30 4918 C 452.726 -4.77355 5.17988 0
M  V30 4919 H 448.825 -0.759549 0.186034 0
M  V30 4920 H 451.409 -1.65043 1.0329 0
M  V30 4921 H 449.58 -3.88151 -0.139023 0
M  V30 4922 H 451.312 -4.04675 0.0453192 0
M  V30 4923 H 448.067 -4.26822 2.05231 0
M  V30 4924 H 448.491 -4.99396 4.57092 0
M  V30 4925 H 453.133 -3.75373 1.94564 0
M  V30 4926 H 450.851 -5.25887 6.1357 0
M  V30 4927 H 454.437 -4.2323 3.99208 0
M  V30 4928 H 453.317 -4.97718 6.06008 0
M  V30 4929 N 450.82 -0.546701 -1.47814 0
M  V30 4930 C 451.767 0.206854 -2.29871 0
M  V30 4931 C 452.737 0.918235 -1.38411 0
M  V30 4932 O 453.922 0.915991 -1.67375 0
M  V30 4933 C 451.062 1.23746 -3.22151 0
M  V30 4934 C 450.175 0.533216 -4.28697 0
M  V30 4935 C 449.31 1.5482 -5.08138 0
M  V30 4936 C 448.349 0.828347 -6.06469 0
M  V30 4937 N 447.486 1.78966 -6.78908 0
M  V30 4938 H 452.326 -0.499037 -2.93792 0
M  V30 4939 H 449.863 -0.25793 -1.44821 0
M  V30 4940 H 451.821 1.84746 -3.74065 0
M  V30 4941 H 450.451 1.91151 -2.60117 0
M  V30 4942 H 449.503 -0.191089 -3.7992 0
M  V30 4943 H 450.815 -0.0311987 -4.9879 0
M  V30 4944 H 449.969 2.23202 -5.6415 0
M  V30 4945 H 448.708 2.14652 -4.37922 0
M  V30 4946 H 447.713 0.130539 -5.49645 0
M  V30 4947 H 448.938 0.235907 -6.7869 0
M  V30 4948 H 446.884 2.37675 -6.1143 0
M  V30 4949 H 446.801 1.27712 -7.45135 0
M  V30 4950 H 448.069 2.46496 -7.395 0
M  V30 4951 N 452.299 1.55045 -0.282633 0
M  V30 4952 C 453.71 1.85473 0.213655 0
M  V30 4953 C 454.061 1.20465 1.54863 0
M  V30 4954 O 453.186 0.495676 2.10647 0
M  V30 4955 C 453.781 3.36496 0.394445 0
M  V30 4956 C 452.34 3.67022 0.834961 0
M  V30 4957 C 451.487 2.77218 -0.0674081 0
M  V30 4958 H 454.438 1.50478 -0.504202 0
M  V30 4959 H 454.459 3.60007 1.23186 0
M  V30 4960 H 453.971 3.83782 -0.577326 0
M  V30 4961 H 452.072 3.25241 1.81794 0
M  V30 4962 H 452.185 4.74433 0.667075 0
M  V30 4963 H 450.549 2.5069 0.450196 0
M  V30 4964 H 451.332 3.2732 -1.0352 0
M  V30 4965 N 453.777 0.010035 1.57597 0
M  V30 4966 C 454.74 -0.963029 2.07986 0
M  V30 4967 C 455.74 -1.26619 0.991173 0
M  V30 4968 O 456.93 -1.2097 1.25347 0
M  V30 4969 C 454.062 -2.2851 2.52974 0
M  V30 4970 H 455.255 -0.526971 2.95234 0
M  V30 4971 H 452.808 -0.237639 1.54483 0
M  V30 4972 H 453.543 -2.76784 1.69 0
M  V30 4973 H 453.328 -2.07824 3.32493 0
M  V30 4974 H 454.818 -2.98294 2.9225 0
M  V30 4975 N 455.255 -1.55392 -0.262866 0
M  V30 4976 C 456.48 -1.80847 -1.01533 0
M  V30 4977 C 456.905 -0.584946 -1.78774 0
M  V30 4978 O 456.263 0.465701 -1.75217 0
M  V30 4979 C 456.311 -3.03866 -1.94159 0
M  V30 4980 O 455.415 -2.79662 -3.03089 0
M  V30 4981 H 454.756 -0.597441 -0.289759 0
M  V30 4982 H 457.286 -2.02553 -0.288698 0
M  V30 4983 H 457.296 -3.32872 -2.35924 0
M  V30 4984 H 455.971 -3.92564 -1.37354 0
M  V30 4985 H 454.548 -2.61781 -2.65566 0
M  V30 4986 N 456.733 0.527833 -1.48498 0
M  V30 4987 C 457.958 1.313 -1.60546 0
M  V30 4988 C 458.383 1.86199 -0.26672 0
M  V30 4989 O 457.741 1.64513 0.761918 0
M  V30 4990 C 457.789 2.43818 -2.65678 0
M  V30 4991 O 456.893 3.46916 -2.22987 0
M  V30 4992 H 456.234 0.388784 -0.538277 0
M  V30 4993 H 458.764 0.634896 -1.945 0
M  V30 4994 H 458.774 2.89973 -2.87018 0
M  V30 4995 H 457.449 2.03222 -3.62869 0
M  V30 4996 H 456.026 3.06864 -2.11869 0
M  V30 4997 N 458.211 1.37122 0.776871 0
M  V30 4998 C 459.141 1.35164 1.90402 0
M  V30 4999 C 460.122 0.221069 1.68657 0
M  V30 5000 O 461.307 0.420642 1.8959 0
M  V30 5001 C 458.437 1.15274 3.27611 0
M  V30 5002 C 457.391 2.25289 3.63908 0
M  V30 5003 C 456.717 1.90527 4.99603 0
M  V30 5004 C 458.017 3.67446 3.71188 0
M  V30 5005 H 459.711 2.29482 1.92297 0
M  V30 5006 H 457.257 1.10465 0.923773 0
M  V30 5007 H 459.21 1.12536 4.06096 0
M  V30 5008 H 457.934 0.174102 3.26136 0
M  V30 5009 H 456.593 2.27174 2.87728 0
M  V30 5010 H 456.241 0.91206 4.94662 0
M  V30 5011 H 455.941 2.64193 5.24858 0
M  V30 5012 H 457.465 1.89367 5.80493 0
M  V30 5013 H 458.879 3.67719 4.39836 0
M  V30 5014 H 457.276 4.40123 4.07936 0
M  V30 5015 H 458.346 4.01443 2.71977 0
M  V30 5016 N 459.689 -1.00246 1.21608 0
M  V30 5017 C 461.105 -1.26435 0.973975 0
M  V30 5018 C 461.305 -1.98642 -0.338143 0
M  V30 5019 O 460.361 -2.29026 -1.06317 0
M  V30 5020 C 461.674 -2.08551 2.16626 0
M  V30 5021 C 463.222 -2.21769 2.20879 0
M  V30 5022 C 463.697 -3.07267 3.39633 0
M  V30 5023 N 465.188 -3.14855 3.39736 0
M  V30 5024 C 465.923 -3.81274 4.28273 0
M  V30 5025 N 465.419 -4.497 5.27012 0
M  V30 5026 N 467.212 -3.7794 4.16074 0
M  V30 5027 H 459.363 -0.518089 2.05984 0
M  V30 5028 H 461.626 -0.291368 0.902113 0
M  V30 5029 H 461.332 -1.62847 3.11727 0
M  V30 5030 H 461.206 -3.09303 2.15897 0
M  V30 5031 H 463.593 -2.66691 1.26332 0
M  V30 5032 H 463.674 -1.20478 2.25652 0
M  V30 5033 H 463.318 -2.63047 4.34475 0
M  V30 5034 H 463.248 -4.08678 3.321 0
M  V30 5035 H 465.739 -2.66147 2.6828 0
M  V30 5036 H 466.052 -4.98092 5.90867 0
M  V30 5037 H 464.397 -4.48479 5.30935 0
M  V30 5038 H 467.588 -3.23638 3.38195 0
M  V30 5039 H 467.761 -4.29424 4.85282 0
M  V30 5040 N 461.167 -1.02423 -1.1978 0
M  V30 5041 C 462.583 -0.740459 -1.41384 0
M  V30 5042 C 462.783 0.676827 -1.89793 0
M  V30 5043 O 461.839 1.4435 -2.0717 0
M  V30 5044 C 463.152 -1.77264 -2.42895 0
M  V30 5045 C 464.7 -1.79165 -2.56649 0
M  V30 5046 C 465.175 -2.8133 -3.6141 0
M  V30 5047 N 466.666 -2.80118 -3.68901 0
M  V30 5048 C 467.401 -3.55824 -4.49641 0
M  V30 5049 N 466.897 -4.41231 -5.34123 0
M  V30 5050 N 468.69 -3.44387 -4.44246 0
M  V30 5051 H 460.841 -1.9391 -0.866764 0
M  V30 5052 H 463.104 -0.838074 -0.443098 0
M  V30 5053 H 462.81 -2.7884 -2.14339 0
M  V30 5054 H 462.684 -1.59108 -3.42001 0
M  V30 5055 H 465.071 -0.782702 -2.84531 0
M  V30 5056 H 465.152 -2.01396 -1.57713 0
M  V30 5057 H 464.796 -3.82394 -3.34271 0
M  V30 5058 H 464.726 -2.56359 -4.59986 0
M  V30 5059 H 467.217 -2.1817 -3.08562 0
M  V30 5060 H 467.53 -4.95747 -5.92836 0
M  V30 5061 H 465.875 -4.45306 -5.33599 0
M  V30 5062 H 469.066 -2.7708 -3.77285 0
M  V30 5063 H 469.239 -4.0364 -5.06931 0
M  V30 5064 N 462.645 1.35699 -0.801477 0
M  V30 5065 C 463.891 1.99643 -0.389135 0
M  V30 5066 C 464.246 1.62447 1.03095 0
M  V30 5067 O 463.539 0.875064 1.7045 0
M  V30 5068 C 463.733 3.53828 -0.504041 0
M  V30 5069 C 463.562 4.06 -1.93375 0
M  V30 5070 C 462.332 4.35592 -2.561 0
M  V30 5071 C 464.53 4.24905 -2.89759 0
M  V30 5072 N 462.512 4.73663 -3.90534 0
M  V30 5073 C 463.883 4.65914 -4.09052 0
M  V30 5074 C 465.938 4.07101 -2.86658 0
M  V30 5075 C 464.641 4.90984 -5.25669 0
M  V30 5076 C 466.667 4.33324 -4.02472 0
M  V30 5077 C 466.029 4.74601 -5.20512 0
M  V30 5078 H 462.128 0.758552 -0.19006 0
M  V30 5079 H 464.712 1.64493 -1.04164 0
M  V30 5080 H 462.883 3.88219 0.118437 0
M  V30 5081 H 464.615 4.04645 -0.0667794 0
M  V30 5082 H 461.37 4.25728 -2.07492 0
M  V30 5083 H 461.794 4.96965 -4.59734 0
M  V30 5084 H 466.436 3.74335 -1.96552 0
M  V30 5085 H 464.154 5.22626 -6.1635 0
M  V30 5086 H 467.74 4.21107 -4.01447 0
M  V30 5087 H 466.62 4.94497 -6.08639 0
M  V30 5088 N 464.123 0.554532 1.47522 0
M  V30 5089 C 465.053 -0.182974 2.32782 0
M  V30 5090 C 466.034 -0.911377 1.43624 0
M  V30 5091 O 467.219 -0.892366 1.72483 0
M  V30 5092 C 464.349 -1.21513 3.25349 0
M  V30 5093 C 463.303 -0.603355 4.23726 0
M  V30 5094 C 462.629 -1.73995 5.05598 0
M  V30 5095 C 463.929 0.441121 5.20434 0
M  V30 5096 H 465.623 0.52882 2.94693 0
M  V30 5097 H 463.169 0.255759 1.41711 0
M  V30 5098 H 465.122 -1.73922 3.83835 0
M  V30 5099 H 463.846 -1.95683 2.61487 0
M  V30 5100 H 462.505 -0.10059 3.66462 0
M  V30 5101 H 462.153 -2.47063 4.38143 0
M  V30 5102 H 461.853 -1.3364 5.72201 0
M  V30 5103 H 463.377 -2.26735 5.66942 0
M  V30 5104 H 464.791 0.00319931 5.733 0
M  V30 5105 H 463.188 0.763402 5.95224 0
M  V30 5106 H 464.258 1.33799 4.66075 0
M  V30 5107 N 465.601 -1.54893 0.290851 0
M  V30 5108 C 466.564 -2.21824 -0.576784 0
M  V30 5109 C 467.564 -1.20104 -1.06919 0
M  V30 5110 O 468.754 -1.44906 -0.966843 0
M  V30 5111 C 465.886 -2.89662 -1.79747 0
M  V30 5112 H 467.079 -2.99899 0.00784051 0
M  V30 5113 H 464.632 -1.56245 0.0415934 0
M  V30 5114 H 465.367 -2.15639 -2.42219 0
M  V30 5115 H 465.152 -3.64219 -1.45214 0
M  V30 5116 H 466.642 -3.4075 -2.4141 0
M  V30 5117 N 467.08 -0.0183926 -1.57589 0
M  V30 5118 C 468.326 0.663543 -1.91638 0
M  V30 5119 C 468.659 1.72392 -0.894134 0
M  V30 5120 O 467.934 1.94316 0.0846449 0
M  V30 5121 C 468.217 1.28984 -3.36207 0
M  V30 5122 C 468.07 0.239761 -4.49161 0
M  V30 5123 C 469.389 2.2109 -3.80536 0
M  V30 5124 H 466.508 0.239746 -0.696915 0
M  V30 5125 H 469.15 -0.073456 -1.89858 0
M  V30 5126 H 467.3 1.91799 -3.37854 0
M  V30 5127 H 468.972 -0.390119 -4.59647 0
M  V30 5128 H 467.215 -0.435972 -4.31604 0
M  V30 5129 H 467.886 0.717383 -5.47319 0
M  V30 5130 H 470.362 1.68273 -3.80557 0
M  V30 5131 H 469.238 2.61869 -4.82406 0
M  V30 5132 H 469.499 3.09764 -3.15434 0
M  V30 5133 N 468.558 1.5553 0.254621 0
M  V30 5134 C 469.798 1.7876 0.991179 0
M  V30 5135 C 470.162 0.586669 1.82817 0
M  V30 5136 O 471.363 0.697585 2.5959 0
M  V30 5137 C 469.634 3.06679 1.83529 0
M  V30 5138 S 471.193 3.511 2.632 0
M  V30 5139 H 468.011 0.627916 0.333531 0
M  V30 5140 H 470.613 1.93766 0.259778 0
M  V30 5141 H 469.317 3.92158 1.20996 0
M  V30 5142 H 468.848 2.94388 2.60958 0
M  V30 5143 H 470.863 3.11823 3.8598 0
M  V30 5144 N 470.036 -0.519951 1.48776 0
M  V30 5145 C 471.284 -1.2727 1.56993 0
M  V30 5146 C 471.605 -1.9339 0.25004 0
M  V30 5147 O 470.875 -1.81822 -0.729216 0
M  V30 5148 H 469.455 -0.472732 0.578389 0
M  V30 5149 H 472.117 -0.604234 1.85297 0
M  V30 5150 H 471.213 -2.04669 2.3562 0
M  V30 5151 N 471.514 -1.37532 -0.769588 0
M  V30 5152 C 472.763 -1.32183 -1.5235 0
M  V30 5153 C 473.076 0.0906555 -1.9539 0
M  V30 5154 O 474.282 0.266628 -2.70188 0
M  V30 5155 C 472.738 -2.32029 -2.75119 0
M  V30 5156 C 472.346 -3.78816 -2.3917 0
M  V30 5157 C 474.09 -2.35694 -3.53056 0
M  V30 5158 C 471.997 -4.70388 -3.58453 0
M  V30 5159 H 470.927 -0.491275 -0.571984 0
M  V30 5160 H 473.578 -1.63004 -0.842739 0
M  V30 5161 H 471.96 -1.94229 -3.45096 0
M  V30 5162 H 473.134 -4.25466 -1.76962 0
M  V30 5163 H 471.449 -3.78117 -1.74402 0
M  V30 5164 H 474.046 -3.01312 -4.41718 0
M  V30 5165 H 474.389 -1.37117 -3.93071 0
M  V30 5166 H 474.922 -2.72212 -2.90078 0
M  V30 5167 H 471.661 -5.70102 -3.23518 0
M  V30 5168 H 471.181 -4.28442 -4.19758 0
M  V30 5169 H 472.86 -4.87628 -4.25239 0
M  V30 5170 N 472.992 0.995999 -1.22138 0
M  V30 5171 C 474.241 1.72928 -1.03821 0
M  V30 5172 C 474.554 1.90872 0.427444 0
M  V30 5173 O 475.76 2.61496 0.730212 0
M  V30 5174 C 474.216 3.11124 -1.80913 0
M  V30 5175 C 473.824 3.01122 -3.31707 0
M  V30 5176 C 475.568 3.8852 -1.71035 0
M  V30 5177 C 473.475 4.34453 -4.01253 0
M  V30 5178 H 472.405 0.648376 -0.384869 0
M  V30 5179 H 475.056 1.11213 -1.45959 0
M  V30 5180 H 473.438 3.73503 -1.31573 0
M  V30 5181 H 474.612 2.47926 -3.88419 0
M  V30 5182 H 472.927 2.3721 -3.42228 0
M  V30 5183 H 475.524 4.872 -2.20318 0
M  V30 5184 H 475.867 4.1087 -0.670196 0
M  V30 5185 H 476.4 3.32812 -2.17902 0
M  V30 5186 H 473.139 4.17303 -5.05508 0
M  V30 5187 H 472.659 4.87574 -3.49331 0
M  V30 5188 H 474.338 5.03215 -4.06674 0
M  V30 5189 N 474.47 1.03057 1.19235 0
M  V30 5190 C 475.4 0.633497 2.24742 0
M  V30 5191 C 476.381 -0.358335 1.66283 0
M  V30 5192 O 477.566 -0.240676 1.92703 0
M  V30 5193 C 474.696 -0.0147648 3.47297 0
M  V30 5194 C 473.65 0.899527 4.18441 0
M  V30 5195 C 472.976 0.116281 5.34574 0
M  V30 5196 C 474.276 2.21404 4.73051 0
M  V30 5197 H 475.97 1.5155 2.58211 0
M  V30 5198 H 473.516 0.73014 1.24117 0
M  V30 5199 H 475.469 -0.304202 4.20301 0
M  V30 5200 H 474.193 -0.931577 3.13032 0
M  V30 5201 H 472.852 1.17319 3.47321 0
M  V30 5202 H 472.5 -0.802619 4.96555 0
M  V30 5203 H 472.2 0.725293 5.83107 0
M  V30 5204 H 473.724 -0.166376 6.10373 0
M  V30 5205 H 475.138 1.98601 5.37802 0
M  V30 5206 H 473.535 2.77512 5.32078 0
M  V30 5207 H 474.605 2.86752 3.91026 0
M  V30 5208 N 475.948 -1.35272 0.808662 0
M  V30 5209 C 477.194 -1.99003 0.390581 0
M  V30 5210 C 477.527 -1.63999 -1.0401 0
M  V30 5211 O 476.802 -0.904368 -1.72196 0
M  V30 5212 C 477.085 -3.55454 0.576566 0
M  V30 5213 C 476.938 -4.00249 2.05233 0
M  V30 5214 C 478.257 -4.401 0.00354277 0
M  V30 5215 H 475.376 -0.722917 0.143388 0
M  V30 5216 H 478.018 -1.6039 1.01858 0
M  V30 5217 H 476.168 -3.88477 0.0419766 0
M  V30 5218 H 477.84 -3.77626 2.64946 0
M  V30 5219 H 476.083 -3.51082 2.54801 0
M  V30 5220 H 476.754 -5.0911 2.13333 0
M  V30 5221 H 479.23 -4.13548 0.460117 0
M  V30 5222 H 478.106 -5.48656 0.163575 0
M  V30 5223 H 478.367 -4.28444 -1.09032 0
M  V30 5224 N 477.426 -0.562348 -1.47226 0
M  V30 5225 C 478.673 -0.0402165 -2.0246 0
M  V30 5226 C 479.001 1.31169 -1.43614 0
M  V30 5227 O 478.256 1.86805 -0.5833 0
M  V30 5228 C 478.555 0.0969817 -3.57268 0
M  V30 5229 C 478.221 -1.1847 -4.35058 0
M  V30 5230 C 476.883 -1.53588 -4.56031 0
M  V30 5231 C 479.235 -2.03378 -4.79882 0
M  V30 5232 C 476.563 -2.73452 -5.19077 0
M  V30 5233 C 478.915 -3.2245 -5.44251 0
M  V30 5234 C 477.579 -3.57876 -5.63455 0
M  V30 5235 H 476.849 -0.0147163 -0.740854 0
M  V30 5236 H 479.496 -0.734895 -1.76838 0
M  V30 5237 H 477.801 0.87466 -3.81912 0
M  V30 5238 H 479.498 0.516408 -3.97661 0
M  V30 5239 H 476.088 -0.90126 -4.19017 0
M  V30 5240 H 480.272 -1.77553 -4.63453 0
M  V30 5241 H 475.528 -3.01062 -5.32139 0
M  V30 5242 H 479.702 -3.88526 -5.77945 0
M  V30 5243 H 477.329 -4.50849 -6.12078 0
M  V30 5244 N 478.904 1.54736 -0.299062 0
M  V30 5245 C 479.834 2.26409 0.571085 0
M  V30 5246 C 480.815 1.2629 1.13951 0
M  V30 5247 O 482 1.55059 1.16921 0
M  V30 5248 C 479.13 3.00338 1.74396 0
M  V30 5249 C 478.084 4.07588 1.30599 0
M  V30 5250 C 477.41 4.69222 2.56387 0
M  V30 5251 C 478.71 5.20455 0.438645 0
M  V30 5252 H 480.404 2.99388 -0.0266991 0
M  V30 5253 H 477.95 1.43993 -0.0142812 0
M  V30 5254 H 479.903 3.49198 2.35878 0
M  V30 5255 H 478.627 2.24934 2.36796 0
M  V30 5256 H 477.286 3.59575 0.71424 0
M  V30 5257 H 476.934 3.9046 3.17097 0
M  V30 5258 H 476.634 5.41653 2.27784 0
M  V30 5259 H 478.158 5.20844 3.18675 0
M  V30 5260 H 479.572 5.65221 0.959085 0
M  V30 5261 H 477.969 5.99594 0.246466 0
M  V30 5262 H 479.039 4.8192 -0.536738 0
M  V30 5263 N 480.382 0.0267497 1.57577 0
M  V30 5264 C 481.312 -0.954308 2.13108 0
M  V30 5265 C 482.293 -1.34088 1.04663 0
M  V30 5266 O 483.478 -1.41992 1.32484 0
M  V30 5267 C 480.608 -2.23744 2.65624 0
M  V30 5268 C 479.562 -1.99168 3.78835 0
M  V30 5269 C 478.888 -3.33726 4.17769 0
M  V30 5270 C 480.188 -1.33277 5.0501 0
M  V30 5271 H 481.882 -0.491848 2.95332 0
M  V30 5272 H 479.428 -0.23514 1.42067 0
M  V30 5273 H 481.381 -2.92754 3.03106 0
M  V30 5274 H 480.105 -2.72151 1.80558 0
M  V30 5275 H 478.764 -1.32577 3.41788 0
M  V30 5276 H 478.412 -3.79888 3.29688 0
M  V30 5277 H 478.112 -3.18089 4.94058 0
M  V30 5278 H 479.636 -4.04008 4.57832 0
M  V30 5279 H 481.05 -1.92283 5.40093 0
M  V30 5280 H 479.447 -1.28045 5.8628 0
M  V30 5281 H 480.517 -0.305411 4.83937 0
M  V30 5282 N 481.861 -1.55662 -0.24637 0
M  V30 5283 C 482.824 -1.89558 -1.28842 0
M  V30 5284 C 483.824 -0.772082 -1.41052 0
M  V30 5285 O 485.014 -1.04007 -1.39743 0
M  V30 5286 C 482.146 -2.12449 -2.66605 0
M  V30 5287 H 483.339 -2.82735 -1.00004 0
M  V30 5288 H 480.892 -1.48562 -0.485684 0
M  V30 5289 H 481.627 -1.21742 -3.00582 0
M  V30 5290 H 481.412 -2.94273 -2.59125 0
M  V30 5291 H 482.902 -2.39854 -3.41847 0
M  V30 5292 N 483.339 0.512053 -1.4905 0
M  V30 5293 C 484.249 1.64139 -1.67617 0
M  V30 5294 C 485.265 1.64786 -0.558701 0
M  V30 5295 O 486.441 1.8341 -0.832034 0
M  V30 5296 C 483.506 3.00548 -1.72835 0
M  V30 5297 C 482.567 3.10615 -2.96339 0
M  V30 5298 C 481.8 4.40517 -3.01298 0
M  V30 5299 O 482.023 5.28671 -2.14157 0
M  V30 5300 O 480.957 4.55325 -3.93653 0
M  V30 5301 H 484.783 1.51407 -2.63267 0
M  V30 5302 H 482.368 0.687131 -1.32661 0
M  V30 5303 H 484.25 3.81641 -1.78683 0
M  V30 5304 H 482.925 3.13566 -0.803616 0
M  V30 5305 H 481.832 2.2875 -2.96014 0
M  V30 5306 H 483.165 3.0252 -3.88256 0
M  V30 5307 N 484.817 1.37938 0.762283 0
M  V30 5308 C 485.747 1.37176 1.88958 0
M  V30 5309 C 486.728 0.238945 1.68413 0
M  V30 5310 O 487.913 0.440726 1.89133 0
M  V30 5311 C 485.043 1.18742 3.2637 0
M  V30 5312 C 483.997 2.29136 3.61498 0
M  V30 5313 C 483.323 1.95816 4.97554 0
M  V30 5314 C 484.623 3.71363 3.6727 0
M  V30 5315 H 486.317 2.31509 1.89853 0
M  V30 5316 H 483.863 1.11438 0.912005 0
M  V30 5317 H 485.816 1.16837 4.04879 0
M  V30 5318 H 484.54 0.208683 3.25933 0
M  V30 5319 H 483.199 2.30213 2.85303 0
M  V30 5320 H 482.847 0.964475 4.93667 0
M  V30 5321 H 482.547 2.69745 5.22026 0
M  V30 5322 H 484.071 1.95513 5.78452 0
M  V30 5323 H 485.485 3.72364 4.35911 0
M  V30 5324 H 483.882 4.44425 4.03245 0
M  V30 5325 H 484.952 4.04305 2.67704 0
M  V30 5326 N 486.295 -0.989507 1.22664 0
M  V30 5327 C 487.243 -2.10148 0.997035 0
M  V30 5328 C 488.237 -1.6929 -0.0609783 0
M  V30 5329 O 489.443 -1.79766 0.0917523 0
M  V30 5330 H 485.818 -0.687256 0.305259 0
M  V30 5331 H 487.789 -2.26685 1.94053 0
M  V30 5332 C 486.538 -3.4257 0.595085 0
M  V30 5333 H 485.861 -3.74453 1.40089 0
M  V30 5334 H 487.301 -4.21344 0.473869 0
M  V30 5335 C 485.76 -3.29638 -0.695725 0
M  V30 5336 O 486.29 -3.61709 -1.74727 0
M  V30 5337 N 484.496 -2.82814 -0.668173 0
M  V30 5338 H 484.043 -2.56914 0.18787 0
M  V30 5339 H 484.001 -2.74544 -1.5321 0
M  V30 5340 N 487.773 -1.03688 -1.18687 0
M  V30 5341 C 489.001 -0.757918 -1.92518 0
M  V30 5342 C 489.416 0.684398 -1.75959 0
M  V30 5343 O 488.773 1.46617 -1.08673 0
M  V30 5344 C 488.824 -1.10985 -3.44042 0
M  V30 5345 O 488.545 -2.49554 -3.60076 0
M  V30 5346 C 490.046 -0.854844 -4.3498 0
M  V30 5347 H 487.266 -0.276699 -0.611293 0
M  V30 5348 H 489.81 -1.38352 -1.50595 0
M  V30 5349 H 487.965 -0.529279 -3.83767 0
M  V30 5350 H 488.379 -2.6291 -4.53849 0
M  V30 5351 H 489.853 -1.15098 -5.39867 0
M  V30 5352 H 490.33 0.210507 -4.38695 0
M  V30 5353 H 490.936 -1.41853 -4.00946 0
M  V30 5354 N 489.251 1.34841 -0.815825 0
M  V30 5355 C 490.498 1.98499 -0.400535 0
M  V30 5356 C 490.826 1.64699 1.03463 0
M  V30 5357 O 490.081 0.907006 1.73412 0
M  V30 5358 C 490.38 3.53273 -0.541541 0
M  V30 5359 C 490.046 4.06966 -1.94138 0
M  V30 5360 C 488.708 4.21341 -2.32433 0
M  V30 5361 C 491.06 4.35933 -2.85677 0
M  V30 5362 C 488.388 4.62007 -3.61617 0
M  V30 5363 C 490.74 4.78042 -4.14317 0
M  V30 5364 C 489.404 4.90622 -4.52599 0
M  V30 5365 H 488.674 0.72636 -0.146566 0
M  V30 5366 H 491.321 1.60902 -1.0384 0
M  V30 5367 H 489.626 3.91387 0.179741 0
M  V30 5368 H 491.323 4.00497 -0.20085 0
M  V30 5369 H 487.913 3.96235 -1.63388 0
M  V30 5370 H 492.097 4.24372 -2.57337 0
M  V30 5371 H 487.353 4.69937 -3.91113 0
M  V30 5372 H 491.527 4.99415 -4.85342 0
M  V30 5373 H 489.154 5.2189 -5.52752 0
M  V30 5374 N 490.729 0.570148 1.46925 0
M  V30 5375 C 491.959 0.0561151 2.06524 0
M  V30 5376 C 492.367 -1.24874 1.42137 0
M  V30 5377 O 491.71 -1.76292 0.516417 0
M  V30 5378 C 491.772 -0.197035 3.5896 0
M  V30 5379 C 491.436 1.02033 4.45464 0
M  V30 5380 C 492.433 1.92921 4.82781 0
M  V30 5381 C 490.118 1.23864 4.86788 0
M  V30 5382 C 492.112 3.03999 5.60235 0
M  V30 5383 C 489.799 2.35249 5.64004 0
M  V30 5384 C 490.797 3.25146 6.0064 0
M  V30 5385 O 490.485 4.34598 6.76299 0
M  V30 5386 H 490.217 0.0487409 0.674241 0
M  V30 5387 H 492.771 0.786915 1.89728 0
M  V30 5388 H 491.001 -0.982299 3.74016 0
M  V30 5389 H 492.69 -0.658032 4.00531 0
M  V30 5390 H 493.456 1.77265 4.51444 0
M  V30 5391 H 489.335 0.54805 4.57731 0
M  V30 5392 H 492.879 3.74192 5.8875 0
M  V30 5393 H 488.776 2.50873 5.94755 0
M  V30 5394 H 489.544 4.32808 6.94708 0
M  V30 5395 N 492.207 -1.54576 0.307264 0
M  V30 5396 C 493.137 -2.26708 -0.55907 0
M  V30 5397 C 494.118 -1.26893 -1.1328 0
M  V30 5398 O 495.303 -1.55677 -1.16097 0
M  V30 5399 C 492.433 -3.01259 -1.72801 0
M  V30 5400 C 491.387 -4.08275 -1.28435 0
M  V30 5401 C 490.713 -4.70575 -2.53895 0
M  V30 5402 C 492.013 -5.2068 -0.411038 0
M  V30 5403 H 493.707 -2.9937 0.042576 0
M  V30 5404 H 491.253 -1.43983 0.0219173 0
M  V30 5405 H 493.206 -3.50444 -2.34023 0
M  V30 5406 H 491.93 -2.26187 -2.356 0
M  V30 5407 H 490.589 -3.59949 -0.695161 0
M  V30 5408 H 490.237 -3.92136 -3.15021 0
M  V30 5409 H 489.937 -5.42854 -2.24908 0
M  V30 5410 H 491.461 -5.22527 -3.15908 0
M  V30 5411 H 492.875 -5.65721 -0.929097 0
M  V30 5412 H 491.272 -5.99716 -0.214664 0
M  V30 5413 H 492.342 -4.81629 0.562287 0
M  V30 5414 N 493.685 -0.035106 -1.57561 0
M  V30 5415 C 494.632 0.94474 -2.10578 0
M  V30 5416 C 495.602 1.3192 -1.00927 0
M  V30 5417 O 496.787 1.41147 -1.28382 0
M  V30 5418 C 493.927 2.21982 -2.64231 0
M  V30 5419 C 493.04 1.90128 -3.87911 0
M  V30 5420 C 492.175 3.11975 -4.29936 0
M  V30 5421 C 491.214 2.75968 -5.46359 0
M  V30 5422 N 490.351 3.90459 -5.83512 0
M  V30 5423 H 495.191 0.485717 -2.94015 0
M  V30 5424 H 492.728 0.228143 -1.4532 0
M  V30 5425 H 494.686 2.96572 -2.9343 0
M  V30 5426 H 493.316 2.6549 -1.83616 0
M  V30 5427 H 492.368 1.05755 -3.65404 0
M  V30 5428 H 493.68 1.59613 -4.72573 0
M  V30 5429 H 492.834 3.9488 -4.60603 0
M  V30 5430 H 491.573 3.45657 -3.44053 0
M  V30 5431 H 490.578 1.91478 -5.1538 0
M  V30 5432 H 491.803 2.43497 -6.33945 0
M  V30 5433 H 489.749 4.23971 -5.00584 0
M  V30 5434 H 489.666 3.63588 -6.62827 0
M  V30 5435 H 490.934 4.7405 -6.18787 0
M  V30 5436 N 495.163 1.55791 0.238111 0
M  V30 5437 C 496.41 1.78033 0.964907 0
M  V30 5438 C 496.738 0.600984 1.84982 0
M  V30 5439 O 495.993 -0.41536 1.91241 0
M  V30 5440 C 496.292 3.05869 1.84875 0
M  V30 5441 C 495.958 4.36808 1.11846 0
M  V30 5442 C 494.62 4.72388 0.916662 0
M  V30 5443 C 496.972 5.17717 0.60151 0
M  V30 5444 C 494.3 5.86406 0.185756 0
M  V30 5445 C 496.652 6.32494 -0.115972 0
M  V30 5446 C 495.316 6.66688 -0.329168 0
M  V30 5447 H 494.586 0.651469 0.353085 0
M  V30 5448 H 497.233 1.90061 0.234318 0
M  V30 5449 H 495.538 2.88891 2.64668 0
M  V30 5450 H 497.235 3.20278 2.41294 0
M  V30 5451 H 493.825 4.08862 1.28569 0
M  V30 5452 H 498.009 4.90678 0.744932 0
M  V30 5453 H 493.265 6.11399 0.0101886 0
M  V30 5454 H 497.439 6.94425 -0.524127 0
M  V30 5455 H 495.066 7.54884 -0.897474 0
M  V30 5456 N 496.642 -0.504142 1.49319 0
M  V30 5457 C 497.888 -1.26033 1.58882 0
M  V30 5458 C 498.221 -1.92268 0.273274 0
M  V30 5459 O 497.496 -1.80567 -0.72291 0
M  V30 5460 C 497.779 -2.32976 2.7458 0
M  V30 5461 C 497.632 -1.71263 4.1592 0
M  V30 5462 C 498.951 -3.34561 2.85932 0
M  V30 5463 H 496.07 -0.456863 0.578312 0
M  V30 5464 H 498.712 -0.558965 1.81592 0
M  V30 5465 H 496.862 -2.92796 2.55348 0
M  V30 5466 H 498.534 -1.15294 4.4666 0
M  V30 5467 H 496.777 -1.01686 4.21714 0
M  V30 5468 H 497.448 -2.48816 4.92742 0
M  V30 5469 H 499.924 -2.84727 3.0343 0
M  V30 5470 H 498.8 -4.06754 3.68568 0
M  V30 5471 H 499.061 -3.96695 1.95154 0
M  V30 5472 N 498.12 -1.38341 -0.754957 0
M  V30 5473 C 499.05 -1.38176 -1.88227 0
M  V30 5474 C 500.031 -0.247873 -1.68284 0
M  V30 5475 O 501.216 -0.45075 -1.88896 0
M  V30 5476 C 498.346 -1.20471 -3.25736 0
M  V30 5477 C 497.3 -2.3105 -3.60278 0
M  V30 5478 C 496.626 -1.98452 -4.96509 0
M  V30 5479 C 497.926 -3.73305 -3.65295 0
M  V30 5480 H 499.62 -2.32512 -1.88622 0
M  V30 5481 H 497.166 -1.1192 -0.906082 0
M  V30 5482 H 499.119 -1.18982 -4.04254 0
M  V30 5483 H 497.843 -0.225965 -3.25817 0
M  V30 5484 H 496.502 -2.31723 -2.84078 0
M  V30 5485 H 496.15 -0.990641 -4.93148 0
M  V30 5486 H 495.85 -2.7251 -5.20588 0
M  V30 5487 H 497.374 -1.98578 -5.77407 0
M  V30 5488 H 498.788 -3.7467 -4.3393 0
M  V30 5489 H 497.185 -4.46557 -4.00883 0
M  V30 5490 H 498.255 -4.05719 -2.65556 0
M  V30 5491 N 499.598 0.982988 -1.23187 0
M  V30 5492 C 500.844 1.7273 -1.07405 0
M  V30 5493 C 501.199 1.885 0.385447 0
M  V30 5494 O 500.492 1.4243 1.28157 0
M  V30 5495 C 500.686 3.12736 -1.73006 0
M  V30 5496 C 500.515 3.10621 -3.25184 0
M  V30 5497 C 499.285 3.15957 -3.94334 0
M  V30 5498 C 501.483 2.93992 -4.21987 0
M  V30 5499 N 499.465 3.03701 -5.33516 0
M  V30 5500 C 500.836 2.8987 -5.48065 0
M  V30 5501 C 502.891 2.78457 -4.12754 0
M  V30 5502 C 501.594 2.71804 -6.65969 0
M  V30 5503 C 503.62 2.61754 -5.30319 0
M  V30 5504 C 502.982 2.58328 -6.55321 0
M  V30 5505 H 499.081 0.641279 -0.447533 0
M  V30 5506 H 501.665 1.16664 -1.55877 0
M  V30 5507 H 499.836 3.67026 -1.2707 0
M  V30 5508 H 501.568 3.75786 -1.50224 0
M  V30 5509 H 498.323 3.24034 -3.45397 0
M  V30 5510 H 498.747 3.00855 -6.06478 0
M  V30 5511 H 503.389 2.79898 -3.16886 0
M  V30 5512 H 501.107 2.69108 -7.61975 0
M  V30 5513 H 504.693 2.50702 -5.25014 0
M  V30 5514 H 503.573 2.45564 -7.4476 0
M  V30 5515 N 501.076 1.04316 1.18135 0
M  V30 5516 C 502.009 0.580823 2.20685 0
M  V30 5517 C 502.987 -0.385943 1.57953 0
M  V30 5518 O 504.171 -0.299654 1.86103 0
M  V30 5519 C 501.298 -0.151162 3.38363 0
M  V30 5520 C 500.344 0.769247 4.19505 0
M  V30 5521 S 501.177 2.25352 4.85774 0
M  V30 5522 C 502.333 1.53246 6.0685 0
M  V30 5523 H 502.566 1.44968 2.5956 0
M  V30 5524 H 500.099 0.85434 1.28609 0
M  V30 5525 H 502.057 -0.567315 4.06561 0
M  V30 5526 H 500.718 -0.995936 2.97892 0
M  V30 5527 H 499.911 0.203335 5.0359 0
M  V30 5528 H 499.513 1.12436 3.56699 0
M  V30 5529 H 501.805 0.82689 6.72435 0
M  V30 5530 H 502.748 2.35044 6.67952 0
M  V30 5531 H 503.156 1.0237 5.5514 0
M  V30 5532 N 502.554 -1.34406 0.822964 0
M  V30 5533 C 503.965 -1.8069 0.469879 0
M  V30 5534 C 504.316 -1.68223 -1.00972 0
M  V30 5535 O 503.441 -1.22226 -1.78577 0
M  V30 5536 C 504.036 -3.28064 0.846118 0
M  V30 5537 C 502.595 -3.72428 0.545402 0
M  V30 5538 C 501.742 -2.56116 1.06301 0
M  V30 5539 H 504.693 -1.22153 1.01313 0
M  V30 5540 H 504.714 -3.80205 0.149922 0
M  V30 5541 H 504.226 -3.37107 1.92304 0
M  V30 5542 H 502.327 -3.68924 -0.522109 0
M  V30 5543 H 502.44 -4.66548 1.0895 0
M  V30 5544 H 500.804 -2.50048 0.484554 0
M  V30 5545 H 501.587 -2.67928 2.14638 0
M  V30 5546 N 504.032 -0.577932 -1.46621 0
M  V30 5547 C 505.443 -0.150071 -1.86096 0
M  V30 5548 C 505.794 1.28563 -1.48209 0
M  V30 5549 O 504.919 1.97036 -0.894754 0
M  V30 5550 C 505.514 -0.265576 -3.37758 0
M  V30 5551 C 504.073 0.10738 -3.76247 0
M  V30 5552 C 503.22 -0.603711 -2.70649 0
M  V30 5553 H 506.171 -0.786438 -1.37844 0
M  V30 5554 H 506.192 0.510352 -3.77062 0
M  V30 5555 H 505.704 -1.3106 -3.65301 0
M  V30 5556 H 503.805 1.15272 -3.54321 0
M  V30 5557 H 503.918 -0.26561 -4.78363 0
M  V30 5558 H 502.282 -0.0444884 -2.54661 0
M  V30 5559 H 503.065 -1.65029 -3.01032 0
M  V30 5560 N 505.51 1.54411 -0.315457 0
M  V30 5561 C 506.42 2.27737 0.56329 0
M  V30 5562 C 507.436 1.31787 1.13614 0
M  V30 5563 O 508.612 1.64791 1.15784 0
M  V30 5564 C 505.677 3.01478 1.71207 0
M  V30 5565 C 504.738 4.12997 1.17185 0
M  V30 5566 C 503.971 4.83212 2.26588 0
M  V30 5567 O 504.194 4.52884 3.46775 0
M  V30 5568 O 503.128 5.70299 1.92463 0
M  V30 5569 H 506.954 3.03683 -0.0319614 0
M  V30 5570 H 504.539 1.49178 -0.0814188 0
M  V30 5571 H 506.421 3.47683 2.38106 0
M  V30 5572 H 505.096 2.28414 2.29366 0
M  V30 5573 H 504.003 3.71159 0.468174 0
M  V30 5574 H 505.336 4.8808 0.635501 0
M  V30 5575 N 506.988 0.0434614 1.5754 0
M  V30 5576 C 507.938 -0.943039 2.07583 0
M  V30 5577 C 508.922 -1.27662 0.979342 0
M  V30 5578 O 510.114 -1.26034 1.24276 0
M  V30 5579 C 507.243 -2.22056 2.61813 0
M  V30 5580 C 506.329 -1.91471 3.78417 0
M  V30 5581 N 506.72 -1.31214 4.88484 0
M  V30 5582 C 505.018 -2.21384 3.87176 0
M  V30 5583 C 505.719 -1.18084 5.69588 0
M  V30 5584 N 504.695 -1.68116 5.16951 0
M  V30 5585 H 508.497 -0.472354 2.90079 0
M  V30 5586 H 506.011 -0.161191 1.61598 0
M  V30 5587 H 508.008 -2.93618 2.95963 0
M  V30 5588 H 506.668 -2.69738 1.80752 0
M  V30 5589 H 507.679 -0.985318 5.08441 0
M  V30 5590 H 504.356 -2.7164 3.17046 0
M  V30 5591 H 505.746 -0.713684 6.68099 0
M  V30 5592 N 508.466 -1.55915 -0.229846 0
M  V30 5593 C 509.696 -1.82352 -0.971152 0
M  V30 5594 C 510.104 -0.619231 -1.7878 0
M  V30 5595 O 509.447 0.421597 -1.78797 0
M  V30 5596 C 509.509 -3.02399 -1.9441 0
M  V30 5597 C 509.173 -4.37739 -1.31277 0
M  V30 5598 C 510.17 -5.15074 -0.706757 0
M  V30 5599 C 507.855 -4.84454 -1.32702 0
M  V30 5600 C 509.849 -6.37281 -0.123413 0
M  V30 5601 C 507.536 -6.06605 -0.739831 0
M  V30 5602 C 508.534 -6.82858 -0.139071 0
M  V30 5603 O 508.222 -8.027 0.439007 0
M  V30 5604 H 507.954 -0.61035 -0.290601 0
M  V30 5605 H 510.508 -2.03839 -0.252746 0
M  V30 5606 H 508.738 -2.76709 -2.70128 0
M  V30 5607 H 510.427 -3.15779 -2.55026 0
M  V30 5608 H 511.193 -4.80093 -0.688131 0
M  V30 5609 H 507.072 -4.25081 -1.78402 0
M  V30 5610 H 510.616 -6.96741 0.346124 0
M  V30 5611 H 506.513 -6.4106 -0.755841 0
M  V30 5612 H 507.281 -8.17824 0.332521 0
M  V30 5613 N 509.944 0.496216 -1.49584 0
M  V30 5614 C 510.874 1.60576 -1.69521 0
M  V30 5615 C 511.855 1.61169 -0.543933 0
M  V30 5616 O 513.04 1.77834 -0.78031 0
M  V30 5617 C 510.17 2.99038 -1.76616 0
M  V30 5618 C 509.124 3.13312 -2.91581 0
M  V30 5619 C 508.45 4.53172 -2.83794 0
M  V30 5620 C 509.75 2.92886 -4.32452 0
M  V30 5621 H 511.444 1.44146 -2.62416 0
M  V30 5622 H 508.99 0.692024 -1.26282 0
M  V30 5623 H 510.943 3.76564 -1.8915 0
M  V30 5624 H 509.667 3.16568 -0.80324 0
M  V30 5625 H 508.326 2.38213 -2.78658 0
M  V30 5626 H 507.974 4.67585 -1.854 0
M  V30 5627 H 507.674 4.63662 -3.60958 0
M  V30 5628 H 509.198 5.32752 -2.98342 0
M  V30 5629 H 510.612 3.60178 -4.46032 0
M  V30 5630 H 509.009 3.14844 -5.10875 0
M  V30 5631 H 510.079 1.88966 -4.46565 0
M  V30 5632 N 511.423 1.38739 0.74761 0
M  V30 5633 C 512.669 1.35475 1.50912 0
M  V30 5634 C 513.002 -0.0533093 1.94127 0
M  V30 5635 O 512.277 -1.01572 1.65871 0
M  V30 5636 C 512.56 2.31582 2.75757 0
M  V30 5637 C 512.413 3.81274 2.38642 0
M  V30 5638 C 513.732 2.25722 3.77806 0
M  V30 5639 H 510.851 0.493427 0.547447 0
M  V30 5640 H 513.493 1.69634 0.855823 0
M  V30 5641 H 511.643 2.02582 3.31501 0
M  V30 5642 H 513.315 4.20972 1.88626 0
M  V30 5643 H 511.558 3.98664 1.71025 0
M  V30 5644 H 512.229 4.4399 3.27989 0
M  V30 5645 H 514.705 2.51336 3.31616 0
M  V30 5646 H 513.581 2.95069 4.62845 0
M  V30 5647 H 513.842 1.25803 4.23823 0
M  V30 5648 N 512.901 -0.976442 1.23707 0
M  V30 5649 C 513.831 -2.08749 1.04624 0
M  V30 5650 C 514.812 -1.70057 -0.0380956 0
M  V30 5651 O 515.997 -1.93782 0.127308 0
M  V30 5652 C 513.127 -3.41335 0.640902 0
M  V30 5653 C 512.081 -3.93947 1.67302 0
M  V30 5654 C 511.407 -5.22774 1.12301 0
M  V30 5655 C 512.707 -4.22769 3.06697 0
M  V30 5656 H 514.401 -2.24972 1.97555 0
M  V30 5657 H 511.947 -1.08108 0.951247 0
M  V30 5658 H 513.9 -4.18489 0.494434 0
M  V30 5659 H 512.624 -3.24988 -0.324099 0
M  V30 5660 H 511.283 -3.18941 1.80755 0
M  V30 5661 H 510.931 -5.0278 0.148877 0
M  V30 5662 H 510.631 -5.58942 1.81267 0
M  V30 5663 H 512.155 -6.02546 0.988479 0
M  V30 5664 H 513.569 -4.90659 2.96524 0
M  V30 5665 H 511.966 -4.70147 3.72937 0
M  V30 5666 H 513.036 -3.29885 3.55392 0
M  V30 5667 N 514.379 -1.04941 -1.1758 0
M  V30 5668 C 515.309 -0.669172 -2.23706 0
M  V30 5669 C 516.29 0.331835 -1.66832 0
M  V30 5670 O 517.475 0.209988 -1.93061 0
M  V30 5671 C 514.605 -0.0404889 -3.47276 0
M  V30 5672 C 513.559 -0.965983 -4.16957 0
M  V30 5673 C 512.885 -0.201312 -5.34321 0
M  V30 5674 C 514.185 -2.28902 -4.69469 0
M  V30 5675 H 515.879 -1.55639 -2.55767 0
M  V30 5676 H 513.425 -0.749793 -1.22939 0
M  V30 5677 H 515.378 0.237298 -4.20731 0
M  V30 5678 H 514.102 0.881658 -3.14475 0
M  V30 5679 H 512.761 -1.22829 -3.45411 0
M  V30 5680 H 512.409 0.723519 -4.97769 0
M  V30 5681 H 512.109 -0.817968 -5.81879 0
M  V30 5682 H 513.633 0.0692499 -6.10561 0
M  V30 5683 H 515.047 -2.07132 -5.34574 0
M  V30 5684 H 513.444 -2.85942 -5.27596 0
M  V30 5685 H 514.514 -2.92937 -3.86414 0
M  V30 5686 N 515.857 1.33968 -0.830081 0
M  V30 5687 C 517.273 1.51003 -0.516742 0
M  V30 5688 C 517.473 1.77286 0.957694 0
M  V30 5689 O 516.529 1.82797 1.74188 0
M  V30 5690 C 517.842 2.67036 -1.38247 0
M  V30 5691 C 519.39 2.80919 -1.38034 0
M  V30 5692 C 519.865 4.00004 -2.23071 0
M  V30 5693 N 521.356 4.07224 -2.20733 0
M  V30 5694 C 522.091 4.98541 -2.83275 0
M  V30 5695 N 521.587 5.95033 -3.54835 0
M  V30 5696 N 523.38 4.91469 -2.72791 0
M  V30 5697 H 515.531 1.15168 -1.78466 0
M  V30 5698 H 517.794 0.565443 -0.760906 0
M  V30 5699 H 517.5 2.54266 -2.42985 0
M  V30 5700 H 517.374 3.62226 -1.05225 0
M  V30 5701 H 519.761 2.93127 -0.340713 0
M  V30 5702 H 519.842 1.86517 -1.75057 0
M  V30 5703 H 519.486 3.88557 -3.27087 0
M  V30 5704 H 519.416 4.93634 -1.83394 0
M  V30 5705 H 521.907 3.38162 -1.68687 0
M  V30 5706 H 522.22 6.61357 -3.99784 0
M  V30 5707 H 520.565 5.95135 -3.58942 0
M  V30 5708 H 523.756 4.15048 -2.16456 0
M  V30 5709 H 523.929 5.62439 -3.21818 0
M  V30 5710 N 517.335 0.585699 1.46312 0
M  V30 5711 C 518.265 -0.133556 2.33118 0
M  V30 5712 C 519.246 -0.880707 1.45525 0
M  V30 5713 O 520.431 -0.855579 1.74337 0
M  V30 5714 C 517.561 -1.14585 3.27853 0
M  V30 5715 C 516.515 -0.513341 4.2491 0
M  V30 5716 C 515.841 -1.63231 5.09175 0
M  V30 5717 C 517.141 0.551413 5.19381 0
M  V30 5718 H 518.835 0.59121 2.93505 0
M  V30 5719 H 516.381 0.285761 1.41136 0
M  V30 5720 H 518.334 -1.65741 3.87438 0
M  V30 5721 H 517.058 -1.90093 2.65579 0
M  V30 5722 H 515.717 -0.0228349 3.66593 0
M  V30 5723 H 515.365 -2.37713 4.43285 0
M  V30 5724 H 515.065 -1.21473 5.74907 0
M  V30 5725 H 516.589 -2.14658 5.71624 0
M  V30 5726 H 518.003 0.124804 5.73164 0
M  V30 5727 H 516.4 0.889486 5.93471 0
M  V30 5728 H 517.47 1.43655 4.63132 0
M  V30 5729 N 518.813 -1.54241 0.323641 0
M  V30 5730 C 520.059 -2.00867 -0.279323 0
M  V30 5731 C 520.392 -1.21146 -1.5178 0
M  V30 5732 O 519.667 -0.29378 -1.92269 0
M  V30 5733 C 519.95 -3.54837 -0.613387 0
M  V30 5734 C 519.803 -4.45284 0.635803 0
M  V30 5735 C 521.122 -4.16186 -1.43099 0
M  V30 5736 H 518.241 -0.730177 -0.100049 0
M  V30 5737 H 520.883 -1.84829 0.440235 0
M  V30 5738 H 519.033 -3.68634 -1.22641 0
M  V30 5739 H 520.705 -4.43357 1.27406 0
M  V30 5740 H 518.948 -4.14956 1.26466 0
M  V30 5741 H 519.619 -5.5084 0.357597 0
M  V30 5742 H 522.095 -4.05964 -0.912814 0
M  V30 5743 H 520.971 -5.24031 -1.6335 0
M  V30 5744 H 521.232 -3.69516 -2.42715 0
M  V30 5745 N 520.291 -0.0518155 -1.57515 0
M  V30 5746 C 521.538 0.621823 -1.92716 0
M  V30 5747 C 521.866 1.70813 -0.930229 0
M  V30 5748 O 521.121 1.95616 0.0573708 0
M  V30 5749 C 521.42 1.25607 -3.34601 0
M  V30 5750 C 521.086 0.297901 -4.49915 0
M  V30 5751 C 519.748 0.034243 -4.81188 0
M  V30 5752 C 522.1 -0.358738 -5.19964 0
M  V30 5753 C 519.428 -0.893479 -5.79857 0
M  V30 5754 C 521.78 -1.27466 -6.19625 0
M  V30 5755 C 520.444 -1.54698 -6.49326 0
M  V30 5756 H 519.714 0.227541 -0.705199 0
M  V30 5757 H 522.361 -0.118432 -1.91133 0
M  V30 5758 H 520.666 2.07161 -3.32553 0
M  V30 5759 H 522.363 1.78424 -3.59118 0
M  V30 5760 H 518.953 0.513581 -4.25512 0
M  V30 5761 H 523.137 -0.168133 -4.96015 0
M  V30 5762 H 518.393 -1.11193 -6.01204 0
M  V30 5763 H 522.567 -1.78953 -6.73015 0
M  V30 5764 H 520.194 -2.26748 -7.25596 0
M  V30 5765 N 521.769 1.56035 0.221574 0
M  V30 5766 C 523.016 1.79047 0.94597 0
M  V30 5767 C 523.344 0.62057 1.84334 0
M  V30 5768 O 522.599 -0.395053 1.91671 0
M  V30 5769 C 522.898 3.07813 1.8162 0
M  V30 5770 C 522.564 4.3797 1.07206 0
M  V30 5771 C 521.226 4.73334 0.866508 0
M  V30 5772 C 523.578 5.18326 0.546565 0
M  V30 5773 C 520.906 5.8657 0.123549 0
M  V30 5774 C 523.258 6.32335 -0.18305 0
M  V30 5775 C 521.922 6.66301 -0.399861 0
M  V30 5776 H 521.192 0.655178 0.346155 0
M  V30 5777 H 523.839 1.90299 0.214146 0
M  V30 5778 H 522.144 2.91682 2.61589 0
M  V30 5779 H 523.841 3.2282 2.37884 0
M  V30 5780 H 520.431 4.10202 1.24226 0
M  V30 5781 H 524.615 4.9144 0.692847 0
M  V30 5782 H 519.871 6.11376 -0.0546591 0
M  V30 5783 H 524.045 6.9383 -0.59775 0
M  V30 5784 H 521.672 7.53889 -0.977489 0
M  V30 5785 N 523.247 -0.488276 1.49845 0
M  V30 5786 C 524.493 -1.24341 1.6021 0
M  V30 5787 C 524.826 -1.91967 0.293651 0
M  V30 5788 O 524.101 -1.81323 -0.703718 0
M  V30 5789 C 524.384 -2.3005 2.77036 0
M  V30 5790 C 524.237 -1.66842 4.17713 0
M  V30 5791 C 525.556 -3.31509 2.89464 0
M  V30 5792 H 522.675 -0.450704 0.583125 0
M  V30 5793 H 525.317 -0.539673 1.82174 0
M  V30 5794 H 523.467 -2.90071 2.58439 0
M  V30 5795 H 525.139 -1.1055 4.47858 0
M  V30 5796 H 523.382 -0.972079 4.22768 0
M  V30 5797 H 524.053 -2.43576 4.95353 0
M  V30 5798 H 526.529 -2.81493 3.06433 0
M  V30 5799 H 525.405 -4.02822 3.72861 0
M  V30 5800 H 525.666 -3.94603 1.99351 0
M  V30 5801 N 524.725 -1.39134 -0.740242 0
M  V30 5802 C 525.673 -1.3757 -1.87556 0
M  V30 5803 C 526.667 -0.259593 -1.67399 0
M  V30 5804 O 527.873 -0.429349 -1.74804 0
M  V30 5805 H 524.248 -0.42947 -0.6173 0
M  V30 5806 H 526.219 -2.33345 -1.85991 0
M  V30 5807 C 524.968 -1.23087 -3.25184 0
M  V30 5808 H 524.291 -2.08237 -3.41288 0
M  V30 5809 H 525.731 -1.26049 -4.0483 0
M  V30 5810 C 524.19 0.0611471 -3.36845 0
M  V30 5811 O 524.72 1.03328 -3.88183 0
M  V30 5812 N 522.926 0.122454 -2.90342 0
M  V30 5813 H 522.473 -0.669329 -2.48752 0
M  V30 5814 H 522.431 0.986463 -2.98523 0
M  V30 5815 N 526.204 0.969867 -1.24223 0
M  V30 5816 C 527.45 1.7151 -1.08223 0
M  V30 5817 C 527.783 1.90478 0.37838 0
M  V30 5818 O 527.058 1.4647 1.27971 0
M  V30 5819 C 527.341 3.10714 -1.82013 0
M  V30 5820 C 527.194 2.9925 -3.35811 0
M  V30 5821 C 528.513 4.10332 -1.59108 0
M  V30 5822 H 525.632 0.622499 -0.394543 0
M  V30 5823 H 528.274 1.1284 -1.52863 0
M  V30 5824 H 526.424 3.608 -1.44068 0
M  V30 5825 H 528.096 2.56608 -3.83341 0
M  V30 5826 H 526.339 2.35512 -3.64303 0
M  V30 5827 H 527.01 3.97857 -3.82641 0
M  V30 5828 H 529.486 3.69097 -1.92111 0
M  V30 5829 H 528.362 5.05804 -2.13198 0
M  V30 5830 H 528.623 4.38926 -0.528832 0
M  V30 5831 N 527.682 1.05563 1.17022 0
M  V30 5832 C 528.93 0.76642 1.87004 0
M  V30 5833 C 529.251 -0.708854 1.8166 0
M  V30 5834 O 528.521 -1.51242 1.2451 0
M  V30 5835 H 527.101 0.280516 0.692329 0
M  V30 5836 H 529.763 1.33557 1.41945 0
M  V30 5837 H 528.859 1.08472 2.92644 0
M  V30 5838 N 529.16 -1.33526 0.837174 0
M  V30 5839 C 530.408 -1.97446 0.431211 0
M  V30 5840 C 530.729 -1.6665 -1.01255 0
M  V30 5841 O 529.999 -0.964559 -1.70508 0
M  V30 5842 H 528.579 -0.73043 0.156463 0
M  V30 5843 H 531.241 -1.62918 1.06976 0
M  V30 5844 H 530.337 -3.07001 0.561877 0
M  V30 5845 N 530.638 -0.59345 -1.46 0
M  V30 5846 C 531.884 -0.0832754 -2.02629 0
M  V30 5847 C 532.217 1.27749 -1.46266 0
M  V30 5848 O 531.492 1.8395 -0.631866 0
M  V30 5849 C 531.775 -0.0290756 -3.60088 0
M  V30 5850 C 531.628 -1.41951 -4.26814 0
M  V30 5851 C 532.947 0.666055 -4.35031 0
M  V30 5852 H 530.066 -0.031736 -0.736316 0
M  V30 5853 H 532.708 -0.762711 -1.74019 0
M  V30 5854 H 530.858 0.549532 -3.84594 0
M  V30 5855 H 532.53 -2.04411 -4.13538 0
M  V30 5856 H 530.773 -1.98422 -3.8576 0
M  V30 5857 H 531.444 -1.33395 -5.3564 0
M  V30 5858 H 533.92 0.174401 -4.15734 0
M  V30 5859 H 532.796 0.673041 -5.44758 0
M  V30 5860 H 533.057 1.72946 -4.06869 0
M  V30 5861 N 532.116 1.54067 -0.331816 0
M  V30 5862 C 533.079 2.23275 0.517768 0
M  V30 5863 C 534.079 1.22897 1.03697 0
M  V30 5864 O 535.269 1.47419 0.928084 0
M  V30 5865 C 532.401 2.94326 1.72004 0
M  V30 5866 H 533.594 2.99773 -0.0873507 0
M  V30 5867 H 531.147 1.56079 -0.0830042 0
M  V30 5868 H 531.882 2.21986 2.36417 0
M  V30 5869 H 531.667 3.67941 1.35507 0
M  V30 5870 H 533.157 3.47031 2.32291 0
M  V30 5871 N 533.594 0.0601682 1.57485 0
M  V30 5872 C 534.527 -0.94676 2.07634 0
M  V30 5873 C 535.505 -1.29837 0.978826 0
M  V30 5874 O 536.689 -1.40969 1.2514 0
M  V30 5875 C 533.816 -2.25822 2.52433 0
M  V30 5876 C 532.862 -2.05901 3.73507 0
M  V30 5877 S 533.695 -1.32907 5.18745 0
M  V30 5878 C 534.851 -2.65356 5.66866 0
M  V30 5879 H 535.084 -0.520003 2.92717 0
M  V30 5880 H 532.617 -0.152319 1.53647 0
M  V30 5881 H 534.575 -3.01201 2.78905 0
M  V30 5882 H 533.236 -2.65624 1.67639 0
M  V30 5883 H 532.429 -3.02929 4.02803 0
M  V30 5884 H 532.031 -1.38659 3.47347 0
M  V30 5885 H 534.323 -3.61492 5.73001 0
M  V30 5886 H 535.266 -2.40685 6.6594 0
M  V30 5887 H 535.674 -2.72028 4.94632 0
M  V30 5888 N 535.072 -1.5615 -0.213296 0
M  V30 5889 C 536.488 -1.49327 -0.56336 0
M  V30 5890 C 536.688 -0.756826 -1.86747 0
M  V30 5891 O 535.744 -0.299866 -2.50713 0
M  V30 5892 C 537.057 -2.9392 -0.634944 0
M  V30 5893 C 538.605 -3.04487 -0.725013 0
M  V30 5894 C 539.08 -4.50456 -0.82787 0
M  V30 5895 N 540.571 -4.54533 -0.891876 0
M  V30 5896 C 541.306 -5.64766 -0.991315 0
M  V30 5897 N 540.802 -6.84733 -1.05419 0
M  V30 5898 N 542.595 -5.52637 -1.02709 0
M  V30 5899 H 534.746 -2.02453 0.642366 0
M  V30 5900 H 537.009 -0.920548 0.226487 0
M  V30 5901 H 536.715 -3.50783 0.253859 0
M  V30 5902 H 536.589 -3.46274 -1.49579 0
M  V30 5903 H 538.976 -2.47685 -1.60425 0
M  V30 5904 H 539.057 -2.55289 0.161669 0
M  V30 5905 H 538.701 -5.07878 0.0469464 0
M  V30 5906 H 538.631 -4.97369 -1.73009 0
M  V30 5907 H 541.122 -3.68141 -0.85327 0
M  V30 5908 H 541.435 -7.64493 -1.13007 0
M  V30 5909 H 539.78 -6.87427 -1.02318 0
M  V30 5910 H 542.971 -4.5784 -0.974687 0
M  V30 5911 H 543.144 -6.38576 -1.10113 0
M  V30 5912 N 536.55 0.480323 -1.50102 0
M  V30 5913 C 537.46 1.60547 -1.71061 0
M  V30 5914 C 538.476 1.63564 -0.593529 0
M  V30 5915 O 539.652 1.81604 -0.870751 0
M  V30 5916 C 536.717 2.96814 -1.79171 0
M  V30 5917 C 535.778 3.04259 -3.02861 0
M  V30 5918 C 535.011 4.34027 -3.10574 0
M  V30 5919 O 535.234 5.24009 -2.25323 0
M  V30 5920 O 534.168 4.46873 -4.03223 0
M  V30 5921 H 537.994 1.45788 -2.6642 0
M  V30 5922 H 535.579 0.658838 -1.34088 0
M  V30 5923 H 537.461 3.77765 -1.86738 0
M  V30 5924 H 536.136 3.11791 -0.869947 0
M  V30 5925 H 535.043 2.22419 -3.008 0
M  V30 5926 H 536.376 2.94216 -3.94586 0
M  V30 5927 N 538.028 1.39524 0.732853 0
M  V30 5928 C 539.277 1.36175 1.48792 0
M  V30 5929 C 539.59 -0.0388195 1.95561 0
M  V30 5930 O 540.796 -0.194899 2.708 0
M  V30 5931 C 539.252 2.39242 2.68871 0
M  V30 5932 C 538.86 3.85024 2.29042 0
M  V30 5933 C 540.604 2.44972 3.46683 0
M  V30 5934 C 538.511 4.79727 3.45856 0
M  V30 5935 H 537.441 0.506267 0.558757 0
M  V30 5936 H 540.092 1.65181 0.799226 0
M  V30 5937 H 538.474 2.0331 3.39825 0
M  V30 5938 H 539.648 4.30008 1.6562 0
M  V30 5939 H 537.963 3.82609 1.64316 0
M  V30 5940 H 540.56 3.12918 4.33574 0
M  V30 5941 H 540.903 1.4749 3.89297 0
M  V30 5942 H 541.436 2.79808 2.82759 0
M  V30 5943 H 538.175 5.78479 3.08289 0
M  V30 5944 H 537.695 4.39421 4.08251 0
M  V30 5945 H 539.374 4.98731 4.12161 0
M  V30 5946 N 539.506 -0.963266 1.24736 0
M  V30 5947 C 540.736 -1.73913 1.11524 0
M  V30 5948 C 541.144 -1.86218 -0.334612 0
M  V30 5949 O 540.487 -1.3531 -1.24245 0
M  V30 5950 C 540.549 -3.17501 1.68622 0
M  V30 5951 C 540.213 -3.28655 3.17546 0
M  V30 5952 C 541.21 -3.13637 4.14642 0
M  V30 5953 C 538.895 -3.52753 3.5759 0
M  V30 5954 C 540.889 -3.2255 5.49764 0
M  V30 5955 C 538.576 -3.61303 4.92852 0
M  V30 5956 C 539.574 -3.46214 5.88748 0
M  V30 5957 O 539.262 -3.5443 7.2155 0
M  V30 5958 H 538.994 -0.552057 0.390139 0
M  V30 5959 H 541.548 -1.2177 1.65412 0
M  V30 5960 H 539.778 -3.70969 1.09172 0
M  V30 5961 H 541.467 -3.76914 1.50635 0
M  V30 5962 H 542.233 -2.94899 3.85045 0
M  V30 5963 H 538.112 -3.63561 2.83451 0
M  V30 5964 H 541.656 -3.1069 6.24594 0
M  V30 5965 H 537.553 -3.79556 5.22118 0
M  V30 5966 H 538.321 -3.71116 7.29531 0
M  V30 5967 N 540.985 -1.06182 -1.16461 0
M  V30 5968 C 542.262 -0.691364 -1.82974 0
M  V30 5969 C 542.642 0.827377 -1.9421 0
M  V30 5970 O 541.99 1.73723 -1.48434 0
M  V30 5971 C 542.2 -1.39199 -3.20038 0
M  V30 5972 C 543.548 -1.53647 -3.95825 0
M  V30 5973 O 544.572 -1.35181 -3.29552 0
M  V30 5974 O 543.431 -1.83932 -5.14618 0
M  V30 5975 H 540.525 -0.244605 -0.789998 0
M  V30 5976 H 543.071 -1.16203 -1.23673 0
M  V30 5977 H 541.843 -2.42766 -3.06888 0
M  V30 5978 H 541.466 -0.911335 -3.87015 0
M  V30 5979 N 542.463 1.3308 -0.844243 0
M  V30 5980 C 543.71 1.97605 -0.44255 0
M  V30 5981 C 544.038 1.66856 0.999458 0
M  V30 5982 O 543.293 0.943586 1.7145 0
M  V30 5983 C 543.592 3.52045 -0.616354 0
M  V30 5984 C 543.258 4.02757 -2.02726 0
M  V30 5985 C 541.92 4.16316 -2.41317 0
M  V30 5986 C 544.272 4.29776 -2.9486 0
M  V30 5987 C 541.6 4.54232 -3.71335 0
M  V30 5988 C 543.952 4.69146 -4.24364 0
M  V30 5989 C 542.616 4.80911 -4.62904 0
M  V30 5990 H 541.886 0.723088 -0.161941 0
M  V30 5991 H 544.533 1.58663 -1.0723 0
M  V30 5992 H 542.838 3.91681 0.0966812 0
M  V30 5993 H 544.535 3.99981 -0.285756 0
M  V30 5994 H 541.125 3.9268 -1.71756 0
M  V30 5995 H 545.309 4.18818 -2.6628 0
M  V30 5996 H 540.565 4.61535 -4.00993 0
M  V30 5997 H 544.739 4.89008 -4.95827 0
M  V30 5998 H 542.366 5.10048 -5.63698 0
M  V30 5999 N 543.941 0.601185 1.45683 0
M  V30 6000 C 544.874 -0.17013 2.27565 0
M  V30 6001 C 545.852 -0.879661 1.36751 0
M  V30 6002 O 547.036 -0.889827 1.66176 0
M  V30 6003 C 544.163 -1.24568 3.14961 0
M  V30 6004 C 543.209 -0.639978 4.21671 0
M  V30 6005 S 544.042 0.547275 5.32696 0
M  V30 6006 C 545.198 -0.529019 6.2366 0
M  V30 6007 H 545.431 0.524583 2.92635 0
M  V30 6008 H 542.964 0.388537 1.49431 0
M  V30 6009 H 544.922 -1.86138 3.65873 0
M  V30 6010 H 543.583 -1.91243 2.49169 0
M  V30 6011 H 542.776 -1.44903 4.8272 0
M  V30 6012 H 542.378 -0.0995558 3.73867 0
M  V30 6013 H 544.67 -1.40981 6.62669 0
M  V30 6014 H 545.613 0.0451599 7.08086 0
M  V30 6015 H 546.021 -0.84147 5.58193 0
M  V30 6016 N 545.419 -1.53889 0.339982 0
M  V30 6017 C 546.696 -1.93084 -0.312719 0
M  V30 6018 C 547.076 -1.2712 -1.68534 0
M  V30 6019 O 546.424 -0.420835 -2.24591 0
M  V30 6020 C 546.634 -3.4683 -0.388558 0
M  V30 6021 C 547.982 -4.19732 -0.641088 0
M  V30 6022 O 549.006 -3.53075 -0.470818 0
M  V30 6023 O 547.865 -5.3781 -0.970685 0
M  V30 6024 H 544.959 -0.806784 -0.18174 0
M  V30 6025 H 547.505 -1.65137 0.390898 0
M  V30 6026 H 546.277 -3.87055 0.574821 0
M  V30 6027 H 545.9 -3.80933 -1.1391 0
M  V30 6028 N 546.897 -0.0685191 -1.57451 0
M  V30 6029 C 548.174 0.642167 -1.84758 0
M  V30 6030 C 548.554 1.87991 -0.960344 0
M  V30 6031 O 547.902 2.28485 -0.0257894 0
M  V30 6032 C 548.112 0.982946 -3.34872 0
M  V30 6033 C 549.46 1.35784 -4.02303 0
M  V30 6034 O 550.484 1.07477 -3.39598 0
M  V30 6035 O 549.343 1.88681 -5.12895 0
M  V30 6036 H 546.437 0.318625 -0.763156 0
M  V30 6037 H 548.983 -0.0992015 -1.6941 0
M  V30 6038 H 547.755 0.10372 -3.91163 0
M  V30 6039 H 547.378 1.78119 -3.55471 0
M  V30 6040 N 548.375 1.56261 0.205012 0
M  V30 6041 C 549.786 1.70056 0.770574 0
M  V30 6042 C 550.137 0.673398 1.84282 0
M  V30 6043 O 549.262 -0.172196 2.15714 0
M  V30 6044 C 549.857 3.08316 1.40451 0
M  V30 6045 C 548.416 3.2391 1.91727 0
M  V30 6046 C 547.563 2.66001 0.783516 0
M  V30 6047 H 550.514 1.58688 -0.019911 0
M  V30 6048 H 550.535 3.05094 2.27371 0
M  V30 6049 H 550.047 3.83053 0.623882 0
M  V30 6050 H 548.148 2.54072 2.7254 0
M  V30 6051 H 548.261 4.3131 2.08588 0
M  V30 6052 H 546.625 2.24915 1.19521 0
M  V30 6053 H 547.408 3.43297 0.0152883 0
M  V30 6054 N 549.853 -0.472356 1.50355 0
M  V30 6055 C 550.8 -1.57051 1.69126 0
M  V30 6056 C 551.77 -1.5733 0.532574 0
M  V30 6057 O 552.955 -1.7488 0.762994 0
M  V30 6058 C 550.095 -2.95033 1.79024 0
M  V30 6059 C 549.208 -3.04552 3.06386 0
M  V30 6060 C 548.343 -4.33441 3.07087 0
M  V30 6061 C 547.382 -4.36697 4.28908 0
M  V30 6062 N 546.519 -5.57056 4.27356 0
M  V30 6063 H 551.359 -1.40351 2.62879 0
M  V30 6064 H 548.896 -0.682403 1.30314 0
M  V30 6065 H 550.854 -3.75048 1.82744 0
M  V30 6066 H 549.484 -3.10371 0.887109 0
M  V30 6067 H 548.536 -2.17419 3.12143 0
M  V30 6068 H 549.848 -3.02818 3.96362 0
M  V30 6069 H 549.002 -5.21801 3.09529 0
M  V30 6070 H 547.741 -4.37782 2.14939 0
M  V30 6071 H 546.746 -3.46734 4.2668 0
M  V30 6072 H 547.971 -4.34049 5.22282 0
M  V30 6073 H 545.917 -5.62184 3.3806 0
M  V30 6074 H 545.834 -5.57058 5.111 0
M  V30 6075 H 547.102 -6.47545 4.33942 0
M  V30 6076 N 551.331 -1.39911 -0.725443 0
M  V30 6077 C 552.742 -1.33599 -1.30415 0
M  V30 6078 C 553.093 -0.00481792 -1.96199 0
M  V30 6079 O 552.218 0.897275 -1.96921 0
M  V30 6080 C 552.813 -2.41965 -2.37146 0
M  V30 6081 C 551.372 -2.39144 -2.90667 0
M  V30 6082 C 550.519 -2.23355 -1.64341 0
M  V30 6083 H 553.47 -1.4986 -0.522267 0
M  V30 6084 H 553.491 -2.09304 -3.17761 0
M  V30 6085 H 553.003 -3.38837 -1.89238 0
M  V30 6086 H 551.104 -1.4594 -3.4283 0
M  V30 6087 H 551.217 -3.34362 -3.43131 0
M  V30 6088 H 549.581 -1.70696 -1.89037 0
M  V30 6089 H 550.364 -3.2221 -1.18471 0
M  V30 6090 N 552.809 0.956637 -1.25245 0
M  V30 6091 C 553.759 2.03841 -1.02141 0
M  V30 6092 C 554.743 1.60848 0.0410058 0
M  V30 6093 O 555.935 1.76142 -0.174084 0
M  V30 6094 C 553.064 3.37282 -0.639963 0
M  V30 6095 C 552.15 3.86805 -1.73903 0
M  V30 6096 N 552.541 4.09143 -2.97381 0
M  V30 6097 C 550.839 4.15574 -1.61909 0
M  V30 6098 C 551.54 4.49923 -3.68707 0
M  V30 6099 N 550.516 4.55737 -2.96318 0
M  V30 6100 H 554.318 2.19102 -1.95886 0
M  V30 6101 H 551.832 1.1413 -1.15534 0
M  V30 6102 H 553.829 4.14403 -0.455643 0
M  V30 6103 H 552.489 3.23401 0.29018 0
M  V30 6104 H 553.5 3.96275 -3.33447 0
M  V30 6105 H 550.177 4.10566 -0.757764 0
M  V30 6106 H 551.567 4.75526 -4.74684 0
M  V30 6107 N 554.287 1.06798 1.15896 0
M  V30 6108 C 555.234 0.683314 2.20453 0
M  V30 6109 C 556.204 -0.32255 1.62938 0
M  V30 6110 O 557.389 -0.210276 1.89638 0
M  V30 6111 C 554.529 0.0813266 3.45004 0
M  V30 6112 C 553.642 1.13799 4.16742 0
M  V30 6113 C 552.777 0.501598 5.28826 0
M  V30 6114 C 551.816 1.54144 5.92373 0
M  V30 6115 N 550.953 0.928038 6.9594 0
M  V30 6116 H 555.793 1.57932 2.52708 0
M  V30 6117 H 553.33 0.789544 1.24115 0
M  V30 6118 H 555.288 -0.285274 4.16224 0
M  V30 6119 H 553.918 -0.77806 3.13283 0
M  V30 6120 H 552.97 1.62223 3.44075 0
M  V30 6121 H 554.282 1.92664 4.60089 0
M  V30 6122 H 553.436 0.0823162 6.06644 0
M  V30 6123 H 552.175 -0.318883 4.86656 0
M  V30 6124 H 551.18 1.97056 5.13273 0
M  V30 6125 H 552.405 2.3641 6.36621 0
M  V30 6126 H 550.351 0.12836 6.55874 0
M  V30 6127 H 550.268 1.65401 7.37685 0
M  V30 6128 H 551.536 0.534071 7.77668 0
M  V30 6129 N 555.766 -1.3263 0.851289 0
M  V30 6130 C 556.713 -2.28952 0.291469 0
M  V30 6131 C 557.683 -1.54897 -0.599676 0
M  V30 6132 O 558.868 -1.83137 -0.535305 0
M  V30 6133 C 556.008 -3.41206 -0.516992 0
M  V30 6134 C 555.121 -4.30148 0.399566 0
M  V30 6135 C 554.256 -5.29527 -0.4212 0
M  V30 6136 C 553.295 -6.10112 0.492969 0
M  V30 6137 N 552.432 -7.01499 -0.290414 0
M  V30 6138 H 557.272 -2.76228 1.11813 0
M  V30 6139 H 554.809 -1.35907 0.562826 0
M  V30 6140 H 556.767 -4.05005 -1.00132 0
M  V30 6141 H 555.397 -2.9509 -1.30851 0
M  V30 6142 H 554.449 -3.66959 1.00227 0
M  V30 6143 H 555.761 -4.8649 1.1013 0
M  V30 6144 H 554.915 -5.98914 -0.968832 0
M  V30 6145 H 553.654 -4.73794 -1.15632 0
M  V30 6146 H 552.659 -5.39632 1.05251 0
M  V30 6147 H 553.884 -6.6793 1.22664 0
M  V30 6148 H 551.83 -6.48199 -1.00868 0
M  V30 6149 H 551.747 -7.55178 0.352354 0
M  V30 6150 H 553.015 -7.75176 -0.819882 0
M  V30 6151 N 557.244 -0.608902 -1.45362 0
M  V30 6152 C 558.174 0.0964526 -2.33301 0
M  V30 6153 C 559.155 0.857444 -1.46908 0
M  V30 6154 O 560.34 0.827735 -1.75676 0
M  V30 6155 C 557.47 1.09354 -3.29635 0
M  V30 6156 C 556.424 0.445676 -4.25673 0
M  V30 6157 C 555.75 1.5511 -5.11708 0
M  V30 6158 C 557.05 -0.633972 -5.18438 0
M  V30 6159 H 558.744 -0.637829 -2.92527 0
M  V30 6160 H 556.29 -0.308178 -1.40664 0
M  V30 6161 H 558.243 1.59556 -3.90025 0
M  V30 6162 H 556.967 1.85843 -2.6857 0
M  V30 6163 H 555.626 -0.0354897 -3.66583 0
M  V30 6164 H 555.274 2.30631 -4.4701 0
M  V30 6165 H 554.974 1.12311 -5.76767 0
M  V30 6166 H 556.498 2.05537 -5.74967 0
M  V30 6167 H 557.912 -0.215974 -5.72893 0
M  V30 6168 H 556.309 -0.983789 -5.91981 0
M  V30 6169 H 557.379 -1.51005 -4.60788 0
M  V30 6170 N 558.722 1.53707 -0.348139 0
M  V30 6171 C 559.97 2.00591 0.246478 0
M  V30 6172 C 560.291 1.23753 1.50699 0
M  V30 6173 O 559.561 0.345964 1.92821 0
M  V30 6174 H 558.141 0.741053 0.0940679 0
M  V30 6175 H 560.803 1.89139 -0.470354 0
M  V30 6176 H 559.899 3.08297 0.485714 0
M  V30 6177 N 560.2 0.0768682 1.57412 0
M  V30 6178 C 561.611 -0.455037 1.8107 0
M  V30 6179 C 561.962 -1.69323 0.991162 0
M  V30 6180 O 561.087 -2.15328 0.215156 0
M  V30 6181 C 561.682 -0.832316 3.28417 0
M  V30 6182 C 560.241 -1.30906 3.52903 0
M  V30 6183 C 559.388 -0.296714 2.75708 0
M  V30 6184 H 562.339 0.302514 1.5579 0
M  V30 6185 H 562.36 -1.69333 3.40744 0
M  V30 6186 H 561.872 0.0690532 3.88039 0
M  V30 6187 H 559.973 -2.22875 2.98592 0
M  V30 6188 H 560.086 -1.28348 4.61588 0
M  V30 6189 H 558.45 -0.775059 2.42621 0
M  V30 6190 H 559.233 0.597015 3.38069 0
M  V30 6191 N 561.678 -1.56367 -0.196722 0
M  V30 6192 C 562.61 -1.90941 -1.26784 0
M  V30 6193 C 563.623 -0.799928 -1.41792 0
M  V30 6194 O 564.812 -1.07833 -1.42247 0
M  V30 6195 C 561.912 -2.12477 -2.6402 0
M  V30 6196 C 561.085 -3.43616 -2.70641 0
M  V30 6197 C 560.144 -3.54284 -3.89062 0
M  V30 6198 O 559.17 -4.2712 -3.76241 0
M  V30 6199 N 560.372 -2.87252 -5.04447 0
M  V30 6200 H 563.137 -2.83417 -0.974417 0
M  V30 6201 H 560.698 -1.57215 -0.386649 0
M  V30 6202 H 562.69 -2.16904 -3.41665 0
M  V30 6203 H 561.26 -1.26508 -2.85857 0
M  V30 6204 H 560.48 -3.51072 -1.79283 0
M  V30 6205 H 561.768 -4.29958 -2.72054 0
M  V30 6206 H 561.166 -2.27901 -5.17762 0
M  V30 6207 H 559.723 -2.97308 -5.80044 0
M  V30 6208 N 563.156 0.464375 -1.50603 0
M  V30 6209 C 564.119 1.54393 -1.69397 0
M  V30 6210 C 565.119 1.50566 -0.564504 0
M  V30 6211 O 566.309 1.53066 -0.831645 0
M  V30 6212 C 563.441 2.9401 -1.72543 0
M  V30 6213 H 564.634 1.39044 -2.65719 0
M  V30 6214 H 562.187 0.69122 -1.40185 0
M  V30 6215 H 562.922 3.14795 -0.77938 0
M  V30 6216 H 562.707 2.98195 -2.54602 0
M  V30 6217 H 564.197 3.72375 -1.89015 0
M  V30 6218 N 564.634 1.40294 0.718013 0
M  V30 6219 C 565.88 1.39648 1.47885 0
M  V30 6220 C 566.235 -0.0023879 1.924 0
M  V30 6221 O 565.528 -0.972304 1.65096 0
M  V30 6222 C 565.722 2.31814 2.72024 0
M  V30 6223 C 565.551 3.80523 2.3965 0
M  V30 6224 C 564.321 4.49351 2.3111 0
M  V30 6225 C 566.519 4.72077 2.04079 0
M  V30 6226 N 564.501 5.83305 1.91385 0
M  V30 6227 C 565.872 5.94809 1.74935 0
M  V30 6228 C 567.927 4.59935 1.90694 0
M  V30 6229 C 566.63 7.06755 1.33753 0
M  V30 6230 C 568.656 5.7182 1.50915 0
M  V30 6231 C 568.018 6.93637 1.22668 0
M  V30 6232 H 564.117 0.566263 0.539324 0
M  V30 6233 H 566.701 1.75986 0.832891 0
M  V30 6234 H 564.872 1.97607 3.34374 0
M  V30 6235 H 566.604 2.22042 3.38348 0
M  V30 6236 H 563.359 4.03002 2.4877 0
M  V30 6237 H 563.783 6.54239 1.74068 0
M  V30 6238 H 568.425 3.66274 2.11194 0
M  V30 6239 H 566.143 8.00302 1.11995 0
M  V30 6240 H 569.729 5.64421 1.4114 0
M  V30 6241 H 568.609 7.78743 0.923502 0
M  V30 6242 N 566.112 -0.949982 1.2575 0
M  V30 6243 C 567.042 -2.06483 1.09028 0
M  V30 6244 C 568.023 -1.701 -0.00201532 0
M  V30 6245 O 569.208 -1.93469 0.168383 0
M  V30 6246 C 566.338 -3.39899 0.71316 0
M  V30 6247 C 565.292 -3.90309 1.75621 0
M  V30 6248 C 564.618 -5.20274 1.23365 0
M  V30 6249 C 565.918 -4.16169 3.15596 0
M  V30 6250 H 567.612 -2.20731 2.02283 0
M  V30 6251 H 565.158 -1.06066 0.973964 0
M  V30 6252 H 567.111 -4.17346 0.58309 0
M  V30 6253 H 565.835 -3.25602 -0.255091 0
M  V30 6254 H 564.494 -3.15035 1.8748 0
M  V30 6255 H 564.142 -5.02351 0.255491 0
M  V30 6256 H 563.842 -5.54971 1.93082 0
M  V30 6257 H 565.366 -6.00314 1.11607 0
M  V30 6258 H 566.78 -4.84259 3.06864 0
M  V30 6259 H 565.177 -4.62131 3.82825 0
M  V30 6260 H 566.247 -3.22273 3.6231 0
M  V30 6261 N 567.59 -1.07411 -1.15328 0
M  V30 6262 C 568.836 -0.798831 -1.86404 0
M  V30 6263 C 569.169 0.673433 -1.8215 0
M  V30 6264 O 568.444 1.49428 -1.24505 0
M  V30 6265 C 568.727 -1.30846 -3.35487 0
M  V30 6266 C 568.58 -2.84532 -3.4837 0
M  V30 6267 C 569.899 -0.925486 -4.30259 0
M  V30 6268 H 567.018 -0.291659 -0.676834 0
M  V30 6269 H 569.66 -1.332 -1.35491 0
M  V30 6270 H 567.81 -0.854916 -3.78977 0
M  V30 6271 H 569.482 -3.3818 -3.13739 0
M  V30 6272 H 567.725 -3.22699 -2.8991 0
M  V30 6273 H 568.396 -3.15259 -4.53118 0
M  V30 6274 H 570.872 -1.3163 -3.94731 0
M  V30 6275 H 569.748 -1.3094 -5.33053 0
M  V30 6276 H 570.009 0.168525 -4.41779 0
M  V30 6277 N 569.068 1.32177 -0.85831 0
M  V30 6278 C 570.031 2.27086 -0.310588 0
M  V30 6279 C 571.031 1.51751 0.531806 0
M  V30 6280 O 572.221 1.70794 0.34279 0
M  V30 6281 C 569.353 3.36266 0.560179 0
M  V30 6282 H 570.546 2.77045 -1.1483 0
M  V30 6283 H 568.099 1.42911 -0.632942 0
M  V30 6284 H 568.834 2.9158 1.41956 0
M  V30 6285 H 568.619 3.92077 -0.0428473 0
M  V30 6286 H 570.109 4.06974 0.936056 0
M  V30 6287 N 570.547 0.616602 1.45037 0
M  V30 6288 C 571.51 -0.0871112 2.29034 0
M  V30 6289 C 572.51 -0.786414 1.40258 0
M  V30 6290 O 573.7 -0.633207 1.62284 0
M  V30 6291 C 570.832 -1.13369 3.21497 0
M  V30 6292 H 572.025 0.651497 2.92738 0
M  V30 6293 H 569.578 0.376058 1.51709 0
M  V30 6294 H 570.313 -1.90277 2.62612 0
M  V30 6295 H 570.098 -0.636358 3.86902 0
M  V30 6296 H 571.588 -1.62627 3.84633 0
M  V30 6297 N 572.025 -1.5352 0.356285 0
M  V30 6298 C 573.274 -2.00298 -0.237373 0
M  V30 6299 C 573.587 -1.24784 -1.50627 0
M  V30 6300 O 574.793 -1.62103 -2.17795 0
M  V30 6301 C 573.249 -3.56771 -0.473545 0
M  V30 6302 C 572.857 -4.41154 0.780183 0
M  V30 6303 C 574.601 -4.1193 -1.02537 0
M  V30 6304 C 572.508 -5.89161 0.514108 0
M  V30 6305 H 571.438 -0.748307 -0.092478 0
M  V30 6306 H 574.089 -1.77283 0.473588 0
M  V30 6307 H 572.471 -3.75902 -1.24553 0
M  V30 6308 H 573.645 -4.33797 1.55425 0
M  V30 6309 H 571.96 -3.97052 1.25455 0
M  V30 6310 H 574.557 -5.20133 -1.2396 0
M  V30 6311 H 574.9 -3.65943 -1.98473 0
M  V30 6312 H 575.433 -3.96561 -0.313775 0
M  V30 6313 H 572.172 -6.39408 1.44355 0
M  V30 6314 H 571.692 -5.9939 -0.221632 0
M  V30 6315 H 573.371 -6.46857 0.136122 0
M  V30 6316 N 573.503 -0.0852151 -1.57369 0
M  V30 6317 C 574.731 0.58946 -1.98325 0
M  V30 6318 C 575.146 1.62333 -0.96403 0
M  V30 6319 O 574.503 1.82438 0.0476395 0
M  V30 6320 C 574.554 1.24604 -3.39347 0
M  V30 6321 O 574.275 0.253532 -4.37366 0
M  V30 6322 C 575.776 2.00726 -3.95252 0
M  V30 6323 H 572.996 0.158783 -0.651942 0
M  V30 6324 H 575.54 -0.161584 -2.03861 0
M  V30 6325 H 573.695 1.94808 -3.34856 0
M  V30 6326 H 574.109 0.726207 -5.19448 0
M  V30 6327 H 575.583 2.42039 -4.96106 0
M  V30 6328 H 576.06 2.86919 -3.32527 0
M  V30 6329 H 576.666 1.3536 -4.03185 0
M  V30 6330 N 574.981 1.5647 0.188427 0
M  V30 6331 C 575.944 1.9421 1.21718 0
M  V30 6332 C 576.944 0.823901 1.38089 0
M  V30 6333 O 578.134 1.09122 1.35787 0
M  V30 6334 C 575.266 2.22197 2.58537 0
M  V30 6335 H 576.459 2.86252 0.894418 0
M  V30 6336 H 574.012 1.50263 0.430211 0
M  V30 6337 H 574.747 1.32814 2.95856 0
M  V30 6338 H 574.532 3.03688 2.48025 0
M  V30 6339 H 576.022 2.52376 3.3271 0
M  V30 6340 N 576.459 -0.456382 1.50847 0
M  V30 6341 C 577.687 -1.23026 1.66349 0
M  V30 6342 C 578.102 -1.85473 0.352868 0
M  V30 6343 O 577.459 -1.69885 -0.666739 0
M  V30 6344 C 577.51 -2.32827 2.76539 0
M  V30 6345 O 577.231 -1.72938 4.02522 0
M  V30 6346 C 578.732 -3.23448 3.03144 0
M  V30 6347 H 575.952 -0.371527 0.558756 0
M  V30 6348 H 578.496 -0.543082 1.97157 0
M  V30 6349 H 576.651 -2.97294 2.48384 0
M  V30 6350 H 577.065 -2.45357 4.63573 0
M  V30 6351 H 578.539 -3.96669 3.83872 0
M  V30 6352 H 579.016 -3.83094 2.14793 0
M  V30 6353 H 579.622 -2.64702 3.32886 0
M  V30 6354 N 577.937 -1.40673 -0.710563 0
M  V30 6355 C 578.847 -1.43663 -1.85467 0
M  V30 6356 C 579.863 -0.328721 -1.70867 0
M  V30 6357 O 581.039 -0.574098 -1.93044 0
M  V30 6358 C 578.104 -1.30226 -3.21313 0
M  V30 6359 C 577.165 -2.51204 -3.48131 0
M  V30 6360 C 576.398 -2.38398 -4.77495 0
M  V30 6361 O 576.621 -1.40048 -5.5294 0
M  V30 6362 O 575.555 -3.2787 -5.04762 0
M  V30 6363 H 579.381 -2.40156 -1.859 0
M  V30 6364 H 576.966 -1.22049 -0.861652 0
M  V30 6365 H 578.848 -1.2496 -4.02446 0
M  V30 6366 H 577.523 -0.368419 -3.21597 0
M  V30 6367 H 576.43 -2.62048 -2.66987 0
M  V30 6368 H 577.763 -3.43366 -3.52648 0
M  V30 6369 N 579.415 0.9433 -1.26252 0
M  V30 6370 C 580.345 2.05902 -1.10122 0
M  V30 6371 C 581.326 1.70099 -0.00700552 0
M  V30 6372 O 582.511 1.93377 -0.178641 0
M  V30 6373 C 579.641 3.39516 -0.731175 0
M  V30 6374 C 578.595 3.89372 -1.77688 0
M  V30 6375 C 577.921 5.19613 -1.26122 0
M  V30 6376 C 579.221 4.14489 -3.17799 0
M  V30 6377 H 580.915 2.19655 -2.03451 0
M  V30 6378 H 578.461 1.05548 -0.979576 0
M  V30 6379 H 580.414 4.17031 -0.605215 0
M  V30 6380 H 579.138 3.25733 0.23782 0
M  V30 6381 H 577.797 3.14036 -1.89148 0
M  V30 6382 H 577.445 5.02208 -0.282128 0
M  V30 6383 H 577.145 5.53939 -1.96023 0
M  V30 6384 H 578.669 5.99713 -1.14789 0
M  V30 6385 H 580.083 4.82625 -3.09428 0
M  V30 6386 H 578.48 4.60094 -3.85271 0
M  V30 6387 H 579.55 3.20347 -3.64014 0
M  V30 6388 N 580.893 1.08022 1.14757 0
M  V30 6389 C 581.823 0.728248 2.21853 0
M  V30 6390 C 582.804 -0.287486 1.67653 0
M  V30 6391 O 583.989 -0.158727 1.9355 0
M  V30 6392 C 581.119 0.132549 3.47047 0
M  V30 6393 C 580.073 1.07619 4.14249 0
M  V30 6394 C 579.399 0.342907 5.33599 0
M  V30 6395 C 580.699 2.41268 4.63235 0
M  V30 6396 H 582.393 1.62365 2.51551 0
M  V30 6397 H 579.939 0.782125 1.20908 0
M  V30 6398 H 581.892 -0.125665 4.21213 0
M  V30 6399 H 580.616 -0.797971 3.16702 0
M  V30 6400 H 579.275 1.31944 3.42033 0
M  V30 6401 H 578.923 -0.59129 4.99513 0
M  V30 6402 H 578.623 0.971955 5.79506 0
M  V30 6403 H 580.147 0.0926538 6.1053 0
M  V30 6404 H 581.561 2.21232 5.28894 0
M  V30 6405 H 579.958 2.9983 5.19829 0
M  V30 6406 H 581.028 3.03079 3.78512 0
M  V30 6407 N 582.371 -1.3172 0.865308 0
M  V30 6408 C 583.62 -1.96145 0.470098 0
M  V30 6409 C 583.933 -1.69182 -0.981674 0
M  V30 6410 O 585.139 -2.27431 -1.48281 0
M  V30 6411 C 583.595 -3.51129 0.789732 0
M  V30 6412 C 583.203 -3.86938 2.25795 0
M  V30 6413 C 584.947 -4.2197 0.462765 0
M  V30 6414 C 582.854 -5.35012 2.52024 0
M  V30 6415 H 581.784 -0.734105 0.172065 0
M  V30 6416 H 584.435 -1.49959 1.05757 0
M  V30 6417 H 582.817 -3.95781 0.131571 0
M  V30 6418 H 583.991 -3.5326 2.95879 0
M  V30 6419 H 582.306 -3.29149 2.55049 0
M  V30 6420 H 584.903 -5.30904 0.636019 0
M  V30 6421 H 585.246 -4.12005 -0.59645 0
M  V30 6422 H 585.779 -3.82936 1.07727 0
M  V30 6423 H 582.518 -5.50008 3.56611 0
M  V30 6424 H 582.038 -5.70058 1.8653 0
M  V30 6425 H 583.717 -6.0222 2.36515 0
M  V30 6426 N 583.85 -0.624285 -1.44708 0
M  V30 6427 C 585.096 -0.126237 -2.02407 0
M  V30 6428 C 585.428 1.24618 -1.48943 0
M  V30 6429 O 584.704 1.82569 -0.670742 0
M  V30 6430 C 584.986 -0.105449 -3.59946 0
M  V30 6431 C 584.84 -1.50972 -4.23707 0
M  V30 6432 C 586.159 0.573629 -4.36346 0
M  V30 6433 H 583.278 -0.0473472 -0.735478 0
M  V30 6434 H 585.92 -0.799452 -1.72362 0
M  V30 6435 H 584.07 0.46783 -3.85673 0
M  V30 6436 H 585.742 -2.13136 -4.0911 0
M  V30 6437 H 583.985 -2.0656 -3.81465 0
M  V30 6438 H 584.656 -1.44727 -5.32689 0
M  V30 6439 H 587.132 0.0861787 -4.16011 0
M  V30 6440 H 586.008 0.557338 -5.46063 0
M  V30 6441 H 586.269 1.64276 -4.10446 0
M  V30 6442 N 585.328 1.53329 -0.364422 0
M  V30 6443 C 586.574 2.01537 0.225969 0
M  V30 6444 C 586.907 1.25128 1.48515 0
M  V30 6445 O 586.182 0.344653 1.91422 0
M  V30 6446 C 586.465 3.56339 0.519092 0
M  V30 6447 C 586.318 4.43441 -0.753639 0
M  V30 6448 C 587.637 4.19833 1.32015 0
M  V30 6449 H 584.756 0.732573 0.0806548 0
M  V30 6450 H 587.398 1.83597 -0.489084 0
M  V30 6451 H 585.548 3.71756 1.12825 0
M  V30 6452 H 587.22 4.39823 -1.39116 0
M  V30 6453 H 585.463 4.11457 -1.37424 0
M  V30 6454 H 586.134 5.49699 -0.503517 0
M  V30 6455 H 588.61 4.08242 0.804859 0
M  V30 6456 H 587.486 5.28177 1.49399 0
M  V30 6457 H 587.747 3.75821 2.32832 0
M  V30 6458 N 586.806 0.0935595 1.57322 0
M  V30 6459 C 587.753 -0.865935 2.1394 0
M  V30 6460 C 588.723 -1.28083 1.05754 0
M  V30 6461 O 589.908 -1.36285 1.33533 0
M  V30 6462 C 587.048 -2.12023 2.72287 0
M  V30 6463 C 586.161 -1.756 3.94701 0
M  V30 6464 C 585.296 -2.95804 4.41218 0
M  V30 6465 C 584.335 -2.555 5.56225 0
M  V30 6466 N 583.472 -3.68534 5.97601 0
M  V30 6467 H 588.312 -0.376261 2.95615 0
M  V30 6468 H 585.849 -0.174052 1.46067 0
M  V30 6469 H 587.807 -2.85477 3.04235 0
M  V30 6470 H 586.437 -2.58492 1.93343 0
M  V30 6471 H 585.489 -0.921208 3.69077 0
M  V30 6472 H 586.801 -1.41964 4.78171 0
M  V30 6473 H 585.955 -3.77513 4.74941 0
M  V30 6474 H 584.694 -3.32649 3.56645 0
M  V30 6475 H 583.699 -1.72218 5.22131 0
M  V30 6476 H 584.924 -2.19801 6.42545 0
M  V30 6477 H 582.87 -4.051 5.15974 0
M  V30 6478 H 582.787 -3.38737 6.75865 0
M  V30 6479 H 584.055 -4.50757 6.35955 0
M  V30 6480 N 588.284 -1.56567 -0.180126 0
M  V30 6481 C 589.514 -1.85349 -0.912647 0
M  V30 6482 C 589.922 -0.675795 -1.76719 0
M  V30 6483 O 589.265 0.3645 -1.80047 0
M  V30 6484 C 589.327 -3.08431 -1.84691 0
M  V30 6485 C 588.991 -4.41694 -1.17284 0
M  V30 6486 C 589.988 -5.17062 -0.542532 0
M  V30 6487 C 587.673 -4.8843 -1.17223 0
M  V30 6488 C 589.667 -6.37351 0.0793953 0
M  V30 6489 C 587.354 -6.08652 -0.54647 0
M  V30 6490 C 588.352 -6.82955 0.0782458 0
M  V30 6491 O 588.04 -8.00897 0.694158 0
M  V30 6492 H 587.772 -0.619286 -0.271036 0
M  V30 6493 H 590.326 -2.0454 -0.187768 0
M  V30 6494 H 588.556 -2.85163 -2.61188 0
M  V30 6495 H 590.245 -3.23733 -2.44851 0
M  V30 6496 H 591.011 -4.8204 -0.535045 0
M  V30 6497 H 586.89 -4.30542 -1.64788 0
M  V30 6498 H 590.434 -6.95287 0.567612 0
M  V30 6499 H 586.331 -6.4314 -0.55151 0
M  V30 6500 H 587.099 -8.16352 0.592537 0
M  V30 6501 N 589.762 0.448376 -1.51087 0
M  V30 6502 C 591.039 1.20926 -1.53741 0
M  V30 6503 C 591.419 2.09025 -0.295222 0
M  V30 6504 O 590.767 2.16851 0.720283 0
M  V30 6505 C 590.977 2.02067 -2.84552 0
M  V30 6506 C 592.325 2.59486 -3.36084 0
M  V30 6507 O 593.349 2.12289 -2.86028 0
M  V30 6508 O 592.208 3.45539 -4.23397 0
M  V30 6509 H 589.302 0.549951 -0.617643 0
M  V30 6510 H 591.848 0.458344 -1.63393 0
M  V30 6511 H 590.62 1.37291 -3.66425 0
M  V30 6512 H 590.243 2.84246 -2.78011 0
M  V30 6513 N 591.24 1.41047 0.703093 0
M  V30 6514 C 592.651 1.35657 1.28274 0
M  V30 6515 C 593.002 0.0360309 1.96167 0
M  V30 6516 O 592.127 -0.865833 1.98324 0
M  V30 6517 C 592.722 2.45707 2.33267 0
M  V30 6518 C 591.281 2.43738 2.86825 0
M  V30 6519 C 590.428 2.25941 1.60767 0
M  V30 6520 H 593.379 1.50672 0.49836 0
M  V30 6521 H 593.4 2.14333 3.14391 0
M  V30 6522 H 592.912 3.41805 1.83824 0
M  V30 6523 H 591.013 1.51375 3.40465 0
M  V30 6524 H 591.126 3.39779 3.37768 0
M  V30 6525 H 589.49 1.73681 1.86298 0
M  V30 6526 H 590.273 3.24054 1.1333 0
M  V30 6527 N 592.718 -0.936591 1.26751 0
M  V30 6528 C 593.668 -2.0219 1.05371 0
M  V30 6529 C 594.652 -1.60893 -0.0154112 0
M  V30 6530 O 595.844 -1.75843 0.202085 0
M  V30 6531 C 592.973 -3.36222 0.693541 0
M  V30 6532 C 592.059 -3.8399 1.80035 0
M  V30 6533 N 592.45 -4.0436 3.03852 0
M  V30 6534 C 590.748 -4.12945 1.685 0
M  V30 6535 C 591.449 -4.44 3.75818 0
M  V30 6536 N 590.425 -4.50966 3.03531 0
M  V30 6537 H 594.227 -2.15958 1.99347 0
M  V30 6538 H 591.741 -1.12277 1.17335 0
M  V30 6539 H 593.738 -4.13625 0.521513 0
M  V30 6540 H 592.398 -3.23821 -0.238693 0
M  V30 6541 H 593.409 -3.9092 3.39709 0
M  V30 6542 H 590.086 -4.09308 0.822986 0
M  V30 6543 H 591.476 -4.67914 4.82189 0
M  V30 6544 N 594.196 -1.08629 -1.14182 0
M  V30 6545 C 595.424 -0.838889 -1.8913 0
M  V30 6546 C 595.839 0.609153 -1.78703 0
M  V30 6547 O 595.196 1.41876 -1.14794 0
M  V30 6548 C 595.247 -1.25477 -3.39025 0
M  V30 6549 O 594.968 -2.64601 -3.49167 0
M  V30 6550 C 596.469 -1.03856 -4.30963 0
M  V30 6551 H 593.689 -0.302377 -0.599007 0
M  V30 6552 H 596.233 -1.44615 -1.44592 0
M  V30 6553 H 594.388 -0.691571 -3.81177 0
M  V30 6554 H 594.802 -2.81922 -4.42289 0
M  V30 6555 H 596.276 -1.37892 -5.345 0
M  V30 6556 H 596.753 0.0242522 -4.39193 0
M  V30 6557 H 597.359 -1.58731 -3.94569 0
M  V30 6558 N 595.674 1.31259 -0.872281 0
M  V30 6559 C 596.604 2.30929 -0.345554 0
M  V30 6560 C 597.585 1.60449 0.5648 0
M  V30 6561 O 598.77 1.8814 0.481335 0
M  V30 6562 C 595.9 3.44348 0.451823 0
M  V30 6563 C 594.854 4.26435 -0.365641 0
M  V30 6564 C 594.18 5.31785 0.557562 0
M  V30 6565 C 595.48 4.97159 -1.60095 0
M  V30 6566 H 597.174 2.75234 -1.17841 0
M  V30 6567 H 594.72 1.3232 -0.568094 0
M  V30 6568 H 596.673 4.13128 0.830854 0
M  V30 6569 H 595.397 2.98816 1.31821 0
M  V30 6570 H 594.056 3.59326 -0.726649 0
M  V30 6571 H 593.704 4.82502 1.4213 0
M  V30 6572 H 593.404 5.87598 0.0144878 0
M  V30 6573 H 594.928 6.03424 0.933387 0
M  V30 6574 H 596.342 5.58523 -1.29323 0
M  V30 6575 H 594.739 5.62779 -2.08327 0
M  V30 6576 H 595.809 4.24012 -2.35249 0
M  V30 6577 N 597.152 0.631951 1.44375 0
M  V30 6578 C 598.38 0.143867 2.06399 0
M  V30 6579 C 598.795 -1.18188 1.47231 0
M  V30 6580 O 598.152 -1.72511 0.595498 0
M  V30 6581 C 598.203 0.0238253 3.61492 0
M  V30 6582 O 597.924 1.29715 4.18456 0
M  V30 6583 C 599.425 -0.492856 4.40552 0
M  V30 6584 H 596.645 0.0800542 0.666207 0
M  V30 6585 H 599.189 0.866586 1.85231 0
M  V30 6586 H 597.344 -0.649338 3.81919 0
M  V30 6587 H 597.758 1.14252 5.11905 0
M  V30 6588 H 599.232 -0.525861 5.49489 0
M  V30 6589 H 599.709 -1.52006 4.12057 0
M  V30 6590 H 600.315 0.147085 4.25046 0
M  V30 6591 N 598.631 -1.53133 0.372548 0
M  V30 6592 C 599.561 -2.28876 -0.462412 0
M  V30 6593 C 600.542 -1.31583 -1.07796 0
M  V30 6594 O 601.727 -1.60461 -1.09389 0
M  V30 6595 C 598.857 -3.08317 -1.59868 0
M  V30 6596 C 597.811 -4.13355 -1.11003 0
M  V30 6597 C 597.137 -4.8092 -2.33708 0
M  V30 6598 C 598.437 -5.21955 -0.18983 0
M  V30 6599 H 600.131 -2.9892 0.169511 0
M  V30 6600 H 597.677 -1.43761 0.0829658 0
M  V30 6601 H 599.63 -3.60055 -2.18949 0
M  V30 6602 H 598.354 -2.35976 -2.25794 0
M  V30 6603 H 597.013 -3.62573 -0.541869 0
M  V30 6604 H 596.661 -4.05144 -2.98106 0
M  V30 6605 H 596.361 -5.51904 -2.01682 0
M  V30 6606 H 597.885 -5.35455 -2.93462 0
M  V30 6607 H 599.299 -5.69153 -0.688319 0
M  V30 6608 H 597.696 -6.00087 0.0398887 0
M  V30 6609 H 598.766 -4.78811 0.766057 0
M  V30 6610 N 600.109 -0.101901 -1.5727 0
M  V30 6611 C 601.334 0.571759 -1.99363 0
M  V30 6612 C 601.759 1.60507 -0.980768 0
M  V30 6613 O 601.117 1.81231 0.0498517 0
M  V30 6614 C 601.165 1.18996 -3.404 0
M  V30 6615 O 600.269 2.30572 -3.41922 0
M  V30 6616 H 599.61 0.144449 -0.648098 0
M  V30 6617 H 602.14 -0.185325 -2.03759 0
M  V30 6618 H 602.15 1.52962 -3.78241 0
M  V30 6619 H 600.825 0.432984 -4.1364 0
M  V30 6620 H 599.402 1.98173 -3.15883 0
M  V30 6621 N 601.587 1.56661 0.17182 0
M  V30 6622 C 602.517 1.99401 1.21498 0
M  V30 6623 C 603.498 0.869516 1.46197 0
M  V30 6624 O 604.683 1.13556 1.57539 0
M  V30 6625 C 601.813 2.35346 2.55401 0
M  V30 6626 C 600.767 3.5075 2.45272 0
M  V30 6627 C 600.093 3.72437 3.8366 0
M  V30 6628 C 601.393 4.84216 1.95787 0
M  V30 6629 H 603.087 2.86792 0.859699 0
M  V30 6630 H 600.633 1.37977 0.412103 0
M  V30 6631 H 602.586 2.63843 3.2858 0
M  V30 6632 H 601.31 1.44864 2.92715 0
M  V30 6633 H 599.969 3.2238 1.74547 0
M  V30 6634 H 599.617 2.79246 4.18367 0
M  V30 6635 H 599.317 4.50087 3.77751 0
M  V30 6636 H 600.841 4.03334 4.58426 0
M  V30 6637 H 602.255 5.11592 2.5874 0
M  V30 6638 H 600.652 5.65498 2.00827 0
M  V30 6639 H 601.722 4.76243 0.912159 0
M  V30 6640 N 603.065 -0.440357 1.51323 0
M  V30 6641 C 604.476 -1.02032 1.56353 0
M  V30 6642 C 604.827 -1.92382 0.385197 0
M  V30 6643 O 603.952 -2.10583 -0.498373 0
M  V30 6644 C 604.547 -1.85723 2.83359 0
M  V30 6645 C 603.106 -2.38774 2.90971 0
M  V30 6646 C 602.253 -1.17908 2.50984 0
M  V30 6647 H 605.204 -0.221744 1.57143 0
M  V30 6648 H 605.225 -2.71141 2.66951 0
M  V30 6649 H 604.737 -1.19939 3.69102 0
M  V30 6650 H 602.838 -3.08021 2.09651 0
M  V30 6651 H 602.951 -2.71778 3.94555 0
M  V30 6652 H 601.315 -1.52347 2.04114 0
M  V30 6653 H 602.098 -0.537393 3.39068 0
M  V30 6654 N 604.543 -1.41418 -0.695603 0
M  V30 6655 C 605.79 -1.40774 -1.45564 0
M  V30 6656 C 606.118 -0.0168604 -1.94493 0
M  V30 6657 O 605.373 0.971259 -1.69897 0
M  V30 6658 C 605.672 -2.36112 -2.68302 0
M  V30 6659 C 605.338 -3.82952 -2.38031 0
M  V30 6660 C 604 -4.22954 -2.29486 0
M  V30 6661 C 606.352 -4.75662 -2.13061 0
M  V30 6662 C 603.68 -5.53674 -1.94067 0
M  V30 6663 C 606.032 -6.06702 -1.79151 0
M  V30 6664 C 604.696 -6.45725 -1.69102 0
M  V30 6665 H 603.966 -0.515128 -0.532658 0
M  V30 6666 H 606.613 -1.74216 -0.795047 0
M  V30 6667 H 604.918 -1.95924 -3.39295 0
M  V30 6668 H 606.615 -2.32887 -3.26442 0
M  V30 6669 H 603.205 -3.5127 -2.45576 0
M  V30 6670 H 607.389 -4.45561 -2.18608 0
M  V30 6671 H 602.645 -5.8279 -1.8484 0
M  V30 6672 H 606.819 -6.78041 -1.5885 0
M  V30 6673 H 604.446 -7.46929 -1.41426 0
M  V30 6674 N 606.021 0.929856 -1.27246 0
M  V30 6675 C 607.251 1.70895 -1.16096 0
M  V30 6676 C 607.659 1.87039 0.285122 0
M  V30 6677 O 607.002 1.38557 1.20614 0
M  V30 6678 C 607.064 3.12919 -1.7698 0
M  V30 6679 C 606.728 3.2012 -3.26148 0
M  V30 6680 C 607.725 3.02533 -4.22812 0
M  V30 6681 C 605.41 3.43148 -3.66817 0
M  V30 6682 C 607.404 3.07861 -5.58122 0
M  V30 6683 C 605.091 3.48109 -5.02258 0
M  V30 6684 C 606.089 3.30483 -5.97721 0
M  V30 6685 O 605.777 3.35175 -7.30694 0
M  V30 6686 H 605.509 0.54152 -0.404639 0
M  V30 6687 H 608.063 1.17342 -1.68582 0
M  V30 6688 H 606.293 3.67945 -1.18969 0
M  V30 6689 H 607.982 3.72787 -1.60576 0
M  V30 6690 H 608.748 2.84586 -3.92728 0
M  V30 6691 H 604.627 3.55918 -2.9299 0
M  V30 6692 H 608.171 2.94021 -6.32612 0
M  V30 6693 H 604.068 3.65579 -5.31998 0
M  V30 6694 H 604.836 3.51644 -7.39114 0
M  V30 6695 N 607.499 1.09233 1.13605 0
M  V30 6696 C 608.748 0.82205 1.84188 0
M  V30 6697 C 609.061 -0.654548 1.84323 0
M  V30 6698 O 610.267 -1.04029 2.50779 0
M  V30 6699 C 608.723 1.42066 3.30674 0
M  V30 6700 C 608.331 2.92965 3.38933 0
M  V30 6701 C 610.075 1.22924 4.06313 0
M  V30 6702 C 607.982 3.45922 4.79679 0
M  V30 6703 H 606.912 0.303854 0.690064 0
M  V30 6704 H 609.563 1.31479 1.28006 0
M  V30 6705 H 607.945 0.855613 3.86646 0
M  V30 6706 H 609.119 3.55679 2.92966 0
M  V30 6707 H 607.434 3.11118 2.76757 0
M  V30 6708 H 610.031 1.59945 5.10217 0
M  V30 6709 H 610.374 0.169726 4.15954 0
M  V30 6710 H 610.907 1.76168 3.56665 0
M  V30 6711 H 607.646 4.51484 4.75229 0
M  V30 6712 H 607.166 2.87971 5.26149 0
M  V30 6713 H 608.845 3.43009 5.48592 0
M  V30 6714 N 608.977 -1.30795 0.87923 0
M  V30 6715 C 610.202 -2.01063 0.508769 0
M  V30 6716 C 610.627 -1.65508 -0.893803 0
M  V30 6717 O 609.985 -0.868616 -1.59138 0
M  V30 6718 C 610.033 -3.54054 0.683991 0
M  V30 6719 O 609.137 -4.11498 -0.272654 0
M  V30 6720 H 608.478 -0.632786 0.201191 0
M  V30 6721 H 611.008 -1.66776 1.18519 0
M  V30 6722 H 611.018 -4.03845 0.580798 0
M  V30 6723 H 609.693 -3.79271 1.70665 0
M  V30 6724 H 608.27 -3.72695 -0.12364 0
M  V30 6725 N 610.455 -0.639598 -1.44038 0
M  V30 6726 C 611.387 0.0987684 -2.28987 0
M  V30 6727 C 612.4 0.80058 -1.41755 0
M  V30 6728 O 613.589 0.660611 -1.65826 0
M  V30 6729 C 610.689 1.16242 -3.18341 0
M  V30 6730 C 609.862 0.541447 -4.34036 0
M  V30 6731 C 608.921 1.50017 -5.04362 0
M  V30 6732 O 607.947 1.01403 -5.60095 0
M  V30 6733 N 609.149 2.83441 -5.06598 0
M  V30 6734 H 611.914 -0.630305 -2.92997 0
M  V30 6735 H 609.475 -0.481376 -1.54578 0
M  V30 6736 H 611.467 1.80429 -3.62253 0
M  V30 6737 H 610.037 1.79362 -2.56024 0
M  V30 6738 H 609.257 -0.27923 -3.9321 0
M  V30 6739 H 610.545 0.107379 -5.08687 0
M  V30 6740 H 609.943 3.2551 -4.62666 0
M  V30 6741 H 608.5 3.42966 -5.54272 0
M  V30 6742 N 611.933 1.52934 -0.380664 0
M  V30 6743 C 613.173 2.03378 0.204161 0
M  V30 6744 C 613.537 1.26132 1.44758 0
M  V30 6745 O 614.738 1.66657 2.109 0
M  V30 6746 C 613.009 3.54241 0.474118 0
M  V30 6747 S 614.568 4.26529 1.03046 0
M  V30 6748 H 611.386 0.708608 0.0582719 0
M  V30 6749 H 613.988 1.88263 -0.527017 0
M  V30 6750 H 612.692 4.08055 -0.438088 0
M  V30 6751 H 612.223 3.73547 1.23396 0
M  V30 6752 H 614.238 4.38964 2.31354 0
M  V30 6753 N 613.412 0.11024 1.57214 0
M  V30 6754 C 614.658 -0.544479 1.95977 0
M  V30 6755 C 615.013 -1.64845 0.992171 0
M  V30 6756 O 614.306 -1.91589 0.0206981 0
M  V30 6757 C 614.5 -1.13102 3.39032 0
M  V30 6758 C 614.329 -0.0854079 4.49619 0
M  V30 6759 C 613.099 0.343373 5.04132 0
M  V30 6760 C 615.297 0.692232 5.0962 0
M  V30 6761 N 613.279 1.37567 5.98288 0
M  V30 6762 C 614.65 1.57596 5.99636 0
M  V30 6763 C 616.705 0.744085 4.92309 0
M  V30 6764 C 615.408 2.50701 6.74197 0
M  V30 6765 C 617.434 1.6628 5.67543 0
M  V30 6766 C 616.796 2.53412 6.57238 0
M  V30 6767 H 612.895 -0.169124 0.763493 0
M  V30 6768 H 615.479 0.196326 1.93708 0
M  V30 6769 H 613.65 -1.84158 3.41965 0
M  V30 6770 H 615.382 -1.74934 3.64939 0
M  V30 6771 H 612.137 -0.0473277 4.73576 0
M  V30 6772 H 612.561 1.89048 6.50069 0
M  V30 6773 H 617.203 0.0845825 4.22715 0
M  V30 6774 H 614.921 3.17669 7.43043 0
M  V30 6775 H 618.507 1.70825 5.56156 0
M  V30 6776 H 617.387 3.23347 7.14434 0
M  V30 6777 N 614.89 -1.56749 -0.16351 0
M  V30 6778 C 616.118 -1.86577 -0.894233 0
M  V30 6779 C 616.533 -0.696543 -1.75481 0
M  V30 6780 O 615.89 0.334161 -1.79415 0
M  V30 6781 C 615.941 -3.15508 -1.76456 0
M  V30 6782 O 615.662 -4.27926 -0.938685 0
M  V30 6783 C 617.163 -3.58737 -2.60428 0
M  V30 6784 H 614.383 -0.618829 -0.259405 0
M  V30 6785 H 616.927 -2.03863 -0.161259 0
M  V30 6786 H 615.082 -3.00025 -2.45079 0
M  V30 6787 H 615.496 -5.01546 -1.53465 0
M  V30 6788 H 616.97 -4.51832 -3.17099 0
M  V30 6789 H 617.447 -2.83229 -3.35675 0
M  V30 6790 H 618.053 -3.76858 -1.97125 0
M  V30 6791 N 616.368 0.432326 -1.51554 0
M  V30 6792 C 617.298 1.53242 -1.76179 0
M  V30 6793 C 618.279 1.58717 -0.611801 0
M  V30 6794 O 619.464 1.74364 -0.855033 0
M  V30 6795 C 616.594 2.91278 -1.89141 0
M  V30 6796 C 615.548 3.00663 -3.04608 0
M  V30 6797 C 614.874 4.40728 -3.02759 0
M  V30 6798 C 616.174 2.74281 -4.44485 0
M  V30 6799 H 617.868 1.32886 -2.68294 0
M  V30 6800 H 615.414 0.637841 -1.29103 0
M  V30 6801 H 617.367 3.68203 -2.04951 0
M  V30 6802 H 616.091 3.12877 -0.936785 0
M  V30 6803 H 614.75 2.26179 -2.88511 0
M  V30 6804 H 614.398 4.59301 -2.05065 0
M  V30 6805 H 614.098 4.47936 -3.80299 0
M  V30 6806 H 615.622 5.19619 -3.20669 0
M  V30 6807 H 617.036 3.40936 -4.60907 0
M  V30 6808 H 615.433 2.92893 -5.23769 0
M  V30 6809 H 616.503 1.69856 -4.54177 0
M  V30 6810 N 617.846 1.41785 0.688094 0
M  V30 6811 C 619.094 1.41264 1.4453 0
M  V30 6812 C 619.415 0.0252946 1.94984 0
M  V30 6813 O 618.685 -0.934081 1.72197 0
M  V30 6814 H 617.265 0.519998 0.536294 0
M  V30 6815 H 619.927 1.7709 0.813941 0
M  V30 6816 H 619.023 2.10439 2.30482 0
M  V30 6817 N 619.324 -0.923095 1.27737 0
M  V30 6818 C 620.549 -1.71054 1.17283 0
M  V30 6819 C 620.974 -1.86208 -0.266153 0
M  V30 6820 O 620.332 -1.36545 -1.1927 0
M  V30 6821 C 620.38 -3.0854 1.86642 0
M  V30 6822 O 619.484 -3.95528 1.16752 0
M  V30 6823 H 618.825 -0.524136 0.407649 0
M  V30 6824 H 621.355 -1.15487 1.6889 0
M  V30 6825 H 621.365 -3.58828 1.94182 0
M  V30 6826 H 620.04 -2.96828 2.91317 0
M  V30 6827 H 618.617 -3.53967 1.17312 0
M  V30 6828 N 620.802 -1.09834 -1.13024 0
M  V30 6829 C 622.048 -0.83819 -1.84668 0
M  V30 6830 C 622.381 0.634645 -1.83537 0
M  V30 6831 O 621.656 1.46753 -1.27647 0
M  V30 6832 C 621.939 -1.37933 -3.32636 0
M  V30 6833 C 621.792 -2.91857 -3.42257 0
M  V30 6834 C 623.111 -1.01654 -4.28199 0
M  V30 6835 H 620.23 -0.30595 -0.670495 0
M  V30 6836 H 622.872 -1.36044 -1.32635 0
M  V30 6837 H 621.022 -0.935111 -3.77078 0
M  V30 6838 H 622.694 -3.44759 -3.06495 0
M  V30 6839 H 620.937 -3.28776 -2.83 0
M  V30 6840 H 621.608 -3.24799 -4.46329 0
M  V30 6841 H 624.084 -1.39973 -3.9185 0
M  V30 6842 H 622.96 -1.42217 -5.30156 0
M  V30 6843 H 623.221 0.0747794 -4.42037 0
M  V30 6844 N 622.28 1.30327 -0.886154 0
M  V30 6845 C 623.21 2.30549 -0.370028 0
M  V30 6846 C 624.191 1.61039 0.547751 0
M  V30 6847 O 625.376 1.8864 0.461353 0
M  V30 6848 C 622.506 3.44808 0.415275 0
M  V30 6849 C 621.46 4.26024 -0.41085 0
M  V30 6850 C 620.786 5.32347 0.501128 0
M  V30 6851 C 622.086 4.95433 -1.65359 0
M  V30 6852 H 623.78 2.73969 -1.20754 0
M  V30 6853 H 621.326 1.3171 -0.582097 0
M  V30 6854 H 623.279 4.13986 0.78699 0
M  V30 6855 H 622.003 3.00197 1.28644 0
M  V30 6856 H 620.662 3.58535 -0.764719 0
M  V30 6857 H 620.31 4.83982 1.37004 0
M  V30 6858 H 620.01 5.87581 -0.0478356 0
M  V30 6859 H 621.534 6.0438 0.869333 0
M  V30 6860 H 622.948 5.5712 -1.35239 0
M  V30 6861 H 621.345 5.60537 -2.14284 0
M  V30 6862 H 622.415 4.21493 -2.39733 0
M  V30 6863 N 623.758 0.647228 1.43697 0
M  V30 6864 C 624.721 -0.0385101 2.29168 0
M  V30 6865 C 625.721 -0.756487 1.41894 0
M  V30 6866 O 626.911 -0.598641 1.63591 0
M  V30 6867 C 624.043 -1.06524 3.23829 0
M  V30 6868 H 625.236 0.713445 2.9129 0
M  V30 6869 H 622.789 0.408153 1.50877 0
M  V30 6870 H 623.524 -1.84664 2.66589 0
M  V30 6871 H 623.309 -0.554147 3.88164 0
M  V30 6872 H 624.799 -1.54432 3.87996 0
M  V30 6873 N 625.236 -1.5273 0.388769 0
M  V30 6874 C 626.166 -2.29353 -0.438111 0
M  V30 6875 C 627.147 -1.32719 -1.06394 0
M  V30 6876 O 628.332 -1.61612 -1.07681 0
M  V30 6877 C 625.462 -3.09995 -1.56589 0
M  V30 6878 C 624.416 -4.14509 -1.06613 0
M  V30 6879 C 623.742 -4.83372 -2.28594 0
M  V30 6880 C 625.042 -5.22127 -0.134459 0
M  V30 6881 H 626.736 -2.98723 0.201206 0
M  V30 6882 H 624.282 -1.43665 0.0982089 0
M  V30 6883 H 626.235 -3.62357 -2.15118 0
M  V30 6884 H 624.959 -2.38357 -2.23279 0
M  V30 6885 H 623.618 -3.63128 -0.503383 0
M  V30 6886 H 623.266 -4.08283 -2.93792 0
M  V30 6887 H 622.966 -5.54012 -1.95817 0
M  V30 6888 H 624.49 -5.38538 -2.87766 0
M  V30 6889 H 625.904 -5.69851 -0.627914 0
M  V30 6890 H 624.301 -6.00011 0.103534 0
M  V30 6891 H 625.371 -4.77971 0.816798 0
M  V30 6892 N 626.714 -0.118576 -1.57153 0
M  V30 6893 C 627.942 0.54726 -1.99531 0
M  V30 6894 C 628.357 1.60251 -0.998246 0
M  V30 6895 O 627.714 1.82498 0.00893106 0
M  V30 6896 C 627.765 1.17378 -3.41913 0
M  V30 6897 O 627.486 0.160703 -4.37805 0
M  V30 6898 C 628.987 1.92297 -3.9942 0
M  V30 6899 H 626.207 0.144919 -0.655164 0
M  V30 6900 H 628.751 -0.20479 -2.03472 0
M  V30 6901 H 626.906 1.87661 -3.38913 0
M  V30 6902 H 627.32 0.61586 -5.20872 0
M  V30 6903 H 628.794 2.31462 -5.01128 0
M  V30 6904 H 629.271 2.79801 -3.38538 0
M  V30 6905 H 629.877 1.26777 -4.05965 0
M  V30 6906 N 628.193 1.56834 0.155195 0
M  V30 6907 C 629.439 1.84058 0.865687 0
M  V30 6908 C 629.794 0.701418 1.79159 0
M  V30 6909 O 629.087 -0.301162 1.89218 0
M  V30 6910 C 629.281 3.15239 1.68402 0
M  V30 6911 C 629.11 4.41807 0.838847 0
M  V30 6912 C 627.88 5.02744 0.507645 0
M  V30 6913 C 630.078 5.14009 0.172946 0
M  V30 6914 N 628.06 6.1289 -0.351978 0
M  V30 6915 C 629.431 6.17581 -0.547158 0
M  V30 6916 C 631.486 4.97814 0.0927721 0
M  V30 6917 C 630.189 7.06711 -1.33985 0
M  V30 6918 C 632.215 5.874 -0.686638 0
M  V30 6919 C 631.577 6.90447 -1.39505 0
M  V30 6920 H 627.676 0.724276 0.294871 0
M  V30 6921 H 630.26 1.94255 0.131583 0
M  V30 6922 H 628.431 3.06205 2.38942 0
M  V30 6923 H 630.163 3.304 2.33705 0
M  V30 6924 H 626.918 4.66064 0.841517 0
M  V30 6925 H 627.342 6.72577 -0.772573 0
M  V30 6926 H 631.984 4.18138 0.626112 0
M  V30 6927 H 629.702 7.8582 -1.88448 0
M  V30 6928 H 633.288 5.76938 -0.750555 0
M  V30 6929 H 632.168 7.58571 -1.98847 0
M  V30 6930 N 629.671 -0.424282 1.51781 0
M  V30 6931 C 630.899 -1.1947 1.68921 0
M  V30 6932 C 631.314 -1.84683 0.39213 0
M  V30 6933 O 630.671 -1.71261 -0.630554 0
M  V30 6934 C 630.722 -2.26909 2.81416 0
M  V30 6935 O 630.443 -1.64361 4.061 0
M  V30 6936 C 631.944 -3.16945 3.09937 0
M  V30 6937 H 629.164 -0.359591 0.566511 0
M  V30 6938 H 631.708 -0.501139 1.98265 0
M  V30 6939 H 629.863 -2.91959 2.54635 0
M  V30 6940 H 630.277 -2.35468 4.68674 0
M  V30 6941 H 631.751 -3.88437 3.922 0
M  V30 6942 H 632.228 -3.78451 2.22871 0
M  V30 6943 H 632.834 -2.57581 3.38426 0
M  V30 6944 N 631.149 -1.42148 -0.680565 0
M  V30 6945 C 632.395 -1.42521 -1.44277 0
M  V30 6946 C 632.728 -0.0393718 -1.9416 0
M  V30 6947 O 632.003 0.935425 -1.70529 0
M  V30 6948 C 632.286 -2.44475 -2.64394 0
M  V30 6949 C 632.139 -3.92226 -2.20179 0
M  V30 6950 C 633.458 -2.43491 -3.66606 0
M  V30 6951 H 630.577 -0.518985 -0.523282 0
M  V30 6952 H 633.219 -1.73524 -0.773914 0
M  V30 6953 H 631.369 -2.18168 -3.21458 0
M  V30 6954 H 633.041 -4.29493 -1.68327 0
M  V30 6955 H 631.284 -4.0637 -1.5181 0
M  V30 6956 H 631.955 -4.59133 -3.06433 0
M  V30 6957 H 634.431 -2.66872 -3.19247 0
M  V30 6958 H 633.307 -3.16816 -4.4824 0
M  V30 6959 H 633.568 -1.45881 -4.17338 0
M  V30 6960 N 632.627 0.916307 -1.28225 0
M  V30 6961 C 633.873 1.66794 -1.1641 0
M  V30 6962 C 634.228 1.90278 0.284986 0
M  V30 6963 O 633.521 1.49023 1.20427 0
M  V30 6964 C 633.715 3.03125 -1.8934 0
M  V30 6965 C 633.544 2.92947 -3.41192 0
M  V30 6966 C 632.314 2.9461 -4.10528 0
M  V30 6967 C 634.512 2.7121 -4.36978 0
M  V30 6968 N 632.494 2.74993 -5.48864 0
M  V30 6969 C 633.865 2.60411 -5.6266 0
M  V30 6970 C 635.92 2.56187 -4.26934 0
M  V30 6971 C 634.623 2.3612 -6.79441 0
M  V30 6972 C 636.649 2.33275 -5.43449 0
M  V30 6973 C 636.011 2.23228 -6.68093 0
M  V30 6974 H 632.11 0.616654 -0.480896 0
M  V30 6975 H 634.694 1.08237 -1.61842 0
M  V30 6976 H 632.865 3.59774 -1.46346 0
M  V30 6977 H 634.597 3.67294 -1.69932 0
M  V30 6978 H 631.352 3.0527 -3.62087 0
M  V30 6979 H 631.776 2.68284 -6.21573 0
M  V30 6980 H 636.418 2.62707 -3.31278 0
M  V30 6981 H 634.136 2.28339 -7.75169 0
M  V30 6982 H 637.722 2.22519 -5.37565 0
M  V30 6983 H 636.602 2.05741 -7.5673 0
M  V30 6984 N 634.105 1.10431 1.1244 0
M  V30 6985 C 635.521 0.836096 1.35947 0
M  V30 6986 C 635.721 -0.544475 1.94004 0
M  V30 6987 O 634.777 -1.29735 2.16622 0
M  V30 6988 C 636.09 1.93575 2.30107 0
M  V30 6989 C 637.638 1.9642 2.43697 0
M  V30 6990 C 638.113 3.05559 3.41171 0
M  V30 6991 N 639.604 3.04865 3.48728 0
M  V30 6992 C 640.339 3.85954 4.24061 0
M  V30 6993 N 639.835 4.76977 5.02458 0
M  V30 6994 N 641.628 3.74172 4.19466 0
M  V30 6995 H 633.779 1.9942 0.731124 0
M  V30 6996 H 636.042 0.866607 0.384312 0
M  V30 6997 H 635.748 2.92943 1.94621 0
M  V30 6998 H 635.622 1.8229 3.30227 0
M  V30 6999 H 638.009 0.97685 2.78463 0
M  V30 7000 H 638.09 2.11782 1.43465 0
M  V30 7001 H 637.734 4.04513 3.07135 0
M  V30 7002 H 637.664 2.87438 4.41234 0
M  V30 7003 H 640.155 2.38908 2.92799 0
M  V30 7004 H 640.468 5.35409 5.57277 0
M  V30 7005 H 638.813 4.81006 5.01655 0
M  V30 7006 H 642.004 3.02412 3.57302 0
M  V30 7007 H 642.177 4.37602 4.77921 0
M  V30 7008 N 635.583 -1.29855 0.893053 0
M  V30 7009 C 636.83 -1.95826 0.515585 0
M  V30 7010 C 637.158 -1.70451 -0.936842 0
M  V30 7011 O 636.413 -1.00657 -1.67829 0
M  V30 7012 C 636.712 -3.49515 0.746588 0
M  V30 7013 C 636.378 -3.94955 2.17535 0
M  V30 7014 C 635.04 -4.07073 2.56603 0
M  V30 7015 C 637.392 -4.18536 3.10607 0
M  V30 7016 C 634.72 -4.40138 3.87938 0
M  V30 7017 C 637.072 -4.53073 4.41484 0
M  V30 7018 C 635.736 -4.634 4.80434 0
M  V30 7019 H 635.006 -0.71658 0.188666 0
M  V30 7020 H 637.653 -1.54574 1.13045 0
M  V30 7021 H 635.958 -3.9177 0.0487551 0
M  V30 7022 H 637.655 -3.98644 0.434009 0
M  V30 7023 H 634.245 -3.86035 1.86212 0
M  V30 7024 H 638.429 -4.08646 2.81641 0
M  V30 7025 H 633.685 -4.46335 4.17846 0
M  V30 7026 H 637.859 -4.70269 5.13634 0
M  V30 7027 H 635.486 -4.88775 5.82239 0
M  V30 7028 N 637.061 -0.65484 -1.43351 0
M  V30 7029 C 638.308 -0.168892 -2.01794 0
M  V30 7030 C 638.636 1.2177 -1.51665 0
M  V30 7031 O 637.891 1.82717 -0.70092 0
M  V30 7032 C 638.19 -0.130424 -3.57162 0
M  V30 7033 C 637.856 -1.45898 -4.26643 0
M  V30 7034 C 636.518 -1.82279 -4.4534 0
M  V30 7035 C 638.87 -2.33485 -4.65976 0
M  V30 7036 C 636.198 -3.0591 -5.00635 0
M  V30 7037 C 638.55 -3.5641 -5.22642 0
M  V30 7038 C 637.214 -3.92985 -5.39555 0
M  V30 7039 H 636.484 -0.061802 -0.738418 0
M  V30 7040 H 639.131 -0.845869 -1.71806 0
M  V30 7041 H 637.436 0.630008 -3.86702 0
M  V30 7042 H 639.133 0.262465 -4.0014 0
M  V30 7043 H 635.723 -1.16591 -4.12437 0
M  V30 7044 H 639.907 -2.06668 -4.51223 0
M  V30 7045 H 635.163 -3.34295 -5.11915 0
M  V30 7046 H 639.337 -4.24495 -5.52066 0
M  V30 7047 H 636.964 -4.88862 -5.82167 0
M  V30 7048 N 638.539 1.52521 -0.396863 0
M  V30 7049 C 639.469 2.29582 0.425941 0
M  V30 7050 C 640.45 1.33281 1.05689 0
M  V30 7051 O 641.635 1.62181 1.06823 0
M  V30 7052 C 638.765 3.10821 1.54943 0
M  V30 7053 C 637.719 4.15069 1.04413 0
M  V30 7054 C 637.045 4.84578 2.26028 0
M  V30 7055 C 638.345 5.22191 0.106767 0
M  V30 7056 H 640.039 2.98612 -0.217045 0
M  V30 7057 H 637.585 1.43611 -0.105826 0
M  V30 7058 H 639.538 3.63492 2.13193 0
M  V30 7059 H 638.262 2.39538 2.22011 0
M  V30 7060 H 636.921 3.63389 0.484118 0
M  V30 7061 H 636.569 4.09835 2.91623 0
M  V30 7062 H 636.269 5.55043 1.92876 0
M  V30 7063 H 637.793 5.40056 2.84906 0
M  V30 7064 H 639.207 5.70176 0.597685 0
M  V30 7065 H 637.604 5.99947 -0.135352 0
M  V30 7066 H 638.674 4.77531 -0.842134 0
M  V30 7067 N 640.017 0.126909 1.57088 0
M  V30 7068 C 641.433 -0.229641 1.57939 0
M  V30 7069 C 641.633 -1.66145 1.1401 0
M  V30 7070 O 640.689 -2.3843 0.831119 0
M  V30 7071 C 642.002 0.0108648 3.00698 0
M  V30 7072 C 643.55 -0.054418 3.12953 0
M  V30 7073 C 644.025 0.158497 4.57726 0
M  V30 7074 N 645.516 0.104735 4.63082 0
M  V30 7075 C 646.251 0.24427 5.72879 0
M  V30 7076 N 645.747 0.440415 6.91399 0
M  V30 7077 N 647.54 0.183286 5.61801 0
M  V30 7078 H 639.691 1.06203 1.83942 0
M  V30 7079 H 641.954 0.418834 0.85046 0
M  V30 7080 H 641.66 1.00102 3.37154 0
M  V30 7081 H 641.534 -0.717512 3.70313 0
M  V30 7082 H 643.921 -1.0351 2.7635 0
M  V30 7083 H 644.002 0.705967 2.45865 0
M  V30 7084 H 643.646 1.13619 4.95028 0
M  V30 7085 H 643.576 -0.62197 5.22914 0
M  V30 7086 H 646.067 -0.0430298 3.77876 0
M  V30 7087 H 646.38 0.537536 7.70928 0
M  V30 7088 H 644.725 0.476488 6.93365 0
M  V30 7089 H 647.916 0.0309561 4.6809 0
M  V30 7090 H 648.089 0.295471 6.47326 0
M  V30 7091 N 641.495 -1.56914 -0.146875 0
M  V30 7092 C 642.772 -1.74273 -0.888165 0
M  V30 7093 C 643.152 -0.69496 -1.99333 0
M  V30 7094 O 642.5 0.286093 -2.26702 0
M  V30 7095 C 642.71 -3.18336 -1.43051 0
M  V30 7096 C 644.058 -3.80024 -1.89387 0
M  V30 7097 O 645.082 -3.21765 -1.52792 0
M  V30 7098 O 643.941 -4.82367 -2.56874 0
M  V30 7099 H 641.035 -0.712565 -0.419738 0
M  V30 7100 H 643.581 -1.6918 -0.132791 0
M  V30 7101 H 642.353 -3.86092 -0.636274 0
M  V30 7102 H 641.976 -3.27854 -2.24938 0
M  V30 7103 N 642.974 0.416227 -1.52004 0
M  V30 7104 C 644.223 1.16088 -1.64944 0
M  V30 7105 C 644.536 1.91835 -0.381928 0
M  V30 7106 O 645.742 2.6867 -0.391013 0
M  V30 7107 C 644.198 2.1124 -2.91386 0
M  V30 7108 C 643.806 1.41042 -4.25219 0
M  V30 7109 C 645.55 2.86008 -3.13688 0
M  V30 7110 C 643.457 2.34801 -5.42791 0
M  V30 7111 H 642.387 0.437041 -0.61442 0
M  V30 7112 H 645.038 0.425971 -1.78487 0
M  V30 7113 H 643.42 2.88254 -2.71525 0
M  V30 7114 H 644.594 0.694416 -4.55538 0
M  V30 7115 H 642.909 0.78344 -4.08964 0
M  V30 7116 H 645.506 3.56286 -3.98703 0
M  V30 7117 H 645.849 3.48556 -2.27628 0
M  V30 7118 H 646.382 2.16095 -3.33988 0
M  V30 7119 H 643.121 1.7691 -6.31176 0
M  V30 7120 H 642.641 3.04395 -5.16821 0
M  V30 7121 H 644.32 2.9548 -5.75587 0
M  V30 7122 N 644.452 1.42507 0.673017 0
M  V30 7123 C 645.68 1.46473 1.46128 0
M  V30 7124 C 646.095 0.0765912 1.88645 0
M  V30 7125 O 645.452 -0.909057 1.58248 0
M  V30 7126 C 645.503 2.39339 2.70923 0
M  V30 7127 O 645.224 3.72752 2.3019 0
M  V30 7128 C 646.725 2.52343 3.64469 0
M  V30 7129 H 643.945 0.49812 0.449575 0
M  V30 7130 H 646.489 1.87041 0.826802 0
M  V30 7131 H 644.644 2.02019 3.30556 0
M  V30 7132 H 645.058 4.22503 3.10791 0
M  V30 7133 H 646.532 3.2144 4.48754 0
M  V30 7134 H 647.009 1.56189 4.1049 0
M  V30 7135 H 647.615 2.90392 3.10729 0
M  V30 7136 N 645.93 -0.909495 1.28709 0
M  V30 7137 C 646.86 -2.0291 1.15542 0
M  V30 7138 C 647.841 -1.7002 0.0521017 0
M  V30 7139 O 649.026 -1.92835 0.229849 0
M  V30 7140 C 646.156 -3.37458 0.820935 0
M  V30 7141 C 645.11 -3.84524 1.87949 0
M  V30 7142 C 644.436 -5.16086 1.39854 0
M  V30 7143 C 645.736 -4.05918 3.28676 0
M  V30 7144 H 647.43 -2.14183 2.09203 0
M  V30 7145 H 644.976 -1.02913 1.00722 0
M  V30 7146 H 646.929 -4.1528 0.715571 0
M  V30 7147 H 645.653 -3.26249 -0.151374 0
M  V30 7148 H 644.312 -3.08911 1.97408 0
M  V30 7149 H 643.96 -5.01284 0.41518 0
M  V30 7150 H 643.66 -5.48547 2.1064 0
M  V30 7151 H 645.184 -5.96459 1.30649 0
M  V30 7152 H 646.598 -4.74252 3.22115 0
M  V30 7153 H 644.995 -4.49717 3.97334 0
M  V30 7154 H 646.065 -3.10583 3.72379 0
M  V30 7155 N 647.408 -1.11026 -1.11852 0
M  V30 7156 C 648.824 -0.843294 -1.35502 0
M  V30 7157 C 649.024 0.534179 -1.9429 0
M  V30 7158 O 648.08 1.28585 -2.17307 0
M  V30 7159 C 649.393 -1.94793 -2.29077 0
M  V30 7160 C 650.941 -1.97709 -2.42652 0
M  V30 7161 C 651.416 -3.07364 -3.39546 0
M  V30 7162 N 652.907 -3.0671 -3.47107 0
M  V30 7163 C 653.642 -3.88197 -4.22008 0
M  V30 7164 N 653.138 -4.79635 -4.99922 0
M  V30 7165 N 654.931 -3.76391 -4.17476 0
M  V30 7166 H 647.082 -1.99805 -0.720538 0
M  V30 7167 H 649.345 -0.868633 -0.379711 0
M  V30 7168 H 649.051 -2.93971 -1.93065 0
M  V30 7169 H 648.925 -1.84039 -3.29256 0
M  V30 7170 H 651.312 -0.991604 -2.77941 0
M  V30 7171 H 651.393 -2.1254 -1.4234 0
M  V30 7172 H 651.037 -4.06136 -3.04985 0
M  V30 7173 H 650.967 -2.89774 -4.39703 0
M  V30 7174 H 653.458 -2.40457 -2.91528 0
M  V30 7175 H 653.771 -5.38357 -5.54429 0
M  V30 7176 H 652.116 -4.8366 -4.99097 0
M  V30 7177 H 655.307 -3.04303 -3.55693 0
M  V30 7178 H 655.48 -4.40131 -4.75593 0
M  V30 7179 N 648.886 1.2938 -0.899927 0
M  V30 7180 C 650.116 1.99402 -0.540601 0
M  V30 7181 C 650.524 1.67534 0.87914 0
M  V30 7182 O 649.867 0.916821 1.59186 0
M  V30 7183 C 649.929 3.53514 -0.653326 0
M  V30 7184 C 649.593 4.08937 -2.04009 0
M  V30 7185 C 650.59 4.23815 -3.01126 0
M  V30 7186 C 648.275 4.43962 -2.34953 0
M  V30 7187 C 650.269 4.72951 -4.27313 0
M  V30 7188 C 647.956 4.92795 -3.61382 0
M  V30 7189 C 648.954 5.07244 -4.57376 0
M  V30 7190 O 648.642 5.55017 -5.8156 0
M  V30 7191 H 648.374 0.64383 -0.206057 0
M  V30 7192 H 650.928 1.65878 -1.21134 0
M  V30 7193 H 649.158 3.86628 0.0744449 0
M  V30 7194 H 650.847 4.04767 -0.303118 0
M  V30 7195 H 651.613 3.97043 -2.78535 0
M  V30 7196 H 647.492 4.31974 -1.60994 0
M  V30 7197 H 651.036 4.84144 -5.02245 0
M  V30 7198 H 646.933 5.19004 -3.83804 0
M  V30 7199 H 647.701 5.73331 -5.84153 0
M  V30 7200 N 650.364 0.662433 1.43002 0
M  V30 7201 C 651.311 -0.0235324 2.30788 0
M  V30 7202 C 652.281 -0.805342 1.4527 0
M  V30 7203 O 653.466 -0.78009 1.74124 0
M  V30 7204 C 650.606 -0.977545 3.30965 0
M  V30 7205 C 649.719 -0.190865 4.31578 0
M  V30 7206 C 648.854 -1.13951 5.18834 0
M  V30 7207 C 647.893 -0.343796 6.11134 0
M  V30 7208 N 647.03 -1.2445 6.90982 0
M  V30 7209 H 651.87 0.730921 2.88897 0
M  V30 7210 H 649.407 0.372197 1.42313 0
M  V30 7211 H 651.365 -1.54437 3.87563 0
M  V30 7212 H 649.995 -1.69877 2.74484 0
M  V30 7213 H 649.047 0.492388 3.772 0
M  V30 7214 H 650.359 0.427464 4.96965 0
M  V30 7215 H 649.513 -1.77666 5.80103 0
M  V30 7216 H 648.252 -1.79174 4.53595 0
M  V30 7217 H 647.257 0.30665 5.48944 0
M  V30 7218 H 648.482 0.304161 6.78419 0
M  V30 7219 H 646.428 -1.88336 6.28383 0
M  V30 7220 H 646.345 -0.680959 7.52927 0
M  V30 7221 H 647.613 -1.86952 7.56749 0
M  V30 7222 N 651.842 -1.52309 0.404946 0
M  V30 7223 C 652.752 -2.30634 -0.429555 0
M  V30 7224 C 653.768 -1.38187 -1.05737 0
M  V30 7225 O 654.944 -1.71261 -1.05979 0
M  V30 7226 C 652.009 -3.10947 -1.53339 0
M  V30 7227 C 651.07 -4.19126 -0.929065 0
M  V30 7228 C 650.303 -4.95601 -1.9803 0
M  V30 7229 O 650.526 -4.72331 -3.1978 0
M  V30 7230 O 649.46 -5.80551 -1.58886 0
M  V30 7231 H 653.286 -3.0298 0.208963 0
M  V30 7232 H 650.871 -1.4845 0.168255 0
M  V30 7233 H 652.753 -3.60974 -2.1743 0
M  V30 7234 H 651.428 -2.41399 -2.15658 0
M  V30 7235 H 650.335 -3.73257 -0.250982 0
M  V30 7236 H 651.668 -4.90955 -0.349855 0
M  V30 7237 N 653.32 -0.135238 -1.57019 0
M  V30 7238 C 654.548 0.526066 -2.001 0
M  V30 7239 C 654.963 1.59184 -1.01519 0
M  V30 7240 O 654.32 1.82497 -0.0104258 0
M  V30 7241 C 654.371 1.13744 -3.43139 0
M  V30 7242 O 654.092 0.114259 -4.37951 0
M  V30 7243 C 655.593 1.8805 -4.01438 0
M  V30 7244 H 652.813 0.137962 -0.656664 0
M  V30 7245 H 655.357 -0.226359 -2.03243 0
M  V30 7246 H 653.512 1.84056 -3.40885 0
M  V30 7247 H 653.926 0.56058 -5.21496 0
M  V30 7248 H 655.4 2.26133 -5.03555 0
M  V30 7249 H 655.877 2.76194 -3.41487 0
M  V30 7250 H 656.483 1.22464 -4.07287 0
M  V30 7251 N 654.798 1.5699 0.138552 0
M  V30 7252 C 656.214 1.51844 0.491472 0
M  V30 7253 C 656.414 0.845063 1.82923 0
M  V30 7254 O 655.47 0.419143 2.48997 0
M  V30 7255 C 656.783 2.96615 0.493987 0
M  V30 7256 C 658.331 3.076 0.578913 0
M  V30 7257 C 658.806 4.53893 0.612009 0
M  V30 7258 N 660.297 4.5827 0.673997 0
M  V30 7259 C 661.032 5.68852 0.720729 0
M  V30 7260 N 660.528 6.88982 0.726292 0
M  V30 7261 N 662.321 5.56908 0.762253 0
M  V30 7262 H 654.472 1.99158 -0.738228 0
M  V30 7263 H 656.735 0.908693 -0.270149 0
M  V30 7264 H 656.441 3.49172 -0.420933 0
M  V30 7265 H 656.315 3.53017 1.32887 0
M  V30 7266 H 658.702 2.55057 1.48425 0
M  V30 7267 H 658.783 2.54227 -0.283286 0
M  V30 7268 H 658.427 5.07076 -0.289208 0
M  V30 7269 H 658.357 5.05057 1.49082 0
M  V30 7270 H 660.848 3.71793 0.676654 0
M  V30 7271 H 661.161 7.69014 0.764032 0
M  V30 7272 H 659.506 6.91526 0.69403 0
M  V30 7273 H 662.697 4.61969 0.755135 0
M  V30 7274 H 662.87 6.43102 0.795207 0
M  V30 7275 N 656.276 -0.40816 1.52223 0
M  V30 7276 C 657.522 -1.15347 1.67531 0
M  V30 7277 C 657.877 -1.8818 0.400748 0
M  V30 7278 O 657.17 -1.81803 -0.604845 0
M  V30 7279 C 657.364 -2.17422 2.83659 0
M  V30 7280 C 657.193 -1.54611 4.22286 0
M  V30 7281 C 655.963 -1.31841 4.87797 0
M  V30 7282 C 658.161 -1.00648 5.04355 0
M  V30 7283 N 656.143 -0.649338 6.10456 0
M  V30 7284 C 657.514 -0.464384 6.18258 0
M  V30 7285 C 659.569 -0.901041 4.89679 0
M  V30 7286 C 658.272 0.172825 7.19092 0
M  V30 7287 C 660.298 -0.277684 5.90748 0
M  V30 7288 C 659.66 0.253734 7.03943 0
M  V30 7289 H 655.759 -0.408722 0.666686 0
M  V30 7290 H 658.343 -0.445713 1.8953 0
M  V30 7291 H 656.514 -2.85554 2.63274 0
M  V30 7292 H 658.246 -2.84321 2.87999 0
M  V30 7293 H 655.001 -1.58819 4.46176 0
M  V30 7294 H 655.425 -0.3314 6.76188 0
M  V30 7295 H 660.067 -1.29772 4.02392 0
M  V30 7296 H 657.785 0.581564 8.06005 0
M  V30 7297 H 661.371 -0.197605 5.81464 0
M  V30 7298 H 660.251 0.728482 7.80809 0
M  V30 7299 N 657.755 -1.42862 -0.66545 0
M  V30 7300 C 658.687 -1.43026 -1.79098 0
M  V30 7301 C 659.7 -0.32803 -1.59461 0
M  V30 7302 O 660.889 -0.591709 -1.68407 0
M  V30 7303 C 657.989 -1.21566 -3.16346 0
M  V30 7304 C 657.162 -2.44399 -3.62751 0
M  V30 7305 C 656.221 -2.18344 -4.78761 0
M  V30 7306 O 655.247 -2.91611 -4.88827 0
M  V30 7307 N 656.449 -1.1924 -5.68122 0
M  V30 7308 H 659.214 -2.40045 -1.79439 0
M  V30 7309 H 656.775 -1.37861 -0.848872 0
M  V30 7310 H 658.767 -1.02037 -3.91625 0
M  V30 7311 H 657.337 -0.330368 -3.10849 0
M  V30 7312 H 656.557 -2.79433 -2.78048 0
M  V30 7313 H 657.845 -3.26173 -3.90498 0
M  V30 7314 H 657.243 -0.586603 -5.6265 0
M  V30 7315 H 655.8 -1.05698 -6.43173 0
M  V30 7316 N 659.233 0.902656 -1.29189 0
M  V30 7317 C 660.18 2.00643 -1.14066 0
M  V30 7318 C 661.15 1.66064 -0.0347756 0
M  V30 7319 O 662.335 1.8973 -0.201752 0
M  V30 7320 C 659.475 3.35214 -0.820104 0
M  V30 7321 C 658.588 3.82594 -2.00614 0
M  V30 7322 C 657.723 5.05727 -1.62522 0
M  V30 7323 C 656.762 5.45469 -2.77724 0
M  V30 7324 N 655.899 6.59789 -2.40048 0
M  V30 7325 H 660.739 2.1291 -2.08502 0
M  V30 7326 H 658.276 1.04271 -1.03759 0
M  V30 7327 H 660.234 4.12643 -0.614949 0
M  V30 7328 H 658.864 3.22682 0.0873452 0
M  V30 7329 H 657.916 3.01226 -2.32308 0
M  V30 7330 H 659.228 4.07999 -2.86946 0
M  V30 7331 H 658.382 5.90732 -1.38277 0
M  V30 7332 H 657.121 4.82155 -0.733333 0
M  V30 7333 H 656.126 4.59 -3.02653 0
M  V30 7334 H 657.351 5.71024 -3.67572 0
M  V30 7335 H 655.297 6.37826 -1.53343 0
M  V30 7336 H 655.214 6.84975 -3.19914 0
M  V30 7337 H 656.482 7.4807 -2.19116 0
M  V30 7338 N 660.711 1.11618 1.11262 0
M  V30 7339 C 661.957 0.877377 1.83504 0
M  V30 7340 C 662.312 -0.590606 1.83111 0
M  V30 7341 O 661.605 -1.43057 1.27456 0
M  V30 7342 C 661.799 1.37529 3.2988 0
M  V30 7343 C 661.628 2.89014 3.4453 0
M  V30 7344 C 660.398 3.57157 3.57445 0
M  V30 7345 C 662.596 3.8706 3.38658 0
M  V30 7346 N 660.578 4.96842 3.60585 0
M  V30 7347 C 661.949 5.12825 3.4844 0
M  V30 7348 C 664.004 3.79593 3.22201 0
M  V30 7349 C 662.707 6.32002 3.43462 0
M  V30 7350 C 664.733 4.98282 3.18542 0
M  V30 7351 C 664.095 6.22901 3.28897 0
M  V30 7352 H 660.194 0.37422 0.686646 0
M  V30 7353 H 662.778 1.42087 1.33114 0
M  V30 7354 H 660.949 0.85895 3.78783 0
M  V30 7355 H 662.681 1.07944 3.90039 0
M  V30 7356 H 659.436 3.07628 3.60086 0
M  V30 7357 H 659.86 5.69674 3.65788 0
M  V30 7358 H 664.502 2.84149 3.1308 0
M  V30 7359 H 662.22 7.27721 3.51352 0
M  V30 7360 H 665.806 4.94226 3.06972 0
M  V30 7361 H 664.686 7.13202 3.26056 0
M  V30 7362 N 662.189 -1.289 0.906776 0
M  V30 7363 C 663.121 -2.26556 0.347159 0
M  V30 7364 C 664.134 -1.54589 -0.51049 0
M  V30 7365 O 665.323 -1.75489 -0.326501 0
M  V30 7366 C 662.423 -3.3484 -0.523024 0
M  V30 7367 C 661.596 -4.36296 0.310515 0
M  V30 7368 C 660.655 -5.23879 -0.493634 0
M  V30 7369 O 659.681 -5.69127 0.0913569 0
M  V30 7370 N 660.883 -5.51946 -1.7982 0
M  V30 7371 H 663.648 -2.75212 1.18652 0
M  V30 7372 H 661.209 -1.42309 0.771996 0
M  V30 7373 H 663.201 -3.90366 -1.06756 0
M  V30 7374 H 661.771 -2.85946 -1.26309 0
M  V30 7375 H 660.991 -3.80331 1.03644 0
M  V30 7376 H 662.279 -5.01113 0.881106 0
M  V30 7377 H 661.677 -5.17006 -2.2961 0
M  V30 7378 H 660.234 -6.10258 -2.28971 0
M  V30 7379 N 663.667 -0.670007 -1.42649 0
M  V30 7380 C 664.615 0.0230106 -2.32589 0
M  V30 7381 C 665.609 0.795585 -1.49555 0
M  V30 7382 O 666.815 0.70409 -1.65658 0
M  V30 7383 H 663.19 0.0262342 -0.751542 0
M  V30 7384 H 665.161 -0.753009 -2.88743 0
M  V30 7385 C 663.91 0.963872 -3.34073 0
M  V30 7386 H 663.233 0.378813 -3.98001 0
M  V30 7387 H 664.673 1.41755 -3.99602 0
M  V30 7388 C 663.132 2.06797 -2.65964 0
M  V30 7389 O 663.662 3.15383 -2.48789 0
M  V30 7390 N 661.868 1.83831 -2.25066 0
M  V30 7391 H 661.415 0.955235 -2.39234 0
M  V30 7392 H 661.373 2.57895 -1.79827 0
M  V30 7393 N 665.145 1.52092 -0.413018 0
M  V30 7394 C 666.092 2.27119 0.410558 0
M  V30 7395 C 667.062 1.29692 1.03774 0
M  V30 7396 O 668.247 1.58561 1.06128 0
M  V30 7397 C 665.387 3.09863 1.51918 0
M  V30 7398 C 664.5 4.22252 0.912528 0
M  V30 7399 C 663.635 4.92348 1.99417 0
M  V30 7400 C 662.674 5.96694 1.36466 0
M  V30 7401 N 661.811 6.60292 2.38661 0
M  V30 7402 H 666.651 2.97067 -0.235661 0
M  V30 7403 H 664.188 1.46542 -0.128055 0
M  V30 7404 H 666.146 3.56144 2.17295 0
M  V30 7405 H 664.776 2.42078 2.13537 0
M  V30 7406 H 663.828 3.80113 0.147697 0
M  V30 7407 H 665.14 4.9709 0.412717 0
M  V30 7408 H 664.294 5.42054 2.72512 0
M  V30 7409 H 663.033 4.17087 2.52764 0
M  V30 7410 H 662.038 5.46304 0.61906 0
M  V30 7411 H 663.263 6.73899 0.838827 0
M  V30 7412 H 661.209 5.87858 2.91134 0
M  V30 7413 H 661.126 7.30816 1.93503 0
M  V30 7414 H 662.394 7.14635 3.11314 0
M  V30 7415 N 666.623 0.143563 1.56945 0
M  V30 7416 C 667.9 -0.553285 1.87612 0
M  V30 7417 C 668.28 -1.83195 1.04894 0
M  V30 7418 O 667.628 -2.28102 0.134773 0
M  V30 7419 C 667.838 -0.822055 3.3918 0
M  V30 7420 C 669.186 -1.16435 4.08324 0
M  V30 7421 O 670.21 -0.911522 3.4434 0
M  V30 7422 O 669.069 -1.63996 5.21313 0
M  V30 7423 H 666.163 -0.281851 0.777489 0
M  V30 7424 H 668.709 0.179916 1.68744 0
M  V30 7425 H 667.481 0.0830265 3.91212 0
M  V30 7426 H 667.104 -1.60956 3.63564 0
M  V30 7427 N 668.101 -1.57061 -0.130224 0
M  V30 7428 C 669.378 -1.75205 -0.869631 0
M  V30 7429 C 669.758 -0.716063 -1.98584 0
M  V30 7430 O 669.106 0.262032 -2.26993 0
M  V30 7431 C 669.316 -3.19835 -1.39666 0
M  V30 7432 C 670.664 -3.82011 -1.85345 0
M  V30 7433 O 671.688 -3.23368 -1.49371 0
M  V30 7434 O 670.547 -4.85064 -2.51744 0
M  V30 7435 H 667.641 -0.716977 -0.412157 0
M  V30 7436 H 670.187 -1.69311 -0.11484 0
M  V30 7437 H 668.959 -3.86745 -0.595288 0
M  V30 7438 H 668.582 -3.30222 -2.21448 0
M  V30 7439 N 669.579 0.400081 -1.52437 0
M  V30 7440 C 670.511 1.50729 -1.72666 0
M  V30 7441 C 671.524 1.51058 -0.607075 0
M  V30 7442 O 672.713 1.5516 -0.88248 0
M  V30 7443 C 669.813 2.89604 -1.76019 0
M  V30 7444 C 668.986 3.13365 -3.05157 0
M  V30 7445 C 668.045 4.32163 -3.00203 0
M  V30 7446 O 667.071 4.29004 -3.74092 0
M  V30 7447 N 668.273 5.3776 -2.18619 0
M  V30 7448 H 671.038 1.33767 -2.68191 0
M  V30 7449 H 668.599 0.58948 -1.50787 0
M  V30 7450 H 670.591 3.67159 -1.70225 0
M  V30 7451 H 669.161 2.99979 -0.879284 0
M  V30 7452 H 668.381 2.23774 -3.24529 0
M  V30 7453 H 669.669 3.26089 -3.90568 0
M  V30 7454 H 669.067 5.43177 -1.58035 0
M  V30 7455 H 667.624 6.14023 -2.18674 0
M  V30 7456 N 671.057 1.43213 0.657864 0
M  V30 7457 C 672.305 1.44298 1.41501 0
M  V30 7458 C 672.626 0.0666478 1.94886 0
M  V30 7459 O 671.896 -0.897345 1.74139 0
M  V30 7460 H 670.476 0.531257 0.525143 0
M  V30 7461 H 673.138 1.78777 0.776195 0
M  V30 7462 H 672.234 2.1528 2.25966 0
M  V30 7463 N 672.536 -0.895792 1.29666 0
M  V30 7464 C 673.761 -1.68528 1.20885 0
M  V30 7465 C 674.186 -1.8673 -0.226595 0
M  V30 7466 O 673.544 -1.39044 -1.16347 0
M  V30 7467 C 673.592 -3.04512 1.93144 0
M  V30 7468 O 672.696 -3.92963 1.25115 0
M  V30 7469 H 672.037 -0.515371 0.418675 0
M  V30 7470 H 674.567 -1.11878 1.71302 0
M  V30 7471 H 674.577 -3.54628 2.0175 0
M  V30 7472 H 673.252 -2.90582 2.97548 0
M  V30 7473 H 671.829 -3.51399 1.24794 0
M  V30 7474 N 674.014 -1.12206 -1.10668 0
M  V30 7475 C 675.242 -0.898635 -1.86366 0
M  V30 7476 C 675.657 0.551991 -1.80551 0
M  V30 7477 O 675.014 1.38152 -1.19249 0
M  V30 7478 C 675.065 -1.36199 -3.34861 0
M  V30 7479 O 674.786 -2.75576 -3.40573 0
M  V30 7480 C 676.287 -1.17515 -4.2744 0
M  V30 7481 H 673.507 -0.321281 -0.589084 0
M  V30 7482 H 676.051 -1.49142 -1.39918 0
M  V30 7483 H 674.206 -0.81249 -3.78784 0
M  V30 7484 H 674.62 -2.95851 -4.33096 0
M  V30 7485 H 676.094 -1.54827 -5.29842 0
M  V30 7486 H 676.571 -0.115486 -4.39048 0
M  V30 7487 H 677.177 -1.71203 -3.89319 0
M  V30 7488 N 675.492 1.28418 -0.913599 0
M  V30 7489 C 676.738 1.9527 -0.547484 0
M  V30 7490 C 677.071 1.71745 0.906486 0
M  V30 7491 O 676.346 1.03834 1.64465 0
M  V30 7492 C 676.629 3.49748 -0.857205 0
M  V30 7493 C 676.482 3.82675 -2.3639 0
M  V30 7494 C 677.801 4.3868 -0.353258 0
M  V30 7495 H 674.92 0.709236 -0.200381 0
M  V30 7496 H 677.562 1.51789 -1.14281 0
M  V30 7497 H 675.712 3.86915 -0.350548 0
M  V30 7498 H 677.384 3.55378 -2.94116 0
M  V30 7499 H 675.627 3.29724 -2.81894 0
M  V30 7500 H 676.298 4.90547 -2.53115 0
M  V30 7501 H 678.774 4.08584 -0.787288 0
M  V30 7502 H 677.65 5.45621 -0.599049 0
M  V30 7503 H 677.911 4.35753 0.746413 0
M  V30 7504 N 676.97 0.677563 1.42291 0
M  V30 7505 C 678.218 0.200578 2.01102 0
M  V30 7506 C 678.539 -1.19803 1.53858 0
M  V30 7507 O 677.809 -1.80496 0.761439 0
M  V30 7508 H 676.389 0.0711634 0.743603 0
M  V30 7509 H 679.051 0.874691 1.7417 0
M  V30 7510 H 678.147 0.204 3.11433 0
M  V30 7511 N 678.448 -1.51871 0.421078 0
M  V30 7512 C 679.396 -2.28903 -0.413066 0
M  V30 7513 C 680.39 -1.3408 -1.03532 0
M  V30 7514 O 681.596 -1.5149 -0.972146 0
M  V30 7515 H 677.971 -0.736478 -0.152003 0
M  V30 7516 H 679.942 -2.97285 0.257695 0
M  V30 7517 C 678.691 -3.13156 -1.51091 0
M  V30 7518 H 678.014 -3.85997 -1.04145 0
M  V30 7519 H 679.454 -3.7014 -2.06814 0
M  V30 7520 C 677.913 -2.27482 -2.48503 0
M  V30 7521 O 678.443 -1.92325 -3.52667 0
M  V30 7522 N 676.649 -1.91019 -2.18998 0
M  V30 7523 H 676.196 -2.19808 -1.34322 0
M  V30 7524 H 676.154 -1.3399 -2.84419 0
M  V30 7525 N 679.926 -0.151884 -1.56866 0
M  V30 7526 C 681.174 0.497021 -1.95893 0
M  V30 7527 C 681.495 1.65078 -1.03799 0
M  V30 7528 O 680.765 1.95642 -0.10049 0
M  V30 7529 H 679.345 0.186603 -0.723318 0
M  V30 7530 H 682.007 -0.228525 -1.93556 0
M  V30 7531 H 681.103 0.869933 -2.99731 0
M  V30 7532 N 681.404 1.57128 0.121893 0
M  V30 7533 C 682.681 1.75664 0.860327 0
M  V30 7534 C 683.061 0.726585 1.98202 0
M  V30 7535 O 682.409 -0.24999 2.27128 0
M  V30 7536 C 682.619 3.20571 1.37968 0
M  V30 7537 C 683.967 3.82988 1.83317 0
M  V30 7538 O 684.991 3.24156 1.47654 0
M  V30 7539 O 683.85 4.86393 2.49168 0
M  V30 7540 H 680.944 0.719153 0.408348 0
M  V30 7541 H 683.49 1.6937 0.105859 0
M  V30 7542 H 682.262 3.87056 0.57477 0
M  V30 7543 H 681.885 3.31392 2.19694 0
M  V30 7544 N 682.882 -0.391992 1.52647 0
M  V30 7545 C 683.814 -1.49811 1.73463 0
M  V30 7546 C 684.827 -1.50734 0.615078 0
M  V30 7547 O 686.016 -1.5469 0.890696 0
M  V30 7548 C 683.116 -2.88667 1.77552 0
M  V30 7549 C 682.289 -3.11743 3.06815 0
M  V30 7550 C 681.348 -4.30564 3.02491 0
M  V30 7551 O 680.374 -4.27014 3.76361 0
M  V30 7552 N 681.576 -5.36593 2.21468 0
M  V30 7553 H 684.341 -1.32343 2.68897 0
M  V30 7554 H 681.902 -0.581475 1.51098 0
M  V30 7555 H 683.894 -3.66251 1.7217 0
M  V30 7556 H 682.464 -2.99508 0.895181 0
M  V30 7557 H 681.684 -2.2205 3.25711 0
M  V30 7558 H 682.972 -3.24013 3.92292 0
M  V30 7559 H 682.37 -5.42332 1.60913 0
M  V30 7560 H 680.927 -6.12855 2.21928 0
M  V30 7561 N 684.36 -1.4356 -0.65026 0
M  V30 7562 C 685.31 -1.45392 -1.75628 0
M  V30 7563 C 686.294 -0.322006 -1.57645 0
M  V30 7564 O 687.486 -0.565996 -1.67707 0
M  V30 7565 C 684.615 -1.38254 -3.1423 0
M  V30 7566 C 683.701 -2.56487 -3.3775 0
M  V30 7567 N 684.092 -3.81824 -3.31729 0
M  V30 7568 C 682.39 -2.51274 -3.6848 0
M  V30 7569 C 683.091 -4.60497 -3.55412 0
M  V30 7570 N 682.067 -3.91274 -3.77367 0
M  V30 7571 H 685.869 -2.40167 -1.69402 0
M  V30 7572 H 683.383 -1.38254 -0.852037 0
M  V30 7573 H 685.38 -1.3765 -3.9352 0
M  V30 7574 H 684.04 -0.445019 -3.21636 0
M  V30 7575 H 685.051 -4.14069 -3.11074 0
M  V30 7576 H 681.728 -1.66223 -3.82983 0
M  V30 7577 H 683.118 -5.69518 -3.5651 0
M  V30 7578 N 685.838 0.888903 -1.30139 0
M  V30 7579 C 687.249 1.45578 -1.16893 0
M  V30 7580 C 687.6 1.94825 0.231866 0
M  V30 7581 O 686.725 1.84661 1.12824 0
M  V30 7582 C 687.32 2.646 -2.11595 0
M  V30 7583 C 685.879 3.17389 -2.02339 0
M  V30 7584 C 685.026 1.90081 -2.01902 0
M  V30 7585 H 687.977 0.69921 -1.42467 0
M  V30 7586 H 687.998 3.40687 -1.69449 0
M  V30 7587 H 687.51 2.28726 -3.13538 0
M  V30 7588 H 685.611 3.5793 -1.03523 0
M  V30 7589 H 685.724 3.80955 -2.90534 0
M  V30 7590 H 684.088 2.08246 -1.46648 0
M  V30 7591 H 684.871 1.5647 -3.05568 0
M  V30 7592 N 687.317 1.12792 1.10072 0
M  V30 7593 C 688.247 0.821688 2.18565 0
M  V30 7594 C 689.228 -0.21612 1.68721 0
M  V30 7595 O 690.413 -0.0764932 1.94049 0
M  V30 7596 C 687.543 0.279624 3.46172 0
M  V30 7597 C 686.497 1.25092 4.09312 0
M  V30 7598 C 685.823 0.568916 5.31665 0
M  V30 7599 C 687.123 2.60699 4.52585 0
M  V30 7600 H 688.817 1.72888 2.44438 0
M  V30 7601 H 686.363 0.832702 1.17482 0
M  V30 7602 H 688.316 0.053099 4.21367 0
M  V30 7603 H 687.04 -0.662929 3.19801 0
M  V30 7604 H 685.699 1.46332 3.36129 0
M  V30 7605 H 685.347 -0.378898 5.01571 0
M  V30 7606 H 685.047 1.21687 5.74862 0
M  V30 7607 H 686.571 0.351517 6.09587 0
M  V30 7608 H 687.985 2.43465 5.19035 0
M  V30 7609 H 686.382 3.21608 5.06644 0
M  V30 7610 H 687.452 3.1886 3.65317 0
M  V30 7611 N 688.795 -1.27931 0.920396 0
M  V30 7612 C 690.043 -1.94304 0.555906 0
M  V30 7613 C 690.364 -1.72753 -0.904519 0
M  V30 7614 O 689.634 -1.07104 -1.64029 0
M  V30 7615 H 688.214 -0.719001 0.202599 0
M  V30 7616 H 690.876 -1.55785 1.1712 0
M  V30 7617 H 689.972 -3.02806 0.755981 0
M  V30 7618 N 690.273 -0.685099 -1.4193 0
M  V30 7619 C 691.203 -0.0273506 -2.33484 0
M  V30 7620 C 692.184 0.778366 -1.51246 0
M  V30 7621 O 693.369 0.733449 -1.79817 0
M  V30 7622 C 690.499 0.917272 -3.34968 0
M  V30 7623 C 689.453 0.21941 -4.27437 0
M  V30 7624 C 688.779 1.27768 -5.1921 0
M  V30 7625 C 690.079 -0.907894 -5.14349 0
M  V30 7626 H 691.773 -0.791994 -2.88735 0
M  V30 7627 H 689.319 -0.382308 -1.38832 0
M  V30 7628 H 691.272 1.38657 -3.97935 0
M  V30 7629 H 689.996 1.71346 -2.78043 0
M  V30 7630 H 688.655 -0.229757 -3.65879 0
M  V30 7631 H 688.303 2.06612 -4.58607 0
M  V30 7632 H 688.003 0.815803 -5.81909 0
M  V30 7633 H 689.527 1.7477 -5.85054 0
M  V30 7634 H 690.941 -0.519348 -5.70943 0
M  V30 7635 H 689.338 -1.2962 -5.85934 0
M  V30 7636 H 690.408 -1.75218 -4.52136 0
M  V30 7637 N 691.751 1.51645 -0.429126 0
M  V30 7638 C 693.028 1.94579 0.199614 0
M  V30 7639 C 693.408 1.3673 1.60836 0
M  V30 7640 O 692.756 0.551062 2.21756 0
M  V30 7641 C 692.966 3.48506 0.185685 0
M  V30 7642 C 694.314 4.22756 0.395282 0
M  V30 7643 O 695.338 3.55219 0.264165 0
M  V30 7644 O 694.197 5.42555 0.655475 0
M  V30 7645 H 691.291 0.816007 0.134393 0
M  V30 7646 H 693.837 1.62577 -0.486513 0
M  V30 7647 H 692.609 3.83045 -0.799508 0
M  V30 7648 H 692.232 3.86927 0.91507 0
M  V30 7649 N 693.229 0.160201 1.56784 0
M  V30 7650 C 694.139 -0.787167 2.21 0
M  V30 7651 C 695.155 -1.26167 1.19825 0
M  V30 7652 O 696.331 -1.31611 1.52448 0
M  V30 7653 C 693.396 -2.00364 2.8294 0
M  V30 7654 C 692.457 -1.5771 3.99282 0
M  V30 7655 C 691.69 -2.73558 4.58259 0
M  V30 7656 O 691.913 -3.90129 4.16119 0
M  V30 7657 O 690.847 -2.48271 5.48311 0
M  V30 7658 H 694.673 -0.270462 3.02493 0
M  V30 7659 H 692.258 -0.0674666 1.49248 0
M  V30 7660 H 694.14 -2.71529 3.22257 0
M  V30 7661 H 692.815 -2.50961 2.04451 0
M  V30 7662 H 691.722 -0.835274 3.64656 0
M  V30 7663 H 693.055 -1.11815 4.79331 0
M  V30 7664 N 694.707 -1.5719 -0.113559 0
M  V30 7665 C 695.984 -1.76117 -0.850999 0
M  V30 7666 C 696.364 -0.737085 -1.97814 0
M  V30 7667 O 695.712 0.237942 -2.27258 0
M  V30 7668 C 695.922 -3.21298 -1.36266 0
M  V30 7669 C 697.27 -3.83955 -1.81283 0
M  V30 7670 O 698.294 -3.24934 -1.45933 0
M  V30 7671 O 697.153 -4.87707 -2.46585 0
M  V30 7672 H 694.247 -0.721308 -0.404529 0
M  V30 7673 H 696.793 -1.69423 -0.0968756 0
M  V30 7674 H 695.565 -3.87355 -0.554235 0
M  V30 7675 H 695.188 -3.32552 -2.17933 0
M  V30 7676 N 696.185 0.383891 -1.52853 0
M  V30 7677 C 697.115 1.47559 -1.80965 0
M  V30 7678 C 698.096 1.5669 -0.661986 0
M  V30 7679 O 699.281 1.71556 -0.910072 0
M  V30 7680 C 696.411 2.85114 -1.98312 0
M  V30 7681 C 695.365 2.9082 -3.14019 0
M  V30 7682 C 694.691 4.30873 -3.16627 0
M  V30 7683 C 695.991 2.60001 -4.52986 0
M  V30 7684 H 697.685 1.24283 -2.72386 0
M  V30 7685 H 695.231 0.596445 -1.31067 0
M  V30 7686 H 697.184 3.61496 -2.16561 0
M  V30 7687 H 695.908 3.09738 -1.03585 0
M  V30 7688 H 694.567 2.16886 -2.9556 0
M  V30 7689 H 694.215 4.52545 -2.19573 0
M  V30 7690 H 693.915 4.3561 -3.94357 0
M  V30 7691 H 695.439 5.09154 -3.37038 0
M  V30 7692 H 696.853 3.261 -4.71521 0
M  V30 7693 H 695.25 2.76081 -5.32822 0
M  V30 7694 H 696.32 1.5532 -4.59351 0
M  V30 7695 N 697.663 1.43903 0.642637 0
M  V30 7696 C 698.593 1.52697 1.76652 0
M  V30 7697 C 699.574 0.380816 1.65782 0
M  V30 7698 O 700.759 0.599432 1.84717 0
M  V30 7699 C 697.889 1.45975 3.15133 0
M  V30 7700 C 696.843 2.58949 3.40778 0
M  V30 7701 C 696.169 2.37279 4.79169 0
M  V30 7702 C 697.469 4.01153 3.34475 0
M  V30 7703 H 699.163 2.46766 1.69549 0
M  V30 7704 H 696.709 1.18767 0.814279 0
M  V30 7705 H 698.662 1.5073 3.93521 0
M  V30 7706 H 697.386 0.484162 3.22991 0
M  V30 7707 H 696.045 2.53564 2.64765 0
M  V30 7708 H 695.693 1.37939 4.83717 0
M  V30 7709 H 695.393 3.13016 4.97287 0
M  V30 7710 H 696.917 2.43834 5.59801 0
M  V30 7711 H 698.331 4.07968 4.02784 0
M  V30 7712 H 696.728 4.77001 3.64129 0
M  V30 7713 H 697.798 4.25539 2.32475 0
M  V30 7714 N 699.141 -0.881989 1.30609 0
M  V30 7715 C 700.389 -1.63082 1.19368 0
M  V30 7716 C 700.71 -1.93376 -0.251147 0
M  V30 7717 O 699.98 -1.5723 -1.16857 0
M  V30 7718 H 698.56 -0.604542 0.438791 0
M  V30 7719 H 701.222 -1.05658 1.63776 0
M  V30 7720 H 700.318 -2.57966 1.7567 0
M  V30 7721 N 700.619 -1.13374 -1.09472 0
M  V30 7722 C 702.03 -0.90801 -1.63132 0
M  V30 7723 C 702.381 0.555576 -1.8817 0
M  V30 7724 O 701.506 1.42218 -1.63104 0
M  V30 7725 C 702.101 -1.64182 -2.96361 0
M  V30 7726 C 700.66 -1.46197 -3.46848 0
M  V30 7727 C 699.807 -1.67134 -2.21273 0
M  V30 7728 H 702.758 -1.2871 -0.928411 0
M  V30 7729 H 702.779 -1.09863 -3.64294 0
M  V30 7730 H 702.291 -2.707 -2.78106 0
M  V30 7731 H 700.392 -0.419788 -3.70228 0
M  V30 7732 H 700.505 -2.22472 -4.24315 0
M  V30 7733 H 698.869 -1.09616 -2.29905 0
M  V30 7734 H 699.652 -2.74971 -2.05538 0
M  V30 7735 N 702.098 1.27442 -0.927168 0
M  V30 7736 C 703.346 1.94007 -0.566203 0
M  V30 7737 C 703.667 1.7323 0.895345 0
M  V30 7738 O 702.937 1.07973 1.63459 0
M  V30 7739 H 701.517 0.717917 -0.206409 0
M  V30 7740 H 704.179 1.55161 -1.17945 0
M  V30 7741 H 703.275 3.02401 -0.772028 0
M  V30 7742 N 703.576 0.692616 1.41565 0
M  V30 7743 C 704.822 0.222664 2.01574 0
M  V30 7744 C 705.155 -1.1737 1.54719 0
M  V30 7745 O 704.43 -1.79161 0.757084 0
M  V30 7746 C 704.713 0.277064 3.59033 0
M  V30 7747 C 704.566 1.71016 4.16021 0
M  V30 7748 C 705.885 -0.36479 4.38586 0
M  V30 7749 H 703.004 0.0823839 0.732381 0
M  V30 7750 H 705.646 0.880778 1.68352 0
M  V30 7751 H 703.796 -0.283288 3.87466 0
M  V30 7752 H 705.468 2.32413 3.98475 0
M  V30 7753 H 703.711 2.24525 3.71175 0
M  V30 7754 H 704.382 1.69978 5.25178 0
M  V30 7755 H 706.858 0.112404 4.15948 0
M  V30 7756 H 705.734 -0.296169 5.481 0
M  V30 7757 H 705.995 -1.44506 4.17816 0
M  V30 7758 N 705.054 -1.51416 0.437162 0
M  V30 7759 C 706.017 -2.26312 -0.362729 0
M  V30 7760 C 707.017 -1.29748 -0.949847 0
M  V30 7761 O 708.207 -1.53462 -0.824325 0
M  V30 7762 C 705.339 -3.05475 -1.5132 0
M  V30 7763 H 706.532 -2.98459 0.29365 0
M  V30 7764 H 704.085 -1.55137 0.190327 0
M  V30 7765 H 704.82 -2.37744 -2.20563 0
M  V30 7766 H 704.605 -3.76401 -1.09838 0
M  V30 7767 H 706.095 -3.62209 -2.07833 0
M  V30 7768 N 706.532 -0.168513 -1.56696 0
M  V30 7769 C 707.442 0.775435 -2.21414 0
M  V30 7770 C 708.458 1.25529 -1.20492 0
M  V30 7771 O 709.634 1.30801 -1.53144 0
M  V30 7772 C 706.699 1.9886 -2.83999 0
M  V30 7773 C 705.76 1.5559 -4.00113 0
M  V30 7774 C 704.993 2.71124 -4.59704 0
M  V30 7775 O 705.216 3.87917 -4.18182 0
M  V30 7776 O 704.15 2.4536 -5.4962 0
M  V30 7777 H 707.976 0.254416 -3.02632 0
M  V30 7778 H 705.561 0.0595507 -1.49281 0
M  V30 7779 H 707.443 2.69816 -3.23693 0
M  V30 7780 H 706.118 2.49874 -2.05779 0
M  V30 7781 H 705.025 0.815924 -3.65094 0
M  V30 7782 H 706.358 1.09271 -4.79917 0
M  V30 7783 N 708.01 1.57248 0.105221 0
M  V30 7784 C 709.258 1.85204 0.808951 0
M  V30 7785 C 709.579 0.75574 1.7976 0
M  V30 7786 O 708.849 -0.218984 1.94672 0
M  V30 7787 H 707.429 0.683346 0.301739 0
M  V30 7788 H 710.091 1.94695 0.0892605 0
M  V30 7789 H 709.187 2.81595 1.34575 0
M  V30 7790 N 709.488 -0.375779 1.53054 0
M  V30 7791 C 710.398 -1.48381 1.81715 0
M  V30 7792 C 711.414 -1.59087 0.704795 0
M  V30 7793 O 712.59 -1.75174 0.993785 0
M  V30 7794 C 709.655 -2.83767 1.99192 0
M  V30 7795 C 708.716 -2.82673 3.23102 0
M  V30 7796 C 707.949 -4.11601 3.39736 0
M  V30 7797 O 708.172 -5.07243 2.60885 0
M  V30 7798 O 707.106 -4.18034 4.33049 0
M  V30 7799 H 710.932 -1.27089 2.7583 0
M  V30 7800 H 708.517 -0.564902 1.38308 0
M  V30 7801 H 710.399 -3.64004 2.12318 0
M  V30 7802 H 709.074 -3.05057 1.08267 0
M  V30 7803 H 707.981 -2.0117 3.15407 0
M  V30 7804 H 709.314 -2.66335 4.13916 0
M  V30 7805 N 710.966 -1.44241 -0.634997 0
M  V30 7806 C 712.214 -1.46531 -1.39187 0
M  V30 7807 C 712.535 -0.0976441 -1.94755 0
M  V30 7808 O 711.805 0.869528 -1.75545 0
M  V30 7809 H 710.385 -0.539544 -0.516625 0
M  V30 7810 H 713.047 -1.79989 -0.747655 0
M  V30 7811 H 712.143 -2.18848 -2.22513 0
M  V30 7812 N 712.444 0.87505 -1.31075 0
M  V30 7813 C 713.407 1.96333 -1.18263 0
M  V30 7814 C 714.407 1.60416 -0.111106 0
M  V30 7815 O 715.597 1.7044 -0.359987 0
M  V30 7816 C 712.729 3.31036 -0.81414 0
M  V30 7817 H 713.922 2.09125 -2.14958 0
M  V30 7818 H 711.475 1.06271 -1.14614 0
M  V30 7819 H 712.21 3.23944 0.151875 0
M  V30 7820 H 711.995 3.58476 -1.58862 0
M  V30 7821 H 713.485 4.10842 -0.748249 0
M  V30 7822 N 713.922 1.13953 1.08869 0
M  V30 7823 C 715.333 0.916649 1.62648 0
M  V30 7824 C 715.684 -0.545589 1.88462 0
M  V30 7825 O 714.809 -1.41351 1.63856 0
M  V30 7826 C 715.404 1.65751 2.95486 0
M  V30 7827 C 713.963 1.48034 3.46068 0
M  V30 7828 C 713.11 1.68305 2.20383 0
M  V30 7829 H 716.061 1.292 0.921572 0
M  V30 7830 H 716.082 1.11794 3.63707 0
M  V30 7831 H 715.594 2.72171 2.76667 0
M  V30 7832 H 713.695 0.439416 3.7 0
M  V30 7833 H 713.808 2.24719 4.23129 0
M  V30 7834 H 712.172 1.10833 2.29321 0
M  V30 7835 H 712.955 2.76057 2.04077 0
M  V30 7836 N 715.4 -1.26948 0.933913 0
M  V30 7837 C 716.628 -1.98186 0.59414 0
M  V30 7838 C 717.043 -1.69614 -0.829257 0
M  V30 7839 O 716.4 -0.960213 -1.55197 0
M  V30 7840 C 716.451 -3.52123 0.818026 0
M  V30 7841 O 716.172 -3.79698 2.18543 0
M  V30 7842 C 717.673 -4.40608 0.48781 0
M  V30 7843 H 714.893 -0.632305 0.224569 0
M  V30 7844 H 717.437 -1.61646 1.25263 0
M  V30 7845 H 715.592 -3.86851 0.206246 0
M  V30 7846 H 716.006 -4.7426 2.24005 0
M  V30 7847 H 717.48 -5.47606 0.695126 0
M  V30 7848 H 717.957 -4.35394 -0.576913 0
M  V30 7849 H 718.563 -4.11411 1.078 0
M  V30 7850 N 716.879 -0.700114 -1.41195 0
M  V30 7851 C 718.29 -0.307249 -1.84154 0
M  V30 7852 C 718.641 1.15539 -1.58572 0
M  V30 7853 O 717.766 1.88744 -1.05852 0
M  V30 7854 C 718.361 -0.550872 -3.34292 0
M  V30 7855 C 716.92 -0.211877 -3.75803 0
M  V30 7856 C 716.067 -0.830915 -2.64558 0
M  V30 7857 H 719.018 -0.900431 -1.30683 0
M  V30 7858 H 719.039 0.188954 -3.80031 0
M  V30 7859 H 718.551 -1.61548 -3.5288 0
M  V30 7860 H 716.652 0.848283 -3.62815 0
M  V30 7861 H 716.765 -0.67007 -4.74391 0
M  V30 7862 H 715.129 -0.260155 -2.53368 0
M  V30 7863 H 715.912 -1.89948 -2.85963 0
M  V30 7864 N 718.357 1.51182 -0.445186 0
M  V30 7865 C 719.305 2.29531 0.376597 0
M  V30 7866 C 720.299 1.35711 1.01385 0
M  V30 7867 O 721.505 1.53018 0.947922 0
M  V30 7868 H 717.88 0.738803 0.140267 0
M  V30 7869 H 719.851 2.96838 -0.304958 0
M  V30 7870 C 718.6 3.1552 1.4609 0
M  V30 7871 H 717.923 3.87605 0.979912 0
M  V30 7872 H 719.363 3.73384 2.009 0
M  V30 7873 C 717.822 2.31406 2.44852 0
M  V30 7874 O 718.352 1.97912 3.49562 0
M  V30 7875 N 716.558 1.94478 2.15932 0
M  V30 7876 H 716.105 2.21917 1.30808 0
M  V30 7877 H 716.063 1.38498 2.82251 0
M  V30 7878 O 719.874 0.317958 1.58339 0
M  V30 7879 H 720.565 -0.243085 1.92169 0
M  V30 END ATOM
M  V30 BEGIN BOND
M  V30 END BOND
M  V30 END CTAB
M  END
$$$$
