drugbank_target|Q9BW91 ADP-ribose pyrophosphatase, mitochondrial (DB02379; DB04352)
 OpenBabel12092120023D

  0  0  0     0  0            999 V3000
M  V30 BEGIN CTAB
M  V30 COUNTS 5454 5517 0 0 0
M  V30 BEGIN ATOM
M  V30 1 H -0.908 1.98254 -0.117106 0
M  V30 2 N 0 1.576 0 0
M  V30 3 C 0.933 2.03868 1.02534 0
M  V30 4 C 1.911 0.928543 1.3348 0
M  V30 5 O 3.095 1.19667 1.45644 0
M  V30 6 C 0.222 2.43627 2.35294 0
M  V30 7 C -0.732 3.65373 2.2001 0
M  V30 8 S 0.101 5.13292 1.52614 0
M  V30 9 C 1.257 5.56322 2.86805 0
M  V30 10 H 1.49 2.90518 0.631377 0
M  V30 11 H -0.977 1.52953 0.210867 0
M  V30 12 H 0.981 2.67203 3.11629 0
M  V30 13 H -0.358 1.57376 2.7183 0
M  V30 14 H -1.165 3.90944 3.18086 0
M  V30 15 H -1.563 3.418 1.51819 0
M  V30 16 H 0.729 5.58782 3.83104 0
M  V30 17 H 1.672 6.56266 2.65933 0
M  V30 18 H 2.08 4.83886 2.90714 0
M  V30 19 N 1.4781 -0.272755 1.55222 0
M  V30 20 C 2.4411 -1.32041 1.87344 0
M  V30 21 C 3.4411 -1.42342 0.74803 0
M  V30 22 O 4.6311 -1.41488 1.0162 0
M  V30 23 C 1.7631 -2.70173 2.07893 0
M  V30 24 H 2.9561 -1.04789 2.80997 0
M  V30 25 H 0.5091 -0.51083 1.47717 0
M  V30 26 H 1.2441 -3.02605 1.16622 0
M  V30 27 H 1.0291 -2.64082 2.89833 0
M  V30 28 H 2.5191 -3.45869 2.34017 0
M  V30 29 N 2.9562 -1.48159 -0.537278 0
M  V30 30 C 4.2042 -1.55497 -1.29094 0
M  V30 31 C 4.5252 -0.227454 -1.93669 0
M  V30 32 O 3.7952 0.750386 -1.80959 0
M  V30 33 H 2.3752 -0.572832 -0.47945 0
M  V30 34 H 5.0372 -1.84579 -0.625818 0
M  V30 35 H 4.1332 -2.33216 -2.07405 0
M  V30 36 N 4.4343 0.785586 -1.36625 0
M  V30 37 C 5.8503 1.08419 -1.17122 0
M  V30 38 C 6.0503 2.015 0.00208491 0
M  V30 39 O 5.1063 2.43551 0.666278 0
M  V30 40 C 6.4193 1.69498 -2.48377 0
M  V30 41 C 7.9673 1.81821 -2.54775 0
M  V30 42 C 8.4423 2.46315 -3.86126 0
M  V30 43 N 9.9333 2.53779 -3.87492 0
M  V30 44 C 10.6683 3.045 -4.85868 0
M  V30 45 N 10.1643 3.55499 -5.94637 0
M  V30 46 N 11.9573 3.03247 -4.73284 0
M  V30 47 H 4.1083 0.167264 -2.1174 0
M  V30 48 H 6.3713 0.13682 -0.938075 0
M  V30 49 H 6.0773 1.08571 -3.34522 0
M  V30 50 H 5.9513 2.6896 -2.64462 0
M  V30 51 H 8.3383 2.41884 -1.69045 0
M  V30 52 H 8.4193 0.811532 -2.42586 0
M  V30 53 H 8.0633 1.86895 -4.72263 0
M  V30 54 H 7.9933 3.47561 -3.95612 0
M  V30 55 H 10.4843 2.17672 -3.08913 0
M  V30 56 H 10.7973 3.92562 -6.65669 0
M  V30 57 H 9.1423 3.5364 -5.98301 0
M  V30 58 H 12.3333 2.62696 -3.87438 0
M  V30 59 H 12.5063 3.42467 -5.50109 0
M  V30 60 N 5.9124 1.20967 1.01018 0
M  V30 61 C 6.8424 0.988272 2.11555 0
M  V30 62 C 7.8234 -0.0849778 1.69888 0
M  V30 63 O 9.0084 0.0738202 1.9406 0
M  V30 64 C 6.1384 0.546528 3.42973 0
M  V30 65 C 5.0924 1.56375 3.9841 0
M  V30 66 C 4.4184 0.97842 5.25672 0
M  V30 67 C 5.7184 2.94922 4.31066 0
M  V30 68 H 7.4124 1.91276 2.30334 0
M  V30 69 H 4.9584 0.921073 1.1069 0
M  V30 70 H 6.9114 0.378839 4.19694 0
M  V30 71 H 5.6354 -0.413598 3.23971 0
M  V30 72 H 4.2944 1.71891 3.23804 0
M  V30 73 H 3.9424 0.0101688 5.02999 0
M  V30 74 H 3.6424 1.65784 5.63728 0
M  V30 75 H 5.1664 0.821939 6.05043 0
M  V30 76 H 6.5804 2.8288 4.9865 0
M  V30 77 H 4.9774 3.5983 4.80253 0
M  V30 78 H 6.0474 3.4616 3.39561 0
M  V30 79 N 7.3905 -1.2043 1.01659 0
M  V30 80 C 8.3205 -2.25466 0.607226 0
M  V30 81 C 9.3015 -1.65853 -0.377716 0
M  V30 82 O 10.4865 -1.92409 -0.263149 0
M  V30 83 C 7.6165 -3.47256 -0.0552949 0
M  V30 84 C 6.5705 -4.19462 0.850632 0
M  V30 85 C 5.8965 -5.34673 0.0538859 0
M  V30 86 C 7.1965 -4.75603 2.15868 0
M  V30 87 H 8.8905 -2.59962 1.48526 0
M  V30 88 H 6.4365 -1.2496 0.715605 0
M  V30 89 H 8.3895 -4.19917 -0.353233 0
M  V30 90 H 7.1135 -3.11924 -0.968045 0
M  V30 91 H 5.7725 -3.48667 1.13257 0
M  V30 92 H 5.4205 -4.95585 -0.860514 0
M  V30 93 H 5.1205 -5.83913 0.657192 0
M  V30 94 H 6.6445 -6.10138 -0.237598 0
M  V30 95 H 8.0585 -5.40083 1.92311 0
M  V30 96 H 6.4555 -5.3528 2.71284 0
M  V30 97 H 7.5255 -3.94346 2.82169 0
M  V30 98 N 8.8686 -0.792821 -1.36206 0
M  V30 99 C 10.1166 -0.366062 -1.98757 0
M  V30 100 C 10.4376 1.0668 -1.63231 0
M  V30 101 O 9.7076 1.73587 -0.907978 0
M  V30 102 H 8.2876 -0.132364 -0.735179 0
M  V30 103 H 10.9496 -1.01562 -1.66347 0
M  V30 104 H 10.0456 -0.460638 -3.08682 0
M  V30 105 N 10.3467 1.47872 -0.545128 0
M  V30 106 C 11.2937 2.29849 0.2093 0
M  V30 107 C 12.2637 1.38313 0.919707 0
M  V30 108 O 13.4487 1.67277 0.917772 0
M  V30 109 C 10.5887 3.22019 1.24088 0
M  V30 110 C 9.7017 4.2864 0.537778 0
M  V30 111 C 8.8367 5.07973 1.5536 0
M  V30 112 C 7.8757 6.06381 0.8348 0
M  V30 113 N 7.0127 6.78717 1.79688 0
M  V30 114 H 11.8527 2.93845 -0.49591 0
M  V30 115 H 9.3897 1.44848 -0.256389 0
M  V30 116 H 11.3477 3.73868 1.85144 0
M  V30 117 H 9.9777 2.59914 1.91428 0
M  V30 118 H 9.0297 3.7994 -0.187046 0
M  V30 119 H 10.3417 4.98793 -0.0258907 0
M  V30 120 H 9.4957 5.63912 2.23803 0
M  V30 121 H 8.2347 4.37693 2.15118 0
M  V30 122 H 7.2397 5.49631 0.136388 0
M  V30 123 H 8.4647 6.78665 0.24313 0
M  V30 124 H 6.4107 6.11177 2.38326 0
M  V30 125 H 6.3277 7.44998 1.28505 0
M  V30 126 H 7.5957 7.39237 2.47282 0
M  V30 127 N 11.8248 0.280983 1.55075 0
M  V30 128 C 12.7878 -0.590896 2.21452 0
M  V30 129 C 13.7878 -1.07682 1.19421 0
M  V30 130 O 14.9778 -0.97605 1.44288 0
M  V30 131 C 12.1098 -1.81587 2.88511 0
M  V30 132 H 13.3028 -0.0112554 2.99898 0
M  V30 133 H 10.8558 0.0316438 1.56268 0
M  V30 134 H 11.5908 -2.43587 2.14093 0
M  V30 135 H 11.3758 -1.4753 3.63287 0
M  V30 136 H 12.8658 -2.43575 3.39206 0
M  V30 137 N 13.3029 -1.57598 0.00835791 0
M  V30 138 C 14.2329 -2.1198 -0.979113 0
M  V30 139 C 15.2139 -1.03091 -1.35301 0
M  V30 140 O 16.3989 -1.30818 -1.43528 0
M  V30 141 C 13.5289 -2.62995 -2.26828 0
M  V30 142 C 12.4829 -3.76485 -2.03576 0
M  V30 143 C 11.8089 -4.13846 -3.38579 0
M  V30 144 C 13.1089 -5.0342 -1.39161 0
M  V30 145 H 14.8029 -2.94738 -0.526281 0
M  V30 146 H 12.3489 -1.41783 -0.251704 0
M  V30 147 H 14.3019 -2.99669 -2.96271 0
M  V30 148 H 13.0259 -1.7737 -2.7424 0
M  V30 149 H 11.6849 -3.40217 -1.36557 0
M  V30 150 H 11.3329 -3.25232 -3.83709 0
M  V30 151 H 11.0329 -4.90312 -3.23834 0
M  V30 152 H 12.5569 -4.53086 -4.09323 0
M  V30 153 H 13.9709 -5.37812 -1.98573 0
M  V30 154 H 12.3679 -5.84746 -1.34878 0
M  V30 155 H 13.4379 -4.83548 -0.361868 0
M  V30 156 N 14.781 0.264519 -1.55364 0
M  V30 157 C 15.744 1.31046 -1.88042 0
M  V30 158 C 16.744 1.41943 -0.755569 0
M  V30 159 O 17.934 1.40947 -1.02369 0
M  V30 160 C 15.066 2.69067 -2.09323 0
M  V30 161 H 16.259 1.03297 -2.81549 0
M  V30 162 H 13.812 0.502989 -1.47986 0
M  V30 163 H 14.547 3.01982 -1.18226 0
M  V30 164 H 14.332 2.62542 -2.91229 0
M  V30 165 H 15.822 3.44623 -2.35848 0
M  V30 166 N 16.2591 1.48442 0.529413 0
M  V30 167 C 17.2221 1.62524 1.61612 0
M  V30 168 C 18.2221 0.498509 1.52877 0
M  V30 169 O 19.4121 0.76431 1.56537 0
M  V30 170 C 16.5441 1.59597 3.01233 0
M  V30 171 H 17.7371 2.59423 1.50465 0
M  V30 172 H 15.2901 1.37047 0.751514 0
M  V30 173 H 16.0251 0.641781 3.17886 0
M  V30 174 H 15.8101 2.41397 3.08982 0
M  V30 175 H 17.3001 1.72646 3.80241 0
M  V30 176 N 17.7372 -0.778329 1.37039 0
M  V30 177 C 18.9832 -1.53892 1.32079 0
M  V30 178 C 19.3162 -1.9396 -0.0965386 0
M  V30 179 O 18.5912 -1.63568 -1.05242 0
M  V30 180 C 18.8742 -2.80847 2.25382 0
M  V30 181 C 18.7272 -2.47076 3.75864 0
M  V30 182 C 20.0462 -3.82741 2.1725 0
M  V30 183 H 17.1652 -0.558303 0.48111 0
M  V30 184 H 19.8072 -0.893397 1.67685 0
M  V30 185 H 17.9572 -3.35931 1.95148 0
M  V30 186 H 19.6292 -1.97957 4.16666 0
M  V30 187 H 17.8722 -1.79863 3.94755 0
M  V30 188 H 18.5432 -3.37798 4.36574 0
M  V30 189 H 21.0192 -3.37133 2.43887 0
M  V30 190 H 19.8952 -4.69303 2.84686 0
M  V30 191 H 20.1562 -4.2652 1.16331 0
M  V30 192 N 19.2153 -1.21501 -1.00376 0
M  V30 193 C 20.4403 -1.05977 -1.78279 0
M  V30 194 C 20.8653 0.385994 -1.84097 0
M  V30 195 O 20.2233 1.27849 -1.28547 0
M  V30 196 C 20.2713 -1.66302 -3.19963 0
M  V30 197 O 19.3753 -0.909333 -4.0225 0
M  V30 198 H 18.7163 -0.372906 -0.549397 0
M  V30 199 H 21.2463 -1.6107 -1.26165 0
M  V30 200 H 21.2563 -1.70574 -3.70632 0
M  V30 201 H 19.9313 -2.71515 -3.15043 0
M  V30 202 H 18.5083 -0.941795 -3.60811 0
M  V30 203 N 20.6934 1.19889 -1.02296 0
M  V30 204 C 21.6234 2.25141 -0.619174 0
M  V30 205 C 22.6044 1.66051 0.368915 0
M  V30 206 O 23.7894 1.92546 0.252941 0
M  V30 207 C 20.9194 3.4728 0.0368783 0
M  V30 208 C 19.8734 4.19005 -0.872865 0
M  V30 209 C 19.1994 5.34637 -0.0822402 0
M  V30 210 C 20.4994 4.74452 -2.18387 0
M  V30 211 H 22.1934 2.59171 -1.49903 0
M  V30 212 H 19.7394 1.24579 -0.722222 0
M  V30 213 H 21.6924 4.20098 0.330958 0
M  V30 214 H 20.4164 3.12433 0.95149 0
M  V30 215 H 19.0754 3.48061 -1.15105 0
M  V30 216 H 18.7234 4.96034 0.83422 0
M  V30 217 H 18.4234 5.83557 -0.688149 0
M  V30 218 H 19.9474 6.10255 0.205238 0
M  V30 219 H 21.3614 5.39055 -1.95172 0
M  V30 220 H 19.7584 5.33834 -2.74119 0
M  V30 221 H 20.8284 3.92844 -2.84257 0
M  V30 222 N 22.1715 0.800033 1.35784 0
M  V30 223 C 23.3965 0.388511 2.03729 0
M  V30 224 C 23.8215 -0.990481 1.5991 0
M  V30 225 O 23.1795 -1.64013 0.772612 0
M  V30 226 C 23.2275 0.4726 3.5749 0
M  V30 227 O 22.3315 -0.51646 4.09153 0
M  V30 228 H 21.6725 0.163271 0.643614 0
M  V30 229 H 24.2025 1.0841 1.73518 0
M  V30 230 H 24.2125 0.34003 4.06581 0
M  V30 231 H 22.8875 1.47848 3.88734 0
M  V30 232 H 21.4645 -0.344673 3.71304 0
M  V30 233 N 23.6496 -1.47581 0.552962 0
M  V30 234 C 24.5796 -2.32762 -0.185451 0
M  V30 235 C 25.5606 -1.43527 -0.912905 0
M  V30 236 O 26.7456 -1.72388 -0.894201 0
M  V30 237 C 23.8756 -3.25219 -1.21859 0
M  V30 238 C 22.8296 -4.23661 -0.607864 0
M  V30 239 C 22.1556 -5.05413 -1.74533 0
M  V30 240 C 23.4556 -5.20481 0.435582 0
M  V30 241 H 25.1496 -2.94749 0.525684 0
M  V30 242 H 22.6956 -1.41738 0.254251 0
M  V30 243 H 24.6486 -3.8365 -1.7433 0
M  V30 244 H 23.3726 -2.61279 -1.95961 0
M  V30 245 H 22.0316 -3.66451 -0.104489 0
M  V30 246 H 21.6796 -4.3788 -2.47529 0
M  V30 247 H 21.3796 -5.72059 -1.34249 0
M  V30 248 H 22.9036 -5.66701 -2.27338 0
M  V30 249 H 24.3176 -5.733 -0.00290157 0
M  V30 250 H 22.7146 -5.95305 0.757067 0
M  V30 251 H 23.7846 -4.66217 1.33303 0
M  V30 252 N 25.1277 -0.289203 -1.54924 0
M  V30 253 C 26.0907 0.579144 -2.21762 0
M  V30 254 C 27.0907 1.07047 -1.1999 0
M  V30 255 O 28.2807 0.968384 -1.44803 0
M  V30 256 C 25.4127 1.80055 -2.8947 0
M  V30 257 H 26.6057 -0.00464908 -2.999 0
M  V30 258 H 24.1587 -0.0399306 -1.56249 0
M  V30 259 H 24.8937 2.42449 -2.15381 0
M  V30 260 H 24.6787 1.45602 -3.64064 0
M  V30 261 H 26.1687 2.41773 -3.40493 0
M  V30 262 N 26.6058 1.57591 -0.0167156 0
M  V30 263 C 27.5358 2.12496 0.967858 0
M  V30 264 C 28.5168 1.03807 1.34752 0
M  V30 265 O 29.7018 1.31577 1.42833 0
M  V30 266 C 26.8318 2.64194 2.25431 0
M  V30 267 C 25.7858 3.77559 2.01576 0
M  V30 268 C 25.1118 4.15636 3.36379 0
M  V30 269 C 26.4118 5.04151 1.36489 0
M  V30 270 H 28.1058 2.95013 0.510643 0
M  V30 271 H 25.6518 1.41915 0.244181 0
M  V30 272 H 27.6048 3.01236 2.94678 0
M  V30 273 H 26.3288 1.78821 2.73296 0
M  V30 274 H 24.9878 3.40937 1.34751 0
M  V30 275 H 24.6358 3.27263 3.81979 0
M  V30 276 H 24.3358 4.92022 3.21229 0
M  V30 277 H 25.8598 4.5525 4.06915 0
M  V30 278 H 27.2738 5.38857 1.95718 0
M  V30 279 H 25.6708 5.85453 1.31776 0
M  V30 280 H 26.7408 4.83733 0.336219 0
M  V30 281 N 28.0839 -0.256276 1.55502 0
M  V30 282 C 29.0469 -1.30047 1.88734 0
M  V30 283 C 30.0469 -1.4154 0.763086 0
M  V30 284 O 31.2369 -1.40403 1.03115 0
M  V30 285 C 28.3689 -2.67953 2.10747 0
M  V30 286 H 29.5619 -1.01802 2.82093 0
M  V30 287 H 27.1149 -0.495134 1.4825 0
M  V30 288 H 27.8499 -3.01351 1.19825 0
M  V30 289 H 27.6349 -2.60993 2.92617 0
M  V30 290 H 29.1249 -3.43368 2.37673 0
M  V30 291 N 29.562 -1.4872 -0.521534 0
M  V30 292 C 30.787 -1.61101 -1.30618 0
M  V30 293 C 31.212 -0.274611 -1.86085 0
M  V30 294 O 30.57 0.754937 -1.64834 0
M  V30 295 C 30.618 -2.66709 -2.4269 0
M  V30 296 O 29.722 -2.24456 -3.45967 0
M  V30 297 H 29.063 -0.539921 -0.386499 0
M  V30 298 H 31.593 -1.94767 -0.626645 0
M  V30 299 H 31.603 -2.88245 -2.88754 0
M  V30 300 H 30.278 -3.63727 -2.01682 0
M  V30 301 H 28.855 -2.13168 -3.05964 0
M  V30 302 N 31.0401 0.771051 -1.3745 0
M  V30 303 C 32.2861 1.5319 -1.32894 0
M  V30 304 C 32.6191 1.94008 0.0862511 0
M  V30 305 O 31.8941 1.64124 1.04373 0
M  V30 306 C 32.1771 2.79648 -2.26868 0
M  V30 307 C 32.0301 2.45079 -3.77169 0
M  V30 308 C 33.3491 3.81583 -2.19277 0
M  V30 309 H 30.4681 0.555744 -0.484064 0
M  V30 310 H 33.1101 0.884492 -1.68157 0
M  V30 311 H 31.2601 3.34891 -1.96926 0
M  V30 312 H 32.9321 1.95745 -4.1771 0
M  V30 313 H 31.1751 1.77767 -3.95704 0
M  V30 314 H 31.8461 3.35478 -4.38359 0
M  V30 315 H 34.3221 3.35835 -2.45671 0
M  V30 316 H 33.1981 4.67787 -2.87171 0
M  V30 317 H 33.4591 4.25897 -1.18592 0
M  V30 318 N 32.5182 1.22032 0.997298 0
M  V30 319 C 33.7462 1.06841 1.7718 0
M  V30 320 C 34.1612 -0.381325 1.84909 0
M  V30 321 O 33.5182 -1.26437 1.31605 0
M  V30 322 C 33.5692 1.66814 3.20711 0
M  V30 323 O 33.2902 3.06116 3.13408 0
M  V30 324 C 34.7912 1.56838 4.14628 0
M  V30 325 H 32.0112 0.374782 0.556578 0
M  V30 326 H 34.5552 1.61532 1.2541 0
M  V30 327 H 32.7102 1.16196 3.69564 0
M  V30 328 H 33.1242 3.34926 4.0364 0
M  V30 329 H 34.5982 2.03532 5.13107 0
M  V30 330 H 35.0752 0.524155 4.36061 0
M  V30 331 H 35.6812 2.06741 3.7167 0
M  V30 332 N 33.9963 -1.19345 1.0293 0
M  V30 333 C 35.2453 -1.88363 0.721256 0
M  V30 334 C 35.5583 -1.80514 -0.753254 0
M  V30 335 O 36.7643 -2.44788 -1.17436 0
M  V30 336 C 35.2203 -3.37872 1.23978 0
M  V30 337 C 34.8283 -3.54278 2.74211 0
M  V30 338 C 36.5723 -4.12365 1.00775 0
M  V30 339 C 34.4793 -4.97682 3.19479 0
M  V30 340 H 33.4093 -0.705484 0.266098 0
M  V30 341 H 36.0603 -1.34928 1.24365 0
M  V30 342 H 34.4423 -3.90707 0.6453 0
M  V30 343 H 35.6163 -3.11769 3.39318 0
M  V30 344 H 33.9313 -2.93174 2.95699 0
M  V30 345 H 36.5283 -5.18119 1.32123 0
M  V30 346 H 36.8713 -4.16263 -0.0554308 0
M  V30 347 H 37.4043 -3.65668 1.56625 0
M  V30 348 H 34.1433 -4.98945 4.25128 0
M  V30 349 H 33.6633 -5.4095 2.591 0
M  V30 350 H 35.3423 -5.66337 3.12845 0
M  V30 351 N 35.4744 -0.807222 -1.35358 0
M  V30 352 C 36.8904 -0.491038 -1.51858 0
M  V30 353 C 37.0904 0.987648 -1.75635 0
M  V30 354 O 36.1464 1.77265 -1.79815 0
M  V30 355 C 37.4594 -1.33695 -2.69344 0
M  V30 356 C 39.0074 -1.33246 -2.83222 0
M  V30 357 C 39.4824 -2.1625 -4.03733 0
M  V30 358 N 40.9734 -2.1379 -4.10911 0
M  V30 359 C 41.7084 -2.74772 -5.03277 0
M  V30 360 N 41.2044 -3.44684 -6.0097 0
M  V30 361 N 42.9974 -2.6441 -4.96028 0
M  V30 362 H 35.1484 -1.76485 -1.18181 0
M  V30 363 H 37.4114 -0.751199 -0.578276 0
M  V30 364 H 37.1174 -2.38634 -2.58354 0
M  V30 365 H 36.9914 -0.990618 -3.6396 0
M  V30 366 H 39.3784 -0.290911 -2.93663 0
M  V30 367 H 39.4594 -1.71866 -1.89461 0
M  V30 368 H 39.1034 -3.20445 -3.94052 0
M  V30 369 H 39.0334 -1.74989 -4.96675 0
M  V30 370 H 41.5244 -1.62923 -3.40976 0
M  V30 371 H 41.8374 -3.88501 -6.68047 0
M  V30 372 H 40.1824 -3.48788 -6.01142 0
M  V30 373 H 43.3734 -2.0938 -4.18662 0
M  V30 374 H 43.5464 -3.12225 -5.6782 0
M  V30 375 N 36.9525 1.47285 -0.560781 0
M  V30 376 C 38.1775 2.07359 -0.0410566 0
M  V30 377 C 38.6025 1.41017 1.24483 0
M  V30 378 O 37.9605 0.486368 1.74654 0
M  V30 379 C 38.0085 3.6035 0.134123 0
M  V30 380 O 37.1125 3.94681 1.19587 0
M  V30 381 H 36.4535 0.661887 -0.0529291 0
M  V30 382 H 38.9835 1.89252 -0.777482 0
M  V30 383 H 38.9935 4.0652 0.347207 0
M  V30 384 H 37.6685 4.08034 -0.805047 0
M  V30 385 H 36.2455 3.60251 0.962987 0
M  V30 386 N 38.4306 0.297415 1.54768 0
M  V30 387 C 39.6556 -0.318435 2.04941 0
M  V30 388 C 40.0806 -1.4701 1.17345 0
M  V30 389 O 39.4386 -1.80436 0.176758 0
M  V30 390 C 39.4866 -0.755749 3.52592 0
M  V30 391 O 38.5906 -1.86088 3.68028 0
M  V30 392 H 37.9316 -0.062421 0.661059 0
M  V30 393 H 40.4616 0.438215 1.99852 0
M  V30 394 H 40.4716 -1.04552 3.94376 0
M  V30 395 H 39.1466 0.0867233 4.1581 0
M  V30 396 H 37.7236 -1.57193 3.38149 0
M  V30 397 N 39.9087 -1.5758 0.0250728 0
M  V30 398 C 41.3247 -1.56124 -0.331282 0
M  V30 399 C 41.5247 -1.03029 -1.73169 0
M  V30 400 O 40.5807 -0.675215 -2.43305 0
M  V30 401 C 41.8937 -3.00139 -0.183584 0
M  V30 402 C 43.4417 -3.11946 -0.256654 0
M  V30 403 C 43.9167 -4.57793 -0.137792 0
M  V30 404 N 45.4077 -4.6279 -0.194904 0
M  V30 405 C 46.1427 -5.7326 -0.126655 0
M  V30 406 N 45.6387 -6.928 -0.00755288 0
M  V30 407 N 47.4317 -5.61811 -0.180348 0
M  V30 408 H 39.5827 -1.90424 0.94087 0
M  V30 409 H 41.8457 -0.875761 0.362968 0
M  V30 410 H 41.5517 -3.4292 0.780927 0
M  V30 411 H 41.4257 -3.64899 -0.955448 0
M  V30 412 H 43.8127 -2.69079 -1.21162 0
M  V30 413 H 43.8937 -2.49915 0.545517 0
M  V30 414 H 43.5377 -5.01339 0.813739 0
M  V30 415 H 43.4677 -5.17798 -0.958775 0
M  V30 416 H 45.9587 -3.76807 -0.287267 0
M  V30 417 H 46.2717 -7.72791 0.0379428 0
M  V30 418 H 44.6167 -6.94995 0.0271731 0
M  V30 419 H 47.8077 -4.6731 -0.271767 0
M  V30 420 H 47.9807 -6.47882 -0.123697 0
M  V30 421 N 41.3868 0.248026 -1.55636 0
M  V30 422 C 42.6268 0.983592 -1.79178 0
M  V30 423 C 42.9908 1.82567 -0.594414 0
M  V30 424 O 44.1918 2.59292 -0.708583 0
M  V30 425 C 42.4628 1.82228 -3.07454 0
M  V30 426 S 44.0218 2.61709 -3.52213 0
M  V30 427 H 40.8398 0.330866 -0.629324 0
M  V30 428 H 43.4418 0.251562 -1.93875 0
M  V30 429 H 42.1458 1.19333 -3.92668 0
M  V30 430 H 41.6768 2.59708 -2.95492 0
M  V30 431 H 43.6918 3.84655 -3.13457 0
M  V30 432 N 42.8649 1.48995 0.513639 0
M  V30 433 C 44.2809 1.35478 0.843682 0
M  V30 434 C 44.4809 0.378213 1.97919 0
M  V30 435 O 43.5369 -0.194689 2.51748 0
M  V30 436 C 44.8499 2.75901 1.1958 0
M  V30 437 C 46.3979 2.84509 1.30474 0
M  V30 438 C 46.8729 4.25671 1.69021 0
M  V30 439 N 48.3639 4.28422 1.76094 0
M  V30 440 C 49.0989 5.34601 2.07338 0
M  V30 441 N 48.5949 6.5104 2.36894 0
M  V30 442 N 50.3879 5.22007 2.08483 0
M  V30 443 H 42.5389 2.11092 -0.235328 0
M  V30 444 H 44.8019 0.947039 -0.0426669 0
M  V30 445 H 44.5079 3.49001 0.434913 0
M  V30 446 H 44.3819 3.10467 2.1422 0
M  V30 447 H 46.7689 2.11655 2.05637 0
M  V30 448 H 46.8499 2.53542 0.339155 0
M  V30 449 H 46.4939 4.99048 0.944135 0
M  V30 450 H 46.4239 4.54094 2.66658 0
M  V30 451 H 48.9149 3.44441 1.55464 0
M  V30 452 H 49.2279 7.2779 2.59887 0
M  V30 453 H 47.5729 6.54287 2.34378 0
M  V30 454 H 50.7639 4.30051 1.84861 0
M  V30 455 H 50.9369 6.04854 2.325 0
M  V30 456 N 44.343 -0.763751 1.37857 0
M  V30 457 C 45.591 -1.51957 1.33243 0
M  V30 458 C 45.912 -1.94835 -0.0801709 0
M  V30 459 O 45.182 -1.66894 -1.02582 0
M  V30 460 H 43.762 -0.563626 0.49024 0
M  V30 461 H 46.424 -0.908504 1.7243 0
M  V30 462 H 45.52 -2.41523 1.97669 0
M  V30 463 N 45.8211 -1.22559 -0.990812 0
M  V30 464 C 47.0701 -1.04553 -1.72486 0
M  V30 465 C 47.3831 0.419349 -1.91052 0
M  V30 466 O 48.5891 0.719121 -2.61803 0
M  V30 467 C 47.0451 -1.82231 -3.10355 0
M  V30 468 C 46.6531 -3.32981 -2.99713 0
M  V30 469 C 48.3971 -1.7268 -3.87791 0
M  V30 470 C 46.3041 -4.03091 -4.32748 0
M  V30 471 H 45.2341 -0.387614 -0.646739 0
M  V30 472 H 47.8851 -1.46429 -1.10593 0
M  V30 473 H 46.2671 -1.33155 -3.72942 0
M  V30 474 H 47.4411 -3.89466 -2.46278 0
M  V30 475 H 45.7561 -3.43231 -2.35758 0
M  V30 476 H 48.3531 -2.22381 -4.86262 0
M  V30 477 H 48.6961 -0.687607 -4.10582 0
M  V30 478 H 49.2291 -2.1931 -3.31885 0
M  V30 479 H 45.9681 -5.07273 -4.15156 0
M  V30 480 H 45.4881 -3.51394 -4.86089 0
M  V30 481 H 47.1671 -4.08804 -5.01486 0
M  V30 482 N 47.2992 1.18797 -1.03562 0
M  V30 483 C 48.2312 2.21731 -0.580337 0
M  V30 484 C 49.2442 1.59051 0.347349 0
M  V30 485 O 50.4332 1.77929 0.142669 0
M  V30 486 C 47.5332 3.38459 0.172805 0
M  V30 487 C 46.7062 4.3072 -0.761496 0
M  V30 488 C 45.7652 5.26174 -0.0525547 0
M  V30 489 O 44.7912 5.65108 -0.681333 0
M  V30 490 N 45.9932 5.67624 1.21586 0
M  V30 491 H 48.7582 2.61417 -1.46565 0
M  V30 492 H 46.3192 1.33531 -0.915476 0
M  V30 493 H 48.3112 3.99335 0.656793 0
M  V30 494 H 46.8812 2.97507 0.959602 0
M  V30 495 H 46.1012 3.67525 -1.42544 0
M  V30 496 H 47.3892 4.89267 -1.39626 0
M  V30 497 H 46.7872 5.38038 1.74732 0
M  V30 498 H 45.3442 6.30721 1.64421 0
M  V30 499 N 48.7773 0.814389 1.34928 0
M  V30 500 C 49.7403 0.235759 2.27984 0
M  V30 501 C 50.7403 -0.581412 1.49921 0
M  V30 502 O 51.9303 -0.398758 1.69575 0
M  V30 503 C 49.0623 -0.670433 3.34242 0
M  V30 504 H 50.2553 1.05659 2.80671 0
M  V30 505 H 47.8083 0.585614 1.44915 0
M  V30 506 H 48.5433 -1.51466 2.86755 0
M  V30 507 H 48.3283 -0.0860822 3.92005 0
M  V30 508 H 49.8183 -1.06935 4.03676 0
M  V30 509 N 50.2554 -1.46986 0.568584 0
M  V30 510 C 51.5024 -2.02441 0.0487986 0
M  V30 511 C 51.8304 -1.44169 -1.30559 0
M  V30 512 O 51.0854 -0.591213 -1.86556 0
M  V30 513 C 51.3844 -3.57306 -0.081836 0
M  V30 514 C 51.0504 -4.34552 1.20313 0
M  V30 515 C 49.7124 -4.55376 1.5552 0
M  V30 516 C 52.0644 -4.79016 2.05411 0
M  V30 517 C 49.3924 -5.17913 2.7565 0
M  V30 518 C 51.7444 -5.42879 3.24754 0
M  V30 519 C 50.4084 -5.61933 3.60261 0
M  V30 520 H 49.6784 -0.740785 0.0178567 0
M  V30 521 H 52.3254 -1.76525 0.742384 0
M  V30 522 H 50.6304 -3.8228 -0.858463 0
M  V30 523 H 52.3274 -3.97876 -0.499546 0
M  V30 524 H 48.9174 -4.18631 0.919014 0
M  V30 525 H 53.1014 -4.62696 1.79516 0
M  V30 526 H 48.3574 -5.30858 3.03315 0
M  V30 527 H 52.5314 -5.76293 3.90973 0
M  V30 528 H 50.1584 -6.10161 4.53439 0
M  V30 529 N 51.7335 -0.305618 -1.54608 0
M  V30 530 C 53.1495 0.0476228 -1.59529 0
M  V30 531 C 53.3495 1.52025 -1.32252 0
M  V30 532 O 52.4055 2.27368 -1.09818 0
M  V30 533 C 53.7185 -0.354471 -2.98603 0
M  V30 534 C 55.2665 -0.303622 -3.11524 0
M  V30 535 C 55.7415 -0.680608 -4.52915 0
M  V30 536 N 57.2325 -0.63332 -4.5885 0
M  V30 537 C 57.9675 -0.897432 -5.66334 0
M  V30 538 N 57.4635 -1.22775 -6.81834 0
M  V30 539 N 59.2565 -0.824186 -5.56025 0
M  V30 540 H 51.4075 -1.2653 -1.70599 0
M  V30 541 H 53.6705 -0.513291 -0.797017 0
M  V30 542 H 53.3765 -1.3798 -3.23503 0
M  V30 543 H 53.2505 0.289568 -3.76087 0
M  V30 544 H 55.6375 0.712472 -2.8637 0
M  V30 545 H 55.7185 -0.982348 -2.36185 0
M  V30 546 H 55.3625 -1.69453 -4.78799 0
M  V30 547 H 55.2925 0.0202385 -5.26596 0
M  V30 548 H 57.7835 -0.389138 -3.75891 0
M  V30 549 H 58.0965 -1.41513 -7.59733 0
M  V30 550 H 56.4415 -1.26583 -6.83375 0
M  V30 551 H 59.6325 -0.565748 -4.64669 0
M  V30 552 H 59.8055 -1.03338 -6.39707 0
M  V30 553 N 53.2116 1.57565 -0.0334293 0
M  V30 554 C 54.1596 2.1164 0.96496 0
M  V30 555 C 55.1536 1.04398 1.33407 0
M  V30 556 O 56.3596 1.22828 1.3158 0
M  V30 557 H 52.7346 0.676222 0.32898 0
M  V30 558 H 54.7056 2.94455 0.483614 0
M  V30 559 C 53.4546 2.66207 2.23672 0
M  V30 560 H 52.7776 3.48378 1.96145 0
M  V30 561 H 54.2176 3.07685 2.9173 0
M  V30 562 C 52.6766 1.59151 2.96939 0
M  V30 563 O 53.2066 0.993858 3.89211 0
M  V30 564 N 51.4126 1.31093 2.59351 0
M  V30 565 H 50.9596 1.7988 1.84393 0
M  V30 566 H 50.9176 0.596889 3.08682 0
M  V30 567 N 54.6897 -0.239769 1.55765 0
M  V30 568 C 55.9147 -0.988373 1.82335 0
M  V30 569 C 56.3397 -1.77886 0.611421 0
M  V30 570 O 55.6977 -1.75889 -0.439639 0
M  V30 571 C 55.7457 -1.89627 3.06715 0
M  V30 572 O 54.8497 -2.98904 2.84131 0
M  V30 573 H 54.1907 -0.280858 0.601677 0
M  V30 574 H 56.7207 -0.258597 2.02959 0
M  V30 575 H 56.7307 -2.30957 3.36338 0
M  V30 576 H 55.4057 -1.31511 3.9456 0
M  V30 577 H 53.9827 -2.61651 2.65694 0
M  V30 578 N 56.1678 -1.49265 -0.50573 0
M  V30 579 C 57.4148 -1.58513 -1.26015 0
M  V30 580 C 57.7428 -0.26972 -1.92621 0
M  V30 581 O 56.9978 0.741997 -1.81088 0
M  V30 582 C 57.2968 -2.69008 -2.35308 0
M  V30 583 C 56.9628 -4.10662 -1.86192 0
M  V30 584 C 55.6248 -4.49212 -1.72516 0
M  V30 585 C 57.9768 -4.99336 -1.49375 0
M  V30 586 C 55.3048 -5.74214 -1.20394 0
M  V30 587 C 57.6568 -6.24852 -0.987072 0
M  V30 588 C 56.3208 -6.62236 -0.836669 0
M  V30 589 H 55.5908 -0.580041 -0.461122 0
M  V30 590 H 58.2378 -1.83078 -0.561665 0
M  V30 591 H 56.5428 -2.38396 -3.10926 0
M  V30 592 H 58.2398 -2.73373 -2.93374 0
M  V30 593 H 54.8298 -3.8023 -1.97795 0
M  V30 594 H 59.0138 -4.70212 -1.5879 0
M  V30 595 H 54.2698 -6.01883 -1.07458 0
M  V30 596 H 58.4438 -6.92944 -0.692983 0
M  V30 597 H 56.0708 -7.58979 -0.430607 0
M  V30 598 N 57.6459 0.756429 -1.3826 0
M  V30 599 C 58.8709 1.55077 -1.37717 0
M  V30 600 C 59.2959 1.88073 0.03164 0
M  V30 601 O 58.6539 1.50364 1.01293 0
M  V30 602 C 58.7019 2.8283 -2.23695 0
M  V30 603 O 57.8059 3.77862 -1.6521 0
M  V30 604 H 57.1469 0.469152 -0.469885 0
M  V30 605 H 59.6769 0.935019 -1.81985 0
M  V30 606 H 59.6869 3.31783 -2.37453 0
M  V30 607 H 58.3619 2.58144 -3.2609 0
M  V30 608 H 56.9389 3.36555 -1.60578 0
M  V30 609 N 59.124 1.23083 0.984299 0
M  V30 610 C 60.349 1.088 1.76571 0
M  V30 611 C 60.774 -0.356657 1.84688 0
M  V30 612 O 60.132 -1.25788 1.30565 0
M  V30 613 C 60.18 1.71371 3.17277 0
M  V30 614 O 59.284 0.973213 4.00752 0
M  V30 615 H 58.625 0.381599 0.543395 0
M  V30 616 H 61.155 1.63057 1.23587 0
M  V30 617 H 61.165 1.76449 3.67872 0
M  V30 618 H 59.84 2.76493 3.10684 0
M  V30 619 H 58.417 0.999078 3.59267 0
M  V30 620 N 60.6021 -1.18246 1.0419 0
M  V30 621 C 61.8271 -1.92736 0.765996 0
M  V30 622 C 62.2521 -1.75728 -0.67091 0
M  V30 623 O 61.6101 -1.06825 -1.46486 0
M  V30 624 C 61.6581 -3.42148 1.13875 0
M  V30 625 O 60.7621 -4.11548 0.264954 0
M  V30 626 H 60.1031 -0.601238 0.281797 0
M  V30 627 H 62.6331 -1.49942 1.39207 0
M  V30 628 H 62.6431 -3.92858 1.1012 0
M  V30 629 H 61.3181 -3.53848 2.18551 0
M  V30 630 H 59.8951 -3.71137 0.362226 0
M  V30 631 N 62.0802 -0.821533 -1.34494 0
M  V30 632 C 63.3262 -0.418729 -1.99043 0
M  V30 633 C 63.6812 1.00672 -1.6396 0
M  V30 634 O 62.9742 1.69132 -0.900271 0
M  V30 635 C 63.1682 -0.556512 -3.53041 0
M  V30 636 C 62.9972 -1.9938 -4.03085 0
M  V30 637 C 61.7672 -2.62539 -4.31742 0
M  V30 638 C 63.9652 -2.96035 -4.20556 0
M  V30 639 N 61.9472 -3.97523 -4.67813 0
M  V30 640 C 63.3182 -4.15924 -4.59791 0
M  V30 641 C 65.3732 -2.9267 -4.02801 0
M  V30 642 C 64.0762 -5.32899 -4.83126 0
M  V30 643 C 66.1022 -4.08861 -4.27302 0
M  V30 644 C 65.4642 -5.275 -4.66822 0
M  V30 645 H 61.5632 -0.201299 -0.755647 0
M  V30 646 H 64.1472 -1.06594 -1.62929 0
M  V30 647 H 62.3182 0.0607924 -3.88352 0
M  V30 648 H 64.0502 -0.126842 -4.04501 0
M  V30 649 H 60.8052 -2.13789 -4.22601 0
M  V30 650 H 61.2292 -4.67061 -4.90085 0
M  V30 651 H 65.8712 -2.02088 -3.71376 0
M  V30 652 H 63.5892 -6.24041 -5.13418 0
M  V30 653 H 67.1752 -4.07654 -4.15101 0
M  V30 654 H 66.0552 -6.15913 -4.85408 0
M  V30 655 N 63.5583 1.46682 -0.576371 0
M  V30 656 C 64.8053 2.02412 -0.0595339 0
M  V30 657 C 65.1333 1.44859 1.29793 0
M  V30 658 O 64.3883 0.601099 1.8624 0
M  V30 659 C 64.6873 3.57345 0.062886 0
M  V30 660 C 64.3533 4.33908 -1.22616 0
M  V30 661 C 63.0153 4.54544 -1.57933 0
M  V30 662 C 65.3673 4.77919 -2.07948 0
M  V30 663 C 62.6953 5.16444 -2.78393 0
M  V30 664 C 65.0473 5.41149 -3.27629 0
M  V30 665 C 63.7113 5.60014 -3.63236 0
M  V30 666 H 62.9813 0.74068 -0.021785 0
M  V30 667 H 65.6283 1.76128 -0.751735 0
M  V30 668 H 63.9333 3.82729 0.838178 0
M  V30 669 H 65.6303 3.98136 0.478439 0
M  V30 670 H 62.2203 4.18138 -0.941202 0
M  V30 671 H 66.4043 4.61738 -1.81967 0
M  V30 672 H 61.6603 5.29242 -3.06126 0
M  V30 673 H 65.8343 5.74211 -3.94023 0
M  V30 674 H 63.4613 6.07748 -4.56669 0
M  V30 675 N 65.0364 0.313813 1.54444 0
M  V30 676 C 65.9864 -0.571898 2.20711 0
M  V30 677 C 66.9704 -1.08913 1.18435 0
M  V30 678 O 68.1624 -1.02777 1.44104 0
M  V30 679 C 65.2914 -1.7371 2.96108 0
M  V30 680 C 64.3774 -1.23522 4.05713 0
M  V30 681 N 64.7684 -0.452288 5.03774 0
M  V30 682 C 63.0664 -1.51482 4.19487 0
M  V30 683 C 63.7674 -0.183438 5.81411 0
M  V30 684 N 62.7434 -0.766845 5.38164 0
M  V30 685 H 66.5454 0.0336802 2.93881 0
M  V30 686 H 64.0594 0.119192 1.61962 0
M  V30 687 H 66.0564 -2.38329 3.4206 0
M  V30 688 H 64.7164 -2.34625 2.24458 0
M  V30 689 H 65.7274 -0.0960131 5.17811 0
M  V30 690 H 62.4044 -2.13053 3.59047 0
M  V30 691 H 63.7944 0.446216 6.70417 0
M  V30 692 N 66.5145 -1.57545 0.0417849 0
M  V30 693 C 67.4445 -2.14009 -0.933929 0
M  V30 694 C 68.4255 -1.05938 -1.33083 0
M  V30 695 O 69.6105 -1.33833 -1.40721 0
M  V30 696 C 66.7405 -2.67747 -2.21199 0
M  V30 697 C 65.6945 -3.80718 -1.95544 0
M  V30 698 C 65.0205 -4.20935 -3.29724 0
M  V30 699 C 66.3205 -5.06258 -1.28452 0
M  V30 700 H 68.0145 -2.95788 -0.463645 0
M  V30 701 H 65.5605 -1.42285 -0.221573 0
M  V30 702 H 67.5135 -3.05886 -2.89848 0
M  V30 703 H 66.2375 -1.83147 -2.70416 0
M  V30 704 H 64.8965 -3.43037 -1.2931 0
M  V30 705 H 64.5445 -3.33298 -3.76724 0
M  V30 706 H 64.2445 -4.9707 -3.13361 0
M  V30 707 H 65.7685 -4.61666 -3.9962 0
M  V30 708 H 67.1825 -5.41903 -1.8712 0
M  V30 709 H 65.5795 -5.87475 -1.22445 0
M  V30 710 H 66.6495 -4.84207 -0.259219 0
M  V30 711 N 67.9926 0.231505 -1.5589 0
M  V30 712 C 68.9406 1.30649 -1.92441 0
M  V30 713 C 69.9346 1.49037 -0.805254 0
M  V30 714 O 71.1406 1.50329 -0.990007 0
M  V30 715 H 67.5156 0.437812 -0.611412 0
M  V30 716 H 69.4866 0.970973 -2.82161 0
M  V30 717 C 68.2356 2.65179 -2.24889 0
M  V30 718 H 67.5586 2.51835 -3.10514 0
M  V30 719 H 68.9986 3.39234 -2.54355 0
M  V30 720 C 67.4576 3.19439 -1.07054 0
M  V30 721 O 67.9876 4.00371 -0.326499 0
M  V30 722 N 66.1936 2.77675 -0.85703 0
M  V30 723 H 65.7406 2.11969 -1.46379 0
M  V30 724 H 65.6986 3.14321 -0.0703223 0
M  V30 725 N 69.4707 1.49531 0.497807 0
M  V30 726 C 70.6987 1.62893 1.27567 0
M  V30 727 C 71.1137 0.301585 1.86376 0
M  V30 728 O 70.4707 -0.713335 1.67982 0
M  V30 729 C 70.5217 2.70013 2.40364 0
M  V30 730 O 70.2427 3.976 1.83972 0
M  V30 731 C 71.7437 2.94109 3.31685 0
M  V30 732 H 68.9637 0.548298 0.386794 0
M  V30 733 H 71.5077 1.95584 0.597245 0
M  V30 734 H 69.6627 2.40092 3.04031 0
M  V30 735 H 70.0767 4.56631 2.58047 0
M  V30 736 H 71.5507 3.72788 4.07104 0
M  V30 737 H 72.0277 2.04147 3.88871 0
M  V30 738 H 72.6337 3.2546 2.73781 0
M  V30 739 N 70.9488 -0.749086 1.3866 0
M  V30 740 C 71.8968 -1.88428 1.36373 0
M  V30 741 C 72.8908 -1.67561 0.248929 0
M  V30 742 O 74.0968 -1.75074 0.41821 0
M  V30 743 H 70.4718 -0.620023 0.42553 0
M  V30 744 H 72.4428 -1.87473 2.32156 0
M  V30 745 C 71.1918 -3.25961 1.21014 0
M  V30 746 H 70.5148 -3.42607 2.06059 0
M  V30 747 H 71.9548 -4.05625 1.23469 0
M  V30 748 C 70.4138 -3.36799 -0.0825941 0
M  V30 749 O 70.9438 -3.87517 -1.05797 0
M  V30 750 N 69.1498 -2.90258 -0.140939 0
M  V30 751 H 68.6968 -2.49174 0.653477 0
M  V30 752 H 68.6548 -2.97889 -1.00545 0
M  V30 753 N 72.4269 -1.23603 -0.977757 0
M  V30 754 C 73.6729 -1.07129 -1.72195 0
M  V30 755 C 74.0059 0.390501 -1.90233 0
M  V30 756 O 73.2809 1.28902 -1.45653 0
M  V30 757 C 73.5639 -1.80031 -3.11867 0
M  V30 758 C 73.4169 -3.33899 -3.01383 0
M  V30 759 C 74.7359 -1.56492 -4.11337 0
M  V30 760 H 71.8549 -0.390571 -0.624999 0
M  V30 761 H 74.4969 -1.52142 -1.13811 0
M  V30 762 H 72.6469 -1.41768 -3.6171 0
M  V30 763 H 74.3189 -3.81699 -2.59043 0
M  V30 764 H 72.5619 -3.62796 -2.37827 0
M  V30 765 H 73.2329 -3.801 -4.00285 0
M  V30 766 H 75.7089 -1.89757 -3.70313 0
M  V30 767 H 74.5849 -2.09973 -5.07151 0
M  V30 768 H 74.8459 -0.500874 -4.39254 0
M  V30 769 N 73.905 1.17692 -1.04816 0
M  V30 770 C 74.838 2.20436 -0.590173 0
M  V30 771 C 75.816 1.58115 0.379244 0
M  V30 772 O 77 1.86228 0.291762 0
M  V30 773 C 74.127 3.38424 0.136817 0
M  V30 774 C 73.173 4.19176 -0.787023 0
M  V30 775 S 74.006 4.84815 -2.27409 0
M  V30 776 C 75.162 6.06195 -1.55817 0
M  V30 777 H 75.395 2.58944 -1.46067 0
M  V30 778 H 72.928 1.28246 -0.859784 0
M  V30 779 H 74.886 4.06798 0.550076 0
M  V30 780 H 73.547 2.98312 0.983299 0
M  V30 781 H 72.74 5.03499 -0.224681 0
M  V30 782 H 72.342 3.56219 -1.13947 0
M  V30 783 H 74.634 6.72078 -0.855387 0
M  V30 784 H 75.577 6.6695 -2.37873 0
M  V30 785 H 75.985 5.54701 -1.04722 0
M  V30 786 N 75.3831 0.828654 1.34056 0
M  V30 787 C 76.6081 0.431637 2.02859 0
M  V30 788 C 77.0331 -0.956339 1.61975 0
M  V30 789 O 76.3911 -1.62338 0.807228 0
M  V30 790 C 76.4391 0.548323 3.56407 0
M  V30 791 O 75.5431 -0.429556 4.10157 0
M  V30 792 H 74.8841 0.176886 0.640006 0
M  V30 793 H 77.4141 1.12066 1.71179 0
M  V30 794 H 77.4241 0.426196 4.05768 0
M  V30 795 H 76.0991 1.5606 3.8551 0
M  V30 796 H 74.6761 -0.265836 3.71951 0
M  V30 797 N 76.8612 -1.46375 0.584142 0
M  V30 798 C 78.1092 -2.01978 0.0701287 0
M  V30 799 C 78.4302 -1.4579 -1.295 0
M  V30 800 O 77.7002 -0.64314 -1.85042 0
M  V30 801 H 76.2802 -0.746648 0.0229345 0
M  V30 802 H 78.9422 -1.79461 0.760245 0
M  V30 803 H 78.0382 -3.121 0.0022064 0
M  V30 804 N 78.3393 -0.321999 -1.54275 0
M  V30 805 C 79.5643 0.285791 -2.05422 0
M  V30 806 C 79.9893 1.45124 -1.19669 0
M  V30 807 O 79.3473 1.80132 -0.205441 0
M  V30 808 C 79.3953 0.69956 -3.53749 0
M  V30 809 O 78.4993 1.8021 -3.70942 0
M  V30 810 H 77.8403 0.0518962 -0.661969 0
M  V30 811 H 80.3703 -0.469954 -1.9913 0
M  V30 812 H 80.3803 0.982649 -3.9599 0
M  V30 813 H 79.0553 -0.152864 -4.15619 0
M  V30 814 H 77.6323 1.51794 -3.40607 0
M  V30 815 N 79.8174 1.5752 -0.0501392 0
M  V30 816 C 80.7654 2.12651 0.942459 0
M  V30 817 C 81.7594 1.05807 1.32292 0
M  V30 818 O 82.9654 1.24217 1.3027 0
M  V30 819 H 79.3404 0.679673 0.321789 0
M  V30 820 H 81.3114 2.94951 0.452356 0
M  V30 821 C 80.0604 2.68565 2.20836 0
M  V30 822 H 79.3834 3.50439 1.92439 0
M  V30 823 H 80.8234 3.10761 2.8845 0
M  V30 824 C 79.2824 1.62291 2.95234 0
M  V30 825 O 79.8124 1.03508 3.88135 0
M  V30 826 N 78.0184 1.33836 2.57946 0
M  V30 827 H 77.5654 1.81826 1.82475 0
M  V30 828 H 77.5234 0.629595 3.08032 0
M  V30 829 N 81.2955 -0.223234 1.56011 0
M  V30 830 C 82.5435 -0.946003 1.78592 0
M  V30 831 C 82.8645 -1.84936 0.618349 0
M  V30 832 O 82.1345 -1.92473 -0.364833 0
M  V30 833 H 80.7145 -0.352298 0.658707 0
M  V30 834 H 83.3765 -0.235494 1.93472 0
M  V30 835 H 82.4725 -1.55381 2.70672 0
M  V30 836 N 82.7736 -1.49793 -0.48987 0
M  V30 837 C 83.9986 -1.63836 -1.27172 0
M  V30 838 C 84.4236 -0.31402 -1.8546 0
M  V30 839 O 83.7816 0.719803 -1.66399 0
M  V30 840 C 83.8296 -2.71797 -2.36978 0
M  V30 841 O 82.9336 -2.31744 -3.41128 0
M  V30 842 H 82.2746 -0.547997 -0.37496 0
M  V30 843 H 84.8046 -1.96053 -0.585191 0
M  V30 844 H 84.8146 -2.94305 -2.82575 0
M  V30 845 H 83.4896 -3.67923 -1.93921 0
M  V30 846 H 82.0666 -2.1961 -3.01373 0
M  V30 847 N 84.2517 0.741722 -1.39055 0
M  V30 848 C 85.1987 1.85566 -1.37237 0
M  V30 849 C 86.1687 1.64457 -0.233072 0
M  V30 850 O 87.3537 1.85957 -0.427147 0
M  V30 851 C 84.4937 3.23004 -1.215 0
M  V30 852 C 83.6067 3.55864 -2.44918 0
M  V30 853 C 82.7417 4.82669 -2.21821 0
M  V30 854 C 81.7807 5.08351 -3.40948 0
M  V30 855 N 80.9177 6.26356 -3.17211 0
M  V30 856 H 85.7577 1.86455 -2.32462 0
M  V30 857 H 83.2947 0.911176 -1.15482 0
M  V30 858 H 85.2527 4.02331 -1.10389 0
M  V30 859 H 83.8827 3.21411 -0.29908 0
M  V30 860 H 82.9347 2.7129 -2.66657 0
M  V30 861 H 84.2467 3.70765 -3.33668 0
M  V30 862 H 83.4007 5.69962 -2.07914 0
M  V30 863 H 82.1397 4.69929 -1.30454 0
M  V30 864 H 81.1447 4.19522 -3.55361 0
M  V30 865 H 82.3697 5.22981 -4.33207 0
M  V30 866 H 80.3157 6.14917 -2.28502 0
M  V30 867 H 80.2327 6.41813 -3.99515 0
M  V30 868 H 81.5007 7.16506 -3.06984 0
M  V30 869 N 85.7298 1.2412 0.971189 0
M  V30 870 C 86.6398 1.04747 2.09917 0
M  V30 871 C 87.6558 -0.0107162 1.73997 0
M  V30 872 O 88.8318 0.186714 2.00533 0
M  V30 873 C 85.8968 0.650828 3.40537 0
M  V30 874 C 84.9578 1.7851 3.90426 0
M  V30 875 C 84.1908 1.40729 5.14812 0
M  V30 876 O 84.4138 0.29557 5.69634 0
M  V30 877 O 83.3478 2.23168 5.58999 0
M  V30 878 H 87.1738 1.99304 2.29154 0
M  V30 879 H 84.7588 1.02908 1.08307 0
M  V30 880 H 86.6408 0.440992 4.19086 0
M  V30 881 H 85.3158 -0.265649 3.22608 0
M  V30 882 H 84.2228 2.04966 3.12953 0
M  V30 883 H 85.5558 2.68023 4.12825 0
M  V30 884 N 87.2079 -1.17134 1.05439 0
M  V30 885 C 88.1559 -2.23289 0.651511 0
M  V30 886 C 89.1499 -1.66186 -0.328411 0
M  V30 887 O 90.3559 -1.78949 -0.194206 0
M  V30 888 H 86.7309 -0.726938 0.192523 0
M  V30 889 H 88.7019 -2.54565 1.55689 0
M  V30 890 C 87.4509 -3.47671 0.0448436 0
M  V30 891 H 86.7739 -3.91918 0.78996 0
M  V30 892 H 88.2139 -4.2353 -0.19964 0
M  V30 893 C 86.6729 -3.14453 -1.20918 0
M  V30 894 O 87.2029 -3.29459 -2.29825 0
M  V30 895 N 85.4089 -2.68657 -1.10779 0
M  V30 896 H 84.9559 -2.56646 -0.221526 0
M  V30 897 H 84.9139 -2.46804 -1.9477 0
M  V30 898 N 88.686 -0.835752 -1.33615 0
M  V30 899 C 89.911 -0.442389 -2.02627 0
M  V30 900 C 90.336 0.947735 -1.62479 0
M  V30 901 O 89.694 1.61907 -0.815826 0
M  V30 902 C 89.742 -0.567216 -3.56111 0
M  V30 903 O 88.846 0.407799 -4.10379 0
M  V30 904 H 88.187 -0.180278 -0.639059 0
M  V30 905 H 90.717 -1.12972 -1.70583 0
M  V30 906 H 90.727 -0.447708 -4.05536 0
M  V30 907 H 89.402 -1.58103 -3.84677 0
M  V30 908 H 87.979 0.246107 -3.72087 0
M  V30 909 N 90.1641 1.46063 -0.591896 0
M  V30 910 C 91.1141 2.27458 0.157172 0
M  V30 911 C 92.0981 1.3641 0.853301 0
M  V30 912 O 93.2901 1.60517 0.74588 0
M  V30 913 C 90.4191 3.22956 1.16423 0
M  V30 914 C 89.5051 4.2149 0.469742 0
M  V30 915 N 89.8961 5.03519 -0.479839 0
M  V30 916 C 88.1941 4.40161 0.719319 0
M  V30 917 C 88.8951 5.74904 -0.886591 0
M  V30 918 N 87.8711 5.43097 -0.233731 0
M  V30 919 H 91.6731 2.88272 -0.572392 0
M  V30 920 H 89.1871 1.57024 -0.414375 0
M  V30 921 H 91.1841 3.79986 1.71513 0
M  V30 922 H 89.8441 2.63701 1.89451 0
M  V30 923 H 90.8551 5.1078 -0.855823 0
M  V30 924 H 87.5321 3.92046 1.43548 0
M  V30 925 H 88.9221 6.50844 -1.66888 0
M  V30 926 N 91.6422 0.330177 1.54103 0
M  V30 927 C 92.5902 -0.548226 2.26047 0
M  V30 928 C 93.5842 -1.11309 1.27698 0
M  V30 929 O 94.7902 -1.06036 1.45452 0
M  V30 930 H 91.1652 -0.195456 0.726155 0
M  V30 931 H 93.1362 0.0807567 2.98291 0
M  V30 932 C 91.8852 -1.69415 3.03634 0
M  V30 933 H 91.2082 -1.26876 3.79134 0
M  V30 934 H 92.6482 -2.28423 3.5721 0
M  V30 935 C 91.1072 -2.61569 2.12328 0
M  V30 936 O 91.6372 -3.63462 1.7105 0
M  V30 937 N 89.8432 -2.29952 1.77681 0
M  V30 938 H 89.3902 -1.47134 2.11446 0
M  V30 939 H 89.3482 -2.91871 1.16869 0
M  V30 940 N 93.1203 -1.57491 0.0584922 0
M  V30 941 C 94.0673 -2.11958 -0.913376 0
M  V30 942 C 95.0373 -1.02875 -1.30407 0
M  V30 943 O 96.2223 -1.30464 -1.39226 0
M  V30 944 C 93.3623 -2.67497 -2.18035 0
M  V30 945 C 92.4753 -3.90691 -1.84349 0
M  V30 946 C 91.6103 -4.3452 -3.05559 0
M  V30 947 C 90.6493 -5.50395 -2.67827 0
M  V30 948 N 89.7863 -5.89244 -3.81754 0
M  V30 949 H 94.6263 -2.94704 -0.442017 0
M  V30 950 H 92.1633 -1.45643 -0.206545 0
M  V30 951 H 94.1213 -2.978 -2.92183 0
M  V30 952 H 92.7513 -1.87537 -2.62735 0
M  V30 953 H 91.8033 -3.66934 -1.00319 0
M  V30 954 H 93.1153 -4.7489 -1.5258 0
M  V30 955 H 92.2693 -4.66414 -3.87998 0
M  V30 956 H 91.0083 -3.49147 -3.40511 0
M  V30 957 H 90.0133 -5.18165 -1.83806 0
M  V30 958 H 91.2383 -6.3749 -2.34059 0
M  V30 959 H 89.1843 -5.06823 -4.16493 0
M  V30 960 H 89.1013 -6.68151 -3.53708 0
M  V30 961 H 90.3693 -6.25756 -4.64811 0
M  V30 962 N 94.5984 0.214957 -1.56127 0
M  V30 963 C 95.5614 1.24997 -1.92116 0
M  V30 964 C 96.5614 1.39467 -0.800344 0
M  V30 965 O 97.7514 1.37619 -1.06802 0
M  V30 966 C 94.8834 2.62271 -2.17777 0
M  V30 967 H 96.0764 0.942875 -2.84693 0
M  V30 968 H 93.6294 0.455654 -1.49511 0
M  V30 969 H 94.3644 2.98068 -1.27773 0
M  V30 970 H 94.1494 2.53143 -2.99434 0
M  V30 971 H 95.6394 3.36946 -2.46693 0
M  V30 972 N 96.0765 1.50051 0.48192 0
M  V30 973 C 97.4925 1.37237 0.814756 0
M  V30 974 C 97.6925 0.420109 1.97072 0
M  V30 975 O 96.7485 -0.141246 2.52105 0
M  V30 976 C 98.0615 2.78375 1.13701 0
M  V30 977 C 99.6095 2.87213 1.2441 0
M  V30 978 C 100.084 4.29161 1.59954 0
M  V30 979 N 101.575 4.32061 1.66967 0
M  V30 980 C 102.31 5.38879 1.95952 0
M  V30 981 N 101.806 6.55918 2.23031 0
M  V30 982 N 103.599 5.26312 1.97363 0
M  V30 983 H 95.7505 2.10546 -0.28005 0
M  V30 984 H 98.0135 0.945921 -0.0627454 0
M  V30 985 H 97.7195 3.49845 0.360787 0
M  V30 986 H 97.5935 3.14941 2.07586 0
M  V30 987 H 99.9805 2.15969 2.01101 0
M  V30 988 H 100.061 2.54204 0.285299 0
M  V30 989 H 99.7055 5.00938 0.838067 0
M  V30 990 H 99.6355 4.59648 2.56966 0
M  V30 991 H 102.126 3.47661 1.48123 0
M  V30 992 H 102.439 7.33139 2.44391 0
M  V30 993 H 100.784 6.59112 2.20447 0
M  V30 994 H 103.975 4.33876 1.75697 0
M  V30 995 H 104.148 6.09649 2.19618 0
M  V30 996 N 97.5546 -0.734337 1.39446 0
M  V30 997 C 98.7826 -1.52358 1.39981 0
M  V30 998 C 99.1976 -1.88799 -0.0054975 0
M  V30 999 O 98.5546 -1.54146 -0.976998 0
M  V30 1000 C 98.6056 -2.81072 2.27333 0
M  V30 1001 O 98.3266 -2.46178 3.62392 0
M  V30 1002 C 99.8276 -3.75096 2.36259 0
M  V30 1003 H 97.0476 -0.470806 0.478103 0
M  V30 1004 H 99.5916 -0.907339 1.83269 0
M  V30 1005 H 97.7466 -3.39026 1.87457 0
M  V30 1006 H 98.1606 -3.28866 4.08592 0
M  V30 1007 H 99.6346 -4.62305 3.01626 0
M  V30 1008 H 100.112 -4.16892 1.38194 0
M  V30 1009 H 100.718 -3.23061 2.76608 0
M  V30 1010 N 99.0327 -1.24633 -0.964593 0
M  V30 1011 C 100.258 -1.11596 -1.74818 0
M  V30 1012 C 100.683 0.32723 -1.85232 0
M  V30 1013 O 100.041 1.23695 -1.32549 0
M  V30 1014 C 100.089 -1.76397 -3.1451 0
M  V30 1015 O 99.1927 -1.03685 -3.99153 0
M  V30 1016 H 98.5337 -0.390196 -0.537255 0
M  V30 1017 H 101.064 -1.65002 -1.20977 0
M  V30 1018 H 101.074 -1.8228 -3.65018 0
M  V30 1019 H 99.7487 -2.81401 -3.06246 0
M  V30 1020 H 98.3257 -1.05611 -3.57632 0
M  V30 1021 N 100.511 1.16574 -1.06058 0
M  V30 1022 C 101.922 1.68662 -0.800632 0
M  V30 1023 C 102.273 1.84184 0.67608 0
M  V30 1024 O 101.398 1.53568 1.52466 0
M  V30 1025 C 101.993 3.06356 -1.44676 0
M  V30 1026 C 100.552 3.55575 -1.23465 0
M  V30 1027 C 99.6988 2.31616 -1.52477 0
M  V30 1028 H 102.65 1.00969 -1.22438 0
M  V30 1029 H 102.671 3.70636 -0.860788 0
M  V30 1030 H 102.183 2.95027 -2.52152 0
M  V30 1031 H 100.284 3.72167 -0.179527 0
M  V30 1032 H 100.397 4.37812 -1.94571 0
M  V30 1033 H 98.7608 2.36512 -0.945209 0
M  V30 1034 H 99.5438 2.22887 -2.61106 0
M  V30 1035 N 101.989 0.842826 1.3317 0
M  V30 1036 C 103.219 0.453397 2.01564 0
M  V30 1037 C 103.627 -0.951147 1.63554 0
M  V30 1038 O 102.97 -1.63021 0.846746 0
M  V30 1039 C 103.032 0.499013 3.5602 0
M  V30 1040 C 102.696 1.86037 4.1742 0
M  V30 1041 C 103.693 2.82416 4.36506 0
M  V30 1042 C 101.378 2.15428 4.53757 0
M  V30 1043 C 103.372 4.06346 4.91082 0
M  V30 1044 C 101.059 3.39615 5.0804 0
M  V30 1045 C 102.057 4.3489 5.26649 0
M  V30 1046 O 101.745 5.5688 5.79776 0
M  V30 1047 H 101.477 0.177871 0.652179 0
M  V30 1048 H 104.031 1.13808 1.70988 0
M  V30 1049 H 102.261 -0.242467 3.85939 0
M  V30 1050 H 103.95 0.126852 4.05702 0
M  V30 1051 H 104.716 2.6101 4.08777 0
M  V30 1052 H 100.595 1.42061 4.38565 0
M  V30 1053 H 104.139 4.80722 5.05522 0
M  V30 1054 H 100.036 3.60876 5.352 0
M  V30 1055 H 100.804 5.58674 5.98185 0
M  V30 1056 N 103.467 -1.45747 0.599634 0
M  V30 1057 C 104.878 -1.85853 0.177681 0
M  V30 1058 C 105.229 -1.50102 -1.26348 0
M  V30 1059 O 104.354 -0.923905 -1.95686 0
M  V30 1060 C 104.949 -3.37326 0.315688 0
M  V30 1061 C 103.508 -3.76365 -0.0515144 0
M  V30 1062 C 102.655 -2.69722 0.643822 0
M  V30 1063 H 105.606 -1.36661 0.806814 0
M  V30 1064 H 105.627 -3.77778 -0.454321 0
M  V30 1065 H 105.139 -3.63315 1.36468 0
M  V30 1066 H 103.24 -3.55993 -1.09999 0
M  V30 1067 H 103.353 -4.77916 0.336594 0
M  V30 1068 H 101.717 -2.54567 0.0822881 0
M  V30 1069 H 102.5 -2.98549 1.6948 0
M  V30 1070 N 104.945 -0.338344 -1.53925 0
M  V30 1071 C 106.193 0.259245 -2.0043 0
M  V30 1072 C 106.514 1.51484 -1.22791 0
M  V30 1073 O 105.784 1.93037 -0.33368 0
M  V30 1074 H 104.364 0.0987845 -0.740439 0
M  V30 1075 H 107.026 -0.458302 -1.89435 0
M  V30 1076 H 106.122 0.505334 -3.07982 0
M  V30 1077 N 106.423 1.57458 -0.0668435 0
M  V30 1078 C 107.648 1.9804 0.616027 0
M  V30 1079 C 108.073 0.944771 1.62652 0
M  V30 1080 O 107.431 -0.0902094 1.81075 0
M  V30 1081 C 107.479 3.37665 1.26549 0
M  V30 1082 O 106.583 3.36701 2.38131 0
M  V30 1083 H 105.924 0.644719 0.158849 0
M  V30 1084 H 108.454 2.04121 -0.139891 0
M  V30 1085 H 108.464 3.7474 1.6135 0
M  V30 1086 H 107.139 4.12573 0.525016 0
M  V30 1087 H 105.716 3.1139 2.0516 0
M  V30 1088 N 107.901 -0.206675 1.56239 0
M  V30 1089 C 108.848 -1.25617 1.93621 0
M  V30 1090 C 109.818 -1.45824 0.795274 0
M  V30 1091 O 111.003 -1.59148 1.05245 0
M  V30 1092 C 108.143 -2.59839 2.27107 0
M  V30 1093 C 107.256 -2.47308 3.54207 0
M  V30 1094 C 106.391 -3.74155 3.7707 0
M  V30 1095 C 105.43 -3.56407 4.97635 0
M  V30 1096 N 104.567 -4.75238 5.1681 0
M  V30 1097 H 109.407 -0.930383 2.83104 0
M  V30 1098 H 106.944 -0.448065 1.4011 0
M  V30 1099 H 108.902 -3.38021 2.44535 0
M  V30 1100 H 107.532 -2.90485 1.40778 0
M  V30 1101 H 106.584 -1.60483 3.4489 0
M  V30 1102 H 107.896 -2.30122 4.42544 0
M  V30 1103 H 107.05 -4.60778 3.94675 0
M  V30 1104 H 105.789 -3.94282 2.87042 0
M  V30 1105 H 104.794 -2.68168 4.79964 0
M  V30 1106 H 106.019 -3.37736 5.89161 0
M  V30 1107 H 103.965 -4.95651 4.29728 0
M  V30 1108 H 103.882 -4.60835 5.99306 0
M  V30 1109 H 105.15 -5.63246 5.38864 0
M  V30 1110 N 109.379 -1.50304 -0.473955 0
M  V30 1111 C 110.625 -1.61389 -1.22806 0
M  V30 1112 C 110.958 -0.311955 -1.91678 0
M  V30 1113 O 110.233 0.686384 -1.81986 0
M  V30 1114 C 110.516 -2.79219 -2.27396 0
M  V30 1115 C 110.369 -4.19286 -1.62848 0
M  V30 1116 C 111.688 -2.92614 -3.28732 0
M  V30 1117 H 108.807 -0.587399 -0.445119 0
M  V30 1118 H 111.449 -1.82681 -0.522265 0
M  V30 1119 H 109.599 -2.61195 -2.87592 0
M  V30 1120 H 111.271 -4.48892 -1.06271 0
M  V30 1121 H 109.514 -4.23677 -0.931693 0
M  V30 1122 H 110.185 -4.97655 -2.38838 0
M  V30 1123 H 112.661 -3.09105 -2.78556 0
M  V30 1124 H 111.537 -3.76688 -3.99246 0
M  V30 1125 H 111.798 -2.03107 -3.92683 0
M  V30 1126 N 110.857 0.726932 -1.39834 0
M  V30 1127 C 111.767 1.87131 -1.41489 0
M  V30 1128 C 112.783 1.71239 -0.308757 0
M  V30 1129 O 113.959 1.93701 -0.551529 0
M  V30 1130 C 111.024 3.22811 -1.26468 0
M  V30 1131 C 110.085 3.51039 -2.47124 0
M  V30 1132 C 109.318 4.80245 -2.3281 0
M  V30 1133 O 109.541 5.54537 -1.33585 0
M  V30 1134 O 108.475 5.08554 -3.21957 0
M  V30 1135 H 112.301 1.8869 -2.3797 0
M  V30 1136 H 109.886 0.875837 -1.21035 0
M  V30 1137 H 111.768 4.03877 -1.20255 0
M  V30 1138 H 110.443 3.22005 -0.330862 0
M  V30 1139 H 109.35 2.70027 -2.58914 0
M  V30 1140 H 110.683 3.56632 -3.39227 0
M  V30 1141 N 112.336 1.25143 0.95797 0
M  V30 1142 C 113.752 1.01892 1.22842 0
M  V30 1143 C 113.952 -0.266311 1.99732 0
M  V30 1144 O 113.008 -0.979913 2.3271 0
M  V30 1145 C 114.321 2.24004 2.00606 0
M  V30 1146 C 115.869 2.28731 2.13662 0
M  V30 1147 C 116.344 3.5049 2.94823 0
M  V30 1148 N 117.835 3.50866 3.02403 0
M  V30 1149 C 118.57 4.4174 3.65586 0
M  V30 1150 N 118.066 5.42882 4.30408 0
M  V30 1151 N 119.859 4.29429 3.62694 0
M  V30 1152 H 112.01 2.07718 0.443493 0
M  V30 1153 H 114.273 0.912031 0.258657 0
M  V30 1154 H 113.979 3.17395 1.51503 0
M  V30 1155 H 113.853 2.26907 3.01319 0
M  V30 1156 H 116.24 1.35865 2.61963 0
M  V30 1157 H 116.321 2.29848 1.12265 0
M  V30 1158 H 115.965 4.43676 2.47213 0
M  V30 1159 H 115.895 3.46617 3.96439 0
M  V30 1160 H 118.386 2.777 2.56302 0
M  V30 1161 H 118.699 6.0844 4.76467 0
M  V30 1162 H 117.044 5.46758 4.29047 0
M  V30 1163 H 120.235 3.49643 3.11236 0
M  V30 1164 H 120.408 5.00448 4.1165 0
M  V30 1165 N 113.814 -1.1601 1.06675 0
M  V30 1166 C 115.039 -1.91068 0.806706 0
M  V30 1167 C 115.464 -1.77112 -0.633485 0
M  V30 1168 O 114.822 -1.09908 -1.44187 0
M  V30 1169 C 114.87 -3.39655 1.21106 0
M  V30 1170 O 113.974 -4.10893 0.352189 0
M  V30 1171 H 113.315 -0.595125 0.294486 0
M  V30 1172 H 115.845 -1.46955 1.42356 0
M  V30 1173 H 115.855 -3.90434 1.18428 0
M  V30 1174 H 114.53 -3.49132 2.26008 0
M  V30 1175 H 113.107 -3.70285 0.440868 0
M  V30 1176 N 115.292 -0.849877 -1.32721 0
M  V30 1177 C 116.224 -0.248332 -2.27851 0
M  V30 1178 C 117.237 0.577218 -1.52224 0
M  V30 1179 O 118.426 0.402489 -1.73903 0
M  V30 1180 C 115.526 0.668107 -3.32249 0
M  V30 1181 C 114.699 -0.120534 -4.37234 0
M  V30 1182 C 113.758 0.720932 -5.21238 0
M  V30 1183 O 112.784 0.156166 -5.68986 0
M  V30 1184 N 113.986 2.03647 -5.43607 0
M  V30 1185 H 116.751 -1.06575 -2.80111 0
M  V30 1186 H 114.312 -0.709395 -1.45531 0
M  V30 1187 H 116.304 1.23627 -3.85355 0
M  V30 1188 H 114.874 1.38621 -2.80184 0
M  V30 1189 H 114.094 -0.870108 -3.84477 0
M  V30 1190 H 115.382 -0.662406 -5.0447 0
M  V30 1191 H 114.78 2.51871 -5.06535 0
M  V30 1192 H 113.337 2.55287 -5.99727 0
M  V30 1193 N 116.77 1.45427 -0.607355 0
M  V30 1194 C 118.016 2.0254 -0.102607 0
M  V30 1195 C 118.349 1.47478 1.26348 0
M  V30 1196 O 117.624 0.64939 1.83339 0
M  V30 1197 C 117.907 3.60044 -0.0634347 0
M  V30 1198 C 117.76 4.2544 -1.46017 0
M  V30 1199 C 119.079 4.35646 0.624514 0
M  V30 1200 H 116.198 0.73598 -0.0387607 0
M  V30 1201 H 118.84 1.73284 -0.779282 0
M  V30 1202 H 116.99 3.85101 0.512808 0
M  V30 1203 H 118.662 4.11569 -2.08347 0
M  V30 1204 H 116.905 3.83849 -2.02094 0
M  V30 1205 H 117.576 5.34342 -1.385 0
M  V30 1206 H 120.052 4.15882 0.134723 0
M  V30 1207 H 118.928 5.45376 0.621028 0
M  V30 1208 H 119.189 4.08501 1.69055 0
M  V30 1209 N 118.248 0.346503 1.53744 0
M  V30 1210 C 119.659 -0.136779 1.86198 0
M  V30 1211 C 120.01 -1.49749 1.26766 0
M  V30 1212 O 119.135 -2.08417 0.582355 0
M  V30 1213 C 119.73 -0.254966 3.37839 0
M  V30 1214 C 118.289 -0.682482 3.70161 0
M  V30 1215 C 117.436 0.181981 2.76702 0
M  V30 1216 H 120.387 0.565994 1.48264 0
M  V30 1217 H 120.408 -1.08195 3.64793 0
M  V30 1218 H 119.92 0.735526 3.81066 0
M  V30 1219 H 118.021 -1.68189 3.3248 0
M  V30 1220 H 118.134 -0.470326 4.76786 0
M  V30 1221 H 116.498 -0.34615 2.52337 0
M  V30 1222 H 117.281 1.16966 3.2276 0
M  V30 1223 N 119.726 -1.57421 0.075193 0
M  V30 1224 C 120.674 -2.14124 -0.908508 0
M  V30 1225 C 121.668 -1.07898 -1.30592 0
M  V30 1226 O 122.874 -1.26273 -1.28277 0
M  V30 1227 H 119.249 -0.684707 -0.310935 0
M  V30 1228 H 121.22 -2.95634 -0.405374 0
M  V30 1229 C 119.969 -2.72044 -2.16535 0
M  V30 1230 H 119.292 -3.53456 -1.86839 0
M  V30 1231 H 120.732 -3.15311 -2.83469 0
M  V30 1232 C 119.191 -1.66968 -2.92615 0
M  V30 1233 O 119.721 -1.0967 -3.86439 0
M  V30 1234 N 117.927 -1.37923 -2.55784 0
M  V30 1235 H 117.474 -1.84706 -1.79559 0
M  V30 1236 H 117.432 -0.67852 -3.06991 0
M  V30 1237 N 121.204 0.198386 -1.56346 0
M  V30 1238 C 122.114 1.2664 -1.97483 0
M  V30 1239 C 123.13 1.49989 -0.882002 0
M  V30 1240 O 124.306 1.62668 -1.18748 0
M  V30 1241 C 121.371 2.59141 -2.30319 0
M  V30 1242 C 120.432 2.43892 -3.53292 0
M  V30 1243 C 119.665 3.70074 -3.84553 0
M  V30 1244 O 119.888 4.74101 -3.1715 0
M  V30 1245 O 118.822 3.658 -4.7799 0
M  V30 1246 H 122.648 0.947304 -2.88548 0
M  V30 1247 H 120.233 0.403123 -1.43859 0
M  V30 1248 H 122.115 3.37352 -2.5253 0
M  V30 1249 H 120.79 2.90684 -1.42423 0
M  V30 1250 H 119.697 1.63803 -3.36332 0
M  V30 1251 H 121.03 2.17282 -4.41644 0
M  V30 1252 N 122.682 1.50554 0.465978 0
M  V30 1253 C 123.629 1.6979 1.56333 0
M  V30 1254 C 124.599 0.539239 1.57103 0
M  V30 1255 O 125.784 0.770401 1.74555 0
M  V30 1256 C 122.924 1.80273 2.94271 0
M  V30 1257 C 122.037 3.07674 3.0325 0
M  V30 1258 C 121.172 3.08922 4.32135 0
M  V30 1259 C 120.211 4.30755 4.34875 0
M  V30 1260 N 119.348 4.29714 5.55239 0
M  V30 1261 H 124.188 2.63472 1.39235 0
M  V30 1262 H 121.725 1.30602 0.676873 0
M  V30 1263 H 123.683 1.84332 3.74269 0
M  V30 1264 H 122.313 0.900258 3.09992 0
M  V30 1265 H 121.365 3.13062 2.16094 0
M  V30 1266 H 122.677 3.97642 3.01135 0
M  V30 1267 H 121.831 3.11738 5.20485 0
M  V30 1268 H 120.57 2.16792 4.36866 0
M  V30 1269 H 119.575 4.28146 3.44922 0
M  V30 1270 H 120.8 5.24117 4.31831 0
M  V30 1271 H 118.746 3.4044 5.60746 0
M  V30 1272 H 118.663 5.13456 5.54886 0
M  V30 1273 H 119.931 4.36683 6.457 0
M  V30 1274 N 124.16 -0.719506 1.40217 0
M  V30 1275 C 125.406 -1.48152 1.38488 0
M  V30 1276 C 125.739 -1.94195 -0.0141867 0
M  V30 1277 O 125.014 -1.67884 -0.982096 0
M  V30 1278 C 125.297 -2.71035 2.37091 0
M  V30 1279 C 125.15 -2.30912 3.86005 0
M  V30 1280 C 126.469 -3.73182 2.33288 0
M  V30 1281 H 123.588 -0.537395 0.504357 0
M  V30 1282 H 126.23 -0.821472 1.71324 0
M  V30 1283 H 124.38 -3.27352 2.0922 0
M  V30 1284 H 126.052 -1.80107 4.24687 0
M  V30 1285 H 124.295 -1.62958 4.02029 0
M  V30 1286 H 124.966 -3.18978 4.50508 0
M  V30 1287 H 127.442 -3.26485 2.57966 0
M  V30 1288 H 126.318 -4.56806 3.04334 0
M  V30 1289 H 126.579 -4.21202 1.34317 0
M  V30 1290 N 125.638 -1.25649 -0.95132 0
M  V30 1291 C 126.886 -1.10375 -1.69298 0
M  V30 1292 C 127.207 0.355339 -1.91735 0
M  V30 1293 O 126.477 1.25188 -1.50681 0
M  V30 1294 H 125.057 -0.405461 -0.627384 0
M  V30 1295 H 127.719 -1.57823 -1.14358 0
M  V30 1296 H 126.815 -1.61465 -2.67087 0
M  V30 1297 N 127.117 1.15442 -1.07289 0
M  V30 1298 C 128.363 1.8672 -0.806679 0
M  V30 1299 C 128.718 1.80723 0.660084 0
M  V30 1300 O 128.011 1.21902 1.47819 0
M  V30 1301 C 128.205 3.3489 -1.24834 0
M  V30 1302 C 128.034 3.55313 -2.7565 0
M  V30 1303 C 126.804 3.7082 -3.4325 0
M  V30 1304 C 129.002 3.53188 -3.73848 0
M  V30 1305 N 126.984 3.7929 -4.82713 0
M  V30 1306 C 128.355 3.67765 -4.99149 0
M  V30 1307 C 130.41 3.36459 -3.67015 0
M  V30 1308 C 129.113 3.6734 -6.18428 0
M  V30 1309 C 131.139 3.37333 -4.85758 0
M  V30 1310 C 130.501 3.52438 -6.09891 0
M  V30 1311 H 126.6 0.700433 -0.347733 0
M  V30 1312 H 129.184 1.38441 -1.36902 0
M  V30 1313 H 127.355 3.81786 -0.713713 0
M  V30 1314 H 129.087 3.93875 -0.929745 0
M  V30 1315 H 125.842 3.71568 -2.93656 0
M  V30 1316 H 126.266 3.8727 -5.55294 0
M  V30 1317 H 130.908 3.237 -2.71989 0
M  V30 1318 H 128.626 3.78878 -7.13777 0
M  V30 1319 H 132.212 3.25617 -4.82146 0
M  V30 1320 H 131.092 3.53047 -7.00234 0
M  V30 1321 N 128.595 0.856903 1.32268 0
M  V30 1322 C 129.525 0.31858 2.31316 0
M  V30 1323 C 130.506 -0.583487 1.59779 0
M  V30 1324 O 131.691 -0.503259 1.87566 0
M  V30 1325 C 128.821 -0.491979 3.43798 0
M  V30 1326 C 127.775 0.315849 4.26833 0
M  V30 1327 C 127.101 -0.619586 5.31098 0
M  V30 1328 C 128.401 1.54282 4.98993 0
M  V30 1329 H 130.095 1.14621 2.76591 0
M  V30 1330 H 127.641 0.552613 1.32974 0
M  V30 1331 H 129.594 -0.879012 4.1213 0
M  V30 1332 H 128.318 -1.35299 2.97257 0
M  V30 1333 H 126.977 0.684664 3.6015 0
M  V30 1334 H 126.625 -1.47751 4.8081 0
M  V30 1335 H 126.325 -0.0830621 5.87541 0
M  V30 1336 H 127.849 -1.00375 6.02293 0
M  V30 1337 H 129.263 1.22796 5.59995 0
M  V30 1338 H 127.66 2.01745 5.65172 0
M  V30 1339 H 128.73 2.30285 4.26728 0
M  V30 1340 N 130.073 -1.45103 0.615059 0
M  V30 1341 C 131.319 -2.02483 0.113347 0
M  V30 1342 C 131.652 -1.48146 -1.25564 0
M  V30 1343 O 130.927 -0.659104 -1.82992 0
M  V30 1344 C 131.21 -3.60005 0.0825278 0
M  V30 1345 C 131.063 -4.2466 1.48271 0
M  V30 1346 C 132.382 -4.35972 -0.601401 0
M  V30 1347 H 129.501 -0.735764 0.0426632 0
M  V30 1348 H 132.143 -1.72868 0.788461 0
M  V30 1349 H 130.293 -3.85367 -0.492378 0
M  V30 1350 H 131.965 -4.10458 2.10527 0
M  V30 1351 H 130.208 -3.82772 2.04127 0
M  V30 1352 H 130.879 -5.336 1.41332 0
M  V30 1353 H 133.355 -4.15947 -0.112666 0
M  V30 1354 H 132.231 -5.45697 -0.592097 0
M  V30 1355 H 132.492 -4.09391 -1.66887 0
M  V30 1356 N 131.551 -0.354651 -1.53558 0
M  V30 1357 C 132.461 0.50515 -2.29097 0
M  V30 1358 C 133.477 1.10223 -1.34636 0
M  V30 1359 O 134.653 1.11553 -1.67684 0
M  V30 1360 C 131.718 1.63479 -3.05738 0
M  V30 1361 C 130.779 1.06636 -4.15845 0
M  V30 1362 C 130.012 2.14217 -4.88822 0
M  V30 1363 O 130.235 3.35137 -4.61562 0
M  V30 1364 O 129.169 1.77887 -5.75013 0
M  V30 1365 H 132.995 -0.109237 -3.03503 0
M  V30 1366 H 130.58 -0.119357 -1.48922 0
M  V30 1367 H 132.462 2.2918 -3.5363 0
M  V30 1368 H 131.137 2.23478 -2.34178 0
M  V30 1369 H 130.044 0.373565 -3.7223 0
M  V30 1370 H 131.377 0.511081 -4.89539 0
M  V30 1371 N 133.029 1.57378 -0.0835403 0
M  V30 1372 C 134.275 1.95025 0.577664 0
M  V30 1373 C 134.63 0.964049 1.66505 0
M  V30 1374 O 133.923 -0.0118235 1.91596 0
M  V30 1375 C 134.117 3.37063 1.1884 0
M  V30 1376 C 133.946 4.49409 0.16171 0
M  V30 1377 C 132.716 5.04642 -0.257756 0
M  V30 1378 C 134.914 5.10722 -0.605634 0
M  V30 1379 N 132.896 6.00537 -1.27393 0
M  V30 1380 C 134.267 6.02225 -1.47395 0
M  V30 1381 C 136.322 4.93501 -0.660418 0
M  V30 1382 C 135.025 6.78355 -2.39221 0
M  V30 1383 C 137.051 5.70283 -1.56623 0
M  V30 1384 C 136.413 6.61444 -2.4222 0
M  V30 1385 H 132.512 0.760512 0.182058 0
M  V30 1386 H 135.096 1.94013 -0.163419 0
M  V30 1387 H 133.267 3.3879 1.89936 0
M  V30 1388 H 134.999 3.61917 1.81103 0
M  V30 1389 H 131.754 4.73428 0.127702 0
M  V30 1390 H 132.178 6.53184 -1.77987 0
M  V30 1391 H 136.82 4.22798 -0.0128221 0
M  V30 1392 H 134.538 7.48327 -3.05011 0
M  V30 1393 H 138.124 5.58976 -1.61361 0
M  V30 1394 H 137.004 7.1982 -3.11174 0
M  V30 1395 N 134.507 -0.190092 1.56449 0
M  V30 1396 C 135.439 -1.25973 1.91477 0
M  V30 1397 C 136.452 -1.41452 0.805931 0
M  V30 1398 O 137.641 -1.41789 1.08435 0
M  V30 1399 C 134.741 -2.63117 2.13594 0
M  V30 1400 C 133.914 -2.69182 3.4476 0
M  V30 1401 C 132.973 -3.87557 3.5593 0
M  V30 1402 O 131.999 -3.74427 4.28711 0
M  V30 1403 N 133.201 -5.03224 2.89388 0
M  V30 1404 H 135.966 -0.962394 2.83828 0
M  V30 1405 H 133.527 -0.379981 1.57378 0
M  V30 1406 H 135.519 -3.40742 2.1835 0
M  V30 1407 H 134.089 -2.85319 1.27719 0
M  V30 1408 H 133.309 -1.77793 3.51828 0
M  V30 1409 H 134.597 -2.70229 4.31107 0
M  V30 1410 H 133.995 -5.16791 2.30094 0
M  V30 1411 H 132.552 -5.78778 2.99764 0
M  V30 1412 N 135.985 -1.50799 -0.457987 0
M  V30 1413 C 137.262 -1.52968 -1.21902 0
M  V30 1414 C 137.642 -0.281906 -2.09209 0
M  V30 1415 O 136.99 0.734076 -2.16388 0
M  V30 1416 C 137.2 -2.8326 -2.03875 0
M  V30 1417 C 138.548 -3.34425 -2.6162 0
M  V30 1418 O 139.572 -2.8467 -2.14106 0
M  V30 1419 O 138.431 -4.21188 -3.48228 0
M  V30 1420 H 135.525 -0.614129 -0.553873 0
M  V30 1421 H 138.071 -1.63098 -0.468739 0
M  V30 1422 H 136.843 -3.65543 -1.39621 0
M  V30 1423 H 136.466 -2.76195 -2.8601 0
M  V30 1424 N 137.463 0.71206 -1.40597 0
M  V30 1425 C 138.693 1.49894 -1.42181 0
M  V30 1426 C 139.101 1.89189 -0.0208078 0
M  V30 1427 O 138.444 1.56223 0.966436 0
M  V30 1428 C 138.506 2.80215 -2.25211 0
M  V30 1429 C 138.17 2.63221 -3.73582 0
M  V30 1430 C 139.167 2.30249 -4.66135 0
M  V30 1431 C 136.852 2.79376 -4.17438 0
M  V30 1432 C 138.846 2.13645 -6.00529 0
M  V30 1433 C 136.533 2.6239 -5.51901 0
M  V30 1434 C 137.531 2.29573 -6.43262 0
M  V30 1435 O 137.219 2.12719 -7.75246 0
M  V30 1436 H 136.951 0.469031 -0.486812 0
M  V30 1437 H 139.505 0.88564 -1.85326 0
M  V30 1438 H 137.735 3.4389 -1.76852 0
M  V30 1439 H 139.424 3.41947 -2.18694 0
M  V30 1440 H 140.19 2.17398 -4.33547 0
M  V30 1441 H 136.069 3.03906 -3.46644 0
M  V30 1442 H 139.613 1.87953 -6.71803 0
M  V30 1443 H 135.51 2.74826 -5.84073 0
M  V30 1444 H 136.278 2.27611 -7.86216 0
M  V30 1445 N 138.941 1.26152 0.944643 0
M  V30 1446 C 139.888 1.07408 2.04285 0
M  V30 1447 C 140.858 -0.0198413 1.66088 0
M  V30 1448 O 142.043 0.139264 1.90291 0
M  V30 1449 C 139.183 0.70945 3.37729 0
M  V30 1450 C 138.296 1.87926 3.88983 0
M  V30 1451 C 137.431 1.45807 5.10797 0
M  V30 1452 C 136.47 2.5964 5.54305 0
M  V30 1453 N 135.607 2.18226 6.67324 0
M  V30 1454 H 140.447 2.01389 2.1965 0
M  V30 1455 H 137.984 1.00275 1.07626 0
M  V30 1456 H 139.942 0.478948 4.14442 0
M  V30 1457 H 138.572 -0.193389 3.2222 0
M  V30 1458 H 137.624 2.22279 3.08701 0
M  V30 1459 H 138.936 2.73377 4.17213 0
M  V30 1460 H 138.09 1.18781 5.94959 0
M  V30 1461 H 136.829 0.574414 4.84305 0
M  V30 1462 H 135.834 2.87399 4.68702 0
M  V30 1463 H 137.059 3.48599 5.828 0
M  V30 1464 H 135.005 1.3229 6.42523 0
M  V30 1465 H 134.922 2.97221 6.95123 0
M  V30 1466 H 136.19 1.94403 7.54869 0
M  V30 1467 N 140.419 -1.14872 1.07899 0
M  V30 1468 C 141.83 -1.67367 0.827363 0
M  V30 1469 C 142.181 -1.85236 -0.646693 0
M  V30 1470 O 141.306 -1.55974 -1.50004 0
M  V30 1471 C 141.901 -3.04016 1.49532 0
M  V30 1472 C 140.46 -3.53566 1.29106 0
M  V30 1473 C 139.607 -2.29161 1.56143 0
M  V30 1474 H 142.558 -0.990083 1.24028 0
M  V30 1475 H 142.579 -3.69219 0.919643 0
M  V30 1476 H 142.091 -2.90978 2.56814 0
M  V30 1477 H 140.192 -3.71835 0.238713 0
M  V30 1478 H 140.305 -4.34661 2.01511 0
M  V30 1479 H 138.669 -2.34978 0.982717 0
M  V30 1480 H 139.452 -2.18705 2.64619 0
M  V30 1481 N 141.898 -0.863906 -1.31812 0
M  V30 1482 C 143.144 -0.472535 -1.97218 0
M  V30 1483 C 143.477 0.971394 -1.68159 0
M  V30 1484 O 142.752 1.68309 -0.974798 0
M  V30 1485 C 143.035 -0.723054 -3.52766 0
M  V30 1486 C 142.888 -2.21608 -3.91421 0
M  V30 1487 C 144.207 -0.185522 -4.39709 0
M  V30 1488 H 141.326 -0.173158 -0.71637 0
M  V30 1489 H 143.968 -1.08403 -1.56041 0
M  V30 1490 H 142.118 -0.202577 -3.87971 0
M  V30 1491 H 143.79 -2.80334 -3.66347 0
M  V30 1492 H 142.033 -2.691 -3.40246 0
M  V30 1493 H 142.704 -2.34203 -4.99853 0
M  V30 1494 H 145.18 -0.630726 -4.11292 0
M  V30 1495 H 144.056 -0.390306 -5.47511 0
M  V30 1496 H 144.317 0.912229 -4.32586 0
M  V30 1497 N 143.376 1.44774 -0.622745 0
M  V30 1498 C 144.286 2.34433 0.0886031 0
M  V30 1499 C 145.302 1.52131 0.844529 0
M  V30 1500 O 146.478 1.84886 0.798691 0
M  V30 1501 C 143.543 3.29986 1.0635 0
M  V30 1502 C 142.604 4.28195 0.307873 0
M  V30 1503 C 141.837 5.19183 1.23633 0
M  V30 1504 O 142.06 5.13918 2.47476 0
M  V30 1505 O 140.994 5.97515 0.725189 0
M  V30 1506 H 144.82 2.96693 -0.648599 0
M  V30 1507 H 142.405 1.44408 -0.382957 0
M  V30 1508 H 144.287 3.88825 1.6246 0
M  V30 1509 H 142.962 2.70269 1.78146 0
M  V30 1510 H 141.869 3.72927 -0.296064 0
M  V30 1511 H 143.202 4.90808 -0.3699 0
M  V30 1512 N 144.854 0.36279 1.53368 0
M  V30 1513 C 146.084 -0.228281 2.05335 0
M  V30 1514 C 146.492 -1.43226 1.23625 0
M  V30 1515 O 145.835 -1.81717 0.269206 0
M  V30 1516 C 145.897 -0.688549 3.52845 0
M  V30 1517 C 145.561 0.398362 4.5526 0
M  V30 1518 C 146.558 1.24732 5.04716 0
M  V30 1519 C 144.243 0.557805 4.99193 0
M  V30 1520 C 146.237 2.2411 5.96702 0
M  V30 1521 C 143.924 1.55495 5.90986 0
M  V30 1522 C 144.922 2.39503 6.39631 0
M  V30 1523 O 144.61 3.37517 7.29615 0
M  V30 1524 H 144.342 -0.044395 0.674541 0
M  V30 1525 H 146.896 0.518668 1.98744 0
M  V30 1526 H 145.126 -1.48706 3.56964 0
M  V30 1527 H 146.815 -1.20231 3.87685 0
M  V30 1528 H 147.581 1.13532 4.71525 0
M  V30 1529 H 143.46 -0.0862959 4.60919 0
M  V30 1530 H 147.004 2.89718 6.34594 0
M  V30 1531 H 142.901 1.66744 6.23592 0
M  V30 1532 H 143.669 3.33213 7.47604 0
M  V30 1533 N 146.332 -1.57332 0.0918853 0
M  V30 1534 C 147.56 -1.98574 -0.581048 0
M  V30 1535 C 147.975 -0.970903 -1.61923 0
M  V30 1536 O 147.332 0.0399054 -1.82456 0
M  V30 1537 C 147.383 -3.39872 -1.23164 0
M  V30 1538 O 147.104 -4.37469 -0.234989 0
M  V30 1539 C 148.605 -3.96099 -1.99049 0
M  V30 1540 H 145.825 -0.65261 -0.156018 0
M  V30 1541 H 148.369 -2.0379 0.170225 0
M  V30 1542 H 146.524 -3.35679 -1.93386 0
M  V30 1543 H 146.938 -5.19751 -0.70418 0
M  V30 1544 H 148.412 -4.97127 -2.39934 0
M  V30 1545 H 148.889 -3.3374 -2.85507 0
M  V30 1546 H 149.495 -4.03755 -1.3365 0
M  V30 1547 N 147.81 0.181792 -1.56548 0
M  V30 1548 C 148.773 1.20894 -1.94724 0
M  V30 1549 C 149.773 1.37738 -0.829747 0
M  V30 1550 O 150.963 1.35323 -1.09697 0
M  V30 1551 C 148.095 2.57593 -2.23291 0
M  V30 1552 H 149.288 0.882275 -2.86629 0
M  V30 1553 H 146.841 0.423838 -1.50444 0
M  V30 1554 H 147.576 2.95291 -1.34067 0
M  V30 1555 H 147.361 2.46735 -3.04736 0
M  V30 1556 H 148.851 3.31637 -2.53785 0
M  V30 1557 N 149.288 1.51039 0.449983 0
M  V30 1558 C 150.534 1.63322 1.20223 0
M  V30 1559 C 150.867 0.34241 1.91158 0
M  V30 1560 O 150.142 -0.657344 1.83055 0
M  V30 1561 C 150.425 2.82801 2.22925 0
M  V30 1562 C 150.278 4.21823 1.56157 0
M  V30 1563 C 151.597 2.97807 3.24035 0
M  V30 1564 H 148.716 0.594407 0.435718 0
M  V30 1565 H 151.358 1.83489 0.493136 0
M  V30 1566 H 149.508 2.65738 2.834 0
M  V30 1567 H 151.18 4.50526 0.991162 0
M  V30 1568 H 149.423 4.25105 0.864172 0
M  V30 1569 H 150.094 5.01391 2.30891 0
M  V30 1570 H 152.57 3.13497 2.73603 0
M  V30 1571 H 151.446 3.82992 3.93202 0
M  V30 1572 H 151.707 2.09328 3.89402 0
M  V30 1573 N 150.766 -0.704594 1.40972 0
M  V30 1574 C 151.991 -1.49858 1.43378 0
M  V30 1575 C 152.416 -1.88061 0.038184 0
M  V30 1576 O 151.774 -1.5402 -0.956425 0
M  V30 1577 C 151.822 -2.74333 2.34038 0
M  V30 1578 O 150.926 -3.7147 1.7912 0
M  V30 1579 H 150.267 -0.45139 0.486974 0
M  V30 1580 H 152.797 -0.866832 1.8533 0
M  V30 1581 H 152.807 -3.22741 2.49604 0
M  V30 1582 H 151.482 -2.45863 3.35446 0
M  V30 1583 H 150.059 -3.30363 1.72958 0
M  V30 1584 N 152.244 -1.26651 -0.937939 0
M  V30 1585 C 153.49 -1.12553 -1.687 0
M  V30 1586 C 153.823 0.329782 -1.91379 0
M  V30 1587 O 153.098 1.24202 -1.4968 0
M  V30 1588 C 153.381 -1.89862 -3.05981 0
M  V30 1589 C 153.234 -3.43318 -2.90607 0
M  V30 1590 C 154.553 -1.69499 -4.0615 0
M  V30 1591 H 151.672 -0.410257 -0.612257 0
M  V30 1592 H 154.314 -1.55685 -1.08913 0
M  V30 1593 H 152.464 -1.53204 -3.57017 0
M  V30 1594 H 154.136 -3.89747 -2.46769 0
M  V30 1595 H 152.379 -3.70179 -2.26164 0
M  V30 1596 H 153.05 -3.92642 -3.8799 0
M  V30 1597 H 155.526 -2.01442 -3.64088 0
M  V30 1598 H 154.402 -2.26002 -5.00214 0
M  V30 1599 H 154.663 -0.640365 -4.37438 0
M  V30 1600 N 153.722 1.14298 -1.08507 0
M  V30 1601 C 154.652 2.21542 -0.737646 0
M  V30 1602 C 155.633 1.67773 0.280377 0
M  V30 1603 O 156.818 1.93616 0.150521 0
M  V30 1604 C 153.948 3.46988 -0.147259 0
M  V30 1605 C 152.902 4.13789 -1.09374 0
M  V30 1606 C 152.228 5.33449 -0.365524 0
M  V30 1607 C 153.528 4.62208 -2.4323 0
M  V30 1608 H 155.222 2.5086 -1.6343 0
M  V30 1609 H 152.768 1.20576 -0.787243 0
M  V30 1610 H 154.721 4.21262 0.107808 0
M  V30 1611 H 153.445 3.17037 0.784538 0
M  V30 1612 H 152.104 3.4147 -1.33393 0
M  V30 1613 H 151.752 4.99759 0.57011 0
M  V30 1614 H 151.452 5.79088 -0.996512 0
M  V30 1615 H 152.976 6.10485 -0.118534 0
M  V30 1616 H 154.39 5.27952 -2.23472 0
M  V30 1617 H 152.787 5.18553 -3.02031 0
M  V30 1618 H 153.857 3.77224 -3.04681 0
M  V30 1619 N 155.201 0.870884 1.31352 0
M  V30 1620 C 156.164 0.332243 2.26779 0
M  V30 1621 C 157.164 -0.517302 1.52252 0
M  V30 1622 O 158.354 -0.326477 1.71113 0
M  V30 1623 C 155.486 -0.528066 3.36785 0
M  V30 1624 H 156.679 1.17469 2.75937 0
M  V30 1625 H 154.232 0.64655 1.423 0
M  V30 1626 H 154.967 -1.39167 2.92922 0
M  V30 1627 H 154.752 0.0802582 3.92018 0
M  V30 1628 H 156.242 -0.897179 4.07849 0
M  V30 1629 N 156.679 -1.44442 0.630414 0
M  V30 1630 C 157.927 -2.01653 0.134351 0
M  V30 1631 C 158.248 -1.49836 -1.24796 0
M  V30 1632 O 157.518 -0.701684 -1.82902 0
M  V30 1633 H 156.098 -0.74554 0.0466769 0
M  V30 1634 H 158.76 -1.76952 0.816955 0
M  V30 1635 H 157.856 -3.11935 0.101498 0
M  V30 1636 N 158.157 -0.370918 -1.53173 0
M  V30 1637 C 159.568 0.107139 -1.86392 0
M  V30 1638 C 159.919 1.47714 -1.29132 0
M  V30 1639 O 159.044 2.07464 -0.615439 0
M  V30 1640 C 159.639 0.201187 -3.38202 0
M  V30 1641 C 158.198 0.623507 -3.712 0
M  V30 1642 C 157.345 -0.225978 -2.76378 0
M  V30 1643 H 160.296 -0.58951 -1.47345 0
M  V30 1644 H 160.317 1.02377 -3.66468 0
M  V30 1645 H 159.829 -0.796058 -3.79848 0
M  V30 1646 H 157.93 1.62879 -3.35114 0
M  V30 1647 H 158.043 0.394414 -4.77474 0
M  V30 1648 H 156.407 0.305962 -2.52856 0
M  V30 1649 H 157.19 -1.22086 -3.20858 0
M  V30 1650 N 159.635 1.57281 -0.100228 0
M  V30 1651 C 161.051 1.57527 0.256416 0
M  V30 1652 C 161.251 1.11173 1.68056 0
M  V30 1653 O 160.307 0.79053 2.39806 0
M  V30 1654 C 161.62 3.00673 0.0401747 0
M  V30 1655 C 163.168 3.12815 0.107528 0
M  V30 1656 C 163.643 4.57929 -0.0807834 0
M  V30 1657 N 165.134 4.63193 -0.0261207 0
M  V30 1658 C 165.869 5.73212 -0.146999 0
M  V30 1659 N 165.365 6.92047 -0.322999 0
M  V30 1660 N 167.158 5.62031 -0.0879044 0
M  V30 1661 H 159.309 1.85718 -1.03065 0
M  V30 1662 H 161.572 0.857446 -0.404339 0
M  V30 1663 H 161.278 3.38804 -0.943649 0
M  V30 1664 H 161.152 3.69042 0.780262 0
M  V30 1665 H 163.539 2.74554 1.08186 0
M  V30 1666 H 163.62 2.47028 -0.664134 0
M  V30 1667 H 163.264 4.96886 -1.05201 0
M  V30 1668 H 163.194 5.21783 0.710635 0
M  V30 1669 H 165.685 3.77748 0.107161 0
M  V30 1670 H 165.998 7.7173 -0.406608 0
M  V30 1671 H 164.343 6.94074 -0.358733 0
M  V30 1672 H 167.534 4.68075 0.048498 0
M  V30 1673 H 167.707 6.47734 -0.185557 0
M  V30 1674 N 161.113 -0.173488 1.56642 0
M  V30 1675 C 162.359 -0.887108 1.83035 0
M  V30 1676 C 162.714 -1.79965 0.680461 0
M  V30 1677 O 162.007 -1.88854 -0.323225 0
M  V30 1678 C 162.201 -1.72069 3.13252 0
M  V30 1679 C 162.03 -0.89035 4.40798 0
M  V30 1680 C 160.8 -0.566282 5.02117 0
M  V30 1681 C 162.998 -0.232921 5.13772 0
M  V30 1682 N 160.98 0.280427 6.13259 0
M  V30 1683 C 162.351 0.475046 6.18177 0
M  V30 1684 C 164.406 -0.150863 4.97671 0
M  V30 1685 C 163.109 1.25729 7.08227 0
M  V30 1686 C 165.135 0.618039 5.88162 0
M  V30 1687 C 164.497 1.31438 6.92029 0
M  V30 1688 H 160.596 -0.303303 0.720785 0
M  V30 1689 H 163.18 -0.154244 1.94088 0
M  V30 1690 H 161.351 -2.42499 3.03395 0
M  V30 1691 H 163.083 -2.37545 3.2765 0
M  V30 1692 H 159.838 -0.895852 4.6505 0
M  V30 1693 H 160.262 0.694027 6.73433 0
M  V30 1694 H 164.904 -0.674868 4.17379 0
M  V30 1695 H 162.622 1.79265 7.87966 0
M  V30 1696 H 166.208 0.683173 5.77775 0
M  V30 1697 H 165.088 1.89981 7.6084 0
M  V30 1698 N 162.591 -1.51276 -0.441967 0
M  V30 1699 C 163.554 -1.7167 -1.51862 0
M  V30 1700 C 164.554 -0.586793 -1.49711 0
M  V30 1701 O 165.744 -0.854276 -1.51815 0
M  V30 1702 C 162.876 -1.76889 -2.91416 0
M  V30 1703 H 164.069 -2.67754 -1.35084 0
M  V30 1704 H 161.622 -1.41196 -0.670333 0
M  V30 1705 H 162.357 -0.826026 -3.13604 0
M  V30 1706 H 162.142 -2.59001 -2.94382 0
M  V30 1707 H 163.632 -1.94522 -3.69528 0
M  V30 1708 N 164.069 0.697108 -1.41344 0
M  V30 1709 C 165.346 1.45154 -1.31109 0
M  V30 1710 C 165.726 2.11009 0.0620449 0
M  V30 1711 O 165.074 2.01571 1.07618 0
M  V30 1712 C 165.284 2.47223 -2.46337 0
M  V30 1713 C 166.632 3.1252 -2.87431 0
M  V30 1714 O 167.656 2.57547 -2.46065 0
M  V30 1715 O 166.515 4.12083 -3.58957 0
M  V30 1716 H 163.609 0.646365 -0.515889 0
M  V30 1717 H 166.155 0.727716 -1.53305 0
M  V30 1718 H 164.927 1.97204 -3.37974 0
M  V30 1719 H 164.55 3.27116 -2.2601 0
M  V30 1720 N 165.547 1.27147 0.931209 0
M  V30 1721 C 166.958 1.12044 1.49342 0
M  V30 1722 C 167.309 -0.295795 1.93957 0
M  V30 1723 O 166.434 -1.18835 1.80852 0
M  V30 1724 C 167.029 2.02781 2.71414 0
M  V30 1725 C 165.588 1.91794 3.2387 0
M  V30 1726 C 164.735 1.95543 1.96617 0
M  V30 1727 H 167.686 1.40091 0.745672 0
M  V30 1728 H 167.707 1.58156 3.46074 0
M  V30 1729 H 167.219 3.05848 2.38911 0
M  V30 1730 H 165.32 0.916992 3.6114 0
M  V30 1731 H 165.433 2.77852 3.90302 0
M  V30 1732 H 163.797 1.39722 2.12955 0
M  V30 1733 H 164.58 3.00259 1.66432 0
M  V30 1734 N 167.025 -1.13721 1.09112 0
M  V30 1735 C 167.957 -2.1871 0.685467 0
M  V30 1736 C 168.97 -1.60527 -0.271068 0
M  V30 1737 O 170.159 -1.78407 -0.0576148 0
M  V30 1738 C 167.259 -3.38898 -0.0111255 0
M  V30 1739 C 166.432 -4.26597 0.966131 0
M  V30 1740 C 165.491 -5.25324 0.303539 0
M  V30 1741 O 164.517 -5.61213 0.950177 0
M  V30 1742 N 165.719 -5.72779 -0.943651 0
M  V30 1743 H 168.484 -2.54126 1.58871 0
M  V30 1744 H 166.045 -1.29012 0.978143 0
M  V30 1745 H 168.037 -4.02014 -0.465517 0
M  V30 1746 H 166.607 -3.01747 -0.816565 0
M  V30 1747 H 165.827 -3.60306 1.59917 0
M  V30 1748 H 167.115 -4.82048 1.6281 0
M  V30 1749 H 166.513 -5.45762 -1.48862 0
M  V30 1750 H 165.07 -6.37847 -1.34142 0
M  V30 1751 N 168.503 -0.877838 -1.30888 0
M  V30 1752 C 169.752 -0.488793 -1.95688 0
M  V30 1753 C 170.065 0.965485 -1.70111 0
M  V30 1754 O 171.271 1.46104 -2.28836 0
M  V30 1755 C 169.727 -0.823201 -3.50359 0
M  V30 1756 C 169.335 -2.29477 -3.84765 0
M  V30 1757 C 171.079 -0.503009 -4.21509 0
M  V30 1758 C 168.986 -2.57118 -5.32583 0
M  V30 1759 H 167.916 -0.179062 -0.732429 0
M  V30 1760 H 170.567 -1.07183 -1.48943 0
M  V30 1761 H 168.949 -0.169331 -3.95638 0
M  V30 1762 H 170.123 -2.99236 -3.5042 0
M  V30 1763 H 168.438 -2.58178 -3.267 0
M  V30 1764 H 171.035 -0.68665 -5.30273 0
M  V30 1765 H 171.378 0.557109 -4.12555 0
M  V30 1766 H 171.911 -1.11376 -3.8189 0
M  V30 1767 H 168.65 -3.61843 -5.4658 0
M  V30 1768 H 168.17 -1.91961 -5.68253 0
M  V30 1769 H 169.849 -2.42251 -5.99936 0
M  V30 1770 N 169.982 1.44106 -0.638065 0
M  V30 1771 C 171.207 2.0685 -0.150916 0
M  V30 1772 C 171.632 1.47417 1.16833 0
M  V30 1773 O 170.99 0.578264 1.71831 0
M  V30 1774 C 171.038 3.60555 -0.05708 0
M  V30 1775 O 170.142 4.00465 0.984972 0
M  V30 1776 H 169.483 0.658151 -0.0879399 0
M  V30 1777 H 172.013 1.84865 -0.876707 0
M  V30 1778 H 172.023 4.07789 0.131232 0
M  V30 1779 H 170.698 4.03193 -1.02021 0
M  V30 1780 H 169.275 3.64849 0.770672 0
M  V30 1781 N 171.46 0.379036 1.52974 0
M  V30 1782 C 172.37 -0.468639 2.29872 0
M  V30 1783 C 173.386 -1.08067 1.36373 0
M  V30 1784 O 174.562 -1.08871 1.69438 0
M  V30 1785 C 171.627 -1.58594 3.083 0
M  V30 1786 C 170.688 -1.00007 4.17489 0
M  V30 1787 C 169.921 -2.06413 4.92168 0
M  V30 1788 O 170.144 -3.27751 4.66835 0
M  V30 1789 O 169.078 -1.68717 5.7777 0
M  V30 1790 H 172.904 0.157508 3.03291 0
M  V30 1791 H 170.489 0.143035 1.48714 0
M  V30 1792 H 172.371 -2.23525 3.57232 0
M  V30 1793 H 171.046 -2.19724 2.37703 0
M  V30 1794 H 169.953 -0.314299 3.72777 0
M  V30 1795 H 171.286 -0.433135 4.90291 0
M  V30 1796 N 172.938 -1.57226 0.108567 0
M  V30 1797 C 174.163 -1.99604 -0.563303 0
M  V30 1798 C 174.588 -0.987563 -1.6009 0
M  V30 1799 O 173.946 0.0421687 -1.81251 0
M  V30 1800 C 173.994 -3.40902 -1.17552 0
M  V30 1801 O 173.098 -3.42896 -2.2912 0
M  V30 1802 H 172.439 -0.648704 -0.1417 0
M  V30 1803 H 174.969 -2.03679 0.193961 0
M  V30 1804 H 174.979 -3.78886 -1.51357 0
M  V30 1805 H 173.654 -4.1382 -0.415445 0
M  V30 1806 H 172.231 -3.1672 -1.96832 0
M  V30 1807 N 174.416 0.165178 -1.56732 0
M  V30 1808 C 175.364 1.22369 -1.97809 0
M  V30 1809 C 176.358 1.45488 -0.867741 0
M  V30 1810 O 177.564 1.45995 -1.05288 0
M  V30 1811 H 173.939 0.411486 -0.629431 0
M  V30 1812 H 175.91 0.850425 -2.86025 0
M  V30 1813 C 174.659 2.55403 -2.35934 0
M  V30 1814 H 173.982 2.38438 -3.20916 0
M  V30 1815 H 175.422 3.2814 -2.68514 0
M  V30 1816 C 173.881 3.14611 -1.20506 0
M  V30 1817 O 174.411 3.98626 -0.496016 0
M  V30 1818 N 172.617 2.7379 -0.97403 0
M  V30 1819 H 172.164 2.0557 -1.55238 0
M  V30 1820 H 172.122 3.1374 -0.203573 0
M  V30 1821 N 175.894 1.51508 0.433938 0
M  V30 1822 C 177.141 1.64345 1.18309 0
M  V30 1823 C 177.469 0.361315 1.91115 0
M  V30 1824 O 176.724 -0.654753 1.84422 0
M  V30 1825 C 177.023 2.79928 2.22205 0
M  V30 1826 C 176.689 4.19078 1.66387 0
M  V30 1827 C 175.351 4.56932 1.50887 0
M  V30 1828 C 177.703 5.05894 1.25381 0
M  V30 1829 C 175.031 5.79305 0.928608 0
M  V30 1830 C 177.383 6.2885 0.687823 0
M  V30 1831 C 176.047 6.65473 0.519755 0
M  V30 1832 H 175.317 0.601381 0.432923 0
M  V30 1833 H 177.964 1.85549 0.473676 0
M  V30 1834 H 176.269 2.52959 2.99197 0
M  V30 1835 H 177.966 2.87059 2.79997 0
M  V30 1836 H 174.556 3.89234 1.79428 0
M  V30 1837 H 178.74 4.77253 1.36175 0
M  V30 1838 H 173.996 6.06324 0.786186 0
M  V30 1839 H 178.17 6.95461 0.361581 0
M  V30 1840 H 175.797 7.6017 0.0679979 0
M  V30 1841 N 177.372 -0.689602 1.41712 0
M  V30 1842 C 178.597 -1.48329 1.44959 0
M  V30 1843 C 179.022 -1.8801 0.0581283 0
M  V30 1844 O 178.38 -1.55026 -0.940035 0
M  V30 1845 C 178.428 -2.71835 2.36935 0
M  V30 1846 O 177.532 -3.69549 1.8305 0
M  V30 1847 H 176.873 -0.446199 0.491734 0
M  V30 1848 H 179.403 -0.847127 1.86239 0
M  V30 1849 H 179.413 -3.20076 2.53013 0
M  V30 1850 H 178.088 -2.42291 3.38035 0
M  V30 1851 H 176.665 -3.2851 1.76452 0
M  V30 1852 N 178.85 -1.27639 -0.924453 0
M  V30 1853 C 180.261 -1.12834 -1.48746 0
M  V30 1854 C 180.612 0.285505 -1.94112 0
M  V30 1855 O 179.737 1.17874 -1.81479 0
M  V30 1856 C 180.332 -2.04217 -2.70334 0
M  V30 1857 C 178.891 -1.93509 -3.22848 0
M  V30 1858 C 178.038 -1.96583 -1.95577 0
M  V30 1859 H 180.989 -1.40484 -0.738233 0
M  V30 1860 H 181.01 -1.59989 -3.4523 0
M  V30 1861 H 180.522 -3.07111 -2.37285 0
M  V30 1862 H 178.623 -0.936131 -3.60649 0
M  V30 1863 H 178.736 -2.79917 -3.88823 0
M  V30 1864 H 177.1 -1.4085 -2.12211 0
M  V30 1865 H 177.883 -3.01137 -1.64837 0
M  V30 1866 N 180.328 1.1314 -1.09713 0
M  V30 1867 C 181.275 2.18642 -0.739196 0
M  V30 1868 C 182.245 1.63706 0.280978 0
M  V30 1869 O 183.43 1.90111 0.161946 0
M  V30 1870 C 180.57 3.44685 -0.169102 0
M  V30 1871 C 179.683 4.13711 -1.24367 0
M  V30 1872 C 178.818 5.27379 -0.636019 0
M  V30 1873 C 177.857 5.88259 -1.69169 0
M  V30 1874 N 176.994 6.93352 -1.10485 0
M  V30 1875 H 181.834 2.48607 -1.64312 0
M  V30 1876 H 179.371 1.22066 -0.820875 0
M  V30 1877 H 181.329 4.16815 0.179256 0
M  V30 1878 H 179.959 3.15161 0.698079 0
M  V30 1879 H 179.011 3.39835 -1.70927 0
M  V30 1880 H 180.323 4.55037 -2.04311 0
M  V30 1881 H 179.477 6.06238 -0.236677 0
M  V30 1882 H 178.216 4.8731 0.194928 0
M  V30 1883 H 177.221 5.08092 -2.10055 0
M  V30 1884 H 178.446 6.30399 -2.52536 0
M  V30 1885 H 176.392 6.55335 -0.295234 0
M  V30 1886 H 176.309 7.33236 -1.84121 0
M  V30 1887 H 177.577 7.76057 -0.73181 0
M  V30 1888 N 181.806 0.884767 1.30421 0
M  V30 1889 C 183.053 0.503105 1.96151 0
M  V30 1890 C 183.381 -0.947676 1.69851 0
M  V30 1891 O 182.636 -1.68467 0.995861 0
M  V30 1892 C 182.935 0.724318 3.49983 0
M  V30 1893 C 182.601 2.15015 3.96332 0
M  V30 1894 C 181.263 2.54005 4.08699 0
M  V30 1895 C 183.615 3.07936 4.20505 0
M  V30 1896 C 180.943 3.85128 4.42599 0
M  V30 1897 C 183.295 4.3859 4.55874 0
M  V30 1898 C 181.959 4.77474 4.66449 0
M  V30 1899 H 181.229 0.184099 0.717766 0
M  V30 1900 H 183.876 1.12058 1.55291 0
M  V30 1901 H 182.181 0.0238086 3.91793 0
M  V30 1902 H 183.878 0.408617 3.98913 0
M  V30 1903 H 180.468 1.8375 3.87213 0
M  V30 1904 H 184.652 2.79033 4.10431 0
M  V30 1905 H 179.908 4.14996 4.48986 0
M  V30 1906 H 184.082 5.10629 4.7353 0
M  V30 1907 H 181.709 5.79115 4.92473 0
M  V30 1908 N 183.284 -1.43765 0.645699 0
M  V30 1909 C 184.232 -2.32516 -0.0624849 0
M  V30 1910 C 185.226 -1.48183 -0.820855 0
M  V30 1911 O 186.432 -1.64439 -0.732106 0
M  V30 1912 H 182.807 -0.750989 -0.0389864 0
M  V30 1913 H 184.778 -2.89979 0.703892 0
M  V30 1914 C 183.527 -3.32389 -1.02044 0
M  V30 1915 H 182.85 -3.97301 -0.446312 0
M  V30 1916 H 184.29 -3.97138 -1.48517 0
M  V30 1917 C 182.749 -2.62416 -2.11281 0
M  V30 1918 O 183.279 -2.434 -3.19561 0
M  V30 1919 N 181.485 -2.21913 -1.87624 0
M  V30 1920 H 181.032 -2.37578 -0.995703 0
M  V30 1921 H 180.99 -1.75424 -2.6091 0
M  V30 1922 N 184.763 -0.387143 -1.52771 0
M  V30 1923 C 185.673 0.456442 -2.30117 0
M  V30 1924 C 186.689 1.07342 -1.36944 0
M  V30 1925 O 187.865 1.07971 -1.70013 0
M  V30 1926 C 184.93 1.56957 -3.09136 0
M  V30 1927 C 183.991 0.977916 -4.18014 0
M  V30 1928 C 183.224 2.038 -4.93256 0
M  V30 1929 O 183.447 3.25271 -4.68567 0
M  V30 1930 O 182.381 1.6565 -5.78657 0
M  V30 1931 H 186.207 -0.17359 -3.03203 0
M  V30 1932 H 183.792 -0.150919 -1.48636 0
M  V30 1933 H 185.674 2.21628 -3.58412 0
M  V30 1934 H 184.349 2.18461 -2.38865 0
M  V30 1935 H 183.256 0.294525 -3.72939 0
M  V30 1936 H 184.589 0.407128 -4.90513 0
M  V30 1937 N 186.241 1.57166 -0.116904 0
M  V30 1938 C 187.188 2.15202 0.83408 0
M  V30 1939 C 188.158 1.07644 1.26499 0
M  V30 1940 O 189.343 1.35541 1.34288 0
M  V30 1941 C 186.483 2.75405 2.07957 0
M  V30 1942 C 185.596 3.97264 1.69721 0
M  V30 1943 C 184.731 4.45561 2.89221 0
M  V30 1944 C 183.77 5.59956 2.47215 0
M  V30 1945 N 182.907 6.03006 3.59622 0
M  V30 1946 H 187.747 2.96141 0.332335 0
M  V30 1947 H 185.284 1.46309 0.152349 0
M  V30 1948 H 187.242 3.08439 2.80929 0
M  V30 1949 H 185.872 1.97159 2.55594 0
M  V30 1950 H 184.924 3.70404 0.866316 0
M  V30 1951 H 186.236 4.80226 1.34849 0
M  V30 1952 H 185.39 4.80493 3.7042 0
M  V30 1953 H 184.129 3.61544 3.27318 0
M  V30 1954 H 183.134 5.2463 1.64448 0
M  V30 1955 H 184.359 6.45738 2.10238 0
M  V30 1956 H 182.305 5.21931 3.97396 0
M  V30 1957 H 182.222 6.80819 3.28667 0
M  V30 1958 H 183.49 6.42576 4.41267 0
M  V30 1959 N 187.719 -0.156864 1.56817 0
M  V30 1960 C 188.996 -0.899244 1.73704 0
M  V30 1961 C 189.376 -1.99771 0.682254 0
M  V30 1962 O 188.724 -2.26515 -0.300522 0
M  V30 1963 C 188.934 -1.45075 3.17418 0
M  V30 1964 C 190.282 -1.91802 3.7881 0
M  V30 1965 O 191.306 -1.54838 3.20786 0
M  V30 1966 O 190.165 -2.5994 4.80722 0
M  V30 1967 H 187.259 -0.424267 0.709878 0
M  V30 1968 H 189.805 -0.143561 1.69092 0
M  V30 1969 H 188.577 -0.660846 3.85679 0
M  V30 1970 H 188.2 -2.27021 3.26416 0
M  V30 1971 N 189.197 -1.51736 -0.425897 0
M  V30 1972 C 190.445 -1.64644 -1.17204 0
M  V30 1973 C 190.766 -0.370486 -1.91448 0
M  V30 1974 O 190.036 0.614088 -1.86026 0
M  V30 1975 H 188.616 -0.606819 -0.435638 0
M  V30 1976 H 191.278 -1.88713 -0.487177 0
M  V30 1977 H 190.374 -2.47958 -1.89534 0
M  V30 1978 N 190.675 0.682077 -1.42076 0
M  V30 1979 C 191.625 1.78823 -1.41444 0
M  V30 1980 C 192.609 1.58323 -0.28681 0
M  V30 1981 O 193.801 1.68926 -0.528498 0
M  V30 1982 C 190.93 3.17232 -1.3122 0
M  V30 1983 C 190.016 3.4338 -2.489 0
M  V30 1984 N 190.407 3.40152 -3.7434 0
M  V30 1985 C 188.705 3.73986 -2.43003 0
M  V30 1986 C 189.406 3.65581 -4.52466 0
M  V30 1987 N 188.382 3.85989 -3.8277 0
M  V30 1988 H 192.184 1.7471 -2.36334 0
M  V30 1989 H 189.698 0.882622 -1.36321 0
M  V30 1990 H 191.695 3.96489 -1.2885 0
M  V30 1991 H 190.355 3.22547 -0.373263 0
M  V30 1992 H 191.366 3.20221 -4.07037 0
M  V30 1993 H 188.043 3.86591 -1.57651 0
M  V30 1994 H 189.433 3.69108 -5.61435 0
M  V30 1995 N 192.153 1.28127 0.917671 0
M  V30 1996 C 193.399 1.15223 1.66888 0
M  V30 1997 C 193.732 -0.299293 1.9188 0
M  V30 1998 O 193.007 -1.21805 1.51637 0
M  V30 1999 C 193.29 1.94706 3.02922 0
M  V30 2000 C 193.143 3.47898 2.85109 0
M  V30 2001 C 194.462 1.75939 4.03402 0
M  V30 2002 H 191.581 0.419946 0.605652 0
M  V30 2003 H 194.223 1.57398 1.06423 0
M  V30 2004 H 192.373 1.58864 3.54534 0
M  V30 2005 H 194.045 3.93624 2.40537 0
M  V30 2006 H 192.288 3.7373 2.20246 0
M  V30 2007 H 192.959 3.98765 3.81694 0
M  V30 2008 H 195.435 2.07209 3.60837 0
M  V30 2009 H 194.311 2.33931 4.96556 0
M  V30 2010 H 194.572 0.709877 4.36364 0
M  V30 2011 N 193.631 -1.12557 1.10312 0
M  V30 2012 C 194.541 -2.21841 0.763142 0
M  V30 2013 C 195.557 -1.72354 -0.238801 0
M  V30 2014 O 196.733 -2.01249 -0.0778746 0
M  V30 2015 C 193.798 -3.46131 0.198632 0
M  V30 2016 C 192.859 -4.10464 1.25769 0
M  V30 2017 C 192.092 -5.28821 0.72002 0
M  V30 2018 O 192.315 -5.6859 -0.453993 0
M  V30 2019 O 191.249 -5.83437 1.47935 0
M  V30 2020 H 195.075 -2.53312 1.67532 0
M  V30 2021 H 192.66 -1.20867 0.878157 0
M  V30 2022 H 194.542 -4.2125 -0.112401 0
M  V30 2023 H 193.217 -3.16338 -0.686419 0
M  V30 2024 H 192.124 -3.3713 1.62156 0
M  V30 2025 H 193.457 -4.44408 2.11571 0
M  V30 2026 N 195.109 -0.891671 -1.2995 0
M  V30 2027 C 196.525 -0.58662 -1.48428 0
M  V30 2028 C 196.725 0.873951 -1.81561 0
M  V30 2029 O 195.781 1.65471 -1.90724 0
M  V30 2030 C 197.094 -1.50553 -2.60296 0
M  V30 2031 C 198.642 -1.50988 -2.74175 0
M  V30 2032 C 199.117 -2.41488 -3.89163 0
M  V30 2033 N 200.608 -2.39489 -3.96483 0
M  V30 2034 C 201.343 -3.06223 -4.84784 0
M  V30 2035 N 200.839 -3.82206 -5.77833 0
M  V30 2036 N 202.632 -2.95421 -4.78208 0
M  V30 2037 H 194.783 -1.83644 -1.06718 0
M  V30 2038 H 197.046 -0.786455 -0.529332 0
M  V30 2039 H 196.752 -2.54581 -2.42654 0
M  V30 2040 H 196.626 -1.22008 -3.56923 0
M  V30 2041 H 199.013 -0.47708 -2.91218 0
M  V30 2042 H 199.094 -1.83567 -1.78148 0
M  V30 2043 H 198.738 -3.44857 -3.72876 0
M  V30 2044 H 198.668 -2.06222 -4.84541 0
M  V30 2045 H 201.159 -1.84278 -3.29924 0
M  V30 2046 H 201.472 -4.302 -6.41988 0
M  V30 2047 H 199.817 -3.86313 -5.77743 0
M  V30 2048 H 203.008 -2.35581 -4.04499 0
M  V30 2049 H 203.181 -3.47704 -5.46814 0
M  V30 2050 N 196.587 1.43421 -0.653314 0
M  V30 2051 C 197.534 2.30768 0.0382271 0
M  V30 2052 C 198.504 1.44755 0.814576 0
M  V30 2053 O 199.689 1.73624 0.791162 0
M  V30 2054 C 196.829 3.30336 0.998599 0
M  V30 2055 C 195.942 4.31448 0.218342 0
M  V30 2056 C 195.077 5.18098 1.17252 0
M  V30 2057 C 194.116 6.10902 0.382702 0
M  V30 2058 N 193.253 6.90176 1.28848 0
M  V30 2059 H 198.093 2.89357 -0.712511 0
M  V30 2060 H 195.63 1.42548 -0.363128 0
M  V30 2061 H 197.588 3.86572 1.56901 0
M  V30 2062 H 196.218 2.73397 1.71621 0
M  V30 2063 H 195.27 3.77506 -0.46836 0
M  V30 2064 H 196.582 4.97227 -0.395812 0
M  V30 2065 H 195.736 5.7896 1.81356 0
M  V30 2066 H 194.475 4.52444 1.82058 0
M  V30 2067 H 193.48 5.49128 -0.27169 0
M  V30 2068 H 194.705 6.78598 -0.260957 0
M  V30 2069 H 192.651 6.27171 1.92334 0
M  V30 2070 H 192.568 7.52478 0.728887 0
M  V30 2071 H 193.836 7.55543 1.91766 0
M  V30 2072 N 198.065 0.39524 1.52563 0
M  V30 2073 C 199.29 -0.187456 2.06551 0
M  V30 2074 C 199.715 -1.39249 1.26457 0
M  V30 2075 O 199.073 -1.78947 0.291151 0
M  V30 2076 C 199.121 -0.529985 3.56684 0
M  V30 2077 O 198.225 -1.62307 3.79118 0
M  V30 2078 H 197.566 -0.0202537 0.663691 0
M  V30 2079 H 200.096 0.564426 1.96661 0
M  V30 2080 H 200.106 -0.792598 4.00227 0
M  V30 2081 H 198.781 0.350987 4.14416 0
M  V30 2082 H 197.358 -1.3537 3.47461 0
M  V30 2083 N 199.544 -1.57102 0.125237 0
M  V30 2084 C 200.491 -2.15641 -0.822655 0
M  V30 2085 C 201.461 -1.08313 -1.25927 0
M  V30 2086 O 202.646 -1.36251 -1.33567 0
M  V30 2087 C 199.786 -2.76504 -2.06494 0
M  V30 2088 C 198.899 -3.98158 -1.67612 0
M  V30 2089 C 198.034 -4.47088 -2.86854 0
M  V30 2090 C 197.073 -5.6126 -2.44242 0
M  V30 2091 N 196.21 -6.04905 -3.56419 0
M  V30 2092 H 201.05 -2.96313 -0.316625 0
M  V30 2093 H 198.587 -1.46388 -0.144588 0
M  V30 2094 H 200.545 -3.09925 -2.79289 0
M  V30 2095 H 199.175 -1.98512 -2.54545 0
M  V30 2096 H 198.227 -3.70858 -0.846661 0
M  V30 2097 H 199.539 -4.80934 -1.32301 0
M  V30 2098 H 198.693 -4.82451 -3.67867 0
M  V30 2099 H 197.432 -3.63275 -3.25396 0
M  V30 2100 H 196.437 -5.25495 -1.61663 0
M  V30 2101 H 197.662 -6.46843 -2.0681 0
M  V30 2102 H 195.608 -5.24032 -3.94623 0
M  V30 2103 H 195.525 -6.82552 -3.25051 0
M  V30 2104 H 196.793 -6.44907 -4.37853 0
M  V30 2105 N 201.022 0.148545 -1.56898 0
M  V30 2106 C 201.97 1.20265 -1.99096 0
M  V30 2107 C 202.964 1.44559 -0.883123 0
M  V30 2108 O 204.17 1.4487 -1.0683 0
M  V30 2109 H 200.545 0.404786 -0.63376 0
M  V30 2110 H 202.516 0.82004 -2.86911 0
M  V30 2111 C 201.265 2.52886 -2.3863 0
M  V30 2112 H 200.588 2.35021 -3.23427 0
M  V30 2113 H 202.028 3.25274 -2.7198 0
M  V30 2114 C 200.487 3.13315 -1.23837 0
M  V30 2115 O 201.017 3.98077 -0.538268 0
M  V30 2116 N 199.223 2.72742 -1.00301 0
M  V30 2117 H 198.77 2.03912 -1.5741 0
M  V30 2118 H 198.728 3.13507 -0.236838 0
M  V30 2119 N 202.5 1.5196 0.417844 0
M  V30 2120 C 203.748 1.65263 1.16329 0
M  V30 2121 C 204.069 0.380634 1.91249 0
M  V30 2122 O 203.339 -0.604214 1.86349 0
M  V30 2123 H 201.919 0.60912 0.432414 0
M  V30 2124 H 204.581 1.88969 0.477162 0
M  V30 2125 H 203.677 2.4896 1.88217 0
M  V30 2126 N 203.978 -0.674533 1.42435 0
M  V30 2127 C 204.908 -1.80009 1.48724 0
M  V30 2128 C 205.889 -1.6659 0.343793 0
M  V30 2129 O 207.074 -1.86007 0.558137 0
M  V30 2130 C 204.204 -3.18306 1.38919 0
M  V30 2131 C 203.158 -3.46461 2.51294 0
M  V30 2132 C 202.484 -4.84335 2.26547 0
M  V30 2133 C 203.784 -3.43328 3.93603 0
M  V30 2134 H 205.478 -1.75004 2.42928 0
M  V30 2135 H 203.024 -0.840533 1.16923 0
M  V30 2136 H 204.977 -3.9678 1.41927 0
M  V30 2137 H 203.701 -3.2399 0.412094 0
M  V30 2138 H 202.36 -2.70348 2.47604 0
M  V30 2139 H 202.008 -4.86669 1.2713 0
M  V30 2140 H 201.708 -5.04136 3.01861 0
M  V30 2141 H 203.232 -5.65094 2.31304 0
M  V30 2142 H 204.646 -4.11772 3.98894 0
M  V30 2143 H 203.043 -3.74664 4.68771 0
M  V30 2144 H 204.113 -2.41897 4.20255 0
M  V30 2145 N 205.456 -1.28612 -0.910864 0
M  V30 2146 C 206.686 -1.1862 -1.69153 0
M  V30 2147 C 207.094 0.257324 -1.87442 0
M  V30 2148 O 206.437 1.18543 -1.40332 0
M  V30 2149 C 206.499 -1.81606 -3.10257 0
M  V30 2150 C 206.163 -3.30864 -3.15243 0
M  V30 2151 C 207.16 -4.27256 -2.96223 0
M  V30 2152 C 204.845 -3.71871 -3.37664 0
M  V30 2153 C 206.839 -5.62631 -2.99541 0
M  V30 2154 C 204.526 -5.07371 -3.40614 0
M  V30 2155 C 205.524 -6.02561 -3.21573 0
M  V30 2156 O 205.212 -7.35589 -3.2429 0
M  V30 2157 H 204.944 -0.412633 -0.535453 0
M  V30 2158 H 207.498 -1.70306 -1.14827 0
M  V30 2159 H 205.728 -1.24418 -3.66138 0
M  V30 2160 H 207.417 -1.66092 -3.70362 0
M  V30 2161 H 208.183 -3.9691 -2.78725 0
M  V30 2162 H 204.062 -2.98241 -3.5153 0
M  V30 2163 H 207.606 -6.36907 -2.84597 0
M  V30 2164 H 203.503 -5.37366 -3.57642 0
M  V30 2165 H 204.271 -7.44252 -3.40633 0
M  V30 2166 N 206.934 1.1197 -1.10907 0
M  V30 2167 C 207.844 2.21433 -0.774896 0
M  V30 2168 C 208.86 1.72478 0.229657 0
M  V30 2169 O 210.036 2.01288 0.0672008 0
M  V30 2170 C 207.101 3.4602 -0.216986 0
M  V30 2171 C 206.162 4.09791 -1.27944 0
M  V30 2172 C 205.395 5.28431 -0.748055 0
M  V30 2173 O 205.618 5.68823 0.423833 0
M  V30 2174 O 204.552 5.82644 -1.51027 0
M  V30 2175 H 208.378 2.5242 -1.68873 0
M  V30 2176 H 205.963 1.20399 -0.884555 0
M  V30 2177 H 207.845 4.21304 0.090059 0
M  V30 2178 H 206.52 3.16698 0.669633 0
M  V30 2179 H 205.427 3.36265 -1.63941 0
M  V30 2180 H 206.76 4.4328 -2.13925 0
M  V30 2181 N 208.412 0.89855 1.29475 0
M  V30 2182 C 209.661 0.519863 1.94885 0
M  V30 2183 C 209.974 -0.9383 1.71625 0
M  V30 2184 O 211.18 -1.42445 2.31131 0
M  V30 2185 C 209.636 0.878836 3.49005 0
M  V30 2186 C 209.244 2.35569 3.81066 0
M  V30 2187 C 210.988 0.570004 4.20656 0
M  V30 2188 C 208.895 2.65558 5.28425 0
M  V30 2189 H 207.825 0.190692 0.729488 0
M  V30 2190 H 210.476 1.09539 1.47219 0
M  V30 2191 H 208.858 0.232253 3.95318 0
M  V30 2192 H 210.032 3.04773 3.45616 0
M  V30 2193 H 208.347 2.63343 3.22552 0
M  V30 2194 H 210.944 0.770925 5.29113 0
M  V30 2195 H 211.287 -0.491404 4.1339 0
M  V30 2196 H 211.82 1.17438 3.8007 0
M  V30 2197 H 208.559 3.70493 5.40754 0
M  V30 2198 H 208.079 2.00977 5.65127 0
M  V30 2199 H 209.758 2.51765 5.96006 0
M  V30 2200 N 209.89 -1.43072 0.660911 0
M  V30 2201 C 210.8 -2.34585 -0.0264163 0
M  V30 2202 C 211.816 -1.54316 -0.803898 0
M  V30 2203 O 212.992 -1.86939 -0.749391 0
M  V30 2204 C 210.057 -3.32689 -0.975639 0
M  V30 2205 C 209.118 -4.2886 -0.194236 0
M  V30 2206 C 208.351 -5.22278 -1.09825 0
M  V30 2207 O 208.574 -5.20299 -2.33763 0
M  V30 2208 O 207.508 -5.99228 -0.566513 0
M  V30 2209 H 211.334 -2.94869 0.727034 0
M  V30 2210 H 208.919 -1.43342 0.42111 0
M  V30 2211 H 210.801 -3.92995 -1.52094 0
M  V30 2212 H 209.476 -2.74898 -1.70918 0
M  V30 2213 H 208.383 -3.72011 0.394835 0
M  V30 2214 H 209.716 -4.89655 0.499899 0
M  V30 2215 N 211.368 -0.403325 -1.52352 0
M  V30 2216 C 212.316 0.439752 -2.28405 0
M  V30 2217 C 213.31 1.05089 -1.32863 0
M  V30 2218 O 214.516 0.989759 -1.50345 0
M  V30 2219 H 210.891 0.160587 -0.734653 0
M  V30 2220 H 212.862 -0.222983 -2.97566 0
M  V30 2221 C 211.611 1.54736 -3.11371 0
M  V30 2222 H 210.934 1.08643 -3.84755 0
M  V30 2223 H 212.374 2.1112 -3.67701 0
M  V30 2224 C 210.833 2.51141 -2.24566 0
M  V30 2225 O 211.363 3.54887 -1.88196 0
M  V30 2226 N 209.569 2.21213 -1.8845 0
M  V30 2227 H 209.116 1.36878 -2.18225 0
M  V30 2228 H 209.074 2.85963 -1.30662 0
M  V30 2229 N 212.846 1.57033 -0.133567 0
M  V30 2230 C 214.094 1.953 0.519848 0
M  V30 2231 C 214.415 1.01866 1.66278 0
M  V30 2232 O 213.685 0.0776513 1.95746 0
M  V30 2233 H 212.265 0.721091 0.195032 0
M  V30 2234 H 214.927 1.93809 -0.205921 0
M  V30 2235 H 214.023 2.98695 0.904854 0
M  V30 2236 N 214.325 -0.140222 1.56975 0
M  V30 2237 C 215.741 -0.493088 1.51792 0
M  V30 2238 C 215.941 -1.83013 0.843116 0
M  V30 2239 O 214.997 -2.49041 0.416493 0
M  V30 2240 C 216.31 -0.497144 2.96562 0
M  V30 2241 C 217.858 -0.582186 3.07538 0
M  V30 2242 C 218.333 -0.616838 4.53827 0
M  V30 2243 N 219.824 -0.678873 4.58198 0
M  V30 2244 C 220.559 -0.726782 5.68775 0
M  V30 2245 N 220.055 -0.733623 6.88905 0
M  V30 2246 N 221.848 -0.768179 5.56826 0
M  V30 2247 H 213.999 0.736108 1.99237 0
M  V30 2248 H 216.262 0.269182 0.90898 0
M  V30 2249 H 215.968 0.417217 3.49217 0
M  V30 2250 H 215.842 -1.33263 3.52875 0
M  V30 2251 H 218.229 -1.48697 2.54899 0
M  V30 2252 H 218.31 0.280581 2.54257 0
M  V30 2253 H 217.954 0.283812 5.07106 0
M  V30 2254 H 217.884 -1.49619 5.04898 0
M  V30 2255 H 220.375 -0.68061 3.7172 0
M  V30 2256 H 220.688 -0.772215 7.68932 0
M  V30 2257 H 219.033 -0.701389 6.91452 0
M  V30 2258 H 222.224 -0.760051 4.61888 0
M  V30 2259 H 222.397 -0.80205 6.43017 0
M  V30 2260 N 215.803 -1.52179 -0.40978 0
M  V30 2261 C 217.214 -1.58377 -0.988615 0
M  V30 2262 C 217.565 -0.423879 -1.91566 0
M  V30 2263 O 216.69 0.455844 -2.11544 0
M  V30 2264 C 217.285 -2.87044 -1.79976 0
M  V30 2265 C 215.844 -2.95722 -2.32863 0
M  V30 2266 C 214.991 -2.53309 -1.12828 0
M  V30 2267 H 217.942 -1.57558 -0.190039 0
M  V30 2268 H 217.963 -2.7236 -2.65707 0
M  V30 2269 H 217.475 -3.71444 -1.12478 0
M  V30 2270 H 215.576 -2.15814 -3.03735 0
M  V30 2271 H 215.689 -3.99951 -2.63773 0
M  V30 2272 H 214.053 -2.07142 -1.48204 0
M  V30 2273 H 214.836 -3.40082 -0.46897 0
M  V30 2274 N 217.281 0.66697 -1.42791 0
M  V30 2275 C 218.697 0.981027 -1.25889 0
M  V30 2276 C 218.897 2.00793 -0.168695 0
M  V30 2277 O 217.953 2.48321 0.45747 0
M  V30 2278 C 219.266 1.47838 -2.61848 0
M  V30 2279 C 220.814 1.59575 -2.69267 0
M  V30 2280 C 221.289 2.12704 -4.05612 0
M  V30 2281 N 222.78 2.20026 -4.07606 0
M  V30 2282 C 223.515 2.62227 -5.09926 0
M  V30 2283 N 223.011 3.03824 -6.22626 0
M  V30 2284 N 224.804 2.62045 -4.97281 0
M  V30 2285 H 216.955 -0.0127891 -2.12396 0
M  V30 2286 H 219.218 0.0568258 -0.946295 0
M  V30 2287 H 218.924 0.798299 -3.4252 0
M  V30 2288 H 218.798 2.45579 -2.86305 0
M  V30 2289 H 221.185 2.26687 -1.88936 0
M  V30 2290 H 221.266 0.60302 -2.48591 0
M  V30 2291 H 220.91 1.46198 -4.86404 0
M  V30 2292 H 220.84 3.12782 -4.23645 0
M  V30 2293 H 223.331 1.90708 -3.2625 0
M  V30 2294 H 223.644 3.34734 -6.96544 0
M  V30 2295 H 221.989 3.01662 -6.26119 0
M  V30 2296 H 225.18 2.28916 -4.08308 0
M  V30 2297 H 225.353 2.94613 -5.77154 0
M  V30 2298 N 218.759 1.29093 0.90403 0
M  V30 2299 C 219.707 1.13727 2.02901 0
M  V30 2300 C 220.701 0.0539853 1.69314 0
M  V30 2301 O 221.907 0.213469 1.7873 0
M  V30 2302 H 218.282 0.35117 0.664969 0
M  V30 2303 H 220.253 2.08982 2.13001 0
M  V30 2304 C 219.002 0.826066 3.37745 0
M  V30 2305 H 218.325 1.65164 3.64089 0
M  V30 2306 H 219.765 0.758559 4.17159 0
M  V30 2307 C 218.224 -0.470541 3.33598 0
M  V30 2308 O 218.754 -1.49792 3.72727 0
M  V30 2309 N 216.96 -0.474812 2.86695 0
M  V30 2310 H 216.507 0.361692 2.55048 0
M  V30 2311 H 216.465 -1.34236 2.84303 0
M  V30 2312 N 220.237 -1.11381 1.11499 0
M  V30 2313 C 221.648 -1.6465 0.880191 0
M  V30 2314 C 221.999 -1.87199 -0.587434 0
M  V30 2315 O 221.124 -1.60667 -1.44966 0
M  V30 2316 C 221.719 -2.99105 1.59128 0
M  V30 2317 C 220.278 -3.49279 1.40289 0
M  V30 2318 C 219.425 -2.24077 1.63354 0
M  V30 2319 H 222.376 -0.950123 1.27116 0
M  V30 2320 H 222.397 -3.66107 1.03664 0
M  V30 2321 H 221.909 -2.82661 2.65941 0
M  V30 2322 H 220.01 -3.70887 0.356888 0
M  V30 2323 H 220.123 -4.2803 2.15238 0
M  V30 2324 H 218.487 -2.31733 1.05698 0
M  V30 2325 H 219.27 -2.10175 2.71443 0
M  V30 2326 N 221.715 -0.905404 -1.28997 0
M  V30 2327 C 222.678 -0.392253 -2.25819 0
M  V30 2328 C 223.678 0.476753 -1.5357 0
M  V30 2329 O 224.868 0.280994 -1.71919 0
M  V30 2330 C 222 0.438588 -3.38067 0
M  V30 2331 H 223.193 -1.24743 -2.72725 0
M  V30 2332 H 220.746 -0.684051 -1.40536 0
M  V30 2333 H 221.481 1.31352 -2.96508 0
M  V30 2334 H 221.266 -0.184167 -3.91667 0
M  V30 2335 H 222.756 0.78873 -4.10084 0
M  V30 2336 N 223.193 1.4272 -0.668489 0
M  V30 2337 C 224.441 2.01226 -0.187769 0
M  V30 2338 C 224.762 1.53092 1.2078 0
M  V30 2339 O 224.032 0.74993 1.80977 0
M  V30 2340 H 222.612 0.744041 -0.0664272 0
M  V30 2341 H 225.274 1.74723 -0.863583 0
M  V30 2342 H 224.37 3.11556 -0.184166 0
M  V30 2343 N 224.671 0.411399 1.52136 0
M  V30 2344 C 226.087 0.0623865 1.59478 0
M  V30 2345 C 226.287 -1.42554 1.4241 0
M  V30 2346 O 225.343 -2.19263 1.2522 0
M  V30 2347 C 226.656 0.559331 2.95452 0
M  V30 2348 C 228.204 0.517503 3.08692 0
M  V30 2349 C 228.679 0.990994 4.4715 0
M  V30 2350 N 230.17 0.947908 4.53397 0
M  V30 2351 C 230.905 1.28544 5.58806 0
M  V30 2352 N 230.401 1.69454 6.71757 0
M  V30 2353 N 232.194 1.20526 5.49026 0
M  V30 2354 H 224.345 1.37982 1.61477 0
M  V30 2355 H 226.608 0.566977 0.759764 0
M  V30 2356 H 226.314 1.59938 3.1323 0
M  V30 2357 H 226.188 -0.0298014 3.77188 0
M  V30 2358 H 228.575 -0.513505 2.90598 0
M  V30 2359 H 228.656 1.14272 2.28857 0
M  V30 2360 H 228.3 2.02034 4.65988 0
M  V30 2361 H 228.23 0.34257 5.25485 0
M  V30 2362 H 230.721 0.647157 3.72317 0
M  V30 2363 H 231.034 1.93513 7.48179 0
M  V30 2364 H 229.379 1.73359 6.73032 0
M  V30 2365 H 232.57 0.884505 4.59667 0
M  V30 2366 H 232.743 1.47161 6.31069 0
M  V30 2367 N 226.149 -1.5696 0.141893 0
M  V30 2368 C 227.377 -2.00322 -0.517579 0
M  V30 2369 C 227.792 -1.02193 -1.58752 0
M  V30 2370 O 227.149 -0.0181619 -1.82491 0
M  V30 2371 C 227.2 -3.43618 -1.12289 0
M  V30 2372 O 226.921 -4.37995 -0.0956929 0
M  V30 2373 C 228.422 -4.02231 -1.86347 0
M  V30 2374 H 225.642 -0.657243 -0.135177 0
M  V30 2375 H 228.186 -2.03146 0.234973 0
M  V30 2376 H 226.341 -3.41662 -1.82609 0
M  V30 2377 H 226.755 -5.21729 -0.538469 0
M  V30 2378 H 228.229 -5.04509 -2.23997 0
M  V30 2379 H 228.706 -3.42655 -2.74744 0
M  V30 2380 H 229.312 -4.07802 -1.20737 0
M  V30 2381 N 227.627 0.131896 -1.57047 0
M  V30 2382 C 228.875 0.840269 -1.83804 0
M  V30 2383 C 229.196 1.81017 -0.72512 0
M  V30 2384 O 228.466 1.94272 0.251995 0
M  V30 2385 H 227.046 0.313294 -0.678127 0
M  V30 2386 H 229.708 0.122294 -1.94516 0
M  V30 2387 H 228.804 1.39335 -2.79271 0
M  V30 2388 N 229.106 1.52395 0.401703 0
M  V30 2389 C 230.036 1.79231 1.49661 0
M  V30 2390 C 231.017 0.643654 1.57452 0
M  V30 2391 O 232.202 0.889989 1.72606 0
M  V30 2392 C 229.332 1.94971 2.87409 0
M  V30 2393 C 228.286 3.10604 2.94465 0
M  V30 2394 C 227.612 3.11577 4.34538 0
M  V30 2395 C 228.912 4.49921 2.6527 0
M  V30 2396 H 230.606 2.70917 1.27454 0
M  V30 2397 H 228.152 1.30362 0.6117 0
M  V30 2398 H 230.105 2.12328 3.63999 0
M  V30 2399 H 228.829 0.999632 3.10926 0
M  V30 2400 H 227.488 2.93009 2.20321 0
M  V30 2401 H 227.136 2.14277 4.55076 0
M  V30 2402 H 226.836 3.89247 4.40183 0
M  V30 2403 H 228.36 3.31073 5.13053 0
M  V30 2404 H 229.774 4.67683 3.31581 0
M  V30 2405 H 228.171 5.29564 2.82281 0
M  V30 2406 H 229.241 4.57507 1.60671 0
M  V30 2407 N 230.584 -0.659388 1.43143 0
M  V30 2408 C 231.83 -1.42145 1.44647 0
M  V30 2409 C 232.163 -1.9408 0.0681907 0
M  V30 2410 O 231.438 -1.71899 -0.910007 0
M  V30 2411 C 231.721 -2.60735 2.48373 0
M  V30 2412 C 231.574 -2.14332 3.95451 0
M  V30 2413 C 232.893 -3.62951 2.48906 0
M  V30 2414 H 230.012 -0.51552 0.526696 0
M  V30 2415 H 232.654 -0.748069 1.74654 0
M  V30 2416 H 230.804 -3.18184 2.22916 0
M  V30 2417 H 232.476 -1.61932 4.31944 0
M  V30 2418 H 230.719 -1.4576 4.08578 0
M  V30 2419 H 231.39 -2.99583 4.63631 0
M  V30 2420 H 233.866 -3.1525 2.71582 0
M  V30 2421 H 232.742 -4.43487 3.23435 0
M  V30 2422 H 233.003 -4.15126 1.52061 0
M  V30 2423 N 232.062 -1.29571 -0.897171 0
M  V30 2424 C 233.31 -1.17456 -1.64464 0
M  V30 2425 C 233.631 0.273698 -1.9307 0
M  V30 2426 O 232.901 1.18684 -1.55855 0
M  V30 2427 H 231.481 -0.431706 -0.609622 0
M  V30 2428 H 234.143 -1.62531 -1.07562 0
M  V30 2429 H 233.239 -1.72648 -2.59998 0
M  V30 2430 N 233.54 1.10788 -1.12088 0
M  V30 2431 C 234.956 1.34691 -0.856186 0
M  V30 2432 C 235.156 1.94791 0.515615 0
M  V30 2433 O 234.212 2.18524 1.26505 0
M  V30 2434 C 235.525 2.27208 -1.9697 0
M  V30 2435 C 237.073 2.40755 -2.00016 0
M  V30 2436 C 237.548 3.36598 -3.1059 0
M  V30 2437 N 239.039 3.44164 -3.10008 0
M  V30 2438 C 239.774 4.18284 -3.92206 0
M  V30 2439 N 239.27 4.95322 -4.84384 0
M  V30 2440 N 241.063 4.13865 -3.80357 0
M  V30 2441 H 233.214 0.70144 -2.00483 0
M  V30 2442 H 235.477 0.371405 -0.872217 0
M  V30 2443 H 235.183 1.90251 -2.958 0
M  V30 2444 H 235.057 3.27485 -1.87172 0
M  V30 2445 H 237.444 2.76982 -1.01808 0
M  V30 2446 H 237.525 1.40305 -2.13888 0
M  V30 2447 H 237.169 3.01096 -4.09028 0
M  V30 2448 H 237.099 4.36918 -2.93956 0
M  V30 2449 H 239.59 2.8922 -2.43228 0
M  V30 2450 H 239.903 5.49267 -5.43623 0
M  V30 2451 H 238.248 4.94459 -4.884 0
M  V30 2452 H 241.439 3.52773 -3.07683 0
M  V30 2453 H 241.612 4.71372 -4.44649 0
M  V30 2454 N 235.018 0.912232 1.28515 0
M  V30 2455 C 236.266 0.543523 1.94654 0
M  V30 2456 C 236.587 -0.9155 1.72173 0
M  V30 2457 O 235.857 -1.64708 1.06058 0
M  V30 2458 H 234.437 0.198017 0.720277 0
M  V30 2459 H 237.099 1.16126 1.56527 0
M  V30 2460 H 236.195 0.736684 3.03281 0
M  V30 2461 N 236.496 -1.42363 0.676048 0
M  V30 2462 C 237.426 -2.33497 0.0124832 0
M  V30 2463 C 238.407 -1.50748 -0.787981 0
M  V30 2464 O 239.592 -1.79346 -0.744884 0
M  V30 2465 C 236.722 -3.34377 -0.938582 0
M  V30 2466 C 235.676 -4.27289 -0.246622 0
M  V30 2467 C 235.002 -5.18386 -1.31071 0
M  V30 2468 C 236.302 -5.14916 0.875125 0
M  V30 2469 H 237.996 -2.89233 0.773593 0
M  V30 2470 H 235.542 -1.39073 0.37346 0
M  V30 2471 H 237.495 -3.97044 -1.41188 0
M  V30 2472 H 236.219 -2.76947 -1.73113 0
M  V30 2473 H 234.878 -3.66018 0.206456 0
M  V30 2474 H 234.526 -4.57282 -2.09528 0
M  V30 2475 H 234.226 -5.81378 -0.852839 0
M  V30 2476 H 235.75 -5.83929 -1.78492 0
M  V30 2477 H 237.164 -5.71262 0.482983 0
M  V30 2478 H 235.561 -5.86747 1.25887 0
M  V30 2479 H 236.631 -4.53242 1.72335 0
M  V30 2480 N 237.974 -0.419461 -1.51915 0
M  V30 2481 C 238.904 0.391813 -2.30189 0
M  V30 2482 C 239.885 1.03699 -1.34836 0
M  V30 2483 O 241.07 1.04403 -1.63748 0
M  V30 2484 C 238.2 1.50312 -3.13087 0
M  V30 2485 C 237.154 0.9824 -4.16573 0
M  V30 2486 C 236.48 2.18809 -4.8788 0
M  V30 2487 C 237.78 0.0292356 -5.22292 0
M  V30 2488 H 239.474 -0.26135 -2.98257 0
M  V30 2489 H 237.02 -0.127134 -1.43438 0
M  V30 2490 H 238.973 2.07773 -3.66617 0
M  V30 2491 H 237.697 2.18431 -2.42807 0
M  V30 2492 H 236.356 0.430119 -3.64068 0
M  V30 2493 H 236.004 2.85507 -4.14119 0
M  V30 2494 H 235.704 1.84615 -5.57845 0
M  V30 2495 H 237.228 2.76858 -5.44226 0
M  V30 2496 H 238.642 0.512976 -5.71 0
M  V30 2497 H 237.039 -0.2244 -5.9968 0
M  V30 2498 H 238.109 -0.912931 -4.76228 0
M  V30 2499 N 239.452 1.56882 -0.150215 0
M  V30 2500 C 240.7 1.9584 0.499105 0
M  V30 2501 C 241.021 1.03623 1.65188 0
M  V30 2502 O 240.291 0.0984084 1.95653 0
M  V30 2503 H 238.871 0.723119 0.187373 0
M  V30 2504 H 241.533 1.9358 -0.226466 0
M  V30 2505 H 240.629 2.99638 0.873122 0
M  V30 2506 N 240.93 -0.123565 1.57115 0
M  V30 2507 C 242.346 -0.476961 1.52306 0
M  V30 2508 C 242.546 -1.82109 0.86248 0
M  V30 2509 O 241.602 -2.48586 0.442884 0
M  V30 2510 C 242.915 -0.465661 2.97073 0
M  V30 2511 C 244.463 -0.549534 3.08138 0
M  V30 2512 C 244.938 -0.568669 4.54456 0
M  V30 2513 N 246.429 -0.630237 4.58892 0
M  V30 2514 C 247.164 -0.666415 5.69514 0
M  V30 2515 N 246.66 -0.660514 6.89644 0
M  V30 2516 N 248.453 -0.709077 5.5761 0
M  V30 2517 H 240.604 0.757198 1.98445 0
M  V30 2518 H 242.867 0.278808 0.906074 0
M  V30 2519 H 242.573 0.454232 3.48754 0
M  V30 2520 H 242.447 -1.29513 3.54269 0
M  V30 2521 H 244.834 -1.45985 2.56461 0
M  V30 2522 H 244.915 0.307532 2.53945 0
M  V30 2523 H 244.559 0.337581 5.06777 0
M  V30 2524 H 244.489 -1.44256 5.06456 0
M  V30 2525 H 246.98 -0.641146 3.72421 0
M  V30 2526 H 247.293 -0.690616 7.69708 0
M  V30 2527 H 245.638 -0.628012 6.92157 0
M  V30 2528 H 248.829 -0.711019 4.62668 0
M  V30 2529 H 249.002 -0.733804 6.43832 0
M  V30 2530 N 242.408 -1.52605 -0.393616 0
M  V30 2531 C 243.654 -1.68624 -1.13743 0
M  V30 2532 C 244.009 -0.418687 -1.87789 0
M  V30 2533 O 243.302 0.58747 -1.82371 0
M  V30 2534 C 243.496 -2.85721 -2.14705 0
M  V30 2535 C 243.325 -4.23742 -1.50575 0
M  V30 2536 C 242.095 -4.89033 -1.2718 0
M  V30 2537 C 244.293 -5.05293 -0.958311 0
M  V30 2538 N 242.275 -6.11048 -0.591058 0
M  V30 2539 C 243.646 -6.18673 -0.405367 0
M  V30 2540 C 245.701 -4.90517 -0.854274 0
M  V30 2541 C 244.404 -7.18895 0.241434 0
M  V30 2542 C 246.43 -5.90986 -0.221301 0
M  V30 2543 C 245.792 -7.03669 0.320894 0
M  V30 2544 H 241.891 -0.670556 -0.402342 0
M  V30 2545 H 244.475 -1.89946 -0.427607 0
M  V30 2546 H 242.646 -2.65987 -2.83029 0
M  V30 2547 H 244.378 -2.90699 -2.8156 0
M  V30 2548 H 241.133 -4.47672 -1.54554 0
M  V30 2549 H 241.557 -6.76474 -0.266862 0
M  V30 2550 H 246.199 -4.03612 -1.25926 0
M  V30 2551 H 243.917 -8.05413 0.658448 0
M  V30 2552 H 247.503 -5.81626 -0.142111 0
M  V30 2553 H 246.383 -7.80078 0.802956 0
M  V30 2554 N 243.887 0.651787 -1.4349 0
M  V30 2555 C 245.135 1.40888 -1.44897 0
M  V30 2556 C 245.456 1.94856 -0.0749086 0
M  V30 2557 O 244.726 1.74518 0.889956 0
M  V30 2558 H 243.306 0.522887 -0.533478 0
M  V30 2559 H 245.968 0.768609 -1.79104 0
M  V30 2560 H 245.064 2.25052 -2.16236 0
M  V30 2561 N 245.365 1.30045 0.890287 0
M  V30 2562 C 246.776 1.16738 1.45702 0
M  V30 2563 C 247.127 -0.233939 1.948 0
M  V30 2564 O 246.252 -1.13021 1.84541 0
M  V30 2565 C 246.847 2.11313 2.64825 0
M  V30 2566 C 245.406 2.02001 3.17604 0
M  V30 2567 C 244.553 2.01699 1.90296 0
M  V30 2568 H 247.504 1.42392 0.700726 0
M  V30 2569 H 247.525 1.69086 3.40867 0
M  V30 2570 H 247.037 3.13294 2.2906 0
M  V30 2571 H 245.138 1.03142 3.5804 0
M  V30 2572 H 245.251 2.90128 3.81264 0
M  V30 2573 H 243.615 1.46427 2.08402 0
M  V30 2574 H 244.398 3.05402 1.56795 0
M  V30 2575 N 246.843 -1.10192 1.12674 0
M  V30 2576 C 247.791 -2.18694 0.792196 0
M  V30 2577 C 248.785 -1.67938 -0.222058 0
M  V30 2578 O 249.991 -1.79822 -0.0800074 0
M  V30 2579 H 246.366 -0.713223 0.238364 0
M  V30 2580 H 248.337 -2.44149 1.71564 0
M  V30 2581 C 247.086 -3.46682 0.265859 0
M  V30 2582 H 246.409 -3.86101 1.03761 0
M  V30 2583 H 247.849 -4.23942 0.0701128 0
M  V30 2584 C 246.308 -3.21506 -1.00675 0
M  V30 2585 O 246.838 -3.43408 -2.08408 0
M  V30 2586 N 245.044 -2.75158 -0.934692 0
M  V30 2587 H 244.591 -2.57535 -0.0578604 0
M  V30 2588 H 244.549 -2.58691 -1.7868 0
M  V30 2589 N 248.321 -0.919034 -1.28029 0
M  V30 2590 C 249.271 -0.382574 -2.24767 0
M  V30 2591 C 250.255 0.508286 -1.52661 0
M  V30 2592 O 251.447 0.347145 -1.73562 0
M  V30 2593 C 248.576 0.371432 -3.41285 0
M  V30 2594 C 247.662 -0.535449 -4.20706 0
M  V30 2595 N 248.053 -1.65141 -4.78082 0
M  V30 2596 C 246.351 -0.336824 -4.44726 0
M  V30 2597 C 247.052 -2.21475 -5.37888 0
M  V30 2598 N 246.028 -1.50537 -5.22341 0
M  V30 2599 H 249.83 -1.23477 -2.66703 0
M  V30 2600 H 247.344 -0.772299 -1.42861 0
M  V30 2601 H 249.341 0.772638 -4.09678 0
M  V30 2602 H 248.001 1.22066 -3.00882 0
M  V30 2603 H 249.012 -2.03392 -4.7629 0
M  V30 2604 H 245.689 0.47246 -4.14818 0
M  V30 2605 H 247.079 -3.15379 -5.93284 0
M  V30 2606 N 249.799 1.42003 -0.683588 0
M  V30 2607 C 250.762 2.29191 -0.0198243 0
M  V30 2608 C 251.762 1.43773 0.72013 0
M  V30 2609 O 252.952 1.65061 0.556815 0
M  V30 2610 C 250.084 3.26435 0.982487 0
M  V30 2611 H 251.277 2.8938 -0.787345 0
M  V30 2612 H 248.83 1.49789 -0.446418 0
M  V30 2613 H 249.565 2.71203 1.77819 0
M  V30 2614 H 249.35 3.89449 0.455182 0
M  V30 2615 H 250.84 3.918 1.44508 0
M  V30 2616 N 251.277 0.427512 1.51691 0
M  V30 2617 C 252.24 -0.377132 2.26076 0
M  V30 2618 C 253.24 -0.958089 1.29141 0
M  V30 2619 O 254.43 -0.83408 1.52934 0
M  V30 2620 C 251.562 -1.53262 3.04506 0
M  V30 2621 H 252.755 0.27464 2.9864 0
M  V30 2622 H 250.308 0.180445 1.55255 0
M  V30 2623 H 251.043 -2.22072 2.36335 0
M  V30 2624 H 250.828 -1.12232 3.75694 0
M  V30 2625 H 252.318 -2.10135 3.60878 0
M  V30 2626 N 252.755 -1.56801 0.158532 0
M  V30 2627 C 254.032 -1.88131 -0.535357 0
M  V30 2628 C 254.412 -1.06638 -1.82186 0
M  V30 2629 O 253.76 -0.156533 -2.27963 0
M  V30 2630 C 253.97 -3.39949 -0.789653 0
M  V30 2631 C 255.318 -4.09416 -1.12533 0
M  V30 2632 O 256.342 -3.45194 -0.878622 0
M  V30 2633 O 255.201 -5.22855 -1.59014 0
M  V30 2634 H 252.295 -0.780143 -0.27442 0
M  V30 2635 H 254.841 -1.68564 0.19601 0
M  V30 2636 H 253.613 -3.91115 0.120353 0
M  V30 2637 H 253.236 -3.65084 -1.57479 0
M  V30 2638 N 254.233 0.115231 -1.57178 0
M  V30 2639 C 255.644 0.67197 -1.74188 0
M  V30 2640 C 255.995 1.80125 -0.777777 0
M  V30 2641 O 255.12 2.16346 0.0484376 0
M  V30 2642 C 255.715 1.22573 -3.1585 0
M  V30 2643 C 254.274 1.72872 -3.34353 0
M  V30 2644 C 253.421 0.629972 -2.70049 0
M  V30 2645 H 256.372 -0.110712 -1.58313 0
M  V30 2646 H 256.393 2.09535 -3.17609 0
M  V30 2647 H 255.905 0.403598 -3.85996 0
M  V30 2648 H 254.006 2.5755 -2.69256 0
M  V30 2649 H 254.119 1.83557 -4.42542 0
M  V30 2650 H 252.483 1.0645 -2.31388 0
M  V30 2651 H 253.266 -0.181241 -3.42821 0
M  V30 2652 N 255.711 1.52812 0.385517 0
M  V30 2653 C 256.96 1.67249 1.12741 0
M  V30 2654 C 257.273 0.4205 1.91027 0
M  V30 2655 O 258.479 0.445064 2.67827 0
M  V30 2656 C 256.935 2.95583 2.05326 0
M  V30 2657 C 256.543 4.27974 1.32447 0
M  V30 2658 C 258.287 3.19386 2.7963 0
M  V30 2659 C 256.194 5.47412 2.23818 0
M  V30 2660 H 255.124 0.6231 0.424573 0
M  V30 2661 H 257.775 1.79309 0.389924 0
M  V30 2662 H 256.157 2.77277 2.82725 0
M  V30 2663 H 257.331 4.56844 0.602495 0
M  V30 2664 H 255.646 4.10459 0.700885 0
M  V30 2665 H 258.243 4.05801 3.48181 0
M  V30 2666 H 258.586 2.34604 3.43899 0
M  V30 2667 H 259.119 3.38274 2.09322 0
M  V30 2668 H 255.858 6.34612 1.64157 0
M  V30 2669 H 255.378 5.22849 2.93921 0
M  V30 2670 H 257.057 5.81423 2.83824 0
M  V30 2671 N 257.189 -0.644168 1.43834 0
M  V30 2672 C 258.438 -1.39985 1.45214 0
M  V30 2673 C 258.751 -1.95421 0.0835494 0
M  V30 2674 O 259.957 -2.71488 -0.0251748 0
M  V30 2675 C 258.413 -2.53384 2.55587 0
M  V30 2676 C 258.021 -2.04517 3.98594 0
M  V30 2677 C 259.765 -3.30685 2.66172 0
M  V30 2678 C 257.672 -3.1518 5.00416 0
M  V30 2679 H 256.602 -0.526005 0.540218 0
M  V30 2680 H 259.253 -0.694367 1.69855 0
M  V30 2681 H 257.635 -3.26446 2.24163 0
M  V30 2682 H 258.809 -1.38405 4.39523 0
M  V30 2683 H 257.124 -1.40068 3.92135 0
M  V30 2684 H 259.721 -4.13158 3.39418 0
M  V30 2685 H 260.064 -3.79312 1.71546 0
M  V30 2686 H 260.597 -2.64708 2.96942 0
M  V30 2687 H 257.336 -2.71511 5.96625 0
M  V30 2688 H 256.856 -3.79974 4.64091 0
M  V30 2689 H 258.535 -3.80166 5.23529 0
M  V30 2690 N 258.668 -1.30515 -0.883378 0
M  V30 2691 C 259.896 -1.22359 -1.66841 0
M  V30 2692 C 260.311 0.213296 -1.87591 0
M  V30 2693 O 259.668 1.14075 -1.42454 0
M  V30 2694 C 259.719 -1.95011 -3.04389 0
M  V30 2695 O 259.44 -3.3309 -2.84575 0
M  V30 2696 C 260.941 -1.93532 -3.98824 0
M  V30 2697 H 258.161 -0.423371 -0.520575 0
M  V30 2698 H 260.705 -1.72167 -1.10357 0
M  V30 2699 H 258.86 -1.48997 -3.57601 0
M  V30 2700 H 259.274 -3.69907 -3.71846 0
M  V30 2701 H 260.748 -2.48902 -4.92699 0
M  V30 2702 H 261.225 -0.914627 -4.29571 0
M  V30 2703 H 261.831 -2.39364 -3.51547 0
M  V30 2704 N 260.146 1.09593 -1.13257 0
M  V30 2705 C 261.562 1.33775 -0.870423 0
M  V30 2706 C 261.762 1.95327 0.494926 0
M  V30 2707 O 260.818 2.19853 1.2418 0
M  V30 2708 C 262.131 2.25106 -1.99369 0
M  V30 2709 C 263.679 2.3862 -2.02558 0
M  V30 2710 C 264.154 3.33285 -3.14142 0
M  V30 2711 N 265.645 3.40857 -3.13641 0
M  V30 2712 C 266.38 4.14101 -3.96621 0
M  V30 2713 N 265.876 4.90157 -4.8961 0
M  V30 2714 N 267.669 4.09808 -3.84726 0
M  V30 2715 H 259.82 0.680136 -2.01216 0
M  V30 2716 H 262.083 0.362133 -0.876107 0
M  V30 2717 H 261.789 1.87103 -2.97801 0
M  V30 2718 H 261.663 3.25481 -1.90635 0
M  V30 2719 H 264.05 2.75887 -1.0474 0
M  V30 2720 H 264.131 1.38028 -2.15364 0
M  V30 2721 H 263.775 2.96741 -4.12198 0
M  V30 2722 H 263.705 4.33776 -2.98574 0
M  V30 2723 H 266.196 2.86624 -2.46282 0
M  V30 2724 H 266.509 5.4347 -5.49418 0
M  V30 2725 H 264.854 4.89251 -4.93617 0
M  V30 2726 H 268.045 3.4949 -3.11408 0
M  V30 2727 H 268.218 4.66629 -4.49623 0
M  V30 2728 N 261.624 0.925811 1.2754 0
M  V30 2729 C 262.87 0.575575 1.95086 0
M  V30 2730 C 263.225 -0.873246 1.71441 0
M  V30 2731 O 262.518 -1.61443 1.03183 0
M  V30 2732 C 262.712 0.835296 3.47502 0
M  V30 2733 C 262.541 2.30781 3.85967 0
M  V30 2734 C 261.311 2.96017 4.09514 0
M  V30 2735 C 263.509 3.28519 3.95702 0
M  V30 2736 N 261.491 4.3344 4.34744 0
M  V30 2737 C 262.862 4.51146 4.25285 0
M  V30 2738 C 264.917 3.23753 3.7827 0
M  V30 2739 C 263.62 5.69606 4.39251 0
M  V30 2740 C 265.646 4.41523 3.9346 0
M  V30 2741 C 265.008 5.62928 4.23428 0
M  V30 2742 H 261.107 0.260711 0.737261 0
M  V30 2743 H 263.691 1.19204 1.53943 0
M  V30 2744 H 261.862 0.248005 3.87607 0
M  V30 2745 H 263.594 0.447878 4.02214 0
M  V30 2746 H 260.349 2.46695 4.04275 0
M  V30 2747 H 260.773 5.04528 4.5142 0
M  V30 2748 H 265.415 2.3096 3.54143 0
M  V30 2749 H 263.133 6.62866 4.62205 0
M  V30 2750 H 266.719 4.39351 3.81394 0
M  V30 2751 H 265.599 6.52538 4.34929 0
M  V30 2752 N 263.102 -1.41638 0.69111 0
M  V30 2753 C 264.049 -2.30789 0.0229705 0
M  V30 2754 C 265.019 -1.46863 -0.775911 0
M  V30 2755 O 266.204 -1.75661 -0.74485 0
M  V30 2756 C 263.344 -3.32868 -0.910666 0
M  V30 2757 C 262.457 -4.31875 -0.103874 0
M  V30 2758 C 261.592 -5.21024 -1.03475 0
M  V30 2759 C 260.631 -6.11702 -0.220598 0
M  V30 2760 N 259.768 -6.93349 -1.10504 0
M  V30 2761 H 264.608 -2.87366 0.788978 0
M  V30 2762 H 262.145 -1.41535 0.400794 0
M  V30 2763 H 264.103 -3.90596 -1.46597 0
M  V30 2764 H 262.733 -2.77851 -1.64312 0
M  V30 2765 H 261.785 -3.76131 0.568285 0
M  V30 2766 H 263.097 -4.96003 0.527504 0
M  V30 2767 H 262.251 -5.83565 -1.65943 0
M  V30 2768 H 260.99 -4.57112 -1.69999 0
M  V30 2769 H 259.995 -5.48215 0.417187 0
M  V30 2770 H 261.22 -6.77668 0.440784 0
M  V30 2771 H 259.166 -6.3205 -1.75638 0
M  V30 2772 H 259.083 -7.54146 -0.529125 0
M  V30 2773 H 260.351 -7.60362 -1.71667 0
M  V30 2774 N 264.58 -0.43555 -1.51462 0
M  V30 2775 C 265.996 -0.0877501 -1.59359 0
M  V30 2776 C 266.196 1.4027 -1.4466 0
M  V30 2777 O 265.252 2.17243 -1.28693 0
M  V30 2778 C 266.565 -0.606264 -2.94525 0
M  V30 2779 C 268.113 -0.566548 -3.0783 0
M  V30 2780 C 268.588 -1.06201 -4.45517 0
M  V30 2781 N 270.079 -1.01992 -4.51832 0
M  V30 2782 C 270.814 -1.37417 -5.5669 0
M  V30 2783 N 270.31 -1.80119 -6.68976 0
M  V30 2784 N 272.103 -1.29245 -5.47039 0
M  V30 2785 H 264.254 -1.40533 -1.59261 0
M  V30 2786 H 266.517 -0.578992 -0.750648 0
M  V30 2787 H 266.223 -1.64901 -3.10645 0
M  V30 2788 H 266.097 -0.0302097 -3.77188 0
M  V30 2789 H 268.484 0.467208 -2.91378 0
M  V30 2790 H 268.565 -1.17898 -2.2701 0
M  V30 2791 H 268.209 -2.09422 -4.62715 0
M  V30 2792 H 268.139 -0.426127 -5.24873 0
M  V30 2793 H 270.63 -0.706308 -3.71241 0
M  V30 2794 H 270.943 -2.05392 -7.45006 0
M  V30 2795 H 269.288 -1.84044 -6.70189 0
M  V30 2796 H 272.479 -0.957522 -4.58202 0
M  V30 2797 H 272.652 -1.57182 -6.28648 0
M  V30 2798 N 266.058 1.56714 -0.166846 0
M  V30 2799 C 267.335 1.88412 0.525373 0
M  V30 2800 C 267.715 1.07602 1.81618 0
M  V30 2801 O 267.063 0.168621 2.27877 0
M  V30 2802 C 267.273 3.40363 0.771613 0
M  V30 2803 C 268.621 4.10007 1.1036 0
M  V30 2804 O 269.645 3.45655 0.860304 0
M  V30 2805 O 268.504 5.2369 1.56239 0
M  V30 2806 H 265.598 0.781587 0.270278 0
M  V30 2807 H 268.144 1.68458 -0.204946 0
M  V30 2808 H 266.916 3.91046 -0.141093 0
M  V30 2809 H 266.539 3.65914 1.55541 0
M  V30 2810 N 267.536 -0.106894 1.57237 0
M  V30 2811 C 268.761 -0.830287 1.90055 0
M  V30 2812 C 269.186 -1.72064 0.75998 0
M  V30 2813 O 268.544 -1.78982 -0.288991 0
M  V30 2814 C 268.592 -1.6295 3.21683 0
M  V30 2815 O 267.696 -2.73748 3.08441 0
M  V30 2816 H 267.037 -0.228855 0.623315 0
M  V30 2817 H 269.567 -0.085658 2.04421 0
M  V30 2818 H 269.577 -2.01621 3.54701 0
M  V30 2819 H 268.252 -0.975989 4.04286 0
M  V30 2820 H 266.829 -2.38192 2.86913 0
M  V30 2821 N 269.014 -1.53014 -0.377408 0
M  V30 2822 C 270.239 -1.72818 -1.14668 0
M  V30 2823 C 270.664 -0.450725 -1.8262 0
M  V30 2824 O 270.022 0.59439 -1.7128 0
M  V30 2825 C 270.07 -2.88627 -2.16164 0
M  V30 2826 O 269.174 -2.56409 -3.22998 0
M  V30 2827 H 268.515 -0.574301 -0.333278 0
M  V30 2828 H 271.045 -1.99853 -0.438152 0
M  V30 2829 H 271.055 -3.14455 -2.59966 0
M  V30 2830 H 269.73 -3.81294 -1.66095 0
M  V30 2831 H 268.307 -2.4136 -2.84253 0
M  V30 2832 N 270.492 0.636531 -1.44174 0
M  V30 2833 C 271.74 1.39343 -1.46383 0
M  V30 2834 C 272.061 1.94766 -0.0955715 0
M  V30 2835 O 271.331 1.75452 0.871395 0
M  V30 2836 H 269.911 0.517199 -0.538994 0
M  V30 2837 H 272.573 0.74957 -1.7991 0
M  V30 2838 H 271.669 2.22746 -2.18611 0
M  V30 2839 N 271.97 1.30982 0.876444 0
M  V30 2840 C 272.918 1.18006 2.00443 0
M  V30 2841 C 273.912 0.0898871 1.69161 0
M  V30 2842 O 275.118 0.251333 1.78237 0
M  V30 2843 H 271.493 0.365196 0.65737 0
M  V30 2844 H 273.464 2.13453 2.0852 0
M  V30 2845 C 272.213 0.897521 3.35916 0
M  V30 2846 H 271.536 1.7285 3.60504 0
M  V30 2847 H 272.976 0.846874 4.15456 0
M  V30 2848 C 271.435 -0.399674 3.34521 0
M  V30 2849 O 271.965 -1.41852 3.7582 0
M  V30 2850 N 270.171 -0.413893 2.87637 0
M  V30 2851 H 269.718 0.41571 2.54224 0
M  V30 2852 H 269.676 -1.28175 2.87086 0
M  V30 2853 N 273.449 -1.08991 1.13837 0
M  V30 2854 C 274.396 -2.15748 0.819835 0
M  V30 2855 C 275.366 -1.64636 -0.220026 0
M  V30 2856 O 276.551 -1.90582 -0.0912757 0
M  V30 2857 C 273.691 -3.4382 0.296913 0
M  V30 2858 C 272.804 -4.0881 1.39636 0
M  V30 2859 C 271.939 -5.24655 0.831314 0
M  V30 2860 C 270.978 -5.81575 1.90886 0
M  V30 2861 N 270.115 -6.88774 1.36142 0
M  V30 2862 H 274.955 -2.42338 1.73426 0
M  V30 2863 H 272.492 -1.18935 0.865613 0
M  V30 2864 H 274.45 -4.17193 -0.0244339 0
M  V30 2865 H 273.08 -3.17535 -0.580628 0
M  V30 2866 H 272.132 -3.33258 1.83422 0
M  V30 2867 H 273.444 -4.47141 2.21058 0
M  V30 2868 H 272.598 -6.04942 0.461515 0
M  V30 2869 H 271.337 -4.87698 -0.013932 0
M  V30 2870 H 270.342 -4.99946 2.28767 0
M  V30 2871 H 271.567 -6.20592 2.75758 0
M  V30 2872 H 269.513 -6.53788 0.538254 0
M  V30 2873 H 269.43 -7.25898 2.11208 0
M  V30 2874 H 270.698 -7.72806 1.01933 0
M  V30 2875 N 274.927 -0.932562 -1.27047 0
M  V30 2876 C 276.176 -0.571351 -1.93439 0
M  V30 2877 C 276.489 0.892467 -1.74053 0
M  V30 2878 O 277.695 1.36267 -2.34826 0
M  V30 2879 C 276.151 -0.97106 -3.46552 0
M  V30 2880 C 275.759 -2.4559 -3.74686 0
M  V30 2881 C 277.503 -0.681333 -4.18997 0
M  V30 2882 C 275.41 -2.79475 -5.21198 0
M  V30 2883 H 274.34 -0.209966 -0.724176 0
M  V30 2884 H 276.991 -1.13403 -1.44263 0
M  V30 2885 H 275.373 -0.336983 -3.94564 0
M  V30 2886 H 276.547 -3.13829 -3.37414 0
M  V30 2887 H 274.862 -2.71802 -3.15456 0
M  V30 2888 H 277.459 -0.910939 -5.26883 0
M  V30 2889 H 277.802 0.381628 -4.14547 0
M  V30 2890 H 278.335 -1.27473 -3.76823 0
M  V30 2891 H 275.074 -3.847 -5.30741 0
M  V30 2892 H 274.594 -2.1589 -5.596 0
M  V30 2893 H 276.273 -2.67478 -5.89122 0
M  V30 2894 N 276.405 1.4127 -0.698611 0
M  V30 2895 C 277.338 2.28195 0.0153898 0
M  V30 2896 C 278.316 1.42402 0.784883 0
M  V30 2897 O 279.5 1.71828 0.775067 0
M  V30 2898 C 276.627 3.22685 1.02918 0
M  V30 2899 C 275.673 4.25041 0.352501 0
M  V30 2900 S 276.506 5.27757 -0.907322 0
M  V30 2901 C 277.662 6.25812 0.104796 0
M  V30 2902 H 277.895 2.88403 -0.721858 0
M  V30 2903 H 275.428 1.46452 -0.488996 0
M  V30 2904 H 277.386 3.77655 1.60893 0
M  V30 2905 H 276.047 2.61566 1.73902 0
M  V30 2906 H 275.24 4.91437 1.11828 0
M  V30 2907 H 274.842 3.73682 -0.154254 0
M  V30 2908 H 277.134 6.70705 0.957103 0
M  V30 2909 H 278.077 7.06149 -0.525323 0
M  V30 2910 H 278.485 5.62615 0.460931 0
M  V30 2911 N 277.883 0.443576 1.51229 0
M  V30 2912 C 278.833 -0.382787 2.24764 0
M  V30 2913 C 279.817 -0.984836 1.27239 0
M  V30 2914 O 281.009 -0.901943 1.52296 0
M  V30 2915 C 278.138 -1.47989 3.09765 0
M  V30 2916 C 277.224 -0.886931 4.14722 0
M  V30 2917 N 277.615 -0.0237103 5.05794 0
M  V30 2918 C 275.913 -1.15385 4.30816 0
M  V30 2919 C 276.614 0.309971 5.80874 0
M  V30 2920 N 275.59 -0.307989 5.42727 0
M  V30 2921 H 279.392 0.282624 2.92538 0
M  V30 2922 H 276.906 0.256027 1.60369 0
M  V30 2923 H 278.903 -2.08482 3.61027 0
M  V30 2924 H 277.563 -2.14758 2.43535 0
M  V30 2925 H 278.574 0.34318 5.16762 0
M  V30 2926 H 275.251 -1.81857 3.75812 0
M  V30 2927 H 276.641 1.01279 6.64223 0
M  V30 2928 N 279.361 -1.56624 0.175154 0
M  V30 2929 C 280.772 -1.83561 -0.340916 0
M  V30 2930 C 281.123 -1.09511 -1.62794 0
M  V30 2931 O 280.248 -0.349389 -2.13561 0
M  V30 2932 C 280.843 -3.32979 -0.625313 0
M  V30 2933 C 279.402 -3.60399 -1.08581 0
M  V30 2934 C 278.549 -2.77024 -0.123722 0
M  V30 2935 H 281.5 -1.53593 0.399344 0
M  V30 2936 H 281.521 -3.50666 -1.47694 0
M  V30 2937 H 281.033 -3.86847 0.311575 0
M  V30 2938 H 279.134 -3.11945 -2.03767 0
M  V30 2939 H 279.247 -4.68711 -0.992317 0
M  V30 2940 H 277.611 -2.46993 -0.621821 0
M  V30 2941 H 278.394 -3.33674 0.807256 0
M  V30 2942 N 280.839 0.0985539 -1.57292 0
M  V30 2943 C 282.085 0.803867 -1.86188 0
M  V30 2944 C 282.418 1.78549 -0.763794 0
M  V30 2945 O 281.693 1.93153 0.22855 0
M  V30 2946 C 281.976 1.53568 -3.25713 0
M  V30 2947 C 281.829 0.572277 -4.46145 0
M  V30 2948 C 283.148 2.48708 -3.63087 0
M  V30 2949 H 280.267 0.290781 -0.677211 0
M  V30 2950 H 282.909 0.0675783 -1.8988 0
M  V30 2951 H 281.059 2.16332 -3.22696 0
M  V30 2952 H 282.731 -0.0480894 -4.61275 0
M  V30 2953 H 280.974 -0.114618 -4.33649 0
M  V30 2954 H 281.645 1.12139 -5.40489 0
M  V30 2955 H 284.121 1.96039 -3.67026 0
M  V30 2956 H 282.997 2.96932 -4.61652 0
M  V30 2957 H 283.258 3.32309 -2.91588 0
M  V30 2958 N 282.317 1.53212 0.369288 0
M  V30 2959 C 283.542 1.73423 1.1375 0
M  V30 2960 C 283.967 0.460404 1.82378 0
M  V30 2961 O 283.325 -0.585298 1.71592 0
M  V30 2962 C 283.373 2.89769 2.1463 0
M  V30 2963 O 282.477 2.58119 3.21634 0
M  V30 2964 H 281.818 0.576061 0.330227 0
M  V30 2965 H 284.348 2.00083 0.427547 0
M  V30 2966 H 284.358 3.15829 2.58294 0
M  V30 2967 H 283.033 3.8217 1.64071 0
M  V30 2968 H 281.61 2.42864 2.82969 0
M  V30 2969 N 283.795 -0.628877 1.44509 0
M  V30 2970 C 285.043 -1.38565 1.4712 0
M  V30 2971 C 285.364 -1.94712 0.105899 0
M  V30 2972 O 284.634 -1.75912 -0.862079 0
M  V30 2973 H 283.214 -0.514333 0.541729 0
M  V30 2974 H 285.876 -0.740018 1.80305 0
M  V30 2975 H 284.972 -2.21583 2.19789 0
M  V30 2976 N 285.273 -1.31445 -0.869486 0
M  V30 2977 C 286.22 -1.19135 -1.97675 0
M  V30 2978 C 287.19 -0.0770266 -1.65921 0
M  V30 2979 O 288.375 -0.249972 -1.89155 0
M  V30 2980 C 285.515 -0.905149 -3.33018 0
M  V30 2981 C 284.628 -2.10285 -3.77365 0
M  V30 2982 C 283.763 -1.75339 -5.01427 0
M  V30 2983 C 282.802 -2.91515 -5.38224 0
M  V30 2984 N 281.939 -2.56762 -6.53466 0
M  V30 2985 H 286.779 -2.13853 -2.07535 0
M  V30 2986 H 284.316 -1.06379 -1.01597 0
M  V30 2987 H 286.274 -0.719765 -4.10944 0
M  V30 2988 H 284.904 0.00519624 -3.228 0
M  V30 2989 H 283.956 -2.39899 -2.95216 0
M  V30 2990 H 285.268 -2.97237 -4.00564 0
M  V30 2991 H 284.422 -1.53266 -5.87022 0
M  V30 2992 H 283.161 -0.855801 -4.80133 0
M  V30 2993 H 282.166 -3.14237 -4.51149 0
M  V30 2994 H 283.391 -3.81985 -5.61484 0
M  V30 2995 H 281.337 -1.69526 -6.33717 0
M  V30 2996 H 281.254 -3.37243 -6.76612 0
M  V30 2997 H 282.522 -2.38083 -7.42251 0
M  V30 2998 N 286.751 1.08385 -1.14413 0
M  V30 2999 C 287.701 2.13509 -0.79987 0
M  V30 3000 C 288.685 1.5951 0.211059 0
M  V30 3001 O 289.877 1.76995 0.0133694 0
M  V30 3002 C 287.006 3.42162 -0.279297 0
M  V30 3003 C 286.092 4.03042 -1.31976 0
M  V30 3004 N 286.483 4.38327 -2.52395 0
M  V30 3005 C 284.781 4.30379 -1.17004 0
M  V30 3006 C 285.482 4.86428 -3.19003 0
M  V30 3007 N 284.458 4.84547 -2.46405 0
M  V30 3008 H 288.26 2.38609 -1.7159 0
M  V30 3009 H 285.774 1.2572 -1.02802 0
M  V30 3010 H 287.771 4.16898 -0.0143688 0
M  V30 3011 H 286.431 3.18511 0.630923 0
M  V30 3012 H 287.442 4.29349 -2.89621 0
M  V30 3013 H 284.119 4.16281 -0.318854 0
M  V30 3014 H 285.509 5.23107 -4.21674 0
M  V30 3015 N 288.23 0.939286 1.26551 0
M  V30 3016 C 289.479 0.581601 1.93133 0
M  V30 3017 C 289.792 -0.883224 1.74524 0
M  V30 3018 O 290.998 -1.3502 2.35546 0
M  V30 3019 C 289.454 0.989425 3.46032 0
M  V30 3020 C 289.062 2.47573 3.73379 0
M  V30 3021 C 290.806 0.703544 4.18629 0
M  V30 3022 C 288.713 2.82235 5.19709 0
M  V30 3023 H 287.643 0.213803 0.723052 0
M  V30 3024 H 290.294 1.14167 1.4366 0
M  V30 3025 H 288.676 0.357902 3.94379 0
M  V30 3026 H 289.85 3.15614 3.35744 0
M  V30 3027 H 288.165 2.73471 3.1401 0
M  V30 3028 H 290.762 0.938869 5.26393 0
M  V30 3029 H 291.105 -0.359639 4.14744 0
M  V30 3030 H 291.638 1.2947 3.76141 0
M  V30 3031 H 288.377 3.87509 5.28694 0
M  V30 3032 H 287.897 2.18854 5.58447 0
M  V30 3033 H 289.576 2.70599 5.87695 0
M  V30 3034 N 289.708 -1.40897 0.706093 0
M  V30 3035 C 290.638 -2.33418 0.0620085 0
M  V30 3036 C 291.619 -1.52385 -0.755827 0
M  V30 3037 O 292.804 -1.80886 -0.706674 0
M  V30 3038 C 289.934 -3.36293 -0.867445 0
M  V30 3039 C 288.888 -4.27716 -0.155932 0
M  V30 3040 C 288.214 -5.2105 -1.20046 0
M  V30 3041 C 289.514 -5.12944 0.984149 0
M  V30 3042 H 291.208 -2.87527 0.83477 0
M  V30 3043 H 288.754 -1.38249 0.402875 0
M  V30 3044 H 290.707 -3.99949 -1.32735 0
M  V30 3045 H 289.431 -2.80556 -1.67199 0
M  V30 3046 H 288.09 -3.65498 0.284047 0
M  V30 3047 H 287.738 -4.61624 -1.99781 0
M  V30 3048 H 287.438 -5.83056 -0.729328 0
M  V30 3049 H 288.962 -5.87584 -1.66066 0
M  V30 3050 H 290.376 -5.70109 0.604048 0
M  V30 3051 H 288.773 -5.83945 1.38304 0
M  V30 3052 H 289.843 -4.49485 1.81911 0
M  V30 3053 N 291.186 -0.45159 -1.50991 0
M  V30 3054 C 292.118 0.388634 -2.25881 0
M  V30 3055 C 293.131 0.974041 -1.30446 0
M  V30 3056 O 294.32 0.865758 -1.56099 0
M  V30 3057 C 291.42 1.5571 -3.01011 0
M  V30 3058 C 290.593 1.08801 -4.23652 0
M  V30 3059 C 289.652 2.12825 -4.8124 0
M  V30 3060 O 288.678 1.71678 -5.42693 0
M  V30 3061 N 289.88 3.45453 -4.66522 0
M  V30 3062 H 292.645 -0.25329 -2.98628 0
M  V30 3063 H 290.206 -0.281268 -1.59438 0
M  V30 3064 H 292.198 2.24952 -3.3642 0
M  V30 3065 H 290.768 2.10409 -2.31186 0
M  V30 3066 H 289.988 0.22215 -3.93574 0
M  V30 3067 H 291.276 0.752213 -5.03209 0
M  V30 3068 H 290.674 3.81605 -4.17605 0
M  V30 3069 H 289.231 4.10549 -5.06254 0
M  V30 3070 N 292.664 1.56529 -0.183458 0
M  V30 3071 C 293.911 1.97244 0.458357 0
M  V30 3072 C 294.239 1.06992 1.62428 0
M  V30 3073 O 293.494 0.106542 1.9541 0
M  V30 3074 C 293.793 3.43939 0.971637 0
M  V30 3075 C 293.459 4.5083 -0.0796784 0
M  V30 3076 C 292.121 4.79786 -0.368584 0
M  V30 3077 C 294.473 5.15138 -0.792638 0
M  V30 3078 C 291.801 5.70345 -1.37563 0
M  V30 3079 C 294.153 6.06784 -1.78875 0
M  V30 3080 C 292.817 6.34102 -2.08497 0
M  V30 3081 H 292.087 0.721768 0.167725 0
M  V30 3082 H 294.734 1.89472 -0.277976 0
M  V30 3083 H 293.039 3.48724 1.78602 0
M  V30 3084 H 294.736 3.72791 1.47744 0
M  V30 3085 H 291.326 4.28317 0.155668 0
M  V30 3086 H 295.51 4.92868 -0.582659 0
M  V30 3087 H 290.766 5.89789 -1.61118 0
M  V30 3088 H 294.94 6.55677 -2.3465 0
M  V30 3089 H 292.567 7.04074 -2.86678 0
M  V30 3090 N 294.142 -0.090211 1.57342 0
M  V30 3091 C 295.388 -0.793982 1.86611 0
M  V30 3092 C 295.721 -1.78142 0.773252 0
M  V30 3093 O 294.996 -1.93271 -0.218304 0
M  V30 3094 C 295.279 -1.51839 3.26523 0
M  V30 3095 C 295.132 -0.548609 4.46442 0
M  V30 3096 C 296.451 -2.46779 3.64401 0
M  V30 3097 H 293.57 -0.287186 0.678744 0
M  V30 3098 H 296.212 -0.0575076 1.89913 0
M  V30 3099 H 294.362 -2.14617 3.23839 0
M  V30 3100 H 296.034 0.0725513 4.61243 0
M  V30 3101 H 294.277 0.137614 4.33582 0
M  V30 3102 H 294.948 -1.09271 5.41076 0
M  V30 3103 H 297.424 -1.94089 3.68061 0
M  V30 3104 H 296.3 -2.94479 4.63221 0
M  V30 3105 H 296.561 -3.30758 2.93346 0
M  V30 3106 N 295.62 -1.53406 -0.361157 0
M  V30 3107 C 296.583 -1.79479 -1.42548 0
M  V30 3108 C 297.583 -0.665327 -1.4639 0
M  V30 3109 O 298.773 -0.933549 -1.47073 0
M  V30 3110 C 295.905 -1.92087 -2.8163 0
M  V30 3111 H 297.098 -2.74538 -1.20701 0
M  V30 3112 H 294.651 -1.4455 -0.594546 0
M  V30 3113 H 295.386 -0.991099 -3.08784 0
M  V30 3114 H 295.171 -2.74241 -2.80239 0
M  V30 3115 H 296.661 -2.13836 -3.58697 0
M  V30 3116 N 297.098 0.621204 -1.44841 0
M  V30 3117 C 298.347 1.37658 -1.47422 0
M  V30 3118 C 298.66 1.95264 -0.114629 0
M  V30 3119 O 299.866 2.71494 -0.0180199 0
M  V30 3120 C 298.322 2.49285 -2.59586 0
M  V30 3121 C 297.93 1.98149 -4.01797 0
M  V30 3122 C 299.674 3.26409 -2.71399 0
M  V30 3123 C 297.581 3.07178 -5.05367 0
M  V30 3124 H 296.511 0.517344 -0.548517 0
M  V30 3125 H 299.162 0.667257 -1.70938 0
M  V30 3126 H 297.544 3.22839 -2.29328 0
M  V30 3127 H 298.718 1.31395 -4.41669 0
M  V30 3128 H 297.033 1.33812 -3.94314 0
M  V30 3129 H 299.63 4.07706 -3.45948 0
M  V30 3130 H 299.973 3.76535 -1.77559 0
M  V30 3131 H 300.506 2.5995 -3.01116 0
M  V30 3132 H 297.245 2.61985 -6.00869 0
M  V30 3133 H 296.765 3.72542 -4.70077 0
M  V30 3134 H 298.444 3.71789 -5.29511 0
M  V30 3135 N 298.576 1.31904 0.862503 0
M  V30 3136 C 299.523 1.20182 1.9704 0
M  V30 3137 C 300.493 0.0858247 1.65878 0
M  V30 3138 O 301.678 0.26 1.8902 0
M  V30 3139 C 298.818 0.922797 3.32533 0
M  V30 3140 C 297.931 2.12284 3.76244 0
M  V30 3141 C 297.066 1.77996 5.00491 0
M  V30 3142 C 296.105 2.94366 5.36671 0
M  V30 3143 N 295.242 2.60223 6.52095 0
M  V30 3144 H 300.082 2.14951 2.06398 0
M  V30 3145 H 297.619 1.06917 1.01031 0
M  V30 3146 H 299.577 0.741548 4.10557 0
M  V30 3147 H 298.207 0.0119227 3.22798 0
M  V30 3148 H 297.259 2.41461 2.9394 0
M  V30 3149 H 298.571 2.99357 3.98982 0
M  V30 3150 H 297.725 1.56377 5.862 0
M  V30 3151 H 296.464 0.881252 4.79672 0
M  V30 3152 H 295.469 3.16625 4.49476 0
M  V30 3153 H 296.694 3.84957 5.59451 0
M  V30 3154 H 294.64 1.72884 6.32809 0
M  V30 3155 H 294.557 3.40827 6.74814 0
M  V30 3156 H 295.825 2.42016 7.40978 0
M  V30 3157 N 300.054 -1.07777 1.14986 0
M  V30 3158 C 301.47 -1.32373 0.891596 0
M  V30 3159 C 301.67 -1.9609 -0.463788 0
M  V30 3160 O 300.726 -2.21801 -1.20667 0
M  V30 3161 C 302.039 -2.21905 2.02925 0
M  V30 3162 C 303.587 -2.35367 2.06329 0
M  V30 3163 C 304.062 -3.28245 3.19405 0
M  V30 3164 N 305.553 -3.35824 3.19024 0
M  V30 3165 C 306.288 -4.07739 4.03158 0
M  V30 3166 N 305.784 -4.82306 4.97346 0
M  V30 3167 N 307.577 -4.03635 3.91197 0
M  V30 3168 H 299.728 -0.648039 2.02273 0
M  V30 3169 H 301.991 -0.348149 0.881757 0
M  V30 3170 H 301.697 -1.82342 3.0074 0
M  V30 3171 H 301.571 -3.22407 1.95789 0
M  V30 3172 H 303.958 -2.74186 1.09116 0
M  V30 3173 H 304.039 -1.34585 2.17533 0
M  V30 3174 H 303.683 -2.90146 4.16867 0
M  V30 3175 H 303.613 -4.28971 3.05437 0
M  V30 3176 H 306.104 -2.8267 2.50811 0
M  V30 3177 H 306.417 -5.34661 5.57994 0
M  V30 3178 H 304.762 -4.81337 5.01338 0
M  V30 3179 H 307.953 -3.44491 3.16928 0
M  V30 3180 H 308.126 -4.59417 4.5699 0
M  V30 3181 N 301.532 -0.945985 -1.26051 0
M  V30 3182 C 302.479 -0.45809 -2.26208 0
M  V30 3183 C 303.449 0.484816 -1.58867 0
M  V30 3184 O 304.634 0.399969 -1.86561 0
M  V30 3185 C 301.774 0.266131 -3.44072 0
M  V30 3186 C 300.887 -0.713005 -4.26075 0
M  V30 3187 C 300.022 0.0329013 -5.3119 0
M  V30 3188 C 299.061 -0.93774 -6.04874 0
M  V30 3189 N 298.198 -0.223274 -7.01745 0
M  V30 3190 H 303.038 -1.3171 -2.67313 0
M  V30 3191 H 300.575 -0.66069 -1.31428 0
M  V30 3192 H 302.533 0.702514 -4.11243 0
M  V30 3193 H 301.163 1.08925 -3.03867 0
M  V30 3194 H 300.215 -1.26789 -3.58648 0
M  V30 3195 H 301.527 -1.45406 -4.77136 0
M  V30 3196 H 300.681 0.528335 -6.04395 0
M  V30 3197 H 299.42 0.806801 -4.8098 0
M  V30 3198 H 298.425 -1.44425 -5.30492 0
M  V30 3199 H 299.65 -1.71172 -6.57173 0
M  V30 3200 H 297.596 0.532046 -6.53839 0
M  V30 3201 H 297.513 -0.90357 -7.50581 0
M  V30 3202 H 298.781 0.250907 -7.79096 0
M  V30 3203 N 303.011 1.40521 -0.713556 0
M  V30 3204 C 304.288 1.94775 -0.17943 0
M  V30 3205 C 304.668 1.65184 1.31444 0
M  V30 3206 O 304.016 0.968429 2.06963 0
M  V30 3207 C 304.226 3.45543 -0.489986 0
M  V30 3208 C 305.574 4.22442 -0.427536 0
M  V30 3209 O 306.598 3.53644 -0.425929 0
M  V30 3210 O 305.457 5.4501 -0.403292 0
M  V30 3211 H 302.551 0.826606 -0.0255192 0
M  V30 3212 H 305.097 1.5014 -0.790949 0
M  V30 3213 H 303.869 3.60432 -1.5233 0
M  V30 3214 H 303.492 3.97311 0.151598 0
M  V30 3215 N 304.489 0.459591 1.5075 0
M  V30 3216 C 305.729 -0.09824 2.04164 0
M  V30 3217 C 306.093 -1.3801 1.33481 0
M  V30 3218 O 307.294 -2.01959 1.77387 0
M  V30 3219 C 305.565 -0.289467 3.56226 0
M  V30 3220 S 307.124 -0.807507 4.31306 0
M  V30 3221 H 303.942 -0.0213845 0.710678 0
M  V30 3222 H 306.544 0.624098 1.85271 0
M  V30 3223 H 305.248 0.649461 4.05229 0
M  V30 3224 H 304.779 -1.03825 3.79452 0
M  V30 3225 H 306.794 -2.0824 4.50389 0
M  V30 3226 N 305.967 -1.56429 0.191757 0
M  V30 3227 C 307.215 -1.97095 -0.447006 0
M  V30 3228 C 307.536 -1.07967 -1.62383 0
M  V30 3229 O 306.806 -0.150248 -1.95323 0
M  V30 3230 H 305.386 -0.727832 -0.168135 0
M  V30 3231 H 308.048 -1.92911 0.27771 0
M  V30 3232 H 307.144 -3.01848 -0.793371 0
M  V30 3233 N 307.445 0.0818655 -1.57387 0
M  V30 3234 C 308.355 1.11642 -2.06333 0
M  V30 3235 C 309.371 1.43033 -0.99083 0
M  V30 3236 O 310.547 1.53411 -1.30488 0
M  V30 3237 C 307.612 2.41342 -2.48907 0
M  V30 3238 C 306.673 2.17014 -3.7041 0
M  V30 3239 C 305.906 3.4053 -4.10944 0
M  V30 3240 O 306.129 4.4927 -3.51444 0
M  V30 3241 O 305.063 3.29336 -5.03807 0
M  V30 3242 H 308.889 0.730657 -2.9478 0
M  V30 3243 H 306.474 0.295301 -1.46452 0
M  V30 3244 H 308.356 3.17691 -2.76858 0
M  V30 3245 H 307.031 2.79319 -1.63593 0
M  V30 3246 H 305.938 1.38403 -3.47556 0
M  V30 3247 H 307.271 1.83923 -4.56545 0
M  V30 3248 N 308.923 1.53595 0.353017 0
M  V30 3249 C 310.169 1.71581 1.09232 0
M  V30 3250 C 310.524 0.468328 1.86613 0
M  V30 3251 O 309.817 -0.538911 1.83865 0
M  V30 3252 C 310.011 2.91313 2.07054 0
M  V30 3253 C 309.84 4.27585 1.39287 0
M  V30 3254 C 308.61 4.92233 1.1417 0
M  V30 3255 C 310.808 5.07656 0.824005 0
M  V30 3256 N 308.79 6.124 0.428841 0
M  V30 3257 C 310.161 6.19531 0.241195 0
M  V30 3258 C 312.216 4.92609 0.723922 0
M  V30 3259 C 310.919 7.18002 -0.431952 0
M  V30 3260 C 312.945 5.91365 0.0645334 0
M  V30 3261 C 312.307 7.02571 -0.507347 0
M  V30 3262 H 308.406 0.680987 0.384422 0
M  V30 3263 H 310.99 1.91013 0.377096 0
M  V30 3264 H 309.161 2.73398 2.75877 0
M  V30 3265 H 310.893 2.98062 2.73753 0
M  V30 3266 H 307.648 4.51612 1.42631 0
M  V30 3267 H 308.072 6.76944 0.0874131 0
M  V30 3268 H 312.714 4.06808 1.15181 0
M  V30 3269 H 310.432 8.03384 -0.871758 0
M  V30 3270 H 314.018 5.81799 -0.0121469 0
M  V30 3271 H 312.898 7.77675 -1.0095 0
M  V30 3272 N 310.401 -0.613514 1.45168 0
M  V30 3273 C 311.364 -1.7065 1.53007 0
M  V30 3274 C 312.364 -1.5548 0.410184 0
M  V30 3275 O 313.554 -1.60656 0.673455 0
M  V30 3276 C 310.686 -3.09875 1.42093 0
M  V30 3277 H 311.879 -1.65068 2.50385 0
M  V30 3278 H 309.432 -0.828728 1.32521 0
M  V30 3279 H 310.167 -3.21039 0.458769 0
M  V30 3280 H 309.952 -3.22293 2.23315 0
M  V30 3281 H 311.442 -3.895 1.50598 0
M  V30 3282 N 311.879 -1.3236 -0.855495 0
M  V30 3283 C 313.128 -1.22226 -1.60448 0
M  V30 3284 C 313.441 0.214733 -1.94418 0
M  V30 3285 O 314.647 0.437917 -2.67945 0
M  V30 3286 C 313.103 -2.14063 -2.89318 0
M  V30 3287 C 312.711 -3.62839 -2.62777 0
M  V30 3288 C 314.455 -2.12764 -3.67331 0
M  V30 3289 C 312.362 -4.4664 -3.87643 0
M  V30 3290 H 311.292 -0.453904 -0.602069 0
M  V30 3291 H 313.943 -1.57314 -0.944698 0
M  V30 3292 H 312.325 -1.71889 -3.5675 0
M  V30 3293 H 313.499 -4.1335 -2.03662 0
M  V30 3294 H 311.814 -3.66261 -1.98096 0
M  V30 3295 H 314.411 -2.72611 -4.59987 0
M  V30 3296 H 314.754 -1.11841 -4.00995 0
M  V30 3297 H 315.287 -2.53214 -3.06802 0
M  V30 3298 H 312.026 -5.48373 -3.5912 0
M  V30 3299 H 311.546 -4.0088 -4.46156 0
M  V30 3300 H 313.225 -4.59597 -4.55389 0
M  V30 3301 N 313.357 1.07166 -1.15556 0
M  V30 3302 C 314.768 1.6127 -0.940693 0
M  V30 3303 C 315.119 1.89251 0.517551 0
M  V30 3304 O 314.244 1.65937 1.38903 0
M  V30 3305 C 314.839 2.92993 -1.7012 0
M  V30 3306 C 313.398 3.43832 -1.53156 0
M  V30 3307 C 312.545 2.1786 -1.71558 0
M  V30 3308 H 315.496 0.90229 -1.30554 0
M  V30 3309 H 315.517 3.62007 -1.17181 0
M  V30 3310 H 315.029 2.72596 -2.76248 0
M  V30 3311 H 313.13 3.69307 -0.494294 0
M  V30 3312 H 313.243 4.19747 -2.30975 0
M  V30 3313 H 311.607 2.2765 -1.14225 0
M  V30 3314 H 312.39 1.99956 -2.79056 0
M  V30 3315 N 314.835 0.952656 1.25548 0
M  V30 3316 C 316.083 0.605176 1.92826 0
M  V30 3317 C 316.404 -0.860261 1.74999 0
M  V30 3318 O 315.674 -1.6125 1.11244 0
M  V30 3319 H 314.254 0.220832 0.713612 0
M  V30 3320 H 316.916 1.21047 1.52754 0
M  V30 3321 H 316.012 0.832798 3.00784 0
M  V30 3322 N 316.313 -1.40141 0.720998 0
M  V30 3323 C 317.561 -2.0039 0.262323 0
M  V30 3324 C 317.882 -1.57469 -1.15015 0
M  V30 3325 O 317.152 -0.816582 -1.78069 0
M  V30 3326 H 315.732 -0.741063 0.093996 0
M  V30 3327 H 318.394 -1.71398 0.927835 0
M  V30 3328 H 317.49 -3.10658 0.299671 0
M  V30 3329 N 317.792 -0.46758 -1.50504 0
M  V30 3330 C 318.725 0.374324 -2.25109 0
M  V30 3331 C 319.703 0.99921 -1.28275 0
M  V30 3332 O 320.887 1.03583 -1.57489 0
M  V30 3333 C 318.014 1.52419 -3.02467 0
M  V30 3334 C 317.06 1.01702 -4.14197 0
M  V30 3335 S 317.893 -0.0654477 -5.3546 0
M  V30 3336 C 319.049 1.08837 -6.16365 0
M  V30 3337 H 319.282 -0.258983 -2.9617 0
M  V30 3338 H 316.815 -0.252421 -1.52323 0
M  V30 3339 H 318.773 2.18322 -3.47628 0
M  V30 3340 H 317.434 2.129 -2.30938 0
M  V30 3341 H 316.627 1.87776 -4.67714 0
M  V30 3342 H 316.229 0.435757 -3.71453 0
M  V30 3343 H 318.521 2.00071 -6.47285 0
M  V30 3344 H 319.464 0.592538 -7.05616 0
M  V30 3345 H 319.872 1.34061 -5.4835 0
M  V30 3346 N 319.27 1.56325 -0.20005 0
M  V30 3347 C 320.516 1.98012 0.438059 0
M  V30 3348 C 320.849 1.08702 1.60927 0
M  V30 3349 O 320.124 0.140064 1.93995 0
M  V30 3350 C 320.407 3.48841 0.893419 0
M  V30 3351 C 320.26 4.48928 -0.279947 0
M  V30 3352 C 321.579 4.03498 1.75719 0
M  V30 3353 H 318.698 0.719918 0.157757 0
M  V30 3354 H 321.34 1.87743 -0.291968 0
M  V30 3355 H 319.49 3.57723 1.51547 0
M  V30 3356 H 321.162 4.52079 -0.91772 0
M  V30 3357 H 319.405 4.23694 -0.930919 0
M  V30 3358 H 320.076 5.5194 0.0812601 0
M  V30 3359 H 322.552 3.97427 1.23253 0
M  V30 3360 H 321.428 5.09393 2.04476 0
M  V30 3361 H 321.689 3.4906 2.71311 0
M  V30 3362 N 320.748 -0.0735177 1.57428 0
M  V30 3363 C 322.025 -0.805903 1.78226 0
M  V30 3364 C 322.405 -1.95874 0.787189 0
M  V30 3365 O 321.753 -2.2779 -0.180029 0
M  V30 3366 C 321.963 -1.28045 3.24662 0
M  V30 3367 C 323.311 -1.71453 3.88444 0
M  V30 3368 O 324.335 -1.37616 3.28543 0
M  V30 3369 O 323.194 -2.34093 4.93825 0
M  V30 3370 H 320.288 -0.386041 0.73137 0
M  V30 3371 H 322.834 -0.0537269 1.69615 0
M  V30 3372 H 321.606 -0.455476 3.8864 0
M  V30 3373 H 321.229 -2.094 3.37991 0
M  V30 3374 N 322.226 -1.5378 -0.344866 0
M  V30 3375 C 323.637 -1.62428 -0.920552 0
M  V30 3376 C 323.988 -0.504747 -1.89596 0
M  V30 3377 O 323.113 0.365711 -2.13287 0
M  V30 3378 C 323.708 -2.94419 -1.67639 0
M  V30 3379 C 322.267 -3.05333 -2.20111 0
M  V30 3380 C 321.414 -2.57866 -1.01982 0
M  V30 3381 H 324.365 -1.58222 -0.123042 0
M  V30 3382 H 324.386 -2.83384 -2.53917 0
M  V30 3383 H 323.898 -3.7588 -0.966224 0
M  V30 3384 H 321.999 -2.28502 -2.94308 0
M  V30 3385 H 322.112 -4.10778 -2.46573 0
M  V30 3386 H 320.476 -2.13241 -1.39285 0
M  V30 3387 H 321.259 -3.41765 -0.324308 0
M  V30 3388 N 323.704 0.605807 -1.45491 0
M  V30 3389 C 324.952 1.36207 -1.49305 0
M  V30 3390 C 325.273 1.94519 -0.136863 0
M  V30 3391 O 324.543 1.77261 0.833983 0
M  V30 3392 H 323.123 0.50565 -0.549843 0
M  V30 3393 H 325.785 0.711239 -1.81459 0
M  V30 3394 H 324.881 2.18058 -2.23287 0
M  V30 3395 N 325.182 1.32811 0.848464 0
M  V30 3396 C 326.092 1.24278 1.98978 0
M  V30 3397 C 327.108 0.155176 1.73307 0
M  V30 3398 O 328.284 0.376999 1.9784 0
M  V30 3399 C 325.349 0.972444 3.32783 0
M  V30 3400 C 324.41 2.14911 3.71634 0
M  V30 3401 C 323.643 1.89157 4.99054 0
M  V30 3402 O 323.866 0.837165 5.64223 0
M  V30 3403 O 322.8 2.75433 5.35183 0
M  V30 3404 H 326.626 2.20238 2.09115 0
M  V30 3405 H 324.211 1.12762 0.980052 0
M  V30 3406 H 326.093 0.838432 4.12975 0
M  V30 3407 H 324.768 0.043051 3.23671 0
M  V30 3408 H 323.675 2.33862 2.91992 0
M  V30 3409 H 325.008 3.06151 3.85399 0
M  V30 3410 N 326.66 -1.06551 1.16123 0
M  V30 3411 C 327.607 -2.13961 0.865414 0
M  V30 3412 C 328.577 -1.65066 -0.185055 0
M  V30 3413 O 329.762 -1.90732 -0.05083 0
M  V30 3414 C 326.902 -3.43113 0.369776 0
M  V30 3415 C 326.015 -4.05756 1.48276 0
M  V30 3416 C 325.15 -5.22773 0.942414 0
M  V30 3417 C 324.189 -5.77395 2.03179 0
M  V30 3418 N 323.326 -6.85731 1.50721 0
M  V30 3419 H 328.166 -2.38605 1.78527 0
M  V30 3420 H 325.703 -1.17072 0.890646 0
M  V30 3421 H 327.661 -4.17151 0.0640643 0
M  V30 3422 H 326.291 -3.18695 -0.513143 0
M  V30 3423 H 325.343 -3.29292 1.9045 0
M  V30 3424 H 326.655 -4.42351 2.30493 0
M  V30 3425 H 325.809 -6.03827 0.589729 0
M  V30 3426 H 324.548 -4.87618 0.0895191 0
M  V30 3427 H 323.553 -4.94981 2.3932 0
M  V30 3428 H 324.778 -6.14603 2.8886 0
M  V30 3429 H 322.724 -6.52499 0.676811 0
M  V30 3430 H 322.641 -7.21254 2.26557 0
M  V30 3431 H 323.909 -7.7047 1.18303 0
M  V30 3432 N 328.138 -0.959301 -1.25041 0
M  V30 3433 C 329.387 -0.612254 -1.92183 0
M  V30 3434 C 329.7 0.855347 -1.75907 0
M  V30 3435 O 330.906 1.31256 -2.37664 0
M  V30 3436 C 329.362 -1.04435 -3.44414 0
M  V30 3437 C 328.97 -2.53482 -3.69393 0
M  V30 3438 C 330.714 -0.770055 -4.17457 0
M  V30 3439 C 328.621 -2.90468 -5.15153 0
M  V30 3440 H 327.551 -0.225279 -0.719559 0
M  V30 3441 H 330.202 -1.16438 -1.41825 0
M  V30 3442 H 328.584 -0.4206 -3.9376 0
M  V30 3443 H 329.758 -3.20916 -3.30681 0
M  V30 3444 H 328.073 -2.78432 -3.0962 0
M  V30 3445 H 330.67 -1.02249 -5.24832 0
M  V30 3446 H 331.013 0.293611 -4.15263 0
M  V30 3447 H 331.546 -1.35437 -3.74034 0
M  V30 3448 H 328.285 -3.95871 -5.22462 0
M  V30 3449 H 327.805 -2.27711 -5.54894 0
M  V30 3450 H 329.484 -2.79914 -5.83315 0
M  V30 3451 N 329.616 1.39756 -0.72842 0
M  V30 3452 C 330.841 2.05472 -0.282159 0
M  V30 3453 C 331.266 1.54549 1.07221 0
M  V30 3454 O 330.624 0.686372 1.67805 0
M  V30 3455 C 330.672 3.59462 -0.286264 0
M  V30 3456 O 329.776 4.05918 0.728298 0
M  V30 3457 H 329.117 0.651226 -0.129618 0
M  V30 3458 H 331.647 1.78915 -0.992499 0
M  V30 3459 H 331.657 4.07798 -0.128373 0
M  V30 3460 H 330.332 3.95889 -1.27456 0
M  V30 3461 H 328.909 3.69012 0.537081 0
M  V30 3462 N 331.094 0.475555 1.50254 0
M  V30 3463 C 332.057 -0.305016 2.27161 0
M  V30 3464 C 333.057 -0.916519 1.32123 0
M  V30 3465 O 334.247 -0.785003 1.5551 0
M  V30 3466 C 331.379 -1.43496 3.09227 0
M  V30 3467 H 332.572 0.369511 2.97615 0
M  V30 3468 H 330.125 0.229747 1.54602 0
M  V30 3469 H 330.86 -2.14441 2.43281 0
M  V30 3470 H 330.645 -1.00223 3.79075 0
M  V30 3471 H 332.135 -1.98548 3.67381 0
M  V30 3472 N 332.573 -1.56217 0.208337 0
M  V30 3473 C 333.801 -2.02337 -0.43215 0
M  V30 3474 C 334.216 -1.08834 -1.54275 0
M  V30 3475 O 333.573 -0.0955462 -1.8225 0
M  V30 3476 C 333.624 -3.48072 -0.976138 0
M  V30 3477 O 333.345 -4.38007 0.0901621 0
M  V30 3478 C 334.846 -4.09773 -1.69119 0
M  V30 3479 H 332.066 -0.662385 -0.10718 0
M  V30 3480 H 334.61 -2.01966 0.320923 0
M  V30 3481 H 332.765 -3.49099 -1.67954 0
M  V30 3482 H 333.179 -5.23543 -0.316701 0
M  V30 3483 H 334.653 -5.13556 -2.02397 0
M  V30 3484 H 335.13 -3.53999 -2.59964 0
M  V30 3485 H 335.736 -4.12556 -1.03332 0
M  V30 3486 N 334.051 0.0651679 -1.57465 0
M  V30 3487 C 334.981 1.07693 -2.07182 0
M  V30 3488 C 335.962 1.39962 -0.966673 0
M  V30 3489 O 337.147 1.49475 -1.2398 0
M  V30 3490 C 334.277 2.3885 -2.52127 0
M  V30 3491 C 333.231 2.20917 -3.66579 0
M  V30 3492 C 332.557 3.57515 -3.97601 0
M  V30 3493 C 333.857 1.62493 -4.9638 0
M  V30 3494 H 335.551 0.663199 -2.91962 0
M  V30 3495 H 333.097 0.317569 -1.40455 0
M  V30 3496 H 335.05 3.09928 -2.85522 0
M  V30 3497 H 333.774 2.82215 -1.64384 0
M  V30 3498 H 332.433 1.52279 -3.33477 0
M  V30 3499 H 332.081 3.98463 -3.06979 0
M  V30 3500 H 331.781 3.46353 -4.74672 0
M  V30 3501 H 333.305 4.30013 -4.33499 0
M  V30 3502 H 334.719 2.23445 -5.27963 0
M  V30 3503 H 333.116 1.62009 -5.77818 0
M  V30 3504 H 334.186 0.587041 -4.81333 0
M  V30 3505 N 335.529 1.53961 0.336706 0
M  V30 3506 C 336.476 1.82428 1.41381 0
M  V30 3507 C 337.446 0.670444 1.51968 0
M  V30 3508 O 338.631 0.915565 1.67398 0
M  V30 3509 C 335.771 2.04564 2.77934 0
M  V30 3510 C 334.884 3.32267 2.76084 0
M  V30 3511 C 334.019 3.44434 4.04399 0
M  V30 3512 C 333.058 4.66061 3.96804 0
M  V30 3513 N 332.195 4.75224 5.16823 0
M  V30 3514 H 337.035 2.74324 1.16405 0
M  V30 3515 H 334.572 1.35869 0.563752 0
M  V30 3516 H 336.53 2.15388 3.57301 0
M  V30 3517 H 335.16 1.15974 3.01247 0
M  V30 3518 H 334.212 3.3025 1.88784 0
M  V30 3519 H 335.524 4.21733 2.66351 0
M  V30 3520 H 334.678 3.54728 4.92192 0
M  V30 3521 H 333.417 2.53037 4.16921 0
M  V30 3522 H 332.422 4.55838 3.07396 0
M  V30 3523 H 333.647 5.58829 3.85858 0
M  V30 3524 H 331.593 3.86739 5.29876 0
M  V30 3525 H 331.51 5.58636 5.09374 0
M  V30 3526 H 332.778 4.89835 6.06367 0
M  V30 3527 N 337.007 -0.598083 1.45811 0
M  V30 3528 C 338.423 -0.919847 1.30426 0
M  V30 3529 C 338.623 -1.99759 0.264303 0
M  V30 3530 O 337.679 -2.50221 -0.338472 0
M  V30 3531 C 338.992 -1.35176 2.68603 0
M  V30 3532 C 340.54 -1.46546 2.76574 0
M  V30 3533 C 341.015 -1.9311 4.15298 0
M  V30 3534 N 342.506 -2.00328 4.1764 0
M  V30 3535 C 343.241 -2.37599 5.21856 0
M  V30 3536 N 342.737 -2.73771 6.36413 0
M  V30 3537 N 344.53 -2.38021 5.09218 0
M  V30 3538 H 336.681 0.114111 2.12093 0
M  V30 3539 H 338.944 -0.0116121 0.947929 0
M  V30 3540 H 338.65 -0.633969 3.45939 0
M  V30 3541 H 338.524 -2.3164 2.97696 0
M  V30 3542 H 340.911 -2.17415 1.99537 0
M  V30 3543 H 340.992 -0.483727 2.51185 0
M  V30 3544 H 340.636 -1.22824 4.92825 0
M  V30 3545 H 340.566 -2.92213 4.38086 0
M  V30 3546 H 343.057 -1.74925 3.34977 0
M  V30 3547 H 343.37 -3.0112 7.11721 0
M  V30 3548 H 341.715 -2.71445 6.39799 0
M  V30 3549 H 344.906 -2.09174 4.18765 0
M  V30 3550 H 345.079 -2.66741 5.90554 0
M  V30 3551 N 338.485 -1.33259 -0.841409 0
M  V30 3552 C 339.395 -1.25332 -1.98316 0
M  V30 3553 C 340.411 -0.164364 -1.73222 0
M  V30 3554 O 341.587 -0.387486 -1.97637 0
M  V30 3555 C 338.652 -0.990078 -3.32262 0
M  V30 3556 C 337.713 -2.16879 -3.70489 0
M  V30 3557 C 336.946 -1.91801 -4.98044 0
M  V30 3558 O 337.169 -0.867075 -5.63771 0
M  V30 3559 O 336.103 -2.78267 -5.33714 0
M  V30 3560 H 339.929 -2.21344 -2.07944 0
M  V30 3561 H 337.514 -1.1328 -0.974058 0
M  V30 3562 H 339.396 -0.860321 -4.12524 0
M  V30 3563 H 338.071 -0.0602155 -3.23644 0
M  V30 3564 H 336.978 -2.35407 -2.90748 0
M  V30 3565 H 338.311 -3.0819 -3.8377 0
M  V30 3566 N 339.963 1.05934 -1.16686 0
M  V30 3567 C 341.21 1.788 -0.950622 0
M  V30 3568 C 341.538 1.87384 0.521305 0
M  V30 3569 O 340.793 1.36438 1.40297 0
M  V30 3570 C 341.092 3.23105 -1.52767 0
M  V30 3571 C 340.758 3.34594 -3.02254 0
M  V30 3572 C 339.42 3.37437 -3.43059 0
M  V30 3573 C 341.772 3.36219 -3.98254 0
M  V30 3574 C 339.1 3.39525 -4.78477 0
M  V30 3575 C 341.452 3.39845 -5.33562 0
M  V30 3576 C 340.116 3.40971 -5.73842 0
M  V30 3577 H 339.386 0.654275 -0.347857 0
M  V30 3578 H 342.033 1.24555 -1.45459 0
M  V30 3579 H 340.338 3.80227 -0.94524 0
M  V30 3580 H 342.035 3.7809 -1.336 0
M  V30 3581 H 338.625 3.3309 -2.6972 0
M  V30 3582 H 342.809 3.33231 -3.67792 0
M  V30 3583 H 338.065 3.38703 -5.09009 0
M  V30 3584 H 342.239 3.4005 -6.07733 0
M  V30 3585 H 339.866 3.42342 -6.78753 0
M  V30 3586 N 341.441 0.965919 1.2453 0
M  V30 3587 C 342.689 0.625593 1.92174 0
M  V30 3588 C 343.01 -0.841652 1.75901 0
M  V30 3589 O 342.28 -1.60061 1.12948 0
M  V30 3590 H 340.86 0.228388 0.71123 0
M  V30 3591 H 343.522 1.2266 1.51461 0
M  V30 3592 H 342.618 0.864653 2.99884 0
M  V30 3593 N 342.919 -1.39368 0.735821 0
M  V30 3594 C 343.829 -2.34395 0.0979693 0
M  V30 3595 C 344.845 -1.58361 -0.720968 0
M  V30 3596 O 346.021 -1.90648 -0.649245 0
M  V30 3597 C 343.086 -3.37393 -0.797916 0
M  V30 3598 C 342.147 -4.29287 0.0333662 0
M  V30 3599 C 341.38 -5.27365 -0.819854 0
M  V30 3600 O 341.603 -5.31959 -2.05855 0
M  V30 3601 O 340.537 -6.01389 -0.248079 0
M  V30 3602 H 344.363 -2.90601 0.882315 0
M  V30 3603 H 341.948 -1.40909 0.4965 0
M  V30 3604 H 343.83 -4.00505 -1.31048 0
M  V30 3605 H 342.505 -2.83571 -1.56106 0
M  V30 3606 H 341.412 -3.69395 0.591475 0
M  V30 3607 H 342.745 -4.86317 0.758752 0
M  V30 3608 N 344.397 -0.483516 -1.5 0
M  V30 3609 C 345.307 0.309172 -2.32554 0
M  V30 3610 C 346.323 0.984159 -1.43493 0
M  V30 3611 O 347.499 0.969399 -1.76535 0
M  V30 3612 C 344.564 1.36979 -3.18493 0
M  V30 3613 C 343.625 0.710095 -4.23387 0
M  V30 3614 C 342.858 1.72018 -5.05218 0
M  V30 3615 O 343.081 2.94813 -4.88305 0
M  V30 3616 O 342.015 1.28515 -5.8802 0
M  V30 3617 H 345.841 -0.366064 -3.01486 0
M  V30 3618 H 343.426 -0.24514 -1.47375 0
M  V30 3619 H 345.308 1.98385 -3.71781 0
M  V30 3620 H 343.983 2.02828 -2.52275 0
M  V30 3621 H 342.89 0.0567539 -3.74057 0
M  V30 3622 H 344.223 0.0943557 -4.9211 0
M  V30 3623 N 345.875 1.56104 -0.216619 0
M  V30 3624 C 346.838 2.18819 0.681962 0
M  V30 3625 C 347.838 1.14866 1.12528 0
M  V30 3626 O 349.028 1.40128 1.03488 0
M  V30 3627 C 346.16 2.80756 1.93362 0
M  V30 3628 H 347.353 2.99595 0.135254 0
M  V30 3629 H 344.906 1.56265 0.0330003 0
M  V30 3630 H 345.641 2.03837 2.52232 0
M  V30 3631 H 345.426 3.56876 1.62426 0
M  V30 3632 H 346.916 3.28844 2.57393 0
M  V30 3633 N 347.353 -0.0568162 1.57498 0
M  V30 3634 C 348.283 -1.06593 2.0775 0
M  V30 3635 C 349.264 -1.39448 0.974082 0
M  V30 3636 O 350.449 -1.48815 1.24771 0
M  V30 3637 C 347.579 -2.37509 2.5339 0
M  V30 3638 C 346.533 -2.1897 3.67745 0
M  V30 3639 C 345.859 -3.55402 3.99492 0
M  V30 3640 C 347.159 -1.59859 4.97235 0
M  V30 3641 H 348.853 -0.647706 2.9231 0
M  V30 3642 H 346.399 -0.310116 1.40621 0
M  V30 3643 H 348.352 -3.08409 2.87162 0
M  V30 3644 H 347.076 -2.8134 1.65878 0
M  V30 3645 H 345.735 -1.50508 3.3428 0
M  V30 3646 H 345.383 -3.9683 3.09088 0
M  V30 3647 H 345.083 -3.43831 4.76502 0
M  V30 3648 H 346.607 -4.27708 4.35773 0
M  V30 3649 H 348.021 -2.20642 5.29141 0
M  V30 3650 H 346.418 -1.58942 5.78669 0
M  V30 3651 H 347.488 -0.561506 4.81638 0
M  V30 3652 N 348.832 -1.54138 -0.328536 0
M  V30 3653 C 349.78 -1.83894 -1.42428 0
M  V30 3654 C 350.774 -0.710478 -1.53781 0
M  V30 3655 O 351.98 -0.894062 -1.56226 0
M  V30 3656 H 348.355 -0.582837 -0.475189 0
M  V30 3657 H 350.326 -2.75537 -1.14552 0
M  V30 3658 C 349.075 -2.07866 -2.78724 0
M  V30 3659 H 348.398 -2.94158 -2.7076 0
M  V30 3660 H 349.838 -2.32644 -3.54476 0
M  V30 3661 C 348.297 -0.868689 -3.25508 0
M  V30 3662 O 348.827 -0.0754908 -4.01629 0
M  V30 3663 N 347.033 -0.681711 -2.82491 0
M  V30 3664 H 346.58 -1.32838 -2.20708 0
M  V30 3665 H 346.538 0.126374 -3.14146 0
M  V30 3666 N 350.31 0.590341 -1.46126 0
M  V30 3667 C 351.535 1.37991 -1.54833 0
M  V30 3668 C 351.96 1.87163 -0.187506 0
M  V30 3669 O 351.318 1.61133 0.831008 0
M  V30 3670 C 351.366 2.54867 -2.55098 0
M  V30 3671 O 350.47 3.56061 -2.08073 0
M  V30 3672 H 349.811 0.411265 -0.521303 0
M  V30 3673 H 352.341 0.716819 -1.91632 0
M  V30 3674 H 352.351 3.01886 -2.74461 0
M  V30 3675 H 351.026 2.18429 -3.53923 0
M  V30 3676 H 349.603 3.15574 -1.98664 0
M  V30 3677 N 351.788 1.33704 0.83433 0
M  V30 3678 C 352.718 1.26967 1.95963 0
M  V30 3679 C 353.699 0.149337 1.69443 0
M  V30 3680 O 354.884 0.339852 1.91203 0
M  V30 3681 C 352.014 1.01275 3.32206 0
M  V30 3682 C 350.968 2.09652 3.73136 0
M  V30 3683 C 350.294 1.69166 5.07235 0
M  V30 3684 C 351.594 3.51372 3.86439 0
M  V30 3685 H 353.288 2.2112 2.01857 0
M  V30 3686 H 350.834 1.06447 0.969793 0
M  V30 3687 H 352.787 0.952106 4.10503 0
M  V30 3688 H 351.511 0.0356203 3.26581 0
M  V30 3689 H 350.17 2.14766 2.97104 0
M  V30 3690 H 349.818 0.701437 4.98085 0
M  V30 3691 H 349.518 2.41694 5.35591 0
M  V30 3692 H 351.042 1.64576 5.88003 0
M  V30 3693 H 352.456 3.48734 4.55036 0
M  V30 3694 H 350.853 4.22425 4.26236 0
M  V30 3695 H 351.923 3.89546 2.88759 0
M  V30 3696 N 353.266 -1.05314 1.17247 0
M  V30 3697 C 354.198 -2.13023 0.845812 0
M  V30 3698 C 355.211 -1.62096 -0.151246 0
M  V30 3699 O 356.4 -1.78343 0.0748818 0
M  V30 3700 C 353.5 -3.38047 0.240292 0
M  V30 3701 C 352.673 -4.18255 1.27991 0
M  V30 3702 C 351.732 -5.21625 0.692375 0
M  V30 3703 O 350.758 -5.52619 1.36385 0
M  V30 3704 N 351.96 -5.78201 -0.516178 0
M  V30 3705 H 354.725 -2.41642 1.77283 0
M  V30 3706 H 352.286 -1.21401 1.07115 0
M  V30 3707 H 354.278 -4.04359 -0.16603 0
M  V30 3708 H 352.848 -3.06972 -0.590487 0
M  V30 3709 H 352.068 -3.47451 1.86203 0
M  V30 3710 H 353.356 -4.68643 1.98119 0
M  V30 3711 H 352.754 -5.55301 -1.07969 0
M  V30 3712 H 351.311 -6.4604 -0.86458 0
M  V30 3713 N 354.744 -0.972509 -1.24016 0
M  V30 3714 C 355.691 -0.505969 -2.25186 0
M  V30 3715 C 356.661 0.451009 -1.5986 0
M  V30 3716 O 357.846 0.360307 -1.87367 0
M  V30 3717 C 354.986 0.193089 -3.44559 0
M  V30 3718 C 354.099 -0.803222 -4.24467 0
M  V30 3719 C 353.234 -0.0797793 -5.3114 0
M  V30 3720 C 352.273 -1.06583 -6.02749 0
M  V30 3721 N 351.41 -0.372074 -7.01113 0
M  V30 3722 H 356.25 -1.37351 -2.64459 0
M  V30 3723 H 353.787 -0.688419 -1.29997 0
M  V30 3724 H 355.745 0.615125 -4.1264 0
M  V30 3725 H 354.375 1.02455 -3.06109 0
M  V30 3726 H 353.427 -1.34368 -3.55878 0
M  V30 3727 H 354.739 -1.55494 -4.73944 0
M  V30 3728 H 353.893 0.400015 -6.0538 0
M  V30 3729 H 352.632 0.704597 -4.82583 0
M  V30 3730 H 351.637 -1.55645 -5.27309 0
M  V30 3731 H 352.862 -1.85074 -6.53395 0
M  V30 3732 H 350.808 0.393238 -6.5482 0
M  V30 3733 H 350.725 -1.06258 -7.48495 0
M  V30 3734 H 351.993 0.0855932 -7.79453 0
M  V30 3735 N 356.222 1.38976 -0.743202 0
M  V30 3736 C 357.45 2.04636 -0.30525 0
M  V30 3737 C 357.865 1.56044 1.06281 0
M  V30 3738 O 357.222 0.728921 1.67311 0
M  V30 3739 C 357.273 3.60193 -0.307177 0
M  V30 3740 O 356.994 4.06998 -1.62124 0
M  V30 3741 C 358.495 4.4306 0.145928 0
M  V30 3742 H 355.715 0.65788 -0.132041 0
M  V30 3743 H 358.259 1.77866 -1.00915 0
M  V30 3744 H 356.414 3.85835 0.347898 0
M  V30 3745 H 356.828 5.01371 -1.54036 0
M  V30 3746 H 358.302 5.51921 0.0934183 0
M  V30 3747 H 358.779 4.22706 1.19231 0
M  V30 3748 H 359.385 4.22584 -0.479886 0
M  V30 3749 N 357.7 0.491464 1.49741 0
M  V30 3750 C 358.925 -0.0557177 2.07325 0
M  V30 3751 C 359.35 -1.30925 1.35056 0
M  V30 3752 O 358.708 -1.76733 0.404365 0
M  V30 3753 C 358.756 -0.302074 3.59333 0
M  V30 3754 O 357.86 -1.37868 3.88672 0
M  V30 3755 H 357.201 0.0219956 0.663636 0
M  V30 3756 H 359.731 0.688352 1.92673 0
M  V30 3757 H 359.741 -0.536464 4.04458 0
M  V30 3758 H 358.416 0.61383 4.11345 0
M  V30 3759 H 356.993 -1.12999 3.55367 0
M  V30 3760 N 359.178 -1.55987 0.224894 0
M  V30 3761 C 360.141 -2.19178 -0.670348 0
M  V30 3762 C 361.141 -1.15461 -1.11917 0
M  V30 3763 O 362.331 -1.40675 -1.02743 0
M  V30 3764 C 359.463 -2.81777 -1.9187 0
M  V30 3765 H 360.656 -2.99662 -0.119364 0
M  V30 3766 H 358.209 -1.5628 -0.0247128 0
M  V30 3767 H 358.944 -2.05172 -2.51147 0
M  V30 3768 H 358.729 -3.57732 -1.60531 0
M  V30 3769 H 360.219 -3.30205 -2.55645 0
M  V30 3770 N 360.656 0.0484629 -1.57525 0
M  V30 3771 C 361.566 1.07241 -2.08654 0
M  V30 3772 C 362.582 1.409 -1.02095 0
M  V30 3773 O 363.758 1.50609 -1.33712 0
M  V30 3774 C 360.823 2.36008 -2.5397 0
M  V30 3775 C 359.884 2.09108 -3.7493 0
M  V30 3776 C 359.117 3.31736 -4.18075 0
M  V30 3777 O 359.34 4.41714 -3.60895 0
M  V30 3778 O 358.274 3.18576 -5.10679 0
M  V30 3779 H 362.1 0.667965 -2.96263 0
M  V30 3780 H 359.685 0.26417 -1.47046 0
M  V30 3781 H 361.567 3.11747 -2.83535 0
M  V30 3782 H 360.242 2.75786 -1.69481 0
M  V30 3783 H 359.149 1.31 -3.50414 0
M  V30 3784 H 360.482 1.74198 -4.60343 0
M  V30 3785 N 362.134 1.5431 0.320358 0
M  V30 3786 C 363.081 1.83918 1.39438 0
M  V30 3787 C 364.051 0.686525 1.51248 0
M  V30 3788 O 365.236 0.933269 1.66417 0
M  V30 3789 C 362.376 2.075 2.75749 0
M  V30 3790 C 361.489 3.35177 2.72544 0
M  V30 3791 C 360.624 3.48704 4.00723 0
M  V30 3792 C 359.663 4.70244 3.91838 0
M  V30 3793 N 358.8 4.80679 5.11754 0
M  V30 3794 H 363.64 2.75544 1.13489 0
M  V30 3795 H 361.177 1.36459 0.549309 0
M  V30 3796 H 363.135 2.19166 3.54996 0
M  V30 3797 H 361.765 1.19163 3 0
M  V30 3798 H 360.817 3.32233 1.85271 0
M  V30 3799 H 362.129 4.24534 2.61863 0
M  V30 3800 H 361.283 3.59928 4.88402 0
M  V30 3801 H 360.022 2.57445 4.14214 0
M  V30 3802 H 359.027 4.59072 3.02544 0
M  V30 3803 H 360.252 5.6289 3.7991 0
M  V30 3804 H 358.198 3.92337 5.25745 0
M  V30 3805 H 358.115 5.64007 5.0342 0
M  V30 3806 H 359.383 4.96239 6.01138 0
M  V30 3807 N 363.613 -0.582584 1.46437 0
M  V30 3808 C 365.029 -0.905962 1.31394 0
M  V30 3809 C 365.229 -1.99468 0.285476 0
M  V30 3810 O 364.285 -2.50566 -0.311914 0
M  V30 3811 C 365.598 -1.3232 2.70022 0
M  V30 3812 C 367.146 -1.43604 2.78113 0
M  V30 3813 C 367.621 -1.88694 4.17323 0
M  V30 3814 N 369.112 -1.95887 4.19741 0
M  V30 3815 C 369.847 -2.32051 5.24347 0
M  V30 3816 N 369.343 -2.67006 6.39281 0
M  V30 3817 N 371.136 -2.32606 5.11713 0
M  V30 3818 H 363.287 0.1366 2.1196 0
M  V30 3819 H 365.55 -0.00155736 0.947999 0
M  V30 3820 H 365.256 -0.597242 3.46592 0
M  V30 3821 H 365.13 -2.28469 3.00136 0
M  V30 3822 H 367.517 -2.15286 2.01832 0
M  V30 3823 H 367.598 -0.457059 2.51684 0
M  V30 3824 H 367.242 -1.1759 4.941 0
M  V30 3825 H 367.172 -2.8755 4.4116 0
M  V30 3826 H 369.663 -1.71362 3.36814 0
M  V30 3827 H 369.976 -2.93554 7.14875 0
M  V30 3828 H 368.321 -2.64644 6.42642 0
M  V30 3829 H 371.512 -2.04721 4.2096 0
M  V30 3830 H 371.685 -2.60462 5.93349 0
M  V30 3831 N 365.091 -1.34144 -0.827227 0
M  V30 3832 C 366.001 -1.27428 -1.96975 0
M  V30 3833 C 367.017 -0.182728 -1.73038 0
M  V30 3834 O 368.193 -0.408426 -1.97215 0
M  V30 3835 C 365.258 -1.02526 -3.31194 0
M  V30 3836 C 364.319 -2.20796 -3.68168 0
M  V30 3837 C 363.552 -1.97073 -4.95982 0
M  V30 3838 O 363.775 -0.926822 -5.6282 0
M  V30 3839 O 362.709 -2.83912 -5.30733 0
M  V30 3840 H 366.535 -2.23537 -2.05584 0
M  V30 3841 H 364.12 -1.14307 -0.961989 0
M  V30 3842 H 366.002 -0.904026 -4.11589 0
M  V30 3843 H 364.677 -0.0945389 -3.23562 0
M  V30 3844 H 363.584 -2.38477 -2.88235 0
M  V30 3845 H 364.917 -3.12243 -3.8048 0
M  V30 3846 N 366.569 1.04691 -1.17803 0
M  V30 3847 C 367.818 1.77176 -0.963931 0
M  V30 3848 C 368.131 1.88888 0.508015 0
M  V30 3849 O 369.337 2.58164 0.840465 0
M  V30 3850 C 367.793 3.18518 -1.67555 0
M  V30 3851 C 367.401 3.14919 -3.18637 0
M  V30 3852 C 369.145 3.95424 -1.54402 0
M  V30 3853 C 367.052 4.51081 -3.82466 0
M  V30 3854 H 365.982 0.664116 -0.357023 0
M  V30 3855 H 368.633 1.17303 -1.4111 0
M  V30 3856 H 367.015 3.78748 -1.15613 0
M  V30 3857 H 368.189 2.64178 -3.77554 0
M  V30 3858 H 366.504 2.51512 -3.31859 0
M  V30 3859 H 369.101 4.96106 -1.99456 0
M  V30 3860 H 369.444 4.13343 -0.495329 0
M  V30 3861 H 369.977 3.41754 -2.0359 0
M  V30 3862 H 366.716 4.38368 -4.87354 0
M  V30 3863 H 366.236 5.01951 -3.28337 0
M  V30 3864 H 367.915 5.2001 -3.84965 0
M  V30 3865 N 368.047 0.979072 1.23499 0
M  V30 3866 C 368.957 0.526431 2.28617 0
M  V30 3867 C 369.973 -0.418126 1.68901 0
M  V30 3868 O 371.149 -0.288372 1.99325 0
M  V30 3869 C 368.214 -0.165235 3.46306 0
M  V30 3870 C 367.275 0.82056 4.21385 0
M  V30 3871 C 366.508 0.161807 5.33455 0
M  V30 3872 O 366.731 -1.04742 5.60701 0
M  V30 3873 O 365.665 0.859708 5.95729 0
M  V30 3874 H 369.491 1.4006 2.69475 0
M  V30 3875 H 367.076 0.746643 1.29405 0
M  V30 3876 H 368.958 -0.553287 4.17752 0
M  V30 3877 H 367.633 -1.01419 3.07402 0
M  V30 3878 H 366.54 1.25929 3.52268 0
M  V30 3879 H 367.873 1.63828 4.64135 0
M  V30 3880 N 369.525 -1.3858 0.750561 0
M  V30 3881 C 370.435 -2.34278 0.122825 0
M  V30 3882 C 371.451 -1.59116 -0.704131 0
M  V30 3883 O 372.627 -1.91326 -0.628987 0
M  V30 3884 C 369.692 -3.38221 -0.762086 0
M  V30 3885 C 368.753 -4.29227 0.078896 0
M  V30 3886 C 367.986 -5.28205 -0.763874 0
M  V30 3887 O 368.209 -5.34112 -2.00201 0
M  V30 3888 O 367.143 -6.01618 -0.18428 0
M  V30 3889 H 370.969 -2.89649 0.913088 0
M  V30 3890 H 368.554 -1.40374 0.511417 0
M  V30 3891 H 370.436 -4.01872 -1.26793 0
M  V30 3892 H 369.111 -2.85211 -1.5309 0
M  V30 3893 H 368.018 -3.68747 0.630621 0
M  V30 3894 H 369.351 -4.85484 0.810289 0
M  V30 3895 N 371.003 -0.499398 -1.49478 0
M  V30 3896 C 371.95 0.279881 -2.29097 0
M  V30 3897 C 372.92 0.961805 -1.3542 0
M  V30 3898 O 374.105 0.968777 -1.64376 0
M  V30 3899 C 371.245 1.33932 -3.18051 0
M  V30 3900 C 370.358 0.669333 -4.26783 0
M  V30 3901 C 369.493 1.70907 -5.02955 0
M  V30 3902 C 368.532 1.02087 -6.03527 0
M  V30 3903 N 367.669 2.00474 -6.7287 0
M  V30 3904 H 372.509 -0.405317 -2.95231 0
M  V30 3905 H 370.046 -0.211726 -1.45568 0
M  V30 3906 H 372.004 1.96553 -3.67998 0
M  V30 3907 H 370.634 1.9933 -2.53904 0
M  V30 3908 H 369.686 -0.0701234 -3.80335 0
M  V30 3909 H 370.998 0.127503 -4.98637 0
M  V30 3910 H 370.152 2.41037 -5.56764 0
M  V30 3911 H 368.891 2.28476 -4.30871 0
M  V30 3912 H 367.896 0.305338 -5.48951 0
M  V30 3913 H 369.121 0.451708 -6.77596 0
M  V30 3914 H 367.067 2.57007 -6.03559 0
M  V30 3915 H 366.984 1.51353 -7.40694 0
M  V30 3916 H 368.252 2.69897 -7.31284 0
M  V30 3917 N 372.481 1.55866 -0.233164 0
M  V30 3918 C 373.411 2.23783 0.666599 0
M  V30 3919 C 374.392 1.21343 1.19205 0
M  V30 3920 O 375.577 1.4996 1.23392 0
M  V30 3921 C 372.707 2.92671 1.86978 0
M  V30 3922 C 371.661 4.01682 1.47768 0
M  V30 3923 C 370.987 4.57926 2.76058 0
M  V30 3924 C 372.287 5.18126 0.658993 0
M  V30 3925 H 373.981 2.99232 0.100306 0
M  V30 3926 H 371.527 1.43924 0.046804 0
M  V30 3927 H 373.48 3.3888 2.50476 0
M  V30 3928 H 372.204 2.14688 2.46123 0
M  V30 3929 H 370.863 3.56222 0.866106 0
M  V30 3930 H 370.511 3.76659 3.33372 0
M  V30 3931 H 370.211 5.31505 2.50552 0
M  V30 3932 H 371.735 5.06859 3.40479 0
M  V30 3933 H 373.149 5.60644 1.19795 0
M  V30 3934 H 371.546 5.98009 0.500552 0
M  V30 3935 H 372.616 4.83763 -0.331856 0
M  V30 3936 N 373.959 -0.0401083 1.57549 0
M  V30 3937 C 374.909 -1.05175 2.02292 0
M  V30 3938 C 375.893 -1.32674 0.910294 0
M  V30 3939 O 377.085 -1.32444 1.17421 0
M  V30 3940 C 374.214 -2.35622 2.49674 0
M  V30 3941 C 373.3 -2.11261 3.67736 0
M  V30 3942 N 373.691 -1.56923 4.80842 0
M  V30 3943 C 371.989 -2.41596 3.74897 0
M  V30 3944 C 372.69 -1.48111 5.62528 0
M  V30 3945 N 371.666 -1.95282 5.07312 0
M  V30 3946 H 375.468 -0.625455 2.87168 0
M  V30 3947 H 372.982 -0.246624 1.60516 0
M  V30 3948 H 374.979 -3.08893 2.79983 0
M  V30 3949 H 373.639 -2.7894 1.662 0
M  V30 3950 H 374.65 -1.25345 5.02503 0
M  V30 3951 H 371.327 -2.88064 3.02201 0
M  V30 3952 H 372.717 -1.06683 6.63377 0
M  V30 3953 N 375.437 -1.54477 -0.31217 0
M  V30 3954 C 376.384 -1.84655 -1.38461 0
M  V30 3955 C 377.354 -0.694536 -1.50882 0
M  V30 3956 O 378.539 -0.942081 -1.6592 0
M  V30 3957 C 375.679 -2.0896 -2.74645 0
M  V30 3958 C 374.792 -3.36618 -2.70763 0
M  V30 3959 C 373.927 -3.50824 -3.98868 0
M  V30 3960 C 372.966 -4.72315 -3.89339 0
M  V30 3961 N 372.103 -4.83387 -5.09197 0
M  V30 3962 H 376.943 -2.76142 -1.12026 0
M  V30 3963 H 374.48 -1.36748 -0.542065 0
M  V30 3964 H 376.438 -2.21045 -3.53829 0
M  V30 3965 H 375.068 -1.20752 -2.99364 0
M  V30 3966 H 374.12 -3.33211 -1.83506 0
M  V30 3967 H 375.432 -4.25917 -2.59608 0
M  V30 3968 H 374.586 -3.62513 -4.86486 0
M  V30 3969 H 373.325 -2.59638 -4.12843 0
M  V30 3970 H 372.33 -4.6067 -3.00105 0
M  V30 3971 H 373.555 -5.64897 -3.76919 0
M  V30 3972 H 371.501 -3.9512 -5.23657 0
M  V30 3973 H 371.418 -5.66669 -5.00422 0
M  V30 3974 H 372.686 -4.9942 -5.98498 0
M  V30 3975 N 376.915 0.57481 -1.46744 0
M  V30 3976 C 377.845 1.69337 -1.60771 0
M  V30 3977 C 378.826 1.63825 -0.457736 0
M  V30 3978 O 380.011 1.8172 -0.684947 0
M  V30 3979 C 377.141 3.0798 -1.60517 0
M  V30 3980 C 376.095 3.28327 -2.74564 0
M  V30 3981 C 375.421 4.67578 -2.59373 0
M  V30 3982 C 376.721 3.15398 -4.16319 0
M  V30 3983 H 378.415 1.57853 -2.54407 0
M  V30 3984 H 375.961 0.75799 -1.22436 0
M  V30 3985 H 377.914 3.86061 -1.68923 0
M  V30 3986 H 376.638 3.20381 -0.634305 0
M  V30 3987 H 375.297 2.52649 -2.65639 0
M  V30 3988 H 374.945 4.76755 -1.60353 0
M  V30 3989 H 374.645 4.82144 -3.35873 0
M  V30 3990 H 376.169 5.47817 -2.69682 0
M  V30 3991 H 377.583 3.83315 -4.26313 0
M  V30 3992 H 375.98 3.41482 -4.93468 0
M  V30 3993 H 377.05 2.12372 -4.3592 0
M  V30 3994 N 378.394 1.34581 0.820102 0
M  V30 3995 C 379.641 1.27096 1.57648 0
M  V30 3996 C 379.969 -0.158317 1.93855 0
M  V30 3997 O 379.224 -1.12028 1.60463 0
M  V30 3998 C 379.523 2.10997 2.8847 0
M  V30 3999 C 379.189 3.59966 2.71543 0
M  V30 4000 C 377.851 4.00575 2.66634 0
M  V30 4001 C 380.203 4.54548 2.55021 0
M  V30 4002 C 377.531 5.33953 2.43128 0
M  V30 4003 C 379.883 5.88109 2.33047 0
M  V30 4004 C 378.547 6.27878 2.26552 0
M  V30 4005 H 377.817 0.465078 0.576874 0
M  V30 4006 H 380.464 1.6635 0.948671 0
M  V30 4007 H 378.769 1.6458 3.55557 0
M  V30 4008 H 380.466 2.0255 3.46084 0
M  V30 4009 H 377.056 3.27733 2.76205 0
M  V30 4010 H 381.24 4.24069 2.57835 0
M  V30 4011 H 376.496 5.63781 2.3656 0
M  V30 4012 H 380.67 6.60985 2.19251 0
M  V30 4013 H 378.297 7.31162 2.081 0
M  V30 4014 N 379.872 -1.04064 1.18357 0
M  V30 4015 C 381.097 -1.81454 1.00445 0
M  V30 4016 C 381.522 -1.82823 -0.442423 0
M  V30 4017 O 380.88 -1.24555 -1.31741 0
M  V30 4018 C 380.928 -3.24925 1.56384 0
M  V30 4019 O 380.032 -4.04856 0.785209 0
M  V30 4020 H 379.373 -0.560604 0.355835 0
M  V30 4021 H 381.903 -1.31059 1.57114 0
M  V30 4022 H 381.913 -3.75702 1.59097 0
M  V30 4023 H 380.588 -3.23244 2.61699 0
M  V30 4024 H 379.165 -3.63537 0.830399 0
M  V30 4025 N 381.35 -0.985608 -1.22978 0
M  V30 4026 C 382.282 -0.488154 -2.23941 0
M  V30 4027 C 383.295 0.41282 -1.57479 0
M  V30 4028 O 384.484 0.216121 -1.77187 0
M  V30 4029 C 381.584 0.312611 -3.37455 0
M  V30 4030 C 380.757 -0.582741 -4.33501 0
M  V30 4031 C 379.816 0.165064 -5.25941 0
M  V30 4032 O 378.842 -0.447077 -5.67442 0
M  V30 4033 N 380.044 1.44953 -5.62111 0
M  V30 4034 H 382.809 -1.3563 -2.67254 0
M  V30 4035 H 380.37 -0.859477 -1.37203 0
M  V30 4036 H 382.362 0.821357 -3.96277 0
M  V30 4037 H 380.932 1.0818 -2.93285 0
M  V30 4038 H 380.152 -1.27225 -3.73105 0
M  V30 4039 H 381.44 -1.19275 -4.94622 0
M  V30 4040 H 380.838 1.9683 -5.30353 0
M  V30 4041 H 379.395 1.90361 -6.23383 0
M  V30 4042 N 382.828 1.3818 -0.7579 0
M  V30 4043 C 384.105 1.94106 -0.241306 0
M  V30 4044 C 384.485 1.69282 1.26122 0
M  V30 4045 O 383.833 1.03378 2.03777 0
M  V30 4046 C 384.043 3.43809 -0.59967 0
M  V30 4047 C 385.391 4.20868 -0.561717 0
M  V30 4048 O 386.415 3.5211 -0.538222 0
M  V30 4049 O 385.274 5.43451 -0.576478 0
M  V30 4050 H 382.368 0.825376 -0.0518042 0
M  V30 4051 H 384.914 1.47548 -0.838315 0
M  V30 4052 H 383.686 3.55403 -1.6372 0
M  V30 4053 H 383.309 3.97592 0.0251197 0
M  V30 4054 N 384.306 0.507319 1.49211 0
M  V30 4055 C 385.256 -0.287112 2.26185 0
M  V30 4056 C 386.24 -0.929983 1.31302 0
M  V30 4057 O 387.432 -0.836538 1.55984 0
M  V30 4058 C 384.561 -1.34718 3.15763 0
M  V30 4059 C 383.647 -0.710235 4.18111 0
M  V30 4060 N 384.038 0.190836 5.0544 0
M  V30 4061 C 382.336 -0.97009 4.35322 0
M  V30 4062 C 383.037 0.55606 5.79036 0
M  V30 4063 N 382.013 -0.0775232 5.43545 0
M  V30 4064 H 385.815 0.406445 2.91076 0
M  V30 4065 H 383.329 0.323814 1.59139 0
M  V30 4066 H 385.326 -1.92982 3.69545 0
M  V30 4067 H 383.986 -2.04235 2.52424 0
M  V30 4068 H 384.997 0.562047 5.14841 0
M  V30 4069 H 381.674 -1.65753 3.83187 0
M  V30 4070 H 383.064 1.2936 6.5933 0
M  V30 4071 N 385.784 -1.5574 0.241426 0
M  V30 4072 C 386.714 -2.24133 -0.654722 0
M  V30 4073 C 387.695 -1.21974 -1.1856 0
M  V30 4074 O 388.88 -1.50612 -1.22595 0
M  V30 4075 C 386.01 -2.93659 -1.85423 0
M  V30 4076 C 384.964 -4.0246 -1.45636 0
M  V30 4077 C 384.29 -4.59383 -2.73626 0
M  V30 4078 C 385.59 -5.18468 -0.631506 0
M  V30 4079 H 387.284 -2.99281 -0.0844353 0
M  V30 4080 H 384.83 -1.43947 -0.0391707 0
M  V30 4081 H 386.783 -3.40203 -2.48676 0
M  V30 4082 H 385.507 -2.15991 -2.44981 0
M  V30 4083 H 384.166 -3.56676 -0.847202 0
M  V30 4084 H 383.814 -3.78422 -3.3137 0
M  V30 4085 H 383.514 -5.32826 -2.4773 0
M  V30 4086 H 385.038 -5.08658 -3.37786 0
M  V30 4087 H 386.452 -5.61272 -1.1682 0
M  V30 4088 H 384.849 -5.98266 -0.468831 0
M  V30 4089 H 385.919 -4.8358 0.357506 0
M  V30 4090 N 387.262 0.0317525 -1.57568 0
M  V30 4091 C 388.508 0.724175 -1.8943 0
M  V30 4092 C 388.841 1.75149 -0.838836 0
M  V30 4093 O 388.116 1.93948 0.146422 0
M  V30 4094 C 388.399 1.39615 -3.31933 0
M  V30 4095 C 388.252 0.382537 -4.4817 0
M  V30 4096 C 389.571 2.33084 -3.73309 0
M  V30 4097 H 386.69 0.261797 -0.688935 0
M  V30 4098 H 389.332 -0.013017 -1.89996 0
M  V30 4099 H 387.482 2.02451 -3.31581 0
M  V30 4100 H 389.154 -0.243689 -4.60656 0
M  V30 4101 H 387.397 -0.29844 -4.32772 0
M  V30 4102 H 388.068 0.891145 -5.44759 0
M  V30 4103 H 390.544 1.80295 -3.7501 0
M  V30 4104 H 389.42 2.77084 -4.73831 0
M  V30 4105 H 389.681 3.19643 -3.05419 0
M  V30 4106 N 388.74 1.54641 0.303973 0
M  V30 4107 C 389.989 1.7299 1.03717 0
M  V30 4108 C 390.302 0.521168 1.88529 0
M  V30 4109 O 391.508 0.586408 2.65092 0
M  V30 4110 C 389.964 3.06051 1.89369 0
M  V30 4111 C 389.572 4.34393 1.09574 0
M  V30 4112 C 391.316 3.3376 2.62306 0
M  V30 4113 C 389.223 5.58506 1.94486 0
M  V30 4114 H 388.153 0.64473 0.390947 0
M  V30 4115 H 390.804 1.81124 0.294328 0
M  V30 4116 H 389.186 2.91874 2.67629 0
M  V30 4117 H 390.36 4.59396 0.359485 0
M  V30 4118 H 388.675 4.13597 0.482324 0
M  V30 4119 H 391.272 4.23687 3.26181 0
M  V30 4120 H 391.615 2.52503 3.3098 0
M  V30 4121 H 392.148 3.48894 1.91097 0
M  V30 4122 H 388.887 6.42422 1.30287 0
M  V30 4123 H 388.407 5.37694 2.65792 0
M  V30 4124 H 390.086 5.95651 2.52605 0
M  V30 4125 N 390.218 -0.567019 1.47046 0
M  V30 4126 C 391.448 -1.34831 1.56538 0
M  V30 4127 C 391.856 -1.8802 0.21101 0
M  V30 4128 O 391.199 -1.65152 -0.804387 0
M  V30 4129 C 391.261 -2.56139 2.52256 0
M  V30 4130 C 390.925 -2.24307 3.98165 0
M  V30 4131 C 391.922 -1.82192 4.86931 0
M  V30 4132 C 389.607 -2.35968 4.43423 0
M  V30 4133 C 391.601 -1.52153 6.18973 0
M  V30 4134 C 389.288 -2.05542 5.75496 0
M  V30 4135 C 390.286 -1.63701 6.63092 0
M  V30 4136 O 389.974 -1.33657 7.92711 0
M  V30 4137 H 389.706 -0.417683 0.531523 0
M  V30 4138 H 392.26 -0.694726 1.93294 0
M  V30 4139 H 390.49 -3.24356 2.10548 0
M  V30 4140 H 392.179 -3.18214 2.51982 0
M  V30 4141 H 392.945 -1.72684 4.53217 0
M  V30 4142 H 388.824 -2.67495 3.75456 0
M  V30 4143 H 392.368 -1.19421 6.87302 0
M  V30 4144 H 388.265 -2.14679 6.08755 0
M  V30 4145 H 389.033 -1.4737 8.05124 0
M  V30 4146 N 391.696 -1.35014 -0.812953 0
M  V30 4147 C 392.643 -1.27412 -1.92444 0
M  V30 4148 C 393.613 -0.14733 -1.65445 0
M  V30 4149 O 394.798 -0.329974 -1.87925 0
M  V30 4150 C 391.938 -1.04558 -3.28879 0
M  V30 4151 C 391.051 -2.26101 -3.68106 0
M  V30 4152 C 390.186 -1.96449 -4.9354 0
M  V30 4153 C 389.225 -3.14081 -5.25376 0
M  V30 4154 N 388.362 -2.84246 -6.41988 0
M  V30 4155 H 393.202 -2.22463 -1.98278 0
M  V30 4156 H 390.739 -1.10593 -0.969933 0
M  V30 4157 H 392.697 -0.893413 -4.07522 0
M  V30 4158 H 391.327 -0.131719 -3.22531 0
M  V30 4159 H 390.379 -2.52204 -2.84775 0
M  V30 4160 H 391.691 -3.13959 -3.87597 0
M  V30 4161 H 390.845 -1.78026 -5.79993 0
M  V30 4162 H 389.584 -1.05867 -4.76071 0
M  V30 4163 H 388.589 -3.33089 -4.37415 0
M  V30 4164 H 389.814 -4.05455 -5.44778 0
M  V30 4165 H 387.76 -1.96252 -6.25956 0
M  V30 4166 H 387.677 -3.65637 -6.61699 0
M  V30 4167 H 388.945 -2.6935 -7.31485 0
M  V30 4168 N 393.175 1.03435 -1.18907 0
M  V30 4169 C 394.423 1.76394 -0.986382 0
M  V30 4170 C 394.744 1.88883 0.484567 0
M  V30 4171 O 394.014 1.41843 1.3512 0
M  V30 4172 H 392.594 0.65344 -0.361975 0
M  V30 4173 H 395.256 1.248 -1.49703 0
M  V30 4174 H 394.352 2.77424 -1.42978 0
M  V30 4175 N 394.653 0.992116 1.22453 0
M  V30 4176 C 395.883 0.684949 1.94915 0
M  V30 4177 C 396.291 -0.754292 1.73514 0
M  V30 4178 O 395.634 -1.52056 1.03076 0
M  V30 4179 C 395.696 0.910054 3.47791 0
M  V30 4180 C 395.36 2.33363 3.92926 0
M  V30 4181 C 396.357 3.31308 4.00663 0
M  V30 4182 C 394.042 2.66785 4.25595 0
M  V30 4183 C 396.036 4.6075 4.40441 0
M  V30 4184 C 393.723 3.96446 4.65053 0
M  V30 4185 C 394.721 4.9324 4.72444 0
M  V30 4186 O 394.409 6.20584 5.1101 0
M  V30 4187 H 394.141 0.25258 0.62704 0
M  V30 4188 H 396.695 1.32939 1.56577 0
M  V30 4189 H 394.925 0.208443 3.86138 0
M  V30 4190 H 396.614 0.598257 4.01467 0
M  V30 4191 H 397.38 3.0682 3.75615 0
M  V30 4192 H 393.259 1.92148 4.19047 0
M  V30 4193 H 396.803 5.363 4.46126 0
M  V30 4194 H 392.7 4.20724 4.89552 0
M  V30 4195 H 393.468 6.24509 5.29085 0
M  V30 4196 N 396.131 -1.37776 0.765217 0
M  V30 4197 C 397.377 -2.00145 0.327072 0
M  V30 4198 C 397.71 -1.60607 -1.09175 0
M  V30 4199 O 396.985 -0.849127 -1.74986 0
M  V30 4200 C 397.268 -3.57109 0.46319 0
M  V30 4201 C 397.121 -4.06576 1.92395 0
M  V30 4202 C 398.44 -4.39888 -0.136473 0
M  V30 4203 H 395.559 -0.727113 0.120316 0
M  V30 4204 H 398.201 -1.63549 0.967039 0
M  V30 4205 H 396.351 -3.88414 -0.0816358 0
M  V30 4206 H 398.023 -3.85864 2.52798 0
M  V30 4207 H 396.266 -3.59011 2.43503 0
M  V30 4208 H 396.937 -5.15639 1.97028 0
M  V30 4209 H 399.413 -4.14803 0.328317 0
M  V30 4210 H 398.289 -5.48899 -0.0110582 0
M  V30 4211 H 398.55 -4.24758 -1.22608 0
M  V30 4212 N 397.609 -0.515225 -1.4894 0
M  V30 4213 C 398.886 0.0879088 -1.95402 0
M  V30 4214 C 399.266 1.52745 -1.45712 0
M  V30 4215 O 398.614 2.18238 -0.677093 0
M  V30 4216 C 398.824 -0.0141055 -3.48997 0
M  V30 4217 C 400.172 0.152646 -4.24326 0
M  V30 4218 O 401.196 0.0604025 -3.56149 0
M  V30 4219 O 400.055 0.34384 -5.45417 0
M  V30 4220 H 397.149 0.0874636 -0.822362 0
M  V30 4221 H 399.695 -0.578775 -1.59525 0
M  V30 4222 H 398.467 -1.01745 -3.77841 0
M  V30 4223 H 398.09 0.692091 -3.9153 0
M  V30 4224 N 399.087 1.5561 -0.249682 0
M  V30 4225 C 400.364 1.90932 0.424761 0
M  V30 4226 C 400.744 1.17078 1.75658 0
M  V30 4227 O 400.092 0.289176 2.26663 0
M  V30 4228 C 400.302 3.43975 0.590109 0
M  V30 4229 C 401.65 4.15281 0.884714 0
M  V30 4230 O 402.674 3.49729 0.67587 0
M  V30 4231 O 401.533 5.31236 1.28259 0
M  V30 4232 H 398.627 0.794815 0.228468 0
M  V30 4233 H 401.173 1.67135 -0.293954 0
M  V30 4234 H 399.945 3.89748 -0.34818 0
M  V30 4235 H 399.568 3.73644 1.35926 0
M  V30 4236 N 400.565 -0.0233959 1.57583 0
M  V30 4237 C 401.976 -0.56927 1.77809 0
M  V30 4238 C 402.327 -1.75284 0.881472 0
M  V30 4239 O 401.452 -2.1626 0.0777805 0
M  V30 4240 C 402.047 -1.03949 3.22459 0
M  V30 4241 C 400.606 -1.53084 3.43864 0
M  V30 4242 C 399.753 -0.471454 2.73263 0
M  V30 4243 H 402.704 0.202825 1.57399 0
M  V30 4244 H 402.725 -1.90661 3.29285 0
M  V30 4245 H 402.237 -0.177865 3.87692 0
M  V30 4246 H 400.338 -2.41414 2.83814 0
M  V30 4247 H 400.451 -1.57443 4.52491 0
M  V30 4248 H 398.815 -0.927788 2.37201 0
M  V30 4249 H 399.598 0.380808 3.41181 0
M  V30 4250 N 402.043 -1.548 -0.295768 0
M  V30 4251 C 403.459 -1.4613 -0.641722 0
M  V30 4252 C 403.659 -0.656771 -1.90496 0
M  V30 4253 O 402.715 -0.166547 -2.5195 0
M  V30 4254 C 404.028 -2.90141 -0.789852 0
M  V30 4255 C 405.576 -3.00216 -0.885396 0
M  V30 4256 C 406.051 -4.45434 -1.06548 0
M  V30 4257 N 407.542 -4.49166 -1.13156 0
M  V30 4258 C 408.277 -5.58717 -1.28929 0
M  V30 4259 N 407.773 -6.78182 -1.41567 0
M  V30 4260 N 409.566 -5.46415 -1.31859 0
M  V30 4261 H 401.717 -2.05574 0.534147 0
M  V30 4262 H 403.98 -0.931259 0.177372 0
M  V30 4263 H 403.686 -3.51635 0.0675598 0
M  V30 4264 H 403.56 -3.37859 -1.67724 0
M  V30 4265 H 405.947 -2.38833 -1.73329 0
M  V30 4266 H 406.028 -2.55787 0.0261185 0
M  V30 4267 H 405.672 -5.07413 -0.222335 0
M  V30 4268 H 405.602 -4.87499 -1.9913 0
M  V30 4269 H 408.093 -3.631 -1.04721 0
M  V30 4270 H 408.406 -7.57428 -1.53372 0
M  V30 4271 H 406.751 -6.81037 -1.38613 0
M  V30 4272 H 409.942 -4.5203 -1.21601 0
M  V30 4273 H 410.115 -6.31841 -1.43808 0
M  V30 4274 N 403.521 0.559213 -1.47345 0
M  V30 4275 C 404.469 1.68747 -1.60085 0
M  V30 4276 C 405.463 1.628 -0.46825 0
M  V30 4277 O 406.669 1.68009 -0.645977 0
M  V30 4278 H 403.044 0.558329 -0.503759 0
M  V30 4279 H 405.015 1.55138 -2.54902 0
M  V30 4280 C 403.764 3.07103 -1.63042 0
M  V30 4281 H 403.087 3.12361 -2.49541 0
M  V30 4282 H 404.527 3.85743 -1.76006 0
M  V30 4283 C 402.986 3.34935 -0.363357 0
M  V30 4284 O 403.516 3.98102 0.536416 0
M  V30 4285 N 401.722 2.89574 -0.244 0
M  V30 4286 H 401.269 2.38348 -0.977133 0
M  V30 4287 H 401.227 3.08566 0.602836 0
M  V30 4288 N 404.999 1.35443 0.805782 0
M  V30 4289 C 406.227 1.31878 1.59423 0
M  V30 4290 C 406.642 -0.103562 1.88516 0
M  V30 4291 O 405.999 -1.05575 1.48863 0
M  V30 4292 C 406.05 2.12426 2.92502 0
M  V30 4293 O 405.771 3.49115 2.6467 0
M  V30 4294 C 407.272 2.16455 3.86862 0
M  V30 4295 H 404.492 0.453002 0.495005 0
M  V30 4296 H 407.036 1.78309 1.00131 0
M  V30 4297 H 405.191 1.69593 3.48306 0
M  V30 4298 H 405.605 3.90957 3.49647 0
M  V30 4299 H 407.079 2.77204 4.77349 0
M  V30 4300 H 407.556 1.16352 4.23508 0
M  V30 4301 H 408.162 2.59453 3.36993 0
M  V30 4302 N 406.477 -1.02803 1.19454 0
M  V30 4303 C 407.754 -1.73299 0.907013 0
M  V30 4304 C 408.134 -2.02772 -0.587086 0
M  V30 4305 O 407.482 -1.68304 -1.54551 0
M  V30 4306 C 407.692 -3.00912 1.76785 0
M  V30 4307 C 409.04 -3.74403 2.00268 0
M  V30 4308 O 410.064 -3.10841 1.73943 0
M  V30 4309 O 408.923 -4.88675 2.4466 0
M  V30 4310 H 406.017 -0.754727 0.338106 0
M  V30 4311 H 408.563 -1.08754 1.30271 0
M  V30 4312 H 407.335 -2.75366 2.7801 0
M  V30 4313 H 406.958 -3.73197 1.37149 0
M  V30 4314 N 407.956 -0.998596 -1.21925 0
M  V30 4315 C 408.904 -0.546641 -2.26085 0
M  V30 4316 C 409.898 0.405576 -1.64473 0
M  V30 4317 O 411.104 0.277471 -1.77849 0
M  V30 4318 H 407.479 -0.158403 -0.735127 0
M  V30 4319 H 409.45 -1.43645 -2.61551 0
M  V30 4320 C 408.199 0.117388 -3.47502 0
M  V30 4321 H 407.522 -0.606277 -3.95176 0
M  V30 4322 H 408.962 0.396993 -4.22137 0
M  V30 4323 C 407.421 1.35455 -3.0847 0
M  V30 4324 O 407.951 2.44944 -3.18379 0
M  V30 4325 N 406.157 1.23191 -2.63196 0
M  V30 4326 H 405.704 0.341006 -2.55333 0
M  V30 4327 H 405.662 2.06071 -2.37449 0
M  V30 4328 N 409.434 1.37368 -0.772513 0
M  V30 4329 C 410.397 2.28601 -0.165541 0
M  V30 4330 C 411.397 1.48062 0.627238 0
M  V30 4331 O 412.587 1.68268 0.450715 0
M  V30 4332 C 409.719 3.32023 0.772897 0
M  V30 4333 H 410.912 2.83787 -0.969787 0
M  V30 4334 H 408.465 1.46647 -0.540775 0
M  V30 4335 H 409.2 2.81962 1.60212 0
M  V30 4336 H 408.985 3.91555 0.206585 0
M  V30 4337 H 410.475 4.00197 1.19298 0
M  V30 4338 N 410.912 0.523116 1.48665 0
M  V30 4339 C 412.158 -0.00540031 2.03399 0
M  V30 4340 C 412.513 -1.3264 1.39372 0
M  V30 4341 O 411.806 -1.84184 0.527916 0
M  V30 4342 C 412 -0.191671 3.56886 0
M  V30 4343 C 411.829 1.10972 4.35793 0
M  V30 4344 C 410.599 1.66769 4.76987 0
M  V30 4345 C 412.797 2.01861 4.73029 0
M  V30 4346 N 410.779 2.91268 5.40404 0
M  V30 4347 C 412.15 3.10937 5.36394 0
M  V30 4348 C 414.205 2.02271 4.54962 0
M  V30 4349 C 412.908 4.20478 5.83601 0
M  V30 4350 C 414.934 3.10802 5.03146 0
M  V30 4351 C 414.296 4.18597 5.6653 0
M  V30 4352 H 410.395 0.0393531 0.781009 0
M  V30 4353 H 412.979 0.702876 1.8157 0
M  V30 4354 H 411.15 -0.869025 3.78553 0
M  V30 4355 H 412.882 -0.719177 3.98259 0
M  V30 4356 H 409.637 1.20996 4.57883 0
M  V30 4357 H 410.061 3.54635 5.76683 0
M  V30 4358 H 414.703 1.2023 4.05345 0
M  V30 4359 H 412.421 5.03303 6.32228 0
M  V30 4360 H 416.007 3.12166 4.90962 0
M  V30 4361 H 414.887 5.01193 6.03138 0
M  V30 4362 N 412.39 -1.55475 0.257931 0
M  V30 4363 C 413.323 -2.179 -0.677862 0
M  V30 4364 C 414.301 -1.13448 -1.16483 0
M  V30 4365 O 415.485 -1.41889 -1.24095 0
M  V30 4366 C 412.612 -2.78851 -1.92249 0
M  V30 4367 C 411.658 -3.96454 -1.57246 0
M  V30 4368 S 412.491 -5.31349 -0.665501 0
M  V30 4369 C 413.647 -5.9576 -1.91889 0
M  V30 4370 H 413.88 -2.96934 -0.147396 0
M  V30 4371 H 411.413 -1.54342 0.0423023 0
M  V30 4372 H 413.371 -3.14602 -2.63697 0
M  V30 4373 H 412.032 -1.99742 -2.42409 0
M  V30 4374 H 411.225 -4.37731 -2.49814 0
M  V30 4375 H 410.827 -3.62038 -0.938325 0
M  V30 4376 H 413.119 -6.13947 -2.86487 0
M  V30 4377 H 414.062 -6.9094 -1.54942 0
M  V30 4378 H 414.47 -5.2494 -2.076 0
M  V30 4379 N 413.868 0.0150385 -1.57593 0
M  V30 4380 C 414.778 1.02791 -2.10882 0
M  V30 4381 C 415.794 1.38702 -1.0506 0
M  V30 4382 O 416.97 1.47739 -1.36877 0
M  V30 4383 C 414.035 2.30568 -2.58919 0
M  V30 4384 C 413.096 2.01108 -3.79281 0
M  V30 4385 C 412.329 3.22794 -4.25018 0
M  V30 4386 O 412.552 4.33959 -3.70183 0
M  V30 4387 O 411.486 3.07672 -5.17322 0
M  V30 4388 H 415.312 0.604973 -2.97613 0
M  V30 4389 H 412.897 0.23292 -1.47573 0
M  V30 4390 H 414.779 3.05662 -2.90084 0
M  V30 4391 H 413.454 2.72129 -1.75293 0
M  V30 4392 H 412.361 1.23537 -3.53114 0
M  V30 4393 H 413.694 1.64394 -4.63935 0
M  V30 4394 N 415.346 1.54954 0.287554 0
M  V30 4395 C 416.574 1.78881 1.03967 0
M  V30 4396 C 416.989 0.554894 1.80462 0
M  V30 4397 O 416.346 -0.475676 1.76192 0
M  V30 4398 C 416.397 3.00488 2.0097 0
M  V30 4399 O 416.118 4.19113 1.27577 0
M  V30 4400 C 417.619 3.36907 2.88112 0
M  V30 4401 H 414.839 0.596259 0.307761 0
M  V30 4402 H 417.383 2.01937 0.322749 0
M  V30 4403 H 415.538 2.79601 2.68145 0
M  V30 4404 H 415.952 4.87765 1.92835 0
M  V30 4405 H 417.426 4.25205 3.52001 0
M  V30 4406 H 417.903 2.55659 3.57121 0
M  V30 4407 H 418.509 3.60001 2.26449 0
M  V30 4408 N 416.824 -0.551391 1.4764 0
M  V30 4409 C 417.734 -1.68525 1.63207 0
M  V30 4410 C 418.75 -1.6621 0.514815 0
M  V30 4411 O 419.926 -1.85551 0.783113 0
M  V30 4412 C 416.991 -3.05025 1.64805 0
M  V30 4413 C 416.052 -3.18362 2.88 0
M  V30 4414 C 415.285 -4.4835 2.89513 0
M  V30 4415 O 415.508 -5.34163 2.00065 0
M  V30 4416 O 414.442 -4.65602 3.81443 0
M  V30 4417 H 418.268 -1.58333 2.59161 0
M  V30 4418 H 415.853 -0.722063 1.30792 0
M  V30 4419 H 417.735 -3.86245 1.68502 0
M  V30 4420 H 416.41 -3.15587 0.720197 0
M  V30 4421 H 415.317 -2.36518 2.89845 0
M  V30 4422 H 416.65 -3.12707 3.80099 0
M  V30 4423 N 418.302 -1.35869 -0.798587 0
M  V30 4424 C 419.265 -1.29307 -1.89242 0
M  V30 4425 C 420.265 -0.202747 -1.59517 0
M  V30 4426 O 421.455 -0.456957 -1.681 0
M  V30 4427 C 418.587 -1.00229 -3.25833 0
M  V30 4428 H 419.78 -2.26576 -1.96478 0
M  V30 4429 H 417.333 -1.20509 -0.995358 0
M  V30 4430 H 418.068 -0.033801 -3.24282 0
M  V30 4431 H 417.853 -1.79121 -3.48795 0
M  V30 4432 H 419.343 -0.98219 -4.05885 0
M  V30 4433 N 419.78 1.02168 -1.19998 0
M  V30 4434 C 421.026 1.75945 -1.00852 0
M  V30 4435 C 421.359 1.88702 0.458828 0
M  V30 4436 O 420.634 1.40911 1.34069 0
M  V30 4437 C 420.917 3.18154 -1.68671 0
M  V30 4438 C 420.77 3.13224 -3.22817 0
M  V30 4439 C 422.089 4.16711 -1.41561 0
M  V30 4440 H 419.208 0.638673 -0.367785 0
M  V30 4441 H 421.85 1.19222 -1.4794 0
M  V30 4442 H 420 3.66586 -1.28636 0
M  V30 4443 H 421.672 2.72635 -3.72112 0
M  V30 4444 H 419.915 2.50751 -3.53986 0
M  V30 4445 H 420.586 4.13728 -3.65422 0
M  V30 4446 H 423.062 3.76913 -1.76284 0
M  V30 4447 H 421.938 5.14391 -1.91553 0
M  V30 4448 H 422.199 4.40774 -0.342193 0
M  V30 4449 N 421.258 1.00505 1.21394 0
M  V30 4450 C 422.206 0.558623 2.25792 0
M  V30 4451 C 423.2 -0.396848 1.64686 0
M  V30 4452 O 424.406 -0.268035 1.77993 0
M  V30 4453 H 420.781 0.1623 0.734277 0
M  V30 4454 H 422.752 1.4503 2.60785 0
M  V30 4455 C 421.501 -0.0989574 3.47559 0
M  V30 4456 H 420.824 0.627225 3.94849 0
M  V30 4457 H 422.264 -0.3746 4.22342 0
M  V30 4458 C 420.723 -1.33817 3.09184 0
M  V30 4459 O 421.253 -2.43252 3.19674 0
M  V30 4460 N 419.459 -1.21793 2.63846 0
M  V30 4461 H 419.006 -0.32746 2.5551 0
M  V30 4462 H 418.964 -2.04809 2.38539 0
M  V30 4463 N 422.737 -1.36956 0.779787 0
M  V30 4464 C 423.967 -2.03459 0.358877 0
M  V30 4465 C 424.375 -1.58939 -1.02641 0
M  V30 4466 O 423.718 -0.769777 -1.66794 0
M  V30 4467 C 423.78 -3.5796 0.332393 0
M  V30 4468 C 423.444 -4.25644 1.66362 0
M  V30 4469 C 424.441 -4.49205 2.61746 0
M  V30 4470 C 422.126 -4.63313 1.94027 0
M  V30 4471 C 424.12 -5.09503 3.82996 0
M  V30 4472 C 421.807 -5.2333 3.15546 0
M  V30 4473 C 422.805 -5.46363 4.0985 0
M  V30 4474 O 422.493 -6.05122 5.29228 0
M  V30 4475 H 422.225 -0.659767 0.147254 0
M  V30 4476 H 424.779 -1.76111 1.05708 0
M  V30 4477 H 423.009 -3.84388 -0.422237 0
M  V30 4478 H 424.698 -4.05852 -0.0625389 0
M  V30 4479 H 425.464 -4.20508 2.41657 0
M  V30 4480 H 421.343 -4.44715 1.21448 0
M  V30 4481 H 424.887 -5.27397 4.56617 0
M  V30 4482 H 420.784 -5.51451 3.35517 0
M  V30 4483 H 421.552 -6.23595 5.30161 0
M  V30 4484 N 424.215 -0.530993 -1.48385 0
M  V30 4485 C 425.165 0.251092 -2.26613 0
M  V30 4486 C 426.149 0.908977 -1.32765 0
M  V30 4487 O 427.341 0.811616 -1.57295 0
M  V30 4488 C 424.47 1.29677 -3.17866 0
M  V30 4489 C 423.556 0.643627 -4.19188 0
M  V30 4490 N 423.947 -0.271223 -5.05072 0
M  V30 4491 C 422.245 0.900711 -4.3681 0
M  V30 4492 C 422.946 -0.648109 -5.78078 0
M  V30 4493 N 421.922 -0.00895987 -5.43599 0
M  V30 4494 H 425.724 -0.452702 -2.90393 0
M  V30 4495 H 423.238 -0.349091 -1.58604 0
M  V30 4496 H 425.235 1.87079 -3.72568 0
M  V30 4497 H 423.895 2.00193 -2.55642 0
M  V30 4498 H 424.906 -0.643883 -5.13882 0
M  V30 4499 H 421.583 1.59636 -3.85775 0
M  V30 4500 H 422.973 -1.39833 -6.57188 0
M  V30 4501 N 425.693 1.55336 -0.266172 0
M  V30 4502 C 426.97 1.91372 0.404486 0
M  V30 4503 C 427.35 1.18935 1.74407 0
M  V30 4504 O 426.698 0.3132 2.26343 0
M  V30 4505 C 426.908 3.44581 0.553593 0
M  V30 4506 C 428.256 4.16196 0.840618 0
M  V30 4507 O 429.28 3.50426 0.638739 0
M  V30 4508 O 428.139 5.32567 1.22618 0
M  V30 4509 H 425.233 0.797194 0.220025 0
M  V30 4510 H 427.779 1.66813 -0.311664 0
M  V30 4511 H 426.551 3.89357 -0.389498 0
M  V30 4512 H 426.174 3.75065 1.31955 0
M  V30 4513 N 427.171 -0.0066808 1.57599 0
M  V30 4514 C 428.081 -1.01671 2.11424 0
M  V30 4515 C 429.097 -1.38143 1.05795 0
M  V30 4516 O 430.273 -1.47011 1.37658 0
M  V30 4517 C 427.338 -2.29192 2.60139 0
M  V30 4518 C 426.399 -1.99094 3.80342 0
M  V30 4519 C 425.632 -3.20535 4.26724 0
M  V30 4520 O 425.855 -4.3199 3.72479 0
M  V30 4521 O 424.789 -3.04924 5.18946 0
M  V30 4522 H 428.615 -0.589181 2.9793 0
M  V30 4523 H 426.2 -0.225091 1.47695 0
M  V30 4524 H 428.082 -3.0412 2.917 0
M  V30 4525 H 426.757 -2.71195 1.76733 0
M  V30 4526 H 425.664 -1.21663 3.53764 0
M  V30 4527 H 426.997 -1.61931 4.648 0
M  V30 4528 N 428.649 -1.55105 -0.279332 0
M  V30 4529 C 429.877 -1.7943 -1.03017 0
M  V30 4530 C 430.292 -0.564456 -1.80165 0
M  V30 4531 O 429.649 0.466326 -1.76442 0
M  V30 4532 C 429.7 -3.0155 -1.99374 0
M  V30 4533 O 429.421 -4.19784 -1.25352 0
M  V30 4534 C 430.922 -3.3843 -2.86321 0
M  V30 4535 H 428.142 -0.597882 -0.304594 0
M  V30 4536 H 430.686 -2.02105 -0.312035 0
M  V30 4537 H 428.841 -2.81019 -2.66659 0
M  V30 4538 H 429.255 -4.88781 -1.90246 0
M  V30 4539 H 430.729 -4.27066 -3.49741 0
M  V30 4540 H 431.206 -2.57549 -3.5576 0
M  V30 4541 H 431.812 -3.61197 -2.24536 0
M  V30 4542 N 430.127 0.543554 -1.4793 0
M  V30 4543 C 431.375 1.29752 -1.54948 0
M  V30 4544 C 431.696 1.93764 -0.219242 0
M  V30 4545 O 430.966 1.80639 0.75805 0
M  V30 4546 H 429.546 0.481874 -0.570795 0
M  V30 4547 H 432.208 0.633636 -1.84312 0
M  V30 4548 H 431.304 2.08392 -2.32334 0
M  V30 4549 N 431.605 1.3629 0.791371 0
M  V30 4550 C 432.515 1.32606 1.93527 0
M  V30 4551 C 433.531 0.228541 1.72493 0
M  V30 4552 O 434.707 0.460571 1.96063 0
M  V30 4553 C 431.772 1.11271 3.28359 0
M  V30 4554 C 430.833 2.3048 3.62185 0
M  V30 4555 C 430.066 2.10154 4.90583 0
M  V30 4556 O 430.289 1.07572 5.60165 0
M  V30 4557 O 429.223 2.97884 5.23019 0
M  V30 4558 H 433.049 2.28909 1.99585 0
M  V30 4559 H 430.634 1.16818 0.931344 0
M  V30 4560 H 432.516 1.01283 4.09047 0
M  V30 4561 H 431.191 0.180292 3.23198 0
M  V30 4562 H 430.098 2.46036 2.81811 0
M  V30 4563 H 431.431 3.22221 3.72068 0
M  V30 4564 N 433.083 -1.0153 1.20538 0
M  V30 4565 C 434.332 -1.74558 1.01057 0
M  V30 4566 C 434.645 -1.90168 -0.457756 0
M  V30 4567 O 435.851 -2.60301 -0.771722 0
M  V30 4568 C 434.307 -3.13963 1.75941 0
M  V30 4569 C 433.915 -3.06361 3.26875 0
M  V30 4570 C 435.659 -3.91191 1.64832 0
M  V30 4571 C 433.566 -4.40782 3.94291 0
M  V30 4572 H 432.496 -0.654417 0.374505 0
M  V30 4573 H 435.147 -1.13521 1.44171 0
M  V30 4574 H 433.529 -3.75549 1.25614 0
M  V30 4575 H 434.703 -2.54074 3.84425 0
M  V30 4576 H 433.018 -2.42625 3.38411 0
M  V30 4577 H 435.615 -4.90644 2.12539 0
M  V30 4578 H 435.958 -4.11884 0.604745 0
M  V30 4579 H 436.491 -3.36236 2.12579 0
M  V30 4580 H 433.23 -4.25292 4.98805 0
M  V30 4581 H 432.75 -4.9307 3.41529 0
M  V30 4582 H 434.429 -5.09621 3.98617 0
M  V30 4583 N 434.561 -1.01147 -1.20859 0
M  V30 4584 C 435.494 -0.522108 -2.22147 0
M  V30 4585 C 436.472 0.427686 -1.56874 0
M  V30 4586 O 437.656 0.34889 -1.85243 0
M  V30 4587 C 434.783 0.240819 -3.37843 0
M  V30 4588 C 433.829 -0.657752 -4.21398 0
M  V30 4589 S 434.662 -2.12393 -4.91578 0
M  V30 4590 C 435.818 -1.37102 -6.10699 0
M  V30 4591 H 436.051 -1.38035 -2.63313 0
M  V30 4592 H 433.584 -0.819941 -1.30829 0
M  V30 4593 H 435.542 0.674908 -4.04914 0
M  V30 4594 H 434.203 1.07457 -2.95147 0
M  V30 4595 H 433.396 -0.0697456 -5.03952 0
M  V30 4596 H 432.998 -1.0294 -3.59555 0
M  V30 4597 H 435.29 -0.648315 -6.74391 0
M  V30 4598 H 436.233 -2.17252 -6.73949 0
M  V30 4599 H 436.641 -0.876154 -5.57659 0
M  V30 4600 N 436.039 1.36541 -0.78704 0
M  V30 4601 C 437.316 1.9355 -0.282424 0
M  V30 4602 C 437.696 1.71919 1.22503 0
M  V30 4603 O 437.044 1.07677 2.01539 0
M  V30 4604 C 437.254 3.4246 -0.672462 0
M  V30 4605 C 438.602 4.19582 -0.650863 0
M  V30 4606 O 439.626 3.50889 -0.612789 0
M  V30 4607 O 438.485 5.42106 -0.691623 0
M  V30 4608 H 435.579 0.824091 -0.0693 0
M  V30 4609 H 438.125 1.45736 -0.869423 0
M  V30 4610 H 436.897 3.51851 -1.71221 0
M  V30 4611 H 436.52 3.97556 -0.0592211 0
M  V30 4612 N 437.518 0.538854 1.48102 0
M  V30 4613 C 438.466 -0.232325 2.31437 0
M  V30 4614 C 439.46 -0.927004 1.41785 0
M  V30 4615 O 440.666 -0.850378 1.58646 0
M  V30 4616 H 437.041 -0.0937916 0.746128 0
M  V30 4617 H 439.012 0.489986 2.9435 0
M  V30 4618 C 437.761 -1.26074 3.24038 0
M  V30 4619 H 437.084 -0.735609 3.92974 0
M  V30 4620 H 438.524 -1.77157 3.85216 0
M  V30 4621 C 436.983 -2.29902 2.46265 0
M  V30 4622 O 437.513 -3.36502 2.19384 0
M  V30 4623 N 435.719 -2.03348 2.07601 0
M  V30 4624 H 435.266 -1.16675 2.29662 0
M  V30 4625 H 435.224 -2.73038 1.55877 0
M  V30 4626 N 438.996 -1.55193 0.274407 0
M  V30 4627 C 439.926 -2.25471 -0.607032 0
M  V30 4628 C 440.907 -1.24461 -1.15946 0
M  V30 4629 O 442.092 -1.53179 -1.19373 0
M  V30 4630 C 439.222 -2.97526 -1.79153 0
M  V30 4631 C 438.176 -4.05459 -1.37067 0
M  V30 4632 C 437.502 -4.65084 -2.6382 0
M  V30 4633 C 438.802 -5.19691 -0.521389 0
M  V30 4634 H 440.496 -2.99393 -0.0209343 0
M  V30 4635 H 438.042 -1.43997 -0.00862866 0
M  V30 4636 H 439.995 -3.45402 -2.41404 0
M  V30 4637 H 438.719 -2.21138 -2.40344 0
M  V30 4638 H 437.378 -3.58393 -0.771355 0
M  V30 4639 H 437.026 -3.85365 -3.23268 0
M  V30 4640 H 436.726 -5.37961 -2.36372 0
M  V30 4641 H 438.25 -5.15708 -3.26921 0
M  V30 4642 H 439.664 -5.63623 -1.04889 0
M  V30 4643 H 438.061 -5.99126 -0.341825 0
M  V30 4644 H 439.131 -4.82713 0.46 0
M  V30 4645 N 440.474 -0.00167713 -1.576 0
M  V30 4646 C 441.407 1.02317 -2.03977 0
M  V30 4647 C 442.385 1.33381 -0.929963 0
M  V30 4648 O 443.569 1.45517 -1.19822 0
M  V30 4649 C 440.696 2.35035 -2.43878 0
M  V30 4650 C 439.742 2.19621 -3.65607 0
M  V30 4651 S 440.575 1.52068 -5.13455 0
M  V30 4652 C 441.731 2.86212 -5.56627 0
M  V30 4653 H 441.964 0.628285 -2.90585 0
M  V30 4654 H 439.497 0.209239 -1.52976 0
M  V30 4655 H 441.455 3.11345 -2.67534 0
M  V30 4656 H 440.116 2.71663 -1.57665 0
M  V30 4657 H 439.309 3.1767 -3.91282 0
M  V30 4658 H 438.911 1.51455 -3.41961 0
M  V30 4659 H 441.203 3.82509 -5.59189 0
M  V30 4660 H 442.146 2.65235 -6.56549 0
M  V30 4661 H 442.554 2.90199 -4.84195 0
M  V30 4662 N 441.952 1.55251 0.271103 0
M  V30 4663 C 442.882 1.9127 1.33933 0
M  V30 4664 C 443.863 0.77478 1.5143 0
M  V30 4665 O 445.048 1.03307 1.64442 0
M  V30 4666 C 442.178 2.18627 2.69851 0
M  V30 4667 C 441.132 3.34442 2.67081 0
M  V30 4668 C 440.458 3.47284 4.06569 0
M  V30 4669 C 441.758 4.70784 2.26185 0
M  V30 4670 H 443.452 2.80744 1.04035 0
M  V30 4671 H 440.998 1.35077 0.499017 0
M  V30 4672 H 442.951 2.42413 3.44694 0
M  V30 4673 H 441.675 1.25955 3.01335 0
M  V30 4674 H 440.334 3.10627 1.94695 0
M  V30 4675 H 439.982 2.52074 4.35279 0
M  V30 4676 H 439.682 4.25152 4.0561 0
M  V30 4677 H 441.206 3.73363 4.83148 0
M  V30 4678 H 442.62 4.94102 2.90751 0
M  V30 4679 H 441.017 5.51582 2.36384 0
M  V30 4680 H 442.087 4.69478 1.21319 0
M  V30 4681 N 443.43 -0.535701 1.48216 0
M  V30 4682 C 444.34 -1.66785 1.64985 0
M  V30 4683 C 445.356 -1.65654 0.532414 0
M  V30 4684 O 446.532 -1.8471 0.80275 0
M  V30 4685 C 443.597 -3.0326 1.68031 0
M  V30 4686 C 442.658 -3.1529 2.9136 0
M  V30 4687 C 441.891 -4.45255 2.94252 0
M  V30 4688 O 442.114 -5.32011 2.05719 0
M  V30 4689 O 441.048 -4.6153 3.86359 0
M  V30 4690 H 444.874 -1.55576 2.60825 0
M  V30 4691 H 442.459 -0.70815 1.31551 0
M  V30 4692 H 444.341 -3.84436 1.72589 0
M  V30 4693 H 443.016 -3.14805 0.753628 0
M  V30 4694 H 441.923 -2.3343 2.92337 0
M  V30 4695 H 443.256 -3.08658 3.83394 0
M  V30 4696 N 444.908 -1.36708 -0.784132 0
M  V30 4697 C 445.871 -1.31307 -1.87859 0
M  V30 4698 C 446.871 -0.219654 -1.59293 0
M  V30 4699 O 448.061 -0.47476 -1.67606 0
M  V30 4700 C 445.193 -1.03679 -3.24751 0
M  V30 4701 H 446.386 -2.28647 -1.94064 0
M  V30 4702 H 443.939 -1.21558 -0.98252 0
M  V30 4703 H 444.674 -0.0681936 -3.24228 0
M  V30 4704 H 444.459 -1.82811 -3.46876 0
M  V30 4705 H 445.949 -1.02518 -4.04821 0
M  V30 4706 N 446.386 1.0089 -1.21074 0
M  V30 4707 C 447.634 1.74262 -1.02358 0
M  V30 4708 C 447.955 1.89869 0.444393 0
M  V30 4709 O 447.225 1.44677 1.32081 0
M  V30 4710 H 445.805 0.645615 -0.375754 0
M  V30 4711 H 448.467 1.21596 -1.52317 0
M  V30 4712 H 447.563 2.74328 -1.4883 0
M  V30 4713 N 447.864 1.01787 1.20321 0
M  V30 4714 C 449.141 0.622978 1.85414 0
M  V30 4715 C 449.521 -0.898887 1.91006 0
M  V30 4716 O 448.869 -1.79112 1.41884 0
M  V30 4717 C 449.079 1.27226 3.24984 0
M  V30 4718 C 450.427 1.3885 4.01255 0
M  V30 4719 O 451.451 1.22857 3.34342 0
M  V30 4720 O 450.31 1.64705 5.2109 0
M  V30 4721 H 447.404 0.215116 0.798533 0
M  V30 4722 H 449.95 1.11533 1.27901 0
M  V30 4723 H 448.722 2.31209 3.15687 0
M  V30 4724 H 448.345 0.767069 3.90131 0
M  V30 4725 N 449.342 -1.36122 0.79427 0
M  V30 4726 C 450.619 -1.93398 0.292685 0
M  V30 4727 C 450.999 -1.72567 -1.21589 0
M  V30 4728 O 450.347 -1.08745 -2.00965 0
M  V30 4729 C 450.557 -3.42099 0.690614 0
M  V30 4730 C 451.905 -4.19231 0.673105 0
M  V30 4731 O 452.929 -3.50559 0.631389 0
M  V30 4732 O 451.788 -5.41732 0.720362 0
M  V30 4733 H 448.882 -0.823712 0.0736693 0
M  V30 4734 H 451.428 -1.45273 0.87714 0
M  V30 4735 H 450.2 -3.50938 1.73085 0
M  V30 4736 H 449.823 -3.97519 0.0803036 0
M  V30 4737 N 450.82 -0.546701 -1.47814 0
M  V30 4738 C 451.783 0.196287 -2.28358 0
M  V30 4739 C 452.783 0.852437 -1.36346 0
M  V30 4740 O 453.973 0.709913 -1.59078 0
M  V30 4741 C 451.105 1.28579 -3.15722 0
M  V30 4742 H 452.298 -0.511086 -2.95513 0
M  V30 4743 H 449.851 -0.303248 -1.5333 0
M  V30 4744 H 450.586 2.0259 -2.53235 0
M  V30 4745 H 450.371 0.820229 -3.83425 0
M  V30 4746 H 451.861 1.80793 -3.76435 0
M  V30 4747 N 452.299 1.55045 -0.282633 0
M  V30 4748 C 453.547 1.99365 0.331334 0
M  V30 4749 C 453.868 1.1725 1.55812 0
M  V30 4750 O 453.138 0.263871 1.94115 0
M  V30 4751 H 451.718 0.736397 0.125414 0
M  V30 4752 H 454.38 1.90964 -0.389711 0
M  V30 4753 H 453.476 3.0596 0.616036 0
M  V30 4754 N 453.777 0.010035 1.57597 0
M  V30 4755 C 454.724 -0.978122 2.09049 0
M  V30 4756 C 455.694 -1.33509 0.988159 0
M  V30 4757 O 456.879 -1.43172 1.26121 0
M  V30 4758 C 454.019 -2.26158 2.60666 0
M  V30 4759 C 453.132 -1.96275 3.84838 0
M  V30 4760 C 452.267 -3.18776 4.24918 0
M  V30 4761 C 451.306 -2.84625 5.41899 0
M  V30 4762 N 450.443 -3.99693 5.77226 0
M  V30 4763 H 455.283 -0.532431 2.93205 0
M  V30 4764 H 452.82 -0.251234 1.44939 0
M  V30 4765 H 454.778 -3.01202 2.88675 0
M  V30 4766 H 453.408 -2.68378 1.79369 0
M  V30 4767 H 452.46 -1.11555 3.63675 0
M  V30 4768 H 453.772 -1.67111 4.69974 0
M  V30 4769 H 452.926 -4.02157 4.54262 0
M  V30 4770 H 451.665 -3.51087 3.38511 0
M  V30 4771 H 450.67 -1.99653 5.12268 0
M  V30 4772 H 451.895 -2.53551 6.29991 0
M  V30 4773 H 449.841 -4.31882 4.93776 0
M  V30 4774 H 449.758 -3.74087 6.56959 0
M  V30 4775 H 451.026 -4.83834 6.11167 0
M  V30 4776 N 455.255 -1.55392 -0.262866 0
M  V30 4777 C 456.501 -1.76737 -0.99458 0
M  V30 4778 C 456.834 -0.572453 -1.85571 0
M  V30 4779 O 456.109 0.429732 -1.89693 0
M  V30 4780 C 456.392 -3.07824 -1.8686 0
M  V30 4781 C 456.245 -4.3769 -1.03672 0
M  V30 4782 C 457.564 -3.35021 -2.85393 0
M  V30 4783 H 454.683 -0.643005 -0.360157 0
M  V30 4784 H 457.325 -1.88126 -0.266216 0
M  V30 4785 H 455.475 -2.98245 -2.48962 0
M  V30 4786 H 457.147 -4.59238 -0.43563 0
M  V30 4787 H 455.39 -4.32461 -0.340513 0
M  V30 4788 H 456.061 -5.25759 -1.6817 0
M  V30 4789 H 458.537 -3.44458 -2.33426 0
M  V30 4790 H 457.413 -4.27989 -3.43681 0
M  V30 4791 H 457.674 -2.55153 -3.61039 0
M  V30 4792 N 456.733 0.527833 -1.48498 0
M  V30 4793 C 457.68 1.6322 -1.6318 0
M  V30 4794 C 458.65 1.59199 -0.473815 0
M  V30 4795 O 459.835 1.77591 -0.697563 0
M  V30 4796 C 456.975 3.01474 -1.67951 0
M  V30 4797 C 456.088 3.15713 -2.94871 0
M  V30 4798 C 455.223 4.44539 -2.90789 0
M  V30 4799 C 454.262 4.52315 -4.12404 0
M  V30 4800 N 453.399 5.72533 -4.06387 0
M  V30 4801 H 458.239 1.50011 -2.57489 0
M  V30 4802 H 455.776 0.730298 -1.27691 0
M  V30 4803 H 457.734 3.81572 -1.68698 0
M  V30 4804 H 456.364 3.1345 -0.771306 0
M  V30 4805 H 455.416 2.28854 -3.03859 0
M  V30 4806 H 456.728 3.1732 -3.8485 0
M  V30 4807 H 455.882 5.3293 -2.89949 0
M  V30 4808 H 454.621 4.45457 -1.98542 0
M  V30 4809 H 453.626 3.62331 -4.13517 0
M  V30 4810 H 454.851 4.53134 -5.05812 0
M  V30 4811 H 452.797 5.74344 -3.16962 0
M  V30 4812 H 452.714 5.75643 -4.90073 0
M  V30 4813 H 453.982 6.63204 -4.0961 0
M  V30 4814 N 458.211 1.37122 0.776871 0
M  V30 4815 C 459.457 1.3325 1.53675 0
M  V30 4816 C 459.812 -0.0839891 1.92217 0
M  V30 4817 O 459.105 -1.04145 1.60824 0
M  V30 4818 C 459.299 2.20068 2.81611 0
M  V30 4819 C 459.128 3.70016 2.55574 0
M  V30 4820 C 457.898 4.39144 2.4996 0
M  V30 4821 C 460.096 4.62996 2.23917 0
M  V30 4822 N 458.078 5.74663 2.15953 0
M  V30 4823 C 459.449 5.86854 2.00005 0
M  V30 4824 C 461.504 4.51433 2.1003 0
M  V30 4825 C 460.207 7.00446 1.63609 0
M  V30 4826 C 462.233 5.64905 1.75033 0
M  V30 4827 C 461.595 6.8781 1.51977 0
M  V30 4828 H 457.694 0.542878 0.562856 0
M  V30 4829 H 460.278 1.72295 0.906784 0
M  V30 4830 H 458.449 1.83248 3.42454 0
M  V30 4831 H 460.181 2.07492 3.47461 0
M  V30 4832 H 456.936 3.92088 2.65639 0
M  V30 4833 H 457.36 6.46268 2.0166 0
M  V30 4834 H 462.002 3.56987 2.26539 0
M  V30 4835 H 459.72 7.94831 1.45837 0
M  V30 4836 H 463.306 5.57926 1.64952 0
M  V30 4837 H 462.186 7.74126 1.25296 0
M  V30 4838 N 459.689 -1.00246 1.21608 0
M  V30 4839 C 460.935 -1.74319 1.03638 0
M  V30 4840 C 461.268 -1.89408 -0.428749 0
M  V30 4841 O 460.543 -1.43026 -1.3181 0
M  V30 4842 C 460.826 -3.15431 1.73711 0
M  V30 4843 C 460.679 -3.08049 3.27759 0
M  V30 4844 C 461.998 -4.14407 1.48173 0
M  V30 4845 H 459.117 -0.632741 0.377899 0
M  V30 4846 H 461.759 -1.16853 1.49818 0
M  V30 4847 H 459.909 -3.64493 1.34452 0
M  V30 4848 H 461.581 -2.66681 3.76403 0
M  V30 4849 H 459.824 -2.45088 3.57931 0
M  V30 4850 H 460.495 -4.07862 3.71958 0
M  V30 4851 H 462.971 -3.74061 1.82258 0
M  V30 4852 H 461.847 -5.11279 1.99713 0
M  V30 4853 H 462.108 -4.40174 0.412273 0
M  V30 4854 N 461.167 -1.02423 -1.1978 0
M  V30 4855 C 462.444 -0.632802 -1.85081 0
M  V30 4856 C 462.824 0.888745 -1.9148 0
M  V30 4857 O 462.172 1.78357 -1.42832 0
M  V30 4858 C 462.382 -1.28947 -3.24305 0
M  V30 4859 C 463.73 -1.40976 -4.00513 0
M  V30 4860 O 464.754 -1.24628 -3.33686 0
M  V30 4861 O 463.613 -1.67467 -5.20209 0
M  V30 4862 H 460.707 -0.219348 -0.79738 0
M  V30 4863 H 463.253 -1.12209 -1.27307 0
M  V30 4864 H 462.025 -2.3288 -3.14456 0
M  V30 4865 H 461.648 -0.787748 -3.89718 0
M  V30 4866 N 462.645 1.35699 -0.801477 0
M  V30 4867 C 463.894 1.98165 -0.375979 0
M  V30 4868 C 464.207 1.64306 1.06127 0
M  V30 4869 O 465.413 2.20097 1.58964 0
M  V30 4870 C 463.869 3.54497 -0.621305 0
M  V30 4871 C 463.477 3.9727 -2.07076 0
M  V30 4872 C 465.221 4.23697 -0.26091 0
M  V30 4873 C 463.128 5.46427 -2.26211 0
M  V30 4874 H 462.058 0.741478 -0.136844 0
M  V30 4875 H 464.709 1.54834 -0.984814 0
M  V30 4876 H 463.091 3.95958 0.0574112 0
M  V30 4877 H 464.265 3.66974 -2.78687 0
M  V30 4878 H 462.58 3.40943 -2.39054 0
M  V30 4879 H 465.177 5.33334 -0.381994 0
M  V30 4880 H 465.52 4.0869 0.792344 0
M  V30 4881 H 466.053 3.87639 -0.893339 0
M  V30 4882 H 462.792 5.66396 -3.29963 0
M  V30 4883 H 462.312 5.78309 -1.59119 0
M  V30 4884 H 463.991 6.12819 -2.07513 0
M  V30 4885 N 464.123 0.554532 1.47522 0
M  V30 4886 C 465.071 -0.207765 2.3167 0
M  V30 4887 C 466.065 -0.911914 1.4276 0
M  V30 4888 O 467.271 -0.833504 1.59539 0
M  V30 4889 H 463.646 -0.0858726 0.747081 0
M  V30 4890 H 465.617 0.521178 2.93813 0
M  V30 4891 C 464.366 -1.2263 3.25357 0
M  V30 4892 H 463.689 -0.693887 3.93732 0
M  V30 4893 H 465.129 -1.73062 3.87073 0
M  V30 4894 C 463.588 -2.27278 2.4869 0
M  V30 4895 O 464.118 -3.34156 2.22941 0
M  V30 4896 N 462.324 -2.01134 2.09746 0
M  V30 4897 H 461.871 -1.14232 2.30887 0
M  V30 4898 H 461.829 -2.71369 1.58765 0
M  V30 4899 N 465.601 -1.54893 0.290851 0
M  V30 4900 C 466.878 -1.91991 -0.373989 0
M  V30 4901 C 467.258 -1.21694 -1.72493 0
M  V30 4902 O 466.606 -0.34917 -2.25816 0
M  V30 4903 C 466.816 -3.45419 -0.498703 0
M  V30 4904 C 468.164 -4.1748 -0.774298 0
M  V30 4905 O 469.188 -3.51398 -0.582908 0
M  V30 4906 O 468.047 -5.3445 -1.14129 0
M  V30 4907 H 465.141 -0.800593 -0.207315 0
M  V30 4908 H 467.687 -1.66297 0.338164 0
M  V30 4909 H 466.459 -3.88688 0.451392 0
M  V30 4910 H 466.082 -3.77117 -1.25972 0
M  V30 4911 N 467.08 -0.0183926 -1.57589 0
M  V30 4912 C 468.027 0.967022 -2.09565 0
M  V30 4913 C 468.997 1.32983 -0.995225 0
M  V30 4914 O 470.182 1.42501 -1.26878 0
M  V30 4915 C 467.322 2.24772 -2.61861 0
M  V30 4916 C 466.435 1.94232 -3.85873 0
M  V30 4917 C 465.57 3.16518 -4.26603 0
M  V30 4918 C 464.609 2.81748 -5.43401 0
M  V30 4919 N 463.746 3.96626 -5.79338 0
M  V30 4920 H 468.586 0.516874 -2.93483 0
M  V30 4921 H 466.123 0.243544 -1.4507 0
M  V30 4922 H 468.081 2.99667 -2.90268 0
M  V30 4923 H 466.711 2.67423 -1.8079 0
M  V30 4924 H 465.763 1.09625 -3.64262 0
M  V30 4925 H 467.075 1.64616 -4.70853 0
M  V30 4926 H 466.229 3.99743 -4.56389 0
M  V30 4927 H 464.968 3.49286 -3.40368 0
M  V30 4928 H 463.973 1.96933 -5.1332 0
M  V30 4929 H 465.198 2.50207 -6.31327 0
M  V30 4930 H 463.144 4.29257 -4.96059 0
M  V30 4931 H 463.061 3.70598 -6.58933 0
M  V30 4932 H 464.329 4.80586 -6.13724 0
M  V30 4933 N 468.558 1.5553 0.254621 0
M  V30 4934 C 469.488 1.9268 1.31897 0
M  V30 4935 C 470.469 0.790797 1.506 0
M  V30 4936 O 471.654 1.05045 1.63337 0
M  V30 4937 C 468.784 2.21477 2.67517 0
M  V30 4938 C 467.738 3.37256 2.63519 0
M  V30 4939 C 467.064 3.51576 4.02862 0
M  V30 4940 C 468.364 4.73157 2.21179 0
M  V30 4941 H 470.058 2.81832 1.01051 0
M  V30 4942 H 467.604 1.35599 0.484662 0
M  V30 4943 H 469.557 2.46055 3.42104 0
M  V30 4944 H 468.281 1.29144 2.99982 0
M  V30 4945 H 466.94 3.12675 1.9139 0
M  V30 4946 H 466.588 2.56676 4.32581 0
M  V30 4947 H 466.288 4.2943 4.01078 0
M  V30 4948 H 467.812 3.78467 4.79161 0
M  V30 4949 H 469.226 4.97158 2.85494 0
M  V30 4950 H 467.623 5.54058 2.30521 0
M  V30 4951 H 468.693 4.70739 1.16332 0
M  V30 4952 N 470.036 -0.519951 1.48776 0
M  V30 4953 C 470.983 -1.62352 1.64044 0
M  V30 4954 C 471.953 -1.58945 0.482251 0
M  V30 4955 O 473.138 -1.77219 0.706971 0
M  V30 4956 C 470.278 -3.00579 1.69547 0
M  V30 4957 C 469.391 -3.14145 2.96541 0
M  V30 4958 C 468.526 -4.42991 2.93142 0
M  V30 4959 C 467.565 -4.50122 4.14797 0
M  V30 4960 N 466.702 -5.7037 4.09418 0
M  V30 4961 H 471.542 -1.48643 2.58281 0
M  V30 4962 H 469.079 -0.723516 1.28077 0
M  V30 4963 H 471.037 -3.80671 1.70719 0
M  V30 4964 H 469.667 -3.13036 0.787918 0
M  V30 4965 H 468.719 -2.27239 3.05068 0
M  V30 4966 H 470.031 -3.15275 3.86527 0
M  V30 4967 H 469.185 -5.31385 2.92772 0
M  V30 4968 H 467.924 -4.44398 2.00902 0
M  V30 4969 H 466.929 -3.60133 4.15433 0
M  V30 4970 H 468.154 -4.50445 5.08208 0
M  V30 4971 H 466.1 -5.72655 3.20004 0
M  V30 4972 H 466.017 -5.73036 4.93119 0
M  V30 4973 H 467.285 -6.61023 4.13121 0
M  V30 4974 N 471.514 -1.37532 -0.769588 0
M  V30 4975 C 472.444 -1.36172 -1.89682 0
M  V30 4976 C 473.425 -0.23001 -1.68538 0
M  V30 4977 O 474.61 -0.43069 -1.89364 0
M  V30 4978 C 471.74 -1.1701 -3.26995 0
M  V30 4979 C 470.694 -2.27216 -3.62708 0
M  V30 4980 C 470.02 -1.93174 -4.98586 0
M  V30 4981 C 471.32 -3.6941 -3.69234 0
M  V30 4982 H 473.014 -2.30499 -1.91078 0
M  V30 4983 H 470.56 -1.10953 -0.917902 0
M  V30 4984 H 472.513 -1.14688 -4.05493 0
M  V30 4985 H 471.237 -0.191395 -3.26039 0
M  V30 4986 H 469.896 -2.28697 -2.86519 0
M  V30 4987 H 469.544 -0.938281 -4.94171 0
M  V30 4988 H 469.244 -2.66973 -5.23449 0
M  V30 4989 H 470.768 -1.92443 -5.79481 0
M  V30 4990 H 472.182 -3.70047 -4.37879 0
M  V30 4991 H 470.579 -4.4228 -4.05597 0
M  V30 4992 H 471.649 -4.0288 -2.69844 0
M  V30 4993 N 472.992 0.995999 -1.22138 0
M  V30 4994 C 474.222 1.76809 -1.06874 0
M  V30 4995 C 474.63 1.85265 0.383866 0
M  V30 4996 O 473.973 1.31969 1.27789 0
M  V30 4997 C 474.035 3.2186 -1.60144 0
M  V30 4998 C 473.699 3.36958 -3.0872 0
M  V30 4999 C 474.696 3.2452 -4.0618 0
M  V30 5000 C 472.381 3.62109 -3.48112 0
M  V30 5001 C 474.375 3.37013 -5.41019 0
M  V30 5002 C 472.062 3.74243 -4.831 0
M  V30 5003 C 473.06 3.61702 -5.79362 0
M  V30 5004 O 472.748 3.73436 -7.119 0
M  V30 5005 H 472.48 0.562207 -0.375365 0
M  V30 5006 H 475.034 1.26113 -1.62125 0
M  V30 5007 H 473.264 3.73734 -0.992981 0
M  V30 5008 H 474.953 3.80775 -1.40589 0
M  V30 5009 H 475.719 3.05004 -3.77091 0
M  V30 5010 H 471.598 3.70949 -2.73712 0
M  V30 5011 H 475.142 3.27141 -6.16137 0
M  V30 5012 H 471.039 3.93266 -5.11872 0
M  V30 5013 H 471.807 3.90328 -7.19435 0
M  V30 5014 N 474.47 1.03057 1.19235 0
M  V30 5015 C 475.433 0.617418 2.20727 0
M  V30 5016 C 476.433 -0.319856 1.57587 0
M  V30 5017 O 477.623 -0.106633 1.73873 0
M  V30 5018 C 474.755 -0.096296 3.40764 0
M  V30 5019 H 475.948 1.51544 2.58794 0
M  V30 5020 H 473.501 0.821949 1.32942 0
M  V30 5021 H 474.236 -1.00859 3.08217 0
M  V30 5022 H 474.021 0.577217 3.87828 0
M  V30 5023 H 475.511 -0.372219 4.15938 0
M  V30 5024 N 475.948 -1.35272 0.808662 0
M  V30 5025 C 477.173 -2.03477 0.401475 0
M  V30 5026 C 477.598 -1.60537 -0.980279 0
M  V30 5027 O 476.956 -0.78304 -1.63518 0
M  V30 5028 C 477.004 -3.57181 0.495354 0
M  V30 5029 O 476.108 -4.09474 -0.490397 0
M  V30 5030 H 475.449 -0.642561 0.167366 0
M  V30 5031 H 477.979 -1.72824 1.09512 0
M  V30 5032 H 477.989 -4.06356 0.365912 0
M  V30 5033 H 476.664 -3.87784 1.5032 0
M  V30 5034 H 475.241 -3.71516 -0.321023 0
M  V30 5035 N 477.426 -0.562348 -1.47226 0
M  V30 5036 C 478.376 0.202967 -2.27095 0
M  V30 5037 C 479.36 0.880611 -1.34663 0
M  V30 5038 O 480.552 0.778069 -1.58981 0
M  V30 5039 C 477.681 1.22906 -3.20545 0
M  V30 5040 C 476.767 0.554566 -4.20459 0
M  V30 5041 N 477.158 -0.378295 -5.04383 0
M  V30 5042 C 475.456 0.807854 -4.38623 0
M  V30 5043 C 476.157 -0.770583 -5.76573 0
M  V30 5044 N 475.133 -0.124263 -5.43458 0
M  V30 5045 H 478.935 -0.514196 -2.89367 0
M  V30 5046 H 476.449 -0.382655 -1.57827 0
M  V30 5047 H 478.446 1.79134 -3.76453 0
M  V30 5048 H 477.106 1.94726 -2.59831 0
M  V30 5049 H 478.117 -0.75274 -5.124 0
M  V30 5050 H 474.794 1.51418 -3.89075 0
M  V30 5051 H 476.184 -1.53742 -6.54074 0
M  V30 5052 N 478.904 1.54736 -0.299062 0
M  V30 5053 C 480.129 2.04975 0.316254 0
M  V30 5054 C 480.554 1.17501 1.46885 0
M  V30 5055 O 479.912 0.178678 1.80417 0
M  V30 5056 C 479.96 3.52672 0.751997 0
M  V30 5057 O 479.064 3.68226 1.85697 0
M  V30 5058 H 478.405 0.661126 0.0617175 0
M  V30 5059 H 480.935 1.99805 -0.440341 0
M  V30 5060 H 480.945 3.94488 1.04133 0
M  V30 5061 H 479.62 4.158 -0.0911482 0
M  V30 5062 H 478.197 3.38316 1.56834 0
M  V30 5063 N 480.382 0.0267497 1.57577 0
M  V30 5064 C 481.314 -0.984594 2.06974 0
M  V30 5065 C 482.327 -1.29032 0.992705 0
M  V30 5066 O 483.516 -1.25539 1.26895 0
M  V30 5067 C 480.616 -2.31262 2.47732 0
M  V30 5068 C 479.789 -2.1924 3.78487 0
M  V30 5069 C 478.848 -3.34956 4.05821 0
M  V30 5070 O 477.874 -3.11948 4.76106 0
M  V30 5071 N 479.076 -4.58672 3.55809 0
M  V30 5072 H 481.841 -0.563143 2.94362 0
M  V30 5073 H 479.402 -0.160061 1.61107 0
M  V30 5074 H 481.394 -3.07496 2.63112 0
M  V30 5075 H 479.964 -2.65056 1.65723 0
M  V30 5076 H 479.184 -1.27747 3.72927 0
M  V30 5077 H 480.472 -2.08409 4.64158 0
M  V30 5078 H 479.87 -4.8026 2.98942 0
M  V30 5079 H 478.427 -5.32083 3.76472 0
M  V30 5080 N 481.861 -1.55662 -0.24637 0
M  V30 5081 C 483.108 -1.77519 -0.974335 0
M  V30 5082 C 483.436 -0.591165 -1.85298 0
M  V30 5083 O 482.691 0.425497 -1.91018 0
M  V30 5084 C 482.99 -3.04885 -1.86494 0
M  V30 5085 C 482.656 -4.36209 -1.14161 0
M  V30 5086 C 481.318 -4.71896 -0.941701 0
M  V30 5087 C 483.67 -5.17391 -0.628957 0
M  V30 5088 C 480.998 -5.86299 -0.216852 0
M  V30 5089 C 483.35 -6.32546 0.0824273 0
M  V30 5090 C 482.014 -6.66853 0.293807 0
M  V30 5091 H 481.284 -0.649588 -0.356535 0
M  V30 5092 H 483.931 -1.89934 -0.244394 0
M  V30 5093 H 482.236 -2.87484 -2.66196 0
M  V30 5094 H 483.933 -3.18994 -2.42989 0
M  V30 5095 H 480.523 -4.08174 -1.30736 0
M  V30 5096 H 484.707 -4.90276 -0.770943 0
M  V30 5097 H 479.963 -6.11385 -0.0426124 0
M  V30 5098 H 484.137 -6.94693 0.487292 0
M  V30 5099 H 481.764 -7.55349 0.857428 0
M  V30 5100 N 483.339 0.512053 -1.4905 0
M  V30 5101 C 484.588 1.26343 -1.57227 0
M  V30 5102 C 484.901 1.93876 -0.259155 0
M  V30 5103 O 486.107 2.70612 -0.219358 0
M  V30 5104 C 484.563 2.29343 -2.77362 0
M  V30 5105 C 484.171 1.67799 -4.15388 0
M  V30 5106 C 485.915 3.05378 -2.94864 0
M  V30 5107 C 483.822 2.68845 -5.2676 0
M  V30 5108 H 482.752 0.475231 -0.585382 0
M  V30 5109 H 485.403 0.53862 -1.75417 0
M  V30 5110 H 483.785 3.04938 -2.52643 0
M  V30 5111 H 484.959 0.982715 -4.50199 0
M  V30 5112 H 483.274 1.04194 -4.03153 0
M  V30 5113 H 485.871 3.80921 -3.75238 0
M  V30 5114 H 486.214 3.62327 -2.05 0
M  V30 5115 H 486.747 2.36898 -3.19569 0
M  V30 5116 H 483.486 2.16692 -6.18647 0
M  V30 5117 H 483.006 3.36647 -4.96416 0
M  V30 5118 H 484.685 3.31487 -5.5563 0
M  V30 5119 N 484.817 1.37938 0.762283 0
M  V30 5120 C 485.764 1.34467 1.87583 0
M  V30 5121 C 486.734 0.208633 1.64785 0
M  V30 5122 O 487.919 0.399494 1.86571 0
M  V30 5123 C 485.059 1.16692 3.24772 0
M  V30 5124 C 484.172 2.39608 3.59461 0
M  V30 5125 C 483.307 2.14631 4.85908 0
M  V30 5126 C 482.346 3.33364 5.13357 0
M  V30 5127 N 481.483 3.07877 6.30996 0
M  V30 5128 H 486.323 2.29669 1.89885 0
M  V30 5129 H 483.86 1.14116 0.928219 0
M  V30 5130 H 485.818 1.04405 4.03925 0
M  V30 5131 H 484.448 0.251333 3.2182 0
M  V30 5132 H 483.5 2.626 2.75219 0
M  V30 5133 H 484.812 3.28128 3.75678 0
M  V30 5134 H 483.966 1.99429 5.72986 0
M  V30 5135 H 482.705 1.23463 4.71814 0
M  V30 5136 H 481.71 3.49094 4.24751 0
M  V30 5137 H 482.935 4.25395 5.29354 0
M  V30 5138 H 480.881 2.19348 6.18241 0
M  V30 5139 H 480.798 3.89944 6.47673 0
M  V30 5140 H 482.066 2.96313 7.20985 0
M  V30 5141 N 486.295 -0.989507 1.22664 0
M  V30 5142 C 487.225 -2.09847 1.02404 0
M  V30 5143 C 488.206 -1.70007 -0.0561303 0
M  V30 5144 O 489.391 -1.93906 0.106748 0
M  V30 5145 C 486.521 -3.41996 0.604663 0
M  V30 5146 C 485.475 -3.95699 1.63115 0
M  V30 5147 C 484.801 -5.23936 1.0675 0
M  V30 5148 C 486.101 -4.25999 3.02196 0
M  V30 5149 H 487.795 -2.27054 1.95158 0
M  V30 5150 H 485.341 -1.09111 0.939727 0
M  V30 5151 H 487.294 -4.1899 0.45002 0
M  V30 5152 H 486.018 -3.24626 -0.35855 0
M  V30 5153 H 484.677 -3.2084 1.77362 0
M  V30 5154 H 484.325 -5.02909 0.0955422 0
M  V30 5155 H 484.025 -5.60833 1.75328 0
M  V30 5156 H 485.549 -6.0356 0.924516 0
M  V30 5157 H 486.963 -4.93777 2.91303 0
M  V30 5158 H 485.36 -4.74076 3.67929 0
M  V30 5159 H 486.43 -3.33636 3.51873 0
M  V30 5160 N 487.773 -1.03688 -1.18687 0
M  V30 5161 C 489.019 -0.739123 -1.88851 0
M  V30 5162 C 489.352 0.731042 -1.79915 0
M  V30 5163 O 488.627 1.53313 -1.19688 0
M  V30 5164 C 488.91 -1.20106 -3.3948 0
M  V30 5165 C 488.763 -2.73304 -3.57246 0
M  V30 5166 C 490.082 -0.788134 -4.32986 0
M  V30 5167 H 487.201 -0.269978 -0.68577 0
M  V30 5168 H 489.843 -1.28822 -1.3966 0
M  V30 5169 H 487.993 -0.733915 -3.81505 0
M  V30 5170 H 489.665 -3.28027 -3.24339 0
M  V30 5171 H 487.908 -3.13313 -3.00029 0
M  V30 5172 H 488.579 -3.00684 -4.62918 0
M  V30 5173 H 491.055 -1.19005 -3.98719 0
M  V30 5174 H 489.931 -1.13915 -5.36949 0
M  V30 5175 H 490.192 0.308988 -4.41019 0
M  V30 5176 N 489.251 1.34841 -0.815825 0
M  V30 5177 C 490.214 2.27959 -0.238185 0
M  V30 5178 C 491.214 1.49983 0.579816 0
M  V30 5179 O 492.404 1.69617 0.396953 0
M  V30 5180 C 489.536 3.34314 0.666876 0
M  V30 5181 H 490.729 2.80558 -1.05958 0
M  V30 5182 H 488.282 1.44852 -0.587156 0
M  V30 5183 H 489.017 2.86916 1.5116 0
M  V30 5184 H 488.802 3.92014 0.0819106 0
M  V30 5185 H 490.292 4.0379 1.06506 0
M  V30 5186 N 490.729 0.570148 1.46925 0
M  V30 5187 C 491.639 -0.173061 2.33961 0
M  V30 5188 C 492.655 -0.898825 1.48987 0
M  V30 5189 O 493.831 -0.864825 1.81887 0
M  V30 5190 C 490.896 -1.18177 3.25937 0
M  V30 5191 C 489.957 -0.462041 4.26806 0
M  V30 5192 C 489.19 -1.4227 5.14388 0
M  V30 5193 O 489.413 -2.65842 5.04662 0
M  V30 5194 O 488.347 -0.940127 5.94513 0
M  V30 5195 H 492.173 0.541216 2.98839 0
M  V30 5196 H 489.758 0.330647 1.45695 0
M  V30 5197 H 491.64 -1.76372 3.82715 0
M  V30 5198 H 490.315 -1.87774 2.63671 0
M  V30 5199 H 489.222 0.161429 3.73752 0
M  V30 5200 H 490.555 0.192719 4.91823 0
M  V30 5201 N 492.207 -1.54576 0.307264 0
M  V30 5202 C 493.154 -2.23751 -0.56604 0
M  V30 5203 C 494.124 -1.22235 -1.12462 0
M  V30 5204 O 495.309 -1.50873 -1.16799 0
M  V30 5205 C 492.449 -2.98661 -1.72903 0
M  V30 5206 C 491.562 -4.14963 -1.20124 0
M  V30 5207 C 490.697 -4.77441 -2.3286 0
M  V30 5208 C 489.736 -5.85875 -1.77247 0
M  V30 5209 N 488.873 -6.42282 -2.8358 0
M  V30 5210 H 493.713 -2.97984 0.0304578 0
M  V30 5211 H 491.25 -1.47076 0.0268015 0
M  V30 5212 H 493.208 -3.40329 -2.41313 0
M  V30 5213 H 491.838 -2.26793 -2.29706 0
M  V30 5214 H 490.89 -3.78193 -0.409198 0
M  V30 5215 H 492.202 -4.93066 -0.754171 0
M  V30 5216 H 491.356 -5.21993 -3.09205 0
M  V30 5217 H 490.095 -3.98684 -2.80896 0
M  V30 5218 H 489.1 -5.40741 -0.993926 0
M  V30 5219 H 490.325 -6.6652 -1.30107 0
M  V30 5220 H 488.271 -5.66406 -3.30939 0
M  V30 5221 H 488.188 -7.1575 -2.43388 0
M  V30 5222 H 489.456 -6.91492 -3.59804 0
M  V30 5223 N 493.685 -0.035106 -1.57561 0
M  V30 5224 C 495.101 0.321334 -1.56332 0
M  V30 5225 C 495.301 1.72509 -1.04129 0
M  V30 5226 O 494.357 2.4287 -0.690694 0
M  V30 5227 C 495.67 0.164469 -3.0025 0
M  V30 5228 C 497.218 0.236786 -3.12103 0
M  V30 5229 C 497.693 0.10864 -4.57871 0
M  V30 5230 N 499.184 0.165433 -4.62904 0
M  V30 5231 C 499.919 0.0901506 -5.73329 0
M  V30 5232 N 499.415 -0.0365606 -6.9279 0
M  V30 5233 N 501.208 0.144572 -5.61914 0
M  V30 5234 H 493.359 -0.952976 -1.89821 0
M  V30 5235 H 495.622 -0.368537 -0.873432 0
M  V30 5236 H 495.328 -0.802746 -3.42416 0
M  V30 5237 H 495.202 0.932194 -3.655 0
M  V30 5238 H 497.589 1.19446 -2.69845 0
M  V30 5239 H 497.67 -0.561419 -2.49563 0
M  V30 5240 H 497.314 -0.845644 -5.00811 0
M  V30 5241 H 497.244 0.925786 -5.18398 0
M  V30 5242 H 499.735 0.263269 -3.76982 0
M  V30 5243 H 500.048 -0.0871487 -7.72751 0
M  V30 5244 H 498.393 -0.0714256 -6.94963 0
M  V30 5245 H 501.584 0.242006 -4.67474 0
M  V30 5246 H 501.757 0.0824413 -6.47948 0
M  V30 5247 N 495.163 1.55791 0.238111 0
M  V30 5248 C 496.44 1.68798 0.98826 0
M  V30 5249 C 496.82 0.577562 2.03045 0
M  V30 5250 O 496.168 -0.41778 2.24648 0
M  V30 5251 C 496.378 3.09454 1.61367 0
M  V30 5252 C 497.726 3.68335 2.11221 0
M  V30 5253 O 498.75 3.1231 1.71292 0
M  V30 5254 O 497.609 4.6657 2.84561 0
M  V30 5255 H 494.703 0.686881 0.460568 0
M  V30 5256 H 497.249 1.68118 0.231202 0
M  V30 5257 H 496.021 3.81726 0.860295 0
M  V30 5258 H 495.644 3.14182 2.4367 0
M  V30 5259 N 496.642 -0.504142 1.49319 0
M  V30 5260 C 497.605 -1.5883 1.65244 0
M  V30 5261 C 498.605 -1.52009 0.524386 0
M  V30 5262 O 499.795 -1.55218 0.79077 0
M  V30 5263 C 496.927 -2.98481 1.64687 0
M  V30 5264 H 498.12 -1.4604 2.61939 0
M  V30 5265 H 495.673 -0.728144 1.38303 0
M  V30 5266 H 496.408 -3.16751 0.695644 0
M  V30 5267 H 496.193 -3.0484 2.46607 0
M  V30 5268 H 497.683 -3.77256 1.79075 0
M  V30 5269 N 498.12 -1.38341 -0.754957 0
M  V30 5270 C 499.07 -1.31964 -1.85929 0
M  V30 5271 C 500.054 -0.204181 -1.59599 0
M  V30 5272 O 501.246 -0.440036 -1.71443 0
M  V30 5273 C 498.375 -1.14565 -3.2362 0
M  V30 5274 C 497.461 -2.30727 -3.55846 0
M  V30 5275 N 497.852 -3.56165 -3.59138 0
M  V30 5276 C 496.15 -2.23249 -3.86104 0
M  V30 5277 C 496.851 -4.32865 -3.88591 0
M  V30 5278 N 495.827 -3.62203 -4.05351 0
M  V30 5279 H 499.629 -2.2694 -1.8675 0
M  V30 5280 H 497.143 -1.31553 -0.952243 0
M  V30 5281 H 499.14 -1.0808 -4.02647 0
M  V30 5282 H 497.8 -0.205212 -3.24051 0
M  V30 5283 H 498.811 -3.89854 -3.40932 0
M  V30 5284 H 495.488 -1.37357 -3.94258 0
M  V30 5285 H 496.878 -5.41504 -3.97773 0
M  V30 5286 N 499.598 0.982988 -1.23187 0
M  V30 5287 C 500.844 1.7273 -1.07405 0
M  V30 5288 C 501.199 1.885 0.385447 0
M  V30 5289 O 500.492 1.4243 1.28157 0
M  V30 5290 C 500.686 3.12736 -1.73006 0
M  V30 5291 C 500.515 3.10621 -3.25184 0
M  V30 5292 C 499.285 3.15957 -3.94334 0
M  V30 5293 C 501.483 2.93992 -4.21987 0
M  V30 5294 N 499.465 3.03701 -5.33516 0
M  V30 5295 C 500.836 2.8987 -5.48065 0
M  V30 5296 C 502.891 2.78457 -4.12754 0
M  V30 5297 C 501.594 2.71804 -6.65969 0
M  V30 5298 C 503.62 2.61754 -5.30319 0
M  V30 5299 C 502.982 2.58328 -6.55321 0
M  V30 5300 H 499.081 0.641279 -0.447533 0
M  V30 5301 H 501.665 1.16664 -1.55877 0
M  V30 5302 H 499.836 3.67026 -1.2707 0
M  V30 5303 H 501.568 3.75786 -1.50224 0
M  V30 5304 H 498.323 3.24034 -3.45397 0
M  V30 5305 H 498.747 3.00855 -6.06478 0
M  V30 5306 H 503.389 2.79898 -3.16886 0
M  V30 5307 H 501.107 2.69108 -7.61975 0
M  V30 5308 H 504.693 2.50702 -5.25014 0
M  V30 5309 H 503.573 2.45564 -7.4476 0
M  V30 5310 N 501.076 1.04316 1.18135 0
M  V30 5311 C 502.301 0.768047 1.92655 0
M  V30 5312 C 502.726 -0.66904 1.758 0
M  V30 5313 O 502.084 -1.46372 1.06981 0
M  V30 5314 C 502.132 1.14239 3.42026 0
M  V30 5315 O 501.236 0.269333 4.1152 0
M  V30 5316 H 500.577 0.282436 0.600937 0
M  V30 5317 H 503.107 1.39367 1.49793 0
M  V30 5318 H 503.117 1.10538 3.92741 0
M  V30 5319 H 501.792 2.18928 3.53615 0
M  V30 5320 H 500.369 0.366175 3.71098 0
M  V30 5321 N 502.554 -1.34406 0.822964 0
M  V30 5322 C 503.464 -2.33298 0.246838 0
M  V30 5323 C 504.48 -1.62625 -0.618797 0
M  V30 5324 O 505.656 -1.94391 -0.526685 0
M  V30 5325 C 502.721 -3.41785 -0.581731 0
M  V30 5326 C 501.782 -4.28206 0.306309 0
M  V30 5327 C 501.015 -5.31512 -0.48281 0
M  V30 5328 O 501.238 -5.43973 -1.71607 0
M  V30 5329 O 500.172 -6.01749 0.134884 0
M  V30 5330 H 503.998 -2.84401 1.06534 0
M  V30 5331 H 501.583 -1.37466 0.585108 0
M  V30 5332 H 503.465 -4.08028 -1.05313 0
M  V30 5333 H 502.14 -2.92925 -1.37756 0
M  V30 5334 H 501.047 -3.64885 0.825199 0
M  V30 5335 H 502.38 -4.80507 1.06649 0
M  V30 5336 N 504.032 -0.577932 -1.46621 0
M  V30 5337 C 505.309 0.00495287 -1.95599 0
M  V30 5338 C 505.689 1.46428 -1.5206 0
M  V30 5339 O 505.037 2.1517 -0.769046 0
M  V30 5340 C 505.247 -0.162114 -3.48623 0
M  V30 5341 C 506.595 -0.0274623 -4.24591 0
M  V30 5342 O 507.619 -0.0907067 -3.56084 0
M  V30 5343 O 506.478 0.1122 -5.46385 0
M  V30 5344 H 503.572 0.0525057 -0.825332 0
M  V30 5345 H 506.118 -0.645914 -1.56927 0
M  V30 5346 H 504.89 -1.17679 -3.73185 0
M  V30 5347 H 504.513 0.525407 -3.94113 0
M  V30 5348 N 505.51 1.54411 -0.315457 0
M  V30 5349 C 506.735 2.05299 0.294496 0
M  V30 5350 C 507.16 1.19052 1.4563 0
M  V30 5351 O 506.518 0.197804 1.80218 0
M  V30 5352 C 506.566 3.5345 0.714549 0
M  V30 5353 O 505.67 3.70175 1.81781 0
M  V30 5354 H 505.011 0.661743 0.0547019 0
M  V30 5355 H 507.541 1.99327 -0.461508 0
M  V30 5356 H 507.551 3.9557 0.999426 0
M  V30 5357 H 506.226 4.1568 -0.135244 0
M  V30 5358 H 504.803 3.3996 1.53236 0
M  V30 5359 N 506.988 0.0434614 1.5754 0
M  V30 5360 C 507.898 -0.94893 2.14552 0
M  V30 5361 C 508.914 -1.34707 1.10136 0
M  V30 5362 O 510.09 -1.42557 1.42266 0
M  V30 5363 C 507.155 -2.208 2.67298 0
M  V30 5364 C 506.216 -1.86893 3.86484 0
M  V30 5365 C 505.449 -3.06797 4.36705 0
M  V30 5366 O 505.672 -4.19921 3.86034 0
M  V30 5367 O 504.606 -2.8826 5.28384 0
M  V30 5368 H 508.432 -0.494099 2.99654 0
M  V30 5369 H 506.017 -0.177989 1.48336 0
M  V30 5370 H 507.899 -2.94686 3.01228 0
M  V30 5371 H 506.574 -2.65436 1.85272 0
M  V30 5372 H 505.481 -1.10347 3.57455 0
M  V30 5373 H 506.814 -1.47062 4.69716 0
M  V30 5374 N 508.466 -1.55915 -0.229846 0
M  V30 5375 C 509.429 -1.90914 -1.26824 0
M  V30 5376 C 510.429 -0.786999 -1.40225 0
M  V30 5377 O 511.619 -1.05484 -1.38632 0
M  V30 5378 C 508.751 -2.15264 -2.64337 0
M  V30 5379 H 509.944 -2.8378 -0.969998 0
M  V30 5380 H 507.497 -1.49069 -0.4699 0
M  V30 5381 H 508.232 -1.24923 -2.99274 0
M  V30 5382 H 508.017 -2.97005 -2.55989 0
M  V30 5383 H 509.507 -2.43467 -3.39284 0
M  V30 5384 N 509.944 0.496216 -1.49584 0
M  V30 5385 C 511.221 1.25755 -1.49816 0
M  V30 5386 C 511.601 2.09859 -0.228572 0
M  V30 5387 O 510.949 2.14449 0.788908 0
M  V30 5388 C 511.159 2.11017 -2.7798 0
M  V30 5389 C 512.507 2.70047 -3.27658 0
M  V30 5390 O 513.531 2.21281 -2.79129 0
M  V30 5391 O 512.39 3.58834 -4.1219 0
M  V30 5392 H 509.484 0.569322 -0.599834 0
M  V30 5393 H 512.03 0.510094 -1.61852 0
M  V30 5394 H 510.802 1.48879 -3.61871 0
M  V30 5395 H 510.425 2.92947 -2.68827 0
M  V30 5396 N 511.423 1.38739 0.74761 0
M  V30 5397 C 512.663 1.36695 1.51966 0
M  V30 5398 C 513.027 -0.0411889 1.91956 0
M  V30 5399 O 514.228 -0.186543 2.68152 0
M  V30 5400 C 512.499 2.30119 2.73459 0
M  V30 5401 S 514.058 2.4615 3.63257 0
M  V30 5402 H 510.876 0.484929 0.519966 0
M  V30 5403 H 513.478 1.7472 0.877104 0
M  V30 5404 H 512.182 3.31312 2.422 0
M  V30 5405 H 511.713 1.93265 3.42655 0
M  V30 5406 H 513.728 1.69001 4.66533 0
M  V30 5407 N 512.901 -0.976442 1.23707 0
M  V30 5408 C 513.851 -2.0544 0.988851 0
M  V30 5409 C 514.835 -1.60762 -0.0665901 0
M  V30 5410 O 516.027 -1.76396 0.14604 0
M  V30 5411 C 513.156 -3.38258 0.586223 0
M  V30 5412 C 512.242 -3.89523 1.67728 0
M  V30 5413 N 512.633 -4.13823 2.90834 0
M  V30 5414 C 510.931 -4.18097 1.55277 0
M  V30 5415 C 511.632 -4.55731 3.61502 0
M  V30 5416 N 510.608 -4.60394 2.8903 0
M  V30 5417 H 514.41 -2.22191 1.92376 0
M  V30 5418 H 511.924 -1.15954 1.13704 0
M  V30 5419 H 513.921 -4.15075 0.389658 0
M  V30 5420 H 512.581 -3.22898 -0.341594 0
M  V30 5421 H 513.592 -4.01529 3.271 0
M  V30 5422 H 510.269 -4.11719 0.692351 0
M  V30 5423 H 511.659 -4.83018 4.67059 0
M  V30 5424 N 514.379 -1.04941 -1.1758 0
M  V30 5425 C 515.342 -0.652456 -2.19717 0
M  V30 5426 C 516.342 0.294745 -1.58076 0
M  V30 5427 O 517.532 0.0789579 -1.74021 0
M  V30 5428 C 514.664 0.0420712 -3.40874 0
M  V30 5429 H 515.857 -1.55642 -2.5635 0
M  V30 5430 H 513.41 -0.842995 -1.31618 0
M  V30 5431 H 514.145 0.95943 -3.09783 0
M  V30 5432 H 513.93 -0.638844 -3.86861 0
M  V30 5433 H 515.42 0.306 -4.16477 0
M  V30 5434 N 515.857 1.33968 -0.830081 0
M  V30 5435 C 516.787 2.31911 -0.271911 0
M  V30 5436 C 517.768 1.58571 0.61556 0
M  V30 5437 O 518.953 1.86514 0.540946 0
M  V30 5438 C 516.083 3.42737 0.561146 0
M  V30 5439 C 515.037 4.27383 -0.229789 0
M  V30 5440 C 514.363 5.29742 0.726463 0
M  V30 5441 C 515.663 5.02 -1.44197 0
M  V30 5442 H 517.357 2.78844 -1.09025 0
M  V30 5443 H 514.903 1.34061 -0.52571 0
M  V30 5444 H 516.856 4.10276 0.961867 0
M  V30 5445 H 515.58 2.94471 1.41261 0
M  V30 5446 H 514.239 3.61456 -0.611964 0
M  V30 5447 H 513.887 4.77736 1.57408 0
M  V30 5448 H 513.587 5.87255 0.20142 0
M  V30 5449 H 515.111 6.00149 1.12489 0
M  V30 5450 H 516.525 5.62355 -1.11488 0
M  V30 5451 H 514.922 5.69122 -1.90317 0
M  V30 5452 H 515.992 4.31281 -2.2164 0
M  V30 5453 O 517.374 0.726383 1.44243 0
M  V30 5454 H 518.065 0.275111 1.91736 0
M  V30 END ATOM
M  V30 BEGIN BOND
M  V30 END BOND
M  V30 END CTAB
M  END
$$$$
