drugbank_target|Q9BXI2 Mitochondrial ornithine transporter 2 (DB00129)
 OpenBabel12092119283D

  0  0  0     0  0            999 V3000
M  V30 BEGIN CTAB
M  V30 COUNTS 4617 4666 0 0 0
M  V30 BEGIN ATOM
M  V30 1 H -0.908 1.98254 -0.117106 0
M  V30 2 N 0 1.576 0 0
M  V30 3 C 0.933 2.03868 1.02534 0
M  V30 4 C 1.911 0.928543 1.3348 0
M  V30 5 O 3.095 1.19667 1.45644 0
M  V30 6 C 0.222 2.43627 2.35294 0
M  V30 7 C -0.732 3.65373 2.2001 0
M  V30 8 S 0.101 5.13292 1.52614 0
M  V30 9 C 1.257 5.56322 2.86805 0
M  V30 10 H 1.49 2.90518 0.631377 0
M  V30 11 H -0.977 1.52953 0.210867 0
M  V30 12 H 0.981 2.67203 3.11629 0
M  V30 13 H -0.358 1.57376 2.7183 0
M  V30 14 H -1.165 3.90944 3.18086 0
M  V30 15 H -1.563 3.418 1.51819 0
M  V30 16 H 0.729 5.58782 3.83104 0
M  V30 17 H 1.672 6.56266 2.65933 0
M  V30 18 H 2.08 4.83886 2.90714 0
M  V30 19 N 1.4781 -0.272755 1.55222 0
M  V30 20 C 2.4251 -1.33716 1.88119 0
M  V30 21 C 3.3951 -1.49066 0.73271 0
M  V30 22 O 4.5801 -1.63469 0.984002 0
M  V30 23 C 1.7201 -2.69238 2.15882 0
M  V30 24 C 0.8331 -2.62108 3.43399 0
M  V30 25 C -0.0319 -3.89811 3.60861 0
M  V30 26 C -0.9929 -3.77193 4.8207 0
M  V30 27 N -1.8559 -4.9673 4.96189 0
M  V30 28 H 2.9841 -1.04962 2.78903 0
M  V30 29 H 0.5211 -0.507088 1.38083 0
M  V30 30 H 2.4791 -3.48089 2.29978 0
M  V30 31 H 1.1091 -2.96194 1.28331 0
M  V30 32 H 0.1611 -1.74967 3.37773 0
M  V30 33 H 1.4731 -2.48685 4.32386 0
M  V30 34 H 0.6271 -4.77103 3.74777 0
M  V30 35 H -0.6339 -4.06102 2.7006 0
M  V30 36 H -1.6289 -2.88284 4.68159 0
M  V30 37 H -0.4039 -3.62421 5.74307 0
M  V30 38 H -2.4579 -5.13431 4.08319 0
M  V30 39 H -2.5409 -4.85839 5.79221 0
M  V30 40 H -1.2729 -5.85594 5.1449 0
M  V30 41 N 2.9562 -1.48159 -0.537278 0
M  V30 42 C 4.1812 -1.59707 -1.32319 0
M  V30 43 C 4.6062 -0.254859 -1.86365 0
M  V30 44 O 3.9642 0.772378 -1.64024 0
M  V30 45 C 4.0122 -2.6412 -2.45505 0
M  V30 46 O 3.1162 -2.20774 -3.48328 0
M  V30 47 H 2.4572 -0.535791 -0.392204 0
M  V30 48 H 4.9872 -1.94092 -0.647268 0
M  V30 49 H 4.9972 -2.85166 -2.91795 0
M  V30 50 H 3.6722 -3.61567 -2.05528 0
M  V30 51 H 2.2492 -2.09911 -3.08207 0
M  V30 52 N 4.4343 0.785586 -1.36625 0
M  V30 53 C 5.6823 1.54057 -1.30808 0
M  V30 54 C 6.0033 1.94683 0.111157 0
M  V30 55 O 5.2733 1.65241 1.05224 0
M  V30 56 H 3.8533 0.571354 -0.481211 0
M  V30 57 H 6.5153 0.935821 -1.70963 0
M  V30 58 H 5.6113 2.44637 -1.93801 0
M  V30 59 N 5.9124 1.20967 1.01018 0
M  V30 60 C 7.3234 1.02319 1.56165 0
M  V30 61 C 7.6744 -0.418546 1.91684 0
M  V30 62 O 6.7994 -1.30096 1.72928 0
M  V30 63 C 7.3944 1.85109 2.8376 0
M  V30 64 C 5.9534 1.70809 3.35412 0
M  V30 65 C 5.1004 1.82643 2.08655 0
M  V30 66 H 8.0514 1.35065 0.833255 0
M  V30 67 H 8.0724 1.35827 3.55431 0
M  V30 68 H 7.5844 2.90035 2.57878 0
M  V30 69 H 5.6854 0.685464 3.66241 0
M  V30 70 H 5.7984 2.52467 4.07182 0
M  V30 71 H 4.1624 1.25896 2.21409 0
M  V30 72 H 4.9454 2.89066 1.85191 0
M  V30 73 N 7.3905 -1.2043 1.01659 0
M  V30 74 C 8.6385 -1.89423 0.704522 0
M  V30 75 C 8.9595 -1.79231 -0.768197 0
M  V30 76 O 8.2295 -1.1947 -1.55254 0
M  V30 77 H 6.8095 -0.701178 0.257602 0
M  V30 78 H 9.4715 -1.4626 1.28818 0
M  V30 79 H 8.5675 -2.96052 0.987916 0
M  V30 80 N 8.8686 -0.792821 -1.36206 0
M  V30 81 C 10.1176 -0.363353 -1.984 0
M  V30 82 C 10.4306 1.07172 -1.63626 0
M  V30 83 O 11.6366 1.60362 -2.19081 0
M  V30 84 C 10.0926 -0.59872 -3.54885 0
M  V30 85 C 9.7006 -2.04543 -3.9858 0
M  V30 86 C 11.4446 -0.233926 -4.23855 0
M  V30 87 C 9.3516 -2.22727 -5.47856 0
M  V30 88 H 8.2816 -0.13212 -0.742334 0
M  V30 89 H 10.9326 -0.974935 -1.55458 0
M  V30 90 H 9.3146 0.0826222 -3.95914 0
M  V30 91 H 10.4886 -2.76345 -3.68741 0
M  V30 92 H 8.8036 -2.36879 -3.42458 0
M  V30 93 H 11.4006 -0.348027 -5.33566 0
M  V30 94 H 11.7436 0.818351 -4.08177 0
M  V30 95 H 12.2766 -0.868639 -3.882 0
M  V30 96 H 9.0156 -3.2635 -5.68486 0
M  V30 97 H 8.5356 -1.55434 -5.7931 0
M  V30 98 H 10.2146 -2.03607 -6.14128 0
M  V30 99 N 10.3467 1.47872 -0.545128 0
M  V30 100 C 11.2787 2.27869 0.246621 0
M  V30 101 C 12.2917 1.36282 0.890561 0
M  V30 102 O 13.4807 1.61207 0.766449 0
M  V30 103 C 10.5807 3.10159 1.36582 0
M  V30 104 C 9.7537 4.29627 0.820954 0
M  V30 105 C 8.8127 4.93607 1.82314 0
M  V30 106 O 7.8387 5.52366 1.37406 0
M  V30 107 N 9.0407 4.87211 3.15603 0
M  V30 108 H 11.8057 2.96459 -0.439539 0
M  V30 109 H 9.3667 1.57367 -0.380421 0
M  V30 110 H 11.3587 3.49829 2.03474 0
M  V30 111 H 9.9287 2.43891 1.9554 0
M  V30 112 H 9.1487 3.94192 -0.0244032 0
M  V30 113 H 10.4367 5.06928 0.436063 0
M  V30 114 H 9.8347 4.40651 3.54744 0
M  V30 115 H 8.3917 5.30937 3.78087 0
M  V30 116 N 11.8248 0.280983 1.55075 0
M  V30 117 C 12.7878 -0.590896 2.21452 0
M  V30 118 C 13.7878 -1.07682 1.19421 0
M  V30 119 O 14.9778 -0.97605 1.44288 0
M  V30 120 C 12.1098 -1.81587 2.88511 0
M  V30 121 H 13.3028 -0.0112554 2.99898 0
M  V30 122 H 10.8558 0.0316438 1.56268 0
M  V30 123 H 11.5908 -2.43587 2.14093 0
M  V30 124 H 11.3758 -1.4753 3.63287 0
M  V30 125 H 12.8658 -2.43575 3.39206 0
M  V30 126 N 13.3029 -1.57598 0.00835791 0
M  V30 127 C 14.2659 -2.07884 -0.965242 0
M  V30 128 C 15.2659 -0.989825 -1.26725 0
M  V30 129 O 16.4559 -1.25218 -1.21104 0
M  V30 130 C 13.5879 -2.52731 -2.28779 0
M  V30 131 H 14.7809 -2.95178 -0.530112 0
M  V30 132 H 12.3339 -1.54458 -0.239283 0
M  V30 133 H 13.0689 -1.68705 -2.76964 0
M  V30 134 H 12.8539 -3.32272 -2.08177 0
M  V30 135 H 14.3439 -2.91933 -2.98605 0
M  V30 136 N 14.781 0.264519 -1.55364 0
M  V30 137 C 16.03 0.992812 -1.75574 0
M  V30 138 C 16.343 1.87142 -0.568979 0
M  V30 139 O 17.549 2.63513 -0.653682 0
M  V30 140 C 16.005 1.81519 -3.10771 0
M  V30 141 C 15.613 0.984839 -4.37041 0
M  V30 142 C 17.357 2.53727 -3.40327 0
M  V30 143 C 15.264 1.80209 -5.63275 0
M  V30 144 H 14.194 0.374412 -0.65447 0
M  V30 145 H 16.845 0.248138 -1.81815 0
M  V30 146 H 15.227 2.60115 -2.98591 0
M  V30 147 H 16.401 0.242455 -4.60162 0
M  V30 148 H 14.716 0.37691 -4.14691 0
M  V30 149 H 17.313 3.15292 -4.3185 0
M  V30 150 H 17.656 3.24447 -2.60845 0
M  V30 151 H 18.189 1.82156 -3.53644 0
M  V30 152 H 14.928 1.13896 -6.45529 0
M  V30 153 H 14.448 2.52022 -5.44284 0
M  V30 154 H 16.127 2.37364 -6.01887 0
M  V30 155 N 16.2591 1.48442 0.529413 0
M  V30 156 C 17.5361 1.46978 1.29062 0
M  V30 157 C 17.9161 0.181769 2.10316 0
M  V30 158 O 17.2641 -0.836481 2.12639 0
M  V30 159 C 17.4741 2.7321 2.17157 0
M  V30 160 C 18.8221 3.21562 2.77278 0
M  V30 161 O 19.8461 2.74131 2.27444 0
M  V30 162 O 18.7051 4.04094 3.67927 0
M  V30 163 H 15.7991 0.587003 0.582543 0
M  V30 164 H 18.3451 1.60676 0.546021 0
M  V30 165 H 17.1171 3.58465 1.56903 0
M  V30 166 H 16.7401 2.62235 2.98862 0
M  V30 167 N 17.7372 -0.778329 1.37039 0
M  V30 168 C 18.6672 -1.90546 1.34962 0
M  V30 169 C 19.6482 -1.68681 0.219274 0
M  V30 170 O 20.8332 -1.89634 0.418624 0
M  V30 171 C 17.9632 -3.27734 1.14925 0
M  V30 172 C 16.9172 -3.64147 2.24902 0
M  V30 173 C 16.2432 -4.99806 1.89996 0
M  V30 174 C 17.5432 -3.71579 3.67051 0
M  V30 175 H 19.2372 -1.92541 2.29277 0
M  V30 176 H 16.7832 -0.924948 1.10366 0
M  V30 177 H 18.7362 -4.06215 1.12104 0
M  V30 178 H 17.4602 -3.26154 0.170631 0
M  V30 179 H 16.1192 -2.8797 2.26868 0
M  V30 180 H 15.7672 -4.94759 0.906796 0
M  V30 181 H 15.4672 -5.25139 2.63634 0
M  V30 182 H 16.9912 -5.80694 1.88749 0
M  V30 183 H 18.4052 -4.40227 3.67251 0
M  V30 184 H 16.8022 -4.08405 4.39688 0
M  V30 185 H 17.8722 -2.72404 4.01154 0
M  V30 186 N 19.2153 -1.21501 -1.00376 0
M  V30 187 C 20.4433 -1.059 -1.77744 0
M  V30 188 C 20.8583 0.391125 -1.84704 0
M  V30 189 O 20.2153 1.27133 -1.30933 0
M  V30 190 C 20.2663 -1.65111 -3.21591 0
M  V30 191 O 19.9873 -3.0445 -3.15027 0
M  V30 192 C 21.4883 -1.54637 -4.15454 0
M  V30 193 H 18.7083 -0.371825 -0.558558 0
M  V30 194 H 21.2523 -1.60865 -1.26264 0
M  V30 195 H 19.4073 -1.14235 -3.70175 0
M  V30 196 H 19.8213 -3.3278 -4.0541 0
M  V30 197 H 21.2953 -2.00808 -5.14179 0
M  V30 198 H 21.7723 -0.501022 -4.36333 0
M  V30 199 H 22.3783 -2.04767 -3.72761 0
M  V30 200 N 20.6934 1.19889 -1.02296 0
M  V30 201 C 21.6564 2.21116 -0.603351 0
M  V30 202 C 22.6564 1.5738 0.329884 0
M  V30 203 O 23.8464 1.73802 0.117702 0
M  V30 204 C 20.9784 3.40696 0.117992 0
M  V30 205 H 22.1714 2.59754 -1.49893 0
M  V30 206 H 19.7244 1.33463 -0.813468 0
M  V30 207 H 20.4594 3.07569 1.0282 0
M  V30 208 H 20.2444 3.88188 -0.552511 0
M  V30 209 H 21.7344 4.15692 0.398696 0
M  V30 210 N 22.1715 0.800033 1.35784 0
M  V30 211 C 23.4195 0.376597 1.9856 0
M  V30 212 C 23.7405 -1.05812 1.63795 0
M  V30 213 O 23.0105 -1.73103 0.917171 0
M  V30 214 H 21.5905 0.136261 0.734467 0
M  V30 215 H 24.2525 1.02442 1.65806 0
M  V30 216 H 23.3485 0.477002 3.08433 0
M  V30 217 N 23.6496 -1.47581 0.552962 0
M  V30 218 C 24.6126 -2.28439 -0.186605 0
M  V30 219 C 25.6126 -1.36706 -0.84665 0
M  V30 220 O 26.8026 -1.59378 -0.703164 0
M  V30 221 C 23.9346 -3.16264 -1.2724 0
M  V30 222 H 25.1276 -2.95294 0.523609 0
M  V30 223 H 22.6806 -1.532 0.309745 0
M  V30 224 H 23.4156 -2.54091 -2.01514 0
M  V30 225 H 23.2006 -3.83769 -0.803968 0
M  V30 226 H 24.6906 -3.77198 -1.79196 0
M  V30 227 N 25.1277 -0.289203 -1.54924 0
M  V30 228 C 26.0907 0.579144 -2.21762 0
M  V30 229 C 27.0907 1.07047 -1.1999 0
M  V30 230 O 28.2807 0.968384 -1.44803 0
M  V30 231 C 25.4127 1.80055 -2.8947 0
M  V30 232 H 26.6057 -0.00464908 -2.999 0
M  V30 233 H 24.1587 -0.0399306 -1.56249 0
M  V30 234 H 24.8937 2.42449 -2.15381 0
M  V30 235 H 24.6787 1.45602 -3.64064 0
M  V30 236 H 26.1687 2.41773 -3.40493 0
M  V30 237 N 26.6058 1.57591 -0.0167156 0
M  V30 238 C 27.8538 1.90906 0.663285 0
M  V30 239 C 28.1748 0.892509 1.73376 0
M  V30 240 O 27.4448 -0.0677623 1.95783 0
M  V30 241 H 26.0248 0.704637 0.247983 0
M  V30 242 H 28.6868 1.94803 -0.0615909 0
M  V30 243 H 27.7828 2.9116 1.12393 0
M  V30 244 N 28.0839 -0.256276 1.55502 0
M  V30 245 C 29.3319 -0.983672 1.76545 0
M  V30 246 C 29.6529 -1.86206 0.578982 0
M  V30 247 O 28.9229 -1.91656 -0.405577 0
M  V30 248 H 27.5029 -0.366191 0.651086 0
M  V30 249 H 30.1649 -0.276479 1.92929 0
M  V30 250 H 29.2609 -1.61087 2.67315 0
M  V30 251 N 29.562 -1.4872 -0.521534 0
M  V30 252 C 30.79 -1.60843 -1.30142 0
M  V30 253 C 31.205 -0.271897 -1.86832 0
M  V30 254 O 30.562 0.739969 -1.66825 0
M  V30 255 C 30.613 -2.66155 -2.4463 0
M  V30 256 O 30.334 -3.94623 -1.90275 0
M  V30 257 C 31.835 -2.88795 -3.36322 0
M  V30 258 H 29.055 -0.542075 -0.395468 0
M  V30 259 H 31.599 -1.94609 -0.628285 0
M  V30 260 H 29.754 -2.35224 -3.07812 0
M  V30 261 H 30.168 -4.52468 -2.65279 0
M  V30 262 H 31.642 -3.66264 -4.12983 0
M  V30 263 H 32.119 -1.97934 -3.9207 0
M  V30 264 H 32.725 -3.21063 -2.78924 0
M  V30 265 N 31.0401 0.771051 -1.3745 0
M  V30 266 C 32.0031 1.86598 -1.33093 0
M  V30 267 C 33.0031 1.59076 -0.234845 0
M  V30 268 O 34.1931 1.67145 -0.490732 0
M  V30 269 C 31.3251 3.23747 -1.06773 0
M  V30 270 H 32.5181 1.91873 -2.30488 0
M  V30 271 H 30.0711 0.970876 -1.2249 0
M  V30 272 H 30.8061 3.24148 -0.099129 0
M  V30 273 H 30.5911 3.45115 -1.86112 0
M  V30 274 H 32.0811 4.03824 -1.06377 0
M  V30 275 N 32.5182 1.22032 0.997298 0
M  V30 276 C 33.7582 1.05375 1.75144 0
M  V30 277 C 34.1222 -0.404696 1.87686 0
M  V30 278 O 35.3232 -0.691998 2.5974 0
M  V30 279 C 33.5942 1.74046 3.12158 0
M  V30 280 S 35.1532 1.72745 4.03366 0
M  V30 281 H 31.9712 0.377449 0.602539 0
M  V30 282 H 34.5732 1.54902 1.19272 0
M  V30 283 H 33.2772 2.79332 3.00669 0
M  V30 284 H 32.8082 1.24731 3.73103 0
M  V30 285 H 34.8232 0.774015 4.90126 0
M  V30 286 N 33.9963 -1.19345 1.0293 0
M  V30 287 C 35.2423 -1.89318 0.727083 0
M  V30 288 C 35.5753 -1.79446 -0.742483 0
M  V30 289 O 34.8503 -1.1871 -1.54072 0
M  V30 290 C 35.1333 -3.40238 1.17942 0
M  V30 291 C 34.9863 -3.58979 2.71024 0
M  V30 292 C 36.3053 -4.33479 0.760548 0
M  V30 293 H 33.4243 -0.687475 0.265606 0
M  V30 294 H 36.0663 -1.40477 1.2793 0
M  V30 295 H 34.2163 -3.81964 0.709608 0
M  V30 296 H 35.8883 -3.26421 3.25955 0
M  V30 297 H 34.1313 -3.02018 3.11396 0
M  V30 298 H 34.8023 -4.64823 2.9773 0
M  V30 299 H 37.2783 -3.99469 1.16464 0
M  V30 300 H 36.1543 -5.37664 1.10493 0
M  V30 301 H 36.4153 -4.40813 -0.337063 0
M  V30 302 N 35.4744 -0.807222 -1.35358 0
M  V30 303 C 36.4044 -0.232509 -2.3234 0
M  V30 304 C 37.3854 0.642386 -1.57504 0
M  V30 305 O 38.5704 0.572526 -1.85569 0
M  V30 306 C 35.7004 0.619238 -3.41735 0
M  V30 307 C 34.6544 -0.157215 -4.27711 0
M  V30 308 C 33.9804 0.816273 -5.28433 0
M  V30 309 C 35.2804 -1.35656 -5.04376 0
M  V30 310 H 36.9744 -1.04276 -2.80654 0
M  V30 311 H 34.5204 -0.50288 -1.34934 0
M  V30 312 H 36.4734 1.03137 -4.08584 0
M  V30 313 H 35.1974 1.46239 -2.92031 0
M  V30 314 H 33.8564 -0.550525 -3.62443 0
M  V30 315 H 33.5044 1.65494 -4.74996 0
M  V30 316 H 33.2044 0.301067 -5.86828 0
M  V30 317 H 34.7284 1.22659 -5.98153 0
M  V30 318 H 36.1424 -1.01927 -5.64166 0
M  V30 319 H 34.5394 -1.8063 -5.7227 0
M  V30 320 H 35.6094 -2.14288 -4.34981 0
M  V30 321 N 36.9525 1.47285 -0.560781 0
M  V30 322 C 38.1805 2.06855 -0.0430262 0
M  V30 323 C 38.5955 1.41291 1.25229 0
M  V30 324 O 37.9525 0.510648 1.7521 0
M  V30 325 C 38.0035 3.61178 0.152518 0
M  V30 326 O 37.7245 4.24285 -1.0915 0
M  V30 327 C 39.2255 4.37624 0.707145 0
M  V30 328 H 36.4455 0.669319 -0.0474652 0
M  V30 329 H 38.9895 1.89237 -0.77521 0
M  V30 330 H 37.1445 3.78298 0.834843 0
M  V30 331 H 37.5585 5.16868 -0.891482 0
M  V30 332 H 39.0325 5.46271 0.793244 0
M  V30 333 H 39.5095 4.04152 1.71923 0
M  V30 334 H 40.1155 4.25257 0.0604027 0
M  V30 335 N 38.4306 0.297415 1.54768 0
M  V30 336 C 39.6786 -0.312295 1.99673 0
M  V30 337 C 39.9996 -1.54686 1.18732 0
M  V30 338 O 39.2696 -1.93854 0.282382 0
M  V30 339 H 37.8496 -0.118381 0.73756 0
M  V30 340 H 40.5116 0.407915 1.90583 0
M  V30 341 H 39.6076 -0.586813 3.06534 0
M  V30 342 N 39.9087 -1.5758 0.0250728 0
M  V30 343 C 40.8407 -2.06869 -0.986796 0
M  V30 344 C 41.8537 -0.991332 -1.29137 0
M  V30 345 O 43.0427 -1.26761 -1.25674 0
M  V30 346 C 40.1427 -2.47486 -2.31525 0
M  V30 347 C 39.3157 -3.78253 -2.19643 0
M  V30 348 C 38.3747 -4.05464 -3.35388 0
M  V30 349 O 37.4007 -4.75774 -3.12454 0
M  V30 350 N 38.6027 -3.55321 -4.59051 0
M  V30 351 H 41.3677 -2.94302 -0.566276 0
M  V30 352 H 38.9287 -1.6109 -0.161776 0
M  V30 353 H 40.9207 -2.62785 -3.07776 0
M  V30 354 H 39.4907 -1.65441 -2.65232 0
M  V30 355 H 38.7107 -3.7279 -1.28144 0
M  V30 356 H 39.9987 -4.63936 -2.08903 0
M  V30 357 H 39.3967 -2.98431 -4.80578 0
M  V30 358 H 37.9537 -3.75905 -5.32483 0
M  V30 359 N 41.3868 0.248026 -1.55636 0
M  V30 360 C 42.7978 0.817177 -1.67866 0
M  V30 361 C 43.1488 1.86069 -0.622322 0
M  V30 362 O 42.2738 2.15157 0.231618 0
M  V30 363 C 42.8688 1.489 -3.04326 0
M  V30 364 C 41.4278 2.00587 -3.185 0
M  V30 365 C 40.5748 0.856573 -2.63739 0
M  V30 366 H 43.5258 0.0238579 -1.58682 0
M  V30 367 H 43.5468 2.35698 -2.98708 0
M  V30 368 H 43.0588 0.729279 -3.81186 0
M  V30 369 H 41.1598 2.79443 -2.4646 0
M  V30 370 H 41.2728 2.20402 -4.25393 0
M  V30 371 H 39.6368 1.25678 -2.21534 0
M  V30 372 H 40.4198 0.109953 -3.43124 0
M  V30 373 N 42.8649 1.48995 0.513639 0
M  V30 374 C 44.1119 1.57843 1.26854 0
M  V30 375 C 44.4399 0.259501 1.92761 0
M  V30 376 O 43.6949 -0.75159 1.80692 0
M  V30 377 C 43.9939 2.67756 2.36731 0
M  V30 378 C 43.6599 4.09669 1.88368 0
M  V30 379 C 42.3219 4.48291 1.74896 0
M  V30 380 C 44.6739 4.98537 1.52021 0
M  V30 381 C 42.0019 5.73568 1.23438 0
M  V30 382 C 44.3539 6.24319 1.0202 0
M  V30 383 C 43.0179 6.61783 0.871778 0
M  V30 384 H 42.2879 0.577587 0.464192 0
M  V30 385 H 44.9349 1.82778 0.571366 0
M  V30 386 H 43.2399 2.36743 3.12185 0
M  V30 387 H 44.9369 2.71813 2.9482 0
M  V30 388 H 41.5269 3.79176 1.99808 0
M  V30 389 H 45.7109 4.69363 1.61281 0
M  V30 390 H 40.9669 6.01304 1.10648 0
M  V30 391 H 45.1409 6.92566 0.729722 0
M  V30 392 H 42.7679 7.5874 0.470852 0
M  V30 393 N 44.343 -0.763751 1.37857 0
M  V30 394 C 45.62 -1.51244 1.24035 0
M  V30 395 C 46 -2.10472 -0.162649 0
M  V30 396 O 45.348 -1.96206 -1.17112 0
M  V30 397 C 45.558 -2.58694 2.34261 0
M  V30 398 C 46.906 -3.25878 2.72193 0
M  V30 399 O 47.93 -2.68993 2.33497 0
M  V30 400 O 46.789 -4.2874 3.38887 0
M  V30 401 H 43.883 -0.670243 0.484462 0
M  V30 402 H 46.429 -0.800031 1.49658 0
M  V30 403 H 45.201 -2.13105 3.2818 0
M  V30 404 H 44.824 -3.37527 2.10146 0
M  V30 405 N 45.8211 -1.22559 -0.990812 0
M  V30 406 C 47.0491 -1.07779 -1.76611 0
M  V30 407 C 47.4641 0.371513 -1.85109 0
M  V30 408 O 46.8211 1.25737 -1.32274 0
M  V30 409 C 46.8721 -1.68512 -3.19822 0
M  V30 410 O 46.5931 -3.07774 -3.1178 0
M  V30 411 C 48.0941 -1.59035 -4.13791 0
M  V30 412 H 45.3141 -0.377729 -0.554583 0
M  V30 413 H 47.8581 -1.62195 -1.24551 0
M  V30 414 H 46.0131 -1.18154 -3.68942 0
M  V30 415 H 46.4271 -3.37062 -4.01858 0
M  V30 416 H 47.9011 -2.0625 -5.1202 0
M  V30 417 H 48.3781 -0.547273 -4.35777 0
M  V30 418 H 48.9841 -2.08709 -3.70568 0
M  V30 419 N 47.2992 1.18797 -1.03562 0
M  V30 420 C 48.5482 1.87978 -0.731235 0
M  V30 421 C 48.8612 1.80911 0.743671 0
M  V30 422 O 50.0672 2.45407 1.16137 0
M  V30 423 C 48.5232 3.3721 -1.25768 0
M  V30 424 C 48.1312 3.52818 -2.76085 0
M  V30 425 C 49.8752 4.11825 -1.0296 0
M  V30 426 C 47.7822 4.9598 -3.22114 0
M  V30 427 H 46.7122 0.704063 -0.269835 0
M  V30 428 H 49.3632 1.34266 -1.25079 0
M  V30 429 H 47.7452 3.90359 -0.666011 0
M  V30 430 H 48.9192 3.09965 -3.40966 0
M  V30 431 H 47.2342 2.91602 -2.97249 0
M  V30 432 H 49.8312 5.17411 -1.34869 0
M  V30 433 H 50.1742 4.16287 0.0333546 0
M  V30 434 H 50.7072 3.64833 -1.58562 0
M  V30 435 H 47.4462 4.96684 -4.27768 0
M  V30 436 H 46.9662 5.39569 -2.61965 0
M  V30 437 H 48.6452 5.6467 -3.15844 0
M  V30 438 N 48.7773 0.814389 1.34928 0
M  V30 439 C 49.7243 0.22822 2.29669 0
M  V30 440 C 50.6943 -0.642164 1.53184 0
M  V30 441 O 51.8793 -0.585605 1.81591 0
M  V30 442 C 49.0193 -0.61089 3.3965 0
M  V30 443 C 48.1323 0.280792 4.31086 0
M  V30 444 C 47.2673 -0.567067 5.28165 0
M  V30 445 C 46.3063 0.324531 6.11239 0
M  V30 446 N 45.4433 -0.483756 7.00431 0
M  V30 447 H 50.2833 1.04153 2.79206 0
M  V30 448 H 47.8203 0.525133 1.37407 0
M  V30 449 H 49.7783 -1.11263 4.0209 0
M  V30 450 H 48.4083 -1.38939 2.91369 0
M  V30 451 H 47.4603 0.900688 3.69583 0
M  V30 452 H 48.7723 0.966723 4.89342 0
M  V30 453 H 47.9263 -1.13363 5.96015 0
M  V30 454 H 46.6653 -1.28654 4.70425 0
M  V30 455 H 45.6703 0.903298 5.42329 0
M  V30 456 H 46.8953 1.04198 6.71059 0
M  V30 457 H 44.8413 -1.18706 6.45171 0
M  V30 458 H 44.7583 0.143965 7.55863 0
M  V30 459 H 46.0263 -1.03334 7.7262 0
M  V30 460 N 50.2554 -1.46986 0.568584 0
M  V30 461 C 51.5014 -2.02741 0.0488709 0
M  V30 462 C 51.8344 -1.44077 -1.30214 0
M  V30 463 O 51.1094 -0.600552 -1.84996 0
M  V30 464 C 51.3924 -3.60086 -0.032047 0
M  V30 465 C 51.2454 -4.29162 1.34686 0
M  V30 466 C 52.5644 -4.33838 -0.739798 0
M  V30 467 H 49.6834 -0.736749 0.0192338 0
M  V30 468 H 52.3254 -1.75289 0.733065 0
M  V30 469 H 50.4754 -3.83606 -0.61473 0
M  V30 470 H 52.1474 -4.16948 1.97362 0
M  V30 471 H 50.3904 -3.89073 1.91846 0
M  V30 472 H 51.0614 -5.37826 1.24285 0
M  V30 473 H 53.5374 -4.15378 -0.244939 0
M  V30 474 H 52.4134 -5.43537 -0.765406 0
M  V30 475 H 52.6744 -4.03875 -1.79827 0
M  V30 476 N 51.7335 -0.305618 -1.54608 0
M  V30 477 C 52.6805 0.568421 -2.23691 0
M  V30 478 C 53.6505 1.12592 -1.22116 0
M  V30 479 O 54.8355 1.16959 -1.50749 0
M  V30 480 C 51.9755 1.7322 -2.98477 0
M  V30 481 C 51.0885 1.20566 -4.14835 0
M  V30 482 C 50.2235 2.33368 -4.77193 0
M  V30 483 C 49.2625 1.7787 -5.85686 0
M  V30 484 N 48.3995 2.84263 -6.4198 0
M  V30 485 H 53.2395 -0.0272867 -2.97988 0
M  V30 486 H 50.7765 -0.0252363 -1.47078 0
M  V30 487 H 52.7345 2.41675 -3.40072 0
M  V30 488 H 51.3645 2.29947 -2.26548 0
M  V30 489 H 50.4165 0.413223 -3.78149 0
M  V30 490 H 51.7285 0.759417 -4.92985 0
M  V30 491 H 50.8825 3.09761 -5.21664 0
M  V30 492 H 49.6215 2.8132 -3.98385 0
M  V30 493 H 48.6265 0.99968 -5.40635 0
M  V30 494 H 49.8515 1.30816 -6.66381 0
M  V30 495 H 47.7975 3.31541 -5.66053 0
M  V30 496 H 47.7145 2.44149 -7.15491 0
M  V30 497 H 48.9825 3.6054 -6.91109 0
M  V30 498 N 53.2116 1.57565 -0.0334293 0
M  V30 499 C 54.1446 2.05997 0.981866 0
M  V30 500 C 55.1226 0.956647 1.3148 0
M  V30 501 O 56.3066 1.22729 1.43073 0
M  V30 502 C 53.4336 2.48564 2.30074 0
M  V30 503 C 52.4796 3.69958 2.12211 0
M  V30 504 S 53.3126 5.16414 1.41692 0
M  V30 505 C 54.4686 5.6228 2.7494 0
M  V30 506 H 54.7016 2.91792 0.569612 0
M  V30 507 H 52.2346 1.53366 0.178376 0
M  V30 508 H 54.1926 2.73753 3.05892 0
M  V30 509 H 52.8536 1.63106 2.68431 0
M  V30 510 H 52.0466 3.97603 3.09722 0
M  V30 511 H 51.6486 3.44943 1.44535 0
M  V30 512 H 53.9406 5.66783 3.71165 0
M  V30 513 H 54.8836 6.61759 2.51953 0
M  V30 514 H 55.2916 4.89944 2.80384 0
M  V30 515 N 54.6897 -0.239769 1.55765 0
M  V30 516 C 55.6217 -1.32001 1.87372 0
M  V30 517 C 56.6347 -1.43944 0.760522 0
M  V30 518 O 57.8237 -1.45167 1.0387 0
M  V30 519 C 54.9237 -2.69779 2.05115 0
M  V30 520 C 54.0967 -2.80014 3.36022 0
M  V30 521 C 53.1557 -3.98684 3.4342 0
M  V30 522 O 52.1817 -3.87877 4.16582 0
M  V30 523 N 53.3837 -5.12176 2.73232 0
M  V30 524 H 56.1487 -1.0522 2.80622 0
M  V30 525 H 53.7097 -0.429857 1.56089 0
M  V30 526 H 55.7017 -3.47517 2.07399 0
M  V30 527 H 54.2717 -2.89237 1.18577 0
M  V30 528 H 53.4917 -1.88896 3.45994 0
M  V30 529 H 54.7797 -2.83808 4.22292 0
M  V30 530 H 54.1777 -5.2385 2.13536 0
M  V30 531 H 52.7347 -5.88022 2.81199 0
M  V30 532 N 56.1678 -1.49265 -0.50573 0
M  V30 533 C 57.3958 -1.62215 -1.28429 0
M  V30 534 C 57.8108 -0.291697 -1.86533 0
M  V30 535 O 57.1678 0.722233 -1.67601 0
M  V30 536 C 57.2188 -2.68735 -2.41793 0
M  V30 537 O 56.9398 -3.96619 -1.86078 0
M  V30 538 C 58.4408 -2.92346 -3.3324 0
M  V30 539 H 55.6608 -0.546239 -0.389697 0
M  V30 540 H 58.2048 -1.95265 -0.607609 0
M  V30 541 H 56.3598 -2.38476 -3.053 0
M  V30 542 H 56.7738 -4.55256 -2.60465 0
M  V30 543 H 58.2478 -3.70623 -4.09075 0
M  V30 544 H 58.7248 -2.02081 -3.89948 0
M  V30 545 H 59.3308 -3.24003 -2.75503 0
M  V30 546 N 57.6459 0.756429 -1.3826 0
M  V30 547 C 58.8929 1.51547 -1.34312 0
M  V30 548 C 59.2209 1.94382 0.0677144 0
M  V30 549 O 58.4759 1.65514 1.04421 0
M  V30 550 C 58.7749 2.78313 -2.24224 0
M  V30 551 C 58.4409 2.54455 -3.72241 0
M  V30 552 C 57.1029 2.47657 -4.12576 0
M  V30 553 C 59.4549 2.3354 -4.65949 0
M  V30 554 C 56.7829 2.17956 -5.44713 0
M  V30 555 C 59.1349 2.05359 -5.9834 0
M  V30 556 C 57.7989 1.97016 -6.37762 0
M  V30 557 H 57.0689 0.55455 -0.491482 0
M  V30 558 H 59.7159 0.870039 -1.70595 0
M  V30 559 H 58.0209 3.47492 -1.80987 0
M  V30 560 H 59.7179 3.36259 -2.18474 0
M  V30 561 H 56.3079 2.60616 -3.40261 0
M  V30 562 H 60.4919 2.37772 -4.35635 0
M  V30 563 H 55.7479 2.10003 -5.74203 0
M  V30 564 H 59.9219 1.88179 -6.70494 0
M  V30 565 H 57.5489 1.73766 -7.40074 0
M  V30 566 N 59.124 1.23083 0.984299 0
M  V30 567 C 60.535 1.05609 1.5396 0
M  V30 568 C 60.886 -0.377793 1.92528 0
M  V30 569 O 60.011 -1.26398 1.75649 0
M  V30 570 C 60.606 1.91087 2.7977 0
M  V30 571 C 59.165 1.77885 3.31713 0
M  V30 572 C 58.312 1.87028 2.04733 0
M  V30 573 H 61.263 1.36802 0.804419 0
M  V30 574 H 61.284 1.43336 3.5247 0
M  V30 575 H 60.796 2.9544 2.51668 0
M  V30 576 H 58.897 0.762995 3.64704 0
M  V30 577 H 59.01 2.61047 4.01735 0
M  V30 578 H 57.374 1.30565 2.18689 0
M  V30 579 H 58.157 2.92929 1.79017 0
M  V30 580 N 60.6021 -1.18246 1.0419 0
M  V30 581 C 61.8791 -1.84121 0.660208 0
M  V30 582 C 62.2591 -1.92778 -0.860221 0
M  V30 583 O 61.6071 -1.45464 -1.76217 0
M  V30 584 C 61.8171 -3.22355 1.33747 0
M  V30 585 C 63.1651 -3.98376 1.46906 0
M  V30 586 O 64.1891 -3.31799 1.29568 0
M  V30 587 O 63.0481 -5.17665 1.75171 0
M  V30 588 H 60.1421 -0.794036 0.231161 0
M  V30 589 H 62.6881 -1.25628 1.14087 0
M  V30 590 H 61.4601 -3.10964 2.37522 0
M  V30 591 H 61.0831 -3.88506 0.845515 0
M  V30 592 N 62.0802 -0.821533 -1.34494 0
M  V30 593 C 63.0102 -0.257138 -2.3208 0
M  V30 594 C 63.9912 0.625645 -1.58176 0
M  V30 595 O 65.1762 0.552811 -1.86166 0
M  V30 596 C 62.3062 0.582958 -3.42372 0
M  V30 597 C 61.2602 -0.202571 -4.2752 0
M  V30 598 C 60.5862 0.760179 -5.29269 0
M  V30 599 C 61.8862 -1.40998 -5.02908 0
M  V30 600 H 63.5802 -1.07247 -2.79532 0
M  V30 601 H 61.1262 -0.517163 -1.34393 0
M  V30 602 H 63.0792 0.987972 -4.09655 0
M  V30 603 H 61.8032 1.43133 -2.93565 0
M  V30 604 H 60.4622 -0.588936 -3.61838 0
M  V30 605 H 60.1102 1.60447 -4.76724 0
M  V30 606 H 59.8102 0.238809 -5.87115 0
M  V30 607 H 61.3342 1.16308 -5.9942 0
M  V30 608 H 62.7482 -1.07905 -5.63054 0
M  V30 609 H 61.1452 -1.86689 -5.70322 0
M  V30 610 H 62.2152 -2.1889 -4.32684 0
M  V30 611 N 63.5583 1.46682 -0.576371 0
M  V30 612 C 64.7883 2.06498 -0.0648694 0
M  V30 613 C 65.1963 1.42665 1.24271 0
M  V30 614 O 64.5393 0.523886 1.76071 0
M  V30 615 C 64.6013 3.5904 0.181816 0
M  V30 616 C 64.2653 4.45028 -1.0392 0
M  V30 617 C 65.2623 4.81959 -1.94966 0
M  V30 618 C 62.9473 4.86259 -1.25927 0
M  V30 619 C 64.9413 5.58942 -3.06371 0
M  V30 620 C 62.6283 5.63002 -2.37638 0
M  V30 621 C 63.6263 5.99257 -3.2769 0
M  V30 622 O 63.3143 6.7445 -4.37461 0
M  V30 623 H 63.0463 0.674028 -0.0515987 0
M  V30 624 H 65.6003 1.89393 -0.794951 0
M  V30 625 H 63.8303 3.74429 0.966436 0
M  V30 626 H 65.5193 4.00806 0.641047 0
M  V30 627 H 66.2853 4.50689 -1.79177 0
M  V30 628 H 62.1643 4.57494 -0.567448 0
M  V30 629 H 65.7083 5.87158 -3.76684 0
M  V30 630 H 61.6053 5.93686 -2.53392 0
M  V30 631 H 62.3733 6.92867 -4.35749 0
M  V30 632 N 65.0364 0.313813 1.54444 0
M  V30 633 C 65.9834 -0.55655 2.23989 0
M  V30 634 C 66.9534 -1.11943 1.22711 0
M  V30 635 O 68.1384 -1.16158 1.51367 0
M  V30 636 C 65.2784 -1.71635 2.99392 0
M  V30 637 C 64.3914 -1.18364 4.15468 0
M  V30 638 C 63.5264 -2.30834 4.78424 0
M  V30 639 C 62.5654 -1.74762 5.86622 0
M  V30 640 N 61.7024 -2.80855 6.43479 0
M  V30 641 H 66.5424 0.0430893 2.97969 0
M  V30 642 H 64.0794 0.0330359 1.47063 0
M  V30 643 H 66.0374 -2.39868 3.41349 0
M  V30 644 H 64.6674 -2.28742 2.27765 0
M  V30 645 H 63.7194 -0.393163 3.78363 0
M  V30 646 H 65.0314 -0.733262 4.93381 0
M  V30 647 H 64.1854 -3.0699 5.23299 0
M  V30 648 H 62.9244 -2.79204 3.99871 0
M  V30 649 H 61.9294 -0.970995 5.41158 0
M  V30 650 H 63.1544 -1.2728 6.67066 0
M  V30 651 H 61.1004 -3.28535 5.67804 0
M  V30 652 H 61.0174 -2.40351 7.16776 0
M  V30 653 H 62.2854 -3.5687 6.93011 0
M  V30 654 N 66.5145 -1.57545 0.0417849 0
M  V30 655 C 67.7625 -1.91937 -0.632829 0
M  V30 656 C 68.0835 -0.919978 -1.71934 0
M  V30 657 O 67.3535 0.0366064 -1.95866 0
M  V30 658 H 65.9335 -0.708493 -0.236742 0
M  V30 659 H 68.5955 -1.9468 0.0925745 0
M  V30 660 H 67.6915 -2.92912 -1.07746 0
M  V30 661 N 67.9926 0.231505 -1.5589 0
M  V30 662 C 68.9226 1.29022 -1.94617 0
M  V30 663 C 69.9036 1.4941 -0.813067 0
M  V30 664 O 71.0886 1.6176 -1.07459 0
M  V30 665 C 68.2186 2.64199 -2.25424 0
M  V30 666 C 67.1726 2.58484 -3.41131 0
M  V30 667 C 66.4986 3.97599 -3.57518 0
M  V30 668 C 67.7986 2.1413 -4.76388 0
M  V30 669 H 69.4926 0.968563 -2.83301 0
M  V30 670 H 67.0386 0.464479 -1.36303 0
M  V30 671 H 68.9916 3.38413 -2.51107 0
M  V30 672 H 67.7156 2.98032 -1.33583 0
M  V30 673 H 66.3746 1.86727 -3.15481 0
M  V30 674 H 66.0226 4.28723 -2.6307 0
M  V30 675 H 65.7226 3.94659 -4.35337 0
M  V30 676 H 67.2466 4.7349 -3.85538 0
M  V30 677 H 68.6606 2.78083 -5.01341 0
M  V30 678 H 67.0576 2.2227 -5.57419 0
M  V30 679 H 68.1276 1.09331 -4.72414 0
M  V30 680 N 69.4707 1.49531 0.497807 0
M  V30 681 C 70.6987 1.62893 1.27567 0
M  V30 682 C 71.1137 0.301585 1.86376 0
M  V30 683 O 70.4707 -0.713335 1.67982 0
M  V30 684 C 70.5217 2.70013 2.40364 0
M  V30 685 O 70.2427 3.976 1.83972 0
M  V30 686 C 71.7437 2.94109 3.31685 0
M  V30 687 H 68.9637 0.548298 0.386794 0
M  V30 688 H 71.5077 1.95584 0.597245 0
M  V30 689 H 69.6627 2.40092 3.04031 0
M  V30 690 H 70.0767 4.56631 2.58047 0
M  V30 691 H 71.5507 3.72788 4.07104 0
M  V30 692 H 72.0277 2.04147 3.88871 0
M  V30 693 H 72.6337 3.2546 2.73781 0
M  V30 694 N 70.9488 -0.749086 1.3866 0
M  V30 695 C 72.2258 -1.4992 1.25632 0
M  V30 696 C 72.6058 -2.10633 -0.140317 0
M  V30 697 O 71.9538 -1.97437 -1.15025 0
M  V30 698 C 72.1638 -2.56195 2.36992 0
M  V30 699 C 73.5118 -3.22972 2.75634 0
M  V30 700 O 74.5358 -2.66502 2.36337 0
M  V30 701 O 73.3948 -4.25122 3.43415 0
M  V30 702 H 70.4888 -0.665067 0.491544 0
M  V30 703 H 73.0348 -0.784113 1.50498 0
M  V30 704 H 71.8068 -2.09612 3.30422 0
M  V30 705 H 71.4298 -3.35279 2.13714 0
M  V30 706 N 72.4269 -1.23603 -0.977757 0
M  V30 707 C 73.6669 -1.08148 -1.73446 0
M  V30 708 C 74.0309 0.374785 -1.88307 0
M  V30 709 O 75.2319 0.650588 -2.60808 0
M  V30 710 C 73.5029 -1.78991 -3.0935 0
M  V30 711 S 75.0619 -1.79141 -4.00567 0
M  V30 712 H 71.8799 -0.386987 -0.596458 0
M  V30 713 H 74.4819 -1.5678 -1.16792 0
M  V30 714 H 73.1859 -2.8408 -2.96187 0
M  V30 715 H 72.7169 -1.30651 -3.71071 0
M  V30 716 H 74.7319 -0.851892 -4.88833 0
M  V30 717 N 73.905 1.17692 -1.04816 0
M  V30 718 C 75.152 1.87859 -0.75599 0
M  V30 719 C 75.48 1.80812 0.716752 0
M  V30 720 O 74.735 1.20819 1.53952 0
M  V30 721 C 75.034 3.37462 -1.17703 0
M  V30 722 C 74.7 3.64713 -2.65133 0
M  V30 723 C 73.362 3.71859 -3.05408 0
M  V30 724 C 75.714 3.76492 -3.60421 0
M  V30 725 C 73.042 3.88271 -4.39843 0
M  V30 726 C 75.394 3.94421 -4.94585 0
M  V30 727 C 74.058 3.99806 -5.3452 0
M  V30 728 H 73.328 0.687425 -0.276636 0
M  V30 729 H 75.975 1.39255 -1.31455 0
M  V30 730 H 74.28 3.88097 -0.537395 0
M  V30 731 H 75.977 3.90109 -0.928218 0
M  V30 732 H 72.567 3.59772 -2.32942 0
M  V30 733 H 76.751 3.70295 -3.30447 0
M  V30 734 H 72.007 3.90687 -4.70291 0
M  V30 735 H 76.181 4.02477 -5.68318 0
M  V30 736 H 73.808 4.12276 -6.38696 0
M  V30 737 N 75.3831 0.828654 1.34056 0
M  V30 738 C 76.3131 0.269443 2.3194 0
M  V30 739 C 77.2941 -0.617247 1.58506 0
M  V30 740 O 78.4791 -0.542931 1.86456 0
M  V30 741 C 75.6091 -0.564793 3.42677 0
M  V30 742 C 74.5631 0.225241 4.27407 0
M  V30 743 C 73.8891 -0.7321 5.29664 0
M  V30 744 C 75.1891 1.43663 5.02154 0
M  V30 745 H 76.8831 1.08728 2.7896 0
M  V30 746 H 74.4291 0.524283 1.34117 0
M  V30 747 H 76.3821 -0.966233 4.10173 0
M  V30 748 H 75.1061 -1.41574 2.9432 0
M  V30 749 H 73.7651 0.608117 3.61521 0
M  V30 750 H 73.4131 -1.57916 4.77568 0
M  V30 751 H 73.1131 -0.20767 5.87233 0
M  V30 752 H 74.6371 -1.13128 6.00029 0
M  V30 753 H 76.0511 1.1089 5.62473 0
M  V30 754 H 74.4481 1.89711 5.69324 0
M  V30 755 H 75.5181 2.21181 4.31517 0
M  V30 756 N 76.8612 -1.46375 0.584142 0
M  V30 757 C 77.8082 -2.30323 -0.148286 0
M  V30 758 C 78.7782 -1.40703 -0.882713 0
M  V30 759 O 79.9632 -1.69651 -0.873099 0
M  V30 760 C 77.1032 -3.25196 -1.15507 0
M  V30 761 C 76.2162 -4.29915 -0.423943 0
M  V30 762 C 75.3512 -5.11914 -1.41838 0
M  V30 763 C 74.3902 -6.08381 -0.673736 0
M  V30 764 N 73.5272 -6.83242 -1.6163 0
M  V30 765 H 78.3672 -2.92427 0.573644 0
M  V30 766 H 75.9042 -1.44118 0.294703 0
M  V30 767 H 77.8622 -3.78646 -1.75166 0
M  V30 768 H 76.4922 -2.64898 -1.8447 0
M  V30 769 H 75.5442 -3.7931 0.287714 0
M  V30 770 H 76.8562 -4.98549 0.158128 0
M  V30 771 H 76.0102 -5.69648 -2.08773 0
M  V30 772 H 74.7492 -4.43243 -2.03438 0
M  V30 773 H 73.7542 -5.49799 0.00938483 0
M  V30 774 H 74.9792 -6.79071 -0.0631082 0
M  V30 775 H 72.9252 -6.1728 -2.22038 0
M  V30 776 H 72.8422 -7.48144 -1.08707 0
M  V30 777 H 74.1102 -7.45534 -2.27596 0
M  V30 778 N 78.3393 -0.321999 -1.54275 0
M  V30 779 C 79.5673 0.283052 -2.04955 0
M  V30 780 C 79.9823 1.45904 -1.19823 0
M  V30 781 O 79.3393 1.81063 -0.228545 0
M  V30 782 C 79.3903 0.719028 -3.54277 0
M  V30 783 O 79.1113 -0.410175 -4.36176 0
M  V30 784 C 80.6123 1.38705 -4.21041 0
M  V30 785 H 77.8323 0.0584616 -0.668448 0
M  V30 786 H 80.3763 -0.467734 -1.99079 0
M  V30 787 H 78.5313 1.41979 -3.60445 0
M  V30 788 H 78.9453 -0.0669416 -5.24457 0
M  V30 789 H 80.4193 1.64306 -5.2698 0
M  V30 790 H 80.8963 2.33385 -3.72059 0
M  V30 791 H 81.5023 0.728906 -4.19007 0
M  V30 792 N 79.8174 1.5752 -0.0501392 0
M  V30 793 C 81.0474 1.96678 0.632573 0
M  V30 794 C 81.4554 0.926298 1.64974 0
M  V30 795 O 80.7984 -0.09802 1.83438 0
M  V30 796 C 80.8604 3.32068 1.37735 0
M  V30 797 C 80.5244 4.54076 0.516131 0
M  V30 798 C 81.5214 5.19445 -0.217357 0
M  V30 799 C 79.2064 5.00304 0.44736 0
M  V30 800 C 81.2004 6.29378 -1.00807 0
M  V30 801 C 78.8874 6.10114 -0.347038 0
M  V30 802 C 79.8854 6.74512 -1.07344 0
M  V30 803 O 79.5734 7.82211 -1.85477 0
M  V30 804 H 79.3054 0.652193 0.177821 0
M  V30 805 H 81.8594 2.05091 -0.112543 0
M  V30 806 H 80.0894 3.20206 2.16807 0
M  V30 807 H 81.7784 3.55981 1.95019 0
M  V30 808 H 82.5444 4.84689 -0.173688 0
M  V30 809 H 78.4234 4.49971 1.00235 0
M  V30 810 H 81.9674 6.79575 -1.57556 0
M  V30 811 H 77.8644 6.44307 -0.392349 0
M  V30 812 H 78.6324 7.98982 -1.77678 0
M  V30 813 N 81.2955 -0.223234 1.56011 0
M  V30 814 C 82.2585 -1.26014 1.9145 0
M  V30 815 C 83.2585 -1.3989 0.792937 0
M  V30 816 O 84.4485 -1.38184 1.0607 0
M  V30 817 C 81.5805 -2.63422 2.16383 0
M  V30 818 H 82.7735 -0.95796 2.84189 0
M  V30 819 H 80.3265 -0.463576 1.49267 0
M  V30 820 H 81.0615 -2.98741 1.2619 0
M  V30 821 H 80.8465 -2.54728 2.98088 0
M  V30 822 H 82.3365 -3.38249 2.44903 0
M  V30 823 N 82.7736 -1.49793 -0.48987 0
M  V30 824 C 83.7056 -1.63413 -1.60713 0
M  V30 825 C 84.7186 -0.516329 -1.54395 0
M  V30 826 O 85.9076 -0.788812 -1.60125 0
M  V30 827 C 83.0076 -1.58516 -2.99543 0
M  V30 828 C 82.1806 -2.86016 -3.30928 0
M  V30 829 C 81.2396 -2.74018 -4.49222 0
M  V30 830 O 80.2656 -3.47964 -4.50455 0
M  V30 831 N 81.4676 -1.86309 -5.4979 0
M  V30 832 H 84.2326 -2.59777 -1.49452 0
M  V30 833 H 81.7936 -1.47022 -0.677955 0
M  V30 834 H 83.7856 -1.48128 -3.76617 0
M  V30 835 H 82.3556 -0.69965 -3.0467 0
M  V30 836 H 81.5756 -3.10672 -2.42645 0
M  V30 837 H 82.8636 -3.70521 -3.487 0
M  V30 838 H 82.2616 -1.2551 -5.51601 0
M  V30 839 H 80.8186 -1.81837 -6.25922 0
M  V30 840 N 84.2517 0.741722 -1.39055 0
M  V30 841 C 85.4977 1.50336 -1.36113 0
M  V30 842 C 85.8307 1.94148 0.0450796 0
M  V30 843 O 85.1057 1.66301 1.00868 0
M  V30 844 C 85.3887 2.74773 -2.32749 0
M  V30 845 C 85.2417 2.37023 -3.82283 0
M  V30 846 C 86.5607 3.76846 -2.27322 0
M  V30 847 H 83.6797 0.545351 -0.495743 0
M  V30 848 H 86.3217 0.848624 -1.69995 0
M  V30 849 H 84.4717 3.30639 -2.03986 0
M  V30 850 H 86.1437 1.8684 -4.21768 0
M  V30 851 H 84.3867 1.69334 -3.99385 0
M  V30 852 H 85.0577 3.26104 -4.45376 0
M  V30 853 H 87.5337 3.30548 -2.5274 0
M  V30 854 H 86.4097 4.6159 -2.97028 0
M  V30 855 H 86.6707 4.23286 -1.27599 0
M  V30 856 N 85.7298 1.2412 0.971189 0
M  V30 857 C 86.9778 1.07668 1.71032 0
M  V30 858 C 87.2988 -0.385797 1.91146 0
M  V30 859 O 86.5688 -1.27569 1.4867 0
M  V30 860 H 85.1488 0.395429 0.633755 0
M  V30 861 H 87.8108 1.55984 1.16855 0
M  V30 862 H 86.9068 1.57195 2.69622 0
M  V30 863 N 87.2079 -1.17134 1.05439 0
M  V30 864 C 88.1379 -2.2342 0.678649 0
M  V30 865 C 89.1189 -1.66971 -0.32476 0
M  V30 866 O 90.3039 -1.93149 -0.201802 0
M  V30 867 C 87.4339 -3.47256 0.0552099 0
M  V30 868 C 86.3879 -4.16543 0.98365 0
M  V30 869 C 85.7139 -5.34231 0.223961 0
M  V30 870 C 87.0139 -4.68495 2.3089 0
M  V30 871 H 88.7079 -2.55105 1.56722 0
M  V30 872 H 86.2539 -1.2262 0.754998 0
M  V30 873 H 88.2069 -4.20828 -0.21946 0
M  V30 874 H 86.9309 -3.14846 -0.868319 0
M  V30 875 H 85.5899 -3.44887 1.24293 0
M  V30 876 H 85.2379 -4.98071 -0.702412 0
M  V30 877 H 84.9379 -5.81527 0.842627 0
M  V30 878 H 86.4619 -6.10585 -0.0433671 0
M  V30 879 H 87.8759 -5.33691 2.09396 0
M  V30 880 H 86.2729 -5.26379 2.88176 0
M  V30 881 H 87.3429 -3.85169 2.94572 0
M  V30 882 N 88.686 -0.835752 -1.33615 0
M  V30 883 C 90.102 -0.523139 -1.50783 0
M  V30 884 C 90.302 0.950171 -1.77691 0
M  V30 885 O 89.358 1.73411 -1.83534 0
M  V30 886 C 90.671 -1.39378 -2.66448 0
M  V30 887 C 92.219 -1.39223 -2.80332 0
M  V30 888 C 92.694 -2.24765 -3.99055 0
M  V30 889 N 94.185 -2.22458 -4.06284 0
M  V30 890 C 94.92 -2.85386 -4.97336 0
M  V30 891 N 94.416 -3.57354 -5.93523 0
M  V30 892 N 96.209 -2.74872 -4.90308 0
M  V30 893 H 88.36 -1.78952 -1.14411 0
M  V30 894 H 90.623 -0.763297 -0.562212 0
M  V30 895 H 90.329 -2.44061 -2.53234 0
M  V30 896 H 90.203 -1.0676 -3.61776 0
M  V30 897 H 92.59 -0.353136 -2.92979 0
M  V30 898 H 92.671 -1.75846 -1.85773 0
M  V30 899 H 92.315 -3.28732 -3.87167 0
M  V30 900 H 92.245 -1.85485 -4.92852 0
M  V30 901 H 94.736 -1.70119 -3.37443 0
M  V30 902 H 95.049 -4.02584 -6.59656 0
M  V30 903 H 93.394 -3.61461 -5.93608 0
M  V30 904 H 96.585 -2.18213 -4.14126 0
M  V30 905 H 96.758 -3.24199 -5.61069 0
M  V30 906 N 90.1641 1.46063 -0.591896 0
M  V30 907 C 91.4121 2.01938 -0.0808391 0
M  V30 908 C 91.7331 1.46475 1.28725 0
M  V30 909 O 91.0031 0.652944 1.84698 0
M  V30 910 H 89.5831 0.746516 -0.0268938 0
M  V30 911 H 92.2451 1.79055 -0.769752 0
M  V30 912 H 91.3411 3.12094 -0.0187578 0
M  V30 913 N 91.6422 0.330177 1.54103 0
M  V30 914 C 92.8892 -0.270405 2.00686 0
M  V30 915 C 93.2172 -1.51621 1.21825 0
M  V30 916 O 92.4722 -1.93536 0.29025 0
M  V30 917 C 92.7712 -0.643134 3.51566 0
M  V30 918 C 92.4372 0.504251 4.48072 0
M  V30 919 C 91.0992 0.819163 4.74176 0
M  V30 920 C 93.4512 1.27465 5.05373 0
M  V30 921 C 90.7792 1.90708 5.5484 0
M  V30 922 C 93.1312 2.35271 5.87223 0
M  V30 923 C 91.7952 2.67336 6.11627 0
M  V30 924 H 91.0652 -0.0989482 0.734364 0
M  V30 925 H 93.7122 0.455324 1.86008 0
M  V30 926 H 92.0172 -1.44938 3.64006 0
M  V30 927 H 93.7142 -1.11949 3.85056 0
M  V30 928 H 90.3042 0.248733 4.27878 0
M  V30 929 H 94.4882 1.04462 4.85182 0
M  V30 930 H 89.7442 2.15991 5.71977 0
M  V30 931 H 93.9182 2.95405 6.30641 0
M  V30 932 H 91.5452 3.51763 6.73919 0
M  V30 933 N 93.1203 -1.57491 0.0584922 0
M  V30 934 C 94.3503 -1.9701 -0.622134 0
M  V30 935 C 94.7583 -0.935034 -1.6448 0
M  V30 936 O 94.1013 0.0882904 -1.83488 0
M  V30 937 C 94.1633 -3.32794 -1.35972 0
M  V30 938 C 93.8273 -4.54343 -0.492043 0
M  V30 939 C 94.8243 -5.19323 0.244901 0
M  V30 940 C 92.5093 -5.00534 -0.420821 0
M  V30 941 C 94.5033 -6.28835 1.04143 0
M  V30 942 C 92.1903 -6.09921 0.379389 0
M  V30 943 C 93.1883 -6.73933 1.10919 0
M  V30 944 O 92.8763 -7.81216 1.89623 0
M  V30 945 H 92.6083 -0.653127 -0.174359 0
M  V30 946 H 95.1623 -2.05029 0.123418 0
M  V30 947 H 93.3923 -3.21351 -2.15105 0
M  V30 948 H 95.0813 -3.5701 -1.93129 0
M  V30 949 H 95.8473 -4.8459 0.19939 0
M  V30 950 H 91.7263 -4.50496 -0.978474 0
M  V30 951 H 95.2703 -6.7873 1.61157 0
M  V30 952 H 91.1673 -6.44089 0.426512 0
M  V30 953 H 91.9353 -7.98029 1.81913 0
M  V30 954 N 94.5984 0.214957 -1.56127 0
M  V30 955 C 95.5454 1.26642 -1.92952 0
M  V30 956 C 96.5154 1.46244 -0.78753 0
M  V30 957 O 97.7004 1.59704 -1.04399 0
M  V30 958 C 94.8404 2.6104 -2.25726 0
M  V30 959 C 93.9534 2.49183 -3.52891 0
M  V30 960 C 93.0884 3.76149 -3.7508 0
M  V30 961 C 92.1274 3.59041 -4.95738 0
M  V30 962 N 91.2644 4.77972 -5.14283 0
M  V30 963 H 96.1044 0.945384 -2.82607 0
M  V30 964 H 93.6414 0.455489 -1.3987 0
M  V30 965 H 95.5994 3.39313 -2.42739 0
M  V30 966 H 94.2294 2.91227 -1.39236 0
M  V30 967 H 93.2814 1.6231 -3.44034 0
M  V30 968 H 94.5934 2.32466 -4.41318 0
M  V30 969 H 93.7474 4.62865 -3.92226 0
M  V30 970 H 92.4864 3.95799 -2.84947 0
M  V30 971 H 91.4914 2.7071 -4.78535 0
M  V30 972 H 92.7164 3.40856 -5.87362 0
M  V30 973 H 90.6624 4.97923 -4.27093 0
M  V30 974 H 90.5794 4.64006 -5.96853 0
M  V30 975 H 91.8474 5.66096 -5.35869 0
M  V30 976 N 96.0765 1.50051 0.48192 0
M  V30 977 C 97.3245 1.60181 1.23234 0
M  V30 978 C 97.6455 0.299176 1.92691 0
M  V30 979 O 96.9155 -0.682708 1.83619 0
M  V30 980 H 95.4955 0.590232 0.457859 0
M  V30 981 H 98.1575 1.86775 0.556881 0
M  V30 982 H 97.2535 2.40753 1.98607 0
M  V30 983 N 97.5546 -0.734337 1.39446 0
M  V30 984 C 98.7826 -1.52358 1.39981 0
M  V30 985 C 99.1976 -1.88799 -0.0054975 0
M  V30 986 O 98.5546 -1.54146 -0.976998 0
M  V30 987 C 98.6056 -2.81072 2.27333 0
M  V30 988 O 98.3266 -2.46178 3.62392 0
M  V30 989 C 99.8276 -3.75096 2.36259 0
M  V30 990 H 97.0476 -0.470806 0.478103 0
M  V30 991 H 99.5916 -0.907339 1.83269 0
M  V30 992 H 97.7466 -3.39026 1.87457 0
M  V30 993 H 98.1606 -3.28866 4.08592 0
M  V30 994 H 99.6346 -4.62305 3.01626 0
M  V30 995 H 100.112 -4.16892 1.38194 0
M  V30 996 H 100.718 -3.23061 2.76608 0
M  V30 997 N 99.0327 -1.24633 -0.964593 0
M  V30 998 C 100.281 -1.08573 -1.70459 0
M  V30 999 C 100.602 0.375655 -1.91347 0
M  V30 1000 O 99.8717 1.26779 -1.49345 0
M  V30 1001 H 98.4517 -0.398784 -0.631649 0
M  V30 1002 H 101.114 -1.56601 -1.16026 0
M  V30 1003 H 100.21 -1.58623 -2.68785 0
M  V30 1004 N 100.511 1.16574 -1.06058 0
M  V30 1005 C 101.922 1.68662 -0.800632 0
M  V30 1006 C 102.273 1.84184 0.67608 0
M  V30 1007 O 101.398 1.53568 1.52466 0
M  V30 1008 C 101.993 3.06356 -1.44676 0
M  V30 1009 C 100.552 3.55575 -1.23465 0
M  V30 1010 C 99.6988 2.31616 -1.52477 0
M  V30 1011 H 102.65 1.00969 -1.22438 0
M  V30 1012 H 102.671 3.70636 -0.860788 0
M  V30 1013 H 102.183 2.95027 -2.52152 0
M  V30 1014 H 100.284 3.72167 -0.179527 0
M  V30 1015 H 100.397 4.37812 -1.94571 0
M  V30 1016 H 98.7608 2.36512 -0.945209 0
M  V30 1017 H 99.5438 2.22887 -2.61106 0
M  V30 1018 N 101.989 0.842826 1.3317 0
M  V30 1019 C 102.952 0.284065 2.27433 0
M  V30 1020 C 103.952 -0.54948 1.5112 0
M  V30 1021 O 105.142 -0.362699 1.70382 0
M  V30 1022 C 102.274 -0.599384 3.35589 0
M  V30 1023 H 103.467 1.11589 2.78366 0
M  V30 1024 H 101.02 0.616221 1.4364 0
M  V30 1025 H 101.755 -1.45349 2.89904 0
M  V30 1026 H 101.54 -0.00291266 3.921 0
M  V30 1027 H 103.03 -0.983488 4.05854 0
M  V30 1028 N 103.467 -1.45747 0.599634 0
M  V30 1029 C 104.397 -2.33235 -0.111306 0
M  V30 1030 C 105.378 -1.46359 -0.866781 0
M  V30 1031 O 106.563 -1.75146 -0.838904 0
M  V30 1032 C 103.693 -3.28932 -1.11451 0
M  V30 1033 C 102.647 -4.25381 -0.472772 0
M  V30 1034 C 101.973 -5.1071 -1.58365 0
M  V30 1035 C 103.273 -5.18831 0.600948 0
M  V30 1036 H 104.967 -2.92927 0.61919 0
M  V30 1037 H 102.513 -1.40857 0.299215 0
M  V30 1038 H 104.466 -3.89002 -1.62036 0
M  V30 1039 H 103.19 -2.67381 -1.8755 0
M  V30 1040 H 101.849 -3.66598 0.0121472 0
M  V30 1041 H 101.497 -4.45533 -2.33473 0
M  V30 1042 H 101.197 -5.7604 -1.15982 0
M  V30 1043 H 102.721 -5.73647 -2.09194 0
M  V30 1044 H 104.135 -5.73019 0.179491 0
M  V30 1045 H 102.532 -5.92595 0.946076 0
M  V30 1046 H 103.602 -4.6174 1.48068 0
M  V30 1047 N 104.945 -0.338344 -1.53925 0
M  V30 1048 C 105.878 0.563758 -2.21127 0
M  V30 1049 C 106.856 1.10433 -1.19345 0
M  V30 1050 O 108.04 1.16557 -1.48144 0
M  V30 1051 C 105.167 1.77505 -2.88461 0
M  V30 1052 C 104.213 1.3644 -4.04087 0
M  V30 1053 S 105.046 0.388593 -5.34088 0
M  V30 1054 C 106.202 1.60683 -6.04923 0
M  V30 1055 H 106.435 -0.00704546 -2.97299 0
M  V30 1056 H 103.968 -0.122418 -1.53914 0
M  V30 1057 H 105.926 2.46999 -3.27875 0
M  V30 1058 H 104.587 2.31706 -2.12064 0
M  V30 1059 H 103.78 2.26739 -4.50117 0
M  V30 1060 H 103.382 0.748998 -3.66423 0
M  V30 1061 H 105.674 2.54209 -6.28 0
M  V30 1062 H 106.617 1.18842 -6.98056 0
M  V30 1063 H 107.025 1.80052 -5.35015 0
M  V30 1064 N 106.423 1.57458 -0.0668435 0
M  V30 1065 C 107.386 2.11323 0.887422 0
M  V30 1066 C 108.386 1.03618 1.22964 0
M  V30 1067 O 109.576 1.29626 1.16373 0
M  V30 1068 C 106.708 2.61048 2.19242 0
M  V30 1069 H 107.901 2.96942 0.420194 0
M  V30 1070 H 105.454 1.55239 0.181793 0
M  V30 1071 H 106.189 1.78868 2.70512 0
M  V30 1072 H 105.974 3.39769 1.95702 0
M  V30 1073 H 107.464 3.02814 2.87565 0
M  V30 1074 N 107.901 -0.206675 1.56239 0
M  V30 1075 C 109.131 -0.943975 1.83773 0
M  V30 1076 C 109.539 -1.77841 0.645703 0
M  V30 1077 O 108.882 -1.79403 -0.395008 0
M  V30 1078 C 108.944 -1.899 3.05251 0
M  V30 1079 C 108.608 -1.24764 4.39639 0
M  V30 1080 C 109.605 -0.630216 5.16066 0
M  V30 1081 C 107.29 -1.25496 4.8637 0
M  V30 1082 C 109.284 -0.0287946 6.37393 0
M  V30 1083 C 106.971 -0.649698 6.07637 0
M  V30 1084 C 107.969 -0.0376845 6.8299 0
M  V30 1085 O 107.657 0.55812 8.0196 0
M  V30 1086 H 107.389 -0.281508 0.614597 0
M  V30 1087 H 109.943 -0.222458 2.04192 0
M  V30 1088 H 108.173 -2.6599 2.80689 0
M  V30 1089 H 109.862 -2.5031 3.1953 0
M  V30 1090 H 110.628 -0.616785 4.81062 0
M  V30 1091 H 106.507 -1.72072 4.27683 0
M  V30 1092 H 110.051 0.449518 6.9615 0
M  V30 1093 H 105.948 -0.660592 6.42111 0
M  V30 1094 H 106.716 0.453891 8.17241 0
M  V30 1095 N 109.379 -1.50304 -0.473955 0
M  V30 1096 C 110.625 -1.61389 -1.22806 0
M  V30 1097 C 110.958 -0.311955 -1.91678 0
M  V30 1098 O 110.233 0.686384 -1.81986 0
M  V30 1099 C 110.516 -2.79219 -2.27396 0
M  V30 1100 C 110.369 -4.19286 -1.62848 0
M  V30 1101 C 111.688 -2.92614 -3.28732 0
M  V30 1102 H 108.807 -0.587399 -0.445119 0
M  V30 1103 H 111.449 -1.82681 -0.522265 0
M  V30 1104 H 109.599 -2.61195 -2.87592 0
M  V30 1105 H 111.271 -4.48892 -1.06271 0
M  V30 1106 H 109.514 -4.23677 -0.931693 0
M  V30 1107 H 110.185 -4.97655 -2.38838 0
M  V30 1108 H 112.661 -3.09105 -2.78556 0
M  V30 1109 H 111.537 -3.76688 -3.99246 0
M  V30 1110 H 111.798 -2.03107 -3.92683 0
M  V30 1111 N 110.857 0.726932 -1.39834 0
M  V30 1112 C 111.82 1.82269 -1.38962 0
M  V30 1113 C 112.82 1.58248 -0.285334 0
M  V30 1114 O 114.01 1.65499 -0.54366 0
M  V30 1115 C 111.142 3.20186 -1.17019 0
M  V30 1116 H 112.335 1.84443 -2.36476 0
M  V30 1117 H 109.888 0.931416 -1.25516 0
M  V30 1118 H 110.623 3.23669 -0.202204 0
M  V30 1119 H 110.408 3.3902 -1.96998 0
M  V30 1120 H 111.898 4.00235 -1.1917 0
M  V30 1121 N 112.336 1.25143 0.95797 0
M  V30 1122 C 113.246 1.06968 2.08794 0
M  V30 1123 C 114.262 0.00773911 1.73998 0
M  V30 1124 O 115.438 0.207972 2.00323 0
M  V30 1125 C 112.503 0.68691 3.39827 0
M  V30 1126 C 111.564 1.82641 3.88511 0
M  V30 1127 C 110.797 1.46181 5.1329 0
M  V30 1128 O 111.02 0.355971 5.69288 0
M  V30 1129 O 109.954 2.29085 5.566 0
M  V30 1130 H 113.78 2.01723 2.27027 0
M  V30 1131 H 111.365 1.04051 1.07209 0
M  V30 1132 H 113.247 0.485417 4.18595 0
M  V30 1133 H 111.922 -0.231417 3.22872 0
M  V30 1134 H 110.829 2.08274 3.10762 0
M  V30 1135 H 112.162 2.72386 4.09959 0
M  V30 1136 N 113.814 -1.1601 1.06675 0
M  V30 1137 C 114.762 -2.22586 0.675157 0
M  V30 1138 C 115.756 -1.66525 -0.310766 0
M  V30 1139 O 116.962 -1.79145 -0.175215 0
M  V30 1140 H 113.337 -0.724855 0.200223 0
M  V30 1141 H 115.308 -2.52899 1.58381 0
M  V30 1142 C 114.057 -3.47604 0.0817162 0
M  V30 1143 H 113.38 -3.91058 0.831484 0
M  V30 1144 H 114.82 -4.23718 -0.154708 0
M  V30 1145 C 113.279 -3.15718 -1.17576 0
M  V30 1146 O 113.809 -3.31878 -2.26318 0
M  V30 1147 N 112.015 -2.69816 -1.07923 0
M  V30 1148 H 111.562 -2.56866 -0.194293 0
M  V30 1149 H 111.52 -2.48855 -1.92141 0
M  V30 1150 N 115.292 -0.849877 -1.32721 0
M  V30 1151 C 116.517 -0.463856 -2.02146 0
M  V30 1152 C 116.942 0.930449 -1.63476 0
M  V30 1153 O 116.3 1.61033 -0.832952 0
M  V30 1154 C 116.348 -0.604955 -3.55489 0
M  V30 1155 O 115.452 0.36425 -4.10788 0
M  V30 1156 H 114.793 -0.187046 -0.637111 0
M  V30 1157 H 117.323 -1.14775 -1.69375 0
M  V30 1158 H 117.333 -0.490696 -4.05038 0
M  V30 1159 H 116.008 -1.62174 -3.82978 0
M  V30 1160 H 114.585 0.206628 -3.72327 0
M  V30 1161 N 116.77 1.45427 -0.607355 0
M  V30 1162 C 118.016 2.0254 -0.102607 0
M  V30 1163 C 118.349 1.47478 1.26348 0
M  V30 1164 O 117.624 0.64939 1.83339 0
M  V30 1165 C 117.907 3.60044 -0.0634347 0
M  V30 1166 C 117.76 4.2544 -1.46017 0
M  V30 1167 C 119.079 4.35646 0.624514 0
M  V30 1168 H 116.198 0.73598 -0.0387607 0
M  V30 1169 H 118.84 1.73284 -0.779282 0
M  V30 1170 H 116.99 3.85101 0.512808 0
M  V30 1171 H 118.662 4.11569 -2.08347 0
M  V30 1172 H 116.905 3.83849 -2.02094 0
M  V30 1173 H 117.576 5.34342 -1.385 0
M  V30 1174 H 120.052 4.15882 0.134723 0
M  V30 1175 H 118.928 5.45376 0.621028 0
M  V30 1176 H 119.189 4.08501 1.69055 0
M  V30 1177 N 118.248 0.346503 1.53744 0
M  V30 1178 C 119.178 -0.501193 2.28058 0
M  V30 1179 C 120.159 -1.10014 1.29734 0
M  V30 1180 O 121.344 -1.12097 1.58581 0
M  V30 1181 C 118.474 -1.65078 3.05559 0
M  V30 1182 C 117.428 -1.18003 4.11411 0
M  V30 1183 C 116.754 -2.41837 4.76884 0
M  V30 1184 C 118.054 -0.278394 5.21558 0
M  V30 1185 H 119.748 0.11875 2.99164 0
M  V30 1186 H 117.294 0.0585531 1.43881 0
M  V30 1187 H 119.247 -2.25028 3.56287 0
M  V30 1188 H 117.971 -2.29767 2.32109 0
M  V30 1189 H 116.63 -0.603331 3.61601 0
M  V30 1190 H 116.278 -3.0494 4.00026 0
M  V30 1191 H 115.978 -2.1102 5.48402 0
M  V30 1192 H 117.502 -3.02508 5.30397 0
M  V30 1193 H 118.916 -0.784823 5.67903 0
M  V30 1194 H 117.313 -0.0619707 6.00068 0
M  V30 1195 H 118.383 0.684677 4.80042 0
M  V30 1196 N 119.726 -1.57421 0.075193 0
M  V30 1197 C 120.973 -1.93618 -0.593146 0
M  V30 1198 C 121.301 -0.955484 -1.69413 0
M  V30 1199 O 120.556 0.0283251 -1.9568 0
M  V30 1200 C 120.855 -3.36428 -1.20626 0
M  V30 1201 C 120.521 -4.50307 -0.231078 0
M  V30 1202 C 119.183 -4.81186 0.0371936 0
M  V30 1203 C 121.535 -5.19374 0.435888 0
M  V30 1204 C 118.863 -5.78466 0.979461 0
M  V30 1205 C 121.215 -6.17665 1.3665 0
M  V30 1206 C 119.879 -6.46958 1.6432 0
M  V30 1207 H 119.149 -0.708499 -0.217047 0
M  V30 1208 H 121.796 -1.90937 0.146793 0
M  V30 1209 H 120.101 -3.35592 -2.02201 0
M  V30 1210 H 121.798 -3.61727 -1.73073 0
M  V30 1211 H 118.388 -4.26227 -0.450357 0
M  V30 1212 H 122.572 -4.95711 0.241748 0
M  V30 1213 H 117.828 -5.99487 1.20106 0
M  V30 1214 H 122.002 -6.70284 1.88924 0
M  V30 1215 H 119.629 -7.2215 2.37494 0
M  V30 1216 N 121.204 0.198386 -1.56346 0
M  V30 1217 C 122.137 1.27381 -1.89339 0
M  V30 1218 C 123.115 1.44106 -0.753134 0
M  V30 1219 O 124.299 1.59549 -1.00381 0
M  V30 1220 C 121.426 2.6409 -2.12071 0
M  V30 1221 C 120.472 2.64253 -3.34772 0
M  V30 1222 S 121.305 2.16013 -4.89999 0
M  V30 1223 C 122.461 3.54553 -5.15794 0
M  V30 1224 H 122.694 0.992058 -2.8026 0
M  V30 1225 H 120.227 0.401726 -1.49082 0
M  V30 1226 H 122.185 3.42786 -2.2585 0
M  V30 1227 H 120.846 2.89478 -1.21906 0
M  V30 1228 H 120.039 3.64768 -3.47794 0
M  V30 1229 H 119.641 1.93637 -3.1997 0
M  V30 1230 H 121.933 4.50396 -5.06112 0
M  V30 1231 H 122.876 3.46428 -6.1757 0
M  V30 1232 H 123.284 3.49313 -4.43442 0
M  V30 1233 N 122.682 1.50554 0.465978 0
M  V30 1234 C 123.922 1.63439 1.22747 0
M  V30 1235 C 124.286 0.329822 1.89146 0
M  V30 1236 O 125.487 0.334161 2.66715 0
M  V30 1237 C 123.758 2.78542 2.2394 0
M  V30 1238 S 125.317 3.11591 3.0896 0
M  V30 1239 H 122.135 0.576113 0.416672 0
M  V30 1240 H 124.737 1.88357 0.523641 0
M  V30 1241 H 123.441 3.71805 1.7375 0
M  V30 1242 H 122.972 2.55726 2.98944 0
M  V30 1243 H 124.987 2.55811 4.25176 0
M  V30 1244 N 124.16 -0.719506 1.40217 0
M  V30 1245 C 125.39 -1.50646 1.41384 0
M  V30 1246 C 125.798 -1.89197 0.0107743 0
M  V30 1247 O 125.141 -1.55709 -0.974708 0
M  V30 1248 C 125.203 -2.81405 2.23722 0
M  V30 1249 C 124.867 -2.65199 3.72181 0
M  V30 1250 C 125.864 -2.32717 4.64907 0
M  V30 1251 C 123.549 -2.81586 4.1595 0
M  V30 1252 C 125.543 -2.16827 5.99387 0
M  V30 1253 C 123.23 -2.65313 5.50502 0
M  V30 1254 C 124.228 -2.32981 6.42035 0
M  V30 1255 O 123.916 -2.16827 7.74107 0
M  V30 1256 H 123.648 -0.471606 0.484318 0
M  V30 1257 H 126.202 -0.895456 1.84853 0
M  V30 1258 H 124.432 -3.44823 1.75026 0
M  V30 1259 H 126.121 -3.43102 2.16878 0
M  V30 1260 H 126.887 -2.19694 4.32388 0
M  V30 1261 H 122.766 -3.0574 3.45027 0
M  V30 1262 H 126.31 -1.91513 6.70797 0
M  V30 1263 H 122.207 -2.7792 5.82607 0
M  V30 1264 H 122.975 -2.31778 7.84998 0
M  V30 1265 N 125.638 -1.25649 -0.95132 0
M  V30 1266 C 126.886 -1.10375 -1.69298 0
M  V30 1267 C 127.207 0.355339 -1.91735 0
M  V30 1268 O 126.477 1.25188 -1.50681 0
M  V30 1269 H 125.057 -0.405461 -0.627384 0
M  V30 1270 H 127.719 -1.57823 -1.14358 0
M  V30 1271 H 126.815 -1.61465 -2.67087 0
M  V30 1272 N 127.117 1.15442 -1.07289 0
M  V30 1273 C 128.364 1.86213 -0.795668 0
M  V30 1274 C 128.692 1.82291 0.678238 0
M  V30 1275 O 127.947 1.24057 1.51355 0
M  V30 1276 C 128.246 3.3489 -1.24834 0
M  V30 1277 C 127.912 3.59007 -2.72809 0
M  V30 1278 C 126.574 3.65298 -3.13227 0
M  V30 1279 C 128.926 3.68762 -3.68326 0
M  V30 1280 C 126.254 3.78854 -4.4798 0
M  V30 1281 C 128.606 3.83842 -5.0284 0
M  V30 1282 C 127.27 3.88378 -5.4288 0
M  V30 1283 H 126.54 0.681403 -0.291155 0
M  V30 1284 H 129.187 1.36435 -1.34379 0
M  V30 1285 H 127.492 3.8687 -0.619595 0
M  V30 1286 H 129.189 3.88052 -1.01076 0
M  V30 1287 H 125.779 3.5475 -2.40521 0
M  V30 1288 H 129.963 3.63202 -3.38227 0
M  V30 1289 H 125.219 3.80623 -4.78472 0
M  V30 1290 H 129.393 3.90332 -5.76727 0
M  V30 1291 H 127.02 3.98635 -6.47298 0
M  V30 1292 N 128.595 0.856903 1.32268 0
M  V30 1293 C 129.835 0.467705 1.98977 0
M  V30 1294 C 130.199 -0.959231 1.66321 0
M  V30 1295 O 131.4 -1.4531 2.26138 0
M  V30 1296 C 129.671 0.70256 3.50427 0
M  V30 1297 S 131.23 0.411269 4.36868 0
M  V30 1298 H 128.048 0.175121 0.689096 0
M  V30 1299 H 130.65 1.1101 1.60925 0
M  V30 1300 H 129.354 1.74012 3.71683 0
M  V30 1301 H 128.885 0.0466707 3.93372 0
M  V30 1302 H 130.9 -0.761799 4.90317 0
M  V30 1303 N 130.073 -1.45103 0.615059 0
M  V30 1304 C 131.005 -2.28786 -0.13762 0
M  V30 1305 C 132.018 -1.40376 -0.824525 0
M  V30 1306 O 133.207 -1.64681 -0.688662 0
M  V30 1307 C 130.307 -3.16322 -1.21628 0
M  V30 1308 C 129.48 -4.33054 -0.615039 0
M  V30 1309 C 128.539 -5.01743 -1.58556 0
M  V30 1310 O 127.565 -5.58293 -1.10895 0
M  V30 1311 N 128.767 -5.01714 -2.91998 0
M  V30 1312 H 131.532 -2.94025 0.580483 0
M  V30 1313 H 129.093 -1.55373 0.45507 0
M  V30 1314 H 131.085 -3.59139 -1.86552 0
M  V30 1315 H 129.655 -2.52943 -1.83681 0
M  V30 1316 H 128.875 -3.93627 0.21245 0
M  V30 1317 H 130.163 -5.08431 -0.193704 0
M  V30 1318 H 129.561 -4.57075 -3.33316 0
M  V30 1319 H 128.118 -5.48371 -3.52325 0
M  V30 1320 N 131.551 -0.354651 -1.53558 0
M  V30 1321 C 132.483 0.5315 -2.22952 0
M  V30 1322 C 133.496 1.05503 -1.23988 0
M  V30 1323 O 134.685 0.963279 -1.50277 0
M  V30 1324 C 131.785 1.74538 -2.90499 0
M  V30 1325 C 130.958 1.35524 -4.15875 0
M  V30 1326 C 130.017 2.42999 -4.66731 0
M  V30 1327 O 129.043 2.05844 -5.30676 0
M  V30 1328 N 130.245 3.74423 -4.43608 0
M  V30 1329 H 133.01 -0.0628615 -2.99634 0
M  V30 1330 H 130.571 -0.179302 -1.60904 0
M  V30 1331 H 132.563 2.45892 -3.21433 0
M  V30 1332 H 131.133 2.24686 -2.17336 0
M  V30 1333 H 130.353 0.471998 -3.91364 0
M  V30 1334 H 131.641 1.07071 -4.97406 0
M  V30 1335 H 131.039 4.07391 -3.92491 0
M  V30 1336 H 129.596 4.41913 -4.7912 0
M  V30 1337 N 133.029 1.57378 -0.0835403 0
M  V30 1338 C 134.276 1.9393 0.58287 0
M  V30 1339 C 134.604 0.964455 1.68904 0
M  V30 1340 O 133.859 -0.0179474 1.95692 0
M  V30 1341 C 134.158 3.37063 1.1884 0
M  V30 1342 C 133.824 4.50424 0.207194 0
M  V30 1343 C 132.486 4.81159 -0.0627115 0
M  V30 1344 C 134.838 5.19136 -0.463426 0
M  V30 1345 C 132.166 5.77939 -1.01012 0
M  V30 1346 C 134.518 6.16931 -1.39924 0
M  V30 1347 C 133.182 6.46078 -1.67749 0
M  V30 1348 H 132.452 0.70964 0.213287 0
M  V30 1349 H 135.099 1.90856 -0.156916 0
M  V30 1350 H 133.404 3.3666 2.00418 0
M  V30 1351 H 135.101 3.6264 1.71153 0
M  V30 1352 H 131.691 4.2646 0.427747 0
M  V30 1353 H 135.875 4.95576 -0.268034 0
M  V30 1354 H 131.131 5.98842 -1.23283 0
M  V30 1355 H 135.305 6.69273 -1.92476 0
M  V30 1356 H 132.932 7.2088 -2.41321 0
M  V30 1357 N 134.507 -0.190092 1.56449 0
M  V30 1358 C 135.753 -0.911052 1.81184 0
M  V30 1359 C 136.086 -1.82699 0.658396 0
M  V30 1360 O 135.361 -1.91491 -0.340775 0
M  V30 1361 C 135.644 -1.72297 3.16205 0
M  V30 1362 C 135.497 -0.831419 4.42049 0
M  V30 1363 C 136.816 -2.69454 3.47969 0
M  V30 1364 H 133.935 -0.32977 0.659106 0
M  V30 1365 H 136.577 -0.178169 1.89163 0
M  V30 1366 H 134.727 -2.34778 3.09534 0
M  V30 1367 H 136.399 -0.220929 4.60771 0
M  V30 1368 H 134.642 -0.138406 4.33579 0
M  V30 1369 H 135.313 -1.43461 5.33032 0
M  V30 1370 H 137.789 -2.17104 3.54972 0
M  V30 1371 H 136.665 -3.23342 4.43555 0
M  V30 1372 H 136.926 -3.48744 2.71717 0
M  V30 1373 N 135.985 -1.50799 -0.457987 0
M  V30 1374 C 137.401 -1.38515 -0.792819 0
M  V30 1375 C 137.601 -0.451409 -1.96379 0
M  V30 1376 O 136.657 0.10112 -2.52297 0
M  V30 1377 C 137.97 -2.80149 -1.09258 0
M  V30 1378 C 139.518 -2.89156 -1.19825 0
M  V30 1379 C 139.993 -4.31651 -1.53106 0
M  V30 1380 N 141.484 -4.34662 -1.60072 0
M  V30 1381 C 142.219 -5.41928 -1.87354 0
M  V30 1382 N 141.715 -6.59384 -2.12568 0
M  V30 1383 N 143.508 -5.29385 -1.88965 0
M  V30 1384 H 135.659 -2.10073 0.313511 0
M  V30 1385 H 137.922 -0.944803 0.0777862 0
M  V30 1386 H 137.628 -3.50374 -0.305084 0
M  V30 1387 H 137.502 -3.18204 -2.02549 0
M  V30 1388 H 139.889 -2.19141 -1.97639 0
M  V30 1389 H 139.97 -2.54626 -0.244821 0
M  V30 1390 H 139.614 -5.02208 -0.758266 0
M  V30 1391 H 139.544 -4.63678 -2.49621 0
M  V30 1392 H 142.035 -3.49973 -1.42573 0
M  V30 1393 H 142.348 -7.36934 -2.32696 0
M  V30 1394 H 140.693 -6.62535 -2.09933 0
M  V30 1395 H 143.884 -4.36616 -1.68772 0
M  V30 1396 H 144.057 -6.13066 -2.09891 0
M  V30 1397 N 137.463 0.71206 -1.40597 0
M  V30 1398 C 138.41 1.82613 -1.41142 0
M  V30 1399 C 139.38 1.63925 -0.267903 0
M  V30 1400 O 140.565 1.85009 -0.466495 0
M  V30 1401 C 137.705 3.20354 -1.28324 0
M  V30 1402 C 136.818 3.50589 -2.52411 0
M  V30 1403 C 135.953 4.77855 -2.32009 0
M  V30 1404 C 134.992 5.01005 -3.51654 0
M  V30 1405 N 134.129 6.19487 -3.30425 0
M  V30 1406 H 138.969 1.81482 -2.36365 0
M  V30 1407 H 136.506 0.886475 -1.17388 0
M  V30 1408 H 138.464 3.99899 -1.18899 0
M  V30 1409 H 137.094 3.20705 -0.367189 0
M  V30 1410 H 136.146 2.65573 -2.72351 0
M  V30 1411 H 137.458 3.63604 -3.41458 0
M  V30 1412 H 136.612 5.65424 -2.19956 0
M  V30 1413 H 135.351 4.67056 -1.40392 0
M  V30 1414 H 134.356 4.1189 -3.64179 0
M  V30 1415 H 135.581 5.13674 -4.44202 0
M  V30 1416 H 133.527 6.09932 -2.41494 0
M  V30 1417 H 133.444 6.33194 -4.13039 0
M  V30 1418 H 134.712 7.09834 -3.22113 0
M  V30 1419 N 138.941 1.26152 0.944643 0
M  V30 1420 C 140.187 1.11657 1.69294 0
M  V30 1421 C 140.52 -0.339926 1.91202 0
M  V30 1422 O 139.795 -1.24994 1.49019 0
M  V30 1423 C 140.078 1.88236 3.06984 0
M  V30 1424 C 139.931 3.41772 2.92424 0
M  V30 1425 C 141.25 1.67343 4.07043 0
M  V30 1426 H 138.369 0.407004 0.614424 0
M  V30 1427 H 141.011 1.55106 1.09737 0
M  V30 1428 H 139.161 1.51308 3.57824 0
M  V30 1429 H 140.833 3.88433 2.48832 0
M  V30 1430 H 139.076 3.68974 2.28124 0
M  V30 1431 H 139.747 3.90579 3.90067 0
M  V30 1432 H 142.223 1.99509 3.65151 0
M  V30 1433 H 141.099 2.23346 5.01406 0
M  V30 1434 H 141.36 0.617158 4.37771 0
M  V30 1435 N 140.419 -1.14872 1.07899 0
M  V30 1436 C 141.382 -2.17986 0.708161 0
M  V30 1437 C 142.382 -1.58775 -0.25442 0
M  V30 1438 O 143.572 -1.74166 -0.034645 0
M  V30 1439 C 140.704 -3.40871 0.0446929 0
M  V30 1440 H 141.897 -2.52306 1.62116 0
M  V30 1441 H 139.45 -1.2943 0.876218 0
M  V30 1442 H 140.185 -3.12124 -0.880281 0
M  V30 1443 H 139.97 -3.8511 0.737091 0
M  V30 1444 H 141.46 -4.17121 -0.19991 0
M  V30 1445 N 141.898 -0.863906 -1.31812 0
M  V30 1446 C 143.146 -0.470904 -1.96537 0
M  V30 1447 C 143.467 0.978771 -1.68657 0
M  V30 1448 O 142.737 1.6853 -0.998717 0
M  V30 1449 H 141.317 -0.171148 -0.72713 0
M  V30 1450 H 143.979 -1.10236 -1.60729 0
M  V30 1451 H 143.075 -0.623616 -3.05806 0
M  V30 1452 N 143.376 1.44774 -0.622745 0
M  V30 1453 C 144.309 2.27792 0.136329 0
M  V30 1454 C 145.287 1.38041 0.859264 0
M  V30 1455 O 146.471 1.67478 0.86506 0
M  V30 1456 C 143.598 3.16776 1.19878 0
M  V30 1457 C 142.644 4.22575 0.57731 0
M  V30 1458 S 143.477 5.31825 -0.626294 0
M  V30 1459 C 144.633 6.24377 0.436378 0
M  V30 1460 H 144.866 2.91824 -0.567967 0
M  V30 1461 H 142.399 1.48838 -0.410677 0
M  V30 1462 H 144.357 3.68596 1.80686 0
M  V30 1463 H 143.018 2.5198 1.87523 0
M  V30 1464 H 142.211 4.84818 1.37721 0
M  V30 1465 H 141.813 3.73974 0.0440439 0
M  V30 1466 H 144.105 6.64689 1.31128 0
M  V30 1467 H 145.048 7.07941 -0.150271 0
M  V30 1468 H 145.456 5.59381 0.758513 0
M  V30 1469 N 144.854 0.36279 1.53368 0
M  V30 1470 C 146.131 -0.284021 1.93527 0
M  V30 1471 C 146.511 -1.66628 1.29608 0
M  V30 1472 O 145.859 -2.23942 0.45413 0
M  V30 1473 C 146.069 -0.337028 3.47369 0
M  V30 1474 C 147.417 -0.578708 4.20638 0
M  V30 1475 O 148.441 -0.418352 3.53735 0
M  V30 1476 O 147.3 -0.89074 5.39192 0
M  V30 1477 H 144.394 -0.169743 0.809393 0
M  V30 1478 H 146.94 0.41537 1.64538 0
M  V30 1479 H 145.712 0.632217 3.86159 0
M  V30 1480 H 145.335 -1.08243 3.82582 0
M  V30 1481 N 146.332 -1.57332 0.0918853 0
M  V30 1482 C 147.279 -2.13847 -0.868211 0
M  V30 1483 C 148.249 -1.05618 -1.28196 0
M  V30 1484 O 149.434 -1.33387 -1.36427 0
M  V30 1485 C 146.574 -2.72062 -2.12312 0
M  V30 1486 C 145.687 -3.94514 -1.7602 0
M  V30 1487 C 144.822 -4.40903 -2.96273 0
M  V30 1488 C 143.861 -5.55953 -2.56092 0
M  V30 1489 N 142.998 -5.97209 -3.69169 0
M  V30 1490 H 147.838 -2.95575 -0.379406 0
M  V30 1491 H 145.375 -1.46048 -0.175606 0
M  V30 1492 H 147.333 -3.03931 -2.858 0
M  V30 1493 H 145.963 -1.93068 -2.58698 0
M  V30 1494 H 145.015 -3.68979 -0.925135 0
M  V30 1495 H 146.327 -4.7802 -1.42472 0
M  V30 1496 H 145.481 -4.74539 -3.78018 0
M  V30 1497 H 144.22 -3.56291 -3.33029 0
M  V30 1498 H 143.225 -5.21948 -1.72773 0
M  V30 1499 H 144.45 -6.42311 -2.20484 0
M  V30 1500 H 142.396 -5.15543 -4.05649 0
M  V30 1501 H 142.313 -6.75504 -3.39456 0
M  V30 1502 H 143.581 -6.35475 -4.51434 0
M  V30 1503 N 147.81 0.181792 -1.56548 0
M  V30 1504 C 148.742 1.24956 -1.92142 0
M  V30 1505 C 149.755 1.41022 -0.813422 0
M  V30 1506 O 150.944 1.41212 -1.09186 0
M  V30 1507 C 148.044 2.61981 -2.14987 0
M  V30 1508 C 147.217 2.6735 -3.46183 0
M  V30 1509 C 146.276 3.85664 -3.5798 0
M  V30 1510 O 145.302 3.72148 -4.30691 0
M  V30 1511 N 146.504 5.01683 -2.92053 0
M  V30 1512 H 149.269 0.947329 -2.84334 0
M  V30 1513 H 146.83 0.371629 -1.57577 0
M  V30 1514 H 148.822 3.3958 -2.20154 0
M  V30 1515 H 147.392 2.84637 -1.2923 0
M  V30 1516 H 146.612 1.75925 -3.52766 0
M  V30 1517 H 147.9 2.67939 -4.32534 0
M  V30 1518 H 147.298 5.15564 -2.32832 0
M  V30 1519 H 145.855 5.77181 -3.0283 0
M  V30 1520 N 149.288 1.51039 0.449983 0
M  V30 1521 C 150.251 1.70863 1.5277 0
M  V30 1522 C 151.251 0.578846 1.5002 0
M  V30 1523 O 152.441 0.846213 1.52266 0
M  V30 1524 C 149.573 1.75341 2.9235 0
M  V30 1525 H 150.766 2.67034 1.36502 0
M  V30 1526 H 148.319 1.40838 0.677812 0
M  V30 1527 H 149.054 0.809383 3.14037 0
M  V30 1528 H 148.839 2.57436 2.95752 0
M  V30 1529 H 150.329 1.92559 3.70555 0
M  V30 1530 N 150.766 -0.704594 1.40972 0
M  V30 1531 C 151.713 -1.81862 1.42109 0
M  V30 1532 C 152.683 -1.63781 0.276593 0
M  V30 1533 O 153.868 -1.84759 0.4763 0
M  V30 1534 C 151.008 -3.19669 1.30022 0
M  V30 1535 C 150.121 -3.49246 2.54267 0
M  V30 1536 C 149.256 -4.76618 2.3454 0
M  V30 1537 C 148.295 -4.99133 3.54306 0
M  V30 1538 N 147.432 -6.17726 3.33706 0
M  V30 1539 H 152.272 -1.80226 2.37324 0
M  V30 1540 H 149.809 -0.880238 1.17857 0
M  V30 1541 H 151.767 -3.99263 1.21018 0
M  V30 1542 H 150.397 -3.20506 0.384192 0
M  V30 1543 H 149.449 -2.64125 2.73756 0
M  V30 1544 H 150.761 -3.61788 3.43381 0
M  V30 1545 H 149.915 -5.64249 2.22952 0
M  V30 1546 H 148.654 -4.66305 1.42867 0
M  V30 1547 H 147.659 -4.09953 3.66359 0
M  V30 1548 H 148.884 -5.11311 4.4692 0
M  V30 1549 H 146.83 -6.08642 2.44725 0
M  V30 1550 H 146.747 -6.30995 4.16391 0
M  V30 1551 H 148.015 -7.08115 3.25873 0
M  V30 1552 N 152.244 -1.26651 -0.937939 0
M  V30 1553 C 153.174 -1.10993 -2.05433 0
M  V30 1554 C 154.155 -0.0142161 -1.70094 0
M  V30 1555 O 155.34 -0.186837 -1.93299 0
M  V30 1556 C 152.47 -0.745561 -3.39203 0
M  V30 1557 C 151.424 -1.79337 -3.88616 0
M  V30 1558 C 150.75 -1.28324 -5.19073 0
M  V30 1559 C 152.05 -3.19553 -4.13138 0
M  V30 1560 H 153.744 -2.0438 -2.1879 0
M  V30 1561 H 151.29 -0.984041 -1.05131 0
M  V30 1562 H 153.243 -0.622888 -4.16771 0
M  V30 1563 H 151.967 0.22401 -3.25831 0
M  V30 1564 H 150.626 -1.90477 -3.13231 0
M  V30 1565 H 150.274 -0.303414 -5.02084 0
M  V30 1566 H 149.974 -1.98369 -5.53103 0
M  V30 1567 H 151.498 -1.1733 -5.99221 0
M  V30 1568 H 152.912 -3.11471 -4.81309 0
M  V30 1569 H 151.309 -3.87218 -4.58457 0
M  V30 1570 H 152.379 -3.65368 -3.18801 0
M  V30 1571 N 153.722 1.14298 -1.08507 0
M  V30 1572 C 154.947 1.8976 -0.837001 0
M  V30 1573 C 155.372 1.78097 0.605228 0
M  V30 1574 O 154.73 1.12188 1.4242 0
M  V30 1575 C 154.778 3.37685 -1.26495 0
M  V30 1576 O 153.882 4.10281 -0.417514 0
M  V30 1577 H 153.223 0.590365 -0.303917 0
M  V30 1578 H 155.753 1.44672 -1.44676 0
M  V30 1579 H 155.763 3.88501 -1.24625 0
M  V30 1580 H 154.438 3.45492 -2.31534 0
M  V30 1581 H 153.015 3.69536 -0.499722 0
M  V30 1582 N 155.201 0.870884 1.31352 0
M  V30 1583 C 156.478 0.402907 1.91405 0
M  V30 1584 C 156.858 -1.11512 1.79244 0
M  V30 1585 O 156.206 -1.94411 1.2007 0
M  V30 1586 C 156.416 0.885301 3.37585 0
M  V30 1587 C 157.764 0.911971 4.14691 0
M  V30 1588 O 158.788 0.831016 3.46371 0
M  V30 1589 O 157.647 1.02927 5.3672 0
M  V30 1590 H 154.741 0.120698 0.818145 0
M  V30 1591 H 157.287 0.958857 1.40014 0
M  V30 1592 H 156.059 1.92889 3.40455 0
M  V30 1593 H 155.682 0.307714 3.96407 0
M  V30 1594 N 156.679 -1.44442 0.630414 0
M  V30 1595 C 157.609 -2.33418 -0.0618083 0
M  V30 1596 C 158.59 -1.48165 -0.835541 0
M  V30 1597 O 159.775 -1.76886 -0.801564 0
M  V30 1598 C 156.905 -3.31222 -1.04449 0
M  V30 1599 C 155.859 -4.26288 -0.382436 0
M  V30 1600 C 155.185 -5.13954 -1.47497 0
M  V30 1601 C 156.485 -5.1744 0.710865 0
M  V30 1602 H 158.179 -2.91548 0.681184 0
M  V30 1603 H 155.725 -1.40191 0.329026 0
M  V30 1604 H 157.678 -3.92351 -1.53748 0
M  V30 1605 H 156.402 -2.71299 -1.81836 0
M  V30 1606 H 155.061 -3.6649 0.0899054 0
M  V30 1607 H 154.709 -4.50385 -2.2397 0
M  V30 1608 H 154.409 -5.7837 -1.03737 0
M  V30 1609 H 155.933 -5.77955 -1.96979 0
M  V30 1610 H 157.347 -5.72509 0.300996 0
M  V30 1611 H 155.744 -5.90455 1.07156 0
M  V30 1612 H 156.814 -4.58496 1.57829 0
M  V30 1613 N 158.157 -0.370918 -1.53173 0
M  V30 1614 C 159.089 0.507823 -2.23503 0
M  V30 1615 C 160.102 1.04182 -1.251 0
M  V30 1616 O 161.291 0.947286 -1.5129 0
M  V30 1617 C 158.391 1.71447 -2.92334 0
M  V30 1618 C 157.564 1.31105 -4.17289 0
M  V30 1619 C 156.623 2.38035 -4.69282 0
M  V30 1620 O 155.649 2.00204 -5.32829 0
M  V30 1621 N 156.851 3.69697 -4.47554 0
M  V30 1622 H 159.616 -0.0946382 -2.99551 0
M  V30 1623 H 157.177 -0.196358 -1.60705 0
M  V30 1624 H 159.169 2.42469 -3.24023 0
M  V30 1625 H 157.739 2.22368 -2.19707 0
M  V30 1626 H 156.959 0.430462 -3.91843 0
M  V30 1627 H 158.247 1.0179 -4.98514 0
M  V30 1628 H 157.645 4.03205 -3.9679 0
M  V30 1629 H 156.202 4.36807 -4.8378 0
M  V30 1630 N 159.635 1.57281 -0.100228 0
M  V30 1631 C 160.863 1.98879 0.570509 0
M  V30 1632 C 161.278 0.979476 1.61405 0
M  V30 1633 O 160.635 -0.0302288 1.82475 0
M  V30 1634 C 160.686 3.4052 1.2136 0
M  V30 1635 O 160.407 4.37588 0.211786 0
M  V30 1636 C 161.908 3.97149 1.96945 0
M  V30 1637 H 159.128 0.653428 0.152555 0
M  V30 1638 H 161.672 2.03697 -0.18103 0
M  V30 1639 H 159.827 3.367 1.91603 0
M  V30 1640 H 160.241 5.20118 0.676607 0
M  V30 1641 H 161.715 4.98393 2.37294 0
M  V30 1642 H 162.192 3.3525 2.83733 0
M  V30 1643 H 162.798 4.04458 1.31506 0
M  V30 1644 N 161.113 -0.173488 1.56642 0
M  V30 1645 C 162.076 -1.19859 1.95362 0
M  V30 1646 C 163.076 -1.37296 0.83704 0
M  V30 1647 O 164.266 -1.34739 1.10413 0
M  V30 1648 C 161.398 -2.56405 2.24654 0
M  V30 1649 H 162.591 -0.867062 2.87092 0
M  V30 1650 H 160.144 -0.415853 1.50666 0
M  V30 1651 H 160.879 -2.94576 1.35631 0
M  V30 1652 H 160.664 -2.45115 3.06041 0
M  V30 1653 H 162.154 -3.30287 2.5554 0
M  V30 1654 N 162.591 -1.51276 -0.441967 0
M  V30 1655 C 163.554 -1.7167 -1.51862 0
M  V30 1656 C 164.554 -0.586793 -1.49711 0
M  V30 1657 O 165.744 -0.854276 -1.51815 0
M  V30 1658 C 162.876 -1.76889 -2.91416 0
M  V30 1659 H 164.069 -2.67754 -1.35084 0
M  V30 1660 H 161.622 -1.41196 -0.670333 0
M  V30 1661 H 162.357 -0.826026 -3.13604 0
M  V30 1662 H 162.142 -2.59001 -2.94382 0
M  V30 1663 H 163.632 -1.94522 -3.69528 0
M  V30 1664 N 164.069 0.697108 -1.41344 0
M  V30 1665 C 165.032 1.79281 -1.42797 0
M  V30 1666 C 166.032 1.57607 -0.318837 0
M  V30 1667 O 167.222 1.64309 -0.578642 0
M  V30 1668 C 164.354 3.17632 -1.23785 0
M  V30 1669 H 165.547 1.79385 -2.40335 0
M  V30 1670 H 163.1 0.904582 -1.27464 0
M  V30 1671 H 163.835 3.23167 -0.270814 0
M  V30 1672 H 163.62 3.34765 -2.04144 0
M  V30 1673 H 165.11 3.97617 -1.27633 0
M  V30 1674 N 165.547 1.27147 0.931209 0
M  V30 1675 C 166.795 1.13055 1.6752 0
M  V30 1676 C 167.116 -0.324791 1.92276 0
M  V30 1677 O 166.386 -1.22775 1.52654 0
M  V30 1678 H 164.966 0.415391 0.620854 0
M  V30 1679 H 167.628 1.59623 1.11833 0
M  V30 1680 H 166.724 1.65694 2.64485 0
M  V30 1681 N 167.025 -1.13721 1.09112 0
M  V30 1682 C 168.25 -1.89314 0.847053 0
M  V30 1683 C 168.675 -1.78416 -0.595774 0
M  V30 1684 O 168.033 -1.12942 -1.41823 0
M  V30 1685 C 168.081 -3.3701 1.28284 0
M  V30 1686 O 167.185 -4.10054 0.439267 0
M  V30 1687 H 166.526 -0.588745 0.307044 0
M  V30 1688 H 169.056 -1.43902 1.45442 0
M  V30 1689 H 169.066 -3.87834 1.26683 0
M  V30 1690 H 167.741 -3.4426 2.33363 0
M  V30 1691 H 166.318 -3.69266 0.519312 0
M  V30 1692 N 168.503 -0.877838 -1.30888 0
M  V30 1693 C 169.75 -0.492696 -1.96415 0
M  V30 1694 C 170.078 0.956671 -1.69346 0
M  V30 1695 O 169.333 1.68993 -0.986913 0
M  V30 1696 C 169.632 -0.705748 -3.50363 0
M  V30 1697 C 169.298 -2.1291 -3.97467 0
M  V30 1698 C 167.96 -2.51834 -4.1004 0
M  V30 1699 C 170.312 -3.05702 -4.22132 0
M  V30 1700 C 167.64 -3.82775 -4.44635 0
M  V30 1701 C 169.992 -4.36166 -4.58194 0
M  V30 1702 C 168.656 -4.74993 -4.68975 0
M  V30 1703 H 167.926 -0.18029 -0.718733 0
M  V30 1704 H 170.573 -1.11233 -1.55883 0
M  V30 1705 H 168.878 -0.00303058 -3.918 0
M  V30 1706 H 170.575 -0.387456 -3.99124 0
M  V30 1707 H 167.165 -1.81694 -3.88182 0
M  V30 1708 H 171.349 -2.76853 -4.11906 0
M  V30 1709 H 166.605 -4.12609 -4.51181 0
M  V30 1710 H 170.779 -5.08111 -4.76231 0
M  V30 1711 H 168.406 -5.76495 -4.95537 0
M  V30 1712 N 169.982 1.44106 -0.638065 0
M  V30 1713 C 170.945 2.29138 0.0531013 0
M  V30 1714 C 171.945 1.41409 0.765506 0
M  V30 1715 O 173.135 1.63206 0.609046 0
M  V30 1716 C 170.267 3.23144 1.08584 0
M  V30 1717 H 171.46 2.91739 -0.694883 0
M  V30 1718 H 169.013 1.51134 -0.398538 0
M  V30 1719 H 169.748 2.65408 1.86357 0
M  V30 1720 H 169.533 3.87804 0.578852 0
M  V30 1721 H 171.023 3.87004 1.56899 0
M  V30 1722 N 171.46 0.379036 1.52974 0
M  V30 1723 C 172.685 -0.209353 2.06341 0
M  V30 1724 C 173.11 -1.40583 1.24972 0
M  V30 1725 O 172.468 -1.79246 0.272155 0
M  V30 1726 C 172.516 -0.567786 3.56102 0
M  V30 1727 O 171.62 -1.66318 3.77375 0
M  V30 1728 H 170.961 -0.0272919 0.663439 0
M  V30 1729 H 173.491 0.543536 1.97248 0
M  V30 1730 H 173.501 -0.835003 3.99364 0
M  V30 1731 H 172.176 0.307013 4.14765 0
M  V30 1732 H 170.753 -1.39048 3.46006 0
M  V30 1733 N 172.938 -1.57226 0.108567 0
M  V30 1734 C 173.901 -2.13602 -0.831082 0
M  V30 1735 C 174.901 -1.06841 -1.20173 0
M  V30 1736 O 176.091 -1.32666 -1.12895 0
M  V30 1737 C 173.223 -2.66769 -2.12243 0
M  V30 1738 H 174.416 -2.97951 -0.341317 0
M  V30 1739 H 171.969 -1.55667 -0.14057 0
M  V30 1740 H 172.704 -1.85977 -2.65675 0
M  V30 1741 H 172.489 -3.44839 -1.86625 0
M  V30 1742 H 173.979 -3.10332 -2.79435 0
M  V30 1743 N 174.416 0.165178 -1.56732 0
M  V30 1744 C 175.663 0.880807 -1.8234 0
M  V30 1745 C 175.991 1.81977 -0.686621 0
M  V30 1746 O 175.246 1.92971 0.325697 0
M  V30 1747 C 175.545 1.70405 -3.1416 0
M  V30 1748 C 175.211 0.913475 -4.4155 0
M  V30 1749 C 173.873 0.695303 -4.7615 0
M  V30 1750 C 176.225 0.359349 -5.1996 0
M  V30 1751 C 173.553 -0.0879947 -5.86634 0
M  V30 1752 C 175.905 -0.410893 -6.31264 0
M  V30 1753 C 174.569 -0.639808 -6.64427 0
M  V30 1754 H 173.839 0.32231 -0.667231 0
M  V30 1755 H 176.486 0.145402 -1.90947 0
M  V30 1756 H 174.791 2.50903 -3.00923 0
M  V30 1757 H 176.488 2.26091 -3.31186 0
M  V30 1758 H 173.078 1.09357 -4.14414 0
M  V30 1759 H 177.262 0.515228 -4.93618 0
M  V30 1760 H 172.518 -0.27503 -6.10781 0
M  V30 1761 H 176.692 -0.847494 -6.91224 0
M  V30 1762 H 174.319 -1.24864 -7.49875 0
M  V30 1763 N 175.894 1.51508 0.433938 0
M  V30 1764 C 176.857 1.72473 1.50949 0
M  V30 1765 C 177.857 0.594725 1.49398 0
M  V30 1766 O 179.047 0.862315 1.5136 0
M  V30 1767 C 176.179 1.78431 2.90474 0
M  V30 1768 H 177.372 2.68467 1.33662 0
M  V30 1769 H 174.925 1.41549 0.662836 0
M  V30 1770 H 175.66 0.842645 3.13161 0
M  V30 1771 H 175.445 2.60558 2.93005 0
M  V30 1772 H 176.935 1.96479 3.68491 0
M  V30 1773 N 177.372 -0.689602 1.41712 0
M  V30 1774 C 178.335 -1.78521 1.43746 0
M  V30 1775 C 179.335 -1.57436 0.327191 0
M  V30 1776 O 180.525 -1.64 0.587348 0
M  V30 1777 C 177.657 -3.16971 1.25467 0
M  V30 1778 H 178.85 -1.78108 2.41283 0
M  V30 1779 H 176.403 -0.89781 1.27942 0
M  V30 1780 H 177.138 -3.23019 0.287948 0
M  V30 1781 H 176.923 -3.33678 2.05917 0
M  V30 1782 H 178.413 -3.96935 1.2974 0
M  V30 1783 N 178.85 -1.27639 -0.924453 0
M  V30 1784 C 179.78 -1.13166 -2.04244 0
M  V30 1785 C 180.761 -0.032256 -1.70069 0
M  V30 1786 O 181.946 -0.207328 -1.9309 0
M  V30 1787 C 179.076 -0.781496 -3.38393 0
M  V30 1788 C 178.03 -1.83449 -3.86692 0
M  V30 1789 C 177.356 -1.33822 -5.17683 0
M  V30 1790 C 178.656 -3.23917 -4.09726 0
M  V30 1791 H 180.35 -2.06689 -2.1661 0
M  V30 1792 H 177.896 -0.995136 -1.04082 0
M  V30 1793 H 179.849 -0.667057 -4.16087 0
M  V30 1794 H 178.573 0.189439 -3.2605 0
M  V30 1795 H 177.232 -1.93789 -3.11193 0
M  V30 1796 H 176.88 -0.35665 -5.01734 0
M  V30 1797 H 176.58 -2.04224 -5.50968 0
M  V30 1798 H 178.104 -1.23679 -5.97943 0
M  V30 1799 H 179.518 -3.16559 -4.77978 0
M  V30 1800 H 177.915 -3.92059 -4.54324 0
M  V30 1801 H 178.985 -3.68729 -3.14908 0
M  V30 1802 N 180.328 1.1314 -1.09713 0
M  V30 1803 C 181.291 2.16831 -0.742751 0
M  V30 1804 C 182.291 1.59159 0.229129 0
M  V30 1805 O 183.481 1.74199 0.00693237 0
M  V30 1806 C 180.613 3.40756 -0.0989168 0
M  V30 1807 H 181.806 2.49695 -1.66109 0
M  V30 1808 H 179.359 1.2802 -0.896699 0
M  V30 1809 H 180.094 3.13485 0.830514 0
M  V30 1810 H 179.879 3.83888 -0.798265 0
M  V30 1811 H 181.369 4.17386 0.133524 0
M  V30 1812 N 181.806 0.884767 1.30421 0
M  V30 1813 C 182.736 0.367574 2.30589 0
M  V30 1814 C 183.717 -0.549464 1.60981 0
M  V30 1815 O 184.902 -0.46336 1.88591 0
M  V30 1816 C 182.032 -0.418944 3.44764 0
M  V30 1817 C 180.986 0.406316 4.26067 0
M  V30 1818 C 180.312 -0.506793 5.32293 0
M  V30 1819 C 181.612 1.64832 4.95608 0
M  V30 1820 H 183.306 1.20462 2.74097 0
M  V30 1821 H 180.852 0.580695 1.31772 0
M  V30 1822 H 182.805 -0.791395 4.13902 0
M  V30 1823 H 181.529 -1.28964 3.0006 0
M  V30 1824 H 180.188 0.760903 3.58617 0
M  V30 1825 H 179.836 -1.37519 4.83836 0
M  V30 1826 H 179.536 0.0415828 5.87585 0
M  V30 1827 H 181.06 -0.875764 6.04287 0
M  V30 1828 H 182.474 1.34646 5.57264 0
M  V30 1829 H 180.871 2.13688 5.60765 0
M  V30 1830 H 181.941 2.39284 4.21748 0
M  V30 1831 N 183.284 -1.43765 0.645699 0
M  V30 1832 C 184.524 -2.03776 0.159542 0
M  V30 1833 C 184.888 -1.49792 -1.2011 0
M  V30 1834 O 186.089 -2.01398 -1.78023 0
M  V30 1835 C 184.36 -3.57036 0.161251 0
M  V30 1836 S 185.919 -4.3804 -0.258159 0
M  V30 1837 H 182.737 -0.707717 0.0682454 0
M  V30 1838 H 185.339 -1.75941 0.852352 0
M  V30 1839 H 184.043 -3.9383 1.15439 0
M  V30 1840 H 183.574 -3.89503 -0.552339 0
M  V30 1841 H 185.589 -4.7302 -1.49889 0
M  V30 1842 N 184.763 -0.387143 -1.52771 0
M  V30 1843 C 186.174 0.0873634 -1.86495 0
M  V30 1844 C 186.525 1.46336 -1.30691 0
M  V30 1845 O 185.65 2.068 -0.637409 0
M  V30 1846 C 186.245 0.165305 -3.38396 0
M  V30 1847 C 184.804 0.584101 -3.7184 0
M  V30 1848 C 183.951 -0.255279 -2.76122 0
M  V30 1849 H 186.902 -0.605104 -1.46711 0
M  V30 1850 H 186.923 0.984848 -3.67534 0
M  V30 1851 H 186.435 -0.836301 -3.78982 0
M  V30 1852 H 184.536 1.59315 -3.36823 0
M  V30 1853 H 184.649 0.343749 -4.77865 0
M  V30 1854 H 183.013 0.279126 -2.53166 0
M  V30 1855 H 183.796 -1.25482 -3.19545 0
M  V30 1856 N 186.241 1.57166 -0.116904 0
M  V30 1857 C 187.469 1.99473 0.549383 0
M  V30 1858 C 187.884 0.996541 1.60357 0
M  V30 1859 O 187.241 -0.0108731 1.82497 0
M  V30 1860 C 187.292 3.41788 1.17741 0
M  V30 1861 O 187.013 4.37788 0.165362 0
M  V30 1862 C 188.514 3.99216 1.92722 0
M  V30 1863 H 185.734 0.655009 0.145616 0
M  V30 1864 H 188.278 2.03494 -0.202625 0
M  V30 1865 H 186.433 3.38713 1.88021 0
M  V30 1866 H 186.847 5.20806 0.621403 0
M  V30 1867 H 188.321 5.00882 2.31995 0
M  V30 1868 H 188.798 3.3824 2.80161 0
M  V30 1869 H 189.404 4.0583 1.27209 0
M  V30 1870 N 187.719 -0.156864 1.56817 0
M  V30 1871 C 188.629 -1.2136 2.00771 0
M  V30 1872 C 189.645 -1.47598 0.921459 0
M  V30 1873 O 190.821 -1.59462 1.2302 0
M  V30 1874 C 187.886 -2.52943 2.37109 0
M  V30 1875 C 186.947 -2.34439 3.59634 0
M  V30 1876 C 186.18 -3.59748 3.94229 0
M  V30 1877 O 186.403 -4.65526 3.29609 0
M  V30 1878 O 185.337 -3.52998 4.8752 0
M  V30 1879 H 189.163 -0.870468 2.90958 0
M  V30 1880 H 186.748 -0.36484 1.44877 0
M  V30 1881 H 188.63 -3.30538 2.61386 0
M  V30 1882 H 187.305 -2.86806 1.5008 0
M  V30 1883 H 186.212 -1.54828 3.40557 0
M  V30 1884 H 187.545 -2.05496 4.4725 0
M  V30 1885 N 189.197 -1.51736 -0.425897 0
M  V30 1886 C 190.127 -1.76827 -1.52494 0
M  V30 1887 C 191.108 -0.618524 -1.58456 0
M  V30 1888 O 192.293 -0.862416 -1.74 0
M  V30 1889 C 189.423 -1.90374 -2.90474 0
M  V30 1890 C 188.377 -3.0588 -2.99369 0
M  V30 1891 C 187.703 -3.04625 -4.3944 0
M  V30 1892 C 189.003 -4.45644 -2.72394 0
M  V30 1893 H 190.697 -2.68855 -1.31748 0
M  V30 1894 H 188.243 -1.29372 -0.632362 0
M  V30 1895 H 190.196 -2.0651 -3.6733 0
M  V30 1896 H 188.92 -0.95004 -3.12477 0
M  V30 1897 H 187.579 -2.89467 -2.24954 0
M  V30 1898 H 187.227 -2.0701 -4.58428 0
M  V30 1899 H 186.927 -3.82195 -4.46319 0
M  V30 1900 H 188.451 -3.22869 -5.18255 0
M  V30 1901 H 189.865 -4.62348 -3.38979 0
M  V30 1902 H 188.262 -5.25006 -2.9067 0
M  V30 1903 H 189.332 -4.54893 -1.67929 0
M  V30 1904 N 190.675 0.682077 -1.42076 0
M  V30 1905 C 191.921 1.44428 -1.42367 0
M  V30 1906 C 192.254 1.94164 -0.0373056 0
M  V30 1907 O 191.529 1.70429 0.937239 0
M  V30 1908 C 191.812 2.64654 -2.44194 0
M  V30 1909 C 191.665 2.20596 -3.91991 0
M  V30 1910 C 192.984 3.66865 -2.431 0
M  V30 1911 H 190.103 0.523834 -0.518428 0
M  V30 1912 H 192.745 0.77576 -1.73442 0
M  V30 1913 H 190.895 3.2169 -2.17826 0
M  V30 1914 H 192.567 1.68783 -4.29313 0
M  V30 1915 H 190.81 1.52242 -4.06208 0
M  V30 1916 H 191.481 3.06921 -4.58807 0
M  V30 1917 H 193.957 3.19531 -2.66532 0
M  V30 1918 H 192.833 4.48577 -3.16339 0
M  V30 1919 H 193.094 4.17493 -1.45437 0
M  V30 1920 N 192.153 1.28127 0.917671 0
M  V30 1921 C 193.1 1.11717 2.0196 0
M  V30 1922 C 194.07 0.0153929 1.66093 0
M  V30 1923 O 195.255 0.179596 1.89953 0
M  V30 1924 C 192.395 0.780927 3.36148 0
M  V30 1925 C 191.508 1.96135 3.84909 0
M  V30 1926 C 190.643 1.56609 5.0759 0
M  V30 1927 C 189.682 2.71339 5.48673 0
M  V30 1928 N 188.819 2.32332 6.62545 0
M  V30 1929 H 193.659 2.06003 2.15329 0
M  V30 1930 H 191.196 1.02535 1.05475 0
M  V30 1931 H 193.154 0.56675 4.13333 0
M  V30 1932 H 191.784 -0.124998 3.22558 0
M  V30 1933 H 190.836 2.28777 3.03916 0
M  V30 1934 H 192.148 2.82165 4.1132 0
M  V30 1935 H 191.302 1.31374 5.92305 0
M  V30 1936 H 190.041 0.677014 4.82978 0
M  V30 1937 H 189.046 2.97276 4.62501 0
M  V30 1938 H 190.271 3.60882 5.75274 0
M  V30 1939 H 188.217 1.45889 6.39572 0
M  V30 1940 H 188.134 3.11899 6.88662 0
M  V30 1941 H 189.402 2.10371 7.50576 0
M  V30 1942 N 193.631 -1.12557 1.10312 0
M  V30 1943 C 194.871 -1.8568 0.854543 0
M  V30 1944 C 195.235 -1.82091 -0.608843 0
M  V30 1945 O 196.436 -2.50544 -0.973717 0
M  V30 1946 C 194.707 -3.2942 1.38626 0
M  V30 1947 S 196.266 -4.19931 1.27293 0
M  V30 1948 H 193.084 -0.640427 0.308827 0
M  V30 1949 H 195.686 -1.35599 1.40831 0
M  V30 1950 H 194.39 -3.2959 2.44537 0
M  V30 1951 H 193.921 -3.84566 0.82902 0
M  V30 1952 H 195.936 -4.95668 0.229776 0
M  V30 1953 N 195.109 -0.891671 -1.2995 0
M  V30 1954 C 196.525 -0.58662 -1.48428 0
M  V30 1955 C 196.725 0.873951 -1.81561 0
M  V30 1956 O 195.781 1.65471 -1.90724 0
M  V30 1957 C 197.094 -1.50553 -2.60296 0
M  V30 1958 C 198.642 -1.50988 -2.74175 0
M  V30 1959 C 199.117 -2.41488 -3.89163 0
M  V30 1960 N 200.608 -2.39489 -3.96483 0
M  V30 1961 C 201.343 -3.06223 -4.84784 0
M  V30 1962 N 200.839 -3.82206 -5.77833 0
M  V30 1963 N 202.632 -2.95421 -4.78208 0
M  V30 1964 H 194.783 -1.83644 -1.06718 0
M  V30 1965 H 197.046 -0.786455 -0.529332 0
M  V30 1966 H 196.752 -2.54581 -2.42654 0
M  V30 1967 H 196.626 -1.22008 -3.56923 0
M  V30 1968 H 199.013 -0.47708 -2.91218 0
M  V30 1969 H 199.094 -1.83567 -1.78148 0
M  V30 1970 H 198.738 -3.44857 -3.72876 0
M  V30 1971 H 198.668 -2.06222 -4.84541 0
M  V30 1972 H 201.159 -1.84278 -3.29924 0
M  V30 1973 H 201.472 -4.302 -6.41988 0
M  V30 1974 H 199.817 -3.86313 -5.77743 0
M  V30 1975 H 203.008 -2.35581 -4.04499 0
M  V30 1976 H 203.181 -3.47704 -5.46814 0
M  V30 1977 N 196.587 1.43421 -0.653314 0
M  V30 1978 C 197.517 2.33487 0.0246656 0
M  V30 1979 C 198.498 1.49475 0.811863 0
M  V30 1980 O 199.683 1.78139 0.773322 0
M  V30 1981 C 196.813 3.32841 0.99166 0
M  V30 1982 C 195.767 4.26842 0.314568 0
M  V30 1983 C 195.093 5.16236 1.39302 0
M  V30 1984 C 196.393 5.16243 -0.793095 0
M  V30 1985 H 198.087 2.90427 -0.727481 0
M  V30 1986 H 195.633 1.39649 -0.351287 0
M  V30 1987 H 197.586 3.94747 1.47487 0
M  V30 1988 H 196.31 2.74158 1.77497 0
M  V30 1989 H 194.969 3.663 -0.148199 0
M  V30 1990 H 194.617 4.53891 2.16776 0
M  V30 1991 H 194.317 5.79948 0.945223 0
M  V30 1992 H 195.841 5.81015 1.87759 0
M  V30 1993 H 197.255 5.71958 -0.392039 0
M  V30 1994 H 195.652 5.88676 -1.16536 0
M  V30 1995 H 196.722 4.55927 -1.65103 0
M  V30 1996 N 198.065 0.39524 1.52563 0
M  V30 1997 C 198.997 -0.472201 2.24283 0
M  V30 1998 C 200.01 -1.02178 1.26742 0
M  V30 1999 O 201.199 -0.923097 1.52778 0
M  V30 2000 C 198.299 -1.66775 2.95024 0
M  V30 2001 C 197.472 -1.2445 4.19322 0
M  V30 2002 C 196.531 -2.30539 4.7301 0
M  V30 2003 O 195.557 -1.91702 5.35947 0
M  V30 2004 N 196.759 -3.6253 4.53379 0
M  V30 2005 H 199.524 0.142282 2.99362 0
M  V30 2006 H 197.085 0.2219 1.60372 0
M  V30 2007 H 199.077 -2.37283 3.27839 0
M  V30 2008 H 197.647 -2.18845 2.23217 0
M  V30 2009 H 196.867 -0.368069 3.92478 0
M  V30 2010 H 198.155 -0.938457 5.0007 0
M  V30 2011 H 197.553 -3.96841 4.03154 0
M  V30 2012 H 196.11 -4.29055 4.90668 0
M  V30 2013 N 199.544 -1.57102 0.125237 0
M  V30 2014 C 200.772 -1.99761 -0.538797 0
M  V30 2015 C 201.187 -1.00503 -1.59827 0
M  V30 2016 O 200.544 0.00119474 -1.825 0
M  V30 2017 C 200.595 -3.42408 -1.15927 0
M  V30 2018 O 200.316 -4.37869 -0.142143 0
M  V30 2019 C 201.817 -4.00232 -1.90602 0
M  V30 2020 H 199.037 -0.655772 -0.14214 0
M  V30 2021 H 201.581 -2.03383 0.213413 0
M  V30 2022 H 199.736 -3.39706 -1.86223 0
M  V30 2023 H 200.15 -5.21128 -0.593775 0
M  V30 2024 H 201.624 -5.02105 -2.29335 0
M  V30 2025 H 202.101 -3.39721 -2.78363 0
M  V30 2026 H 202.707 -4.06499 -1.25055 0
M  V30 2027 N 201.022 0.148545 -1.56898 0
M  V30 2028 C 201.955 1.21293 -1.93296 0
M  V30 2029 C 202.933 1.41637 -0.798599 0
M  V30 2030 O 204.117 1.56275 -1.05406 0
M  V30 2031 C 201.244 2.5721 -2.20365 0
M  V30 2032 C 200.29 2.53469 -3.4301 0
M  V30 2033 S 201.123 2.00315 -4.96623 0
M  V30 2034 C 202.279 3.37964 -5.26812 0
M  V30 2035 H 202.512 0.902393 -2.83274 0
M  V30 2036 H 200.045 0.354094 -1.50285 0
M  V30 2037 H 202.003 3.35427 -2.36641 0
M  V30 2038 H 200.664 2.85454 -1.31054 0
M  V30 2039 H 199.857 3.53518 -3.59223 0
M  V30 2040 H 199.459 1.83359 -3.25968 0
M  V30 2041 H 201.751 4.34066 -5.20185 0
M  V30 2042 H 202.694 3.26606 -6.28279 0
M  V30 2043 H 203.102 3.35028 -4.54331 0
M  V30 2044 N 202.5 1.5196 0.417844 0
M  V30 2045 C 203.73 1.69181 1.18581 0
M  V30 2046 C 204.138 0.397104 1.84986 0
M  V30 2047 O 203.481 -0.636011 1.72339 0
M  V30 2048 C 203.543 2.76497 2.29759 0
M  V30 2049 C 203.207 4.18514 1.83563 0
M  V30 2050 C 204.204 5.02648 1.32821 0
M  V30 2051 C 201.889 4.64708 1.90661 0
M  V30 2052 C 203.883 6.31044 0.897894 0
M  V30 2053 C 201.57 5.93096 1.47241 0
M  V30 2054 C 202.568 6.76093 0.968891 0
M  V30 2055 O 202.256 8.02078 0.540924 0
M  V30 2056 H 201.988 0.570457 0.362705 0
M  V30 2057 H 204.542 1.99249 0.498885 0
M  V30 2058 H 202.772 2.41786 3.01789 0
M  V30 2059 H 204.461 2.82403 2.91553 0
M  V30 2060 H 205.227 4.68154 1.26716 0
M  V30 2061 H 201.106 4.00216 2.28797 0
M  V30 2062 H 204.65 6.95776 0.504192 0
M  V30 2063 H 200.547 6.271 1.53022 0
M  V30 2064 H 201.315 8.15794 0.66502 0
M  V30 2065 N 203.978 -0.674533 1.42435 0
M  V30 2066 C 204.888 -1.81751 1.48337 0
M  V30 2067 C 205.904 -1.69975 0.372099 0
M  V30 2068 O 207.08 -1.91521 0.62304 0
M  V30 2069 C 204.145 -3.17895 1.38361 0
M  V30 2070 C 203.206 -3.41625 2.59982 0
M  V30 2071 C 202.439 -4.71274 2.50473 0
M  V30 2072 O 202.662 -5.49197 1.54075 0
M  V30 2073 O 201.596 -4.96254 3.4061 0
M  V30 2074 H 205.422 -1.79728 2.44809 0
M  V30 2075 H 203.007 -0.830312 1.24202 0
M  V30 2076 H 204.889 -3.99136 1.35161 0
M  V30 2077 H 203.564 -3.20555 0.450144 0
M  V30 2078 H 202.471 -2.60231 2.68757 0
M  V30 2079 H 203.804 -3.43796 3.52229 0
M  V30 2080 N 205.456 -1.28612 -0.910864 0
M  V30 2081 C 206.389 -1.07109 -2.01502 0
M  V30 2082 C 207.367 0.013706 -1.62594 0
M  V30 2083 O 208.551 -0.134796 -1.88017 0
M  V30 2084 C 205.678 -0.628255 -3.32822 0
M  V30 2085 C 204.724 -1.71012 -3.90714 0
M  V30 2086 S 205.557 -3.30676 -4.21205 0
M  V30 2087 C 206.713 -2.88234 -5.55583 0
M  V30 2088 H 206.946 -2.00591 -2.19432 0
M  V30 2089 H 204.479 -1.12633 -1.05609 0
M  V30 2090 H 206.437 -0.37946 -4.08742 0
M  V30 2091 H 205.098 0.28678 -3.12788 0
M  V30 2092 H 204.291 -1.35195 -4.85529 0
M  V30 2093 H 203.893 -1.91186 -3.21441 0
M  V30 2094 H 206.185 -2.34584 -6.35591 0
M  V30 2095 H 207.128 -3.81857 -5.96314 0
M  V30 2096 H 207.536 -2.26862 -5.16908 0
M  V30 2097 N 206.934 1.1197 -1.10907 0
M  V30 2098 C 207.844 2.21433 -0.774896 0
M  V30 2099 C 208.86 1.72478 0.229657 0
M  V30 2100 O 210.036 2.01288 0.0672008 0
M  V30 2101 C 207.101 3.4602 -0.216986 0
M  V30 2102 C 206.162 4.09791 -1.27944 0
M  V30 2103 C 205.395 5.28431 -0.748055 0
M  V30 2104 O 205.618 5.68823 0.423833 0
M  V30 2105 O 204.552 5.82644 -1.51027 0
M  V30 2106 H 208.378 2.5242 -1.68873 0
M  V30 2107 H 205.963 1.20399 -0.884555 0
M  V30 2108 H 207.845 4.21304 0.090059 0
M  V30 2109 H 206.52 3.16698 0.669633 0
M  V30 2110 H 205.427 3.36265 -1.63941 0
M  V30 2111 H 206.76 4.4328 -2.13925 0
M  V30 2112 N 208.412 0.89855 1.29475 0
M  V30 2113 C 209.345 0.319981 2.25945 0
M  V30 2114 C 210.323 -0.567189 1.52387 0
M  V30 2115 O 211.507 -0.514254 1.8135 0
M  V30 2116 C 208.634 -0.544013 3.34303 0
M  V30 2117 C 207.68 0.275682 4.25608 0
M  V30 2118 S 208.513 1.67272 5.08704 0
M  V30 2119 C 209.669 0.815621 6.20563 0
M  V30 2120 H 209.902 1.13767 2.74671 0
M  V30 2121 H 207.435 0.69882 1.3768 0
M  V30 2122 H 209.393 -1.03673 3.97193 0
M  V30 2123 H 208.054 -1.33593 2.84274 0
M  V30 2124 H 207.247 -0.384263 5.02533 0
M  V30 2125 H 206.849 0.701496 3.67362 0
M  V30 2126 H 209.141 0.0385042 6.77489 0
M  V30 2127 H 210.084 1.55691 6.90772 0
M  V30 2128 H 210.492 0.370516 5.63283 0
M  V30 2129 N 209.89 -1.43072 0.660911 0
M  V30 2130 C 211.115 -2.06584 0.183805 0
M  V30 2131 C 211.54 -1.49257 -1.14472 0
M  V30 2132 O 210.898 -0.605528 -1.70889 0
M  V30 2133 C 210.946 -3.60418 0.114434 0
M  V30 2134 O 210.05 -4.01981 -0.921137 0
M  V30 2135 H 209.391 -0.656669 0.0983994 0
M  V30 2136 H 211.921 -1.83447 0.906006 0
M  V30 2137 H 211.931 -4.07946 -0.0663394 0
M  V30 2138 H 210.606 -4.01519 1.08422 0
M  V30 2139 H 209.183 -3.66029 -0.71253 0
M  V30 2140 N 211.368 -0.403325 -1.52352 0
M  V30 2141 C 212.616 0.174003 -2.0135 0
M  V30 2142 C 212.937 1.46139 -1.29106 0
M  V30 2143 O 212.207 1.91448 -0.415253 0
M  V30 2144 H 210.787 0.0672911 -0.743963 0
M  V30 2145 H 213.449 -0.538235 -1.87321 0
M  V30 2146 H 212.545 0.374254 -3.09848 0
M  V30 2147 N 212.846 1.57033 -0.133567 0
M  V30 2148 C 213.793 2.16074 0.811208 0
M  V30 2149 C 214.763 1.08979 1.2535 0
M  V30 2150 O 215.948 1.36958 1.32843 0
M  V30 2151 C 213.088 2.77595 2.05024 0
M  V30 2152 C 212.201 3.99042 1.65498 0
M  V30 2153 C 211.336 4.48603 2.84479 0
M  V30 2154 C 210.375 5.62547 2.41262 0
M  V30 2155 N 209.512 6.06787 3.53206 0
M  V30 2156 H 214.352 2.96477 0.300906 0
M  V30 2157 H 211.889 1.46462 0.136822 0
M  V30 2158 H 213.847 3.11402 2.77642 0
M  V30 2159 H 212.477 1.99859 2.53488 0
M  V30 2160 H 211.529 3.71302 0.826981 0
M  V30 2161 H 212.841 4.81629 1.29748 0
M  V30 2162 H 211.995 4.84395 3.65303 0
M  V30 2163 H 210.734 3.64995 3.23465 0
M  V30 2164 H 209.739 5.26345 1.58874 0
M  V30 2165 H 210.964 6.47931 2.03377 0
M  V30 2166 H 208.91 5.26117 3.91838 0
M  V30 2167 H 208.827 6.84266 3.21427 0
M  V30 2168 H 210.095 6.4722 4.34427 0
M  V30 2169 N 214.325 -0.140222 1.56975 0
M  V30 2170 C 215.574 -0.850152 1.82908 0
M  V30 2171 C 215.887 -1.82028 0.715892 0
M  V30 2172 O 217.093 -2.57485 0.861016 0
M  V30 2173 C 215.549 -1.5625 3.24213 0
M  V30 2174 C 215.157 -0.63443 4.43485 0
M  V30 2175 C 216.901 -2.25881 3.59413 0
M  V30 2176 C 214.808 -1.34879 5.75814 0
M  V30 2177 H 213.738 -0.321221 0.682153 0
M  V30 2178 H 216.389 -0.102874 1.83211 0
M  V30 2179 H 214.771 -2.35565 3.18316 0
M  V30 2180 H 215.945 0.12398 4.60633 0
M  V30 2181 H 214.26 -0.0461836 4.16374 0
M  V30 2182 H 216.857 -2.79978 4.5554 0
M  V30 2183 H 217.2 -3.02693 2.85802 0
M  V30 2184 H 217.733 -1.53477 3.67001 0
M  V30 2185 H 214.472 -0.622385 6.52539 0
M  V30 2186 H 213.992 -2.07974 5.6259 0
M  V30 2187 H 215.671 -1.88784 6.18845 0
M  V30 2188 N 215.803 -1.52179 -0.40978 0
M  V30 2189 C 216.766 -1.74853 -1.48186 0
M  V30 2190 C 217.766 -0.618417 -1.48433 0
M  V30 2191 O 218.956 -0.886286 -1.49969 0
M  V30 2192 C 216.088 -1.8303 -2.87598 0
M  V30 2193 H 217.281 -2.70559 -1.29374 0
M  V30 2194 H 214.834 -1.42586 -0.640233 0
M  V30 2195 H 215.569 -0.89236 -3.11781 0
M  V30 2196 H 215.354 -2.65187 -2.88822 0
M  V30 2197 H 216.844 -2.02316 -3.65319 0
M  V30 2198 N 217.281 0.66697 -1.42791 0
M  V30 2199 C 218.228 1.7803 -1.4688 0
M  V30 2200 C 219.198 1.6299 -0.319919 0
M  V30 2201 O 220.383 1.83432 -0.525118 0
M  V30 2202 C 217.523 3.1611 -1.38451 0
M  V30 2203 C 216.636 3.42381 -2.63437 0
M  V30 2204 C 215.771 4.70232 -2.47094 0
M  V30 2205 C 214.81 4.89564 -3.67415 0
M  V30 2206 N 213.947 6.08661 -3.49966 0
M  V30 2207 H 218.787 1.7387 -2.42019 0
M  V30 2208 H 216.324 0.84868 -1.20149 0
M  V30 2209 H 218.282 3.95914 -1.31561 0
M  V30 2210 H 216.912 3.19374 -0.469033 0
M  V30 2211 H 215.964 2.56774 -2.80662 0
M  V30 2212 H 217.276 3.52557 -3.52853 0
M  V30 2213 H 216.43 5.5814 -2.37834 0
M  V30 2214 H 215.169 4.62353 -1.5518 0
M  V30 2215 H 214.174 4.00096 -3.77099 0
M  V30 2216 H 215.399 4.99282 -4.6032 0
M  V30 2217 H 213.345 6.0194 -2.60776 0
M  V30 2218 H 213.262 6.19733 -4.32975 0
M  V30 2219 H 214.53 6.99226 -3.44532 0
M  V30 2220 N 218.759 1.29093 0.90403 0
M  V30 2221 C 219.984 1.19809 1.69294 0
M  V30 2222 C 220.409 -0.238481 1.86582 0
M  V30 2223 O 219.767 -1.1723 1.383 0
M  V30 2224 C 219.815 1.91202 3.05736 0
M  V30 2225 O 218.919 1.22611 3.93752 0
M  V30 2226 H 218.26 0.415385 0.518027 0
M  V30 2227 H 220.79 1.70586 1.12967 0
M  V30 2228 H 220.8 1.99487 3.55906 0
M  V30 2229 H 219.475 2.95692 2.92471 0
M  V30 2230 H 218.052 1.22554 3.52186 0
M  V30 2231 N 220.237 -1.11381 1.11499 0
M  V30 2232 C 221.187 -2.15555 0.74298 0
M  V30 2233 C 222.171 -1.58894 -0.253276 0
M  V30 2234 O 223.363 -1.76897 -0.0602918 0
M  V30 2235 C 220.492 -3.42782 0.188481 0
M  V30 2236 C 219.578 -4.064 1.21244 0
M  V30 2237 N 219.969 -4.44864 2.40685 0
M  V30 2238 C 218.267 -4.3333 1.05552 0
M  V30 2239 C 218.968 -4.94715 3.05994 0
M  V30 2240 N 217.944 -4.90909 2.33472 0
M  V30 2241 H 221.746 -2.43074 1.65203 0
M  V30 2242 H 219.26 -1.28401 0.994329 0
M  V30 2243 H 221.257 -4.16789 -0.0961693 0
M  V30 2244 H 219.917 -3.16727 -0.715149 0
M  V30 2245 H 220.928 -4.36876 2.78136 0
M  V30 2246 H 217.605 -4.1698 0.208372 0
M  V30 2247 H 218.995 -5.34103 4.07656 0
M  V30 2248 N 221.715 -0.905404 -1.28997 0
M  V30 2249 C 222.663 -0.377431 -2.29517 0
M  V30 2250 C 223.657 0.526461 -1.61012 0
M  V30 2251 O 224.863 0.40863 -1.753 0
M  V30 2252 H 221.238 -0.103437 -0.744852 0
M  V30 2253 H 223.209 -1.23848 -2.71485 0
M  V30 2254 C 221.958 0.374833 -3.45674 0
M  V30 2255 H 221.281 -0.311474 -3.98585 0
M  V30 2256 H 222.721 0.70903 -4.1803 0
M  V30 2257 C 221.18 1.57963 -2.97572 0
M  V30 2258 O 221.71 2.67886 -2.99333 0
M  V30 2259 N 219.916 1.42375 -2.53333 0
M  V30 2260 H 219.463 0.529466 -2.521 0
M  V30 2261 H 219.421 2.23117 -2.21509 0
M  V30 2262 N 223.193 1.4272 -0.668489 0
M  V30 2263 C 224.421 2.05966 -0.196348 0
M  V30 2264 C 224.836 1.50191 1.14403 0
M  V30 2265 O 224.193 0.639208 1.7094 0
M  V30 2266 C 224.244 3.61314 -0.115815 0
M  V30 2267 O 223.965 4.1502 -1.40322 0
M  V30 2268 C 225.466 4.41663 0.380579 0
M  V30 2269 H 222.686 0.663954 -0.0969829 0
M  V30 2270 H 225.23 1.82966 -0.913446 0
M  V30 2271 H 223.385 3.83448 0.551931 0
M  V30 2272 H 223.799 5.08832 -1.27243 0
M  V30 2273 H 225.273 5.5065 0.385848 0
M  V30 2274 H 225.75 4.15792 1.41471 0
M  V30 2275 H 226.356 4.24534 -0.255209 0
M  V30 2276 N 224.671 0.411399 1.52136 0
M  V30 2277 C 225.92 -0.165009 2.01024 0
M  V30 2278 C 226.233 -1.4603 1.30133 0
M  V30 2279 O 227.439 -2.1181 1.69849 0
M  V30 2280 C 225.895 -0.344618 3.58246 0
M  V30 2281 C 225.503 0.938716 4.38055 0
M  V30 2282 C 227.247 -0.876195 4.15359 0
M  V30 2283 C 225.154 0.726172 5.86925 0
M  V30 2284 H 224.084 -0.0654407 0.751155 0
M  V30 2285 H 226.735 0.537192 1.75461 0
M  V30 2286 H 225.117 -1.10921 3.80148 0
M  V30 2287 H 226.291 1.70963 4.27912 0
M  V30 2288 H 224.606 1.39688 3.92271 0
M  V30 2289 H 227.203 -1.05128 5.24263 0
M  V30 2290 H 227.546 -1.85152 3.7286 0
M  V30 2291 H 228.079 -0.170607 3.97434 0
M  V30 2292 H 224.818 1.67312 6.33788 0
M  V30 2293 H 224.338 -0.00540283 5.998 0
M  V30 2294 H 226.017 0.369231 6.45946 0
M  V30 2295 N 226.149 -1.5696 0.141893 0
M  V30 2296 C 227.395 -1.97034 -0.504884 0
M  V30 2297 C 227.75 -1.02518 -1.62812 0
M  V30 2298 O 227.043 -0.0592943 -1.91508 0
M  V30 2299 C 227.237 -3.41242 -1.06249 0
M  V30 2300 C 227.066 -4.497 0.00519653 0
M  V30 2301 C 225.836 -5.03338 0.444873 0
M  V30 2302 C 228.034 -5.08122 0.794767 0
M  V30 2303 N 226.016 -5.95395 1.49593 0
M  V30 2304 C 227.387 -5.96339 1.69645 0
M  V30 2305 C 229.442 -4.9071 0.843122 0
M  V30 2306 C 228.145 -6.69009 2.64233 0
M  V30 2307 C 230.171 -5.64077 1.77681 0
M  V30 2308 C 229.533 -6.51999 2.66603 0
M  V30 2309 H 225.632 -0.766745 -0.153707 0
M  V30 2310 H 228.216 -1.93273 0.235313 0
M  V30 2311 H 226.387 -3.45606 -1.77231 0
M  V30 2312 H 228.119 -3.68389 -1.67546 0
M  V30 2313 H 224.874 -4.73576 0.0480959 0
M  V30 2314 H 225.298 -6.46128 2.02107 0
M  V30 2315 H 229.94 -4.22459 0.169732 0
M  V30 2316 H 227.658 -7.36492 3.32575 0
M  V30 2317 H 231.244 -5.52602 1.81996 0
M  V30 2318 H 230.124 -7.07775 3.37675 0
M  V30 2319 N 227.627 0.131896 -1.57047 0
M  V30 2320 C 228.852 0.860418 -1.8871 0
M  V30 2321 C 229.277 1.73251 -0.73251 0
M  V30 2322 O 228.635 1.785 0.317429 0
M  V30 2323 C 228.683 1.68047 -3.19049 0
M  V30 2324 O 227.787 2.7862 -3.04047 0
M  V30 2325 H 227.128 0.238743 -0.619595 0
M  V30 2326 H 229.658 0.118169 -2.04258 0
M  V30 2327 H 229.668 2.07238 -3.51449 0
M  V30 2328 H 228.343 1.04018 -4.02682 0
M  V30 2329 H 226.92 2.42726 -2.83088 0
M  V30 2330 N 229.106 1.52395 0.401703 0
M  V30 2331 C 230.352 1.67065 1.14966 0
M  V30 2332 C 230.685 0.403052 1.89971 0
M  V30 2333 O 229.96 -0.598774 1.85054 0
M  V30 2334 C 230.243 2.8975 2.13815 0
M  V30 2335 C 230.096 4.26578 1.42658 0
M  V30 2336 C 231.415 3.07965 3.14397 0
M  V30 2337 H 228.534 0.607968 0.416587 0
M  V30 2338 H 231.176 1.84965 0.434511 0
M  V30 2339 H 229.326 2.74619 2.74803 0
M  V30 2340 H 230.998 4.53451 0.847329 0
M  V30 2341 H 229.241 4.27639 0.72849 0
M  V30 2342 H 229.912 5.08483 2.14823 0
M  V30 2343 H 232.388 3.22043 2.63491 0
M  V30 2344 H 231.264 3.95308 3.80819 0
M  V30 2345 H 231.525 2.21611 3.82545 0
M  V30 2346 N 230.584 -0.659388 1.43143 0
M  V30 2347 C 231.83 -1.42145 1.44647 0
M  V30 2348 C 232.163 -1.9408 0.0681907 0
M  V30 2349 O 231.438 -1.71899 -0.910007 0
M  V30 2350 C 231.721 -2.60735 2.48373 0
M  V30 2351 C 231.574 -2.14332 3.95451 0
M  V30 2352 C 232.893 -3.62951 2.48906 0
M  V30 2353 H 230.012 -0.51552 0.526696 0
M  V30 2354 H 232.654 -0.748069 1.74654 0
M  V30 2355 H 230.804 -3.18184 2.22916 0
M  V30 2356 H 232.476 -1.61932 4.31944 0
M  V30 2357 H 230.719 -1.4576 4.08578 0
M  V30 2358 H 231.39 -2.99583 4.63631 0
M  V30 2359 H 233.866 -3.1525 2.71582 0
M  V30 2360 H 232.742 -4.43487 3.23435 0
M  V30 2361 H 233.003 -4.15126 1.52061 0
M  V30 2362 N 232.062 -1.29571 -0.897171 0
M  V30 2363 C 233.009 -1.14916 -2.00158 0
M  V30 2364 C 233.979 -0.0418149 -1.66047 0
M  V30 2365 O 235.164 -0.209793 -1.89643 0
M  V30 2366 C 232.304 -0.834307 -3.34863 0
M  V30 2367 C 231.417 -2.02234 -3.8174 0
M  V30 2368 C 230.552 -1.64664 -5.05034 0
M  V30 2369 C 229.591 -2.80033 -5.44286 0
M  V30 2370 N 228.728 -2.42843 -6.58765 0
M  V30 2371 H 233.568 -2.09403 -2.12025 0
M  V30 2372 H 231.105 -1.042 -1.0383 0
M  V30 2373 H 233.063 -0.632436 -4.12379 0
M  V30 2374 H 231.693 0.0736656 -3.22716 0
M  V30 2375 H 230.745 -2.33583 -3.00238 0
M  V30 2376 H 232.057 -2.88673 -4.06779 0
M  V30 2377 H 231.211 -1.4078 -5.9014 0
M  V30 2378 H 229.95 -0.753766 -4.8184 0
M  V30 2379 H 228.955 -3.04596 -4.57713 0
M  V30 2380 H 230.18 -3.69989 -5.6946 0
M  V30 2381 H 228.126 -1.56046 -6.3717 0
M  V30 2382 H 228.043 -3.22815 -6.83613 0
M  V30 2383 H 229.311 -2.22285 -7.47134 0
M  V30 2384 N 233.54 1.10788 -1.12088 0
M  V30 2385 C 234.788 1.8231 -0.872205 0
M  V30 2386 C 235.109 1.85419 0.603709 0
M  V30 2387 O 234.379 1.32963 1.43867 0
M  V30 2388 H 232.959 0.675137 -0.319686 0
M  V30 2389 H 235.621 1.34068 -1.41463 0
M  V30 2390 H 234.717 2.85955 -1.25045 0
M  V30 2391 N 235.018 0.912232 1.28515 0
M  V30 2392 C 236.267 0.540504 1.94323 0
M  V30 2393 C 236.58 -0.920044 1.72611 0
M  V30 2394 O 237.786 -1.39986 2.32629 0
M  V30 2395 C 236.242 0.915803 3.48053 0
M  V30 2396 C 235.85 2.39598 3.78546 0
M  V30 2397 C 237.594 0.614588 4.20027 0
M  V30 2398 C 235.501 2.71148 5.25578 0
M  V30 2399 H 234.431 0.198418 0.727424 0
M  V30 2400 H 237.082 1.11094 1.46049 0
M  V30 2401 H 235.464 0.274168 3.9505 0
M  V30 2402 H 236.638 3.08422 3.42364 0
M  V30 2403 H 234.953 2.66749 3.1974 0
M  V30 2404 H 237.55 0.827002 5.28266 0
M  V30 2405 H 237.893 -0.447531 4.13887 0
M  V30 2406 H 238.426 1.21462 3.78803 0
M  V30 2407 H 235.165 3.76207 5.36794 0
M  V30 2408 H 234.685 2.0696 5.62963 0
M  V30 2409 H 236.364 2.58072 5.93302 0
M  V30 2410 N 236.496 -1.42363 0.676048 0
M  V30 2411 C 237.426 -2.33497 0.0124832 0
M  V30 2412 C 238.407 -1.50748 -0.787981 0
M  V30 2413 O 239.592 -1.79346 -0.744884 0
M  V30 2414 C 236.722 -3.34377 -0.938582 0
M  V30 2415 C 235.676 -4.27289 -0.246622 0
M  V30 2416 C 235.002 -5.18386 -1.31071 0
M  V30 2417 C 236.302 -5.14916 0.875125 0
M  V30 2418 H 237.996 -2.89233 0.773593 0
M  V30 2419 H 235.542 -1.39073 0.37346 0
M  V30 2420 H 237.495 -3.97044 -1.41188 0
M  V30 2421 H 236.219 -2.76947 -1.73113 0
M  V30 2422 H 234.878 -3.66018 0.206456 0
M  V30 2423 H 234.526 -4.57282 -2.09528 0
M  V30 2424 H 234.226 -5.81378 -0.852839 0
M  V30 2425 H 235.75 -5.83929 -1.78492 0
M  V30 2426 H 237.164 -5.71262 0.482983 0
M  V30 2427 H 235.561 -5.86747 1.25887 0
M  V30 2428 H 236.631 -4.53242 1.72335 0
M  V30 2429 N 237.974 -0.419461 -1.51915 0
M  V30 2430 C 238.921 0.400927 -2.27291 0
M  V30 2431 C 239.891 1.03224 -1.30131 0
M  V30 2432 O 241.076 1.05455 -1.59009 0
M  V30 2433 C 238.216 1.50603 -3.10504 0
M  V30 2434 C 237.329 0.89462 -4.22635 0
M  V30 2435 C 236.464 1.97328 -4.93189 0
M  V30 2436 C 235.503 1.33935 -5.97267 0
M  V30 2437 N 234.64 2.3586 -6.61298 0
M  V30 2438 H 239.48 -0.248251 -2.96964 0
M  V30 2439 H 237.017 -0.134266 -1.46486 0
M  V30 2440 H 238.975 2.15783 -3.57062 0
M  V30 2441 H 237.605 2.12509 -2.42981 0
M  V30 2442 H 236.657 0.131583 -3.80172 0
M  V30 2443 H 237.969 0.391641 -4.9726 0
M  V30 2444 H 237.123 2.70211 -5.43204 0
M  V30 2445 H 235.862 2.50994 -4.18155 0
M  V30 2446 H 234.867 0.595896 -5.46561 0
M  V30 2447 H 236.092 0.810252 -6.74249 0
M  V30 2448 H 234.038 2.88639 -5.89087 0
M  V30 2449 H 233.955 1.90403 -7.3163 0
M  V30 2450 H 235.223 3.08282 -7.15949 0
M  V30 2451 N 239.452 1.56882 -0.150215 0
M  V30 2452 C 240.399 2.16922 0.788244 0
M  V30 2453 C 241.369 1.10303 1.24187 0
M  V30 2454 O 242.554 1.38359 1.31383 0
M  V30 2455 C 239.694 2.79754 2.02068 0
M  V30 2456 C 238.807 4.00775 1.61257 0
M  V30 2457 C 237.942 4.51595 2.79705 0
M  V30 2458 C 236.981 5.65074 2.35282 0
M  V30 2459 N 236.118 6.10499 3.4675 0
M  V30 2460 H 240.958 2.96779 0.269444 0
M  V30 2461 H 238.495 1.46599 0.12128 0
M  V30 2462 H 240.453 3.14329 2.74323 0
M  V30 2463 H 239.083 2.02536 2.51354 0
M  V30 2464 H 238.135 3.72158 0.787553 0
M  V30 2465 H 239.447 4.82978 1.24633 0
M  V30 2466 H 238.601 4.88242 3.60145 0
M  V30 2467 H 237.34 3.68406 3.19576 0
M  V30 2468 H 236.345 5.28 1.53283 0
M  V30 2469 H 237.57 6.50052 1.96493 0
M  V30 2470 H 235.516 5.30243 3.86236 0
M  V30 2471 H 235.433 6.87637 3.14152 0
M  V30 2472 H 236.701 6.51791 4.27537 0
M  V30 2473 N 240.93 -0.123565 1.57115 0
M  V30 2474 C 242.207 -0.862196 1.75572 0
M  V30 2475 C 242.587 -1.98279 0.724475 0
M  V30 2476 O 241.935 -2.27102 -0.252407 0
M  V30 2477 C 242.145 -1.38309 3.20424 0
M  V30 2478 C 243.493 -1.83724 3.82793 0
M  V30 2479 O 244.517 -1.47999 3.23998 0
M  V30 2480 O 243.376 -2.49685 4.86127 0
M  V30 2481 H 240.47 -0.409113 0.718718 0
M  V30 2482 H 243.016 -0.107661 1.69358 0
M  V30 2483 H 241.788 -0.578889 3.86994 0
M  V30 2484 H 241.411 -2.20046 3.31158 0
M  V30 2485 N 242.408 -1.52605 -0.393616 0
M  V30 2486 C 243.656 -1.67093 -1.13685 0
M  V30 2487 C 243.977 -0.411011 -1.90619 0
M  V30 2488 O 243.247 0.574491 -1.87287 0
M  V30 2489 H 241.827 -0.615923 -0.422668 0
M  V30 2490 H 244.489 -1.89704 -0.447039 0
M  V30 2491 H 243.585 -2.51922 -1.84232 0
M  V30 2492 N 243.887 0.651787 -1.4349 0
M  V30 2493 C 245.298 1.233 -1.40193 0
M  V30 2494 C 245.649 1.9591 -0.106727 0
M  V30 2495 O 244.774 2.01316 0.793773 0
M  V30 2496 C 245.369 2.24257 -2.53957 0
M  V30 2497 C 243.928 2.77852 -2.5392 0
M  V30 2498 C 243.075 1.52517 -2.3159 0
M  V30 2499 H 246.026 0.443717 -1.52371 0
M  V30 2500 H 246.047 3.0646 -2.25528 0
M  V30 2501 H 245.559 1.71382 -3.4821 0
M  V30 2502 H 243.66 3.34786 -1.63551 0
M  V30 2503 H 243.773 3.25299 -3.51735 0
M  V30 2504 H 242.137 1.79915 -1.80285 0
M  V30 2505 H 242.92 1.01574 -3.27929 0
M  V30 2506 N 245.365 1.30045 0.890287 0
M  V30 2507 C 246.295 1.18541 2.01172 0
M  V30 2508 C 247.276 0.0773356 1.69924 0
M  V30 2509 O 248.461 0.25845 1.92473 0
M  V30 2510 C 245.591 0.870941 3.36202 0
M  V30 2511 C 244.545 1.93637 3.81692 0
M  V30 2512 C 243.871 1.475 5.13953 0
M  V30 2513 C 245.171 3.34666 4.00994 0
M  V30 2514 H 246.865 2.12359 2.11054 0
M  V30 2515 H 244.411 1.02238 1.01407 0
M  V30 2516 H 246.364 0.777141 4.14172 0
M  V30 2517 H 245.088 -0.102926 3.26438 0
M  V30 2518 H 243.747 2.01972 3.05946 0
M  V30 2519 H 243.395 0.489551 5.00612 0
M  V30 2520 H 243.095 2.1876 5.4536 0
M  V30 2521 H 244.619 1.39489 5.94454 0
M  V30 2522 H 246.033 3.2912 4.69417 0
M  V30 2523 H 244.43 4.03966 4.43769 0
M  V30 2524 H 245.5 3.76949 3.05021 0
M  V30 2525 N 246.843 -1.10192 1.12674 0
M  V30 2526 C 248.091 -1.81845 0.881861 0
M  V30 2527 C 248.412 -1.85737 -0.593867 0
M  V30 2528 O 247.682 -1.33724 -1.4316 0
M  V30 2529 H 246.262 -0.673432 0.323261 0
M  V30 2530 H 248.924 -1.33316 1.42172 0
M  V30 2531 H 248.02 -2.85288 1.2656 0
M  V30 2532 N 248.321 -0.919034 -1.28029 0
M  V30 2533 C 249.568 -0.554934 -1.94748 0
M  V30 2534 C 249.896 0.90231 -1.72304 0
M  V30 2535 O 249.151 1.65767 -1.04018 0
M  V30 2536 C 249.45 -0.816855 -3.4794 0
M  V30 2537 C 249.116 -2.25448 -3.90492 0
M  V30 2538 C 247.778 -2.64752 -4.01821 0
M  V30 2539 C 250.13 -3.18977 -4.12193 0
M  V30 2540 C 247.458 -3.96727 -4.32232 0
M  V30 2541 C 249.81 -4.50523 -4.44086 0
M  V30 2542 C 248.474 -4.89673 -4.53626 0
M  V30 2543 H 247.744 -0.203065 -0.712633 0
M  V30 2544 H 250.391 -1.16136 -1.52265 0
M  V30 2545 H 248.696 -0.127677 -3.91592 0
M  V30 2546 H 250.393 -0.514238 -3.97689 0
M  V30 2547 H 246.983 -1.93952 -3.82205 0
M  V30 2548 H 251.167 -2.89817 -4.02889 0
M  V30 2549 H 246.423 -4.26754 -4.37825 0
M  V30 2550 H 250.597 -5.23005 -4.59825 0
M  V30 2551 H 248.224 -5.91969 -4.76946 0
M  V30 2552 N 249.799 1.42003 -0.683588 0
M  V30 2553 C 251.029 2.05448 -0.217866 0
M  V30 2554 C 251.437 1.51491 1.13346 0
M  V30 2555 O 250.78 0.653048 1.717 0
M  V30 2556 C 250.842 3.59399 -0.0850118 0
M  V30 2557 C 250.506 4.36093 -1.36645 0
M  V30 2558 C 251.503 4.66169 -2.30179 0
M  V30 2559 C 249.188 4.75578 -1.61649 0
M  V30 2560 C 251.182 5.34676 -3.46988 0
M  V30 2561 C 248.869 5.43824 -2.78745 0
M  V30 2562 C 249.867 5.73299 -3.71238 0
M  V30 2563 O 249.555 6.40142 -4.86285 0
M  V30 2564 H 249.287 0.668344 -0.101454 0
M  V30 2565 H 251.841 1.82974 -0.933248 0
M  V30 2566 H 250.071 3.80566 0.686031 0
M  V30 2567 H 251.76 4.04457 0.341973 0
M  V30 2568 H 252.526 4.36156 -2.12115 0
M  V30 2569 H 248.405 4.52025 -0.905243 0
M  V30 2570 H 251.949 5.57599 -4.19201 0
M  V30 2571 H 247.846 5.73254 -2.96732 0
M  V30 2572 H 248.614 6.58636 -4.85944 0
M  V30 2573 N 251.277 0.427512 1.51691 0
M  V30 2574 C 252.227 -0.406604 2.24345 0
M  V30 2575 C 253.211 -0.998276 1.26187 0
M  V30 2576 O 254.403 -0.918045 1.51331 0
M  V30 2577 C 251.532 -1.51266 3.08177 0
M  V30 2578 C 250.618 -0.930868 4.13758 0
M  V30 2579 N 251.009 -0.0773552 5.05741 0
M  V30 2580 C 249.307 -1.19948 4.29568 0
M  V30 2581 C 250.008 0.248344 5.8117 0
M  V30 2582 N 248.984 -0.365535 5.4237 0
M  V30 2583 H 252.786 0.251581 2.92821 0
M  V30 2584 H 250.3 0.239003 1.60632 0
M  V30 2585 H 252.297 -2.123 3.58796 0
M  V30 2586 H 250.957 -2.17328 2.41244 0
M  V30 2587 H 251.968 0.288351 5.17097 0
M  V30 2588 H 248.645 -1.85832 3.73862 0
M  V30 2589 H 250.035 0.942286 6.6526 0
M  V30 2590 N 252.755 -1.56801 0.158532 0
M  V30 2591 C 254.003 -1.96102 -0.488712 0
M  V30 2592 C 254.324 -1.04498 -1.64636 0
M  V30 2593 O 253.594 -0.108783 -1.95598 0
M  V30 2594 H 252.174 -0.724102 -0.183535 0
M  V30 2595 H 254.836 -1.93457 0.236728 0
M  V30 2596 H 253.932 -3.00097 -0.857219 0
M  V30 2597 N 254.233 0.115231 -1.57178 0
M  V30 2598 C 255.163 1.1423 -2.03651 0
M  V30 2599 C 256.144 1.42967 -0.921655 0
M  V30 2600 O 257.329 1.53343 -1.19162 0
M  V30 2601 C 254.459 2.4675 -2.44401 0
M  V30 2602 C 253.413 2.32467 -3.59365 0
M  V30 2603 C 252.739 3.69984 -3.86026 0
M  V30 2604 C 254.039 1.78203 -4.90959 0
M  V30 2605 H 255.733 0.755749 -2.89705 0
M  V30 2606 H 253.279 0.362093 -1.39373 0
M  V30 2607 H 255.232 3.18854 -2.75517 0
M  V30 2608 H 253.956 2.87302 -1.55322 0
M  V30 2609 H 252.615 1.62811 -3.28463 0
M  V30 2610 H 252.263 4.08028 -2.94147 0
M  V30 2611 H 251.963 3.61279 -4.63412 0
M  V30 2612 H 253.487 4.43587 -4.19599 0
M  V30 2613 H 254.901 2.40128 -5.20587 0
M  V30 2614 H 253.298 1.8031 -5.72371 0
M  V30 2615 H 254.368 0.739876 -4.79222 0
M  V30 2616 N 255.711 1.52812 0.385517 0
M  V30 2617 C 256.936 1.72207 1.15583 0
M  V30 2618 C 257.361 0.441034 1.82857 0
M  V30 2619 O 256.719 -0.603465 1.70962 0
M  V30 2620 C 256.767 2.87476 2.17692 0
M  V30 2621 O 255.871 2.54693 3.24354 0
M  V30 2622 H 255.212 0.572526 0.336319 0
M  V30 2623 H 257.742 1.99618 0.448744 0
M  V30 2624 H 257.752 3.13072 2.6163 0
M  V30 2625 H 256.427 3.80408 1.68115 0
M  V30 2626 H 255.004 2.3985 2.85529 0
M  V30 2627 N 257.189 -0.644168 1.43834 0
M  V30 2628 C 258.414 -1.43642 1.49605 0
M  V30 2629 C 258.839 -1.8773 0.117913 0
M  V30 2630 O 258.197 -1.57938 -0.890239 0
M  V30 2631 C 258.245 -2.6416 2.45463 0
M  V30 2632 O 257.349 -3.63538 1.94714 0
M  V30 2633 H 256.69 -0.430329 0.50568 0
M  V30 2634 H 259.22 -0.787448 1.8884 0
M  V30 2635 H 259.23 -3.11864 2.63068 0
M  V30 2636 H 257.905 -2.31414 3.45572 0
M  V30 2637 H 256.482 -3.2273 1.86814 0
M  V30 2638 N 258.668 -1.30515 -0.883378 0
M  V30 2639 C 259.896 -1.22359 -1.66841 0
M  V30 2640 C 260.311 0.213296 -1.87591 0
M  V30 2641 O 259.668 1.14075 -1.42454 0
M  V30 2642 C 259.719 -1.95011 -3.04389 0
M  V30 2643 O 259.44 -3.3309 -2.84575 0
M  V30 2644 C 260.941 -1.93532 -3.98824 0
M  V30 2645 H 258.161 -0.423371 -0.520575 0
M  V30 2646 H 260.705 -1.72167 -1.10357 0
M  V30 2647 H 258.86 -1.48997 -3.57601 0
M  V30 2648 H 259.274 -3.69907 -3.71846 0
M  V30 2649 H 260.748 -2.48902 -4.92699 0
M  V30 2650 H 261.225 -0.914627 -4.29571 0
M  V30 2651 H 261.831 -2.39364 -3.51547 0
M  V30 2652 N 260.146 1.09593 -1.13257 0
M  V30 2653 C 261.076 2.18214 -0.830946 0
M  V30 2654 C 262.057 1.68812 0.208966 0
M  V30 2655 O 263.242 1.9408 0.0682666 0
M  V30 2656 C 260.372 3.46051 -0.294296 0
M  V30 2657 C 259.326 4.08778 -1.26826 0
M  V30 2658 C 258.652 5.31419 -0.591449 0
M  V30 2659 C 259.952 4.51476 -2.62615 0
M  V30 2660 H 261.646 2.43703 -1.73923 0
M  V30 2661 H 259.192 1.17128 -0.837675 0
M  V30 2662 H 261.145 4.2134 -0.0709606 0
M  V30 2663 H 259.869 3.20079 0.649366 0
M  V30 2664 H 258.528 3.35505 -1.47756 0
M  V30 2665 H 258.176 5.01727 0.357633 0
M  V30 2666 H 257.876 5.74341 -1.24123 0
M  V30 2667 H 259.4 6.09433 -0.377355 0
M  V30 2668 H 260.814 5.17999 -2.45663 0
M  V30 2669 H 259.211 5.05277 -3.23752 0
M  V30 2670 H 260.281 3.63962 -3.20406 0
M  V30 2671 N 261.624 0.925811 1.2754 0
M  V30 2672 C 262.554 0.440748 2.29303 0
M  V30 2673 C 263.535 -0.497971 1.62648 0
M  V30 2674 O 264.72 -0.403126 1.8997 0
M  V30 2675 C 261.85 -0.309048 3.45922 0
M  V30 2676 C 260.804 0.54166 4.24559 0
M  V30 2677 C 260.13 -0.337191 5.33636 0
M  V30 2678 C 261.43 1.80516 4.90114 0
M  V30 2679 H 263.124 1.29121 2.70126 0
M  V30 2680 H 260.67 0.622323 1.29858 0
M  V30 2681 H 262.623 -0.659315 4.1621 0
M  V30 2682 H 261.347 -1.19352 3.04011 0
M  V30 2683 H 260.006 0.874609 3.56014 0
M  V30 2684 H 259.654 -1.22056 4.87966 0
M  V30 2685 H 259.354 0.228497 5.87156 0
M  V30 2686 H 260.878 -0.683072 6.06767 0
M  V30 2687 H 262.292 1.52307 5.52698 0
M  V30 2688 H 260.689 2.3142 5.53683 0
M  V30 2689 H 261.759 2.52581 4.13921 0
M  V30 2690 N 263.102 -1.41638 0.69111 0
M  V30 2691 C 264.034 -2.29194 -0.0161523 0
M  V30 2692 C 265.047 -1.44549 -0.748955 0
M  V30 2693 O 266.236 -1.681 -0.6004 0
M  V30 2694 C 263.336 -3.22325 -1.0469 0
M  V30 2695 C 262.509 -4.35706 -0.384621 0
M  V30 2696 C 261.568 -5.09443 -1.31737 0
M  V30 2697 O 260.594 -5.63386 -0.811451 0
M  V30 2698 N 261.796 -5.16487 -2.64993 0
M  V30 2699 H 264.561 -2.90534 0.735523 0
M  V30 2700 H 262.122 -1.52742 0.53679 0
M  V30 2701 H 264.114 -3.68522 -1.67252 0
M  V30 2702 H 262.684 -2.62323 -1.70015 0
M  V30 2703 H 261.904 -3.91948 0.420804 0
M  V30 2704 H 263.192 -5.08743 0.0760765 0
M  V30 2705 H 262.59 -4.741 -3.08619 0
M  V30 2706 H 261.147 -5.66276 -3.22761 0
M  V30 2707 N 264.58 -0.43555 -1.51462 0
M  V30 2708 C 265.49 0.383001 -2.31453 0
M  V30 2709 C 266.506 1.02931 -1.4029 0
M  V30 2710 O 267.682 1.02507 -1.73362 0
M  V30 2711 C 264.747 1.47043 -3.13973 0
M  V30 2712 C 263.808 0.844433 -4.20913 0
M  V30 2713 C 263.041 1.88004 -4.9949 0
M  V30 2714 O 263.264 3.10199 -4.78678 0
M  V30 2715 O 262.198 1.47157 -5.83634 0
M  V30 2716 H 266.024 -0.269964 -3.02498 0
M  V30 2717 H 263.609 -0.19813 -1.4808 0
M  V30 2718 H 265.491 2.10113 -3.65281 0
M  V30 2719 H 264.166 2.10751 -2.45695 0
M  V30 2720 H 263.073 0.175729 -3.73687 0
M  V30 2721 H 264.406 0.250869 -4.9156 0
M  V30 2722 N 266.058 1.56714 -0.166846 0
M  V30 2723 C 267.304 1.97039 0.479962 0
M  V30 2724 C 267.637 1.05264 1.63197 0
M  V30 2725 O 266.912 0.0988833 1.94248 0
M  V30 2726 C 267.195 3.46867 0.967212 0
M  V30 2727 C 267.048 4.49421 -0.18466 0
M  V30 2728 C 268.367 3.9968 1.84238 0
M  V30 2729 H 265.486 0.71641 0.172992 0
M  V30 2730 H 268.128 1.8832 -0.252079 0
M  V30 2731 H 266.278 3.54428 1.59101 0
M  V30 2732 H 267.95 4.53924 -0.821621 0
M  V30 2733 H 266.193 4.25573 -0.840837 0
M  V30 2734 H 266.864 5.51644 0.198317 0
M  V30 2735 H 269.34 3.94723 1.31655 0
M  V30 2736 H 268.216 5.04941 2.15234 0
M  V30 2737 H 268.477 3.43226 2.78654 0
M  V30 2738 N 267.536 -0.106894 1.57237 0
M  V30 2739 C 268.947 -0.662723 1.74542 0
M  V30 2740 C 269.298 -1.7971 0.787319 0
M  V30 2741 O 268.423 -2.16368 -0.0369636 0
M  V30 2742 C 269.018 -1.20896 3.16496 0
M  V30 2743 C 267.577 -1.71096 3.35266 0
M  V30 2744 C 266.724 -0.615642 2.7038 0
M  V30 2745 H 269.675 0.119106 1.58252 0
M  V30 2746 H 269.696 -2.07847 3.18716 0
M  V30 2747 H 269.208 -0.383122 3.86204 0
M  V30 2748 H 267.309 -2.56119 2.70618 0
M  V30 2749 H 267.422 -1.81208 4.43509 0
M  V30 2750 H 265.786 -1.05222 2.31949 0
M  V30 2751 H 266.569 0.199419 3.4272 0
M  V30 2752 N 269.014 -1.53014 -0.377408 0
M  V30 2753 C 270.262 -1.6829 -1.11906 0
M  V30 2754 C 270.583 -0.431206 -1.90173 0
M  V30 2755 O 269.853 0.554595 -1.87886 0
M  V30 2756 H 268.433 -0.620371 -0.416112 0
M  V30 2757 H 271.095 -1.90167 -0.426893 0
M  V30 2758 H 270.191 -2.53862 -1.8155 0
M  V30 2759 N 270.492 0.636531 -1.44174 0
M  V30 2760 C 271.722 1.42146 -1.49927 0
M  V30 2761 C 272.13 1.88812 -0.121063 0
M  V30 2762 O 271.473 1.61126 0.882267 0
M  V30 2763 C 271.535 2.67883 -2.39748 0
M  V30 2764 C 271.199 2.43048 -3.8701 0
M  V30 2765 C 272.196 2.05216 -4.77684 0
M  V30 2766 C 269.881 2.56856 -4.3166 0
M  V30 2767 C 271.875 1.81512 -6.11009 0
M  V30 2768 C 269.562 2.32766 -5.65034 0
M  V30 2769 C 270.56 1.95152 -6.54526 0
M  V30 2770 O 270.248 1.71326 -7.85431 0
M  V30 2771 H 269.98 0.442567 -0.51099 0
M  V30 2772 H 272.534 0.786158 -1.8976 0
M  V30 2773 H 270.764 3.34032 -1.94832 0
M  V30 2774 H 272.453 3.29874 -2.36513 0
M  V30 2775 H 273.219 1.94111 -4.44462 0
M  V30 2776 H 269.098 2.85104 -3.62266 0
M  V30 2777 H 272.642 1.52077 -6.80822 0
M  V30 2778 H 268.539 2.43479 -5.97819 0
M  V30 2779 H 269.307 1.85616 -7.97176 0
M  V30 2780 N 271.97 1.30982 0.876444 0
M  V30 2781 C 273.217 1.20296 1.62896 0
M  V30 2782 C 273.545 -0.240395 1.93009 0
M  V30 2783 O 272.8 -1.18733 1.55567 0
M  V30 2784 C 273.099 1.98572 2.9716 0
M  V30 2785 C 272.765 3.48125 2.86566 0
M  V30 2786 C 271.427 3.88905 2.83383 0
M  V30 2787 C 273.779 4.43322 2.74071 0
M  V30 2788 C 271.107 5.2316 2.65556 0
M  V30 2789 C 273.459 5.77695 2.57781 0
M  V30 2790 C 272.123 6.17704 2.52979 0
M  V30 2791 H 271.393 0.440193 0.59608 0
M  V30 2792 H 274.04 1.62177 1.01837 0
M  V30 2793 H 272.345 1.49352 3.62217 0
M  V30 2794 H 274.042 1.8769 3.54364 0
M  V30 2795 H 270.632 3.15723 2.89856 0
M  V30 2796 H 274.816 4.12752 2.75589 0
M  V30 2797 H 270.072 5.53241 2.60259 0
M  V30 2798 H 274.246 6.51091 2.47089 0
M  V30 2799 H 271.873 7.21678 2.38924 0
M  V30 2800 N 273.449 -1.08991 1.13837 0
M  V30 2801 C 274.696 -1.81258 0.902882 0
M  V30 2802 C 275.024 -1.85936 -0.570803 0
M  V30 2803 O 274.279 -1.3267 -1.43865 0
M  V30 2804 C 274.578 -3.27042 1.44147 0
M  V30 2805 C 274.244 -3.4249 2.93276 0
M  V30 2806 C 272.906 -3.46414 3.33992 0
M  V30 2807 C 275.258 -3.4666 3.892 0
M  V30 2808 C 272.586 -3.52091 4.69307 0
M  V30 2809 C 274.938 -3.53872 5.24364 0
M  V30 2810 C 273.602 -3.56066 5.646 0
M  V30 2811 H 272.872 -0.663268 0.330388 0
M  V30 2812 H 275.519 -1.28368 1.42105 0
M  V30 2813 H 273.824 -3.82599 0.844097 0
M  V30 2814 H 275.521 -3.81499 1.23528 0
M  V30 2815 H 272.111 -3.40124 2.60794 0
M  V30 2816 H 276.295 -3.42865 3.58828 0
M  V30 2817 H 271.551 -3.52079 4.9985 0
M  V30 2818 H 275.725 -3.56043 5.98503 0
M  V30 2819 H 273.352 -3.60218 6.69438 0
M  V30 2820 N 274.927 -0.932562 -1.27047 0
M  V30 2821 C 276.174 -0.575559 -1.94148 0
M  V30 2822 C 276.502 0.883984 -1.73251 0
M  V30 2823 O 275.757 1.64655 -1.0577 0
M  V30 2824 C 276.056 -0.853713 -3.47054 0
M  V30 2825 C 275.722 -2.29577 -3.88079 0
M  V30 2826 C 274.384 -2.68999 -3.9899 0
M  V30 2827 C 276.736 -3.23331 -4.08787 0
M  V30 2828 C 274.064 -4.01289 -4.28 0
M  V30 2829 C 276.416 -4.55207 -4.39282 0
M  V30 2830 C 275.08 -4.94457 -4.48407 0
M  V30 2831 H 274.35 -0.210612 -0.710439 0
M  V30 2832 H 276.997 -1.17744 -1.51025 0
M  V30 2833 H 275.302 -0.169204 -3.91434 0
M  V30 2834 H 276.999 -0.55639 -3.97121 0
M  V30 2835 H 273.589 -1.97994 -3.80127 0
M  V30 2836 H 277.773 -2.94074 -3.99793 0
M  V30 2837 H 273.029 -4.31374 -4.33275 0
M  V30 2838 H 277.203 -5.27852 -4.54252 0
M  V30 2839 H 274.83 -5.96994 -4.7064 0
M  V30 2840 N 276.405 1.4127 -0.698611 0
M  V30 2841 C 277.652 2.0118 -0.230865 0
M  V30 2842 C 277.98 1.55338 1.17049 0
M  V30 2843 O 277.235 0.756775 1.80475 0
M  V30 2844 C 277.534 3.56592 -0.240192 0
M  V30 2845 C 277.2 4.21955 -1.58948 0
M  V30 2846 C 275.862 4.39524 -1.95887 0
M  V30 2847 C 278.214 4.58576 -2.47704 0
M  V30 2848 C 275.542 4.90992 -3.2116 0
M  V30 2849 C 277.894 5.11435 -3.72313 0
M  V30 2850 C 276.558 5.27215 -4.0939 0
M  V30 2851 H 275.828 0.736169 -0.0844796 0
M  V30 2852 H 278.475 1.69124 -0.8983 0
M  V30 2853 H 276.78 3.88456 0.510797 0
M  V30 2854 H 278.477 4.00758 0.139296 0
M  V30 2855 H 275.067 4.08657 -1.29219 0
M  V30 2856 H 279.251 4.44654 -2.20445 0
M  V30 2857 H 274.507 5.01393 -3.49878 0
M  V30 2858 H 278.681 5.38752 -4.4127 0
M  V30 2859 H 276.308 5.66859 -5.06533 0
M  V30 2860 N 277.883 0.443576 1.51229 0
M  V30 2861 C 279.131 -0.120557 2.0174 0
M  V30 2862 C 279.452 -1.42665 1.32935 0
M  V30 2863 O 278.722 -1.9028 0.465866 0
M  V30 2864 H 277.302 -0.0475426 0.745486 0
M  V30 2865 H 279.964 0.587711 1.85828 0
M  V30 2866 H 279.06 -0.291972 3.10731 0
M  V30 2867 N 279.361 -1.56624 0.175154 0
M  V30 2868 C 280.609 -1.96609 -0.467885 0
M  V30 2869 C 280.93 -1.06238 -1.63519 0
M  V30 2870 O 280.2 -0.129523 -1.95471 0
M  V30 2871 H 278.78 -0.726008 -0.175845 0
M  V30 2872 H 281.442 -1.93195 0.257234 0
M  V30 2873 H 280.538 -3.00989 -0.825342 0
M  V30 2874 N 280.839 0.0985539 -1.57292 0
M  V30 2875 C 282.069 0.815135 -1.8984 0
M  V30 2876 C 282.477 1.7297 -0.766679 0
M  V30 2877 O 281.82 1.81698 0.270483 0
M  V30 2878 C 281.882 1.6842 -3.17608 0
M  V30 2879 C 281.546 0.94182 -4.4719 0
M  V30 2880 C 282.543 0.273212 -5.19182 0
M  V30 2881 C 280.228 0.916927 -4.9386 0
M  V30 2882 C 282.222 -0.410361 -6.36078 0
M  V30 2883 C 279.909 0.229567 -6.10669 0
M  V30 2884 C 280.907 -0.432902 -6.81627 0
M  V30 2885 O 280.595 -1.10925 -7.9621 0
M  V30 2886 H 280.327 0.238501 -0.632529 0
M  V30 2887 H 282.881 0.0812659 -2.05239 0
M  V30 2888 H 281.111 2.46022 -2.98345 0
M  V30 2889 H 282.8 2.27704 -3.36015 0
M  V30 2890 H 283.566 0.283927 -4.84168 0
M  V30 2891 H 279.445 1.42201 -4.3852 0
M  V30 2892 H 282.989 -0.928013 -6.914 0
M  V30 2893 H 278.886 0.216686 -6.45136 0
M  V30 2894 H 279.654 -1.01579 -8.12172 0
M  V30 2895 N 282.317 1.53212 0.369288 0
M  V30 2896 C 283.227 1.82342 1.47609 0
M  V30 2897 C 284.243 0.711532 1.58787 0
M  V30 2898 O 285.419 1.0012 1.74751 0
M  V30 2899 C 282.484 2.00393 2.8292 0
M  V30 2900 C 281.545 3.24297 2.81301 0
M  V30 2901 C 280.778 3.41478 4.10157 0
M  V30 2902 O 281.001 2.63033 5.06132 0
M  V30 2903 O 279.935 4.34817 4.16194 0
M  V30 2904 H 283.761 2.76366 1.25918 0
M  V30 2905 H 281.346 1.38547 0.559034 0
M  V30 2906 H 283.228 2.13859 3.63101 0
M  V30 2907 H 281.903 1.09559 3.04596 0
M  V30 2908 H 280.81 3.16257 1.99831 0
M  V30 2909 H 282.143 4.15041 2.64578 0
M  V30 2910 N 283.795 -0.628877 1.44509 0
M  V30 2911 C 284.725 -1.75187 1.54376 0
M  V30 2912 C 285.706 -1.65411 0.396618 0
M  V30 2913 O 286.891 -1.84137 0.617031 0
M  V30 2914 C 284.021 -3.13725 1.48976 0
M  V30 2915 C 282.975 -3.38291 2.62189 0
M  V30 2916 C 282.301 -4.76883 2.41841 0
M  V30 2917 C 283.601 -3.30632 4.04326 0
M  V30 2918 H 285.295 -1.67187 2.48373 0
M  V30 2919 H 282.841 -0.802909 1.19538 0
M  V30 2920 H 284.794 -3.92064 1.54478 0
M  V30 2921 H 283.518 -3.22515 0.514961 0
M  V30 2922 H 282.177 -2.62334 2.56079 0
M  V30 2923 H 281.825 -4.82378 1.42548 0
M  V30 2924 H 281.525 -4.94278 3.17747 0
M  V30 2925 H 283.049 -5.57449 2.49165 0
M  V30 2926 H 284.463 -3.98873 4.11793 0
M  V30 2927 H 282.86 -3.59561 4.80454 0
M  V30 2928 H 283.93 -2.28404 4.27738 0
M  V30 2929 N 285.273 -1.31445 -0.869486 0
M  V30 2930 C 286.498 -1.24256 -1.66058 0
M  V30 2931 C 286.923 0.188928 -1.87149 0
M  V30 2932 O 286.281 1.13522 -1.4136 0
M  V30 2933 C 286.329 -1.9924 -3.00559 0
M  V30 2934 O 285.433 -1.33007 -3.90362 0
M  V30 2935 H 284.774 -0.428973 -0.506831 0
M  V30 2936 H 287.304 -1.73521 -1.08404 0
M  V30 2937 H 287.314 -2.08854 -3.50491 0
M  V30 2938 H 285.989 -3.03342 -2.84528 0
M  V30 2939 H 284.566 -1.31848 -3.48813 0
M  V30 2940 N 286.751 1.08385 -1.14413 0
M  V30 2941 C 288.167 1.32844 -0.884563 0
M  V30 2942 C 288.367 1.95841 0.474181 0
M  V30 2943 O 287.423 2.21158 1.21842 0
M  V30 2944 C 288.736 2.22978 -2.01745 0
M  V30 2945 C 290.284 2.36458 -2.05077 0
M  V30 2946 C 290.759 3.29934 -3.1766 0
M  V30 2947 N 292.25 3.37511 -3.17239 0
M  V30 2948 C 292.985 4.09871 -4.0099 0
M  V30 2949 N 292.481 4.84936 -4.94781 0
M  V30 2950 N 294.274 4.05704 -3.89051 0
M  V30 2951 H 286.425 0.658756 -2.01926 0
M  V30 2952 H 288.688 0.352821 -0.879899 0
M  V30 2953 H 288.394 1.83934 -2.99769 0
M  V30 2954 H 288.268 3.23441 -1.94077 0
M  V30 2955 H 290.655 2.7476 -1.0766 0
M  V30 2956 H 290.736 1.35736 -2.16816 0
M  V30 2957 H 290.38 2.92352 -4.15322 0
M  V30 2958 H 290.31 4.30584 -3.03158 0
M  V30 2959 H 292.801 2.83996 -2.49308 0
M  V30 2960 H 293.114 5.37612 -5.55151 0
M  V30 2961 H 291.459 4.83988 -4.98779 0
M  V30 2962 H 294.65 3.46167 -3.15097 0
M  V30 2963 H 294.823 4.61834 -4.54547 0
M  V30 2964 N 288.23 0.939286 1.26551 0
M  V30 2965 C 289.455 0.602008 1.98471 0
M  V30 2966 C 289.88 -0.815624 1.69497 0
M  V30 2967 O 289.238 -1.54912 0.941905 0
M  V30 2968 C 289.286 0.848407 3.50477 0
M  V30 2969 O 288.39 -0.0804009 4.12322 0
M  V30 2970 H 287.731 0.23049 0.622712 0
M  V30 2971 H 290.261 1.2617 1.61066 0
M  V30 2972 H 290.271 0.768553 4.00696 0
M  V30 2973 H 288.946 1.88171 3.70897 0
M  V30 2974 H 287.523 0.0503508 3.72866 0
M  V30 2975 N 289.708 -1.40897 0.706093 0
M  V30 2976 C 290.955 -2.01054 0.241531 0
M  V30 2977 C 291.283 -1.55956 -1.16223 0
M  V30 2978 O 290.538 -0.766336 -1.80072 0
M  V30 2979 C 290.837 -3.5646 0.259099 0
M  V30 2980 C 290.503 -4.21106 1.61184 0
M  V30 2981 C 289.165 -4.38479 1.98216 0
M  V30 2982 C 291.517 -4.57256 2.50132 0
M  V30 2983 C 288.845 -4.89282 3.2376 0
M  V30 2984 C 291.197 -5.09454 3.7502 0
M  V30 2985 C 289.861 -5.25037 4.12181 0
M  V30 2986 H 289.131 -0.73571 0.0883825 0
M  V30 2987 H 291.778 -1.68645 0.907257 0
M  V30 2988 H 290.083 -3.88721 -0.490189 0
M  V30 2989 H 291.78 -4.00826 -0.11804 0
M  V30 2990 H 288.37 -4.07966 1.31384 0
M  V30 2991 H 292.554 -4.43479 2.228 0
M  V30 2992 H 287.81 -4.99531 3.52532 0
M  V30 2993 H 291.984 -5.36404 4.44121 0
M  V30 2994 H 289.611 -5.64164 5.09532 0
M  V30 2995 N 291.186 -0.45159 -1.50991 0
M  V30 2996 C 292.433 0.110074 -2.02201 0
M  V30 2997 C 292.761 1.4146 -1.33489 0
M  V30 2998 O 292.016 1.90617 -0.443125 0
M  V30 2999 C 292.315 0.361728 -3.55565 0
M  V30 3000 C 291.981 -0.858717 -4.42648 0
M  V30 3001 C 290.643 -1.19338 -4.66167 0
M  V30 3002 C 292.995 -1.67221 -4.93646 0
M  V30 3003 C 290.323 -2.34195 -5.37931 0
M  V30 3004 C 292.675 -2.8119 -5.6667 0
M  V30 3005 C 291.339 -3.15094 -5.88449 0
M  V30 3006 H 290.609 0.040279 -0.739904 0
M  V30 3007 H 293.256 -0.601696 -1.81802 0
M  V30 3008 H 291.561 1.15554 -3.74372 0
M  V30 3009 H 293.258 0.80996 -3.92735 0
M  V30 3010 H 289.848 -0.58796 -4.24548 0
M  V30 3011 H 294.032 -1.42686 -4.75347 0
M  V30 3012 H 289.288 -2.6076 -5.53005 0
M  V30 3013 H 293.462 -3.44585 -6.05173 0
M  V30 3014 H 291.089 -4.04204 -6.43835 0
M  V30 3015 N 292.664 1.56529 -0.183458 0
M  V30 3016 C 293.627 2.17324 0.728223 0
M  V30 3017 C 294.627 1.12453 1.14939 0
M  V30 3018 O 295.817 1.37902 1.06437 0
M  V30 3019 C 292.949 2.76591 1.99274 0
M  V30 3020 H 294.142 2.99241 0.198772 0
M  V30 3021 H 291.695 1.5616 0.0661391 0
M  V30 3022 H 292.43 1.98441 2.56499 0
M  V30 3023 H 292.215 3.5335 1.69959 0
M  V30 3024 H 293.705 3.23311 2.6431 0
M  V30 3025 N 294.142 -0.090211 1.57342 0
M  V30 3026 C 295.367 -0.810082 1.90925 0
M  V30 3027 C 295.792 -1.71248 0.778187 0
M  V30 3028 O 295.15 -1.79278 -0.269991 0
M  V30 3029 C 295.198 -1.59529 3.23393 0
M  V30 3030 O 294.302 -2.70461 3.11327 0
M  V30 3031 H 293.643 -0.222231 0.625707 0
M  V30 3032 H 296.173 -0.0639716 2.045 0
M  V30 3033 H 296.183 -1.97847 3.5682 0
M  V30 3034 H 294.858 -0.933055 4.05299 0
M  V30 3035 H 293.435 -2.35135 2.89423 0
M  V30 3036 N 295.62 -1.53406 -0.361157 0
M  V30 3037 C 296.868 -1.69467 -1.10115 0
M  V30 3038 C 297.189 -0.451352 -1.89705 0
M  V30 3039 O 296.459 0.534636 -1.88463 0
M  V30 3040 H 295.039 -0.624749 -0.409508 0
M  V30 3041 H 297.701 -1.90609 -0.406699 0
M  V30 3042 H 296.797 -2.55774 -1.78847 0
M  V30 3043 N 297.098 0.621204 -1.44841 0
M  V30 3044 C 298.514 0.94048 -1.28946 0
M  V30 3045 C 298.714 2.00154 -0.23249 0
M  V30 3046 O 297.77 2.49651 0.378237 0
M  V30 3047 C 299.083 1.39433 -2.66419 0
M  V30 3048 C 300.631 1.50927 -2.74208 0
M  V30 3049 C 301.106 1.99692 -4.12174 0
M  V30 3050 N 302.597 2.06947 -4.144 0
M  V30 3051 C 303.332 2.45871 -5.1801 0
M  V30 3052 N 302.828 2.83862 -6.31977 0
M  V30 3053 N 304.621 2.46092 -5.05366 0
M  V30 3054 H 296.772 -0.0803548 -2.12248 0
M  V30 3055 H 299.035 0.0266913 -0.947624 0
M  V30 3056 H 298.741 0.688925 -3.44887 0
M  V30 3057 H 298.615 2.36347 -2.93973 0
M  V30 3058 H 301.002 2.20561 -1.96053 0
M  V30 3059 H 301.083 0.523627 -2.50383 0
M  V30 3060 H 300.727 1.30649 -4.90809 0
M  V30 3061 H 300.657 2.99146 -4.33381 0
M  V30 3062 H 303.148 1.80232 -3.32152 0
M  V30 3063 H 303.461 3.12405 -7.0684 0
M  V30 3064 H 301.806 2.8159 -6.35399 0
M  V30 3065 H 304.997 2.1581 -4.15384 0
M  V30 3066 H 305.17 2.76102 -5.86235 0
M  V30 3067 N 298.576 1.31904 0.862503 0
M  V30 3068 C 299.801 1.25135 1.65397 0
M  V30 3069 C 300.226 -0.179 1.87246 0
M  V30 3070 O 299.584 -1.1277 1.4196 0
M  V30 3071 C 299.632 2.00832 2.99498 0
M  V30 3072 O 298.736 1.35075 3.89652 0
M  V30 3073 H 298.077 0.431655 0.504549 0
M  V30 3074 H 300.607 1.74094 1.07483 0
M  V30 3075 H 300.617 2.10709 3.49379 0
M  V30 3076 H 299.292 3.04847 2.82916 0
M  V30 3077 H 297.869 1.33696 3.48109 0
M  V30 3078 N 300.054 -1.07777 1.14986 0
M  V30 3079 C 301.001 -2.14867 0.842672 0
M  V30 3080 C 301.971 -1.6486 -0.202552 0
M  V30 3081 O 303.156 -1.90668 -0.0710568 0
M  V30 3082 C 300.296 -3.43486 0.333363 0
M  V30 3083 C 299.409 -4.07306 1.43965 0
M  V30 3084 C 298.544 -5.23744 0.886914 0
M  V30 3085 C 297.583 -5.79517 1.97043 0
M  V30 3086 N 296.72 -6.87291 1.4344 0
M  V30 3087 H 301.56 -2.40485 1.75986 0
M  V30 3088 H 299.097 -1.1801 0.878179 0
M  V30 3089 H 301.055 -4.17195 0.0198163 0
M  V30 3090 H 299.685 -3.18133 -0.546916 0
M  V30 3091 H 298.737 -3.31293 1.86946 0
M  V30 3092 H 300.049 -4.44771 2.25788 0
M  V30 3093 H 299.203 -6.04419 0.525651 0
M  V30 3094 H 297.942 -4.87685 0.0377957 0
M  V30 3095 H 296.947 -4.97491 2.34057 0
M  V30 3096 H 298.172 -6.17632 2.82325 0
M  V30 3097 H 296.118 -6.5318 0.607567 0
M  V30 3098 H 296.035 -7.23617 2.18895 0
M  V30 3099 H 297.303 -7.71682 1.10124 0
M  V30 3100 N 301.532 -0.945985 -1.26051 0
M  V30 3101 C 302.809 -0.513816 -1.88731 0
M  V30 3102 C 303.189 1.00872 -1.8544 0
M  V30 3103 O 302.537 1.8708 -1.312 0
M  V30 3104 C 302.747 -1.08062 -3.31849 0
M  V30 3105 C 304.095 -1.1522 -4.08668 0
M  V30 3106 O 305.119 -1.03155 -3.40936 0
M  V30 3107 O 303.978 -1.34044 -5.29806 0
M  V30 3108 H 301.072 -0.168193 -0.809716 0
M  V30 3109 H 303.618 -1.03886 -1.34186 0
M  V30 3110 H 302.39 -2.1241 -3.2863 0
M  V30 3111 H 302.013 -0.538307 -3.93939 0
M  V30 3112 N 303.011 1.40521 -0.713556 0
M  V30 3113 C 303.921 2.34522 -0.0606667 0
M  V30 3114 C 304.937 1.57193 0.74607 0
M  V30 3115 O 306.113 1.89591 0.679493 0
M  V30 3116 C 303.178 3.36081 0.851491 0
M  V30 3117 C 302.239 4.29286 0.0349339 0
M  V30 3118 C 301.472 5.25994 0.903649 0
M  V30 3119 O 301.695 5.28616 2.14292 0
M  V30 3120 O 300.629 6.00918 0.343723 0
M  V30 3121 H 304.455 2.91968 -0.835972 0
M  V30 3122 H 302.04 1.41681 -0.47402 0
M  V30 3123 H 303.922 3.98369 1.37404 0
M  V30 3124 H 302.597 2.81052 1.60598 0
M  V30 3125 H 301.504 3.70289 -0.532633 0
M  V30 3126 H 302.837 4.87462 -0.681287 0
M  V30 3127 N 304.489 0.459591 1.5075 0
M  V30 3128 C 305.419 -0.330644 2.31147 0
M  V30 3129 C 306.4 -1.00087 1.37538 0
M  V30 3130 O 307.585 -1.00025 1.66459 0
M  V30 3131 C 304.715 -1.41958 3.16962 0
M  V30 3132 C 303.669 -0.871608 4.19031 0
M  V30 3133 C 302.995 -2.05797 4.9351 0
M  V30 3134 C 304.295 0.109251 5.22186 0
M  V30 3135 H 305.989 0.340336 2.97459 0
M  V30 3136 H 303.535 0.165119 1.4305 0
M  V30 3137 H 305.488 -1.9798 3.71997 0
M  V30 3138 H 304.212 -2.11917 2.48513 0
M  V30 3139 H 302.871 -0.333442 3.6508 0
M  V30 3140 H 302.519 -2.74427 4.21544 0
M  V30 3141 H 302.219 -1.6976 5.62544 0
M  V30 3142 H 303.743 -2.62331 5.51375 0
M  V30 3143 H 305.157 -0.361405 5.7216 0
M  V30 3144 H 303.554 0.383316 5.98875 0
M  V30 3145 H 304.624 1.03887 4.73641 0
M  V30 3146 N 305.967 -1.56429 0.191757 0
M  V30 3147 C 307.215 -1.97095 -0.447006 0
M  V30 3148 C 307.536 -1.07967 -1.62383 0
M  V30 3149 O 306.806 -0.150248 -1.95323 0
M  V30 3150 H 305.386 -0.727832 -0.168135 0
M  V30 3151 H 308.048 -1.92911 0.27771 0
M  V30 3152 H 307.144 -3.01848 -0.793371 0
M  V30 3153 N 307.445 0.0818655 -1.57387 0
M  V30 3154 C 308.856 0.634871 -1.75574 0
M  V30 3155 C 309.207 1.78435 -0.815809 0
M  V30 3156 O 308.332 2.164 0.0025366 0
M  V30 3157 C 308.927 1.15845 -3.18379 0
M  V30 3158 C 307.486 1.65741 -3.37945 0
M  V30 3159 C 306.633 0.572549 -2.71325 0
M  V30 3160 H 309.584 -0.144268 -1.58043 0
M  V30 3161 H 309.605 2.02751 -3.21982 0
M  V30 3162 H 309.117 0.321631 -3.86765 0
M  V30 3163 H 307.218 2.51781 -2.74658 0
M  V30 3164 H 307.331 1.74129 -4.46336 0
M  V30 3165 H 305.695 1.01518 -2.33594 0
M  V30 3166 H 306.478 -0.253918 -3.4236 0
M  V30 3167 N 308.923 1.53595 0.353017 0
M  V30 3168 C 310.169 1.70638 1.09593 0
M  V30 3169 C 310.502 0.463286 1.88593 0
M  V30 3170 O 309.777 -0.539597 1.86865 0
M  V30 3171 C 310.06 2.96406 2.04489 0
M  V30 3172 C 309.913 4.30901 1.29014 0
M  V30 3173 C 311.232 3.17812 3.0444 0
M  V30 3174 H 308.351 0.620913 0.397034 0
M  V30 3175 H 310.993 1.86254 0.375446 0
M  V30 3176 H 309.143 2.83223 2.65927 0
M  V30 3177 H 310.815 4.55917 0.702638 0
M  V30 3178 H 309.058 4.29741 0.592071 0
M  V30 3179 H 309.729 5.1506 1.98537 0
M  V30 3180 H 312.205 3.30263 2.53112 0
M  V30 3181 H 311.081 4.07223 3.6805 0
M  V30 3182 H 311.342 2.33669 3.75301 0
M  V30 3183 N 310.401 -0.613514 1.45168 0
M  V30 3184 C 311.351 -1.71871 1.49815 0
M  V30 3185 C 312.335 -1.56774 0.362021 0
M  V30 3186 O 313.527 -1.66212 0.608493 0
M  V30 3187 C 310.656 -3.1061 1.46207 0
M  V30 3188 C 309.742 -3.31114 2.64999 0
M  V30 3189 N 310.133 -3.21904 3.90143 0
M  V30 3190 C 308.431 -3.61966 2.6057 0
M  V30 3191 C 309.132 -3.43577 4.69393 0
M  V30 3192 N 308.108 -3.67287 4.00751 0
M  V30 3193 H 311.91 -1.63235 2.444 0
M  V30 3194 H 309.424 -0.816577 1.40377 0
M  V30 3195 H 311.421 -3.8989 1.4762 0
M  V30 3196 H 310.081 -3.20399 0.52673 0
M  V30 3197 H 311.092 -3.00436 4.21852 0
M  V30 3198 H 307.769 -3.78629 1.75916 0
M  V30 3199 H 309.159 -3.41901 5.78406 0
M  V30 3200 N 311.879 -1.3236 -0.855495 0
M  V30 3201 C 312.809 -1.23833 -1.97958 0
M  V30 3202 C 313.79 -0.122361 -1.69659 0
M  V30 3203 O 314.975 -0.30939 -1.9172 0
M  V30 3204 C 312.105 -0.959772 -3.33775 0
M  V30 3205 C 311.059 -2.03689 -3.76424 0
M  V30 3206 C 310.385 -1.61075 -5.09862 0
M  V30 3207 C 311.685 -3.4518 -3.9198 0
M  V30 3208 H 313.379 -2.1788 -2.0535 0
M  V30 3209 H 310.925 -1.04891 -0.986605 0
M  V30 3210 H 312.878 -0.886678 -4.11966 0
M  V30 3211 H 311.602 0.0163404 -3.26596 0
M  V30 3212 H 310.261 -2.10012 -3.00484 0
M  V30 3213 H 309.909 -0.622107 -4.99138 0
M  V30 3214 H 309.609 -2.33143 -5.39368 0
M  V30 3215 H 311.133 -1.55201 -5.90546 0
M  V30 3216 H 312.547 -3.4145 -4.60526 0
M  V30 3217 H 310.944 -4.1559 -4.32903 0
M  V30 3218 H 312.014 -3.84903 -2.94919 0
M  V30 3219 N 313.357 1.07166 -1.15556 0
M  V30 3220 C 314.29 2.13808 -0.797593 0
M  V30 3221 C 315.268 1.6101 0.226812 0
M  V30 3222 O 316.452 1.88161 0.112932 0
M  V30 3223 C 313.579 3.38187 -0.186371 0
M  V30 3224 C 312.625 4.09766 -1.18297 0
M  V30 3225 S 313.458 4.60932 -2.72584 0
M  V30 3226 C 314.614 5.88583 -2.12886 0
M  V30 3227 H 314.847 2.43843 -1.70083 0
M  V30 3228 H 312.38 1.19467 -0.978106 0
M  V30 3229 H 314.338 4.10189 0.159837 0
M  V30 3230 H 312.999 3.06326 0.694489 0
M  V30 3231 H 312.192 4.99065 -0.703562 0
M  V30 3232 H 311.794 3.43736 -1.47381 0
M  V30 3233 H 314.086 6.60866 -1.49208 0
M  V30 3234 H 315.029 6.41241 -3.0036 0
M  V30 3235 H 315.437 5.42194 -1.57116 0
M  V30 3236 N 314.835 0.952656 1.25548 0
M  V30 3237 C 315.765 0.489287 2.28316 0
M  V30 3238 C 316.746 -0.463359 1.63667 0
M  V30 3239 O 317.931 -0.36274 1.90782 0
M  V30 3240 C 315.061 -0.235603 3.465 0
M  V30 3241 C 314.015 0.631593 4.23314 0
M  V30 3242 C 313.341 -0.223923 5.34231 0
M  V30 3243 C 314.641 1.90871 4.86174 0
M  V30 3244 H 316.335 1.34822 2.67326 0
M  V30 3245 H 313.881 0.649728 1.28509 0
M  V30 3246 H 315.834 -0.570882 4.17515 0
M  V30 3247 H 314.558 -1.12877 3.06474 0
M  V30 3248 H 313.217 0.949929 3.54079 0
M  V30 3249 H 312.865 -1.11678 4.90446 0
M  V30 3250 H 312.565 0.35299 5.86539 0
M  V30 3251 H 314.089 -0.554214 6.0808 0
M  V30 3252 H 315.503 1.63997 5.49343 0
M  V30 3253 H 313.9 2.43112 5.4865 0
M  V30 3254 H 314.97 2.61304 4.08471 0
M  V30 3255 N 316.313 -1.40141 0.720998 0
M  V30 3256 C 317.538 -2.05618 0.271258 0
M  V30 3257 C 317.963 -1.53978 -1.08039 0
M  V30 3258 O 317.321 -0.677463 -1.68167 0
M  V30 3259 C 317.369 -3.59609 0.267197 0
M  V30 3260 O 316.473 -4.05526 -0.749814 0
M  V30 3261 H 315.814 -0.651904 0.126162 0
M  V30 3262 H 318.344 -1.79439 0.982997 0
M  V30 3263 H 318.354 -4.0786 0.106744 0
M  V30 3264 H 317.029 -3.96559 1.25354 0
M  V30 3265 H 315.606 -3.68722 -0.556644 0
M  V30 3266 N 317.792 -0.46758 -1.50504 0
M  V30 3267 C 319.04 0.0884469 -2.01906 0
M  V30 3268 C 319.361 1.40532 -1.35188 0
M  V30 3269 O 318.631 1.89515 -0.496079 0
M  V30 3270 H 317.211 0.0356765 -0.746148 0
M  V30 3271 H 319.873 -0.6172 -1.84869 0
M  V30 3272 H 318.969 0.2425 -3.11156 0
M  V30 3273 N 319.27 1.56325 -0.20005 0
M  V30 3274 C 320.518 1.97329 0.436547 0
M  V30 3275 C 320.839 1.08826 1.61808 0
M  V30 3276 O 320.109 0.160604 1.95241 0
M  V30 3277 H 318.689 0.728714 0.164272 0
M  V30 3278 H 321.351 1.92761 -0.287937 0
M  V30 3279 H 320.447 3.02264 0.777353 0
M  V30 3280 N 320.748 -0.0735177 1.57428 0
M  V30 3281 C 321.994 -0.774145 1.87443 0
M  V30 3282 C 322.327 -1.77311 0.792103 0
M  V30 3283 O 321.602 -1.93492 -0.197793 0
M  V30 3284 C 321.885 -1.48367 3.28115 0
M  V30 3285 C 321.738 -0.501227 4.46999 0
M  V30 3286 C 323.057 -2.429 3.66998 0
M  V30 3287 H 320.176 -0.279971 0.681752 0
M  V30 3288 H 322.818 -0.0373616 1.89963 0
M  V30 3289 H 320.968 -2.11171 3.26097 0
M  V30 3290 H 322.64 0.121468 4.6114 0
M  V30 3291 H 320.883 0.183593 4.33411 0
M  V30 3292 H 321.554 -1.03526 5.42205 0
M  V30 3293 H 324.03 -1.90175 3.70098 0
M  V30 3294 H 322.906 -2.89549 4.66318 0
M  V30 3295 H 323.167 -3.27628 2.96837 0
M  V30 3296 N 322.226 -1.5378 -0.344866 0
M  V30 3297 C 323.189 -1.80981 -1.40637 0
M  V30 3298 C 324.189 -0.680816 -1.45676 0
M  V30 3299 O 325.379 -0.949095 -1.46075 0
M  V30 3300 C 322.511 -1.95063 -2.79577 0
M  V30 3301 H 323.704 -2.75803 -1.17783 0
M  V30 3302 H 321.257 -1.45173 -0.579181 0
M  V30 3303 H 321.992 -1.02379 -3.07716 0
M  V30 3304 H 321.777 -2.77198 -2.77315 0
M  V30 3305 H 323.267 -2.17629 -3.56409 0
M  V30 3306 N 323.704 0.605807 -1.45491 0
M  V30 3307 C 324.952 1.36207 -1.49305 0
M  V30 3308 C 325.273 1.94519 -0.136863 0
M  V30 3309 O 324.543 1.77261 0.833983 0
M  V30 3310 H 323.123 0.50565 -0.549843 0
M  V30 3311 H 325.785 0.711239 -1.81459 0
M  V30 3312 H 324.881 2.18058 -2.23287 0
M  V30 3313 N 325.182 1.32811 0.848464 0
M  V30 3314 C 326.431 1.23075 1.59798 0
M  V30 3315 C 326.744 -0.204419 1.94529 0
M  V30 3316 O 327.95 -0.423701 2.68173 0
M  V30 3317 C 326.406 2.15594 2.88179 0
M  V30 3318 C 326.014 3.64228 2.60849 0
M  V30 3319 C 327.758 2.14709 3.66197 0
M  V30 3320 C 325.665 4.48689 3.85269 0
M  V30 3321 H 324.595 0.457091 0.599653 0
M  V30 3322 H 327.246 1.57813 0.936342 0
M  V30 3323 H 325.628 1.73778 3.55833 0
M  V30 3324 H 326.802 4.14424 2.01467 0
M  V30 3325 H 325.117 3.67306 1.96151 0
M  V30 3326 H 327.714 2.75046 4.58534 0
M  V30 3327 H 328.057 1.13966 4.00397 0
M  V30 3328 H 328.59 2.54837 3.05455 0
M  V30 3329 H 325.329 5.5027 3.56207 0
M  V30 3330 H 324.849 4.03241 4.44024 0
M  V30 3331 H 326.528 4.62006 4.52946 0
M  V30 3332 N 326.66 -1.06551 1.16123 0
M  V30 3333 C 327.9 -1.80889 0.951766 0
M  V30 3334 C 328.264 -1.85062 -0.511465 0
M  V30 3335 O 329.465 -2.55353 -0.83954 0
M  V30 3336 C 327.736 -3.21609 1.55893 0
M  V30 3337 S 329.295 -4.12593 1.49373 0
M  V30 3338 H 326.113 -0.623156 0.342341 0
M  V30 3339 H 328.715 -1.27943 1.47821 0
M  V30 3340 H 327.419 -3.16165 2.61664 0
M  V30 3341 H 326.95 -3.79631 1.0317 0
M  V30 3342 H 328.965 -4.93753 0.492196 0
M  V30 3343 N 328.138 -0.959301 -1.25041 0
M  V30 3344 C 329.068 -0.501388 -2.28053 0
M  V30 3345 C 330.049 0.454673 -1.63911 0
M  V30 3346 O 331.234 0.352618 -1.90972 0
M  V30 3347 C 328.364 0.217224 -3.4662 0
M  V30 3348 C 327.318 -0.654034 -4.22973 0
M  V30 3349 C 326.644 0.195589 -5.34342 0
M  V30 3350 C 327.944 -1.93447 -4.85155 0
M  V30 3351 H 329.638 -1.36238 -2.66608 0
M  V30 3352 H 327.184 -0.656534 -1.28163 0
M  V30 3353 H 329.137 0.548732 -4.17812 0
M  V30 3354 H 327.861 1.1125 -3.07068 0
M  V30 3355 H 326.52 -0.968693 -3.5357 0
M  V30 3356 H 326.168 1.09076 -4.91031 0
M  V30 3357 H 325.868 -0.384091 -5.86343 0
M  V30 3358 H 327.392 0.521958 -6.08365 0
M  V30 3359 H 328.806 -1.66908 -5.48466 0
M  V30 3360 H 327.203 -2.46018 -5.47353 0
M  V30 3361 H 328.273 -2.63466 -4.07079 0
M  V30 3362 N 329.616 1.39756 -0.72842 0
M  V30 3363 C 330.862 2.01425 -0.282761 0
M  V30 3364 C 331.217 1.56754 1.11561 0
M  V30 3365 O 330.51 0.783482 1.74849 0
M  V30 3366 C 330.704 3.56002 -0.315776 0
M  V30 3367 C 330.533 4.1568 -1.71582 0
M  V30 3368 C 329.303 4.48555 -2.32651 0
M  V30 3369 C 331.501 4.39667 -2.66829 0
M  V30 3370 N 329.483 4.93698 -3.64877 0
M  V30 3371 C 330.854 4.86942 -3.8378 0
M  V30 3372 C 332.909 4.21724 -2.64675 0
M  V30 3373 C 331.612 5.18158 -4.98904 0
M  V30 3374 C 333.638 4.54049 -3.78937 0
M  V30 3375 C 333 5.01525 -4.94623 0
M  V30 3376 H 329.099 0.76756 -0.149583 0
M  V30 3377 H 331.683 1.69784 -0.952976 0
M  V30 3378 H 329.854 3.87046 0.324057 0
M  V30 3379 H 331.586 4.0443 0.147808 0
M  V30 3380 H 328.341 4.36128 -1.84633 0
M  V30 3381 H 328.765 5.20635 -4.32744 0
M  V30 3382 H 333.407 3.84228 -1.76433 0
M  V30 3383 H 331.125 5.54562 -5.87781 0
M  V30 3384 H 334.711 4.41795 -3.78561 0
M  V30 3385 H 333.591 5.26065 -5.81572 0
M  V30 3386 N 331.094 0.475555 1.50254 0
M  V30 3387 C 332.024 -0.30611 2.31485 0
M  V30 3388 C 333.005 -0.986228 1.38591 0
M  V30 3389 O 334.19 -0.982541 1.67511 0
M  V30 3390 C 331.32 -1.38588 3.1845 0
M  V30 3391 C 330.274 -0.827115 4.19932 0
M  V30 3392 C 329.6 -2.00551 4.95665 0
M  V30 3393 C 330.9 0.16463 5.2204 0
M  V30 3394 H 332.594 0.371866 2.97082 0
M  V30 3395 H 330.14 0.180282 1.42867 0
M  V30 3396 H 332.093 -1.94023 3.74076 0
M  V30 3397 H 330.817 -2.09269 2.50747 0
M  V30 3398 H 329.476 -0.294702 3.65414 0
M  V30 3399 H 329.124 -2.6994 4.2443 0
M  V30 3400 H 328.824 -1.63784 5.64313 0
M  V30 3401 H 330.348 -2.56468 5.54127 0
M  V30 3402 H 331.762 -0.300699 5.72511 0
M  V30 3403 H 330.159 0.446813 5.98434 0
M  V30 3404 H 331.229 1.08905 4.72512 0
M  V30 3405 N 332.573 -1.56217 0.208337 0
M  V30 3406 C 333.819 -1.98242 -0.427552 0
M  V30 3407 C 334.152 -1.09554 -1.60348 0
M  V30 3408 O 333.427 -0.15035 -1.93918 0
M  V30 3409 C 333.71 -3.4931 -0.874907 0
M  V30 3410 C 333.563 -4.48773 0.303751 0
M  V30 3411 C 334.882 -4.04424 -1.73577 0
M  V30 3412 H 332.001 -0.720744 -0.153936 0
M  V30 3413 H 334.643 -1.87586 0.30192 0
M  V30 3414 H 332.793 -3.58522 -1.49648 0
M  V30 3415 H 334.465 -4.51586 0.941682 0
M  V30 3416 H 332.708 -4.23194 0.953375 0
M  V30 3417 H 333.379 -5.51976 -0.0519883 0
M  V30 3418 H 335.855 -3.98075 -1.21143 0
M  V30 3419 H 334.731 -5.1047 -2.01771 0
M  V30 3420 H 334.992 -3.50494 -2.69456 0
M  V30 3421 N 334.051 0.0651679 -1.57465 0
M  V30 3422 C 335.297 0.764193 -1.87851 0
M  V30 3423 C 335.63 1.76889 -0.801495 0
M  V30 3424 O 334.905 1.93594 0.187528 0
M  V30 3425 C 335.188 1.46625 -3.28897 0
M  V30 3426 C 335.041 0.477515 -4.47258 0
M  V30 3427 C 336.36 2.4095 -3.68281 0
M  V30 3428 H 333.479 0.276351 -0.683227 0
M  V30 3429 H 336.121 0.0272868 -1.8998 0
M  V30 3430 H 334.271 2.09438 -3.27212 0
M  V30 3431 H 335.943 -0.145922 -4.61069 0
M  V30 3432 H 334.186 -0.206576 -4.33308 0
M  V30 3433 H 334.857 1.0065 -5.42746 0
M  V30 3434 H 337.333 1.88209 -3.71102 0
M  V30 3435 H 336.209 2.87072 -4.67847 0
M  V30 3436 H 336.47 3.26049 -2.98571 0
M  V30 3437 N 335.529 1.53961 0.336706 0
M  V30 3438 C 336.776 1.71536 1.07618 0
M  V30 3439 C 337.104 0.482125 1.8843 0
M  V30 3440 O 336.359 -0.536142 1.88213 0
M  V30 3441 C 336.658 2.93493 2.03953 0
M  V30 3442 C 336.324 4.28811 1.39399 0
M  V30 3443 C 334.986 4.65602 1.21523 0
M  V30 3444 C 337.338 5.12844 0.929541 0
M  V30 3445 C 334.666 5.84037 0.558312 0
M  V30 3446 C 337.018 6.31951 0.286505 0
M  V30 3447 C 335.682 6.67432 0.0954869 0
M  V30 3448 H 334.952 0.627696 0.393801 0
M  V30 3449 H 337.599 1.88186 0.354715 0
M  V30 3450 H 335.904 2.71475 2.82504 0
M  V30 3451 H 337.601 3.04285 2.61174 0
M  V30 3452 H 334.191 3.99858 1.54311 0
M  V30 3453 H 338.375 4.84947 1.05548 0
M  V30 3454 H 333.631 6.10097 0.398995 0
M  V30 3455 H 337.805 6.96352 -0.0814376 0
M  V30 3456 H 335.432 7.59063 -0.415579 0
M  V30 3457 N 337.007 -0.598083 1.45811 0
M  V30 3458 C 338.418 -1.18011 1.44673 0
M  V30 3459 C 338.769 -1.95378 0.179364 0
M  V30 3460 O 337.894 -2.04124 -0.718509 0
M  V30 3461 C 338.489 -2.14677 2.62105 0
M  V30 3462 C 337.048 -2.68236 2.64057 0
M  V30 3463 C 336.195 -1.43816 2.37091 0
M  V30 3464 H 339.146 -0.38686 1.53913 0
M  V30 3465 H 339.167 -2.97878 2.36746 0
M  V30 3466 H 338.679 -1.5834 3.5433 0
M  V30 3467 H 336.78 -3.28486 1.75864 0
M  V30 3468 H 336.893 -3.12021 3.63566 0
M  V30 3469 H 335.257 -1.731 1.86838 0
M  V30 3470 H 336.04 -0.893333 3.31473 0
M  V30 3471 N 338.485 -1.33259 -0.841409 0
M  V30 3472 C 339.731 -1.24757 -1.59886 0
M  V30 3473 C 340.064 0.186913 -1.93298 0
M  V30 3474 O 339.339 1.12757 -1.5848 0
M  V30 3475 C 339.622 -2.12036 -2.91055 0
M  V30 3476 C 339.475 -3.63929 -2.6434 0
M  V30 3477 C 340.794 -1.9916 -3.92458 0
M  V30 3478 H 337.913 -0.454542 -0.580138 0
M  V30 3479 H 340.555 -1.63335 -0.970647 0
M  V30 3480 H 338.705 -1.79265 -3.44669 0
M  V30 3481 H 340.377 -4.06978 -2.17178 0
M  V30 3482 H 338.62 -3.85935 -1.98082 0
M  V30 3483 H 339.291 -4.20341 -3.57796 0
M  V30 3484 H 341.767 -2.27895 -3.48143 0
M  V30 3485 H 340.643 -2.62484 -4.82072 0
M  V30 3486 H 340.904 -0.963082 -4.31482 0
M  V30 3487 N 339.963 1.05934 -1.16686 0
M  V30 3488 C 341.24 1.75643 -0.860747 0
M  V30 3489 C 341.62 2.01144 0.640641 0
M  V30 3490 O 340.968 1.64147 1.58959 0
M  V30 3491 C 341.178 3.05493 -1.68745 0
M  V30 3492 C 342.526 3.79581 -1.90271 0
M  V30 3493 O 343.55 3.15344 -1.65641 0
M  V30 3494 O 342.409 4.9499 -2.31618 0
M  V30 3495 H 339.503 0.763426 -0.317977 0
M  V30 3496 H 342.049 1.1217 -1.27342 0
M  V30 3497 H 340.821 2.8264 -2.70611 0
M  V30 3498 H 340.444 3.76702 -1.27206 0
M  V30 3499 N 341.441 0.965919 1.2453 0
M  V30 3500 C 342.681 0.634656 1.94297 0
M  V30 3501 C 343.045 -0.814822 1.73852 0
M  V30 3502 O 344.246 -1.25622 2.3764 0
M  V30 3503 C 342.517 0.99702 3.43212 0
M  V30 3504 S 344.076 0.780038 4.31811 0
M  V30 3505 H 340.894 0.232893 0.671775 0
M  V30 3506 H 343.496 1.24249 1.50938 0
M  V30 3507 H 342.2 2.04886 3.55598 0
M  V30 3508 H 341.731 0.379888 3.91562 0
M  V30 3509 H 343.746 -0.343512 4.9501 0
M  V30 3510 N 342.919 -1.39368 0.735821 0
M  V30 3511 C 344.168 -1.99733 0.281004 0
M  V30 3512 C 344.481 -1.59055 -1.13846 0
M  V30 3513 O 345.687 -2.12262 -1.69284 0
M  V30 3514 C 344.143 -3.57057 0.451462 0
M  V30 3515 C 343.751 -4.06697 1.87886 0
M  V30 3516 C 345.495 -4.2446 0.0584616 0
M  V30 3517 C 343.402 -5.56598 1.99883 0
M  V30 3518 H 342.332 -0.747163 0.101311 0
M  V30 3519 H 344.983 -1.59357 0.909819 0
M  V30 3520 H 343.365 -3.95234 -0.246263 0
M  V30 3521 H 344.539 -3.79853 2.60861 0
M  V30 3522 H 342.854 -3.5196 2.22515 0
M  V30 3523 H 345.451 -5.34549 0.127099 0
M  V30 3524 H 345.794 -4.04444 -0.986433 0
M  V30 3525 H 346.327 -3.9146 0.707374 0
M  V30 3526 H 343.066 -5.81494 3.02564 0
M  V30 3527 H 342.586 -5.85242 1.31346 0
M  V30 3528 H 344.265 -6.22022 1.78039 0
M  V30 3529 N 344.397 -0.483516 -1.5 0
M  V30 3530 C 345.344 0.304164 -2.28787 0
M  V30 3531 C 346.314 0.976114 -1.34392 0
M  V30 3532 O 347.499 0.986156 -1.63339 0
M  V30 3533 C 344.639 1.37298 -3.16612 0
M  V30 3534 C 343.752 0.714561 -4.26049 0
M  V30 3535 C 342.887 1.76232 -5.01114 0
M  V30 3536 C 341.926 1.08483 -6.0241 0
M  V30 3537 N 341.063 2.076 -6.70706 0
M  V30 3538 H 345.903 -0.373981 -2.95644 0
M  V30 3539 H 343.44 -0.196275 -1.45785 0
M  V30 3540 H 345.398 2.00445 -3.65893 0
M  V30 3541 H 344.028 2.02012 -2.51776 0
M  V30 3542 H 343.08 -0.0297798 -3.80388 0
M  V30 3543 H 344.392 0.180383 -4.98474 0
M  V30 3544 H 343.546 2.46929 -5.54176 0
M  V30 3545 H 342.285 2.33033 -4.28424 0
M  V30 3546 H 341.29 0.363545 -5.48597 0
M  V30 3547 H 342.515 0.523551 -6.77079 0
M  V30 3548 H 340.461 2.63394 -6.00799 0
M  V30 3549 H 340.378 1.59201 -7.39047 0
M  V30 3550 H 341.646 2.77639 -7.2838 0
M  V30 3551 N 345.875 1.56104 -0.216619 0
M  V30 3552 C 347.1 2.0301 0.424462 0
M  V30 3553 C 347.525 1.0955 1.52907 0
M  V30 3554 O 346.883 0.0827914 1.81111 0
M  V30 3555 C 346.931 3.4819 0.937883 0
M  V30 3556 O 346.035 3.57865 2.04955 0
M  V30 3557 H 345.376 0.656925 0.0966755 0
M  V30 3558 H 347.906 2.01859 -0.33381 0
M  V30 3559 H 347.916 3.88413 1.24897 0
M  V30 3560 H 346.591 4.15699 0.129387 0
M  V30 3561 H 345.168 3.29527 1.74546 0
M  V30 3562 N 347.353 -0.0568162 1.57498 0
M  V30 3563 C 348.769 -0.411933 1.54192 0
M  V30 3564 C 348.969 -1.78287 0.938942 0
M  V30 3565 O 348.025 -2.46483 0.547919 0
M  V30 3566 C 349.338 -0.339244 2.9878 0
M  V30 3567 C 350.886 -0.418348 3.10192 0
M  V30 3568 C 351.361 -0.375407 4.56459 0
M  V30 3569 N 352.852 -0.435038 4.61153 0
M  V30 3570 C 353.587 -0.424265 5.71828 0
M  V30 3571 N 353.083 -0.367418 6.91825 0
M  V30 3572 N 354.876 -0.471938 5.60115 0
M  V30 3573 H 347.027 0.840684 1.95055 0
M  V30 3574 H 349.29 0.316987 0.893433 0
M  V30 3575 H 348.996 0.601742 3.46514 0
M  V30 3576 H 348.87 -1.14371 3.59443 0
M  V30 3577 H 351.257 -1.34976 2.62422 0
M  V30 3578 H 351.338 0.414962 2.52412 0
M  V30 3579 H 350.982 0.552219 5.04889 0
M  V30 3580 H 350.912 -1.22645 5.12119 0
M  V30 3581 H 353.403 -0.482612 3.74806 0
M  V30 3582 H 353.716 -0.363535 7.71944 0
M  V30 3583 H 352.061 -0.333879 6.94198 0
M  V30 3584 H 355.252 -0.514145 4.65268 0
M  V30 3585 H 355.425 -0.460073 6.46365 0
M  V30 3586 N 348.832 -1.54138 -0.328536 0
M  V30 3587 C 350.081 -1.71318 -1.06456 0
M  V30 3588 C 350.394 -0.491109 -1.89334 0
M  V30 3589 O 351.6 -0.54416 -2.65991 0
M  V30 3590 C 350.056 -3.03 -1.94214 0
M  V30 3591 C 349.664 -4.32595 -1.16471 0
M  V30 3592 C 351.408 -3.29544 -2.67583 0
M  V30 3593 C 349.315 -5.55341 -2.03347 0
M  V30 3594 H 348.245 -0.638429 -0.401155 0
M  V30 3595 H 350.896 -1.80633 -0.323106 0
M  V30 3596 H 349.278 -2.87579 -2.72239 0
M  V30 3597 H 350.452 -4.58766 -0.432525 0
M  V30 3598 H 348.767 -4.12777 -0.548063 0
M  V30 3599 H 351.364 -4.18444 -3.3288 0
M  V30 3600 H 351.707 -2.47206 -3.34955 0
M  V30 3601 H 352.24 -3.45809 -1.96623 0
M  V30 3602 H 348.979 -6.40268 -1.40491 0
M  V30 3603 H 348.499 -5.33397 -2.74313 0
M  V30 3604 H 350.178 -5.91557 -2.62049 0
M  V30 3605 N 350.31 0.590341 -1.46126 0
M  V30 3606 C 351.242 1.71427 -1.52136 0
M  V30 3607 C 352.255 1.57542 -0.41042 0
M  V30 3608 O 353.444 1.65106 -0.678389 0
M  V30 3609 C 350.544 3.09605 -1.37834 0
M  V30 3610 C 349.717 3.49566 -2.62912 0
M  V30 3611 C 348.776 4.66773 -2.42918 0
M  V30 3612 O 347.802 4.73019 -3.1661 0
M  V30 3613 N 349.004 5.61161 -1.4859 0
M  V30 3614 H 351.769 1.66728 -2.49042 0
M  V30 3615 H 349.33 0.776113 -1.42085 0
M  V30 3616 H 351.322 3.85796 -1.22243 0
M  V30 3617 H 349.892 3.08714 -0.491393 0
M  V30 3618 H 349.112 2.63158 -2.93499 0
M  V30 3619 H 350.4 3.73028 -3.46017 0
M  V30 3620 H 349.798 5.58844 -0.87808 0
M  V30 3621 H 348.355 6.36814 -1.38965 0
M  V30 3622 N 351.788 1.33704 0.83433 0
M  V30 3623 C 353.034 1.25603 1.59222 0
M  V30 3624 C 353.367 -0.176659 1.93395 0
M  V30 3625 O 352.642 -1.11915 1.59076 0
M  V30 3626 C 352.925 2.13576 2.89926 0
M  V30 3627 C 352.778 3.65326 2.62406 0
M  V30 3628 C 354.097 2.01238 3.91397 0
M  V30 3629 H 351.216 0.457613 0.577719 0
M  V30 3630 H 353.858 1.63848 0.961972 0
M  V30 3631 H 352.008 1.8109 3.43713 0
M  V30 3632 H 353.68 4.08124 2.15017 0
M  V30 3633 H 351.923 3.8698 1.96033 0
M  V30 3634 H 352.594 4.22232 3.55562 0
M  V30 3635 H 355.07 2.29738 3.46929 0
M  V30 3636 H 353.946 2.65036 4.80673 0
M  V30 3637 H 354.207 0.985951 4.30966 0
M  V30 3638 N 353.266 -1.05314 1.17247 0
M  V30 3639 C 354.196 -2.1498 0.911362 0
M  V30 3640 C 355.177 -1.69471 -0.146169 0
M  V30 3641 O 356.362 -1.942 0.003812 0
M  V30 3642 C 353.492 -3.4472 0.422528 0
M  V30 3643 C 352.446 -4.03789 1.4191 0
M  V30 3644 C 351.772 -5.28858 0.788274 0
M  V30 3645 C 353.072 -4.41418 2.7919 0
M  V30 3646 H 354.766 -2.3708 1.82848 0
M  V30 3647 H 352.312 -1.13938 0.880569 0
M  V30 3648 H 354.265 -4.20787 0.227289 0
M  V30 3649 H 352.989 -3.22269 -0.530123 0
M  V30 3650 H 351.648 -3.2979 1.60106 0
M  V30 3651 H 351.296 -5.02709 -0.171173 0
M  V30 3652 H 350.996 -5.69338 1.45353 0
M  V30 3653 H 352.52 -6.07612 0.603282 0
M  V30 3654 H 353.934 -5.08524 2.64719 0
M  V30 3655 H 352.331 -4.92913 3.42282 0
M  V30 3656 H 353.401 -3.51819 3.33693 0
M  V30 3657 N 354.744 -0.972509 -1.24016 0
M  V30 3658 C 355.969 -0.654417 -1.96805 0
M  V30 3659 C 356.394 0.770398 -1.716 0
M  V30 3660 O 355.752 1.52361 -0.982647 0
M  V30 3661 C 355.8 -0.941031 -3.48105 0
M  V30 3662 O 354.904 -0.0289472 -4.1239 0
M  V30 3663 H 354.245 -0.24692 -0.616382 0
M  V30 3664 H 356.775 -1.30396 -1.57664 0
M  V30 3665 H 356.785 -0.87452 -3.98517 0
M  V30 3666 H 355.46 -1.97939 -3.65777 0
M  V30 3667 H 354.037 -0.149192 -3.72601 0
M  V30 3668 N 356.222 1.38976 -0.743202 0
M  V30 3669 C 357.155 2.28128 -0.0572165 0
M  V30 3670 C 358.133 1.44827 0.739182 0
M  V30 3671 O 359.317 1.74207 0.720009 0
M  V30 3672 C 356.444 3.25796 0.926001 0
M  V30 3673 C 355.49 4.25947 0.217099 0
M  V30 3674 S 356.323 5.24604 -1.07477 0
M  V30 3675 C 357.479 6.25829 -0.0943545 0
M  V30 3676 H 357.712 2.85961 -0.813246 0
M  V30 3677 H 355.245 1.44822 -0.535341 0
M  V30 3678 H 357.203 3.82583 1.48797 0
M  V30 3679 H 355.864 2.66966 1.65493 0
M  V30 3680 H 355.057 4.94746 0.961372 0
M  V30 3681 H 354.659 3.73002 -0.273059 0
M  V30 3682 H 356.951 6.73411 0.743239 0
M  V30 3683 H 357.894 7.0412 -0.749713 0
M  V30 3684 H 358.302 5.63797 0.281706 0
M  V30 3685 N 357.7 0.491464 1.49741 0
M  V30 3686 C 358.93 -0.0534375 2.06531 0
M  V30 3687 C 359.338 -1.32233 1.35318 0
M  V30 3688 O 358.681 -1.78781 0.422243 0
M  V30 3689 C 358.743 -0.387034 3.57411 0
M  V30 3690 C 358.407 0.782764 4.50246 0
M  V30 3691 C 359.404 1.67059 4.92329 0
M  V30 3692 C 357.089 0.978866 4.9267 0
M  V30 3693 C 359.083 2.73874 5.75562 0
M  V30 3694 C 356.77 2.05022 5.75682 0
M  V30 3695 C 357.768 2.92851 6.17031 0
M  V30 3696 O 357.456 3.98138 6.98385 0
M  V30 3697 H 357.188 0.0129324 0.675876 0
M  V30 3698 H 359.742 0.685238 1.93633 0
M  V30 3699 H 357.972 -1.17918 3.68283 0
M  V30 3700 H 359.661 -0.869419 3.96479 0
M  V30 3701 H 360.427 1.53086 4.60206 0
M  V30 3702 H 356.306 0.304646 4.59992 0
M  V30 3703 H 359.85 3.42458 6.07757 0
M  V30 3704 H 355.747 2.18993 6.07217 0
M  V30 3705 H 356.515 3.95374 7.16674 0
M  V30 3706 N 359.178 -1.55987 0.224894 0
M  V30 3707 C 360.426 -1.97998 -0.405099 0
M  V30 3708 C 360.747 -1.11387 -1.60056 0
M  V30 3709 O 360.017 -0.191645 -1.9496 0
M  V30 3710 H 358.597 -0.731235 -0.152658 0
M  V30 3711 H 361.259 -1.92279 0.318567 0
M  V30 3712 H 360.355 -3.03463 -0.729167 0
M  V30 3713 N 360.656 0.0484629 -1.57525 0
M  V30 3714 C 361.603 1.05504 -2.05275 0
M  V30 3715 C 362.573 1.37084 -0.937927 0
M  V30 3716 O 363.758 1.47754 -1.2072 0
M  V30 3717 C 360.898 2.35676 -2.52093 0
M  V30 3718 C 360.011 2.10423 -3.77288 0
M  V30 3719 C 359.146 3.34327 -4.12794 0
M  V30 3720 C 358.185 3.04542 -5.30962 0
M  V30 3721 N 357.322 4.20841 -5.61994 0
M  V30 3722 H 362.162 0.640885 -2.91027 0
M  V30 3723 H 359.699 0.304854 -1.43906 0
M  V30 3724 H 361.657 3.11709 -2.77297 0
M  V30 3725 H 360.287 2.7485 -1.69285 0
M  V30 3726 H 359.339 1.24976 -3.59284 0
M  V30 3727 H 360.651 1.84438 -4.63448 0
M  V30 3728 H 359.805 4.1874 -4.39024 0
M  V30 3729 H 358.544 3.63408 -3.25247 0
M  V30 3730 H 357.549 2.18528 -5.04505 0
M  V30 3731 H 358.774 2.76758 -6.20146 0
M  V30 3732 H 356.72 4.4991 -4.77406 0
M  V30 3733 H 356.637 3.98212 -6.42622 0
M  V30 3734 H 357.905 5.06184 -5.92789 0
M  V30 3735 N 362.134 1.5431 0.320358 0
M  V30 3736 C 363.066 1.80262 1.41556 0
M  V30 3737 C 364.079 0.684723 1.477 0
M  V30 3738 O 365.268 0.961886 1.50366 0
M  V30 3739 C 362.368 1.90825 2.8007 0
M  V30 3740 C 361.541 3.21023 2.97091 0
M  V30 3741 C 360.6 3.22247 4.15985 0
M  V30 3742 O 359.626 3.95871 4.08992 0
M  V30 3743 N 360.828 2.46258 5.25678 0
M  V30 3744 H 363.593 2.74778 1.19655 0
M  V30 3745 H 361.154 1.53646 0.510358 0
M  V30 3746 H 363.146 1.89067 3.57821 0
M  V30 3747 H 361.716 1.03392 2.95006 0
M  V30 3748 H 360.936 3.35715 2.06614 0
M  V30 3749 H 362.224 4.0698 3.05361 0
M  V30 3750 H 361.622 1.86037 5.34235 0
M  V30 3751 H 360.179 2.50275 6.01835 0
M  V30 3752 N 363.613 -0.582584 1.46437 0
M  V30 3753 C 364.576 -1.67366 1.56592 0
M  V30 3754 C 365.576 -1.54575 0.443072 0
M  V30 3755 O 366.766 -1.59191 0.707381 0
M  V30 3756 C 363.898 -3.06791 1.48634 0
M  V30 3757 H 365.091 -1.5972 2.5383 0
M  V30 3758 H 362.644 -0.800432 1.34249 0
M  V30 3759 H 363.379 -3.19993 0.526763 0
M  V30 3760 H 363.164 -3.17484 2.30101 0
M  V30 3761 H 364.654 -3.86218 1.58826 0
M  V30 3762 N 365.091 -1.34144 -0.827227 0
M  V30 3763 C 366.339 -1.26009 -1.58007 0
M  V30 3764 C 366.66 0.170971 -1.94249 0
M  V30 3765 O 365.93 1.10256 -1.61927 0
M  V30 3766 H 364.51 -0.463414 -0.585881 0
M  V30 3767 H 367.172 -1.68005 -0.987951 0
M  V30 3768 H 366.268 -1.86187 -2.50481 0
M  V30 3769 N 366.569 1.04691 -1.17803 0
M  V30 3770 C 367.816 1.77782 -0.969532 0
M  V30 3771 C 368.144 1.87926 0.501401 0
M  V30 3772 O 367.399 1.37918 1.38842 0
M  V30 3773 C 367.698 3.21467 -1.56186 0
M  V30 3774 C 367.364 3.3137 -3.05786 0
M  V30 3775 C 366.026 3.3378 -3.46619 0
M  V30 3776 C 368.378 3.31976 -4.01797 0
M  V30 3777 C 365.706 3.34431 -4.82051 0
M  V30 3778 C 368.058 3.34167 -5.37136 0
M  V30 3779 C 366.722 3.34866 -5.77426 0
M  V30 3780 H 365.992 0.650549 -0.354777 0
M  V30 3781 H 368.639 1.23006 -1.46772 0
M  V30 3782 H 366.944 3.79203 -0.985515 0
M  V30 3783 H 368.641 3.76652 -1.37602 0
M  V30 3784 H 365.231 3.3021 -2.73238 0
M  V30 3785 H 369.415 3.29311 -3.71306 0
M  V30 3786 H 364.671 3.33285 -5.12573 0
M  V30 3787 H 368.845 3.33585 -6.11305 0
M  V30 3788 H 366.472 3.35124 -6.82346 0
M  V30 3789 N 368.047 0.979072 1.23499 0
M  V30 3790 C 369.296 0.642751 1.91185 0
M  V30 3791 C 369.609 -0.827253 1.77245 0
M  V30 3792 O 370.815 -1.27458 2.39722 0
M  V30 3793 C 369.271 1.09901 3.42709 0
M  V30 3794 C 368.879 2.59327 3.65313 0
M  V30 3795 C 370.623 0.836371 4.16179 0
M  V30 3796 C 368.53 2.98627 5.10467 0
M  V30 3797 H 367.46 0.236698 0.715884 0
M  V30 3798 H 370.111 1.1868 1.39955 0
M  V30 3799 H 368.493 0.48319 3.93041 0
M  V30 3800 H 369.667 3.26136 3.25533 0
M  V30 3801 H 367.982 2.83323 3.05151 0
M  V30 3802 H 370.579 1.10586 5.23139 0
M  V30 3803 H 370.922 -0.227509 4.15678 0
M  V30 3804 H 371.455 1.41371 3.71832 0
M  V30 3805 H 368.194 4.04133 5.16098 0
M  V30 3806 H 367.714 2.3651 5.51201 0
M  V30 3807 H 369.393 2.89159 5.78788 0
M  V30 3808 N 369.525 -1.3858 0.750561 0
M  V30 3809 C 370.773 -1.99789 0.30477 0
M  V30 3810 C 371.094 -1.59874 -1.11649 0
M  V30 3811 O 370.364 -0.85417 -1.76297 0
M  V30 3812 H 368.944 -0.738902 0.109694 0
M  V30 3813 H 371.606 -1.69391 0.963983 0
M  V30 3814 H 370.702 -3.09952 0.365499 0
M  V30 3815 N 371.003 -0.499398 -1.49478 0
M  V30 3816 C 372.231 0.0425456 -2.06856 0
M  V30 3817 C 372.646 1.30964 -1.35992 0
M  V30 3818 O 372.003 1.77172 -0.437762 0
M  V30 3819 C 372.054 0.301735 -3.60239 0
M  V30 3820 O 371.775 -0.915127 -4.28436 0
M  V30 3821 C 373.276 0.887499 -4.34325 0
M  V30 3822 H 370.496 -0.0197482 -0.670709 0
M  V30 3823 H 373.04 -0.696297 -1.92281 0
M  V30 3824 H 371.195 0.990556 -3.74522 0
M  V30 3825 H 371.609 -0.676993 -5.20113 0
M  V30 3826 H 373.083 1.01845 -5.42523 0
M  V30 3827 H 373.56 1.88488 -3.96698 0
M  V30 3828 H 374.166 0.236196 -4.24644 0
M  V30 3829 N 372.481 1.55866 -0.233164 0
M  V30 3830 C 373.411 2.23783 0.666599 0
M  V30 3831 C 374.392 1.21343 1.19205 0
M  V30 3832 O 375.577 1.4996 1.23392 0
M  V30 3833 C 372.707 2.92671 1.86978 0
M  V30 3834 C 371.661 4.01682 1.47768 0
M  V30 3835 C 370.987 4.57926 2.76058 0
M  V30 3836 C 372.287 5.18126 0.658993 0
M  V30 3837 H 373.981 2.99232 0.100306 0
M  V30 3838 H 371.527 1.43924 0.046804 0
M  V30 3839 H 373.48 3.3888 2.50476 0
M  V30 3840 H 372.204 2.14688 2.46123 0
M  V30 3841 H 370.863 3.56222 0.866106 0
M  V30 3842 H 370.511 3.76659 3.33372 0
M  V30 3843 H 370.211 5.31505 2.50552 0
M  V30 3844 H 371.735 5.06859 3.40479 0
M  V30 3845 H 373.149 5.60644 1.19795 0
M  V30 3846 H 371.546 5.98009 0.500552 0
M  V30 3847 H 372.616 4.83763 -0.331856 0
M  V30 3848 N 373.959 -0.0401083 1.57549 0
M  V30 3849 C 374.889 -1.04384 2.08869 0
M  V30 3850 C 375.87 -1.38407 0.988817 0
M  V30 3851 O 377.055 -1.47483 1.26342 0
M  V30 3852 C 374.185 -2.34808 2.55895 0
M  V30 3853 C 373.139 -2.15057 3.70047 0
M  V30 3854 C 372.465 -3.51145 4.03239 0
M  V30 3855 C 373.765 -1.54576 4.98902 0
M  V30 3856 H 375.459 -0.616666 2.92981 0
M  V30 3857 H 373.005 -0.295184 1.40942 0
M  V30 3858 H 374.958 -3.05346 2.90417 0
M  V30 3859 H 373.682 -2.79565 1.68853 0
M  V30 3860 H 372.341 -1.46954 3.35857 0
M  V30 3861 H 371.989 -3.93529 3.13279 0
M  V30 3862 H 371.689 -3.38758 4.80122 0
M  V30 3863 H 373.213 -4.23062 4.40285 0
M  V30 3864 H 374.627 -2.15017 5.31451 0
M  V30 3865 H 373.024 -1.52796 5.80322 0
M  V30 3866 H 374.094 -0.51039 4.82206 0
M  V30 3867 N 375.437 -1.54477 -0.31217 0
M  V30 3868 C 376.662 -1.77526 -1.07235 0
M  V30 3869 C 377.087 -0.527775 -1.80544 0
M  V30 3870 O 376.445 0.52121 -1.73646 0
M  V30 3871 C 376.493 -2.97535 -2.03728 0
M  V30 3872 O 375.597 -2.69878 -3.11833 0
M  V30 3873 H 374.938 -0.58792 -0.30862 0
M  V30 3874 H 377.468 -2.01532 -0.352993 0
M  V30 3875 H 377.478 -3.25198 -2.46395 0
M  V30 3876 H 376.153 -3.87996 -1.49774 0
M  V30 3877 H 374.73 -2.53199 -2.7376 0
M  V30 3878 N 376.915 0.57481 -1.46744 0
M  V30 3879 C 378.161 1.3347 -1.52688 0
M  V30 3880 C 378.494 1.93353 -0.181229 0
M  V30 3881 O 377.769 1.76912 0.808237 0
M  V30 3882 C 378.052 2.45811 -2.63152 0
M  V30 3883 C 377.905 1.90912 -4.07275 0
M  V30 3884 C 379.224 3.47822 -2.69644 0
M  V30 3885 H 376.343 0.483935 -0.555856 0
M  V30 3886 H 378.985 0.644968 -1.78718 0
M  V30 3887 H 377.135 3.04646 -2.41088 0
M  V30 3888 H 378.807 1.36473 -4.4065 0
M  V30 3889 H 377.05 1.21691 -4.16382 0
M  V30 3890 H 377.721 2.72042 -4.80309 0
M  V30 3891 H 380.197 2.9888 -2.895 0
M  V30 3892 H 379.073 4.23876 -3.48742 0
M  V30 3893 H 379.334 4.05555 -1.76005 0
M  V30 3894 N 378.394 1.34581 0.820102 0
M  V30 3895 C 379.64 1.27285 1.57881 0
M  V30 3896 C 379.973 -0.156137 1.93571 0
M  V30 3897 O 379.248 -1.10222 1.60254 0
M  V30 3898 C 379.531 2.16639 2.87645 0
M  V30 3899 C 379.384 3.68088 2.58517 0
M  V30 3900 C 380.703 2.05378 3.8924 0
M  V30 3901 H 377.822 0.463714 0.572833 0
M  V30 3902 H 380.464 1.64859 0.944539 0
M  V30 3903 H 378.614 1.84725 3.41773 0
M  V30 3904 H 380.286 4.10382 2.10676 0
M  V30 3905 H 378.529 3.89038 1.91917 0
M  V30 3906 H 379.2 4.2598 3.51063 0
M  V30 3907 H 381.676 2.33404 3.44473 0
M  V30 3908 H 380.552 2.7012 4.77835 0
M  V30 3909 H 380.813 1.0316 4.29896 0
M  V30 3910 N 379.872 -1.04064 1.18357 0
M  V30 3911 C 381.288 -1.2947 0.933258 0
M  V30 3912 C 381.488 -1.97466 -0.401169 0
M  V30 3913 O 380.544 -2.25528 -1.13549 0
M  V30 3914 C 381.857 -2.15337 2.09882 0
M  V30 3915 C 383.405 -2.28683 2.13712 0
M  V30 3916 C 383.88 -3.17917 3.29686 0
M  V30 3917 N 385.371 -3.25504 3.29547 0
M  V30 3918 C 386.106 -3.94706 4.15926 0
M  V30 3919 N 385.602 -4.66239 5.12439 0
M  V30 3920 N 387.395 -3.90986 4.0384 0
M  V30 3921 H 379.546 -0.583359 2.04232 0
M  V30 3922 H 381.809 -0.319921 0.892387 0
M  V30 3923 H 381.515 -1.72682 3.06389 0
M  V30 3924 H 381.389 -3.16015 2.05947 0
M  V30 3925 H 383.776 -2.70575 1.17784 0
M  V30 3926 H 383.857 -1.27596 2.21705 0
M  V30 3927 H 383.501 -2.76736 4.25887 0
M  V30 3928 H 383.431 -4.19036 3.1893 0
M  V30 3929 H 385.922 -2.74547 2.59677 0
M  V30 3930 H 386.235 -5.16638 5.74722 0
M  V30 3931 H 384.58 -4.65143 5.16398 0
M  V30 3932 H 387.771 -3.34234 3.27727 0
M  V30 3933 H 387.944 -4.44646 4.71375 0
M  V30 3934 N 381.35 -0.985608 -1.22978 0
M  V30 3935 C 382.298 -0.522631 -2.26652 0
M  V30 3936 C 383.292 0.422998 -1.64034 0
M  V30 3937 O 384.498 0.296319 -1.77544 0
M  V30 3938 H 380.873 -0.150597 -0.736766 0
M  V30 3939 H 382.844 -1.40863 -2.63059 0
M  V30 3940 C 381.593 0.154238 -3.47358 0
M  V30 3941 H 380.916 -0.564329 -3.95797 0
M  V30 3942 H 382.356 0.441744 -4.21693 0
M  V30 3943 C 380.815 1.38719 -3.07016 0
M  V30 3944 O 381.345 2.48307 -3.15764 0
M  V30 3945 N 379.551 1.25975 -2.61875 0
M  V30 3946 H 379.098 0.368068 -2.54957 0
M  V30 3947 H 379.056 2.08578 -2.3525 0
M  V30 3948 N 382.828 1.3818 -0.7579 0
M  V30 3949 C 383.738 2.3421 -0.135247 0
M  V30 3950 C 384.754 1.59487 0.695683 0
M  V30 3951 O 385.93 1.91657 0.618832 0
M  V30 3952 C 382.995 3.3862 0.744139 0
M  V30 3953 C 382.056 4.2918 -0.101658 0
M  V30 3954 C 381.289 5.28603 0.735851 0
M  V30 3955 O 381.512 5.35166 1.97366 0
M  V30 3956 O 380.446 6.01707 0.152372 0
M  V30 3957 H 384.272 2.8916 -0.928436 0
M  V30 3958 H 381.857 1.40101 -0.518855 0
M  V30 3959 H 383.739 4.02539 1.2466 0
M  V30 3960 H 382.414 2.86019 1.51575 0
M  V30 3961 H 381.321 3.68407 -0.650167 0
M  V30 3962 H 382.654 4.85048 -0.836024 0
M  V30 3963 N 384.306 0.507319 1.49211 0
M  V30 3964 C 385.554 -0.0348839 2.0207 0
M  V30 3965 C 385.875 -1.36898 1.38866 0
M  V30 3966 O 385.145 -1.88133 0.546151 0
M  V30 3967 H 383.725 -0.0158812 0.746831 0
M  V30 3968 H 386.387 0.665998 1.83168 0
M  V30 3969 H 385.483 -0.159917 3.1169 0
M  V30 3970 N 385.784 -1.5574 0.241426 0
M  V30 3971 C 387.033 -1.97986 -0.385295 0
M  V30 3972 C 387.346 -1.13267 -1.59468 0
M  V30 3973 O 388.552 -1.45501 -2.2922 0
M  V30 3974 C 387.008 -3.52275 -0.736884 0
M  V30 3975 C 386.616 -4.45726 0.450796 0
M  V30 3976 C 388.36 -4.03189 -1.3281 0
M  V30 3977 C 386.267 -5.91352 0.0756662 0
M  V30 3978 H 385.197 -0.739386 -0.147731 0
M  V30 3979 H 387.848 -1.80308 0.340779 0
M  V30 3980 H 386.23 -3.65628 -1.52094 0
M  V30 3981 H 387.404 -4.44131 1.22819 0
M  V30 3982 H 385.719 -4.05264 0.956573 0
M  V30 3983 H 388.316 -5.09505 -1.62201 0
M  V30 3984 H 388.659 -3.50212 -2.25071 0
M  V30 3985 H 389.192 -3.93141 -0.607069 0
M  V30 3986 H 385.931 -6.48354 0.965272 0
M  V30 3987 H 385.451 -5.96095 -0.665635 0
M  V30 3988 H 387.13 -6.46084 -0.344075 0
M  V30 3989 N 387.262 0.0317525 -1.57568 0
M  V30 3990 C 388.508 0.724175 -1.8943 0
M  V30 3991 C 388.841 1.75149 -0.838836 0
M  V30 3992 O 388.116 1.93948 0.146422 0
M  V30 3993 C 388.399 1.39615 -3.31933 0
M  V30 3994 C 388.252 0.382537 -4.4817 0
M  V30 3995 C 389.571 2.33084 -3.73309 0
M  V30 3996 H 386.69 0.261797 -0.688935 0
M  V30 3997 H 389.332 -0.013017 -1.89996 0
M  V30 3998 H 387.482 2.02451 -3.31581 0
M  V30 3999 H 389.154 -0.243689 -4.60656 0
M  V30 4000 H 387.397 -0.29844 -4.32772 0
M  V30 4001 H 388.068 0.891145 -5.44759 0
M  V30 4002 H 390.544 1.80295 -3.7501 0
M  V30 4003 H 389.42 2.77084 -4.73831 0
M  V30 4004 H 389.681 3.19643 -3.05419 0
M  V30 4005 N 388.74 1.54641 0.303973 0
M  V30 4006 C 389.703 1.84646 1.35789 0
M  V30 4007 C 390.703 0.7192 1.4382 0
M  V30 4008 O 391.893 0.987491 1.43507 0
M  V30 4009 C 389.025 2.02407 2.74307 0
M  V30 4010 H 390.218 2.78829 1.10429 0
M  V30 4011 H 387.771 1.46658 0.540487 0
M  V30 4012 H 388.506 1.10502 3.04893 0
M  V30 4013 H 388.291 2.84453 2.69868 0
M  V30 4014 H 389.781 2.27002 3.50514 0
M  V30 4015 N 390.218 -0.567019 1.47046 0
M  V30 4016 C 391.148 -1.68482 1.61667 0
M  V30 4017 C 392.129 -1.6358 0.466418 0
M  V30 4018 O 393.314 -1.81354 0.694574 0
M  V30 4019 C 390.444 -3.07124 1.62148 0
M  V30 4020 C 389.398 -3.26867 2.76301 0
M  V30 4021 C 388.724 -4.66196 2.61849 0
M  V30 4022 C 390.024 -3.13186 4.17986 0
M  V30 4023 H 391.718 -1.56502 2.5524 0
M  V30 4024 H 389.264 -0.751486 1.22836 0
M  V30 4025 H 391.217 -3.8516 1.70968 0
M  V30 4026 H 389.941 -3.2004 0.651287 0
M  V30 4027 H 388.6 -2.51237 2.66975 0
M  V30 4028 H 388.248 -4.75898 1.62879 0
M  V30 4029 H 387.948 -4.80356 3.38425 0
M  V30 4030 H 389.472 -5.46379 2.72584 0
M  V30 4031 H 390.886 -3.81049 4.2834 0
M  V30 4032 H 389.283 -3.3886 4.95272 0
M  V30 4033 H 390.353 -2.10057 4.3704 0
M  V30 4034 N 391.696 -1.35014 -0.812953 0
M  V30 4035 C 392.926 -1.30841 -1.59888 0
M  V30 4036 C 393.334 0.117576 -1.88834 0
M  V30 4037 O 392.677 1.07807 -1.48739 0
M  V30 4038 C 392.739 -2.0412 -2.95931 0
M  V30 4039 C 392.403 -3.53336 -2.89832 0
M  V30 4040 C 393.4 -4.48052 -2.63714 0
M  V30 4041 C 391.085 -3.95894 -3.0915 0
M  V30 4042 C 393.079 -5.833 -2.56982 0
M  V30 4043 C 390.766 -5.31239 -3.0204 0
M  V30 4044 C 391.764 -6.24754 -2.75991 0
M  V30 4045 O 391.452 -7.57617 -2.68833 0
M  V30 4046 H 391.184 -0.451215 -0.50337 0
M  V30 4047 H 393.738 -1.78354 -1.01877 0
M  V30 4048 H 391.968 -1.51235 -3.559 0
M  V30 4049 H 393.657 -1.93107 -3.57022 0
M  V30 4050 H 394.423 -4.16492 -2.48515 0
M  V30 4051 H 390.302 -3.23495 -3.28438 0
M  V30 4052 H 393.846 -6.56263 -2.36569 0
M  V30 4053 H 389.743 -5.62415 -3.16796 0
M  V30 4054 H 390.511 -7.67469 -2.84487 0
M  V30 4055 N 393.175 1.03435 -1.18907 0
M  V30 4056 C 394.4 1.80919 -1.01406 0
M  V30 4057 C 394.825 1.83055 0.432721 0
M  V30 4058 O 394.183 1.25252 1.31079 0
M  V30 4059 C 394.231 3.24091 -1.58105 0
M  V30 4060 O 393.335 4.04434 -0.806669 0
M  V30 4061 H 392.676 0.558709 -0.358803 0
M  V30 4062 H 395.206 1.30223 -1.57807 0
M  V30 4063 H 395.216 3.74853 -1.61087 0
M  V30 4064 H 393.891 3.21851 -2.6341 0
M  V30 4065 H 392.468 3.63091 -0.849666 0
M  V30 4066 N 394.653 0.992116 1.22453 0
M  V30 4067 C 395.901 0.666215 1.90804 0
M  V30 4068 C 396.222 -0.804152 1.77647 0
M  V30 4069 O 395.492 -1.57629 1.16318 0
M  V30 4070 H 394.072 0.243423 0.706225 0
M  V30 4071 H 396.734 1.25845 1.48825 0
M  V30 4072 H 395.83 0.928069 2.97982 0
M  V30 4073 N 396.131 -1.37776 0.765217 0
M  V30 4074 C 397.061 -2.32945 0.160953 0
M  V30 4075 C 398.042 -1.55454 -0.690516 0
M  V30 4076 O 399.227 -1.83721 -0.629318 0
M  V30 4077 C 396.357 -3.39669 -0.724031 0
M  V30 4078 C 395.311 -4.27992 0.0256173 0
M  V30 4079 C 394.637 -5.25673 -0.978383 0
M  V30 4080 C 395.937 -5.08309 1.20082 0
M  V30 4081 H 397.631 -2.83728 0.955969 0
M  V30 4082 H 395.177 -1.36416 0.461149 0
M  V30 4083 H 397.13 -4.05219 -1.15652 0
M  V30 4084 H 395.854 -2.87396 -1.5515 0
M  V30 4085 H 394.513 -3.63964 0.438812 0
M  V30 4086 H 394.161 -4.69682 -1.80022 0
M  V30 4087 H 393.861 -5.85625 -0.481378 0
M  V30 4088 H 395.385 -5.94098 -1.40995 0
M  V30 4089 H 396.799 -5.67034 0.845307 0
M  V30 4090 H 395.196 -5.77554 1.62947 0
M  V30 4091 H 396.266 -4.41365 2.00811 0
M  V30 4092 N 397.609 -0.515225 -1.4894 0
M  V30 4093 C 398.556 0.255567 -2.29381 0
M  V30 4094 C 399.526 0.947387 -1.36432 0
M  V30 4095 O 400.711 0.951288 -1.65394 0
M  V30 4096 C 397.851 1.30551 -3.19453 0
M  V30 4097 C 396.964 0.624029 -4.27469 0
M  V30 4098 C 396.099 1.65563 -5.0474 0
M  V30 4099 C 395.138 0.956802 -6.04576 0
M  V30 4100 N 394.275 1.93326 -6.74959 0
M  V30 4101 H 399.115 -0.436607 -2.94784 0
M  V30 4102 H 396.652 -0.227154 -1.45336 0
M  V30 4103 H 398.61 1.92639 -3.70062 0
M  V30 4104 H 397.24 1.96626 -2.56004 0
M  V30 4105 H 396.292 -0.110459 -3.8024 0
M  V30 4106 H 397.604 0.0746092 -4.98744 0
M  V30 4107 H 396.758 2.35119 -5.59289 0
M  V30 4108 H 395.497 2.23893 -4.3327 0
M  V30 4109 H 394.502 0.247097 -5.49244 0
M  V30 4110 H 395.727 0.379814 -6.78037 0
M  V30 4111 H 393.673 2.50591 -6.06251 0
M  V30 4112 H 393.59 1.43489 -7.42258 0
M  V30 4113 H 394.858 2.62126 -7.34105 0
M  V30 4114 N 399.087 1.5561 -0.249682 0
M  V30 4115 C 400.05 2.20217 0.635394 0
M  V30 4116 C 401.05 1.17227 1.10066 0
M  V30 4117 O 402.24 1.42292 1.00492 0
M  V30 4118 C 399.372 2.84794 1.87363 0
M  V30 4119 H 400.565 2.99814 0.0716752 0
M  V30 4120 H 398.118 1.563 -0.000153234 0
M  V30 4121 H 398.853 2.09142 2.47851 0
M  V30 4122 H 398.638 3.60241 1.5482 0
M  V30 4123 H 400.128 3.3423 2.5036 0
M  V30 4124 N 400.565 -0.0233959 1.57583 0
M  V30 4125 C 401.793 -0.724682 1.93794 0
M  V30 4126 C 402.208 -1.68588 0.849912 0
M  V30 4127 O 401.565 -1.81676 -0.173204 0
M  V30 4128 C 401.616 -1.47684 3.29957 0
M  V30 4129 O 401.337 -0.554222 4.3458 0
M  V30 4130 C 402.838 -2.27477 3.80485 0
M  V30 4131 H 400.058 -0.203317 0.639455 0
M  V30 4132 H 402.602 0.0207653 2.04489 0
M  V30 4133 H 400.757 -2.17412 3.20641 0
M  V30 4134 H 401.171 -1.08232 5.13212 0
M  V30 4135 H 402.645 -2.7564 4.78254 0
M  V30 4136 H 403.122 -3.09144 3.11972 0
M  V30 4137 H 403.728 -1.62813 3.92902 0
M  V30 4138 N 402.043 -1.548 -0.295768 0
M  V30 4139 C 402.976 -1.81003 -1.38972 0
M  V30 4140 C 403.954 -0.661544 -1.48534 0
M  V30 4141 O 405.138 -0.902074 -1.65514 0
M  V30 4142 C 402.265 -1.95141 -2.76835 0
M  V30 4143 C 401.311 -3.17592 -2.84671 0
M  V30 4144 S 402.144 -4.75531 -2.46232 0
M  V30 4145 C 403.3 -4.92613 -3.86114 0
M  V30 4146 H 403.533 -2.73507 -1.16537 0
M  V30 4147 H 401.066 -1.46278 -0.494168 0
M  V30 4148 H 403.024 -2.03972 -3.56238 0
M  V30 4149 H 401.685 -1.03565 -2.96535 0
M  V30 4150 H 400.878 -3.24303 -3.85803 0
M  V30 4151 H 400.48 -3.07235 -2.13267 0
M  V30 4152 H 402.772 -4.76957 -4.81164 0
M  V30 4153 H 403.715 -5.94698 -3.8437 0
M  V30 4154 H 404.123 -4.2073 -3.76359 0
M  V30 4155 N 403.521 0.559213 -1.47345 0
M  V30 4156 C 404.77 1.31281 -1.53128 0
M  V30 4157 C 405.083 1.94602 -0.197344 0
M  V30 4158 O 406.289 2.71173 -0.133154 0
M  V30 4159 C 404.745 2.38051 -2.69925 0
M  V30 4160 C 404.353 1.8093 -4.0984 0
M  V30 4161 C 406.097 3.14604 -2.84999 0
M  V30 4162 C 404.004 2.85468 -5.1794 0
M  V30 4163 H 402.934 0.493614 -0.569966 0
M  V30 4164 H 405.585 0.594155 -1.73615 0
M  V30 4165 H 403.967 3.12822 -2.42814 0
M  V30 4166 H 405.141 1.12544 -4.46845 0
M  V30 4167 H 403.456 1.16967 -3.99634 0
M  V30 4168 H 406.053 3.92666 -3.62929 0
M  V30 4169 H 406.396 3.68665 -1.93369 0
M  V30 4170 H 406.929 2.46945 -3.1187 0
M  V30 4171 H 403.668 2.36264 -6.1144 0
M  V30 4172 H 403.188 3.52269 -4.85455 0
M  V30 4173 H 404.867 3.48996 -5.44803 0
M  V30 4174 N 404.999 1.35443 0.805782 0
M  V30 4175 C 406.415 1.15499 1.10146 0
M  V30 4176 C 406.615 -0.0319975 2.01475 0
M  V30 4177 O 405.671 -0.70236 2.42535 0
M  V30 4178 C 406.984 2.45833 1.73166 0
M  V30 4179 C 408.532 2.52047 1.85583 0
M  V30 4180 C 409.007 3.82427 2.52019 0
M  V30 4181 N 410.498 3.83682 2.59504 0
M  V30 4182 C 411.233 4.81294 3.11679 0
M  V30 4183 N 410.729 5.89294 3.64287 0
M  V30 4184 N 412.522 4.6873 3.1024 0
M  V30 4185 H 404.673 2.11469 0.198678 0
M  V30 4186 H 406.936 0.93594 0.150731 0
M  V30 4187 H 406.642 3.32874 1.13526 0
M  V30 4188 H 406.516 2.6044 2.72857 0
M  V30 4189 H 408.903 1.65435 2.44367 0
M  V30 4190 H 408.984 2.41354 0.847455 0
M  V30 4191 H 408.628 4.69437 1.93885 0
M  V30 4192 H 408.558 3.90409 3.53395 0
M  V30 4193 H 411.049 3.05648 2.22234 0
M  V30 4194 H 411.362 6.59768 4.02401 0
M  V30 4195 H 409.707 5.92985 3.62483 0
M  V30 4196 H 412.898 3.83496 2.68419 0
M  V30 4197 H 413.071 5.44965 3.50596 0
M  V30 4198 N 406.477 -1.02803 1.19454 0
M  V30 4199 C 407.44 -2.09264 0.934955 0
M  V30 4200 C 408.44 -1.60576 -0.0849015 0
M  V30 4201 O 409.63 -1.73554 0.149933 0
M  V30 4202 C 406.762 -3.38482 0.40531 0
M  V30 4203 H 407.955 -2.33726 1.87916 0
M  V30 4204 H 405.508 -1.19426 1.00832 0
M  V30 4205 H 406.243 -3.19689 -0.544899 0
M  V30 4206 H 406.028 -3.75142 1.14065 0
M  V30 4207 H 407.518 -4.16894 0.242806 0
M  V30 4208 N 407.956 -0.998596 -1.21925 0
M  V30 4209 C 409.205 -0.673085 -1.90138 0
M  V30 4210 C 409.518 0.79895 -1.78539 0
M  V30 4211 O 410.724 1.23628 -2.4172 0
M  V30 4212 C 409.18 -1.15339 -3.40918 0
M  V30 4213 C 408.788 -2.65106 -3.61141 0
M  V30 4214 C 410.532 -0.902476 -4.14796 0
M  V30 4215 C 408.439 -3.0671 -5.05651 0
M  V30 4216 H 407.369 -0.248057 -0.712028 0
M  V30 4217 H 410.02 -1.20891 -1.38049 0
M  V30 4218 H 408.402 -0.545658 -3.92223 0
M  V30 4219 H 409.576 -3.31274 -3.20304 0
M  V30 4220 H 407.891 -2.88142 -3.00605 0
M  V30 4221 H 410.488 -1.18895 -5.21314 0
M  V30 4222 H 410.831 0.161349 -4.15987 0
M  V30 4223 H 411.364 -1.47269 -3.69536 0
M  V30 4224 H 408.103 -4.12292 -5.09603 0
M  V30 4225 H 407.623 -2.45249 -5.47369 0
M  V30 4226 H 409.302 -2.9833 -5.74115 0
M  V30 4227 N 409.434 1.37368 -0.772513 0
M  V30 4228 C 410.845 1.8231 -0.402493 0
M  V30 4229 C 411.196 1.6436 1.07146 0
M  V30 4230 O 410.321 1.15514 1.82991 0
M  V30 4231 C 410.916 3.30979 -0.723776 0
M  V30 4232 C 409.475 3.74195 -0.406802 0
M  V30 4233 C 408.622 2.59885 -0.967218 0
M  V30 4234 H 411.573 1.25829 -0.967099 0
M  V30 4235 H 411.594 3.80499 -0.00870832 0
M  V30 4236 H 411.106 3.44011 -1.7966 0
M  V30 4237 H 409.207 3.66732 0.658673 0
M  V30 4238 H 409.32 4.7027 -0.915588 0
M  V30 4239 H 407.684 2.51674 -0.391416 0
M  V30 4240 H 408.467 2.7571 -2.04546 0
M  V30 4241 N 410.912 0.523116 1.48665 0
M  V30 4242 C 411.875 -0.232592 2.28017 0
M  V30 4243 C 412.875 -0.874021 1.34972 0
M  V30 4244 O 414.065 -0.735132 1.57929 0
M  V30 4245 C 411.197 -1.33586 3.13636 0
M  V30 4246 H 412.39 0.464008 2.96289 0
M  V30 4247 H 409.943 0.278816 1.53793 0
M  V30 4248 H 410.678 -2.06593 2.4998 0
M  V30 4249 H 410.463 -0.881125 3.82071 0
M  V30 4250 H 411.953 -1.86759 3.73511 0
M  V30 4251 N 412.39 -1.55475 0.257931 0
M  V30 4252 C 413.338 -2.23244 -0.653076 0
M  V30 4253 C 414.332 -1.22366 -1.17144 0
M  V30 4254 O 415.538 -1.40347 -1.12706 0
M  V30 4255 H 411.913 -0.716247 -0.229117 0
M  V30 4256 H 413.884 -2.98343 -0.0584788 0
M  V30 4257 C 412.633 -2.95401 -1.83395 0
M  V30 4258 H 411.956 -3.72802 -1.44424 0
M  V30 4259 H 413.396 -3.46165 -2.44838 0
M  V30 4260 C 411.855 -1.99895 -2.71189 0
M  V30 4261 O 412.385 -1.53909 -3.71046 0
M  V30 4262 N 410.591 -1.6676 -2.3799 0
M  V30 4263 H 410.138 -2.04352 -1.56837 0
M  V30 4264 H 410.096 -1.03127 -2.97005 0
M  V30 4265 N 413.868 0.0150385 -1.57593 0
M  V30 4266 C 415.116 0.701613 -1.8953 0
M  V30 4267 C 415.437 1.75139 -0.857396 0
M  V30 4268 O 414.707 1.95607 0.107194 0
M  V30 4269 H 413.287 0.26213 -0.699498 0
M  V30 4270 H 415.949 -0.0223304 -1.94887 0
M  V30 4271 H 415.045 1.18236 -2.88837 0
M  V30 4272 N 415.346 1.54954 0.287554 0
M  V30 4273 C 416.309 1.86076 1.33823 0
M  V30 4274 C 417.309 0.734414 1.43049 0
M  V30 4275 O 418.499 1.00266 1.42452 0
M  V30 4276 C 415.631 2.05305 2.72144 0
M  V30 4277 H 416.824 2.79984 1.07465 0
M  V30 4278 H 414.377 1.47223 0.524902 0
M  V30 4279 H 415.112 1.1373 3.03704 0
M  V30 4280 H 414.897 2.873 2.66836 0
M  V30 4281 H 416.387 2.30706 3.48087 0
M  V30 4282 N 416.824 -0.551391 1.4764 0
M  V30 4283 C 417.754 -1.66757 1.63445 0
M  V30 4284 C 418.735 -1.63077 0.483742 0
M  V30 4285 O 419.92 -1.80607 0.71377 0
M  V30 4286 C 417.05 -3.05387 1.65396 0
M  V30 4287 C 416.004 -3.23918 2.79752 0
M  V30 4288 C 415.33 -4.63393 2.66779 0
M  V30 4289 C 416.63 -3.08735 4.21284 0
M  V30 4290 H 418.324 -1.53786 2.56886 0
M  V30 4291 H 415.87 -0.738415 1.23626 0
M  V30 4292 H 417.823 -3.83325 1.75043 0
M  V30 4293 H 416.547 -3.19332 0.685195 0
M  V30 4294 H 415.206 -2.48391 2.69625 0
M  V30 4295 H 414.854 -4.74144 1.67918 0
M  V30 4296 H 414.554 -4.7674 3.43501 0
M  V30 4297 H 416.078 -5.43458 2.78364 0
M  V30 4298 H 417.492 -3.76484 4.32357 0
M  V30 4299 H 415.889 -3.33588 4.98838 0
M  V30 4300 H 416.959 -2.0541 4.39243 0
M  V30 4301 N 418.302 -1.35869 -0.798587 0
M  V30 4302 C 419.549 -1.29588 -1.55606 0
M  V30 4303 C 419.877 0.127456 -1.94082 0
M  V30 4304 O 419.132 1.09461 -1.62225 0
M  V30 4305 C 419.431 -2.1556 -2.85077 0
M  V30 4306 C 419.097 -3.6424 -2.65781 0
M  V30 4307 C 417.759 -4.04766 -2.60227 0
M  V30 4308 C 420.111 -4.58547 -2.47758 0
M  V30 4309 C 417.439 -5.37753 -2.34603 0
M  V30 4310 C 419.791 -5.91742 -2.23662 0
M  V30 4311 C 418.455 -6.31402 -2.16534 0
M  V30 4312 H 417.725 -0.474197 -0.569402 0
M  V30 4313 H 420.372 -1.67839 -0.922086 0
M  V30 4314 H 418.677 -1.70216 -3.52893 0
M  V30 4315 H 420.374 -2.08031 -3.42818 0
M  V30 4316 H 416.964 -3.32086 -2.70956 0
M  V30 4317 H 421.148 -4.28117 -2.51056 0
M  V30 4318 H 416.404 -5.67474 -2.2756 0
M  V30 4319 H 420.578 -6.6439 -2.08708 0
M  V30 4320 H 418.205 -7.34381 -1.96441 0
M  V30 4321 N 419.78 1.02168 -1.19998 0
M  V30 4322 C 421.026 1.75945 -1.00852 0
M  V30 4323 C 421.359 1.88702 0.458828 0
M  V30 4324 O 420.634 1.40911 1.34069 0
M  V30 4325 C 420.917 3.18154 -1.68671 0
M  V30 4326 C 420.77 3.13224 -3.22817 0
M  V30 4327 C 422.089 4.16711 -1.41561 0
M  V30 4328 H 419.208 0.638673 -0.367785 0
M  V30 4329 H 421.85 1.19222 -1.4794 0
M  V30 4330 H 420 3.66586 -1.28636 0
M  V30 4331 H 421.672 2.72635 -3.72112 0
M  V30 4332 H 419.915 2.50751 -3.53986 0
M  V30 4333 H 420.586 4.13728 -3.65422 0
M  V30 4334 H 423.062 3.76913 -1.76284 0
M  V30 4335 H 421.938 5.14391 -1.91553 0
M  V30 4336 H 422.199 4.40774 -0.342193 0
M  V30 4337 N 421.258 1.00505 1.21394 0
M  V30 4338 C 422.221 0.570459 2.21987 0
M  V30 4339 C 423.221 -0.353211 1.56873 0
M  V30 4340 O 424.411 -0.14349 1.73608 0
M  V30 4341 C 421.543 -0.168555 3.40483 0
M  V30 4342 H 422.736 1.46021 2.6195 0
M  V30 4343 H 420.289 0.793565 1.34656 0
M  V30 4344 H 421.024 -1.07374 3.06009 0
M  V30 4345 H 420.809 0.494823 3.88965 0
M  V30 4346 H 422.299 -0.460362 4.15055 0
M  V30 4347 N 422.737 -1.36956 0.779787 0
M  V30 4348 C 423.967 -2.03459 0.358877 0
M  V30 4349 C 424.375 -1.58939 -1.02641 0
M  V30 4350 O 423.718 -0.769777 -1.66794 0
M  V30 4351 C 423.78 -3.5796 0.332393 0
M  V30 4352 C 423.444 -4.25644 1.66362 0
M  V30 4353 C 424.441 -4.49205 2.61746 0
M  V30 4354 C 422.126 -4.63313 1.94027 0
M  V30 4355 C 424.12 -5.09503 3.82996 0
M  V30 4356 C 421.807 -5.2333 3.15546 0
M  V30 4357 C 422.805 -5.46363 4.0985 0
M  V30 4358 O 422.493 -6.05122 5.29228 0
M  V30 4359 H 422.225 -0.659767 0.147254 0
M  V30 4360 H 424.779 -1.76111 1.05708 0
M  V30 4361 H 423.009 -3.84388 -0.422237 0
M  V30 4362 H 424.698 -4.05852 -0.0625389 0
M  V30 4363 H 425.464 -4.20508 2.41657 0
M  V30 4364 H 421.343 -4.44715 1.21448 0
M  V30 4365 H 424.887 -5.27397 4.56617 0
M  V30 4366 H 420.784 -5.51451 3.35517 0
M  V30 4367 H 421.552 -6.23595 5.30161 0
M  V30 4368 N 424.215 -0.530993 -1.48385 0
M  V30 4369 C 425.125 0.23503 -2.3342 0
M  V30 4370 C 426.141 0.93801 -1.46552 0
M  V30 4371 O 427.317 0.912745 -1.7953 0
M  V30 4372 C 424.382 1.26778 -3.22689 0
M  V30 4373 C 423.443 0.575038 -4.25431 0
M  V30 4374 C 422.676 1.55858 -5.10435 0
M  V30 4375 O 422.899 2.79129 -4.97437 0
M  V30 4376 O 421.833 1.09742 -5.91811 0
M  V30 4377 H 425.659 -0.461794 -3.00169 0
M  V30 4378 H 423.244 -0.291903 -1.46521 0
M  V30 4379 H 425.126 1.86457 -3.77904 0
M  V30 4380 H 423.801 1.94699 -2.586 0
M  V30 4381 H 422.708 -0.0622782 -3.74048 0
M  V30 4382 H 424.041 -0.062253 -4.92161 0
M  V30 4383 N 425.693 1.55336 -0.266172 0
M  V30 4384 C 426.923 2.03506 0.356239 0
M  V30 4385 C 427.331 1.14426 1.50676 0
M  V30 4386 O 426.674 0.155043 1.83045 0
M  V30 4387 C 426.736 3.47848 0.90785 0
M  V30 4388 C 426.4 4.56861 -0.112888 0
M  V30 4389 C 427.397 5.11528 -0.929264 0
M  V30 4390 C 425.082 5.01704 -0.244546 0
M  V30 4391 C 427.076 6.09549 -1.86357 0
M  V30 4392 C 424.763 5.99553 -1.18234 0
M  V30 4393 C 425.761 6.53356 -1.99036 0
M  V30 4394 O 425.449 7.49293 -2.91231 0
M  V30 4395 H 425.181 0.670444 0.08649 0
M  V30 4396 H 427.735 2.01598 -0.39337 0
M  V30 4397 H 425.965 3.46967 1.70737 0
M  V30 4398 H 427.654 3.79407 1.44239 0
M  V30 4399 H 428.42 4.77701 -0.838237 0
M  V30 4400 H 424.299 4.59477 0.374359 0
M  V30 4401 H 427.843 6.51469 -2.49467 0
M  V30 4402 H 423.74 6.32799 -1.27421 0
M  V30 4403 H 424.508 7.66978 -2.8581 0
M  V30 4404 N 427.171 -0.0066808 1.57599 0
M  V30 4405 C 428.396 -0.707738 1.94951 0
M  V30 4406 C 428.821 -1.66882 0.867868 0
M  V30 4407 O 428.179 -1.80457 -0.17458 0
M  V30 4408 C 428.227 -1.42162 3.31394 0
M  V30 4409 O 427.331 -2.53578 3.25226 0
M  V30 4410 H 426.672 -0.188752 0.636607 0
M  V30 4411 H 429.202 0.0445193 2.04552 0
M  V30 4412 H 429.212 -1.78655 3.66806 0
M  V30 4413 H 427.887 -0.716903 4.09675 0
M  V30 4414 H 426.464 -2.19463 3.01481 0
M  V30 4415 N 428.649 -1.55105 -0.279332 0
M  V30 4416 C 430.065 -1.46803 -0.626187 0
M  V30 4417 C 430.265 -0.676939 -1.89789 0
M  V30 4418 O 429.321 -0.19326 -2.51759 0
M  V30 4419 C 430.634 -2.90962 -0.759034 0
M  V30 4420 C 432.182 -3.01138 -0.853504 0
M  V30 4421 C 432.657 -4.46539 -1.01818 0
M  V30 4422 N 434.148 -4.50341 -1.08386 0
M  V30 4423 C 434.883 -5.60053 -1.22996 0
M  V30 4424 N 434.379 -6.79645 -1.34366 0
M  V30 4425 N 436.172 -5.47783 -1.26056 0
M  V30 4426 H 428.323 -2.04996 0.555921 0
M  V30 4427 H 430.586 -0.929325 0.187239 0
M  V30 4428 H 430.292 -3.51544 0.104852 0
M  V30 4429 H 430.166 -3.39619 -1.64131 0
M  V30 4430 H 432.553 -2.40658 -1.70786 0
M  V30 4431 H 432.634 -2.55745 0.0532466 0
M  V30 4432 H 432.278 -5.0762 -0.168504 0
M  V30 4433 H 432.208 -4.89583 -1.93948 0
M  V30 4434 H 434.699 -3.64191 -1.00864 0
M  V30 4435 H 435.012 -7.59012 -1.4533 0
M  V30 4436 H 433.357 -6.82469 -1.31382 0
M  V30 4437 H 436.548 -4.53294 -1.168 0
M  V30 4438 H 436.721 -6.33331 -1.37098 0
M  V30 4439 N 430.127 0.543554 -1.4793 0
M  V30 4440 C 431.074 1.64942 -1.6144 0
M  V30 4441 C 432.044 1.59692 -0.456903 0
M  V30 4442 O 433.229 1.78321 -0.678688 0
M  V30 4443 C 430.369 3.03238 -1.64744 0
M  V30 4444 C 429.482 3.18823 -2.91506 0
M  V30 4445 C 428.617 4.47599 -2.86057 0
M  V30 4446 C 427.656 4.56664 -4.07584 0
M  V30 4447 N 426.793 5.76811 -4.00292 0
M  V30 4448 H 431.633 1.52733 -2.55884 0
M  V30 4449 H 429.17 0.7438 -1.2691 0
M  V30 4450 H 431.128 3.83339 -1.64641 0
M  V30 4451 H 429.758 3.1425 -0.738017 0
M  V30 4452 H 428.81 2.32064 -3.01414 0
M  V30 4453 H 430.122 3.21384 -3.81463 0
M  V30 4454 H 429.276 5.35975 -2.84281 0
M  V30 4455 H 428.015 4.47538 -1.93807 0
M  V30 4456 H 427.02 3.66697 -4.09651 0
M  V30 4457 H 428.245 4.58474 -5.00978 0
M  V30 4458 H 426.191 5.77673 -3.10853 0
M  V30 4459 H 426.108 5.80808 -4.8394 0
M  V30 4460 H 427.376 6.67512 -4.02553 0
M  V30 4461 N 431.605 1.3629 0.791371 0
M  V30 4462 C 432.538 1.24816 1.9104 0
M  V30 4463 C 433.516 0.132739 1.62057 0
M  V30 4464 O 434.7 0.303527 1.8604 0
M  V30 4465 C 431.827 0.925355 3.25814 0
M  V30 4466 C 430.873 2.05495 3.7373 0
M  V30 4467 S 431.706 3.67255 3.89723 0
M  V30 4468 C 432.862 3.37084 5.27376 0
M  V30 4469 H 433.095 2.19533 2.00481 0
M  V30 4470 H 430.628 1.21684 0.950393 0
M  V30 4471 H 432.586 0.745924 4.03666 0
M  V30 4472 H 431.247 -0.00400098 3.141 0
M  V30 4473 H 430.44 1.7836 4.71385 0
M  V30 4474 H 430.042 2.1935 3.02922 0
M  V30 4475 H 432.334 2.90856 6.1189 0
M  V30 4476 H 433.277 4.33995 5.59512 0
M  V30 4477 H 433.685 2.7248 4.94383 0
M  V30 4478 N 433.083 -1.0153 1.20538 0
M  V30 4479 C 434.016 -2.09759 0.898695 0
M  V30 4480 C 434.994 -1.61909 -0.149733 0
M  V30 4481 O 436.178 -1.88486 -0.0230293 0
M  V30 4482 C 433.305 -3.36913 0.347512 0
M  V30 4483 C 432.351 -4.03655 1.37713 0
M  V30 4484 S 433.184 -4.47402 2.94265 0
M  V30 4485 C 434.34 -5.77756 2.40726 0
M  V30 4486 H 434.573 -2.3545 1.81523 0
M  V30 4487 H 432.106 -1.14665 1.03399 0
M  V30 4488 H 434.064 -4.10484 0.0360518 0
M  V30 4489 H 432.725 -3.09291 -0.547546 0
M  V30 4490 H 431.918 -4.9514 0.940872 0
M  V30 4491 H 431.52 -3.36313 1.63614 0
M  V30 4492 H 433.812 -6.52994 1.80569 0
M  V30 4493 H 434.755 -6.2618 3.30612 0
M  V30 4494 H 435.163 -5.34081 1.82806 0
M  V30 4495 N 434.561 -1.01147 -1.20859 0
M  V30 4496 C 435.494 -0.522108 -2.22147 0
M  V30 4497 C 436.472 0.427686 -1.56874 0
M  V30 4498 O 437.656 0.34889 -1.85243 0
M  V30 4499 C 434.783 0.240819 -3.37843 0
M  V30 4500 C 433.829 -0.657752 -4.21398 0
M  V30 4501 S 434.662 -2.12393 -4.91578 0
M  V30 4502 C 435.818 -1.37102 -6.10699 0
M  V30 4503 H 436.051 -1.38035 -2.63313 0
M  V30 4504 H 433.584 -0.819941 -1.30829 0
M  V30 4505 H 435.542 0.674908 -4.04914 0
M  V30 4506 H 434.203 1.07457 -2.95147 0
M  V30 4507 H 433.396 -0.0697456 -5.03952 0
M  V30 4508 H 432.998 -1.0294 -3.59555 0
M  V30 4509 H 435.29 -0.648315 -6.74391 0
M  V30 4510 H 436.233 -2.17252 -6.73949 0
M  V30 4511 H 436.641 -0.876154 -5.57659 0
M  V30 4512 N 436.039 1.36541 -0.78704 0
M  V30 4513 C 436.986 2.30082 -0.181901 0
M  V30 4514 C 437.956 1.5186 0.672896 0
M  V30 4515 O 439.141 1.80374 0.622072 0
M  V30 4516 C 436.281 3.3835 0.679197 0
M  V30 4517 C 435.394 4.31565 -0.193882 0
M  V30 4518 C 434.529 5.26915 0.673364 0
M  V30 4519 C 433.568 6.11769 -0.201315 0
M  V30 4520 N 432.705 6.99315 0.624777 0
M  V30 4521 H 437.545 2.81248 -0.985064 0
M  V30 4522 H 435.082 1.38437 -0.497342 0
M  V30 4523 H 437.04 3.99767 1.19341 0
M  V30 4524 H 435.67 2.8851 1.44781 0
M  V30 4525 H 434.722 3.71323 -0.826044 0
M  V30 4526 H 436.034 4.91191 -0.867937 0
M  V30 4527 H 435.188 5.9361 1.25348 0
M  V30 4528 H 433.927 4.67737 1.38105 0
M  V30 4529 H 432.932 5.44039 -0.793849 0
M  V30 4530 H 434.157 6.73022 -0.906568 0
M  V30 4531 H 432.103 6.42648 1.3168 0
M  V30 4532 H 432.02 7.56 0.00835237 0
M  V30 4533 H 433.288 7.70382 1.18879 0
M  V30 4534 N 437.518 0.538854 1.48102 0
M  V30 4535 C 438.45 -0.256278 2.27763 0
M  V30 4536 C 439.463 -0.89633 1.35904 0
M  V30 4537 O 440.652 -0.773275 1.60881 0
M  V30 4538 C 437.752 -1.37896 3.09577 0
M  V30 4539 C 436.925 -0.839159 4.29275 0
M  V30 4540 C 435.984 -1.84405 4.9283 0
M  V30 4541 O 435.01 -1.39746 5.51779 0
M  V30 4542 N 436.212 -3.17666 4.85869 0
M  V30 4543 H 438.977 0.426968 2.96643 0
M  V30 4544 H 436.538 0.373747 1.57527 0
M  V30 4545 H 438.53 -2.04955 3.48963 0
M  V30 4546 H 437.1 -1.96572 2.4306 0
M  V30 4547 H 436.32 0.00769287 3.94199 0
M  V30 4548 H 437.608 -0.457548 5.06739 0
M  V30 4549 H 437.006 -3.56609 4.39143 0
M  V30 4550 H 435.563 -3.80334 5.29329 0
M  V30 4551 N 438.996 -1.55193 0.274407 0
M  V30 4552 C 439.926 -2.25471 -0.607032 0
M  V30 4553 C 440.907 -1.24461 -1.15946 0
M  V30 4554 O 442.092 -1.53179 -1.19373 0
M  V30 4555 C 439.222 -2.97526 -1.79153 0
M  V30 4556 C 438.176 -4.05459 -1.37067 0
M  V30 4557 C 437.502 -4.65084 -2.6382 0
M  V30 4558 C 438.802 -5.19691 -0.521389 0
M  V30 4559 H 440.496 -2.99393 -0.0209343 0
M  V30 4560 H 438.042 -1.43997 -0.00862866 0
M  V30 4561 H 439.995 -3.45402 -2.41404 0
M  V30 4562 H 438.719 -2.21138 -2.40344 0
M  V30 4563 H 437.378 -3.58393 -0.771355 0
M  V30 4564 H 437.026 -3.85365 -3.23268 0
M  V30 4565 H 436.726 -5.37961 -2.36372 0
M  V30 4566 H 438.25 -5.15708 -3.26921 0
M  V30 4567 H 439.664 -5.63623 -1.04889 0
M  V30 4568 H 438.061 -5.99126 -0.341825 0
M  V30 4569 H 439.131 -4.82713 0.46 0
M  V30 4570 N 440.474 -0.00167713 -1.576 0
M  V30 4571 C 441.384 1.00548 -2.1196 0
M  V30 4572 C 442.4 1.3758 -1.06526 0
M  V30 4573 O 443.576 1.46278 -1.38436 0
M  V30 4574 C 440.641 2.27809 -2.6135 0
M  V30 4575 C 439.702 1.97074 -3.81393 0
M  V30 4576 C 438.935 3.18267 -4.28417 0
M  V30 4577 O 439.158 4.30009 -3.74765 0
M  V30 4578 O 438.092 3.02167 -5.20556 0
M  V30 4579 H 441.918 0.573373 -2.98238 0
M  V30 4580 H 439.503 0.217255 -1.47812 0
M  V30 4581 H 441.385 3.02568 -2.93309 0
M  V30 4582 H 440.06 2.70254 -1.78169 0
M  V30 4583 H 438.967 1.19785 -3.54404 0
M  V30 4584 H 440.3 1.59464 -4.65652 0
M  V30 4585 N 441.952 1.55251 0.271103 0
M  V30 4586 C 442.915 1.87484 1.31842 0
M  V30 4587 C 443.915 0.749545 1.42262 0
M  V30 4588 O 445.105 1.01771 1.4138 0
M  V30 4589 C 442.237 2.0818 2.69951 0
M  V30 4590 H 443.43 2.81108 1.0449 0
M  V30 4591 H 440.983 1.47771 0.509258 0
M  V30 4592 H 441.718 1.16944 3.02481 0
M  V30 4593 H 441.503 2.90114 2.63774 0
M  V30 4594 H 442.993 2.34385 3.4562 0
M  V30 4595 N 443.43 -0.535701 1.48216 0
M  V30 4596 C 444.66 -1.3148 1.59363 0
M  V30 4597 C 445.068 -1.8753 0.250844 0
M  V30 4598 O 444.411 -1.66821 -0.769174 0
M  V30 4599 C 444.473 -2.50731 2.57632 0
M  V30 4600 C 444.137 -2.15811 4.02833 0
M  V30 4601 C 445.134 -1.71822 4.90686 0
M  V30 4602 C 442.819 -2.26509 4.48329 0
M  V30 4603 C 444.813 -1.3899 6.22062 0
M  V30 4604 C 442.5 -1.93289 5.79726 0
M  V30 4605 C 443.498 -1.49599 6.66415 0
M  V30 4606 O 443.186 -1.16812 7.95368 0
M  V30 4607 H 442.918 -0.406315 0.540263 0
M  V30 4608 H 445.472 -0.653569 1.94725 0
M  V30 4609 H 443.702 -3.19817 2.1738 0
M  V30 4610 H 445.391 -3.12797 2.58675 0
M  V30 4611 H 446.157 -1.63031 4.56778 0
M  V30 4612 H 442.036 -2.59471 3.81045 0
M  V30 4613 H 445.58 -1.04816 6.89681 0
M  V30 4614 H 441.477 -2.01718 6.13172 0
M  V30 4615 H 442.245 -1.30259 8.08069 0
M  V30 4616 O 444.947 -1.46458 -0.680617 0
M  V30 4617 H 445.638 -1.40531 -1.33307 0
M  V30 END ATOM
M  V30 BEGIN BOND
M  V30 END BOND
M  V30 END CTAB
M  END
$$$$
