drugbank_target|Q9BXJ7 Protein amnionless (DB00200)
 OpenBabel12092119293D

  0  0  0     0  0            999 V3000
M  V30 BEGIN CTAB
M  V30 COUNTS 6681 6762 0 0 0
M  V30 BEGIN ATOM
M  V30 1 H -0.908 1.98254 -0.117106 0
M  V30 2 N 0 1.576 0 0
M  V30 3 C 0.933 2.03868 1.02534 0
M  V30 4 C 1.911 0.928543 1.3348 0
M  V30 5 O 3.095 1.19667 1.45644 0
M  V30 6 C 0.222 2.43627 2.35294 0
M  V30 7 C -0.732 3.65373 2.2001 0
M  V30 8 S 0.101 5.13292 1.52614 0
M  V30 9 C 1.257 5.56322 2.86805 0
M  V30 10 H 1.49 2.90518 0.631377 0
M  V30 11 H -0.977 1.52953 0.210867 0
M  V30 12 H 0.981 2.67203 3.11629 0
M  V30 13 H -0.358 1.57376 2.7183 0
M  V30 14 H -1.165 3.90944 3.18086 0
M  V30 15 H -1.563 3.418 1.51819 0
M  V30 16 H 0.729 5.58782 3.83104 0
M  V30 17 H 1.672 6.56266 2.65933 0
M  V30 18 H 2.08 4.83886 2.90714 0
M  V30 19 N 1.4781 -0.272755 1.55222 0
M  V30 20 C 2.7261 -1.00234 1.75492 0
M  V30 21 C 3.0471 -1.8681 0.5592 0
M  V30 22 O 2.3171 -1.91215 -0.425882 0
M  V30 23 H 0.8971 -0.373076 0.647166 0
M  V30 24 H 3.5591 -0.296926 1.92625 0
M  V30 25 H 2.6551 -1.63913 2.65592 0
M  V30 26 N 2.9562 -1.48159 -0.537278 0
M  V30 27 C 4.2022 -1.56035 -1.29541 0
M  V30 28 C 4.5352 -0.230377 -1.92829 0
M  V30 29 O 3.8102 0.762952 -1.78911 0
M  V30 30 C 4.0932 -2.69323 -2.39034 0
M  V30 31 C 3.9462 -4.12002 -1.80485 0
M  V30 32 C 5.2652 -2.78408 -3.40847 0
M  V30 33 H 2.3842 -0.567992 -0.469632 0
M  V30 34 H 5.0262 -1.80302 -0.599277 0
M  V30 35 H 3.1762 -2.48763 -2.98412 0
M  V30 36 H 4.8482 -4.43981 -1.25215 0
M  V30 37 H 3.0912 -4.19344 -1.11055 0
M  V30 38 H 3.7622 -4.87077 -2.59731 0
M  V30 39 H 6.2382 -2.97012 -2.91416 0
M  V30 40 H 5.1142 -3.59416 -4.14863 0
M  V30 41 H 5.3752 -1.86269 -4.00944 0
M  V30 42 N 4.4343 0.785586 -1.36625 0
M  V30 43 C 5.3643 1.91259 -1.33949 0
M  V30 44 C 6.3453 1.68795 -0.210325 0
M  V30 45 O 7.5303 1.89854 -0.408561 0
M  V30 46 C 4.6603 3.28339 -1.13186 0
M  V30 47 C 3.6143 3.65335 -2.22967 0
M  V30 48 C 2.9403 5.00806 -1.87342 0
M  V30 49 C 4.2403 3.7352 -3.65075 0
M  V30 50 H 5.9343 1.93755 -2.28253 0
M  V30 51 H 3.4803 0.930788 -1.09874 0
M  V30 52 H 5.4333 4.06804 -1.09948 0
M  V30 53 H 4.1573 3.2624 -0.153332 0
M  V30 54 H 2.8163 2.89169 -2.25337 0
M  V30 55 H 2.4643 4.95233 -0.880545 0
M  V30 56 H 2.1643 5.26529 -2.60846 0
M  V30 57 H 3.6883 5.81687 -1.85667 0
M  V30 58 H 5.1023 4.42168 -3.64911 0
M  V30 59 H 3.4993 4.10731 -4.37516 0
M  V30 60 H 4.5693 2.74527 -3.99703 0
M  V30 61 N 5.9124 1.20967 1.01018 0
M  V30 62 C 7.1604 1.02172 1.74371 0
M  V30 63 C 7.4814 -0.446414 1.89821 0
M  V30 64 O 6.7514 -1.32234 1.44537 0
M  V30 65 H 5.3314 0.375066 0.646014 0
M  V30 66 H 7.9934 1.52187 1.21758 0
M  V30 67 H 7.0894 1.48538 2.74487 0
M  V30 68 N 7.3905 -1.2043 1.01659 0
M  V30 69 C 8.8065 -1.41852 0.731442 0
M  V30 70 C 9.0065 -1.89358 -0.688898 0
M  V30 71 O 8.0625 -2.06247 -1.45666 0
M  V30 72 C 9.3755 -2.44019 1.75714 0
M  V30 73 C 10.9235 -2.57785 1.77527 0
M  V30 74 C 11.3985 -3.63194 2.79023 0
M  V30 75 N 12.8895 -3.70678 2.77763 0
M  V30 76 C 13.6245 -4.51897 3.52954 0
M  V30 77 N 13.1205 -5.36921 4.37821 0
M  V30 78 N 14.9135 -4.4643 3.41551 0
M  V30 79 H 7.0645 -0.879093 1.93354 0
M  V30 80 H 9.3275 -0.448425 0.835236 0
M  V30 81 H 9.0335 -2.1611 2.77469 0
M  V30 82 H 8.9075 -3.43007 1.56927 0
M  V30 83 H 11.2945 -2.85023 0.764569 0
M  V30 84 H 11.3755 -1.58992 2.00387 0
M  V30 85 H 11.0195 -3.36699 3.80258 0
M  V30 86 H 10.9495 -4.61609 2.53425 0
M  V30 87 H 13.4405 -3.09944 2.16201 0
M  V30 88 H 13.7535 -5.95981 4.91962 0
M  V30 89 H 12.0985 -5.36424 4.41899 0
M  V30 90 H 15.2895 -3.79042 2.74672 0
M  V30 91 H 15.4625 -5.09491 4.00404 0
M  V30 92 N 8.8686 -0.792821 -1.36206 0
M  V30 93 C 10.1146 -0.36733 -1.99446 0
M  V30 94 C 10.4476 1.05917 -1.62774 0
M  V30 95 O 9.7226 1.7324 -0.88421 0
M  V30 96 C 10.0056 -0.535044 -3.56103 0
M  V30 97 C 9.8586 -2.00548 -4.02617 0
M  V30 98 C 11.1776 0.0478191 -4.40074 0
M  V30 99 H 8.2966 -0.134941 -0.724541 0
M  V30 100 H 10.9386 -0.999794 -1.61568 0
M  V30 101 H 9.0886 0.00336329 -3.885 0
M  V30 102 H 10.7606 -2.60521 -3.80692 0
M  V30 103 H 9.0036 -2.50686 -3.54032 0
M  V30 104 H 9.6746 -2.07377 -5.11565 0
M  V30 105 H 12.1506 -0.411822 -4.14057 0
M  V30 106 H 11.0266 -0.0995336 -5.4881 0
M  V30 107 H 11.2876 1.14025 -4.27142 0
M  V30 108 N 10.3467 1.47872 -0.545128 0
M  V30 109 C 11.2767 2.32661 0.197793 0
M  V30 110 C 12.2577 1.43041 0.920504 0
M  V30 111 O 13.4427 1.71912 0.90333 0
M  V30 112 C 10.5727 3.24569 1.23582 0
M  V30 113 C 9.5267 4.23333 0.630323 0
M  V30 114 C 8.8527 5.0448 1.77211 0
M  V30 115 C 10.1527 5.20704 -0.407974 0
M  V30 116 H 11.8467 2.95024 -0.510045 0
M  V30 117 H 9.3927 1.4187 -0.246731 0
M  V30 118 H 11.3457 3.8272 1.76362 0
M  V30 119 H 10.0697 2.60236 1.97344 0
M  V30 120 H 8.7287 3.6639 0.123922 0
M  V30 121 H 8.3767 4.36561 2.49847 0
M  V30 122 H 8.0767 5.71339 1.37281 0
M  V30 123 H 9.6007 5.65487 2.3034 0
M  V30 124 H 11.0147 5.7329 0.033305 0
M  V30 125 H 9.4117 5.95699 -0.725486 0
M  V30 126 H 10.4817 4.66917 -1.30828 0
M  V30 127 N 11.8248 0.280983 1.55075 0
M  V30 128 C 12.7548 -0.597469 2.25727 0
M  V30 129 C 13.7358 -1.15417 1.24952 0
M  V30 130 O 14.9208 -1.18722 1.53684 0
M  V30 131 C 12.0508 -1.7789 2.98283 0
M  V30 132 C 11.0048 -1.35347 4.06036 0
M  V30 133 C 10.3308 -2.61846 4.66198 0
M  V30 134 C 11.6308 -0.499354 5.19907 0
M  V30 135 H 13.3248 -0.00824265 2.99399 0
M  V30 136 H 10.8708 -0.0025244 1.44 0
M  V30 137 H 12.8238 -2.39937 3.46422 0
M  V30 138 H 11.5478 -2.39405 2.22155 0
M  V30 139 H 10.2068 -0.756156 3.58717 0
M  V30 140 H 9.8548 -3.21632 3.86732 0
M  V30 141 H 9.5548 -2.3409 5.38958 0
M  V30 142 H 11.0788 -3.24732 5.1709 0
M  V30 143 H 12.4928 -1.02498 5.64063 0
M  V30 144 H 10.8898 -0.316424 5.99265 0
M  V30 145 H 11.9598 0.480459 4.82514 0
M  V30 146 N 13.3029 -1.57598 0.00835791 0
M  V30 147 C 14.5489 -1.92046 -0.670055 0
M  V30 148 C 14.9039 -0.88351 -1.70915 0
M  V30 149 O 14.1969 0.103223 -1.91322 0
M  V30 150 C 14.3909 -3.3101 -1.34787 0
M  V30 151 C 14.2199 -4.48126 -0.375945 0
M  V30 152 C 12.9899 -5.05297 0.0166914 0
M  V30 153 C 15.1879 -5.1303 0.361272 0
M  V30 154 N 13.1699 -6.05931 0.985952 0
M  V30 155 C 14.5409 -6.08571 1.18495 0
M  V30 156 C 16.5959 -4.9609 0.42421 0
M  V30 157 C 15.2989 -6.88996 2.06584 0
M  V30 158 C 17.3249 -5.77107 1.29236 0
M  V30 159 C 16.6869 -6.72248 2.10386 0
M  V30 160 H 12.7859 -0.75096 -0.218136 0
M  V30 161 H 15.3699 -1.94572 0.0706669 0
M  V30 162 H 13.5409 -3.29342 -2.05884 0
M  V30 163 H 15.2729 -3.52864 -1.98164 0
M  V30 164 H 12.0279 -4.72279 -0.353435 0
M  V30 165 H 12.4519 -6.60932 1.4662 0
M  V30 166 H 17.0939 -4.22378 -0.188915 0
M  V30 167 H 14.8119 -7.62028 2.6896 0
M  V30 168 H 18.3979 -5.66038 1.34508 0
M  V30 169 H 17.2779 -7.33846 2.76476 0
M  V30 170 N 14.781 0.264519 -1.55364 0
M  V30 171 C 15.711 1.33121 -1.91836 0
M  V30 172 C 16.692 1.51101 -0.781192 0
M  V30 173 O 17.877 1.64003 -1.04003 0
M  V30 174 C 15.007 2.68921 -2.19769 0
M  V30 175 C 13.961 2.65661 -3.35571 0
M  V30 176 C 13.287 4.05093 -3.49004 0
M  V30 177 C 14.587 2.24187 -4.71739 0
M  V30 178 H 16.281 1.02844 -2.81182 0
M  V30 179 H 13.827 0.493286 -1.35287 0
M  V30 180 H 15.78 3.43663 -2.43872 0
M  V30 181 H 14.504 3.00799 -1.27231 0
M  V30 182 H 13.163 1.93377 -3.1145 0
M  V30 183 H 12.811 4.34206 -2.53917 0
M  V30 184 H 12.511 4.03804 -4.26868 0
M  V30 185 H 14.035 4.81561 -3.75408 0
M  V30 186 H 15.449 2.88654 -4.9533 0
M  V30 187 H 13.846 2.34044 -5.52579 0
M  V30 188 H 14.916 1.19327 -4.69988 0
M  V30 189 N 16.2591 1.48442 0.529413 0
M  V30 190 C 17.1911 1.59095 1.64989 0
M  V30 191 C 18.2041 0.475212 1.5571 0
M  V30 192 O 19.3931 0.746081 1.6216 0
M  V30 193 C 16.4931 1.50518 3.0364 0
M  V30 194 C 15.6661 2.77142 3.38395 0
M  V30 195 C 14.7251 2.62012 4.56329 0
M  V30 196 O 13.7511 3.35898 4.59522 0
M  V30 197 N 14.9531 1.71667 5.54536 0
M  V30 198 H 17.7181 2.55723 1.56287 0
M  V30 199 H 15.2791 1.45173 0.716697 0
M  V30 200 H 17.2711 1.38091 3.80412 0
M  V30 201 H 15.8411 0.618627 3.06418 0
M  V30 202 H 15.0611 3.0413 2.50796 0
M  V30 203 H 16.3491 3.61146 3.58401 0
M  V30 204 H 15.7471 1.10841 5.54735 0
M  V30 205 H 14.3041 1.65178 6.30523 0
M  V30 206 N 17.7372 -0.778329 1.37039 0
M  V30 207 C 18.6672 -1.90546 1.34962 0
M  V30 208 C 19.6482 -1.68681 0.219274 0
M  V30 209 O 20.8332 -1.89634 0.418624 0
M  V30 210 C 17.9632 -3.27734 1.14925 0
M  V30 211 C 16.9172 -3.64147 2.24902 0
M  V30 212 C 16.2432 -4.99806 1.89996 0
M  V30 213 C 17.5432 -3.71579 3.67051 0
M  V30 214 H 19.2372 -1.92541 2.29277 0
M  V30 215 H 16.7832 -0.924948 1.10366 0
M  V30 216 H 18.7362 -4.06215 1.12104 0
M  V30 217 H 17.4602 -3.26154 0.170631 0
M  V30 218 H 16.1192 -2.8797 2.26868 0
M  V30 219 H 15.7672 -4.94759 0.906796 0
M  V30 220 H 15.4672 -5.25139 2.63634 0
M  V30 221 H 16.9912 -5.80694 1.88749 0
M  V30 222 H 18.4052 -4.40227 3.67251 0
M  V30 223 H 16.8022 -4.08405 4.39688 0
M  V30 224 H 17.8722 -2.72404 4.01154 0
M  V30 225 N 19.2153 -1.21501 -1.00376 0
M  V30 226 C 20.4553 -1.04444 -1.75701 0
M  V30 227 C 20.8193 0.414644 -1.87469 0
M  V30 228 O 22.0203 0.705763 -2.59369 0
M  V30 229 C 20.2913 -1.72389 -3.13077 0
M  V30 230 S 21.8503 -1.70604 -4.04277 0
M  V30 231 H 18.6683 -0.374249 -0.604532 0
M  V30 232 H 21.2703 -1.54267 -1.20091 0
M  V30 233 H 19.9743 -2.77734 -3.02146 0
M  V30 234 H 19.5053 -1.22751 -3.73759 0
M  V30 235 H 21.5203 -0.748012 -4.9053 0
M  V30 236 N 20.6934 1.19889 -1.02296 0
M  V30 237 C 21.6564 2.21116 -0.603351 0
M  V30 238 C 22.6564 1.5738 0.329884 0
M  V30 239 O 23.8464 1.73802 0.117702 0
M  V30 240 C 20.9784 3.40696 0.117992 0
M  V30 241 H 22.1714 2.59754 -1.49893 0
M  V30 242 H 19.7244 1.33463 -0.813468 0
M  V30 243 H 20.4594 3.07569 1.0282 0
M  V30 244 H 20.2444 3.88188 -0.552511 0
M  V30 245 H 21.7344 4.15692 0.398696 0
M  V30 246 N 22.1715 0.800033 1.35784 0
M  V30 247 C 23.1015 0.220184 2.3246 0
M  V30 248 C 24.0825 -0.65073 1.57161 0
M  V30 249 O 25.2675 -0.582359 1.85263 0
M  V30 250 C 22.3975 -0.637353 3.41402 0
M  V30 251 C 21.3515 0.134531 4.27789 0
M  V30 252 C 20.6775 -0.844285 5.27992 0
M  V30 253 C 21.9775 1.32979 5.05088 0
M  V30 254 H 23.6715 1.02787 2.81203 0
M  V30 255 H 21.2175 0.495717 1.35199 0
M  V30 256 H 23.1705 -1.05302 4.08031 0
M  V30 257 H 21.8945 -1.47785 2.91251 0
M  V30 258 H 20.5535 0.531296 3.6273 0
M  V30 259 H 20.2015 -1.68011 4.74111 0
M  V30 260 H 19.9015 -0.332184 5.8666 0
M  V30 261 H 21.4255 -1.2583 5.97494 0
M  V30 262 H 22.8395 0.98934 5.64699 0
M  V30 263 H 21.2365 1.77593 5.7322 0
M  V30 264 H 22.3065 2.11978 4.36111 0
M  V30 265 N 23.6496 -1.47581 0.552962 0
M  V30 266 C 24.8776 -2.06875 0.0320556 0
M  V30 267 C 25.2926 -1.40625 -1.25976 0
M  V30 268 O 24.6496 -0.501349 -1.75479 0
M  V30 269 C 24.7006 -3.61092 -0.17167 0
M  V30 270 O 24.4216 -4.24858 1.06899 0
M  V30 271 C 25.9226 -4.37242 -0.730344 0
M  V30 272 H 23.1426 -0.669561 0.043915 0
M  V30 273 H 25.6866 -1.89646 0.765163 0
M  V30 274 H 23.8416 -3.7785 -0.854894 0
M  V30 275 H 24.2556 -5.17334 0.864059 0
M  V30 276 H 25.7296 -5.45842 -0.822203 0
M  V30 277 H 26.2066 -4.03235 -1.74064 0
M  V30 278 H 26.8126 -4.25219 -0.0829543 0
M  V30 279 N 25.1277 -0.289203 -1.54924 0
M  V30 280 C 26.0597 0.625583 -2.20497 0
M  V30 281 C 27.0727 1.10667 -1.19402 0
M  V30 282 O 28.2617 1.02615 -1.46056 0
M  V30 283 C 25.3617 1.86702 -2.82835 0
M  V30 284 C 24.5347 1.5304 -4.09753 0
M  V30 285 C 23.5937 2.62576 -4.56005 0
M  V30 286 O 22.6197 2.28167 -5.21468 0
M  V30 287 N 23.8217 3.92901 -4.27328 0
M  V30 288 H 26.5867 0.0642801 -2.99631 0
M  V30 289 H 24.1477 -0.110896 -1.6152 0
M  V30 290 H 26.1397 2.59304 -3.10715 0
M  V30 291 H 24.7097 2.33702 -2.07611 0
M  V30 292 H 23.9297 0.637564 -3.8901 0
M  V30 293 H 25.2177 1.28072 -4.92418 0
M  V30 294 H 24.6157 4.23671 -3.74859 0
M  V30 295 H 23.1727 4.61837 -4.59946 0
M  V30 296 N 26.6058 1.57591 -0.0167156 0
M  V30 297 C 27.5688 2.08393 0.954204 0
M  V30 298 C 28.5688 0.996531 1.26198 0
M  V30 299 O 29.7588 1.25858 1.20438 0
M  V30 300 C 26.8908 2.5394 2.27436 0
M  V30 301 H 28.0838 2.95455 0.514451 0
M  V30 302 H 25.6368 1.54582 0.231089 0
M  V30 303 H 26.3718 1.70171 2.76066 0
M  V30 304 H 26.1568 3.33371 2.06412 0
M  V30 305 H 27.6468 2.93512 2.97053 0
M  V30 306 N 28.0839 -0.256276 1.55502 0
M  V30 307 C 29.3299 -0.987079 1.77157 0
M  V30 308 C 29.6629 -1.85327 0.580315 0
M  V30 309 O 28.9379 -1.89874 -0.421686 0
M  V30 310 C 29.2209 -1.85553 3.08613 0
M  V30 311 C 29.0739 -1.01816 4.38125 0
M  V30 312 C 30.3929 -2.8397 3.36228 0
M  V30 313 H 27.5119 -0.357428 0.644526 0
M  V30 314 H 30.1539 -0.258239 1.88237 0
M  V30 315 H 28.3039 -2.47695 2.99298 0
M  V30 316 H 29.9759 -0.416159 4.59419 0
M  V30 317 H 28.2189 -0.322178 4.32602 0
M  V30 318 H 28.8899 -1.65939 5.26468 0
M  V30 319 H 31.3659 -2.31964 3.45445 0
M  V30 320 H 30.2419 -3.41864 4.29442 0
M  V30 321 H 30.5029 -3.59955 2.56681 0
M  V30 322 N 29.562 -1.4872 -0.521534 0
M  V30 323 C 30.787 -1.61101 -1.30618 0
M  V30 324 C 31.212 -0.274611 -1.86085 0
M  V30 325 O 30.57 0.754937 -1.64834 0
M  V30 326 C 30.618 -2.66709 -2.4269 0
M  V30 327 O 29.722 -2.24456 -3.45967 0
M  V30 328 H 29.063 -0.539921 -0.386499 0
M  V30 329 H 31.593 -1.94767 -0.626645 0
M  V30 330 H 31.603 -2.88245 -2.88754 0
M  V30 331 H 30.278 -3.63727 -2.01682 0
M  V30 332 H 28.855 -2.13168 -3.05964 0
M  V30 333 N 31.0401 0.771051 -1.3745 0
M  V30 334 C 31.9871 1.88435 -1.3327 0
M  V30 335 C 32.9571 1.64914 -0.198136 0
M  V30 336 O 34.1421 1.86821 -0.387606 0
M  V30 337 C 31.2821 3.25509 -1.14622 0
M  V30 338 C 30.3951 3.60979 -2.37314 0
M  V30 339 C 29.5301 4.87265 -2.11533 0
M  V30 340 C 28.5691 5.15469 -3.30088 0
M  V30 341 N 27.7061 6.32944 -3.03853 0
M  V30 342 H 32.5461 1.91344 -2.28455 0
M  V30 343 H 30.0831 0.935466 -1.13523 0
M  V30 344 H 32.0411 4.04582 -1.01831 0
M  V30 345 H 30.6711 3.21974 -0.230837 0
M  V30 346 H 29.7231 2.76885 -2.60842 0
M  V30 347 H 31.0351 3.77759 -3.25729 0
M  V30 348 H 30.1891 5.74244 -1.95777 0
M  V30 349 H 28.9281 4.7259 -1.20457 0
M  V30 350 H 27.9331 4.26966 -3.46382 0
M  V30 351 H 29.1581 5.32052 -4.22016 0
M  V30 352 H 27.1041 6.19625 -2.15407 0
M  V30 353 H 27.0211 6.50143 -3.85812 0
M  V30 354 H 28.2891 7.22857 -2.91716 0
M  V30 355 N 32.5182 1.22032 0.997298 0
M  V30 356 C 33.4482 1.01065 2.10495 0
M  V30 357 C 34.4292 -0.0669542 1.69968 0
M  V30 358 O 35.6142 0.0943987 1.9397 0
M  V30 359 C 32.7442 0.582874 3.42374 0
M  V30 360 C 31.6982 1.60592 3.96729 0
M  V30 361 C 31.0242 1.03412 5.24605 0
M  V30 362 C 32.3242 2.99478 4.27914 0
M  V30 363 H 34.0182 1.93708 2.28292 0
M  V30 364 H 31.5642 0.932761 1.09707 0
M  V30 365 H 33.5172 0.423332 4.19268 0
M  V30 366 H 32.2412 -0.379213 3.24391 0
M  V30 367 H 30.9002 1.75316 3.21963 0
M  V30 368 H 30.5482 0.063518 5.0296 0
M  V30 369 H 30.2482 1.71754 5.61938 0
M  V30 370 H 31.7722 0.886066 6.04137 0
M  V30 371 H 33.1862 2.88153 4.95622 0
M  V30 372 H 31.5832 3.64903 4.76409 0
M  V30 373 H 32.6532 3.49742 3.3587 0
M  V30 374 N 33.9963 -1.19345 1.0293 0
M  V30 375 C 35.2423 -1.89585 0.736824 0
M  V30 376 C 35.5973 -1.78148 -0.726703 0
M  V30 377 O 34.8903 -1.16332 -1.52242 0
M  V30 378 C 35.0843 -3.39292 1.12319 0
M  V30 379 C 34.9133 -3.65298 2.62273 0
M  V30 380 C 33.6833 -3.83304 3.29251 0
M  V30 381 C 35.8813 -3.6682 3.60482 0
M  V30 382 N 33.8633 -3.96944 4.68304 0
M  V30 383 C 35.2343 -3.86037 4.85155 0
M  V30 384 C 37.2893 -3.49848 3.54275 0
M  V30 385 C 35.9923 -3.9004 6.04369 0
M  V30 386 C 38.0183 -3.55129 4.72903 0
M  V30 387 C 37.3803 -3.74831 5.9639 0
M  V30 388 H 33.4793 -0.712856 0.321497 0
M  V30 389 H 36.0633 -1.43427 1.31669 0
M  V30 390 H 34.2343 -3.84172 0.571524 0
M  V30 391 H 35.9663 -3.97055 0.78292 0
M  V30 392 H 32.7213 -3.82211 2.79663 0
M  V30 393 H 33.1453 -4.07613 5.40538 0
M  V30 394 H 37.7873 -3.33572 2.59788 0
M  V30 395 H 35.5053 -4.05108 6.99223 0
M  V30 396 H 39.0913 -3.43287 4.69729 0
M  V30 397 H 37.9713 -3.78792 6.86649 0
M  V30 398 N 35.4744 -0.807222 -1.35358 0
M  V30 399 C 36.7204 -0.388463 -1.99045 0
M  V30 400 C 37.0534 1.04184 -1.63888 0
M  V30 401 O 36.3284 1.72292 -0.902535 0
M  V30 402 C 36.6114 -0.572783 -3.55515 0
M  V30 403 C 36.4644 -2.04807 -4.00468 0
M  V30 404 C 37.7834 0.00114064 -4.401 0
M  V30 405 H 34.9024 -0.142619 -0.723069 0
M  V30 406 H 37.5444 -1.01687 -1.60498 0
M  V30 407 H 35.6944 -0.0378425 -3.88482 0
M  V30 408 H 37.3664 -2.64544 -3.77908 0
M  V30 409 H 35.6094 -2.54427 -3.51353 0
M  V30 410 H 36.2804 -2.12792 -5.09337 0
M  V30 411 H 38.7564 -0.455716 -4.13597 0
M  V30 412 H 37.6324 -0.157737 -5.48673 0
M  V30 413 H 37.8934 1.09488 -4.28328 0
M  V30 414 N 36.9525 1.47285 -0.560781 0
M  V30 415 C 38.3635 1.86258 -0.128343 0
M  V30 416 C 38.7145 1.46699 1.30284 0
M  V30 417 O 37.8395 0.871698 1.98067 0
M  V30 418 C 38.4345 3.38044 -0.22614 0
M  V30 419 C 36.9935 3.76096 0.151283 0
M  V30 420 C 36.1405 2.71335 -0.572084 0
M  V30 421 H 39.0915 1.38752 -0.770297 0
M  V30 422 H 39.1125 3.76441 0.554322 0
M  V30 423 H 38.6245 3.66806 -1.26788 0
M  V30 424 H 36.7255 3.52951 1.19399 0
M  V30 425 H 36.8385 4.78641 -0.209765 0
M  V30 426 H 35.2025 2.54696 -0.0147653 0
M  V30 427 H 35.9855 3.02938 -1.61504 0
M  V30 428 N 38.4306 0.297415 1.54768 0
M  V30 429 C 39.3786 -0.596051 2.24833 0
M  V30 430 C 40.3726 -1.13992 1.25308 0
M  V30 431 O 41.5786 -1.09098 1.4317 0
M  V30 432 H 37.9536 -0.210814 0.721846 0
M  V30 433 H 39.9246 0.0174667 2.98395 0
M  V30 434 C 38.6736 -1.75818 2.99972 0
M  V30 435 H 37.9966 -1.3489 3.76357 0
M  V30 436 H 39.4366 -2.35949 3.52284 0
M  V30 437 C 37.8956 -2.66014 2.06732 0
M  V30 438 O 38.4256 -3.67009 1.63302 0
M  V30 439 N 36.6316 -2.33669 1.72763 0
M  V30 440 H 36.1786 -1.51586 2.08277 0
M  V30 441 H 36.1366 -2.94285 1.10652 0
M  V30 442 N 39.9087 -1.5758 0.0250728 0
M  V30 443 C 41.1367 -1.9593 -0.664747 0
M  V30 444 C 41.5517 -0.901352 -1.65895 0
M  V30 445 O 40.9087 0.117255 -1.82123 0
M  V30 446 C 40.9597 -3.34342 -1.37468 0
M  V30 447 O 40.6807 -4.36079 -0.420324 0
M  V30 448 C 42.1817 -3.873 -2.1567 0
M  V30 449 H 39.4017 -0.645405 -0.183557 0
M  V30 450 H 41.9457 -2.04329 0.0836372 0
M  V30 451 H 40.1007 -3.27175 -2.0745 0
M  V30 452 H 40.5147 -5.16297 -0.923991 0
M  V30 453 H 41.9887 -4.86504 -2.60803 0
M  V30 454 H 42.4657 -3.21331 -2.99405 0
M  V30 455 H 43.0717 -3.97723 -1.50654 0
M  V30 456 N 41.3868 0.248026 -1.55636 0
M  V30 457 C 42.6638 0.998988 -1.68165 0
M  V30 458 C 43.0438 2.03409 -0.564621 0
M  V30 459 O 42.3918 2.24378 0.432076 0
M  V30 460 C 42.6018 1.63334 -3.0842 0
M  V30 461 C 43.9498 2.13562 -3.66983 0
M  V30 462 O 44.9738 1.73277 -3.11213 0
M  V30 463 O 43.8328 2.87526 -4.64749 0
M  V30 464 H 40.9268 0.464933 -0.683935 0
M  V30 465 H 43.4728 0.241902 -1.67967 0
M  V30 466 H 42.2448 0.884583 -3.8117 0
M  V30 467 H 41.8678 2.45666 -3.12624 0
M  V30 468 N 42.8649 1.48995 0.513639 0
M  V30 469 C 44.1119 1.57843 1.26854 0
M  V30 470 C 44.4399 0.259501 1.92761 0
M  V30 471 O 43.6949 -0.75159 1.80692 0
M  V30 472 C 43.9939 2.67756 2.36731 0
M  V30 473 C 43.6599 4.09669 1.88368 0
M  V30 474 C 42.3219 4.48291 1.74896 0
M  V30 475 C 44.6739 4.98537 1.52021 0
M  V30 476 C 42.0019 5.73568 1.23438 0
M  V30 477 C 44.3539 6.24319 1.0202 0
M  V30 478 C 43.0179 6.61783 0.871778 0
M  V30 479 H 42.2879 0.577587 0.464192 0
M  V30 480 H 44.9349 1.82778 0.571366 0
M  V30 481 H 43.2399 2.36743 3.12185 0
M  V30 482 H 44.9369 2.71813 2.9482 0
M  V30 483 H 41.5269 3.79176 1.99808 0
M  V30 484 H 45.7109 4.69363 1.61281 0
M  V30 485 H 40.9669 6.01304 1.10648 0
M  V30 486 H 45.1409 6.92566 0.729722 0
M  V30 487 H 42.7679 7.5874 0.470852 0
M  V30 488 N 44.343 -0.763751 1.37857 0
M  V30 489 C 45.62 -1.51244 1.24035 0
M  V30 490 C 46 -2.10472 -0.162649 0
M  V30 491 O 45.348 -1.96206 -1.17112 0
M  V30 492 C 45.558 -2.58694 2.34261 0
M  V30 493 C 46.906 -3.25878 2.72193 0
M  V30 494 O 47.93 -2.68993 2.33497 0
M  V30 495 O 46.789 -4.2874 3.38887 0
M  V30 496 H 43.883 -0.670243 0.484462 0
M  V30 497 H 46.429 -0.800031 1.49658 0
M  V30 498 H 45.201 -2.13105 3.2818 0
M  V30 499 H 44.824 -3.37527 2.10146 0
M  V30 500 N 45.8211 -1.22559 -0.990812 0
M  V30 501 C 47.0671 -1.05297 -1.73322 0
M  V30 502 C 47.4001 0.410655 -1.89808 0
M  V30 503 O 46.6751 1.30439 -1.44277 0
M  V30 504 C 46.9581 -1.76713 -3.13759 0
M  V30 505 C 46.8111 -3.30684 -3.04907 0
M  V30 506 C 48.1301 -1.52121 -4.12974 0
M  V30 507 H 45.2491 -0.38392 -0.629106 0
M  V30 508 H 47.8911 -1.50926 -1.15418 0
M  V30 509 H 46.0411 -1.37924 -3.63193 0
M  V30 510 H 47.7131 -3.7893 -2.63077 0
M  V30 511 H 45.9561 -3.60253 -2.41661 0
M  V30 512 H 46.6271 -3.75833 -4.04294 0
M  V30 513 H 49.1031 -1.85819 -3.72304 0
M  V30 514 H 47.9791 -2.04582 -5.0935 0
M  V30 515 H 48.2401 -0.454257 -4.3976 0
M  V30 516 N 47.2992 1.18797 -1.03562 0
M  V30 517 C 48.2622 2.20464 -0.626769 0
M  V30 518 C 49.2622 1.57721 0.313173 0
M  V30 519 O 50.4522 1.73917 0.0992615 0
M  V30 520 C 47.5842 3.40802 0.0818498 0
M  V30 521 H 48.7772 2.58149 -1.5264 0
M  V30 522 H 46.3302 1.32593 -0.827578 0
M  V30 523 H 47.0652 3.08642 0.995518 0
M  V30 524 H 46.8502 3.8758 -0.593652 0
M  V30 525 H 48.3402 4.16092 0.354584 0
M  V30 526 N 48.7773 0.814389 1.34928 0
M  V30 527 C 49.7403 0.235759 2.27984 0
M  V30 528 C 50.7403 -0.581412 1.49921 0
M  V30 529 O 51.9303 -0.398758 1.69575 0
M  V30 530 C 49.0623 -0.670433 3.34242 0
M  V30 531 H 50.2553 1.05659 2.80671 0
M  V30 532 H 47.8083 0.585614 1.44915 0
M  V30 533 H 48.5433 -1.51466 2.86755 0
M  V30 534 H 48.3283 -0.0860822 3.92005 0
M  V30 535 H 49.8183 -1.06935 4.03676 0
M  V30 536 N 50.2554 -1.46986 0.568584 0
M  V30 537 C 51.2034 -2.31858 -0.185649 0
M  V30 538 C 52.1974 -1.43624 -0.898249 0
M  V30 539 O 53.4034 -1.60327 -0.818242 0
M  V30 540 H 49.7784 -0.747866 -0.0787399 0
M  V30 541 H 51.7494 -2.93303 0.549191 0
M  V30 542 C 50.4984 -3.26513 -1.19519 0
M  V30 543 H 49.8214 -3.94377 -0.656285 0
M  V30 544 H 51.2614 -3.88707 -1.6936 0
M  V30 545 C 49.7204 -2.50847 -2.24894 0
M  V30 546 O 50.2504 -2.26119 -3.32014 0
M  V30 547 N 48.4564 -2.11656 -1.99124 0
M  V30 548 H 48.0034 -2.31966 -1.12024 0
M  V30 549 H 47.9614 -1.61347 -2.69842 0
M  V30 550 N 51.7335 -0.305618 -1.54608 0
M  V30 551 C 52.9795 0.295595 -2.01241 0
M  V30 552 C 53.3345 1.51171 -1.19018 0
M  V30 553 O 52.6275 1.89832 -0.259684 0
M  V30 554 C 52.8215 0.698983 -3.50498 0
M  V30 555 C 52.6505 -0.476491 -4.47168 0
M  V30 556 C 51.4205 -0.969963 -4.95903 0
M  V30 557 C 53.6185 -1.32294 -4.96994 0
M  V30 558 N 51.6005 -2.11172 -5.76437 0
M  V30 559 C 52.9715 -2.31212 -5.75275 0
M  V30 560 C 55.0265 -1.35278 -4.7917 0
M  V30 561 C 53.7295 -3.32896 -6.37631 0
M  V30 562 C 55.7555 -2.35823 -5.42348 0
M  V30 563 C 55.1175 -3.33469 -6.20466 0
M  V30 564 H 51.2165 0.0724992 -0.778632 0
M  V30 565 H 53.8005 -0.436583 -1.89742 0
M  V30 566 H 51.9715 1.40032 -3.62278 0
M  V30 567 H 53.7035 1.28013 -3.8392 0
M  V30 568 H 50.4585 -0.544178 -4.70463 0
M  V30 569 H 50.8825 -2.68714 -6.21387 0
M  V30 570 H 55.5245 -0.61157 -4.18354 0
M  V30 571 H 53.2425 -4.07933 -6.97579 0
M  V30 572 H 56.8285 -2.38911 -5.30484 0
M  V30 573 H 55.7085 -4.09996 -6.68485 0
M  V30 574 N 53.2116 1.57565 -0.0334293 0
M  V30 575 C 54.4366 1.96689 0.657895 0
M  V30 576 C 54.8616 0.910057 1.64619 0
M  V30 577 O 54.2196 -0.128598 1.80843 0
M  V30 578 C 54.2676 3.34905 1.33683 0
M  V30 579 O 53.3716 3.31574 2.45219 0
M  V30 580 H 52.7126 0.641205 0.172489 0
M  V30 581 H 55.2426 2.04372 -0.0965621 0
M  V30 582 H 55.2526 3.71234 1.69262 0
M  V30 583 H 53.9276 4.11366 0.612411 0
M  V30 584 H 52.5046 3.06968 2.11719 0
M  V30 585 N 54.6897 -0.239769 1.55765 0
M  V30 586 C 55.6217 -1.32001 1.87372 0
M  V30 587 C 56.6347 -1.43944 0.760522 0
M  V30 588 O 57.8237 -1.45167 1.0387 0
M  V30 589 C 54.9237 -2.69779 2.05115 0
M  V30 590 C 54.0967 -2.80014 3.36022 0
M  V30 591 C 53.1557 -3.98684 3.4342 0
M  V30 592 O 52.1817 -3.87877 4.16582 0
M  V30 593 N 53.3837 -5.12176 2.73232 0
M  V30 594 H 56.1487 -1.0522 2.80622 0
M  V30 595 H 53.7097 -0.429857 1.56089 0
M  V30 596 H 55.7017 -3.47517 2.07399 0
M  V30 597 H 54.2717 -2.89237 1.18577 0
M  V30 598 H 53.4917 -1.88896 3.45994 0
M  V30 599 H 54.7797 -2.83808 4.22292 0
M  V30 600 H 54.1777 -5.2385 2.13536 0
M  V30 601 H 52.7347 -5.88022 2.81199 0
M  V30 602 N 56.1678 -1.49265 -0.50573 0
M  V30 603 C 57.1158 -1.66065 -1.62866 0
M  V30 604 C 58.1098 -0.526636 -1.61006 0
M  V30 605 O 59.3158 -0.706126 -1.65571 0
M  V30 606 H 55.6908 -0.52356 -0.539805 0
M  V30 607 H 57.6618 -2.60329 -1.45848 0
M  V30 608 C 56.4108 -1.74008 -3.01026 0
M  V30 609 H 55.7338 -2.6064 -3.03161 0
M  V30 610 H 57.1738 -1.89798 -3.79147 0
M  V30 611 C 55.6328 -0.483868 -3.33407 0
M  V30 612 O 56.1628 0.392548 -3.99777 0
M  V30 613 N 54.3688 -0.348236 -2.88506 0
M  V30 614 H 53.9158 -1.06242 -2.34671 0
M  V30 615 H 53.8738 0.491204 -3.10539 0
M  V30 616 N 57.6459 0.756429 -1.3826 0
M  V30 617 C 59.0619 1.0591 -1.19395 0
M  V30 618 C 59.2619 2.01459 -0.0406567 0
M  V30 619 O 58.3179 2.44909 0.614467 0
M  V30 620 C 59.6309 1.64191 -2.51916 0
M  V30 621 C 61.1789 1.76376 -2.58574 0
M  V30 622 C 61.6539 2.38069 -3.91264 0
M  V30 623 N 63.1449 2.45503 -3.92788 0
M  V30 624 C 63.8799 2.94126 -4.92217 0
M  V30 625 N 63.3759 3.42805 -6.02043 0
M  V30 626 N 65.1689 2.9314 -4.7961 0
M  V30 627 H 57.3199 0.122313 -2.12048 0
M  V30 628 H 59.5829 0.116892 -0.940766 0
M  V30 629 H 59.2889 1.01451 -3.3675 0
M  V30 630 H 59.1629 2.6329 -2.70108 0
M  V30 631 H 61.5499 2.38244 -1.74137 0
M  V30 632 H 61.6309 0.759894 -2.44252 0
M  V30 633 H 61.2749 1.76835 -4.76121 0
M  V30 634 H 61.2049 3.39091 -4.02895 0
M  V30 635 H 63.6959 2.1107 -3.13461 0
M  V30 636 H 64.0089 3.78354 -6.73846 0
M  V30 637 H 62.3539 3.4087 -6.05667 0
M  V30 638 H 65.5449 2.54419 -3.92923 0
M  V30 639 H 65.7179 3.30721 -5.5725 0
M  V30 640 N 59.124 1.23083 0.984299 0
M  V30 641 C 60.352 1.08714 1.76037 0
M  V30 642 C 60.767 -0.361691 1.85303 0
M  V30 643 O 60.124 -1.25034 1.32939 0
M  V30 644 C 60.175 1.70206 3.18923 0
M  V30 645 O 59.896 3.09423 3.10144 0
M  V30 646 C 61.397 1.61227 4.12941 0
M  V30 647 H 58.617 0.380664 0.552572 0
M  V30 648 H 61.161 1.62853 1.23689 0
M  V30 649 H 59.316 1.20109 3.6831 0
M  V30 650 H 59.73 3.39188 4.00065 0
M  V30 651 H 61.204 2.08962 5.10919 0
M  V30 652 H 61.681 0.570375 4.35481 0
M  V30 653 H 62.287 2.10671 3.69456 0
M  V30 654 N 60.6021 -1.18246 1.0419 0
M  V30 655 C 62.0131 -1.69914 0.773698 0
M  V30 656 C 62.3641 -1.83085 -0.705297 0
M  V30 657 O 61.4891 -1.51123 -1.5489 0
M  V30 658 C 62.0841 -3.08619 1.39784 0
M  V30 659 C 60.6431 -3.57494 1.17792 0
M  V30 660 C 59.7901 -2.34013 1.48773 0
M  V30 661 H 62.7411 -1.02904 1.20816 0
M  V30 662 H 62.7621 -3.71958 0.801714 0
M  V30 663 H 62.2741 -2.99001 2.47426 0
M  V30 664 H 60.3751 -3.72406 0.120295 0
M  V30 665 H 60.4881 -4.40852 1.87581 0
M  V30 666 H 58.8521 -2.37986 0.907463 0
M  V30 667 H 59.6351 -2.27013 2.57527 0
M  V30 668 N 62.0802 -0.821533 -1.34494 0
M  V30 669 C 63.3202 -0.414785 -2.00147 0
M  V30 670 C 63.6842 1.00299 -1.6372 0
M  V30 671 O 64.8852 1.51255 -2.22206 0
M  V30 672 C 63.1562 -0.609403 -3.52166 0
M  V30 673 S 64.7152 -0.295297 -4.37805 0
M  V30 674 H 61.5332 -0.15679 -0.693497 0
M  V30 675 H 64.1352 -1.06705 -1.63812 0
M  V30 676 H 62.8392 -1.64096 -3.76166 0
M  V30 677 H 62.3702 0.0576414 -3.93358 0
M  V30 678 H 64.3852 0.891531 -4.88125 0
M  V30 679 N 63.5583 1.46682 -0.576371 0
M  V30 680 C 64.5213 2.28707 0.150239 0
M  V30 681 C 65.5213 1.38035 0.824794 0
M  V30 682 O 66.7113 1.60476 0.677719 0
M  V30 683 C 63.8433 3.18248 1.22192 0
M  V30 684 H 65.0363 2.94423 -0.570521 0
M  V30 685 H 62.5893 1.52688 -0.334078 0
M  V30 686 H 63.3243 2.57265 1.97447 0
M  V30 687 H 63.1093 3.85 0.742812 0
M  V30 688 H 64.5993 3.80001 1.73172 0
M  V30 689 N 65.0364 0.313813 1.54444 0
M  V30 690 C 66.2844 -0.291099 1.99993 0
M  V30 691 C 66.6054 -1.53418 1.20366 0
M  V30 692 O 65.8754 -1.93544 0.302927 0
M  V30 693 H 64.4554 -0.110552 0.738774 0
M  V30 694 H 67.1174 0.428106 1.9014 0
M  V30 695 H 66.2134 -0.554268 3.07139 0
M  V30 696 N 66.5145 -1.57545 0.0417849 0
M  V30 697 C 67.7625 -1.91937 -0.632829 0
M  V30 698 C 68.0835 -0.919978 -1.71934 0
M  V30 699 O 67.3535 0.0366064 -1.95866 0
M  V30 700 H 65.9335 -0.708493 -0.236742 0
M  V30 701 H 68.5955 -1.9468 0.0925745 0
M  V30 702 H 67.6915 -2.92912 -1.07746 0
M  V30 703 N 67.9926 0.231505 -1.5589 0
M  V30 704 C 68.9556 1.27028 -1.90779 0
M  V30 705 C 69.9556 1.40308 -0.785507 0
M  V30 706 O 71.1456 1.38744 -1.05336 0
M  V30 707 C 68.2776 2.64566 -2.14983 0
M  V30 708 H 69.4706 0.973017 -2.83677 0
M  V30 709 H 67.0236 0.471486 -1.49019 0
M  V30 710 H 67.7586 2.99406 -1.24604 0
M  V30 711 H 67.5436 2.56305 -2.96732 0
M  V30 712 H 69.0336 3.39543 -2.43105 0
M  V30 713 N 69.4707 1.49531 0.497807 0
M  V30 714 C 70.7167 1.59415 1.25358 0
M  V30 715 C 71.0497 0.281422 1.9215 0
M  V30 716 O 70.3247 -0.715249 1.80871 0
M  V30 717 C 70.6077 2.75566 2.3181 0
M  V30 718 C 70.4607 4.16642 1.69498 0
M  V30 719 C 71.7797 2.87347 3.33346 0
M  V30 720 H 68.8987 0.580244 0.454408 0
M  V30 721 H 71.5407 1.81827 0.551262 0
M  V30 722 H 69.6907 2.56587 2.91711 0
M  V30 723 H 71.3627 4.47145 1.13399 0
M  V30 724 H 69.6057 4.22141 0.998978 0
M  V30 725 H 70.2767 4.93792 2.46725 0
M  V30 726 H 72.7527 3.04634 2.83438 0
M  V30 727 H 71.6287 3.70289 4.05188 0
M  V30 728 H 71.8897 1.96834 3.95865 0
M  V30 729 N 70.9488 -0.749086 1.3866 0
M  V30 730 C 71.8588 -1.89358 1.38494 0
M  V30 731 C 72.8748 -1.71708 0.281476 0
M  V30 732 O 74.0508 -1.94554 0.520643 0
M  V30 733 C 71.1158 -3.24782 1.21316 0
M  V30 734 C 70.1768 -3.54926 2.41508 0
M  V30 735 C 69.4098 -4.83888 2.2514 0
M  V30 736 O 69.6328 -5.56592 1.24746 0
M  V30 737 O 68.5668 -5.13612 3.13826 0
M  V30 738 H 72.3928 -1.92452 2.34938 0
M  V30 739 H 69.9778 -0.894981 1.19626 0
M  V30 740 H 71.8598 -4.05739 1.13814 0
M  V30 741 H 70.5348 -3.2249 0.279592 0
M  V30 742 H 69.4418 -2.74112 2.54585 0
M  V30 743 H 70.7748 -3.61983 3.3351 0
M  V30 744 N 72.4269 -1.23603 -0.977757 0
M  V30 745 C 73.6739 -1.06971 -1.71941 0
M  V30 746 C 74.0019 0.393009 -1.90488 0
M  V30 747 O 73.2569 1.30719 -1.4564 0
M  V30 748 C 73.5559 -1.7433 -3.11999 0
M  V30 749 C 73.2219 -3.24252 -3.13323 0
M  V30 750 C 71.8839 -3.65156 -3.13392 0
M  V30 751 C 74.2359 -4.20141 -3.08433 0
M  V30 752 C 71.5639 -5.00403 -3.0629 0
M  V30 753 C 73.9159 -5.55384 -3.02873 0
M  V30 754 C 72.5799 -5.95647 -3.01265 0
M  V30 755 H 71.8499 -0.391433 -0.629175 0
M  V30 756 H 74.4969 -1.53572 -1.14403 0
M  V30 757 H 72.8019 -1.20096 -3.7294 0
M  V30 758 H 74.4989 -1.58936 -3.68158 0
M  V30 759 H 71.0889 -2.91692 -3.14029 0
M  V30 760 H 75.2729 -3.89547 -3.07517 0
M  V30 761 H 70.5289 -5.3081 -3.03399 0
M  V30 762 H 74.7029 -6.29398 -2.98046 0
M  V30 763 H 72.3299 -7.0041 -2.95516 0
M  V30 764 N 73.905 1.17692 -1.04816 0
M  V30 765 C 75.316 1.69501 -0.782698 0
M  V30 766 C 75.667 1.83456 0.695577 0
M  V30 767 O 74.792 1.51942 1.54086 0
M  V30 768 C 75.387 3.07874 -1.41419 0
M  V30 769 C 73.946 3.56864 -1.19686 0
M  V30 770 C 73.093 2.3322 -1.50012 0
M  V30 771 H 76.044 1.02262 -1.2136 0
M  V30 772 H 76.065 3.71528 -0.821428 0
M  V30 773 H 75.577 2.97685 -2.49009 0
M  V30 774 H 73.678 3.72337 -0.140043 0
M  V30 775 H 73.791 4.39851 -1.89916 0
M  V30 776 H 72.155 2.37501 -0.920071 0
M  V30 777 H 72.938 2.25644 -2.58727 0
M  V30 778 N 75.3831 0.828654 1.34056 0
M  V30 779 C 76.3461 0.259927 2.27721 0
M  V30 780 C 77.3461 -0.565478 1.50529 0
M  V30 781 O 78.5361 -0.38075 1.69988 0
M  V30 782 C 75.6681 -0.634944 3.34935 0
M  V30 783 H 76.8611 1.0863 2.79534 0
M  V30 784 H 74.4141 0.600951 1.44285 0
M  V30 785 H 75.1491 -1.48416 2.88346 0
M  V30 786 H 74.9341 -0.0444999 3.92075 0
M  V30 787 H 76.4241 -1.02648 4.04788 0
M  V30 788 N 76.8612 -1.46375 0.584142 0
M  V30 789 C 78.1382 -1.956 0.0033388 0
M  V30 790 C 78.5182 -1.52679 -1.45782 0
M  V30 791 O 77.8662 -0.77816 -2.14842 0
M  V30 792 C 78.0762 -3.48551 0.176891 0
M  V30 793 C 79.4242 -4.24576 0.0454609 0
M  V30 794 O 80.4482 -3.56043 0.105801 0
M  V30 795 O 79.3072 -5.46427 -0.0890376 0
M  V30 796 H 76.4012 -0.825547 -0.0490066 0
M  V30 797 H 78.9472 -1.56652 0.65256 0
M  V30 798 H 77.7192 -3.72683 1.1926 0
M  V30 799 H 77.3422 -3.94332 -0.508695 0
M  V30 800 N 78.3393 -0.321999 -1.54275 0
M  V30 801 C 79.2863 0.544664 -2.24281 0
M  V30 802 C 80.2563 1.1129 -1.23303 0
M  V30 803 O 81.4413 1.15354 -1.51981 0
M  V30 804 C 78.5813 1.70045 -3.00298 0
M  V30 805 C 77.6943 1.16159 -4.1609 0
M  V30 806 C 76.8293 2.28293 -4.79641 0
M  V30 807 C 75.8683 1.71648 -5.8754 0
M  V30 808 N 75.0053 2.77438 -6.44959 0
M  V30 809 H 79.8453 -0.0588907 -2.97942 0
M  V30 810 H 77.3823 -0.0408345 -1.47043 0
M  V30 811 H 79.3403 2.38054 -3.42616 0
M  V30 812 H 77.9703 2.27531 -2.28975 0
M  V30 813 H 77.0223 0.373092 -3.78566 0
M  V30 814 H 78.3343 0.707087 -4.93763 0
M  V30 815 H 77.4883 3.0421 -5.2492 0
M  V30 816 H 76.2273 2.77079 -4.01346 0
M  V30 817 H 75.2323 0.942282 -5.41665 0
M  V30 818 H 76.4573 1.23741 -6.67731 0
M  V30 819 H 74.4033 3.25519 -5.69538 0
M  V30 820 H 74.3203 2.36547 -7.1804 0
M  V30 821 H 75.5883 3.53189 -6.94894 0
M  V30 822 N 79.8174 1.5752 -0.0501392 0
M  V30 823 C 80.7504 2.07026 0.959962 0
M  V30 824 C 81.7284 0.970539 1.30458 0
M  V30 825 O 82.9124 1.2424 1.41763 0
M  V30 826 C 80.0394 2.5099 2.27424 0
M  V30 827 C 79.0854 3.72188 2.08275 0
M  V30 828 S 79.9184 5.17888 1.36207 0
M  V30 829 C 81.0744 5.65165 2.6896 0
M  V30 830 H 81.3074 2.9238 0.538631 0
M  V30 831 H 78.8404 1.53547 0.162099 0
M  V30 832 H 80.7984 2.76982 3.02971 0
M  V30 833 H 79.4594 1.65944 2.66686 0
M  V30 834 H 78.6524 4.00866 3.05487 0
M  V30 835 H 78.2544 3.46457 1.40868 0
M  V30 836 H 80.5464 5.70687 3.65133 0
M  V30 837 H 81.4894 6.64394 2.4492 0
M  V30 838 H 81.8974 4.9289 2.75172 0
M  V30 839 N 81.2955 -0.223234 1.56011 0
M  V30 840 C 82.5415 -0.949279 1.79211 0
M  V30 841 C 82.8745 -1.84054 0.619494 0
M  V30 842 O 82.1495 -1.90726 -0.381317 0
M  V30 843 C 82.4325 -1.78965 3.12479 0
M  V30 844 C 82.2855 -0.924997 4.40186 0
M  V30 845 C 83.6045 -2.76774 3.42175 0
M  V30 846 H 80.7235 -0.343676 0.651963 0
M  V30 847 H 83.3655 -0.218253 1.88742 0
M  V30 848 H 81.5155 -2.41291 3.04485 0
M  V30 849 H 83.1875 -0.318615 4.60198 0
M  V30 850 H 81.4305 -0.230344 4.33188 0
M  V30 851 H 82.1015 -1.54735 5.29869 0
M  V30 852 H 84.5775 -2.24584 3.50287 0
M  V30 853 H 83.4535 -3.32678 4.36597 0
M  V30 854 H 83.7145 -3.54429 2.64258 0
M  V30 855 N 82.7736 -1.49793 -0.48987 0
M  V30 856 C 83.9986 -1.63836 -1.27172 0
M  V30 857 C 84.4236 -0.31402 -1.8546 0
M  V30 858 O 83.7816 0.719803 -1.66399 0
M  V30 859 C 83.8296 -2.71797 -2.36978 0
M  V30 860 O 82.9336 -2.31744 -3.41128 0
M  V30 861 H 82.2746 -0.547997 -0.37496 0
M  V30 862 H 84.8046 -1.96053 -0.585191 0
M  V30 863 H 84.8146 -2.94305 -2.82575 0
M  V30 864 H 83.4896 -3.67923 -1.93921 0
M  V30 865 H 82.0666 -2.1961 -3.01373 0
M  V30 866 N 84.2517 0.741722 -1.39055 0
M  V30 867 C 85.4977 1.50336 -1.36113 0
M  V30 868 C 85.8307 1.94148 0.0450796 0
M  V30 869 O 85.1057 1.66301 1.00868 0
M  V30 870 C 85.3887 2.74773 -2.32749 0
M  V30 871 C 85.2417 2.37023 -3.82283 0
M  V30 872 C 86.5607 3.76846 -2.27322 0
M  V30 873 H 83.6797 0.545351 -0.495743 0
M  V30 874 H 86.3217 0.848624 -1.69995 0
M  V30 875 H 84.4717 3.30639 -2.03986 0
M  V30 876 H 86.1437 1.8684 -4.21768 0
M  V30 877 H 84.3867 1.69334 -3.99385 0
M  V30 878 H 85.0577 3.26104 -4.45376 0
M  V30 879 H 87.5337 3.30548 -2.5274 0
M  V30 880 H 86.4097 4.6159 -2.97028 0
M  V30 881 H 86.6707 4.23286 -1.27599 0
M  V30 882 N 85.7298 1.2412 0.971189 0
M  V30 883 C 86.6598 1.05508 2.08304 0
M  V30 884 C 87.6408 -0.0308864 1.70072 0
M  V30 885 O 88.8258 0.135521 1.93727 0
M  V30 886 C 85.9558 0.655365 3.4106 0
M  V30 887 C 84.9098 1.68971 3.93234 0
M  V30 888 C 84.2358 1.14516 5.22293 0
M  V30 889 C 85.5358 3.08487 4.21465 0
M  V30 890 H 87.2298 1.98507 2.24132 0
M  V30 891 H 84.7758 0.955821 1.07704 0
M  V30 892 H 86.7288 0.51217 4.18276 0
M  V30 893 H 85.4528 -0.31032 3.25122 0
M  V30 894 H 84.1118 1.82106 3.18171 0
M  V30 895 H 83.7598 0.170189 5.02712 0
M  V30 896 H 83.4598 1.83635 5.58168 0
M  V30 897 H 84.9838 1.01401 6.02121 0
M  V30 898 H 86.3978 2.98601 4.89398 0
M  V30 899 H 84.7948 3.74926 4.68562 0
M  V30 900 H 85.8648 3.56787 3.28376 0
M  V30 901 N 87.2079 -1.17134 1.05439 0
M  V30 902 C 88.4539 -1.87733 0.767077 0
M  V30 903 C 88.7869 -1.8098 -0.704253 0
M  V30 904 O 88.0619 -1.21951 -1.5152 0
M  V30 905 C 88.3449 -3.37659 1.25133 0
M  V30 906 C 88.1979 -3.53149 2.78578 0
M  V30 907 C 89.5169 -4.31768 0.852324 0
M  V30 908 H 86.6359 -0.681687 0.280129 0
M  V30 909 H 89.2779 -1.37732 1.30881 0
M  V30 910 H 87.4279 -3.80373 0.790469 0
M  V30 911 H 89.0999 -3.19434 3.32806 0
M  V30 912 H 87.3429 -2.95345 3.17732 0
M  V30 913 H 88.0139 -4.58403 3.07523 0
M  V30 914 H 90.4899 -3.96909 1.24911 0
M  V30 915 H 89.3659 -5.35199 1.21873 0
M  V30 916 H 89.6269 -4.41429 -0.243485 0
M  V30 917 N 88.686 -0.835752 -1.33615 0
M  V30 918 C 89.618 -0.224151 -2.28101 0
M  V30 919 C 90.631 0.593331 -1.51603 0
M  V30 920 O 91.82 0.420911 -1.73466 0
M  V30 921 C 88.92 0.703309 -3.31522 0
M  V30 922 C 88.093 -0.0741528 -4.37337 0
M  V30 923 C 87.152 0.776176 -5.20444 0
M  V30 924 O 86.178 0.216506 -5.68788 0
M  V30 925 N 87.38 2.09401 -5.41416 0
M  V30 926 H 90.145 -1.03598 -2.81225 0
M  V30 927 H 87.706 -0.69392 -1.46275 0
M  V30 928 H 89.698 1.27707 -3.84022 0
M  V30 929 H 88.268 1.41585 -2.78698 0
M  V30 930 H 87.488 -0.82928 -3.85378 0
M  V30 931 H 88.776 -0.608863 -5.05144 0
M  V30 932 H 88.174 2.57229 -5.03835 0
M  V30 933 H 86.731 2.61633 -5.96985 0
M  V30 934 N 90.1641 1.46063 -0.591896 0
M  V30 935 C 91.0741 2.34192 0.13831 0
M  V30 936 C 92.0901 1.50305 0.876608 0
M  V30 937 O 93.2661 1.8315 0.837728 0
M  V30 938 C 90.3311 3.27656 1.13326 0
M  V30 939 C 89.3921 4.27445 0.39863 0
M  V30 940 C 88.6251 5.16443 1.34618 0
M  V30 941 O 88.8481 5.08553 2.58321 0
M  V30 942 O 87.7821 5.95843 0.851768 0
M  V30 943 H 91.6081 2.98002 -0.58552 0
M  V30 944 H 89.1931 1.45188 -0.352239 0
M  V30 945 H 91.0751 3.85291 1.70671 0
M  V30 946 H 89.7501 2.6643 1.83839 0
M  V30 947 H 88.6571 3.73471 -0.216895 0
M  V30 948 H 89.9901 4.91482 -0.265709 0
M  V30 949 N 91.6422 0.330177 1.54103 0
M  V30 950 C 92.8902 -0.269871 2.0029 0
M  V30 951 C 93.2112 -1.52133 1.21986 0
M  V30 952 O 92.4812 -1.93212 0.323438 0
M  V30 953 H 91.0612 -0.10271 0.739905 0
M  V30 954 H 93.7232 0.448249 1.89675 0
M  V30 955 H 92.8192 -0.52166 3.07709 0
M  V30 956 N 93.1203 -1.57491 0.0584922 0
M  V30 957 C 94.0703 -2.08474 -0.923188 0
M  V30 958 C 95.0543 -0.991479 -1.26722 0
M  V30 959 O 96.2463 -1.25473 -1.24842 0
M  V30 960 C 93.3753 -2.6392 -2.19548 0
M  V30 961 C 92.4613 -3.80227 -1.87852 0
M  V30 962 N 92.8523 -4.89714 -1.26546 0
M  V30 963 C 91.1503 -3.89271 -2.17679 0
M  V30 964 C 91.8513 -5.70689 -1.12644 0
M  V30 965 N 90.8273 -5.18531 -1.63176 0
M  V30 966 H 94.6293 -2.90517 -0.444653 0
M  V30 967 H 92.1433 -1.61745 -0.145764 0
M  V30 968 H 94.1403 -2.98752 -2.9078 0
M  V30 969 H 92.8003 -1.83318 -2.68001 0
M  V30 970 H 93.8113 -5.09358 -0.936757 0
M  V30 971 H 90.4883 -3.19623 -2.68602 0
M  V30 972 H 91.8783 -6.6875 -0.6499 0
M  V30 973 N 94.5984 0.214957 -1.56127 0
M  V30 974 C 95.5614 1.24997 -1.92116 0
M  V30 975 C 96.5614 1.39467 -0.800344 0
M  V30 976 O 97.7514 1.37619 -1.06802 0
M  V30 977 C 94.8834 2.62271 -2.17777 0
M  V30 978 H 96.0764 0.942875 -2.84693 0
M  V30 979 H 93.6294 0.455654 -1.49511 0
M  V30 980 H 94.3644 2.98068 -1.27773 0
M  V30 981 H 94.1494 2.53143 -2.99434 0
M  V30 982 H 95.6394 3.36946 -2.46693 0
M  V30 983 N 96.0765 1.50051 0.48192 0
M  V30 984 C 97.3225 1.60736 1.2366 0
M  V30 985 C 97.6555 0.301786 1.91841 0
M  V30 986 O 96.9305 -0.696025 1.8162 0
M  V30 987 C 97.2135 2.78009 2.28874 0
M  V30 988 C 97.0665 4.18416 1.65069 0
M  V30 989 C 98.3855 2.90867 3.30279 0
M  V30 990 H 95.5045 0.585031 0.448228 0
M  V30 991 H 98.1465 1.82402 0.531946 0
M  V30 992 H 96.2965 2.59667 2.88973 0
M  V30 993 H 97.9685 4.48322 1.0865 0
M  V30 994 H 96.2115 4.23177 0.954148 0
M  V30 995 H 96.8825 4.96381 2.41474 0
M  V30 996 H 99.3585 3.07623 2.80191 0
M  V30 997 H 98.2345 3.74566 4.01238 0
M  V30 998 H 98.4955 2.01021 3.93755 0
M  V30 999 N 97.5546 -0.734337 1.39446 0
M  V30 1000 C 98.7796 -1.52866 1.40167 0
M  V30 1001 C 99.2046 -1.881 -0.00171513 0
M  V30 1002 O 98.5626 -1.51957 -0.988879 0
M  V30 1003 C 98.6106 -2.79235 2.28167 0
M  V30 1004 O 97.7146 -3.75185 1.71201 0
M  V30 1005 H 97.0556 -0.461618 0.477289 0
M  V30 1006 H 99.5856 -0.905949 1.8345 0
M  V30 1007 H 99.5956 -3.27963 2.42702 0
M  V30 1008 H 98.2706 -2.52923 3.30156 0
M  V30 1009 H 96.8476 -3.33958 1.65912 0
M  V30 1010 N 99.0327 -1.24633 -0.964593 0
M  V30 1011 C 100.31 -0.995809 -1.68354 0
M  V30 1012 C 100.69 0.480964 -2.05548 0
M  V30 1013 O 100.038 1.45599 -1.76105 0
M  V30 1014 C 100.248 -1.92177 -2.91323 0
M  V30 1015 C 101.596 -2.19446 -3.63495 0
M  V30 1016 O 102.62 -1.89855 -3.01386 0
M  V30 1017 O 101.479 -2.69714 -4.75307 0
M  V30 1018 H 98.5727 -0.376854 -0.736146 0
M  V30 1019 H 101.119 -1.35745 -1.0184 0
M  V30 1020 H 99.8907 -2.91938 -2.60553 0
M  V30 1021 H 99.5137 -1.56349 -3.65569 0
M  V30 1022 N 100.511 1.16574 -1.06058 0
M  V30 1023 C 101.444 2.19798 -0.61352 0
M  V30 1024 C 102.422 1.58509 0.362453 0
M  V30 1025 O 103.606 1.86527 0.271994 0
M  V30 1026 C 100.733 3.3855 0.100915 0
M  V30 1027 C 99.7788 4.18317 -0.831438 0
M  V30 1028 S 100.612 4.82375 -2.32539 0
M  V30 1029 C 101.768 6.04508 -1.62238 0
M  V30 1030 H 102.001 2.5738 -1.48805 0
M  V30 1031 H 99.5338 1.27327 -0.873338 0
M  V30 1032 H 101.492 4.07358 0.506898 0
M  V30 1033 H 100.153 2.99338 0.951604 0
M  V30 1034 H 99.3458 5.03232 -0.278071 0
M  V30 1035 H 98.9478 3.5499 -1.17719 0
M  V30 1036 H 101.24 6.71133 -0.926622 0
M  V30 1037 H 102.183 6.64389 -2.44934 0
M  V30 1038 H 102.591 5.53559 -1.106 0
M  V30 1039 N 101.989 0.842826 1.3317 0
M  V30 1040 C 102.919 0.294028 2.31641 0
M  V30 1041 C 103.9 -0.600401 1.59151 0
M  V30 1042 O 105.085 -0.523124 1.87022 0
M  V30 1043 C 102.215 -0.528416 3.43257 0
M  V30 1044 C 101.169 0.27056 4.27144 0
M  V30 1045 C 100.495 -0.675881 5.30411 0
M  V30 1046 C 101.795 1.48981 5.00602 0
M  V30 1047 H 103.489 1.11681 2.77791 0
M  V30 1048 H 101.035 0.538478 1.33553 0
M  V30 1049 H 102.988 -0.922674 4.11175 0
M  V30 1050 H 101.712 -1.38445 2.95805 0
M  V30 1051 H 100.371 0.646427 3.60856 0
M  V30 1052 H 100.019 -1.52842 4.79216 0
M  V30 1053 H 99.7189 -0.145374 5.8742 0
M  V30 1054 H 101.243 -1.06757 6.01195 0
M  V30 1055 H 102.657 1.16849 5.61266 0
M  V30 1056 H 101.054 1.95739 5.6728 0
M  V30 1057 H 102.124 2.25746 4.29147 0
M  V30 1058 N 103.467 -1.45747 0.599634 0
M  V30 1059 C 104.397 -2.33235 -0.111306 0
M  V30 1060 C 105.378 -1.46359 -0.866781 0
M  V30 1061 O 106.563 -1.75146 -0.838904 0
M  V30 1062 C 103.693 -3.28932 -1.11451 0
M  V30 1063 C 102.647 -4.25381 -0.472772 0
M  V30 1064 C 101.973 -5.1071 -1.58365 0
M  V30 1065 C 103.273 -5.18831 0.600948 0
M  V30 1066 H 104.967 -2.92927 0.61919 0
M  V30 1067 H 102.513 -1.40857 0.299215 0
M  V30 1068 H 104.466 -3.89002 -1.62036 0
M  V30 1069 H 103.19 -2.67381 -1.8755 0
M  V30 1070 H 101.849 -3.66598 0.0121472 0
M  V30 1071 H 101.497 -4.45533 -2.33473 0
M  V30 1072 H 101.197 -5.7604 -1.15982 0
M  V30 1073 H 102.721 -5.73647 -2.09194 0
M  V30 1074 H 104.135 -5.73019 0.179491 0
M  V30 1075 H 102.532 -5.92595 0.946076 0
M  V30 1076 H 103.602 -4.6174 1.48068 0
M  V30 1077 N 104.945 -0.338344 -1.53925 0
M  V30 1078 C 106.356 0.146651 -1.86123 0
M  V30 1079 C 106.707 1.5042 -1.2597 0
M  V30 1080 O 105.832 2.08723 -0.571294 0
M  V30 1081 C 106.427 0.272879 -3.37699 0
M  V30 1082 C 104.986 0.702103 -3.69794 0
M  V30 1083 C 104.133 -0.167304 -2.76795 0
M  V30 1084 H 107.084 -0.558123 -1.48562 0
M  V30 1085 H 107.105 1.10128 -3.64214 0
M  V30 1086 H 106.617 -0.715307 -3.81451 0
M  V30 1087 H 104.718 1.6995 -3.31584 0
M  V30 1088 H 104.831 0.495604 -4.7653 0
M  V30 1089 H 103.195 0.359527 -2.5215 0
M  V30 1090 H 103.978 -1.15253 -3.23375 0
M  V30 1091 N 106.423 1.57458 -0.0668435 0
M  V30 1092 C 107.353 2.15468 0.899764 0
M  V30 1093 C 108.334 1.08042 1.31381 0
M  V30 1094 O 109.519 1.36054 1.38574 0
M  V30 1095 C 106.649 2.71232 2.16911 0
M  V30 1096 C 105.603 3.83781 1.89463 0
M  V30 1097 C 104.929 4.26127 3.22986 0
M  V30 1098 C 106.229 5.08238 1.20381 0
M  V30 1099 H 107.923 2.96488 0.416529 0
M  V30 1100 H 105.469 1.4262 0.198908 0
M  V30 1101 H 107.422 3.10458 2.84945 0
M  V30 1102 H 106.146 1.87426 2.67468 0
M  V30 1103 H 104.805 3.45051 1.23836 0
M  V30 1104 H 104.453 3.39249 3.71374 0
M  V30 1105 H 104.153 5.01993 3.05413 0
M  V30 1106 H 105.677 4.67966 3.92225 0
M  V30 1107 H 107.091 5.44811 1.78475 0
M  V30 1108 H 105.488 5.89349 1.13083 0
M  V30 1109 H 106.558 4.84558 0.182153 0
M  V30 1110 N 107.901 -0.206675 1.56239 0
M  V30 1111 C 109.178 -0.954051 1.70755 0
M  V30 1112 C 109.558 -2.01841 0.618353 0
M  V30 1113 O 108.906 -2.25444 -0.372434 0
M  V30 1114 C 109.116 -1.551 3.12642 0
M  V30 1115 C 110.464 -2.03757 3.72516 0
M  V30 1116 O 111.488 -1.64965 3.15698 0
M  V30 1117 O 110.347 -2.75103 4.72208 0
M  V30 1118 H 107.441 -0.446636 0.696021 0
M  V30 1119 H 109.987 -0.197283 1.68549 0
M  V30 1120 H 108.759 -0.783212 3.83382 0
M  V30 1121 H 108.382 -2.37291 3.19028 0
M  V30 1122 N 109.379 -1.50304 -0.473955 0
M  V30 1123 C 110.627 -1.60832 -1.22382 0
M  V30 1124 C 110.948 -0.30939 -1.9253 0
M  V30 1125 O 110.218 0.67296 -1.83978 0
M  V30 1126 H 108.798 -0.592652 -0.454723 0
M  V30 1127 H 111.46 -1.87068 -0.546968 0
M  V30 1128 H 110.556 -2.41803 -1.97327 0
M  V30 1129 N 110.857 0.726932 -1.39834 0
M  V30 1130 C 111.767 1.87131 -1.41489 0
M  V30 1131 C 112.783 1.71239 -0.308757 0
M  V30 1132 O 113.959 1.93701 -0.551529 0
M  V30 1133 C 111.024 3.22811 -1.26468 0
M  V30 1134 C 110.085 3.51039 -2.47124 0
M  V30 1135 C 109.318 4.80245 -2.3281 0
M  V30 1136 O 109.541 5.54537 -1.33585 0
M  V30 1137 O 108.475 5.08554 -3.21957 0
M  V30 1138 H 112.301 1.8869 -2.3797 0
M  V30 1139 H 109.886 0.875837 -1.21035 0
M  V30 1140 H 111.768 4.03877 -1.20255 0
M  V30 1141 H 110.443 3.22005 -0.330862 0
M  V30 1142 H 109.35 2.70027 -2.58914 0
M  V30 1143 H 110.683 3.56632 -3.39227 0
M  V30 1144 N 112.336 1.25143 0.95797 0
M  V30 1145 C 113.266 1.07711 2.07173 0
M  V30 1146 C 114.247 -0.0128462 1.70095 0
M  V30 1147 O 115.432 0.156061 1.93572 0
M  V30 1148 C 112.562 0.691503 3.40346 0
M  V30 1149 C 111.516 1.73132 3.9142 0
M  V30 1150 C 110.842 1.20049 5.21049 0
M  V30 1151 C 112.142 3.1294 4.1817 0
M  V30 1152 H 113.836 2.00873 2.22014 0
M  V30 1153 H 111.382 0.967191 1.06684 0
M  V30 1154 H 113.335 0.556505 4.17709 0
M  V30 1155 H 112.059 -0.275819 3.25433 0
M  V30 1156 H 110.718 1.8547 3.16222 0
M  V30 1157 H 110.366 0.223499 5.02503 0
M  V30 1158 H 110.066 1.89545 5.56189 0
M  V30 1159 H 111.59 1.07782 6.01012 0
M  V30 1160 H 113.004 3.03775 4.86203 0
M  V30 1161 H 111.401 3.79875 4.64559 0
M  V30 1162 H 112.471 3.6025 3.24573 0
M  V30 1163 N 113.814 -1.1601 1.06675 0
M  V30 1164 C 115.06 -1.86909 0.786945 0
M  V30 1165 C 115.393 -1.81717 -0.685018 0
M  V30 1166 O 114.668 -1.23551 -1.50218 0
M  V30 1167 C 114.951 -3.36313 1.28707 0
M  V30 1168 C 114.804 -3.50175 2.82308 0
M  V30 1169 C 116.123 -4.3084 0.898071 0
M  V30 1170 H 113.242 -0.678677 0.287343 0
M  V30 1171 H 115.884 -1.36336 1.32334 0
M  V30 1172 H 114.034 -3.79513 0.830768 0
M  V30 1173 H 115.706 -3.15886 3.36175 0
M  V30 1174 H 113.949 -2.91959 3.20847 0
M  V30 1175 H 114.62 -4.55116 3.12368 0
M  V30 1176 H 117.096 -3.95561 1.29114 0
M  V30 1177 H 115.972 -5.33876 1.27543 0
M  V30 1178 H 116.233 -4.41662 -0.196651 0
M  V30 1179 N 115.292 -0.849877 -1.32721 0
M  V30 1180 C 116.222 -0.306308 -2.31482 0
M  V30 1181 C 117.203 0.591952 -1.59468 0
M  V30 1182 O 118.388 0.513199 -1.87296 0
M  V30 1183 C 115.518 0.510204 -3.43532 0
M  V30 1184 C 114.472 -0.293209 -4.26994 0
M  V30 1185 C 113.798 0.647743 -5.30762 0
M  V30 1186 C 115.098 -1.51634 -4.99804 0
M  V30 1187 H 116.792 -1.13153 -2.77195 0
M  V30 1188 H 114.338 -0.545553 -1.33266 0
M  V30 1189 H 116.291 0.900856 -4.11658 0
M  V30 1190 H 115.015 1.36874 -2.96535 0
M  V30 1191 H 113.674 -0.665555 -3.60508 0
M  V30 1192 H 113.322 1.50299 -4.8002 0
M  V30 1193 H 113.022 0.11422 -5.87489 0
M  V30 1194 H 114.546 1.03567 -6.01753 0
M  V30 1195 H 115.96 -1.19824 -5.60638 0
M  V30 1196 H 114.357 -1.98745 -5.66234 0
M  V30 1197 H 115.427 -2.28018 -4.27943 0
M  V30 1198 N 116.77 1.45427 -0.607355 0
M  V30 1199 C 117.733 2.28974 0.101693 0
M  V30 1200 C 118.733 1.39754 0.795329 0
M  V30 1201 O 119.923 1.61878 0.643527 0
M  V30 1202 C 117.055 3.20768 1.15414 0
M  V30 1203 H 118.248 2.93147 -0.632844 0
M  V30 1204 H 115.801 1.51945 -0.366391 0
M  V30 1205 H 116.536 2.61395 1.91945 0
M  V30 1206 H 116.321 3.86489 0.66098 0
M  V30 1207 H 117.811 3.83589 1.65073 0
M  V30 1208 N 118.248 0.346503 1.53744 0
M  V30 1209 C 119.473 -0.253074 2.0585 0
M  V30 1210 C 119.898 -1.43202 1.21962 0
M  V30 1211 O 119.256 -1.79783 0.234073 0
M  V30 1212 C 119.304 -0.643193 3.54817 0
M  V30 1213 O 118.408 -1.74286 3.73762 0
M  V30 1214 H 117.749 -0.0413583 0.662711 0
M  V30 1215 H 120.279 0.501574 1.98357 0
M  V30 1216 H 120.289 -0.919526 3.97503 0
M  V30 1217 H 118.964 0.218966 4.15323 0
M  V30 1218 H 117.541 -1.46356 3.42979 0
M  V30 1219 N 119.726 -1.57421 0.075193 0
M  V30 1220 C 120.974 -1.93236 -0.591974 0
M  V30 1221 C 121.295 -0.956241 -1.69944 0
M  V30 1222 O 120.565 -0.00494792 -1.95899 0
M  V30 1223 H 119.145 -0.713355 -0.22166 0
M  V30 1224 H 121.807 -1.9444 0.133848 0
M  V30 1225 H 120.903 -2.95131 -1.01509 0
M  V30 1226 N 121.204 0.198386 -1.56346 0
M  V30 1227 C 122.167 1.22952 -1.93431 0
M  V30 1228 C 123.167 1.38611 -0.815092 0
M  V30 1229 O 124.357 1.36479 -1.08255 0
M  V30 1230 C 121.489 2.59946 -2.20546 0
M  V30 1231 H 122.682 0.912626 -2.85677 0
M  V30 1232 H 120.235 0.43977 -1.49986 0
M  V30 1233 H 120.97 2.96696 -1.30927 0
M  V30 1234 H 120.755 2.49953 -3.02102 0
M  V30 1235 H 122.245 3.3431 -2.50253 0
M  V30 1236 N 122.682 1.50554 0.465978 0
M  V30 1237 C 123.93 1.61479 1.21528 0
M  V30 1238 C 124.251 0.319596 1.92363 0
M  V30 1239 O 123.521 -0.663194 1.84333 0
M  V30 1240 H 122.101 0.595055 0.451573 0
M  V30 1241 H 124.763 1.87355 0.53704 0
M  V30 1242 H 123.859 2.42846 1.96042 0
M  V30 1243 N 124.16 -0.719506 1.40217 0
M  V30 1244 C 125.407 -1.47933 1.38283 0
M  V30 1245 C 125.735 -1.94493 -0.0161536 0
M  V30 1246 O 124.99 -1.68224 -0.999956 0
M  V30 1247 C 125.289 -2.72271 2.31524 0
M  V30 1248 C 124.955 -2.44496 3.78857 0
M  V30 1249 C 123.617 -2.36631 4.18998 0
M  V30 1250 C 125.969 -2.21104 4.71977 0
M  V30 1251 C 123.297 -2.03437 5.503 0
M  V30 1252 C 125.649 -1.89423 6.03574 0
M  V30 1253 C 124.313 -1.80038 6.42762 0
M  V30 1254 H 123.583 -0.541325 0.506012 0
M  V30 1255 H 126.23 -0.824502 1.72842 0
M  V30 1256 H 124.535 -3.42572 1.90137 0
M  V30 1257 H 126.232 -3.30348 2.27313 0
M  V30 1258 H 122.822 -2.51503 3.47051 0
M  V30 1259 H 127.006 -2.26139 4.41786 0
M  V30 1260 H 122.262 -1.94705 5.79569 0
M  V30 1261 H 126.436 -1.70336 6.75247 0
M  V30 1262 H 124.063 -1.54083 7.44421 0
M  V30 1263 N 125.638 -1.25649 -0.95132 0
M  V30 1264 C 126.886 -1.10375 -1.69298 0
M  V30 1265 C 127.207 0.355339 -1.91735 0
M  V30 1266 O 126.477 1.25188 -1.50681 0
M  V30 1267 H 125.057 -0.405461 -0.627384 0
M  V30 1268 H 127.719 -1.57823 -1.14358 0
M  V30 1269 H 126.815 -1.61465 -2.67087 0
M  V30 1270 N 127.117 1.15442 -1.07289 0
M  V30 1271 C 128.363 1.86489 -0.796846 0
M  V30 1272 C 128.696 1.82078 0.675371 0
M  V30 1273 O 127.971 1.24346 1.4956 0
M  V30 1274 C 128.254 3.35626 -1.30489 0
M  V30 1275 C 128.107 3.48673 -2.84161 0
M  V30 1276 C 129.426 4.30357 -0.920907 0
M  V30 1277 H 126.545 0.677144 -0.290939 0
M  V30 1278 H 129.187 1.35633 -1.33056 0
M  V30 1279 H 127.337 3.79068 -0.850883 0
M  V30 1280 H 129.009 3.14099 -3.37846 0
M  V30 1281 H 127.252 2.90253 -3.22391 0
M  V30 1282 H 127.923 4.53453 -3.14777 0
M  V30 1283 H 130.399 3.94871 -1.3121 0
M  V30 1284 H 129.275 5.33193 -1.30372 0
M  V30 1285 H 129.536 4.4176 0.173226 0
M  V30 1286 N 128.595 0.856903 1.32268 0
M  V30 1287 C 129.82 0.474569 2.01897 0
M  V30 1288 C 130.245 -0.921766 1.63967 0
M  V30 1289 O 129.603 -1.60589 0.84148 0
M  V30 1290 C 129.651 0.623799 3.55164 0
M  V30 1291 O 128.755 -0.342459 4.10976 0
M  V30 1292 H 128.096 0.190422 0.63611 0
M  V30 1293 H 130.626 1.15672 1.68764 0
M  V30 1294 H 130.636 0.512169 4.04773 0
M  V30 1295 H 129.311 1.64202 3.82113 0
M  V30 1296 H 127.888 -0.18688 3.72431 0
M  V30 1297 N 130.073 -1.45103 0.615059 0
M  V30 1298 C 131.35 -1.95549 0.0448276 0
M  V30 1299 C 131.73 -1.55737 -1.4251 0
M  V30 1300 O 131.078 -0.823556 -2.13143 0
M  V30 1301 C 131.288 -3.48098 0.250785 0
M  V30 1302 C 132.636 -4.24384 0.135509 0
M  V30 1303 O 133.66 -3.55738 0.181299 0
M  V30 1304 O 132.519 -5.46493 0.0268878 0
M  V30 1305 H 129.613 -0.8264 -0.0314845 0
M  V30 1306 H 132.159 -1.55232 0.685642 0
M  V30 1307 H 130.931 -3.7007 1.27139 0
M  V30 1308 H 130.554 -3.95323 -0.424937 0
M  V30 1309 N 131.551 -0.354651 -1.53558 0
M  V30 1310 C 132.797 0.238797 -2.01389 0
M  V30 1311 C 133.13 1.49309 -1.2418 0
M  V30 1312 O 132.405 1.91638 -0.332457 0
M  V30 1313 C 132.688 0.541771 -3.56001 0
M  V30 1314 C 132.541 -0.725388 -4.43912 0
M  V30 1315 C 133.86 1.34685 -4.18984 0
M  V30 1316 H 130.979 0.0853177 -0.732045 0
M  V30 1317 H 133.621 -0.477384 -1.83905 0
M  V30 1318 H 131.771 1.15189 -3.71031 0
M  V30 1319 H 133.443 -1.36313 -4.407 0
M  V30 1320 H 131.686 -1.34801 -4.12324 0
M  V30 1321 H 132.357 -0.468505 -5.50008 0
M  V30 1322 H 134.833 0.830837 -4.07721 0
M  V30 1323 H 133.709 1.52759 -5.27215 0
M  V30 1324 H 133.97 2.35221 -3.74331 0
M  V30 1325 N 133.029 1.57378 -0.0835403 0
M  V30 1326 C 134.277 1.93547 0.581718 0
M  V30 1327 C 134.598 0.96524 1.69435 0
M  V30 1328 O 133.868 0.0153369 1.95894 0
M  V30 1329 H 132.448 0.714521 0.217874 0
M  V30 1330 H 135.11 1.94366 -0.144158 0
M  V30 1331 H 134.206 2.95665 0.999423 0
M  V30 1332 N 134.507 -0.190092 1.56449 0
M  V30 1333 C 135.732 -0.929864 1.85387 0
M  V30 1334 C 136.157 -1.7585 0.667704 0
M  V30 1335 O 135.515 -1.77198 -0.383459 0
M  V30 1336 C 135.563 -1.79773 3.12593 0
M  V30 1337 O 134.667 -2.89713 2.93496 0
M  V30 1338 H 134.008 -0.261574 0.610307 0
M  V30 1339 H 136.538 -0.193896 2.03679 0
M  V30 1340 H 136.548 -2.20139 3.43515 0
M  V30 1341 H 135.223 -1.18892 3.98544 0
M  V30 1342 H 133.8 -2.53065 2.73884 0
M  V30 1343 N 135.985 -1.50799 -0.457987 0
M  V30 1344 C 136.935 -1.67003 -1.55222 0
M  V30 1345 C 137.919 -0.52434 -1.52117 0
M  V30 1346 O 139.111 -0.779345 -1.58919 0
M  V30 1347 C 136.24 -1.77956 -2.93576 0
M  V30 1348 C 135.326 -2.98243 -3.01516 0
M  V30 1349 N 135.717 -4.21732 -2.79241 0
M  V30 1350 C 134.015 -2.97072 -3.32662 0
M  V30 1351 C 134.716 -5.02817 -2.92489 0
M  V30 1352 N 133.692 -4.37038 -3.23262 0
M  V30 1353 H 137.494 -2.60163 -1.36721 0
M  V30 1354 H 135.008 -1.48163 -0.664952 0
M  V30 1355 H 137.005 -1.87671 -3.72271 0
M  V30 1356 H 135.665 -0.859634 -3.13114 0
M  V30 1357 H 136.676 -4.51016 -2.54567 0
M  V30 1358 H 133.353 -2.14631 -3.58106 0
M  V30 1359 H 134.743 -6.11054 -2.79396 0
M  V30 1360 N 137.463 0.71206 -1.40597 0
M  V30 1361 C 138.393 1.83889 -1.43899 0
M  V30 1362 C 139.374 1.67442 -0.299504 0
M  V30 1363 O 140.559 1.87421 -0.508624 0
M  V30 1364 C 137.689 3.21877 -1.30431 0
M  V30 1365 C 136.643 3.53002 -2.42019 0
M  V30 1366 C 135.969 4.90172 -2.13626 0
M  V30 1367 C 137.269 3.53643 -3.84362 0
M  V30 1368 H 138.963 1.81383 -2.38203 0
M  V30 1369 H 136.509 0.871237 -1.14654 0
M  V30 1370 H 138.462 4.00404 -1.31357 0
M  V30 1371 H 137.186 3.24968 -0.326049 0
M  V30 1372 H 135.845 2.76818 -2.40349 0
M  V30 1373 H 135.493 4.89869 -1.14182 0
M  V30 1374 H 135.193 5.11962 -2.88389 0
M  V30 1375 H 136.717 5.71028 -2.1624 0
M  V30 1376 H 138.131 4.22203 -3.87837 0
M  V30 1377 H 136.528 3.86961 -4.58673 0
M  V30 1378 H 137.598 2.52954 -4.13693 0
M  V30 1379 N 138.941 1.26152 0.944643 0
M  V30 1380 C 140.218 1.02247 1.66748 0
M  V30 1381 C 140.598 -0.448202 2.06287 0
M  V30 1382 O 139.946 -1.42779 1.78399 0
M  V30 1383 C 140.156 1.96788 2.88228 0
M  V30 1384 C 141.504 2.25201 3.59958 0
M  V30 1385 O 142.528 1.94626 2.98327 0
M  V30 1386 O 141.387 2.77242 4.70956 0
M  V30 1387 H 138.481 0.388517 0.730057 0
M  V30 1388 H 141.027 1.37348 0.99668 0
M  V30 1389 H 139.799 2.96047 2.55875 0
M  V30 1390 H 139.422 1.62145 3.63035 0
M  V30 1391 N 140.419 -1.14872 1.07899 0
M  V30 1392 C 141.659 -1.8745 0.814965 0
M  V30 1393 C 142.023 -1.80758 -0.64733 0
M  V30 1394 O 143.224 -2.48422 -1.02664 0
M  V30 1395 C 141.495 -3.32286 1.31607 0
M  V30 1396 S 143.054 -4.22537 1.18357 0
M  V30 1397 H 139.872 -0.646833 0.295174 0
M  V30 1398 H 142.474 -1.38555 1.37923 0
M  V30 1399 H 141.178 -3.34703 2.37491 0
M  V30 1400 H 140.709 -3.86238 0.747261 0
M  V30 1401 H 142.724 -4.96044 0.124586 0
M  V30 1402 N 141.898 -0.863906 -1.31812 0
M  V30 1403 C 143.146 -0.470904 -1.96537 0
M  V30 1404 C 143.467 0.978771 -1.68657 0
M  V30 1405 O 142.737 1.6853 -0.998717 0
M  V30 1406 H 141.317 -0.171148 -0.72713 0
M  V30 1407 H 143.979 -1.10236 -1.60729 0
M  V30 1408 H 143.075 -0.623616 -3.05806 0
M  V30 1409 N 143.376 1.44774 -0.622745 0
M  V30 1410 C 144.339 2.29069 0.0774015 0
M  V30 1411 C 145.339 1.4059 0.780461 0
M  V30 1412 O 146.529 1.62551 0.626322 0
M  V30 1413 C 143.661 3.21974 1.12006 0
M  V30 1414 H 144.854 2.92459 -0.663901 0
M  V30 1415 H 142.407 1.51548 -0.382486 0
M  V30 1416 H 143.142 2.63417 1.89162 0
M  V30 1417 H 142.927 3.87168 0.619951 0
M  V30 1418 H 144.417 3.85318 1.60995 0
M  V30 1419 N 144.854 0.36279 1.53368 0
M  V30 1420 C 146.102 -0.227326 2.00817 0
M  V30 1421 C 146.423 -1.49511 1.25186 0
M  V30 1422 O 145.693 -1.92482 0.364348 0
M  V30 1423 H 144.273 -0.0869923 0.741917 0
M  V30 1424 H 146.935 0.488381 1.88682 0
M  V30 1425 H 146.031 -0.456273 3.08747 0
M  V30 1426 N 146.332 -1.57332 0.0918853 0
M  V30 1427 C 147.242 -2.17368 -0.882505 0
M  V30 1428 C 148.258 -1.14226 -1.31257 0
M  V30 1429 O 149.434 -1.46582 -1.38115 0
M  V30 1430 C 146.499 -2.73962 -2.12476 0
M  V30 1431 C 145.56 -3.92048 -1.7492 0
M  V30 1432 C 144.793 -4.45933 -2.93223 0
M  V30 1433 O 145.016 -3.98764 -4.07852 0
M  V30 1434 O 143.95 -5.36999 -2.71875 0
M  V30 1435 H 147.776 -3.01031 -0.40172 0
M  V30 1436 H 145.361 -1.48813 -0.132291 0
M  V30 1437 H 147.243 -3.10147 -2.85283 0
M  V30 1438 H 145.918 -1.93347 -2.59613 0
M  V30 1439 H 144.825 -3.6068 -0.993025 0
M  V30 1440 H 146.158 -4.74017 -1.32548 0
M  V30 1441 N 147.81 0.181792 -1.56548 0
M  V30 1442 C 149.221 0.745244 -1.71181 0
M  V30 1443 C 149.572 1.83262 -0.70068 0
M  V30 1444 O 148.697 2.15946 0.140154 0
M  V30 1445 C 149.292 1.35859 -3.10367 0
M  V30 1446 C 147.851 1.86898 -3.2672 0
M  V30 1447 C 146.998 0.743942 -2.67134 0
M  V30 1448 H 149.949 -0.0434661 -1.5864 0
M  V30 1449 H 149.97 2.22817 -3.08436 0
M  V30 1450 H 149.482 0.566948 -3.83937 0
M  V30 1451 H 147.583 2.68738 -2.5809 0
M  V30 1452 H 147.696 2.02162 -4.34359 0
M  V30 1453 H 146.06 1.16169 -2.26665 0
M  V30 1454 H 146.843 -0.035676 -3.43281 0
M  V30 1455 N 149.288 1.51039 0.449983 0
M  V30 1456 C 150.251 1.70863 1.5277 0
M  V30 1457 C 151.251 0.578846 1.5002 0
M  V30 1458 O 152.441 0.846213 1.52266 0
M  V30 1459 C 149.573 1.75341 2.9235 0
M  V30 1460 H 150.766 2.67034 1.36502 0
M  V30 1461 H 148.319 1.40838 0.677812 0
M  V30 1462 H 149.054 0.809383 3.14037 0
M  V30 1463 H 148.839 2.57436 2.95752 0
M  V30 1464 H 150.329 1.92559 3.70555 0
M  V30 1465 N 150.766 -0.704594 1.40972 0
M  V30 1466 C 152.012 -1.46675 1.40051 0
M  V30 1467 C 152.345 -1.94199 0.00641102 0
M  V30 1468 O 151.62 -1.68916 -0.964235 0
M  V30 1469 C 151.903 -2.68505 2.39952 0
M  V30 1470 C 151.756 -2.26805 3.88432 0
M  V30 1471 C 153.075 -3.70686 2.37233 0
M  V30 1472 H 150.194 -0.532015 0.510028 0
M  V30 1473 H 152.836 -0.803255 1.72185 0
M  V30 1474 H 150.986 -3.25114 2.1268 0
M  V30 1475 H 152.658 -1.75592 4.26574 0
M  V30 1476 H 150.901 -1.58685 4.03734 0
M  V30 1477 H 151.572 -3.14181 4.53866 0
M  V30 1478 H 154.048 -3.23731 2.61415 0
M  V30 1479 H 152.924 -4.53553 3.09162 0
M  V30 1480 H 153.185 -4.19754 1.38777 0
M  V30 1481 N 152.244 -1.26651 -0.937939 0
M  V30 1482 C 153.491 -1.12387 -1.6845 0
M  V30 1483 C 153.819 0.332208 -1.91642 0
M  V30 1484 O 153.074 1.2602 -1.49725 0
M  V30 1485 C 153.373 -1.84168 -3.06295 0
M  V30 1486 C 153.039 -3.34056 -3.02849 0
M  V30 1487 C 151.701 -3.74942 -3.01616 0
M  V30 1488 C 154.053 -4.29741 -2.9491 0
M  V30 1489 C 151.381 -5.09894 -2.90215 0
M  V30 1490 C 153.733 -5.64738 -2.8505 0
M  V30 1491 C 152.397 -6.0493 -2.82162 0
M  V30 1492 H 151.667 -0.411252 -0.616403 0
M  V30 1493 H 154.314 -1.57134 -1.09459 0
M  V30 1494 H 152.619 -1.319 -3.6893 0
M  V30 1495 H 154.316 -1.70569 -3.62915 0
M  V30 1496 H 150.906 -3.01534 -3.0459 0
M  V30 1497 H 155.09 -3.99133 -2.94969 0
M  V30 1498 H 150.346 -5.40194 -2.86358 0
M  V30 1499 H 154.52 -6.38561 -2.77872 0
M  V30 1500 H 152.147 -7.09457 -2.73084 0
M  V30 1501 N 153.722 1.14298 -1.08507 0
M  V30 1502 C 155.138 1.37347 -0.812901 0
M  V30 1503 C 155.338 1.93052 0.577325 0
M  V30 1504 O 154.394 2.14389 1.33393 0
M  V30 1505 C 155.707 2.33359 -1.89642 0
M  V30 1506 C 157.255 2.46996 -1.92255 0
M  V30 1507 C 157.73 3.46309 -2.99724 0
M  V30 1508 N 159.221 3.53853 -2.98902 0
M  V30 1509 C 159.956 4.3055 -3.787 0
M  V30 1510 N 159.452 5.10482 -4.6838 0
M  V30 1511 N 161.245 4.25757 -3.66998 0
M  V30 1512 H 153.396 0.764867 -1.9815 0
M  V30 1513 H 155.659 0.398966 -0.859959 0
M  V30 1514 H 155.365 1.99565 -2.89597 0
M  V30 1515 H 155.239 3.33274 -1.76659 0
M  V30 1516 H 157.626 2.80081 -0.929445 0
M  V30 1517 H 157.707 1.47039 -2.09316 0
M  V30 1518 H 157.351 3.13957 -3.99241 0
M  V30 1519 H 157.281 4.46049 -2.79907 0
M  V30 1520 H 159.772 2.96812 -2.33904 0
M  V30 1521 H 160.085 5.66284 -5.25873 0
M  V30 1522 H 158.43 5.09747 -4.72422 0
M  V30 1523 H 161.621 3.62383 -2.96304 0
M  V30 1524 H 161.794 4.85279 -4.29427 0
M  V30 1525 N 155.201 0.870884 1.31352 0
M  V30 1526 C 156.478 0.402907 1.91405 0
M  V30 1527 C 156.858 -1.11512 1.79244 0
M  V30 1528 O 156.206 -1.94411 1.2007 0
M  V30 1529 C 156.416 0.885301 3.37585 0
M  V30 1530 C 157.764 0.911971 4.14691 0
M  V30 1531 O 158.788 0.831016 3.46371 0
M  V30 1532 O 157.647 1.02927 5.3672 0
M  V30 1533 H 154.741 0.120698 0.818145 0
M  V30 1534 H 157.287 0.958857 1.40014 0
M  V30 1535 H 156.059 1.92889 3.40455 0
M  V30 1536 H 155.682 0.307714 3.96407 0
M  V30 1537 N 156.679 -1.44442 0.630414 0
M  V30 1538 C 157.904 -2.06927 0.139944 0
M  V30 1539 C 158.329 -1.46795 -1.17613 0
M  V30 1540 O 157.687 -0.569144 -1.72135 0
M  V30 1541 C 157.735 -3.6058 0.0379581 0
M  V30 1542 O 156.839 -3.99937 -1.0062 0
M  V30 1543 H 156.18 -0.658608 0.0844483 0
M  V30 1544 H 158.71 -1.85327 0.866891 0
M  V30 1545 H 158.72 -4.07714 -0.152856 0
M  V30 1546 H 157.395 -4.03728 0.998809 0
M  V30 1547 H 155.972 -3.64436 -0.79001 0
M  V30 1548 N 158.157 -0.370918 -1.53173 0
M  V30 1549 C 159.434 0.273754 -1.93675 0
M  V30 1550 C 159.814 1.65938 -1.3049 0
M  V30 1551 O 159.162 2.23698 -0.465999 0
M  V30 1552 C 159.372 0.318602 -3.47543 0
M  V30 1553 C 160.72 0.556392 -4.20939 0
M  V30 1554 O 161.744 0.399587 -3.53952 0
M  V30 1555 O 160.603 0.862133 -5.39657 0
M  V30 1556 H 157.697 0.165448 -0.810281 0
M  V30 1557 H 160.243 -0.42409 -1.64315 0
M  V30 1558 H 159.015 -0.652687 -3.85818 0
M  V30 1559 H 158.638 1.06212 -3.83151 0
M  V30 1560 N 159.635 1.57281 -0.100228 0
M  V30 1561 C 161.051 1.57527 0.256416 0
M  V30 1562 C 161.251 1.11173 1.68056 0
M  V30 1563 O 160.307 0.79053 2.39806 0
M  V30 1564 C 161.62 3.00673 0.0401747 0
M  V30 1565 C 163.168 3.12815 0.107528 0
M  V30 1566 C 163.643 4.57929 -0.0807834 0
M  V30 1567 N 165.134 4.63193 -0.0261207 0
M  V30 1568 C 165.869 5.73212 -0.146999 0
M  V30 1569 N 165.365 6.92047 -0.322999 0
M  V30 1570 N 167.158 5.62031 -0.0879044 0
M  V30 1571 H 159.309 1.85718 -1.03065 0
M  V30 1572 H 161.572 0.857446 -0.404339 0
M  V30 1573 H 161.278 3.38804 -0.943649 0
M  V30 1574 H 161.152 3.69042 0.780262 0
M  V30 1575 H 163.539 2.74554 1.08186 0
M  V30 1576 H 163.62 2.47028 -0.664134 0
M  V30 1577 H 163.264 4.96886 -1.05201 0
M  V30 1578 H 163.194 5.21783 0.710635 0
M  V30 1579 H 165.685 3.77748 0.107161 0
M  V30 1580 H 165.998 7.7173 -0.406608 0
M  V30 1581 H 164.343 6.94074 -0.358733 0
M  V30 1582 H 167.534 4.68075 0.048498 0
M  V30 1583 H 167.707 6.47734 -0.185557 0
M  V30 1584 N 161.113 -0.173488 1.56642 0
M  V30 1585 C 162.36 -0.890465 1.81871 0
M  V30 1586 C 162.688 -1.82339 0.67696 0
M  V30 1587 O 161.943 -1.92795 -0.335926 0
M  V30 1588 C 162.242 -1.72069 3.13252 0
M  V30 1589 C 161.908 -0.936878 4.41059 0
M  V30 1590 C 160.57 -0.720545 4.75775 0
M  V30 1591 C 162.922 -0.386919 5.19762 0
M  V30 1592 C 160.25 0.0568829 5.86672 0
M  V30 1593 C 162.602 0.37741 6.31473 0
M  V30 1594 C 161.266 0.604563 6.64757 0
M  V30 1595 H 160.536 -0.325844 0.665512 0
M  V30 1596 H 163.183 -0.155527 1.90867 0
M  V30 1597 H 161.488 -2.52496 2.99588 0
M  V30 1598 H 163.185 -2.27844 3.29982 0
M  V30 1599 H 159.775 -1.11553 4.13828 0
M  V30 1600 H 163.959 -0.541398 4.93338 0
M  V30 1601 H 159.215 0.242635 6.10918 0
M  V30 1602 H 163.389 0.810825 6.91664 0
M  V30 1603 H 161.016 1.20885 7.50527 0
M  V30 1604 N 162.591 -1.51276 -0.441967 0
M  V30 1605 C 163.816 -1.67799 -1.21895 0
M  V30 1606 C 164.241 -0.372864 -1.84367 0
M  V30 1607 O 163.599 0.666501 -1.68604 0
M  V30 1608 C 163.647 -2.79199 -2.28211 0
M  V30 1609 O 162.751 -2.42479 -3.33583 0
M  V30 1610 H 162.092 -0.559649 -0.357336 0
M  V30 1611 H 164.622 -1.97815 -0.522522 0
M  V30 1612 H 164.632 -3.03146 -2.73069 0
M  V30 1613 H 163.307 -3.73906 -1.82118 0
M  V30 1614 H 161.884 -2.29087 -2.94234 0
M  V30 1615 N 164.069 0.697108 -1.41344 0
M  V30 1616 C 165.315 1.45796 -1.41828 0
M  V30 1617 C 165.67 1.92382 -0.0261743 0
M  V30 1618 O 164.963 1.66522 0.947688 0
M  V30 1619 C 165.157 2.68553 -2.35826 0
M  V30 1620 C 164.986 2.33975 -3.84039 0
M  V30 1621 C 163.756 2.24414 -4.52732 0
M  V30 1622 C 165.954 1.97048 -4.75054 0
M  V30 1623 N 163.936 1.82705 -5.86082 0
M  V30 1624 C 165.307 1.66086 -5.9734 0
M  V30 1625 C 167.362 1.83845 -4.62715 0
M  V30 1626 C 166.065 1.23246 -7.08663 0
M  V30 1627 C 168.091 1.4241 -5.73998 0
M  V30 1628 C 167.453 1.12357 -6.95381 0
M  V30 1629 H 163.552 0.530859 -0.574206 0
M  V30 1630 H 166.136 0.806674 -1.77203 0
M  V30 1631 H 164.307 3.31404 -2.02549 0
M  V30 1632 H 166.039 3.35015 -2.2704 0
M  V30 1633 H 162.794 2.4276 -4.0665 0
M  V30 1634 H 163.218 1.64337 -6.56751 0
M  V30 1635 H 167.86 2.05734 -3.69369 0
M  V30 1636 H 165.578 1.00102 -8.01876 0
M  V30 1637 H 169.164 1.32746 -5.66454 0
M  V30 1638 H 168.044 0.807795 -7.80028 0
M  V30 1639 N 165.547 1.27147 0.931209 0
M  V30 1640 C 166.497 1.06227 2.01742 0
M  V30 1641 C 167.481 -0.00859065 1.60898 0
M  V30 1642 O 168.673 0.209537 1.75755 0
M  V30 1643 C 165.802 0.707787 3.35924 0
M  V30 1644 C 164.888 1.81661 3.83223 0
M  V30 1645 N 165.279 3.05564 4.03069 0
M  V30 1646 C 163.577 1.70249 4.12227 0
M  V30 1647 C 164.278 3.77697 4.42403 0
M  V30 1648 N 163.254 3.0544 4.49675 0
M  V30 1649 H 167.056 2.00261 2.15111 0
M  V30 1650 H 164.57 1.1781 1.11779 0
M  V30 1651 H 166.567 0.539043 4.134 0
M  V30 1652 H 165.227 -0.224964 3.2392 0
M  V30 1653 H 166.238 3.41363 3.89476 0
M  V30 1654 H 162.915 0.840329 4.08956 0
M  V30 1655 H 164.305 4.84168 4.65866 0
M  V30 1656 N 167.025 -1.13721 1.09112 0
M  V30 1657 C 168.302 -1.81155 0.737706 0
M  V30 1658 C 168.682 -1.96253 -0.777683 0
M  V30 1659 O 168.03 -1.52807 -1.69889 0
M  V30 1660 C 168.24 -3.16392 1.47299 0
M  V30 1661 C 169.588 -3.91787 1.63671 0
M  V30 1662 O 170.612 -3.26005 1.43524 0
M  V30 1663 O 169.471 -5.0977 1.96969 0
M  V30 1664 H 166.565 -0.783518 0.26463 0
M  V30 1665 H 169.111 -1.20676 1.19312 0
M  V30 1666 H 167.883 -3.0061 2.50498 0
M  V30 1667 H 167.506 -3.8457 1.00953 0
M  V30 1668 N 168.503 -0.877838 -1.30888 0
M  V30 1669 C 169.914 -0.544193 -1.78593 0
M  V30 1670 C 170.265 0.939301 -1.72254 0
M  V30 1671 O 169.39 1.7337 -1.29505 0
M  V30 1672 C 169.985 -0.98105 -3.24285 0
M  V30 1673 C 168.544 -0.698935 -3.69854 0
M  V30 1674 C 167.691 -1.168 -2.51502 0
M  V30 1675 H 170.642 -1.06278 -1.17859 0
M  V30 1676 H 170.663 -0.307009 -3.79259 0
M  V30 1677 H 170.175 -2.06079 -3.28866 0
M  V30 1678 H 168.276 0.369112 -3.70767 0
M  V30 1679 H 168.389 -1.28148 -4.61644 0
M  V30 1680 H 166.753 -0.587535 -2.47831 0
M  V30 1681 H 167.536 -2.25533 -2.58824 0
M  V30 1682 N 169.982 1.44106 -0.638065 0
M  V30 1683 C 170.932 2.27843 0.0847285 0
M  V30 1684 C 171.916 1.39055 0.809471 0
M  V30 1685 O 173.108 1.62808 0.694435 0
M  V30 1686 C 170.237 3.26497 1.06089 0
M  V30 1687 C 169.323 4.22772 0.33541 0
M  V30 1688 N 169.714 5.01737 -0.639787 0
M  V30 1689 C 168.012 4.42227 0.578921 0
M  V30 1690 C 168.713 5.71792 -1.06904 0
M  V30 1691 N 167.689 5.42079 -0.406395 0
M  V30 1692 H 171.491 2.86305 -0.663814 0
M  V30 1693 H 169.005 1.55627 -0.464122 0
M  V30 1694 H 171.002 3.8525 1.59337 0
M  V30 1695 H 169.662 2.69595 1.80966 0
M  V30 1696 H 170.673 5.07799 -1.01789 0
M  V30 1697 H 167.35 3.96415 1.31003 0
M  V30 1698 H 168.74 6.45205 -1.8751 0
M  V30 1699 N 171.46 0.379036 1.52974 0
M  V30 1700 C 172.39 -0.452706 2.29069 0
M  V30 1701 C 173.371 -1.07237 1.32039 0
M  V30 1702 O 174.556 -1.08708 1.60923 0
M  V30 1703 C 171.686 -1.5856 3.08992 0
M  V30 1704 C 170.64 -1.0925 4.13822 0
M  V30 1705 C 169.966 -2.31668 4.81907 0
M  V30 1706 C 171.266 -0.167702 5.22031 0
M  V30 1707 H 172.96 0.182181 2.98845 0
M  V30 1708 H 170.506 0.0890592 1.43724 0
M  V30 1709 H 172.459 -2.1742 3.6098 0
M  V30 1710 H 171.183 -2.24792 2.36931 0
M  V30 1711 H 169.842 -0.526494 3.628 0
M  V30 1712 H 169.49 -2.96386 4.06404 0
M  V30 1713 H 169.19 -1.9934 5.52754 0
M  V30 1714 H 170.714 -2.91189 5.36695 0
M  V30 1715 H 172.128 -0.664186 5.6944 0
M  V30 1716 H 170.525 0.0653265 6.00064 0
M  V30 1717 H 171.595 0.786347 4.78482 0
M  V30 1718 N 172.938 -1.57226 0.108567 0
M  V30 1719 C 174.184 -1.95919 -0.546564 0
M  V30 1720 C 174.539 -0.990417 -1.6495 0
M  V30 1721 O 173.832 -0.0186593 -1.91591 0
M  V30 1722 C 174.026 -3.38911 -1.13463 0
M  V30 1723 C 173.855 -4.4961 -0.0901926 0
M  V30 1724 C 172.625 -5.04168 0.338008 0
M  V30 1725 C 174.823 -5.09693 0.686808 0
M  V30 1726 N 172.805 -5.98434 1.36931 0
M  V30 1727 C 174.176 -5.99804 1.56958 0
M  V30 1728 C 176.231 -4.92388 0.738846 0
M  V30 1729 C 174.934 -6.74463 2.49983 0
M  V30 1730 C 176.96 -5.67719 1.65676 0
M  V30 1731 C 176.322 -6.57507 2.52713 0
M  V30 1732 H 172.421 -0.763312 -0.169936 0
M  V30 1733 H 175.005 -1.93728 0.194264 0
M  V30 1734 H 173.176 -3.41769 -1.84522 0
M  V30 1735 H 174.908 -3.64752 -1.75322 0
M  V30 1736 H 171.663 -4.73571 -0.0523673 0
M  V30 1737 H 172.087 -6.5027 1.88356 0
M  V30 1738 H 176.729 -4.22724 0.080084 0
M  V30 1739 H 174.447 -7.4338 3.16878 0
M  V30 1740 H 178.033 -5.56338 1.70233 0
M  V30 1741 H 176.913 -7.14778 3.22586 0
M  V30 1742 N 174.416 0.165178 -1.56732 0
M  V30 1743 C 175.832 0.517174 -1.50988 0
M  V30 1744 C 176.032 1.84331 -0.813894 0
M  V30 1745 O 175.088 2.49672 -0.37682 0
M  V30 1746 C 176.401 0.544261 -2.95733 0
M  V30 1747 C 177.949 0.631039 -3.06573 0
M  V30 1748 C 178.424 0.68896 -4.52788 0
M  V30 1749 N 179.915 0.751683 -4.5706 0
M  V30 1750 C 180.65 0.817177 -5.67547 0
M  V30 1751 N 180.146 0.843129 -6.8765 0
M  V30 1752 N 181.939 0.856668 -5.55534 0
M  V30 1753 H 174.09 -0.704318 -2.00382 0
M  V30 1754 H 176.353 -0.254687 -0.913148 0
M  V30 1755 H 176.059 -0.361607 -3.49836 0
M  V30 1756 H 175.933 1.3886 -3.5071 0
M  V30 1757 H 178.32 1.52733 -2.52501 0
M  V30 1758 H 178.401 -0.240095 -2.54671 0
M  V30 1759 H 178.045 -0.2031 -5.07494 0
M  V30 1760 H 177.975 1.57633 -5.02454 0
M  V30 1761 H 180.466 0.739661 -3.70591 0
M  V30 1762 H 180.779 0.894448 -7.67606 0
M  V30 1763 H 179.124 0.811304 -6.90248 0
M  V30 1764 H 182.315 0.833437 -4.60621 0
M  V30 1765 H 182.488 0.904247 -6.4166 0
M  V30 1766 N 175.894 1.51508 0.433938 0
M  V30 1767 C 177.119 1.68443 1.21003 0
M  V30 1768 C 177.544 0.382636 1.84167 0
M  V30 1769 O 176.902 -0.65755 1.68956 0
M  V30 1770 C 176.95 2.80405 2.26727 0
M  V30 1771 O 176.054 2.44245 3.32292 0
M  V30 1772 H 175.395 0.561536 0.354363 0
M  V30 1773 H 177.925 1.9809 0.512024 0
M  V30 1774 H 177.935 3.0459 2.71457 0
M  V30 1775 H 176.61 3.74867 1.80132 0
M  V30 1776 H 175.187 2.30644 2.93015 0
M  V30 1777 N 177.372 -0.689602 1.41712 0
M  V30 1778 C 178.62 -1.4468 1.4111 0
M  V30 1779 C 178.941 -1.94986 0.0232196 0
M  V30 1780 O 178.211 -1.72097 -0.935913 0
M  V30 1781 H 176.791 -0.536847 0.519427 0
M  V30 1782 H 179.453 -0.815825 1.77004 0
M  V30 1783 H 178.549 -2.30706 2.10193 0
M  V30 1784 N 178.85 -1.27639 -0.924453 0
M  V30 1785 C 180.127 -1.04887 -1.651 0
M  V30 1786 C 180.507 0.415327 -2.06974 0
M  V30 1787 O 179.855 1.39923 -1.80648 0
M  V30 1788 C 180.065 -2.01348 -2.85061 0
M  V30 1789 C 181.413 -2.30899 -3.56329 0
M  V30 1790 O 182.437 -1.99348 -2.95193 0
M  V30 1791 O 181.296 -2.84699 -4.66485 0
M  V30 1792 H 178.39 -0.400083 -0.723784 0
M  V30 1793 H 180.936 -1.38916 -0.974703 0
M  V30 1794 H 179.708 -3.0008 -2.51133 0
M  V30 1795 H 179.331 -1.679 -3.6041 0
M  V30 1796 N 180.328 1.1314 -1.09713 0
M  V30 1797 C 181.238 2.22242 -0.751367 0
M  V30 1798 C 182.254 1.72224 0.247938 0
M  V30 1799 O 183.43 2.01205 0.0885463 0
M  V30 1800 C 180.495 3.46231 -0.180274 0
M  V30 1801 C 179.556 4.11125 -1.2359 0
M  V30 1802 C 178.789 5.29195 -0.691966 0
M  V30 1803 O 179.012 5.68342 0.48414 0
M  V30 1804 O 177.946 5.84214 -1.44838 0
M  V30 1805 H 181.772 2.54197 -1.66186 0
M  V30 1806 H 179.357 1.21331 -0.871735 0
M  V30 1807 H 181.239 4.21185 0.134739 0
M  V30 1808 H 179.914 3.1597 0.703185 0
M  V30 1809 H 178.821 3.37985 -1.60366 0
M  V30 1810 H 180.154 4.45524 -2.09211 0
M  V30 1811 N 181.806 0.884767 1.30421 0
M  V30 1812 C 182.769 0.356277 2.26414 0
M  V30 1813 C 183.769 -0.501124 1.52792 0
M  V30 1814 O 184.959 -0.30831 1.7145 0
M  V30 1815 C 182.091 -0.492316 3.37326 0
M  V30 1816 H 183.284 1.20389 2.74675 0
M  V30 1817 H 180.837 0.661607 1.41607 0
M  V30 1818 H 181.572 -1.36052 2.94381 0
M  V30 1819 H 181.357 0.121832 3.91911 0
M  V30 1820 H 182.847 -0.853871 4.08777 0
M  V30 1821 N 183.284 -1.43765 0.645699 0
M  V30 1822 C 184.695 -1.85193 0.236719 0
M  V30 1823 C 185.046 -1.54045 -1.21509 0
M  V30 1824 O 184.171 -0.985694 -1.92647 0
M  V30 1825 C 184.766 -3.36151 0.422845 0
M  V30 1826 C 183.325 -3.76338 0.0682492 0
M  V30 1827 C 182.472 -2.67538 0.729306 0
M  V30 1828 H 185.423 -1.34025 0.849883 0
M  V30 1829 H 185.444 -3.79032 -0.333904 0
M  V30 1830 H 184.956 -3.5879 1.47958 0
M  V30 1831 H 183.057 -3.59312 -0.986179 0
M  V30 1832 H 183.17 -4.76603 0.488469 0
M  V30 1833 H 181.534 -2.54176 0.163235 0
M  V30 1834 H 182.317 -2.93006 1.78892 0
M  V30 1835 N 184.763 -0.387143 -1.52771 0
M  V30 1836 C 186.011 0.195349 -2.01154 0
M  V30 1837 C 186.332 1.475 -1.27549 0
M  V30 1838 O 185.602 1.91878 -0.394924 0
M  V30 1839 H 184.182 0.075178 -0.743207 0
M  V30 1840 H 186.844 -0.518337 -1.87881 0
M  V30 1841 H 185.94 0.407096 -3.09434 0
M  V30 1842 N 186.241 1.57166 -0.116904 0
M  V30 1843 C 187.171 2.18222 0.830759 0
M  V30 1844 C 188.152 1.12167 1.27877 0
M  V30 1845 O 189.337 1.40394 1.34176 0
M  V30 1846 C 186.467 2.77996 2.08172 0
M  V30 1847 C 185.421 3.89614 1.77157 0
M  V30 1848 C 184.747 4.36187 3.09265 0
M  V30 1849 C 186.047 5.1181 1.04151 0
M  V30 1850 H 187.741 2.97664 0.321992 0
M  V30 1851 H 185.287 1.4318 0.153434 0
M  V30 1852 H 187.24 3.19366 2.74924 0
M  V30 1853 H 185.964 1.9584 2.6137 0
M  V30 1854 H 184.623 3.48816 1.12796 0
M  V30 1855 H 184.271 3.50893 3.60393 0
M  V30 1856 H 183.971 5.11455 2.89288 0
M  V30 1857 H 185.495 4.80207 3.77139 0
M  V30 1858 H 186.909 5.50214 1.61052 0
M  V30 1859 H 185.306 5.92648 0.942762 0
M  V30 1860 H 186.376 4.84892 0.0279022 0
M  V30 1861 N 187.719 -0.156864 1.56817 0
M  V30 1862 C 188.966 -0.871125 1.82805 0
M  V30 1863 C 189.294 -1.81611 0.696262 0
M  V30 1864 O 188.549 -1.93141 -0.315459 0
M  V30 1865 C 188.848 -1.68737 3.1506 0
M  V30 1866 C 188.514 -0.890045 4.42028 0
M  V30 1867 C 187.176 -0.670042 4.76512 0
M  V30 1868 C 189.528 -0.331769 5.20143 0
M  V30 1869 C 186.856 0.119104 5.86579 0
M  V30 1870 C 189.208 0.444365 6.31037 0
M  V30 1871 C 187.872 0.675035 6.64078 0
M  V30 1872 H 187.142 -0.318767 0.668931 0
M  V30 1873 H 189.789 -0.135274 1.91022 0
M  V30 1874 H 188.094 -2.49304 3.0225 0
M  V30 1875 H 189.791 -2.24331 3.3238 0
M  V30 1876 H 186.381 -1.07157 4.14988 0
M  V30 1877 H 190.565 -0.489043 4.93885 0
M  V30 1878 H 185.821 0.307417 6.10627 0
M  V30 1879 H 189.995 0.884139 6.90765 0
M  V30 1880 H 187.622 1.28839 7.49203 0
M  V30 1881 N 189.197 -1.51736 -0.425897 0
M  V30 1882 C 190.444 -1.6497 -1.17436 0
M  V30 1883 C 190.772 -0.371445 -1.9092 0
M  V30 1884 O 190.027 0.644963 -1.84767 0
M  V30 1885 C 190.326 -2.81103 -2.20717 0
M  V30 1886 C 189.992 -4.19954 -1.64162 0
M  V30 1887 C 188.654 -4.57725 -1.48462 0
M  V30 1888 C 191.006 -5.06552 -1.22696 0
M  V30 1889 C 188.334 -5.79789 -0.897873 0
M  V30 1890 C 190.686 -6.29205 -0.654464 0
M  V30 1891 C 189.35 -6.6574 -0.484456 0
M  V30 1892 H 188.62 -0.603668 -0.429727 0
M  V30 1893 H 191.267 -1.85798 -0.463829 0
M  V30 1894 H 189.572 -2.54542 -2.97852 0
M  V30 1895 H 191.269 -2.8854 -2.78471 0
M  V30 1896 H 187.859 -3.90181 -1.77361 0
M  V30 1897 H 192.043 -4.77968 -1.33642 0
M  V30 1898 H 187.299 -6.06733 -0.75402 0
M  V30 1899 H 191.473 -6.95643 -0.324694 0
M  V30 1900 H 189.1 -7.60195 -0.0276833 0
M  V30 1901 N 190.675 0.682077 -1.42076 0
M  V30 1902 C 191.921 1.44428 -1.42367 0
M  V30 1903 C 192.254 1.94164 -0.0373056 0
M  V30 1904 O 191.529 1.70429 0.937239 0
M  V30 1905 C 191.812 2.64654 -2.44194 0
M  V30 1906 C 191.665 2.20596 -3.91991 0
M  V30 1907 C 192.984 3.66865 -2.431 0
M  V30 1908 H 190.103 0.523834 -0.518428 0
M  V30 1909 H 192.745 0.77576 -1.73442 0
M  V30 1910 H 190.895 3.2169 -2.17826 0
M  V30 1911 H 192.567 1.68783 -4.29313 0
M  V30 1912 H 190.81 1.52242 -4.06208 0
M  V30 1913 H 191.481 3.06921 -4.58807 0
M  V30 1914 H 193.957 3.19531 -2.66532 0
M  V30 1915 H 192.833 4.48577 -3.16339 0
M  V30 1916 H 193.094 4.17493 -1.45437 0
M  V30 1917 N 192.153 1.28127 0.917671 0
M  V30 1918 C 193.43 1.05761 1.64542 0
M  V30 1919 C 193.81 -0.404344 2.07191 0
M  V30 1920 O 193.158 -1.38963 1.81388 0
M  V30 1921 C 193.368 2.02857 2.83989 0
M  V30 1922 C 194.716 2.32786 3.551 0
M  V30 1923 O 195.74 2.0091 2.94132 0
M  V30 1924 O 194.599 2.87169 4.64969 0
M  V30 1925 H 191.693 0.403916 0.721652 0
M  V30 1926 H 194.239 1.39431 0.967322 0
M  V30 1927 H 193.011 3.01407 2.49538 0
M  V30 1928 H 192.634 1.69809 3.59514 0
M  V30 1929 N 193.631 -1.12557 1.10312 0
M  V30 1930 C 194.594 -2.16434 0.75424 0
M  V30 1931 C 195.594 -1.59278 -0.220685 0
M  V30 1932 O 196.784 -1.742 0.00230591 0
M  V30 1933 C 193.916 -3.40699 0.116987 0
M  V30 1934 H 195.109 -2.48811 1.67431 0
M  V30 1935 H 192.662 -1.27542 0.903475 0
M  V30 1936 H 193.397 -3.13921 -0.813877 0
M  V30 1937 H 193.182 -3.83459 0.818613 0
M  V30 1938 H 194.672 -4.17451 -0.111387 0
M  V30 1939 N 195.109 -0.891671 -1.2995 0
M  V30 1940 C 196.019 -0.367691 -2.31701 0
M  V30 1941 C 197.035 0.533486 -1.6562 0
M  V30 1942 O 198.211 0.424997 -1.96865 0
M  V30 1943 C 195.276 0.403406 -3.44345 0
M  V30 1944 C 194.337 -0.528328 -4.26037 0
M  V30 1945 C 193.57 0.206063 -5.33302 0
M  V30 1946 O 193.793 1.43119 -5.52153 0
M  V30 1947 O 192.727 -0.447281 -6.00236 0
M  V30 1948 H 196.553 -1.21163 -2.78484 0
M  V30 1949 H 194.138 -0.655725 -1.34241 0
M  V30 1950 H 196.02 0.839753 -4.12948 0
M  V30 1951 H 194.695 1.22354 -2.99685 0
M  V30 1952 H 193.602 -1.01362 -3.60106 0
M  V30 1953 H 194.935 -1.31465 -4.74318 0
M  V30 1954 N 196.587 1.43421 -0.653314 0
M  V30 1955 C 198.003 1.56341 -0.320886 0
M  V30 1956 C 198.203 1.63696 1.17499 0
M  V30 1957 O 197.259 1.59208 1.95982 0
M  V30 1958 C 198.572 2.82424 -1.03233 0
M  V30 1959 C 200.12 2.96168 -1.01259 0
M  V30 1960 C 200.595 4.25084 -1.70492 0
M  V30 1961 N 202.086 4.31948 -1.67257 0
M  V30 1962 C 202.821 5.30466 -2.17701 0
M  V30 1963 N 202.317 6.35261 -2.76434 0
M  V30 1964 N 204.11 5.2212 -2.082 0
M  V30 1965 H 196.261 1.3689 -1.62403 0
M  V30 1966 H 198.524 0.657455 -0.682977 0
M  V30 1967 H 198.23 2.83053 -2.08744 0
M  V30 1968 H 198.104 3.72653 -0.583948 0
M  V30 1969 H 200.491 2.9508 0.0341235 0
M  V30 1970 H 200.572 2.07229 -1.49966 0
M  V30 1971 H 200.216 4.26932 -2.7512 0
M  V30 1972 H 200.146 5.1292 -1.19251 0
M  V30 1973 H 202.637 3.56838 -1.24398 0
M  V30 1974 H 202.95 7.06754 -3.12601 0
M  V30 1975 H 201.295 6.35884 -2.80495 0
M  V30 1976 H 204.486 4.39166 -1.62021 0
M  V30 1977 H 204.659 5.98739 -2.47822 0
M  V30 1978 N 198.065 0.39524 1.52563 0
M  V30 1979 C 199.311 -0.185318 2.01952 0
M  V30 1980 C 199.644 -1.45964 1.28095 0
M  V30 1981 O 198.919 -1.90689 0.38315 0
M  V30 1982 C 199.202 -0.447193 3.57312 0
M  V30 1983 C 199.055 0.842828 4.41833 0
M  V30 1984 C 200.374 -1.23529 4.22408 0
M  V30 1985 H 197.493 -0.0658788 0.73405 0
M  V30 1986 H 200.135 0.525975 1.82575 0
M  V30 1987 H 198.285 -1.05312 3.73954 0
M  V30 1988 H 199.957 1.4795 4.36931 0
M  V30 1989 H 198.2 1.45686 4.08605 0
M  V30 1990 H 198.871 0.614165 5.48573 0
M  V30 1991 H 201.347 -0.722445 4.0978 0
M  V30 1992 H 200.223 -1.38727 5.3108 0
M  V30 1993 H 200.484 -2.25213 3.80436 0
M  V30 1994 N 199.544 -1.57102 0.125237 0
M  V30 1995 C 200.955 -1.82384 -0.399142 0
M  V30 1996 C 201.306 -1.04276 -1.66195 0
M  V30 1997 O 200.431 -0.281269 -2.14564 0
M  V30 1998 C 201.026 -3.30821 -0.730932 0
M  V30 1999 C 199.585 -3.56762 -1.19992 0
M  V30 2000 C 198.732 -2.7649 -0.211792 0
M  V30 2001 H 201.683 -1.54786 0.350277 0
M  V30 2002 H 201.704 -3.4579 -1.58775 0
M  V30 2003 H 201.216 -3.87643 0.188345 0
M  V30 2004 H 199.317 -3.05305 -2.13588 0
M  V30 2005 H 199.43 -4.65317 -1.14093 0
M  V30 2006 H 197.794 -2.4489 -0.700085 0
M  V30 2007 H 198.577 -3.36073 0.700691 0
M  V30 2008 N 201.022 0.148545 -1.56898 0
M  V30 2009 C 202.262 0.86765 -1.85071 0
M  V30 2010 C 202.626 1.78417 -0.709317 0
M  V30 2011 O 203.827 2.54261 -0.872049 0
M  V30 2012 C 202.098 1.62306 -3.1842 0
M  V30 2013 S 203.657 2.3878 -3.68143 0
M  V30 2014 H 200.475 0.290174 -0.649092 0
M  V30 2015 H 203.077 0.127755 -1.95082 0
M  V30 2016 H 201.781 0.941192 -3.99462 0
M  V30 2017 H 201.312 2.4039 -3.1141 0
M  V30 2018 H 203.327 3.63942 -3.37285 0
M  V30 2019 N 202.5 1.5196 0.417844 0
M  V30 2020 C 203.916 1.40569 0.755816 0
M  V30 2021 C 204.116 0.503316 1.95113 0
M  V30 2022 O 203.172 -0.0341925 2.52477 0
M  V30 2023 C 204.485 2.82947 1.01791 0
M  V30 2024 C 206.033 2.92231 1.12116 0
M  V30 2025 C 206.508 4.35559 1.41608 0
M  V30 2026 N 207.999 4.38753 1.48491 0
M  V30 2027 C 208.734 5.46705 1.7292 0
M  V30 2028 N 208.23 6.64788 1.95011 0
M  V30 2029 N 210.023 5.34209 1.74863 0
M  V30 2030 H 202.174 2.09168 -0.369098 0
M  V30 2031 H 204.437 0.942409 -0.102809 0
M  V30 2032 H 204.143 3.5106 0.212081 0
M  V30 2033 H 204.017 3.23462 1.94042 0
M  V30 2034 H 206.404 2.24304 1.9176 0
M  V30 2035 H 206.485 2.55185 0.177225 0
M  V30 2036 H 206.129 5.04042 0.624848 0
M  V30 2037 H 206.059 4.70133 2.37239 0
M  V30 2038 H 208.55 3.5363 1.33244 0
M  V30 2039 H 208.863 7.42845 2.13076 0
M  V30 2040 H 207.208 6.67869 1.92293 0
M  V30 2041 H 210.399 4.40937 1.57137 0
M  V30 2042 H 210.572 6.18415 1.93563 0
M  V30 2043 N 203.978 -0.674533 1.42435 0
M  V30 2044 C 204.928 -1.7807 1.4239 0
M  V30 2045 C 205.912 -1.58169 0.295202 0
M  V30 2046 O 207.104 -1.68643 0.537449 0
M  V30 2047 C 204.233 -3.16532 1.32901 0
M  V30 2048 C 203.319 -3.42055 2.50717 0
M  V30 2049 N 203.71 -3.38162 3.76139 0
M  V30 2050 C 202.008 -3.72692 2.44983 0
M  V30 2051 C 202.709 -3.63177 4.54398 0
M  V30 2052 N 201.685 -3.83954 3.84812 0
M  V30 2053 H 205.487 -1.73454 2.37257 0
M  V30 2054 H 203.001 -0.875381 1.36788 0
M  V30 2055 H 204.998 -3.958 1.30951 0
M  V30 2056 H 203.658 -3.22345 0.390363 0
M  V30 2057 H 204.669 -3.18057 4.0873 0
M  V30 2058 H 201.346 -3.85749 1.59699 0
M  V30 2059 H 202.736 -3.66125 5.63384 0
M  V30 2060 N 205.456 -1.28612 -0.910864 0
M  V30 2061 C 206.733 -1.06632 -1.63979 0
M  V30 2062 C 207.113 0.393351 -2.07403 0
M  V30 2063 O 206.461 1.37999 -1.82122 0
M  V30 2064 C 206.671 -2.0436 -2.8291 0
M  V30 2065 C 208.019 -2.34666 -3.5386 0
M  V30 2066 O 209.043 -2.02467 -2.93062 0
M  V30 2067 O 207.902 -2.89631 -4.63439 0
M  V30 2068 H 204.996 -0.407737 -0.7195 0
M  V30 2069 H 207.542 -1.39942 -0.959914 0
M  V30 2070 H 206.314 -3.02727 -2.47936 0
M  V30 2071 H 205.937 -1.71714 -3.58609 0
M  V30 2072 N 206.934 1.1197 -1.10907 0
M  V30 2073 C 208.211 1.79959 -0.766432 0
M  V30 2074 C 208.591 1.97466 0.746363 0
M  V30 2075 O 207.939 1.55491 1.67436 0
M  V30 2076 C 208.149 3.14009 -1.52314 0
M  V30 2077 C 209.497 3.89134 -1.69883 0
M  V30 2078 O 210.521 3.2368 -1.48692 0
M  V30 2079 O 209.38 5.06572 -2.05054 0
M  V30 2080 H 206.474 0.779208 -0.277062 0
M  V30 2081 H 209.02 1.18762 -1.21217 0
M  V30 2082 H 207.792 2.96587 -2.55249 0
M  V30 2083 H 207.415 3.82915 -1.07059 0
M  V30 2084 N 208.412 0.89855 1.29475 0
M  V30 2085 C 209.658 0.524658 1.95896 0
M  V30 2086 C 209.991 -0.926468 1.70676 0
M  V30 2087 O 209.266 -1.65665 1.01908 0
M  V30 2088 C 209.549 0.81633 3.50725 0
M  V30 2089 C 209.402 2.31907 3.85408 0
M  V30 2090 C 210.721 0.302038 4.39062 0
M  V30 2091 H 207.84 0.19209 0.711527 0
M  V30 2092 H 210.482 1.12502 1.53112 0
M  V30 2093 H 208.632 0.305369 3.87298 0
M  V30 2094 H 210.304 2.89949 3.58786 0
M  V30 2095 H 208.547 2.78027 3.32992 0
M  V30 2096 H 209.218 2.47373 4.93468 0
M  V30 2097 H 211.694 0.739551 4.09475 0
M  V30 2098 H 210.57 0.535331 5.46283 0
M  V30 2099 H 210.831 -0.797216 4.34853 0
M  V30 2100 N 209.89 -1.43072 0.660911 0
M  V30 2101 C 211.137 -2.01721 0.177445 0
M  V30 2102 C 211.465 -1.5218 -1.21126 0
M  V30 2103 O 210.72 -0.708659 -1.82419 0
M  V30 2104 C 211.019 -3.57103 0.145563 0
M  V30 2105 C 210.685 -4.26021 1.47705 0
M  V30 2106 C 209.347 -4.44563 1.84165 0
M  V30 2107 C 211.699 -4.64983 2.35458 0
M  V30 2108 C 209.027 -4.99334 3.0803 0
M  V30 2109 C 211.379 -5.21127 3.58622 0
M  V30 2110 C 210.043 -5.37884 3.95268 0
M  V30 2111 H 209.313 -0.73815 0.0649317 0
M  V30 2112 H 211.96 -1.71446 0.853144 0
M  V30 2113 H 210.265 -3.86965 -0.61361 0
M  V30 2114 H 211.962 -4.00248 -0.2455 0
M  V30 2115 H 208.552 -4.11939 1.18339 0
M  V30 2116 H 212.736 -4.50343 2.08579 0
M  V30 2117 H 207.992 -5.10493 3.36462 0
M  V30 2118 H 212.166 -5.50262 4.26831 0
M  V30 2119 H 209.793 -5.80089 4.91325 0
M  V30 2120 N 211.368 -0.403325 -1.52352 0
M  V30 2121 C 212.615 0.174347 -2.01748 0
M  V30 2122 C 212.943 1.45636 -1.2892 0
M  V30 2123 O 212.198 1.9193 -0.382258 0
M  V30 2124 C 212.497 0.474665 -3.54234 0
M  V30 2125 C 212.163 -0.717458 -4.45155 0
M  V30 2126 C 210.825 -1.04447 -4.69728 0
M  V30 2127 C 213.177 -1.51432 -4.98716 0
M  V30 2128 C 210.505 -2.16963 -5.45109 0
M  V30 2129 C 212.857 -2.6302 -5.75329 0
M  V30 2130 C 211.521 -2.96213 -5.98175 0
M  V30 2131 H 210.791 0.0637981 -0.738248 0
M  V30 2132 H 213.438 -0.543553 -1.83624 0
M  V30 2133 H 211.743 1.27406 -3.70506 0
M  V30 2134 H 213.44 0.934496 -3.89959 0
M  V30 2135 H 210.03 -0.452596 -4.26204 0
M  V30 2136 H 214.214 -1.27491 -4.79645 0
M  V30 2137 H 209.47 -2.43034 -5.61021 0
M  V30 2138 H 213.644 -3.25158 -6.15829 0
M  V30 2139 H 211.271 -3.83516 -6.56368 0
M  V30 2140 N 212.846 1.57033 -0.133567 0
M  V30 2141 C 214.257 1.82593 0.389464 0
M  V30 2142 C 214.608 1.05156 1.6564 0
M  V30 2143 O 213.733 0.292644 2.14412 0
M  V30 2144 C 214.328 3.31204 0.713377 0
M  V30 2145 C 212.887 3.57393 1.18098 0
M  V30 2146 C 212.034 2.76598 0.197126 0
M  V30 2147 H 214.985 1.54598 -0.358481 0
M  V30 2148 H 215.006 3.46627 1.56939 0
M  V30 2149 H 214.518 3.87537 -0.2089 0
M  V30 2150 H 212.619 3.06433 2.11966 0
M  V30 2151 H 212.732 4.65915 1.11624 0
M  V30 2152 H 211.096 2.45257 0.687088 0
M  V30 2153 H 211.879 3.35697 -0.718504 0
M  V30 2154 N 214.325 -0.140222 1.56975 0
M  V30 2155 C 215.736 -0.699596 1.73097 0
M  V30 2156 C 216.087 -1.8134 0.749022 0
M  V30 2157 O 215.212 -2.16241 -0.0828503 0
M  V30 2158 C 215.807 -1.27582 3.1386 0
M  V30 2159 C 214.366 -1.78169 3.31561 0
M  V30 2160 C 213.513 -0.672855 2.69013 0
M  V30 2161 H 216.464 0.0855115 1.58469 0
M  V30 2162 H 216.485 -2.14561 3.14235 0
M  V30 2163 H 215.997 -0.464955 3.85305 0
M  V30 2164 H 214.098 -2.61801 2.65124 0
M  V30 2165 H 214.211 -1.90574 4.39566 0
M  V30 2166 H 212.575 -1.10118 2.29665 0
M  V30 2167 H 213.358 0.126679 3.43066 0
M  V30 2168 N 215.803 -1.52179 -0.40978 0
M  V30 2169 C 217.028 -1.70347 -1.18308 0
M  V30 2170 C 217.453 -0.411887 -1.83535 0
M  V30 2171 O 216.811 0.630587 -1.6998 0
M  V30 2172 C 216.859 -2.83977 -2.22238 0
M  V30 2173 O 215.963 -2.495 -3.28365 0
M  V30 2174 H 215.304 -0.567103 -0.345384 0
M  V30 2175 H 217.834 -1.98879 -0.480445 0
M  V30 2176 H 217.844 -3.0887 -2.66577 0
M  V30 2177 H 216.519 -3.77685 -1.74146 0
M  V30 2178 H 215.096 -2.35277 -2.89308 0
M  V30 2179 N 217.281 0.66697 -1.42791 0
M  V30 2180 C 218.244 1.76211 -1.46568 0
M  V30 2181 C 219.244 1.56896 -0.352196 0
M  V30 2182 O 220.434 1.63044 -0.613364 0
M  V30 2183 C 217.566 3.14935 -1.30494 0
M  V30 2184 H 218.759 1.74247 -2.44086 0
M  V30 2185 H 216.312 0.877342 -1.29354 0
M  V30 2186 H 217.047 3.2252 -0.339301 0
M  V30 2187 H 216.832 3.30359 -2.11199 0
M  V30 2188 H 218.322 3.94821 -1.36038 0
M  V30 2189 N 218.759 1.29093 0.90403 0
M  V30 2190 C 219.984 1.19809 1.69294 0
M  V30 2191 C 220.409 -0.238481 1.86582 0
M  V30 2192 O 219.767 -1.1723 1.383 0
M  V30 2193 C 219.815 1.91202 3.05736 0
M  V30 2194 O 218.919 1.22611 3.93752 0
M  V30 2195 H 218.26 0.415385 0.518027 0
M  V30 2196 H 220.79 1.70586 1.12967 0
M  V30 2197 H 220.8 1.99487 3.55906 0
M  V30 2198 H 219.475 2.95692 2.92471 0
M  V30 2199 H 218.052 1.22554 3.52186 0
M  V30 2200 N 220.237 -1.11381 1.11499 0
M  V30 2201 C 221.484 -1.83132 0.864231 0
M  V30 2202 C 221.812 -1.84683 -0.610114 0
M  V30 2203 O 221.067 -1.29589 -1.46646 0
M  V30 2204 C 221.366 -3.30026 1.37177 0
M  V30 2205 C 221.032 -3.48634 2.85946 0
M  V30 2206 C 219.694 -3.53421 3.26569 0
M  V30 2207 C 222.046 -3.54837 3.81759 0
M  V30 2208 C 219.374 -3.61967 4.61733 0
M  V30 2209 C 221.726 -3.64915 5.1674 0
M  V30 2210 C 220.39 -3.67962 5.5692 0
M  V30 2211 H 219.66 -0.670127 0.316245 0
M  V30 2212 H 222.307 -1.31354 1.3935 0
M  V30 2213 H 220.612 -3.84304 0.762753 0
M  V30 2214 H 222.309 -3.84034 1.15408 0
M  V30 2215 H 218.899 -3.45579 2.53521 0
M  V30 2216 H 223.083 -3.50399 3.51474 0
M  V30 2217 H 218.339 -3.62603 4.92269 0
M  V30 2218 H 222.513 -3.68658 5.90816 0
M  V30 2219 H 220.14 -3.74336 6.61647 0
M  V30 2220 N 221.715 -0.905404 -1.28997 0
M  V30 2221 C 223.131 -0.60233 -1.47798 0
M  V30 2222 C 223.331 0.854645 -1.82478 0
M  V30 2223 O 222.387 1.63439 -1.92468 0
M  V30 2224 C 223.7 -1.53306 -2.58685 0
M  V30 2225 C 225.248 -1.53887 -2.72558 0
M  V30 2226 C 225.723 -2.45602 -3.86579 0
M  V30 2227 N 227.214 -2.43681 -3.93921 0
M  V30 2228 C 227.949 -3.11347 -4.81509 0
M  V30 2229 N 227.445 -3.88313 -5.73746 0
M  V30 2230 N 229.238 -3.00476 -4.75048 0
M  V30 2231 H 221.389 -1.84765 -1.04764 0
M  V30 2232 H 223.652 -0.792025 -0.520961 0
M  V30 2233 H 223.358 -2.57141 -2.39941 0
M  V30 2234 H 223.232 -1.25787 -3.55609 0
M  V30 2235 H 225.619 -0.507941 -2.90696 0
M  V30 2236 H 225.7 -1.85447 -1.76191 0
M  V30 2237 H 225.344 -3.48792 -3.69197 0
M  V30 2238 H 225.274 -2.11349 -4.82327 0
M  V30 2239 H 227.765 -1.87767 -3.27951 0
M  V30 2240 H 228.078 -4.36985 -6.37389 0
M  V30 2241 H 226.423 -3.92419 -5.73614 0
M  V30 2242 H 229.614 -2.39858 -4.01977 0
M  V30 2243 H 229.787 -3.53485 -5.43095 0
M  V30 2244 N 223.193 1.4272 -0.668489 0
M  V30 2245 C 224.439 2.01923 -0.188419 0
M  V30 2246 C 224.772 1.52704 1.19979 0
M  V30 2247 O 224.047 0.726566 1.8042 0
M  V30 2248 C 224.33 3.59451 -0.216085 0
M  V30 2249 C 224.183 4.18864 -1.6393 0
M  V30 2250 C 225.502 4.37903 0.439179 0
M  V30 2251 H 222.621 0.733674 -0.0699412 0
M  V30 2252 H 225.263 1.69822 -0.852076 0
M  V30 2253 H 223.413 3.86929 0.349012 0
M  V30 2254 H 225.085 4.02362 -2.25616 0
M  V30 2255 H 223.328 3.74933 -2.18193 0
M  V30 2256 H 223.999 5.27987 -1.61039 0
M  V30 2257 H 226.475 4.16079 -0.0417878 0
M  V30 2258 H 225.351 5.47519 0.389157 0
M  V30 2259 H 225.612 4.15303 1.51577 0
M  V30 2260 N 224.671 0.411399 1.52136 0
M  V30 2261 C 225.919 -0.163322 2.01439 0
M  V30 2262 C 226.24 -1.45453 1.29879 0
M  V30 2263 O 225.51 -1.91225 0.4254 0
M  V30 2264 H 224.09 -0.0633447 0.744309 0
M  V30 2265 H 226.752 0.548161 1.87033 0
M  V30 2266 H 225.848 -0.357817 3.10042 0
M  V30 2267 N 226.149 -1.5696 0.141893 0
M  V30 2268 C 227.079 -2.19516 -0.795936 0
M  V30 2269 C 228.06 -1.14187 -1.26077 0
M  V30 2270 O 229.245 -1.42511 -1.31925 0
M  V30 2271 C 226.375 -2.81272 -2.03723 0
M  V30 2272 C 225.329 -3.92384 -1.70936 0
M  V30 2273 C 224.655 -4.41052 -3.02287 0
M  V30 2274 C 225.955 -5.13403 -0.959954 0
M  V30 2275 H 227.649 -2.98138 -0.274596 0
M  V30 2276 H 225.195 -1.43406 -0.130636 0
M  V30 2277 H 227.148 -3.237 -2.69808 0
M  V30 2278 H 225.872 -1.99973 -2.58221 0
M  V30 2279 H 224.531 -3.50566 -1.07232 0
M  V30 2280 H 224.179 -3.56582 -3.54765 0
M  V30 2281 H 223.879 -5.15993 -2.81114 0
M  V30 2282 H 225.403 -4.86146 -3.69451 0
M  V30 2283 H 226.817 -5.52706 -1.52279 0
M  V30 2284 H 225.214 -5.94073 -0.848357 0
M  V30 2285 H 226.284 -4.84875 0.0492434 0
M  V30 2286 N 227.627 0.131896 -1.57047 0
M  V30 2287 C 228.875 0.840269 -1.83804 0
M  V30 2288 C 229.196 1.81017 -0.72512 0
M  V30 2289 O 228.466 1.94272 0.251995 0
M  V30 2290 H 227.046 0.313294 -0.678127 0
M  V30 2291 H 229.708 0.122294 -1.94516 0
M  V30 2292 H 228.804 1.39335 -2.79271 0
M  V30 2293 N 229.106 1.52395 0.401703 0
M  V30 2294 C 230.517 1.58899 0.980202 0
M  V30 2295 C 230.868 0.434032 1.91339 0
M  V30 2296 O 229.993 -0.444619 2.11783 0
M  V30 2297 C 230.588 2.87994 1.78451 0
M  V30 2298 C 229.147 2.96953 2.31292 0
M  V30 2299 C 228.294 2.53903 1.11483 0
M  V30 2300 H 231.245 1.57657 0.18168 0
M  V30 2301 H 231.266 2.73765 2.64259 0
M  V30 2302 H 230.778 3.72035 1.10506 0
M  V30 2303 H 228.879 2.17422 3.02586 0
M  V30 2304 H 228.992 4.01344 2.61649 0
M  V30 2305 H 227.356 2.07925 1.47104 0
M  V30 2306 H 228.139 3.40326 0.450928 0
M  V30 2307 N 230.584 -0.659388 1.43143 0
M  V30 2308 C 231.832 -1.41654 1.44147 0
M  V30 2309 C 232.153 -1.94893 0.0645739 0
M  V30 2310 O 231.423 -1.74044 -0.899198 0
M  V30 2311 H 230.003 -0.525708 0.530697 0
M  V30 2312 H 232.665 -0.778097 1.78694 0
M  V30 2313 H 231.761 -2.26195 2.1504 0
M  V30 2314 N 232.062 -1.29571 -0.897171 0
M  V30 2315 C 233.025 -1.14913 -1.98312 0
M  V30 2316 C 234.025 -0.0838629 -1.60581 0
M  V30 2317 O 235.215 -0.331006 -1.71026 0
M  V30 2318 C 232.347 -0.757835 -3.3237 0
M  V30 2319 H 233.54 -2.11377 -2.12743 0
M  V30 2320 H 231.093 -1.12793 -1.08201 0
M  V30 2321 H 231.828 0.206837 -3.2364 0
M  V30 2322 H 231.613 -1.52755 -3.61121 0
M  V30 2323 H 233.103 -0.678408 -4.12053 0
M  V30 2324 N 233.54 1.10788 -1.12088 0
M  V30 2325 C 234.765 1.87002 -0.896949 0
M  V30 2326 C 235.19 1.79933 0.548261 0
M  V30 2327 O 234.548 1.16662 1.38779 0
M  V30 2328 C 234.596 3.3349 -1.37174 0
M  V30 2329 O 233.7 4.08745 -0.547831 0
M  V30 2330 H 233.041 0.580397 -0.322545 0
M  V30 2331 H 235.571 1.39996 -1.49206 0
M  V30 2332 H 235.581 3.84339 -1.36922 0
M  V30 2333 H 234.256 3.37951 -2.42408 0
M  V30 2334 H 232.833 3.6776 -0.617034 0
M  V30 2335 N 235.018 0.912232 1.28515 0
M  V30 2336 C 236.429 0.591352 1.77087 0
M  V30 2337 C 236.78 -0.8933 1.74684 0
M  V30 2338 O 235.905 -1.69876 1.34056 0
M  V30 2339 C 236.5 1.06668 3.2157 0
M  V30 2340 C 235.059 0.79675 3.67871 0
M  V30 2341 C 234.206 1.23427 2.48316 0
M  V30 2342 H 237.157 1.09365 1.15 0
M  V30 2343 H 237.178 0.407455 3.78312 0
M  V30 2344 H 236.69 2.14726 3.23287 0
M  V30 2345 H 234.791 -0.270679 3.71616 0
M  V30 2346 H 234.904 1.40343 4.58084 0
M  V30 2347 H 233.268 0.653036 2.46186 0
M  V30 2348 H 234.051 2.32316 2.52753 0
M  V30 2349 N 236.496 -1.42363 0.676048 0
M  V30 2350 C 237.742 -2.0182 0.199125 0
M  V30 2351 C 238.075 -1.53339 -1.19168 0
M  V30 2352 O 237.35 -0.736124 -1.80032 0
M  V30 2353 C 237.633 -3.59331 0.235144 0
M  V30 2354 C 237.486 -4.17989 1.66149 0
M  V30 2355 C 238.805 -4.3813 -0.41595 0
M  V30 2356 H 235.924 -0.733293 0.0738311 0
M  V30 2357 H 238.566 -1.69368 0.86107 0
M  V30 2358 H 236.716 -3.87109 -0.328487 0
M  V30 2359 H 238.388 -4.0116 2.27747 0
M  V30 2360 H 236.631 -3.7377 2.20178 0
M  V30 2361 H 237.302 -5.27126 1.63837 0
M  V30 2362 H 239.778 -4.16051 0.0638529 0
M  V30 2363 H 238.654 -5.47717 -0.360115 0
M  V30 2364 H 238.915 -4.16101 -1.49373 0
M  V30 2365 N 237.974 -0.419461 -1.51915 0
M  V30 2366 C 239.39 -0.0708431 -1.59443 0
M  V30 2367 C 239.59 1.41796 -1.43164 0
M  V30 2368 O 238.646 2.18596 -1.26381 0
M  V30 2369 C 239.959 -0.574991 -2.95151 0
M  V30 2370 C 241.507 -0.533867 -3.08413 0
M  V30 2371 C 241.982 -1.01469 -4.46618 0
M  V30 2372 N 243.473 -0.971939 -4.52888 0
M  V30 2373 C 244.208 -1.31505 -5.58116 0
M  V30 2374 N 243.704 -1.73014 -6.70849 0
M  V30 2375 N 245.497 -1.23436 -5.48379 0
M  V30 2376 H 237.648 -1.38836 -1.60743 0
M  V30 2377 H 239.911 -0.570998 -0.756747 0
M  V30 2378 H 239.617 -1.61597 -3.12377 0
M  V30 2379 H 239.491 0.00979777 -3.77199 0
M  V30 2380 H 241.878 0.498086 -2.90866 0
M  V30 2381 H 241.959 -1.15484 -2.28248 0
M  V30 2382 H 241.603 -2.04502 -4.6491 0
M  V30 2383 H 241.533 -0.370433 -5.25295 0
M  V30 2384 H 244.024 -0.666893 -3.71969 0
M  V30 2385 H 244.337 -1.97479 -7.47143 0
M  V30 2386 H 242.682 -1.76926 -6.72103 0
M  V30 2387 H 245.873 -0.908869 -4.59192 0
M  V30 2388 H 246.046 -1.50506 -6.30279 0
M  V30 2389 N 239.452 1.56882 -0.150215 0
M  V30 2390 C 240.698 1.96518 0.500834 0
M  V30 2391 C 241.031 1.03527 1.64304 0
M  V30 2392 O 240.306 0.0782751 1.94342 0
M  V30 2393 C 240.589 3.45822 1.00395 0
M  V30 2394 C 240.442 4.49591 -0.136983 0
M  V30 2395 C 241.761 3.97704 1.88467 0
M  V30 2396 H 238.88 0.714535 0.18058 0
M  V30 2397 H 241.522 1.88577 -0.232091 0
M  V30 2398 H 239.672 3.5272 1.62851 0
M  V30 2399 H 241.344 4.5477 -0.77343 0
M  V30 2400 H 239.587 4.26441 -0.795652 0
M  V30 2401 H 240.258 5.51402 0.256815 0
M  V30 2402 H 242.734 3.93304 1.35834 0
M  V30 2403 H 241.61 5.0263 2.20578 0
M  V30 2404 H 241.871 3.40252 2.82279 0
M  V30 2405 N 240.93 -0.123565 1.57115 0
M  V30 2406 C 242.346 -0.476961 1.52306 0
M  V30 2407 C 242.546 -1.82109 0.86248 0
M  V30 2408 O 241.602 -2.48586 0.442884 0
M  V30 2409 C 242.915 -0.465661 2.97073 0
M  V30 2410 C 244.463 -0.549534 3.08138 0
M  V30 2411 C 244.938 -0.568669 4.54456 0
M  V30 2412 N 246.429 -0.630237 4.58892 0
M  V30 2413 C 247.164 -0.666415 5.69514 0
M  V30 2414 N 246.66 -0.660514 6.89644 0
M  V30 2415 N 248.453 -0.709077 5.5761 0
M  V30 2416 H 240.604 0.757198 1.98445 0
M  V30 2417 H 242.867 0.278808 0.906074 0
M  V30 2418 H 242.573 0.454232 3.48754 0
M  V30 2419 H 242.447 -1.29513 3.54269 0
M  V30 2420 H 244.834 -1.45985 2.56461 0
M  V30 2421 H 244.915 0.307532 2.53945 0
M  V30 2422 H 244.559 0.337581 5.06777 0
M  V30 2423 H 244.489 -1.44256 5.06456 0
M  V30 2424 H 246.98 -0.641146 3.72421 0
M  V30 2425 H 247.293 -0.690616 7.69708 0
M  V30 2426 H 245.638 -0.628012 6.92157 0
M  V30 2427 H 248.829 -0.711019 4.62668 0
M  V30 2428 H 249.002 -0.733804 6.43832 0
M  V30 2429 N 242.408 -1.52605 -0.393616 0
M  V30 2430 C 243.633 -1.71592 -1.16495 0
M  V30 2431 C 244.058 -0.43133 -1.83088 0
M  V30 2432 O 243.416 0.612523 -1.7064 0
M  V30 2433 C 243.464 -2.86318 -2.19213 0
M  V30 2434 O 242.568 -2.52969 -3.257 0
M  V30 2435 H 241.909 -0.570734 -0.33935 0
M  V30 2436 H 244.439 -1.99377 -0.459324 0
M  V30 2437 H 244.449 -3.1168 -2.63286 0
M  V30 2438 H 243.124 -3.79511 -1.7013 0
M  V30 2439 H 241.701 -2.38332 -2.86797 0
M  V30 2440 N 243.887 0.651787 -1.4349 0
M  V30 2441 C 245.136 1.40754 -1.44469 0
M  V30 2442 C 245.449 1.95463 -0.0731845 0
M  V30 2443 O 246.655 2.71471 0.0395721 0
M  V30 2444 C 245.111 2.54735 -2.5424 0
M  V30 2445 C 244.719 2.06628 -3.97504 0
M  V30 2446 C 246.463 3.32092 -2.64414 0
M  V30 2447 C 244.37 3.17829 -4.98737 0
M  V30 2448 H 243.3 0.528862 -0.53742 0
M  V30 2449 H 245.951 0.703365 -1.69485 0
M  V30 2450 H 244.333 3.2763 -2.22428 0
M  V30 2451 H 245.507 1.40734 -4.38783 0
M  V30 2452 H 243.822 1.42146 -3.91387 0
M  V30 2453 H 246.419 4.14952 -3.37223 0
M  V30 2454 H 246.762 3.80217 -1.69532 0
M  V30 2455 H 247.295 2.66279 -2.95534 0
M  V30 2456 H 244.034 2.74671 -5.95177 0
M  V30 2457 H 243.554 3.82429 -4.62069 0
M  V30 2458 H 245.233 3.82937 -5.21505 0
M  V30 2459 N 245.365 1.30045 0.890287 0
M  V30 2460 C 246.59 1.21598 1.68014 0
M  V30 2461 C 247.015 -0.218678 1.86825 0
M  V30 2462 O 246.373 -1.15756 1.39536 0
M  V30 2463 C 246.421 1.94434 3.03691 0
M  V30 2464 O 245.525 1.2678 3.92429 0
M  V30 2465 H 244.866 0.420856 0.513592 0
M  V30 2466 H 247.396 1.71775 1.11151 0
M  V30 2467 H 247.406 2.03251 3.5377 0
M  V30 2468 H 246.081 2.98777 2.89318 0
M  V30 2469 H 244.658 1.26282 3.50866 0
M  V30 2470 N 246.843 -1.10192 1.12674 0
M  V30 2471 C 247.806 -2.14786 0.799979 0
M  V30 2472 C 248.806 -1.59711 -0.18685 0
M  V30 2473 O 249.996 -1.74156 0.0392558 0
M  V30 2474 C 247.128 -3.40374 0.189228 0
M  V30 2475 H 248.321 -2.45203 1.72671 0
M  V30 2476 H 245.874 -1.25597 0.930326 0
M  V30 2477 H 246.609 -3.15577 -0.747107 0
M  V30 2478 H 246.394 -3.81637 0.899766 0
M  V30 2479 H 247.884 -4.17594 -0.0228143 0
M  V30 2480 N 248.321 -0.919034 -1.28029 0
M  V30 2481 C 249.251 -0.428581 -2.29533 0
M  V30 2482 C 250.232 0.50659 -1.62381 0
M  V30 2483 O 251.417 0.413195 -1.89753 0
M  V30 2484 C 248.547 0.327388 -3.45753 0
M  V30 2485 C 247.501 -0.519137 -4.2484 0
M  V30 2486 C 246.827 0.365486 -5.33449 0
M  V30 2487 C 248.127 -1.77914 -4.91064 0
M  V30 2488 H 249.821 -1.27687 -2.70807 0
M  V30 2489 H 247.367 -0.615428 -1.30186 0
M  V30 2490 H 249.32 0.681378 -4.15855 0
M  V30 2491 H 248.044 1.20963 -3.03374 0
M  V30 2492 H 246.703 -0.855717 -3.56473 0
M  V30 2493 H 246.351 1.24642 -4.87312 0
M  V30 2494 H 246.051 -0.197356 -5.87268 0
M  V30 2495 H 247.575 0.715241 -6.06396 0
M  V30 2496 H 248.989 -1.49374 -5.53498 0
M  V30 2497 H 247.386 -2.2848 -5.54903 0
M  V30 2498 H 248.456 -2.50382 -4.15255 0
M  V30 2499 N 249.799 1.42003 -0.683588 0
M  V30 2500 C 251.047 2.01015 -0.209101 0
M  V30 2501 C 251.368 1.54365 1.19149 0
M  V30 2502 O 250.638 0.769083 1.80172 0
M  V30 2503 H 249.218 0.743294 -0.074315 0
M  V30 2504 H 251.88 1.73798 -0.882066 0
M  V30 2505 H 250.976 3.11343 -0.2172 0
M  V30 2506 N 251.277 0.427512 1.51691 0
M  V30 2507 C 252.693 0.0792977 1.59403 0
M  V30 2508 C 252.893 -1.41035 1.43914 0
M  V30 2509 O 251.949 -2.17922 1.27539 0
M  V30 2510 C 253.262 0.590636 2.94842 0
M  V30 2511 C 254.81 0.550215 3.08126 0
M  V30 2512 C 255.285 1.03836 4.46074 0
M  V30 2513 N 256.776 0.995943 4.52366 0
M  V30 2514 C 257.511 1.34463 5.57411 0
M  V30 2515 N 257.007 1.76569 6.69922 0
M  V30 2516 N 258.8 1.26343 5.47717 0
M  V30 2517 H 250.951 1.39687 1.60004 0
M  V30 2518 H 253.214 0.575003 0.753708 0
M  V30 2519 H 252.92 1.63251 3.11516 0
M  V30 2520 H 252.794 0.0102061 3.77199 0
M  V30 2521 H 255.181 -0.482654 2.91126 0
M  V30 2522 H 255.262 1.16693 2.27632 0
M  V30 2523 H 254.906 2.06965 4.63819 0
M  V30 2524 H 254.836 0.398286 5.25092 0
M  V30 2525 H 257.327 0.68661 3.7161 0
M  V30 2526 H 257.64 2.01438 7.46085 0
M  V30 2527 H 255.985 1.80488 6.71155 0
M  V30 2528 H 259.176 0.933209 4.58703 0
M  V30 2529 H 259.349 1.53846 6.29472 0
M  V30 2530 N 252.755 -1.56801 0.158532 0
M  V30 2531 C 253.983 -2.00859 -0.496303 0
M  V30 2532 C 254.398 -1.03871 -1.57659 0
M  V30 2533 O 253.755 -0.0375165 -1.82461 0
M  V30 2534 C 253.806 -3.4479 -1.08638 0
M  V30 2535 O 253.527 -4.38072 -0.0492322 0
M  V30 2536 C 255.028 -4.04185 -1.8207 0
M  V30 2537 H 252.248 -0.65864 -0.128199 0
M  V30 2538 H 254.792 -2.02885 0.256506 0
M  V30 2539 H 252.947 -3.43579 -1.78975 0
M  V30 2540 H 253.361 -5.2227 -0.483102 0
M  V30 2541 H 254.835 -5.06857 -2.18633 0
M  V30 2542 H 255.312 -3.45549 -2.71095 0
M  V30 2543 H 255.918 -4.0906 -1.16405 0
M  V30 2544 N 254.233 0.115231 -1.57178 0
M  V30 2545 C 255.48 0.822351 -1.8505 0
M  V30 2546 C 255.808 1.79701 -0.744168 0
M  V30 2547 O 255.063 1.93909 0.26414 0
M  V30 2548 C 255.362 1.60324 -3.19423 0
M  V30 2549 C 255.028 0.772536 -4.44233 0
M  V30 2550 C 253.69 0.543468 -4.78121 0
M  V30 2551 C 256.042 0.193746 -5.2084 0
M  V30 2552 C 253.37 -0.274583 -5.86057 0
M  V30 2553 C 255.722 -0.611517 -6.29637 0
M  V30 2554 C 254.386 -0.850867 -6.62055 0
M  V30 2555 H 253.656 0.30092 -0.677147 0
M  V30 2556 H 256.303 0.0845802 -1.91313 0
M  V30 2557 H 254.608 2.41203 -3.08753 0
M  V30 2558 H 256.305 2.1544 -3.38211 0
M  V30 2559 H 252.895 0.96117 -4.17683 0
M  V30 2560 H 257.079 0.357926 -4.95008 0
M  V30 2561 H 252.335 -0.469206 -6.09597 0
M  V30 2562 H 256.509 -1.06697 -6.88178 0
M  V30 2563 H 254.136 -1.48657 -7.45523 0
M  V30 2564 N 255.711 1.52812 0.385517 0
M  V30 2565 C 256.939 1.71907 1.15133 0
M  V30 2566 C 257.354 0.439004 1.83625 0
M  V30 2567 O 256.711 -0.586765 1.7281 0
M  V30 2568 C 256.762 2.87099 2.19673 0
M  V30 2569 O 256.483 4.10151 1.53973 0
M  V30 2570 C 257.984 3.17902 3.08955 0
M  V30 2571 H 255.204 0.575479 0.345057 0
M  V30 2572 H 257.748 1.99476 0.45052 0
M  V30 2573 H 255.903 2.61982 2.85384 0
M  V30 2574 H 256.317 4.74514 2.23465 0
M  V30 2575 H 257.791 4.01959 3.7833 0
M  V30 2576 H 258.268 2.3243 3.72657 0
M  V30 2577 H 258.874 3.44871 2.48885 0
M  V30 2578 N 257.189 -0.644168 1.43834 0
M  V30 2579 C 258.605 -0.960875 1.27434 0
M  V30 2580 C 258.805 -2.00499 0.200618 0
M  V30 2581 O 257.861 -2.49018 -0.417906 0
M  V30 2582 C 259.174 -1.43653 2.64167 0
M  V30 2583 C 260.722 -1.55271 2.71772 0
M  V30 2584 C 261.197 -2.06224 4.08944 0
M  V30 2585 N 262.688 -2.13513 4.11055 0
M  V30 2586 C 263.423 -2.54081 5.14033 0
M  V30 2587 N 262.919 -2.9388 6.27381 0
M  V30 2588 N 264.712 -2.54101 5.01387 0
M  V30 2589 H 256.863 0.0465779 2.12349 0
M  V30 2590 H 259.126 -0.0417638 0.94708 0
M  V30 2591 H 258.832 -0.743706 3.43747 0
M  V30 2592 H 258.706 -2.40993 2.90176 0
M  V30 2593 H 261.093 -2.23653 1.92519 0
M  V30 2594 H 261.174 -0.563395 2.49519 0
M  V30 2595 H 260.818 -1.38441 4.88668 0
M  V30 2596 H 260.748 -3.06003 4.28567 0
M  V30 2597 H 263.239 -1.85493 3.29242 0
M  V30 2598 H 263.552 -3.2361 7.01781 0
M  V30 2599 H 261.897 -2.91663 6.30839 0
M  V30 2600 H 265.088 -2.22391 4.11898 0
M  V30 2601 H 265.261 -2.85394 5.81768 0
M  V30 2602 N 258.668 -1.30515 -0.883378 0
M  V30 2603 C 259.945 -1.10086 -1.6168 0
M  V30 2604 C 260.325 0.349269 -2.08191 0
M  V30 2605 O 259.673 1.34105 -1.85008 0
M  V30 2606 C 259.883 -2.10315 -2.78511 0
M  V30 2607 C 261.231 -2.42119 -3.48803 0
M  V30 2608 O 262.255 -2.08638 -2.88702 0
M  V30 2609 O 261.114 -2.99396 -4.57192 0
M  V30 2610 H 258.208 -0.422907 -0.710689 0
M  V30 2611 H 260.754 -1.41947 -0.930015 0
M  V30 2612 H 259.526 -3.07917 -2.41459 0
M  V30 2613 H 259.149 -1.79282 -3.54886 0
M  V30 2614 N 260.146 1.09593 -1.13257 0
M  V30 2615 C 261.056 2.19739 -0.821691 0
M  V30 2616 C 262.072 1.72926 0.19302 0
M  V30 2617 O 263.248 2.01385 0.0244895 0
M  V30 2618 C 260.313 3.45482 -0.290333 0
M  V30 2619 C 259.374 4.06985 -1.36607 0
M  V30 2620 C 258.607 5.26726 -0.859975 0
M  V30 2621 O 258.83 5.69594 0.303082 0
M  V30 2622 O 257.764 5.7931 -1.63351 0
M  V30 2623 H 261.59 2.48781 -1.74189 0
M  V30 2624 H 259.175 1.18496 -0.909894 0
M  V30 2625 H 261.057 4.214 0.000674022 0
M  V30 2626 H 259.732 3.18047 0.602306 0
M  V30 2627 H 258.639 3.32712 -1.71037 0
M  V30 2628 H 259.972 4.38643 -2.23279 0
M  V30 2629 N 261.624 0.925811 1.2754 0
M  V30 2630 C 262.901 0.483726 1.89524 0
M  V30 2631 C 263.281 -1.03809 1.83812 0
M  V30 2632 O 262.629 -1.89143 1.28207 0
M  V30 2633 C 262.839 1.02769 3.33526 0
M  V30 2634 C 264.187 1.08703 4.10449 0
M  V30 2635 O 265.211 0.977175 3.42534 0
M  V30 2636 O 264.07 1.25599 5.31871 0
M  V30 2637 H 261.164 0.15529 0.812289 0
M  V30 2638 H 263.71 1.01738 1.35822 0
M  V30 2639 H 262.482 2.07155 3.31967 0
M  V30 2640 H 262.105 0.475567 3.94746 0
M  V30 2641 N 263.102 -1.41638 0.69111 0
M  V30 2642 C 264.032 -2.3347 0.037248 0
M  V30 2643 C 265.013 -1.51575 -0.771947 0
M  V30 2644 O 266.198 -1.80126 -0.72582 0
M  V30 2645 C 263.328 -3.35354 -0.903064 0
M  V30 2646 C 262.282 -4.27526 -0.201288 0
M  V30 2647 C 261.608 -5.19747 -1.25565 0
M  V30 2648 C 262.908 -5.13959 0.929689 0
M  V30 2649 H 264.602 -2.88397 0.804227 0
M  V30 2650 H 262.148 -1.38669 0.388189 0
M  V30 2651 H 264.101 -3.98519 -1.36969 0
M  V30 2652 H 262.825 -2.78767 -1.70166 0
M  V30 2653 H 261.484 -3.65779 0.245265 0
M  V30 2654 H 261.132 -4.59479 -2.04666 0
M  V30 2655 H 260.832 -5.8225 -0.791128 0
M  V30 2656 H 262.356 -5.85789 -1.72288 0
M  V30 2657 H 263.77 -5.70718 0.543546 0
M  V30 2658 H 262.167 -5.85379 1.32103 0
M  V30 2659 H 263.237 -4.51389 1.77133 0
M  V30 2660 N 264.58 -0.43555 -1.51462 0
M  V30 2661 C 265.543 0.365137 -2.26273 0
M  V30 2662 C 266.543 0.951227 -1.29647 0
M  V30 2663 O 267.733 0.825958 -1.53374 0
M  V30 2664 C 264.865 1.51645 -3.05314 0
M  V30 2665 H 266.058 -0.290474 -2.9849 0
M  V30 2666 H 263.611 -0.188676 -1.55157 0
M  V30 2667 H 264.346 2.20816 -2.3751 0
M  V30 2668 H 264.131 1.10238 -3.76284 0
M  V30 2669 H 265.621 2.08218 -3.61987 0
M  V30 2670 N 266.058 1.56714 -0.166846 0
M  V30 2671 C 267.304 1.97039 0.479962 0
M  V30 2672 C 267.637 1.05264 1.63197 0
M  V30 2673 O 266.912 0.0988833 1.94248 0
M  V30 2674 C 267.195 3.46867 0.967212 0
M  V30 2675 C 267.048 4.49421 -0.18466 0
M  V30 2676 C 268.367 3.9968 1.84238 0
M  V30 2677 H 265.486 0.71641 0.172992 0
M  V30 2678 H 268.128 1.8832 -0.252079 0
M  V30 2679 H 266.278 3.54428 1.59101 0
M  V30 2680 H 267.95 4.53924 -0.821621 0
M  V30 2681 H 266.193 4.25573 -0.840837 0
M  V30 2682 H 266.864 5.51644 0.198317 0
M  V30 2683 H 269.34 3.94723 1.31655 0
M  V30 2684 H 268.216 5.04941 2.15234 0
M  V30 2685 H 268.477 3.43226 2.78654 0
M  V30 2686 N 267.536 -0.106894 1.57237 0
M  V30 2687 C 268.783 -0.812526 1.85484 0
M  V30 2688 C 269.111 -1.79304 0.753687 0
M  V30 2689 O 268.366 -1.94047 -0.253853 0
M  V30 2690 C 268.665 -1.58628 3.20268 0
M  V30 2691 C 268.331 -0.748967 4.44636 0
M  V30 2692 C 266.993 -0.518104 4.78403 0
M  V30 2693 C 269.345 -0.166122 5.20935 0
M  V30 2694 C 266.673 0.305659 5.85903 0
M  V30 2695 C 269.025 0.644899 6.29304 0
M  V30 2696 C 267.689 0.885965 6.61594 0
M  V30 2697 H 266.959 -0.297324 0.678734 0
M  V30 2698 H 269.606 -0.0744332 1.91355 0
M  V30 2699 H 267.911 -2.39562 3.10028 0
M  V30 2700 H 269.608 -2.13643 3.39349 0
M  V30 2701 H 266.198 -0.939006 4.18187 0
M  V30 2702 H 270.382 -0.33167 4.95191 0
M  V30 2703 H 265.638 0.501528 6.0934 0
M  V30 2704 H 269.812 1.10345 6.87602 0
M  V30 2705 H 267.439 1.52609 7.44725 0
M  V30 2706 N 269.014 -1.53014 -0.377408 0
M  V30 2707 C 269.944 -1.81589 -1.46791 0
M  V30 2708 C 270.925 -0.668622 -1.56408 0
M  V30 2709 O 272.11 -0.917337 -1.71168 0
M  V30 2710 C 269.24 -1.99519 -2.8427 0
M  V30 2711 C 268.194 -3.15249 -2.89486 0
M  V30 2712 C 267.52 -3.18451 -4.29527 0
M  V30 2713 C 268.82 -4.54084 -2.58079 0
M  V30 2714 H 270.514 -2.7291 -1.23127 0
M  V30 2715 H 268.06 -1.31319 -0.590883 0
M  V30 2716 H 270.013 -2.18092 -3.60575 0
M  V30 2717 H 268.737 -1.04897 -3.09296 0
M  V30 2718 H 267.396 -2.96477 -2.15631 0
M  V30 2719 H 267.044 -2.2149 -4.5161 0
M  V30 2720 H 266.744 -3.962 -4.33934 0
M  V30 2721 H 268.268 -3.39193 -5.07721 0
M  V30 2722 H 269.682 -4.72899 -3.24098 0
M  V30 2723 H 268.079 -5.33987 -2.7382 0
M  V30 2724 H 269.149 -4.60006 -1.53372 0
M  V30 2725 N 270.492 0.636531 -1.44174 0
M  V30 2726 C 271.455 1.73063 -1.50273 0
M  V30 2727 C 272.455 1.56113 -0.385397 0
M  V30 2728 O 273.645 1.61707 -0.64781 0
M  V30 2729 C 270.777 3.12096 -1.37145 0
M  V30 2730 H 271.97 1.69031 -2.47727 0
M  V30 2731 H 269.523 0.849706 -1.31186 0
M  V30 2732 H 270.258 3.21728 -0.407636 0
M  V30 2733 H 270.043 3.25805 -2.18159 0
M  V30 2734 H 271.533 3.91846 -1.44382 0
M  V30 2735 N 271.97 1.30982 0.876444 0
M  V30 2736 C 273.195 1.23373 1.66715 0
M  V30 2737 C 273.62 -0.19885 1.87046 0
M  V30 2738 O 272.978 -1.1427 1.40756 0
M  V30 2739 C 273.026 1.97644 3.01611 0
M  V30 2740 O 272.13 1.30935 3.91062 0
M  V30 2741 H 271.471 0.426279 0.509099 0
M  V30 2742 H 274.001 1.72944 1.09323 0
M  V30 2743 H 274.011 2.06992 3.51594 0
M  V30 2744 H 272.686 3.01829 2.86133 0
M  V30 2745 H 271.263 1.29996 3.49507 0
M  V30 2746 N 273.449 -1.08991 1.13837 0
M  V30 2747 C 274.865 -1.33312 0.877506 0
M  V30 2748 C 275.065 -1.95587 -0.48456 0
M  V30 2749 O 274.121 -2.20509 -1.23013 0
M  V30 2750 C 275.434 -2.24045 2.0056 0
M  V30 2751 C 276.982 -2.37542 2.03821 0
M  V30 2752 C 277.457 -3.31614 3.15905 0
M  V30 2753 N 278.948 -3.39189 3.15445 0
M  V30 2754 C 279.683 -4.11992 3.98811 0
M  V30 2755 N 279.179 -4.87553 4.92203 0
M  V30 2756 N 280.972 -4.07762 3.86894 0
M  V30 2757 H 273.123 -0.669456 2.01574 0
M  V30 2758 H 275.386 -0.357482 0.878015 0
M  V30 2759 H 275.092 -1.85521 2.98789 0
M  V30 2760 H 274.966 -3.24466 1.92359 0
M  V30 2761 H 277.353 -2.75327 1.06202 0
M  V30 2762 H 277.434 -1.36884 2.16093 0
M  V30 2763 H 277.078 -2.94551 4.13766 0
M  V30 2764 H 277.008 -4.32186 3.0087 0
M  V30 2765 H 279.499 -2.85314 2.47799 0
M  V30 2766 H 279.812 -5.40549 5.52292 0
M  V30 2767 H 278.157 -4.86627 4.96205 0
M  V30 2768 H 281.348 -3.47833 3.13257 0
M  V30 2769 H 281.521 -4.64238 4.52092 0
M  V30 2770 N 274.927 -0.932562 -1.27047 0
M  V30 2771 C 275.89 -0.440064 -2.24936 0
M  V30 2772 C 276.89 0.444071 -1.54547 0
M  V30 2773 O 278.08 0.244465 -1.72476 0
M  V30 2774 C 275.212 0.36678 -3.38921 0
M  V30 2775 H 276.405 -1.305 -2.70018 0
M  V30 2776 H 273.958 -0.713707 -1.39054 0
M  V30 2777 H 274.693 1.25033 -2.99228 0
M  V30 2778 H 274.478 -0.267204 -3.91188 0
M  V30 2779 H 275.968 0.701567 -4.11665 0
M  V30 2780 N 276.405 1.4127 -0.698611 0
M  V30 2781 C 277.653 2.00782 -0.230409 0
M  V30 2782 C 277.974 1.5562 1.17505 0
M  V30 2783 O 277.244 0.78815 1.79346 0
M  V30 2784 H 275.824 0.742464 -0.0821944 0
M  V30 2785 H 278.486 1.72852 -0.90045 0
M  V30 2786 H 277.582 3.11095 -0.25021 0
M  V30 2787 N 277.883 0.443576 1.51229 0
M  V30 2788 C 279.299 0.0962001 1.5931 0
M  V30 2789 C 279.499 -1.39501 1.45402 0
M  V30 2790 O 278.555 -2.16557 1.29843 0
M  V30 2791 C 279.868 0.621875 2.94199 0
M  V30 2792 C 281.416 0.582865 3.07525 0
M  V30 2793 C 281.891 1.08562 4.44948 0
M  V30 2794 N 283.382 1.04387 4.51284 0
M  V30 2795 C 284.117 1.40368 5.55954 0
M  V30 2796 N 283.613 1.83664 6.68011 0
M  V30 2797 N 285.406 1.32145 5.46346 0
M  V30 2798 H 277.557 1.41376 1.58514 0
M  V30 2799 H 279.82 0.582965 0.747567 0
M  V30 2800 H 279.526 1.66546 3.09767 0
M  V30 2801 H 279.4 0.0502125 3.77167 0
M  V30 2802 H 281.787 -0.451749 2.91622 0
M  V30 2803 H 281.868 1.191 2.26382 0
M  V30 2804 H 281.512 2.11873 4.61598 0
M  V30 2805 H 281.442 0.453956 5.2464 0
M  V30 2806 H 283.933 0.725986 3.70861 0
M  V30 2807 H 284.246 2.0934 7.43906 0
M  V30 2808 H 282.591 1.87596 6.69203 0
M  V30 2809 H 285.782 0.981808 4.57688 0
M  V30 2810 H 285.955 1.60514 6.27805 0
M  V30 2811 N 279.361 -1.56624 0.175154 0
M  V30 2812 C 280.291 -2.21155 -0.749195 0
M  V30 2813 C 281.272 -1.16836 -1.23626 0
M  V30 2814 O 282.457 -1.45277 -1.28873 0
M  V30 2815 C 279.587 -2.8553 -1.97711 0
M  V30 2816 C 278.541 -3.95921 -1.62575 0
M  V30 2817 C 277.867 -4.47365 -2.92864 0
M  V30 2818 C 279.167 -5.15323 -0.850838 0
M  V30 2819 H 280.861 -2.98653 -0.211295 0
M  V30 2820 H 278.407 -1.43651 -0.100188 0
M  V30 2821 H 280.36 -3.2935 -2.62881 0
M  V30 2822 H 279.084 -2.05406 -2.53921 0
M  V30 2823 H 277.743 -3.52762 -0.997719 0
M  V30 2824 H 277.391 -3.64027 -3.47122 0
M  V30 2825 H 277.091 -5.21839 -2.70106 0
M  V30 2826 H 278.615 -4.93873 -3.59056 0
M  V30 2827 H 280.029 -5.55812 -1.40521 0
M  V30 2828 H 278.426 -5.95739 -0.722154 0
M  V30 2829 H 279.496 -4.84661 0.152082 0
M  V30 2830 N 280.839 0.0985539 -1.57292 0
M  V30 2831 C 282.255 0.45267 -1.53046 0
M  V30 2832 C 282.455 1.80713 -0.891342 0
M  V30 2833 O 281.511 2.4785 -0.482375 0
M  V30 2834 C 282.824 0.418341 -2.97776 0
M  V30 2835 C 284.372 0.500443 -3.08973 0
M  V30 2836 C 284.847 0.496297 -4.55303 0
M  V30 2837 N 286.338 0.557151 -4.59837 0
M  V30 2838 C 287.073 0.575726 -5.70502 0
M  V30 2839 N 286.569 0.550714 -6.90608 0
M  V30 2840 N 288.362 0.620277 -5.58667 0
M  V30 2841 H 280.513 -0.788673 -1.97215 0
M  V30 2842 H 282.776 -0.293188 -0.901524 0
M  V30 2843 H 282.482 -0.509659 -3.47988 0
M  V30 2844 H 282.356 1.2386 -3.56284 0
M  V30 2845 H 284.743 1.41886 -2.58751 0
M  V30 2846 H 284.824 -0.347894 -2.53423 0
M  V30 2847 H 284.468 -0.418162 -5.06176 0
M  V30 2848 H 284.398 1.3618 -5.08687 0
M  V30 2849 H 286.889 0.581816 -3.73394 0
M  V30 2850 H 287.202 0.568075 -7.70709 0
M  V30 2851 H 285.547 0.517816 -6.93068 0
M  V30 2852 H 288.738 0.637322 -4.63741 0
M  V30 2853 H 288.911 0.631283 -6.44918 0
M  V30 2854 N 282.317 1.53212 0.369288 0
M  V30 2855 C 283.564 1.69215 1.11232 0
M  V30 2856 C 283.892 0.442048 1.8941 0
M  V30 2857 O 283.147 -0.575944 1.87033 0
M  V30 2858 C 283.446 2.89101 2.10132 0
M  V30 2859 C 283.112 4.25758 1.48463 0
M  V30 2860 C 281.774 4.6292 1.31372 0
M  V30 2861 C 284.126 5.10757 1.03811 0
M  V30 2862 C 281.454 5.82722 0.68207 0
M  V30 2863 C 283.806 6.31201 0.420487 0
M  V30 2864 C 282.47 6.67079 0.237038 0
M  V30 2865 H 281.74 0.619201 0.407027 0
M  V30 2866 H 284.387 1.87391 0.394552 0
M  V30 2867 H 282.692 2.65421 2.88199 0
M  V30 2868 H 284.389 2.98676 2.6757 0
M  V30 2869 H 280.979 3.96494 1.62758 0
M  V30 2870 H 285.163 4.82599 1.1581 0
M  V30 2871 H 280.419 6.09113 0.528316 0
M  V30 2872 H 284.593 6.96368 0.0662874 0
M  V30 2873 H 282.22 7.59774 -0.254477 0
M  V30 2874 N 283.795 -0.628877 1.44509 0
M  V30 2875 C 284.745 -1.7345 1.47983 0
M  V30 2876 C 285.729 -1.5715 0.345373 0
M  V30 2877 O 286.921 -1.66848 0.590829 0
M  V30 2878 C 284.05 -3.12143 1.42904 0
M  V30 2879 C 283.136 -3.33906 2.61472 0
M  V30 2880 N 283.527 -3.26024 3.86706 0
M  V30 2881 C 281.825 -3.64709 2.56716 0
M  V30 2882 C 282.526 -3.48536 4.65722 0
M  V30 2883 N 281.502 -3.71517 3.96832 0
M  V30 2884 H 285.304 -1.65818 2.42655 0
M  V30 2885 H 282.818 -0.831419 1.39503 0
M  V30 2886 H 284.815 -3.91433 1.43476 0
M  V30 2887 H 283.475 -3.2094 0.492717 0
M  V30 2888 H 284.486 -3.04893 4.18641 0
M  V30 2889 H 281.163 -3.80473 1.71891 0
M  V30 2890 H 282.553 -3.48016 5.74747 0
M  V30 2891 N 285.273 -1.31445 -0.869486 0
M  V30 2892 C 286.521 -1.20918 -1.61936 0
M  V30 2893 C 286.842 0.232683 -1.93607 0
M  V30 2894 O 286.112 1.15352 -1.58338 0
M  V30 2895 H 284.692 -0.44454 -0.600328 0
M  V30 2896 H 287.354 -1.64776 -1.0409 0
M  V30 2897 H 286.45 -1.78124 -2.56278 0
M  V30 2898 N 286.751 1.08385 -1.14413 0
M  V30 2899 C 288.162 1.62258 -0.923535 0
M  V30 2900 C 288.513 1.88691 0.537595 0
M  V30 2901 O 287.638 1.64454 1.40655 0
M  V30 2902 C 288.233 2.94781 -1.67002 0
M  V30 2903 C 286.792 3.45437 -1.495 0
M  V30 2904 C 285.939 2.19668 -1.69238 0
M  V30 2905 H 288.89 0.916086 -1.2959 0
M  V30 2906 H 288.911 3.63229 -1.13334 0
M  V30 2907 H 288.423 2.7551 -2.73342 0
M  V30 2908 H 286.524 3.6981 -0.455097 0
M  V30 2909 H 286.637 4.22173 -2.2651 0
M  V30 2910 H 285.001 2.28849 -1.11804 0
M  V30 2911 H 285.784 2.02905 -2.7692 0
M  V30 2912 N 288.23 0.939286 1.26551 0
M  V30 2913 C 289.478 0.58469 1.93457 0
M  V30 2914 C 289.799 -0.878774 1.74076 0
M  V30 2915 O 289.069 -1.62421 1.09528 0
M  V30 2916 H 287.649 0.21325 0.715914 0
M  V30 2917 H 290.311 1.1942 1.54029 0
M  V30 2918 H 289.407 0.800849 3.0165 0
M  V30 2919 N 289.708 -1.40897 0.706093 0
M  V30 2920 C 290.671 -2.29131 0.0562841 0
M  V30 2921 C 291.671 -1.44901 -0.697166 0
M  V30 2922 O 292.861 -1.65926 -0.530484 0
M  V30 2923 C 289.993 -3.27957 -0.93043 0
M  V30 2924 H 291.186 -2.88091 0.833284 0
M  V30 2925 H 288.739 -1.4906 0.470192 0
M  V30 2926 H 289.474 -2.73997 -1.73482 0
M  V30 2927 H 289.259 -3.90124 -0.393166 0
M  V30 2928 H 290.749 -3.94049 -1.38256 0
M  V30 2929 N 291.186 -0.45159 -1.50991 0
M  V30 2930 C 292.116 0.342898 -2.30969 0
M  V30 2931 C 293.097 1.00815 -1.37005 0
M  V30 2932 O 294.282 1.00907 -1.65926 0
M  V30 2933 C 291.412 1.43637 -3.16205 0
M  V30 2934 C 290.366 0.893818 -4.18563 0
M  V30 2935 C 289.692 2.08411 -4.92411 0
M  V30 2936 C 290.992 -0.0815568 -5.22236 0
M  V30 2937 H 292.686 -0.324556 -2.97636 0
M  V30 2938 H 290.232 -0.157531 -1.43136 0
M  V30 2939 H 292.185 1.9995 -3.70942 0
M  V30 2940 H 290.909 2.13232 -2.47386 0
M  V30 2941 H 289.568 0.352798 -3.64898 0
M  V30 2942 H 289.216 2.76658 -4.20082 0
M  V30 2943 H 288.916 1.72741 -5.61636 0
M  V30 2944 H 290.44 2.65251 -5.49976 0
M  V30 2945 H 291.854 0.391742 -5.7196 0
M  V30 2946 H 290.251 -0.351551 -5.99069 0
M  V30 2947 H 291.321 -1.01374 -4.74185 0
M  V30 2948 N 292.664 1.56529 -0.183458 0
M  V30 2949 C 293.889 2.02064 0.467428 0
M  V30 2950 C 294.314 1.06282 1.55196 0
M  V30 2951 O 293.672 0.0443565 1.81246 0
M  V30 2952 C 293.72 3.46122 1.01153 0
M  V30 2953 O 292.824 3.53437 2.12499 0
M  V30 2954 H 292.165 0.654726 0.110588 0
M  V30 2955 H 294.695 2.02521 -0.290917 0
M  V30 2956 H 294.705 3.85676 1.33108 0
M  V30 2957 H 293.38 4.15331 0.217533 0
M  V30 2958 H 291.957 3.2575 1.81497 0
M  V30 2959 N 294.142 -0.090211 1.57342 0
M  V30 2960 C 295.388 -0.793982 1.86611 0
M  V30 2961 C 295.721 -1.78142 0.773252 0
M  V30 2962 O 294.996 -1.93271 -0.218304 0
M  V30 2963 C 295.279 -1.51839 3.26523 0
M  V30 2964 C 295.132 -0.548609 4.46442 0
M  V30 2965 C 296.451 -2.46779 3.64401 0
M  V30 2966 H 293.57 -0.287186 0.678744 0
M  V30 2967 H 296.212 -0.0575076 1.89913 0
M  V30 2968 H 294.362 -2.14617 3.23839 0
M  V30 2969 H 296.034 0.0725513 4.61243 0
M  V30 2970 H 294.277 0.137614 4.33582 0
M  V30 2971 H 294.948 -1.09271 5.41076 0
M  V30 2972 H 297.424 -1.94089 3.68061 0
M  V30 2973 H 296.3 -2.94479 4.63221 0
M  V30 2974 H 296.561 -3.30758 2.93346 0
M  V30 2975 N 295.62 -1.53406 -0.361157 0
M  V30 2976 C 296.868 -1.69467 -1.10115 0
M  V30 2977 C 297.189 -0.451352 -1.89705 0
M  V30 2978 O 296.459 0.534636 -1.88463 0
M  V30 2979 H 295.039 -0.624749 -0.409508 0
M  V30 2980 H 297.701 -1.90609 -0.406699 0
M  V30 2981 H 296.797 -2.55774 -1.78847 0
M  V30 2982 N 297.098 0.621204 -1.44841 0
M  V30 2983 C 298.509 1.20298 -1.42777 0
M  V30 2984 C 298.86 1.95639 -0.148259 0
M  V30 2985 O 297.985 2.02955 0.750892 0
M  V30 2986 C 298.58 2.1882 -2.58657 0
M  V30 2987 C 297.139 2.72403 -2.59756 0
M  V30 2988 C 296.286 1.4757 -2.34773 0
M  V30 2989 H 299.237 0.411297 -1.53278 0
M  V30 2990 H 299.258 3.01607 -2.31977 0
M  V30 2991 H 298.77 1.63957 -3.51766 0
M  V30 2992 H 296.871 3.31242 -1.70615 0
M  V30 2993 H 296.984 3.17765 -3.58556 0
M  V30 2994 H 295.348 1.76051 -1.8406 0
M  V30 2995 H 296.131 0.945954 -3.3001 0
M  V30 2996 N 298.576 1.31904 0.862503 0
M  V30 2997 C 299.486 1.22161 2.00285 0
M  V30 2998 C 300.502 0.136785 1.73462 0
M  V30 2999 O 301.678 0.355994 1.98229 0
M  V30 3000 C 298.743 0.937093 3.33796 0
M  V30 3001 C 297.804 2.10957 3.73893 0
M  V30 3002 C 297.037 1.83853 5.01033 0
M  V30 3003 O 297.26 0.777274 5.65079 0
M  V30 3004 O 296.194 2.69741 5.38074 0
M  V30 3005 H 300.02 2.18008 2.11439 0
M  V30 3006 H 297.605 1.11716 0.991957 0
M  V30 3007 H 299.487 0.794583 4.13841 0
M  V30 3008 H 298.162 0.00871894 3.23699 0
M  V30 3009 H 297.069 2.30752 2.94456 0
M  V30 3010 H 298.402 3.02046 3.88625 0
M  V30 3011 N 300.054 -1.07777 1.14986 0
M  V30 3012 C 301.331 -1.7699 0.832695 0
M  V30 3013 C 301.711 -2.001 -0.672561 0
M  V30 3014 O 301.059 -1.61598 -1.6155 0
M  V30 3015 C 301.269 -3.08139 1.63863 0
M  V30 3016 C 302.617 -3.8256 1.84208 0
M  V30 3017 O 303.641 -3.17939 1.60603 0
M  V30 3018 O 302.5 -4.98612 2.23714 0
M  V30 3019 H 299.594 -0.768389 0.305791 0
M  V30 3020 H 302.14 -1.14182 1.25541 0
M  V30 3021 H 300.912 -2.86909 2.6608 0
M  V30 3022 H 300.535 -3.78678 1.21197 0
M  V30 3023 N 301.532 -0.945985 -1.26051 0
M  V30 3024 C 302.772 -0.603665 -1.95282 0
M  V30 3025 C 303.136 0.842377 -1.72534 0
M  V30 3026 O 304.337 1.29387 -2.35611 0
M  V30 3027 C 302.608 -0.942292 -3.44754 0
M  V30 3028 S 304.167 -0.711242 -4.32997 0
M  V30 3029 H 300.985 -0.222176 -0.675395 0
M  V30 3030 H 303.587 -1.21832 -1.52896 0
M  V30 3031 H 302.291 -1.99203 -3.58812 0
M  V30 3032 H 301.822 -0.317546 -3.92116 0
M  V30 3033 H 303.837 0.422221 -4.944 0
M  V30 3034 N 303.011 1.40521 -0.713556 0
M  V30 3035 C 303.974 2.29098 -0.0684347 0
M  V30 3036 C 304.974 1.45268 0.689472 0
M  V30 3037 O 306.164 1.66205 0.521677 0
M  V30 3038 C 303.296 3.28446 0.913024 0
M  V30 3039 H 304.489 2.87645 -0.84855 0
M  V30 3040 H 302.042 1.48809 -0.47809 0
M  V30 3041 H 302.777 2.74913 1.72027 0
M  V30 3042 H 302.562 3.90327 0.372472 0
M  V30 3043 H 304.052 3.94777 1.36165 0
M  V30 3044 N 304.489 0.459591 1.5075 0
M  V30 3045 C 305.766 -0.160371 1.94941 0
M  V30 3046 C 306.146 -1.58048 1.39943 0
M  V30 3047 O 305.494 -2.206 0.595629 0
M  V30 3048 C 305.704 -0.115432 3.48809 0
M  V30 3049 C 307.052 -0.310026 4.23467 0
M  V30 3050 O 308.076 -0.192543 3.55679 0
M  V30 3051 O 306.935 -0.546031 5.43765 0
M  V30 3052 H 304.029 -0.117925 0.818549 0
M  V30 3053 H 306.575 0.519169 1.61563 0
M  V30 3054 H 305.347 0.87652 3.81357 0
M  V30 3055 H 304.97 -0.836928 3.88692 0
M  V30 3056 N 305.967 -1.56429 0.191757 0
M  V30 3057 C 307.378 -1.83912 -0.321428 0
M  V30 3058 C 307.729 -1.11231 -1.61623 0
M  V30 3059 O 306.854 -0.37202 -2.13178 0
M  V30 3060 C 307.449 -3.33624 -0.589961 0
M  V30 3061 C 306.008 -3.6153 -1.04753 0
M  V30 3062 C 305.155 -2.7714 -0.0943327 0
M  V30 3063 H 308.106 -1.53161 0.415612 0
M  V30 3064 H 308.127 -3.52213 -1.43966 0
M  V30 3065 H 307.639 -3.86495 0.352588 0
M  V30 3066 H 305.74 -3.14089 -2.00447 0
M  V30 3067 H 305.853 -4.69737 -0.942549 0
M  V30 3068 H 304.217 -2.47638 -0.595589 0
M  V30 3069 H 305 -3.32799 0.842601 0
M  V30 3070 N 307.445 0.0818655 -1.57387 0
M  V30 3071 C 308.67 0.799946 -1.91352 0
M  V30 3072 C 309.095 1.70833 -0.787258 0
M  V30 3073 O 308.453 1.79419 0.26048 0
M  V30 3074 C 308.501 1.57812 -3.24234 0
M  V30 3075 O 307.605 2.68806 -3.12757 0
M  V30 3076 H 306.946 0.21891 -0.626877 0
M  V30 3077 H 309.476 0.0531256 -2.04531 0
M  V30 3078 H 309.486 1.95952 -3.57864 0
M  V30 3079 H 308.161 0.911548 -4.05788 0
M  V30 3080 H 306.738 2.33597 -2.90666 0
M  V30 3081 N 308.923 1.53595 0.353017 0
M  V30 3082 C 310.171 1.70049 1.09215 0
M  V30 3083 C 310.492 0.461406 1.89463 0
M  V30 3084 O 309.762 -0.524633 1.88744 0
M  V30 3085 H 308.342 0.626912 0.40619 0
M  V30 3086 H 311.004 1.90822 0.396585 0
M  V30 3087 H 310.1 2.56718 1.77488 0
M  V30 3088 N 310.401 -0.613514 1.45168 0
M  V30 3089 C 311.641 -1.38405 1.5041 0
M  V30 3090 C 312.005 -1.91489 0.139922 0
M  V30 3091 O 313.206 -2.68716 0.067033 0
M  V30 3092 C 311.477 -2.50552 2.5487 0
M  V30 3093 S 313.036 -3.38439 2.79292 0
M  V30 3094 H 309.854 -0.471945 0.531779 0
M  V30 3095 H 312.456 -0.708518 1.82209 0
M  V30 3096 H 311.16 -2.09894 3.52665 0
M  V30 3097 H 310.691 -3.22913 2.24701 0
M  V30 3098 H 312.706 -4.48527 2.12222 0
M  V30 3099 N 311.879 -1.3236 -0.855495 0
M  V30 3100 C 313.125 -1.23054 -1.612 0
M  V30 3101 C 313.458 0.207404 -1.93089 0
M  V30 3102 O 312.733 1.14432 -1.57275 0
M  V30 3103 C 313.016 -2.08937 -2.93287 0
M  V30 3104 C 312.869 -3.61105 -2.68185 0
M  V30 3105 C 314.188 -1.94986 -3.94549 0
M  V30 3106 H 311.307 -0.448364 -0.584926 0
M  V30 3107 H 313.949 -1.62297 -0.987917 0
M  V30 3108 H 312.099 -1.75599 -3.46551 0
M  V30 3109 H 313.771 -4.04652 -2.21483 0
M  V30 3110 H 312.014 -3.83813 -2.02164 0
M  V30 3111 H 312.685 -4.16522 -3.62234 0
M  V30 3112 H 315.161 -2.24189 -3.5054 0
M  V30 3113 H 314.037 -2.57356 -4.84829 0
M  V30 3114 H 314.298 -0.917263 -4.3248 0
M  V30 3115 N 313.357 1.07166 -1.15556 0
M  V30 3116 C 314.597 1.81391 -0.94216 0
M  V30 3117 C 314.961 1.84788 0.521272 0
M  V30 3118 O 316.162 2.54904 0.85307 0
M  V30 3119 C 314.433 3.22431 -1.54185 0
M  V30 3120 S 315.992 4.13379 -1.47183 0
M  V30 3121 H 312.81 0.624963 -0.339031 0
M  V30 3122 H 315.412 1.28725 -1.4714 0
M  V30 3123 H 314.116 3.17548 -2.59984 0
M  V30 3124 H 313.647 3.80172 -1.01156 0
M  V30 3125 H 315.662 4.94007 -0.466004 0
M  V30 3126 N 314.835 0.952656 1.25548 0
M  V30 3127 C 316.083 0.605176 1.92826 0
M  V30 3128 C 316.404 -0.860261 1.74999 0
M  V30 3129 O 315.674 -1.6125 1.11244 0
M  V30 3130 H 314.254 0.220832 0.713612 0
M  V30 3131 H 316.916 1.21047 1.52754 0
M  V30 3132 H 316.012 0.832798 3.00784 0
M  V30 3133 N 316.313 -1.40141 0.720998 0
M  V30 3134 C 317.261 -2.3252 0.0608547 0
M  V30 3135 C 318.255 -1.52326 -0.741152 0
M  V30 3136 O 319.461 -1.68089 -0.643911 0
M  V30 3137 H 315.836 -0.751999 0.000876664 0
M  V30 3138 H 317.807 -2.8584 0.856614 0
M  V30 3139 C 316.556 -3.37331 -0.842809 0
M  V30 3140 H 315.879 -3.99108 -0.235084 0
M  V30 3141 H 317.319 -4.04452 -1.27257 0
M  V30 3142 C 315.778 -2.73246 -1.97074 0
M  V30 3143 O 316.308 -2.59998 -3.06209 0
M  V30 3144 N 314.514 -2.31547 -1.75597 0
M  V30 3145 H 314.061 -2.42522 -0.868368 0
M  V30 3146 H 314.019 -1.89007 -2.51244 0
M  V30 3147 N 317.792 -0.46758 -1.50504 0
M  V30 3148 C 318.755 0.317059 -2.26996 0
M  V30 3149 C 319.755 0.923513 -1.31635 0
M  V30 3150 O 320.945 0.793239 -1.55091 0
M  V30 3151 C 318.077 1.45134 -3.08462 0
M  V30 3152 H 319.27 -0.353723 -2.97807 0
M  V30 3153 H 316.823 -0.221545 -1.54722 0
M  V30 3154 H 317.558 2.15728 -2.4214 0
M  V30 3155 H 317.343 1.02232 -3.78538 0
M  V30 3156 H 318.833 2.00493 -3.66323 0
M  V30 3157 N 319.27 1.56325 -0.20005 0
M  V30 3158 C 320.18 2.22931 0.730668 0
M  V30 3159 C 321.196 1.22997 1.23076 0
M  V30 3160 O 322.372 1.55748 1.27689 0
M  V30 3161 C 319.437 2.87948 1.93098 0
M  V30 3162 C 318.498 4.03166 1.47497 0
M  V30 3163 C 317.731 4.65073 2.61807 0
M  V30 3164 O 317.954 4.25913 3.79413 0
M  V30 3165 O 316.888 5.54452 2.34237 0
M  V30 3166 H 320.714 3.03084 0.193391 0
M  V30 3167 H 318.299 1.49371 0.0294621 0
M  V30 3168 H 320.181 3.29063 2.6324 0
M  V30 3169 H 318.856 2.10771 2.45677 0
M  V30 3170 H 317.763 3.66664 0.742201 0
M  V30 3171 H 319.096 4.82022 0.995796 0
M  V30 3172 N 320.748 -0.0735177 1.57428 0
M  V30 3173 C 321.711 -1.07192 2.02589 0
M  V30 3174 C 322.711 -1.31695 0.922661 0
M  V30 3175 O 323.901 -1.27445 1.18758 0
M  V30 3176 C 321.033 -2.41599 2.40506 0
M  V30 3177 H 322.226 -0.682727 2.92025 0
M  V30 3178 H 319.779 -0.319193 1.53006 0
M  V30 3179 H 320.514 -2.85354 1.5409 0
M  V30 3180 H 320.299 -2.25156 3.21009 0
M  V30 3181 H 321.789 -3.13367 2.76027 0
M  V30 3182 N 322.226 -1.5378 -0.344866 0
M  V30 3183 C 323.158 -1.77988 -1.44406 0
M  V30 3184 C 324.171 -0.661138 -1.48771 0
M  V30 3185 O 325.36 -0.937842 -1.51877 0
M  V30 3186 C 322.46 -1.86345 -2.8307 0
M  V30 3187 C 321.633 -3.16256 -3.0216 0
M  V30 3188 C 320.692 -3.15588 -4.21059 0
M  V30 3189 O 319.718 -3.89314 -4.15239 0
M  V30 3190 N 320.92 -2.37864 -5.29529 0
M  V30 3191 H 323.685 -2.72839 -1.24012 0
M  V30 3192 H 321.246 -1.52814 -0.534737 0
M  V30 3193 H 323.238 -1.83351 -3.60783 0
M  V30 3194 H 321.808 -0.986858 -2.96614 0
M  V30 3195 H 321.028 -3.32385 -2.11929 0
M  V30 3196 H 322.316 -4.0207 -3.11797 0
M  V30 3197 H 321.714 -1.77514 -5.37127 0
M  V30 3198 H 320.271 -2.40668 -6.05741 0
M  V30 3199 N 323.704 0.605807 -1.45491 0
M  V30 3200 C 325.115 1.18777 -1.44045 0
M  V30 3201 C 325.466 1.95471 -0.169001 0
M  V30 3202 O 324.591 2.0374 0.729324 0
M  V30 3203 C 325.186 2.16064 -2.60963 0
M  V30 3204 C 323.745 2.69633 -2.62631 0
M  V30 3205 C 322.892 1.45072 -2.36325 0
M  V30 3206 H 325.843 0.395017 -1.53705 0
M  V30 3207 H 325.864 2.9913 -2.35163 0
M  V30 3208 H 325.376 1.60217 -3.53486 0
M  V30 3209 H 323.477 3.29414 -1.74119 0
M  V30 3210 H 323.59 3.13944 -3.61906 0
M  V30 3211 H 321.954 1.74089 -1.85917 0
M  V30 3212 H 322.737 0.910899 -3.30995 0
M  V30 3213 N 325.182 1.32811 0.848464 0
M  V30 3214 C 326.428 1.24917 1.60522 0
M  V30 3215 C 326.783 -0.185761 1.91501 0
M  V30 3216 O 326.076 -1.12524 1.55077 0
M  V30 3217 C 326.27 2.04831 2.92881 0
M  V30 3218 C 326.099 3.55949 2.74828 0
M  V30 3219 C 324.869 4.25277 2.72887 0
M  V30 3220 C 327.067 4.50476 2.48145 0
M  V30 3221 N 325.049 5.62408 2.46111 0
M  V30 3222 C 326.42 5.75427 2.30832 0
M  V30 3223 C 328.475 4.39665 2.33664 0
M  V30 3224 C 327.178 6.90789 2.00508 0
M  V30 3225 C 329.204 5.54833 2.04731 0
M  V30 3226 C 328.566 6.78787 1.88223 0
M  V30 3227 H 324.665 0.512279 0.590842 0
M  V30 3228 H 327.249 1.67246 0.996839 0
M  V30 3229 H 325.42 1.64837 3.51686 0
M  V30 3230 H 327.152 1.88782 3.57971 0
M  V30 3231 H 323.907 3.77456 2.86049 0
M  V30 3232 H 324.331 6.3467 2.35634 0
M  V30 3233 H 328.973 3.44477 2.45144 0
M  V30 3234 H 326.691 7.85984 1.87765 0
M  V30 3235 H 330.277 5.48398 1.94295 0
M  V30 3236 H 329.157 7.66396 1.66155 0
M  V30 3237 N 326.66 -1.06551 1.16123 0
M  V30 3238 C 327.909 -1.78687 0.935622 0
M  V30 3239 C 328.222 -1.88056 -0.538001 0
M  V30 3240 O 329.428 -2.56794 -0.88143 0
M  V30 3241 C 327.884 -3.21143 1.62466 0
M  V30 3242 C 327.492 -3.19949 3.13587 0
M  V30 3243 C 329.236 -3.9783 1.48092 0
M  V30 3244 C 327.143 -4.57108 3.75241 0
M  V30 3245 H 326.073 -0.669712 0.346412 0
M  V30 3246 H 328.724 -1.19534 1.39226 0
M  V30 3247 H 327.106 -3.80539 1.09572 0
M  V30 3248 H 328.28 -2.70151 3.73303 0
M  V30 3249 H 326.595 -2.5676 3.27816 0
M  V30 3250 H 329.192 -4.99217 1.91538 0
M  V30 3251 H 329.535 -4.14078 0.429507 0
M  V30 3252 H 330.068 -3.4495 1.98127 0
M  V30 3253 H 326.807 -4.46065 4.80319 0
M  V30 3254 H 326.327 -5.07111 3.20309 0
M  V30 3255 H 328.006 -5.26069 3.76644 0
M  V30 3256 N 328.138 -0.959301 -1.25041 0
M  V30 3257 C 329.378 -0.624343 -1.94631 0
M  V30 3258 C 329.742 0.82403 -1.73418 0
M  V30 3259 O 330.943 1.26881 -2.3697 0
M  V30 3260 C 329.214 -0.978805 -3.43736 0
M  V30 3261 S 330.773 -0.757127 -4.32219 0
M  V30 3262 H 327.591 -0.229327 -0.673001 0
M  V30 3263 H 330.193 -1.23447 -1.51595 0
M  V30 3264 H 328.897 -2.02997 -3.56679 0
M  V30 3265 H 328.428 -0.359117 -3.91757 0
M  V30 3266 H 330.443 0.369759 -4.9482 0
M  V30 3267 N 329.616 1.39756 -0.72842 0
M  V30 3268 C 330.579 2.29012 -0.0927297 0
M  V30 3269 C 331.579 1.45992 0.674025 0
M  V30 3270 O 332.769 1.66749 0.50402 0
M  V30 3271 C 329.901 3.29396 0.878137 0
M  V30 3272 H 331.094 2.86729 -0.879011 0
M  V30 3273 H 328.647 1.48293 -0.493847 0
M  V30 3274 H 329.382 2.76722 1.69101 0
M  V30 3275 H 329.167 3.907 0.331051 0
M  V30 3276 H 330.657 3.96199 1.3197 0
M  V30 3277 N 331.094 0.475555 1.50254 0
M  V30 3278 C 332.057 -0.305016 2.27161 0
M  V30 3279 C 333.057 -0.916519 1.32123 0
M  V30 3280 O 334.247 -0.785003 1.5551 0
M  V30 3281 C 331.379 -1.43496 3.09227 0
M  V30 3282 H 332.572 0.369511 2.97615 0
M  V30 3283 H 330.125 0.229747 1.54602 0
M  V30 3284 H 330.86 -2.14441 2.43281 0
M  V30 3285 H 330.645 -1.00223 3.79075 0
M  V30 3286 H 332.135 -1.98548 3.67381 0
M  V30 3287 N 332.573 -1.56217 0.208337 0
M  V30 3288 C 333.503 -2.22694 -0.702116 0
M  V30 3289 C 334.484 -1.19432 -1.2112 0
M  V30 3290 O 335.669 -1.47978 -1.25762 0
M  V30 3291 C 332.799 -2.8966 -1.9161 0
M  V30 3292 C 331.753 -3.9928 -1.5414 0
M  V30 3293 C 331.079 -4.53476 -2.83308 0
M  V30 3294 C 332.379 -5.17012 -0.741339 0
M  V30 3295 H 334.073 -2.99034 -0.147898 0
M  V30 3296 H 331.619 -1.43831 -0.0696951 0
M  V30 3297 H 333.572 -3.34852 -2.55836 0
M  V30 3298 H 332.296 -2.10746 -2.49507 0
M  V30 3299 H 330.955 -3.54799 -0.922668 0
M  V30 3300 H 330.603 -3.71308 -3.39322 0
M  V30 3301 H 330.303 -5.27451 -2.58976 0
M  V30 3302 H 331.827 -5.01378 -3.485 0
M  V30 3303 H 333.241 -5.58667 -1.28699 0
M  V30 3304 H 331.638 -5.97137 -0.595627 0
M  V30 3305 H 332.708 -4.8423 0.254851 0
M  V30 3306 N 334.051 0.0651679 -1.57465 0
M  V30 3307 C 334.981 1.07693 -2.07182 0
M  V30 3308 C 335.962 1.39962 -0.966673 0
M  V30 3309 O 337.147 1.49475 -1.2398 0
M  V30 3310 C 334.277 2.3885 -2.52127 0
M  V30 3311 C 333.231 2.20917 -3.66579 0
M  V30 3312 C 332.557 3.57515 -3.97601 0
M  V30 3313 C 333.857 1.62493 -4.9638 0
M  V30 3314 H 335.551 0.663199 -2.91962 0
M  V30 3315 H 333.097 0.317569 -1.40455 0
M  V30 3316 H 335.05 3.09928 -2.85522 0
M  V30 3317 H 333.774 2.82215 -1.64384 0
M  V30 3318 H 332.433 1.52279 -3.33477 0
M  V30 3319 H 332.081 3.98463 -3.06979 0
M  V30 3320 H 331.781 3.46353 -4.74672 0
M  V30 3321 H 333.305 4.30013 -4.33499 0
M  V30 3322 H 334.719 2.23445 -5.27963 0
M  V30 3323 H 333.116 1.62009 -5.77818 0
M  V30 3324 H 334.186 0.587041 -4.81333 0
M  V30 3325 N 335.529 1.53961 0.336706 0
M  V30 3326 C 336.461 1.78751 1.4346 0
M  V30 3327 C 337.474 0.669019 1.48418 0
M  V30 3328 O 338.663 0.945884 1.51378 0
M  V30 3329 C 335.763 1.87844 2.82078 0
M  V30 3330 C 334.936 3.17854 3.00479 0
M  V30 3331 C 333.995 3.17816 4.19379 0
M  V30 3332 O 333.021 3.91511 4.13168 0
M  V30 3333 N 334.223 2.40669 5.2826 0
M  V30 3334 H 336.988 2.73493 1.22563 0
M  V30 3335 H 334.549 1.53096 0.526625 0
M  V30 3336 H 336.541 1.85261 3.59806 0
M  V30 3337 H 335.111 1.00257 2.96086 0
M  V30 3338 H 334.331 3.33504 2.10163 0
M  V30 3339 H 335.619 4.03718 3.0966 0
M  V30 3340 H 335.017 1.8036 5.36178 0
M  V30 3341 H 333.574 2.43877 6.04456 0
M  V30 3342 N 337.007 -0.598083 1.45811 0
M  V30 3343 C 338.418 -1.18011 1.44673 0
M  V30 3344 C 338.769 -1.95378 0.179364 0
M  V30 3345 O 337.894 -2.04124 -0.718509 0
M  V30 3346 C 338.489 -2.14677 2.62105 0
M  V30 3347 C 337.048 -2.68236 2.64057 0
M  V30 3348 C 336.195 -1.43816 2.37091 0
M  V30 3349 H 339.146 -0.38686 1.53913 0
M  V30 3350 H 339.167 -2.97878 2.36746 0
M  V30 3351 H 338.679 -1.5834 3.5433 0
M  V30 3352 H 336.78 -3.28486 1.75864 0
M  V30 3353 H 336.893 -3.12021 3.63566 0
M  V30 3354 H 335.257 -1.731 1.86838 0
M  V30 3355 H 336.04 -0.893333 3.31473 0
M  V30 3356 N 338.485 -1.33259 -0.841409 0
M  V30 3357 C 339.415 -1.25926 -1.96634 0
M  V30 3358 C 340.396 -0.140349 -1.6952 0
M  V30 3359 O 341.581 -0.329707 -1.91381 0
M  V30 3360 C 338.711 -0.99512 -3.32738 0
M  V30 3361 C 337.665 -2.0767 -3.74242 0
M  V30 3362 C 336.991 -1.66474 -5.08125 0
M  V30 3363 C 338.291 -3.49318 -3.88297 0
M  V30 3364 H 339.985 -2.20046 -2.03027 0
M  V30 3365 H 337.531 -1.05931 -0.975425 0
M  V30 3366 H 339.484 -0.930323 -4.11002 0
M  V30 3367 H 338.208 -0.0183004 -3.26595 0
M  V30 3368 H 336.867 -2.13187 -2.98239 0
M  V30 3369 H 336.515 -0.675012 -4.9845 0
M  V30 3370 H 336.215 -2.3885 -5.36865 0
M  V30 3371 H 337.739 -1.61455 -5.88867 0
M  V30 3372 H 339.153 -3.46316 -4.56879 0
M  V30 3373 H 337.55 -4.20158 -4.28471 0
M  V30 3374 H 338.62 -3.8801 -2.9082 0
M  V30 3375 N 339.963 1.05934 -1.16686 0
M  V30 3376 C 341.211 1.78447 -0.948744 0
M  V30 3377 C 341.532 1.87813 0.524523 0
M  V30 3378 O 340.802 1.38945 1.38098 0
M  V30 3379 H 339.382 0.660971 -0.348033 0
M  V30 3380 H 342.044 1.27947 -1.47022 0
M  V30 3381 H 341.14 2.80394 -1.37061 0
M  V30 3382 N 341.441 0.965919 1.2453 0
M  V30 3383 C 342.689 0.625593 1.92174 0
M  V30 3384 C 343.01 -0.841652 1.75901 0
M  V30 3385 O 342.28 -1.60061 1.12948 0
M  V30 3386 H 340.86 0.228388 0.71123 0
M  V30 3387 H 343.522 1.2266 1.51461 0
M  V30 3388 H 342.618 0.864653 2.99884 0
M  V30 3389 N 342.919 -1.39368 0.735821 0
M  V30 3390 C 344.335 -1.54204 0.411492 0
M  V30 3391 C 344.535 -1.70268 -1.07755 0
M  V30 3392 O 343.591 -1.70364 -1.86366 0
M  V30 3393 C 344.904 -2.75925 1.19523 0
M  V30 3394 C 346.452 -2.89761 1.18354 0
M  V30 3395 C 346.927 -4.14421 1.94986 0
M  V30 3396 N 348.418 -4.21462 1.92156 0
M  V30 3397 C 349.153 -5.16871 2.48258 0
M  V30 3398 N 348.649 -6.18063 3.13001 0
M  V30 3399 N 350.442 -5.09093 2.38287 0
M  V30 3400 H 342.593 -1.27189 1.70108 0
M  V30 3401 H 344.856 -0.616517 0.720147 0
M  V30 3402 H 344.562 -2.70401 2.24892 0
M  V30 3403 H 344.436 -3.68614 0.800222 0
M  V30 3404 H 346.823 -2.94777 0.137975 0
M  V30 3405 H 346.904 -1.98133 1.61793 0
M  V30 3406 H 346.548 -4.10166 2.99543 0
M  V30 3407 H 346.478 -5.05095 1.48953 0
M  V30 3408 H 348.969 -3.48979 1.44991 0
M  V30 3409 H 349.282 -6.87326 3.53275 0
M  V30 3410 H 347.627 -6.18448 3.17091 0
M  V30 3411 H 350.818 -4.28973 1.8735 0
M  V30 3412 H 350.991 -5.83272 2.82308 0
M  V30 3413 N 344.397 -0.483516 -1.5 0
M  V30 3414 C 345.637 0.0657469 -2.04294 0
M  V30 3415 C 346.001 1.35869 -1.35659 0
M  V30 3416 O 347.202 1.99111 -1.80578 0
M  V30 3417 C 345.473 0.232758 -3.56641 0
M  V30 3418 S 347.032 0.738788 -4.32536 0
M  V30 3419 H 343.85 0.0100755 -0.710929 0
M  V30 3420 H 346.452 -0.653494 -1.84254 0
M  V30 3421 H 345.156 -0.713847 -4.04144 0
M  V30 3422 H 344.687 0.977751 -3.81056 0
M  V30 3423 H 346.702 2.01048 -4.53645 0
M  V30 3424 N 345.875 1.56104 -0.216619 0
M  V30 3425 C 347.286 1.844 0.292128 0
M  V30 3426 C 347.637 1.13788 1.59833 0
M  V30 3427 O 346.762 0.405888 2.12559 0
M  V30 3428 C 347.357 3.3452 0.53681 0
M  V30 3429 C 345.916 3.63151 0.989876 0
M  V30 3430 C 345.063 2.77255 0.0502302 0
M  V30 3431 H 348.014 1.52481 -0.439926 0
M  V30 3432 H 348.035 3.54459 1.38345 0
M  V30 3433 H 347.547 3.85885 -0.414031 0
M  V30 3434 H 345.648 3.17238 1.95425 0
M  V30 3435 H 345.761 4.71177 0.867698 0
M  V30 3436 H 344.125 2.48555 0.556117 0
M  V30 3437 H 344.908 3.31416 -0.89544 0
M  V30 3438 N 347.353 -0.0568162 1.57498 0
M  V30 3439 C 348.285 -1.09292 2.01464 0
M  V30 3440 C 349.298 -1.34112 0.922913 0
M  V30 3441 O 350.487 -1.32089 1.20062 0
M  V30 3442 C 347.587 -2.44068 2.35125 0
M  V30 3443 C 346.76 -2.38995 3.66333 0
M  V30 3444 C 345.819 -3.55997 3.87495 0
M  V30 3445 O 344.845 -3.36746 4.58901 0
M  V30 3446 N 346.047 -4.76888 3.30996 0
M  V30 3447 H 348.812 -0.718386 2.90963 0
M  V30 3448 H 346.373 -0.245235 1.60032 0
M  V30 3449 H 348.365 -3.21011 2.46443 0
M  V30 3450 H 346.935 -2.73468 1.5144 0
M  V30 3451 H 346.155 -1.47336 3.65631 0
M  V30 3452 H 347.443 -2.3272 4.52458 0
M  V30 3453 H 346.841 -4.95431 2.73065 0
M  V30 3454 H 345.398 -5.51291 3.47738 0
M  V30 3455 N 348.832 -1.54138 -0.328536 0
M  V30 3456 C 349.795 -1.82462 -1.38709 0
M  V30 3457 C 350.795 -0.696229 -1.44946 0
M  V30 3458 O 351.985 -0.964535 -1.4506 0
M  V30 3459 C 349.117 -1.98018 -2.77492 0
M  V30 3460 H 350.31 -2.77037 -1.14851 0
M  V30 3461 H 347.863 -1.45779 -0.563751 0
M  V30 3462 H 348.598 -1.05637 -3.06613 0
M  V30 3463 H 348.383 -2.80124 -2.74359 0
M  V30 3464 H 349.873 -2.21396 -3.54081 0
M  V30 3465 N 350.31 0.590341 -1.46126 0
M  V30 3466 C 351.273 1.68194 -1.55703 0
M  V30 3467 C 352.273 1.54808 -0.434868 0
M  V30 3468 O 353.463 1.59564 -0.698928 0
M  V30 3469 C 350.595 3.07575 -1.47005 0
M  V30 3470 H 351.788 1.61064 -2.52979 0
M  V30 3471 H 349.341 0.807541 -1.33823 0
M  V30 3472 H 350.076 3.20268 -0.509785 0
M  V30 3473 H 349.861 3.187 -2.28414 0
M  V30 3474 H 351.351 3.87055 -1.56776 0
M  V30 3475 N 351.788 1.33704 0.83433 0
M  V30 3476 C 353.028 1.26754 1.60352 0
M  V30 3477 C 353.392 -0.163182 1.91305 0
M  V30 3478 O 354.593 -0.3567 2.66423 0
M  V30 3479 C 352.864 2.12262 2.8754 0
M  V30 3480 S 354.423 2.22549 3.78176 0
M  V30 3481 H 351.241 0.450879 0.549753 0
M  V30 3482 H 353.843 1.68788 0.986444 0
M  V30 3483 H 352.547 3.15238 2.62779 0
M  V30 3484 H 352.078 1.71082 3.54252 0
M  V30 3485 H 354.093 1.3899 4.76336 0
M  V30 3486 N 353.266 -1.05314 1.17247 0
M  V30 3487 C 354.216 -2.11313 0.856196 0
M  V30 3488 C 355.2 -1.60013 -0.168694 0
M  V30 3489 O 356.392 -1.76968 0.0335624 0
M  V30 3490 C 353.521 -3.41301 0.369917 0
M  V30 3491 C 352.607 -3.99401 1.42616 0
M  V30 3492 N 352.998 -4.31481 2.63928 0
M  V30 3493 C 351.296 -4.27126 1.28373 0
M  V30 3494 C 351.997 -4.77799 3.31787 0
M  V30 3495 N 350.973 -4.77843 2.59166 0
M  V30 3496 H 354.775 -2.33976 1.77856 0
M  V30 3497 H 352.289 -1.2295 1.06099 0
M  V30 3498 H 354.286 -4.16713 0.124897 0
M  V30 3499 H 352.946 -3.20072 -0.546253 0
M  V30 3500 H 353.957 -4.21519 3.00902 0
M  V30 3501 H 350.634 -4.15289 0.429111 0
M  V30 3502 H 352.024 -5.11743 4.35395 0
M  V30 3503 N 354.744 -0.972509 -1.24016 0
M  V30 3504 C 355.969 -0.654417 -1.96805 0
M  V30 3505 C 356.394 0.770398 -1.716 0
M  V30 3506 O 355.752 1.52361 -0.982647 0
M  V30 3507 C 355.8 -0.941031 -3.48105 0
M  V30 3508 O 354.904 -0.0289472 -4.1239 0
M  V30 3509 H 354.245 -0.24692 -0.616382 0
M  V30 3510 H 356.775 -1.30396 -1.57664 0
M  V30 3511 H 356.785 -0.87452 -3.98517 0
M  V30 3512 H 355.46 -1.97939 -3.65777 0
M  V30 3513 H 354.037 -0.149192 -3.72601 0
M  V30 3514 N 356.222 1.38976 -0.743202 0
M  V30 3515 C 357.185 2.28901 -0.117014 0
M  V30 3516 C 358.185 1.46698 0.658503 0
M  V30 3517 O 359.375 1.67274 0.486305 0
M  V30 3518 C 356.507 3.30309 0.84315 0
M  V30 3519 H 357.7 2.8578 -0.909373 0
M  V30 3520 H 355.253 1.47761 -0.509547 0
M  V30 3521 H 355.988 2.785 1.66157 0
M  V30 3522 H 355.773 3.91029 0.289594 0
M  V30 3523 H 357.263 3.97577 1.2776 0
M  V30 3524 N 357.7 0.491464 1.49741 0
M  V30 3525 C 358.63 -0.28154 2.31796 0
M  V30 3526 C 359.611 -0.971473 1.3963 0
M  V30 3527 O 360.796 -0.964719 1.68543 0
M  V30 3528 C 357.926 -1.35203 3.19902 0
M  V30 3529 C 356.88 -0.782529 4.20786 0
M  V30 3530 C 356.206 -1.95283 4.97764 0
M  V30 3531 C 357.506 0.21999 5.21837 0
M  V30 3532 H 359.2 0.403355 2.96671 0
M  V30 3533 H 356.746 0.195425 1.42668 0
M  V30 3534 H 358.699 -1.90045 3.76113 0
M  V30 3535 H 357.423 -2.06598 2.52953 0
M  V30 3536 H 356.082 -0.255928 3.65706 0
M  V30 3537 H 355.73 -2.65423 4.2727 0
M  V30 3538 H 355.43 -1.57789 5.66018 0
M  V30 3539 H 356.954 -2.50577 5.56816 0
M  V30 3540 H 358.368 -0.23996 5.72798 0
M  V30 3541 H 356.765 0.51026 5.97927 0
M  V30 3542 H 357.835 1.13911 4.7133 0
M  V30 3543 N 359.178 -1.55987 0.224894 0
M  V30 3544 C 360.594 -1.59066 -0.130426 0
M  V30 3545 C 360.794 -1.24176 -1.5869 0
M  V30 3546 O 359.85 -0.978592 -2.32766 0
M  V30 3547 C 361.163 -3.00042 0.198883 0
M  V30 3548 C 362.711 -3.1268 0.141391 0
M  V30 3549 C 363.186 -4.55839 0.444422 0
M  V30 3550 N 364.677 -4.6152 0.394115 0
M  V30 3551 C 365.412 -5.70231 0.602038 0
M  V30 3552 N 364.908 -6.87291 0.871914 0
M  V30 3553 N 366.701 -5.59555 0.534245 0
M  V30 3554 H 358.852 -1.76941 1.17497 0
M  V30 3555 H 361.115 -0.822604 0.471197 0
M  V30 3556 H 360.821 -3.30234 1.2099 0
M  V30 3557 H 360.695 -3.74075 -0.484535 0
M  V30 3558 H 363.082 -2.82283 -0.860265 0
M  V30 3559 H 363.163 -2.40969 0.858335 0
M  V30 3560 H 362.807 -4.86954 1.44353 0
M  V30 3561 H 362.737 -5.2578 -0.293752 0
M  V30 3562 H 365.228 -3.77405 0.193356 0
M  V30 3563 H 365.541 -7.66058 1.01858 0
M  V30 3564 H 363.886 -6.89028 0.909145 0
M  V30 3565 H 367.077 -4.6698 0.323612 0
M  V30 3566 H 367.25 -6.44211 0.699693 0
M  V30 3567 N 360.656 0.0484629 -1.57525 0
M  V30 3568 C 362.067 0.597486 -1.76881 0
M  V30 3569 C 362.418 1.76664 -0.853475 0
M  V30 3570 O 361.543 2.16357 -0.0433656 0
M  V30 3571 C 362.138 1.09066 -3.20765 0
M  V30 3572 C 360.697 1.58535 -3.41385 0
M  V30 3573 C 359.844 0.514868 -2.72478 0
M  V30 3574 H 362.795 -0.177758 -1.57701 0
M  V30 3575 H 362.816 1.95875 -3.2621 0
M  V30 3576 H 362.328 0.239521 -3.8736 0
M  V30 3577 H 360.429 2.45898 -2.79937 0
M  V30 3578 H 360.542 1.64622 -4.49929 0
M  V30 3579 H 358.906 0.965407 -2.35695 0
M  V30 3580 H 359.689 -0.32648 -3.41744 0
M  V30 3581 N 362.134 1.5431 0.320358 0
M  V30 3582 C 363.066 1.80262 1.41556 0
M  V30 3583 C 364.079 0.684723 1.477 0
M  V30 3584 O 365.268 0.961886 1.50366 0
M  V30 3585 C 362.368 1.90825 2.8007 0
M  V30 3586 C 361.541 3.21023 2.97091 0
M  V30 3587 C 360.6 3.22247 4.15985 0
M  V30 3588 O 359.626 3.95871 4.08992 0
M  V30 3589 N 360.828 2.46258 5.25678 0
M  V30 3590 H 363.593 2.74778 1.19655 0
M  V30 3591 H 361.154 1.53646 0.510358 0
M  V30 3592 H 363.146 1.89067 3.57821 0
M  V30 3593 H 361.716 1.03392 2.95006 0
M  V30 3594 H 360.936 3.35715 2.06614 0
M  V30 3595 H 362.224 4.0698 3.05361 0
M  V30 3596 H 361.622 1.86037 5.34235 0
M  V30 3597 H 360.179 2.50275 6.01835 0
M  V30 3598 N 363.613 -0.582584 1.46437 0
M  V30 3599 C 364.861 -1.33814 1.51453 0
M  V30 3600 C 365.182 -1.94277 0.167792 0
M  V30 3601 O 364.452 -1.78566 -0.805677 0
M  V30 3602 H 363.032 -0.496838 0.557818 0
M  V30 3603 H 365.694 -0.682281 1.82568 0
M  V30 3604 H 364.79 -2.14479 2.26728 0
M  V30 3605 N 365.091 -1.34144 -0.827227 0
M  V30 3606 C 366.023 -1.21206 -1.9453 0
M  V30 3607 C 367.036 -0.140176 -1.62195 0
M  V30 3608 O 368.225 -0.391647 -1.7415 0
M  V30 3609 C 365.325 -0.839141 -3.28347 0
M  V30 3610 C 364.498 -2.0051 -3.88734 0
M  V30 3611 C 363.557 -1.61128 -5.00923 0
M  V30 3612 O 362.583 -2.32726 -5.19449 0
M  V30 3613 N 363.785 -0.522958 -5.7814 0
M  V30 3614 H 366.55 -2.17525 -2.06162 0
M  V30 3615 H 364.111 -1.27043 -1.00358 0
M  V30 3616 H 366.103 -0.557556 -4.00841 0
M  V30 3617 H 364.673 0.0337293 -3.12582 0
M  V30 3618 H 363.893 -2.45166 -3.08686 0
M  V30 3619 H 365.181 -2.78498 -4.25812 0
M  V30 3620 H 364.579 0.0723518 -5.65654 0
M  V30 3621 H 363.136 -0.301089 -6.51104 0
M  V30 3622 N 366.569 1.04691 -1.17803 0
M  V30 3623 C 367.809 1.79352 -0.980423 0
M  V30 3624 C 368.173 1.85853 0.481958 0
M  V30 3625 O 369.374 2.56656 0.798809 0
M  V30 3626 C 367.645 3.19088 -1.6099 0
M  V30 3627 S 369.204 4.10164 -1.55918 0
M  V30 3628 H 366.022 0.617631 -0.352211 0
M  V30 3629 H 368.624 1.25575 -1.49837 0
M  V30 3630 H 367.328 3.11962 -2.66661 0
M  V30 3631 H 366.859 3.77941 -1.09197 0
M  V30 3632 H 368.874 4.92907 -0.570685 0
M  V30 3633 N 368.047 0.979072 1.23499 0
M  V30 3634 C 369.287 0.655228 1.93613 0
M  V30 3635 C 369.651 -0.796336 1.74707 0
M  V30 3636 O 370.852 -1.23094 2.38959 0
M  V30 3637 C 369.123 1.03337 3.42135 0
M  V30 3638 S 370.682 0.825793 4.3096 0
M  V30 3639 H 367.5 0.240004 0.669267 0
M  V30 3640 H 370.102 1.25843 1.49612 0
M  V30 3641 H 368.806 2.08646 3.53405 0
M  V30 3642 H 368.337 0.421397 3.91137 0
M  V30 3643 H 370.352 -0.290991 4.95346 0
M  V30 3644 N 369.525 -1.3858 0.750561 0
M  V30 3645 C 370.802 -1.94231 0.231009 0
M  V30 3646 C 371.182 -1.68611 -1.27018 0
M  V30 3647 O 370.53 -1.02296 -2.04323 0
M  V30 3648 C 370.74 -3.44123 0.581428 0
M  V30 3649 C 372.088 -4.2116 0.539389 0
M  V30 3650 O 373.112 -3.52391 0.519541 0
M  V30 3651 O 371.971 -5.43749 0.54765 0
M  V30 3652 H 369.065 -0.825639 0.0474263 0
M  V30 3653 H 371.611 -1.4799 0.830478 0
M  V30 3654 H 370.383 -3.56267 1.61833 0
M  V30 3655 H 370.006 -3.97573 -0.0462047 0
M  V30 3656 N 371.003 -0.499398 -1.49478 0
M  V30 3657 C 371.933 0.269244 -2.31943 0
M  V30 3658 C 372.914 0.964054 -1.40143 0
M  V30 3659 O 374.099 0.955767 -1.69052 0
M  V30 3660 C 371.229 1.33504 -3.20615 0
M  V30 3661 C 370.183 0.760202 -4.21195 0
M  V30 3662 C 369.509 1.9264 -4.98792 0
M  V30 3663 C 370.809 -0.247661 -5.21712 0
M  V30 3664 H 372.503 -0.419082 -2.96452 0
M  V30 3665 H 370.049 -0.202988 -1.42562 0
M  V30 3666 H 372.002 1.88048 -3.77115 0
M  V30 3667 H 370.726 2.05253 -2.54045 0
M  V30 3668 H 369.385 0.23653 -3.65836 0
M  V30 3669 H 369.033 2.63154 -4.28671 0
M  V30 3670 H 368.733 1.54785 -5.66847 0
M  V30 3671 H 370.257 2.4762 -5.58137 0
M  V30 3672 H 371.671 0.209579 -5.72917 0
M  V30 3673 H 370.068 -0.541962 -5.97648 0
M  V30 3674 H 371.138 -1.16409 -4.7072 0
M  V30 3675 N 372.481 1.55866 -0.233164 0
M  V30 3676 C 373.721 2.00506 0.397078 0
M  V30 3677 C 374.085 1.1176 1.56121 0
M  V30 3678 O 375.286 1.45796 2.25825 0
M  V30 3679 C 373.557 3.4811 0.809601 0
M  V30 3680 S 375.116 4.14765 1.43231 0
M  V30 3681 H 371.934 0.699828 0.125547 0
M  V30 3682 H 374.536 1.92429 -0.345177 0
M  V30 3683 H 373.24 4.10373 -0.0471601 0
M  V30 3684 H 372.771 3.60085 1.58438 0
M  V30 3685 H 374.786 4.14914 2.7214 0
M  V30 3686 N 373.959 -0.0401083 1.57549 0
M  V30 3687 C 375.207 -0.731677 1.8839 0
M  V30 3688 C 375.528 -1.76481 0.829425 0
M  V30 3689 O 374.798 -1.95411 -0.1383 0
M  V30 3690 H 373.378 -0.273225 0.695239 0
M  V30 3691 H 376.04 -0.00867725 1.94898 0
M  V30 3692 H 375.136 -1.22816 2.86919 0
M  V30 3693 N 375.437 -1.54477 -0.31217 0
M  V30 3694 C 376.4 -1.83923 -1.36766 0
M  V30 3695 C 377.4 -0.711563 -1.44199 0
M  V30 3696 O 378.59 -0.979866 -1.44029 0
M  V30 3697 C 375.722 -2.0095 -2.75376 0
M  V30 3698 H 376.915 -2.78239 -1.11906 0
M  V30 3699 H 374.468 -1.46369 -0.548257 0
M  V30 3700 H 375.203 -1.08883 -3.05475 0
M  V30 3701 H 374.988 -2.83018 -2.71373 0
M  V30 3702 H 376.478 -2.2514 -3.51713 0
M  V30 3703 N 376.915 0.57481 -1.46744 0
M  V30 3704 C 378.161 1.3347 -1.52688 0
M  V30 3705 C 378.494 1.93353 -0.181229 0
M  V30 3706 O 377.769 1.76912 0.808237 0
M  V30 3707 C 378.052 2.45811 -2.63152 0
M  V30 3708 C 377.905 1.90912 -4.07275 0
M  V30 3709 C 379.224 3.47822 -2.69644 0
M  V30 3710 H 376.343 0.483935 -0.555856 0
M  V30 3711 H 378.985 0.644968 -1.78718 0
M  V30 3712 H 377.135 3.04646 -2.41088 0
M  V30 3713 H 378.807 1.36473 -4.4065 0
M  V30 3714 H 377.05 1.21691 -4.16382 0
M  V30 3715 H 377.721 2.72042 -4.80309 0
M  V30 3716 H 380.197 2.9888 -2.895 0
M  V30 3717 H 379.073 4.23876 -3.48742 0
M  V30 3718 H 379.334 4.05555 -1.76005 0
M  V30 3719 N 378.394 1.34581 0.820102 0
M  V30 3720 C 379.64 1.27285 1.57881 0
M  V30 3721 C 379.973 -0.156137 1.93571 0
M  V30 3722 O 379.248 -1.10222 1.60254 0
M  V30 3723 C 379.531 2.16639 2.87645 0
M  V30 3724 C 379.384 3.68088 2.58517 0
M  V30 3725 C 380.703 2.05378 3.8924 0
M  V30 3726 H 377.822 0.463714 0.572833 0
M  V30 3727 H 380.464 1.64859 0.944539 0
M  V30 3728 H 378.614 1.84725 3.41773 0
M  V30 3729 H 380.286 4.10382 2.10676 0
M  V30 3730 H 378.529 3.89038 1.91917 0
M  V30 3731 H 379.2 4.2598 3.51063 0
M  V30 3732 H 381.676 2.33404 3.44473 0
M  V30 3733 H 380.552 2.7012 4.77835 0
M  V30 3734 H 380.813 1.0316 4.29896 0
M  V30 3735 N 379.872 -1.04064 1.18357 0
M  V30 3736 C 380.802 -2.14001 0.934113 0
M  V30 3737 C 381.783 -1.69616 -0.128186 0
M  V30 3738 O 382.968 -1.94185 0.0244093 0
M  V30 3739 C 380.098 -3.44253 0.459066 0
M  V30 3740 C 379.052 -4.02261 1.46185 0
M  V30 3741 C 378.378 -5.27992 0.844322 0
M  V30 3742 C 379.678 -4.38432 2.83856 0
M  V30 3743 H 381.372 -2.35127 1.85352 0
M  V30 3744 H 378.918 -1.12998 0.892604 0
M  V30 3745 H 380.871 -4.20522 0.271907 0
M  V30 3746 H 379.595 -3.22813 -0.495912 0
M  V30 3747 H 378.254 -3.28074 1.63595 0
M  V30 3748 H 377.902 -5.02862 -0.117845 0
M  V30 3749 H 377.602 -5.67765 1.51384 0
M  V30 3750 H 379.126 -6.06938 0.667693 0
M  V30 3751 H 380.54 -5.05688 2.70098 0
M  V30 3752 H 378.937 -4.89254 3.47491 0
M  V30 3753 H 380.007 -3.4826 3.37406 0
M  V30 3754 N 381.35 -0.985608 -1.22978 0
M  V30 3755 C 382.28 -0.549649 -2.26939 0
M  V30 3756 C 383.261 0.419803 -1.64838 0
M  V30 3757 O 384.446 0.31203 -1.91677 0
M  V30 3758 C 381.576 0.143652 -3.47003 0
M  V30 3759 C 380.53 -0.743606 -4.21491 0
M  V30 3760 C 379.856 0.0822027 -5.34637 0
M  V30 3761 C 381.156 -2.03694 -4.80943 0
M  V30 3762 H 382.85 -1.41862 -2.63658 0
M  V30 3763 H 380.396 -0.683571 -1.26741 0
M  V30 3764 H 382.349 0.459985 -4.18882 0
M  V30 3765 H 381.073 1.04711 -3.09359 0
M  V30 3766 H 379.732 -1.04347 -3.51436 0
M  V30 3767 H 379.38 0.986359 -4.93234 0
M  V30 3768 H 379.08 -0.508377 -5.85397 0
M  V30 3769 H 380.604 0.392797 -6.09335 0
M  V30 3770 H 382.018 -1.78504 -5.44802 0
M  V30 3771 H 380.415 -2.57573 -5.42011 0
M  V30 3772 H 381.485 -2.72042 -4.01399 0
M  V30 3773 N 382.828 1.3818 -0.7579 0
M  V30 3774 C 384.056 2.04301 -0.326937 0
M  V30 3775 C 384.471 1.57163 1.0462 0
M  V30 3776 O 383.828 0.746626 1.66529 0
M  V30 3777 C 383.879 3.59846 -0.345363 0
M  V30 3778 O 383.6 4.05256 -1.66432 0
M  V30 3779 C 385.101 4.4319 0.098927 0
M  V30 3780 H 382.321 0.656443 -0.139012 0
M  V30 3781 H 384.865 1.76786 -1.02796 0
M  V30 3782 H 383.02 3.86182 0.306955 0
M  V30 3783 H 383.434 4.99709 -1.59345 0
M  V30 3784 H 384.908 5.51989 0.0348745 0
M  V30 3785 H 385.385 4.23947 1.14741 0
M  V30 3786 H 385.991 4.22051 -0.52468 0
M  V30 3787 N 384.306 0.507319 1.49211 0
M  V30 3788 C 385.256 -0.287112 2.26185 0
M  V30 3789 C 386.24 -0.929983 1.31302 0
M  V30 3790 O 387.432 -0.836538 1.55984 0
M  V30 3791 C 384.561 -1.34718 3.15763 0
M  V30 3792 C 383.647 -0.710235 4.18111 0
M  V30 3793 N 384.038 0.190836 5.0544 0
M  V30 3794 C 382.336 -0.97009 4.35322 0
M  V30 3795 C 383.037 0.55606 5.79036 0
M  V30 3796 N 382.013 -0.0775232 5.43545 0
M  V30 3797 H 385.815 0.406445 2.91076 0
M  V30 3798 H 383.329 0.323814 1.59139 0
M  V30 3799 H 385.326 -1.92982 3.69545 0
M  V30 3800 H 383.986 -2.04235 2.52424 0
M  V30 3801 H 384.997 0.562047 5.14841 0
M  V30 3802 H 381.674 -1.65753 3.83187 0
M  V30 3803 H 383.064 1.2936 6.5933 0
M  V30 3804 N 385.784 -1.5574 0.241426 0
M  V30 3805 C 387.032 -1.98417 -0.384075 0
M  V30 3806 C 387.353 -1.13078 -1.58866 0
M  V30 3807 O 386.623 -0.212312 -1.94746 0
M  V30 3808 H 385.203 -0.732813 -0.144894 0
M  V30 3809 H 387.865 -1.9193 0.338943 0
M  V30 3810 H 386.961 -3.04219 -0.696939 0
M  V30 3811 N 387.262 0.0317525 -1.57568 0
M  V30 3812 C 388.673 0.578692 -1.77505 0
M  V30 3813 C 389.024 1.75749 -0.872164 0
M  V30 3814 O 388.149 2.16298 -0.0663106 0
M  V30 3815 C 388.744 1.05658 -3.21904 0
M  V30 3816 C 387.303 1.54906 -3.43047 0
M  V30 3817 C 386.45 0.485939 -2.73009 0
M  V30 3818 H 389.401 -0.194475 -1.57504 0
M  V30 3819 H 389.422 1.92404 -3.28269 0
M  V30 3820 H 388.934 0.198422 -3.87592 0
M  V30 3821 H 387.035 2.42915 -2.82529 0
M  V30 3822 H 387.148 1.59841 -4.5165 0
M  V30 3823 H 385.512 0.940354 -2.36705 0
M  V30 3824 H 386.295 -0.362709 -3.41379 0
M  V30 3825 N 388.74 1.54641 0.303973 0
M  V30 3826 C 389.703 1.84646 1.35789 0
M  V30 3827 C 390.703 0.7192 1.4382 0
M  V30 3828 O 391.893 0.987491 1.43507 0
M  V30 3829 C 389.025 2.02407 2.74307 0
M  V30 3830 H 390.218 2.78829 1.10429 0
M  V30 3831 H 387.771 1.46658 0.540487 0
M  V30 3832 H 388.506 1.10502 3.04893 0
M  V30 3833 H 388.291 2.84453 2.69868 0
M  V30 3834 H 389.781 2.27002 3.50514 0
M  V30 3835 N 390.218 -0.567019 1.47046 0
M  V30 3836 C 391.465 -1.32462 1.53167 0
M  V30 3837 C 391.793 -1.93571 0.189841 0
M  V30 3838 O 391.048 -1.77865 -0.816243 0
M  V30 3839 C 391.347 -2.4623 2.59047 0
M  V30 3840 C 391.013 -2.03014 4.02612 0
M  V30 3841 C 389.675 -1.90944 4.41694 0
M  V30 3842 C 392.027 -1.69895 4.92732 0
M  V30 3843 C 389.355 -1.44035 5.68745 0
M  V30 3844 C 391.707 -1.2446 6.20236 0
M  V30 3845 C 390.371 -1.10979 6.5821 0
M  V30 3846 H 389.641 -0.484713 0.560477 0
M  V30 3847 H 392.288 -0.636888 1.80599 0
M  V30 3848 H 390.593 -3.20517 2.25335 0
M  V30 3849 H 392.29 -3.04427 2.61008 0
M  V30 3850 H 388.88 -2.13348 3.71726 0
M  V30 3851 H 393.064 -1.78098 4.63244 0
M  V30 3852 H 388.32 -1.32254 5.96925 0
M  V30 3853 H 392.494 -0.978924 6.89485 0
M  V30 3854 H 390.121 -0.744078 7.5655 0
M  V30 3855 N 391.696 -1.35014 -0.812953 0
M  V30 3856 C 392.973 -1.18502 -1.55617 0
M  V30 3857 C 393.353 0.238421 -2.09749 0
M  V30 3858 O 392.701 1.2411 -1.91857 0
M  V30 3859 C 392.911 -2.24783 -2.66971 0
M  V30 3860 C 394.259 -2.60268 -3.35478 0
M  V30 3861 O 395.283 -2.23648 -2.77236 0
M  V30 3862 O 394.142 -3.2321 -4.40678 0
M  V30 3863 H 391.236 -0.459984 -0.687272 0
M  V30 3864 H 393.782 -1.46677 -0.853464 0
M  V30 3865 H 392.554 -3.20284 -2.24798 0
M  V30 3866 H 392.177 -1.97841 -3.44884 0
M  V30 3867 N 393.175 1.03435 -1.18907 0
M  V30 3868 C 394.105 2.13503 -0.945448 0
M  V30 3869 C 395.086 1.69682 0.119189 0
M  V30 3870 O 396.271 1.94169 -0.034707 0
M  V30 3871 C 393.401 3.44004 -0.477316 0
M  V30 3872 C 392.355 4.0148 -1.48316 0
M  V30 3873 C 391.681 5.27537 -0.872311 0
M  V30 3874 C 392.981 4.36921 -2.86177 0
M  V30 3875 H 394.675 2.34141 -1.86597 0
M  V30 3876 H 392.221 1.12523 -0.898584 0
M  V30 3877 H 394.174 4.20372 -0.294204 0
M  V30 3878 H 392.898 3.23072 0.478786 0
M  V30 3879 H 391.557 3.27201 -1.65332 0
M  V30 3880 H 391.205 5.02917 0.0911752 0
M  V30 3881 H 390.905 5.66954 -1.54393 0
M  V30 3882 H 392.429 6.06576 -0.699871 0
M  V30 3883 H 393.843 5.04248 -2.72776 0
M  V30 3884 H 392.24 4.87405 -3.50081 0
M  V30 3885 H 393.31 3.46466 -3.39248 0
M  V30 3886 N 394.653 0.992116 1.22453 0
M  V30 3887 C 395.563 0.55065 2.28046 0
M  V30 3888 C 396.579 -0.400189 1.69335 0
M  V30 3889 O 397.755 -0.267215 1.99619 0
M  V30 3890 C 394.82 -0.128496 3.46462 0
M  V30 3891 C 393.881 0.865208 4.20491 0
M  V30 3892 C 393.114 0.218377 5.33253 0
M  V30 3893 O 393.337 -0.987894 5.6178 0
M  V30 3894 O 392.271 0.922845 5.94783 0
M  V30 3895 H 396.097 1.4291 2.67975 0
M  V30 3896 H 393.682 0.760326 1.28606 0
M  V30 3897 H 395.564 -0.508947 4.18315 0
M  V30 3898 H 394.239 -0.981526 3.0846 0
M  V30 3899 H 393.146 1.29658 3.50913 0
M  V30 3900 H 394.479 1.68741 4.62371 0
M  V30 3901 N 396.131 -1.37776 0.765217 0
M  V30 3902 C 397.547 -1.53297 0.444108 0
M  V30 3903 C 397.747 -1.72515 -1.04119 0
M  V30 3904 O 396.803 -1.74278 -1.82711 0
M  V30 3905 C 398.116 -2.73328 1.25349 0
M  V30 3906 C 399.664 -2.87185 1.24473 0
M  V30 3907 C 400.139 -4.10191 2.03733 0
M  V30 3908 N 401.63 -4.17291 2.01053 0
M  V30 3909 C 402.365 -5.11488 2.59166 0
M  V30 3910 N 401.861 -6.11285 3.26041 0
M  V30 3911 N 403.654 -5.03924 2.49032 0
M  V30 3912 H 395.805 -1.23552 1.72768 0
M  V30 3913 H 398.068 -0.601103 0.733062 0
M  V30 3914 H 397.774 -2.6557 2.30577 0
M  V30 3915 H 397.648 -3.66834 0.87823 0
M  V30 3916 H 400.035 -2.94418 0.20047 0
M  V30 3917 H 400.116 -1.94657 1.65959 0
M  V30 3918 H 399.76 -4.0372 3.08176 0
M  V30 3919 H 399.69 -5.01821 1.59633 0
M  V30 3920 H 402.181 -3.45825 1.5236 0
M  V30 3921 H 402.494 -6.79678 3.67774 0
M  V30 3922 H 400.839 -6.11583 3.30138 0
M  V30 3923 H 404.03 -4.24902 1.96407 0
M  V30 3924 H 404.203 -5.77152 2.94617 0
M  V30 3925 N 397.609 -0.515225 -1.4894 0
M  V30 3926 C 398.839 0.0205735 -2.0659 0
M  V30 3927 C 399.247 1.30064 -1.37405 0
M  V30 3928 O 398.59 1.78087 -0.450632 0
M  V30 3929 C 398.652 0.330124 -3.57981 0
M  V30 3930 C 398.316 -0.854295 -4.48944 0
M  V30 3931 C 399.313 -1.7487 -4.89609 0
M  V30 3932 C 396.998 -1.05712 -4.9105 0
M  V30 3933 C 398.992 -2.82996 -5.71132 0
M  V30 3934 C 396.679 -2.14154 -5.72347 0
M  V30 3935 C 397.677 -3.0263 -6.12294 0
M  V30 3936 O 397.365 -4.09198 -6.91962 0
M  V30 3937 H 397.097 -0.0236833 -0.675585 0
M  V30 3938 H 399.651 -0.715956 -1.92518 0
M  V30 3939 H 397.881 1.12044 -3.70112 0
M  V30 3940 H 399.57 0.806233 -3.97812 0
M  V30 3941 H 400.336 -1.60388 -4.57712 0
M  V30 3942 H 396.215 -0.377788 -4.59449 0
M  V30 3943 H 399.759 -3.52083 -6.02232 0
M  V30 3944 H 395.656 -2.28626 -6.03656 0
M  V30 3945 H 396.424 -4.06726 -7.10293 0
M  V30 3946 N 399.087 1.5561 -0.249682 0
M  V30 3947 C 400.503 1.59254 0.105103 0
M  V30 3948 C 400.703 1.26685 1.56694 0
M  V30 3949 O 399.759 1.0155 2.31179 0
M  V30 3950 C 401.072 2.99687 -0.246592 0
M  V30 3951 C 402.62 3.12416 -0.191118 0
M  V30 3952 C 403.095 4.55074 -0.516885 0
M  V30 3953 N 404.586 4.60835 -0.467489 0
M  V30 3954 C 405.321 5.69201 -0.69268 0
M  V30 3955 N 404.817 6.85817 -0.981146 0
M  V30 3956 N 406.61 5.58635 -0.623198 0
M  V30 3957 H 398.761 1.75049 -1.20298 0
M  V30 3958 H 401.024 0.815003 -0.484225 0
M  V30 3959 H 400.73 3.28267 -1.26228 0
M  V30 3960 H 400.604 3.74798 0.424962 0
M  V30 3961 H 402.991 2.83615 0.815247 0
M  V30 3962 H 403.072 2.39573 -0.896563 0
M  V30 3963 H 402.716 4.84596 -1.52082 0
M  V30 3964 H 402.646 5.26181 0.210068 0
M  V30 3965 H 405.137 3.7705 -0.253373 0
M  V30 3966 H 405.45 7.64341 -1.14032 0
M  V30 3967 H 403.795 6.87494 -1.01865 0
M  V30 3968 H 406.986 4.66406 -0.397863 0
M  V30 3969 H 407.159 6.43017 -0.802093 0
M  V30 3970 N 400.565 -0.0233959 1.57583 0
M  V30 3971 C 401.528 -1.00693 2.05897 0
M  V30 3972 C 402.528 -1.28693 0.964092 0
M  V30 3973 O 403.718 -1.23602 1.22753 0
M  V30 3974 C 400.85 -2.33825 2.4807 0
M  V30 3975 H 402.043 -0.589476 2.9405 0
M  V30 3976 H 399.596 -0.270354 1.53944 0
M  V30 3977 H 400.331 -2.80307 1.6309 0
M  V30 3978 H 400.116 -2.1483 3.2801 0
M  V30 3979 H 401.606 -3.04426 2.85857 0
M  V30 3980 N 402.043 -1.548 -0.295768 0
M  V30 3981 C 403.459 -1.4613 -0.641722 0
M  V30 3982 C 403.659 -0.656771 -1.90496 0
M  V30 3983 O 402.715 -0.166547 -2.5195 0
M  V30 3984 C 404.028 -2.90141 -0.789852 0
M  V30 3985 C 405.576 -3.00216 -0.885396 0
M  V30 3986 C 406.051 -4.45434 -1.06548 0
M  V30 3987 N 407.542 -4.49166 -1.13156 0
M  V30 3988 C 408.277 -5.58717 -1.28929 0
M  V30 3989 N 407.773 -6.78182 -1.41567 0
M  V30 3990 N 409.566 -5.46415 -1.31859 0
M  V30 3991 H 401.717 -2.05574 0.534147 0
M  V30 3992 H 403.98 -0.931259 0.177372 0
M  V30 3993 H 403.686 -3.51635 0.0675598 0
M  V30 3994 H 403.56 -3.37859 -1.67724 0
M  V30 3995 H 405.947 -2.38833 -1.73329 0
M  V30 3996 H 406.028 -2.55787 0.0261185 0
M  V30 3997 H 405.672 -5.07413 -0.222335 0
M  V30 3998 H 405.602 -4.87499 -1.9913 0
M  V30 3999 H 408.093 -3.631 -1.04721 0
M  V30 4000 H 408.406 -7.57428 -1.53372 0
M  V30 4001 H 406.751 -6.81037 -1.38613 0
M  V30 4002 H 409.942 -4.5203 -1.21601 0
M  V30 4003 H 410.115 -6.31841 -1.43808 0
M  V30 4004 N 403.521 0.559213 -1.47345 0
M  V30 4005 C 404.77 1.31281 -1.53128 0
M  V30 4006 C 405.083 1.94602 -0.197344 0
M  V30 4007 O 406.289 2.71173 -0.133154 0
M  V30 4008 C 404.745 2.38051 -2.69925 0
M  V30 4009 C 404.353 1.8093 -4.0984 0
M  V30 4010 C 406.097 3.14604 -2.84999 0
M  V30 4011 C 404.004 2.85468 -5.1794 0
M  V30 4012 H 402.934 0.493614 -0.569966 0
M  V30 4013 H 405.585 0.594155 -1.73615 0
M  V30 4014 H 403.967 3.12822 -2.42814 0
M  V30 4015 H 405.141 1.12544 -4.46845 0
M  V30 4016 H 403.456 1.16967 -3.99634 0
M  V30 4017 H 406.053 3.92666 -3.62929 0
M  V30 4018 H 406.396 3.68665 -1.93369 0
M  V30 4019 H 406.929 2.46945 -3.1187 0
M  V30 4020 H 403.668 2.36264 -6.1144 0
M  V30 4021 H 403.188 3.52269 -4.85455 0
M  V30 4022 H 404.867 3.48996 -5.44803 0
M  V30 4023 N 404.999 1.35443 0.805782 0
M  V30 4024 C 405.929 1.31095 1.93226 0
M  V30 4025 C 406.91 0.185244 1.69088 0
M  V30 4026 O 408.095 0.380332 1.90439 0
M  V30 4027 C 405.225 1.08299 3.29983 0
M  V30 4028 C 404.179 2.17519 3.68605 0
M  V30 4029 C 403.505 1.79887 5.03532 0
M  V30 4030 C 404.805 3.5949 3.78898 0
M  V30 4031 H 406.499 2.25352 1.97122 0
M  V30 4032 H 404.045 1.0848 0.946996 0
M  V30 4033 H 405.998 1.03897 4.08391 0
M  V30 4034 H 404.722 0.104885 3.26432 0
M  V30 4035 H 403.381 2.2102 2.92482 0
M  V30 4036 H 403.029 0.80693 4.96485 0
M  V30 4037 H 402.729 2.53001 5.30344 0
M  V30 4038 H 404.253 1.77011 5.84379 0
M  V30 4039 H 405.667 3.58307 4.47536 0
M  V30 4040 H 404.064 4.31371 4.1718 0
M  V30 4041 H 405.134 3.95584 2.80431 0
M  V30 4042 N 406.477 -1.02803 1.19454 0
M  V30 4043 C 407.754 -1.73299 0.907013 0
M  V30 4044 C 408.134 -2.02772 -0.587086 0
M  V30 4045 O 407.482 -1.68304 -1.54551 0
M  V30 4046 C 407.692 -3.00912 1.76785 0
M  V30 4047 C 409.04 -3.74403 2.00268 0
M  V30 4048 O 410.064 -3.10841 1.73943 0
M  V30 4049 O 408.923 -4.88675 2.4466 0
M  V30 4050 H 406.017 -0.754727 0.338106 0
M  V30 4051 H 408.563 -1.08754 1.30271 0
M  V30 4052 H 407.335 -2.75366 2.7801 0
M  V30 4053 H 406.958 -3.73197 1.37149 0
M  V30 4054 N 407.956 -0.998596 -1.21925 0
M  V30 4055 C 409.184 -0.696286 -1.94832 0
M  V30 4056 C 409.599 0.740032 -1.73692 0
M  V30 4057 O 408.956 1.5 -1.03953 0
M  V30 4058 C 409.007 -0.999833 -3.47398 0
M  V30 4059 O 408.728 -2.37972 -3.67833 0
M  V30 4060 C 410.229 -0.716025 -4.37479 0
M  V30 4061 H 407.449 -0.257111 -0.619786 0
M  V30 4062 H 409.993 -1.33491 -1.54921 0
M  V30 4063 H 408.148 -0.406918 -3.85257 0
M  V30 4064 H 408.562 -2.48338 -4.61983 0
M  V30 4065 H 410.036 -0.978642 -5.43256 0
M  V30 4066 H 410.513 0.349968 -4.37803 0
M  V30 4067 H 411.119 -1.29025 -4.05256 0
M  V30 4068 N 409.434 1.37368 -0.772513 0
M  V30 4069 C 410.681 1.99673 -0.337182 0
M  V30 4070 C 411.009 1.61324 1.0865 0
M  V30 4071 O 410.264 0.851377 1.7621 0
M  V30 4072 C 410.563 3.54817 -0.428876 0
M  V30 4073 C 410.229 4.12936 -1.81092 0
M  V30 4074 C 408.891 4.28523 -2.1891 0
M  V30 4075 C 411.243 4.44801 -2.71664 0
M  V30 4076 C 408.571 4.73277 -3.46735 0
M  V30 4077 C 410.923 4.90981 -3.98899 0
M  V30 4078 C 409.587 5.04773 -4.36761 0
M  V30 4079 H 408.857 0.730656 -0.123384 0
M  V30 4080 H 411.504 1.64124 -0.986686 0
M  V30 4081 H 409.809 3.90618 0.304167 0
M  V30 4082 H 411.506 4.00933 -0.0733334 0
M  V30 4083 H 408.096 4.01233 -1.50699 0
M  V30 4084 H 412.28 4.32344 -2.43706 0
M  V30 4085 H 407.536 4.82142 -3.75964 0
M  V30 4086 H 411.71 5.14603 -4.69208 0
M  V30 4087 H 409.337 5.39211 -5.35868 0
M  V30 4088 N 410.912 0.523116 1.48665 0
M  V30 4089 C 411.842 -0.23231 2.32342 0
M  V30 4090 C 412.823 -0.941637 1.41659 0
M  V30 4091 O 414.008 -0.928751 1.70552 0
M  V30 4092 C 411.138 -1.28387 3.22698 0
M  V30 4093 C 410.092 -0.693098 4.22351 0
M  V30 4094 C 409.418 -1.8468 5.01794 0
M  V30 4095 C 410.718 0.33063 5.21252 0
M  V30 4096 H 412.412 0.466192 2.95748 0
M  V30 4097 H 409.958 0.225643 1.42221 0
M  V30 4098 H 411.911 -1.82024 3.80059 0
M  V30 4099 H 410.635 -2.01186 2.57278 0
M  V30 4100 H 409.294 -0.178299 3.66166 0
M  V30 4101 H 408.942 -2.56301 4.32804 0
M  V30 4102 H 408.642 -1.45747 5.69238 0
M  V30 4103 H 410.166 -2.38709 5.62006 0
M  V30 4104 H 411.58 -0.118407 5.73178 0
M  V30 4105 H 409.977 0.636974 5.9671 0
M  V30 4106 H 411.047 1.23883 4.68808 0
M  V30 4107 N 412.39 -1.55475 0.257931 0
M  V30 4108 C 413.638 -1.98813 -0.363009 0
M  V30 4109 C 413.959 -1.14757 -1.57657 0
M  V30 4110 O 413.229 -0.232956 -1.9451 0
M  V30 4111 H 411.809 -0.734308 -0.137113 0
M  V30 4112 H 414.471 -1.9156 0.359281 0
M  V30 4113 H 413.567 -3.04941 -0.664634 0
M  V30 4114 N 413.868 0.0150385 -1.57593 0
M  V30 4115 C 414.798 1.01047 -2.10503 0
M  V30 4116 C 415.779 1.36816 -1.01071 0
M  V30 4117 O 416.964 1.45455 -1.28672 0
M  V30 4118 C 414.094 2.30708 -2.59598 0
M  V30 4119 C 413.048 2.09142 -3.73421 0
M  V30 4120 C 412.374 3.44685 -4.08774 0
M  V30 4121 C 413.674 1.46619 -5.01298 0
M  V30 4122 H 415.368 0.569978 -2.93925 0
M  V30 4123 H 412.914 0.272724 -1.41394 0
M  V30 4124 H 414.867 3.00687 -2.95238 0
M  V30 4125 H 413.591 2.76843 -1.73279 0
M  V30 4126 H 412.25 1.41592 -3.38153 0
M  V30 4127 H 411.898 3.88495 -3.195 0
M  V30 4128 H 411.598 3.31077 -4.8545 0
M  V30 4129 H 413.122 4.16004 -4.4696 0
M  V30 4130 H 414.536 2.06535 -5.34805 0
M  V30 4131 H 412.933 1.43544 -5.82679 0
M  V30 4132 H 414.003 0.433611 -4.82957 0
M  V30 4133 N 415.346 1.54954 0.287554 0
M  V30 4134 C 416.757 1.65732 0.859634 0
M  V30 4135 C 417.108 0.574767 1.87592 0
M  V30 4136 O 416.233 -0.286299 2.14498 0
M  V30 4137 C 416.828 3.00438 1.56597 0
M  V30 4138 C 415.387 3.13292 2.08627 0
M  V30 4139 C 414.534 2.61473 0.923416 0
M  V30 4140 H 417.485 1.5857 0.0642338 0
M  V30 4141 H 417.506 2.92613 2.43224 0
M  V30 4142 H 417.018 3.79207 0.826053 0
M  V30 4143 H 415.119 2.39268 2.85625 0
M  V30 4144 H 415.232 4.19647 2.31157 0
M  V30 4145 H 413.596 2.18264 1.31275 0
M  V30 4146 H 414.379 3.42733 0.197241 0
M  V30 4147 N 416.824 -0.551391 1.4764 0
M  V30 4148 C 417.756 -1.67333 1.56628 0
M  V30 4149 C 418.769 -1.56398 0.452045 0
M  V30 4150 O 419.958 -1.6325 0.721926 0
M  V30 4151 C 417.058 -3.05841 1.45994 0
M  V30 4152 C 416.231 -3.42472 2.72088 0
M  V30 4153 C 415.29 -4.60168 2.55209 0
M  V30 4154 O 414.316 -4.64458 3.2904 0
M  V30 4155 N 415.518 -5.57024 1.63416 0
M  V30 4156 H 418.283 -1.60066 2.53375 0
M  V30 4157 H 415.844 -0.738169 1.44093 0
M  V30 4158 H 417.836 -3.8242 1.32428 0
M  V30 4159 H 416.406 -3.07302 0.573071 0
M  V30 4160 H 415.626 -2.55284 3.00373 0
M  V30 4161 H 416.914 -3.63723 3.55785 0
M  V30 4162 H 416.312 -5.56319 1.02594 0
M  V30 4163 H 414.869 -6.32906 1.558 0
M  V30 4164 N 418.302 -1.35869 -0.798587 0
M  V30 4165 C 419.532 -1.32529 -1.58491 0
M  V30 4166 C 419.94 0.0975405 -1.88948 0
M  V30 4167 O 419.283 1.06224 -1.49874 0
M  V30 4168 C 419.345 -2.07247 -2.9375 0
M  V30 4169 C 419.009 -3.56391 -2.86068 0
M  V30 4170 C 420.006 -4.50824 -2.58947 0
M  V30 4171 C 417.691 -3.9915 -3.04933 0
M  V30 4172 C 419.685 -5.85993 -2.5078 0
M  V30 4173 C 417.372 -5.34413 -2.96389 0
M  V30 4174 C 418.37 -6.27646 -2.69349 0
M  V30 4175 O 418.058 -7.60426 -2.60782 0
M  V30 4176 H 417.79 -0.456529 -0.498556 0
M  V30 4177 H 420.344 -1.79425 -0.999799 0
M  V30 4178 H 418.574 -1.55001 -3.54276 0
M  V30 4179 H 420.263 -1.96883 -3.54954 0
M  V30 4180 H 421.029 -4.19104 -2.44084 0
M  V30 4181 H 416.908 -3.26961 -3.24989 0
M  V30 4182 H 420.452 -6.58735 -2.29595 0
M  V30 4183 H 416.349 -5.65743 -3.10813 0
M  V30 4184 H 417.117 -7.70444 -2.76331 0
M  V30 4185 N 419.78 1.02168 -1.19998 0
M  V30 4186 C 420.73 2.08969 -0.911921 0
M  V30 4187 C 421.714 1.60404 0.12621 0
M  V30 4188 O 422.906 1.76817 -0.0804706 0
M  V30 4189 C 420.035 3.402 -0.460277 0
M  V30 4190 C 419.121 3.9548 -1.53155 0
M  V30 4191 N 419.512 4.24332 -2.75275 0
M  V30 4192 C 417.81 4.23572 -1.39653 0
M  V30 4193 C 418.511 4.68834 -3.44339 0
M  V30 4194 N 417.487 4.70804 -2.71744 0
M  V30 4195 H 421.289 2.29178 -1.83997 0
M  V30 4196 H 418.803 1.20094 -1.09322 0
M  V30 4197 H 420.8 4.16235 -0.235337 0
M  V30 4198 H 419.46 3.21408 0.4612 0
M  V30 4199 H 420.471 4.13393 -3.11973 0
M  V30 4200 H 417.148 4.14005 -0.539067 0
M  V30 4201 H 418.538 5.00019 -4.4881 0
M  V30 4202 N 421.258 1.00505 1.21394 0
M  V30 4203 C 422.506 0.686415 1.90086 0
M  V30 4204 C 422.827 -0.785264 1.7849 0
M  V30 4205 O 422.097 -1.56387 1.17983 0
M  V30 4206 H 420.677 0.2509 0.703604 0
M  V30 4207 H 423.339 1.27417 1.47482 0
M  V30 4208 H 422.435 0.959621 2.96981 0
M  V30 4209 N 422.737 -1.36956 0.779787 0
M  V30 4210 C 423.667 -2.32761 0.185651 0
M  V30 4211 C 424.648 -1.56177 -0.673989 0
M  V30 4212 O 425.833 -1.84378 -0.609797 0
M  V30 4213 C 422.963 -3.40418 -0.687964 0
M  V30 4214 C 421.917 -4.27941 0.0710102 0
M  V30 4215 C 421.243 -5.26681 -0.922573 0
M  V30 4216 C 422.543 -5.07006 1.25467 0
M  V30 4217 H 424.237 -2.82698 0.986008 0
M  V30 4218 H 421.783 -1.3592 0.475592 0
M  V30 4219 H 423.736 -4.06423 -1.11348 0
M  V30 4220 H 422.46 -2.89025 -1.52093 0
M  V30 4221 H 421.119 -3.63478 0.47739 0
M  V30 4222 H 420.767 -4.71565 -1.7503 0
M  V30 4223 H 420.467 -5.86103 -0.419237 0
M  V30 4224 H 421.991 -5.9556 -1.34686 0
M  V30 4225 H 423.405 -5.66105 0.905401 0
M  V30 4226 H 421.802 -5.75793 1.69063 0
M  V30 4227 H 422.872 -4.3921 2.05481 0
M  V30 4228 N 424.215 -0.530993 -1.48385 0
M  V30 4229 C 425.147 0.268353 -2.27624 0
M  V30 4230 C 426.16 0.903525 -1.35426 0
M  V30 4231 O 427.349 0.781796 -1.60469 0
M  V30 4232 C 424.449 1.39535 -3.08842 0
M  V30 4233 C 423.622 0.861913 -4.28824 0
M  V30 4234 C 422.681 1.87016 -4.91845 0
M  V30 4235 O 421.707 1.4267 -5.5103 0
M  V30 4236 N 422.909 3.20238 -4.84178 0
M  V30 4237 H 425.674 -0.41123 -2.96865 0
M  V30 4238 H 423.235 -0.365387 -1.57723 0
M  V30 4239 H 425.227 2.06803 -3.47871 0
M  V30 4240 H 423.797 1.97859 -2.42014 0
M  V30 4241 H 423.017 0.0132126 -3.94198 0
M  V30 4242 H 424.305 0.484415 -5.06489 0
M  V30 4243 H 423.703 3.58932 -4.37246 0
M  V30 4244 H 422.26 3.83136 -5.27305 0
M  V30 4245 N 425.693 1.55336 -0.266172 0
M  V30 4246 C 426.939 1.99692 0.353681 0
M  V30 4247 C 427.272 1.1543 1.56172 0
M  V30 4248 O 426.547 0.222218 1.93226 0
M  V30 4249 C 426.83 3.52316 0.74466 0
M  V30 4250 C 426.683 4.47337 -0.470101 0
M  V30 4251 C 428.002 4.10588 1.58447 0
M  V30 4252 H 425.121 0.725961 0.12708 0
M  V30 4253 H 427.763 1.86336 -0.371333 0
M  V30 4254 H 425.913 3.63829 1.36239 0
M  V30 4255 H 427.585 4.4778 -1.10864 0
M  V30 4256 H 425.828 4.19364 -1.10978 0
M  V30 4257 H 426.499 5.51788 -0.15291 0
M  V30 4258 H 428.975 4.02297 1.06286 0
M  V30 4259 H 427.851 5.17607 1.82686 0
M  V30 4260 H 428.112 3.60253 2.56262 0
M  V30 4261 N 427.171 -0.0066808 1.57599 0
M  V30 4262 C 428.134 -0.985035 2.06953 0
M  V30 4263 C 429.134 -1.27663 0.977687 0
M  V30 4264 O 430.324 -1.22293 1.24057 0
M  V30 4265 C 427.456 -2.3118 2.50536 0
M  V30 4266 H 428.649 -0.558255 2.94658 0
M  V30 4267 H 426.202 -0.254011 1.54222 0
M  V30 4268 H 426.937 -2.78561 1.66054 0
M  V30 4269 H 426.722 -2.11338 3.3027 0
M  V30 4270 H 428.212 -3.01377 2.8907 0
M  V30 4271 N 428.649 -1.55105 -0.279332 0
M  V30 4272 C 429.895 -1.75672 -1.01327 0
M  V30 4273 C 430.228 -0.552739 -1.86168 0
M  V30 4274 O 429.503 0.449827 -1.89227 0
M  V30 4275 C 429.786 -3.05825 -1.90114 0
M  V30 4276 C 429.639 -4.36565 -1.08309 0
M  V30 4277 C 430.958 -3.31975 -2.8893 0
M  V30 4278 H 428.077 -0.639149 -0.366957 0
M  V30 4279 H 430.719 -1.87833 -0.286154 0
M  V30 4280 H 428.869 -2.95588 -2.52111 0
M  V30 4281 H 430.541 -4.58751 -0.484314 0
M  V30 4282 H 428.784 -4.32076 -0.386362 0
M  V30 4283 H 429.455 -5.23946 -1.73737 0
M  V30 4284 H 431.931 -3.41963 -2.37067 0
M  V30 4285 H 430.807 -4.2432 -3.48201 0
M  V30 4286 H 431.068 -2.51309 -3.63725 0
M  V30 4287 N 430.127 0.543554 -1.4793 0
M  V30 4288 C 431.352 1.32995 -1.59145 0
M  V30 4289 C 431.777 1.86472 -0.246956 0
M  V30 4290 O 431.135 1.63696 0.779324 0
M  V30 4291 C 431.183 2.46623 -2.63077 0
M  V30 4292 O 430.287 3.49261 -2.19295 0
M  V30 4293 H 429.628 0.394472 -0.534124 0
M  V30 4294 H 432.158 0.655489 -1.93816 0
M  V30 4295 H 432.168 2.93001 -2.83926 0
M  V30 4296 H 430.843 2.07059 -3.60693 0
M  V30 4297 H 429.42 3.09094 -2.08603 0
M  V30 4298 N 431.605 1.3629 0.791371 0
M  V30 4299 C 432.552 1.30458 1.90393 0
M  V30 4300 C 433.522 0.173632 1.6519 0
M  V30 4301 O 434.707 0.35983 1.87376 0
M  V30 4302 C 431.847 1.09777 3.27174 0
M  V30 4303 C 430.96 2.31929 3.64462 0
M  V30 4304 C 430.095 2.04276 4.90352 0
M  V30 4305 C 429.134 3.224 5.20312 0
M  V30 4306 N 428.271 2.94424 6.37385 0
M  V30 4307 H 433.111 2.25589 1.94714 0
M  V30 4308 H 430.648 1.12122 0.952216 0
M  V30 4309 H 432.606 0.958133 4.06049 0
M  V30 4310 H 431.236 0.183014 3.22281 0
M  V30 4311 H 430.288 2.56703 2.80727 0
M  V30 4312 H 431.6 3.20085 3.82553 0
M  V30 4313 H 430.754 1.87231 5.77087 0
M  V30 4314 H 429.493 1.13428 4.74326 0
M  V30 4315 H 428.498 3.40005 4.32061 0
M  V30 4316 H 429.723 4.14071 5.38258 0
M  V30 4317 H 427.669 2.06185 6.22755 0
M  V30 4318 H 427.586 3.76118 6.55798 0
M  V30 4319 H 428.854 2.80953 7.27108 0
M  V30 4320 N 433.083 -1.0153 1.20538 0
M  V30 4321 C 434.329 -1.75408 1.01783 0
M  V30 4322 C 434.662 -1.88943 -0.448814 0
M  V30 4323 O 433.937 -1.4162 -1.33319 0
M  V30 4324 C 434.22 -3.17255 1.70356 0
M  V30 4325 C 434.073 -3.11508 3.24473 0
M  V30 4326 C 435.392 -4.15955 1.43769 0
M  V30 4327 H 432.511 -0.636713 0.371167 0
M  V30 4328 H 435.153 -1.18436 1.4857 0
M  V30 4329 H 433.303 -3.65898 1.30578 0
M  V30 4330 H 434.975 -2.70658 3.73553 0
M  V30 4331 H 433.218 -2.4887 3.55311 0
M  V30 4332 H 433.889 -4.11784 3.67611 0
M  V30 4333 H 436.365 -3.75973 1.7828 0
M  V30 4334 H 435.241 -5.13368 1.94279 0
M  V30 4335 H 435.502 -4.40586 0.365564 0
M  V30 4336 N 434.561 -1.01147 -1.20859 0
M  V30 4337 C 435.972 -0.730205 -1.71828 0
M  V30 4338 C 436.323 0.751662 -1.8123 0
M  V30 4339 O 435.448 1.58686 -1.47132 0
M  V30 4340 C 436.043 -1.31885 -3.12077 0
M  V30 4341 C 434.602 -1.08656 -3.60376 0
M  V30 4342 C 433.749 -1.42769 -2.37723 0
M  V30 4343 H 436.7 -1.18158 -1.05945 0
M  V30 4344 H 436.721 -0.706793 -3.73878 0
M  V30 4345 H 436.233 -2.39737 -3.05201 0
M  V30 4346 H 434.334 -0.0254814 -3.72591 0
M  V30 4347 H 434.447 -1.76301 -4.45483 0
M  V30 4348 H 432.811 -0.846603 -2.40218 0
M  V30 4349 H 433.594 -2.51666 -2.33493 0
M  V30 4350 N 436.039 1.36541 -0.78704 0
M  V30 4351 C 437.455 1.52571 -0.46844 0
M  V30 4352 C 437.655 1.7415 1.01361 0
M  V30 4353 O 436.711 1.77163 1.79915 0
M  V30 4354 C 438.024 2.71299 -1.29682 0
M  V30 4355 C 439.572 2.85169 -1.29027 0
M  V30 4356 C 440.047 4.06898 -2.10233 0
M  V30 4357 N 441.538 4.1404 -2.07666 0
M  V30 4358 C 442.273 5.07301 -2.67271 0
M  V30 4359 N 441.769 6.06021 -3.35724 0
M  V30 4360 N 443.562 4.99898 -2.57018 0
M  V30 4361 H 435.713 1.20788 -1.74711 0
M  V30 4362 H 437.976 0.589364 -0.742532 0
M  V30 4363 H 437.682 2.61868 -2.34773 0
M  V30 4364 H 437.556 3.6539 -0.936479 0
M  V30 4365 H 439.943 2.94062 -0.247284 0
M  V30 4366 H 440.024 1.91992 -1.69035 0
M  V30 4367 H 439.668 3.98766 -3.1456 0
M  V30 4368 H 439.598 4.99218 -1.67597 0
M  V30 4369 H 442.089 3.43357 -1.57843 0
M  V30 4370 H 442.402 6.73741 -3.78541 0
M  V30 4371 H 440.747 6.06253 -3.39826 0
M  V30 4372 H 443.938 4.21724 -2.03142 0
M  V30 4373 H 444.111 5.72392 -3.03761 0
M  V30 4374 N 437.518 0.538854 1.48102 0
M  V30 4375 C 438.743 0.0102694 2.07397 0
M  V30 4376 C 439.168 -1.26562 1.39153 0
M  V30 4377 O 438.526 -1.75357 0.460387 0
M  V30 4378 C 438.574 -0.187602 3.60112 0
M  V30 4379 O 437.678 -1.25432 3.92862 0
M  V30 4380 H 437.019 0.0430975 0.6626 0
M  V30 4381 H 439.549 0.749301 1.90385 0
M  V30 4382 H 439.559 -0.407517 4.0596 0
M  V30 4383 H 438.234 0.744386 4.09184 0
M  V30 4384 H 436.811 -1.01636 3.58782 0
M  V30 4385 N 438.996 -1.55193 0.274407 0
M  V30 4386 C 440.221 -2.04446 -0.348824 0
M  V30 4387 C 440.646 -1.15149 -1.48735 0
M  V30 4388 O 440.004 -0.149952 -1.80679 0
M  V30 4389 C 440.052 -3.51431 -0.808009 0
M  V30 4390 O 439.156 -3.65225 -1.91531 0
M  V30 4391 H 438.497 -0.66006 -0.0722276 0
M  V30 4392 H 441.027 -2.00481 0.408498 0
M  V30 4393 H 441.037 -3.92781 -1.10395 0
M  V30 4394 H 439.712 -4.15892 0.0249865 0
M  V30 4395 H 438.289 -3.35778 -1.62196 0
M  V30 4396 N 440.474 -0.00167713 -1.576 0
M  V30 4397 C 441.89 0.354422 -1.55615 0
M  V30 4398 C 442.09 1.74679 -1.00447 0
M  V30 4399 O 441.146 2.4428 -0.639022 0
M  V30 4400 C 442.459 0.22812 -2.99833 0
M  V30 4401 C 444.007 0.302934 -3.11531 0
M  V30 4402 C 444.482 0.205737 -4.57538 0
M  V30 4403 N 445.973 0.263584 -4.62449 0
M  V30 4404 C 446.708 0.211742 -5.73009 0
M  V30 4405 N 446.204 0.110399 -6.92712 0
M  V30 4406 N 447.997 0.263729 -5.61481 0
M  V30 4407 H 440.148 -0.912498 -1.918 0
M  V30 4408 H 442.411 -0.349928 -0.881053 0
M  V30 4409 H 442.117 -0.729934 -3.44042 0
M  V30 4410 H 441.991 1.00951 -3.6344 0
M  V30 4411 H 444.378 1.25143 -2.67251 0
M  V30 4412 H 444.459 -0.508357 -2.50698 0
M  V30 4413 H 444.103 -0.739225 -5.02492 0
M  V30 4414 H 444.033 1.03554 -5.16318 0
M  V30 4415 H 446.524 0.343173 -3.76339 0
M  V30 4416 H 446.837 0.0767828 -7.72762 0
M  V30 4417 H 445.182 0.0760025 -6.94958 0
M  V30 4418 H 448.373 0.34111 -4.66855 0
M  V30 4419 H 448.546 0.219862 -6.47627 0
M  V30 4420 N 441.952 1.55251 0.271103 0
M  V30 4421 C 442.882 1.9127 1.33933 0
M  V30 4422 C 443.863 0.77478 1.5143 0
M  V30 4423 O 445.048 1.03307 1.64442 0
M  V30 4424 C 442.178 2.18627 2.69851 0
M  V30 4425 C 441.132 3.34442 2.67081 0
M  V30 4426 C 440.458 3.47284 4.06569 0
M  V30 4427 C 441.758 4.70784 2.26185 0
M  V30 4428 H 443.452 2.80744 1.04035 0
M  V30 4429 H 440.998 1.35077 0.499017 0
M  V30 4430 H 442.951 2.42413 3.44694 0
M  V30 4431 H 441.675 1.25955 3.01335 0
M  V30 4432 H 440.334 3.10627 1.94695 0
M  V30 4433 H 439.982 2.52074 4.35279 0
M  V30 4434 H 439.682 4.25152 4.0561 0
M  V30 4435 H 441.206 3.73363 4.83148 0
M  V30 4436 H 442.62 4.94102 2.90751 0
M  V30 4437 H 441.017 5.51582 2.36384 0
M  V30 4438 H 442.087 4.69478 1.21319 0
M  V30 4439 N 443.43 -0.535701 1.48216 0
M  V30 4440 C 444.846 -0.863701 1.3421 0
M  V30 4441 C 445.046 -1.98458 0.34879 0
M  V30 4442 O 444.102 -2.51432 -0.23204 0
M  V30 4443 C 445.415 -1.23662 2.74095 0
M  V30 4444 C 446.963 -1.34683 2.82541 0
M  V30 4445 C 447.438 -1.75322 4.23115 0
M  V30 4446 N 448.929 -1.82434 4.2576 0
M  V30 4447 C 449.664 -2.15252 5.31464 0
M  V30 4448 N 449.16 -2.46533 6.47452 0
M  V30 4449 N 450.953 -2.16209 5.18855 0
M  V30 4450 H 443.104 0.203965 2.11418 0
M  V30 4451 H 445.367 0.0286033 0.947568 0
M  V30 4452 H 445.073 -0.486674 3.48316 0
M  V30 4453 H 444.947 -2.18805 3.07253 0
M  V30 4454 H 447.334 -2.08756 2.08579 0
M  V30 4455 H 447.415 -0.376756 2.5301 0
M  V30 4456 H 447.059 -1.01812 4.97591 0
M  V30 4457 H 446.989 -2.7337 4.50085 0
M  V30 4458 H 449.48 -1.6056 3.42095 0
M  V30 4459 H 449.793 -2.70662 7.23852 0
M  V30 4460 H 448.138 -2.44065 6.50736 0
M  V30 4461 H 451.329 -1.91224 4.2726 0
M  V30 4462 H 451.502 -2.41453 6.01335 0
M  V30 4463 N 444.908 -1.36708 -0.784132 0
M  V30 4464 C 445.818 -1.3363 -1.92822 0
M  V30 4465 C 446.834 -0.237686 -1.72369 0
M  V30 4466 O 448.01 -0.470962 -1.95816 0
M  V30 4467 C 445.075 -1.13011 -3.27764 0
M  V30 4468 C 444.136 -2.32397 -3.60957 0
M  V30 4469 C 443.369 -2.12752 -4.89461 0
M  V30 4470 O 443.592 -1.10541 -5.59586 0
M  V30 4471 O 442.526 -3.00653 -5.21432 0
M  V30 4472 H 446.352 -2.29964 -1.98369 0
M  V30 4473 H 443.937 -1.1731 -0.925136 0
M  V30 4474 H 445.819 -1.03451 -4.08504 0
M  V30 4475 H 444.494 -0.19743 -3.23097 0
M  V30 4476 H 443.401 -2.47527 -2.80502 0
M  V30 4477 H 444.734 -3.2419 -3.70354 0
M  V30 4478 N 446.386 1.0089 -1.21074 0
M  V30 4479 C 447.349 2.0775 -0.968129 0
M  V30 4480 C 448.349 1.6069 0.0593445 0
M  V30 4481 O 449.539 1.73293 -0.177525 0
M  V30 4482 C 446.671 3.37794 -0.459108 0
M  V30 4483 H 447.864 2.30707 -1.9161 0
M  V30 4484 H 445.417 1.17807 -1.02719 0
M  V30 4485 H 446.152 3.20516 0.49397 0
M  V30 4486 H 445.937 3.7328 -1.20019 0
M  V30 4487 H 447.427 4.16454 -0.309099 0
M  V30 4488 N 447.864 1.01787 1.20321 0
M  V30 4489 C 449.141 0.622978 1.85414 0
M  V30 4490 C 449.521 -0.898887 1.91006 0
M  V30 4491 O 448.869 -1.79112 1.41884 0
M  V30 4492 C 449.079 1.27226 3.24984 0
M  V30 4493 C 450.427 1.3885 4.01255 0
M  V30 4494 O 451.451 1.22857 3.34342 0
M  V30 4495 O 450.31 1.64705 5.2109 0
M  V30 4496 H 447.404 0.215116 0.798533 0
M  V30 4497 H 449.95 1.11533 1.27901 0
M  V30 4498 H 448.722 2.31209 3.15687 0
M  V30 4499 H 448.345 0.767069 3.90131 0
M  V30 4500 N 449.342 -1.36122 0.79427 0
M  V30 4501 C 450.57 -2.03362 0.380989 0
M  V30 4502 C 450.985 -1.59881 -1.00416 0
M  V30 4503 O 450.342 -0.790515 -1.6449 0
M  V30 4504 C 450.393 -3.58804 0.440649 0
M  V30 4505 O 450.114 -4.007 1.77118 0
M  V30 4506 C 451.615 -4.43296 0.0186117 0
M  V30 4507 H 448.835 -0.652526 0.156367 0
M  V30 4508 H 451.379 -1.73998 1.07447 0
M  V30 4509 H 449.534 -3.8686 -0.204458 0
M  V30 4510 H 449.948 -4.95309 1.72538 0
M  V30 4511 H 451.422 -5.51887 0.111488 0
M  V30 4512 H 451.899 -4.2684 -1.03461 0
M  V30 4513 H 452.505 -4.20512 0.636395 0
M  V30 4514 N 450.82 -0.546701 -1.47814 0
M  V30 4515 C 451.73 0.21026 -2.33656 0
M  V30 4516 C 452.746 0.922413 -1.47538 0
M  V30 4517 O 453.922 0.893652 -1.80488 0
M  V30 4518 C 450.987 1.23348 -3.24016 0
M  V30 4519 C 450.048 0.529883 -4.26017 0
M  V30 4520 C 449.281 1.50435 -5.12059 0
M  V30 4521 O 449.504 2.73837 -5.00369 0
M  V30 4522 O 448.438 1.03459 -5.92942 0
M  V30 4523 H 452.264 -0.493605 -2.99662 0
M  V30 4524 H 449.849 -0.307427 -1.46203 0
M  V30 4525 H 451.731 1.82438 -3.79861 0
M  V30 4526 H 450.406 1.91945 -2.60651 0
M  V30 4527 H 449.313 -0.101948 -3.73961 0
M  V30 4528 H 450.646 -0.11445 -4.92067 0
M  V30 4529 N 452.299 1.55045 -0.282633 0
M  V30 4530 C 453.548 1.98938 0.332667 0
M  V30 4531 C 453.861 1.17455 1.56409 0
M  V30 4532 O 455.067 1.51527 2.25282 0
M  V30 4533 C 453.523 3.54105 0.643226 0
M  V30 4534 C 453.131 4.44374 -0.568814 0
M  V30 4535 C 454.875 4.06569 1.22074 0
M  V30 4536 C 452.782 5.90943 -0.232426 0
M  V30 4537 H 451.712 0.743043 0.128075 0
M  V30 4538 H 454.363 1.79341 -0.388464 0
M  V30 4539 H 452.745 3.69532 1.42346 0
M  V30 4540 H 453.919 4.40718 -1.34551 0
M  V30 4541 H 452.234 4.02585 -1.06369 0
M  V30 4542 H 454.831 5.13626 1.48635 0
M  V30 4543 H 455.174 3.56057 2.15707 0
M  V30 4544 H 455.707 3.94612 0.502621 0
M  V30 4545 H 452.446 6.45567 -1.13683 0
M  V30 4546 H 451.966 5.9765 0.507357 0
M  V30 4547 H 453.645 6.4677 0.172657 0
M  V30 4548 N 453.777 0.010035 1.57597 0
M  V30 4549 C 454.709 -1.00649 2.05918 0
M  V30 4550 C 455.722 -1.30077 0.978964 0
M  V30 4551 O 456.911 -1.26878 1.25556 0
M  V30 4552 C 454.011 -2.33876 2.45265 0
M  V30 4553 C 453.184 -2.23242 3.7614 0
M  V30 4554 C 452.243 -3.39242 4.02245 0
M  V30 4555 O 451.269 -3.1698 4.72771 0
M  V30 4556 N 452.471 -4.6242 3.50924 0
M  V30 4557 H 455.236 -0.594333 2.93748 0
M  V30 4558 H 452.797 -0.17714 1.60928 0
M  V30 4559 H 454.789 -3.1027 2.59836 0
M  V30 4560 H 453.359 -2.66799 1.62902 0
M  V30 4561 H 452.579 -1.31696 3.71551 0
M  V30 4562 H 453.867 -2.13321 4.61922 0
M  V30 4563 H 453.265 -4.83404 2.93832 0
M  V30 4564 H 451.822 -5.36046 3.70807 0
M  V30 4565 N 455.255 -1.55392 -0.262866 0
M  V30 4566 C 456.501 -1.76737 -0.99458 0
M  V30 4567 C 456.834 -0.572453 -1.85571 0
M  V30 4568 O 456.109 0.429732 -1.89693 0
M  V30 4569 C 456.392 -3.07824 -1.8686 0
M  V30 4570 C 456.245 -4.3769 -1.03672 0
M  V30 4571 C 457.564 -3.35021 -2.85393 0
M  V30 4572 H 454.683 -0.643005 -0.360157 0
M  V30 4573 H 457.325 -1.88126 -0.266216 0
M  V30 4574 H 455.475 -2.98245 -2.48962 0
M  V30 4575 H 457.147 -4.59238 -0.43563 0
M  V30 4576 H 455.39 -4.32461 -0.340513 0
M  V30 4577 H 456.061 -5.25759 -1.6817 0
M  V30 4578 H 458.537 -3.44458 -2.33426 0
M  V30 4579 H 457.413 -4.27989 -3.43681 0
M  V30 4580 H 457.674 -2.55153 -3.61039 0
M  V30 4581 N 456.733 0.527833 -1.48498 0
M  V30 4582 C 457.979 1.28545 -1.56857 0
M  V30 4583 C 458.312 1.92678 -0.242651 0
M  V30 4584 O 457.587 1.79394 0.751545 0
M  V30 4585 C 457.87 2.37314 -2.70839 0
M  V30 4586 C 457.723 1.77858 -4.13142 0
M  V30 4587 C 459.042 3.39068 -2.80573 0
M  V30 4588 H 456.161 0.466006 -0.570971 0
M  V30 4589 H 458.803 0.587784 -1.8068 0
M  V30 4590 H 456.953 2.96821 -2.50658 0
M  V30 4591 H 458.625 1.22385 -4.44769 0
M  V30 4592 H 456.868 1.08383 -4.20042 0
M  V30 4593 H 457.539 2.56624 -4.88721 0
M  V30 4594 H 460.015 2.89518 -2.98862 0
M  V30 4595 H 458.891 4.12566 -3.6205 0
M  V30 4596 H 459.152 3.9975 -1.88818 0
M  V30 4597 N 458.211 1.37122 0.776871 0
M  V30 4598 C 459.141 1.35164 1.90402 0
M  V30 4599 C 460.122 0.221069 1.68657 0
M  V30 4600 O 461.307 0.420642 1.8959 0
M  V30 4601 C 458.437 1.15274 3.27611 0
M  V30 4602 C 457.391 2.25289 3.63908 0
M  V30 4603 C 456.717 1.90527 4.99603 0
M  V30 4604 C 458.017 3.67446 3.71188 0
M  V30 4605 H 459.711 2.29482 1.92297 0
M  V30 4606 H 457.257 1.10465 0.923773 0
M  V30 4607 H 459.21 1.12536 4.06096 0
M  V30 4608 H 457.934 0.174102 3.26136 0
M  V30 4609 H 456.593 2.27174 2.87728 0
M  V30 4610 H 456.241 0.91206 4.94662 0
M  V30 4611 H 455.941 2.64193 5.24858 0
M  V30 4612 H 457.465 1.89367 5.80493 0
M  V30 4613 H 458.879 3.67719 4.39836 0
M  V30 4614 H 457.276 4.40123 4.07936 0
M  V30 4615 H 458.346 4.01443 2.71977 0
M  V30 4616 N 459.689 -1.00246 1.21608 0
M  V30 4617 C 460.935 -1.74319 1.03638 0
M  V30 4618 C 461.268 -1.89408 -0.428749 0
M  V30 4619 O 460.543 -1.43026 -1.3181 0
M  V30 4620 C 460.826 -3.15431 1.73711 0
M  V30 4621 C 460.679 -3.08049 3.27759 0
M  V30 4622 C 461.998 -4.14407 1.48173 0
M  V30 4623 H 459.117 -0.632741 0.377899 0
M  V30 4624 H 461.759 -1.16853 1.49818 0
M  V30 4625 H 459.909 -3.64493 1.34452 0
M  V30 4626 H 461.581 -2.66681 3.76403 0
M  V30 4627 H 459.824 -2.45088 3.57931 0
M  V30 4628 H 460.495 -4.07862 3.71958 0
M  V30 4629 H 462.971 -3.74061 1.82258 0
M  V30 4630 H 461.847 -5.11279 1.99713 0
M  V30 4631 H 462.108 -4.40174 0.412273 0
M  V30 4632 N 461.167 -1.02423 -1.1978 0
M  V30 4633 C 462.077 -0.610919 -2.26506 0
M  V30 4634 C 463.093 0.355152 -1.70337 0
M  V30 4635 O 464.269 0.214195 -2.00258 0
M  V30 4636 C 461.334 0.0365921 -3.46681 0
M  V30 4637 C 460.395 -0.976389 -4.18049 0
M  V30 4638 C 459.628 -0.359683 -5.32487 0
M  V30 4639 O 459.851 0.838601 -5.64202 0
M  V30 4640 O 458.785 -1.08022 -5.92127 0
M  V30 4641 H 462.611 -1.49965 -2.64091 0
M  V30 4642 H 460.196 -0.794156 -1.26545 0
M  V30 4643 H 462.078 0.39786 -4.19518 0
M  V30 4644 H 460.753 0.899398 -3.10954 0
M  V30 4645 H 459.66 -1.38916 -3.47352 0
M  V30 4646 H 460.993 -1.80941 -4.57735 0
M  V30 4647 N 462.645 1.35699 -0.801477 0
M  V30 4648 C 463.593 2.3177 -0.196317 0
M  V30 4649 C 464.587 1.56388 0.651081 0
M  V30 4650 O 465.793 1.71557 0.544815 0
M  V30 4651 H 462.168 0.750669 -0.0447189 0
M  V30 4652 H 464.139 2.8036 -1.02181 0
M  V30 4653 C 462.888 3.41671 0.644702 0
M  V30 4654 H 462.211 3.998 0.0019921 0
M  V30 4655 H 463.651 4.11184 1.0346 0
M  V30 4656 C 462.11 2.84271 1.80808 0
M  V30 4657 O 462.64 2.77408 2.9053 0
M  V30 4658 N 460.846 2.41391 1.61799 0
M  V30 4659 H 460.393 2.47173 0.725493 0
M  V30 4660 H 460.351 2.03334 2.39797 0
M  V30 4661 N 464.123 0.554532 1.47522 0
M  V30 4662 C 465.371 0.0294208 2.02079 0
M  V30 4663 C 465.692 -1.32411 1.43151 0
M  V30 4664 O 464.962 -1.863 0.605728 0
M  V30 4665 H 463.542 0.00788672 0.746958 0
M  V30 4666 H 466.204 0.723934 1.80956 0
M  V30 4667 H 465.3 -0.0606745 3.12041 0
M  V30 4668 N 465.601 -1.54893 0.290851 0
M  V30 4669 C 467.012 -1.85584 -0.203816 0
M  V30 4670 C 467.363 -1.21285 -1.54222 0
M  V30 4671 O 466.488 -0.506841 -2.10381 0
M  V30 4672 C 467.083 -3.367 -0.376595 0
M  V30 4673 C 465.642 -3.6746 -0.815485 0
M  V30 4674 C 464.789 -2.77178 0.0821087 0
M  V30 4675 H 467.74 -1.50208 0.512175 0
M  V30 4676 H 467.761 -3.60656 -1.21275 0
M  V30 4677 H 467.273 -3.8347 0.59767 0
M  V30 4678 H 465.374 -3.26201 -1.80066 0
M  V30 4679 H 465.487 -4.7478 -0.641905 0
M  V30 4680 H 463.851 -2.50925 -0.436895 0
M  V30 4681 H 464.634 -3.26767 1.05254 0
M  V30 4682 N 467.08 -0.0183926 -1.57589 0
M  V30 4683 C 467.99 0.982943 -2.13015 0
M  V30 4684 C 469.006 1.36443 -1.07979 0
M  V30 4685 O 470.182 1.44802 -1.3998 0
M  V30 4686 C 467.247 2.25024 -2.63752 0
M  V30 4687 C 466.308 1.93018 -3.83461 0
M  V30 4688 C 465.541 3.13706 -4.31769 0
M  V30 4689 O 465.764 4.2601 -3.79305 0
M  V30 4690 O 464.698 2.96629 -5.23732 0
M  V30 4691 H 468.524 0.541709 -2.9883 0
M  V30 4692 H 466.109 0.201565 -1.48034 0
M  V30 4693 H 467.991 2.99441 -2.96502 0
M  V30 4694 H 466.666 2.68349 -1.81026 0
M  V30 4695 H 465.573 1.16019 -3.55655 0
M  V30 4696 H 466.906 1.54516 -4.67317 0
M  V30 4697 N 468.558 1.5553 0.254621 0
M  V30 4698 C 469.786 1.81046 1.00149 0
M  V30 4699 C 470.201 0.593047 1.79244 0
M  V30 4700 O 469.558 -0.438196 1.77161 0
M  V30 4701 C 469.609 3.04684 1.94551 0
M  V30 4702 O 469.33 4.21725 1.18658 0
M  V30 4703 C 470.831 3.42943 2.80901 0
M  V30 4704 H 468.051 0.602653 0.295044 0
M  V30 4705 H 470.595 2.02576 0.279842 0
M  V30 4706 H 468.75 2.85226 2.62154 0
M  V30 4707 H 469.164 4.91746 1.82445 0
M  V30 4708 H 470.638 4.32576 3.42902 0
M  V30 4709 H 471.115 2.63176 3.51617 0
M  V30 4710 H 471.721 3.64724 2.18762 0
M  V30 4711 N 470.036 -0.519951 1.48776 0
M  V30 4712 C 471.284 -1.2727 1.56993 0
M  V30 4713 C 471.605 -1.9339 0.25004 0
M  V30 4714 O 470.875 -1.81822 -0.729216 0
M  V30 4715 H 469.455 -0.472732 0.578389 0
M  V30 4716 H 472.117 -0.604234 1.85297 0
M  V30 4717 H 471.213 -2.04669 2.3562 0
M  V30 4718 N 471.514 -1.37532 -0.769588 0
M  V30 4719 C 472.762 -1.32597 -1.5252 0
M  V30 4720 C 473.083 0.0884294 -1.94799 0
M  V30 4721 O 472.353 1.03289 -1.66458 0
M  V30 4722 H 470.933 -0.487846 -0.565699 0
M  V30 4723 H 473.595 -1.72044 -0.915806 0
M  V30 4724 H 472.691 -1.96643 -2.42359 0
M  V30 4725 N 472.992 0.995999 -1.22138 0
M  V30 4726 C 473.955 2.06711 -0.990109 0
M  V30 4727 C 474.955 1.60744 0.0422978 0
M  V30 4728 O 476.145 1.73095 -0.195895 0
M  V30 4729 C 473.277 3.37288 -0.49491 0
M  V30 4730 H 474.47 2.28661 -1.94047 0
M  V30 4731 H 472.023 1.16711 -1.03963 0
M  V30 4732 H 472.758 3.21022 0.459948 0
M  V30 4733 H 472.543 3.71986 -1.23971 0
M  V30 4734 H 474.033 4.16103 -0.353253 0
M  V30 4735 N 474.47 1.03057 1.19235 0
M  V30 4736 C 475.718 0.726581 1.88587 0
M  V30 4737 C 476.039 -0.747227 1.80115 0
M  V30 4738 O 475.309 -1.53849 1.21274 0
M  V30 4739 H 473.889 0.265768 0.698124 0
M  V30 4740 H 476.551 1.30516 1.44746 0
M  V30 4741 H 475.647 1.0224 2.94879 0
M  V30 4742 N 475.948 -1.35272 0.808662 0
M  V30 4743 C 477.364 -1.51806 0.492653 0
M  V30 4744 C 477.564 -1.7574 -0.985778 0
M  V30 4745 O 476.62 -1.80003 -1.77074 0
M  V30 4746 C 477.933 -2.69202 1.33981 0
M  V30 4747 C 479.481 -2.8308 1.33547 0
M  V30 4748 C 479.956 -4.03502 2.16679 0
M  V30 4749 N 481.447 -4.10684 2.14227 0
M  V30 4750 C 482.182 -5.02984 2.75308 0
M  V30 4751 N 481.678 -6.00603 3.45323 0
M  V30 4752 N 483.471 -4.95746 2.64938 0
M  V30 4753 H 475.622 -1.17993 1.76611 0
M  V30 4754 H 477.885 -0.577476 0.751814 0
M  V30 4755 H 477.591 -2.581 2.38909 0
M  V30 4756 H 477.465 -3.63854 0.994491 0
M  V30 4757 H 479.852 -2.93631 0.294036 0
M  V30 4758 H 479.933 -1.89278 1.72068 0
M  V30 4759 H 479.577 -3.93711 3.20864 0
M  V30 4760 H 479.507 -4.96489 1.75517 0
M  V30 4761 H 481.998 -3.40802 1.63285 0
M  V30 4762 H 482.311 -6.67633 3.89212 0
M  V30 4763 H 480.656 -6.0077 3.49428 0
M  V30 4764 H 483.847 -4.18439 2.09825 0
M  V30 4765 H 484.02 -5.67487 3.12829 0
M  V30 4766 N 477.426 -0.562348 -1.47226 0
M  V30 4767 C 478.356 0.170627 -2.32876 0
M  V30 4768 C 479.337 0.903748 -1.44106 0
M  V30 4769 O 480.522 0.883206 -1.72954 0
M  V30 4770 C 477.652 1.19786 -3.25989 0
M  V30 4771 C 476.606 0.580875 -4.2404 0
M  V30 4772 C 475.932 1.71311 -5.06514 0
M  V30 4773 C 477.232 -0.468714 -5.20193 0
M  V30 4774 H 478.926 -0.544441 -2.94408 0
M  V30 4775 H 476.472 -0.263271 -1.41573 0
M  V30 4776 H 478.425 1.71884 -3.84752 0
M  V30 4777 H 477.149 1.94294 -2.62521 0
M  V30 4778 H 475.808 0.0811538 -3.6651 0
M  V30 4779 H 475.456 2.44736 -4.39447 0
M  V30 4780 H 475.156 1.30604 -5.72902 0
M  V30 4781 H 476.68 2.23725 -5.68137 0
M  V30 4782 H 478.094 -0.0336028 -5.7329 0
M  V30 4783 H 476.491 -0.794957 -5.94811 0
M  V30 4784 H 477.561 -1.36269 -4.65359 0
M  V30 4785 N 478.904 1.54736 -0.299062 0
M  V30 4786 C 479.867 2.22127 0.565012 0
M  V30 4787 C 480.867 1.20669 1.06281 0
M  V30 4788 O 482.057 1.45417 0.959145 0
M  V30 4789 C 479.189 2.90611 1.78208 0
M  V30 4790 H 480.382 2.99891 -0.0237448 0
M  V30 4791 H 477.935 1.5622 -0.0498788 0
M  V30 4792 H 478.67 2.16921 2.41072 0
M  V30 4793 H 478.455 3.64984 1.43281 0
M  V30 4794 H 479.945 3.42026 2.396 0
M  V30 4795 N 480.382 0.0267497 1.57577 0
M  V30 4796 C 481.798 -0.32962 1.56159 0
M  V30 4797 C 481.998 -1.73059 1.03213 0
M  V30 4798 O 481.054 -2.43233 0.677804 0
M  V30 4799 C 482.367 -0.18039 3.00158 0
M  V30 4800 C 483.915 -0.253334 3.11973 0
M  V30 4801 C 484.39 -0.132921 4.57807 0
M  V30 4802 N 485.881 -0.189979 4.6281 0
M  V30 4803 C 486.616 -0.120554 5.73273 0
M  V30 4804 N 486.112 -0.000180315 6.928 0
M  V30 4805 N 487.905 -0.174369 5.61829 0
M  V30 4806 H 480.056 0.942896 1.90324 0
M  V30 4807 H 482.319 0.3639 0.875375 0
M  V30 4808 H 482.025 0.784576 3.42837 0
M  V30 4809 H 481.899 -0.951565 3.65 0
M  V30 4810 H 484.286 -1.20876 2.69208 0
M  V30 4811 H 484.367 0.548177 2.49857 0
M  V30 4812 H 484.011 0.819073 5.01252 0
M  V30 4813 H 483.941 -0.953264 5.179 0
M  V30 4814 H 486.432 -0.283257 3.76837 0
M  V30 4815 H 486.745 0.0461666 7.72786 0
M  V30 4816 H 485.09 0.034569 6.94991 0
M  V30 4817 H 488.281 -0.266794 4.67339 0
M  V30 4818 H 488.454 -0.116802 6.47895 0
M  V30 4819 N 481.861 -1.55662 -0.24637 0
M  V30 4820 C 482.824 -1.89558 -1.28842 0
M  V30 4821 C 483.824 -0.772082 -1.41052 0
M  V30 4822 O 485.014 -1.04007 -1.39743 0
M  V30 4823 C 482.146 -2.12449 -2.66605 0
M  V30 4824 H 483.339 -2.82735 -1.00004 0
M  V30 4825 H 480.892 -1.48562 -0.485684 0
M  V30 4826 H 481.627 -1.21742 -3.00582 0
M  V30 4827 H 481.412 -2.94273 -2.59125 0
M  V30 4828 H 482.902 -2.39854 -3.41847 0
M  V30 4829 N 483.339 0.512053 -1.4905 0
M  V30 4830 C 484.269 1.62365 -1.67809 0
M  V30 4831 C 485.25 1.61737 -0.526809 0
M  V30 4832 O 486.435 1.78651 -0.761404 0
M  V30 4833 C 483.565 3.00895 -1.73435 0
M  V30 4834 C 482.519 3.16387 -2.88242 0
M  V30 4835 C 481.845 4.56157 -2.78971 0
M  V30 4836 C 483.145 2.97457 -4.29321 0
M  V30 4837 H 484.839 1.46921 -2.60873 0
M  V30 4838 H 482.385 0.705379 -1.2554 0
M  V30 4839 H 484.338 3.78549 -1.85145 0
M  V30 4840 H 483.062 3.17403 -0.769619 0
M  V30 4841 H 481.721 2.41155 -2.76116 0
M  V30 4842 H 481.369 4.69525 -1.8043 0
M  V30 4843 H 481.069 4.67465 -3.5602 0
M  V30 4844 H 482.593 5.35886 -2.92675 0
M  V30 4845 H 484.007 3.64888 -4.42187 0
M  V30 4846 H 482.404 3.20245 -5.07507 0
M  V30 4847 H 483.474 1.93692 -4.44535 0
M  V30 4848 N 484.817 1.37938 0.762283 0
M  V30 4849 C 485.747 1.37176 1.88958 0
M  V30 4850 C 486.728 0.238945 1.68413 0
M  V30 4851 O 487.913 0.440726 1.89133 0
M  V30 4852 C 485.043 1.18742 3.2637 0
M  V30 4853 C 483.997 2.29136 3.61498 0
M  V30 4854 C 483.323 1.95816 4.97554 0
M  V30 4855 C 484.623 3.71363 3.6727 0
M  V30 4856 H 486.317 2.31509 1.89853 0
M  V30 4857 H 483.863 1.11438 0.912005 0
M  V30 4858 H 485.816 1.16837 4.04879 0
M  V30 4859 H 484.54 0.208683 3.25933 0
M  V30 4860 H 483.199 2.30213 2.85303 0
M  V30 4861 H 482.847 0.964475 4.93667 0
M  V30 4862 H 482.547 2.69745 5.22026 0
M  V30 4863 H 484.071 1.95513 5.78452 0
M  V30 4864 H 485.485 3.72364 4.35911 0
M  V30 4865 H 483.882 4.44425 4.03245 0
M  V30 4866 H 484.952 4.04305 2.67704 0
M  V30 4867 N 486.295 -0.989507 1.22664 0
M  V30 4868 C 487.258 -2.06183 1.00106 0
M  V30 4869 C 488.258 -1.60765 -0.0337726 0
M  V30 4870 O 489.448 -1.72989 0.205072 0
M  V30 4871 C 486.58 -3.37021 0.51279 0
M  V30 4872 H 487.773 -2.27629 1.95256 0
M  V30 4873 H 485.326 -1.16158 1.0458 0
M  V30 4874 H 486.061 -3.21261 -0.442917 0
M  V30 4875 H 485.846 -3.71323 1.25942 0
M  V30 4876 H 487.336 -4.1591 0.375315 0
M  V30 4877 N 487.773 -1.03688 -1.18687 0
M  V30 4878 C 489.05 -0.652397 -1.84399 0
M  V30 4879 C 489.43 0.868386 -1.92412 0
M  V30 4880 O 488.778 1.76832 -1.44716 0
M  V30 4881 C 488.988 -1.3238 -3.22919 0
M  V30 4882 C 490.336 -1.45216 -3.98996 0
M  V30 4883 O 491.36 -1.2816 -3.32345 0
M  V30 4884 O 490.219 -1.72975 -5.18403 0
M  V30 4885 H 487.313 -0.227793 -0.795009 0
M  V30 4886 H 489.859 -1.13553 -1.2611 0
M  V30 4887 H 488.631 -2.36202 -3.11968 0
M  V30 4888 H 488.254 -0.829039 -3.88861 0
M  V30 4889 N 489.251 1.34841 -0.815825 0
M  V30 4890 C 490.497 1.98793 -0.401129 0
M  V30 4891 C 490.83 1.64548 1.03139 0
M  V30 4892 O 490.105 0.913487 1.71714 0
M  V30 4893 C 490.388 3.55143 -0.595409 0
M  V30 4894 C 490.241 3.99155 -2.07352 0
M  V30 4895 C 491.56 4.40092 -0.0268823 0
M  V30 4896 H 488.679 0.722146 -0.14722 0
M  V30 4897 H 491.321 1.59847 -1.02707 0
M  V30 4898 H 489.471 3.8845 -0.0625779 0
M  V30 4899 H 491.143 3.76216 -2.66945 0
M  V30 4900 H 489.386 3.49726 -2.56659 0
M  V30 4901 H 490.057 5.07971 -2.1603 0
M  V30 4902 H 492.533 4.13298 -0.482042 0
M  V30 4903 H 491.409 5.48562 -0.19267 0
M  V30 4904 H 491.67 4.29016 1.06759 0
M  V30 4905 N 490.729 0.570148 1.46925 0
M  V30 4906 C 491.692 -0.159933 2.28641 0
M  V30 4907 C 492.692 -0.830638 1.37685 0
M  V30 4908 O 493.882 -0.684516 1.60187 0
M  V30 4909 C 491.014 -1.2354 3.17727 0
M  V30 4910 H 492.207 0.558035 2.94662 0
M  V30 4911 H 489.76 0.327603 1.52828 0
M  V30 4912 H 490.495 -1.98535 2.56426 0
M  V30 4913 H 490.28 -0.759125 3.84681 0
M  V30 4914 H 491.77 -1.74782 3.79264 0
M  V30 4915 N 492.207 -1.54576 0.307264 0
M  V30 4916 C 493.117 -2.27435 -0.57536 0
M  V30 4917 C 494.133 -1.31183 -1.14311 0
M  V30 4918 O 495.309 -1.64175 -1.16656 0
M  V30 4919 C 492.374 -3.00566 -1.72803 0
M  V30 4920 C 491.435 -4.12369 -1.19373 0
M  V30 4921 C 490.668 -4.82003 -2.29147 0
M  V30 4922 O 490.891 -4.51038 -3.49171 0
M  V30 4923 O 489.825 -5.69271 -1.95485 0
M  V30 4924 H 493.651 -3.03696 0.0158558 0
M  V30 4925 H 491.236 -1.49219 0.0735064 0
M  V30 4926 H 493.118 -3.46416 -2.39946 0
M  V30 4927 H 491.793 -2.27195 -2.30574 0
M  V30 4928 H 490.7 -3.70905 -0.487851 0
M  V30 4929 H 492.033 -4.87736 -0.661376 0
M  V30 4930 N 493.685 -0.035106 -1.57561 0
M  V30 4931 C 494.633 0.962707 -2.11742 0
M  V30 4932 C 495.627 1.33296 -1.0454 0
M  V30 4933 O 496.833 1.31449 -1.22968 0
M  V30 4934 H 493.208 0.32826 -0.676572 0
M  V30 4935 H 495.179 0.48048 -2.94506 0
M  V30 4936 C 493.928 2.23388 -2.66445 0
M  V30 4937 H 493.251 1.95774 -3.48587 0
M  V30 4938 H 494.691 2.91402 -3.07995 0
M  V30 4939 C 493.15 2.96769 -1.59467 0
M  V30 4940 O 493.68 3.89105 -0.998 0
M  V30 4941 N 491.886 2.59212 -1.31369 0
M  V30 4942 H 491.433 1.84202 -1.80076 0
M  V30 4943 H 491.391 3.08618 -0.600173 0
M  V30 4944 N 495.163 1.55791 0.238111 0
M  V30 4945 C 496.411 1.77681 0.963001 0
M  V30 4946 C 496.732 0.600674 1.85518 0
M  V30 4947 O 496.002 -0.383182 1.92116 0
M  V30 4948 H 494.582 0.655315 0.358568 0
M  V30 4949 H 497.244 1.93239 0.253945 0
M  V30 4950 H 496.34 2.69177 1.57956 0
M  V30 4951 N 496.642 -0.504142 1.49319 0
M  V30 4952 C 497.552 -1.63248 1.68486 0
M  V30 4953 C 498.568 -1.64488 0.567432 0
M  V30 4954 O 499.744 -1.82966 0.841749 0
M  V30 4955 C 496.809 -2.99627 1.74426 0
M  V30 4956 C 495.87 -3.09039 2.97982 0
M  V30 4957 C 495.103 -4.38913 3.0363 0
M  V30 4958 O 495.326 -5.27528 2.16958 0
M  V30 4959 O 494.26 -4.53231 3.96062 0
M  V30 4960 H 498.086 -1.50008 2.64067 0
M  V30 4961 H 495.671 -0.680086 1.33023 0
M  V30 4962 H 497.553 -3.80689 1.80705 0
M  V30 4963 H 496.228 -3.13136 0.820233 0
M  V30 4964 H 495.135 -2.27177 2.97223 0
M  V30 4965 H 496.468 -3.00456 3.89855 0
M  V30 4966 N 498.12 -1.38341 -0.754957 0
M  V30 4967 C 499.083 -1.35262 -1.85032 0
M  V30 4968 C 500.083 -0.253393 -1.58791 0
M  V30 4969 O 501.273 -0.510205 -1.66561 0
M  V30 4970 C 498.405 -1.10544 -3.22479 0
M  V30 4971 H 499.598 -2.32712 -1.8917 0
M  V30 4972 H 497.151 -1.23614 -0.956515 0
M  V30 4973 H 497.886 -0.136952 -3.24011 0
M  V30 4974 H 497.671 -1.90127 -3.4292 0
M  V30 4975 H 499.161 -1.11082 -4.02555 0
M  V30 4976 N 499.598 0.982988 -1.23187 0
M  V30 4977 C 500.528 2.09301 -1.03515 0
M  V30 4978 C 501.509 1.70035 0.0471136 0
M  V30 4979 O 502.694 1.93847 -0.117029 0
M  V30 4980 C 499.824 3.4167 -0.622791 0
M  V30 4981 C 498.778 3.94828 -1.65211 0
M  V30 4982 C 498.104 5.23362 -1.09527 0
M  V30 4983 C 499.404 4.2439 -3.04451 0
M  V30 4984 H 501.098 2.26016 -1.96359 0
M  V30 4985 H 498.644 1.08611 -0.945501 0
M  V30 4986 H 500.597 4.18746 -0.472233 0
M  V30 4987 H 499.321 3.24811 0.341329 0
M  V30 4988 H 497.98 3.19895 -1.79061 0
M  V30 4989 H 497.628 5.02852 -0.122211 0
M  V30 4990 H 497.328 5.59895 -1.783 0
M  V30 4991 H 498.852 6.03062 -0.956511 0
M  V30 4992 H 500.266 4.92225 -2.93917 0
M  V30 4993 H 498.663 4.72118 -3.70438 0
M  V30 4994 H 499.733 3.31765 -3.53638 0
M  V30 4995 N 501.076 1.04316 1.18135 0
M  V30 4996 C 502.324 0.746542 1.87806 0
M  V30 4997 C 502.645 -0.728082 1.80898 0
M  V30 4998 O 501.915 -1.52554 1.22899 0
M  V30 4999 H 500.495 0.273157 0.695265 0
M  V30 5000 H 503.157 1.32044 1.43354 0
M  V30 5001 H 502.253 1.05362 2.93778 0
M  V30 5002 N 502.554 -1.34406 0.822964 0
M  V30 5003 C 503.8 -1.98578 0.411666 0
M  V30 5004 C 504.133 -1.65093 -1.02264 0
M  V30 5005 O 503.408 -0.92258 -1.71227 0
M  V30 5006 C 503.691 -3.54823 0.614235 0
M  V30 5007 C 503.544 -3.9805 2.09466 0
M  V30 5008 C 504.863 -4.40071 0.050221 0
M  V30 5009 H 501.982 -0.721355 0.151047 0
M  V30 5010 H 504.624 -1.59301 1.03554 0
M  V30 5011 H 502.774 -3.88411 0.0831774 0
M  V30 5012 H 504.446 -3.74795 2.68936 0
M  V30 5013 H 502.689 -3.4836 2.5851 0
M  V30 5014 H 503.36 -5.06819 2.18721 0
M  V30 5015 H 505.836 -4.13037 0.503953 0
M  V30 5016 H 504.712 -5.48452 0.221759 0
M  V30 5017 H 504.973 -4.29576 -1.04482 0
M  V30 5018 N 504.032 -0.577932 -1.46621 0
M  V30 5019 C 504.962 0.145917 -2.33044 0
M  V30 5020 C 505.943 0.888412 -1.45056 0
M  V30 5021 O 507.128 0.864812 -1.73881 0
M  V30 5022 C 504.258 1.16322 -3.27241 0
M  V30 5023 C 503.212 0.535868 -4.24632 0
M  V30 5024 C 502.538 1.65929 -5.08303 0
M  V30 5025 C 503.838 -0.523861 -5.19666 0
M  V30 5026 H 505.532 -0.575636 -2.93814 0
M  V30 5027 H 503.078 -0.278272 -1.41286 0
M  V30 5028 H 505.031 1.67793 -3.86553 0
M  V30 5029 H 503.755 1.91498 -2.64567 0
M  V30 5030 H 502.414 0.0422759 -3.66576 0
M  V30 5031 H 502.062 2.40061 -4.42018 0
M  V30 5032 H 501.762 1.2452 -5.74255 0
M  V30 5033 H 503.286 2.17686 -5.70478 0
M  V30 5034 H 504.7 -0.0944059 -5.73222 0
M  V30 5035 H 503.097 -0.858 -5.93935 0
M  V30 5036 H 504.167 -1.41197 -4.63887 0
M  V30 5037 N 505.51 1.54411 -0.315457 0
M  V30 5038 C 506.42 2.27737 0.56329 0
M  V30 5039 C 507.436 1.31787 1.13614 0
M  V30 5040 O 508.612 1.64791 1.15784 0
M  V30 5041 C 505.677 3.01478 1.71207 0
M  V30 5042 C 504.738 4.12997 1.17185 0
M  V30 5043 C 503.971 4.83212 2.26588 0
M  V30 5044 O 504.194 4.52884 3.46775 0
M  V30 5045 O 503.128 5.70299 1.92463 0
M  V30 5046 H 506.954 3.03683 -0.0319614 0
M  V30 5047 H 504.539 1.49178 -0.0814188 0
M  V30 5048 H 506.421 3.47683 2.38106 0
M  V30 5049 H 505.096 2.28414 2.29366 0
M  V30 5050 H 504.003 3.71159 0.468174 0
M  V30 5051 H 505.336 4.8808 0.635501 0
M  V30 5052 N 506.988 0.0434614 1.5754 0
M  V30 5053 C 507.951 -0.918696 2.09982 0
M  V30 5054 C 508.951 -1.24488 1.01781 0
M  V30 5055 O 510.141 -1.18284 1.27885 0
M  V30 5056 C 507.273 -2.23093 2.57764 0
M  V30 5057 H 508.466 -0.464229 2.96285 0
M  V30 5058 H 506.019 -0.204818 1.54952 0
M  V30 5059 H 506.754 -2.73137 1.74832 0
M  V30 5060 H 506.539 -2.00724 3.36827 0
M  V30 5061 H 508.029 -2.92028 2.98512 0
M  V30 5062 N 508.466 -1.55915 -0.229846 0
M  V30 5063 C 509.694 -1.82617 -0.972562 0
M  V30 5064 C 510.109 -0.621488 -1.78278 0
M  V30 5065 O 509.466 0.409956 -1.77836 0
M  V30 5066 C 509.517 -3.0774 -1.89679 0
M  V30 5067 O 509.238 -4.23559 -1.11934 0
M  V30 5068 C 510.739 -3.47368 -2.75409 0
M  V30 5069 H 507.959 -0.60727 -0.285419 0
M  V30 5070 H 510.503 -2.02996 -0.247579 0
M  V30 5071 H 508.658 -2.89361 -2.57583 0
M  V30 5072 H 509.072 -4.94586 -1.74599 0
M  V30 5073 H 510.546 -4.37977 -3.35977 0
M  V30 5074 H 511.023 -2.68737 -3.47386 0
M  V30 5075 H 511.629 -3.68158 -2.12931 0
M  V30 5076 N 509.944 0.496216 -1.49584 0
M  V30 5077 C 510.877 1.61508 -1.61215 0
M  V30 5078 C 511.855 1.55927 -0.461045 0
M  V30 5079 O 513.039 1.75914 -0.677231 0
M  V30 5080 C 510.166 3.00035 -1.57152 0
M  V30 5081 C 509.212 3.23861 -2.77518 0
M  V30 5082 S 510.045 3.06466 -4.39134 0
M  V30 5083 C 511.201 4.4738 -4.37724 0
M  V30 5084 H 511.434 1.51398 -2.55863 0
M  V30 5085 H 508.967 0.681727 -1.38535 0
M  V30 5086 H 510.925 3.7991 -1.55494 0
M  V30 5087 H 509.586 3.07556 -0.637834 0
M  V30 5088 H 508.779 4.25 -2.70908 0
M  V30 5089 H 508.381 2.51716 -2.76614 0
M  V30 5090 H 510.673 5.39556 -4.09738 0
M  V30 5091 H 511.616 4.59038 -5.39156 0
M  V30 5092 H 512.024 4.28283 -3.67742 0
M  V30 5093 N 511.423 1.38739 0.74761 0
M  V30 5094 C 512.839 1.20067 1.05148 0
M  V30 5095 C 513.039 0.0534835 2.01429 0
M  V30 5096 O 512.095 -0.59886 2.45296 0
M  V30 5097 C 513.408 2.52957 1.62584 0
M  V30 5098 C 514.956 2.59692 1.74726 0
M  V30 5099 C 515.431 3.92772 2.35573 0
M  V30 5100 N 516.922 3.94343 2.42997 0
M  V30 5101 C 517.657 4.9408 2.90985 0
M  V30 5102 N 517.153 6.04214 3.38965 0
M  V30 5103 N 518.946 4.81466 2.9008 0
M  V30 5104 H 511.097 2.12121 0.108808 0
M  V30 5105 H 513.36 0.941491 0.110899 0
M  V30 5106 H 513.066 3.37389 0.993051 0
M  V30 5107 H 512.94 2.71779 2.61565 0
M  V30 5108 H 515.327 1.75651 2.3713 0
M  V30 5109 H 515.408 2.44731 0.744326 0
M  V30 5110 H 515.052 4.77238 1.738 0
M  V30 5111 H 514.982 4.05046 3.36519 0
M  V30 5112 H 517.473 3.14799 2.0907 0
M  V30 5113 H 517.786 6.76241 3.74056 0
M  V30 5114 H 516.131 6.07825 3.37007 0
M  V30 5115 H 519.322 3.94535 2.51912 0
M  V30 5116 H 519.495 5.59344 3.27166 0
M  V30 5117 N 512.901 -0.976442 1.23707 0
M  V30 5118 C 513.811 -2.10359 1.03856 0
M  V30 5119 C 514.827 -1.73991 -0.0180919 0
M  V30 5120 O 516.003 -2.0061 0.178211 0
M  V30 5121 C 513.068 -3.40809 0.636387 0
M  V30 5122 C 512.129 -3.91179 1.76854 0
M  V30 5123 C 511.362 -5.15404 1.38546 0
M  V30 5124 O 511.585 -5.69754 0.27142 0
M  V30 5125 O 510.519 -5.5994 2.20797 0
M  V30 5126 H 514.345 -2.29997 1.98331 0
M  V30 5127 H 511.93 -1.08742 1.02448 0
M  V30 5128 H 513.812 -4.19269 0.423223 0
M  V30 5129 H 512.487 -3.22493 -0.279322 0
M  V30 5130 H 511.394 -3.13819 2.03638 0
M  V30 5131 H 512.727 -4.13958 2.6627 0
M  V30 5132 N 514.379 -1.04941 -1.1758 0
M  V30 5133 C 515.604 -0.778253 -1.92245 0
M  V30 5134 C 516.029 0.659707 -1.76152 0
M  V30 5135 O 515.387 1.45803 -1.07755 0
M  V30 5136 C 515.435 -1.16051 -3.41416 0
M  V30 5137 O 514.539 -0.291153 -4.11371 0
M  V30 5138 H 513.88 -0.285619 -0.599431 0
M  V30 5139 H 516.41 -1.40159 -1.49052 0
M  V30 5140 H 516.42 -1.12619 -3.92149 0
M  V30 5141 H 515.095 -2.208 -3.52449 0
M  V30 5142 H 513.672 -0.385851 -3.70898 0
M  V30 5143 N 515.857 1.33968 -0.830081 0
M  V30 5144 C 517.105 1.97672 -0.420734 0
M  V30 5145 C 517.426 1.66111 1.02138 0
M  V30 5146 O 516.696 0.955503 1.71017 0
M  V30 5147 H 515.276 0.73125 -0.152587 0
M  V30 5148 H 517.938 1.63483 -1.0611 0
M  V30 5149 H 517.034 3.07294 -0.545588 0
M  V30 5150 N 517.335 0.585699 1.46312 0
M  V30 5151 C 518.298 -0.135673 2.28798 0
M  V30 5152 C 519.298 -0.815988 1.38558 0
M  V30 5153 O 520.488 -0.667487 1.60904 0
M  V30 5154 C 517.62 -1.20163 3.1902 0
M  V30 5155 H 518.813 0.589257 2.94054 0
M  V30 5156 H 516.366 0.343794 1.52472 0
M  V30 5157 H 517.101 -1.95804 2.58517 0
M  V30 5158 H 516.886 -0.718282 3.85465 0
M  V30 5159 H 518.376 -1.70749 3.81096 0
M  V30 5160 N 518.813 -1.54241 0.323641 0
M  V30 5161 C 519.763 -2.21071 -0.557833 0
M  V30 5162 C 520.747 -1.19126 -1.08157 0
M  V30 5163 O 521.939 -1.44755 -1.01857 0
M  V30 5164 C 519.068 -2.97208 -1.71821 0
M  V30 5165 C 518.154 -4.06491 -1.20936 0
M  V30 5166 N 518.545 -5.04052 -0.420202 0
M  V30 5167 C 516.843 -4.20443 -1.48808 0
M  V30 5168 C 517.544 -5.81516 -0.146413 0
M  V30 5169 N 516.52 -5.38641 -0.732562 0
M  V30 5170 H 520.322 -2.93853 0.0523921 0
M  V30 5171 H 517.836 -1.61883 0.129502 0
M  V30 5172 H 519.833 -3.4357 -2.36146 0
M  V30 5173 H 518.493 -2.25947 -2.33191 0
M  V30 5174 H 519.504 -5.17862 -0.0630401 0
M  V30 5175 H 516.181 -3.60396 -2.10762 0
M  V30 5176 H 517.571 -6.70119 0.488895 0
M  V30 5177 N 520.291 -0.0518155 -1.57515 0
M  V30 5178 C 521.537 0.622745 -1.93002 0
M  V30 5179 C 521.87 1.70456 -0.930499 0
M  V30 5180 O 521.145 1.94452 0.0434086 0
M  V30 5181 C 521.428 1.21824 -3.38867 0
M  V30 5182 C 521.281 0.144434 -4.49568 0
M  V30 5183 C 522.6 2.12968 -3.8514 0
M  V30 5184 H 519.719 0.22491 -0.701844 0
M  V30 5185 H 522.361 -0.113711 -1.89659 0
M  V30 5186 H 520.511 1.8459 -3.41846 0
M  V30 5187 H 522.183 -0.48753 -4.58717 0
M  V30 5188 H 520.426 -0.527424 -4.30582 0
M  V30 5189 H 521.097 0.601127 -5.48717 0
M  V30 5190 H 523.573 1.60163 -3.8404 0
M  V30 5191 H 522.449 2.51578 -4.87852 0
M  V30 5192 H 522.71 3.03004 -3.21934 0
M  V30 5193 N 521.769 1.56035 0.221574 0
M  V30 5194 C 523.015 1.80221 0.942973 0
M  V30 5195 C 523.37 0.624799 1.81973 0
M  V30 5196 O 522.663 -0.381145 1.87771 0
M  V30 5197 C 522.857 3.07813 1.8162 0
M  V30 5198 C 522.686 4.37852 1.02548 0
M  V30 5199 C 521.456 5.00138 0.720418 0
M  V30 5200 C 523.654 5.12813 0.390799 0
M  V30 5201 N 521.636 6.13831 -0.0917139 0
M  V30 5202 C 523.007 6.19346 -0.284728 0
M  V30 5203 C 525.062 4.96972 0.303828 0
M  V30 5204 C 523.765 7.11758 -1.03891 0
M  V30 5205 C 525.791 5.89784 -0.436883 0
M  V30 5206 C 525.153 6.95743 -1.10095 0
M  V30 5207 H 521.252 0.711117 0.325325 0
M  V30 5208 H 523.836 1.93522 0.213854 0
M  V30 5209 H 522.007 2.95795 2.51714 0
M  V30 5210 H 523.739 3.20191 2.47508 0
M  V30 5211 H 520.494 4.62075 1.03843 0
M  V30 5212 H 520.918 6.75249 -0.486615 0
M  V30 5213 H 525.56 4.15107 0.802896 0
M  V30 5214 H 523.278 7.93105 -1.54949 0
M  V30 5215 H 526.864 5.79603 -0.505181 0
M  V30 5216 H 525.744 7.66322 -1.66495 0
M  V30 5217 N 523.247 -0.488276 1.49845 0
M  V30 5218 C 524.495 -1.23911 1.59657 0
M  V30 5219 C 524.816 -1.92816 0.291005 0
M  V30 5220 O 524.086 -1.83328 -0.690485 0
M  V30 5221 H 522.666 -0.460357 0.588286 0
M  V30 5222 H 525.328 -0.564794 1.86537 0
M  V30 5223 H 524.424 -1.99625 2.39909 0
M  V30 5224 N 524.725 -1.39134 -0.740242 0
M  V30 5225 C 525.95 -1.39518 -1.53459 0
M  V30 5226 C 526.375 0.00968883 -1.88098 0
M  V30 5227 O 525.733 0.995312 -1.51536 0
M  V30 5228 C 525.781 -2.26981 -2.802 0
M  V30 5229 O 524.885 -1.69609 -3.75908 0
M  V30 5230 H 524.226 -0.475328 -0.463637 0
M  V30 5231 H 526.756 -1.83064 -0.913717 0
M  V30 5232 H 526.766 -2.41309 -3.28989 0
M  V30 5233 H 525.441 -3.29081 -2.5432 0
M  V30 5234 H 524.018 -1.64495 -3.34658 0
M  V30 5235 N 526.204 0.969867 -1.24223 0
M  V30 5236 C 527.429 1.75289 -1.10853 0
M  V30 5237 C 527.854 1.85091 0.335079 0
M  V30 5238 O 527.212 1.32024 1.24255 0
M  V30 5239 C 527.26 3.15255 -1.75062 0
M  V30 5240 O 526.364 3.99589 -1.01992 0
M  V30 5241 H 525.705 0.538904 -0.387915 0
M  V30 5242 H 528.235 1.21675 -1.64488 0
M  V30 5243 H 528.245 3.65787 -1.80731 0
M  V30 5244 H 526.92 3.07436 -2.801 0
M  V30 5245 H 525.497 3.58077 -1.04094 0
M  V30 5246 N 527.682 1.05563 1.17022 0
M  V30 5247 C 528.645 0.664098 2.19368 0
M  V30 5248 C 529.645 -0.286358 1.5823 0
M  V30 5249 O 530.835 -0.069728 1.7406 0
M  V30 5250 C 527.967 -0.0239932 3.40892 0
M  V30 5251 H 529.16 1.57 2.55521 0
M  V30 5252 H 526.713 0.849964 1.31169 0
M  V30 5253 H 527.448 -0.942988 3.10287 0
M  V30 5254 H 527.233 0.659351 3.86516 0
M  V30 5255 H 528.723 -0.283909 4.16634 0
M  V30 5256 N 529.16 -1.33526 0.837174 0
M  V30 5257 C 530.123 -2.27551 0.274421 0
M  V30 5258 C 531.123 -1.50886 -0.555881 0
M  V30 5259 O 532.313 -1.70227 -0.369918 0
M  V30 5260 C 529.445 -3.35332 -0.613605 0
M  V30 5261 H 530.638 -2.78837 1.10408 0
M  V30 5262 H 528.191 -1.439 0.610126 0
M  V30 5263 H 528.926 -2.89285 -1.46577 0
M  V30 5264 H 528.711 -3.92095 -0.0195341 0
M  V30 5265 H 530.201 -4.05433 -1.00068 0
M  V30 5266 N 530.638 -0.59345 -1.46 0
M  V30 5267 C 531.886 -0.082988 -2.0193 0
M  V30 5268 C 532.207 1.28569 -1.46612 0
M  V30 5269 O 531.477 1.84629 -0.654909 0
M  V30 5270 H 530.057 -0.0276882 -0.746487 0
M  V30 5271 H 532.719 -0.771657 -1.78973 0
M  V30 5272 H 531.815 -0.022079 -3.12092 0
M  V30 5273 N 532.116 1.54067 -0.331816 0
M  V30 5274 C 533.046 2.27569 0.522932 0
M  V30 5275 C 534.027 1.28679 1.11247 0
M  V30 5276 O 535.212 1.57504 1.13605 0
M  V30 5277 C 532.342 3.0397 1.67987 0
M  V30 5278 C 531.296 4.10267 1.21924 0
M  V30 5279 C 530.622 4.74555 2.46377 0
M  V30 5280 C 531.922 5.21268 0.32815 0
M  V30 5281 H 533.616 2.99264 -0.0901977 0
M  V30 5282 H 531.162 1.4393 -0.044821 0
M  V30 5283 H 533.115 3.54123 2.28418 0
M  V30 5284 H 531.839 2.29906 2.31971 0
M  V30 5285 H 530.498 3.61009 0.637809 0
M  V30 5286 H 530.146 3.97098 3.08743 0
M  V30 5287 H 529.846 5.46363 2.16243 0
M  V30 5288 H 531.37 5.27487 3.07555 0
M  V30 5289 H 532.784 5.67128 0.838978 0
M  V30 5290 H 531.181 5.99982 0.119228 0
M  V30 5291 H 532.251 4.80673 -0.638839 0
M  V30 5292 N 533.594 0.0601682 1.57485 0
M  V30 5293 C 534.557 -0.896373 2.10945 0
M  V30 5294 C 535.557 -1.23402 1.03095 0
M  V30 5295 O 536.747 -1.16921 1.29132 0
M  V30 5296 C 533.879 -2.20346 2.60116 0
M  V30 5297 H 535.072 -0.432778 2.96761 0
M  V30 5298 H 532.625 -0.188372 1.55161 0
M  V30 5299 H 533.36 -2.71268 1.7772 0
M  V30 5300 H 533.145 -1.9714 3.38937 0
M  V30 5301 H 534.635 -2.88846 3.01592 0
M  V30 5302 N 535.072 -1.5615 -0.213296 0
M  V30 5303 C 536.32 -1.79191 -0.934612 0
M  V30 5304 C 536.641 -0.630112 -1.84539 0
M  V30 5305 O 535.911 0.35257 -1.92701 0
M  V30 5306 H 534.491 -0.660937 -0.348097 0
M  V30 5307 H 537.153 -1.93618 -0.22317 0
M  V30 5308 H 536.249 -2.71656 -1.53654 0
M  V30 5309 N 536.55 0.480323 -1.50102 0
M  V30 5310 C 537.798 1.23063 -1.60312 0
M  V30 5311 C 538.119 1.92659 -0.301226 0
M  V30 5312 O 537.389 1.83691 0.680753 0
M  V30 5313 H 535.969 0.457231 -0.590719 0
M  V30 5314 H 538.631 0.554893 -1.86834 0
M  V30 5315 H 537.727 1.9835 -2.40964 0
M  V30 5316 N 538.028 1.39524 0.732853 0
M  V30 5317 C 539.274 1.37068 1.49467 0
M  V30 5318 C 539.607 -0.0327166 1.94172 0
M  V30 5319 O 538.882 -0.998071 1.66939 0
M  V30 5320 C 539.165 2.34494 2.73285 0
M  V30 5321 C 539.018 3.83784 2.34585 0
M  V30 5322 C 540.337 2.29717 3.75391 0
M  V30 5323 H 537.456 0.499206 0.542183 0
M  V30 5324 H 540.098 1.70532 0.837783 0
M  V30 5325 H 538.248 2.06087 3.29333 0
M  V30 5326 H 539.92 4.22949 1.84151 0
M  V30 5327 H 538.163 4.00455 1.66787 0
M  V30 5328 H 538.834 4.47444 3.23262 0
M  V30 5329 H 541.31 2.54839 3.28932 0
M  V30 5330 H 540.186 2.99962 4.59689 0
M  V30 5331 H 540.447 1.30291 4.22465 0
M  V30 5332 N 539.506 -0.963266 1.24736 0
M  V30 5333 C 540.469 -2.04013 1.04457 0
M  V30 5334 C 541.469 -1.608 0.000335555 0
M  V30 5335 O 542.659 -1.72515 0.241719 0
M  V30 5336 C 539.791 -3.35858 0.584162 0
M  V30 5337 H 540.984 -2.23436 2.00041 0
M  V30 5338 H 538.537 -1.13914 1.07021 0
M  V30 5339 H 539.272 -3.22128 -0.374673 0
M  V30 5340 H 539.057 -3.68568 1.3379 0
M  V30 5341 H 540.547 -4.1502 0.463451 0
M  V30 5342 N 540.985 -1.06182 -1.16461 0
M  V30 5343 C 541.948 -0.675723 -2.19013 0
M  V30 5344 C 542.948 0.277963 -1.58379 0
M  V30 5345 O 544.138 0.0604962 -1.74095 0
M  V30 5346 C 541.27 0.00591459 -3.40899 0
M  V30 5347 H 542.463 -1.58353 -2.54685 0
M  V30 5348 H 540.016 -0.856908 -1.30716 0
M  V30 5349 H 540.751 0.92652 -3.10783 0
M  V30 5350 H 540.536 -0.67984 -3.86161 0
M  V30 5351 H 542.026 0.26181 -4.16778 0
M  V30 5352 N 542.463 1.3308 -0.844243 0
M  V30 5353 C 543.426 2.27403 -0.286485 0
M  V30 5354 C 544.426 1.51179 0.547872 0
M  V30 5355 O 545.616 1.70421 0.360886 0
M  V30 5356 C 542.748 3.35653 0.595813 0
M  V30 5357 H 543.941 2.78248 -1.11885 0
M  V30 5358 H 541.494 1.43574 -0.617749 0
M  V30 5359 H 542.229 2.90058 1.4504 0
M  V30 5360 H 542.014 3.921 -0.00125994 0
M  V30 5361 H 543.504 4.05958 0.979168 0
M  V30 5362 N 543.941 0.601185 1.45683 0
M  V30 5363 C 545.187 0.0940202 2.02582 0
M  V30 5364 C 545.52 -1.26972 1.46941 0
M  V30 5365 O 544.795 -1.83613 0.641612 0
M  V30 5366 C 545.078 0.0481715 3.60068 0
M  V30 5367 C 544.931 1.44212 4.26055 0
M  V30 5368 C 546.25 -0.642975 4.35378 0
M  V30 5369 H 543.369 0.0356404 0.736138 0
M  V30 5370 H 546.011 0.771929 1.73612 0
M  V30 5371 H 544.161 -0.529128 3.8488 0
M  V30 5372 H 545.833 2.06601 4.12449 0
M  V30 5373 H 544.076 2.00465 3.84703 0
M  V30 5374 H 544.747 1.36234 5.34925 0
M  V30 5375 H 547.223 -0.152351 4.15821 0
M  V30 5376 H 546.099 -0.644141 5.45107 0
M  V30 5377 H 546.36 -1.70785 4.0778 0
M  V30 5378 N 545.419 -1.53889 0.339982 0
M  V30 5379 C 546.349 -2.27843 -0.510856 0
M  V30 5380 C 547.33 -1.29267 -1.10563 0
M  V30 5381 O 548.515 -1.58104 -1.12768 0
M  V30 5382 C 545.645 -3.04857 -1.66372 0
M  V30 5383 C 544.599 -4.10907 -1.19746 0
M  V30 5384 C 543.925 -4.75855 -2.43857 0
M  V30 5385 C 545.225 -5.21435 -0.300501 0
M  V30 5386 H 546.919 -2.99212 0.106067 0
M  V30 5387 H 544.465 -1.43904 0.0524533 0
M  V30 5388 H 546.418 -3.5533 -2.26537 0
M  V30 5389 H 545.142 -2.31133 -2.30749 0
M  V30 5390 H 543.801 -3.61342 -0.618654 0
M  V30 5391 H 543.449 -3.9873 -3.06633 0
M  V30 5392 H 543.149 -5.47502 -2.13343 0
M  V30 5393 H 544.673 -5.2911 -3.04754 0
M  V30 5394 H 546.087 -5.67565 -0.80889 0
M  V30 5395 H 544.484 -6.00036 -0.0874076 0
M  V30 5396 H 545.554 -4.80328 0.664321 0
M  V30 5397 N 546.897 -0.0685191 -1.57451 0
M  V30 5398 C 547.827 0.89747 -2.15564 0
M  V30 5399 C 548.808 1.31266 -1.08181 0
M  V30 5400 O 549.993 1.38429 -1.36202 0
M  V30 5401 C 547.123 2.16623 -2.71463 0
M  V30 5402 C 546.077 1.89054 -3.83982 0
M  V30 5403 C 545.403 3.22532 -4.26471 0
M  V30 5404 C 546.703 1.1984 -5.08366 0
M  V30 5405 H 548.397 0.413373 -2.96533 0
M  V30 5406 H 545.943 0.197391 -1.42641 0
M  V30 5407 H 547.896 2.84614 -3.10761 0
M  V30 5408 H 546.62 2.67269 -1.8771 0
M  V30 5409 H 545.279 1.23469 -3.45183 0
M  V30 5410 H 544.927 3.71013 -3.39644 0
M  V30 5411 H 544.627 3.04879 -5.02317 0
M  V30 5412 H 546.151 3.91727 -4.68383 0
M  V30 5413 H 547.565 1.77896 -5.45001 0
M  V30 5414 H 545.962 1.12456 -5.89469 0
M  V30 5415 H 547.032 0.176996 -4.84577 0
M  V30 5416 N 548.375 1.56261 0.205012 0
M  V30 5417 C 549.338 1.92908 1.23771 0
M  V30 5418 C 550.338 0.809208 1.38955 0
M  V30 5419 O 551.528 1.07676 1.36936 0
M  V30 5420 C 548.66 2.19442 2.60879 0
M  V30 5421 H 549.853 2.85287 0.924728 0
M  V30 5422 H 547.406 1.49798 0.446125 0
M  V30 5423 H 548.141 1.29668 2.97248 0
M  V30 5424 H 547.926 3.0104 2.51232 0
M  V30 5425 H 549.416 2.48833 3.35368 0
M  V30 5426 N 549.853 -0.472356 1.50355 0
M  V30 5427 C 550.783 -1.57859 1.72055 0
M  V30 5428 C 551.764 -1.60283 0.569505 0
M  V30 5429 O 552.949 -1.7657 0.808503 0
M  V30 5430 C 550.079 -2.96191 1.81351 0
M  V30 5431 C 549.033 -3.08633 2.96529 0
M  V30 5432 C 548.359 -4.486 2.90968 0
M  V30 5433 C 549.659 -2.85969 4.37057 0
M  V30 5434 H 551.353 -1.39953 2.64676 0
M  V30 5435 H 548.899 -0.671846 1.27367 0
M  V30 5436 H 550.852 -3.73507 1.95117 0
M  V30 5437 H 549.576 -3.15251 0.853502 0
M  V30 5438 H 548.235 -2.33749 2.82413 0
M  V30 5439 H 547.883 -4.64577 1.92815 0
M  V30 5440 H 547.583 -4.57861 3.68289 0
M  V30 5441 H 549.107 -5.27938 3.0678 0
M  V30 5442 H 550.521 -3.53036 4.51706 0
M  V30 5443 H 548.918 -3.06677 5.15819 0
M  V30 5444 H 549.988 -1.81838 4.49514 0
M  V30 5445 N 551.331 -1.39911 -0.725443 0
M  V30 5446 C 552.261 -1.42138 -1.85254 0
M  V30 5447 C 553.242 -0.283513 -1.67721 0
M  V30 5448 O 554.427 -0.490717 -1.87898 0
M  V30 5449 C 551.557 -1.27354 -3.23107 0
M  V30 5450 C 550.511 -2.3864 -3.55296 0
M  V30 5451 C 549.837 -2.08939 -4.92188 0
M  V30 5452 C 551.137 -3.8097 -3.57295 0
M  V30 5453 H 552.831 -2.36461 -1.83648 0
M  V30 5454 H 550.377 -1.13817 -0.882138 0
M  V30 5455 H 552.33 -1.2753 -4.01639 0
M  V30 5456 H 551.054 -0.295025 -3.25265 0
M  V30 5457 H 549.713 -2.37696 -2.79099 0
M  V30 5458 H 549.361 -1.09502 -4.90936 0
M  V30 5459 H 549.061 -2.83491 -5.14691 0
M  V30 5460 H 550.585 -2.10781 -5.73065 0
M  V30 5461 H 551.999 -3.8379 -4.25885 0
M  V30 5462 H 550.396 -4.5496 -3.9132 0
M  V30 5463 H 551.466 -4.11261 -2.5689 0
M  V30 5464 N 552.809 0.956637 -1.25245 0
M  V30 5465 C 554.055 1.70352 -1.10036 0
M  V30 5466 C 554.388 1.90869 0.358156 0
M  V30 5467 O 553.663 1.47819 1.26411 0
M  V30 5468 C 553.946 3.08766 -1.85298 0
M  V30 5469 C 553.799 2.95672 -3.38966 0
M  V30 5470 C 555.118 4.08622 -1.63451 0
M  V30 5471 H 552.237 0.618279 -0.401123 0
M  V30 5472 H 554.879 1.11212 -1.54051 0
M  V30 5473 H 553.029 3.59252 -1.47887 0
M  V30 5474 H 554.701 2.52527 -3.86041 0
M  V30 5475 H 552.944 2.31634 -3.6678 0
M  V30 5476 H 553.615 3.93776 -3.86839 0
M  V30 5477 H 556.091 3.67038 -1.96015 0
M  V30 5478 H 554.967 5.03514 -2.18551 0
M  V30 5479 H 555.228 4.3834 -0.575357 0
M  V30 5480 N 554.287 1.06798 1.15896 0
M  V30 5481 C 555.217 0.704677 2.22613 0
M  V30 5482 C 556.198 -0.305252 1.67339 0
M  V30 5483 O 557.383 -0.179247 1.93371 0
M  V30 5484 C 554.513 0.0957325 3.47168 0
M  V30 5485 C 553.467 1.0322 4.15367 0
M  V30 5486 C 552.793 0.286293 5.33933 0
M  V30 5487 C 554.093 2.36341 4.65768 0
M  V30 5488 H 555.787 1.59688 2.53259 0
M  V30 5489 H 553.333 0.769257 1.21731 0
M  V30 5490 H 555.286 -0.170333 4.21056 0
M  V30 5491 H 554.01 -0.831516 3.15838 0
M  V30 5492 H 552.669 1.28309 3.43413 0
M  V30 5493 H 552.317 -0.644237 4.98857 0
M  V30 5494 H 552.017 0.910436 5.80504 0
M  V30 5495 H 553.541 0.0278938 6.10594 0
M  V30 5496 H 554.955 2.1561 5.31211 0
M  V30 5497 H 553.352 2.94299 5.2298 0
M  V30 5498 H 554.422 2.99047 3.81705 0
M  V30 5499 N 555.766 -1.3263 0.851289 0
M  V30 5500 C 556.696 -2.31449 0.308771 0
M  V30 5501 C 557.677 -1.59531 -0.590255 0
M  V30 5502 O 558.862 -1.87351 -0.511205 0
M  V30 5503 C 555.992 -3.43586 -0.506548 0
M  V30 5504 C 554.946 -4.26963 0.297753 0
M  V30 5505 C 554.272 -5.30831 -0.642094 0
M  V30 5506 C 555.572 -4.99643 1.52166 0
M  V30 5507 H 557.266 -2.77074 1.13447 0
M  V30 5508 H 554.812 -1.33207 0.546971 0
M  V30 5509 H 556.765 -4.11754 -0.896474 0
M  V30 5510 H 555.489 -2.96681 -1.36558 0
M  V30 5511 H 554.148 -3.60437 0.669391 0
M  V30 5512 H 553.796 -4.8018 -1.49788 0
M  V30 5513 H 553.496 -5.87501 -0.107968 0
M  V30 5514 H 555.02 -6.01862 -1.02927 0
M  V30 5515 H 556.434 -5.6051 1.20421 0
M  V30 5516 H 554.831 -5.66022 1.99347 0
M  V30 5517 H 555.901 -4.27701 2.28474 0
M  V30 5518 N 557.244 -0.608902 -1.45362 0
M  V30 5519 C 558.49 -0.104762 -2.02529 0
M  V30 5520 C 558.823 1.26191 -1.47613 0
M  V30 5521 O 558.098 1.8327 -0.65134 0
M  V30 5522 C 558.381 -0.0672661 -3.60037 0
M  V30 5523 C 558.234 -1.4647 -4.25284 0
M  V30 5524 C 559.553 0.619877 -4.35713 0
M  V30 5525 H 556.672 -0.0395438 -0.735938 0
M  V30 5526 H 559.314 -0.781126 -1.73201 0
M  V30 5527 H 557.464 0.50871 -3.85155 0
M  V30 5528 H 559.136 -2.08785 -4.11347 0
M  V30 5529 H 557.379 -2.02502 -3.83634 0
M  V30 5530 H 558.05 -1.39069 -5.34195 0
M  V30 5531 H 560.526 0.130297 -4.15896 0
M  V30 5532 H 559.402 0.615224 -5.45441 0
M  V30 5533 H 559.663 1.68621 -4.0868 0
M  V30 5534 N 558.722 1.53707 -0.348139 0
M  V30 5535 C 559.685 2.23812 0.494058 0
M  V30 5536 C 560.685 1.23989 1.02388 0
M  V30 5537 O 561.875 1.48395 0.912396 0
M  V30 5538 C 559.007 2.96133 1.68872 0
M  V30 5539 H 560.2 2.99663 -0.119141 0
M  V30 5540 H 557.753 1.55983 -0.0995539 0
M  V30 5541 H 558.488 2.24481 2.34049 0
M  V30 5542 H 558.273 3.69357 1.31596 0
M  V30 5543 H 559.763 3.49475 2.28597 0
M  V30 5544 N 560.2 0.0768682 1.57412 0
M  V30 5545 C 561.611 -0.455037 1.8107 0
M  V30 5546 C 561.962 -1.69323 0.991162 0
M  V30 5547 O 561.087 -2.15328 0.215156 0
M  V30 5548 C 561.682 -0.832316 3.28417 0
M  V30 5549 C 560.241 -1.30906 3.52903 0
M  V30 5550 C 559.388 -0.296714 2.75708 0
M  V30 5551 H 562.339 0.302514 1.5579 0
M  V30 5552 H 562.36 -1.69333 3.40744 0
M  V30 5553 H 561.872 0.0690532 3.88039 0
M  V30 5554 H 559.973 -2.22875 2.98592 0
M  V30 5555 H 560.086 -1.28348 4.61588 0
M  V30 5556 H 558.45 -0.775059 2.42621 0
M  V30 5557 H 559.233 0.597015 3.38069 0
M  V30 5558 N 561.678 -1.56367 -0.196722 0
M  V30 5559 C 563.089 -1.70462 -0.761545 0
M  V30 5560 C 563.44 -0.683161 -1.83922 0
M  V30 5561 O 562.565 0.160753 -2.15802 0
M  V30 5562 C 563.16 -3.09057 -1.38814 0
M  V30 5563 C 561.719 -3.24922 -1.90007 0
M  V30 5564 C 560.866 -2.66412 -0.769399 0
M  V30 5565 H 563.817 -1.58675 0.0283263 0
M  V30 5566 H 563.838 -3.06296 -2.2575 0
M  V30 5567 H 563.35 -3.83378 -0.603559 0
M  V30 5568 H 561.451 -2.55514 -2.71189 0
M  V30 5569 H 561.564 -4.3241 -2.06297 0
M  V30 5570 H 559.928 -2.25546 -1.18326 0
M  V30 5571 H 560.711 -3.433 0.00291773 0
M  V30 5572 N 563.156 0.464375 -1.50603 0
M  V30 5573 C 564.086 1.56944 -1.72889 0
M  V30 5574 C 565.067 1.59979 -0.577997 0
M  V30 5575 O 566.252 1.76138 -0.817855 0
M  V30 5576 C 563.382 2.95225 -1.8292 0
M  V30 5577 C 562.336 3.07056 -2.98162 0
M  V30 5578 C 561.662 4.47051 -2.93343 0
M  V30 5579 C 562.962 2.83648 -4.38567 0
M  V30 5580 H 564.656 1.38547 -2.65415 0
M  V30 5581 H 562.202 0.665082 -1.27721 0
M  V30 5582 H 564.155 3.72467 -1.97095 0
M  V30 5583 H 562.879 3.14793 -0.870209 0
M  V30 5584 H 561.538 2.32248 -2.83648 0
M  V30 5585 H 561.186 4.63547 -1.95276 0
M  V30 5586 H 560.886 4.55902 -3.70712 0
M  V30 5587 H 562.41 5.26304 -3.09575 0
M  V30 5588 H 563.824 3.50636 -4.53572 0
M  V30 5589 H 562.221 3.03937 -5.17438 0
M  V30 5590 H 563.291 1.79451 -4.50472 0
M  V30 5591 N 564.634 1.40294 0.718013 0
M  V30 5592 C 565.564 1.43118 1.84498 0
M  V30 5593 C 566.545 0.292403 1.67568 0
M  V30 5594 O 567.73 0.500675 1.87635 0
M  V30 5595 C 564.86 1.29065 3.22427 0
M  V30 5596 C 563.814 2.40521 3.54025 0
M  V30 5597 C 563.14 2.11546 4.91073 0
M  V30 5598 C 564.44 3.82859 3.55269 0
M  V30 5599 H 566.134 2.37432 1.82391 0
M  V30 5600 H 563.68 1.14283 0.87609 0
M  V30 5601 H 565.633 1.29658 4.00957 0
M  V30 5602 H 564.357 0.312271 3.25104 0
M  V30 5603 H 563.016 2.39173 2.77834 0
M  V30 5604 H 562.664 1.12104 4.90348 0
M  V30 5605 H 562.364 2.86216 5.1318 0
M  V30 5606 H 563.888 2.13817 5.71939 0
M  V30 5607 H 565.302 3.86044 4.23843 0
M  V30 5608 H 563.699 4.57029 3.88902 0
M  V30 5609 H 564.769 4.12617 2.54706 0
M  V30 5610 N 566.112 -0.949982 1.2575 0
M  V30 5611 C 567.528 -1.22191 1.02672 0
M  V30 5612 C 567.728 -1.99898 -0.253588 0
M  V30 5613 O 566.784 -2.33329 -0.965076 0
M  V30 5614 C 568.097 -1.99175 2.25277 0
M  V30 5615 C 569.645 -2.12201 2.30087 0
M  V30 5616 C 570.12 -2.92586 3.5236 0
M  V30 5617 N 571.611 -3.00163 3.52784 0
M  V30 5618 C 572.346 -3.62766 4.44059 0
M  V30 5619 N 571.842 -4.26943 5.45611 0
M  V30 5620 N 573.635 -3.59953 4.3173 0
M  V30 5621 H 565.786 -0.430258 2.07996 0
M  V30 5622 H 568.049 -0.252844 0.91366 0
M  V30 5623 H 567.755 -1.49479 3.18354 0
M  V30 5624 H 567.629 -2.99868 2.28821 0
M  V30 5625 H 570.016 -2.61093 1.3753 0
M  V30 5626 H 570.097 -1.10799 2.30559 0
M  V30 5627 H 569.741 -2.44383 4.45241 0
M  V30 5628 H 569.671 -3.94224 3.49134 0
M  V30 5629 H 572.162 -2.54529 2.79327 0
M  V30 5630 H 572.475 -4.72583 6.11461 0
M  V30 5631 H 570.82 -4.25557 5.49478 0
M  V30 5632 H 574.011 -3.09003 3.51617 0
M  V30 5633 H 574.184 -4.08455 5.03059 0
M  V30 5634 N 567.59 -1.07411 -1.15328 0
M  V30 5635 C 569.006 -0.799759 -1.38116 0
M  V30 5636 C 569.206 0.59572 -1.92493 0
M  V30 5637 O 568.262 1.35433 -2.13106 0
M  V30 5638 C 569.575 -1.87407 -2.35158 0
M  V30 5639 C 571.123 -1.89889 -2.48819 0
M  V30 5640 C 571.598 -2.96406 -3.49153 0
M  V30 5641 N 573.089 -2.95512 -3.56689 0
M  V30 5642 C 573.824 -3.74575 -4.34144 0
M  V30 5643 N 573.32 -4.63488 -5.14928 0
M  V30 5644 N 575.113 -3.62919 -4.29239 0
M  V30 5645 H 567.264 -1.97411 -0.78374 0
M  V30 5646 H 569.527 -0.856113 -0.407154 0
M  V30 5647 H 569.233 -2.8768 -2.0232 0
M  V30 5648 H 569.107 -1.73471 -3.34944 0
M  V30 5649 H 571.494 -0.902677 -2.80955 0
M  V30 5650 H 571.575 -2.07904 -1.49029 0
M  V30 5651 H 571.219 -3.96227 -3.17752 0
M  V30 5652 H 571.149 -2.75638 -4.48699 0
M  V30 5653 H 573.64 -2.31061 -2.99031 0
M  V30 5654 H 573.953 -5.20445 -5.71276 0
M  V30 5655 H 572.298 -4.67537 -5.14232 0
M  V30 5656 H 575.489 -2.92833 -3.65194 0
M  V30 5657 H 575.662 -4.24777 -4.89355 0
M  V30 5658 N 569.068 1.32177 -0.85831 0
M  V30 5659 C 570.031 2.27086 -0.310588 0
M  V30 5660 C 571.031 1.51751 0.531806 0
M  V30 5661 O 572.221 1.70794 0.34279 0
M  V30 5662 C 569.353 3.36266 0.560179 0
M  V30 5663 H 570.546 2.77045 -1.1483 0
M  V30 5664 H 568.099 1.42911 -0.632942 0
M  V30 5665 H 568.834 2.9158 1.41956 0
M  V30 5666 H 568.619 3.92077 -0.0428473 0
M  V30 5667 H 570.109 4.06974 0.936056 0
M  V30 5668 N 570.547 0.616602 1.45037 0
M  V30 5669 C 571.795 0.115103 2.01772 0
M  V30 5670 C 572.116 -1.2622 1.48639 0
M  V30 5671 O 571.386 -1.83563 0.684199 0
M  V30 5672 H 569.966 0.0395607 0.745952 0
M  V30 5673 H 572.628 0.800032 1.77723 0
M  V30 5674 H 571.724 0.0717274 3.12018 0
M  V30 5675 N 572.025 -1.5352 0.356285 0
M  V30 5676 C 573.441 -1.59599 0.00485267 0
M  V30 5677 C 573.641 -1.37179 -1.47595 0
M  V30 5678 O 572.697 -1.17234 -2.23635 0
M  V30 5679 C 574.01 -2.97277 0.452454 0
M  V30 5680 C 575.558 -3.10357 0.405881 0
M  V30 5681 C 576.033 -4.50432 0.829148 0
M  V30 5682 N 577.524 -4.5652 0.783838 0
M  V30 5683 C 578.259 -5.63077 1.08315 0
M  V30 5684 N 577.755 -6.77429 1.45126 0
M  V30 5685 N 579.548 -5.53014 1.00655 0
M  V30 5686 H 571.699 -1.66346 1.32071 0
M  V30 5687 H 573.962 -0.77971 0.539218 0
M  V30 5688 H 573.668 -3.18792 1.48542 0
M  V30 5689 H 573.542 -3.76836 -0.165762 0
M  V30 5690 H 575.929 -2.88558 -0.617934 0
M  V30 5691 H 576.01 -2.32828 1.05947 0
M  V30 5692 H 575.654 -4.72968 1.85103 0
M  V30 5693 H 575.584 -5.26378 0.152906 0
M  V30 5694 H 578.075 -3.74408 0.512513 0
M  V30 5695 H 578.388 -7.54669 1.66415 0
M  V30 5696 H 576.733 -6.78844 1.48983 0
M  V30 5697 H 579.924 -4.62557 0.718215 0
M  V30 5698 H 580.097 -6.35964 1.24315 0
M  V30 5699 N 573.503 -0.0852151 -1.57369 0
M  V30 5700 C 574.433 0.874556 -2.16503 0
M  V30 5701 C 575.414 1.30111 -1.09568 0
M  V30 5702 O 576.599 1.36977 -1.37662 0
M  V30 5703 C 573.729 2.13731 -2.73745 0
M  V30 5704 C 572.683 1.84971 -3.85966 0
M  V30 5705 C 572.009 3.17991 -4.29867 0
M  V30 5706 C 573.309 1.14442 -5.09608 0
M  V30 5707 H 575.003 0.381899 -2.96954 0
M  V30 5708 H 572.549 0.18225 -1.42842 0
M  V30 5709 H 574.502 2.81302 -3.13763 0
M  V30 5710 H 573.226 2.65263 -1.90534 0
M  V30 5711 H 571.885 1.19801 -3.46473 0
M  V30 5712 H 571.533 3.6739 -3.4356 0
M  V30 5713 H 571.233 2.99534 -5.05523 0
M  V30 5714 H 572.757 3.86737 -4.72511 0
M  V30 5715 H 574.171 1.72105 -5.46857 0
M  V30 5716 H 572.568 1.06197 -5.90629 0
M  V30 5717 H 573.638 0.12559 -4.84737 0
M  V30 5718 N 574.981 1.5647 0.188427 0
M  V30 5719 C 576.397 1.50204 0.539532 0
M  V30 5720 C 576.597 0.78644 1.85519 0
M  V30 5721 O 575.653 0.339714 2.50204 0
M  V30 5722 C 576.966 2.94893 0.588103 0
M  V30 5723 C 578.514 3.05602 0.67648 0
M  V30 5724 C 578.989 4.51716 0.756101 0
M  V30 5725 N 580.48 4.55894 0.819451 0
M  V30 5726 C 581.215 5.66272 0.90134 0
M  V30 5727 N 580.711 6.86323 0.945118 0
M  V30 5728 N 582.504 5.54201 0.939043 0
M  V30 5729 H 574.655 2.01406 -0.674493 0
M  V30 5730 H 576.918 0.916828 -0.241103 0
M  V30 5731 H 576.624 3.50334 -0.309633 0
M  V30 5732 H 576.498 3.4861 1.44051 0
M  V30 5733 H 578.885 2.50206 1.56465 0
M  V30 5734 H 578.966 2.54999 -0.202262 0
M  V30 5735 H 578.61 5.07739 -0.12774 0
M  V30 5736 H 578.54 5.00058 1.65074 0
M  V30 5737 H 581.031 3.69452 0.794594 0
M  V30 5738 H 581.344 7.66194 1.0083 0
M  V30 5739 H 579.689 6.88968 0.913683 0
M  V30 5740 H 582.88 4.59333 0.901725 0
M  V30 5741 H 583.053 6.40247 0.999402 0
M  V30 5742 N 576.459 -0.456382 1.50847 0
M  V30 5743 C 577.705 -1.20618 1.63777 0
M  V30 5744 C 578.06 -1.8936 0.340677 0
M  V30 5745 O 577.353 -1.79786 -0.662378 0
M  V30 5746 C 577.547 -2.26336 2.76599 0
M  V30 5747 C 577.376 -1.67968 4.17153 0
M  V30 5748 C 576.146 -1.47293 4.83356 0
M  V30 5749 C 578.344 -1.16643 5.00898 0
M  V30 5750 N 576.326 -0.843222 6.08081 0
M  V30 5751 C 577.697 -0.660843 6.16468 0
M  V30 5752 C 579.752 -1.05637 4.86565 0
M  V30 5753 C 578.455 -0.0560365 7.19278 0
M  V30 5754 C 580.481 -0.465485 5.89565 0
M  V30 5755 C 579.843 0.0296516 7.04394 0
M  V30 5756 H 575.942 -0.429725 0.653345 0
M  V30 5757 H 578.526 -0.505784 1.88016 0
M  V30 5758 H 576.697 -2.93785 2.54056 0
M  V30 5759 H 578.429 -2.9334 2.78808 0
M  V30 5760 H 575.184 -1.72934 4.40898 0
M  V30 5761 H 575.608 -0.546357 6.74792 0
M  V30 5762 H 580.25 -1.42508 3.98059 0
M  V30 5763 H 577.968 0.324845 8.07447 0
M  V30 5764 H 581.554 -0.382493 5.80541 0
M  V30 5765 H 580.434 0.479705 7.82731 0
M  V30 5766 N 577.937 -1.40673 -0.710563 0
M  V30 5767 C 579.353 -1.22813 -1.01928 0
M  V30 5768 C 579.553 -0.10687 -2.01216 0
M  V30 5769 O 578.609 0.533614 -2.46797 0
M  V30 5770 C 579.922 -2.57178 -1.5582 0
M  V30 5771 C 581.47 -2.64233 -1.67779 0
M  V30 5772 C 581.945 -3.98879 -2.25076 0
M  V30 5773 N 583.436 -4.00647 -2.32456 0
M  V30 5774 C 584.171 -5.01621 -2.77784 0
M  V30 5775 N 583.667 -6.12989 -3.22826 0
M  V30 5776 N 585.46 -4.88988 -2.77213 0
M  V30 5777 H 577.611 -2.12335 -0.05253 0
M  V30 5778 H 579.874 -0.9441 -0.085898 0
M  V30 5779 H 579.58 -3.39903 -0.903249 0
M  V30 5780 H 579.454 -2.78618 -2.54267 0
M  V30 5781 H 581.841 -1.81876 -2.3239 0
M  V30 5782 H 581.922 -2.46619 -0.679178 0
M  V30 5783 H 581.566 -4.81678 -1.61086 0
M  V30 5784 H 581.496 -4.13826 -3.25661 0
M  V30 5785 H 583.987 -3.20231 -2.0065 0
M  V30 5786 H 584.3 -6.85921 -3.55995 0
M  V30 5787 H 582.645 -6.16547 -3.20773 0
M  V30 5788 H 585.836 -4.01075 -2.41363 0
M  V30 5789 H 586.009 -5.67822 -3.12221 0
M  V30 5790 N 579.415 0.9433 -1.26252 0
M  V30 5791 C 580.831 1.21644 -1.03319 0
M  V30 5792 C 581.031 2.0003 0.242983 0
M  V30 5793 O 580.087 2.33838 0.952688 0
M  V30 5794 C 581.4 1.97978 -2.2633 0
M  V30 5795 C 582.948 2.10978 -2.31209 0
M  V30 5796 C 583.423 2.90713 -3.53907 0
M  V30 5797 N 584.914 2.98287 -3.54371 0
M  V30 5798 C 585.649 3.60406 -4.45976 0
M  V30 5799 N 585.145 4.24043 -5.47868 0
M  V30 5800 N 586.938 3.57658 -4.33633 0
M  V30 5801 H 579.089 0.419221 -2.08222 0
M  V30 5802 H 581.352 0.247995 -0.914988 0
M  V30 5803 H 581.058 1.47788 -3.19142 0
M  V30 5804 H 580.932 2.9865 -2.30408 0
M  V30 5805 H 583.319 2.6036 -1.38913 0
M  V30 5806 H 583.4 1.09575 -2.31143 0
M  V30 5807 H 583.044 2.42018 -4.46531 0
M  V30 5808 H 582.974 3.92367 -3.5122 0
M  V30 5809 H 585.465 2.53044 -2.80673 0
M  V30 5810 H 585.778 4.69334 -6.13959 0
M  V30 5811 H 584.123 4.22637 -5.51728 0
M  V30 5812 H 587.314 3.07134 -3.53251 0
M  V30 5813 H 587.487 4.05782 -5.05218 0
M  V30 5814 N 580.893 1.08022 1.14757 0
M  V30 5815 C 581.843 0.676345 2.17737 0
M  V30 5816 C 582.827 -0.302018 1.5804 0
M  V30 5817 O 584.019 -0.11466 1.76628 0
M  V30 5818 C 581.148 0.082984 3.432 0
M  V30 5819 C 580.234 1.0869 4.09936 0
M  V30 5820 N 580.625 2.26891 4.52055 0
M  V30 5821 C 578.923 0.921768 4.36371 0
M  V30 5822 C 579.624 2.90636 5.0389 0
M  V30 5823 N 578.6 2.18266 4.97856 0
M  V30 5824 H 582.402 1.5765 2.4804 0
M  V30 5825 H 579.916 0.954374 1.31398 0
M  V30 5826 H 581.913 -0.224289 4.16296 0
M  V30 5827 H 580.573 -0.812206 3.14378 0
M  V30 5828 H 581.584 2.6457 4.45223 0
M  V30 5829 H 578.261 0.0800499 4.17423 0
M  V30 5830 H 579.651 3.9104 5.46386 0
M  V30 5831 N 582.371 -1.3172 0.865308 0
M  V30 5832 C 583.281 -2.32394 0.320935 0
M  V30 5833 C 584.297 -1.64511 -0.566746 0
M  V30 5834 O 585.473 -1.95969 -0.464575 0
M  V30 5835 C 582.538 -3.43462 -0.472701 0
M  V30 5836 C 581.599 -4.27015 0.442385 0
M  V30 5837 C 580.832 -5.32779 -0.313469 0
M  V30 5838 O 581.055 -5.49158 -1.54214 0
M  V30 5839 O 579.989 -6.01015 0.326257 0
M  V30 5840 H 583.815 -2.80868 1.15528 0
M  V30 5841 H 581.4 -1.35535 0.628545 0
M  V30 5842 H 583.282 -4.11172 -0.922781 0
M  V30 5843 H 581.957 -2.97159 -1.28367 0
M  V30 5844 H 580.864 -3.62075 0.940866 0
M  V30 5845 H 582.197 -4.76871 1.21882 0
M  V30 5846 N 583.85 -0.624285 -1.44708 0
M  V30 5847 C 584.812 0.0749638 -2.29077 0
M  V30 5848 C 585.812 0.778965 -1.40673 0
M  V30 5849 O 587.003 0.624591 -1.62618 0
M  V30 5850 C 584.135 1.11663 -3.22094 0
M  V30 5851 H 585.327 -0.667013 -2.92388 0
M  V30 5852 H 582.88 -0.384098 -1.51507 0
M  V30 5853 H 583.615 1.88881 -2.63618 0
M  V30 5854 H 583.401 0.61583 -3.87234 0
M  V30 5855 H 584.891 1.60585 -3.8549 0
M  V30 5856 N 585.328 1.53329 -0.364422 0
M  V30 5857 C 586.291 2.24323 0.470292 0
M  V30 5858 C 587.291 1.25068 1.01067 0
M  V30 5859 O 588.481 1.49354 0.896605 0
M  V30 5860 C 585.613 2.97908 1.65722 0
M  V30 5861 H 586.806 2.9952 -0.150917 0
M  V30 5862 H 584.359 1.55868 -0.116092 0
M  V30 5863 H 585.094 2.2695 2.31655 0
M  V30 5864 H 584.879 3.70732 1.27671 0
M  V30 5865 H 586.369 3.5188 2.24878 0
M  V30 5866 N 586.806 0.0935595 1.57322 0
M  V30 5867 C 587.769 -0.851426 2.12799 0
M  V30 5868 C 588.769 -1.21187 1.0569 0
M  V30 5869 O 589.959 -1.14156 1.31583 0
M  V30 5870 C 587.091 -2.14779 2.64731 0
M  V30 5871 H 588.284 -0.369733 2.97612 0
M  V30 5872 H 585.837 -0.155417 1.55525 0
M  V30 5873 H 586.572 -2.67437 1.83434 0
M  V30 5874 H 586.357 -1.89907 3.43042 0
M  V30 5875 H 587.847 -2.82383 3.07651 0
M  V30 5876 N 588.284 -1.56567 -0.180126 0
M  V30 5877 C 589.695 -1.7126 -0.743422 0
M  V30 5878 C 590.046 -0.70263 -1.83187 0
M  V30 5879 O 589.171 0.137856 -2.1596 0
M  V30 5880 C 589.766 -3.10512 -1.35528 0
M  V30 5881 C 588.325 -3.26919 -1.8655 0
M  V30 5882 C 587.472 -2.67213 -0.741099 0
M  V30 5883 H 590.423 -1.58636 0.0451543 0
M  V30 5884 H 590.444 -3.08673 -2.22489 0
M  V30 5885 H 589.956 -3.83997 -0.562862 0
M  V30 5886 H 588.057 -2.58376 -2.68464 0
M  V30 5887 H 588.17 -4.34574 -2.01699 0
M  V30 5888 H 586.534 -2.26788 -1.15927 0
M  V30 5889 H 587.317 -3.43277 0.0393291 0
M  V30 5890 N 589.762 0.448376 -1.51087 0
M  V30 5891 C 590.725 1.52588 -1.71025 0
M  V30 5892 C 591.725 1.49958 -0.580442 0
M  V30 5893 O 592.915 1.52176 -0.847833 0
M  V30 5894 C 590.047 2.92163 -1.75652 0
M  V30 5895 H 591.24 1.36218 -2.67179 0
M  V30 5896 H 588.793 0.676313 -1.4091 0
M  V30 5897 H 589.528 3.13951 -0.812724 0
M  V30 5898 H 589.313 2.95478 -2.57751 0
M  V30 5899 H 590.803 3.70349 -1.92953 0
M  V30 5900 N 591.24 1.41047 0.703093 0
M  V30 5901 C 592.488 1.39723 1.4602 0
M  V30 5902 C 592.809 0.00461257 1.94999 0
M  V30 5903 O 592.079 -0.952292 1.71196 0
M  V30 5904 H 590.659 0.514281 0.541779 0
M  V30 5905 H 593.321 1.76217 0.832678 0
M  V30 5906 H 592.417 2.07982 2.32701 0
M  V30 5907 N 592.718 -0.936591 1.26751 0
M  V30 5908 C 593.681 -2.01752 1.08761 0
M  V30 5909 C 594.681 -1.60763 0.0344435 0
M  V30 5910 O 595.871 -1.71963 0.278258 0
M  V30 5911 C 593.003 -3.34543 0.655271 0
M  V30 5912 H 594.196 -2.19143 2.04735 0
M  V30 5913 H 591.749 -1.11618 1.09413 0
M  V30 5914 H 592.484 -3.22851 -0.30626 0
M  V30 5915 H 592.269 -3.65647 1.41578 0
M  V30 5916 H 593.759 -4.13944 0.551378 0
M  V30 5917 N 594.196 -1.08629 -1.14182 0
M  V30 5918 C 595.607 -0.838003 -1.66836 0
M  V30 5919 C 595.958 0.634885 -1.85644 0
M  V30 5920 O 595.083 1.49008 -1.56926 0
M  V30 5921 C 595.678 -1.51465 -3.03058 0
M  V30 5922 C 594.237 -1.31355 -3.52736 0
M  V30 5923 C 593.384 -1.57599 -2.28162 0
M  V30 5924 H 596.335 -1.24656 -0.982165 0
M  V30 5925 H 596.356 -0.943134 -3.68626 0
M  V30 5926 H 595.868 -2.58661 -2.89337 0
M  V30 5927 H 593.969 -0.262384 -3.71675 0
M  V30 5928 H 594.082 -2.04275 -4.33369 0
M  V30 5929 H 592.446 -0.997659 -2.34348 0
M  V30 5930 H 593.229 -2.66006 -2.17015 0
M  V30 5931 N 595.674 1.31259 -0.872281 0
M  V30 5932 C 596.604 2.30929 -0.345554 0
M  V30 5933 C 597.585 1.60449 0.5648 0
M  V30 5934 O 598.77 1.8814 0.481335 0
M  V30 5935 C 595.9 3.44348 0.451823 0
M  V30 5936 C 594.854 4.26435 -0.365641 0
M  V30 5937 C 594.18 5.31785 0.557562 0
M  V30 5938 C 595.48 4.97159 -1.60095 0
M  V30 5939 H 597.174 2.75234 -1.17841 0
M  V30 5940 H 594.72 1.3232 -0.568094 0
M  V30 5941 H 596.673 4.13128 0.830854 0
M  V30 5942 H 595.397 2.98816 1.31821 0
M  V30 5943 H 594.056 3.59326 -0.726649 0
M  V30 5944 H 593.704 4.82502 1.4213 0
M  V30 5945 H 593.404 5.87598 0.0144878 0
M  V30 5946 H 594.928 6.03424 0.933387 0
M  V30 5947 H 596.342 5.58523 -1.29323 0
M  V30 5948 H 594.739 5.62779 -2.08327 0
M  V30 5949 H 595.809 4.24012 -2.35249 0
M  V30 5950 N 597.152 0.631951 1.44375 0
M  V30 5951 C 598.4 0.136497 2.01639 0
M  V30 5952 C 598.721 -1.24637 1.49969 0
M  V30 5953 O 597.991 -1.82827 0.70363 0
M  V30 5954 H 596.571 0.0474703 0.74549 0
M  V30 5955 H 599.233 0.818837 1.76865 0
M  V30 5956 H 598.329 0.104817 3.11924 0
M  V30 5957 N 598.631 -1.53133 0.372548 0
M  V30 5958 C 599.878 -2.01356 -0.214959 0
M  V30 5959 C 600.206 -1.2596 -1.48204 0
M  V30 5960 O 599.461 -0.343511 -1.92662 0
M  V30 5961 C 599.76 -3.53206 -0.545938 0
M  V30 5962 C 599.426 -4.46511 0.627624 0
M  V30 5963 C 598.088 -4.71737 0.949615 0
M  V30 5964 C 600.44 -5.01666 1.41353 0
M  V30 5965 C 597.768 -5.4937 2.05936 0
M  V30 5966 C 600.12 -5.80511 2.51375 0
M  V30 5967 C 598.784 -6.04022 2.84101 0
M  V30 5968 H 598.054 -0.736813 -0.078659 0
M  V30 5969 H 600.701 -1.84682 0.506447 0
M  V30 5970 H 599.006 -3.67864 -1.34845 0
M  V30 5971 H 600.703 -3.87997 -1.01287 0
M  V30 5972 H 597.293 -4.27029 0.366635 0
M  V30 5973 H 601.477 -4.82117 1.17802 0
M  V30 5974 H 596.733 -5.65803 2.31682 0
M  V30 5975 H 600.907 -6.22255 3.12684 0
M  V30 5976 H 598.534 -6.63962 3.70214 0
M  V30 5977 N 600.109 -0.101901 -1.5727 0
M  V30 5978 C 601.525 0.254739 -1.57554 0
M  V30 5979 C 601.725 1.67937 -1.11352 0
M  V30 5980 O 600.781 2.39722 -0.793081 0
M  V30 5981 C 602.094 0.036975 -3.00677 0
M  V30 5982 C 603.642 0.104199 -3.12827 0
M  V30 5983 C 604.117 -0.0856565 -4.5792 0
M  V30 5984 N 605.608 -0.0310498 -4.6319 0
M  V30 5985 C 606.343 -0.153099 -5.73196 0
M  V30 5986 N 605.839 -0.330364 -6.92012 0
M  V30 5987 N 607.632 -0.0938854 -5.62022 0
M  V30 5988 H 599.783 -1.03263 -1.85609 0
M  V30 5989 H 602.046 -0.405251 -0.857016 0
M  V30 5990 H 601.752 -0.947254 -3.38703 0
M  V30 5991 H 601.626 0.776335 -3.69124 0
M  V30 5992 H 604.013 1.07894 -2.74669 0
M  V30 5993 H 604.094 -0.666762 -2.46957 0
M  V30 5994 H 603.738 -1.05729 -4.96773 0
M  V30 5995 H 603.668 0.705082 -5.21858 0
M  V30 5996 H 606.159 0.103141 -3.77759 0
M  V30 5997 H 606.472 -0.41482 -7.71686 0
M  V30 5998 H 604.817 -0.366119 -6.94035 0
M  V30 5999 H 608.008 0.0435168 -4.6808 0
M  V30 6000 H 608.181 -0.19245 -6.47714 0
M  V30 6001 N 601.587 1.56661 0.17182 0
M  V30 6002 C 602.535 1.97289 1.23207 0
M  V30 6003 C 603.529 0.861566 1.45854 0
M  V30 6004 O 604.735 1.04668 1.4644 0
M  V30 6005 H 601.11 0.627681 0.41415 0
M  V30 6006 H 603.081 2.85662 0.862542 0
M  V30 6007 C 601.83 2.34849 2.564 0
M  V30 6008 H 601.153 3.19903 2.39797 0
M  V30 6009 H 602.593 2.67121 3.29276 0
M  V30 6010 C 601.052 1.19172 3.15119 0
M  V30 6011 O 601.582 0.479113 3.98833 0
M  V30 6012 N 599.788 0.962415 2.74201 0
M  V30 6013 H 599.335 1.54365 2.06226 0
M  V30 6014 H 599.293 0.190272 3.13824 0
M  V30 6015 N 603.065 -0.440357 1.51323 0
M  V30 6016 C 604.476 -1.02032 1.56353 0
M  V30 6017 C 604.827 -1.92382 0.385197 0
M  V30 6018 O 603.952 -2.10583 -0.498373 0
M  V30 6019 C 604.547 -1.85723 2.83359 0
M  V30 6020 C 603.106 -2.38774 2.90971 0
M  V30 6021 C 602.253 -1.17908 2.50984 0
M  V30 6022 H 605.204 -0.221744 1.57143 0
M  V30 6023 H 605.225 -2.71141 2.66951 0
M  V30 6024 H 604.737 -1.19939 3.69102 0
M  V30 6025 H 602.838 -3.08021 2.09651 0
M  V30 6026 H 602.951 -2.71778 3.94555 0
M  V30 6027 H 601.315 -1.52347 2.04114 0
M  V30 6028 H 602.098 -0.537393 3.39068 0
M  V30 6029 N 604.543 -1.41418 -0.695603 0
M  V30 6030 C 605.789 -1.40982 -1.4578 0
M  V30 6031 C 606.122 -0.0187763 -1.94191 0
M  V30 6032 O 605.397 0.95346 -1.69527 0
M  V30 6033 C 605.68 -2.41657 -2.66972 0
M  V30 6034 C 605.533 -3.89869 -2.24327 0
M  V30 6035 C 606.852 -2.39589 -3.69168 0
M  V30 6036 H 603.971 -0.513405 -0.528757 0
M  V30 6037 H 606.613 -1.72693 -0.792275 0
M  V30 6038 H 604.763 -2.14746 -3.23754 0
M  V30 6039 H 606.435 -4.27683 -1.72872 0
M  V30 6040 H 604.678 -4.04737 -1.56111 0
M  V30 6041 H 605.349 -4.55857 -3.11285 0
M  V30 6042 H 607.825 -2.63471 -3.2206 0
M  V30 6043 H 606.701 -3.12044 -4.51575 0
M  V30 6044 H 606.962 -1.41447 -4.18862 0
M  V30 6045 N 606.021 0.929856 -1.27246 0
M  V30 6046 C 607.268 1.67731 -1.13457 0
M  V30 6047 C 607.596 1.9185 0.319998 0
M  V30 6048 O 606.851 1.50524 1.25064 0
M  V30 6049 C 607.15 3.05116 -1.86115 0
M  V30 6050 C 606.816 3.00715 -3.35978 0
M  V30 6051 C 605.478 2.99222 -3.76855 0
M  V30 6052 C 607.83 2.92168 -4.3161 0
M  V30 6053 C 605.158 2.86962 -5.11732 0
M  V30 6054 C 607.51 2.81449 -5.66542 0
M  V30 6055 C 606.174 2.78305 -6.06715 0
M  V30 6056 H 605.444 0.613772 -0.415168 0
M  V30 6057 H 608.091 1.08456 -1.57827 0
M  V30 6058 H 606.396 3.68083 -1.34246 0
M  V30 6059 H 608.093 3.61822 -1.72876 0
M  V30 6060 H 604.683 3.02664 -3.03468 0
M  V30 6061 H 608.867 2.92421 -4.01003 0
M  V30 6062 H 604.123 2.82913 -5.42006 0
M  V30 6063 H 608.297 2.738 -6.40317 0
M  V30 6064 H 605.924 2.68561 -7.11181 0
M  V30 6065 N 607.499 1.09233 1.13605 0
M  V30 6066 C 608.776 0.739633 1.81077 0
M  V30 6067 C 609.156 -0.775595 1.96336 0
M  V30 6068 O 608.504 -1.69726 1.52988 0
M  V30 6069 C 608.714 1.47636 3.16235 0
M  V30 6070 C 610.062 1.64087 3.91613 0
M  V30 6071 O 611.086 1.43871 3.25852 0
M  V30 6072 O 609.945 1.97511 5.0956 0
M  V30 6073 H 607.039 0.265464 0.783236 0
M  V30 6074 H 609.585 1.19441 1.20549 0
M  V30 6075 H 608.357 2.50818 3.00344 0
M  V30 6076 H 607.98 1.01362 3.84462 0
M  V30 6077 N 608.977 -1.30795 0.87923 0
M  V30 6078 C 610.223 -1.96653 0.495519 0
M  V30 6079 C 610.556 -1.69282 -0.951703 0
M  V30 6080 O 609.831 -0.994374 -1.6716 0
M  V30 6081 C 610.114 -3.51898 0.764174 0
M  V30 6082 C 609.967 -3.88808 2.2616 0
M  V30 6083 C 611.286 -4.39462 0.236825 0
M  V30 6084 H 608.405 -0.7143 0.181507 0
M  V30 6085 H 611.047 -1.54765 1.10217 0
M  V30 6086 H 609.197 -3.87709 0.247841 0
M  V30 6087 H 610.869 -3.63051 2.8459 0
M  V30 6088 H 609.112 -3.37082 2.73053 0
M  V30 6089 H 609.783 -4.97086 2.4002 0
M  V30 6090 H 612.259 -4.10528 0.678683 0
M  V30 6091 H 611.135 -5.47018 0.454176 0
M  V30 6092 H 611.396 -4.33621 -0.861683 0
M  V30 6093 N 610.455 -0.639598 -1.44038 0
M  V30 6094 C 611.683 -0.154811 -2.0632 0
M  V30 6095 C 612.098 1.17406 -1.47856 0
M  V30 6096 O 611.455 1.72193 -0.604638 0
M  V30 6097 C 611.506 -0.0429958 -3.61474 0
M  V30 6098 O 611.227 -1.31932 -4.17763 0
M  V30 6099 C 612.728 0.469486 -4.40807 0
M  V30 6100 H 609.948 -0.0835862 -0.665773 0
M  V30 6101 H 612.492 -0.876397 -1.84769 0
M  V30 6102 H 610.647 0.629075 -3.82258 0
M  V30 6103 H 611.061 -1.16965 -5.11292 0
M  V30 6104 H 612.535 0.496712 -5.49761 0
M  V30 6105 H 613.012 1.49819 -4.12857 0
M  V30 6106 H 613.618 -0.169624 -4.24962 0
M  V30 6107 N 611.933 1.52934 -0.380664 0
M  V30 6108 C 612.896 2.24809 0.446473 0
M  V30 6109 C 613.896 1.26133 0.997347 0
M  V30 6110 O 615.086 1.50297 0.880714 0
M  V30 6111 C 612.218 2.99649 1.62553 0
M  V30 6112 H 613.411 2.99343 -0.182677 0
M  V30 6113 H 610.964 1.55736 -0.132618 0
M  V30 6114 H 611.699 2.29395 2.29235 0
M  V30 6115 H 611.484 3.72066 1.23732 0
M  V30 6116 H 612.974 3.54246 2.21133 0
M  V30 6117 N 613.412 0.11024 1.57214 0
M  V30 6118 C 614.637 -0.561179 1.99664 0
M  V30 6119 C 615.062 -1.59985 0.989266 0
M  V30 6120 O 614.42 -1.81255 -0.0402399 0
M  V30 6121 C 614.468 -1.17189 3.41027 0
M  V30 6122 O 613.572 -2.28755 3.4314 0
M  V30 6123 H 612.913 -0.14101 0.648855 0
M  V30 6124 H 615.443 0.196128 2.03658 0
M  V30 6125 H 615.453 -1.50954 3.79047 0
M  V30 6126 H 614.128 -0.411041 4.13864 0
M  V30 6127 H 612.705 -1.96495 3.16929 0
M  V30 6128 N 614.89 -1.56749 -0.16351 0
M  V30 6129 C 615.8 -2.00255 -1.2221 0
M  V30 6130 C 616.816 -0.915194 -1.47987 0
M  V30 6131 O 617.992 -1.22342 -1.59982 0
M  V30 6132 C 615.057 -2.36035 -2.53946 0
M  V30 6133 C 614.118 -3.58637 -2.35962 0
M  V30 6134 C 613.351 -3.92701 -3.61416 0
M  V30 6135 O 613.574 -3.27632 -4.66919 0
M  V30 6136 O 612.508 -4.86019 -3.55062 0
M  V30 6137 H 616.334 -2.90586 -0.882794 0
M  V30 6138 H 613.919 -1.44721 -0.370978 0
M  V30 6139 H 615.801 -2.59982 -3.31643 0
M  V30 6140 H 614.476 -1.48863 -2.8744 0
M  V30 6141 H 613.383 -3.39898 -1.5627 0
M  V30 6142 H 614.716 -4.46374 -2.0739 0
M  V30 6143 N 616.368 0.432326 -1.51554 0
M  V30 6144 C 617.278 1.55023 -1.76082 0
M  V30 6145 C 618.294 1.61593 -0.645265 0
M  V30 6146 O 619.47 1.78742 -0.928086 0
M  V30 6147 C 616.535 2.90964 -1.88523 0
M  V30 6148 C 615.596 2.9447 -3.12388 0
M  V30 6149 C 614.829 4.23926 -3.24225 0
M  V30 6150 O 615.052 5.16576 -2.4188 0
M  V30 6151 O 613.986 4.33818 -4.17235 0
M  V30 6152 H 617.812 1.37238 -2.70923 0
M  V30 6153 H 615.397 0.615845 -1.36117 0
M  V30 6154 H 617.279 3.71633 -1.98662 0
M  V30 6155 H 615.954 3.08865 -0.9687 0
M  V30 6156 H 614.861 2.12737 -3.07723 0
M  V30 6157 H 616.194 2.81514 -4.03746 0
M  V30 6158 N 617.846 1.41785 0.688094 0
M  V30 6159 C 618.776 1.47 1.8142 0
M  V30 6160 C 619.757 0.327881 1.6691 0
M  V30 6161 O 620.942 0.540362 1.86531 0
M  V30 6162 C 618.072 1.35876 3.19617 0
M  V30 6163 C 617.026 2.47976 3.48844 0
M  V30 6164 C 616.352 2.21915 4.86475 0
M  V30 6165 C 617.652 3.90309 3.47068 0
M  V30 6166 H 619.346 2.41247 1.77314 0
M  V30 6167 H 616.892 1.16116 0.851651 0
M  V30 6168 H 618.845 1.38134 3.98117 0
M  V30 6169 H 617.569 0.38116 3.24368 0
M  V30 6170 H 616.228 2.45013 2.72698 0
M  V30 6171 H 615.876 1.2248 4.8786 0
M  V30 6172 H 615.576 2.97037 5.06994 0
M  V30 6173 H 617.1 2.25901 5.67275 0
M  V30 6174 H 618.514 3.94947 4.1556 0
M  V30 6175 H 616.911 4.65175 3.7912 0
M  V30 6176 H 617.981 4.17927 2.45896 0
M  V30 6177 N 619.324 -0.923095 1.27737 0
M  V30 6178 C 620.735 -1.48626 1.12993 0
M  V30 6179 C 621.086 -1.94142 -0.283439 0
M  V30 6180 O 620.211 -1.81605 -1.17681 0
M  V30 6181 C 620.806 -2.70117 2.04505 0
M  V30 6182 C 619.365 -3.22642 1.93853 0
M  V30 6183 C 618.512 -1.95368 1.96791 0
M  V30 6184 H 621.463 -0.736737 1.40563 0
M  V30 6185 H 621.484 -3.4506 1.60356 0
M  V30 6186 H 620.996 -2.36959 3.07363 0
M  V30 6187 H 619.097 -3.60549 0.939968 0
M  V30 6188 H 619.21 -3.88525 2.80331 0
M  V30 6189 H 617.574 -2.12061 1.41076 0
M  V30 6190 H 618.357 -1.64517 3.01312 0
M  V30 6191 N 620.802 -1.09834 -1.13024 0
M  V30 6192 C 621.732 -0.763451 -2.20666 0
M  V30 6193 C 622.713 0.260778 -1.68089 0
M  V30 6194 O 623.898 0.127915 -1.93778 0
M  V30 6195 C 621.028 -0.187744 -3.46792 0
M  V30 6196 C 619.982 -1.14196 -4.12484 0
M  V30 6197 C 619.308 -0.427755 -5.32986 0
M  V30 6198 C 620.608 -2.48607 -4.59338 0
M  V30 6199 H 622.302 -1.66347 -2.48936 0
M  V30 6200 H 619.848 -0.801261 -1.19649 0
M  V30 6201 H 621.801 0.0586375 -4.21359 0
M  V30 6202 H 620.525 0.747485 -3.17931 0
M  V30 6203 H 619.184 -1.37369 -3.3989 0
M  V30 6204 H 618.832 0.511747 -5.0039 0
M  V30 6205 H 618.532 -1.06403 -5.77886 0
M  V30 6206 H 620.056 -0.189772 -6.10305 0
M  V30 6207 H 621.47 -2.29618 -5.25308 0
M  V30 6208 H 619.867 -3.08062 -5.14993 0
M  V30 6209 H 620.937 -3.09062 -3.73642 0
M  V30 6210 N 622.28 1.30327 -0.886154 0
M  V30 6211 C 623.691 1.78243 -0.555554 0
M  V30 6212 C 624.042 1.72849 0.928314 0
M  V30 6213 O 623.167 1.30607 1.72542 0
M  V30 6214 C 623.762 3.23654 -1.00168 0
M  V30 6215 C 622.321 3.69401 -0.722471 0
M  V30 6216 C 621.468 2.50753 -1.18399 0
M  V30 6217 H 624.419 1.1718 -1.07026 0
M  V30 6218 H 624.44 3.79056 -0.331152 0
M  V30 6219 H 623.952 3.27548 -2.08169 0
M  V30 6220 H 622.053 3.70995 0.345496 0
M  V30 6221 H 622.166 4.60818 -1.31085 0
M  V30 6222 H 620.53 2.47452 -0.603303 0
M  V30 6223 H 621.313 2.57383 -2.27176 0
M  V30 6224 N 623.758 0.647228 1.43697 0
M  V30 6225 C 625.174 0.314256 1.56476 0
M  V30 6226 C 625.374 -1.18191 1.63196 0
M  V30 6227 O 624.43 -1.96655 1.58376 0
M  V30 6228 C 625.743 1.02034 2.82859 0
M  V30 6229 C 627.291 1.00002 2.96595 0
M  V30 6230 C 627.766 1.68689 4.25803 0
M  V30 6231 N 629.257 1.65424 4.32654 0
M  V30 6232 C 629.992 2.1545 5.31384 0
M  V30 6233 N 629.488 2.73738 6.36427 0
M  V30 6234 N 631.281 2.05985 5.22998 0
M  V30 6235 H 623.432 1.61821 1.37578 0
M  V30 6236 H 625.695 0.680184 0.660344 0
M  V30 6237 H 625.401 2.07542 2.83935 0
M  V30 6238 H 625.275 0.568146 3.72897 0
M  V30 6239 H 627.662 -0.0466319 2.95063 0
M  V30 6240 H 627.743 1.49086 2.07863 0
M  V30 6241 H 627.387 2.73308 4.28095 0
M  V30 6242 H 627.317 1.17076 5.13421 0
M  V30 6243 H 629.808 1.22884 3.57363 0
M  V30 6244 H 630.121 3.09602 7.08072 0
M  V30 6245 H 628.466 2.77796 6.37067 0
M  V30 6246 H 631.657 1.60157 4.39849 0
M  V30 6247 H 631.83 2.45281 5.99784 0
M  V30 6248 N 625.236 -1.5273 0.388769 0
M  V30 6249 C 626.652 -1.59553 0.0387049 0
M  V30 6250 C 626.852 -1.40278 -1.44652 0
M  V30 6251 O 625.908 -1.21951 -2.21098 0
M  V30 6252 C 627.221 -2.9625 0.515409 0
M  V30 6253 C 628.769 -3.09426 0.471621 0
M  V30 6254 C 629.244 -4.48572 0.924505 0
M  V30 6255 N 630.735 -4.54754 0.880496 0
M  V30 6256 C 631.47 -5.60653 1.20234 0
M  V30 6257 N 630.966 -6.74198 1.59463 0
M  V30 6258 N 632.759 -5.50755 1.12363 0
M  V30 6259 H 624.91 -1.63508 1.35569 0
M  V30 6260 H 627.173 -0.768097 0.555636 0
M  V30 6261 H 626.879 -3.15569 1.5527 0
M  V30 6262 H 626.753 -3.77102 -0.085792 0
M  V30 6263 H 629.14 -2.89804 -0.556588 0
M  V30 6264 H 629.221 -2.30528 1.10862 0
M  V30 6265 H 628.865 -4.68936 1.95094 0
M  V30 6266 H 628.795 -5.25935 0.264524 0
M  V30 6267 H 631.286 -3.73237 0.591815 0
M  V30 6268 H 631.599 -7.5097 1.82385 0
M  V30 6269 H 629.944 -6.75531 1.63349 0
M  V30 6270 H 633.135 -4.6093 0.816169 0
M  V30 6271 H 633.308 -6.33184 1.37777 0
M  V30 6272 N 626.714 -0.118576 -1.57153 0
M  V30 6273 C 627.644 0.828436 -2.1831 0
M  V30 6274 C 628.625 1.27758 -1.12303 0
M  V30 6275 O 629.81 1.34026 -1.40537 0
M  V30 6276 C 626.94 2.07876 -2.78217 0
M  V30 6277 C 625.894 1.76742 -3.89803 0
M  V30 6278 C 625.22 3.08801 -4.36516 0
M  V30 6279 C 626.52 1.03606 -5.11921 0
M  V30 6280 H 628.214 0.318824 -2.97698 0
M  V30 6281 H 625.76 0.151911 -1.43196 0
M  V30 6282 H 627.713 2.74584 -3.19659 0
M  V30 6283 H 626.437 2.61161 -1.96118 0
M  V30 6284 H 625.096 1.12424 -3.48936 0
M  V30 6285 H 624.744 3.6002 -3.51276 0
M  V30 6286 H 624.444 2.88743 -5.11763 0
M  V30 6287 H 625.968 3.76627 -4.80608 0
M  V30 6288 H 627.382 1.60467 -5.50385 0
M  V30 6289 H 625.779 0.936454 -5.92748 0
M  V30 6290 H 626.849 0.0227421 -4.84895 0
M  V30 6291 N 628.193 1.56834 0.155195 0
M  V30 6292 C 629.418 1.87412 0.888337 0
M  V30 6293 C 629.843 0.70671 1.74319 0
M  V30 6294 O 629.201 -0.343892 1.78009 0
M  V30 6295 C 629.249 3.1652 1.72765 0
M  V30 6296 O 628.353 2.99877 2.83103 0
M  V30 6297 H 627.694 0.615983 0.247914 0
M  V30 6298 H 630.224 2.04061 0.148478 0
M  V30 6299 H 630.234 3.48334 2.12433 0
M  V30 6300 H 628.909 4.01094 1.09985 0
M  V30 6301 H 627.486 2.79453 2.46902 0
M  V30 6302 N 629.671 -0.424282 1.51781 0
M  V30 6303 C 630.601 -1.52305 1.7699 0
M  V30 6304 C 631.582 -1.5839 0.620209 0
M  V30 6305 O 632.767 -1.73908 0.864268 0
M  V30 6306 C 629.897 -2.90271 1.90683 0
M  V30 6307 C 628.851 -2.99043 3.06198 0
M  V30 6308 C 628.177 -4.39116 3.05092 0
M  V30 6309 C 629.477 -2.7192 4.45934 0
M  V30 6310 H 631.171 -1.31461 2.68995 0
M  V30 6311 H 628.717 -0.630985 1.29439 0
M  V30 6312 H 630.67 -3.6711 2.06901 0
M  V30 6313 H 629.394 -3.12376 0.953365 0
M  V30 6314 H 628.053 -2.24646 2.89706 0
M  V30 6315 H 627.701 -4.58207 2.07498 0
M  V30 6316 H 627.401 -4.45912 3.82669 0
M  V30 6317 H 628.925 -5.17911 3.2342 0
M  V30 6318 H 630.339 -3.38487 4.62709 0
M  V30 6319 H 628.736 -2.90111 5.25315 0
M  V30 6320 H 629.806 -1.67445 4.55072 0
M  V30 6321 N 631.149 -1.42148 -0.680565 0
M  V30 6322 C 632.395 -1.42521 -1.44277 0
M  V30 6323 C 632.728 -0.0393718 -1.9416 0
M  V30 6324 O 632.003 0.935425 -1.70529 0
M  V30 6325 C 632.286 -2.44475 -2.64394 0
M  V30 6326 C 632.139 -3.92226 -2.20179 0
M  V30 6327 C 633.458 -2.43491 -3.66606 0
M  V30 6328 H 630.577 -0.518985 -0.523282 0
M  V30 6329 H 633.219 -1.73524 -0.773914 0
M  V30 6330 H 631.369 -2.18168 -3.21458 0
M  V30 6331 H 633.041 -4.29493 -1.68327 0
M  V30 6332 H 631.284 -4.0637 -1.5181 0
M  V30 6333 H 631.955 -4.59133 -3.06433 0
M  V30 6334 H 634.431 -2.66872 -3.19247 0
M  V30 6335 H 633.307 -3.16816 -4.4824 0
M  V30 6336 H 633.568 -1.45881 -4.17338 0
M  V30 6337 N 632.627 0.916307 -1.28225 0
M  V30 6338 C 634.038 1.48024 -1.13779 0
M  V30 6339 C 634.389 1.94289 0.273139 0
M  V30 6340 O 633.514 1.82226 1.16716 0
M  V30 6341 C 634.109 2.69029 -2.05935 0
M  V30 6342 C 632.668 3.2161 -1.95561 0
M  V30 6343 C 631.815 1.94321 -1.97825 0
M  V30 6344 H 634.766 0.729272 -1.40951 0
M  V30 6345 H 634.787 3.44204 -1.62184 0
M  V30 6346 H 634.299 2.35325 -3.08616 0
M  V30 6347 H 632.4 3.60045 -0.959076 0
M  V30 6348 H 632.513 3.87032 -2.82388 0
M  V30 6349 H 630.877 2.1131 -1.42198 0
M  V30 6350 H 631.66 1.62917 -3.0218 0
M  V30 6351 N 634.105 1.10431 1.1244 0
M  V30 6352 C 635.052 0.753103 2.18167 0
M  V30 6353 C 636.022 -0.270549 1.63882 0
M  V30 6354 O 637.207 -0.149837 1.90211 0
M  V30 6355 C 634.347 0.191046 3.44571 0
M  V30 6356 C 633.46 1.26999 4.12911 0
M  V30 6357 C 632.595 0.669586 5.26963 0
M  V30 6358 C 631.634 1.72912 5.87169 0
M  V30 6359 N 630.771 1.14898 6.92635 0
M  V30 6360 H 635.611 1.65892 2.47556 0
M  V30 6361 H 633.148 0.828631 1.21541 0
M  V30 6362 H 635.106 -0.152712 4.1692 0
M  V30 6363 H 633.736 -0.677997 3.15599 0
M  V30 6364 H 632.788 1.73087 3.3874 0
M  V30 6365 H 634.1 2.07204 4.53727 0
M  V30 6366 H 633.254 0.275274 6.06075 0
M  V30 6367 H 631.993 -0.163895 4.87425 0
M  V30 6368 H 630.998 2.13286 5.06744 0
M  V30 6369 H 632.223 2.56544 6.28778 0
M  V30 6370 H 630.169 0.336956 6.55134 0
M  V30 6371 H 630.086 1.88786 7.32049 0
M  V30 6372 H 631.354 0.78121 7.75576 0
M  V30 6373 N 635.583 -1.29855 0.893053 0
M  V30 6374 C 636.546 -2.26183 0.370687 0
M  V30 6375 C 637.546 -1.53108 -0.491385 0
M  V30 6376 O 638.736 -1.71643 -0.297386 0
M  V30 6377 C 635.868 -3.37633 -0.470827 0
M  V30 6378 H 637.061 -2.73903 1.22135 0
M  V30 6379 H 634.614 -1.41183 0.67061 0
M  V30 6380 H 635.349 -2.95241 -1.34175 0
M  V30 6381 H 635.134 -3.91825 0.146784 0
M  V30 6382 H 636.624 -4.09313 -0.827825 0
M  V30 6383 N 637.061 -0.65484 -1.43351 0
M  V30 6384 C 638.024 0.0263562 -2.29185 0
M  V30 6385 C 639.024 0.748951 -1.42293 0
M  V30 6386 O 640.214 0.589957 -1.63906 0
M  V30 6387 C 637.346 1.04806 -3.2439 0
M  V30 6388 H 638.539 -0.728883 -2.90908 0
M  V30 6389 H 636.092 -0.416149 -1.50658 0
M  V30 6390 H 636.827 1.83247 -2.67565 0
M  V30 6391 H 636.612 0.533554 -3.88453 0
M  V30 6392 H 638.102 1.52372 -3.88809 0
M  V30 6393 N 638.539 1.52521 -0.396863 0
M  V30 6394 C 639.502 2.2527 0.422604 0
M  V30 6395 C 640.502 1.27184 0.983913 0
M  V30 6396 O 641.692 1.51222 0.864723 0
M  V30 6397 C 638.824 3.01356 1.59365 0
M  V30 6398 H 640.017 2.99133 -0.214416 0
M  V30 6399 H 637.57 1.55587 -0.149128 0
M  V30 6400 H 638.305 2.31813 2.26789 0
M  V30 6401 H 638.09 3.73357 1.19779 0
M  V30 6402 H 639.58 3.56571 2.17363 0
M  V30 6403 N 640.017 0.126909 1.57088 0
M  V30 6404 C 641.294 -0.573152 1.87014 0
M  V30 6405 C 641.674 -1.84297 1.02945 0
M  V30 6406 O 641.022 -2.28232 0.110573 0
M  V30 6407 C 641.232 -0.857984 3.38289 0
M  V30 6408 C 642.58 -1.20759 4.07066 0
M  V30 6409 O 643.604 -0.947992 3.43353 0
M  V30 6410 O 642.463 -1.69516 5.19545 0
M  V30 6411 H 639.557 -0.290082 0.774456 0
M  V30 6412 H 642.103 0.162008 1.68925 0
M  V30 6413 H 640.875 0.0415286 3.91278 0
M  V30 6414 H 640.498 -1.64803 3.61837 0
M  V30 6415 N 641.495 -1.56914 -0.146875 0
M  V30 6416 C 642.72 -1.87881 -0.878386 0
M  V30 6417 C 643.145 -0.715945 -1.73942 0
M  V30 6418 O 642.503 0.334447 -1.78189 0
M  V30 6419 C 642.551 -3.17431 -1.71084 0
M  V30 6420 O 641.655 -3.01374 -2.81509 0
M  V30 6421 H 640.996 -0.617289 -0.244644 0
M  V30 6422 H 643.526 -2.04136 -0.137654 0
M  V30 6423 H 643.536 -3.49455 -2.10582 0
M  V30 6424 H 642.211 -4.01671 -1.07856 0
M  V30 6425 H 640.788 -2.80758 -2.45416 0
M  V30 6426 N 642.974 0.416227 -1.52004 0
M  V30 6427 C 644.202 1.18573 -1.69553 0
M  V30 6428 C 644.617 1.84472 -0.401919 0
M  V30 6429 O 643.974 1.71593 0.621463 0
M  V30 6430 C 644.025 2.25413 -2.82615 0
M  V30 6431 O 643.746 1.62205 -4.06966 0
M  V30 6432 C 645.247 3.15297 -3.11613 0
M  V30 6433 H 642.467 0.356582 -0.56841 0
M  V30 6434 H 645.011 0.490618 -1.98528 0
M  V30 6435 H 643.166 2.90604 -2.56179 0
M  V30 6436 H 643.58 2.3298 -4.69916 0
M  V30 6437 H 645.054 3.86351 -3.94255 0
M  V30 6438 H 645.531 3.77264 -2.24874 0
M  V30 6439 H 646.137 2.55783 -3.39787 0
M  V30 6440 N 644.452 1.42507 0.673017 0
M  V30 6441 C 645.677 1.4668 1.46627 0
M  V30 6442 C 646.102 0.080066 1.8793 0
M  V30 6443 O 645.46 -0.921879 1.56112 0
M  V30 6444 C 645.508 2.40091 2.69051 0
M  V30 6445 O 644.612 1.8735 3.67387 0
M  V30 6446 H 643.953 0.496908 0.44043 0
M  V30 6447 H 646.483 1.87215 0.825334 0
M  V30 6448 H 646.493 2.56731 3.17101 0
M  V30 6449 H 645.168 3.4084 2.3833 0
M  V30 6450 H 643.745 1.80274 3.26429 0
M  V30 6451 N 645.93 -0.909495 1.28709 0
M  V30 6452 C 646.88 -1.9991 1.09636 0
M  V30 6453 C 647.864 -1.60889 0.01872 0
M  V30 6454 O 649.056 -1.75374 0.239338 0
M  V30 6455 C 646.185 -3.34675 0.764702 0
M  V30 6456 C 645.271 -3.80085 1.8814 0
M  V30 6457 N 645.662 -3.97824 3.12361 0
M  V30 6458 C 643.96 -4.09278 1.77221 0
M  V30 6459 C 644.661 -4.35928 3.85151 0
M  V30 6460 N 643.637 -4.44426 3.13028 0
M  V30 6461 H 647.439 -2.11681 2.03883 0
M  V30 6462 H 644.953 -1.09763 1.1969 0
M  V30 6463 H 646.95 -4.12426 0.609132 0
M  V30 6464 H 645.61 -3.24255 -0.169952 0
M  V30 6465 H 646.621 -3.83626 3.47925 0
M  V30 6466 H 643.298 -4.0747 0.909621 0
M  V30 6467 H 644.688 -4.57581 4.92006 0
M  V30 6468 N 647.408 -1.11026 -1.11852 0
M  V30 6469 C 648.633 -0.879064 -1.87849 0
M  V30 6470 C 649.058 0.565406 -1.79401 0
M  V30 6471 O 648.416 1.39886 -1.15333 0
M  V30 6472 C 648.464 -1.33985 -3.34784 0
M  V30 6473 O 647.568 -0.508803 -4.09249 0
M  V30 6474 H 646.909 -0.316992 -0.583448 0
M  V30 6475 H 649.439 -1.47863 -1.41413 0
M  V30 6476 H 649.449 -1.33248 -3.85628 0
M  V30 6477 H 648.124 -2.39172 -3.40249 0
M  V30 6478 H 646.701 -0.581913 -3.68332 0
M  V30 6479 N 648.886 1.2938 -0.899927 0
M  V30 6480 C 650.116 1.99402 -0.540601 0
M  V30 6481 C 650.524 1.67534 0.87914 0
M  V30 6482 O 649.867 0.916821 1.59186 0
M  V30 6483 C 649.929 3.53514 -0.653326 0
M  V30 6484 C 649.593 4.08937 -2.04009 0
M  V30 6485 C 650.59 4.23815 -3.01126 0
M  V30 6486 C 648.275 4.43962 -2.34953 0
M  V30 6487 C 650.269 4.72951 -4.27313 0
M  V30 6488 C 647.956 4.92795 -3.61382 0
M  V30 6489 C 648.954 5.07244 -4.57376 0
M  V30 6490 O 648.642 5.55017 -5.8156 0
M  V30 6491 H 648.374 0.64383 -0.206057 0
M  V30 6492 H 650.928 1.65878 -1.21134 0
M  V30 6493 H 649.158 3.86628 0.0744449 0
M  V30 6494 H 650.847 4.04767 -0.303118 0
M  V30 6495 H 651.613 3.97043 -2.78535 0
M  V30 6496 H 647.492 4.31974 -1.60994 0
M  V30 6497 H 651.036 4.84144 -5.02245 0
M  V30 6498 H 646.933 5.19004 -3.83804 0
M  V30 6499 H 647.701 5.73331 -5.84153 0
M  V30 6500 N 650.364 0.662433 1.43002 0
M  V30 6501 C 651.611 0.179591 2.01702 0
M  V30 6502 C 651.939 -1.20964 1.52309 0
M  V30 6503 O 651.194 -1.82343 0.7106 0
M  V30 6504 C 651.493 0.149363 3.57088 0
M  V30 6505 C 651.159 1.48158 4.25864 0
M  V30 6506 C 649.821 1.84638 4.44367 0
M  V30 6507 C 652.173 2.35953 4.64732 0
M  V30 6508 C 649.501 3.08561 4.99006 0
M  V30 6509 C 651.853 3.59176 5.20745 0
M  V30 6510 C 650.517 3.95841 5.37463 0
M  V30 6511 H 649.787 0.0657172 0.73808 0
M  V30 6512 H 652.434 0.854968 1.71355 0
M  V30 6513 H 650.739 -0.609491 3.8703 0
M  V30 6514 H 652.436 -0.241241 4.00274 0
M  V30 6515 H 649.026 1.18777 4.11813 0
M  V30 6516 H 653.21 2.09058 4.50121 0
M  V30 6517 H 648.466 3.37005 5.10135 0
M  V30 6518 H 652.64 4.27417 5.49807 0
M  V30 6519 H 650.267 4.91942 5.79566 0
M  V30 6520 N 651.842 -1.52309 0.404946 0
M  V30 6521 C 653.088 -2.02065 -0.172455 0
M  V30 6522 C 653.421 -1.29022 -1.45145 0
M  V30 6523 O 652.696 -0.395284 -1.90441 0
M  V30 6524 C 652.979 -3.5759 -0.424433 0
M  V30 6525 C 652.832 -4.41287 0.870945 0
M  V30 6526 C 654.151 -4.23186 -1.20837 0
M  V30 6527 H 651.27 -0.734454 -0.0612035 0
M  V30 6528 H 653.912 -1.82236 0.53759 0
M  V30 6529 H 652.062 -3.74617 -1.02929 0
M  V30 6530 H 653.734 -4.3598 1.50729 0
M  V30 6531 H 651.977 -4.07669 1.48284 0
M  V30 6532 H 652.648 -5.48171 0.649083 0
M  V30 6533 H 655.124 -4.10232 -0.696338 0
M  V30 6534 H 654 -5.31953 -1.35343 0
M  V30 6535 H 654.261 -3.81862 -2.22786 0
M  V30 6536 N 653.32 -0.135238 -1.57019 0
M  V30 6537 C 654.268 0.826099 -2.17436 0
M  V30 6538 C 655.262 1.26378 -1.12805 0
M  V30 6539 O 656.468 1.23363 -1.31079 0
M  V30 6540 H 652.843 0.284568 -0.696078 0
M  V30 6541 H 654.814 0.292212 -2.96966 0
M  V30 6542 C 653.563 2.05991 -2.80112 0
M  V30 6543 H 652.886 1.73209 -3.60331 0
M  V30 6544 H 654.326 2.71225 -3.25903 0
M  V30 6545 C 652.785 2.86027 -1.78017 0
M  V30 6546 O 653.315 3.81971 -1.24344 0
M  V30 6547 N 651.521 2.50332 -1.47588 0
M  V30 6548 H 651.068 1.72377 -1.91426 0
M  V30 6549 H 651.026 3.04177 -0.795228 0
M  V30 6550 N 654.798 1.5699 0.138552 0
M  V30 6551 C 656.209 1.73171 0.697754 0
M  V30 6552 C 656.56 0.750952 1.8126 0
M  V30 6553 O 655.685 -0.080549 2.1625 0
M  V30 6554 C 656.28 3.13996 1.27248 0
M  V30 6555 C 654.839 3.3175 1.77816 0
M  V30 6556 C 653.986 2.69084 0.669991 0
M  V30 6557 H 656.937 1.5846 -0.0871979 0
M  V30 6558 H 656.958 3.14463 2.14227 0
M  V30 6559 H 656.47 3.85354 0.460855 0
M  V30 6560 H 654.571 2.65403 2.61519 0
M  V30 6561 H 654.684 4.39768 1.90107 0
M  V30 6562 H 653.048 2.29782 1.09874 0
M  V30 6563 H 653.831 3.43053 -0.130329 0
M  V30 6564 N 656.276 -0.40816 1.52223 0
M  V30 6565 C 657.206 -1.5042 1.78595 0
M  V30 6566 C 658.187 -1.57723 0.636974 0
M  V30 6567 O 659.372 -1.72982 0.882664 0
M  V30 6568 C 656.502 -2.88232 1.93751 0
M  V30 6569 C 655.456 -2.95779 3.09352 0
M  V30 6570 C 654.782 -4.35855 3.09732 0
M  V30 6571 C 656.082 -2.67175 4.48793 0
M  V30 6572 H 657.776 -1.28601 2.70374 0
M  V30 6573 H 655.322 -0.617221 1.30101 0
M  V30 6574 H 657.275 -3.64895 2.10783 0
M  V30 6575 H 655.999 -3.11347 0.986443 0
M  V30 6576 H 654.658 -2.21561 2.92072 0
M  V30 6577 H 654.306 -4.55981 2.12346 0
M  V30 6578 H 654.006 -4.41829 3.87377 0
M  V30 6579 H 655.53 -5.14451 3.28895 0
M  V30 6580 H 656.944 -3.3356 4.66273 0
M  V30 6581 H 655.341 -2.84523 5.28362 0
M  V30 6582 H 656.411 -1.62609 4.56822 0
M  V30 6583 N 657.755 -1.42862 -0.66545 0
M  V30 6584 C 659.002 -1.4383 -1.42546 0
M  V30 6585 C 659.33 -0.0581114 -1.94413 0
M  V30 6586 O 658.585 0.935002 -1.71919 0
M  V30 6587 C 658.884 -2.4175 -2.63233 0
M  V30 6588 C 658.55 -3.87915 -2.29854 0
M  V30 6589 C 657.212 -4.27726 -2.20463 0
M  V30 6590 C 659.564 -4.80074 -2.02924 0
M  V30 6591 C 656.892 -5.57666 -1.82279 0
M  V30 6592 C 659.244 -6.10366 -1.66242 0
M  V30 6593 C 657.908 -6.49167 -1.55367 0
M  V30 6594 H 657.178 -0.52631 -0.521612 0
M  V30 6595 H 659.825 -1.75863 -0.757914 0
M  V30 6596 H 658.13 -2.03077 -3.35063 0
M  V30 6597 H 659.827 -2.39759 -3.21429 0
M  V30 6598 H 656.417 -3.564 -2.3807 0
M  V30 6599 H 660.601 -4.50097 -2.09108 0
M  V30 6600 H 655.857 -5.8658 -1.72436 0
M  V30 6601 H 660.031 -6.81258 -1.44432 0
M  V30 6602 H 657.658 -7.49761 -1.2555 0
M  V30 6603 N 659.233 0.902656 -1.29189 0
M  V30 6604 C 660.196 1.98797 -1.14071 0
M  V30 6605 C 661.196 1.60615 -0.0770549 0
M  V30 6606 O 662.386 1.71165 -0.323753 0
M  V30 6607 C 659.518 3.32688 -0.743739 0
M  V30 6608 H 660.711 2.13637 -2.10473 0
M  V30 6609 H 658.264 1.08678 -1.12334 0
M  V30 6610 H 658.999 3.23549 0.220554 0
M  V30 6611 H 658.784 3.61765 -1.51223 0
M  V30 6612 H 660.274 4.12337 -0.660935 0
M  V30 6613 N 660.711 1.11618 1.11262 0
M  V30 6614 C 661.959 0.864469 1.82678 0
M  V30 6615 C 662.28 -0.611564 1.85162 0
M  V30 6616 O 661.55 -1.44429 1.32352 0
M  V30 6617 H 660.13 0.316821 0.676486 0
M  V30 6618 H 662.792 1.40894 1.34666 0
M  V30 6619 H 661.888 1.23832 2.86482 0
M  V30 6620 N 662.189 -1.289 0.906776 0
M  V30 6621 C 663.152 -2.25777 0.394656 0
M  V30 6622 C 664.152 -1.53621 -0.475119 0
M  V30 6623 O 665.342 -1.71949 -0.279165 0
M  V30 6624 C 662.474 -3.38113 -0.43499 0
M  V30 6625 H 663.667 -2.72592 1.25033 0
M  V30 6626 H 661.22 -1.40463 0.685547 0
M  V30 6627 H 661.955 -2.96648 -1.31036 0
M  V30 6628 H 661.74 -3.91647 0.188334 0
M  V30 6629 H 663.23 -4.10168 -0.784365 0
M  V30 6630 N 663.667 -0.670007 -1.42649 0
M  V30 6631 C 664.577 0.0114788 -2.34597 0
M  V30 6632 C 665.593 0.794055 -1.54825 0
M  V30 6633 O 666.769 0.737472 -1.87412 0
M  V30 6634 C 663.834 0.954436 -3.33304 0
M  V30 6635 C 662.895 0.166925 -4.28975 0
M  V30 6636 C 662.128 1.06497 -5.22967 0
M  V30 6637 O 662.351 2.30446 -5.21777 0
M  V30 6638 O 661.285 0.528347 -5.99577 0
M  V30 6639 H 665.111 -0.745794 -2.944 0
M  V30 6640 H 662.696 -0.430228 -1.43071 0
M  V30 6641 H 664.578 1.49589 -3.93956 0
M  V30 6642 H 663.253 1.69164 -2.7598 0
M  V30 6643 H 662.16 -0.418515 -3.71752 0
M  V30 6644 H 663.493 -0.531067 -4.89327 0
M  V30 6645 N 665.145 1.52092 -0.413018 0
M  V30 6646 C 666.108 2.25706 0.398687 0
M  V30 6647 C 667.108 1.28221 0.970368 0
M  V30 6648 O 668.298 1.52131 0.848635 0
M  V30 6649 C 665.43 3.03029 1.5616 0
M  V30 6650 H 666.623 2.98888 -0.246131 0
M  V30 6651 H 664.176 1.5542 -0.165622 0
M  V30 6652 H 664.911 2.34205 2.24317 0
M  V30 6653 H 664.696 3.74606 1.15812 0
M  V30 6654 H 666.186 3.58857 2.13569 0
M  V30 6655 N 666.623 0.143563 1.56945 0
M  V30 6656 C 667.533 -0.810562 2.20152 0
M  V30 6657 C 668.549 -1.27431 1.1848 0
M  V30 6658 O 669.725 -1.33221 1.51044 0
M  V30 6659 C 666.79 -2.03353 2.80799 0
M  V30 6660 C 665.851 -1.61936 3.97587 0
M  V30 6661 C 665.084 -2.78403 4.55332 0
M  V30 6662 O 665.307 -3.94521 4.11958 0
M  V30 6663 O 664.241 -2.54073 5.45647 0
M  V30 6664 H 668.067 -0.30253 3.02189 0
M  V30 6665 H 665.652 -0.0832925 1.49168 0
M  V30 6666 H 667.534 -2.74932 3.19359 0
M  V30 6667 H 666.209 -2.53116 2.01777 0
M  V30 6668 H 665.116 -0.873904 3.6375 0
M  V30 6669 H 666.449 -1.16892 4.78118 0
M  V30 6670 N 668.101 -1.57061 -0.130224 0
M  V30 6671 C 669.064 -1.98593 -1.14426 0
M  V30 6672 C 670.064 -0.874584 -1.34936 0
M  V30 6673 O 671.254 -1.14086 -1.31643 0
M  V30 6674 C 668.386 -2.31639 -2.50112 0
M  V30 6675 H 669.579 -2.89374 -0.787561 0
M  V30 6676 H 667.132 -1.51756 -0.374146 0
M  V30 6677 H 667.867 -1.43703 -2.90723 0
M  V30 6678 H 667.652 -3.12684 -2.36583 0
M  V30 6679 H 669.142 -2.64551 -3.23114 0
M  V30 6680 O 669.618 0.274706 -1.59147 0
M  V30 6681 H 670.309 0.920013 -1.70457 0
M  V30 END ATOM
M  V30 BEGIN BOND
M  V30 END BOND
M  V30 END CTAB
M  END
$$$$
