drugbank_target|Q9BXA5 Succinate receptor 1 (DB00139)
 OpenBabel12092120083D

  0  0  0     0  0            999 V3000
M  V30 BEGIN CTAB
M  V30 COUNTS 5537 5613 0 0 0
M  V30 BEGIN ATOM
M  V30 1 H -0.908 1.98254 -0.117106 0
M  V30 2 N 0 1.576 0 0
M  V30 3 C 0.933 2.03868 1.02534 0
M  V30 4 C 1.911 0.928543 1.3348 0
M  V30 5 O 3.095 1.19667 1.45644 0
M  V30 6 C 0.222 2.43627 2.35294 0
M  V30 7 C -0.732 3.65373 2.2001 0
M  V30 8 S 0.101 5.13292 1.52614 0
M  V30 9 C 1.257 5.56322 2.86805 0
M  V30 10 H 1.49 2.90518 0.631377 0
M  V30 11 H -0.977 1.52953 0.210867 0
M  V30 12 H 0.981 2.67203 3.11629 0
M  V30 13 H -0.358 1.57376 2.7183 0
M  V30 14 H -1.165 3.90944 3.18086 0
M  V30 15 H -1.563 3.418 1.51819 0
M  V30 16 H 0.729 5.58782 3.83104 0
M  V30 17 H 1.672 6.56266 2.65933 0
M  V30 18 H 2.08 4.83886 2.90714 0
M  V30 19 N 1.4781 -0.272755 1.55222 0
M  V30 20 C 2.4081 -1.34136 1.91127 0
M  V30 21 C 3.3891 -1.51513 0.773168 0
M  V30 22 O 4.5741 -1.64552 1.03132 0
M  V30 23 C 1.7041 -2.70083 2.1834 0
M  V30 24 C 0.6581 -2.67437 3.34158 0
M  V30 25 C -0.0159 -4.06938 3.46851 0
M  V30 26 C 1.2841 -2.26686 4.70543 0
M  V30 27 H 2.9781 -1.04333 2.80633 0
M  V30 28 H 0.5241 -0.500454 1.35024 0
M  V30 29 H 2.4771 -3.44952 2.42046 0
M  V30 30 H 1.2011 -3.01469 1.25634 0
M  V30 31 H -0.1399 -1.95026 3.1042 0
M  V30 32 H -0.4919 -4.35547 2.51611 0
M  V30 33 H -0.7919 -4.06062 4.2472 0
M  V30 34 H 0.7321 -4.83545 3.72849 0
M  V30 35 H 2.1461 -2.91277 4.93792 0
M  V30 36 H 0.5431 -2.36971 5.5133 0
M  V30 37 H 1.6131 -1.21818 4.69349 0
M  V30 38 N 2.9562 -1.48159 -0.537278 0
M  V30 39 C 4.2042 -1.55497 -1.29094 0
M  V30 40 C 4.5252 -0.227454 -1.93669 0
M  V30 41 O 3.7952 0.750386 -1.80959 0
M  V30 42 H 2.3752 -0.572832 -0.47945 0
M  V30 43 H 5.0372 -1.84579 -0.625818 0
M  V30 44 H 4.1332 -2.33216 -2.07405 0
M  V30 45 N 4.4343 0.785586 -1.36625 0
M  V30 46 C 5.6833 1.53883 -1.30396 0
M  V30 47 C 5.9963 1.95271 0.113452 0
M  V30 48 O 7.2023 2.69858 0.298142 0
M  V30 49 C 5.6583 2.77808 -2.28802 0
M  V30 50 C 5.2663 2.43574 -3.75999 0
M  V30 51 C 7.0103 3.55783 -2.31558 0
M  V30 52 C 4.9173 3.63919 -4.66173 0
M  V30 53 H 3.8473 0.577678 -0.484566 0
M  V30 54 H 6.4983 0.861705 -1.62009 0
M  V30 55 H 4.8803 3.47339 -1.90188 0
M  V30 56 H 6.0543 1.81916 -4.23371 0
M  V30 57 H 4.3693 1.78803 -3.76056 0
M  V30 58 H 6.9663 4.45205 -2.96137 0
M  V30 59 H 7.3093 3.94644 -1.3252 0
M  V30 60 H 7.8423 2.93235 -2.68809 0
M  V30 61 H 4.5813 3.3015 -5.66287 0
M  V30 62 H 4.1013 4.2473 -4.23515 0
M  V30 63 H 5.7803 4.30901 -4.82632 0
M  V30 64 N 5.9124 1.20967 1.01018 0
M  V30 65 C 6.8454 0.907578 2.09376 0
M  V30 66 C 7.8234 -0.142868 1.61971 0
M  V30 67 O 9.0074 -0.0150391 1.88494 0
M  V30 68 C 6.1344 0.361791 3.36762 0
M  V30 69 C 5.1804 1.39423 4.03068 0
M  V30 70 S 6.0134 2.96159 4.4615 0
M  V30 71 C 7.1694 2.43173 5.7673 0
M  V30 72 H 7.4024 1.82519 2.34678 0
M  V30 73 H 4.9354 1.03884 1.14225 0
M  V30 74 H 6.8934 0.0534523 4.10465 0
M  V30 75 H 5.5544 -0.53443 3.0952 0
M  V30 76 H 4.7474 0.961853 4.94737 0
M  V30 77 H 4.3494 1.65038 3.35617 0
M  V30 78 H 6.6414 1.83335 6.52223 0
M  V30 79 H 7.5844 3.33264 6.24773 0
M  V30 80 H 7.9924 1.85069 5.33301 0
M  V30 81 N 7.3905 -1.2043 1.01659 0
M  V30 82 C 8.3535 -2.21433 0.591616 0
M  V30 83 C 9.3535 -1.57203 -0.338226 0
M  V30 84 O 10.5435 -1.73737 -0.126918 0
M  V30 85 C 7.6755 -3.40628 -0.136058 0
M  V30 86 H 8.8685 -2.60545 1.48514 0
M  V30 87 H 6.4215 -1.33893 0.806379 0
M  V30 88 H 7.1565 -3.07019 -1.04449 0
M  V30 89 H 6.9415 -3.88475 0.531917 0
M  V30 90 H 8.4315 -4.15475 -0.420735 0
M  V30 91 N 8.8686 -0.792821 -1.36206 0
M  V30 92 C 10.1146 -0.376415 -1.99887 0
M  V30 93 C 10.4696 1.04127 -1.61788 0
M  V30 94 O 9.7626 1.71004 -0.864193 0
M  V30 95 C 9.9566 -0.481501 -3.54142 0
M  V30 96 C 9.7856 -1.90786 -4.07223 0
M  V30 97 C 8.5556 -2.53322 -4.37214 0
M  V30 98 C 10.7536 -2.87048 -4.26741 0
M  V30 99 N 8.7356 -3.8751 -4.7614 0
M  V30 100 C 10.1066 -4.06077 -4.6851 0
M  V30 101 C 12.1616 -2.8406 -4.08918 0
M  V30 102 C 10.8646 -5.22532 -4.94321 0
M  V30 103 C 12.8906 -3.99705 -4.35878 0
M  V30 104 C 12.2526 -5.1748 -4.77906 0
M  V30 105 H 8.3516 -0.185226 -0.759747 0
M  V30 106 H 10.9356 -1.03114 -1.65153 0
M  V30 107 H 9.1066 0.143154 -3.88136 0
M  V30 108 H 10.8386 -0.0410128 -4.04679 0
M  V30 109 H 7.5936 -2.04777 -4.2704 0
M  V30 110 H 8.0176 -4.5656 -4.99882 0
M  V30 111 H 12.6596 -1.94165 -3.75579 0
M  V30 112 H 10.3776 -6.1301 -5.2654 0
M  V30 113 H 13.9636 -3.98758 -4.23655 0
M  V30 114 H 12.8436 -6.05478 -4.98363 0
M  V30 115 N 10.3467 1.47872 -0.545128 0
M  V30 116 C 11.2947 2.31533 0.222512 0
M  V30 117 C 12.2887 1.42177 0.920985 0
M  V30 118 O 13.4947 1.59005 0.843645 0
M  V30 119 H 9.8697 0.746519 0.0906278 0
M  V30 120 H 11.8407 2.94139 -0.50246 0
M  V30 121 C 10.5897 3.2457 1.24699 0
M  V30 122 H 9.9127 3.93283 0.718944 0
M  V30 123 H 11.3527 3.85963 1.75523 0
M  V30 124 C 9.8117 2.47237 2.28856 0
M  V30 125 O 10.3417 2.20808 3.35569 0
M  V30 126 N 8.5477 2.08461 2.02466 0
M  V30 127 H 8.0947 2.30155 1.157 0
M  V30 128 H 8.0527 1.57033 2.72375 0
M  V30 129 N 11.8248 0.280983 1.55075 0
M  V30 130 C 12.7878 -0.590896 2.21452 0
M  V30 131 C 13.7878 -1.07682 1.19421 0
M  V30 132 O 14.9778 -0.97605 1.44288 0
M  V30 133 C 12.1098 -1.81587 2.88511 0
M  V30 134 H 13.3028 -0.0112554 2.99898 0
M  V30 135 H 10.8558 0.0316438 1.56268 0
M  V30 136 H 11.5908 -2.43587 2.14093 0
M  V30 137 H 11.3758 -1.4753 3.63287 0
M  V30 138 H 12.8658 -2.43575 3.39206 0
M  V30 139 N 13.3029 -1.57598 0.00835791 0
M  V30 140 C 14.5309 -1.95214 -0.68549 0
M  V30 141 C 14.9459 -0.883706 -1.66841 0
M  V30 142 O 14.3029 0.136565 -1.81988 0
M  V30 143 C 14.3539 -3.32865 -1.41007 0
M  V30 144 O 14.0749 -4.35609 -0.466552 0
M  V30 145 C 15.5759 -3.84991 -2.19765 0
M  V30 146 H 12.7959 -0.643422 -0.190392 0
M  V30 147 H 15.3399 -2.04406 0.0619607 0
M  V30 148 H 13.4949 -3.24956 -2.10908 0
M  V30 149 H 13.9089 -5.15288 -0.978699 0
M  V30 150 H 15.3829 -4.8371 -2.65948 0
M  V30 151 H 15.8599 -3.18137 -3.02796 0
M  V30 152 H 16.4659 -3.96103 -1.54864 0
M  V30 153 N 14.781 0.264519 -1.55364 0
M  V30 154 C 16.021 1.00254 -1.78125 0
M  V30 155 C 16.385 1.83187 -0.575017 0
M  V30 156 O 17.586 2.60029 -0.681042 0
M  V30 157 C 15.857 1.85478 -3.05504 0
M  V30 158 S 17.416 2.6543 -3.49417 0
M  V30 159 H 14.234 0.337522 -0.625779 0
M  V30 160 H 16.836 0.272111 -1.93597 0
M  V30 161 H 15.54 1.23491 -3.9138 0
M  V30 162 H 15.071 2.62827 -2.92721 0
M  V30 163 H 17.086 3.87958 -3.09359 0
M  V30 164 N 16.2591 1.48442 0.529413 0
M  V30 165 C 17.2061 1.63007 1.63394 0
M  V30 166 C 18.1761 0.47212 1.59249 0
M  V30 167 O 19.3611 0.695673 1.77666 0
M  V30 168 C 16.5011 1.6763 3.01653 0
M  V30 169 C 15.6141 2.94535 3.16027 0
M  V30 170 C 14.7491 2.90316 4.44849 0
M  V30 171 C 13.7881 4.11923 4.52754 0
M  V30 172 N 12.9251 4.05777 5.72965 0
M  V30 173 H 17.7651 2.5733 1.50285 0
M  V30 174 H 15.3021 1.27613 0.731656 0
M  V30 175 H 17.2601 1.68292 3.81751 0
M  V30 176 H 15.8901 0.76797 3.13532 0
M  V30 177 H 14.9421 3.03615 2.29177 0
M  V30 178 H 16.2541 3.84512 3.17729 0
M  V30 179 H 15.4081 2.89382 5.33238 0
M  V30 180 H 14.1471 1.98068 4.45668 0
M  V30 181 H 13.1521 4.13131 3.62771 0
M  V30 182 H 14.3771 5.0533 4.53672 0
M  V30 183 H 12.3231 3.16351 5.74681 0
M  V30 184 H 12.2401 4.8946 5.76164 0
M  V30 185 H 13.5081 4.08904 6.6364 0
M  V30 186 N 17.7372 -0.778329 1.37039 0
M  V30 187 C 18.6852 -1.91278 1.32345 0
M  V30 188 C 19.6792 -1.68051 0.213331 0
M  V30 189 O 20.8852 -1.75922 0.38098 0
M  V30 190 H 17.2602 -0.628909 0.412283 0
M  V30 191 H 19.2312 -1.92355 2.28127 0
M  V30 192 C 17.9802 -3.28455 1.14073 0
M  V30 193 H 17.3032 -3.46901 1.98746 0
M  V30 194 H 18.7432 -4.08152 1.14837 0
M  V30 195 C 17.2022 -3.36548 -0.154015 0
M  V30 196 O 17.7322 -3.85186 -1.13993 0
M  V30 197 N 15.9382 -2.89894 -0.202475 0
M  V30 198 H 15.4852 -2.50504 0.600476 0
M  V30 199 H 15.4432 -2.9569 -1.06841 0
M  V30 200 N 19.2153 -1.21501 -1.00376 0
M  V30 201 C 20.4613 -1.04457 -1.74529 0
M  V30 202 C 20.8163 0.417386 -1.87818 0
M  V30 203 O 20.1093 1.30556 -1.40234 0
M  V30 204 C 20.3033 -1.67673 -3.15627 0
M  V30 205 C 20.1323 -3.19865 -3.16096 0
M  V30 206 C 18.9023 -3.88915 -3.22604 0
M  V30 207 C 21.1003 -4.16936 -3.01112 0
M  V30 208 N 19.0823 -5.28284 -3.12712 0
M  V30 209 C 20.4533 -5.43066 -2.99131 0
M  V30 210 C 22.5083 -4.07968 -2.85423 0
M  V30 211 C 21.2113 -6.6126 -2.83068 0
M  V30 212 C 23.2373 -5.258 -2.70718 0
M  V30 213 C 22.5993 -6.50842 -2.69414 0
M  V30 214 H 18.6983 -0.436584 -0.648782 0
M  V30 215 H 21.2823 -1.53875 -1.19293 0
M  V30 216 H 19.4533 -1.20822 -3.6913 0
M  V30 217 H 21.1853 -1.43824 -3.78281 0
M  V30 218 H 17.9403 -3.39847 -3.2985 0
M  V30 219 H 18.3643 -6.01284 -3.11105 0
M  V30 220 H 23.0063 -3.1209 -2.85236 0
M  V30 221 H 20.7243 -7.57298 -2.82002 0
M  V30 222 H 24.3103 -5.20683 -2.59577 0
M  V30 223 H 23.1903 -7.40485 -2.5817 0
M  V30 224 N 20.6934 1.19889 -1.02296 0
M  V30 225 C 21.6234 2.25141 -0.619174 0
M  V30 226 C 22.6044 1.66051 0.368915 0
M  V30 227 O 23.7894 1.92546 0.252941 0
M  V30 228 C 20.9194 3.4728 0.0368783 0
M  V30 229 C 19.8734 4.19005 -0.872865 0
M  V30 230 C 19.1994 5.34637 -0.0822402 0
M  V30 231 C 20.4994 4.74452 -2.18387 0
M  V30 232 H 22.1934 2.59171 -1.49903 0
M  V30 233 H 19.7394 1.24579 -0.722222 0
M  V30 234 H 21.6924 4.20098 0.330958 0
M  V30 235 H 20.4164 3.12433 0.95149 0
M  V30 236 H 19.0754 3.48061 -1.15105 0
M  V30 237 H 18.7234 4.96034 0.83422 0
M  V30 238 H 18.4234 5.83557 -0.688149 0
M  V30 239 H 19.9474 6.10255 0.205238 0
M  V30 240 H 21.3614 5.39055 -1.95172 0
M  V30 241 H 19.7584 5.33834 -2.74119 0
M  V30 242 H 20.8284 3.92844 -2.84257 0
M  V30 243 N 22.1715 0.800033 1.35784 0
M  V30 244 C 23.1345 0.211565 2.28221 0
M  V30 245 C 24.1345 -0.59728 1.49296 0
M  V30 246 O 25.3245 -0.416721 1.69142 0
M  V30 247 C 22.4565 -0.705846 3.33513 0
M  V30 248 H 23.6495 1.02677 2.81776 0
M  V30 249 H 21.2025 0.570211 1.45528 0
M  V30 250 H 21.9375 -1.54498 2.85133 0
M  V30 251 H 21.7225 -0.127655 3.91892 0
M  V30 252 H 23.2125 -1.11211 4.02519 0
M  V30 253 N 23.6496 -1.47581 0.552962 0
M  V30 254 C 24.6126 -2.28439 -0.186605 0
M  V30 255 C 25.6126 -1.36706 -0.84665 0
M  V30 256 O 26.8026 -1.59378 -0.703164 0
M  V30 257 C 23.9346 -3.16264 -1.2724 0
M  V30 258 H 25.1276 -2.95294 0.523609 0
M  V30 259 H 22.6806 -1.532 0.309745 0
M  V30 260 H 23.4156 -2.54091 -2.01514 0
M  V30 261 H 23.2006 -3.83769 -0.803968 0
M  V30 262 H 24.6906 -3.77198 -1.79196 0
M  V30 263 N 25.1277 -0.289203 -1.54924 0
M  V30 264 C 26.0377 0.601863 -2.26748 0
M  V30 265 C 27.0537 1.15834 -1.2984 0
M  V30 266 O 28.2297 1.18564 -1.62802 0
M  V30 267 C 25.2947 1.76299 -2.98529 0
M  V30 268 C 24.3557 1.24178 -4.10948 0
M  V30 269 C 23.5887 2.34757 -4.79296 0
M  V30 270 O 23.8117 3.54411 -4.46933 0
M  V30 271 O 22.7457 2.02115 -5.66951 0
M  V30 272 H 26.5717 0.0195879 -3.03694 0
M  V30 273 H 24.1567 -0.0560868 -1.49295 0
M  V30 274 H 26.0387 2.43973 -3.43592 0
M  V30 275 H 24.7137 2.33209 -2.24488 0
M  V30 276 H 23.6207 0.531104 -3.70311 0
M  V30 277 H 24.9537 0.718252 -4.86931 0
M  V30 278 N 26.6058 1.57591 -0.0167156 0
M  V30 279 C 27.5688 2.08393 0.954204 0
M  V30 280 C 28.5688 0.996531 1.26198 0
M  V30 281 O 29.7588 1.25858 1.20438 0
M  V30 282 C 26.8908 2.5394 2.27436 0
M  V30 283 H 28.0838 2.95455 0.514451 0
M  V30 284 H 25.6368 1.54582 0.231089 0
M  V30 285 H 26.3718 1.70171 2.76066 0
M  V30 286 H 26.1568 3.33371 2.06412 0
M  V30 287 H 27.6468 2.93512 2.97053 0
M  V30 288 N 28.0839 -0.256276 1.55502 0
M  V30 289 C 29.0469 -1.30047 1.88734 0
M  V30 290 C 30.0469 -1.4154 0.763086 0
M  V30 291 O 31.2369 -1.40403 1.03115 0
M  V30 292 C 28.3689 -2.67953 2.10747 0
M  V30 293 H 29.5619 -1.01802 2.82093 0
M  V30 294 H 27.1149 -0.495134 1.4825 0
M  V30 295 H 27.8499 -3.01351 1.19825 0
M  V30 296 H 27.6349 -2.60993 2.92617 0
M  V30 297 H 29.1249 -3.43368 2.37673 0
M  V30 298 N 29.562 -1.4872 -0.521534 0
M  V30 299 C 30.492 -1.66771 -1.63431 0
M  V30 300 C 31.473 -0.516499 -1.62069 0
M  V30 301 O 32.658 -0.750013 -1.79132 0
M  V30 302 C 29.788 -1.71515 -3.01993 0
M  V30 303 C 28.742 -2.86222 -3.18216 0
M  V30 304 C 28.068 -2.76061 -4.57924 0
M  V30 305 C 29.368 -4.27419 -3.00184 0
M  V30 306 H 31.062 -2.59932 -1.48579 0
M  V30 307 H 28.608 -1.25089 -0.713358 0
M  V30 308 H 30.561 -1.82731 -3.7972 0
M  V30 309 H 29.285 -0.749393 -3.17886 0
M  V30 310 H 27.944 -2.74575 -2.42908 0
M  V30 311 H 27.592 -1.77437 -4.70665 0
M  V30 312 H 27.292 -3.53037 -4.69722 0
M  V30 313 H 28.816 -2.89256 -5.37739 0
M  V30 314 H 30.23 -4.39855 -3.67697 0
M  V30 315 H 28.627 -5.05458 -3.2347 0
M  V30 316 H 29.697 -4.43293 -1.96518 0
M  V30 317 N 31.0401 0.771051 -1.3745 0
M  V30 318 C 31.9501 1.91538 -1.35464 0
M  V30 319 C 32.9661 1.72134 -0.254123 0
M  V30 320 O 34.1421 1.95358 -0.489626 0
M  V30 321 C 31.2071 3.26671 -1.16134 0
M  V30 322 C 30.2681 3.58723 -2.35831 0
M  V30 323 C 29.5011 4.87409 -2.17413 0
M  V30 324 O 29.7241 5.58506 -1.15876 0
M  V30 325 O 28.6581 5.18539 -3.05615 0
M  V30 326 H 32.4841 1.96165 -2.31847 0
M  V30 327 H 30.0691 0.9139 -1.18187 0
M  V30 328 H 31.9511 4.07499 -1.07345 0
M  V30 329 H 30.6261 3.22894 -0.228251 0
M  V30 330 H 29.5331 2.78127 -2.50192 0
M  V30 331 H 30.8661 3.67243 -3.27709 0
M  V30 332 N 32.5182 1.22032 0.997298 0
M  V30 333 C 33.4652 0.986467 2.08656 0
M  V30 334 C 34.4352 -0.0902671 1.65855 0
M  V30 335 O 35.6202 0.0584294 1.90711 0
M  V30 336 C 32.7602 0.565569 3.40434 0
M  V30 337 C 31.8732 1.71259 3.96604 0
M  V30 338 C 31.0082 1.24011 5.16522 0
M  V30 339 C 30.0472 2.35896 5.64818 0
M  V30 340 N 29.1842 1.89726 6.7598 0
M  V30 341 H 34.0242 1.91892 2.27994 0
M  V30 342 H 31.5612 0.956199 1.11782 0
M  V30 343 H 33.5192 0.302738 4.161 0
M  V30 344 H 32.1492 -0.329879 3.2111 0
M  V30 345 H 31.2012 2.08986 3.17851 0
M  V30 346 H 32.5132 2.55436 4.28432 0
M  V30 347 H 31.6672 0.934395 5.99461 0
M  V30 348 H 30.4062 0.368487 4.86306 0
M  V30 349 H 29.4112 2.67261 4.8047 0
M  V30 350 H 30.6362 3.23567 5.97061 0
M  V30 351 H 28.5822 1.0492 6.47555 0
M  V30 352 H 28.4992 2.67471 7.07103 0
M  V30 353 H 29.7672 1.62211 7.62435 0
M  V30 354 N 33.9963 -1.19345 1.0293 0
M  V30 355 C 35.2263 -1.92717 0.744563 0
M  V30 356 C 35.6343 -1.75751 -0.700579 0
M  V30 357 O 34.9773 -1.07703 -1.48815 0
M  V30 358 C 35.0393 -3.44828 1.01657 0
M  V30 359 C 34.7033 -3.85564 2.45335 0
M  V30 360 C 35.7003 -3.90286 3.43472 0
M  V30 361 C 33.3853 -4.1719 2.79746 0
M  V30 362 C 35.3793 -4.26065 4.74075 0
M  V30 363 C 33.0663 -4.52642 4.10559 0
M  V30 364 C 34.0643 -4.57054 5.07534 0
M  V30 365 O 33.7523 -4.91685 6.36004 0
M  V30 366 H 33.4843 -0.618977 0.271742 0
M  V30 367 H 36.0383 -1.52415 1.37691 0
M  V30 368 H 34.2683 -3.85314 0.327084 0
M  V30 369 H 35.9573 -3.99437 0.721427 0
M  V30 370 H 36.7233 -3.66002 3.18225 0
M  V30 371 H 32.6023 -4.1294 2.04943 0
M  V30 372 H 36.1463 -4.29423 5.49765 0
M  V30 373 H 32.0433 -4.76383 4.35579 0
M  V30 374 H 32.8113 -5.09631 6.40483 0
M  V30 375 N 35.4744 -0.807222 -1.35358 0
M  V30 376 C 36.7044 -0.399796 -2.02695 0
M  V30 377 C 37.1124 0.994176 -1.60974 0
M  V30 378 O 36.4554 1.65209 -0.803226 0
M  V30 379 C 36.5174 -0.404445 -3.57218 0
M  V30 380 C 36.1814 -1.74904 -4.22206 0
M  V30 381 C 37.1784 -2.70743 -4.4384 0
M  V30 382 C 34.8634 -2.03322 -4.5931 0
M  V30 383 C 36.8574 -3.93183 -5.01683 0
M  V30 384 C 34.5444 -3.26026 -5.16866 0
M  V30 385 C 35.5424 -4.20774 -5.37994 0
M  V30 386 O 35.2304 -5.41312 -5.94337 0
M  V30 387 H 34.9624 -0.160517 -0.656666 0
M  V30 388 H 37.5164 -1.09235 -1.73945 0
M  V30 389 H 35.7464 0.344707 -3.85161 0
M  V30 390 H 37.4354 -0.0192429 -4.05895 0
M  V30 391 H 38.2014 -2.5008 -4.15554 0
M  V30 392 H 34.0804 -1.30384 -4.42178 0
M  V30 393 H 37.6244 -4.6715 -5.1809 0
M  V30 394 H 33.5214 -3.46559 -5.44579 0
M  V30 395 H 34.2894 -5.42618 -6.12787 0
M  V30 396 N 36.9525 1.47285 -0.560781 0
M  V30 397 C 37.8825 2.32857 0.173105 0
M  V30 398 C 38.8635 1.44009 0.905281 0
M  V30 399 O 40.0485 1.7286 0.885046 0
M  V30 400 C 37.1785 3.25861 1.20133 0
M  V30 401 C 36.1325 4.23978 0.585388 0
M  V30 402 C 35.4585 5.06332 1.7185 0
M  V30 403 C 36.7585 5.20242 -0.463178 0
M  V30 404 H 38.4525 2.94466 -0.541307 0
M  V30 405 H 35.9985 1.41601 -0.261764 0
M  V30 406 H 37.9515 3.84569 1.72293 0
M  V30 407 H 36.6755 2.62315 1.94573 0
M  V30 408 H 35.3345 3.66501 0.085054 0
M  V30 409 H 34.9825 4.39186 2.45203 0
M  V30 410 H 34.6825 5.72762 1.31213 0
M  V30 411 H 36.2065 5.67899 2.24329 0
M  V30 412 H 37.6205 5.73293 -0.027502 0
M  V30 413 H 36.0175 5.94896 -0.788627 0
M  V30 414 H 37.0875 4.65504 -1.35773 0
M  V30 415 N 38.4306 0.297415 1.54768 0
M  V30 416 C 39.6556 -0.318435 2.04941 0
M  V30 417 C 40.0806 -1.4701 1.17345 0
M  V30 418 O 39.4386 -1.80436 0.176758 0
M  V30 419 C 39.4866 -0.755749 3.52592 0
M  V30 420 O 38.5906 -1.86088 3.68028 0
M  V30 421 H 37.9316 -0.062421 0.661059 0
M  V30 422 H 40.4616 0.438215 1.99852 0
M  V30 423 H 40.4716 -1.04552 3.94376 0
M  V30 424 H 39.1466 0.0867233 4.1581 0
M  V30 425 H 37.7236 -1.57193 3.38149 0
M  V30 426 N 39.9087 -1.5758 0.0250728 0
M  V30 427 C 41.1577 -1.90811 -0.653767 0
M  V30 428 C 41.4707 -0.90273 -1.73523 0
M  V30 429 O 42.6767 -1.12614 -2.47043 0
M  V30 430 C 41.1327 -3.38804 -1.21409 0
M  V30 431 C 40.7407 -4.47692 -0.166126 0
M  V30 432 C 42.4847 -3.81108 -1.86967 0
M  V30 433 C 40.3917 -5.86779 -0.737856 0
M  V30 434 H 39.3217 -0.712063 -0.247956 0
M  V30 435 H 41.9727 -1.83281 0.0897137 0
M  V30 436 H 40.3547 -3.41252 -2.00905 0
M  V30 437 H 41.5287 -4.56797 0.606079 0
M  V30 438 H 39.8437 -4.14565 0.390466 0
M  V30 439 H 42.4407 -4.82375 -2.30692 0
M  V30 440 H 42.7837 -3.15953 -2.71071 0
M  V30 441 H 43.3167 -3.81065 -1.14167 0
M  V30 442 H 40.0557 -6.55468 0.0649577 0
M  V30 443 H 39.5757 -5.81288 -1.47864 0
M  V30 444 H 41.2547 -6.35223 -1.22884 0
M  V30 445 N 41.3868 0.248026 -1.55636 0
M  V30 446 C 42.6338 0.976224 -1.77415 0
M  V30 447 C 42.9618 1.85361 -0.589193 0
M  V30 448 O 42.2168 1.90973 0.427529 0
M  V30 449 C 42.5158 1.86819 -3.04686 0
M  V30 450 C 42.1818 1.14625 -4.36087 0
M  V30 451 C 40.8438 0.946723 -4.71795 0
M  V30 452 C 43.1958 0.634463 -5.17324 0
M  V30 453 C 40.5238 0.223091 -5.86276 0
M  V30 454 C 42.8758 -0.0756959 -6.32555 0
M  V30 455 C 41.5398 -0.286711 -6.66884 0
M  V30 456 H 40.8098 0.357226 -0.649208 0
M  V30 457 H 43.4568 0.246415 -1.89908 0
M  V30 458 H 41.7618 2.66502 -2.872 0
M  V30 459 H 43.4588 2.43329 -3.18735 0
M  V30 460 H 40.0488 1.3117 -4.08035 0
M  V30 461 H 44.2328 0.77616 -4.90193 0
M  V30 462 H 39.4888 0.0491185 -6.1138 0
M  V30 463 H 43.6628 -0.479899 -6.94745 0
M  V30 464 H 41.2898 -0.849389 -7.5544 0
M  V30 465 N 42.8649 1.48995 0.513639 0
M  V30 466 C 44.0949 1.61297 1.291 0
M  V30 467 C 44.5029 0.278656 1.87137 0
M  V30 468 O 43.8459 -0.744325 1.67945 0
M  V30 469 C 43.9079 2.61326 2.46879 0
M  V30 470 C 43.5719 4.05993 2.09807 0
M  V30 471 C 44.5689 4.93183 1.64519 0
M  V30 472 C 42.2539 4.51642 2.19829 0
M  V30 473 C 44.2479 6.24056 1.2974 0
M  V30 474 C 41.9349 5.82532 1.84662 0
M  V30 475 C 42.9329 6.68562 1.3969 0
M  V30 476 O 42.6209 7.97014 1.04992 0
M  V30 477 H 42.3529 0.546236 0.39825 0
M  V30 478 H 44.9069 1.95673 0.62459 0
M  V30 479 H 43.1369 2.22104 3.16554 0
M  V30 480 H 44.8259 2.6329 3.08923 0
M  V30 481 H 45.5919 4.59147 1.56233 0
M  V30 482 H 41.4709 3.84855 2.53786 0
M  V30 483 H 45.0149 6.91161 0.945659 0
M  V30 484 H 40.9119 6.16099 1.92594 0
M  V30 485 H 41.6799 8.09913 1.18249 0
M  V30 486 N 44.343 -0.763751 1.37857 0
M  V30 487 C 45.591 -1.51957 1.33243 0
M  V30 488 C 45.912 -1.94835 -0.0801709 0
M  V30 489 O 45.182 -1.66894 -1.02582 0
M  V30 490 H 43.762 -0.563626 0.49024 0
M  V30 491 H 46.424 -0.908504 1.7243 0
M  V30 492 H 45.52 -2.41523 1.97669 0
M  V30 493 N 45.8211 -1.22559 -0.990812 0
M  V30 494 C 47.0701 -1.04553 -1.72486 0
M  V30 495 C 47.3831 0.419349 -1.91052 0
M  V30 496 O 48.5891 0.719121 -2.61803 0
M  V30 497 C 47.0451 -1.82231 -3.10355 0
M  V30 498 C 46.6531 -3.32981 -2.99713 0
M  V30 499 C 48.3971 -1.7268 -3.87791 0
M  V30 500 C 46.3041 -4.03091 -4.32748 0
M  V30 501 H 45.2341 -0.387614 -0.646739 0
M  V30 502 H 47.8851 -1.46429 -1.10593 0
M  V30 503 H 46.2671 -1.33155 -3.72942 0
M  V30 504 H 47.4411 -3.89466 -2.46278 0
M  V30 505 H 45.7561 -3.43231 -2.35758 0
M  V30 506 H 48.3531 -2.22381 -4.86262 0
M  V30 507 H 48.6961 -0.687607 -4.10582 0
M  V30 508 H 49.2291 -2.1931 -3.31885 0
M  V30 509 H 45.9681 -5.07273 -4.15156 0
M  V30 510 H 45.4881 -3.51394 -4.86089 0
M  V30 511 H 47.1671 -4.08804 -5.01486 0
M  V30 512 N 47.2992 1.18797 -1.03562 0
M  V30 513 C 48.2092 2.25913 -0.632505 0
M  V30 514 C 49.2252 1.70668 0.338882 0
M  V30 515 O 50.4012 2.00453 0.195076 0
M  V30 516 C 47.4662 3.467 0.00350942 0
M  V30 517 C 46.5272 4.17098 -1.01624 0
M  V30 518 C 45.7602 5.32119 -0.410478 0
M  V30 519 O 45.9832 5.64976 0.784725 0
M  V30 520 O 44.9172 5.9107 -1.13667 0
M  V30 521 H 48.7432 2.62648 -1.52478 0
M  V30 522 H 46.3282 1.25781 -0.806195 0
M  V30 523 H 48.2102 4.19878 0.35781 0
M  V30 524 H 46.8852 3.11798 0.869686 0
M  V30 525 H 45.7922 3.4601 -1.42224 0
M  V30 526 H 47.1252 4.55987 -1.85301 0
M  V30 527 N 48.7773 0.814389 1.34928 0
M  V30 528 C 50.0243 0.398423 1.98542 0
M  V30 529 C 50.3523 -1.03638 1.64589 0
M  V30 530 O 49.6073 -1.73509 0.90516 0
M  V30 531 C 49.9063 0.537781 3.53331 0
M  V30 532 C 49.5723 1.93704 4.07172 0
M  V30 533 C 48.2343 2.31984 4.21589 0
M  V30 534 C 50.5863 2.85213 4.36237 0
M  V30 535 C 47.9143 3.61125 4.62391 0
M  V30 536 C 50.2663 4.13809 4.78482 0
M  V30 537 C 48.9303 4.52077 4.91104 0
M  V30 538 H 48.2003 0.145793 0.726516 0
M  V30 539 H 50.8473 1.03669 1.61012 0
M  V30 540 H 49.1523 -0.183906 3.91368 0
M  V30 541 H 50.8493 0.196588 4.00518 0
M  V30 542 H 47.4393 1.62966 3.96409 0
M  V30 543 H 51.6233 2.56885 4.24645 0
M  V30 544 H 46.8793 3.90612 4.70353 0
M  V30 545 H 51.0533 4.84811 4.99932 0
M  V30 546 H 48.6803 5.52196 5.22478 0
M  V30 547 N 50.2554 -1.46986 0.568584 0
M  V30 548 C 51.5014 -2.02741 0.0488709 0
M  V30 549 C 51.8344 -1.44077 -1.30214 0
M  V30 550 O 51.1094 -0.600552 -1.84996 0
M  V30 551 C 51.3924 -3.60086 -0.032047 0
M  V30 552 C 51.2454 -4.29162 1.34686 0
M  V30 553 C 52.5644 -4.33838 -0.739798 0
M  V30 554 H 49.6834 -0.736749 0.0192338 0
M  V30 555 H 52.3254 -1.75289 0.733065 0
M  V30 556 H 50.4754 -3.83606 -0.61473 0
M  V30 557 H 52.1474 -4.16948 1.97362 0
M  V30 558 H 50.3904 -3.89073 1.91846 0
M  V30 559 H 51.0614 -5.37826 1.24285 0
M  V30 560 H 53.5374 -4.15378 -0.244939 0
M  V30 561 H 52.4134 -5.43537 -0.765406 0
M  V30 562 H 52.6744 -4.03875 -1.79827 0
M  V30 563 N 51.7335 -0.305618 -1.54608 0
M  V30 564 C 52.9795 0.302746 -2.00528 0
M  V30 565 C 53.3125 1.53184 -1.19367 0
M  V30 566 O 52.5875 1.92598 -0.271321 0
M  V30 567 C 52.8705 0.654756 -3.54097 0
M  V30 568 C 52.7235 -0.583793 -4.45995 0
M  V30 569 C 54.0425 1.47947 -4.14487 0
M  V30 570 H 51.1615 0.108564 -0.72896 0
M  V30 571 H 53.8035 -0.418634 -1.85331 0
M  V30 572 H 51.9535 1.26935 -3.67178 0
M  V30 573 H 53.6255 -1.22224 -4.44814 0
M  V30 574 H 51.8685 -1.21615 -4.16404 0
M  V30 575 H 52.5395 -0.293287 -5.5122 0
M  V30 576 H 55.0155 0.96013 -4.04871 0
M  V30 577 H 53.8915 1.69454 -5.22088 0
M  V30 578 H 54.1525 2.47011 -3.66658 0
M  V30 579 N 53.2116 1.57565 -0.0334293 0
M  V30 580 C 54.4596 1.91598 0.642999 0
M  V30 581 C 54.7806 0.910847 1.7242 0
M  V30 582 O 54.0506 -0.0469931 1.95844 0
M  V30 583 H 52.6306 0.707228 0.240496 0
M  V30 584 H 55.2926 1.94726 -0.0822488 0
M  V30 585 H 54.3886 2.92336 1.09298 0
M  V30 586 N 54.6897 -0.239769 1.55765 0
M  V30 587 C 55.9357 -0.968234 1.78194 0
M  V30 588 C 56.2687 -1.84701 0.599938 0
M  V30 589 O 55.5437 -1.9031 -0.401524 0
M  V30 590 C 55.8267 -1.8227 3.10564 0
M  V30 591 C 55.6797 -0.971633 4.3918 0
M  V30 592 C 56.9987 -2.80388 3.39221 0
M  V30 593 H 54.1177 -0.350572 0.648281 0
M  V30 594 H 56.7597 -0.238259 1.885 0
M  V30 595 H 54.9097 -2.44507 3.01908 0
M  V30 596 H 56.5817 -0.367408 4.59835 0
M  V30 597 H 54.8247 -0.276276 4.32919 0
M  V30 598 H 55.4957 -1.60346 5.28198 0
M  V30 599 H 57.9717 -2.28287 3.47885 0
M  V30 600 H 56.8477 -3.3729 4.33044 0
M  V30 601 H 57.1087 -3.57212 2.60484 0
M  V30 602 N 56.1678 -1.49265 -0.50573 0
M  V30 603 C 57.0978 -1.68495 -1.61653 0
M  V30 604 C 58.0788 -0.53366 -1.61512 0
M  V30 605 O 59.2638 -0.76897 -1.78327 0
M  V30 606 C 56.3938 -1.74709 -3.00157 0
M  V30 607 C 55.3478 -2.89581 -3.15162 0
M  V30 608 C 54.6738 -2.80903 -4.5497 0
M  V30 609 C 55.9738 -4.30578 -2.95634 0
M  V30 610 H 57.6678 -2.61493 -1.45814 0
M  V30 611 H 55.2138 -1.25838 -0.70005 0
M  V30 612 H 57.1668 -1.86748 -3.77761 0
M  V30 613 H 55.8908 -0.783067 -3.17074 0
M  V30 614 H 54.5498 -2.77136 -2.39982 0
M  V30 615 H 54.1978 -1.82419 -4.68756 0
M  V30 616 H 53.8978 -3.57999 -4.65951 0
M  V30 617 H 55.4218 -2.94944 -5.34641 0
M  V30 618 H 56.8358 -4.4373 -3.63011 0
M  V30 619 H 55.2328 -5.0886 -3.18091 0
M  V30 620 H 56.3028 -4.45352 -1.91806 0
M  V30 621 N 57.6459 0.756429 -1.3826 0
M  V30 622 C 58.8939 1.51248 -1.34047 0
M  V30 623 C 59.2149 1.94875 0.0698372 0
M  V30 624 O 58.4849 1.67436 1.01696 0
M  V30 625 H 57.0649 0.561018 -0.493222 0
M  V30 626 H 59.7269 0.899347 -1.7291 0
M  V30 627 H 58.8229 2.40472 -1.98947 0
M  V30 628 N 59.124 1.23083 0.984299 0
M  V30 629 C 60.072 1.00593 2.09723 0
M  V30 630 C 61.066 -0.0538014 1.69315 0
M  V30 631 O 62.272 0.0993719 1.79725 0
M  V30 632 H 58.647 0.30817 0.685956 0
M  V30 633 H 60.618 1.95012 2.2586 0
M  V30 634 C 59.367 0.609601 3.42314 0
M  V30 635 H 58.69 1.41675 3.73856 0
M  V30 636 H 60.13 0.491726 4.21139 0
M  V30 637 C 58.589 -0.681745 3.2993 0
M  V30 638 O 59.119 -1.73192 3.62446 0
M  V30 639 N 57.325 -0.656178 2.83095 0
M  V30 640 H 56.872 0.198759 2.56832 0
M  V30 641 H 56.83 -1.52044 2.75191 0
M  V30 642 N 60.6021 -1.18246 1.0419 0
M  V30 643 C 61.8301 -1.92195 0.766072 0
M  V30 644 C 62.2451 -1.76247 -0.676933 0
M  V30 645 O 61.6021 -1.09293 -1.46155 0
M  V30 646 C 61.6531 -3.43568 1.12442 0
M  V30 647 O 61.3741 -3.59015 2.51078 0
M  V30 648 C 62.8751 -4.34613 0.873275 0
M  V30 649 H 60.0951 -0.610114 0.279288 0
M  V30 650 H 62.6391 -1.50007 1.38989 0
M  V30 651 H 60.7941 -3.8354 0.545542 0
M  V30 652 H 61.2081 -4.5273 2.64831 0
M  V30 653 H 62.6821 -5.39374 1.17385 0
M  V30 654 H 63.1591 -4.38781 -0.191909 0
M  V30 655 H 63.7651 -4.00341 1.43551 0
M  V30 656 N 62.0802 -0.821533 -1.34494 0
M  V30 657 C 63.3292 -0.405355 -1.97585 0
M  V30 658 C 63.6422 1.03677 -1.65863 0
M  V30 659 O 64.8482 1.55679 -2.22433 0
M  V30 660 C 63.3042 -0.673861 -3.53535 0
M  V30 661 C 62.9122 -2.12951 -3.94152 0
M  V30 662 C 64.6562 -0.32378 -4.23263 0
M  V30 663 C 62.5632 -2.34298 -5.43009 0
M  V30 664 H 61.4932 -0.147836 -0.739365 0
M  V30 665 H 64.1442 -1.00769 -1.53355 0
M  V30 666 H 62.5262 -0.00137554 -3.96 0
M  V30 667 H 63.7002 -2.84104 -3.62797 0
M  V30 668 H 62.0152 -2.44089 -3.37356 0
M  V30 669 H 64.6122 -0.461126 -5.32708 0
M  V30 670 H 64.9552 0.731586 -4.09821 0
M  V30 671 H 65.4882 -0.950786 -3.8627 0
M  V30 672 H 62.2272 -3.38335 -5.61435 0
M  V30 673 H 61.7472 -1.67687 -5.75883 0
M  V30 674 H 63.4262 -2.16588 -6.09671 0
M  V30 675 N 63.5583 1.46682 -0.576371 0
M  V30 676 C 64.8043 2.02712 -0.0596221 0
M  V30 677 C 65.1373 1.44765 1.29448 0
M  V30 678 O 64.4123 0.610355 1.84675 0
M  V30 679 C 64.6953 3.60098 0.0129503 0
M  V30 680 C 64.5483 4.28441 -1.3696 0
M  V30 681 C 65.8673 4.34224 0.71678 0
M  V30 682 H 62.9863 0.736637 -0.0231407 0
M  V30 683 H 65.6283 1.74898 -0.742351 0
M  V30 684 H 63.7783 3.83926 0.594378 0
M  V30 685 H 65.4503 4.15896 -1.9957 0
M  V30 686 H 63.6933 3.8805 -1.93907 0
M  V30 687 H 64.3643 5.3716 -1.27135 0
M  V30 688 H 66.8403 4.15503 0.222908 0
M  V30 689 H 65.7163 5.43936 0.73657 0
M  V30 690 H 65.9773 4.04823 1.77682 0
M  V30 691 N 65.0364 0.313813 1.54444 0
M  V30 692 C 66.2824 -0.292108 2.00685 0
M  V30 693 C 66.6154 -1.52548 1.20177 0
M  V30 694 O 65.8904 -1.92452 0.281531 0
M  V30 695 C 66.1734 -0.635968 3.5444 0
M  V30 696 C 66.0264 0.607437 4.4568 0
M  V30 697 C 67.3454 -1.45747 4.15266 0
M  V30 698 H 64.4644 -0.104697 0.729526 0
M  V30 699 H 67.1064 0.428457 1.85106 0
M  V30 700 H 65.2564 -1.24986 3.67846 0
M  V30 701 H 66.9284 1.24581 4.44159 0
M  V30 702 H 65.1714 1.23822 4.15753 0
M  V30 703 H 65.8424 0.322515 5.51057 0
M  V30 704 H 68.3184 -0.938645 4.05375 0
M  V30 705 H 67.1944 -1.66683 5.2298 0
M  V30 706 H 67.4554 -2.45063 3.67963 0
M  V30 707 N 66.5145 -1.57545 0.0417849 0
M  V30 708 C 67.7445 -1.96339 -0.642995 0
M  V30 709 C 68.1525 -0.917536 -1.65463 0
M  V30 710 O 67.4955 0.107747 -1.83384 0
M  V30 711 C 67.5575 -3.31333 -1.39494 0
M  V30 712 C 67.2215 -4.53796 -0.540204 0
M  V30 713 C 68.2185 -5.19553 0.189806 0
M  V30 714 C 65.9035 -5.0006 -0.473886 0
M  V30 715 C 67.8975 -6.29904 0.974674 0
M  V30 716 C 65.5845 -6.10289 0.314677 0
M  V30 717 C 66.5825 -6.75072 1.03765 0
M  V30 718 O 66.2705 -7.83183 1.81327 0
M  V30 719 H 66.0025 -0.651241 -0.181277 0
M  V30 720 H 68.5565 -2.05148 0.101665 0
M  V30 721 H 66.7865 -3.19052 -2.18502 0
M  V30 722 H 68.4755 -3.54942 -1.96904 0
M  V30 723 H 69.2415 -4.84774 0.147981 0
M  V30 724 H 65.1205 -4.49433 -1.0262 0
M  V30 725 H 68.6645 -6.80401 1.5395 0
M  V30 726 H 64.5615 -6.44506 0.358174 0
M  V30 727 H 65.3295 -7.99913 1.73438 0
M  V30 728 N 67.9926 0.231505 -1.5589 0
M  V30 729 C 69.2406 0.955461 -1.78088 0
M  V30 730 C 69.5616 1.85262 -0.608533 0
M  V30 731 O 68.8316 1.92277 0.375035 0
M  V30 732 H 67.4116 0.355787 -0.656829 0
M  V30 733 H 70.0736 0.245751 -1.93344 0
M  V30 734 H 69.1696 1.56814 -2.69844 0
M  V30 735 N 69.4707 1.49531 0.497807 0
M  V30 736 C 70.7007 1.62657 1.27382 0
M  V30 737 C 71.1087 0.298488 1.86831 0
M  V30 738 O 70.4517 -0.72647 1.68725 0
M  V30 739 C 70.5137 2.6393 2.44093 0
M  V30 740 C 70.1777 4.08195 2.05489 0
M  V30 741 C 71.1747 4.949 1.59279 0
M  V30 742 C 68.8597 4.53948 2.15026 0
M  V30 743 C 70.8537 6.25397 1.23113 0
M  V30 744 C 68.5407 5.84458 1.78473 0
M  V30 745 C 69.5387 6.70006 1.32591 0
M  V30 746 O 69.2267 7.98083 0.965327 0
M  V30 747 H 68.9587 0.550429 0.392434 0
M  V30 748 H 71.5127 1.96325 0.603801 0
M  V30 749 H 69.7427 2.25449 3.14181 0
M  V30 750 H 71.4317 2.66552 3.06113 0
M  V30 751 H 72.1977 4.60779 1.51354 0
M  V30 752 H 68.0767 3.87525 2.4969 0
M  V30 753 H 71.6207 6.92125 0.872299 0
M  V30 754 H 67.5177 6.18107 1.86048 0
M  V30 755 H 68.2857 8.11122 1.09652 0
M  V30 756 N 70.9488 -0.749086 1.3866 0
M  V30 757 C 72.1978 -1.50371 1.3443 0
M  V30 758 C 72.5108 -1.95503 -0.0616397 0
M  V30 759 O 73.7168 -2.70554 -0.226489 0
M  V30 760 C 72.1728 -2.71644 2.36088 0
M  V30 761 C 71.7808 -2.3352 3.82325 0
M  V30 762 C 73.5248 -3.49518 2.40909 0
M  V30 763 C 71.4318 -3.51431 4.75658 0
M  V30 764 H 70.3618 -0.564628 0.499712 0
M  V30 765 H 73.0128 -0.818449 1.64237 0
M  V30 766 H 71.3948 -3.42175 1.9933 0
M  V30 767 H 72.5688 -1.70627 4.28046 0
M  V30 768 H 70.8838 -1.6877 3.80665 0
M  V30 769 H 73.4808 -4.37197 3.07836 0
M  V30 770 H 73.8238 -3.90992 1.42937 0
M  V30 771 H 74.3568 -2.86005 2.76489 0
M  V30 772 H 71.0958 -3.15019 5.74842 0
M  V30 773 H 70.6158 -4.13352 4.34627 0
M  V30 774 H 72.2948 -4.17953 4.93887 0
M  V30 775 N 72.4269 -1.23603 -0.977757 0
M  V30 776 C 73.6739 -1.06971 -1.71941 0
M  V30 777 C 74.0019 0.393009 -1.90488 0
M  V30 778 O 73.2569 1.30719 -1.4564 0
M  V30 779 C 73.5559 -1.7433 -3.11999 0
M  V30 780 C 73.2219 -3.24252 -3.13323 0
M  V30 781 C 71.8839 -3.65156 -3.13392 0
M  V30 782 C 74.2359 -4.20141 -3.08433 0
M  V30 783 C 71.5639 -5.00403 -3.0629 0
M  V30 784 C 73.9159 -5.55384 -3.02873 0
M  V30 785 C 72.5799 -5.95647 -3.01265 0
M  V30 786 H 71.8499 -0.391433 -0.629175 0
M  V30 787 H 74.4969 -1.53572 -1.14403 0
M  V30 788 H 72.8019 -1.20096 -3.7294 0
M  V30 789 H 74.4989 -1.58936 -3.68158 0
M  V30 790 H 71.0889 -2.91692 -3.14029 0
M  V30 791 H 75.2729 -3.89547 -3.07517 0
M  V30 792 H 70.5289 -5.3081 -3.03399 0
M  V30 793 H 74.7029 -6.29398 -2.98046 0
M  V30 794 H 72.3299 -7.0041 -2.95516 0
M  V30 795 N 73.905 1.17692 -1.04816 0
M  V30 796 C 75.13 1.92327 -0.776207 0
M  V30 797 C 75.555 1.76082 0.661581 0
M  V30 798 O 74.913 1.076 1.45917 0
M  V30 799 C 74.961 3.41539 -1.15687 0
M  V30 800 O 74.065 4.11402 -0.286775 0
M  V30 801 H 73.406 0.599735 -0.284981 0
M  V30 802 H 75.936 1.49201 -1.4 0
M  V30 803 H 75.946 3.92269 -1.12202 0
M  V30 804 H 74.621 3.52684 -2.20425 0
M  V30 805 H 73.198 3.70939 -0.381903 0
M  V30 806 N 75.3831 0.828654 1.34056 0
M  V30 807 C 76.3131 0.269443 2.3194 0
M  V30 808 C 77.2941 -0.617247 1.58506 0
M  V30 809 O 78.4791 -0.542931 1.86456 0
M  V30 810 C 75.6091 -0.564793 3.42677 0
M  V30 811 C 74.5631 0.225241 4.27407 0
M  V30 812 C 73.8891 -0.7321 5.29664 0
M  V30 813 C 75.1891 1.43663 5.02154 0
M  V30 814 H 76.8831 1.08728 2.7896 0
M  V30 815 H 74.4291 0.524283 1.34117 0
M  V30 816 H 76.3821 -0.966233 4.10173 0
M  V30 817 H 75.1061 -1.41574 2.9432 0
M  V30 818 H 73.7651 0.608117 3.61521 0
M  V30 819 H 73.4131 -1.57916 4.77568 0
M  V30 820 H 73.1131 -0.20767 5.87233 0
M  V30 821 H 74.6371 -1.13128 6.00029 0
M  V30 822 H 76.0511 1.1089 5.62473 0
M  V30 823 H 74.4481 1.89711 5.69324 0
M  V30 824 H 75.5181 2.21181 4.31517 0
M  V30 825 N 76.8612 -1.46375 0.584142 0
M  V30 826 C 77.8082 -2.30323 -0.148286 0
M  V30 827 C 78.7782 -1.40703 -0.882713 0
M  V30 828 O 79.9632 -1.69651 -0.873099 0
M  V30 829 C 77.1032 -3.25196 -1.15507 0
M  V30 830 C 76.2162 -4.29915 -0.423943 0
M  V30 831 C 75.3512 -5.11914 -1.41838 0
M  V30 832 C 74.3902 -6.08381 -0.673736 0
M  V30 833 N 73.5272 -6.83242 -1.6163 0
M  V30 834 H 78.3672 -2.92427 0.573644 0
M  V30 835 H 75.9042 -1.44118 0.294703 0
M  V30 836 H 77.8622 -3.78646 -1.75166 0
M  V30 837 H 76.4922 -2.64898 -1.8447 0
M  V30 838 H 75.5442 -3.7931 0.287714 0
M  V30 839 H 76.8562 -4.98549 0.158128 0
M  V30 840 H 76.0102 -5.69648 -2.08773 0
M  V30 841 H 74.7492 -4.43243 -2.03438 0
M  V30 842 H 73.7542 -5.49799 0.00938483 0
M  V30 843 H 74.9792 -6.79071 -0.0631082 0
M  V30 844 H 72.9252 -6.1728 -2.22038 0
M  V30 845 H 72.8422 -7.48144 -1.08707 0
M  V30 846 H 74.1102 -7.45534 -2.27596 0
M  V30 847 N 78.3393 -0.321999 -1.54275 0
M  V30 848 C 79.2873 0.560206 -2.25753 0
M  V30 849 C 80.2813 1.11984 -1.27106 0
M  V30 850 O 81.4873 1.06806 -1.44888 0
M  V30 851 H 77.8623 0.199304 -0.725108 0
M  V30 852 H 79.8333 -0.0649365 -2.98329 0
M  V30 853 C 78.5823 1.71023 -3.02731 0
M  V30 854 H 77.9053 1.28885 -3.78456 0
M  V30 855 H 79.3453 2.30314 -3.55993 0
M  V30 856 C 77.8043 2.62692 -2.10938 0
M  V30 857 O 78.3343 3.64364 -1.6912 0
M  V30 858 N 76.5403 2.30891 -1.76459 0
M  V30 859 H 76.0873 1.48253 -2.10663 0
M  V30 860 H 76.0453 2.92487 -1.1532 0
M  V30 861 N 79.8174 1.5752 -0.0501392 0
M  V30 862 C 81.0634 1.93755 0.618901 0
M  V30 863 C 81.4184 0.928514 1.68512 0
M  V30 864 O 80.7114 -0.0524613 1.91528 0
M  V30 865 C 80.9054 3.34467 1.25963 0
M  V30 866 C 80.7344 4.48965 0.257 0
M  V30 867 C 79.5044 5.05075 -0.150656 0
M  V30 868 C 81.7024 5.11891 -0.497166 0
M  V30 869 N 79.6844 6.03104 -1.14626 0
M  V30 870 C 81.0554 6.05216 -1.34588 0
M  V30 871 C 83.1104 4.9479 -0.55559 0
M  V30 872 C 81.8134 6.83277 -2.24778 0
M  V30 873 C 83.8394 5.73477 -1.44492 0
M  V30 874 C 83.2014 6.66433 -2.28136 0
M  V30 875 H 79.3004 0.756479 0.198149 0
M  V30 876 H 81.8844 1.94316 -0.122229 0
M  V30 877 H 80.0554 3.34685 1.97079 0
M  V30 878 H 81.7874 3.57994 1.88739 0
M  V30 879 H 78.5424 4.7305 0.228094 0
M  V30 880 H 78.9664 6.56813 -1.64092 0
M  V30 881 H 83.6084 4.2273 0.0768625 0
M  V30 882 H 81.3264 7.54629 -2.89069 0
M  V30 883 H 84.9124 5.62273 -1.49468 0
M  V30 884 H 83.7924 7.26258 -2.95835 0
M  V30 885 N 81.2955 -0.223234 1.56011 0
M  V30 886 C 82.2435 -1.29627 1.93131 0
M  V30 887 C 83.2375 -1.48608 0.813146 0
M  V30 888 O 84.4435 -1.49802 0.997966 0
M  V30 889 H 80.8185 -0.434563 0.613726 0
M  V30 890 H 82.7895 -0.955995 2.82672 0
M  V30 891 C 81.5385 -2.63983 2.26292 0
M  V30 892 H 80.8615 -2.50185 3.11846 0
M  V30 893 H 82.3015 -3.3788 2.56151 0
M  V30 894 C 80.7605 -3.18866 1.08747 0
M  V30 895 O 81.2905 -4.00192 0.347727 0
M  V30 896 N 79.4965 -2.77217 0.871743 0
M  V30 897 H 79.0435 -2.1119 1.47501 0
M  V30 898 H 79.0015 -3.1428 0.0869905 0
M  V30 899 N 82.7736 -1.49793 -0.48987 0
M  V30 900 C 83.9986 -1.63836 -1.27172 0
M  V30 901 C 84.4236 -0.31402 -1.8546 0
M  V30 902 O 83.7816 0.719803 -1.66399 0
M  V30 903 C 83.8296 -2.71797 -2.36978 0
M  V30 904 O 82.9336 -2.31744 -3.41128 0
M  V30 905 H 82.2746 -0.547997 -0.37496 0
M  V30 906 H 84.8046 -1.96053 -0.585191 0
M  V30 907 H 84.8146 -2.94305 -2.82575 0
M  V30 908 H 83.4896 -3.67923 -1.93921 0
M  V30 909 H 82.0666 -2.1961 -3.01373 0
M  V30 910 N 84.2517 0.741722 -1.39055 0
M  V30 911 C 85.4767 1.53607 -1.39354 0
M  V30 912 C 85.9017 1.88096 0.0116905 0
M  V30 913 O 85.2597 1.5143 0.996924 0
M  V30 914 C 85.3077 2.80441 -2.26682 0
M  V30 915 O 84.4117 3.76088 -1.69208 0
M  V30 916 H 83.7527 0.464142 -0.474835 0
M  V30 917 H 86.2827 0.915665 -1.82967 0
M  V30 918 H 86.2927 3.29246 -2.40959 0
M  V30 919 H 84.9677 2.5467 -3.2881 0
M  V30 920 H 83.5447 3.34833 -1.64138 0
M  V30 921 N 85.7298 1.2412 0.971189 0
M  V30 922 C 86.6778 1.02812 2.08644 0
M  V30 923 C 87.6718 -0.0358403 1.69362 0
M  V30 924 O 88.8778 0.118429 1.7961 0
M  V30 925 H 85.2528 0.315428 0.682649 0
M  V30 926 H 87.2238 1.97397 2.23779 0
M  V30 927 C 85.9728 0.645874 3.41649 0
M  V30 928 H 85.2958 1.45632 3.72332 0
M  V30 929 H 86.7358 0.536366 4.20594 0
M  V30 930 C 85.1948 -0.646713 3.30635 0
M  V30 931 O 85.7248 -1.69338 3.64263 0
M  V30 932 N 83.9308 -0.626115 2.83775 0
M  V30 933 H 83.4778 0.225988 2.56607 0
M  V30 934 H 83.4358 -1.49117 2.76788 0
M  V30 935 N 87.2079 -1.17134 1.05439 0
M  V30 936 C 88.4569 -1.86791 0.761049 0
M  V30 937 C 88.7699 -1.82072 -0.714795 0
M  V30 938 O 89.9759 -2.47223 -1.12218 0
M  V30 939 C 88.4319 -3.35166 1.31117 0
M  V30 940 C 88.0399 -3.48381 2.81664 0
M  V30 941 C 89.7839 -4.10134 1.09499 0
M  V30 942 C 87.6909 -4.90793 3.29964 0
M  V30 943 H 86.6209 -0.699681 0.281002 0
M  V30 944 H 89.2719 -1.3226 1.27199 0
M  V30 945 H 87.6539 -3.8925 0.72803 0
M  V30 946 H 88.8279 -3.04502 3.45855 0
M  V30 947 H 87.1429 -2.86836 3.01851 0
M  V30 948 H 89.7399 -5.152 1.43084 0
M  V30 949 H 90.0829 -4.16287 0.0328772 0
M  V30 950 H 90.6159 -3.62264 1.64346 0
M  V30 951 H 87.3549 -4.89816 4.35616 0
M  V30 952 H 86.8749 -5.35333 2.70516 0
M  V30 953 H 88.5539 -5.59573 3.24787 0
M  V30 954 N 88.686 -0.835752 -1.33615 0
M  V30 955 C 89.916 -0.442701 -2.01801 0
M  V30 956 C 90.324 0.959807 -1.63047 0
M  V30 957 O 89.667 1.63468 -0.838088 0
M  V30 958 C 89.729 -0.480125 -3.56279 0
M  V30 959 C 89.393 -1.8382 -4.18401 0
M  V30 960 C 90.39 -2.80097 -4.37998 0
M  V30 961 C 88.075 -2.13019 -4.54894 0
M  V30 962 C 90.069 -4.03736 -4.9323 0
M  V30 963 C 87.756 -3.36916 -5.09834 0
M  V30 964 C 88.754 -4.32091 -5.28948 0
M  V30 965 O 88.442 -5.53797 -5.82721 0
M  V30 966 H 88.174 -0.17441 -0.653114 0
M  V30 967 H 90.728 -1.129 -1.71589 0
M  V30 968 H 88.958 0.262931 -3.85805 0
M  V30 969 H 90.647 -0.105335 -4.05763 0
M  V30 970 H 91.413 -2.58838 -4.10156 0
M  V30 971 H 87.292 -1.39733 -4.39313 0
M  V30 972 H 90.836 -4.78034 -5.08064 0
M  V30 973 H 86.733 -3.58033 -5.37106 0
M  V30 974 H 87.501 -5.55494 -6.0114 0
M  V30 975 N 90.1641 1.46063 -0.591896 0
M  V30 976 C 91.0941 2.33172 0.123673 0
M  V30 977 C 92.0751 1.45897 0.87453 0
M  V30 978 O 93.2601 1.74698 0.848181 0
M  V30 979 C 90.3901 3.28336 1.13194 0
M  V30 980 C 89.3441 4.25124 0.495324 0
M  V30 981 C 88.6701 5.09863 1.61071 0
M  V30 982 C 89.9701 5.19143 -0.573425 0
M  V30 983 H 91.6641 2.93252 -0.603646 0
M  V30 984 H 89.2101 1.41014 -0.291741 0
M  V30 985 H 91.1631 3.88137 1.64097 0
M  V30 986 H 89.8871 2.66383 1.88965 0
M  V30 987 H 88.5461 3.66599 0.00729452 0
M  V30 988 H 88.1941 4.44288 2.35832 0
M  V30 989 H 87.8941 5.75417 1.19035 0
M  V30 990 H 89.4181 5.72529 2.12233 0
M  V30 991 H 90.8321 5.73106 -0.1491 0
M  V30 992 H 89.2291 5.93089 -0.914636 0
M  V30 993 H 90.2991 4.62519 -1.45617 0
M  V30 994 N 91.6422 0.330177 1.54103 0
M  V30 995 C 92.8892 -0.270405 2.00686 0
M  V30 996 C 93.2172 -1.51621 1.21825 0
M  V30 997 O 92.4722 -1.93536 0.29025 0
M  V30 998 C 92.7712 -0.643134 3.51566 0
M  V30 999 C 92.4372 0.504251 4.48072 0
M  V30 1000 C 91.0992 0.819163 4.74176 0
M  V30 1001 C 93.4512 1.27465 5.05373 0
M  V30 1002 C 90.7792 1.90708 5.5484 0
M  V30 1003 C 93.1312 2.35271 5.87223 0
M  V30 1004 C 91.7952 2.67336 6.11627 0
M  V30 1005 H 91.0652 -0.0989482 0.734364 0
M  V30 1006 H 93.7122 0.455324 1.86008 0
M  V30 1007 H 92.0172 -1.44938 3.64006 0
M  V30 1008 H 93.7142 -1.11949 3.85056 0
M  V30 1009 H 90.3042 0.248733 4.27878 0
M  V30 1010 H 94.4882 1.04462 4.85182 0
M  V30 1011 H 89.7442 2.15991 5.71977 0
M  V30 1012 H 93.9182 2.95405 6.30641 0
M  V30 1013 H 91.5452 3.51763 6.73919 0
M  V30 1014 N 93.1203 -1.57491 0.0584922 0
M  V30 1015 C 94.0683 -2.13148 -0.931168 0
M  V30 1016 C 95.0623 -1.06507 -1.31729 0
M  V30 1017 O 96.2683 -1.24906 -1.29609 0
M  V30 1018 H 92.6433 -0.68137 -0.31818 0
M  V30 1019 H 94.6143 -2.95187 -0.436707 0
M  V30 1020 C 93.3633 -2.69732 -2.19408 0
M  V30 1021 H 92.6863 -3.51454 -1.90578 0
M  V30 1022 H 94.1263 -3.12287 -2.86798 0
M  V30 1023 C 92.5853 -1.63855 -2.94369 0
M  V30 1024 O 93.1153 -1.05565 -3.87581 0
M  V30 1025 N 91.3213 -1.35202 -2.57233 0
M  V30 1026 H 90.8683 -1.82791 -1.81508 0
M  V30 1027 H 90.8263 -0.645922 -3.07693 0
M  V30 1028 N 94.5984 0.214957 -1.56127 0
M  V30 1029 C 95.5284 1.2695 -1.95974 0
M  V30 1030 C 96.5094 1.48539 -0.828868 0
M  V30 1031 O 97.6944 1.60611 -1.09168 0
M  V30 1032 C 94.8244 2.61794 -2.28214 0
M  V30 1033 C 93.7784 2.54851 -3.43853 0
M  V30 1034 C 93.1044 3.93785 -3.61715 0
M  V30 1035 C 94.4044 2.09065 -4.78632 0
M  V30 1036 H 96.0984 0.93846 -2.84312 0
M  V30 1037 H 93.6444 0.449996 -1.36788 0
M  V30 1038 H 95.5974 3.35731 -2.54682 0
M  V30 1039 H 94.3214 2.96599 -1.36736 0
M  V30 1040 H 92.9804 1.8337 -3.17444 0
M  V30 1041 H 92.6284 4.25908 -2.67602 0
M  V30 1042 H 92.3284 3.90019 -4.39498 0
M  V30 1043 H 93.8524 4.69374 -3.90539 0
M  V30 1044 H 95.2664 2.7275 -5.04262 0
M  V30 1045 H 93.6634 2.16346 -5.59745 0
M  V30 1046 H 94.7334 1.04315 -4.73547 0
M  V30 1047 N 96.0765 1.50051 0.48192 0
M  V30 1048 C 97.3015 1.64508 1.26301 0
M  V30 1049 C 97.7265 0.323851 1.85291 0
M  V30 1050 O 97.0845 -0.710969 1.66778 0
M  V30 1051 C 97.1325 2.7305 2.35533 0
M  V30 1052 O 96.2365 2.3355 3.39895 0
M  V30 1053 H 95.5775 0.549978 0.372048 0
M  V30 1054 H 98.1075 1.9636 0.574786 0
M  V30 1055 H 98.1175 2.95799 2.8101 0
M  V30 1056 H 96.7925 3.68946 1.91967 0
M  V30 1057 H 95.3695 2.21205 3.00204 0
M  V30 1058 N 97.5546 -0.734337 1.39446 0
M  V30 1059 C 98.8006 -1.49613 1.36908 0
M  V30 1060 C 99.1336 -1.94169 -0.0347829 0
M  V30 1061 O 98.4086 -1.66833 -0.999847 0
M  V30 1062 C 98.6916 -2.73534 2.34203 0
M  V30 1063 C 98.5446 -2.34993 3.83534 0
M  V30 1064 C 99.8636 -3.75635 2.29317 0
M  V30 1065 H 96.9826 -0.542714 0.498629 0
M  V30 1066 H 99.6246 -0.839597 1.70443 0
M  V30 1067 H 97.7746 -3.29553 2.05736 0
M  V30 1068 H 99.4466 -1.84601 4.22753 0
M  V30 1069 H 97.6896 -1.67213 4.00278 0
M  V30 1070 H 98.3606 -3.23738 4.47099 0
M  V30 1071 H 100.837 -3.29203 2.54489 0
M  V30 1072 H 99.7126 -4.60008 2.99472 0
M  V30 1073 H 99.9736 -4.22603 1.29842 0
M  V30 1074 N 99.0327 -1.24633 -0.964593 0
M  V30 1075 C 100.258 -1.11596 -1.74818 0
M  V30 1076 C 100.683 0.32723 -1.85232 0
M  V30 1077 O 100.041 1.23695 -1.32549 0
M  V30 1078 C 100.089 -1.76397 -3.1451 0
M  V30 1079 O 99.1927 -1.03685 -3.99153 0
M  V30 1080 H 98.5337 -0.390196 -0.537255 0
M  V30 1081 H 101.064 -1.65002 -1.20977 0
M  V30 1082 H 101.074 -1.8228 -3.65018 0
M  V30 1083 H 99.7487 -2.81401 -3.06246 0
M  V30 1084 H 98.3257 -1.05611 -3.57632 0
M  V30 1085 N 100.511 1.16574 -1.06058 0
M  V30 1086 C 101.788 1.83048 -0.689416 0
M  V30 1087 C 102.168 1.94122 0.829443 0
M  V30 1088 O 101.516 1.48249 1.7388 0
M  V30 1089 C 101.726 3.20186 -1.38859 0
M  V30 1090 C 103.074 3.95989 -1.53226 0
M  V30 1091 O 104.098 3.29696 -1.3483 0
M  V30 1092 O 102.957 5.14813 -1.83384 0
M  V30 1093 H 100.051 0.790258 -0.243764 0
M  V30 1094 H 102.597 1.23797 -1.16071 0
M  V30 1095 H 101.369 3.07146 -2.4244 0
M  V30 1096 H 100.992 3.87112 -0.907216 0
M  V30 1097 N 101.989 0.842826 1.3317 0
M  V30 1098 C 102.919 0.294028 2.31641 0
M  V30 1099 C 103.9 -0.600401 1.59151 0
M  V30 1100 O 105.085 -0.523124 1.87022 0
M  V30 1101 C 102.215 -0.528416 3.43257 0
M  V30 1102 C 101.169 0.27056 4.27144 0
M  V30 1103 C 100.495 -0.675881 5.30411 0
M  V30 1104 C 101.795 1.48981 5.00602 0
M  V30 1105 H 103.489 1.11681 2.77791 0
M  V30 1106 H 101.035 0.538478 1.33553 0
M  V30 1107 H 102.988 -0.922674 4.11175 0
M  V30 1108 H 101.712 -1.38445 2.95805 0
M  V30 1109 H 100.371 0.646427 3.60856 0
M  V30 1110 H 100.019 -1.52842 4.79216 0
M  V30 1111 H 99.7189 -0.145374 5.8742 0
M  V30 1112 H 101.243 -1.06757 6.01195 0
M  V30 1113 H 102.657 1.16849 5.61266 0
M  V30 1114 H 101.054 1.95739 5.6728 0
M  V30 1115 H 102.124 2.25746 4.29147 0
M  V30 1116 N 103.467 -1.45747 0.599634 0
M  V30 1117 C 104.43 -2.28917 -0.113835 0
M  V30 1118 C 105.43 -1.3933 -0.802729 0
M  V30 1119 O 106.62 -1.61534 -0.652103 0
M  V30 1120 C 103.752 -3.20152 -1.17114 0
M  V30 1121 H 104.945 -2.93478 0.617289 0
M  V30 1122 H 102.498 -1.52137 0.358327 0
M  V30 1123 H 103.233 -2.60374 -1.93329 0
M  V30 1124 H 103.018 -3.86133 -0.681468 0
M  V30 1125 H 104.508 -3.82708 -1.67105 0
M  V30 1126 N 104.945 -0.338344 -1.53925 0
M  V30 1127 C 106.192 0.259758 -2.00827 0
M  V30 1128 C 106.52 1.50973 -1.22628 0
M  V30 1129 O 105.775 1.93379 -0.300509 0
M  V30 1130 C 106.074 0.62448 -3.51902 0
M  V30 1131 C 105.74 -0.528006 -4.47798 0
M  V30 1132 C 104.402 -0.844298 -4.73735 0
M  V30 1133 C 106.754 -1.30143 -5.0469 0
M  V30 1134 C 104.082 -1.93648 -5.53821 0
M  V30 1135 C 106.434 -2.38382 -5.85967 0
M  V30 1136 C 105.098 -2.70576 -6.10201 0
M  V30 1137 H 104.368 0.0950523 -0.734878 0
M  V30 1138 H 107.015 -0.465182 -1.85764 0
M  V30 1139 H 105.32 1.43006 -3.64769 0
M  V30 1140 H 107.017 1.09905 -3.85645 0
M  V30 1141 H 103.607 -0.271421 -4.2774 0
M  V30 1142 H 107.791 -1.07033 -4.84621 0
M  V30 1143 H 103.047 -2.19021 -5.70824 0
M  V30 1144 H 107.221 -2.98746 -6.29066 0
M  V30 1145 H 104.848 -3.55333 -6.72044 0
M  V30 1146 N 106.423 1.57458 -0.0668435 0
M  V30 1147 C 107.353 2.15468 0.899764 0
M  V30 1148 C 108.334 1.08042 1.31381 0
M  V30 1149 O 109.519 1.36054 1.38574 0
M  V30 1150 C 106.649 2.71232 2.16911 0
M  V30 1151 C 105.603 3.83781 1.89463 0
M  V30 1152 C 104.929 4.26127 3.22986 0
M  V30 1153 C 106.229 5.08238 1.20381 0
M  V30 1154 H 107.923 2.96488 0.416529 0
M  V30 1155 H 105.469 1.4262 0.198908 0
M  V30 1156 H 107.422 3.10458 2.84945 0
M  V30 1157 H 106.146 1.87426 2.67468 0
M  V30 1158 H 104.805 3.45051 1.23836 0
M  V30 1159 H 104.453 3.39249 3.71374 0
M  V30 1160 H 104.153 5.01993 3.05413 0
M  V30 1161 H 105.677 4.67966 3.92225 0
M  V30 1162 H 107.091 5.44811 1.78475 0
M  V30 1163 H 105.488 5.89349 1.13083 0
M  V30 1164 H 106.558 4.84558 0.182153 0
M  V30 1165 N 107.901 -0.206675 1.56239 0
M  V30 1166 C 109.141 -0.93574 1.81723 0
M  V30 1167 C 109.505 -1.80927 0.642609 0
M  V30 1168 O 110.706 -2.57323 0.777081 0
M  V30 1169 C 108.977 -1.74012 3.12177 0
M  V30 1170 S 110.536 -2.52279 3.59028 0
M  V30 1171 H 107.354 -0.314065 0.637875 0
M  V30 1172 H 109.956 -0.200071 1.94474 0
M  V30 1173 H 108.66 -1.0888 3.95693 0
M  V30 1174 H 108.191 -2.51782 3.02274 0
M  V30 1175 H 110.206 -3.76209 3.23545 0
M  V30 1176 N 109.379 -1.50304 -0.473955 0
M  V30 1177 C 110.607 -1.64902 -1.24959 0
M  V30 1178 C 111.022 -0.331198 -1.85872 0
M  V30 1179 O 110.379 0.68652 -1.69095 0
M  V30 1180 C 110.43 -2.73803 -2.36038 0
M  V30 1181 O 110.151 -4.00477 -1.77624 0
M  V30 1182 C 111.652 -2.99349 -3.26964 0
M  V30 1183 H 108.872 -0.554383 -0.378022 0
M  V30 1184 H 111.416 -1.9651 -0.566054 0
M  V30 1185 H 109.571 -2.44898 -3.00173 0
M  V30 1186 H 109.985 -4.60678 -2.5075 0
M  V30 1187 H 111.459 -3.79217 -4.01121 0
M  V30 1188 H 111.936 -2.10307 -3.85574 0
M  V30 1189 H 112.542 -3.29774 -2.68569 0
M  V30 1190 N 110.857 0.726932 -1.39834 0
M  V30 1191 C 111.787 1.85405 -1.41941 0
M  V30 1192 C 112.768 1.67751 -0.281728 0
M  V30 1193 O 113.953 1.8795 -0.488717 0
M  V30 1194 C 111.083 3.23243 -1.2701 0
M  V30 1195 C 110.037 3.55549 -2.38262 0
M  V30 1196 C 109.363 4.9241 -2.08415 0
M  V30 1197 C 110.663 3.577 -3.80589 0
M  V30 1198 H 112.357 1.83899 -2.36266 0
M  V30 1199 H 109.903 0.883349 -1.13723 0
M  V30 1200 H 111.856 4.01775 -1.27103 0
M  V30 1201 H 110.58 3.25296 -0.291564 0
M  V30 1202 H 109.239 2.79351 -2.37399 0
M  V30 1203 H 108.887 4.91052 -1.0898 0
M  V30 1204 H 108.587 5.14992 -2.82943 0
M  V30 1205 H 110.111 5.73289 -2.10171 0
M  V30 1206 H 111.525 4.26293 -3.83337 0
M  V30 1207 H 109.922 3.91804 -4.54543 0
M  V30 1208 H 110.992 2.57328 -4.10987 0
M  V30 1209 N 112.336 1.25143 0.95797 0
M  V30 1210 C 113.747 1.08851 1.51685 0
M  V30 1211 C 114.098 -0.33687 1.93286 0
M  V30 1212 O 113.223 -1.22644 1.7829 0
M  V30 1213 C 113.818 1.96978 2.75654 0
M  V30 1214 C 112.377 1.84881 3.27866 0
M  V30 1215 C 111.524 1.91329 2.0072 0
M  V30 1216 H 114.475 1.38478 0.77522 0
M  V30 1217 H 114.496 1.5078 3.4935 0
M  V30 1218 H 114.008 3.00712 2.45345 0
M  V30 1219 H 112.109 0.840182 3.63004 0
M  V30 1220 H 112.222 2.6951 3.96107 0
M  V30 1221 H 110.586 1.35174 2.15871 0
M  V30 1222 H 111.369 2.96661 1.72764 0
M  V30 1223 N 113.814 -1.1601 1.06675 0
M  V30 1224 C 114.747 -2.1947 0.625168 0
M  V30 1225 C 115.725 -1.58699 -0.354041 0
M  V30 1226 O 116.909 -1.86669 -0.262098 0
M  V30 1227 C 114.036 -3.38598 -0.0829593 0
M  V30 1228 C 113.082 -4.1787 0.853611 0
M  V30 1229 S 113.915 -4.81135 2.35094 0
M  V30 1230 C 115.071 -6.03639 1.65441 0
M  V30 1231 H 115.304 -2.56587 1.50168 0
M  V30 1232 H 112.837 -1.26862 0.880078 0
M  V30 1233 H 114.795 -4.07621 -0.485288 0
M  V30 1234 H 113.456 -2.99839 -0.935716 0
M  V30 1235 H 112.649 -5.03078 0.304755 0
M  V30 1236 H 112.251 -3.54361 1.196 0
M  V30 1237 H 114.543 -6.70632 0.962201 0
M  V30 1238 H 115.486 -6.63081 2.48454 0
M  V30 1239 H 115.894 -5.52965 1.13534 0
M  V30 1240 N 115.292 -0.849877 -1.32721 0
M  V30 1241 C 116.222 -0.306308 -2.31482 0
M  V30 1242 C 117.203 0.591952 -1.59468 0
M  V30 1243 O 118.388 0.513199 -1.87296 0
M  V30 1244 C 115.518 0.510204 -3.43532 0
M  V30 1245 C 114.472 -0.293209 -4.26994 0
M  V30 1246 C 113.798 0.647743 -5.30762 0
M  V30 1247 C 115.098 -1.51634 -4.99804 0
M  V30 1248 H 116.792 -1.13153 -2.77195 0
M  V30 1249 H 114.338 -0.545553 -1.33266 0
M  V30 1250 H 116.291 0.900856 -4.11658 0
M  V30 1251 H 115.015 1.36874 -2.96535 0
M  V30 1252 H 113.674 -0.665555 -3.60508 0
M  V30 1253 H 113.322 1.50299 -4.8002 0
M  V30 1254 H 113.022 0.11422 -5.87489 0
M  V30 1255 H 114.546 1.03567 -6.01753 0
M  V30 1256 H 115.96 -1.19824 -5.60638 0
M  V30 1257 H 114.357 -1.98745 -5.66234 0
M  V30 1258 H 115.427 -2.28018 -4.27943 0
M  V30 1259 N 116.77 1.45427 -0.607355 0
M  V30 1260 C 118.019 2.01452 -0.100036 0
M  V30 1261 C 118.332 1.48159 1.27704 0
M  V30 1262 O 119.538 1.96159 1.87707 0
M  V30 1263 C 117.994 3.59672 -0.128158 0
M  V30 1264 C 117.602 4.21962 -1.50507 0
M  V30 1265 C 119.346 4.23262 0.323932 0
M  V30 1266 C 117.253 5.72333 -1.48959 0
M  V30 1267 H 116.183 0.75325 -0.0336299 0
M  V30 1268 H 118.834 1.66901 -0.76265 0
M  V30 1269 H 117.216 3.91411 0.601105 0
M  V30 1270 H 118.39 4.01796 -2.25602 0
M  V30 1271 H 116.705 3.70565 -1.89923 0
M  V30 1272 H 119.302 5.33522 0.354691 0
M  V30 1273 H 119.645 3.93921 1.34656 0
M  V30 1274 H 120.178 3.96239 -0.352056 0
M  V30 1275 H 116.917 6.06373 -2.48981 0
M  V30 1276 H 116.437 5.94691 -0.781214 0
M  V30 1277 H 118.116 6.35525 -1.21313 0
M  V30 1278 N 118.248 0.346503 1.53744 0
M  V30 1279 C 119.664 -0.00530975 1.59599 0
M  V30 1280 C 119.864 -1.48465 1.36236 0
M  V30 1281 O 118.92 -2.24376 1.15808 0
M  V30 1282 C 120.233 0.433516 2.97559 0
M  V30 1283 C 121.781 0.386111 3.10609 0
M  V30 1284 C 122.256 0.800451 4.50951 0
M  V30 1285 N 123.747 0.754753 4.5701 0
M  V30 1286 C 124.482 1.04727 5.63755 0
M  V30 1287 N 123.978 1.4081 6.7834 0
M  V30 1288 N 125.771 0.971316 5.53644 0
M  V30 1289 H 117.922 1.31009 1.67184 0
M  V30 1290 H 120.185 0.534242 0.783128 0
M  V30 1291 H 119.891 1.46509 3.19731 0
M  V30 1292 H 119.765 -0.189753 3.76722 0
M  V30 1293 H 122.152 -0.636295 2.88158 0
M  V30 1294 H 122.233 1.04462 2.33498 0
M  V30 1295 H 121.877 1.82088 4.74137 0
M  V30 1296 H 121.807 0.119386 5.26465 0
M  V30 1297 H 124.298 0.488662 3.74727 0
M  V30 1298 H 124.611 1.61607 7.55714 0
M  V30 1299 H 122.956 1.44657 6.79779 0
M  V30 1300 H 126.147 0.688748 4.63005 0
M  V30 1301 H 126.32 1.20263 6.36742 0
M  V30 1302 N 119.726 -1.57421 0.075193 0
M  V30 1303 C 120.951 -1.98364 -0.605515 0
M  V30 1304 C 121.376 -0.953383 -1.62149 0
M  V30 1305 O 120.734 0.0806053 -1.81121 0
M  V30 1306 C 120.782 -3.38332 -1.24756 0
M  V30 1307 O 119.886 -3.37959 -2.36342 0
M  V30 1308 H 119.227 -0.645553 -0.155428 0
M  V30 1309 H 121.757 -2.04044 0.150714 0
M  V30 1310 H 121.767 -3.75591 -1.5936 0
M  V30 1311 H 120.442 -4.12846 -0.503129 0
M  V30 1312 H 119.019 -3.12474 -2.03506 0
M  V30 1313 N 121.204 0.198386 -1.56346 0
M  V30 1314 C 122.434 0.934215 -1.84271 0
M  V30 1315 C 122.842 1.77496 -0.655125 0
M  V30 1316 O 122.185 1.7961 0.385488 0
M  V30 1317 C 122.247 1.88278 -3.06254 0
M  V30 1318 C 121.911 1.22431 -4.40295 0
M  V30 1319 C 122.908 0.602839 -5.16393 0
M  V30 1320 C 120.593 1.22915 -4.87029 0
M  V30 1321 C 122.587 -0.0050083 -6.374 0
M  V30 1322 C 120.274 0.617465 -6.07973 0
M  V30 1323 C 121.272 0.00146341 -6.83 0
M  V30 1324 O 120.96 -0.600642 -8.01653 0
M  V30 1325 H 120.692 0.278245 -0.616081 0
M  V30 1326 H 123.246 0.211626 -2.04307 0
M  V30 1327 H 121.476 2.64498 -2.82095 0
M  V30 1328 H 123.165 2.48612 -3.20853 0
M  V30 1329 H 123.931 0.591265 -4.81382 0
M  V30 1330 H 119.81 1.69801 -4.28589 0
M  V30 1331 H 123.354 -0.48643 -6.95902 0
M  V30 1332 H 119.251 0.62653 -6.42452 0
M  V30 1333 H 120.019 -0.497225 -8.16988 0
M  V30 1334 N 122.682 1.50554 0.465978 0
M  V30 1335 C 123.645 1.69233 1.54574 0
M  V30 1336 C 124.645 0.562901 1.50626 0
M  V30 1337 O 125.835 0.830016 1.53155 0
M  V30 1338 C 122.967 1.7223 2.94193 0
M  V30 1339 H 124.16 2.65571 1.39327 0
M  V30 1340 H 121.713 1.40111 0.692711 0
M  V30 1341 H 122.448 0.77603 3.14878 0
M  V30 1342 H 122.233 2.54285 2.98466 0
M  V30 1343 H 123.723 1.88618 3.72576 0
M  V30 1344 N 124.16 -0.719506 1.40217 0
M  V30 1345 C 125.108 -1.85493 1.40339 0
M  V30 1346 C 126.102 -1.66995 0.284415 0
M  V30 1347 O 127.308 -1.74148 0.455252 0
M  V30 1348 H 123.683 -0.610857 0.438586 0
M  V30 1349 H 125.654 -1.82506 2.36081 0
M  V30 1350 C 124.403 -3.23321 1.27901 0
M  V30 1351 H 123.726 -3.38159 2.1328 0
M  V30 1352 H 125.166 -4.02914 1.32045 0
M  V30 1353 C 123.625 -3.36898 -0.0111355 0
M  V30 1354 O 124.155 -3.89674 -0.975538 0
M  V30 1355 N 122.361 -2.90492 -0.0793393 0
M  V30 1356 H 121.908 -2.47731 0.706183 0
M  V30 1357 H 121.866 -2.99955 -0.942038 0
M  V30 1358 N 125.638 -1.25649 -0.95132 0
M  V30 1359 C 126.886 -1.10375 -1.69298 0
M  V30 1360 C 127.207 0.355339 -1.91735 0
M  V30 1361 O 126.477 1.25188 -1.50681 0
M  V30 1362 H 125.057 -0.405461 -0.627384 0
M  V30 1363 H 127.719 -1.57823 -1.14358 0
M  V30 1364 H 126.815 -1.61465 -2.67087 0
M  V30 1365 N 127.117 1.15442 -1.07289 0
M  V30 1366 C 128.065 2.22225 -0.686952 0
M  V30 1367 C 129.059 1.66688 0.30193 0
M  V30 1368 O 130.265 1.79236 0.165712 0
M  V30 1369 H 126.64 0.723783 -0.204064 0
M  V30 1370 H 128.611 2.52056 -1.5972 0
M  V30 1371 C 127.36 3.47556 -0.100149 0
M  V30 1372 H 126.683 3.90612 -0.852211 0
M  V30 1373 H 128.123 4.23794 0.132235 0
M  V30 1374 C 126.582 3.16337 1.159 0
M  V30 1375 O 127.112 3.33074 2.24555 0
M  V30 1376 N 125.318 2.70385 1.06491 0
M  V30 1377 H 124.865 2.56966 0.180668 0
M  V30 1378 H 124.823 2.49871 1.90819 0
M  V30 1379 N 128.595 0.856903 1.32268 0
M  V30 1380 C 129.841 0.471355 1.97863 0
M  V30 1381 C 130.196 -0.962896 1.66572 0
M  V30 1382 O 129.489 -1.66686 0.944797 0
M  V30 1383 C 129.683 0.649919 3.51441 0
M  V30 1384 C 129.512 2.09997 3.97657 0
M  V30 1385 C 128.282 2.73893 4.2463 0
M  V30 1386 C 130.48 3.07081 4.1256 0
M  V30 1387 N 128.462 4.09786 4.57109 0
M  V30 1388 C 129.833 4.27968 4.48602 0
M  V30 1389 C 131.888 3.03247 3.949 0
M  V30 1390 C 130.591 5.45521 4.68827 0
M  V30 1391 C 132.617 4.20046 4.16311 0
M  V30 1392 C 131.979 5.39692 4.52672 0
M  V30 1393 H 128.078 0.221263 0.750044 0
M  V30 1394 H 130.662 1.10876 1.60045 0
M  V30 1395 H 128.833 0.0421938 3.88377 0
M  V30 1396 H 130.565 0.234044 4.04023 0
M  V30 1397 H 127.32 2.24918 4.16784 0
M  V30 1398 H 127.744 4.7989 4.7753 0
M  V30 1399 H 132.386 2.11863 3.65888 0
M  V30 1400 H 130.104 6.37434 4.96693 0
M  V30 1401 H 133.69 4.18517 4.04147 0
M  V30 1402 H 132.57 6.28566 4.68907 0
M  V30 1403 N 130.073 -1.45103 0.615059 0
M  V30 1404 C 131.322 -2.01396 0.110718 0
M  V30 1405 C 131.635 -1.48834 -1.26916 0
M  V30 1406 O 132.841 -1.97152 -1.86664 0
M  V30 1407 C 131.297 -3.59599 0.14723 0
M  V30 1408 C 130.905 -4.21158 1.52743 0
M  V30 1409 C 132.649 -4.23428 -0.30148 0
M  V30 1410 C 130.556 -5.71535 1.51992 0
M  V30 1411 H 129.486 -0.753061 0.0376241 0
M  V30 1412 H 132.137 -1.66494 0.77149 0
M  V30 1413 H 130.519 -3.91724 -0.580339 0
M  V30 1414 H 131.693 -4.00594 2.2773 0
M  V30 1415 H 130.008 -3.69552 1.91886 0
M  V30 1416 H 132.605 -5.33703 -0.326392 0
M  V30 1417 H 132.948 -3.94629 -1.32565 0
M  V30 1418 H 133.481 -3.96047 0.373065 0
M  V30 1419 H 130.22 -6.05044 2.52193 0
M  V30 1420 H 129.74 -5.94268 0.81274 0
M  V30 1421 H 131.419 -6.34873 1.24681 0
M  V30 1422 N 131.551 -0.354651 -1.53558 0
M  V30 1423 C 132.781 0.239167 -2.05211 0
M  V30 1424 C 133.189 1.43879 -1.22863 0
M  V30 1425 O 132.532 1.81857 -0.259565 0
M  V30 1426 C 132.594 0.707251 -3.52474 0
M  V30 1427 C 132.258 -0.374212 -4.55465 0
M  V30 1428 C 133.255 -1.22054 -5.0537 0
M  V30 1429 C 130.94 -0.531323 -4.99482 0
M  V30 1430 C 132.934 -2.20942 -5.97882 0
M  V30 1431 C 130.621 -1.52358 -5.91802 0
M  V30 1432 C 131.619 -2.36108 -6.40892 0
M  V30 1433 O 131.307 -3.33643 -7.31394 0
M  V30 1434 H 131.039 0.0479716 -0.674296 0
M  V30 1435 H 133.593 -0.508121 -1.99016 0
M  V30 1436 H 131.823 1.50596 -3.56171 0
M  V30 1437 H 133.512 1.22285 -3.87042 0
M  V30 1438 H 134.278 -1.1103 -4.7212 0
M  V30 1439 H 130.157 0.110738 -4.60867 0
M  V30 1440 H 133.701 -2.86348 -6.36121 0
M  V30 1441 H 129.598 -1.63434 -6.24467 0
M  V30 1442 H 130.366 -3.29244 -7.4936 0
M  V30 1443 N 133.029 1.57378 -0.0835403 0
M  V30 1444 C 134.277 1.93547 0.581718 0
M  V30 1445 C 134.598 0.96524 1.69435 0
M  V30 1446 O 133.868 0.0153369 1.95894 0
M  V30 1447 H 132.448 0.714521 0.217874 0
M  V30 1448 H 135.11 1.94366 -0.144158 0
M  V30 1449 H 134.206 2.95665 0.999423 0
M  V30 1450 N 134.507 -0.190092 1.56449 0
M  V30 1451 C 135.784 -0.935886 1.71757 0
M  V30 1452 C 136.164 -2.01173 0.639726 0
M  V30 1453 O 135.512 -2.25827 -0.348502 0
M  V30 1454 C 135.722 -1.51775 3.1427 0
M  V30 1455 C 137.07 -1.99794 3.74656 0
M  V30 1456 O 138.094 -1.61607 3.1743 0
M  V30 1457 O 136.953 -2.70079 4.751 0
M  V30 1458 H 134.047 -0.439229 0.700719 0
M  V30 1459 H 136.593 -0.179395 1.68749 0
M  V30 1460 H 135.365 -0.742505 3.84191 0
M  V30 1461 H 134.988 -2.33894 3.21527 0
M  V30 1462 N 135.985 -1.50799 -0.457987 0
M  V30 1463 C 137.231 -1.62683 -1.21088 0
M  V30 1464 C 137.564 -0.332268 -1.91336 0
M  V30 1465 O 136.839 0.667043 -1.82704 0
M  V30 1466 C 137.122 -2.81615 -2.24422 0
M  V30 1467 C 136.975 -4.20989 -1.58392 0
M  V30 1468 C 138.294 -2.96085 -3.2561 0
M  V30 1469 H 135.413 -0.592087 -0.438864 0
M  V30 1470 H 138.055 -1.83225 -0.50286 0
M  V30 1471 H 136.205 -2.64231 -2.84806 0
M  V30 1472 H 137.877 -4.49994 -1.01504 0
M  V30 1473 H 136.12 -4.24641 -0.886704 0
M  V30 1474 H 136.791 -5.0016 -2.33547 0
M  V30 1475 H 139.267 -3.12042 -2.75262 0
M  V30 1476 H 138.143 -3.80902 -3.95228 0
M  V30 1477 H 138.404 -2.0726 -3.90507 0
M  V30 1478 N 137.463 0.71206 -1.40597 0
M  V30 1479 C 138.393 1.83889 -1.43899 0
M  V30 1480 C 139.374 1.67442 -0.299504 0
M  V30 1481 O 140.559 1.87421 -0.508624 0
M  V30 1482 C 137.689 3.21877 -1.30431 0
M  V30 1483 C 136.643 3.53002 -2.42019 0
M  V30 1484 C 135.969 4.90172 -2.13626 0
M  V30 1485 C 137.269 3.53643 -3.84362 0
M  V30 1486 H 138.963 1.81383 -2.38203 0
M  V30 1487 H 136.509 0.871237 -1.14654 0
M  V30 1488 H 138.462 4.00404 -1.31357 0
M  V30 1489 H 137.186 3.24968 -0.326049 0
M  V30 1490 H 135.845 2.76818 -2.40349 0
M  V30 1491 H 135.493 4.89869 -1.14182 0
M  V30 1492 H 135.193 5.11962 -2.88389 0
M  V30 1493 H 136.717 5.71028 -2.1624 0
M  V30 1494 H 138.131 4.22203 -3.87837 0
M  V30 1495 H 136.528 3.86961 -4.58673 0
M  V30 1496 H 137.598 2.52954 -4.13693 0
M  V30 1497 N 138.941 1.26152 0.944643 0
M  V30 1498 C 140.181 1.12708 1.70517 0
M  V30 1499 C 140.545 -0.324727 1.89234 0
M  V30 1500 O 141.746 -0.581211 2.62441 0
M  V30 1501 C 140.017 1.8713 3.04495 0
M  V30 1502 S 141.576 1.89698 3.95677 0
M  V30 1503 H 138.394 0.402665 0.585988 0
M  V30 1504 H 140.996 1.59821 1.12594 0
M  V30 1505 H 139.7 2.91833 2.88551 0
M  V30 1506 H 139.231 1.40444 3.67477 0
M  V30 1507 H 141.246 0.981198 4.86402 0
M  V30 1508 N 140.419 -1.14872 1.07899 0
M  V30 1509 C 141.668 -1.85135 0.800499 0
M  V30 1510 C 141.981 -1.83547 -0.676014 0
M  V30 1511 O 143.187 -2.49548 -1.06948 0
M  V30 1512 C 141.643 -3.3231 1.38197 0
M  V30 1513 C 141.251 -3.42329 2.8899 0
M  V30 1514 C 142.995 -4.0772 1.18174 0
M  V30 1515 C 140.902 -4.83684 3.403 0
M  V30 1516 H 139.832 -0.693563 0.29578 0
M  V30 1517 H 142.483 -1.29532 1.29976 0
M  V30 1518 H 140.865 -3.87618 0.810431 0
M  V30 1519 H 142.039 -2.97097 3.52236 0
M  V30 1520 H 140.354 -2.80369 3.07867 0
M  V30 1521 H 142.951 -5.12049 1.5398 0
M  V30 1522 H 143.294 -4.16124 0.12117 0
M  V30 1523 H 143.827 -3.58696 1.71994 0
M  V30 1524 H 140.566 -4.80465 4.45907 0
M  V30 1525 H 140.086 -5.29474 2.81811 0
M  V30 1526 H 141.765 -5.52558 3.36584 0
M  V30 1527 N 141.898 -0.863906 -1.31812 0
M  V30 1528 C 143.123 -0.48527 -2.01643 0
M  V30 1529 C 143.548 0.913058 -1.64453 0
M  V30 1530 O 142.906 1.6014 -0.849985 0
M  V30 1531 C 142.954 -0.642625 -3.54828 0
M  V30 1532 O 142.058 0.320659 -4.11151 0
M  V30 1533 H 141.399 -0.193793 -0.635091 0
M  V30 1534 H 143.929 -1.16565 -1.68148 0
M  V30 1535 H 143.939 -0.533628 -4.04495 0
M  V30 1536 H 142.614 -1.66227 -3.81237 0
M  V30 1537 H 141.191 0.167126 -3.72525 0
M  V30 1538 N 143.376 1.44774 -0.622745 0
M  V30 1539 C 144.324 2.32387 0.0994683 0
M  V30 1540 C 145.318 1.46859 0.844326 0
M  V30 1541 O 146.524 1.63254 0.758174 0
M  V30 1542 H 142.899 0.750273 0.0509291 0
M  V30 1543 H 144.87 2.91062 -0.65767 0
M  V30 1544 C 143.619 3.30723 1.07319 0
M  V30 1545 H 142.942 3.96541 0.509462 0
M  V30 1546 H 144.382 3.94725 1.54817 0
M  V30 1547 C 142.841 2.59021 2.15429 0
M  V30 1548 O 143.371 2.38286 3.23393 0
M  V30 1549 N 141.577 2.189 1.91131 0
M  V30 1550 H 141.124 2.35964 1.03337 0
M  V30 1551 H 141.082 1.71251 2.63668 0
M  V30 1552 N 144.854 0.36279 1.53368 0
M  V30 1553 C 146.27 0.0116182 1.59596 0
M  V30 1554 C 146.47 -1.47012 1.37803 0
M  V30 1555 O 145.526 -2.23136 1.18181 0
M  V30 1556 C 146.839 0.465052 2.97082 0
M  V30 1557 C 148.387 0.419033 3.10182 0
M  V30 1558 C 148.862 0.848235 4.50077 0
M  V30 1559 N 150.353 0.803183 4.56183 0
M  V30 1560 C 151.088 1.107 5.62613 0
M  V30 1561 N 150.584 1.47996 6.76808 0
M  V30 1562 N 152.377 1.02998 5.52583 0
M  V30 1563 H 144.528 1.32775 1.65785 0
M  V30 1564 H 146.791 0.542518 0.777417 0
M  V30 1565 H 146.497 1.49892 3.18159 0
M  V30 1566 H 146.371 -0.149786 3.76902 0
M  V30 1567 H 148.758 -0.605696 2.88817 0
M  V30 1568 H 148.839 1.06933 2.32377 0
M  V30 1569 H 148.483 1.87107 4.7218 0
M  V30 1570 H 148.413 0.175218 5.26308 0
M  V30 1571 H 150.904 0.52838 3.74188 0
M  V30 1572 H 151.217 1.69613 7.53957 0
M  V30 1573 H 149.562 1.51859 6.78206 0
M  V30 1574 H 152.753 0.737817 4.62249 0
M  V30 1575 H 152.926 1.2701 6.35431 0
M  V30 1576 N 146.332 -1.57332 0.0918853 0
M  V30 1577 C 147.562 -1.98286 -0.580205 0
M  V30 1578 C 147.97 -0.969713 -1.6246 0
M  V30 1579 O 147.313 0.0493501 -1.83634 0
M  V30 1580 C 147.375 -3.35603 -1.28882 0
M  V30 1581 C 147.039 -4.55285 -0.395559 0
M  V30 1582 C 148.036 -5.18687 0.355002 0
M  V30 1583 C 145.721 -5.01314 -0.314556 0
M  V30 1584 C 147.715 -6.26484 1.17458 0
M  V30 1585 C 145.402 -6.08979 0.508677 0
M  V30 1586 C 146.4 -6.71429 1.2519 0
M  V30 1587 O 146.088 -7.77018 2.06151 0
M  V30 1588 H 145.82 -0.656678 -0.160466 0
M  V30 1589 H 148.374 -2.04721 0.16688 0
M  V30 1590 H 146.604 -3.25842 -2.08241 0
M  V30 1591 H 148.293 -3.61026 -1.85512 0
M  V30 1592 H 149.059 -4.84058 0.302134 0
M  V30 1593 H 144.938 -4.5247 -0.882697 0
M  V30 1594 H 148.482 -6.75159 1.75518 0
M  V30 1595 H 144.379 -6.4304 0.563037 0
M  V30 1596 H 145.147 -7.93991 1.98799 0
M  V30 1597 N 147.81 0.181792 -1.56548 0
M  V30 1598 C 149.056 0.901431 -1.81665 0
M  V30 1599 C 149.389 1.82347 -0.668075 0
M  V30 1600 O 148.664 1.91669 0.330615 0
M  V30 1601 C 148.947 1.70618 -3.17115 0
M  V30 1602 C 148.8 0.807964 -4.42484 0
M  V30 1603 C 150.119 2.67605 -3.49393 0
M  V30 1604 H 147.238 0.32627 -0.660846 0
M  V30 1605 H 149.88 0.168134 -1.89255 0
M  V30 1606 H 148.03 2.33133 -3.10775 0
M  V30 1607 H 149.702 0.19649 -4.60881 0
M  V30 1608 H 147.945 0.115411 -4.33646 0
M  V30 1609 H 148.616 1.40632 -5.33785 0
M  V30 1610 H 151.092 2.15218 -3.56118 0
M  V30 1611 H 149.968 3.20985 -4.45264 0
M  V30 1612 H 150.229 3.47298 -2.73563 0
M  V30 1613 N 149.288 1.51039 0.449983 0
M  V30 1614 C 150.218 1.74379 1.55288 0
M  V30 1615 C 151.199 0.593236 1.5942 0
M  V30 1616 O 152.384 0.834625 1.7535 0
M  V30 1617 C 149.514 1.85728 2.93466 0
M  V30 1618 C 148.468 3.01078 3.04197 0
M  V30 1619 C 147.794 2.97595 4.44231 0
M  V30 1620 C 149.094 4.41254 2.7945 0
M  V30 1621 H 150.788 2.66725 1.36008 0
M  V30 1622 H 148.334 1.2835 0.652864 0
M  V30 1623 H 150.287 2.0064 3.70569 0
M  V30 1624 H 149.011 0.900207 3.13949 0
M  V30 1625 H 147.67 2.85851 2.29531 0
M  V30 1626 H 147.318 1.99691 4.61663 0
M  V30 1627 H 147.018 3.75046 4.52343 0
M  V30 1628 H 148.542 3.14583 5.23326 0
M  V30 1629 H 149.956 4.56897 3.46292 0
M  V30 1630 H 148.353 5.20315 2.98985 0
M  V30 1631 H 149.423 4.52164 1.75144 0
M  V30 1632 N 150.766 -0.704594 1.40972 0
M  V30 1633 C 151.716 -1.81051 1.38581 0
M  V30 1634 C 152.7 -1.58759 0.261585 0
M  V30 1635 O 153.892 -1.69745 0.501556 0
M  V30 1636 C 151.021 -3.19279 1.26157 0
M  V30 1637 C 150.107 -3.47296 2.43405 0
M  V30 1638 N 150.498 -3.46064 3.68881 0
M  V30 1639 C 148.796 -3.77804 2.37023 0
M  V30 1640 C 149.497 -3.72733 4.46592 0
M  V30 1641 N 148.473 -3.9203 3.76581 0
M  V30 1642 H 152.275 -1.78448 2.33525 0
M  V30 1643 H 149.789 -0.904198 1.349 0
M  V30 1644 H 151.786 -3.98488 1.22526 0
M  V30 1645 H 150.446 -3.231 0.321902 0
M  V30 1646 H 151.457 -3.26656 4.01891 0
M  V30 1647 H 148.134 -3.8905 1.51481 0
M  V30 1648 H 149.524 -3.77993 5.55492 0
M  V30 1649 N 152.244 -1.26651 -0.937939 0
M  V30 1650 C 153.207 -1.08546 -2.01867 0
M  V30 1651 C 154.207 -0.0327327 -1.60767 0
M  V30 1652 O 155.397 -0.276427 -1.71993 0
M  V30 1653 C 152.529 -0.651711 -3.34613 0
M  V30 1654 H 153.722 -2.04502 -2.1936 0
M  V30 1655 H 151.275 -1.09294 -1.11734 0
M  V30 1656 H 152.01 0.309696 -3.22818 0
M  V30 1657 H 151.795 -1.41189 -3.65798 0
M  V30 1658 H 153.285 -0.546973 -4.14002 0
M  V30 1659 N 153.722 1.14298 -1.08507 0
M  V30 1660 C 154.67 2.21483 -0.710483 0
M  V30 1661 C 155.664 1.66998 0.284234 0
M  V30 1662 O 156.87 1.79401 0.146692 0
M  V30 1663 H 153.245 0.721578 -0.211729 0
M  V30 1664 H 155.216 2.50348 -1.62384 0
M  V30 1665 C 153.965 3.4743 -0.137007 0
M  V30 1666 H 153.288 3.89686 -0.893592 0
M  V30 1667 H 154.728 4.2391 0.0872789 0
M  V30 1668 C 153.187 3.17548 1.12538 0
M  V30 1669 O 153.717 3.35437 2.21009 0
M  V30 1670 N 151.923 2.71499 1.03617 0
M  V30 1671 H 151.47 2.57143 0.153403 0
M  V30 1672 H 151.428 2.51881 1.88158 0
M  V30 1673 N 155.201 0.870884 1.31352 0
M  V30 1674 C 156.131 0.343096 2.30966 0
M  V30 1675 C 157.112 -0.566507 1.60389 0
M  V30 1676 O 158.297 -0.483336 1.88089 0
M  V30 1677 C 155.427 -0.455487 3.443 0
M  V30 1678 C 154.381 0.361103 4.26474 0
M  V30 1679 C 153.707 -0.563221 5.31725 0
M  V30 1680 C 155.007 1.59566 4.97329 0
M  V30 1681 H 156.701 1.17548 2.75359 0
M  V30 1682 H 154.247 0.566686 1.32381 0
M  V30 1683 H 156.2 -0.83525 4.13039 0
M  V30 1684 H 154.924 -1.32139 2.98675 0
M  V30 1685 H 153.583 0.722825 3.59403 0
M  V30 1686 H 153.231 -1.42643 4.82351 0
M  V30 1687 H 152.931 -0.0207409 5.87596 0
M  V30 1688 H 154.455 -0.939808 6.03324 0
M  V30 1689 H 155.869 1.28728 5.58661 0
M  V30 1690 H 154.266 2.07728 5.63 0
M  V30 1691 H 155.336 2.34798 4.24262 0
M  V30 1692 N 156.679 -1.44442 0.630414 0
M  V30 1693 C 157.909 -2.06115 0.141465 0
M  V30 1694 C 158.317 -1.47179 -1.1889 0
M  V30 1695 O 157.66 -0.588873 -1.74006 0
M  V30 1696 C 157.722 -3.59467 -0.0484355 0
M  V30 1697 C 157.386 -4.40864 1.20366 0
M  V30 1698 C 158.383 -4.74391 2.12719 0
M  V30 1699 C 156.068 -4.8125 1.43887 0
M  V30 1700 C 158.062 -5.47186 3.26904 0
M  V30 1701 C 155.749 -5.53795 2.5837 0
M  V30 1702 C 156.747 -5.86682 3.49705 0
M  V30 1703 O 156.435 -6.57749 4.62191 0
M  V30 1704 H 156.167 -0.671648 0.0765792 0
M  V30 1705 H 158.721 -1.86312 0.864695 0
M  V30 1706 H 156.951 -3.77758 -0.826803 0
M  V30 1707 H 158.64 -4.02909 -0.491849 0
M  V30 1708 H 159.406 -4.43728 1.95781 0
M  V30 1709 H 155.285 -4.55073 0.736853 0
M  V30 1710 H 158.829 -5.72773 3.98217 0
M  V30 1711 H 154.726 -5.83872 2.75251 0
M  V30 1712 H 155.494 -6.76217 4.61164 0
M  V30 1713 N 158.157 -0.370918 -1.53173 0
M  V30 1714 C 159.385 0.217704 -2.05751 0
M  V30 1715 C 159.8 1.42018 -1.24404 0
M  V30 1716 O 159.157 1.80245 -0.286033 0
M  V30 1717 C 159.208 0.605954 -3.56385 0
M  V30 1718 O 158.929 -0.548734 -4.3465 0
M  V30 1719 C 160.43 1.2524 -4.25241 0
M  V30 1720 H 157.65 0.0371659 -0.66997 0
M  V30 1721 H 160.194 -0.530832 -1.9749 0
M  V30 1722 H 158.349 1.3044 -3.6478 0
M  V30 1723 H 158.763 -0.23376 -5.23979 0
M  V30 1724 H 160.237 1.47458 -5.3194 0
M  V30 1725 H 160.714 2.2143 -3.79296 0
M  V30 1726 H 161.32 0.595233 -4.21114 0
M  V30 1727 N 159.635 1.57281 -0.100228 0
M  V30 1728 C 160.86 1.99302 0.573881 0
M  V30 1729 C 161.285 0.979059 1.60611 0
M  V30 1730 O 160.643 -0.0517803 1.81226 0
M  V30 1731 C 160.691 3.40274 1.19358 0
M  V30 1732 O 159.795 3.41676 2.30935 0
M  V30 1733 H 159.136 0.647944 0.145138 0
M  V30 1734 H 161.666 2.03779 -0.183156 0
M  V30 1735 H 161.676 3.78078 1.53365 0
M  V30 1736 H 160.351 4.13594 0.437385 0
M  V30 1737 H 158.928 3.15672 1.98509 0
M  V30 1738 N 161.113 -0.173488 1.56642 0
M  V30 1739 C 162.362 -0.888758 1.81063 0
M  V30 1740 C 162.675 -1.83506 0.67712 0
M  V30 1741 O 163.881 -2.59254 0.806206 0
M  V30 1742 C 162.337 -1.63091 3.20826 0
M  V30 1743 C 161.945 -0.728357 4.4204 0
M  V30 1744 C 163.689 -2.33454 3.54541 0
M  V30 1745 C 161.596 -1.47062 5.72823 0
M  V30 1746 H 160.526 -0.335618 0.675186 0
M  V30 1747 H 163.177 -0.141712 1.82952 0
M  V30 1748 H 161.559 -2.42263 3.13248 0
M  V30 1749 H 162.733 0.0262449 4.60793 0
M  V30 1750 H 161.048 -0.134492 4.16183 0
M  V30 1751 H 163.645 -2.89578 4.49498 0
M  V30 1752 H 163.988 -3.08687 2.79317 0
M  V30 1753 H 164.521 -1.61227 3.63663 0
M  V30 1754 H 161.26 -0.760658 6.51072 0
M  V30 1755 H 160.78 -2.1986 5.58052 0
M  V30 1756 H 162.459 -2.01868 6.14702 0
M  V30 1757 N 162.591 -1.51276 -0.441967 0
M  V30 1758 C 163.521 -1.752 -1.54361 0
M  V30 1759 C 164.502 -0.601682 -1.59103 0
M  V30 1760 O 165.687 -0.843913 -1.74905 0
M  V30 1761 C 162.817 -1.87282 -2.92477 0
M  V30 1762 C 161.771 -3.02687 -3.02596 0
M  V30 1763 C 161.097 -2.99947 -4.42647 0
M  V30 1764 C 162.397 -4.4273 -2.77106 0
M  V30 1765 H 164.091 -2.67442 -1.34592 0
M  V30 1766 H 161.637 -1.28694 -0.646048 0
M  V30 1767 H 163.59 -2.02602 -3.695 0
M  V30 1768 H 162.314 -0.916844 -3.13467 0
M  V30 1769 H 160.973 -2.87065 -2.28012 0
M  V30 1770 H 160.621 -2.02136 -4.60597 0
M  V30 1771 H 160.321 -3.77439 -4.50348 0
M  V30 1772 H 161.845 -3.17354 -5.2165 0
M  V30 1773 H 163.259 -4.58727 -3.43864 0
M  V30 1774 H 161.656 -5.21893 -2.96222 0
M  V30 1775 H 162.726 -4.53087 -1.72744 0
M  V30 1776 N 164.069 0.697108 -1.41344 0
M  V30 1777 C 165.316 1.45714 -1.40619 0
M  V30 1778 C 165.644 1.94494 -0.0147907 0
M  V30 1779 O 164.899 1.69794 0.973066 0
M  V30 1780 C 165.198 2.68553 -2.35826 0
M  V30 1781 C 164.864 2.38438 -3.82698 0
M  V30 1782 C 163.526 2.29936 -4.22709 0
M  V30 1783 C 165.878 2.13567 -4.75435 0
M  V30 1784 C 163.206 1.94656 -5.53467 0
M  V30 1785 C 165.558 1.79797 -6.06511 0
M  V30 1786 C 164.222 1.69789 -6.45545 0
M  V30 1787 H 163.492 0.533206 -0.51456 0
M  V30 1788 H 166.139 0.796901 -1.74131 0
M  V30 1789 H 164.444 3.39503 -1.95563 0
M  V30 1790 H 166.141 3.2669 -2.32539 0
M  V30 1791 H 162.731 2.4595 -3.51008 0
M  V30 1792 H 166.915 2.19082 -4.45328 0
M  V30 1793 H 162.171 1.8546 -5.82593 0
M  V30 1794 H 166.345 1.59572 -6.77872 0
M  V30 1795 H 163.972 1.4222 -7.46778 0
M  V30 1796 N 165.547 1.27147 0.931209 0
M  V30 1797 C 166.477 1.12081 2.04842 0
M  V30 1798 C 167.458 0.0232364 1.70084 0
M  V30 1799 O 168.643 0.197085 1.93197 0
M  V30 1800 C 165.773 0.76354 3.38803 0
M  V30 1801 C 164.727 1.81396 3.87659 0
M  V30 1802 C 164.053 1.31075 5.18385 0
M  V30 1803 C 165.353 3.21739 4.11438 0
M  V30 1804 H 167.047 2.05537 2.17703 0
M  V30 1805 H 164.593 0.989603 1.04608 0
M  V30 1806 H 166.546 0.644982 4.16435 0
M  V30 1807 H 165.27 -0.206727 3.25945 0
M  V30 1808 H 163.929 1.92136 3.12217 0
M  V30 1809 H 163.577 0.330037 5.01916 0
M  V30 1810 H 163.277 2.013 5.52044 0
M  V30 1811 H 164.801 1.20506 5.98591 0
M  V30 1812 H 166.215 3.14019 4.79651 0
M  V30 1813 H 164.612 3.89644 4.56397 0
M  V30 1814 H 165.682 3.67054 3.16859 0
M  V30 1815 N 167.025 -1.13721 1.09112 0
M  V30 1816 C 168.253 -1.88773 0.846899 0
M  V30 1817 C 168.668 -1.7896 -0.601572 0
M  V30 1818 O 168.025 -1.15394 -1.41388 0
M  V30 1819 C 168.076 -3.3849 1.26913 0
M  V30 1820 O 167.797 -3.48043 2.66079 0
M  V30 1821 C 169.298 -4.30518 1.05682 0
M  V30 1822 H 166.518 -0.59772 0.304914 0
M  V30 1823 H 169.062 -1.43977 1.45227 0
M  V30 1824 H 167.217 -3.80881 0.707723 0
M  V30 1825 H 167.631 -4.4109 2.83795 0
M  V30 1826 H 169.105 -5.3391 1.40156 0
M  V30 1827 H 169.582 -4.392 -0.00563416 0
M  V30 1828 H 170.188 -3.93893 1.60402 0
M  V30 1829 N 168.503 -0.877838 -1.30888 0
M  V30 1830 C 169.75 -0.492696 -1.96415 0
M  V30 1831 C 170.078 0.956671 -1.69346 0
M  V30 1832 O 169.333 1.68993 -0.986913 0
M  V30 1833 C 169.632 -0.705748 -3.50363 0
M  V30 1834 C 169.298 -2.1291 -3.97467 0
M  V30 1835 C 167.96 -2.51834 -4.1004 0
M  V30 1836 C 170.312 -3.05702 -4.22132 0
M  V30 1837 C 167.64 -3.82775 -4.44635 0
M  V30 1838 C 169.992 -4.36166 -4.58194 0
M  V30 1839 C 168.656 -4.74993 -4.68975 0
M  V30 1840 H 167.926 -0.18029 -0.718733 0
M  V30 1841 H 170.573 -1.11233 -1.55883 0
M  V30 1842 H 168.878 -0.00303058 -3.918 0
M  V30 1843 H 170.575 -0.387456 -3.99124 0
M  V30 1844 H 167.165 -1.81694 -3.88182 0
M  V30 1845 H 171.349 -2.76853 -4.11906 0
M  V30 1846 H 166.605 -4.12609 -4.51181 0
M  V30 1847 H 170.779 -5.08111 -4.76231 0
M  V30 1848 H 168.406 -5.76495 -4.95537 0
M  V30 1849 N 169.982 1.44106 -0.638065 0
M  V30 1850 C 171.231 2.01194 -0.142744 0
M  V30 1851 C 171.544 1.50835 1.24532 0
M  V30 1852 O 172.75 2.00096 1.83504 0
M  V30 1853 C 171.206 3.59319 -0.20442 0
M  V30 1854 C 170.814 4.18674 -1.59423 0
M  V30 1855 C 172.558 4.23854 0.234079 0
M  V30 1856 C 170.465 5.69045 -1.61065 0
M  V30 1857 H 169.395 0.752367 -0.0495998 0
M  V30 1858 H 172.046 1.65246 -0.797881 0
M  V30 1859 H 170.428 3.92598 0.517946 0
M  V30 1860 H 171.602 3.96921 -2.34074 0
M  V30 1861 H 169.917 3.66453 -1.97741 0
M  V30 1862 H 172.514 5.34155 0.241443 0
M  V30 1863 H 172.857 3.96688 1.2627 0
M  V30 1864 H 173.39 3.95403 -0.436025 0
M  V30 1865 H 170.129 6.00956 -2.61787 0
M  V30 1866 H 169.649 5.929 -0.90718 0
M  V30 1867 H 171.328 6.32809 -1.34766 0
M  V30 1868 N 171.46 0.379036 1.52974 0
M  V30 1869 C 172.685 -0.209353 2.06341 0
M  V30 1870 C 173.11 -1.40583 1.24972 0
M  V30 1871 O 172.468 -1.79246 0.272155 0
M  V30 1872 C 172.516 -0.567786 3.56102 0
M  V30 1873 O 171.62 -1.66318 3.77375 0
M  V30 1874 H 170.961 -0.0272919 0.663439 0
M  V30 1875 H 173.491 0.543536 1.97248 0
M  V30 1876 H 173.501 -0.835003 3.99364 0
M  V30 1877 H 172.176 0.307013 4.14765 0
M  V30 1878 H 170.753 -1.39048 3.46006 0
M  V30 1879 N 172.938 -1.57226 0.108567 0
M  V30 1880 C 174.187 -1.94008 -0.551703 0
M  V30 1881 C 174.5 -0.993442 -1.68494 0
M  V30 1882 O 175.706 -1.25551 -2.40726 0
M  V30 1883 C 174.162 -3.44763 -1.03279 0
M  V30 1884 C 173.77 -4.47943 0.0714193 0
M  V30 1885 C 175.514 -3.90483 -1.66503 0
M  V30 1886 C 173.421 -5.89865 -0.425779 0
M  V30 1887 H 172.351 -0.724206 -0.209863 0
M  V30 1888 H 175.002 -1.82547 0.186741 0
M  V30 1889 H 173.384 -3.51422 -1.82533 0
M  V30 1890 H 174.558 -4.52942 0.847365 0
M  V30 1891 H 172.873 -4.11913 0.609669 0
M  V30 1892 H 175.47 -4.93925 -2.04798 0
M  V30 1893 H 175.813 -3.29877 -2.53942 0
M  V30 1894 H 176.346 -3.86581 -0.938074 0
M  V30 1895 H 173.085 -6.54202 0.412316 0
M  V30 1896 H 172.605 -5.88309 -1.16843 0
M  V30 1897 H 174.284 -6.40844 -0.890397 0
M  V30 1898 N 174.416 0.165178 -1.56732 0
M  V30 1899 C 175.693 0.908443 -1.73224 0
M  V30 1900 C 176.073 2.0013 -0.67165 0
M  V30 1901 O 175.421 2.26353 0.31253 0
M  V30 1902 C 175.631 1.46756 -3.16644 0
M  V30 1903 C 176.979 1.93809 -3.77787 0
M  V30 1904 O 178.003 1.56537 -3.1996 0
M  V30 1905 O 176.862 2.62486 -4.79336 0
M  V30 1906 H 173.956 0.428025 -0.707618 0
M  V30 1907 H 176.502 0.152526 -1.69013 0
M  V30 1908 H 175.274 0.68129 -3.85323 0
M  V30 1909 H 174.897 2.28749 -3.25207 0
M  V30 1910 N 175.894 1.51508 0.433938 0
M  V30 1911 C 177.31 1.39759 0.770682 0
M  V30 1912 C 177.51 0.482594 1.95636 0
M  V30 1913 O 176.566 -0.0609691 2.52426 0
M  V30 1914 C 177.879 2.81851 1.04787 0
M  V30 1915 C 179.427 2.91025 1.1521 0
M  V30 1916 C 179.902 4.34032 1.46219 0
M  V30 1917 N 181.393 4.37154 1.53136 0
M  V30 1918 C 182.128 5.4484 1.78709 0
M  V30 1919 N 181.624 6.62682 2.02051 0
M  V30 1920 N 183.417 5.32324 1.80519 0
M  V30 1921 H 175.568 2.09548 -0.346892 0
M  V30 1922 H 177.831 0.943446 -0.0928074 0
M  V30 1923 H 177.537 3.50815 0.249304 0
M  V30 1924 H 177.411 3.21386 1.97461 0
M  V30 1925 H 179.798 2.22257 1.94128 0
M  V30 1926 H 179.879 2.54983 0.204281 0
M  V30 1927 H 179.523 5.03351 0.678274 0
M  V30 1928 H 179.453 4.6759 2.42212 0
M  V30 1929 H 181.944 3.52197 1.36987 0
M  V30 1930 H 182.257 7.40543 2.20943 0
M  V30 1931 H 180.602 6.65791 1.99366 0
M  V30 1932 H 183.793 4.39246 1.61805 0
M  V30 1933 H 183.966 6.16328 2.00111 0
M  V30 1934 N 177.372 -0.689602 1.41712 0
M  V30 1935 C 178.602 -1.47613 1.44548 0
M  V30 1936 C 179.01 -1.89132 0.0509034 0
M  V30 1937 O 178.353 -1.57741 -0.94146 0
M  V30 1938 C 178.415 -2.76596 2.2964 0
M  V30 1939 C 178.079 -2.57245 3.77722 0
M  V30 1940 C 179.076 -2.22804 4.69739 0
M  V30 1941 C 176.761 -2.727 4.2183 0
M  V30 1942 C 178.755 -2.04064 6.03851 0
M  V30 1943 C 176.442 -2.53576 5.56006 0
M  V30 1944 C 177.44 -2.1931 6.46832 0
M  V30 1945 O 177.128 -2.00359 7.78532 0
M  V30 1946 H 176.86 -0.461227 0.494212 0
M  V30 1947 H 179.414 -0.856045 1.86711 0
M  V30 1948 H 177.644 -3.41033 1.82301 0
M  V30 1949 H 179.333 -3.38424 2.24107 0
M  V30 1950 H 180.099 -2.10473 4.36951 0
M  V30 1951 H 175.978 -2.98353 3.51435 0
M  V30 1952 H 179.522 -1.77241 6.74708 0
M  V30 1953 H 175.419 -2.65499 5.88371 0
M  V30 1954 H 176.187 -2.15075 7.89737 0
M  V30 1955 N 178.85 -1.27639 -0.924453 0
M  V30 1956 C 179.78 -1.13166 -2.04244 0
M  V30 1957 C 180.761 -0.032256 -1.70069 0
M  V30 1958 O 181.946 -0.207328 -1.9309 0
M  V30 1959 C 179.076 -0.781496 -3.38393 0
M  V30 1960 C 178.03 -1.83449 -3.86692 0
M  V30 1961 C 177.356 -1.33822 -5.17683 0
M  V30 1962 C 178.656 -3.23917 -4.09726 0
M  V30 1963 H 180.35 -2.06689 -2.1661 0
M  V30 1964 H 177.896 -0.995136 -1.04082 0
M  V30 1965 H 179.849 -0.667057 -4.16087 0
M  V30 1966 H 178.573 0.189439 -3.2605 0
M  V30 1967 H 177.232 -1.93789 -3.11193 0
M  V30 1968 H 176.88 -0.35665 -5.01734 0
M  V30 1969 H 176.58 -2.04224 -5.50968 0
M  V30 1970 H 178.104 -1.23679 -5.97943 0
M  V30 1971 H 179.518 -3.16559 -4.77978 0
M  V30 1972 H 177.915 -3.92059 -4.54324 0
M  V30 1973 H 178.985 -3.68729 -3.14908 0
M  V30 1974 N 180.328 1.1314 -1.09713 0
M  V30 1975 C 181.577 1.83838 -0.829851 0
M  V30 1976 C 181.89 1.84599 0.646728 0
M  V30 1977 O 183.096 2.51218 1.02965 0
M  V30 1978 C 181.552 3.30069 -1.43466 0
M  V30 1979 C 181.16 3.37688 -2.94399 0
M  V30 1980 C 182.904 4.05788 -1.24645 0
M  V30 1981 C 180.811 4.78209 -3.47952 0
M  V30 1982 H 179.741 0.68877 -0.306777 0
M  V30 1983 H 182.392 1.27448 -1.3202 0
M  V30 1984 H 180.774 3.8628 -0.871996 0
M  V30 1985 H 181.948 2.91456 -3.56918 0
M  V30 1986 H 180.263 2.75436 -3.12289 0
M  V30 1987 H 182.86 5.09535 -1.62107 0
M  V30 1988 H 183.203 4.15878 -0.187357 0
M  V30 1989 H 183.736 3.55915 -1.77678 0
M  V30 1990 H 180.475 4.73311 -4.53495 0
M  V30 1991 H 179.995 5.24924 -2.90198 0
M  V30 1992 H 181.674 5.47133 -3.45332 0
M  V30 1993 N 181.806 0.884767 1.30421 0
M  V30 1994 C 183.055 0.499164 1.95426 0
M  V30 1995 C 183.368 -0.95645 1.70621 0
M  V30 1996 O 184.574 -1.44889 2.29607 0
M  V30 1997 C 183.03 0.84177 3.49917 0
M  V30 1998 C 182.638 2.31514 3.83543 0
M  V30 1999 C 184.382 0.525355 4.21237 0
M  V30 2000 C 182.289 2.59939 5.31212 0
M  V30 2001 H 181.219 0.182944 0.73147 0
M  V30 2002 H 183.87 1.07971 1.48373 0
M  V30 2003 H 182.252 0.190311 3.95542 0
M  V30 2004 H 183.426 3.0109 3.48829 0
M  V30 2005 H 181.741 2.59907 3.25326 0
M  V30 2006 H 184.338 0.714762 5.29901 0
M  V30 2007 H 184.681 -0.535222 4.12845 0
M  V30 2008 H 185.214 1.134 3.81294 0
M  V30 2009 H 181.953 3.64736 5.44654 0
M  V30 2010 H 181.473 1.94972 5.67227 0
M  V30 2011 H 183.152 2.45429 5.98643 0
M  V30 2012 N 183.284 -1.43765 0.645699 0
M  V30 2013 C 184.231 -2.30745 -0.0504648 0
M  V30 2014 C 185.201 -1.4432 -0.822241 0
M  V30 2015 O 186.386 -1.73202 -0.800358 0
M  V30 2016 C 183.526 -3.29802 -1.0161 0
M  V30 2017 C 182.639 -4.31326 -0.241219 0
M  V30 2018 C 181.774 -5.17469 -1.19998 0
M  V30 2019 C 180.813 -6.10691 -0.415094 0
M  V30 2020 N 179.95 -6.89483 -1.32506 0
M  V30 2021 H 184.79 -2.8973 0.697155 0
M  V30 2022 H 182.327 -1.42738 0.355563 0
M  V30 2023 H 184.285 -3.85734 -1.58949 0
M  V30 2024 H 182.915 -2.72483 -1.73069 0
M  V30 2025 H 181.967 -3.77749 0.448334 0
M  V30 2026 H 183.279 -4.9743 0.369437 0
M  V30 2027 H 182.433 -5.7799 -1.84424 0
M  V30 2028 H 181.172 -4.51473 -1.84455 0
M  V30 2029 H 180.177 -5.49265 0.242565 0
M  V30 2030 H 181.402 -6.78727 0.224966 0
M  V30 2031 H 179.348 -6.26142 -1.95657 0
M  V30 2032 H 179.265 -7.52081 -0.768783 0
M  V30 2033 H 180.533 -7.54516 -1.9577 0
M  V30 2034 N 184.763 -0.387143 -1.52771 0
M  V30 2035 C 185.993 0.195585 -2.05672 0
M  V30 2036 C 186.401 1.41241 -1.25887 0
M  V30 2037 O 185.744 1.81265 -0.298081 0
M  V30 2038 C 185.806 0.632327 -3.53895 0
M  V30 2039 C 185.47 -0.470739 -4.54569 0
M  V30 2040 C 186.467 -1.32746 -5.02667 0
M  V30 2041 C 184.152 -0.637151 -4.98243 0
M  V30 2042 C 186.146 -2.33574 -5.93061 0
M  V30 2043 C 183.833 -1.64877 -5.88438 0
M  V30 2044 C 184.831 -2.49649 -6.35739 0
M  V30 2045 O 184.519 -3.49082 -7.24153 0
M  V30 2046 H 184.251 0.033658 -0.675162 0
M  V30 2047 H 186.805 -0.550221 -1.97893 0
M  V30 2048 H 185.035 1.43008 -3.59285 0
M  V30 2049 H 186.724 1.14048 -3.89548 0
M  V30 2050 H 187.49 -1.21019 -4.69659 0
M  V30 2051 H 183.369 0.0129567 -4.60998 0
M  V30 2052 H 186.913 -2.99777 -6.29904 0
M  V30 2053 H 182.81 -1.76643 -6.2086 0
M  V30 2054 H 183.578 -3.45065 -7.42208 0
M  V30 2055 N 186.241 1.57166 -0.116904 0
M  V30 2056 C 187.652 1.82169 0.408809 0
M  V30 2057 C 188.003 1.03393 1.66746 0
M  V30 2058 O 187.128 0.269886 2.1471 0
M  V30 2059 C 187.723 3.30429 0.748466 0
M  V30 2060 C 186.282 3.5612 1.21882 0
M  V30 2061 C 185.429 2.76374 0.226452 0
M  V30 2062 H 188.38 1.5497 -0.342063 0
M  V30 2063 H 188.401 3.44943 1.60607 0
M  V30 2064 H 187.913 3.87737 -0.167784 0
M  V30 2065 H 186.014 3.04168 2.15204 0
M  V30 2066 H 186.127 4.64705 1.16559 0
M  V30 2067 H 184.491 2.44515 0.713063 0
M  V30 2068 H 185.274 3.3644 -0.682859 0
M  V30 2069 N 187.719 -0.156864 1.56817 0
M  V30 2070 C 188.966 -0.871125 1.82805 0
M  V30 2071 C 189.294 -1.81611 0.696262 0
M  V30 2072 O 188.549 -1.93141 -0.315459 0
M  V30 2073 C 188.848 -1.68737 3.1506 0
M  V30 2074 C 188.514 -0.890045 4.42028 0
M  V30 2075 C 187.176 -0.670042 4.76512 0
M  V30 2076 C 189.528 -0.331769 5.20143 0
M  V30 2077 C 186.856 0.119104 5.86579 0
M  V30 2078 C 189.208 0.444365 6.31037 0
M  V30 2079 C 187.872 0.675035 6.64078 0
M  V30 2080 H 187.142 -0.318767 0.668931 0
M  V30 2081 H 189.789 -0.135274 1.91022 0
M  V30 2082 H 188.094 -2.49304 3.0225 0
M  V30 2083 H 189.791 -2.24331 3.3238 0
M  V30 2084 H 186.381 -1.07157 4.14988 0
M  V30 2085 H 190.565 -0.489043 4.93885 0
M  V30 2086 H 185.821 0.307417 6.10627 0
M  V30 2087 H 189.995 0.884139 6.90765 0
M  V30 2088 H 187.622 1.28839 7.49203 0
M  V30 2089 N 189.197 -1.51736 -0.425897 0
M  V30 2090 C 190.613 -1.40166 -0.76326 0
M  V30 2091 C 190.813 -0.492962 -1.95377 0
M  V30 2092 O 189.869 0.0475815 -2.52455 0
M  V30 2093 C 191.182 -2.82403 -1.03291 0
M  V30 2094 C 192.73 -2.91632 -1.13665 0
M  V30 2095 C 193.205 -4.34801 -1.43916 0
M  V30 2096 N 194.696 -4.3796 -1.50816 0
M  V30 2097 C 195.431 -5.4578 -1.75817 0
M  V30 2098 N 194.927 -6.63744 -1.98534 0
M  V30 2099 N 196.72 -5.33274 -1.77694 0
M  V30 2100 H 188.871 -2.09361 0.358 0
M  V30 2101 H 191.134 -0.942941 0.0978094 0
M  V30 2102 H 190.84 -3.50943 -0.230696 0
M  V30 2103 H 190.714 -3.22428 -1.95754 0
M  V30 2104 H 193.101 -2.23284 -1.92947 0
M  V30 2105 H 193.182 -2.55088 -0.190756 0
M  V30 2106 H 192.826 -5.03703 -0.65157 0
M  V30 2107 H 192.756 -4.68868 -2.39729 0
M  V30 2108 H 195.247 -3.52919 -1.35118 0
M  V30 2109 H 195.56 -7.41704 -2.17013 0
M  V30 2110 H 193.905 -6.66839 -1.95832 0
M  V30 2111 H 197.096 -4.40098 -1.59473 0
M  V30 2112 H 197.269 -6.1738 -1.9684 0
M  V30 2113 N 190.675 0.682077 -1.42076 0
M  V30 2114 C 191.585 1.82535 -1.47371 0
M  V30 2115 C 192.601 1.7017 -0.363079 0
M  V30 2116 O 193.777 1.91848 -0.612875 0
M  V30 2117 C 190.842 3.18624 -1.36674 0
M  V30 2118 C 189.903 3.42999 -2.58167 0
M  V30 2119 C 189.136 4.72595 -2.4797 0
M  V30 2120 O 189.359 5.50006 -1.5116 0
M  V30 2121 O 188.293 4.98054 -3.37974 0
M  V30 2122 H 192.119 1.81023 -2.43853 0
M  V30 2123 H 189.704 0.836887 -1.2376 0
M  V30 2124 H 191.586 3.99847 -1.33043 0
M  V30 2125 H 190.261 3.20789 -0.433138 0
M  V30 2126 H 189.168 2.61653 -2.67373 0
M  V30 2127 H 190.501 3.45659 -3.50401 0
M  V30 2128 N 192.153 1.28127 0.917671 0
M  V30 2129 C 193.103 1.08361 2.00604 0
M  V30 2130 C 194.087 0.00847518 1.60898 0
M  V30 2131 O 195.279 0.228167 1.75523 0
M  V30 2132 C 192.408 0.743376 3.35155 0
M  V30 2133 C 191.494 1.85716 3.81275 0
M  V30 2134 N 191.885 3.09822 3.99805 0
M  V30 2135 C 190.183 1.74612 4.10398 0
M  V30 2136 C 190.884 3.82368 4.38372 0
M  V30 2137 N 189.86 3.10192 4.4641 0
M  V30 2138 H 193.662 2.02531 2.12975 0
M  V30 2139 H 191.176 1.18989 1.10523 0
M  V30 2140 H 193.173 0.582859 4.12805 0
M  V30 2141 H 191.833 -0.190595 3.2414 0
M  V30 2142 H 192.844 3.45475 3.85833 0
M  V30 2143 H 189.521 0.883657 4.08041 0
M  V30 2144 H 190.911 4.89082 4.60704 0
M  V30 2145 N 193.631 -1.12557 1.10312 0
M  V30 2146 C 194.561 -2.20341 0.772798 0
M  V30 2147 C 195.542 -1.68198 -0.25365 0
M  V30 2148 O 196.727 -1.93831 -0.119699 0
M  V30 2149 C 193.857 -3.46709 0.202443 0
M  V30 2150 C 192.811 -4.11996 1.15943 0
M  V30 2151 C 192.137 -5.328 0.450345 0
M  V30 2152 C 193.437 -4.5828 2.50552 0
M  V30 2153 H 195.131 -2.48229 1.674 0
M  V30 2154 H 192.677 -1.19308 0.806326 0
M  V30 2155 H 194.63 -4.2138 -0.0407752 0
M  V30 2156 H 193.354 -3.18245 -0.734001 0
M  V30 2157 H 192.013 -3.39305 1.38808 0
M  V30 2158 H 191.661 -5.00602 -0.490531 0
M  V30 2159 H 191.361 -5.7743 1.08851 0
M  V30 2160 H 192.885 -6.10219 0.215642 0
M  V30 2161 H 194.299 -5.2433 2.31843 0
M  V30 2162 H 192.696 -5.13683 3.10242 0
M  V30 2163 H 193.766 -3.72329 3.10643 0
M  V30 2164 N 195.109 -0.891671 -1.2995 0
M  V30 2165 C 196.039 -0.379797 -2.30391 0
M  V30 2166 C 197.02 0.540919 -1.6127 0
M  V30 2167 O 198.205 0.453352 -1.88834 0
M  V30 2168 C 195.335 0.400654 -3.44981 0
M  V30 2169 C 194.289 -0.428905 -4.25846 0
M  V30 2170 C 193.615 0.478557 -5.32554 0
M  V30 2171 C 194.915 -1.67458 -4.94727 0
M  V30 2172 H 196.609 -1.21914 -2.73454 0
M  V30 2173 H 194.155 -0.587675 -1.31462 0
M  V30 2174 H 196.108 0.769434 -4.14316 0
M  V30 2175 H 194.832 1.27371 -3.0074 0
M  V30 2176 H 193.491 -0.779911 -3.58208 0
M  V30 2177 H 193.139 1.34951 -4.84559 0
M  V30 2178 H 192.839 -0.0727433 -5.87555 0
M  V30 2179 H 194.363 0.843705 -6.04743 0
M  V30 2180 H 195.777 -1.376 -5.56542 0
M  V30 2181 H 194.174 -2.16659 -5.59624 0
M  V30 2182 H 195.244 -2.41518 -4.20473 0
M  V30 2183 N 196.587 1.43421 -0.653314 0
M  V30 2184 C 197.519 2.29071 0.0769134 0
M  V30 2185 C 198.532 1.42513 0.787017 0
M  V30 2186 O 199.721 1.66449 0.644757 0
M  V30 2187 C 196.821 3.19436 1.13199 0
M  V30 2188 C 195.994 4.34533 0.500006 0
M  V30 2189 C 195.053 5.05771 1.45198 0
M  V30 2190 O 194.079 5.61037 0.960538 0
M  V30 2191 N 195.281 5.0928 2.78594 0
M  V30 2192 H 198.046 2.92382 -0.658235 0
M  V30 2193 H 195.607 1.54112 -0.496104 0
M  V30 2194 H 197.599 3.63958 1.76964 0
M  V30 2195 H 196.169 2.57724 1.7691 0
M  V30 2196 H 195.389 3.92925 -0.316738 0
M  V30 2197 H 196.677 5.08766 0.0588345 0
M  V30 2198 H 196.075 4.65751 3.2108 0
M  V30 2199 H 194.632 5.57519 3.37662 0
M  V30 2200 N 198.065 0.39524 1.52563 0
M  V30 2201 C 199.012 -0.437036 2.26624 0
M  V30 2202 C 199.982 -1.05281 1.28472 0
M  V30 2203 O 201.167 -1.07971 1.57311 0
M  V30 2204 C 198.307 -1.55524 3.08069 0
M  V30 2205 C 197.42 -0.961745 4.21158 0
M  V30 2206 C 196.555 -2.05149 4.89987 0
M  V30 2207 C 195.594 -1.4342 5.95061 0
M  V30 2208 N 194.731 -2.46351 6.57462 0
M  V30 2209 H 199.571 0.200976 2.97322 0
M  V30 2210 H 197.108 0.110944 1.46681 0
M  V30 2211 H 199.066 -2.21437 3.53584 0
M  V30 2212 H 197.696 -2.16348 2.3957 0
M  V30 2213 H 196.748 -0.192048 3.79915 0
M  V30 2214 H 198.06 -0.470701 4.96574 0
M  V30 2215 H 197.214 -2.78819 5.38837 0
M  V30 2216 H 195.953 -2.57615 4.14109 0
M  V30 2217 H 194.958 -0.682774 5.45544 0
M  V30 2218 H 196.183 -0.917416 6.72875 0
M  V30 2219 H 194.129 -2.97975 5.8442 0
M  V30 2220 H 194.046 -2.02019 7.28508 0
M  V30 2221 H 195.314 -3.19633 7.10954 0
M  V30 2222 N 199.544 -1.57102 0.125237 0
M  V30 2223 C 200.491 -2.15641 -0.822655 0
M  V30 2224 C 201.461 -1.08313 -1.25927 0
M  V30 2225 O 202.646 -1.36251 -1.33567 0
M  V30 2226 C 199.786 -2.76504 -2.06494 0
M  V30 2227 C 198.899 -3.98158 -1.67612 0
M  V30 2228 C 198.034 -4.47088 -2.86854 0
M  V30 2229 C 197.073 -5.6126 -2.44242 0
M  V30 2230 N 196.21 -6.04905 -3.56419 0
M  V30 2231 H 201.05 -2.96313 -0.316625 0
M  V30 2232 H 198.587 -1.46388 -0.144588 0
M  V30 2233 H 200.545 -3.09925 -2.79289 0
M  V30 2234 H 199.175 -1.98512 -2.54545 0
M  V30 2235 H 198.227 -3.70858 -0.846661 0
M  V30 2236 H 199.539 -4.80934 -1.32301 0
M  V30 2237 H 198.693 -4.82451 -3.67867 0
M  V30 2238 H 197.432 -3.63275 -3.25396 0
M  V30 2239 H 196.437 -5.25495 -1.61663 0
M  V30 2240 H 197.662 -6.46843 -2.0681 0
M  V30 2241 H 195.608 -5.24032 -3.94623 0
M  V30 2242 H 195.525 -6.82552 -3.25051 0
M  V30 2243 H 196.793 -6.44907 -4.37853 0
M  V30 2244 N 201.022 0.148545 -1.56898 0
M  V30 2245 C 201.932 1.20293 -2.01412 0
M  V30 2246 C 202.948 1.47107 -0.929273 0
M  V30 2247 O 204.124 1.58807 -1.23863 0
M  V30 2248 C 201.189 2.51682 -2.38447 0
M  V30 2249 C 200.25 2.32529 -3.60872 0
M  V30 2250 C 199.483 3.57653 -3.96132 0
M  V30 2251 O 199.706 4.63771 -3.32073 0
M  V30 2252 O 198.64 3.50408 -4.89385 0
M  V30 2253 H 202.466 0.855025 -2.91416 0
M  V30 2254 H 200.051 0.357151 -1.45068 0
M  V30 2255 H 201.933 3.29147 -2.63135 0
M  V30 2256 H 200.608 2.86006 -1.51599 0
M  V30 2257 H 199.515 1.53019 -3.41373 0
M  V30 2258 H 200.848 2.03121 -4.48333 0
M  V30 2259 N 202.5 1.5196 0.417844 0
M  V30 2260 C 203.747 1.65591 1.16559 0
M  V30 2261 C 204.075 0.381565 1.90721 0
M  V30 2262 O 203.33 -0.635156 1.85106 0
M  V30 2263 C 203.629 2.82269 2.19223 0
M  V30 2264 C 203.295 4.20819 1.61933 0
M  V30 2265 C 201.957 4.58506 1.46033 0
M  V30 2266 C 204.309 5.07196 1.20008 0
M  V30 2267 C 201.637 5.80257 0.867113 0
M  V30 2268 C 203.989 6.29544 0.621086 0
M  V30 2269 C 202.653 6.65987 0.449144 0
M  V30 2270 H 201.923 0.605939 0.42652 0
M  V30 2271 H 204.57 1.86041 0.45397 0
M  V30 2272 H 202.875 2.56118 2.96498 0
M  V30 2273 H 204.572 2.90012 2.76936 0
M  V30 2274 H 201.162 3.91116 1.7529 0
M  V30 2275 H 205.346 4.7867 1.31105 0
M  V30 2276 H 200.602 6.07124 0.721833 0
M  V30 2277 H 204.776 6.95805 0.287798 0
M  V30 2278 H 202.403 7.60199 -0.012632 0
M  V30 2279 N 203.978 -0.674533 1.42435 0
M  V30 2280 C 204.941 -1.76986 1.45632 0
M  V30 2281 C 205.941 -1.5708 0.343871 0
M  V30 2282 O 207.131 -1.63367 0.604709 0
M  V30 2283 C 204.263 -3.15623 1.28822 0
M  V30 2284 H 205.456 -1.75539 2.43158 0
M  V30 2285 H 203.009 -0.884189 1.28887 0
M  V30 2286 H 203.744 -3.22696 0.322193 0
M  V30 2287 H 203.529 -3.31475 2.09444 0
M  V30 2288 H 205.019 -3.95537 1.33942 0
M  V30 2289 N 205.456 -1.28612 -0.910864 0
M  V30 2290 C 206.705 -1.15311 -1.65488 0
M  V30 2291 C 207.018 0.296999 -1.93332 0
M  V30 2292 O 208.224 0.551168 -2.65847 0
M  V30 2293 C 206.68 -2.01599 -2.98137 0
M  V30 2294 C 206.288 -3.51367 -2.7793 0
M  V30 2295 C 208.032 -1.96993 -3.76024 0
M  V30 2296 C 205.939 -4.29797 -4.06237 0
M  V30 2297 H 204.869 -0.42796 -0.620779 0
M  V30 2298 H 207.52 -1.53166 -1.01057 0
M  V30 2299 H 205.902 -1.56603 -3.63719 0
M  V30 2300 H 207.076 -4.0434 -2.21011 0
M  V30 2301 H 205.391 -3.57529 -2.13452 0
M  V30 2302 H 207.988 -2.52856 -4.71135 0
M  V30 2303 H 208.331 -0.94733 -4.05378 0
M  V30 2304 H 208.864 -2.39973 -3.17266 0
M  V30 2305 H 205.603 -5.32648 -3.82055 0
M  V30 2306 H 205.123 -3.81596 -4.62757 0
M  V30 2307 H 206.802 -4.39869 -4.74473 0
M  V30 2308 N 206.934 1.1197 -1.10907 0
M  V30 2309 C 207.864 2.19928 -0.784473 0
M  V30 2310 C 208.845 1.6833 0.244726 0
M  V30 2311 O 210.03 1.93892 0.109418 0
M  V30 2312 C 207.16 3.46597 -0.220827 0
M  V30 2313 C 206.114 4.11376 -1.18127 0
M  V30 2314 C 205.44 5.32554 -0.478594 0
M  V30 2315 C 206.74 4.56945 -2.52979 0
M  V30 2316 H 208.434 2.47337 -1.68715 0
M  V30 2317 H 205.98 1.18879 -0.812642 0
M  V30 2318 H 207.933 4.21396 0.0184278 0
M  V30 2319 H 206.657 3.1863 0.717113 0
M  V30 2320 H 205.316 3.38564 -1.40606 0
M  V30 2321 H 204.964 5.00856 0.463976 0
M  V30 2322 H 204.664 5.76844 -1.11912 0
M  V30 2323 H 206.188 6.10096 -0.248 0
M  V30 2324 H 207.602 5.23093 -2.3462 0
M  V30 2325 H 205.999 5.1203 -3.12962 0
M  V30 2326 H 207.069 3.70676 -3.12614 0
M  V30 2327 N 208.412 0.89855 1.29475 0
M  V30 2328 C 209.661 0.519863 1.94885 0
M  V30 2329 C 209.974 -0.9383 1.71625 0
M  V30 2330 O 211.18 -1.42445 2.31131 0
M  V30 2331 C 209.636 0.878836 3.49005 0
M  V30 2332 C 209.244 2.35569 3.81066 0
M  V30 2333 C 210.988 0.570004 4.20656 0
M  V30 2334 C 208.895 2.65558 5.28425 0
M  V30 2335 H 207.825 0.190692 0.729488 0
M  V30 2336 H 210.476 1.09539 1.47219 0
M  V30 2337 H 208.858 0.232253 3.95318 0
M  V30 2338 H 210.032 3.04773 3.45616 0
M  V30 2339 H 208.347 2.63343 3.22552 0
M  V30 2340 H 210.944 0.770925 5.29113 0
M  V30 2341 H 211.287 -0.491404 4.1339 0
M  V30 2342 H 211.82 1.17438 3.8007 0
M  V30 2343 H 208.559 3.70493 5.40754 0
M  V30 2344 H 208.079 2.00977 5.65127 0
M  V30 2345 H 209.758 2.51765 5.96006 0
M  V30 2346 N 209.89 -1.43072 0.660911 0
M  V30 2347 C 211.115 -2.06584 0.183805 0
M  V30 2348 C 211.54 -1.49257 -1.14472 0
M  V30 2349 O 210.898 -0.605528 -1.70889 0
M  V30 2350 C 210.946 -3.60418 0.114434 0
M  V30 2351 O 210.05 -4.01981 -0.921137 0
M  V30 2352 H 209.391 -0.656669 0.0983994 0
M  V30 2353 H 211.921 -1.83447 0.906006 0
M  V30 2354 H 211.931 -4.07946 -0.0663394 0
M  V30 2355 H 210.606 -4.01519 1.08422 0
M  V30 2356 H 209.183 -3.66029 -0.71253 0
M  V30 2357 N 211.368 -0.403325 -1.52352 0
M  V30 2358 C 212.298 0.416205 -2.29761 0
M  V30 2359 C 213.279 1.05123 -1.33728 0
M  V30 2360 O 214.464 1.06134 -1.62632 0
M  V30 2361 C 211.594 1.53624 -3.11475 0
M  V30 2362 C 210.548 1.02653 -4.15507 0
M  V30 2363 C 209.874 2.23971 -4.85532 0
M  V30 2364 C 211.174 0.08463 -5.22231 0
M  V30 2365 H 212.868 -0.229701 -2.98518 0
M  V30 2366 H 210.414 -0.111913 -1.43564 0
M  V30 2367 H 212.367 2.1165 -3.64393 0
M  V30 2368 H 211.091 2.20994 -2.40477 0
M  V30 2369 H 209.75 0.46871 -3.63591 0
M  V30 2370 H 209.398 2.89883 -4.11068 0
M  V30 2371 H 209.098 1.90521 -5.55856 0
M  V30 2372 H 210.622 2.82614 -5.41259 0
M  V30 2373 H 212.036 0.573509 -5.70424 0
M  V30 2374 H 210.433 -0.160783 -5.99885 0
M  V30 2375 H 211.503 -0.86237 -4.7717 0
M  V30 2376 N 212.846 1.57033 -0.133567 0
M  V30 2377 C 213.809 2.14897 0.796995 0
M  V30 2378 C 214.809 1.0874 1.18458 0
M  V30 2379 O 215.999 1.34446 1.1077 0
M  V30 2380 C 213.131 2.70112 2.07973 0
M  V30 2381 H 214.324 2.98457 0.293873 0
M  V30 2382 H 211.877 1.55871 0.115787 0
M  V30 2383 H 212.612 1.9018 2.62682 0
M  V30 2384 H 212.397 3.47764 1.81115 0
M  V30 2385 H 213.887 3.14738 2.74462 0
M  V30 2386 N 214.325 -0.140222 1.56975 0
M  V30 2387 C 215.574 -0.850152 1.82908 0
M  V30 2388 C 215.887 -1.82028 0.715892 0
M  V30 2389 O 217.093 -2.57485 0.861016 0
M  V30 2390 C 215.549 -1.5625 3.24213 0
M  V30 2391 C 215.157 -0.63443 4.43485 0
M  V30 2392 C 216.901 -2.25881 3.59413 0
M  V30 2393 C 214.808 -1.34879 5.75814 0
M  V30 2394 H 213.738 -0.321221 0.682153 0
M  V30 2395 H 216.389 -0.102874 1.83211 0
M  V30 2396 H 214.771 -2.35565 3.18316 0
M  V30 2397 H 215.945 0.12398 4.60633 0
M  V30 2398 H 214.26 -0.0461836 4.16374 0
M  V30 2399 H 216.857 -2.79978 4.5554 0
M  V30 2400 H 217.2 -3.02693 2.85802 0
M  V30 2401 H 217.733 -1.53477 3.67001 0
M  V30 2402 H 214.472 -0.622385 6.52539 0
M  V30 2403 H 213.992 -2.07974 5.6259 0
M  V30 2404 H 215.671 -1.88784 6.18845 0
M  V30 2405 N 215.803 -1.52179 -0.40978 0
M  V30 2406 C 217.049 -1.67408 -1.15525 0
M  V30 2407 C 217.404 -0.398746 -1.88223 0
M  V30 2408 O 216.697 0.60678 -1.81738 0
M  V30 2409 C 216.891 -2.83428 -2.17723 0
M  V30 2410 C 216.72 -4.22121 -1.55061 0
M  V30 2411 C 215.49 -4.87657 -1.3236 0
M  V30 2412 C 217.688 -5.04248 -1.01185 0
M  V30 2413 N 215.67 -6.10387 -0.655834 0
M  V30 2414 C 217.041 -6.18209 -0.470963 0
M  V30 2415 C 219.096 -4.89583 -0.906252 0
M  V30 2416 C 217.799 -7.1911 0.165172 0
M  V30 2417 C 219.825 -5.90718 -0.28397 0
M  V30 2418 C 219.187 -7.03969 0.246243 0
M  V30 2419 H 215.286 -0.666251 -0.409431 0
M  V30 2420 H 217.87 -1.89482 -0.447729 0
M  V30 2421 H 216.041 -2.6297 -2.85834 0
M  V30 2422 H 217.773 -2.87697 -2.84627 0
M  V30 2423 H 214.528 -4.46007 -1.59294 0
M  V30 2424 H 214.952 -6.76153 -0.338596 0
M  V30 2425 H 219.594 -4.02253 -1.302 0
M  V30 2426 H 217.312 -8.06066 0.572986 0
M  V30 2427 H 220.898 -5.81443 -0.203792 0
M  V30 2428 H 219.778 -7.80886 0.720173 0
M  V30 2429 N 217.281 0.66697 -1.42791 0
M  V30 2430 C 218.527 1.4291 -1.43891 0
M  V30 2431 C 218.86 1.94114 -0.0578972 0
M  V30 2432 O 218.135 1.71414 0.91911 0
M  V30 2433 C 218.418 2.62049 -2.46987 0
M  V30 2434 C 218.271 2.16426 -3.94309 0
M  V30 2435 C 219.59 3.64266 -2.46978 0
M  V30 2436 H 216.709 0.518306 -0.523954 0
M  V30 2437 H 219.351 0.757321 -1.74255 0
M  V30 2438 H 217.501 3.19361 -2.21225 0
M  V30 2439 H 219.173 1.64221 -4.31079 0
M  V30 2440 H 217.416 1.47925 -4.078 0
M  V30 2441 H 218.087 3.02038 -4.62036 0
M  V30 2442 H 220.563 3.16686 -2.69906 0
M  V30 2443 H 219.439 4.45196 -3.21079 0
M  V30 2444 H 219.7 4.15927 -1.49857 0
M  V30 2445 N 218.759 1.29093 0.90403 0
M  V30 2446 C 219.689 1.16401 2.02418 0
M  V30 2447 C 220.67 0.0593085 1.69997 0
M  V30 2448 O 221.855 0.238021 1.92736 0
M  V30 2449 C 218.985 0.835233 3.37107 0
M  V30 2450 C 217.939 1.89578 3.83724 0
M  V30 2451 C 217.265 1.42041 5.15489 0
M  V30 2452 C 218.565 3.30394 4.04521 0
M  V30 2453 H 220.259 2.10109 2.13295 0
M  V30 2454 H 217.805 1.01157 1.02486 0
M  V30 2455 H 219.758 0.733169 4.14973 0
M  V30 2456 H 218.482 -0.137543 3.2631 0
M  V30 2457 H 217.141 1.98715 3.08071 0
M  V30 2458 H 216.789 0.436426 5.01103 0
M  V30 2459 H 216.489 2.12964 5.4765 0
M  V30 2460 H 218.013 1.33176 5.959 0
M  V30 2461 H 219.427 3.24123 4.72882 0
M  V30 2462 H 217.824 3.99237 4.48029 0
M  V30 2463 H 218.894 3.73692 3.09002 0
M  V30 2464 N 220.237 -1.11381 1.11499 0
M  V30 2465 C 221.483 -1.83403 0.865512 0
M  V30 2466 C 221.816 -1.84459 -0.607329 0
M  V30 2467 O 221.091 -1.29811 -1.44842 0
M  V30 2468 C 221.374 -3.30552 1.42855 0
M  V30 2469 C 221.227 -3.37886 2.96906 0
M  V30 2470 C 222.546 -4.26643 1.08 0
M  V30 2471 H 219.665 -0.665879 0.31587 0
M  V30 2472 H 222.307 -1.30601 1.37998 0
M  V30 2473 H 220.457 -3.75648 0.990985 0
M  V30 2474 H 222.129 -3.01343 3.49271 0
M  V30 2475 H 220.372 -2.78088 3.32941 0
M  V30 2476 H 221.043 -4.41458 3.31389 0
M  V30 2477 H 223.519 -3.89729 1.45775 0
M  V30 2478 H 222.395 -5.27986 1.50072 0
M  V30 2479 H 222.656 -4.42099 -0.00915037 0
M  V30 2480 N 221.715 -0.905404 -1.28997 0
M  V30 2481 C 222.943 -0.549846 -1.9946 0
M  V30 2482 C 223.358 0.866834 -1.67724 0
M  V30 2483 O 222.715 1.57298 -0.925404 0
M  V30 2484 C 222.766 -0.739387 -3.53858 0
M  V30 2485 O 222.487 -2.10031 -3.84472 0
M  V30 2486 C 223.988 -0.389541 -4.41585 0
M  V30 2487 H 221.208 -0.210429 -0.637151 0
M  V30 2488 H 223.752 -1.21632 -1.64396 0
M  V30 2489 H 221.907 -0.120023 -3.87214 0
M  V30 2490 H 222.321 -2.13385 -4.79132 0
M  V30 2491 H 223.795 -0.572972 -5.49018 0
M  V30 2492 H 224.272 0.673756 -4.34001 0
M  V30 2493 H 224.878 -0.986089 -4.1371 0
M  V30 2494 N 223.193 1.4272 -0.668489 0
M  V30 2495 C 224.123 2.335 -0.000100175 0
M  V30 2496 C 225.104 1.50328 0.795964 0
M  V30 2497 O 226.289 1.78949 0.754385 0
M  V30 2498 C 223.419 3.33874 0.956302 0
M  V30 2499 C 222.373 4.27152 0.269278 0
M  V30 2500 C 221.699 5.17684 1.33818 0
M  V30 2501 C 222.999 5.15373 -0.847805 0
M  V30 2502 H 224.693 2.89639 -0.758244 0
M  V30 2503 H 222.239 1.39269 -0.366079 0
M  V30 2504 H 224.192 3.9629 1.43292 0
M  V30 2505 H 222.916 2.76025 1.74579 0
M  V30 2506 H 221.575 3.66123 -0.187042 0
M  V30 2507 H 221.223 4.56165 2.1195 0
M  V30 2508 H 220.923 5.80918 0.883659 0
M  V30 2509 H 222.447 5.82974 1.81586 0
M  V30 2510 H 223.861 5.7151 -0.452681 0
M  V30 2511 H 222.258 5.87407 -1.22773 0
M  V30 2512 H 223.328 4.5415 -1.69929 0
M  V30 2513 N 224.671 0.411399 1.52136 0
M  V30 2514 C 225.581 -0.419774 2.30814 0
M  V30 2515 C 226.597 -1.0515 1.38634 0
M  V30 2516 O 227.773 -1.05252 1.71709 0
M  V30 2517 C 224.838 -1.52019 3.11594 0
M  V30 2518 C 223.899 -0.91129 4.19516 0
M  V30 2519 C 223.132 -1.95927 4.96436 0
M  V30 2520 O 223.355 -3.17775 4.73683 0
M  V30 2521 O 222.289 -1.56423 5.81219 0
M  V30 2522 H 226.115 0.221805 3.02889 0
M  V30 2523 H 223.7 0.174547 1.48377 0
M  V30 2524 H 225.582 -2.15898 3.61892 0
M  V30 2525 H 224.257 -2.14633 2.42311 0
M  V30 2526 H 223.164 -0.235157 3.7336 0
M  V30 2527 H 224.497 -0.32904 4.91099 0
M  V30 2528 N 226.149 -1.5696 0.141893 0
M  V30 2529 C 227.079 -2.19516 -0.795936 0
M  V30 2530 C 228.06 -1.14187 -1.26077 0
M  V30 2531 O 229.245 -1.42511 -1.31925 0
M  V30 2532 C 226.375 -2.81272 -2.03723 0
M  V30 2533 C 225.329 -3.92384 -1.70936 0
M  V30 2534 C 224.655 -4.41052 -3.02287 0
M  V30 2535 C 225.955 -5.13403 -0.959954 0
M  V30 2536 H 227.649 -2.98138 -0.274596 0
M  V30 2537 H 225.195 -1.43406 -0.130636 0
M  V30 2538 H 227.148 -3.237 -2.69808 0
M  V30 2539 H 225.872 -1.99973 -2.58221 0
M  V30 2540 H 224.531 -3.50566 -1.07232 0
M  V30 2541 H 224.179 -3.56582 -3.54765 0
M  V30 2542 H 223.879 -5.15993 -2.81114 0
M  V30 2543 H 225.403 -4.86146 -3.69451 0
M  V30 2544 H 226.817 -5.52706 -1.52279 0
M  V30 2545 H 225.214 -5.94073 -0.848357 0
M  V30 2546 H 226.284 -4.84875 0.0492434 0
M  V30 2547 N 227.627 0.131896 -1.57047 0
M  V30 2548 C 228.557 1.16384 -2.02428 0
M  V30 2549 C 229.538 1.43936 -0.90644 0
M  V30 2550 O 230.723 1.54599 -1.17528 0
M  V30 2551 C 227.853 2.49328 -2.4177 0
M  V30 2552 C 226.807 2.36266 -3.56879 0
M  V30 2553 C 226.133 3.74057 -3.8208 0
M  V30 2554 C 227.433 1.834 -4.89042 0
M  V30 2555 H 229.127 0.786433 -2.88887 0
M  V30 2556 H 226.673 0.376855 -1.38981 0
M  V30 2557 H 228.626 3.21759 -2.7212 0
M  V30 2558 H 227.35 2.88934 -1.52266 0
M  V30 2559 H 226.009 1.66286 -3.26718 0
M  V30 2560 H 225.657 4.11125 -2.89803 0
M  V30 2561 H 225.357 3.66174 -4.59554 0
M  V30 2562 H 226.881 4.48012 -4.1487 0
M  V30 2563 H 228.295 2.45636 -5.18011 0
M  V30 2564 H 226.692 1.8637 -5.70426 0
M  V30 2565 H 227.762 0.790662 -4.7841 0
M  V30 2566 N 229.106 1.52395 0.401703 0
M  V30 2567 C 230.517 1.58899 0.980202 0
M  V30 2568 C 230.868 0.434032 1.91339 0
M  V30 2569 O 229.993 -0.444619 2.11783 0
M  V30 2570 C 230.588 2.87994 1.78451 0
M  V30 2571 C 229.147 2.96953 2.31292 0
M  V30 2572 C 228.294 2.53903 1.11483 0
M  V30 2573 H 231.245 1.57657 0.18168 0
M  V30 2574 H 231.266 2.73765 2.64259 0
M  V30 2575 H 230.778 3.72035 1.10506 0
M  V30 2576 H 228.879 2.17422 3.02586 0
M  V30 2577 H 228.992 4.01344 2.61649 0
M  V30 2578 H 227.356 2.07925 1.47104 0
M  V30 2579 H 228.139 3.40326 0.450928 0
M  V30 2580 N 230.584 -0.659388 1.43143 0
M  V30 2581 C 231.833 -1.41518 1.43721 0
M  V30 2582 C 232.146 -1.95499 0.0628176 0
M  V30 2583 O 233.352 -2.71446 -0.0539683 0
M  V30 2584 C 231.808 -2.5608 2.52885 0
M  V30 2585 C 231.416 -2.08733 3.96402 0
M  V30 2586 C 233.16 -3.3349 2.62649 0
M  V30 2587 C 231.067 -3.20469 4.97045 0
M  V30 2588 H 229.997 -0.531705 0.534608 0
M  V30 2589 H 232.648 -0.712343 1.69109 0
M  V30 2590 H 231.03 -3.28805 2.20688 0
M  V30 2591 H 232.204 -1.43059 4.3803 0
M  V30 2592 H 230.519 -1.44219 3.90627 0
M  V30 2593 H 233.116 -4.16734 3.35017 0
M  V30 2594 H 233.459 -3.8111 1.67513 0
M  V30 2595 H 233.992 -2.67842 2.94118 0
M  V30 2596 H 230.731 -2.77824 5.93712 0
M  V30 2597 H 230.251 -3.84874 4.60034 0
M  V30 2598 H 231.93 -3.85698 5.19467 0
M  V30 2599 N 232.062 -1.29571 -0.897171 0
M  V30 2600 C 232.992 -1.17473 -2.01798 0
M  V30 2601 C 233.973 -0.068323 -1.69963 0
M  V30 2602 O 235.158 -0.248239 -1.92607 0
M  V30 2603 C 232.288 -0.853099 -3.36659 0
M  V30 2604 C 231.242 -1.9161 -3.82713 0
M  V30 2605 C 230.568 -1.44773 -5.14728 0
M  V30 2606 C 231.868 -3.32535 -4.02763 0
M  V30 2607 H 233.562 -2.11237 -2.12177 0
M  V30 2608 H 231.108 -1.01699 -1.01948 0
M  V30 2609 H 233.061 -0.755165 -4.14578 0
M  V30 2610 H 231.785 0.120236 -3.26379 0
M  V30 2611 H 230.444 -2.00346 -3.07013 0
M  V30 2612 H 230.092 -0.462995 -5.00865 0
M  V30 2613 H 229.792 -2.15865 -5.46513 0
M  V30 2614 H 231.316 -1.36334 -5.95185 0
M  V30 2615 H 232.73 -3.26626 -4.71156 0
M  V30 2616 H 231.127 -4.01607 -4.45905 0
M  V30 2617 H 232.197 -3.75326 -3.07016 0
M  V30 2618 N 233.54 1.10788 -1.12088 0
M  V30 2619 C 234.951 1.64181 -0.88891 0
M  V30 2620 C 235.302 1.87508 0.577498 0
M  V30 2621 O 234.427 1.61434 1.44112 0
M  V30 2622 C 235.022 2.98257 -1.60712 0
M  V30 2623 C 233.581 3.4853 -1.42139 0
M  V30 2624 C 232.728 2.23208 -1.6454 0
M  V30 2625 H 235.679 0.943368 -1.27618 0
M  V30 2626 H 235.7 3.65552 -1.05604 0
M  V30 2627 H 235.212 2.81246 -2.67436 0
M  V30 2628 H 233.313 3.70692 -0.376552 0
M  V30 2629 H 233.426 4.26882 -2.17505 0
M  V30 2630 H 231.79 2.31169 -1.06925 0
M  V30 2631 H 232.573 2.08733 -2.72554 0
M  V30 2632 N 235.018 0.912232 1.28515 0
M  V30 2633 C 235.948 0.416403 2.29757 0
M  V30 2634 C 236.929 -0.515194 1.6211 0
M  V30 2635 O 238.114 -0.423253 1.89532 0
M  V30 2636 C 235.244 -0.34572 3.45575 0
M  V30 2637 C 234.198 0.496599 4.25109 0
M  V30 2638 C 233.524 -0.393771 5.33248 0
M  V30 2639 C 234.824 1.75307 4.92001 0
M  V30 2640 H 236.518 1.26249 2.7148 0
M  V30 2641 H 234.064 0.608515 1.30511 0
M  V30 2642 H 236.017 -0.703422 4.15488 0
M  V30 2643 H 234.741 -1.2257 3.02728 0
M  V30 2644 H 233.4 0.8368 3.56922 0
M  V30 2645 H 233.048 -1.27225 4.86644 0
M  V30 2646 H 232.748 0.166209 5.87365 0
M  V30 2647 H 234.272 -0.747389 6.06009 0
M  V30 2648 H 235.686 1.46437 5.54283 0
M  V30 2649 H 234.083 2.25534 5.56106 0
M  V30 2650 H 235.153 2.48176 4.16577 0
M  V30 2651 N 236.496 -1.42363 0.676048 0
M  V30 2652 C 237.745 -2.00745 0.196037 0
M  V30 2653 C 238.058 -1.54083 -1.20489 0
M  V30 2654 O 239.264 -2.04891 -1.78134 0
M  V30 2655 C 237.72 -3.58651 0.299616 0
M  V30 2656 C 237.328 -4.143 1.70468 0
M  V30 2657 C 239.072 -4.24326 -0.121619 0
M  V30 2658 C 236.979 -5.64574 1.76096 0
M  V30 2659 H 235.909 -0.750787 0.0695301 0
M  V30 2660 H 238.56 -1.63072 0.841412 0
M  V30 2661 H 236.942 -3.93833 -0.413673 0
M  V30 2662 H 238.116 -3.90575 2.44515 0
M  V30 2663 H 236.431 -3.61081 2.07387 0
M  V30 2664 H 239.028 -5.34607 -0.0997362 0
M  V30 2665 H 239.371 -3.99897 -1.15708 0
M  V30 2666 H 239.904 -3.94108 0.540706 0
M  V30 2667 H 236.643 -5.93804 2.77628 0
M  V30 2668 H 236.163 -5.90286 1.06406 0
M  V30 2669 H 237.842 -6.29013 1.51496 0
M  V30 2670 N 237.974 -0.419461 -1.51915 0
M  V30 2671 C 238.922 0.415502 -2.28859 0
M  V30 2672 C 239.916 1.03674 -1.3397 0
M  V30 2673 O 241.122 0.973757 -1.51387 0
M  V30 2674 H 237.497 0.152786 -0.736315 0
M  V30 2675 H 239.468 -0.254531 -2.97312 0
M  V30 2676 C 238.217 1.51425 -3.12995 0
M  V30 2677 H 237.54 1.04556 -3.85886 0
M  V30 2678 H 238.98 2.07208 -3.6992 0
M  V30 2679 C 237.439 2.48745 -2.27217 0
M  V30 2680 O 237.969 3.52871 -1.9195 0
M  V30 2681 N 236.175 2.19202 -1.90785 0
M  V30 2682 H 235.722 1.34556 -2.19664 0
M  V30 2683 H 235.68 2.84561 -1.33687 0
M  V30 2684 N 239.452 1.56882 -0.150215 0
M  V30 2685 C 240.863 1.82995 0.370076 0
M  V30 2686 C 241.214 1.06907 1.64515 0
M  V30 2687 O 240.339 0.315369 2.1409 0
M  V30 2688 C 240.934 3.31942 0.678208 0
M  V30 2689 C 239.493 3.58625 1.14301 0
M  V30 2690 C 238.64 2.76792 0.167778 0
M  V30 2691 H 241.591 1.54209 -0.374858 0
M  V30 2692 H 241.612 3.48272 1.53254 0
M  V30 2693 H 241.124 3.87294 -0.249991 0
M  V30 2694 H 239.225 3.08664 2.08704 0
M  V30 2695 H 239.338 4.67073 1.06676 0
M  V30 2696 H 237.702 2.45972 0.661037 0
M  V30 2697 H 238.485 3.34916 -0.754069 0
M  V30 2698 N 240.93 -0.123565 1.57115 0
M  V30 2699 C 242.176 -0.833386 1.84885 0
M  V30 2700 C 242.509 -1.79742 0.735292 0
M  V30 2701 O 241.784 -1.92764 -0.25925 0
M  V30 2702 C 242.067 -1.5873 3.23228 0
M  V30 2703 C 241.92 -0.643183 4.45178 0
M  V30 2704 C 243.239 -2.54453 3.59085 0
M  V30 2705 H 240.358 -0.301518 0.6725 0
M  V30 2706 H 243 -0.097778 1.89748 0
M  V30 2707 H 241.15 -2.21438 3.19214 0
M  V30 2708 H 242.822 -0.0253015 4.61293 0
M  V30 2709 H 241.065 0.0456139 4.33776 0
M  V30 2710 H 241.736 -1.20724 5.38637 0
M  V30 2711 H 244.212 -2.01853 3.63861 0
M  V30 2712 H 243.088 -3.04238 4.5687 0
M  V30 2713 H 243.349 -3.36906 2.86264 0
M  V30 2714 N 242.408 -1.52605 -0.393616 0
M  V30 2715 C 243.657 -1.66649 -1.13627 0
M  V30 2716 C 243.97 -0.410364 -1.91247 0
M  V30 2717 O 245.176 -0.430854 -2.68059 0
M  V30 2718 C 243.632 -2.9449 -2.06891 0
M  V30 2719 C 243.24 -4.27266 -1.34714 0
M  V30 2720 C 244.984 -3.17899 -2.81319 0
M  V30 2721 C 242.891 -5.46217 -2.26717 0
M  V30 2722 H 241.821 -0.62084 -0.427871 0
M  V30 2723 H 244.472 -1.791 -0.399428 0
M  V30 2724 H 242.854 -2.75774 -2.84191 0
M  V30 2725 H 244.028 -4.56518 -0.626714 0
M  V30 2726 H 242.343 -4.10081 -0.722643 0
M  V30 2727 H 244.94 -4.03949 -3.50328 0
M  V30 2728 H 245.283 -2.32777 -3.45139 0
M  V30 2729 H 245.816 -3.37159 -2.11113 0
M  V30 2730 H 242.555 -6.33733 -1.67521 0
M  V30 2731 H 242.075 -5.21283 -2.96689 0
M  V30 2732 H 243.754 -5.7991 -2.86903 0
M  V30 2733 N 243.887 0.651787 -1.4349 0
M  V30 2734 C 245.115 1.43937 -1.48626 0
M  V30 2735 C 245.53 1.8851 -0.104587 0
M  V30 2736 O 244.887 1.5958 0.885464 0
M  V30 2737 C 244.938 2.6734 -2.43334 0
M  V30 2738 O 244.659 2.24631 -3.76128 0
M  V30 2739 C 246.16 3.60683 -2.57726 0
M  V30 2740 H 243.38 0.44213 -0.504739 0
M  V30 2741 H 245.924 0.798944 -1.88248 0
M  V30 2742 H 244.079 3.2752 -2.06904 0
M  V30 2743 H 244.493 3.04485 -4.2707 0
M  V30 2744 H 245.967 4.43933 -3.28067 0
M  V30 2745 H 246.444 4.08126 -1.62265 0
M  V30 2746 H 247.05 3.06384 -2.94973 0
M  V30 2747 N 245.365 1.30045 0.890287 0
M  V30 2748 C 246.642 1.09227 1.62262 0
M  V30 2749 C 247.022 -0.360305 2.08002 0
M  V30 2750 O 246.37 -1.35084 1.84295 0
M  V30 2751 C 246.58 2.08835 2.79623 0
M  V30 2752 C 247.928 2.40266 3.50082 0
M  V30 2753 O 248.952 2.07104 2.89804 0
M  V30 2754 O 247.811 2.96967 4.58773 0
M  V30 2755 H 244.905 0.419132 0.712922 0
M  V30 2756 H 247.451 1.41451 0.937529 0
M  V30 2757 H 246.223 3.06633 2.43089 0
M  V30 2758 H 245.846 1.77397 3.55832 0
M  V30 2759 N 246.843 -1.10192 1.12674 0
M  V30 2760 C 247.791 -2.18694 0.792196 0
M  V30 2761 C 248.785 -1.67938 -0.222058 0
M  V30 2762 O 249.991 -1.79822 -0.0800074 0
M  V30 2763 H 246.366 -0.713223 0.238364 0
M  V30 2764 H 248.337 -2.44149 1.71564 0
M  V30 2765 C 247.086 -3.46682 0.265859 0
M  V30 2766 H 246.409 -3.86101 1.03761 0
M  V30 2767 H 247.849 -4.23942 0.0701128 0
M  V30 2768 C 246.308 -3.21506 -1.00675 0
M  V30 2769 O 246.838 -3.43408 -2.08408 0
M  V30 2770 N 245.044 -2.75158 -0.934692 0
M  V30 2771 H 244.591 -2.57535 -0.0578604 0
M  V30 2772 H 244.549 -2.58691 -1.7868 0
M  V30 2773 N 248.321 -0.919034 -1.28029 0
M  V30 2774 C 249.569 -0.553838 -1.94363 0
M  V30 2775 C 249.89 0.906357 -1.72656 0
M  V30 2776 O 249.16 1.64143 -1.0693 0
M  V30 2777 H 247.74 -0.201834 -0.719216 0
M  V30 2778 H 250.402 -1.16954 -1.55909 0
M  V30 2779 H 249.498 -0.752758 -3.02886 0
M  V30 2780 N 249.799 1.42003 -0.683588 0
M  V30 2781 C 251.027 2.05746 -0.218182 0
M  V30 2782 C 251.442 1.51396 1.12804 0
M  V30 2783 O 250.799 0.657303 1.70252 0
M  V30 2784 C 250.85 3.61171 -0.154131 0
M  V30 2785 O 250.571 4.13508 -1.44716 0
M  V30 2786 C 252.072 4.42042 0.333713 0
M  V30 2787 H 249.292 0.662888 -0.10402 0
M  V30 2788 H 251.836 1.81987 -0.9328 0
M  V30 2789 H 249.991 3.84012 0.511231 0
M  V30 2790 H 250.405 5.07453 -1.32632 0
M  V30 2791 H 251.879 5.51028 0.327423 0
M  V30 2792 H 252.356 4.17269 1.37053 0
M  V30 2793 H 252.962 4.24239 -0.300222 0
M  V30 2794 N 251.277 0.427512 1.51691 0
M  V30 2795 C 252.505 -0.141191 2.06418 0
M  V30 2796 C 252.92 -1.37303 1.29589 0
M  V30 2797 O 252.277 -1.79059 0.352732 0
M  V30 2798 C 252.328 -0.473266 3.58389 0
M  V30 2799 O 252.049 0.709673 4.32314 0
M  V30 2800 C 253.55 -1.09371 4.29596 0
M  V30 2801 H 250.77 -0.0122747 0.670888 0
M  V30 2802 H 253.314 0.603764 1.95384 0
M  V30 2803 H 251.469 -1.16812 3.69369 0
M  V30 2804 H 251.883 0.42807 5.2275 0
M  V30 2805 H 253.357 -1.27613 5.37046 0
M  V30 2806 H 253.834 -2.072 3.87253 0
M  V30 2807 H 254.44 -0.43853 4.23033 0
M  V30 2808 N 252.755 -1.56801 0.158532 0
M  V30 2809 C 253.995 -1.98383 -0.49229 0
M  V30 2810 C 254.359 -1.04184 -1.61275 0
M  V30 2811 O 255.56 -1.34856 -2.32524 0
M  V30 2812 C 253.831 -3.4385 -0.974766 0
M  V30 2813 S 255.39 -4.07459 -1.62857 0
M  V30 2814 H 252.208 -0.693041 -0.158794 0
M  V30 2815 H 254.81 -1.93856 0.252974 0
M  V30 2816 H 253.514 -4.10131 -0.148688 0
M  V30 2817 H 253.045 -3.52115 -1.75438 0
M  V30 2818 H 255.06 -4.01458 -2.91627 0
M  V30 2819 N 254.233 0.115231 -1.57178 0
M  V30 2820 C 255.181 1.16014 -2.01602 0
M  V30 2821 C 256.175 1.42653 -0.913587 0
M  V30 2822 O 257.381 1.42571 -1.09879 0
M  V30 2823 H 253.756 0.391252 -0.642204 0
M  V30 2824 H 255.727 0.758998 -2.88586 0
M  V30 2825 C 254.476 2.47767 -2.4394 0
M  V30 2826 H 253.799 2.28108 -3.28339 0
M  V30 2827 H 255.239 3.19432 -2.78818 0
M  V30 2828 C 253.698 3.10617 -1.30455 0
M  V30 2829 O 254.228 3.96846 -0.622585 0
M  V30 2830 N 252.434 2.70553 -1.06064 0
M  V30 2831 H 251.981 2.00527 -1.61699 0
M  V30 2832 H 251.939 3.12934 -0.303284 0
M  V30 2833 N 255.711 1.52812 0.385517 0
M  V30 2834 C 256.988 1.5861 1.14465 0
M  V30 2835 C 257.368 0.381402 2.07626 0
M  V30 2836 O 256.716 -0.629999 2.19643 0
M  V30 2837 C 256.926 2.92664 1.90128 0
M  V30 2838 C 258.274 3.46526 2.45367 0
M  V30 2839 O 259.298 2.94562 2.0028 0
M  V30 2840 O 258.157 4.37323 3.27736 0
M  V30 2841 H 255.251 0.639855 0.523941 0
M  V30 2842 H 257.797 1.65149 0.390389 0
M  V30 2843 H 256.569 3.71788 1.22022 0
M  V30 2844 H 256.192 2.89527 2.72507 0
M  V30 2845 N 257.189 -0.644168 1.43834 0
M  V30 2846 C 258.436 -1.40395 1.4593 0
M  V30 2847 C 258.764 -1.94305 0.0869658 0
M  V30 2848 O 258.019 -1.73288 -0.909378 0
M  V30 2849 C 258.318 -2.59615 2.45631 0
M  V30 2850 C 257.984 -2.2407 3.91284 0
M  V30 2851 C 256.646 -2.14089 4.30952 0
M  V30 2852 C 258.998 -1.95775 4.83034 0
M  V30 2853 C 256.326 -1.73981 5.6031 0
M  V30 2854 C 258.678 -1.57163 6.12766 0
M  V30 2855 C 257.342 -1.45713 6.51402 0
M  V30 2856 H 256.612 -0.513741 0.533995 0
M  V30 2857 H 259.259 -0.731724 1.76969 0
M  V30 2858 H 257.564 -3.32011 2.08028 0
M  V30 2859 H 259.261 -3.17834 2.44504 0
M  V30 2860 H 255.851 -2.32753 3.59895 0
M  V30 2861 H 260.035 -2.02403 4.53152 0
M  V30 2862 H 255.291 -1.63709 5.89075 0
M  V30 2863 H 259.465 -1.34303 6.83327 0
M  V30 2864 H 257.092 -1.14406 7.51542 0
M  V30 2865 N 258.668 -1.30515 -0.883378 0
M  V30 2866 C 259.631 -1.1701 -1.97082 0
M  V30 2867 C 260.631 -0.10089 -1.60483 0
M  V30 2868 O 261.821 -0.349127 -1.70666 0
M  V30 2869 C 258.953 -0.793045 -3.31547 0
M  V30 2870 H 260.146 -2.13622 -2.10489 0
M  V30 2871 H 257.699 -1.13935 -1.06998 0
M  V30 2872 H 258.434 0.172499 -3.23841 0
M  V30 2873 H 258.219 -1.56576 -3.5948 0
M  V30 2874 H 259.709 -0.722073 -4.1131 0
M  V30 2875 N 260.146 1.09593 -1.13257 0
M  V30 2876 C 261.371 1.8604 -0.916732 0
M  V30 2877 C 261.796 1.80504 0.529146 0
M  V30 2878 O 261.154 1.18127 1.37534 0
M  V30 2879 C 261.202 3.32017 -1.40703 0
M  V30 2880 O 260.306 4.08141 -0.591153 0
M  V30 2881 H 259.647 0.576943 -0.328683 0
M  V30 2882 H 262.177 1.38405 -1.50682 0
M  V30 2883 H 262.187 3.82865 -1.4099 0
M  V30 2884 H 260.862 3.35361 -2.45979 0
M  V30 2885 H 259.439 3.67084 -0.656005 0
M  V30 2886 N 261.624 0.925811 1.2754 0
M  V30 2887 C 262.849 0.580924 1.99098 0
M  V30 2888 C 263.274 -0.833555 1.68622 0
M  V30 2889 O 262.632 -1.55903 0.925422 0
M  V30 2890 C 262.68 0.811186 3.51358 0
M  V30 2891 O 261.784 -0.124129 4.12213 0
M  V30 2892 H 261.125 0.223873 0.625122 0
M  V30 2893 H 263.655 1.24455 1.62395 0
M  V30 2894 H 263.665 0.72601 4.01489 0
M  V30 2895 H 262.34 1.84227 3.72872 0
M  V30 2896 H 260.917 0.0108006 3.72898 0
M  V30 2897 N 263.102 -1.41638 0.69111 0
M  V30 2898 C 264.35 -2.00902 0.219758 0
M  V30 2899 C 264.671 -1.54994 -1.18329 0
M  V30 2900 O 263.941 -0.778628 -1.79762 0
M  V30 2901 H 262.521 -0.74289 0.0782558 0
M  V30 2902 H 265.183 -1.73327 0.891271 0
M  V30 2903 H 264.279 -3.11224 0.233708 0
M  V30 2904 N 264.58 -0.43555 -1.51462 0
M  V30 2905 C 265.857 0.191364 -1.94662 0
M  V30 2906 C 266.237 1.60254 -1.37411 0
M  V30 2907 O 265.585 2.2152 -0.560458 0
M  V30 2908 C 265.795 0.17091 -3.48581 0
M  V30 2909 C 267.143 0.377357 -4.2292 0
M  V30 2910 O 268.167 0.249104 -3.55328 0
M  V30 2911 O 267.026 0.63247 -5.42828 0
M  V30 2912 H 264.12 0.130932 -0.816569 0
M  V30 2913 H 266.666 -0.4934 -1.62369 0
M  V30 2914 H 265.438 -0.815738 -3.82703 0
M  V30 2915 H 265.061 0.898659 -3.87311 0
M  V30 2916 N 266.058 1.56714 -0.166846 0
M  V30 2917 C 267.469 1.83378 0.350646 0
M  V30 2918 C 267.82 1.08646 1.63372 0
M  V30 2919 O 266.945 0.338058 2.13743 0
M  V30 2920 C 267.54 3.32643 0.642963 0
M  V30 2921 C 266.099 3.59818 1.10491 0
M  V30 2922 C 265.246 2.76954 0.138411 0
M  V30 2923 H 268.197 1.53803 -0.391193 0
M  V30 2924 H 268.218 3.49878 1.49551 0
M  V30 2925 H 267.73 3.87007 -0.291055 0
M  V30 2926 H 265.831 3.1086 2.05418 0
M  V30 2927 H 265.944 4.68178 1.01716 0
M  V30 2928 H 264.308 2.4666 0.634911 0
M  V30 2929 H 265.091 3.34097 -0.789549 0
M  V30 2930 N 267.536 -0.106894 1.57237 0
M  V30 2931 C 268.484 -1.14944 2.02215 0
M  V30 2932 C 269.478 -1.42167 0.92114 0
M  V30 2933 O 270.684 -1.41987 1.10634 0
M  V30 2934 H 267.059 -0.387841 0.64427 0
M  V30 2935 H 269.03 -0.743683 2.88984 0
M  V30 2936 C 267.779 -2.4647 2.4525 0
M  V30 2937 H 267.102 -2.26363 3.29545 0
M  V30 2938 H 268.542 -3.17948 2.80508 0
M  V30 2939 C 267.001 -3.09921 1.321 0
M  V30 2940 O 267.531 -3.9651 0.643622 0
M  V30 2941 N 265.737 -2.69986 1.07497 0
M  V30 2942 H 265.284 -1.99667 1.62761 0
M  V30 2943 H 265.242 -3.12769 0.319876 0
M  V30 2944 N 269.014 -1.53014 -0.377408 0
M  V30 2945 C 270.244 -1.72265 -1.14054 0
M  V30 2946 C 270.652 -0.44601 -1.83868 0
M  V30 2947 O 269.995 0.590095 -1.73964 0
M  V30 2948 C 270.057 -2.82492 -2.22348 0
M  V30 2949 C 269.721 -4.23233 -1.72402 0
M  V30 2950 C 270.718 -5.05992 -1.19448 0
M  V30 2951 C 268.403 -4.696 -1.78273 0
M  V30 2952 C 270.397 -6.33203 -0.730268 0
M  V30 2953 C 268.084 -5.96792 -1.31464 0
M  V30 2954 C 269.082 -6.78424 -0.789297 0
M  V30 2955 O 268.77 -8.0323 -0.328077 0
M  V30 2956 H 268.502 -0.579873 -0.347453 0
M  V30 2957 H 271.056 -2.00502 -0.445882 0
M  V30 2958 H 269.286 -2.49702 -2.95272 0
M  V30 2959 H 270.975 -2.90034 -2.83963 0
M  V30 2960 H 271.741 -4.71349 -1.14259 0
M  V30 2961 H 267.62 -4.06142 -2.18106 0
M  V30 2962 H 271.164 -6.96868 -0.319542 0
M  V30 2963 H 267.061 -6.30937 -1.36342 0
M  V30 2964 H 267.829 -8.1727 -0.448493 0
M  V30 2965 N 270.492 0.636531 -1.44174 0
M  V30 2966 C 271.44 1.76995 -1.50915 0
M  V30 2967 C 272.434 1.65053 -0.381295 0
M  V30 2968 O 273.64 1.71197 -0.55601 0
M  V30 2969 H 270.015 0.584247 -0.473455 0
M  V30 2970 H 271.986 1.68432 -2.4632 0
M  V30 2971 C 270.735 3.15314 -1.46534 0
M  V30 2972 H 270.058 3.25149 -2.32633 0
M  V30 2973 H 271.498 3.9453 -1.55312 0
M  V30 2974 C 269.957 3.3639 -0.185305 0
M  V30 2975 O 270.487 3.94699 0.746688 0
M  V30 2976 N 268.693 2.9046 -0.0901606 0
M  V30 2977 H 268.24 2.43193 -0.849416 0
M  V30 2978 H 268.198 3.04937 0.765553 0
M  V30 2979 N 271.97 1.30982 0.876444 0
M  V30 2980 C 272.9 1.20668 1.99903 0
M  V30 2981 C 273.881 0.095354 1.69833 0
M  V30 2982 O 275.066 0.27885 1.92188 0
M  V30 2983 C 272.196 0.90655 3.3526 0
M  V30 2984 C 271.15 1.97675 3.79617 0
M  V30 2985 C 270.476 1.52943 5.1236 0
M  V30 2986 C 271.776 3.389 3.97422 0
M  V30 2987 H 273.47 2.14586 2.0879 0
M  V30 2988 H 271.016 1.03308 1.00317 0
M  V30 2989 H 272.969 0.821025 4.13324 0
M  V30 2990 H 271.693 -0.0682969 3.26529 0
M  V30 2991 H 270.352 2.05205 3.03787 0
M  V30 2992 H 270 0.54262 5.00065 0
M  V30 2993 H 269.7 2.24532 5.43009 0
M  V30 2994 H 271.224 1.45786 5.92941 0
M  V30 2995 H 272.638 3.34081 4.659 0
M  V30 2996 H 271.035 4.0865 4.3946 0
M  V30 2997 H 272.105 3.80163 3.01006 0
M  V30 2998 N 273.449 -1.08991 1.13837 0
M  V30 2999 C 274.698 -1.80631 0.897509 0
M  V30 3000 C 275.011 -1.86872 -0.57777 0
M  V30 3001 O 276.217 -2.54866 -0.935701 0
M  V30 3002 C 274.673 -3.24517 1.55618 0
M  V30 3003 C 274.281 -3.26529 3.0673 0
M  V30 3004 C 276.025 -4.00882 1.3962 0
M  V30 3005 C 273.932 -4.64965 3.65461 0
M  V30 3006 H 272.862 -0.67691 0.332129 0
M  V30 3007 H 275.513 -1.2246 1.3666 0
M  V30 3008 H 273.895 -3.82778 1.01476 0
M  V30 3009 H 275.069 -2.78008 3.67489 0
M  V30 3010 H 273.384 -2.63656 3.22296 0
M  V30 3011 H 275.981 -5.03167 1.80906 0
M  V30 3012 H 276.324 -4.14896 0.341578 0
M  V30 3013 H 276.857 -3.49075 1.90766 0
M  V30 3014 H 273.596 -4.56153 4.70749 0
M  V30 3015 H 273.116 -5.13792 3.09481 0
M  V30 3016 H 274.795 -5.3394 3.654 0
M  V30 3017 N 274.927 -0.932562 -1.27047 0
M  V30 3018 C 276.157 -0.591173 -1.97961 0
M  V30 3019 C 276.565 0.836219 -1.69717 0
M  V30 3020 O 275.908 1.56801 -0.957036 0
M  V30 3021 C 275.97 -0.743082 -3.51736 0
M  V30 3022 C 275.634 -2.1435 -4.03613 0
M  V30 3023 C 276.631 -3.11815 -4.16014 0
M  V30 3024 C 274.316 -2.46175 -4.37839 0
M  V30 3025 C 276.31 -4.39211 -4.61923 0
M  V30 3026 C 273.997 -3.73806 -4.83438 0
M  V30 3027 C 274.995 -4.70137 -4.95439 0
M  V30 3028 O 274.683 -5.95496 -5.40037 0
M  V30 3029 H 274.415 -0.222375 -0.638377 0
M  V30 3030 H 276.969 -1.25317 -1.62742 0
M  V30 3031 H 275.199 -0.0239739 -3.86693 0
M  V30 3032 H 276.888 -0.40603 -4.03864 0
M  V30 3033 H 277.654 -2.88549 -3.89826 0
M  V30 3034 H 273.533 -1.71936 -4.27737 0
M  V30 3035 H 277.077 -5.14404 -4.71205 0
M  V30 3036 H 272.974 -3.96888 -5.09068 0
M  V30 3037 H 273.742 -5.98554 -5.58279 0
M  V30 3038 N 276.405 1.4127 -0.698611 0
M  V30 3039 C 277.63 2.06024 -0.238512 0
M  V30 3040 C 278.055 1.5224 1.10475 0
M  V30 3041 O 277.413 0.650623 1.69223 0
M  V30 3042 C 277.461 3.59988 -0.209952 0
M  V30 3043 O 276.565 4.04282 0.814235 0
M  V30 3044 H 275.906 0.653829 -0.115775 0
M  V30 3045 H 278.436 1.8098 -0.954326 0
M  V30 3046 H 278.446 4.07979 -0.0418436 0
M  V30 3047 H 277.121 3.98503 -1.1903 0
M  V30 3048 H 275.698 3.6779 0.615234 0
M  V30 3049 N 277.883 0.443576 1.51229 0
M  V30 3050 C 278.816 -0.410089 2.24485 0
M  V30 3051 C 279.794 -1.01949 1.26669 0
M  V30 3052 O 280.978 -1.06075 1.55821 0
M  V30 3053 C 278.105 -1.57211 3.00004 0
M  V30 3054 C 277.151 -1.08279 4.12526 0
M  V30 3055 S 277.984 -0.0197476 5.35496 0
M  V30 3056 C 279.14 -1.18629 6.14555 0
M  V30 3057 H 279.373 0.211832 2.96544 0
M  V30 3058 H 276.906 0.228156 1.52705 0
M  V30 3059 H 278.864 -2.23825 3.44111 0
M  V30 3060 H 277.525 -2.16547 2.27522 0
M  V30 3061 H 276.718 -1.95193 4.64667 0
M  V30 3062 H 276.32 -0.494797 3.70713 0
M  V30 3063 H 278.612 -2.10344 6.4402 0
M  V30 3064 H 279.555 -0.70472 7.04584 0
M  V30 3065 H 279.963 -1.42768 5.46148 0
M  V30 3066 N 279.361 -1.56624 0.175154 0
M  V30 3067 C 280.601 -1.98894 -0.471221 0
M  V30 3068 C 280.965 -1.05889 -1.60161 0
M  V30 3069 O 282.166 -1.37315 -2.3108 0
M  V30 3070 C 280.437 -3.44865 -0.938241 0
M  V30 3071 S 281.996 -4.09164 -1.58526 0
M  V30 3072 H 278.814 -0.694686 -0.151434 0
M  V30 3073 H 281.416 -1.93577 0.27352 0
M  V30 3074 H 280.12 -4.10265 -0.10518 0
M  V30 3075 H 279.651 -3.53956 -1.71693 0
M  V30 3076 H 281.666 -4.04528 -2.87352 0
M  V30 3077 N 280.839 0.0985539 -1.57292 0
M  V30 3078 C 281.769 1.12064 -2.04851 0
M  V30 3079 C 282.75 1.41981 -0.936767 0
M  V30 3080 O 283.935 1.52071 -1.20781 0
M  V30 3081 C 281.065 2.44144 -2.47004 0
M  V30 3082 C 280.019 2.28643 -3.6181 0
M  V30 3083 C 279.345 3.65869 -3.89929 0
M  V30 3084 C 280.645 1.72986 -4.92822 0
M  V30 3085 H 282.339 0.724979 -2.9049 0
M  V30 3086 H 279.885 0.34729 -1.39749 0
M  V30 3087 H 281.838 3.15914 -2.78884 0
M  V30 3088 H 280.562 2.85639 -1.5836 0
M  V30 3089 H 279.221 1.59318 -3.30172 0
M  V30 3090 H 278.869 4.04885 -2.98458 0
M  V30 3091 H 278.569 3.56344 -4.67218 0
M  V30 3092 H 280.093 4.39112 -4.2428 0
M  V30 3093 H 281.507 2.34593 -5.23105 0
M  V30 3094 H 279.904 1.74229 -5.74251 0
M  V30 3095 H 280.974 0.689007 -4.7998 0
M  V30 3096 N 282.317 1.53212 0.369288 0
M  V30 3097 C 283.545 1.73119 1.13303 0
M  V30 3098 C 283.96 0.458455 1.83149 0
M  V30 3099 O 283.317 -0.568403 1.73423 0
M  V30 3100 C 283.368 2.89413 2.16616 0
M  V30 3101 O 283.089 4.11761 1.49614 0
M  V30 3102 C 284.59 3.21161 3.05566 0
M  V30 3103 H 281.81 0.579107 0.338934 0
M  V30 3104 H 284.354 1.99942 0.429338 0
M  V30 3105 H 282.509 2.64994 2.82589 0
M  V30 3106 H 282.923 4.76858 2.18419 0
M  V30 3107 H 284.397 4.05949 3.74045 0
M  V30 3108 H 284.874 2.36369 3.70171 0
M  V30 3109 H 285.48 3.47492 2.45213 0
M  V30 3110 N 283.795 -0.628877 1.44509 0
M  V30 3111 C 284.725 -1.75187 1.54376 0
M  V30 3112 C 285.706 -1.65411 0.396618 0
M  V30 3113 O 286.891 -1.84137 0.617031 0
M  V30 3114 C 284.021 -3.13725 1.48976 0
M  V30 3115 C 282.975 -3.38291 2.62189 0
M  V30 3116 C 282.301 -4.76883 2.41841 0
M  V30 3117 C 283.601 -3.30632 4.04326 0
M  V30 3118 H 285.295 -1.67187 2.48373 0
M  V30 3119 H 282.841 -0.802909 1.19538 0
M  V30 3120 H 284.794 -3.92064 1.54478 0
M  V30 3121 H 283.518 -3.22515 0.514961 0
M  V30 3122 H 282.177 -2.62334 2.56079 0
M  V30 3123 H 281.825 -4.82378 1.42548 0
M  V30 3124 H 281.525 -4.94278 3.17747 0
M  V30 3125 H 283.049 -5.57449 2.49165 0
M  V30 3126 H 284.463 -3.98873 4.11793 0
M  V30 3127 H 282.86 -3.59561 4.80454 0
M  V30 3128 H 283.93 -2.28404 4.27738 0
M  V30 3129 N 285.273 -1.31445 -0.869486 0
M  V30 3130 C 286.203 -1.21727 -1.99261 0
M  V30 3131 C 287.184 -0.104359 -1.6978 0
M  V30 3132 O 288.369 -0.289038 -1.92037 0
M  V30 3133 C 285.499 -0.924317 -3.34774 0
M  V30 3134 C 284.453 -1.99685 -3.78563 0
M  V30 3135 C 283.779 -1.55658 -5.11541 0
M  V30 3136 C 285.079 -3.41003 -3.95619 0
M  V30 3137 H 286.773 -2.1569 -2.07649 0
M  V30 3138 H 284.319 -1.03839 -0.997675 0
M  V30 3139 H 286.272 -0.842934 -4.12883 0
M  V30 3140 H 284.996 0.0509793 -3.2656 0
M  V30 3141 H 283.655 -2.06813 -3.02694 0
M  V30 3142 H 283.303 -0.569132 -4.9977 0
M  V30 3143 H 283.003 -2.27409 -5.41811 0
M  V30 3144 H 284.527 -1.48928 -5.92159 0
M  V30 3145 H 285.941 -3.36547 -4.64122 0
M  V30 3146 H 284.338 -4.10975 -4.37286 0
M  V30 3147 H 285.408 -3.81754 -2.98985 0
M  V30 3148 N 286.751 1.08385 -1.14413 0
M  V30 3149 C 287.999 1.80419 -0.910679 0
M  V30 3150 C 288.32 1.86658 0.564243 0
M  V30 3151 O 287.59 1.35985 1.41014 0
M  V30 3152 H 286.17 0.668204 -0.333934 0
M  V30 3153 H 288.832 1.31037 -1.44275 0
M  V30 3154 H 287.928 2.83238 -1.31082 0
M  V30 3155 N 288.23 0.939286 1.26551 0
M  V30 3156 C 289.477 0.585847 1.9384 0
M  V30 3157 C 289.805 -0.874784 1.73718 0
M  V30 3158 O 289.06 -1.64092 1.06642 0
M  V30 3159 C 289.359 0.872106 3.46596 0
M  V30 3160 C 289.025 2.31632 3.86856 0
M  V30 3161 C 287.687 2.71111 3.97558 0
M  V30 3162 C 290.039 3.25494 4.07066 0
M  V30 3163 C 287.367 4.03553 4.25866 0
M  V30 3164 C 289.719 4.57531 4.36862 0
M  V30 3165 C 288.383 4.96828 4.45778 0
M  V30 3166 H 287.653 0.214377 0.709312 0
M  V30 3167 H 290.3 1.18544 1.50398 0
M  V30 3168 H 288.605 0.18996 3.91339 0
M  V30 3169 H 290.302 0.577442 3.96821 0
M  V30 3170 H 286.892 2.00008 3.79071 0
M  V30 3171 H 291.076 2.9619 3.98227 0
M  V30 3172 H 286.332 4.33665 4.30981 0
M  V30 3173 H 290.506 5.30254 4.51446 0
M  V30 3174 H 288.133 5.99482 4.67468 0
M  V30 3175 N 289.708 -1.40897 0.706093 0
M  V30 3176 C 290.638 -2.33418 0.0620085 0
M  V30 3177 C 291.619 -1.52385 -0.755827 0
M  V30 3178 O 292.804 -1.80886 -0.706674 0
M  V30 3179 C 289.934 -3.36293 -0.867445 0
M  V30 3180 C 288.888 -4.27716 -0.155932 0
M  V30 3181 C 288.214 -5.2105 -1.20046 0
M  V30 3182 C 289.514 -5.12944 0.984149 0
M  V30 3183 H 291.208 -2.87527 0.83477 0
M  V30 3184 H 288.754 -1.38249 0.402875 0
M  V30 3185 H 290.707 -3.99949 -1.32735 0
M  V30 3186 H 289.431 -2.80556 -1.67199 0
M  V30 3187 H 288.09 -3.65498 0.284047 0
M  V30 3188 H 287.738 -4.61624 -1.99781 0
M  V30 3189 H 287.438 -5.83056 -0.729328 0
M  V30 3190 H 288.962 -5.87584 -1.66066 0
M  V30 3191 H 290.376 -5.70109 0.604048 0
M  V30 3192 H 288.773 -5.83945 1.38304 0
M  V30 3193 H 289.843 -4.49485 1.81911 0
M  V30 3194 N 291.186 -0.45159 -1.50991 0
M  V30 3195 C 292.435 0.111653 -2.01391 0
M  V30 3196 C 292.748 1.42529 -1.33959 0
M  V30 3197 O 293.954 2.07232 -1.75405 0
M  V30 3198 C 292.41 0.249514 -3.59034 0
M  V30 3199 C 292.018 -1.05453 -4.35412 0
M  V30 3200 C 293.762 0.765762 -4.17536 0
M  V30 3201 C 291.669 -0.881529 -5.84793 0
M  V30 3202 H 290.599 0.0455022 -0.752626 0
M  V30 3203 H 293.25 -0.583524 -1.73975 0
M  V30 3204 H 291.632 1.00803 -3.82955 0
M  V30 3205 H 292.806 -1.82248 -4.23229 0
M  V30 3206 H 291.121 -1.50039 -3.88429 0
M  V30 3207 H 293.718 0.911913 -5.26866 0
M  V30 3208 H 294.061 1.75201 -3.77638 0
M  V30 3209 H 294.594 0.0651744 -3.97747 0
M  V30 3210 H 291.333 -1.84057 -6.29129 0
M  V30 3211 H 290.853 -0.153625 -5.99603 0
M  V30 3212 H 292.532 -0.540363 -6.4474 0
M  V30 3213 N 292.664 1.56529 -0.183458 0
M  V30 3214 C 294.075 1.83739 0.331177 0
M  V30 3215 C 294.426 1.10373 1.62211 0
M  V30 3216 O 293.551 0.36071 2.13373 0
M  V30 3217 C 294.146 3.33306 0.607646 0
M  V30 3218 C 292.705 3.60969 1.06668 0
M  V30 3219 C 291.852 2.77086 0.109029 0
M  V30 3220 H 294.803 1.53379 -0.407484 0
M  V30 3221 H 294.824 3.51444 1.45832 0
M  V30 3222 H 294.336 3.86677 -0.332086 0
M  V30 3223 H 292.437 3.13021 2.0211 0
M  V30 3224 H 292.55 4.69231 0.967447 0
M  V30 3225 H 290.914 2.47319 0.608714 0
M  V30 3226 H 291.697 3.33241 -0.82494 0
M  V30 3227 N 294.142 -0.090211 1.57342 0
M  V30 3228 C 295.072 -1.10976 2.05443 0
M  V30 3229 C 296.053 -1.41482 0.944284 0
M  V30 3230 O 297.238 -1.51428 1.21586 0
M  V30 3231 C 294.368 -2.42831 2.48295 0
M  V30 3232 C 293.322 -2.26721 3.63018 0
M  V30 3233 C 292.648 -3.63796 3.91863 0
M  V30 3234 C 293.948 -1.7037 4.93732 0
M  V30 3235 H 295.642 -0.709564 2.9087 0
M  V30 3236 H 293.188 -0.339874 1.39932 0
M  V30 3237 H 295.141 -3.14431 2.80555 0
M  V30 3238 H 293.865 -2.84795 1.59873 0
M  V30 3239 H 292.524 -1.57565 3.31012 0
M  V30 3240 H 292.172 -4.03297 3.00601 0
M  V30 3241 H 291.872 -3.53861 4.69101 0
M  V30 3242 H 293.396 -4.36855 4.26603 0
M  V30 3243 H 294.81 -2.31816 5.24342 0
M  V30 3244 H 293.207 -1.71181 5.75167 0
M  V30 3245 H 294.277 -0.663542 4.80339 0
M  V30 3246 N 295.62 -1.53406 -0.361157 0
M  V30 3247 C 296.867 -1.69802 -1.10333 0
M  V30 3248 C 297.195 -0.452087 -1.89173 0
M  V30 3249 O 296.45 0.566017 -1.87336 0
M  V30 3250 C 296.749 -2.90211 -2.08596 0
M  V30 3251 C 296.415 -4.26539 -1.46203 0
M  V30 3252 C 295.077 -4.6361 -1.28915 0
M  V30 3253 C 297.429 -5.113 -1.01101 0
M  V30 3254 C 294.757 -5.83075 -0.651157 0
M  V30 3255 C 297.109 -6.31415 -0.387007 0
M  V30 3256 C 295.773 -6.67195 -0.201657 0
M  V30 3257 H 295.043 -0.621351 -0.403737 0
M  V30 3258 H 297.69 -1.87598 -0.384609 0
M  V30 3259 H 295.995 -2.66946 -2.86788 0
M  V30 3260 H 297.692 -3.00091 -2.65982 0
M  V30 3261 H 294.282 -3.97352 -1.60653 0
M  V30 3262 H 298.466 -4.83206 -1.13249 0
M  V30 3263 H 293.722 -6.09385 -0.496006 0
M  V30 3264 H 297.896 -6.96394 -0.0293563 0
M  V30 3265 H 295.523 -7.59628 0.294766 0
M  V30 3266 N 297.098 0.621204 -1.44841 0
M  V30 3267 C 298.344 1.3826 -1.48365 0
M  V30 3268 C 298.677 1.93831 -0.119624 0
M  V30 3269 O 297.952 1.74251 0.864111 0
M  V30 3270 C 298.235 2.54058 -2.55199 0
M  V30 3271 C 298.088 2.03772 -4.00995 0
M  V30 3272 C 299.407 3.56225 -2.58442 0
M  V30 3273 H 296.526 0.501374 -0.540179 0
M  V30 3274 H 299.168 0.7015 -1.76576 0
M  V30 3275 H 297.318 3.12162 -2.31274 0
M  V30 3276 H 298.99 1.50423 -4.36086 0
M  V30 3277 H 297.233 1.34876 -4.12299 0
M  V30 3278 H 297.904 2.87185 -4.71411 0
M  V30 3279 H 300.38 3.07939 -2.79844 0
M  V30 3280 H 299.256 4.34756 -3.3508 0
M  V30 3281 H 299.517 4.10949 -1.63013 0
M  V30 3282 N 298.576 1.31904 0.862503 0
M  V30 3283 C 299.509 1.14514 1.97388 0
M  V30 3284 C 300.487 0.0466493 1.62533 0
M  V30 3285 O 301.671 0.204484 1.87388 0
M  V30 3286 C 298.798 0.751347 3.30261 0
M  V30 3287 C 297.844 1.85395 3.84098 0
M  V30 3288 S 298.677 3.46081 4.08642 0
M  V30 3289 C 299.833 3.08655 5.44502 0
M  V30 3290 H 300.066 2.08597 2.11836 0
M  V30 3291 H 297.599 1.16475 1.01356 0
M  V30 3292 H 299.557 0.530901 4.07052 0
M  V30 3293 H 298.218 -0.170493 3.13637 0
M  V30 3294 H 297.411 1.53122 4.80177 0
M  V30 3295 H 297.013 2.02984 3.14123 0
M  V30 3296 H 299.305 2.58012 6.26447 0
M  V30 3297 H 300.248 4.03726 5.81731 0
M  V30 3298 H 300.656 2.45891 5.08132 0
M  V30 3299 N 300.054 -1.07777 1.14986 0
M  V30 3300 C 301.294 -1.81888 0.932527 0
M  V30 3301 C 301.658 -1.84509 -0.531064 0
M  V30 3302 O 302.859 -2.54448 -0.866577 0
M  V30 3303 C 301.13 -3.23244 1.52473 0
M  V30 3304 S 302.689 -4.14154 1.44989 0
M  V30 3305 H 299.507 -0.626752 0.335712 0
M  V30 3306 H 302.109 -1.29503 1.46455 0
M  V30 3307 H 300.813 -3.18922 2.58296 0
M  V30 3308 H 300.344 -3.80704 0.991381 0
M  V30 3309 H 302.359 -4.94247 0.439799 0
M  V30 3310 N 301.532 -0.945985 -1.26051 0
M  V30 3311 C 302.779 -0.596118 -1.93527 0
M  V30 3312 C 303.107 0.865559 -1.74179 0
M  V30 3313 O 302.362 1.63524 -1.0751 0
M  V30 3314 C 302.661 -0.890475 -3.46129 0
M  V30 3315 C 302.327 -2.3368 -3.85622 0
M  V30 3316 C 300.989 -2.73216 -3.96114 0
M  V30 3317 C 303.341 -3.27648 -4.05334 0
M  V30 3318 C 300.669 -4.05806 -4.2372 0
M  V30 3319 C 303.021 -4.59841 -4.3443 0
M  V30 3320 C 301.685 -4.99185 -4.43137 0
M  V30 3321 H 300.955 -0.218135 -0.708165 0
M  V30 3322 H 303.602 -1.1934 -1.49768 0
M  V30 3323 H 301.907 -0.210711 -3.91233 0
M  V30 3324 H 303.604 -0.598478 -3.96509 0
M  V30 3325 H 300.194 -2.02015 -3.78005 0
M  V30 3326 H 304.378 -2.98298 -3.96651 0
M  V30 3327 H 299.634 -4.35945 -4.28675 0
M  V30 3328 H 303.808 -5.32641 -4.48628 0
M  V30 3329 H 301.435 -6.01952 -4.64282 0
M  V30 3330 N 303.011 1.40521 -0.713556 0
M  V30 3331 C 304.258 2.00923 -0.25219 0
M  V30 3332 C 304.586 1.56571 1.15395 0
M  V30 3333 O 303.841 0.775874 1.79663 0
M  V30 3334 C 304.14 3.56317 -0.278 0
M  V30 3335 C 303.806 4.20246 -1.63415 0
M  V30 3336 C 302.468 4.37422 -2.00538 0
M  V30 3337 C 304.82 4.55923 -2.52554 0
M  V30 3338 C 302.148 4.87558 -3.2635 0
M  V30 3339 C 304.5 5.07458 -3.77716 0
M  V30 3340 C 303.164 5.22843 -4.14959 0
M  V30 3341 H 302.434 0.735231 -0.0922829 0
M  V30 3342 H 305.081 1.68161 -0.916188 0
M  V30 3343 H 303.386 3.88976 0.469567 0
M  V30 3344 H 305.083 4.00883 0.0967819 0
M  V30 3345 H 301.673 4.07263 -1.33546 0
M  V30 3346 H 305.857 4.42291 -2.25149 0
M  V30 3347 H 301.113 4.97654 -3.55176 0
M  V30 3348 H 305.287 5.34041 -4.4696 0
M  V30 3349 H 302.914 5.61454 -5.12516 0
M  V30 3350 N 304.489 0.459591 1.5075 0
M  V30 3351 C 305.719 -0.0972338 2.06371 0
M  V30 3352 C 306.127 -1.35074 1.32483 0
M  V30 3353 O 305.47 -1.79637 0.384226 0
M  V30 3354 C 305.532 -0.462759 3.56509 0
M  V30 3355 C 305.196 0.687084 4.51805 0
M  V30 3356 C 306.193 1.56578 4.95761 0
M  V30 3357 C 303.878 0.874144 4.94635 0
M  V30 3358 C 305.872 2.61604 5.81242 0
M  V30 3359 C 303.559 1.92765 5.79901 0
M  V30 3360 C 304.557 2.79697 6.23104 0
M  V30 3361 O 304.245 3.83235 7.06673 0
M  V30 3362 H 303.977 -0.00140687 0.675999 0
M  V30 3363 H 306.531 0.644011 1.95043 0
M  V30 3364 H 304.761 -1.25703 3.65699 0
M  V30 3365 H 306.45 -0.953323 3.94546 0
M  V30 3366 H 307.216 1.4329 4.6335 0
M  V30 3367 H 303.095 0.207006 4.60535 0
M  V30 3368 H 306.639 3.29489 6.14884 0
M  V30 3369 H 302.536 2.06064 6.11725 0
M  V30 3370 H 303.304 3.80084 7.24899 0
M  V30 3371 N 305.967 -1.56429 0.191757 0
M  V30 3372 C 307.197 -2.01574 -0.452928 0
M  V30 3373 C 307.605 -1.07107 -1.55964 0
M  V30 3374 O 306.948 -0.067534 -1.83576 0
M  V30 3375 C 307.01 -3.43121 -1.07278 0
M  V30 3376 C 306.674 -4.56879 -0.105214 0
M  V30 3377 C 307.671 -5.15379 0.684149 0
M  V30 3378 C 305.356 -5.023 0.00489824 0
M  V30 3379 C 307.35 -6.17746 1.57062 0
M  V30 3380 C 305.037 -6.04511 0.894935 0
M  V30 3381 C 306.035 -6.62108 1.67637 0
M  V30 3382 O 305.723 -7.62335 2.55149 0
M  V30 3383 H 305.455 -0.665554 -0.118379 0
M  V30 3384 H 308.009 -2.03245 0.296737 0
M  V30 3385 H 306.239 -3.38425 -1.87097 0
M  V30 3386 H 307.928 -3.72093 -1.62177 0
M  V30 3387 H 308.694 -4.81157 0.609365 0
M  V30 3388 H 304.573 -4.57168 -0.593156 0
M  V30 3389 H 308.117 -6.6263 2.181 0
M  V30 3390 H 304.014 -6.38157 0.970847 0
M  V30 3391 H 304.782 -7.79741 2.48892 0
M  V30 3392 N 307.445 0.0818655 -1.57387 0
M  V30 3393 C 308.392 1.09834 -2.0299 0
M  V30 3394 C 309.362 1.39043 -0.908639 0
M  V30 3395 O 310.547 1.50282 -1.17559 0
M  V30 3396 C 307.687 2.40971 -2.47037 0
M  V30 3397 C 306.8 2.18379 -3.7274 0
M  V30 3398 C 305.935 3.43008 -4.0561 0
M  V30 3399 C 304.974 3.15736 -5.24383 0
M  V30 3400 N 304.111 4.32667 -5.52941 0
M  V30 3401 H 308.951 0.702472 -2.89602 0
M  V30 3402 H 306.488 0.33531 -1.43227 0
M  V30 3403 H 308.446 3.1752 -2.70623 0
M  V30 3404 H 307.076 2.78379 -1.63417 0
M  V30 3405 H 306.128 1.32569 -3.56552 0
M  V30 3406 H 307.44 1.94227 -4.59431 0
M  V30 3407 H 306.594 4.27958 -4.30043 0
M  V30 3408 H 305.333 3.70225 -3.17466 0
M  V30 3409 H 304.338 2.2918 -4.99757 0
M  V30 3410 H 305.563 2.8985 -6.14136 0
M  V30 3411 H 303.509 4.59935 -4.67756 0
M  V30 3412 H 303.426 4.11753 -6.34031 0
M  V30 3413 H 304.694 5.18644 -5.81918 0
M  V30 3414 N 308.923 1.53595 0.353017 0
M  V30 3415 C 310.172 1.69603 1.09168 0
M  V30 3416 C 310.485 0.460925 1.90092 0
M  V30 3417 O 311.691 0.501774 2.66823 0
M  V30 3418 C 310.147 2.99872 1.9901 0
M  V30 3419 C 309.755 4.30687 1.23339 0
M  V30 3420 C 311.499 3.25246 2.72792 0
M  V30 3421 C 309.406 5.52036 2.12156 0
M  V30 3422 H 308.336 0.631966 0.411261 0
M  V30 3423 H 310.987 1.80096 0.351802 0
M  V30 3424 H 309.369 2.83212 2.7678 0
M  V30 3425 H 310.543 4.58019 0.505456 0
M  V30 3426 H 308.858 4.11853 0.613663 0
M  V30 3427 H 311.455 4.13095 3.39495 0
M  V30 3428 H 311.798 2.41846 3.38846 0
M  V30 3429 H 312.331 3.42638 2.021 0
M  V30 3430 H 309.07 6.37951 1.50659 0
M  V30 3431 H 308.59 5.28966 2.82764 0
M  V30 3432 H 310.269 5.87313 2.71427 0
M  V30 3433 N 310.401 -0.613514 1.45168 0
M  V30 3434 C 311.364 -1.7065 1.53007 0
M  V30 3435 C 312.364 -1.5548 0.410184 0
M  V30 3436 O 313.554 -1.60656 0.673455 0
M  V30 3437 C 310.686 -3.09875 1.42093 0
M  V30 3438 H 311.879 -1.65068 2.50385 0
M  V30 3439 H 309.432 -0.828728 1.32521 0
M  V30 3440 H 310.167 -3.21039 0.458769 0
M  V30 3441 H 309.952 -3.22293 2.23315 0
M  V30 3442 H 311.442 -3.895 1.50598 0
M  V30 3443 N 311.879 -1.3236 -0.855495 0
M  V30 3444 C 312.809 -1.23833 -1.97958 0
M  V30 3445 C 313.79 -0.122361 -1.69659 0
M  V30 3446 O 314.975 -0.30939 -1.9172 0
M  V30 3447 C 312.105 -0.959772 -3.33775 0
M  V30 3448 C 311.059 -2.03689 -3.76424 0
M  V30 3449 C 310.385 -1.61075 -5.09862 0
M  V30 3450 C 311.685 -3.4518 -3.9198 0
M  V30 3451 H 313.379 -2.1788 -2.0535 0
M  V30 3452 H 310.925 -1.04891 -0.986605 0
M  V30 3453 H 312.878 -0.886678 -4.11966 0
M  V30 3454 H 311.602 0.0163404 -3.26596 0
M  V30 3455 H 310.261 -2.10012 -3.00484 0
M  V30 3456 H 309.909 -0.622107 -4.99138 0
M  V30 3457 H 309.609 -2.33143 -5.39368 0
M  V30 3458 H 311.133 -1.55201 -5.90546 0
M  V30 3459 H 312.547 -3.4145 -4.60526 0
M  V30 3460 H 310.944 -4.1559 -4.32903 0
M  V30 3461 H 312.014 -3.84903 -2.94919 0
M  V30 3462 N 313.357 1.07166 -1.15556 0
M  V30 3463 C 314.604 1.79798 -0.931604 0
M  V30 3464 C 314.932 1.8682 0.54115 0
M  V30 3465 O 314.187 1.34942 1.41736 0
M  V30 3466 C 314.486 3.24707 -1.49332 0
M  V30 3467 C 314.152 3.37781 -2.98688 0
M  V30 3468 C 312.814 3.41057 -3.39461 0
M  V30 3469 C 315.166 3.40424 -3.94665 0
M  V30 3470 C 312.494 3.4458 -4.74849 0
M  V30 3471 C 314.846 3.45485 -5.29927 0
M  V30 3472 C 313.51 3.47039 -5.70193 0
M  V30 3473 H 312.78 0.657928 -0.340898 0
M  V30 3474 H 315.427 1.26091 -1.44129 0
M  V30 3475 H 313.732 3.81208 -0.904859 0
M  V30 3476 H 315.429 3.79486 -1.29582 0
M  V30 3477 H 312.019 3.35932 -2.66172 0
M  V30 3478 H 316.203 3.37113 -3.64237 0
M  V30 3479 H 311.459 3.44083 -5.05388 0
M  V30 3480 H 315.633 3.46476 -6.04092 0
M  V30 3481 H 313.26 3.49522 -6.75084 0
M  V30 3482 N 314.835 0.952656 1.25548 0
M  V30 3483 C 315.765 0.489287 2.28316 0
M  V30 3484 C 316.746 -0.463359 1.63667 0
M  V30 3485 O 317.931 -0.36274 1.90782 0
M  V30 3486 C 315.061 -0.235603 3.465 0
M  V30 3487 C 314.015 0.631593 4.23314 0
M  V30 3488 C 313.341 -0.223923 5.34231 0
M  V30 3489 C 314.641 1.90871 4.86174 0
M  V30 3490 H 316.335 1.34822 2.67326 0
M  V30 3491 H 313.881 0.649728 1.28509 0
M  V30 3492 H 315.834 -0.570882 4.17515 0
M  V30 3493 H 314.558 -1.12877 3.06474 0
M  V30 3494 H 313.217 0.949929 3.54079 0
M  V30 3495 H 312.865 -1.11678 4.90446 0
M  V30 3496 H 312.565 0.35299 5.86539 0
M  V30 3497 H 314.089 -0.554214 6.0808 0
M  V30 3498 H 315.503 1.63997 5.49343 0
M  V30 3499 H 313.9 2.43112 5.4865 0
M  V30 3500 H 314.97 2.61304 4.08471 0
M  V30 3501 N 316.313 -1.40141 0.720998 0
M  V30 3502 C 317.26 -2.30688 0.071919 0
M  V30 3503 C 318.23 -1.48476 -0.744584 0
M  V30 3504 O 319.415 -1.77201 -0.707423 0
M  V30 3505 C 316.555 -3.34724 -0.839855 0
M  V30 3506 C 315.668 -4.31998 -0.0122438 0
M  V30 3507 C 314.803 -5.23102 -0.923995 0
M  V30 3508 C 313.842 -6.12033 -0.0907969 0
M  V30 3509 N 312.979 -6.95537 -0.957718 0
M  V30 3510 H 317.819 -2.85628 0.849755 0
M  V30 3511 H 315.356 -1.40653 0.430726 0
M  V30 3512 H 317.314 -3.93618 -1.38279 0
M  V30 3513 H 315.944 -2.81274 -1.58381 0
M  V30 3514 H 314.996 -3.74841 0.64794 0
M  V30 3515 H 316.308 -4.94772 0.632595 0
M  V30 3516 H 315.462 -5.86953 -1.53527 0
M  V30 3517 H 314.201 -4.60615 -1.60264 0
M  V30 3518 H 313.206 -5.47207 0.533377 0
M  V30 3519 H 314.431 -6.76581 0.584428 0
M  V30 3520 H 312.377 -6.35633 -1.62192 0
M  V30 3521 H 312.294 -7.55099 -0.36904 0
M  V30 3522 H 313.562 -7.63832 -1.555 0
M  V30 3523 N 317.792 -0.46758 -1.50504 0
M  V30 3524 C 318.724 0.364655 -2.26281 0
M  V30 3525 C 319.737 0.960151 -1.31472 0
M  V30 3526 O 320.926 0.849153 -1.57008 0
M  V30 3527 C 318.026 1.52509 -3.02645 0
M  V30 3528 C 317.199 1.04302 -4.24782 0
M  V30 3529 C 316.258 2.07709 -4.8347 0
M  V30 3530 O 315.284 1.65913 -5.44483 0
M  V30 3531 N 316.486 3.40485 -4.70159 0
M  V30 3532 H 319.251 -0.28495 -2.98342 0
M  V30 3533 H 316.812 -0.298163 -1.59131 0
M  V30 3534 H 318.804 2.21371 -3.38787 0
M  V30 3535 H 317.374 2.07945 -2.33404 0
M  V30 3536 H 316.594 0.180393 -3.93787 0
M  V30 3537 H 317.882 0.698798 -5.03978 0
M  V30 3538 H 317.28 3.77155 -4.21629 0
M  V30 3539 H 315.837 4.05156 -5.1058 0
M  V30 3540 N 319.27 1.56325 -0.20005 0
M  V30 3541 C 320.686 1.58839 0.155716 0
M  V30 3542 C 320.886 1.21636 1.60645 0
M  V30 3543 O 319.942 0.941437 2.34293 0
M  V30 3544 C 321.255 3.0032 -0.151124 0
M  V30 3545 C 322.803 3.12866 -0.0916284 0
M  V30 3546 C 323.278 4.56488 -0.371845 0
M  V30 3547 N 324.769 4.62089 -0.320641 0
M  V30 3548 C 325.504 5.71116 -0.511243 0
M  V30 3549 N 325 6.88592 -0.762461 0
M  V30 3550 N 326.793 5.60335 -0.445157 0
M  V30 3551 H 318.944 1.78788 -1.14668 0
M  V30 3552 H 321.207 0.829996 -0.458051 0
M  V30 3553 H 320.913 3.32117 -1.15721 0
M  V30 3554 H 320.787 3.73257 0.543986 0
M  V30 3555 H 323.174 2.80878 0.905065 0
M  V30 3556 H 323.255 2.42304 -0.81989 0
M  V30 3557 H 322.899 4.89189 -1.36588 0
M  V30 3558 H 322.829 5.25246 0.377362 0
M  V30 3559 H 325.32 3.77665 -0.13329 0
M  V30 3560 H 325.633 7.67581 -0.896576 0
M  V30 3561 H 323.978 6.90387 -0.799412 0
M  V30 3562 H 327.169 4.67436 -0.249278 0
M  V30 3563 H 327.342 6.45243 -0.597116 0
M  V30 3564 N 320.748 -0.0735177 1.57428 0
M  V30 3565 C 321.696 -1.10628 2.04607 0
M  V30 3566 C 322.69 -1.40181 0.951088 0
M  V30 3567 O 323.896 -1.39608 1.1362 0
M  V30 3568 H 320.271 -0.374088 0.652351 0
M  V30 3569 H 322.242 -0.682218 2.90497 0
M  V30 3570 C 320.991 -2.41212 2.50423 0
M  V30 3571 H 320.314 -2.19322 3.34272 0
M  V30 3572 H 321.754 -3.11927 2.87189 0
M  V30 3573 C 320.213 -3.0705 1.38644 0
M  V30 3574 O 320.743 -3.95056 0.727582 0
M  V30 3575 N 318.949 -2.67645 1.132 0
M  V30 3576 H 318.496 -1.96169 1.66959 0
M  V30 3577 H 318.454 -3.1202 0.386147 0
M  V30 3578 N 322.226 -1.5378 -0.344866 0
M  V30 3579 C 323.642 -1.44015 -0.687888 0
M  V30 3580 C 323.842 -0.595834 -1.92489 0
M  V30 3581 O 322.898 -0.0863064 -2.52352 0
M  V30 3582 C 324.211 -2.87481 -0.881758 0
M  V30 3583 C 325.759 -2.97247 -0.980459 0
M  V30 3584 C 326.234 -4.41819 -1.20665 0
M  V30 3585 N 327.725 -4.45339 -1.27389 0
M  V30 3586 C 328.46 -5.54333 -1.46639 0
M  V30 3587 N 327.956 -6.73335 -1.63071 0
M  V30 3588 N 329.749 -5.41944 -1.49176 0
M  V30 3589 H 321.9 -2.07169 0.468475 0
M  V30 3590 H 324.163 -0.93643 0.147655 0
M  V30 3591 H 323.869 -3.51672 -0.0443444 0
M  V30 3592 H 323.743 -3.32352 -1.78388 0
M  V30 3593 H 326.13 -2.33197 -1.8084 0
M  V30 3594 H 326.211 -2.5574 -0.0552713 0
M  V30 3595 H 325.855 -5.06449 -0.383652 0
M  V30 3596 H 325.785 -4.80917 -2.14539 0
M  V30 3597 H 328.276 -3.59585 -1.1622 0
M  V30 3598 H 328.589 -7.52165 -1.77391 0
M  V30 3599 H 326.934 -6.76282 -1.60209 0
M  V30 3600 H 330.125 -4.47932 -1.3592 0
M  V30 3601 H 330.298 -6.26946 -1.63837 0
M  V30 3602 N 323.704 0.605807 -1.45491 0
M  V30 3603 C 324.636 1.73031 -1.5031 0
M  V30 3604 C 325.649 1.57968 -0.393687 0
M  V30 3605 O 326.838 1.65817 -0.660839 0
M  V30 3606 C 323.938 3.11049 -1.34543 0
M  V30 3607 C 323.111 3.52334 -2.59189 0
M  V30 3608 C 322.17 4.69323 -2.37954 0
M  V30 3609 O 321.196 4.7635 -3.11575 0
M  V30 3610 N 322.398 5.62705 -1.4263 0
M  V30 3611 H 325.163 1.6936 -2.4726 0
M  V30 3612 H 322.724 0.79114 -1.41254 0
M  V30 3613 H 324.716 3.87071 -1.18144 0
M  V30 3614 H 323.286 3.09217 -0.458623 0
M  V30 3615 H 322.506 2.66256 -2.90691 0
M  V30 3616 H 323.794 3.76677 -3.42041 0
M  V30 3617 H 323.192 5.59744 -0.818758 0
M  V30 3618 H 321.749 6.38252 -1.32202 0
M  V30 3619 N 325.182 1.32811 0.848464 0
M  V30 3620 C 326.428 1.23907 1.60546 0
M  V30 3621 C 326.761 -0.197161 1.93197 0
M  V30 3622 O 326.036 -1.13596 1.5788 0
M  V30 3623 C 326.319 2.10489 2.92175 0
M  V30 3624 C 326.172 3.62522 2.66266 0
M  V30 3625 C 327.491 1.97075 3.93509 0
M  V30 3626 H 324.61 0.451459 0.58254 0
M  V30 3627 H 327.252 1.62818 0.979296 0
M  V30 3628 H 325.402 1.77434 3.45614 0
M  V30 3629 H 327.074 4.05821 2.19334 0
M  V30 3630 H 325.317 3.84879 2.00126 0
M  V30 3631 H 325.988 4.18437 3.6002 0
M  V30 3632 H 328.464 2.26045 3.49346 0
M  V30 3633 H 327.34 2.59923 4.83457 0
M  V30 3634 H 327.601 0.940186 4.31987 0
M  V30 3635 N 326.66 -1.06551 1.16123 0
M  V30 3636 C 327.623 -2.12132 0.867906 0
M  V30 3637 C 328.623 -1.60224 -0.135944 0
M  V30 3638 O 329.813 -1.73943 0.0946422 0
M  V30 3639 C 326.945 -3.396 0.297419 0
M  V30 3640 H 328.138 -2.39586 1.80385 0
M  V30 3641 H 325.691 -1.22574 0.969812 0
M  V30 3642 H 326.426 -3.17794 -0.64633 0
M  V30 3643 H 326.211 -3.78581 1.02073 0
M  V30 3644 H 327.701 -4.17455 0.110052 0
M  V30 3645 N 328.138 -0.959301 -1.25041 0
M  V30 3646 C 329.366 -0.633949 -1.96948 0
M  V30 3647 C 329.781 0.794916 -1.7125 0
M  V30 3648 O 329.138 1.53231 -0.991287 0
M  V30 3649 C 329.189 -0.888805 -3.50403 0
M  V30 3650 O 328.91 -2.26149 -3.75218 0
M  V30 3651 C 330.411 -0.576482 -4.39536 0
M  V30 3652 H 327.631 -0.237263 -0.627652 0
M  V30 3653 H 330.175 -1.28495 -1.59089 0
M  V30 3654 H 328.33 -0.284145 -3.86357 0
M  V30 3655 H 328.744 -2.33514 -4.6965 0
M  V30 3656 H 330.218 -0.805314 -5.46094 0
M  V30 3657 H 330.695 0.489075 -4.36468 0
M  V30 3658 H 331.301 -1.16067 -4.09156 0
M  V30 3659 N 329.616 1.39756 -0.72842 0
M  V30 3660 C 330.579 2.29012 -0.0927297 0
M  V30 3661 C 331.579 1.45992 0.674025 0
M  V30 3662 O 332.769 1.66749 0.50402 0
M  V30 3663 C 329.901 3.29396 0.878137 0
M  V30 3664 H 331.094 2.86729 -0.879011 0
M  V30 3665 H 328.647 1.48293 -0.493847 0
M  V30 3666 H 329.382 2.76722 1.69101 0
M  V30 3667 H 329.167 3.907 0.331051 0
M  V30 3668 H 330.657 3.96199 1.3197 0
M  V30 3669 N 331.094 0.475555 1.50254 0
M  V30 3670 C 332.024 -0.30611 2.31485 0
M  V30 3671 C 333.005 -0.986228 1.38591 0
M  V30 3672 O 334.19 -0.982541 1.67511 0
M  V30 3673 C 331.32 -1.38588 3.1845 0
M  V30 3674 C 330.274 -0.827115 4.19932 0
M  V30 3675 C 329.6 -2.00551 4.95665 0
M  V30 3676 C 330.9 0.16463 5.2204 0
M  V30 3677 H 332.594 0.371866 2.97082 0
M  V30 3678 H 330.14 0.180282 1.42867 0
M  V30 3679 H 332.093 -1.94023 3.74076 0
M  V30 3680 H 330.817 -2.09269 2.50747 0
M  V30 3681 H 329.476 -0.294702 3.65414 0
M  V30 3682 H 329.124 -2.6994 4.2443 0
M  V30 3683 H 328.824 -1.63784 5.64313 0
M  V30 3684 H 330.348 -2.56468 5.54127 0
M  V30 3685 H 331.762 -0.300699 5.72511 0
M  V30 3686 H 330.159 0.446813 5.98434 0
M  V30 3687 H 331.229 1.08905 4.72512 0
M  V30 3688 N 332.573 -1.56217 0.208337 0
M  V30 3689 C 333.984 -1.84243 -0.301904 0
M  V30 3690 C 334.335 -1.12939 -1.60434 0
M  V30 3691 O 333.46 -0.39461 -2.12772 0
M  V30 3692 C 334.055 -3.34231 -0.554543 0
M  V30 3693 C 332.614 -3.62621 -1.00912 0
M  V30 3694 C 331.761 -2.77224 -0.064933 0
M  V30 3695 H 334.712 -1.52712 0.431833 0
M  V30 3696 H 334.733 -3.5372 -1.40223 0
M  V30 3697 H 334.245 -3.86099 0.393561 0
M  V30 3698 H 332.346 -3.16197 -1.97104 0
M  V30 3699 H 332.459 -4.7071 -0.892674 0
M  V30 3700 H 330.823 -2.48256 -0.56929 0
M  V30 3701 H 331.606 -3.31887 0.877851 0
M  V30 3702 N 334.051 0.0651679 -1.57465 0
M  V30 3703 C 334.981 1.07693 -2.07182 0
M  V30 3704 C 335.962 1.39962 -0.966673 0
M  V30 3705 O 337.147 1.49475 -1.2398 0
M  V30 3706 C 334.277 2.3885 -2.52127 0
M  V30 3707 C 333.231 2.20917 -3.66579 0
M  V30 3708 C 332.557 3.57515 -3.97601 0
M  V30 3709 C 333.857 1.62493 -4.9638 0
M  V30 3710 H 335.551 0.663199 -2.91962 0
M  V30 3711 H 333.097 0.317569 -1.40455 0
M  V30 3712 H 335.05 3.09928 -2.85522 0
M  V30 3713 H 333.774 2.82215 -1.64384 0
M  V30 3714 H 332.433 1.52279 -3.33477 0
M  V30 3715 H 332.081 3.98463 -3.06979 0
M  V30 3716 H 331.781 3.46353 -4.74672 0
M  V30 3717 H 333.305 4.30013 -4.33499 0
M  V30 3718 H 334.719 2.23445 -5.27963 0
M  V30 3719 H 333.116 1.62009 -5.77818 0
M  V30 3720 H 334.186 0.587041 -4.81333 0
M  V30 3721 N 335.529 1.53961 0.336706 0
M  V30 3722 C 336.439 1.85432 1.43708 0
M  V30 3723 C 337.455 0.745053 1.57242 0
M  V30 3724 O 338.631 1.03804 1.72588 0
M  V30 3725 C 335.696 2.06349 2.78605 0
M  V30 3726 C 334.757 3.30191 2.74358 0
M  V30 3727 C 333.99 3.50101 4.02822 0
M  V30 3728 O 334.213 2.7371 5.00439 0
M  V30 3729 O 333.147 4.43547 4.06878 0
M  V30 3730 H 336.973 2.78975 1.20028 0
M  V30 3731 H 334.558 1.39701 0.52952 0
M  V30 3732 H 336.44 2.21513 3.58483 0
M  V30 3733 H 335.115 1.15995 3.02203 0
M  V30 3734 H 334.022 3.20425 1.93078 0
M  V30 3735 H 335.355 4.2056 2.55715 0
M  V30 3736 N 337.007 -0.598083 1.45811 0
M  V30 3737 C 337.954 -1.7082 1.55207 0
M  V30 3738 C 338.924 -1.61278 0.39732 0
M  V30 3739 O 340.109 -1.80717 0.612038 0
M  V30 3740 C 337.249 -3.09144 1.53376 0
M  V30 3741 C 336.362 -3.29423 2.79472 0
M  V30 3742 C 335.497 -4.57907 2.69248 0
M  V30 3743 C 334.536 -4.71476 3.90354 0
M  V30 3744 N 333.673 -5.9127 3.78608 0
M  V30 3745 H 338.513 -1.62125 2.50039 0
M  V30 3746 H 336.05 -0.790389 1.24062 0
M  V30 3747 H 338.008 -3.89186 1.50301 0
M  V30 3748 H 336.638 -3.16773 0.620876 0
M  V30 3749 H 335.69 -2.43091 2.92594 0
M  V30 3750 H 337.002 -3.3532 3.69272 0
M  V30 3751 H 336.156 -5.46157 2.64192 0
M  V30 3752 H 334.895 -4.54423 1.77063 0
M  V30 3753 H 333.9 -3.81648 3.95759 0
M  V30 3754 H 335.125 -4.76751 4.83617 0
M  V30 3755 H 333.071 -5.88813 2.89199 0
M  V30 3756 H 332.988 -5.98369 4.6205 0
M  V30 3757 H 334.256 -6.81992 3.77501 0
M  V30 3758 N 338.485 -1.33259 -0.841409 0
M  V30 3759 C 339.896 -1.22066 -1.41269 0
M  V30 3760 C 340.247 0.161479 -1.95534 0
M  V30 3761 O 339.372 1.06094 -1.88608 0
M  V30 3762 C 339.967 -2.20996 -2.568 0
M  V30 3763 C 338.526 -2.13649 -3.09888 0
M  V30 3764 C 337.673 -2.08623 -1.82679 0
M  V30 3765 H 340.624 -1.44895 -0.647395 0
M  V30 3766 H 340.645 -1.81621 -3.34356 0
M  V30 3767 H 340.157 -3.2158 -2.17274 0
M  V30 3768 H 338.258 -1.16359 -3.53965 0
M  V30 3769 H 338.371 -3.04079 -3.70234 0
M  V30 3770 H 336.735 -1.54061 -2.02824 0
M  V30 3771 H 337.518 -3.1101 -1.45353 0
M  V30 3772 N 339.963 1.05934 -1.16686 0
M  V30 3773 C 340.893 2.1546 -0.899949 0
M  V30 3774 C 341.874 1.69391 0.155154 0
M  V30 3775 O 343.059 1.94199 0.00648693 0
M  V30 3776 C 340.189 3.44939 -0.404241 0
M  V30 3777 C 339.143 4.04536 -1.39767 0
M  V30 3778 C 338.469 5.29268 -0.760216 0
M  V30 3779 C 339.769 4.42893 -2.76845 0
M  V30 3780 H 341.463 2.38046 -1.81588 0
M  V30 3781 H 339.009 1.14404 -0.874514 0
M  V30 3782 H 340.962 4.20901 -0.204971 0
M  V30 3783 H 339.686 3.21983 0.547206 0
M  V30 3784 H 338.345 3.30635 -1.58355 0
M  V30 3785 H 337.993 5.02611 0.197831 0
M  V30 3786 H 337.693 5.70101 -1.42332 0
M  V30 3787 H 339.217 6.07924 -0.57105 0
M  V30 3788 H 340.631 5.09921 -2.62019 0
M  V30 3789 H 339.028 4.94721 -3.39663 0
M  V30 3790 H 340.098 3.53584 -3.31823 0
M  V30 3791 N 341.441 0.965919 1.2453 0
M  V30 3792 C 342.389 0.486506 2.27455 0
M  V30 3793 C 343.383 -0.449041 1.6334 0
M  V30 3794 O 344.589 -0.324527 1.7705 0
M  V30 3795 H 340.964 0.138857 0.739069 0
M  V30 3796 H 342.935 1.3666 2.65267 0
M  V30 3797 C 341.684 -0.209481 3.47068 0
M  V30 3798 H 341.007 0.50129 3.96645 0
M  V30 3799 H 342.447 -0.508775 4.20936 0
M  V30 3800 C 340.906 -1.43586 3.0477 0
M  V30 3801 O 341.436 -2.53299 3.11773 0
M  V30 3802 N 339.642 -1.30126 2.59838 0
M  V30 3803 H 339.189 -0.408583 2.54339 0
M  V30 3804 H 339.147 -2.12294 2.31902 0
M  V30 3805 N 342.919 -1.39368 0.735821 0
M  V30 3806 C 343.849 -2.33234 0.111506 0
M  V30 3807 C 344.83 -1.53954 -0.723334 0
M  V30 3808 O 346.015 -1.82344 -0.668147 0
M  V30 3809 C 343.145 -3.38057 -0.795917 0
M  V30 3810 C 342.099 -4.2795 -0.065172 0
M  V30 3811 C 341.425 -5.23479 -1.08967 0
M  V30 3812 C 342.725 -5.10741 1.09273 0
M  V30 3813 H 344.419 -2.85692 0.895571 0
M  V30 3814 H 341.965 -1.37364 0.432109 0
M  V30 3815 H 343.918 -4.02675 -1.24221 0
M  V30 3816 H 342.642 -2.8404 -1.61211 0
M  V30 3817 H 341.301 -3.64813 0.361511 0
M  V30 3818 H 340.949 -4.65758 -1.89944 0
M  V30 3819 H 340.649 -5.84472 -0.605489 0
M  V30 3820 H 342.173 -5.90974 -1.53565 0
M  V30 3821 H 343.587 -5.68699 0.724841 0
M  V30 3822 H 341.984 -5.8088 1.50659 0
M  V30 3823 H 343.054 -4.45525 1.91404 0
M  V30 3824 N 344.397 -0.483516 -1.5 0
M  V30 3825 C 345.643 0.0672592 -2.02688 0
M  V30 3826 C 345.976 1.38247 -1.36387 0
M  V30 3827 O 345.251 1.88131 -0.493675 0
M  V30 3828 C 345.534 0.238109 -3.59312 0
M  V30 3829 C 345.387 -1.099 -4.36168 0
M  V30 3830 C 346.706 0.986916 -4.28892 0
M  V30 3831 H 343.825 0.0229696 -0.736642 0
M  V30 3832 H 346.467 -0.631527 -1.79197 0
M  V30 3833 H 344.617 0.8333 -3.79458 0
M  V30 3834 H 346.289 -1.73172 -4.27562 0
M  V30 3835 H 344.532 -1.69261 -3.99416 0
M  V30 3836 H 345.203 -0.932954 -5.44059 0
M  V30 3837 H 347.679 0.482302 -4.13295 0
M  V30 3838 H 346.555 1.07527 -5.38265 0
M  V30 3839 H 346.816 2.0265 -3.92919 0
M  V30 3840 N 345.875 1.56104 -0.216619 0
M  V30 3841 C 347.124 1.97348 0.416744 0
M  V30 3842 C 347.437 1.10715 1.6125 0
M  V30 3843 O 348.643 1.41836 2.31506 0
M  V30 3844 C 347.099 3.51059 0.792835 0
M  V30 3845 C 346.707 4.46387 -0.379828 0
M  V30 3846 C 348.451 4.01026 1.39208 0
M  V30 3847 C 346.358 5.91397 0.0184223 0
M  V30 3848 H 345.288 0.736942 0.159475 0
M  V30 3849 H 347.939 1.80827 -0.31205 0
M  V30 3850 H 346.321 3.63162 1.57891 0
M  V30 3851 H 347.495 4.46029 -1.15737 0
M  V30 3852 H 345.81 4.06734 -0.891979 0
M  V30 3853 H 348.407 5.0686 1.70286 0
M  V30 3854 H 348.75 3.46587 2.30614 0
M  V30 3855 H 349.283 3.92125 0.669537 0
M  V30 3856 H 346.022 6.49807 -0.862002 0
M  V30 3857 H 345.542 5.94961 0.760384 0
M  V30 3858 H 347.221 6.45455 0.446818 0
M  V30 3859 N 347.353 -0.0568162 1.57498 0
M  V30 3860 C 348.286 -1.09817 2.00039 0
M  V30 3861 C 349.264 -1.3674 0.879819 0
M  V30 3862 O 350.448 -1.49863 1.14338 0
M  V30 3863 C 347.575 -2.43924 2.34986 0
M  V30 3864 C 346.621 -2.33039 3.57204 0
M  V30 3865 S 347.454 -1.7102 5.07457 0
M  V30 3866 C 348.61 -3.06674 5.45621 0
M  V30 3867 H 348.843 -0.735701 2.88053 0
M  V30 3868 H 346.376 -0.265871 1.52094 0
M  V30 3869 H 348.334 -3.2106 2.55795 0
M  V30 3870 H 346.995 -2.77327 1.47474 0
M  V30 3871 H 346.188 -3.31973 3.79223 0
M  V30 3872 H 345.79 -1.64043 3.36104 0
M  V30 3873 H 348.082 -4.03 5.44608 0
M  V30 3874 H 349.025 -2.8942 6.46252 0
M  V30 3875 H 349.433 -3.07969 4.73091 0
M  V30 3876 N 348.832 -1.54138 -0.328536 0
M  V30 3877 C 349.795 -1.82462 -1.38709 0
M  V30 3878 C 350.795 -0.696229 -1.44946 0
M  V30 3879 O 351.985 -0.964535 -1.4506 0
M  V30 3880 C 349.117 -1.98018 -2.77492 0
M  V30 3881 H 350.31 -2.77037 -1.14851 0
M  V30 3882 H 347.863 -1.45779 -0.563751 0
M  V30 3883 H 348.598 -1.05637 -3.06613 0
M  V30 3884 H 348.383 -2.80124 -2.74359 0
M  V30 3885 H 349.873 -2.21396 -3.54081 0
M  V30 3886 N 350.31 0.590341 -1.46126 0
M  V30 3887 C 351.556 1.35082 -1.51264 0
M  V30 3888 C 351.889 1.93534 -0.160711 0
M  V30 3889 O 351.164 1.76045 0.826956 0
M  V30 3890 C 351.447 2.48588 -2.6053 0
M  V30 3891 C 351.3 1.95221 -4.05227 0
M  V30 3892 C 352.619 3.50662 -2.6594 0
M  V30 3893 H 349.738 0.489803 -0.550692 0
M  V30 3894 H 352.38 0.663887 -1.78024 0
M  V30 3895 H 350.53 3.07186 -2.37843 0
M  V30 3896 H 352.202 1.41139 -4.39178 0
M  V30 3897 H 350.445 1.26101 -4.15068 0
M  V30 3898 H 351.116 2.77121 -4.77397 0
M  V30 3899 H 353.592 3.01934 -2.86313 0
M  V30 3900 H 352.468 4.27551 -3.44226 0
M  V30 3901 H 352.729 4.07399 -1.71694 0
M  V30 3902 N 351.788 1.33704 0.83433 0
M  V30 3903 C 353.034 1.25603 1.59222 0
M  V30 3904 C 353.367 -0.176659 1.93395 0
M  V30 3905 O 352.642 -1.11915 1.59076 0
M  V30 3906 C 352.925 2.13576 2.89926 0
M  V30 3907 C 352.778 3.65326 2.62406 0
M  V30 3908 C 354.097 2.01238 3.91397 0
M  V30 3909 H 351.216 0.457613 0.577719 0
M  V30 3910 H 353.858 1.63848 0.961972 0
M  V30 3911 H 352.008 1.8109 3.43713 0
M  V30 3912 H 353.68 4.08124 2.15017 0
M  V30 3913 H 351.923 3.8698 1.96033 0
M  V30 3914 H 352.594 4.22232 3.55562 0
M  V30 3915 H 355.07 2.29738 3.46929 0
M  V30 3916 H 353.946 2.65036 4.80673 0
M  V30 3917 H 354.207 0.985951 4.30966 0
M  V30 3918 N 353.266 -1.05314 1.17247 0
M  V30 3919 C 354.515 -1.77685 0.954521 0
M  V30 3920 C 354.828 -1.88616 -0.518025 0
M  V30 3921 O 356.034 -2.57714 -0.854144 0
M  V30 3922 C 354.49 -3.19402 1.65863 0
M  V30 3923 C 354.098 -3.16605 3.16963 0
M  V30 3924 C 355.842 -3.96237 1.52303 0
M  V30 3925 C 353.749 -4.53103 3.80068 0
M  V30 3926 H 352.679 -0.666 0.353496 0
M  V30 3927 H 355.33 -1.1805 1.40486 0
M  V30 3928 H 353.712 -3.79355 1.13602 0
M  V30 3929 H 354.886 -2.66176 3.76148 0
M  V30 3930 H 353.201 -2.53268 3.30521 0
M  V30 3931 H 355.798 -4.97157 1.96822 0
M  V30 3932 H 356.141 -4.136 0.473401 0
M  V30 3933 H 356.674 -3.42829 2.01775 0
M  V30 3934 H 353.413 -4.40946 4.85023 0
M  V30 3935 H 352.933 -5.03686 3.2567 0
M  V30 3936 H 354.612 -5.22045 3.82202 0
M  V30 3937 N 354.744 -0.972509 -1.24016 0
M  V30 3938 C 355.991 -0.637034 -1.92219 0
M  V30 3939 C 356.319 0.828418 -1.75976 0
M  V30 3940 O 355.574 1.61206 -1.10955 0
M  V30 3941 C 355.873 -0.963694 -3.44162 0
M  V30 3942 C 355.539 -2.41807 -3.80579 0
M  V30 3943 C 354.201 -2.81556 -3.9023 0
M  V30 3944 C 356.553 -3.36172 -3.98293 0
M  V30 3945 C 353.881 -4.14702 -4.15017 0
M  V30 3946 C 356.233 -4.68952 -4.24578 0
M  V30 3947 C 354.897 -5.08472 -4.32449 0
M  V30 3948 H 354.167 -0.233107 -0.703379 0
M  V30 3949 H 356.814 -1.2249 -1.47202 0
M  V30 3950 H 355.119 -0.29365 -3.90698 0
M  V30 3951 H 356.816 -0.682449 -3.9515 0
M  V30 3952 H 353.406 -2.09988 -3.73635 0
M  V30 3953 H 357.59 -3.06644 -3.90234 0
M  V30 3954 H 352.846 -4.4494 -4.19331 0
M  V30 3955 H 357.02 -5.42037 -4.37229 0
M  V30 3956 H 354.647 -6.11665 -4.51409 0
M  V30 3957 N 356.222 1.38976 -0.743202 0
M  V30 3958 C 357.447 2.05161 -0.303936 0
M  V30 3959 C 357.872 1.55677 1.05576 0
M  V30 3960 O 357.23 0.704131 1.67068 0
M  V30 3961 C 357.278 3.59138 -0.324373 0
M  V30 3962 O 356.382 4.06668 0.685204 0
M  V30 3963 H 355.723 0.649815 -0.136518 0
M  V30 3964 H 358.253 1.77852 -1.01142 0
M  V30 3965 H 358.263 4.07639 -0.171618 0
M  V30 3966 H 356.938 3.94515 -1.31647 0
M  V30 3967 H 355.515 3.69561 0.497913 0
M  V30 3968 N 357.7 0.491464 1.49741 0
M  V30 3969 C 358.946 -0.0565092 2.02721 0
M  V30 3970 C 359.279 -1.37522 1.37118 0
M  V30 3971 O 358.554 -1.87866 0.503645 0
M  V30 3972 C 358.837 -0.219051 3.59433 0
M  V30 3973 C 358.69 1.12211 4.35579 0
M  V30 3974 C 360.009 -0.964157 4.29409 0
M  V30 3975 H 357.128 -0.0190627 0.736753 0
M  V30 3976 H 359.77 0.641021 1.7886 0
M  V30 3977 H 357.92 -0.813165 3.79895 0
M  V30 3978 H 359.592 1.75437 4.26637 0
M  V30 3979 H 357.835 1.71377 3.98513 0
M  V30 3980 H 358.506 0.961794 5.43556 0
M  V30 3981 H 360.982 -0.460378 4.13545 0
M  V30 3982 H 359.858 -1.04671 5.38828 0
M  V30 3983 H 360.119 -2.00563 3.93988 0
M  V30 3984 N 359.178 -1.55987 0.224894 0
M  V30 3985 C 360.108 -2.23426 -0.678457 0
M  V30 3986 C 361.089 -1.20709 -1.19847 0
M  V30 3987 O 362.274 -1.49304 -1.24186 0
M  V30 3988 C 359.404 -2.91676 -1.88527 0
M  V30 3989 C 358.358 -4.00893 -1.49896 0
M  V30 3990 C 357.684 -4.56455 -2.78483 0
M  V30 3991 C 358.984 -5.17769 -0.686461 0
M  V30 3992 H 360.678 -2.99175 -0.116173 0
M  V30 3993 H 358.224 -1.43897 -0.054436 0
M  V30 3994 H 360.177 -3.37547 -2.5227 0
M  V30 3995 H 358.901 -2.1338 -2.47258 0
M  V30 3996 H 357.56 -3.55758 -0.884985 0
M  V30 3997 H 357.208 -3.74886 -3.35365 0
M  V30 3998 H 356.908 -5.30169 -2.53368 0
M  V30 3999 H 358.432 -5.05047 -3.43162 0
M  V30 4000 H 359.846 -5.60001 -1.22767 0
M  V30 4001 H 358.243 -5.97735 -0.532259 0
M  V30 4002 H 359.313 -4.83932 0.306196 0
M  V30 4003 N 360.656 0.0484629 -1.57525 0
M  V30 4004 C 361.903 0.743125 -1.88372 0
M  V30 4005 C 362.231 1.76383 -0.819715 0
M  V30 4006 O 361.486 1.94855 0.181659 0
M  V30 4007 C 361.785 1.46632 -3.25935 0
M  V30 4008 C 361.451 0.583427 -4.4711 0
M  V30 4009 C 360.113 0.340191 -4.79996 0
M  V30 4010 C 362.465 -0.0273345 -5.21193 0
M  V30 4011 C 359.793 -0.522903 -5.84365 0
M  V30 4012 C 362.145 -0.878017 -6.26477 0
M  V30 4013 C 360.809 -1.1309 -6.5785 0
M  V30 4014 H 360.079 0.271929 -0.689301 0
M  V30 4015 H 362.726 0.00336166 -1.915 0
M  V30 4016 H 361.031 2.2789 -3.18706 0
M  V30 4017 H 362.728 2.00902 -3.47044 0
M  V30 4018 H 359.318 0.783151 -4.21384 0
M  V30 4019 H 363.502 0.147654 -4.9608 0
M  V30 4020 H 358.758 -0.727335 -6.07058 0
M  V30 4021 H 362.932 -1.35789 -6.83033 0
M  V30 4022 H 360.559 -1.80144 -7.38547 0
M  V30 4023 N 362.134 1.5431 0.320358 0
M  V30 4024 C 363.362 1.76636 1.07738 0
M  V30 4025 C 363.777 0.51649 1.81598 0
M  V30 4026 O 363.134 -0.512942 1.75143 0
M  V30 4027 C 363.185 2.96158 2.07299 0
M  V30 4028 O 362.906 4.16313 1.36438 0
M  V30 4029 C 364.407 3.3072 2.95193 0
M  V30 4030 H 361.627 0.589597 0.320339 0
M  V30 4031 H 364.171 2.01207 0.36551 0
M  V30 4032 H 362.326 2.73851 2.74016 0
M  V30 4033 H 362.74 4.83565 2.03138 0
M  V30 4034 H 364.214 4.17643 3.60941 0
M  V30 4035 H 364.691 2.48026 3.62463 0
M  V30 4036 H 365.297 3.55117 2.34034 0
M  V30 4037 N 363.613 -0.582584 1.46437 0
M  V30 4038 C 365.024 -1.1647 1.45916 0
M  V30 4039 C 365.375 -1.95177 0.200077 0
M  V30 4040 O 364.5 -2.04874 -0.696819 0
M  V30 4041 C 365.095 -2.11885 2.64367 0
M  V30 4042 C 363.654 -2.65421 2.66887 0
M  V30 4043 C 362.801 -1.41294 2.38603 0
M  V30 4044 H 365.752 -0.370514 1.54314 0
M  V30 4045 H 365.773 -2.9535 2.39892 0
M  V30 4046 H 365.285 -1.54573 3.5599 0
M  V30 4047 H 363.386 -3.26602 1.79338 0
M  V30 4048 H 363.499 -3.08147 3.66854 0
M  V30 4049 H 361.863 -1.71109 1.88663 0
M  V30 4050 H 362.646 -0.858125 3.32402 0
M  V30 4051 N 365.091 -1.34144 -0.827227 0
M  V30 4052 C 366.321 -1.29138 -1.61267 0
M  V30 4053 C 366.729 0.137597 -1.88699 0
M  V30 4054 O 366.072 1.09379 -1.47587 0
M  V30 4055 C 366.134 -2.0097 -2.9808 0
M  V30 4056 C 365.798 -3.50242 -2.93563 0
M  V30 4057 C 366.795 -4.4523 -2.68452 0
M  V30 4058 C 364.48 -3.92592 -3.13331 0
M  V30 4059 C 366.474 -5.80542 -2.63154 0
M  V30 4060 C 364.161 -5.28005 -3.07658 0
M  V30 4061 C 365.159 -6.21792 -2.82602 0
M  V30 4062 O 364.847 -7.54723 -2.76853 0
M  V30 4063 H 364.579 -0.445851 -0.508127 0
M  V30 4064 H 367.133 -1.77263 -1.03763 0
M  V30 4065 H 365.363 -1.47451 -3.57484 0
M  V30 4066 H 367.052 -1.89309 -3.5905 0
M  V30 4067 H 367.818 -4.13832 -2.52919 0
M  V30 4068 H 363.697 -3.19994 -3.31851 0
M  V30 4069 H 367.241 -6.53717 -2.43516 0
M  V30 4070 H 363.138 -5.59023 -3.22743 0
M  V30 4071 H 363.906 -7.64409 -2.92611 0
M  V30 4072 N 366.569 1.04691 -1.17803 0
M  V30 4073 C 367.519 2.10856 -0.867391 0
M  V30 4074 C 368.503 1.601 0.160206 0
M  V30 4075 O 369.695 1.76948 -0.042947 0
M  V30 4076 C 366.824 3.411 -0.388012 0
M  V30 4077 C 365.91 3.9864 -1.44732 0
M  V30 4078 N 366.301 4.30075 -2.66212 0
M  V30 4079 C 364.599 4.26439 -1.30637 0
M  V30 4080 C 365.3 4.76033 -3.34317 0
M  V30 4081 N 364.276 4.76462 -2.61696 0
M  V30 4082 H 368.078 2.33029 -1.79094 0
M  V30 4083 H 365.592 1.22386 -1.0675 0
M  V30 4084 H 367.589 4.16641 -0.146994 0
M  V30 4085 H 366.249 3.20357 0.529271 0
M  V30 4086 H 367.26 4.19917 -3.03134 0
M  V30 4087 H 363.937 4.15056 -0.451129 0
M  V30 4088 H 365.327 5.09427 -4.38103 0
M  V30 4089 N 368.047 0.979072 1.23499 0
M  V30 4090 C 369.293 0.648178 1.92163 0
M  V30 4091 C 369.626 -0.816049 1.76222 0
M  V30 4092 O 368.901 -1.58849 1.12237 0
M  V30 4093 C 369.184 1.03773 3.44824 0
M  V30 4094 C 369.037 2.55948 3.69879 0
M  V30 4095 C 370.356 0.580653 4.36253 0
M  V30 4096 H 367.475 0.236952 0.69787 0
M  V30 4097 H 370.117 1.22012 1.45647 0
M  V30 4098 H 368.267 0.551058 3.84572 0
M  V30 4099 H 369.939 3.12179 3.3962 0
M  V30 4100 H 368.182 2.98641 3.14636 0
M  V30 4101 H 368.853 2.78255 4.76737 0
M  V30 4102 H 371.329 0.998465 4.03943 0
M  V30 4103 H 370.205 0.881663 5.41773 0
M  V30 4104 H 370.466 -0.519052 4.39042 0
M  V30 4105 N 369.525 -1.3858 0.750561 0
M  V30 4106 C 370.458 -2.28095 0.0693139 0
M  V30 4107 C 371.436 -1.45217 -0.731491 0
M  V30 4108 O 372.62 -1.74587 -0.71076 0
M  V30 4109 C 369.747 -3.26282 -0.90871 0
M  V30 4110 C 368.793 -4.26056 -0.194507 0
M  V30 4111 S 369.626 -5.24026 1.10257 0
M  V30 4112 C 370.782 -6.2577 0.127542 0
M  V30 4113 H 371.015 -2.85526 0.8284 0
M  V30 4114 H 368.548 -1.44536 0.543014 0
M  V30 4115 H 370.506 -3.83367 -1.46766 0
M  V30 4116 H 369.167 -2.6784 -1.64075 0
M  V30 4117 H 368.36 -4.95249 -0.93512 0
M  V30 4118 H 367.962 -3.72852 0.292837 0
M  V30 4119 H 370.254 -6.73796 -0.707516 0
M  V30 4120 H 371.197 -7.03712 0.787044 0
M  V30 4121 H 371.605 -5.63938 -0.251803 0
M  V30 4122 N 371.003 -0.499398 -1.49478 0
M  V30 4123 C 372.419 -0.155261 -1.58843 0
M  V30 4124 C 372.619 1.34008 -1.50479 0
M  V30 4125 O 371.675 2.11589 -1.37791 0
M  V30 4126 C 372.988 -0.730636 -2.91689 0
M  V30 4127 C 374.536 -0.696599 -3.0515 0
M  V30 4128 C 375.011 -1.25001 -4.40612 0
M  V30 4129 N 376.502 -1.21064 -4.47099 0
M  V30 4130 C 377.237 -1.60905 -5.50361 0
M  V30 4131 N 376.733 -2.08331 -6.60735 0
M  V30 4132 N 378.526 -1.52331 -5.41065 0
M  V30 4133 H 370.677 -1.47162 -1.53158 0
M  V30 4134 H 372.94 -0.610309 -0.725415 0
M  V30 4135 H 372.646 -1.77928 -3.03372 0
M  V30 4136 H 372.52 -0.190161 -3.7672 0
M  V30 4137 H 374.907 0.343204 -2.93097 0
M  V30 4138 H 374.988 -1.2742 -2.21806 0
M  V30 4139 H 374.632 -2.28859 -4.53416 0
M  V30 4140 H 374.562 -0.64836 -5.22593 0
M  V30 4141 H 377.053 -0.863128 -3.67911 0
M  V30 4142 H 377.366 -2.36805 -7.35624 0
M  V30 4143 H 375.711 -2.12304 -6.6178 0
M  V30 4144 H 378.902 -1.151 -4.53729 0
M  V30 4145 H 379.075 -1.83704 -6.21415 0
M  V30 4146 N 372.481 1.55866 -0.233164 0
M  V30 4147 C 373.429 2.22176 0.68851 0
M  V30 4148 C 374.423 1.20487 1.19076 0
M  V30 4149 O 375.629 1.38536 1.14925 0
M  V30 4150 H 372.004 0.712511 0.240483 0
M  V30 4151 H 373.975 2.98212 0.105935 0
M  V30 4152 C 372.724 2.92446 1.88071 0
M  V30 4153 H 372.047 3.70458 1.50337 0
M  V30 4154 H 373.487 3.42226 2.50314 0
M  V30 4155 C 371.946 1.95555 2.74335 0
M  V30 4156 O 372.476 1.47986 3.73447 0
M  V30 4157 N 370.682 1.62953 2.40613 0
M  V30 4158 H 370.229 2.01831 1.60069 0
M  V30 4159 H 370.187 0.983886 2.98609 0
M  V30 4160 N 373.959 -0.0401083 1.57549 0
M  V30 4161 C 375.205 -0.734211 1.89043 0
M  V30 4162 C 375.538 -1.75591 0.829535 0
M  V30 4163 O 374.813 -1.93868 -0.156706 0
M  V30 4164 C 375.096 -1.41374 3.31188 0
M  V30 4165 C 374.949 -0.406299 4.47961 0
M  V30 4166 C 376.268 -2.35061 3.72068 0
M  V30 4167 H 373.387 -0.265447 0.687537 0
M  V30 4168 H 376.029 0.00294087 1.9 0
M  V30 4169 H 374.179 -2.04206 3.30503 0
M  V30 4170 H 375.851 0.219255 4.60779 0
M  V30 4171 H 374.094 0.275485 4.32924 0
M  V30 4172 H 374.765 -0.920022 5.44279 0
M  V30 4173 H 377.241 -1.82282 3.74049 0
M  V30 4174 H 376.117 -2.79593 4.72355 0
M  V30 4175 H 376.378 -3.21258 3.0372 0
M  V30 4176 N 375.437 -1.54477 -0.31217 0
M  V30 4177 C 376.853 -1.45442 -0.657185 0
M  V30 4178 C 377.053 -0.63653 -1.91182 0
M  V30 4179 O 376.109 -0.139815 -2.52113 0
M  V30 4180 C 377.422 -2.89287 -0.82058 0
M  V30 4181 C 378.97 -2.9926 -0.917188 0
M  V30 4182 C 379.445 -4.44279 -1.11267 0
M  V30 4183 N 380.936 -4.4794 -1.17914 0
M  V30 4184 C 381.671 -5.57318 -1.34848 0
M  V30 4185 N 381.167 -6.76642 -1.48752 0
M  V30 4186 N 382.96 -5.44986 -1.37647 0
M  V30 4187 H 375.111 -2.06129 0.512313 0
M  V30 4188 H 377.374 -0.933088 0.167485 0
M  V30 4189 H 377.08 -3.51687 0.0302604 0
M  V30 4190 H 376.954 -3.36061 -1.71298 0
M  V30 4191 H 379.341 -2.36981 -1.75852 0
M  V30 4192 H 379.422 -2.558 -0.00101257 0
M  V30 4193 H 379.066 -5.07149 -0.27614 0
M  V30 4194 H 378.996 -4.85359 -2.04289 0
M  V30 4195 H 381.487 -3.61969 -1.08567 0
M  V30 4196 H 381.8 -7.55758 -1.61397 0
M  V30 4197 H 380.145 -6.79529 -1.45828 0
M  V30 4198 H 383.336 -4.50715 -1.26388 0
M  V30 4199 H 383.509 -6.3028 -1.50501 0
M  V30 4200 N 376.915 0.57481 -1.46744 0
M  V30 4201 C 378.164 1.32898 -1.51727 0
M  V30 4202 C 378.477 1.948 -0.176692 0
M  V30 4203 O 379.683 2.71299 -0.104385 0
M  V30 4204 C 378.139 2.40901 -2.67385 0
M  V30 4205 C 377.747 1.85266 -4.07898 0
M  V30 4206 C 379.491 3.17609 -2.81646 0
M  V30 4207 C 377.398 2.90945 -5.14883 0
M  V30 4208 H 376.328 0.499631 -0.564699 0
M  V30 4209 H 378.979 0.612536 -1.72975 0
M  V30 4210 H 377.361 3.15379 -2.39483 0
M  V30 4211 H 378.535 1.17278 -4.45626 0
M  V30 4212 H 376.85 1.21199 -3.98371 0
M  V30 4213 H 379.447 3.96493 -3.58744 0
M  V30 4214 H 379.79 3.70696 -1.89448 0
M  V30 4215 H 380.323 2.50239 -3.09233 0
M  V30 4216 H 377.062 2.42736 -6.089 0
M  V30 4217 H 376.582 3.57398 -4.81691 0
M  V30 4218 H 378.261 3.54755 -5.41071 0
M  V30 4219 N 378.394 1.34581 0.820102 0
M  V30 4220 C 379.357 1.2628 1.91275 0
M  V30 4221 C 380.357 0.177344 1.59819 0
M  V30 4222 O 381.547 0.430156 1.68806 0
M  V30 4223 C 378.679 0.950327 3.27386 0
M  V30 4224 H 379.872 2.23421 2.00057 0
M  V30 4225 H 377.425 1.1891 1.0144 0
M  V30 4226 H 378.16 -0.0177938 3.24295 0
M  V30 4227 H 377.945 1.73549 3.51601 0
M  V30 4228 H 379.435 0.917492 4.07396 0
M  V30 4229 N 379.872 -1.04064 1.18357 0
M  V30 4230 C 381.097 -1.81454 1.00445 0
M  V30 4231 C 381.522 -1.82823 -0.442423 0
M  V30 4232 O 380.88 -1.24555 -1.31741 0
M  V30 4233 C 380.928 -3.24925 1.56384 0
M  V30 4234 O 380.032 -4.04856 0.785209 0
M  V30 4235 H 379.373 -0.560604 0.355835 0
M  V30 4236 H 381.903 -1.31059 1.57114 0
M  V30 4237 H 381.913 -3.75702 1.59097 0
M  V30 4238 H 380.588 -3.23244 2.61699 0
M  V30 4239 H 379.165 -3.63537 0.830399 0
M  V30 4240 N 381.35 -0.985608 -1.22978 0
M  V30 4241 C 382.766 -0.695104 -1.43668 0
M  V30 4242 C 382.966 0.736866 -1.87543 0
M  V30 4243 O 382.022 1.50868 -2.02473 0
M  V30 4244 C 383.335 -1.69447 -2.48412 0
M  V30 4245 C 384.883 -1.70909 -2.62219 0
M  V30 4246 C 385.358 -2.6969 -3.70178 0
M  V30 4247 N 386.849 -2.6824 -3.77626 0
M  V30 4248 C 387.584 -3.41339 -4.60733 0
M  V30 4249 N 387.08 -4.24015 -5.4789 0
M  V30 4250 N 388.873 -3.30079 -4.54977 0
M  V30 4251 H 381.024 -1.91054 -0.928016 0
M  V30 4252 H 383.287 -0.823553 -0.469536 0
M  V30 4253 H 382.993 -2.7188 -2.23102 0
M  V30 4254 H 382.867 -1.48147 -3.46889 0
M  V30 4255 H 385.254 -0.691785 -2.86877 0
M  V30 4256 H 385.335 -1.96276 -1.6404 0
M  V30 4257 H 384.979 -3.71566 -3.46268 0
M  V30 4258 H 384.909 -2.41595 -4.67909 0
M  V30 4259 H 387.4 -2.08243 -3.15346 0
M  V30 4260 H 387.713 -4.76636 -6.08308 0
M  V30 4261 H 386.058 -4.28104 -5.47496 0
M  V30 4262 H 389.249 -2.64937 -3.85909 0
M  V30 4263 H 389.422 -3.87308 -5.19516 0
M  V30 4264 N 382.828 1.3818 -0.7579 0
M  V30 4265 C 383.758 2.33027 -0.148597 0
M  V30 4266 C 384.739 1.55085 0.69875 0
M  V30 4267 O 385.924 1.83384 0.639053 0
M  V30 4268 C 383.054 3.3928 0.742034 0
M  V30 4269 C 382.008 4.28 -0.00291946 0
M  V30 4270 C 381.334 5.25146 1.00625 0
M  V30 4271 C 382.634 5.08938 -1.17385 0
M  V30 4272 H 384.328 2.84231 -0.940909 0
M  V30 4273 H 381.874 1.36659 -0.453908 0
M  V30 4274 H 383.827 4.046 1.17799 0
M  V30 4275 H 382.551 2.86569 1.56671 0
M  V30 4276 H 381.21 3.64192 -0.419504 0
M  V30 4277 H 380.858 4.68721 1.8251 0
M  V30 4278 H 380.558 5.85361 0.512428 0
M  V30 4279 H 382.082 5.93342 1.44143 0
M  V30 4280 H 383.496 5.67474 -0.815224 0
M  V30 4281 H 381.893 5.7841 -1.59882 0
M  V30 4282 H 382.963 4.42424 -1.98468 0
M  V30 4283 N 384.306 0.507319 1.49211 0
M  V30 4284 C 385.554 -0.0348839 2.0207 0
M  V30 4285 C 385.875 -1.36898 1.38866 0
M  V30 4286 O 385.145 -1.88133 0.546151 0
M  V30 4287 H 383.725 -0.0158812 0.746831 0
M  V30 4288 H 386.387 0.665998 1.83168 0
M  V30 4289 H 385.483 -0.159917 3.1169 0
M  V30 4290 N 385.784 -1.5574 0.241426 0
M  V30 4291 C 387.009 -2.0366 -0.392111 0
M  V30 4292 C 387.434 -1.11969 -1.51144 0
M  V30 4293 O 386.792 -0.111594 -1.80956 0
M  V30 4294 C 386.84 -3.49638 -0.882371 0
M  V30 4295 O 385.944 -3.6108 -1.99235 0
M  V30 4296 H 385.285 -0.658379 -0.0862122 0
M  V30 4297 H 387.815 -2.01302 0.365881 0
M  V30 4298 H 387.825 -3.90351 -1.18702 0
M  V30 4299 H 386.5 -4.15852 -0.0632361 0
M  V30 4300 H 385.077 -3.32262 -1.69282 0
M  V30 4301 N 387.262 0.0317525 -1.57568 0
M  V30 4302 C 388.508 0.718712 -1.90279 0
M  V30 4303 C 388.863 1.73108 -0.839727 0
M  V30 4304 O 388.156 1.90997 0.15188 0
M  V30 4305 C 388.35 1.43167 -3.27472 0
M  V30 4306 C 388.179 0.489869 -4.47024 0
M  V30 4307 C 386.949 0.111909 -5.05176 0
M  V30 4308 C 389.147 -0.230592 -5.13783 0
M  V30 4309 N 387.129 -0.831427 -6.08244 0
M  V30 4310 C 388.5 -1.02968 -6.1139 0
M  V30 4311 C 390.555 -0.297821 -4.97008 0
M  V30 4312 C 389.258 -1.88982 -6.9403 0
M  V30 4313 C 391.284 -1.14507 -5.80209 0
M  V30 4314 C 390.646 -1.9321 -6.77384 0
M  V30 4315 H 386.745 0.237177 -0.745165 0
M  V30 4316 H 389.329 -0.0211267 -1.94689 0
M  V30 4317 H 387.5 2.14199 -3.23996 0
M  V30 4318 H 389.232 2.0708 -3.47707 0
M  V30 4319 H 385.987 0.473513 -4.71227 0
M  V30 4320 H 386.411 -1.29752 -6.6445 0
M  V30 4321 H 391.053 0.296346 -4.2176 0
M  V30 4322 H 388.771 -2.4948 -7.68626 0
M  V30 4323 H 392.357 -1.20059 -5.69278 0
M  V30 4324 H 391.237 -2.57711 -7.40645 0
M  V30 4325 N 388.74 1.54641 0.303973 0
M  V30 4326 C 389.687 1.85386 1.37479 0
M  V30 4327 C 390.657 0.702528 1.50512 0
M  V30 4328 O 391.842 0.950867 1.65418 0
M  V30 4329 C 388.982 2.10413 2.73533 0
M  V30 4330 C 388.095 3.38049 2.68974 0
M  V30 4331 C 387.23 3.52934 3.97002 0
M  V30 4332 C 386.269 4.74373 3.86829 0
M  V30 4333 N 385.406 4.8608 5.06627 0
M  V30 4334 H 390.246 2.76732 1.1056 0
M  V30 4335 H 387.783 1.37034 0.534805 0
M  V30 4336 H 389.741 2.22919 3.52652 0
M  V30 4337 H 388.371 1.22338 2.98719 0
M  V30 4338 H 387.423 3.3418 1.81736 0
M  V30 4339 H 388.735 4.27288 2.57346 0
M  V30 4340 H 387.889 3.65088 4.84557 0
M  V30 4341 H 386.628 2.61824 4.1146 0
M  V30 4342 H 385.633 4.62255 2.97658 0
M  V30 4343 H 386.858 5.66888 3.73918 0
M  V30 4344 H 384.804 3.97891 5.21554 0
M  V30 4345 H 384.721 5.69315 4.9741 0
M  V30 4346 H 385.989 5.02587 5.95841 0
M  V30 4347 N 390.218 -0.567019 1.47046 0
M  V30 4348 C 391.15 -1.68985 1.54844 0
M  V30 4349 C 392.163 -1.56869 0.435431 0
M  V30 4350 O 393.352 -1.64006 0.70457 0
M  V30 4351 C 390.452 -3.07373 1.42742 0
M  V30 4352 C 389.625 -3.45339 2.6844 0
M  V30 4353 C 388.684 -4.62849 2.50314 0
M  V30 4354 O 387.71 -4.67922 3.24095 0
M  V30 4355 N 388.912 -5.58726 1.57499 0
M  V30 4356 H 391.677 -1.62745 2.51663 0
M  V30 4357 H 389.238 -0.753411 1.43302 0
M  V30 4358 H 391.23 -3.83803 1.28365 0
M  V30 4359 H 389.8 -3.07893 0.540445 0
M  V30 4360 H 389.02 -2.58455 2.97648 0
M  V30 4361 H 390.308 -3.67476 3.51907 0
M  V30 4362 H 389.706 -5.57376 0.966876 0
M  V30 4363 H 388.263 -6.34523 1.49078 0
M  V30 4364 N 391.696 -1.35014 -0.812953 0
M  V30 4365 C 392.926 -1.30841 -1.59888 0
M  V30 4366 C 393.334 0.117576 -1.88834 0
M  V30 4367 O 392.677 1.07807 -1.48739 0
M  V30 4368 C 392.739 -2.0412 -2.95931 0
M  V30 4369 C 392.403 -3.53336 -2.89832 0
M  V30 4370 C 393.4 -4.48052 -2.63714 0
M  V30 4371 C 391.085 -3.95894 -3.0915 0
M  V30 4372 C 393.079 -5.833 -2.56982 0
M  V30 4373 C 390.766 -5.31239 -3.0204 0
M  V30 4374 C 391.764 -6.24754 -2.75991 0
M  V30 4375 O 391.452 -7.57617 -2.68833 0
M  V30 4376 H 391.184 -0.451215 -0.50337 0
M  V30 4377 H 393.738 -1.78354 -1.01877 0
M  V30 4378 H 391.968 -1.51235 -3.559 0
M  V30 4379 H 393.657 -1.93107 -3.57022 0
M  V30 4380 H 394.423 -4.16492 -2.48515 0
M  V30 4381 H 390.302 -3.23495 -3.28438 0
M  V30 4382 H 393.846 -6.56263 -2.36569 0
M  V30 4383 H 389.743 -5.62415 -3.16796 0
M  V30 4384 H 390.511 -7.67469 -2.84487 0
M  V30 4385 N 393.175 1.03435 -1.18907 0
M  V30 4386 C 394.107 2.1165 -0.879595 0
M  V30 4387 C 395.12 1.62316 0.125439 0
M  V30 4388 O 396.309 1.78201 -0.103245 0
M  V30 4389 C 393.409 3.37622 -0.294042 0
M  V30 4390 C 392.582 4.16166 -1.34629 0
M  V30 4391 C 391.641 5.20457 -0.775274 0
M  V30 4392 O 390.667 5.50379 -1.4516 0
M  V30 4393 N 391.869 5.78949 0.424126 0
M  V30 4394 H 394.634 2.38791 -1.81105 0
M  V30 4395 H 392.195 1.19681 -1.09032 0
M  V30 4396 H 394.187 4.04572 0.101679 0
M  V30 4397 H 392.757 3.07873 0.541575 0
M  V30 4398 H 391.977 3.44444 -1.91707 0
M  V30 4399 H 393.265 4.65432 -2.05549 0
M  V30 4400 H 392.663 5.56948 0.991209 0
M  V30 4401 H 391.22 6.47334 0.761691 0
M  V30 4402 N 394.653 0.992116 1.22453 0
M  V30 4403 C 395.893 0.675727 1.92907 0
M  V30 4404 C 396.257 -0.777762 1.75542 0
M  V30 4405 O 397.458 -1.20553 2.40251 0
M  V30 4406 C 395.729 1.0696 3.4102 0
M  V30 4407 S 397.288 0.871456 4.30059 0
M  V30 4408 H 394.106 0.247089 0.666684 0
M  V30 4409 H 396.708 1.27423 1.48269 0
M  V30 4410 H 395.412 2.12383 3.51172 0
M  V30 4411 H 394.943 0.462858 3.90668 0
M  V30 4412 H 396.958 -0.238436 4.95627 0
M  V30 4413 N 396.131 -1.37776 0.765217 0
M  V30 4414 C 397.359 -2.04124 0.337767 0
M  V30 4415 C 397.774 -1.57715 -1.03785 0
M  V30 4416 O 397.131 -0.755447 -1.6613 0
M  V30 4417 C 397.182 -3.59658 0.364442 0
M  V30 4418 O 396.903 -4.04367 1.68579 0
M  V30 4419 C 398.404 -4.43236 -0.0754221 0
M  V30 4420 H 395.624 -0.655696 0.142491 0
M  V30 4421 H 398.168 -1.76238 1.03732 0
M  V30 4422 H 396.323 -3.86339 -0.286471 0
M  V30 4423 H 396.737 -4.98857 1.61993 0
M  V30 4424 H 398.211 -5.52 -0.00560067 0
M  V30 4425 H 398.688 -4.2455 -1.12491 0
M  V30 4426 H 399.294 -4.21767 0.547055 0
M  V30 4427 N 397.609 -0.515225 -1.4894 0
M  V30 4428 C 398.541 0.292481 -2.27326 0
M  V30 4429 C 399.554 0.917838 -1.3446 0
M  V30 4430 O 400.743 0.798772 -1.5963 0
M  V30 4431 C 397.843 1.42803 -3.07344 0
M  V30 4432 C 397.016 0.907347 -4.27885 0
M  V30 4433 C 396.075 1.92222 -4.89834 0
M  V30 4434 O 395.101 1.48506 -5.49486 0
M  V30 4435 N 396.303 3.25355 -4.80754 0
M  V30 4436 H 399.068 -0.379721 -2.97285 0
M  V30 4437 H 396.629 -0.348638 -1.58102 0
M  V30 4438 H 398.621 2.10481 -3.45658 0
M  V30 4439 H 397.191 2.00414 -2.39902 0
M  V30 4440 H 396.411 0.0550218 -3.94162 0
M  V30 4441 H 397.699 0.538108 -5.05946 0
M  V30 4442 H 397.097 3.6355 -4.33414 0
M  V30 4443 H 395.654 3.88707 -5.23211 0
M  V30 4444 N 399.087 1.5561 -0.249682 0
M  V30 4445 C 400.333 1.99306 0.374841 0
M  V30 4446 C 400.666 1.13767 1.57387 0
M  V30 4447 O 399.941 0.201711 1.93451 0
M  V30 4448 C 400.224 3.51507 0.781986 0
M  V30 4449 C 400.077 4.4781 -0.422629 0
M  V30 4450 C 401.396 4.08884 1.62793 0
M  V30 4451 H 398.515 0.724572 0.134773 0
M  V30 4452 H 401.157 1.86719 -0.351549 0
M  V30 4453 H 399.307 3.62363 1.4009 0
M  V30 4454 H 400.979 4.48931 -1.06108 0
M  V30 4455 H 399.222 4.20518 -1.06524 0
M  V30 4456 H 399.893 5.51919 -0.0943766 0
M  V30 4457 H 402.369 4.01147 1.10547 0
M  V30 4458 H 401.245 5.1564 1.88166 0
M  V30 4459 H 401.506 3.57515 2.60068 0
M  V30 4460 N 400.565 -0.0233959 1.57583 0
M  V30 4461 C 401.811 -0.714119 1.89811 0
M  V30 4462 C 402.144 -1.74702 0.848113 0
M  V30 4463 O 401.419 -1.94023 -0.136135 0
M  V30 4464 C 401.702 -1.37853 3.32669 0
M  V30 4465 C 401.555 -0.358764 4.48367 0
M  V30 4466 C 402.874 -2.31101 3.7454 0
M  V30 4467 H 399.993 -0.25814 0.690314 0
M  V30 4468 H 402.635 0.0230927 1.89986 0
M  V30 4469 H 400.785 -2.00689 3.3265 0
M  V30 4470 H 402.457 0.268115 4.6052 0
M  V30 4471 H 400.7 0.321387 4.32608 0
M  V30 4472 H 401.371 -0.862242 5.45224 0
M  V30 4473 H 403.847 -1.78304 3.75961 0
M  V30 4474 H 402.723 -2.74567 4.75294 0
M  V30 4475 H 402.984 -3.18018 3.0711 0
M  V30 4476 N 402.043 -1.548 -0.295768 0
M  V30 4477 C 403.292 -1.73538 -1.02798 0
M  V30 4478 C 403.605 -0.531159 -1.8825 0
M  V30 4479 O 404.811 -0.600458 -2.64777 0
M  V30 4480 C 403.267 -3.07051 -1.87744 0
M  V30 4481 C 402.875 -4.34968 -1.07269 0
M  V30 4482 C 404.619 -3.35146 -2.60533 0
M  V30 4483 C 402.526 -5.5953 -1.91521 0
M  V30 4484 H 401.456 -0.646794 -0.387522 0
M  V30 4485 H 404.107 -1.81278 -0.284718 0
M  V30 4486 H 402.489 -2.93289 -2.66078 0
M  V30 4487 H 403.663 -4.5958 -0.335117 0
M  V30 4488 H 401.978 -4.13847 -0.460384 0
M  V30 4489 H 404.575 -4.2541 -3.23929 0
M  V30 4490 H 404.918 -2.54255 -3.29636 0
M  V30 4491 H 405.451 -3.49902 -1.89244 0
M  V30 4492 H 402.19 -6.43103 -1.26878 0
M  V30 4493 H 401.71 -5.39096 -2.62937 0
M  V30 4494 H 403.389 -5.96982 -2.49442 0
M  V30 4495 N 403.521 0.559213 -1.47345 0
M  V30 4496 C 404.469 1.68747 -1.60085 0
M  V30 4497 C 405.463 1.628 -0.46825 0
M  V30 4498 O 406.669 1.68009 -0.645977 0
M  V30 4499 H 403.044 0.558329 -0.503759 0
M  V30 4500 H 405.015 1.55138 -2.54902 0
M  V30 4501 C 403.764 3.07103 -1.63042 0
M  V30 4502 H 403.087 3.12361 -2.49541 0
M  V30 4503 H 404.527 3.85743 -1.76006 0
M  V30 4504 C 402.986 3.34935 -0.363357 0
M  V30 4505 O 403.516 3.98102 0.536416 0
M  V30 4506 N 401.722 2.89574 -0.244 0
M  V30 4507 H 401.269 2.38348 -0.977133 0
M  V30 4508 H 401.227 3.08566 0.602836 0
M  V30 4509 N 404.999 1.35443 0.805782 0
M  V30 4510 C 406.224 1.32037 1.59941 0
M  V30 4511 C 406.649 -0.0994215 1.87837 0
M  V30 4512 O 406.007 -1.06648 1.46615 0
M  V30 4513 C 406.055 2.13354 2.90711 0
M  V30 4514 O 405.159 1.5148 3.83572 0
M  V30 4515 H 404.5 0.452666 0.485787 0
M  V30 4516 H 407.03 1.78496 1.00002 0
M  V30 4517 H 407.04 2.25338 3.40128 0
M  V30 4518 H 405.715 3.16572 2.69732 0
M  V30 4519 H 404.292 1.4834 3.42125 0
M  V30 4520 N 406.477 -1.02803 1.19454 0
M  V30 4521 C 407.724 -1.76217 0.997693 0
M  V30 4522 C 408.052 -1.887 -0.47144 0
M  V30 4523 O 407.307 -1.4011 -1.3663 0
M  V30 4524 C 407.606 -3.18941 1.6128 0
M  V30 4525 C 407.272 -3.26463 3.11019 0
M  V30 4526 C 405.934 -3.28223 3.51885 0
M  V30 4527 C 408.286 -3.25542 4.07028 0
M  V30 4528 C 405.614 -3.26719 4.8731 0
M  V30 4529 C 407.966 -3.25579 5.42385 0
M  V30 4530 C 406.63 -3.25637 5.82681 0
M  V30 4531 H 405.9 -0.644823 0.365082 0
M  V30 4532 H 408.547 -1.20655 1.4871 0
M  V30 4533 H 406.852 -3.77587 1.04572 0
M  V30 4534 H 408.549 -3.74415 1.43577 0
M  V30 4535 H 405.139 -3.25822 2.78457 0
M  V30 4536 H 409.323 -3.23362 3.76498 0
M  V30 4537 H 404.579 -3.25089 5.1781 0
M  V30 4538 H 408.753 -3.23817 6.16535 0
M  V30 4539 H 406.38 -3.24226 6.87591 0
M  V30 4540 N 407.956 -0.998596 -1.21925 0
M  V30 4541 C 409.186 -0.695276 -1.94549 0
M  V30 4542 C 409.594 0.745079 -1.73911 0
M  V30 4543 O 408.937 1.51507 -1.03881 0
M  V30 4544 C 408.999 -0.928485 -3.47303 0
M  V30 4545 C 408.663 -2.35443 -3.91683 0
M  V30 4546 C 409.66 -3.33428 -3.98901 0
M  V30 4547 C 407.345 -2.69038 -4.24174 0
M  V30 4548 C 409.339 -4.63079 -4.37992 0
M  V30 4549 C 407.026 -3.98906 -4.62944 0
M  V30 4550 C 408.024 -4.95738 -4.69822 0
M  V30 4551 O 407.712 -6.23285 -5.07711 0
M  V30 4552 H 407.444 -0.255902 -0.625692 0
M  V30 4553 H 409.998 -1.33767 -1.5587 0
M  V30 4554 H 408.228 -0.228917 -3.86022 0
M  V30 4555 H 409.917 -0.619539 -4.01144 0
M  V30 4556 H 410.683 -3.08807 -3.73983 0
M  V30 4557 H 406.562 -1.94367 -4.18022 0
M  V30 4558 H 410.106 -5.38658 -4.43275 0
M  V30 4559 H 406.003 -4.23314 -4.87314 0
M  V30 4560 H 406.771 -6.27306 -5.25766 0
M  V30 4561 N 409.434 1.37368 -0.772513 0
M  V30 4562 C 410.683 1.98918 -0.333861 0
M  V30 4563 C 410.996 1.62017 1.09589 0
M  V30 4564 O 412.202 2.16676 1.63596 0
M  V30 4565 C 410.658 3.55735 -0.545971 0
M  V30 4566 C 410.266 4.01573 -1.98603 0
M  V30 4567 C 412.01 4.24156 -0.170979 0
M  V30 4568 C 409.917 5.51102 -2.1457 0
M  V30 4569 H 408.847 0.744214 -0.121085 0
M  V30 4570 H 411.498 1.56888 -0.95175 0
M  V30 4571 H 409.88 3.95748 0.141387 0
M  V30 4572 H 411.054 3.72803 -2.7084 0
M  V30 4573 H 409.369 3.45937 -2.31769 0
M  V30 4574 H 411.966 5.34024 -0.26878 0
M  V30 4575 H 412.309 4.06917 0.878855 0
M  V30 4576 H 412.842 3.89447 -0.810914 0
M  V30 4577 H 409.581 5.73268 -3.17875 0
M  V30 4578 H 409.101 5.81554 -1.46817 0
M  V30 4579 H 410.78 6.17083 -1.94468 0
M  V30 4580 N 410.912 0.523116 1.48665 0
M  V30 4581 C 412.158 -0.0134963 2.02796 0
M  V30 4582 C 412.491 -1.34582 1.40004 0
M  V30 4583 O 411.766 -1.86756 0.543381 0
M  V30 4584 C 412.049 -0.14276 3.59817 0
M  V30 4585 C 411.902 1.21425 4.331 0
M  V30 4586 C 413.221 -0.872856 4.31357 0
M  V30 4587 H 410.34 -0.00343074 0.736992 0
M  V30 4588 H 412.982 0.678816 1.7746 0
M  V30 4589 H 411.132 -0.732401 3.81534 0
M  V30 4590 H 412.804 1.84447 4.2282 0
M  V30 4591 H 411.047 1.79791 3.94788 0
M  V30 4592 H 411.718 1.07687 5.41394 0
M  V30 4593 H 414.194 -0.372555 4.14429 0
M  V30 4594 H 413.07 -0.932185 5.40927 0
M  V30 4595 H 413.331 -1.92161 3.98154 0
M  V30 4596 N 412.39 -1.55475 0.257931 0
M  V30 4597 C 413.618 -2.03609 -0.367559 0
M  V30 4598 C 414.033 -1.13687 -1.50734 0
M  V30 4599 O 413.39 -0.153479 -1.81853 0
M  V30 4600 C 413.441 -3.51001 -0.864908 0
M  V30 4601 O 413.162 -4.37499 0.229465 0
M  V30 4602 C 414.663 -4.14946 -1.55997 0
M  V30 4603 H 411.883 -0.665459 -0.0860521 0
M  V30 4604 H 414.427 -2.00843 0.385014 0
M  V30 4605 H 412.582 -3.54266 -1.56762 0
M  V30 4606 H 412.996 -5.24286 -0.14998 0
M  V30 4607 H 414.47 -5.19735 -1.85956 0
M  V30 4608 H 414.947 -3.6209 -2.4857 0
M  V30 4609 H 415.553 -4.15635 -0.901543 0
M  V30 4610 N 413.868 0.0150385 -1.57593 0
M  V30 4611 C 415.284 0.370907 -1.5523 0
M  V30 4612 C 415.484 1.75735 -0.985882 0
M  V30 4613 O 414.54 2.44944 -0.613077 0
M  V30 4614 C 415.853 0.259908 -2.99575 0
M  V30 4615 C 417.401 0.335959 -3.11192 0
M  V30 4616 C 417.876 0.254253 -4.57294 0
M  V30 4617 N 419.367 0.312618 -4.62144 0
M  V30 4618 C 420.102 0.272505 -5.72752 0
M  V30 4619 N 419.598 0.183864 -6.92556 0
M  V30 4620 N 421.391 0.323267 -5.6117 0
M  V30 4621 H 413.542 -0.892104 -1.92757 0
M  V30 4622 H 415.805 -0.340563 -0.884715 0
M  V30 4623 H 415.511 -0.693403 -3.44797 0
M  V30 4624 H 415.385 1.048 -3.62349 0
M  V30 4625 H 417.772 1.27971 -2.65909 0
M  V30 4626 H 417.853 -0.481739 -2.51223 0
M  V30 4627 H 417.497 -0.685887 -5.03247 0
M  V30 4628 H 417.427 1.09024 -5.15191 0
M  V30 4629 H 419.918 0.38307 -3.75953 0
M  V30 4630 H 420.231 0.15874 -7.72637 0
M  V30 4631 H 418.576 0.149708 -6.94839 0
M  V30 4632 H 421.767 0.390607 -4.66467 0
M  V30 4633 H 421.94 0.288539 -6.47357 0
M  V30 4634 N 415.346 1.54954 0.287554 0
M  V30 4635 C 416.757 1.65732 0.859634 0
M  V30 4636 C 417.108 0.574767 1.87592 0
M  V30 4637 O 416.233 -0.286299 2.14498 0
M  V30 4638 C 416.828 3.00438 1.56597 0
M  V30 4639 C 415.387 3.13292 2.08627 0
M  V30 4640 C 414.534 2.61473 0.923416 0
M  V30 4641 H 417.485 1.5857 0.0642338 0
M  V30 4642 H 417.506 2.92613 2.43224 0
M  V30 4643 H 417.018 3.79207 0.826053 0
M  V30 4644 H 415.119 2.39268 2.85625 0
M  V30 4645 H 415.232 4.19647 2.31157 0
M  V30 4646 H 413.596 2.18264 1.31275 0
M  V30 4647 H 414.379 3.42733 0.197241 0
M  V30 4648 N 416.824 -0.551391 1.4764 0
M  V30 4649 C 417.754 -1.66757 1.63445 0
M  V30 4650 C 418.735 -1.63077 0.483742 0
M  V30 4651 O 419.92 -1.80607 0.71377 0
M  V30 4652 C 417.05 -3.05387 1.65396 0
M  V30 4653 C 416.004 -3.23918 2.79752 0
M  V30 4654 C 415.33 -4.63393 2.66779 0
M  V30 4655 C 416.63 -3.08735 4.21284 0
M  V30 4656 H 418.324 -1.53786 2.56886 0
M  V30 4657 H 415.87 -0.738415 1.23626 0
M  V30 4658 H 417.823 -3.83325 1.75043 0
M  V30 4659 H 416.547 -3.19332 0.685195 0
M  V30 4660 H 415.206 -2.48391 2.69625 0
M  V30 4661 H 414.854 -4.74144 1.67918 0
M  V30 4662 H 414.554 -4.7674 3.43501 0
M  V30 4663 H 416.078 -5.43458 2.78364 0
M  V30 4664 H 417.492 -3.76484 4.32357 0
M  V30 4665 H 415.889 -3.33588 4.98838 0
M  V30 4666 H 416.959 -2.0541 4.39243 0
M  V30 4667 N 418.302 -1.35869 -0.798587 0
M  V30 4668 C 419.265 -1.29307 -1.89242 0
M  V30 4669 C 420.265 -0.202747 -1.59517 0
M  V30 4670 O 421.455 -0.456957 -1.681 0
M  V30 4671 C 418.587 -1.00229 -3.25833 0
M  V30 4672 H 419.78 -2.26576 -1.96478 0
M  V30 4673 H 417.333 -1.20509 -0.995358 0
M  V30 4674 H 418.068 -0.033801 -3.24282 0
M  V30 4675 H 417.853 -1.79121 -3.48795 0
M  V30 4676 H 419.343 -0.98219 -4.05885 0
M  V30 4677 N 419.78 1.02168 -1.19998 0
M  V30 4678 C 421.027 1.75685 -1.00702 0
M  V30 4679 C 421.355 1.88947 0.461426 0
M  V30 4680 O 420.61 1.40832 1.35885 0
M  V30 4681 C 420.909 3.18081 -1.62969 0
M  V30 4682 C 420.575 3.24809 -3.12746 0
M  V30 4683 C 419.237 3.26352 -3.53621 0
M  V30 4684 C 421.589 3.23379 -4.08749 0
M  V30 4685 C 418.917 3.2413 -4.89036 0
M  V30 4686 C 421.269 3.22698 -5.44104 0
M  V30 4687 C 419.933 3.22542 -5.84399 0
M  V30 4688 H 419.203 0.642877 -0.368496 0
M  V30 4689 H 421.85 1.19865 -1.49348 0
M  V30 4690 H 420.155 3.77027 -1.06573 0
M  V30 4691 H 421.852 3.73648 -1.45561 0
M  V30 4692 H 418.442 3.2434 -2.80181 0
M  V30 4693 H 422.626 3.21361 -3.78207 0
M  V30 4694 H 417.882 3.22338 -5.19527 0
M  V30 4695 H 422.056 3.20543 -6.18244 0
M  V30 4696 H 419.683 3.20575 -6.89301 0
M  V30 4697 N 421.258 1.00505 1.21394 0
M  V30 4698 C 422.188 0.585684 2.26035 0
M  V30 4699 C 423.169 -0.393525 1.65485 0
M  V30 4700 O 424.354 -0.281497 1.92149 0
M  V30 4701 C 421.484 -0.0884283 3.47187 0
M  V30 4702 C 420.438 0.810567 4.20254 0
M  V30 4703 C 419.764 0.00286382 5.347 0
M  V30 4704 C 421.064 2.1132 4.77641 0
M  V30 4705 H 422.758 1.46039 2.61368 0
M  V30 4706 H 420.304 0.703648 1.25638 0
M  V30 4707 H 422.257 -0.393286 4.19561 0
M  V30 4708 H 420.981 -0.997766 3.10986 0
M  V30 4709 H 419.64 1.09925 3.49731 0
M  V30 4710 H 419.288 -0.907765 4.94741 0
M  V30 4711 H 418.988 0.601444 5.84514 0
M  V30 4712 H 420.512 -0.295808 6.09883 0
M  V30 4713 H 421.926 1.87148 5.41893 0
M  V30 4714 H 420.323 2.66164 5.37845 0
M  V30 4715 H 421.393 2.78393 3.9702 0
M  V30 4716 N 422.737 -1.36956 0.779787 0
M  V30 4717 C 423.685 -2.32053 0.15942 0
M  V30 4718 C 424.679 -1.55333 -0.675878 0
M  V30 4719 O 425.885 -1.70668 -0.57204 0
M  V30 4720 H 422.26 -0.751286 0.0327707 0
M  V30 4721 H 424.231 -2.8195 0.977078 0
M  V30 4722 C 422.98 -3.40602 -0.698977 0
M  V30 4723 H 422.303 -3.99746 -0.0655966 0
M  V30 4724 H 423.743 -4.09486 -1.09989 0
M  V30 4725 C 422.202 -2.81359 -1.85307 0
M  V30 4726 O 422.732 -2.72751 -2.94906 0
M  V30 4727 N 420.938 -2.38786 -1.65619 0
M  V30 4728 H 420.485 -2.45987 -0.764725 0
M  V30 4729 H 420.443 -1.99493 -2.43002 0
M  V30 4730 N 424.215 -0.530993 -1.48385 0
M  V30 4731 C 425.44 0.000729535 -2.074 0
M  V30 4732 C 425.865 1.27298 -1.3848 0
M  V30 4733 O 425.223 1.75599 -0.451081 0
M  V30 4734 C 425.271 0.206697 -3.60007 0
M  V30 4735 O 424.375 1.27514 -3.92191 0
M  V30 4736 H 423.716 -0.039583 -0.662819 0
M  V30 4737 H 426.246 -0.739194 -1.9078 0
M  V30 4738 H 426.256 0.42904 -4.05738 0
M  V30 4739 H 424.931 -0.722675 -4.09573 0
M  V30 4740 H 423.508 1.03537 -3.58238 0
M  V30 4741 N 425.693 1.55336 -0.266172 0
M  V30 4742 C 426.939 1.99692 0.353681 0
M  V30 4743 C 427.272 1.1543 1.56172 0
M  V30 4744 O 426.547 0.222218 1.93226 0
M  V30 4745 C 426.83 3.52316 0.74466 0
M  V30 4746 C 426.683 4.47337 -0.470101 0
M  V30 4747 C 428.002 4.10588 1.58447 0
M  V30 4748 H 425.121 0.725961 0.12708 0
M  V30 4749 H 427.763 1.86336 -0.371333 0
M  V30 4750 H 425.913 3.63829 1.36239 0
M  V30 4751 H 427.585 4.4778 -1.10864 0
M  V30 4752 H 425.828 4.19364 -1.10978 0
M  V30 4753 H 426.499 5.51788 -0.15291 0
M  V30 4754 H 428.975 4.02297 1.06286 0
M  V30 4755 H 427.851 5.17607 1.82686 0
M  V30 4756 H 428.112 3.60253 2.56262 0
M  V30 4757 N 427.171 -0.0066808 1.57599 0
M  V30 4758 C 428.42 -0.692078 1.89455 0
M  V30 4759 C 428.733 -1.75306 0.867586 0
M  V30 4760 O 429.939 -2.49262 1.07614 0
M  V30 4761 C 428.395 -1.2821 3.36289 0
M  V30 4762 C 428.003 -0.256291 4.47266 0
M  V30 4763 C 429.747 -1.94608 3.77264 0
M  V30 4764 C 427.654 -0.855927 5.85173 0
M  V30 4765 H 426.584 -0.262252 0.706923 0
M  V30 4766 H 429.235 0.052769 1.83424 0
M  V30 4767 H 427.617 -2.0774 3.37135 0
M  V30 4768 H 428.791 0.513923 4.57925 0
M  V30 4769 H 427.106 0.306862 4.15268 0
M  V30 4770 H 429.703 -2.40364 4.77629 0
M  V30 4771 H 430.046 -2.77382 3.10427 0
M  V30 4772 H 430.579 -1.21822 3.78688 0
M  V30 4773 H 427.318 -0.0671161 6.55466 0
M  V30 4774 H 426.838 -1.59546 5.78191 0
M  V30 4775 H 428.517 -1.35658 6.32618 0
M  V30 4776 N 428.649 -1.55105 -0.279332 0
M  V30 4777 C 429.597 -1.88333 -1.36505 0
M  V30 4778 C 430.591 -0.759043 -1.51443 0
M  V30 4779 O 431.797 -0.943312 -1.53302 0
M  V30 4780 H 428.172 -0.59766 -0.456406 0
M  V30 4781 H 430.143 -2.79041 -1.05728 0
M  V30 4782 C 428.892 -2.16628 -2.7197 0
M  V30 4783 H 428.215 -3.02624 -2.61264 0
M  V30 4784 H 429.655 -2.43803 -3.46895 0
M  V30 4785 C 428.114 -0.971807 -3.22579 0
M  V30 4786 O 428.644 -0.203228 -4.01186 0
M  V30 4787 N 426.85 -0.771238 -2.80179 0
M  V30 4788 H 426.397 -1.39792 -2.1637 0
M  V30 4789 H 426.355 0.0263667 -3.14389 0
M  V30 4790 N 430.127 0.543554 -1.4793 0
M  V30 4791 C 431.538 1.12561 -1.48953 0
M  V30 4792 C 431.889 1.94578 -0.251754 0
M  V30 4793 O 431.014 2.0665 0.642255 0
M  V30 4794 C 431.609 2.04801 -2.69892 0
M  V30 4795 C 430.168 2.58251 -2.73831 0
M  V30 4796 C 429.315 1.34918 -2.42265 0
M  V30 4797 H 432.266 0.32947 -1.55242 0
M  V30 4798 H 432.287 2.88886 -2.47639 0
M  V30 4799 H 431.799 1.4508 -3.59963 0
M  V30 4800 H 429.9 3.21732 -1.87934 0
M  V30 4801 H 430.013 2.98312 -3.74895 0
M  V30 4802 H 428.377 1.66046 -1.93134 0
M  V30 4803 H 429.16 0.769693 -3.3456 0
M  V30 4804 N 431.605 1.3629 0.791371 0
M  V30 4805 C 432.851 1.30605 1.55146 0
M  V30 4806 C 433.184 -0.115042 1.93859 0
M  V30 4807 O 432.459 -1.06798 1.62556 0
M  V30 4808 C 432.742 2.22692 2.82985 0
M  V30 4809 C 432.595 3.73489 2.50651 0
M  V30 4810 C 433.914 2.13588 3.84796 0
M  V30 4811 H 431.033 0.475761 0.562868 0
M  V30 4812 H 433.675 1.66825 0.909358 0
M  V30 4813 H 431.825 1.91933 3.37778 0
M  V30 4814 H 433.497 4.14758 2.01924 0
M  V30 4815 H 431.74 3.93021 1.83622 0
M  V30 4816 H 432.411 4.3333 3.41949 0
M  V30 4817 H 434.887 2.40659 3.39445 0
M  V30 4818 H 433.763 2.80195 4.71998 0
M  V30 4819 H 434.024 1.12256 4.27611 0
M  V30 4820 N 433.083 -1.0153 1.20538 0
M  V30 4821 C 434.33 -1.75149 1.01633 0
M  V30 4822 C 434.658 -1.89189 -0.451399 0
M  V30 4823 O 433.913 -1.41551 -1.35136 0
M  V30 4824 C 434.212 -3.17213 1.64654 0
M  V30 4825 C 433.878 -3.23146 3.14464 0
M  V30 4826 C 432.54 -3.24472 3.55347 0
M  V30 4827 C 434.892 -3.21207 4.10458 0
M  V30 4828 C 432.22 -3.21532 4.90748 0
M  V30 4829 C 434.572 -3.19808 5.45807 0
M  V30 4830 C 433.236 -3.19439 5.86102 0
M  V30 4831 H 432.506 -0.640914 0.3719 0
M  V30 4832 H 435.153 -1.19071 1.49981 0
M  V30 4833 H 433.458 -3.76457 1.08571 0
M  V30 4834 H 435.155 -3.72871 1.4754 0
M  V30 4835 H 431.745 -3.2285 2.81897 0
M  V30 4836 H 435.929 -3.19351 3.79906 0
M  V30 4837 H 431.185 -3.19578 5.21229 0
M  V30 4838 H 435.359 -3.1726 6.19935 0
M  V30 4839 H 432.986 -3.16915 6.90991 0
M  V30 4840 N 434.561 -1.01147 -1.20859 0
M  V30 4841 C 435.791 -0.715872 -1.93801 0
M  V30 4842 C 436.199 0.726592 -1.74692 0
M  V30 4843 O 435.542 1.50397 -1.05482 0
M  V30 4844 C 435.604 -0.965269 -3.46299 0
M  V30 4845 C 435.268 -2.39584 -3.89164 0
M  V30 4846 C 436.265 -3.3764 -3.95342 0
M  V30 4847 C 433.95 -2.73522 -4.21297 0
M  V30 4848 C 435.944 -4.67698 -4.33056 0
M  V30 4849 C 433.631 -4.03794 -4.58687 0
M  V30 4850 C 434.629 -5.00693 -4.64538 0
M  V30 4851 O 434.317 -6.28635 -5.01072 0
M  V30 4852 H 434.049 -0.262524 -0.622942 0
M  V30 4853 H 436.603 -1.35413 -1.54443 0
M  V30 4854 H 434.833 -0.269847 -3.85757 0
M  V30 4855 H 436.522 -0.662051 -4.00464 0
M  V30 4856 H 437.288 -3.12757 -3.70686 0
M  V30 4857 H 433.167 -1.9879 -4.15937 0
M  V30 4858 H 436.711 -5.4333 -4.37537 0
M  V30 4859 H 432.608 -4.28459 -4.82797 0
M  V30 4860 H 433.376 -6.32847 -5.19083 0
M  V30 4861 N 436.039 1.36541 -0.78704 0
M  V30 4862 C 437.286 1.99304 -0.358341 0
M  V30 4863 C 437.614 1.62467 1.06933 0
M  V30 4864 O 436.869 0.870019 1.75297 0
M  V30 4865 C 437.168 3.54343 -0.466485 0
M  V30 4866 C 436.834 4.10993 -1.85461 0
M  V30 4867 C 435.496 4.26177 -2.23443 0
M  V30 4868 C 437.848 4.41895 -2.76366 0
M  V30 4869 C 435.176 4.69573 -3.51736 0
M  V30 4870 C 437.528 4.86722 -4.04084 0
M  V30 4871 C 436.192 5.00112 -4.42091 0
M  V30 4872 H 435.462 0.729306 -0.131126 0
M  V30 4873 H 438.109 1.63068 -1.00404 0
M  V30 4874 H 436.414 3.90918 0.262719 0
M  V30 4875 H 438.111 4.00833 -0.115854 0
M  V30 4876 H 434.701 3.99612 -1.54946 0
M  V30 4877 H 438.885 4.29735 -2.48277 0
M  V30 4878 H 434.141 4.78127 -3.81057 0
M  V30 4879 H 438.315 5.09598 -4.7464 0
M  V30 4880 H 435.942 5.33498 -5.41557 0
M  V30 4881 N 437.518 0.538854 1.48102 0
M  V30 4882 C 438.448 -0.207654 2.32575 0
M  V30 4883 C 439.429 -0.926559 1.4265 0
M  V30 4884 O 440.614 -0.91061 1.71527 0
M  V30 4885 C 437.744 -1.24957 3.24042 0
M  V30 4886 C 436.698 -0.648263 4.23062 0
M  V30 4887 C 436.024 -1.79348 5.03725 0
M  V30 4888 C 437.324 0.385897 5.20872 0
M  V30 4889 H 439.018 0.497534 2.95237 0
M  V30 4890 H 436.564 0.240715 1.41974 0
M  V30 4891 H 438.517 -1.77983 3.81969 0
M  V30 4892 H 437.241 -1.98446 2.59397 0
M  V30 4893 H 435.9 -0.139452 3.66335 0
M  V30 4894 H 435.548 -2.51696 4.35498 0
M  V30 4895 H 435.248 -1.39702 5.70751 0
M  V30 4896 H 436.772 -2.32735 5.64506 0
M  V30 4897 H 438.186 -0.057607 5.73271 0
M  V30 4898 H 436.583 0.700227 5.96001 0
M  V30 4899 H 437.653 1.28848 4.67468 0
M  V30 4900 N 438.996 -1.55193 0.274407 0
M  V30 4901 C 439.926 -2.25471 -0.607032 0
M  V30 4902 C 440.907 -1.24461 -1.15946 0
M  V30 4903 O 442.092 -1.53179 -1.19373 0
M  V30 4904 C 439.222 -2.97526 -1.79153 0
M  V30 4905 C 438.176 -4.05459 -1.37067 0
M  V30 4906 C 437.502 -4.65084 -2.6382 0
M  V30 4907 C 438.802 -5.19691 -0.521389 0
M  V30 4908 H 440.496 -2.99393 -0.0209343 0
M  V30 4909 H 438.042 -1.43997 -0.00862866 0
M  V30 4910 H 439.995 -3.45402 -2.41404 0
M  V30 4911 H 438.719 -2.21138 -2.40344 0
M  V30 4912 H 437.378 -3.58393 -0.771355 0
M  V30 4913 H 437.026 -3.85365 -3.23268 0
M  V30 4914 H 436.726 -5.37961 -2.36372 0
M  V30 4915 H 438.25 -5.15708 -3.26921 0
M  V30 4916 H 439.664 -5.63623 -1.04889 0
M  V30 4917 H 438.061 -5.99126 -0.341825 0
M  V30 4918 H 439.131 -4.82713 0.46 0
M  V30 4919 N 440.474 -0.00167713 -1.576 0
M  V30 4920 C 441.722 0.681471 -1.90264 0
M  V30 4921 C 442.043 1.7422 -0.875924 0
M  V30 4922 O 441.313 1.95709 0.0864412 0
M  V30 4923 H 439.893 0.254696 -0.702239 0
M  V30 4924 H 442.555 -0.0429996 -1.94853 0
M  V30 4925 H 441.651 1.15166 -2.90075 0
M  V30 4926 N 441.952 1.55251 0.271103 0
M  V30 4927 C 443.229 1.66664 1.02384 0
M  V30 4928 C 443.609 0.534363 2.04225 0
M  V30 4929 O 442.957 -0.465337 2.23712 0
M  V30 4930 C 443.167 3.05961 1.67895 0
M  V30 4931 C 444.515 3.63772 2.18986 0
M  V30 4932 O 445.539 3.08606 1.77878 0
M  V30 4933 O 444.398 4.60429 2.94393 0
M  V30 4934 H 441.492 0.676957 0.475035 0
M  V30 4935 H 444.038 1.67589 0.26681 0
M  V30 4936 H 442.81 3.79815 0.941071 0
M  V30 4937 H 442.433 3.08943 2.5028 0
M  V30 4938 N 443.43 -0.535701 1.48216 0
M  V30 4939 C 444.38 -1.63688 1.58714 0
M  V30 4940 C 445.364 -1.54635 0.444615 0
M  V30 4941 O 446.556 -1.62753 0.695742 0
M  V30 4942 C 443.685 -3.02423 1.62466 0
M  V30 4943 C 442.771 -3.16601 2.82178 0
M  V30 4944 N 443.162 -3.00771 4.06658 0
M  V30 4945 C 441.46 -3.47645 2.79391 0
M  V30 4946 C 442.161 -3.18213 4.86945 0
M  V30 4947 N 441.137 -3.45528 4.19656 0
M  V30 4948 H 444.939 -1.5005 2.5271 0
M  V30 4949 H 442.453 -0.741018 1.44508 0
M  V30 4950 H 444.45 -3.81517 1.6808 0
M  V30 4951 H 443.11 -3.17157 0.695826 0
M  V30 4952 H 444.121 -2.77652 4.37184 0
M  V30 4953 H 440.798 -3.68771 1.95739 0
M  V30 4954 H 442.188 -3.1076 5.95716 0
M  V30 4955 N 444.908 -1.36708 -0.784132 0
M  V30 4956 C 446.155 -1.31231 -1.54222 0
M  V30 4957 C 446.483 0.106864 -1.94206 0
M  V30 4958 O 445.738 1.07734 -1.63376 0
M  V30 4959 C 446.037 -2.18571 -2.82774 0
M  V30 4960 C 445.703 -3.67039 -2.61903 0
M  V30 4961 C 444.365 -4.07503 -2.55919 0
M  V30 4962 C 446.717 -4.61149 -2.4288 0
M  V30 4963 C 444.045 -5.40211 -2.28886 0
M  V30 4964 C 446.397 -5.94081 -2.17373 0
M  V30 4965 C 445.061 -6.33664 -2.09825 0
M  V30 4966 H 444.331 -0.48021 -0.56434 0
M  V30 4967 H 446.978 -1.68807 -0.904233 0
M  V30 4968 H 445.283 -1.73949 -3.51068 0
M  V30 4969 H 446.98 -2.11655 -3.40592 0
M  V30 4970 H 443.57 -3.34941 -2.67418 0
M  V30 4971 H 447.754 -4.30756 -2.46501 0
M  V30 4972 H 443.01 -5.69855 -2.21529 0
M  V30 4973 H 447.184 -6.66566 -2.01649 0
M  V30 4974 H 444.811 -7.36423 -1.88641 0
M  V30 4975 N 446.386 1.0089 -1.21074 0
M  V30 4976 C 447.802 1.2695 -0.967257 0
M  V30 4977 C 448.002 1.9846 0.348673 0
M  V30 4978 O 447.058 2.28459 1.0753 0
M  V30 4979 C 448.371 2.09697 -2.15517 0
M  V30 4980 C 449.919 2.22937 -2.197 0
M  V30 4981 C 450.394 3.09064 -3.37999 0
M  V30 4982 N 451.885 3.16653 -3.38061 0
M  V30 4983 C 452.62 3.8354 -4.26245 0
M  V30 4984 N 452.116 4.52488 -5.2462 0
M  V30 4985 N 453.909 3.80141 -4.14064 0
M  V30 4986 H 446.06 0.529005 -2.05707 0
M  V30 4987 H 448.323 0.296148 -0.900556 0
M  V30 4988 H 448.029 1.64497 -3.10859 0
M  V30 4989 H 447.903 3.10444 -2.14253 0
M  V30 4990 H 450.29 2.67357 -1.24916 0
M  V30 4991 H 450.371 1.21673 -2.2501 0
M  V30 4992 H 450.015 2.65347 -4.33074 0
M  V30 4993 H 449.945 4.10433 -3.29928 0
M  V30 4994 H 452.436 2.67566 -2.66865 0
M  V30 4995 H 452.749 5.01219 -5.88217 0
M  V30 4996 H 451.094 4.51288 -5.28549 0
M  V30 4997 H 454.285 3.25427 -3.36474 0
M  V30 4998 H 454.458 4.31992 -4.82998 0
M  V30 4999 N 447.864 1.01787 1.20321 0
M  V30 5000 C 449.141 0.622978 1.85414 0
M  V30 5001 C 449.521 -0.898887 1.91006 0
M  V30 5002 O 448.869 -1.79112 1.41884 0
M  V30 5003 C 449.079 1.27226 3.24984 0
M  V30 5004 C 450.427 1.3885 4.01255 0
M  V30 5005 O 451.451 1.22857 3.34342 0
M  V30 5006 O 450.31 1.64705 5.2109 0
M  V30 5007 H 447.404 0.215116 0.798533 0
M  V30 5008 H 449.95 1.11533 1.27901 0
M  V30 5009 H 448.722 2.31209 3.15687 0
M  V30 5010 H 448.345 0.767069 3.90131 0
M  V30 5011 N 449.342 -1.36122 0.79427 0
M  V30 5012 C 450.275 -2.27759 0.141845 0
M  V30 5013 C 451.253 -1.47471 -0.684921 0
M  V30 5014 O 452.437 -1.76759 -0.654857 0
M  V30 5015 C 449.564 -3.29008 -0.804446 0
M  V30 5016 C 448.61 -4.26459 -0.0588617 0
M  V30 5017 S 449.443 -5.20253 1.26873 0
M  V30 5018 C 450.599 -6.25048 0.326562 0
M  V30 5019 H 450.832 -2.82746 0.918818 0
M  V30 5020 H 448.365 -1.42736 0.588722 0
M  V30 5021 H 450.323 -3.87842 -1.34495 0
M  V30 5022 H 448.984 -2.72924 -1.5547 0
M  V30 5023 H 448.177 -4.97973 -0.777087 0
M  V30 5024 H 447.779 -3.71731 0.411309 0
M  V30 5025 H 450.071 -6.75705 -0.492795 0
M  V30 5026 H 451.014 -7.00852 1.01053 0
M  V30 5027 H 451.422 -5.64454 -0.0722627 0
M  V30 5028 N 450.82 -0.546701 -1.47814 0
M  V30 5029 C 451.75 0.195317 -2.32682 0
M  V30 5030 C 452.731 0.918981 -1.43139 0
M  V30 5031 O 453.916 0.901501 -1.72008 0
M  V30 5032 C 451.046 1.23237 -3.247 0
M  V30 5033 C 450 0.625818 -4.234 0
M  V30 5034 C 449.326 1.76674 -5.04669 0
M  V30 5035 C 450.626 -0.413515 -5.2066 0
M  V30 5036 H 452.32 -0.513184 -2.94969 0
M  V30 5037 H 449.866 -0.248241 -1.41844 0
M  V30 5038 H 451.819 1.75955 -3.82907 0
M  V30 5039 H 450.543 1.97067 -2.60446 0
M  V30 5040 H 449.202 0.120023 -3.66403 0
M  V30 5041 H 448.85 2.49383 -4.36826 0
M  V30 5042 H 448.55 1.36673 -5.71484 0
M  V30 5043 H 450.074 2.29738 -5.65732 0
M  V30 5044 H 451.488 0.0272042 -5.73294 0
M  V30 5045 H 449.885 -0.731825 -5.95621 0
M  V30 5046 H 450.955 -1.31325 -4.66778 0
M  V30 5047 N 452.299 1.55045 -0.282633 0
M  V30 5048 C 453.232 2.18951 0.64311 0
M  V30 5049 C 454.21 1.15287 1.14664 0
M  V30 5050 O 455.394 1.43846 1.21822 0
M  V30 5051 C 452.521 2.81874 1.87789 0
M  V30 5052 C 451.567 3.98906 1.50919 0
M  V30 5053 S 452.4 5.3234 0.580884 0
M  V30 5054 C 453.556 5.98737 1.82387 0
M  V30 5055 H 453.789 2.97131 0.100138 0
M  V30 5056 H 451.322 1.54255 -0.0668514 0
M  V30 5057 H 453.28 3.18757 2.58658 0
M  V30 5058 H 451.941 2.03573 2.392 0
M  V30 5059 H 451.134 4.4165 2.42819 0
M  V30 5060 H 450.736 3.63485 0.88061 0
M  V30 5061 H 453.028 6.18427 2.76684 0
M  V30 5062 H 453.971 6.93318 1.4393 0
M  V30 5063 H 454.379 5.28177 1.99223 0
M  V30 5064 N 453.777 0.010035 1.57597 0
M  V30 5065 C 454.725 -0.996272 2.10184 0
M  V30 5066 C 455.719 -1.34942 1.02406 0
M  V30 5067 O 456.925 -1.33389 1.20861 0
M  V30 5068 H 453.3 -0.338982 0.671264 0
M  V30 5069 H 455.271 -0.527272 2.93705 0
M  V30 5070 C 454.02 -2.27599 2.62857 0
M  V30 5071 H 453.343 -2.01295 3.45428 0
M  V30 5072 H 454.783 -2.96265 3.0332 0
M  V30 5073 C 453.242 -2.99269 1.54725 0
M  V30 5074 O 453.772 -3.90644 0.93597 0
M  V30 5075 N 451.978 -2.61269 1.27228 0
M  V30 5076 H 451.525 -1.87043 1.77123 0
M  V30 5077 H 451.483 -3.09534 0.550999 0
M  V30 5078 N 455.255 -1.55392 -0.262866 0
M  V30 5079 C 456.187 -1.85392 -1.34768 0
M  V30 5080 C 457.2 -0.739069 -1.45057 0
M  V30 5081 O 458.389 -1.01703 -1.46693 0
M  V30 5082 C 455.489 -2.01088 -2.72795 0
M  V30 5083 C 454.662 -3.31828 -2.84972 0
M  V30 5084 C 453.721 -3.37464 -4.03738 0
M  V30 5085 O 452.747 -4.10778 -3.94018 0
M  V30 5086 N 453.949 -2.65599 -5.16176 0
M  V30 5087 H 456.714 -2.79029 -1.09375 0
M  V30 5088 H 454.275 -1.55434 -0.452981 0
M  V30 5089 H 456.267 -2.02217 -3.50557 0
M  V30 5090 H 454.837 -1.1427 -2.90966 0
M  V30 5091 H 454.057 -3.43152 -1.94012 0
M  V30 5092 H 455.345 -4.18032 -2.90045 0
M  V30 5093 H 454.743 -2.05736 -5.26962 0
M  V30 5094 H 453.3 -2.72439 -5.92132 0
M  V30 5095 N 456.733 0.527833 -1.48498 0
M  V30 5096 C 457.663 1.64136 -1.66077 0
M  V30 5097 C 458.644 1.62286 -0.509625 0
M  V30 5098 O 459.829 1.79449 -0.742413 0
M  V30 5099 C 456.959 3.02717 -1.70234 0
M  V30 5100 C 455.913 3.19426 -2.8487 0
M  V30 5101 C 455.239 4.5909 -2.74118 0
M  V30 5102 C 456.539 3.01993 -4.26142 0
M  V30 5103 H 458.233 1.4968 -2.593 0
M  V30 5104 H 455.779 0.718654 -1.24785 0
M  V30 5105 H 457.732 3.80491 -1.8112 0
M  V30 5106 H 456.456 3.18201 -0.735911 0
M  V30 5107 H 455.115 2.4407 -2.73542 0
M  V30 5108 H 454.763 4.71413 -1.7544 0
M  V30 5109 H 454.463 4.71214 -3.51042 0
M  V30 5110 H 455.987 5.3896 -2.86974 0
M  V30 5111 H 457.401 3.69558 -4.38292 0
M  V30 5112 H 455.798 3.2561 -5.04082 0
M  V30 5113 H 456.868 1.98396 -4.42456 0
M  V30 5114 N 458.211 1.37122 0.776871 0
M  V30 5115 C 459.627 1.1781 1.07671 0
M  V30 5116 C 459.827 0.0107454 2.01497 0
M  V30 5117 O 458.883 -0.650756 2.4397 0
M  V30 5118 C 460.196 2.49451 1.67913 0
M  V30 5119 C 461.744 2.55927 1.80195 0
M  V30 5120 C 462.219 3.87686 2.43851 0
M  V30 5121 N 463.71 3.891 2.51307 0
M  V30 5122 C 464.445 4.87797 3.014 0
M  V30 5123 N 463.941 5.96888 3.51705 0
M  V30 5124 N 465.734 4.75205 3.00227 0
M  V30 5125 H 457.885 2.11843 0.153778 0
M  V30 5126 H 460.148 0.938927 0.130844 0
M  V30 5127 H 459.854 3.35207 1.06439 0
M  V30 5128 H 459.728 2.66169 2.67271 0
M  V30 5129 H 462.115 1.70582 2.40803 0
M  V30 5130 H 462.196 2.43097 0.796069 0
M  V30 5131 H 461.84 4.73444 1.83884 0
M  V30 5132 H 461.77 3.97817 3.45035 0
M  V30 5133 H 464.261 3.10293 2.157 0
M  V30 5134 H 464.574 6.68155 3.88316 0
M  V30 5135 H 462.919 6.0054 3.49824 0
M  V30 5136 H 466.11 3.89103 2.60224 0
M  V30 5137 H 466.283 5.52279 3.38957 0
M  V30 5138 N 459.689 -1.00246 1.21608 0
M  V30 5139 C 460.639 -2.07492 0.945051 0
M  V30 5140 C 461.623 -1.60585 -0.100675 0
M  V30 5141 O 462.815 -1.76667 0.10859 0
M  V30 5142 C 459.944 -3.39425 0.514342 0
M  V30 5143 C 459.03 -3.92993 1.59428 0
M  V30 5144 N 459.421 -4.19898 2.81991 0
M  V30 5145 C 457.719 -4.21297 1.46374 0
M  V30 5146 C 458.42 -4.63297 3.51754 0
M  V30 5147 N 457.396 -4.66421 2.79199 0
M  V30 5148 H 461.198 -2.26222 1.87619 0
M  V30 5149 H 458.712 -1.18339 1.11219 0
M  V30 5150 H 460.709 -4.15808 0.301527 0
M  V30 5151 H 459.369 -3.22101 -0.410008 0
M  V30 5152 H 460.38 -4.08377 3.1851 0
M  V30 5153 H 457.057 -4.13095 0.604863 0
M  V30 5154 H 458.447 -4.92816 4.56708 0
M  V30 5155 N 461.167 -1.02423 -1.1978 0
M  V30 5156 C 462.115 -0.594474 -2.24875 0
M  V30 5157 C 463.109 0.370598 -1.65296 0
M  V30 5158 O 464.315 0.239684 -1.78397 0
M  V30 5159 H 460.69 -0.173961 -0.731602 0
M  V30 5160 H 462.661 -1.4916 -2.58445 0
M  V30 5161 C 461.41 0.0436512 -3.47673 0
M  V30 5162 H 460.733 -0.689963 -3.93801 0
M  V30 5163 H 462.173 0.307362 -4.22884 0
M  V30 5164 C 460.632 1.28881 -3.11274 0
M  V30 5165 O 461.162 2.38135 -3.23503 0
M  V30 5166 N 459.368 1.1758 -2.6575 0
M  V30 5167 H 458.915 0.286769 -2.55999 0
M  V30 5168 H 458.873 2.00988 -2.41767 0
M  V30 5169 N 462.645 1.35699 -0.801477 0
M  V30 5170 C 463.892 1.98913 -0.379459 0
M  V30 5171 C 464.22 1.63592 1.05204 0
M  V30 5172 O 463.475 0.888563 1.74365 0
M  V30 5173 C 463.774 3.53828 -0.504041 0
M  V30 5174 C 463.44 4.09002 -1.8981 0
M  V30 5175 C 462.102 4.23783 -2.27951 0
M  V30 5176 C 464.454 4.38939 -2.81038 0
M  V30 5177 C 461.782 4.65816 -3.56696 0
M  V30 5178 C 464.134 4.82409 -4.09224 0
M  V30 5179 C 462.798 4.95395 -4.4737 0
M  V30 5180 H 462.068 0.727874 -0.138854 0
M  V30 5181 H 464.715 1.61994 -1.02128 0
M  V30 5182 H 463.02 3.91175 0.221242 0
M  V30 5183 H 464.717 4.00687 -0.158361 0
M  V30 5184 H 461.307 3.97946 -1.59176 0
M  V30 5185 H 465.491 4.27077 -2.52821 0
M  V30 5186 H 460.747 4.74059 -3.86106 0
M  V30 5187 H 464.921 5.04535 -4.80018 0
M  V30 5188 H 462.548 5.27724 -5.47185 0
M  V30 5189 N 464.123 0.554532 1.47522 0
M  V30 5190 C 465.07 -0.19466 2.29978 0
M  V30 5191 C 466.04 -0.910882 1.38896 0
M  V30 5192 O 467.225 -0.907102 1.67858 0
M  V30 5193 C 464.365 -1.22035 3.22802 0
M  V30 5194 C 463.478 -0.510474 4.28973 0
M  V30 5195 C 462.613 -1.52123 5.08952 0
M  V30 5196 C 461.652 -0.796173 6.069 0
M  V30 5197 N 460.789 -1.75363 6.79847 0
M  V30 5198 H 465.629 0.51461 2.93523 0
M  V30 5199 H 463.166 0.265607 1.44682 0
M  V30 5200 H 465.124 -1.8276 3.7504 0
M  V30 5201 H 463.754 -1.89769 2.61127 0
M  V30 5202 H 462.806 0.211234 3.79813 0
M  V30 5203 H 464.118 0.0576503 4.98767 0
M  V30 5204 H 463.272 -2.20207 5.65326 0
M  V30 5205 H 462.011 -2.12327 4.39054 0
M  V30 5206 H 461.016 -0.101388 5.49707 0
M  V30 5207 H 462.241 -0.199911 6.78806 0
M  V30 5208 H 460.187 -2.3443 6.12682 0
M  V30 5209 H 460.104 -1.23759 7.45801 0
M  V30 5210 H 461.372 -2.4257 7.40797 0
M  V30 5211 N 465.601 -1.54893 0.290851 0
M  V30 5212 C 466.826 -2.04804 -0.32712 0
M  V30 5213 C 467.251 -1.16721 -1.47506 0
M  V30 5214 O 466.609 -0.169107 -1.8051 0
M  V30 5215 C 466.657 -3.52268 -0.770689 0
M  V30 5216 O 465.761 -3.67236 -1.87647 0
M  V30 5217 H 465.102 -0.660789 -0.0652227 0
M  V30 5218 H 467.632 -2.00036 0.429739 0
M  V30 5219 H 467.642 -3.9393 -1.06223 0
M  V30 5220 H 466.317 -4.15843 0.069096 0
M  V30 5221 H 464.894 -3.37479 -1.58626 0
M  V30 5222 N 467.08 -0.0183926 -1.57589 0
M  V30 5223 C 468.01 0.965596 -2.12599 0
M  V30 5224 C 468.991 1.34641 -1.0395 0
M  V30 5225 O 470.176 1.42693 -1.31729 0
M  V30 5226 C 467.306 2.25149 -2.64434 0
M  V30 5227 C 466.26 2.01175 -3.77773 0
M  V30 5228 C 465.586 3.35937 -4.15994 0
M  V30 5229 C 466.886 1.35953 -5.04296 0
M  V30 5230 H 468.58 0.507504 -2.95067 0
M  V30 5231 H 466.126 0.242671 -1.41941 0
M  V30 5232 H 468.079 2.94357 -3.01549 0
M  V30 5233 H 466.803 2.73105 -1.79112 0
M  V30 5234 H 465.462 1.34388 -3.4108 0
M  V30 5235 H 465.11 3.81631 -3.27669 0
M  V30 5236 H 464.81 3.20705 -4.92364 0
M  V30 5237 H 466.334 4.0643 -4.55683 0
M  V30 5238 H 467.748 1.95144 -5.39065 0
M  V30 5239 H 466.145 1.31152 -5.85593 0
M  V30 5240 H 467.215 0.331071 -4.83768 0
M  V30 5241 N 468.558 1.5553 0.254621 0
M  V30 5242 C 469.786 1.81046 1.00149 0
M  V30 5243 C 470.201 0.593047 1.79244 0
M  V30 5244 O 469.558 -0.438196 1.77161 0
M  V30 5245 C 469.609 3.04684 1.94551 0
M  V30 5246 O 469.33 4.21725 1.18658 0
M  V30 5247 C 470.831 3.42943 2.80901 0
M  V30 5248 H 468.051 0.602653 0.295044 0
M  V30 5249 H 470.595 2.02576 0.279842 0
M  V30 5250 H 468.75 2.85226 2.62154 0
M  V30 5251 H 469.164 4.91746 1.82445 0
M  V30 5252 H 470.638 4.32576 3.42902 0
M  V30 5253 H 471.115 2.63176 3.51617 0
M  V30 5254 H 471.721 3.64724 2.18762 0
M  V30 5255 N 470.036 -0.519951 1.48776 0
M  V30 5256 C 471.261 -1.30447 1.6124 0
M  V30 5257 C 471.686 -1.86055 0.276591 0
M  V30 5258 O 471.044 -1.64915 -0.753183 0
M  V30 5259 C 471.092 -2.42406 2.66967 0
M  V30 5260 O 470.196 -3.45728 2.24824 0
M  V30 5261 H 469.537 -0.385924 0.540332 0
M  V30 5262 H 472.067 -0.624572 1.94834 0
M  V30 5263 H 472.077 -2.88447 2.88552 0
M  V30 5264 H 470.752 -2.01294 3.63941 0
M  V30 5265 H 469.329 -3.05737 2.13494 0
M  V30 5266 N 471.514 -1.37532 -0.769588 0
M  V30 5267 C 472.761 -1.3286 -1.52822 0
M  V30 5268 C 473.089 0.0862597 -1.94309 0
M  V30 5269 O 472.344 1.05995 -1.6451 0
M  V30 5270 C 472.643 -2.21558 -2.8044 0
M  V30 5271 C 472.309 -3.69796 -2.57996 0
M  V30 5272 C 470.971 -4.10194 -2.51583 0
M  V30 5273 C 473.323 -4.63699 -2.37976 0
M  V30 5274 C 470.651 -5.42608 -2.23144 0
M  V30 5275 C 473.003 -5.96353 -2.1106 0
M  V30 5276 C 471.667 -6.35853 -2.03093 0
M  V30 5277 H 470.937 -0.486168 -0.559215 0
M  V30 5278 H 473.584 -1.69757 -0.886277 0
M  V30 5279 H 471.889 -1.77663 -3.49204 0
M  V30 5280 H 473.586 -2.15256 -3.38328 0
M  V30 5281 H 470.176 -3.37759 -2.63851 0
M  V30 5282 H 474.36 -4.33346 -2.41919 0
M  V30 5283 H 469.616 -5.72173 -2.15472 0
M  V30 5284 H 473.79 -6.68667 -1.94568 0
M  V30 5285 H 471.417 -7.38382 -1.8082 0
M  V30 5286 N 472.992 0.995999 -1.22138 0
M  V30 5287 C 474.217 1.77601 -1.0711 0
M  V30 5288 C 474.642 1.84339 0.374264 0
M  V30 5289 O 474 1.29359 1.27028 0
M  V30 5290 C 474.048 3.18897 -1.68336 0
M  V30 5291 O 473.152 4.01663 -0.934928 0
M  V30 5292 H 472.493 0.547011 -0.376397 0
M  V30 5293 H 475.023 1.25137 -1.6187 0
M  V30 5294 H 475.033 3.69539 -1.72931 0
M  V30 5295 H 473.708 3.13308 -2.73516 0
M  V30 5296 H 472.285 3.60204 -0.964751 0
M  V30 5297 N 474.47 1.03057 1.19235 0
M  V30 5298 C 475.886 0.747947 1.40989 0
M  V30 5299 C 476.086 -0.666752 1.90149 0
M  V30 5300 O 475.142 -1.43249 2.07933 0
M  V30 5301 C 476.455 1.7855 2.41951 0
M  V30 5302 C 478.003 1.80524 2.55695 0
M  V30 5303 C 478.478 2.83243 3.59913 0
M  V30 5304 N 479.969 2.8207 3.67411 0
M  V30 5305 C 480.704 3.58204 4.47747 0
M  V30 5306 N 480.2 4.44057 5.31775 0
M  V30 5307 N 481.993 3.46738 4.42413 0
M  V30 5308 H 474.144 1.94367 0.856468 0
M  V30 5309 H 476.407 0.840412 0.438647 0
M  V30 5310 H 476.113 2.79973 2.12857 0
M  V30 5311 H 475.987 1.6092 3.41152 0
M  V30 5312 H 478.374 0.79778 2.84112 0
M  V30 5313 H 478.455 2.02229 1.56643 0
M  V30 5314 H 478.099 3.84161 3.32239 0
M  V30 5315 H 478.029 2.58795 4.5862 0
M  V30 5316 H 480.52 2.19803 3.074 0
M  V30 5317 H 480.833 4.98884 5.90199 0
M  V30 5318 H 479.178 4.48129 5.3123 0
M  V30 5319 H 482.369 2.79077 3.75811 0
M  V30 5320 H 482.542 4.06322 5.04783 0
M  V30 5321 N 475.948 -1.35272 0.808662 0
M  V30 5322 C 477.194 -1.99434 0.399717 0
M  V30 5323 C 477.549 -1.62992 -1.02232 0
M  V30 5324 O 476.842 -0.884091 -1.69983 0
M  V30 5325 C 477.036 -3.53556 0.522798 0
M  V30 5326 C 476.865 -4.04969 1.95525 0
M  V30 5327 C 475.635 -4.34228 2.58407 0
M  V30 5328 C 477.833 -4.23362 2.92009 0
M  V30 5329 N 475.815 -4.71585 3.93041 0
M  V30 5330 C 477.186 -4.63739 4.11517 0
M  V30 5331 C 479.241 -4.05576 2.88813 0
M  V30 5332 C 477.944 -4.88189 5.28265 0
M  V30 5333 C 479.97 -4.31184 4.04765 0
M  V30 5334 C 479.332 -4.71834 5.23022 0
M  V30 5335 H 475.431 -0.757534 0.19408 0
M  V30 5336 H 478.015 -1.63939 1.05034 0
M  V30 5337 H 476.186 -3.88277 -0.0978471 0
M  V30 5338 H 477.918 -4.04604 0.0882378 0
M  V30 5339 H 474.673 -4.24621 2.09747 0
M  V30 5340 H 475.097 -4.9452 4.62363 0
M  V30 5341 H 479.739 -3.73288 1.98535 0
M  V30 5342 H 477.457 -5.1935 6.19113 0
M  V30 5343 H 481.043 -4.18972 4.03675 0
M  V30 5344 H 479.923 -4.91263 6.11253 0
M  V30 5345 N 477.426 -0.562348 -1.47226 0
M  V30 5346 C 478.389 0.172056 -2.28553 0
M  V30 5347 C 479.389 0.837928 -1.37242 0
M  V30 5348 O 480.579 0.693001 -1.59822 0
M  V30 5349 C 477.711 1.25223 -3.17068 0
M  V30 5350 H 478.904 -0.542401 -2.94954 0
M  V30 5351 H 476.457 -0.319493 -1.53 0
M  V30 5352 H 477.192 1.99892 -2.55369 0
M  V30 5353 H 476.977 0.779515 -3.84273 0
M  V30 5354 H 478.467 1.76791 -3.78332 0
M  V30 5355 N 478.904 1.54736 -0.299062 0
M  V30 5356 C 479.854 2.20155 0.592932 0
M  V30 5357 C 480.838 1.1739 1.10038 0
M  V30 5358 O 482.03 1.43116 1.04147 0
M  V30 5359 C 479.159 2.94437 1.76527 0
M  V30 5360 C 478.245 4.04516 1.27388 0
M  V30 5361 N 478.636 5.03319 0.500339 0
M  V30 5362 C 476.934 4.18022 1.55478 0
M  V30 5363 C 477.635 5.81209 0.238909 0
M  V30 5364 N 476.611 5.37408 0.818163 0
M  V30 5365 H 480.413 2.93899 -0.00563596 0
M  V30 5366 H 477.927 1.62068 -0.103732 0
M  V30 5367 H 479.924 3.3977 2.41582 0
M  V30 5368 H 478.584 2.22209 2.36756 0
M  V30 5369 H 479.595 5.17696 0.145419 0
M  V30 5370 H 476.272 3.56998 2.16469 0
M  V30 5371 H 477.662 6.70812 -0.382223 0
M  V30 5372 N 480.382 0.0267497 1.57577 0
M  V30 5373 C 481.292 -0.971633 2.13533 0
M  V30 5374 C 482.308 -1.35868 1.08701 0
M  V30 5375 O 483.484 -1.44058 1.40746 0
M  V30 5376 C 480.549 -2.23622 2.64941 0
M  V30 5377 C 479.61 -1.90982 3.8448 0
M  V30 5378 C 478.843 -3.11411 4.33427 0
M  V30 5379 O 479.066 -4.23992 3.81558 0
M  V30 5380 O 478 -2.93848 5.25297 0
M  V30 5381 H 481.826 -0.525853 2.99113 0
M  V30 5382 H 479.411 -0.193712 1.48139 0
M  V30 5383 H 481.293 -2.97864 2.98086 0
M  V30 5384 H 479.968 -2.67386 1.82446 0
M  V30 5385 H 478.875 -1.14132 3.56265 0
M  V30 5386 H 480.208 -1.52036 4.6813 0
M  V30 5387 N 481.861 -1.55662 -0.24637 0
M  V30 5388 C 482.791 -1.93377 -1.30873 0
M  V30 5389 C 483.772 -0.798773 -1.50179 0
M  V30 5390 O 484.957 -1.0591 -1.62778 0
M  V30 5391 C 482.087 -2.22893 -2.66338 0
M  V30 5392 C 481.041 -3.38649 -2.61727 0
M  V30 5393 C 480.367 -3.53708 -4.00992 0
M  V30 5394 C 481.667 -4.74323 -2.18666 0
M  V30 5395 H 483.361 -2.82363 -0.995552 0
M  V30 5396 H 480.907 -1.35854 -0.477464 0
M  V30 5397 H 482.86 -2.47866 -3.40794 0
M  V30 5398 H 481.584 -1.30733 -2.99293 0
M  V30 5399 H 480.243 -3.13685 -1.89729 0
M  V30 5400 H 479.891 -2.58967 -4.31214 0
M  V30 5401 H 479.591 -4.31551 -3.98795 0
M  V30 5402 H 481.115 -3.81003 -4.77147 0
M  V30 5403 H 482.529 -4.98665 -2.82854 0
M  V30 5404 H 480.926 -5.55273 -2.27579 0
M  V30 5405 H 481.996 -4.71349 -1.13834 0
M  V30 5406 N 483.339 0.512053 -1.4905 0
M  V30 5407 C 484.269 1.62365 -1.67809 0
M  V30 5408 C 485.25 1.61737 -0.526809 0
M  V30 5409 O 486.435 1.78651 -0.761404 0
M  V30 5410 C 483.565 3.00895 -1.73435 0
M  V30 5411 C 482.519 3.16387 -2.88242 0
M  V30 5412 C 481.845 4.56157 -2.78971 0
M  V30 5413 C 483.145 2.97457 -4.29321 0
M  V30 5414 H 484.839 1.46921 -2.60873 0
M  V30 5415 H 482.385 0.705379 -1.2554 0
M  V30 5416 H 484.338 3.78549 -1.85145 0
M  V30 5417 H 483.062 3.17403 -0.769619 0
M  V30 5418 H 481.721 2.41155 -2.76116 0
M  V30 5419 H 481.369 4.69525 -1.8043 0
M  V30 5420 H 481.069 4.67465 -3.5602 0
M  V30 5421 H 482.593 5.35886 -2.92675 0
M  V30 5422 H 484.007 3.64888 -4.42187 0
M  V30 5423 H 482.404 3.20245 -5.07507 0
M  V30 5424 H 483.474 1.93692 -4.44535 0
M  V30 5425 N 484.817 1.37938 0.762283 0
M  V30 5426 C 485.747 1.37176 1.88958 0
M  V30 5427 C 486.728 0.238945 1.68413 0
M  V30 5428 O 487.913 0.440726 1.89133 0
M  V30 5429 C 485.043 1.18742 3.2637 0
M  V30 5430 C 483.997 2.29136 3.61498 0
M  V30 5431 C 483.323 1.95816 4.97554 0
M  V30 5432 C 484.623 3.71363 3.6727 0
M  V30 5433 H 486.317 2.31509 1.89853 0
M  V30 5434 H 483.863 1.11438 0.912005 0
M  V30 5435 H 485.816 1.16837 4.04879 0
M  V30 5436 H 484.54 0.208683 3.25933 0
M  V30 5437 H 483.199 2.30213 2.85303 0
M  V30 5438 H 482.847 0.964475 4.93667 0
M  V30 5439 H 482.547 2.69745 5.22026 0
M  V30 5440 H 484.071 1.95513 5.78452 0
M  V30 5441 H 485.485 3.72364 4.35911 0
M  V30 5442 H 483.882 4.44425 4.03245 0
M  V30 5443 H 484.952 4.04305 2.67704 0
M  V30 5444 N 486.295 -0.989507 1.22664 0
M  V30 5445 C 487.52 -1.77031 1.08051 0
M  V30 5446 C 487.945 -1.84535 -0.364483 0
M  V30 5447 O 487.303 -1.3003 -1.2634 0
M  V30 5448 C 487.351 -3.18 1.70024 0
M  V30 5449 O 486.455 -4.01161 0.956216 0
M  V30 5450 H 485.796 -0.545008 0.379292 0
M  V30 5451 H 488.326 -1.24277 1.62531 0
M  V30 5452 H 488.336 -3.68616 1.74888 0
M  V30 5453 H 487.011 -3.11853 2.75174 0
M  V30 5454 H 485.588 -3.59687 0.98384 0
M  V30 5455 N 487.773 -1.03688 -1.18687 0
M  V30 5456 C 489.02 -0.73803 -1.88572 0
M  V30 5457 C 489.348 0.733973 -1.8012 0
M  V30 5458 O 488.603 1.55098 -1.19344 0
M  V30 5459 C 488.902 -1.14477 -3.3857 0
M  V30 5460 C 488.568 -2.61641 -3.67226 0
M  V30 5461 C 487.23 -3.01846 -3.74757 0
M  V30 5462 C 489.582 -3.56812 -3.79914 0
M  V30 5463 C 486.91 -4.36118 -3.92451 0
M  V30 5464 C 489.262 -4.90799 -3.99123 0
M  V30 5465 C 487.926 -5.3068 -4.04888 0
M  V30 5466 H 487.196 -0.270064 -0.690034 0
M  V30 5467 H 489.843 -1.3012 -1.40503 0
M  V30 5468 H 488.148 -0.500337 -3.88592 0
M  V30 5469 H 489.845 -0.89095 -3.90977 0
M  V30 5470 H 486.435 -2.29498 -3.61979 0
M  V30 5471 H 490.619 -3.26899 -3.73431 0
M  V30 5472 H 485.875 -4.66542 -3.95157 0
M  V30 5473 H 490.049 -5.64451 -4.07882 0
M  V30 5474 H 487.676 -6.34733 -4.18351 0
M  V30 5475 N 489.251 1.34841 -0.815825 0
M  V30 5476 C 490.667 1.51543 -0.500697 0
M  V30 5477 C 490.867 1.76261 0.976444 0
M  V30 5478 O 489.923 1.8094 1.76117 0
M  V30 5479 C 491.236 2.68487 -1.35407 0
M  V30 5480 C 492.784 2.82368 -1.35046 0
M  V30 5481 C 493.259 4.02347 -2.18816 0
M  V30 5482 N 494.75 4.09542 -2.16402 0
M  V30 5483 C 495.485 5.01517 -2.77971 0
M  V30 5484 N 494.981 5.98763 -3.48503 0
M  V30 5485 N 496.774 4.94334 -2.67563 0
M  V30 5486 H 488.925 1.17055 -1.77234 0
M  V30 5487 H 491.188 0.573481 -0.754866 0
M  V30 5488 H 490.894 2.56829 -2.40274 0
M  V30 5489 H 490.768 3.63321 -1.01377 0
M  V30 5490 H 493.155 2.93471 -0.309604 0
M  V30 5491 H 493.236 1.88363 -1.73069 0
M  V30 5492 H 492.88 3.92004 -3.22948 0
M  V30 5493 H 492.81 4.95551 -1.78148 0
M  V30 5494 H 495.301 3.39932 -1.65091 0
M  V30 5495 H 495.614 6.6556 -3.92747 0
M  V30 5496 H 493.959 5.98909 -3.52609 0
M  V30 5497 H 497.15 4.1732 -2.12041 0
M  V30 5498 H 497.323 5.6582 -3.15834 0
M  V30 5499 N 490.729 0.570148 1.46925 0
M  V30 5500 C 491.639 -0.173061 2.33961 0
M  V30 5501 C 492.655 -0.898825 1.48987 0
M  V30 5502 O 493.831 -0.864825 1.81887 0
M  V30 5503 C 490.896 -1.18177 3.25937 0
M  V30 5504 C 489.957 -0.462041 4.26806 0
M  V30 5505 C 489.19 -1.4227 5.14388 0
M  V30 5506 O 489.413 -2.65842 5.04662 0
M  V30 5507 O 488.347 -0.940127 5.94513 0
M  V30 5508 H 492.173 0.541216 2.98839 0
M  V30 5509 H 489.758 0.330647 1.45695 0
M  V30 5510 H 491.64 -1.76372 3.82715 0
M  V30 5511 H 490.315 -1.87774 2.63671 0
M  V30 5512 H 489.222 0.161429 3.73752 0
M  V30 5513 H 490.555 0.192719 4.91823 0
M  V30 5514 N 492.207 -1.54576 0.307264 0
M  V30 5515 C 493.154 -2.23751 -0.56604 0
M  V30 5516 C 494.124 -1.22235 -1.12462 0
M  V30 5517 O 495.309 -1.50873 -1.16799 0
M  V30 5518 C 492.449 -2.98661 -1.72903 0
M  V30 5519 C 491.562 -4.14963 -1.20124 0
M  V30 5520 C 490.697 -4.77441 -2.3286 0
M  V30 5521 C 489.736 -5.85875 -1.77247 0
M  V30 5522 N 488.873 -6.42282 -2.8358 0
M  V30 5523 H 493.713 -2.97984 0.0304578 0
M  V30 5524 H 491.25 -1.47076 0.0268015 0
M  V30 5525 H 493.208 -3.40329 -2.41313 0
M  V30 5526 H 491.838 -2.26793 -2.29706 0
M  V30 5527 H 490.89 -3.78193 -0.409198 0
M  V30 5528 H 492.202 -4.93066 -0.754171 0
M  V30 5529 H 491.356 -5.21993 -3.09205 0
M  V30 5530 H 490.095 -3.98684 -2.80896 0
M  V30 5531 H 489.1 -5.40741 -0.993926 0
M  V30 5532 H 490.325 -6.6652 -1.30107 0
M  V30 5533 H 488.271 -5.66406 -3.30939 0
M  V30 5534 H 488.188 -7.1575 -2.43388 0
M  V30 5535 H 489.456 -6.91492 -3.59804 0
M  V30 5536 O 493.724 -0.174109 -1.60559 0
M  V30 5537 H 494.415 0.415114 -1.892 0
M  V30 END ATOM
M  V30 BEGIN BOND
M  V30 END BOND
M  V30 END CTAB
M  END
$$$$
